./LIBHEJ_from_xyz.cif_generated_by_CrystalShift
_symmetry_cell_setting triclinic
_symmetry_space_group_name_H-M 'P 1'
loop_
_symmetry_equiv_pos_site_id
_symmetry_equiv_pos_as_xyz
1 x,y,z
_cell_length_a 9.983000
_cell_length_b 12.201000
_cell_length_c 15.728000
_cell_angle_alpha 95.730000
_cell_angle_beta 103.560000
_cell_angle_gamma 113.060000
_cell_volume 1673.695020
loop_
_atom_site_label
_atom_site_type_symbol
_atom_site_fract_x
_atom_site_fract_y
_atom_site_fract_z
Pb1 Pb 0.018540 0.354640 0.290430
Ge2 Ge 0.021590 0.193470 0.166430
C3 C -0.170500 0.408900 0.247000
C4 C -0.283800 0.353600 0.168300
C5 C -0.398300 0.391900 0.141900
C6 C -0.401400 0.487700 0.195500
C7 C -0.286200 0.544200 0.276500
C8 C -0.173100 0.506100 0.300700
C9 C -0.525200 0.529500 0.164900
C10 C 0.224900 0.532200 0.340700
C11 C 0.336600 0.557400 0.419800
C12 C 0.456400 0.674300 0.449400
C13 C 0.467200 0.764600 0.402300
C14 C 0.357900 0.736200 0.323700
C15 C 0.237400 0.621600 0.291700
C16 C 0.591100 0.891400 0.440700
C17 C -0.010000 0.275300 0.408300
C18 C 0.077000 0.218300 0.446600
C19 C 0.057700 0.170900 0.521100
C20 C -0.052200 0.175800 0.558800
C21 C -0.140300 0.230000 0.520800
C22 C -0.120800 0.279600 0.447600
C23 C -0.072100 0.124400 0.642000
C24 C 0.044500 0.253100 0.059000
C25 C 0.141500 0.234700 0.015300
C26 C 0.160400 0.275800 -0.062600
C27 C 0.077400 0.337300 -0.097400
C28 C -0.022600 0.354800 -0.056300
C29 C -0.033300 0.316700 0.022500
C30 C -0.174000 0.050600 0.137500
C31 C -0.268200 0.007100 0.050400
C32 C -0.407300 -0.093100 0.029700
C33 C -0.455100 -0.149200 0.094100
C34 C -0.361500 -0.108800 0.181000
C35 C -0.218800 -0.005300 0.203800
C36 C 0.190500 0.151700 0.212600
C37 C 0.327700 0.238100 0.269900
C38 C 0.452400 0.211400 0.295500
C39 C 0.439300 0.096400 0.261400
C40 C 0.304600 0.011000 0.205700
C41 C 0.179400 0.036500 0.180400
H42 H -0.284300 0.278900 0.125000
H43 H -0.486600 0.345900 0.078900
H44 H -0.285800 0.618500 0.320300
H45 H -0.083700 0.552400 0.363300
H46 H -0.508600 0.604500 0.215200
H47 H -0.635300 0.455000 0.155000
H48 H -0.520200 0.558900 0.102700
H49 H 0.331800 0.488200 0.458400
H50 H 0.544200 0.694200 0.511600
H51 H 0.365200 0.805300 0.284700
H52 H 0.152500 0.602200 0.228500
H53 H 0.665800 0.894200 0.503800
H54 H 0.541400 0.954000 0.451100
H55 H 0.655700 0.917400 0.394000
H56 H 0.161600 0.210500 0.417500
H57 H 0.130200 0.129800 0.550800
H58 H -0.227400 0.234200 0.549100
H59 H -0.191900 0.322800 0.419800
H60 H 0.007400 0.085400 0.661900
H61 H -0.187300 0.054800 0.627000
H62 H -0.051500 0.196800 0.696000
H63 H 0.205900 0.186400 0.043000
H64 H 0.237400 0.259800 -0.094900
H65 H 0.091100 0.372100 -0.156900
H66 H -0.092200 0.398400 -0.085800
H67 H -0.105800 0.337100 0.056500
H68 H -0.233600 0.051800 -0.001800
H69 H -0.478900 -0.127600 -0.039000
H70 H -0.566400 -0.225000 0.077400
H71 H -0.396300 -0.155900 0.232300
H72 H -0.146500 0.028800 0.272300
H73 H 0.338400 0.327800 0.295200
H74 H 0.559000 0.279200 0.341300
H75 H 0.536300 0.075400 0.280200
H76 H 0.295200 -0.077900 0.179700
H77 H 0.072500 -0.032900 0.136300
Pb78 Pb 0.981460 0.645360 0.709570
Ge79 Ge 0.978410 0.806530 0.833570
C80 C 1.170500 0.591100 0.753000
C81 C 1.283800 0.646400 0.831700
C82 C 1.398300 0.608100 0.858100
C83 C 1.401400 0.512300 0.804500
C84 C 1.286200 0.455800 0.723500
C85 C 1.173100 0.493900 0.699300
C86 C 1.525200 0.470500 0.835100
C87 C 0.775100 0.467800 0.659300
C88 C 0.663400 0.442600 0.580200
C89 C 0.543600 0.325700 0.550600
C90 C 0.532800 0.235400 0.597700
C91 C 0.642100 0.263800 0.676300
C92 C 0.762600 0.378400 0.708300
C93 C 0.408900 0.108600 0.559300
C94 C 1.010000 0.724700 0.591700
C95 C 0.923000 0.781700 0.553400
C96 C 0.942300 0.829100 0.478900
C97 C 1.052200 0.824200 0.441200
C98 C 1.140300 0.770000 0.479200
C99 C 1.120800 0.720400 0.552400
C100 C 1.072100 0.875600 0.358000
C101 C 0.955500 0.746900 0.941000
C102 C 0.858500 0.765300 0.984700
C103 C 0.839600 0.724200 1.062600
C104 C 0.922600 0.662700 1.097400
C105 C 1.022600 0.645200 1.056300
C106 C 1.033300 0.683300 0.977500
C107 C 1.174000 0.949400 0.862500
C108 C 1.268200 0.992900 0.949600
C109 C 1.407300 1.093100 0.970300
C110 C 1.455100 1.149200 0.905900
C111 C 1.361500 1.108800 0.819000
C112 C 1.218800 1.005300 0.796200
C113 C 0.809500 0.848300 0.787400
C114 C 0.672300 0.761900 0.730100
C115 C 0.547600 0.788600 0.704500
C116 C 0.560700 0.903600 0.738600
C117 C 0.695400 0.989000 0.794300
C118 C 0.820600 0.963500 0.819600
H119 H 1.284300 0.721100 0.875000
H120 H 1.486600 0.654100 0.921100
H121 H 1.285800 0.381500 0.679700
H122 H 1.083700 0.447600 0.636700
H123 H 1.508600 0.395500 0.784800
H124 H 1.635300 0.545000 0.845000
H125 H 1.520200 0.441100 0.897300
H126 H 0.668200 0.511800 0.541600
H127 H 0.455800 0.305800 0.488400
H128 H 0.634800 0.194700 0.715300
H129 H 0.847500 0.397800 0.771500
H130 H 0.334200 0.105800 0.496200
H131 H 0.458600 0.046000 0.548900
H132 H 0.344300 0.082600 0.606000
H133 H 0.838400 0.789500 0.582500
H134 H 0.869800 0.870200 0.449200
H135 H 1.227400 0.765800 0.450900
H136 H 1.191900 0.677200 0.580200
H137 H 0.992600 0.914600 0.338100
H138 H 1.187300 0.945200 0.373000
H139 H 1.051500 0.803200 0.304000
H140 H 0.794100 0.813600 0.957000
H141 H 0.762600 0.740200 1.094900
H142 H 0.908900 0.627900 1.156900
H143 H 1.092200 0.601600 1.085800
H144 H 1.105800 0.662900 0.943500
H145 H 1.233600 0.948200 1.001800
H146 H 1.478900 1.127600 1.039000
H147 H 1.566400 1.225000 0.922600
H148 H 1.396300 1.155900 0.767700
H149 H 1.146500 0.971200 0.727700
H150 H 0.661600 0.672200 0.704800
H151 H 0.441000 0.720800 0.658700
H152 H 0.463700 0.924600 0.719800
H153 H 0.704800 1.077900 0.820300
H154 H 0.927500 1.032900 0.863700

#END
