
#######################################################################
#
#                 Cambridge Crystallographic Data Centre
#                                CCDC 
#
#######################################################################
#
# If this CIF has been generated from an entry in the Cambridge 
# Structural Database, then it will include bibliographic, chemical, 
# crystal, experimental, refinement or atomic coordinate data resulting 
# from the CCDC's data processing and validation procedures.
#
#######################################################################

data_LIBJIP
_symmetry_cell_setting           monoclinic
_symmetry_space_group_name_H-M   'P 21/c'
_symmetry_Int_Tables_number      14
_space_group_name_Hall           '-P 2ybc'
loop_
_symmetry_equiv_pos_site_id
_symmetry_equiv_pos_as_xyz
1 x,y,z
2 -x,1/2+y,1/2-z
3 -x,-y,-z
4 x,1/2-y,1/2+z
_cell_length_a                   11.388(3)
_cell_length_b                   10.536(2)
_cell_length_c                   13.154(4)
_cell_angle_alpha                90
_cell_angle_beta                 105.99(2)
_cell_angle_gamma                90
_cell_volume                     1517.21
loop_
_atom_site_label
_atom_site_type_symbol
_atom_site_fract_x
_atom_site_fract_y
_atom_site_fract_z
O1 O 0.9197(3) 0.2000(3) 0.8090(3)
O2 O 0.9412(3) 0.0445(3) 1.0958(3)
O3 O 0.7900(4) 0.0569(4) 0.7260(3)
C1 C 0.9862(4) 0.2590(5) 0.9019(4)
C2 C 1.0660(5) 0.3526(5) 0.8857(4)
C3 C 1.1398(5) 0.4141(5) 0.9719(4)
C4 C 1.1337(5) 0.3852(5) 1.0714(4)
C5 C 1.0531(5) 0.2931(5) 1.0870(4)
C6 C 0.9785(4) 0.2287(4) 1.0013(4)
C7 C 0.8856(4) 0.1336(5) 1.0152(4)
C8 C 0.8070(4) 0.0775(5) 0.9097(4)
C9 C 0.8336(4) 0.1051(5) 0.8093(4)
C10 C 0.8434(5) -0.0085(6) 1.1312(4)
C11 C 0.7485(5) 0.0958(5) 1.1244(4)
C12 C 0.7669(4) 0.1840(5) 1.0372(4)
C13 C 0.6991(4) 0.1533(5) 0.9243(4)
C14 C 0.5990(5) 0.1899(5) 0.8550(4)
C15 C 0.4983(5) 0.2776(5) 0.8691(5)
C16 C 0.5333(7) 0.4124(6) 0.8501(8)
C17 C 0.3793(6) 0.2441(7) 0.7891(6)
C18 C 0.4787(6) 0.2657(8) 0.9782(6)
H1 H 1.068 0.375 0.816
H2 H 1.196 0.477 0.962
H3 H 1.185 0.429 1.131
H4 H 1.050 0.273 1.157
H5 H 0.807 -0.077 1.087
H6 H 0.807 -0.012 0.900
H7 H 0.874 -0.038 1.202
H8 H 0.667 0.063 1.106
H9 H 0.764 0.139 1.190
H10 H 0.753 0.266 1.061
H11 H 0.588 0.157 0.786
H12 H 0.472 0.470 0.858
H13 H 0.610 0.433 0.899
H14 H 0.541 0.418 0.780
H15 H 0.315 0.297 0.797
H16 H 0.390 0.254 0.720
H17 H 0.360 0.158 0.799
H18 H 0.415 0.321 0.985
H19 H 0.458 0.181 0.990
H20 H 0.553 0.288 1.029
O1 O 0.0803(3) 0.7000(3) 0.6910(3)
O2 O 0.0588(3) 0.5445(3) 0.4042(3)
O3 O 0.2100(4) 0.5569(4) 0.7740(3)
C1 C 0.0138(4) 0.7590(5) 0.5981(4)
C2 C -0.0660(5) 0.8526(5) 0.6143(4)
C3 C -0.1398(5) 0.9141(5) 0.5281(4)
C4 C -0.1337(5) 0.8852(5) 0.4286(4)
C5 C -0.0531(5) 0.7931(5) 0.4130(4)
C6 C 0.0215(4) 0.7287(4) 0.4987(4)
C7 C 0.1144(4) 0.6336(5) 0.4848(4)
C8 C 0.1930(4) 0.5775(5) 0.5903(4)
C9 C 0.1664(4) 0.6051(5) 0.6907(4)
C10 C 0.1566(5) 0.4915(6) 0.3688(4)
C11 C 0.2515(5) 0.5958(5) 0.3756(4)
C12 C 0.2331(4) 0.6840(5) 0.4628(4)
C13 C 0.3009(4) 0.6533(5) 0.5757(4)
C14 C 0.4010(5) 0.6899(5) 0.6450(4)
C15 C 0.5017(5) 0.7776(5) 0.6309(5)
C16 C 0.4667(7) 0.9124(6) 0.6499(8)
C17 C 0.6207(6) 0.7441(7) 0.7109(6)
C18 C 0.5213(6) 0.7657(8) 0.5218(6)
H1 H -0.068 0.875 0.684
H2 H -0.196 0.977 0.538
H3 H -0.185 0.929 0.369
H4 H -0.050 0.773 0.343
H5 H 0.193 0.423 0.413
H6 H 0.193 0.488 0.600
H7 H 0.126 0.462 0.298
H8 H 0.333 0.563 0.394
H9 H 0.236 0.639 0.310
H10 H 0.247 0.766 0.439
H11 H 0.412 0.657 0.714
H12 H 0.528 0.970 0.642
H13 H 0.390 0.933 0.601
H14 H 0.459 0.918 0.720
H15 H 0.685 0.797 0.703
H16 H 0.610 0.754 0.780
H17 H 0.640 0.658 0.701
H18 H 0.585 0.821 0.515
H19 H 0.542 0.681 0.510
H20 H 0.447 0.788 0.471
O1 O 0.0803(3) 0.8000(3) 0.1910(3)
O2 O 0.0588(3) 0.9555(3) -0.0958(3)
O3 O 0.2100(4) 0.9431(4) 0.2740(3)
C1 C 0.0138(4) 0.7410(5) 0.0981(4)
C2 C -0.0660(5) 0.6474(5) 0.1143(4)
C3 C -0.1398(5) 0.5859(5) 0.0281(4)
C4 C -0.1337(5) 0.6148(5) -0.0714(4)
C5 C -0.0531(5) 0.7069(5) -0.0870(4)
C6 C 0.0215(4) 0.7713(4) -0.0013(4)
C7 C 0.1144(4) 0.8664(5) -0.0152(4)
C8 C 0.1930(4) 0.9225(5) 0.0903(4)
C9 C 0.1664(4) 0.8949(5) 0.1907(4)
C10 C 0.1566(5) 1.0085(6) -0.1312(4)
C11 C 0.2515(5) 0.9042(5) -0.1244(4)
C12 C 0.2331(4) 0.8160(5) -0.0372(4)
C13 C 0.3009(4) 0.8467(5) 0.0757(4)
C14 C 0.4010(5) 0.8101(5) 0.1450(4)
C15 C 0.5017(5) 0.7224(5) 0.1309(5)
C16 C 0.4667(7) 0.5876(6) 0.1499(8)
C17 C 0.6207(6) 0.7559(7) 0.2109(6)
C18 C 0.5213(6) 0.7343(8) 0.0218(6)
H1 H -0.068 0.625 0.184
H2 H -0.196 0.523 0.038
H3 H -0.185 0.571 -0.131
H4 H -0.050 0.727 -0.157
H5 H 0.193 1.077 -0.087
H6 H 0.193 1.012 0.100
H7 H 0.126 1.038 -0.202
H8 H 0.333 0.937 -0.106
H9 H 0.236 0.861 -0.190
H10 H 0.247 0.734 -0.061
H11 H 0.412 0.843 0.214
H12 H 0.528 0.530 0.142
H13 H 0.390 0.567 0.101
H14 H 0.459 0.582 0.220
H15 H 0.685 0.703 0.203
H16 H 0.610 0.746 0.280
H17 H 0.640 0.842 0.201
H18 H 0.585 0.679 0.015
H19 H 0.542 0.819 0.010
H20 H 0.447 0.712 -0.029
O1 O 0.9197(3) 0.3000(3) 0.3090(3)
O2 O 0.9412(3) 0.4555(3) 0.5958(3)
O3 O 0.7900(4) 0.4431(4) 0.2260(3)
C1 C 0.9862(4) 0.2410(5) 0.4019(4)
C2 C 1.0660(5) 0.1474(5) 0.3857(4)
C3 C 1.1398(5) 0.0859(5) 0.4719(4)
C4 C 1.1337(5) 0.1148(5) 0.5714(4)
C5 C 1.0531(5) 0.2069(5) 0.5870(4)
C6 C 0.9785(4) 0.2713(4) 0.5013(4)
C7 C 0.8856(4) 0.3664(5) 0.5152(4)
C8 C 0.8070(4) 0.4225(5) 0.4097(4)
C9 C 0.8336(4) 0.3949(5) 0.3093(4)
C10 C 0.8434(5) 0.5085(6) 0.6312(4)
C11 C 0.7485(5) 0.4042(5) 0.6244(4)
C12 C 0.7669(4) 0.3160(5) 0.5372(4)
C13 C 0.6991(4) 0.3467(5) 0.4243(4)
C14 C 0.5990(5) 0.3101(5) 0.3550(4)
C15 C 0.4983(5) 0.2224(5) 0.3691(5)
C16 C 0.5333(7) 0.0876(6) 0.3501(8)
C17 C 0.3793(6) 0.2559(7) 0.2891(6)
C18 C 0.4787(6) 0.2343(8) 0.4782(6)
H1 H 1.068 0.125 0.316
H2 H 1.196 0.023 0.462
H3 H 1.185 0.071 0.631
H4 H 1.050 0.227 0.657
H5 H 0.807 0.577 0.587
H6 H 0.807 0.512 0.400
H7 H 0.874 0.538 0.702
H8 H 0.667 0.437 0.606
H9 H 0.764 0.361 0.690
H10 H 0.753 0.234 0.561
H11 H 0.588 0.343 0.286
H12 H 0.472 0.030 0.358
H13 H 0.610 0.067 0.399
H14 H 0.541 0.082 0.280
H15 H 0.315 0.203 0.297
H16 H 0.390 0.246 0.220
H17 H 0.360 0.342 0.299
H18 H 0.415 0.179 0.485
H19 H 0.458 0.319 0.490
H20 H 0.553 0.212 0.529

#END
