
#######################################################################
#
#                 Cambridge Crystallographic Data Centre
#                                CCDC 
#
#######################################################################
#
# If this CIF has been generated from an entry in the Cambridge 
# Structural Database, then it will include bibliographic, chemical, 
# crystal, experimental, refinement or atomic coordinate data resulting 
# from the CCDC's data processing and validation procedures.
#
#######################################################################

data_LICFUZ
_symmetry_cell_setting           monoclinic
_symmetry_space_group_name_H-M   'P 21/n'
_symmetry_Int_Tables_number      14
_space_group_name_Hall           '-P 2yn'
loop_
_symmetry_equiv_pos_site_id
_symmetry_equiv_pos_as_xyz
1 x,y,z
2 1/2-x,1/2+y,1/2-z
3 -x,-y,-z
4 1/2+x,1/2-y,1/2+z
_cell_length_a                   5.9580(5)
_cell_length_b                   12.2984(10)
_cell_length_c                   11.9168(9)
_cell_angle_alpha                90
_cell_angle_beta                 90.1850(10)
_cell_angle_gamma                90
_cell_volume                     873.185
loop_
_atom_site_label
_atom_site_type_symbol
_atom_site_fract_x
_atom_site_fract_y
_atom_site_fract_z
C1 C 0.0407(2) 0.18569(11) 0.15406(11)
C2 C 0.0632(2) 0.07187(11) 0.14866(11)
C3 C -0.0952(2) 0.00537(11) 0.19891(11)
H1 H -0.0793 -0.0714 0.1952
C4 C -0.2761(2) 0.05025(12) 0.25424(12)
H2 H -0.3845 0.0041 0.2879
C5 C -0.3007(2) 0.16227(12) 0.26102(12)
H3 H -0.4251 0.1929 0.2994
C6 C -0.1429(2) 0.22868(11) 0.21155(11)
H4 H -0.1595 0.3053 0.2167
C7 C 0.2881(3) -0.08005(11) 0.09169(13)
H5 H 0.3024 -0.1055 0.1693
H6 H 0.4276 -0.0950 0.0512
H7 H 0.1634 -0.1180 0.0549
C8 C 0.2015(2) 0.25688(11) 0.09754(11)
H8 H 0.3150 0.2253 0.0522
C9 C 0.3524(2) 0.42638(10) 0.05186(10)
C10 C 0.2974(2) 0.53613(10) 0.04102(11)
H9 H 0.1581 0.5614 0.0695
C11 C 0.5591(2) 0.39127(10) 0.01014(11)
H10 H 0.6009 0.3170 0.0171
N1 N 0.19386(19) 0.35969(9) 0.10739(9)
O1 O 0.24547(17) 0.03454(7) 0.09121(8)
C1B C 0.9593(2) 0.81431(11) -0.15406(11)
C2B C 0.9368(2) 0.92813(11) -0.14866(11)
C3B C 1.0952(2) 0.99463(11) -0.19891(11)
H1B H 1.0793 1.0714 -0.1952
C4B C 1.2761(2) 0.94975(12) -0.25424(12)
H2B H 1.3845 0.9959 -0.2879
C5B C 1.3007(2) 0.83773(12) -0.26102(12)
H3B H 1.4251 0.8071 -0.2994
C6B C 1.1429(2) 0.77132(11) -0.21155(11)
H4B H 1.1595 0.6947 -0.2167
C7B C 0.7119(3) 1.08005(11) -0.09169(13)
H5B H 0.6976 1.1055 -0.1693
H6B H 0.5724 1.0950 -0.0512
H7B H 0.8366 1.1180 -0.0549
C8B C 0.7985(2) 0.74312(11) -0.09754(11)
H8B H 0.6850 0.7747 -0.0522
C9B C 0.6476(2) 0.57362(10) -0.05186(10)
C10B C 0.7026(2) 0.46387(10) -0.04102(11)
H9B H 0.8419 0.4386 -0.0695
C11B C 0.4409(2) 0.60873(10) -0.01014(11)
H10B H 0.3991 0.6830 -0.0171
N1B N 0.80614(19) 0.64031(9) -0.10739(9)
O1B O 0.75453(17) 0.96546(7) -0.09121(8)
C1 C 0.0407(2) 0.18569(11) 1.15406(11)
C2 C 0.0632(2) 0.07187(11) 1.14866(11)
C3 C -0.0952(2) 0.00537(11) 1.19891(11)
H1 H -0.0793 -0.0714 1.1952
C4 C -0.2761(2) 0.05025(12) 1.25424(12)
H2 H -0.3845 0.0041 1.2879
C5 C -0.3007(2) 0.16227(12) 1.26102(12)
H3 H -0.4251 0.1929 1.2994
C6 C -0.1429(2) 0.22868(11) 1.21155(11)
H4 H -0.1595 0.3053 1.2167
C7 C 0.2881(3) -0.08005(11) 1.09169(13)
H5 H 0.3024 -0.1055 1.1693
H6 H 0.4276 -0.0950 1.0512
H7 H 0.1634 -0.1180 1.0549
C8 C 0.2015(2) 0.25688(11) 1.09754(11)
H8 H 0.3150 0.2253 1.0522
C9 C 0.3524(2) 0.42638(10) 1.05186(10)
C10 C 0.2974(2) 0.53613(10) 1.04102(11)
H9 H 0.1581 0.5614 1.0695
C11 C 0.5591(2) 0.39127(10) 1.01014(11)
H10 H 0.6009 0.3170 1.0171
N1 N 0.19386(19) 0.35969(9) 1.10739(9)
O1 O 0.24547(17) 0.03454(7) 1.09121(8)
C1B C 0.9593(2) 0.81431(11) 0.84594(11)
C2B C 0.9368(2) 0.92813(11) 0.85134(11)
C3B C 1.0952(2) 0.99463(11) 0.80109(11)
H1B H 1.0793 1.0714 0.8048
C4B C 1.2761(2) 0.94975(12) 0.74576(12)
H2B H 1.3845 0.9959 0.7121
C5B C 1.3007(2) 0.83773(12) 0.73898(12)
H3B H 1.4251 0.8071 0.7006
C6B C 1.1429(2) 0.77132(11) 0.78845(11)
H4B H 1.1595 0.6947 0.7833
C7B C 0.7119(3) 1.08005(11) 0.90831(13)
H5B H 0.6976 1.1055 0.8307
H6B H 0.5724 1.0950 0.9488
H7B H 0.8366 1.1180 0.9451
C8B C 0.7985(2) 0.74312(11) 0.90246(11)
H8B H 0.6850 0.7747 0.9478
C9B C 0.6476(2) 0.57362(10) 0.94814(10)
C10B C 0.7026(2) 0.46387(10) 0.95898(11)
H9B H 0.8419 0.4386 0.9305
C11B C 0.4409(2) 0.60873(10) 0.98986(11)
H10B H 0.3991 0.6830 0.9829
N1B N 0.80614(19) 0.64031(9) 0.89261(9)
O1B O 0.75453(17) 0.96546(7) 0.90879(8)
C1 C 0.4593(2) -0.31431(11) 0.34594(11)
C2 C 0.4368(2) -0.42813(11) 0.35134(11)
C3 C 0.5952(2) -0.49463(11) 0.30109(11)
H1 H 0.5793 -0.5714 0.3048
C4 C 0.7761(2) -0.44975(12) 0.24576(12)
H2 H 0.8845 -0.4959 0.2121
C5 C 0.8007(2) -0.33773(12) 0.23898(12)
H3 H 0.9251 -0.3071 0.2006
C6 C 0.6429(2) -0.27132(11) 0.28845(11)
H4 H 0.6595 -0.1947 0.2833
C7 C 0.2119(3) -0.58005(11) 0.40831(13)
H5 H 0.1976 -0.6055 0.3307
H6 H 0.0724 -0.5950 0.4488
H7 H 0.3366 -0.6180 0.4451
C8 C 0.2985(2) -0.24312(11) 0.40246(11)
H8 H 0.1850 -0.2747 0.4478
C9 C 0.1476(2) -0.07362(10) 0.44814(10)
C10 C 0.2026(2) 0.03613(10) 0.45898(11)
H9 H 0.3419 0.0614 0.4305
C11 C -0.0591(2) -0.10873(10) 0.48986(11)
H10 H -0.1009 -0.1830 0.4829
N1 N 0.30614(19) -0.14031(9) 0.39261(9)
O1 O 0.25453(17) -0.46546(7) 0.40879(8)
C1B C -0.4593(2) 0.31431(11) 0.65406(11)
C2B C -0.4368(2) 0.42813(11) 0.64866(11)
C3B C -0.5952(2) 0.49463(11) 0.69891(11)
H1B H -0.5793 0.5714 0.6952
C4B C -0.7761(2) 0.44975(12) 0.75424(12)
H2B H -0.8845 0.4959 0.7879
C5B C -0.8007(2) 0.33773(12) 0.76102(12)
H3B H -0.9251 0.3071 0.7994
C6B C -0.6429(2) 0.27132(11) 0.71155(11)
H4B H -0.6595 0.1947 0.7167
C7B C -0.2119(3) 0.58005(11) 0.59169(13)
H5B H -0.1976 0.6055 0.6693
H6B H -0.0724 0.5950 0.5512
H7B H -0.3366 0.6180 0.5549
C8B C -0.2985(2) 0.24312(11) 0.59754(11)
H8B H -0.1850 0.2747 0.5522
C9B C -0.1476(2) 0.07362(10) 0.55186(10)
C10B C -0.2026(2) -0.03613(10) 0.54102(11)
H9B H -0.3419 -0.0614 0.5695
C11B C 0.0591(2) 0.10873(10) 0.51014(11)
H10B H 0.1009 0.1830 0.5171
N1B N -0.30614(19) 0.14031(9) 0.60739(9)
O1B O -0.25453(17) 0.46546(7) 0.59121(8)
C1 C 0.4593(2) 0.68569(11) 0.34594(11)
C2 C 0.4368(2) 0.57187(11) 0.35134(11)
C3 C 0.5952(2) 0.50537(11) 0.30109(11)
H1 H 0.5793 0.4286 0.3048
C4 C 0.7761(2) 0.55025(12) 0.24576(12)
H2 H 0.8845 0.5041 0.2121
C5 C 0.8007(2) 0.66227(12) 0.23898(12)
H3 H 0.9251 0.6929 0.2006
C6 C 0.6429(2) 0.72868(11) 0.28845(11)
H4 H 0.6595 0.8053 0.2833
C7 C 0.2119(3) 0.41995(11) 0.40831(13)
H5 H 0.1976 0.3945 0.3307
H6 H 0.0724 0.4050 0.4488
H7 H 0.3366 0.3820 0.4451
C8 C 0.2985(2) 0.75688(11) 0.40246(11)
H8 H 0.1850 0.7253 0.4478
C9 C 0.1476(2) 0.92638(10) 0.44814(10)
C10 C 0.2026(2) 1.03613(10) 0.45898(11)
H9 H 0.3419 1.0614 0.4305
C11 C -0.0591(2) 0.89127(10) 0.48986(11)
H10 H -0.1009 0.8170 0.4829
N1 N 0.30614(19) 0.85969(9) 0.39261(9)
O1 O 0.25453(17) 0.53454(7) 0.40879(8)
C1B C -0.4593(2) 1.31431(11) 0.65406(11)
C2B C -0.4368(2) 1.42813(11) 0.64866(11)
C3B C -0.5952(2) 1.49463(11) 0.69891(11)
H1B H -0.5793 1.5714 0.6952
C4B C -0.7761(2) 1.44975(12) 0.75424(12)
H2B H -0.8845 1.4959 0.7879
C5B C -0.8007(2) 1.33773(12) 0.76102(12)
H3B H -0.9251 1.3071 0.7994
C6B C -0.6429(2) 1.27132(11) 0.71155(11)
H4B H -0.6595 1.1947 0.7167
C7B C -0.2119(3) 1.58005(11) 0.59169(13)
H5B H -0.1976 1.6055 0.6693
H6B H -0.0724 1.5950 0.5512
H7B H -0.3366 1.6180 0.5549
C8B C -0.2985(2) 1.24312(11) 0.59754(11)
H8B H -0.1850 1.2747 0.5522
C9B C -0.1476(2) 1.07362(10) 0.55186(10)
C10B C -0.2026(2) 0.96387(10) 0.54102(11)
H9B H -0.3419 0.9386 0.5695
C11B C 0.0591(2) 1.10873(10) 0.51014(11)
H10B H 0.1009 1.1830 0.5171
N1B N -0.30614(19) 1.14031(9) 0.60739(9)
O1B O -0.25453(17) 1.46546(7) 0.59121(8)
C1 C 1.4593(2) -0.31431(11) 0.34594(11)
C2 C 1.4368(2) -0.42813(11) 0.35134(11)
C3 C 1.5952(2) -0.49463(11) 0.30109(11)
H1 H 1.5793 -0.5714 0.3048
C4 C 1.7761(2) -0.44975(12) 0.24576(12)
H2 H 1.8845 -0.4959 0.2121
C5 C 1.8007(2) -0.33773(12) 0.23898(12)
H3 H 1.9251 -0.3071 0.2006
C6 C 1.6429(2) -0.27132(11) 0.28845(11)
H4 H 1.6595 -0.1947 0.2833
C7 C 1.2119(3) -0.58005(11) 0.40831(13)
H5 H 1.1976 -0.6055 0.3307
H6 H 1.0724 -0.5950 0.4488
H7 H 1.3366 -0.6180 0.4451
C8 C 1.2985(2) -0.24312(11) 0.40246(11)
H8 H 1.1850 -0.2747 0.4478
C9 C 1.1476(2) -0.07362(10) 0.44814(10)
C10 C 1.2026(2) 0.03613(10) 0.45898(11)
H9 H 1.3419 0.0614 0.4305
C11 C 0.9409(2) -0.10873(10) 0.48986(11)
H10 H 0.8991 -0.1830 0.4829
N1 N 1.30614(19) -0.14031(9) 0.39261(9)
O1 O 1.25453(17) -0.46546(7) 0.40879(8)
C1B C 0.5407(2) 0.31431(11) 0.65406(11)
C2B C 0.5632(2) 0.42813(11) 0.64866(11)
C3B C 0.4048(2) 0.49463(11) 0.69891(11)
H1B H 0.4207 0.5714 0.6952
C4B C 0.2239(2) 0.44975(12) 0.75424(12)
H2B H 0.1155 0.4959 0.7879
C5B C 0.1993(2) 0.33773(12) 0.76102(12)
H3B H 0.0749 0.3071 0.7994
C6B C 0.3571(2) 0.27132(11) 0.71155(11)
H4B H 0.3405 0.1947 0.7167
C7B C 0.7881(3) 0.58005(11) 0.59169(13)
H5B H 0.8024 0.6055 0.6693
H6B H 0.9276 0.5950 0.5512
H7B H 0.6634 0.6180 0.5549
C8B C 0.7015(2) 0.24312(11) 0.59754(11)
H8B H 0.8150 0.2747 0.5522
C9B C 0.8524(2) 0.07362(10) 0.55186(10)
C10B C 0.7974(2) -0.03613(10) 0.54102(11)
H9B H 0.6581 -0.0614 0.5695
C11B C 1.0591(2) 0.10873(10) 0.51014(11)
H10B H 1.1009 0.1830 0.5171
N1B N 0.69386(19) 0.14031(9) 0.60739(9)
O1B O 0.74547(17) 0.46546(7) 0.59121(8)
C1 C 1.4593(2) 0.68569(11) 0.34594(11)
C2 C 1.4368(2) 0.57187(11) 0.35134(11)
C3 C 1.5952(2) 0.50537(11) 0.30109(11)
H1 H 1.5793 0.4286 0.3048
C4 C 1.7761(2) 0.55025(12) 0.24576(12)
H2 H 1.8845 0.5041 0.2121
C5 C 1.8007(2) 0.66227(12) 0.23898(12)
H3 H 1.9251 0.6929 0.2006
C6 C 1.6429(2) 0.72868(11) 0.28845(11)
H4 H 1.6595 0.8053 0.2833
C7 C 1.2119(3) 0.41995(11) 0.40831(13)
H5 H 1.1976 0.3945 0.3307
H6 H 1.0724 0.4050 0.4488
H7 H 1.3366 0.3820 0.4451
C8 C 1.2985(2) 0.75688(11) 0.40246(11)
H8 H 1.1850 0.7253 0.4478
C9 C 1.1476(2) 0.92638(10) 0.44814(10)
C10 C 1.2026(2) 1.03613(10) 0.45898(11)
H9 H 1.3419 1.0614 0.4305
C11 C 0.9409(2) 0.89127(10) 0.48986(11)
H10 H 0.8991 0.8170 0.4829
N1 N 1.30614(19) 0.85969(9) 0.39261(9)
O1 O 1.25453(17) 0.53454(7) 0.40879(8)
C1B C 0.5407(2) 1.31431(11) 0.65406(11)
C2B C 0.5632(2) 1.42813(11) 0.64866(11)
C3B C 0.4048(2) 1.49463(11) 0.69891(11)
H1B H 0.4207 1.5714 0.6952
C4B C 0.2239(2) 1.44975(12) 0.75424(12)
H2B H 0.1155 1.4959 0.7879
C5B C 0.1993(2) 1.33773(12) 0.76102(12)
H3B H 0.0749 1.3071 0.7994
C6B C 0.3571(2) 1.27132(11) 0.71155(11)
H4B H 0.3405 1.1947 0.7167
C7B C 0.7881(3) 1.58005(11) 0.59169(13)
H5B H 0.8024 1.6055 0.6693
H6B H 0.9276 1.5950 0.5512
H7B H 0.6634 1.6180 0.5549
C8B C 0.7015(2) 1.24312(11) 0.59754(11)
H8B H 0.8150 1.2747 0.5522
C9B C 0.8524(2) 1.07362(10) 0.55186(10)
C10B C 0.7974(2) 0.96387(10) 0.54102(11)
H9B H 0.6581 0.9386 0.5695
C11B C 1.0591(2) 1.10873(10) 0.51014(11)
H10B H 1.1009 1.1830 0.5171
N1B N 0.69386(19) 1.14031(9) 0.60739(9)
O1B O 0.74547(17) 1.46546(7) 0.59121(8)

#END
