./LICJAJ_from_xyz.cif_generated_by_CrystalShift
_symmetry_cell_setting triclinic
_symmetry_space_group_name_H-M 'P 1'
loop_
_symmetry_equiv_pos_site_id
_symmetry_equiv_pos_as_xyz
1 x,y,z
_cell_length_a 7.085000
_cell_length_b 10.711000
_cell_length_c 15.587000
_cell_angle_alpha 87.916000
_cell_angle_beta 80.861000
_cell_angle_gamma 89.664000
_cell_volume 1167.069737
loop_
_atom_site_label
_atom_site_type_symbol
_atom_site_fract_x
_atom_site_fract_y
_atom_site_fract_z
O1 O 0.578100 0.798400 0.182000
O2 O 0.529700 0.656800 0.085780
O3 O 0.764100 0.842400 -0.136300
O4 O 0.904000 0.934900 -0.287900
N5 N 0.648000 0.841100 0.034600
C6 C 0.710200 0.965300 0.029800
C7 C 0.794200 1.020400 -0.051200
C8 C 0.857200 1.144500 -0.054600
C9 C 0.844100 1.216500 0.018900
C10 C 0.755700 1.159400 0.096900
C11 C 0.691700 1.037300 0.103500
C12 C 0.583900 0.769000 0.107800
C13 C 0.456200 0.570200 0.157600
C14 C 0.391700 0.455700 0.124400
C15 C 0.812000 0.952800 -0.133200
C16 C 0.892000 1.019100 -0.218900
C17 C 0.923300 1.346000 0.014900
H18 H 0.649800 0.802400 -0.022700
H19 H 0.557900 0.550800 0.192800
H20 H 0.348500 0.609500 0.195500
H21 H 0.284600 0.474300 0.093200
H22 H 0.350100 0.396300 0.172900
H23 H 0.496900 0.419200 0.084600
H24 H 0.808300 1.090200 -0.230100
H25 H 1.020700 1.052400 -0.215800
H26 H 0.867900 0.863600 -0.267800
H27 H 0.911200 1.181200 -0.109300
H28 H 0.985000 1.367200 -0.044600
H29 H 1.017400 1.350600 0.054500
H30 H 0.819300 1.405200 0.032300
H31 H 0.738700 1.206800 0.147900
H32 H 0.635100 1.002200 0.158400
O33 O 0.421900 0.201600 0.818000
O34 O 0.470300 0.343200 0.914220
O35 O 0.235900 0.157600 1.136300
O36 O 0.096000 0.065100 1.287900
N37 N 0.352000 0.158900 0.965400
C38 C 0.289800 0.034700 0.970200
C39 C 0.205800 -0.020400 1.051200
C40 C 0.142800 -0.144500 1.054600
C41 C 0.155900 -0.216500 0.981100
C42 C 0.244300 -0.159400 0.903100
C43 C 0.308300 -0.037300 0.896500
C44 C 0.416100 0.231000 0.892200
C45 C 0.543800 0.429800 0.842400
C46 C 0.608300 0.544300 0.875600
C47 C 0.188000 0.047200 1.133200
C48 C 0.108000 -0.019100 1.218900
C49 C 0.076700 -0.346000 0.985100
H50 H 0.350200 0.197600 1.022700
H51 H 0.442100 0.449200 0.807200
H52 H 0.651500 0.390500 0.804500
H53 H 0.715400 0.525700 0.906800
H54 H 0.649900 0.603700 0.827100
H55 H 0.503100 0.580800 0.915400
H56 H 0.191700 -0.090200 1.230100
H57 H -0.020700 -0.052400 1.215800
H58 H 0.132100 0.136400 1.267800
H59 H 0.088800 -0.181200 1.109300
H60 H 0.015000 -0.367200 1.044600
H61 H -0.017400 -0.350600 0.945500
H62 H 0.180700 -0.405200 0.967700
H63 H 0.261300 -0.206800 0.852100
H64 H 0.364900 -0.002200 0.841600
O65 O 0.516800 0.662500 0.681400
O66 O 0.518200 0.830100 0.587950
O67 O 0.767900 0.682300 0.365900
O68 O 0.925300 0.616600 0.213500
N69 N 0.642000 0.654100 0.535100
C70 C 0.706200 0.531400 0.528600
C71 C 0.799500 0.489900 0.446800
C72 C 0.867200 0.366100 0.441300
C73 C 0.852500 0.284100 0.511500
C74 C 0.756400 0.325500 0.590800
C75 C 0.686800 0.445500 0.599500
C76 C 0.555400 0.711200 0.607900
C77 C 0.423700 0.902200 0.659400
C78 C 0.414700 1.035300 0.629000
C79 C 0.819300 0.573500 0.366500
C80 C 0.911100 0.521800 0.280100
C81 C 0.932100 0.152800 0.504900
H82 H 0.644000 0.687000 0.478700
H83 H 0.495800 0.895400 0.708900
H84 H 0.293000 0.869600 0.679300
H85 H 0.543700 1.064800 0.605100
H86 H 0.361300 1.086200 0.678000
H87 H 0.333100 1.042300 0.583800
H88 H 1.040200 0.489400 0.285200
H89 H 0.833300 0.451800 0.265100
H90 H 0.858700 0.678300 0.231500
H91 H 0.925900 0.338200 0.386200
H92 H 1.015400 0.144900 0.448800
H93 H 0.826600 0.092900 0.509500
H94 H 1.005900 0.135600 0.552100
H95 H 0.738800 0.269400 0.640100
H96 H 0.624300 0.470600 0.654700
O97 O 0.483200 0.337500 0.318600
O98 O 0.481800 0.169900 0.412050
O99 O 0.232100 0.317700 0.634100
O100 O 0.074700 0.383400 0.786500
N101 N 0.358000 0.345900 0.464900
C102 C 0.293800 0.468600 0.471400
C103 C 0.200500 0.510100 0.553200
C104 C 0.132800 0.633900 0.558700
C105 C 0.147500 0.715900 0.488500
C106 C 0.243600 0.674500 0.409200
C107 C 0.313200 0.554500 0.400500
C108 C 0.444600 0.288800 0.392100
C109 C 0.576300 0.097800 0.340600
C110 C 0.585300 -0.035300 0.371000
C111 C 0.180700 0.426500 0.633500
C112 C 0.088900 0.478200 0.719900
C113 C 0.067900 0.847200 0.495100
H114 H 0.356000 0.313000 0.521300
H115 H 0.504200 0.104600 0.291100
H116 H 0.707000 0.130400 0.320700
H117 H 0.456300 -0.064800 0.394900
H118 H 0.638700 -0.086200 0.322000
H119 H 0.666900 -0.042300 0.416200
H120 H -0.040200 0.510600 0.714800
H121 H 0.166700 0.548200 0.734900
H122 H 0.141300 0.321700 0.768500
H123 H 0.074100 0.661800 0.613800
H124 H -0.015400 0.855100 0.551200
H125 H 0.173400 0.907100 0.490500
H126 H -0.005900 0.864400 0.447900
H127 H 0.261200 0.730600 0.359900
H128 H 0.375700 0.529400 0.345300

#END
