
#######################################################################
#
#                 Cambridge Crystallographic Data Centre
#                                CCDC 
#
#######################################################################
#
# If this CIF has been generated from an entry in the Cambridge 
# Structural Database, then it will include bibliographic, chemical, 
# crystal, experimental, refinement or atomic coordinate data resulting 
# from the CCDC's data processing and validation procedures.
#
#######################################################################

data_LICKEO
_symmetry_cell_setting           orthorhombic
_symmetry_space_group_name_H-M   'P c c n'
_symmetry_Int_Tables_number      56
_space_group_name_Hall           '-P 2ab 2ac'
loop_
_symmetry_equiv_pos_site_id
_symmetry_equiv_pos_as_xyz
1 x,y,z
2 1/2-x,1/2-y,z
3 -x,1/2+y,1/2-z
4 1/2+x,-y,1/2-z
5 -x,-y,-z
6 1/2+x,1/2+y,-z
7 x,1/2-y,1/2+z
8 1/2-x,y,1/2+z
_cell_length_a                   21.423(3)
_cell_length_b                   9.5150(10)
_cell_length_c                   15.613(2)
_cell_angle_alpha                90
_cell_angle_beta                 90
_cell_angle_gamma                90
_cell_volume                     3182.55
loop_
_atom_site_label
_atom_site_type_symbol
_atom_site_fract_x
_atom_site_fract_y
_atom_site_fract_z
O1 O 0.35502(7) 0.78647(17) 0.14164(8)
O2 O 0.34732(8) 0.68905(19) 0.46165(8)
C1 C 0.40642(8) 0.8566(2) 0.17435(11)
C2 C 0.44611(10) 0.9336(2) 0.12418(13)
H1 H 0.4397 0.9385 0.0653
C3 C 0.49663(11) 1.0052(3) 0.16159(15)
H2 H 0.5238 1.0564 0.1272
C4 C 0.50606(11) 1.0003(2) 0.24819(15)
H3 H 0.5393 1.0493 0.2721
C5 C 0.46584(9) 0.9215(2) 0.30191(12)
C6 C 0.47366(10) 0.9145(2) 0.39218(13)
H4 H 0.5068 0.9622 0.4174
C7 C 0.43397(10) 0.8398(2) 0.44247(12)
H5 H 0.4397 0.8383 0.5015
C8 C 0.38416(9) 0.7645(2) 0.40549(11)
C9 C 0.37445(8) 0.7666(2) 0.31847(11)
H6 H 0.3417 0.7157 0.2946
C10 C 0.41476(8) 0.84705(19) 0.26507(11)
H12 H 0.3546(10) 0.791(2) 0.0881(10)
H13 H 0.3189(11) 0.644(3) 0.4374(18)
O1 O 0.14498(7) 0.71353(17) 0.14164(8)
O2 O 0.15268(8) 0.81095(19) 0.46165(8)
C1 C 0.09358(8) 0.6434(2) 0.17435(11)
C2 C 0.05389(10) 0.5664(2) 0.12418(13)
H1 H 0.0603 0.5615 0.0653
C3 C 0.00337(11) 0.4948(3) 0.16159(15)
H2 H -0.0238 0.4436 0.1272
C4 C -0.00606(11) 0.4997(2) 0.24819(15)
H3 H -0.0393 0.4507 0.2721
C5 C 0.03416(9) 0.5785(2) 0.30191(12)
C6 C 0.02634(10) 0.5855(2) 0.39218(13)
H4 H -0.0068 0.5378 0.4174
C7 C 0.06603(10) 0.6602(2) 0.44247(12)
H5 H 0.0603 0.6617 0.5015
C8 C 0.11584(9) 0.7355(2) 0.40549(11)
C9 C 0.12555(8) 0.7334(2) 0.31847(11)
H6 H 0.1583 0.7843 0.2946
C10 C 0.08524(8) 0.65295(19) 0.26507(11)
H12 H 0.1454(10) 0.709(2) 0.0881(10)
H13 H 0.1811(11) 0.856(3) 0.4374(18)
O1 O 0.64498(7) 0.28647(17) 0.35836(8)
O2 O 0.65268(8) 0.18905(19) 0.03835(8)
C1 C 0.59358(8) 0.3566(2) 0.32565(11)
C2 C 0.55389(10) 0.4336(2) 0.37582(13)
H1 H 0.5603 0.4385 0.4347
C3 C 0.50337(11) 0.5052(3) 0.33841(15)
H2 H 0.4762 0.5564 0.3728
C4 C 0.49394(11) 0.5003(2) 0.25181(15)
H3 H 0.4607 0.5493 0.2279
C5 C 0.53416(9) 0.4215(2) 0.19809(12)
C6 C 0.52634(10) 0.4145(2) 0.10782(13)
H4 H 0.4932 0.4622 0.0826
C7 C 0.56603(10) 0.3398(2) 0.05753(12)
H5 H 0.5603 0.3383 -0.0015
C8 C 0.61584(9) 0.2645(2) 0.09451(11)
C9 C 0.62555(8) 0.2666(2) 0.18153(11)
H6 H 0.6583 0.2157 0.2054
C10 C 0.58524(8) 0.34705(19) 0.23493(11)
H12 H 0.6454(10) 0.291(2) 0.4119(10)
H13 H 0.6811(11) 0.144(3) 0.0626(18)
O1 O 0.85502(7) 0.21353(17) 0.35836(8)
O2 O 0.84732(8) 0.31095(19) 0.03835(8)
C1 C 0.90642(8) 0.1434(2) 0.32565(11)
C2 C 0.94611(10) 0.0664(2) 0.37582(13)
H1 H 0.9397 0.0615 0.4347
C3 C 0.99663(11) -0.0052(3) 0.33841(15)
H2 H 1.0238 -0.0564 0.3728
C4 C 1.00606(11) -0.0003(2) 0.25181(15)
H3 H 1.0393 -0.0493 0.2279
C5 C 0.96584(9) 0.0785(2) 0.19809(12)
C6 C 0.97366(10) 0.0855(2) 0.10782(13)
H4 H 1.0068 0.0378 0.0826
C7 C 0.93397(10) 0.1602(2) 0.05753(12)
H5 H 0.9397 0.1617 -0.0015
C8 C 0.88416(9) 0.2355(2) 0.09451(11)
C9 C 0.87445(8) 0.2334(2) 0.18153(11)
H6 H 0.8417 0.2843 0.2054
C10 C 0.91476(8) 0.15295(19) 0.23493(11)
H12 H 0.8546(10) 0.209(2) 0.4119(10)
H13 H 0.8189(11) 0.356(3) 0.0626(18)
O1 O 0.64498(7) 0.21353(17) 0.85836(8)
O2 O 0.65268(8) 0.31095(19) 0.53835(8)
C1 C 0.59358(8) 0.1434(2) 0.82565(11)
C2 C 0.55389(10) 0.0664(2) 0.87582(13)
H1 H 0.5603 0.0615 0.9347
C3 C 0.50337(11) -0.0052(3) 0.83841(15)
H2 H 0.4762 -0.0564 0.8728
C4 C 0.49394(11) -0.0003(2) 0.75181(15)
H3 H 0.4607 -0.0493 0.7279
C5 C 0.53416(9) 0.0785(2) 0.69809(12)
C6 C 0.52634(10) 0.0855(2) 0.60782(13)
H4 H 0.4932 0.0378 0.5826
C7 C 0.56603(10) 0.1602(2) 0.55753(12)
H5 H 0.5603 0.1617 0.4985
C8 C 0.61584(9) 0.2355(2) 0.59451(11)
C9 C 0.62555(8) 0.2334(2) 0.68153(11)
H6 H 0.6583 0.2843 0.7054
C10 C 0.58524(8) 0.15295(19) 0.73493(11)
H12 H 0.6454(10) 0.209(2) 0.9119(10)
H13 H 0.6811(11) 0.356(3) 0.5626(18)
O1 O 0.85502(7) 0.28647(17) 0.85836(8)
O2 O 0.84732(8) 0.18905(19) 0.53835(8)
C1 C 0.90642(8) 0.3566(2) 0.82565(11)
C2 C 0.94611(10) 0.4336(2) 0.87582(13)
H1 H 0.9397 0.4385 0.9347
C3 C 0.99663(11) 0.5052(3) 0.83841(15)
H2 H 1.0238 0.5564 0.8728
C4 C 1.00606(11) 0.5003(2) 0.75181(15)
H3 H 1.0393 0.5493 0.7279
C5 C 0.96584(9) 0.4215(2) 0.69809(12)
C6 C 0.97366(10) 0.4145(2) 0.60782(13)
H4 H 1.0068 0.4622 0.5826
C7 C 0.93397(10) 0.3398(2) 0.55753(12)
H5 H 0.9397 0.3383 0.4985
C8 C 0.88416(9) 0.2645(2) 0.59451(11)
C9 C 0.87445(8) 0.2666(2) 0.68153(11)
H6 H 0.8417 0.2157 0.7054
C10 C 0.91476(8) 0.34705(19) 0.73493(11)
H12 H 0.8546(10) 0.291(2) 0.9119(10)
H13 H 0.8189(11) 0.144(3) 0.5626(18)
O1 O 0.35502(7) 0.71353(17) 0.64164(8)
O2 O 0.34732(8) 0.81095(19) 0.96165(8)
C1 C 0.40642(8) 0.6434(2) 0.67435(11)
C2 C 0.44611(10) 0.5664(2) 0.62418(13)
H1 H 0.4397 0.5615 0.5653
C3 C 0.49663(11) 0.4948(3) 0.66159(15)
H2 H 0.5238 0.4436 0.6272
C4 C 0.50606(11) 0.4997(2) 0.74819(15)
H3 H 0.5393 0.4507 0.7721
C5 C 0.46584(9) 0.5785(2) 0.80191(12)
C6 C 0.47366(10) 0.5855(2) 0.89218(13)
H4 H 0.5068 0.5378 0.9174
C7 C 0.43397(10) 0.6602(2) 0.94247(12)
H5 H 0.4397 0.6617 1.0015
C8 C 0.38416(9) 0.7355(2) 0.90549(11)
C9 C 0.37445(8) 0.7334(2) 0.81847(11)
H6 H 0.3417 0.7843 0.7946
C10 C 0.41476(8) 0.65295(19) 0.76507(11)
H12 H 0.3546(10) 0.709(2) 0.5881(10)
H13 H 0.3189(11) 0.856(3) 0.9374(18)
O1 O 0.14498(7) 0.78647(17) 0.64164(8)
O2 O 0.15268(8) 0.68905(19) 0.96165(8)
C1 C 0.09358(8) 0.8566(2) 0.67435(11)
C2 C 0.05389(10) 0.9336(2) 0.62418(13)
H1 H 0.0603 0.9385 0.5653
C3 C 0.00337(11) 1.0052(3) 0.66159(15)
H2 H -0.0238 1.0564 0.6272
C4 C -0.00606(11) 1.0003(2) 0.74819(15)
H3 H -0.0393 1.0493 0.7721
C5 C 0.03416(9) 0.9215(2) 0.80191(12)
C6 C 0.02634(10) 0.9145(2) 0.89218(13)
H4 H -0.0068 0.9622 0.9174
C7 C 0.06603(10) 0.8398(2) 0.94247(12)
H5 H 0.0603 0.8383 1.0015
C8 C 0.11584(9) 0.7645(2) 0.90549(11)
C9 C 0.12555(8) 0.7666(2) 0.81847(11)
H6 H 0.1583 0.7157 0.7946
C10 C 0.08524(8) 0.84705(19) 0.76507(11)
H12 H 0.1454(10) 0.791(2) 0.5881(10)
H13 H 0.1811(11) 0.644(3) 0.9374(18)
O3 O 0.24927(7) -0.03148(18) -0.10991(8)
O4 O 0.25365(8) -0.0705(2) 0.21477(8)
C11 C 0.20425(9) 0.0632(2) -0.08137(12)
C12 C 0.16820(10) 0.1385(2) -0.13706(13)
H7 H 0.1741 0.1288 -0.1958
C13 C 0.12220(12) 0.2307(3) -0.10581(15)
H8 H 0.0974 0.2808 -0.1440
C14 C 0.11363(13) 0.2472(3) -0.01957(16)
H9 H 0.0833 0.3090 0.0003
C15 C 0.15053(10) 0.1709(2) 0.03974(13)
C16 C 0.14258(12) 0.1823(3) 0.13046(15)
H10 H 0.1133 0.2450 0.1521
C17 C 0.17711(11) 0.1032(3) 0.18583(14)
H11 H 0.1710 0.1120 0.2446
C18 C 0.22162(10) 0.0089(2) 0.15474(11)
C19 C 0.23175(9) -0.0050(2) 0.06820(12)
C20 C 0.19668(9) 0.0754(2) 0.00930(11)
H14 H 0.2832(10) -0.115(3) 0.1905(17)
H15 H 0.2467(11) -0.039(3) -0.1630(11)
H16 H 0.2607(9) -0.074(2) 0.0492(13)
O3 O 0.25073(7) 0.53148(18) -0.10991(8)
O4 O 0.24635(8) 0.5705(2) 0.21477(8)
C11 C 0.29575(9) 0.4368(2) -0.08137(12)
C12 C 0.33180(10) 0.3615(2) -0.13706(13)
H7 H 0.3259 0.3712 -0.1958
C13 C 0.37780(12) 0.2693(3) -0.10581(15)
H8 H 0.4026 0.2192 -0.1440
C14 C 0.38637(13) 0.2528(3) -0.01957(16)
H9 H 0.4167 0.1910 0.0003
C15 C 0.34947(10) 0.3291(2) 0.03974(13)
C16 C 0.35742(12) 0.3177(3) 0.13046(15)
H10 H 0.3867 0.2550 0.1521
C17 C 0.32289(11) 0.3968(3) 0.18583(14)
H11 H 0.3290 0.3880 0.2446
C18 C 0.27838(10) 0.4911(2) 0.15474(11)
C19 C 0.26825(9) 0.5050(2) 0.06820(12)
C20 C 0.30332(9) 0.4246(2) 0.00930(11)
H14 H 0.2168(10) 0.615(3) 0.1905(17)
H15 H 0.2533(11) 0.539(3) -0.1630(11)
H16 H 0.2393(9) 0.574(2) 0.0492(13)
O3 O 0.75073(7) 0.46852(18) 0.60991(8)
O4 O 0.74635(8) 0.4295(2) 0.28523(8)
C11 C 0.79575(9) 0.5632(2) 0.58137(12)
C12 C 0.83180(10) 0.6385(2) 0.63706(13)
H7 H 0.8259 0.6288 0.6958
C13 C 0.87780(12) 0.7307(3) 0.60581(15)
H8 H 0.9026 0.7808 0.6440
C14 C 0.88637(13) 0.7472(3) 0.51957(16)
H9 H 0.9167 0.8090 0.4997
C15 C 0.84947(10) 0.6709(2) 0.46026(13)
C16 C 0.85742(12) 0.6823(3) 0.36954(15)
H10 H 0.8867 0.7450 0.3479
C17 C 0.82289(11) 0.6032(3) 0.31417(14)
H11 H 0.8290 0.6120 0.2554
C18 C 0.77838(10) 0.5089(2) 0.34526(11)
C19 C 0.76825(9) 0.4950(2) 0.43180(12)
C20 C 0.80332(9) 0.5754(2) 0.49070(11)
H14 H 0.7168(10) 0.385(3) 0.3095(17)
H15 H 0.7533(11) 0.461(3) 0.6630(11)
H16 H 0.7393(9) 0.426(2) 0.4508(13)
O3 O 0.74927(7) 1.03148(18) 0.60991(8)
O4 O 0.75365(8) 1.0705(2) 0.28523(8)
C11 C 0.70425(9) 0.9368(2) 0.58137(12)
C12 C 0.66820(10) 0.8615(2) 0.63706(13)
H7 H 0.6741 0.8712 0.6958
C13 C 0.62220(12) 0.7693(3) 0.60581(15)
H8 H 0.5974 0.7192 0.6440
C14 C 0.61363(13) 0.7528(3) 0.51957(16)
H9 H 0.5833 0.6910 0.4997
C15 C 0.65053(10) 0.8291(2) 0.46026(13)
C16 C 0.64258(12) 0.8177(3) 0.36954(15)
H10 H 0.6133 0.7550 0.3479
C17 C 0.67711(11) 0.8968(3) 0.31417(14)
H11 H 0.6710 0.8880 0.2554
C18 C 0.72162(10) 0.9911(2) 0.34526(11)
C19 C 0.73175(9) 1.0050(2) 0.43180(12)
C20 C 0.69668(9) 0.9246(2) 0.49070(11)
H14 H 0.7832(10) 1.115(3) 0.3095(17)
H15 H 0.7467(11) 1.039(3) 0.6630(11)
H16 H 0.7607(9) 1.074(2) 0.4508(13)
O3 O 0.75073(7) 1.03148(18) 1.10991(8)
O4 O 0.74635(8) 1.0705(2) 0.78523(8)
C11 C 0.79575(9) 0.9368(2) 1.08137(12)
C12 C 0.83180(10) 0.8615(2) 1.13706(13)
H7 H 0.8259 0.8712 1.1958
C13 C 0.87780(12) 0.7693(3) 1.10581(15)
H8 H 0.9026 0.7192 1.1440
C14 C 0.88637(13) 0.7528(3) 1.01957(16)
H9 H 0.9167 0.6910 0.9997
C15 C 0.84947(10) 0.8291(2) 0.96026(13)
C16 C 0.85742(12) 0.8177(3) 0.86954(15)
H10 H 0.8867 0.7550 0.8479
C17 C 0.82289(11) 0.8968(3) 0.81417(14)
H11 H 0.8290 0.8880 0.7554
C18 C 0.77838(10) 0.9911(2) 0.84526(11)
C19 C 0.76825(9) 1.0050(2) 0.93180(12)
C20 C 0.80332(9) 0.9246(2) 0.99070(11)
H14 H 0.7168(10) 1.115(3) 0.8095(17)
H15 H 0.7533(11) 1.039(3) 1.1630(11)
H16 H 0.7393(9) 1.074(2) 0.9508(13)
O3 O 0.74927(7) 0.46852(18) 1.10991(8)
O4 O 0.75365(8) 0.4295(2) 0.78523(8)
C11 C 0.70425(9) 0.5632(2) 1.08137(12)
C12 C 0.66820(10) 0.6385(2) 1.13706(13)
H7 H 0.6741 0.6288 1.1958
C13 C 0.62220(12) 0.7307(3) 1.10581(15)
H8 H 0.5974 0.7808 1.1440
C14 C 0.61363(13) 0.7472(3) 1.01957(16)
H9 H 0.5833 0.8090 0.9997
C15 C 0.65053(10) 0.6709(2) 0.96026(13)
C16 C 0.64258(12) 0.6823(3) 0.86954(15)
H10 H 0.6133 0.7450 0.8479
C17 C 0.67711(11) 0.6032(3) 0.81417(14)
H11 H 0.6710 0.6120 0.7554
C18 C 0.72162(10) 0.5089(2) 0.84526(11)
C19 C 0.73175(9) 0.4950(2) 0.93180(12)
C20 C 0.69668(9) 0.5754(2) 0.99070(11)
H14 H 0.7832(10) 0.385(3) 0.8095(17)
H15 H 0.7467(11) 0.461(3) 1.1630(11)
H16 H 0.7607(9) 0.426(2) 0.9508(13)
O3 O 0.24927(7) 0.53148(18) 0.39009(8)
O4 O 0.25365(8) 0.5705(2) 0.71477(8)
C11 C 0.20425(9) 0.4368(2) 0.41863(12)
C12 C 0.16820(10) 0.3615(2) 0.36294(13)
H7 H 0.1741 0.3712 0.3042
C13 C 0.12220(12) 0.2693(3) 0.39419(15)
H8 H 0.0974 0.2192 0.3560
C14 C 0.11363(13) 0.2528(3) 0.48043(16)
H9 H 0.0833 0.1910 0.5003
C15 C 0.15053(10) 0.3291(2) 0.53974(13)
C16 C 0.14258(12) 0.3177(3) 0.63046(15)
H10 H 0.1133 0.2550 0.6521
C17 C 0.17711(11) 0.3968(3) 0.68583(14)
H11 H 0.1710 0.3880 0.7446
C18 C 0.22162(10) 0.4911(2) 0.65474(11)
C19 C 0.23175(9) 0.5050(2) 0.56820(12)
C20 C 0.19668(9) 0.4246(2) 0.50930(11)
H14 H 0.2832(10) 0.615(3) 0.6905(17)
H15 H 0.2467(11) 0.539(3) 0.3370(11)
H16 H 0.2607(9) 0.574(2) 0.5492(13)
O3 O 0.25073(7) -0.03148(18) 0.39009(8)
O4 O 0.24635(8) -0.0705(2) 0.71477(8)
C11 C 0.29575(9) 0.0632(2) 0.41863(12)
C12 C 0.33180(10) 0.1385(2) 0.36294(13)
H7 H 0.3259 0.1288 0.3042
C13 C 0.37780(12) 0.2307(3) 0.39419(15)
H8 H 0.4026 0.2808 0.3560
C14 C 0.38637(13) 0.2472(3) 0.48043(16)
H9 H 0.4167 0.3090 0.5003
C15 C 0.34947(10) 0.1709(2) 0.53974(13)
C16 C 0.35742(12) 0.1823(3) 0.63046(15)
H10 H 0.3867 0.2450 0.6521
C17 C 0.32289(11) 0.1032(3) 0.68583(14)
H11 H 0.3290 0.1120 0.7446
C18 C 0.27838(10) 0.0089(2) 0.65474(11)
C19 C 0.26825(9) -0.0050(2) 0.56820(12)
C20 C 0.30332(9) 0.0754(2) 0.50930(11)
H14 H 0.2168(10) -0.115(3) 0.6905(17)
H15 H 0.2533(11) -0.039(3) 0.3370(11)
H16 H 0.2393(9) -0.074(2) 0.5492(13)

#END
