./LICLOY01_from_xyz.cif_generated_by_CrystalShift
_symmetry_cell_setting triclinic
_symmetry_space_group_name_H-M 'P 1'
loop_
_symmetry_equiv_pos_site_id
_symmetry_equiv_pos_as_xyz
1 x,y,z
_cell_length_a 9.325900
_cell_length_b 10.523000
_cell_length_c 12.231000
_cell_angle_alpha 79.390000
_cell_angle_beta 81.480000
_cell_angle_gamma 80.660000
_cell_volume 1155.456275
loop_
_atom_site_label
_atom_site_type_symbol
_atom_site_fract_x
_atom_site_fract_y
_atom_site_fract_z
S1 S 1.098330 0.554030 0.612030
O2 O 1.184960 0.697010 0.410900
O3 O 0.970330 0.340050 0.906330
N4 N 0.759170 0.523940 0.839310
H5 H 0.778200 0.448400 0.879400
N6 N 0.829860 0.650610 0.661860
C7 C 1.063550 0.893840 0.315630
C8 C 1.152510 0.888870 0.213470
H9 H 1.219300 0.812500 0.203000
C10 C 1.143900 0.994500 0.127610
H11 H 1.204500 0.989900 0.058500
C12 C 1.047700 1.107230 0.141270
H13 H 1.040700 1.178700 0.081300
C14 C 0.961800 1.114660 0.243050
H15 H 0.897600 1.192400 0.253800
C16 C 0.969500 1.008530 0.329490
H17 H 0.909900 1.014200 0.398900
C18 C 1.070910 0.776710 0.406100
C19 C 0.944140 0.761480 0.486750
H20 H 0.855400 0.818000 0.475400
C21 C 0.948780 0.667310 0.579440
C22 C 0.683740 0.699730 0.633430
C23 C 0.621320 0.826050 0.644390
H24 H 0.672300 0.881700 0.672700
C25 C 0.481800 0.869510 0.612890
H26 H 0.436600 0.955800 0.619800
C27 C 0.409080 0.787800 0.571790
H28 H 0.314000 0.818300 0.550500
C29 C 0.473200 0.661900 0.561190
H30 H 0.422000 0.606100 0.533300
C31 C 0.612160 0.617460 0.591270
H32 H 0.657800 0.531700 0.583100
C33 C 0.859600 0.554980 0.752070
C34 C 0.624810 0.600950 0.874350
C35 C 0.626500 0.705980 0.927790
H36 H 0.716800 0.730700 0.937500
C37 C 0.494500 0.774640 0.966950
H38 H 0.494600 0.846800 1.003500
C39 C 0.363500 0.738810 0.953140
H40 H 0.273600 0.786500 0.979700
C41 C 0.363110 0.633760 0.900810
H42 H 0.272800 0.609000 0.891200
C43 C 0.493840 0.564060 0.862120
H44 H 0.493200 0.490800 0.827100
C45 C 1.002520 0.490770 0.741170
C46 C 1.051450 0.379540 0.819540
C47 C 1.198480 0.301610 0.796520
C48 C 1.322600 0.356580 0.745250
H49 H 1.316200 0.448500 0.722900
C50 C 1.455390 0.278430 0.726600
H51 H 1.540000 0.316800 0.692700
C52 C 1.464500 0.144550 0.757370
H53 H 1.555200 0.090700 0.743600
C54 C 1.341600 0.088770 0.808190
H55 H 1.348200 -0.003400 0.828700
C56 C 1.209410 0.166340 0.829260
H57 H 1.126100 0.127700 0.866000
S58 S -0.098330 0.445970 0.387970
O59 O -0.184960 0.302990 0.589100
O60 O 0.029670 0.659950 0.093670
N61 N 0.240830 0.476060 0.160690
H62 H 0.221800 0.551600 0.120600
N63 N 0.170140 0.349390 0.338140
C64 C -0.063550 0.106160 0.684370
C65 C -0.152510 0.111130 0.786530
H66 H -0.219300 0.187500 0.797000
C67 C -0.143900 0.005500 0.872390
H68 H -0.204500 0.010100 0.941500
C69 C -0.047700 -0.107230 0.858730
H70 H -0.040700 -0.178700 0.918700
C71 C 0.038200 -0.114660 0.756950
H72 H 0.102400 -0.192400 0.746200
C73 C 0.030500 -0.008530 0.670510
H74 H 0.090100 -0.014200 0.601100
C75 C -0.070910 0.223290 0.593900
C76 C 0.055860 0.238520 0.513250
H77 H 0.144600 0.182000 0.524600
C78 C 0.051220 0.332690 0.420560
C79 C 0.316260 0.300270 0.366570
C80 C 0.378680 0.173950 0.355610
H81 H 0.327700 0.118300 0.327300
C82 C 0.518200 0.130490 0.387110
H83 H 0.563400 0.044200 0.380200
C84 C 0.590920 0.212200 0.428210
H85 H 0.686000 0.181700 0.449500
C86 C 0.526800 0.338100 0.438810
H87 H 0.578000 0.393900 0.466700
C88 C 0.387840 0.382540 0.408730
H89 H 0.342200 0.468300 0.416900
C90 C 0.140400 0.445020 0.247930
C91 C 0.375190 0.399050 0.125650
C92 C 0.373500 0.294020 0.072210
H93 H 0.283200 0.269300 0.062500
C94 C 0.505500 0.225360 0.033050
H95 H 0.505400 0.153200 -0.003500
C96 C 0.636500 0.261190 0.046860
H97 H 0.726400 0.213500 0.020300
C98 C 0.636890 0.366240 0.099190
H99 H 0.727200 0.391000 0.108800
C100 C 0.506160 0.435940 0.137880
H101 H 0.506800 0.509200 0.172900
C102 C -0.002520 0.509230 0.258830
C103 C -0.051450 0.620460 0.180460
C104 C -0.198480 0.698390 0.203480
C105 C -0.322600 0.643420 0.254750
H106 H -0.316200 0.551500 0.277100
C107 C -0.455390 0.721570 0.273400
H108 H -0.540000 0.683200 0.307300
C109 C -0.464500 0.855450 0.242630
H110 H -0.555200 0.909300 0.256400
C111 C -0.341600 0.911230 0.191810
H112 H -0.348200 1.003400 0.171300
C113 C -0.209410 0.833660 0.170740
H114 H -0.126100 0.872300 0.134000

#END
