
#######################################################################
#
#                 Cambridge Crystallographic Data Centre
#                                CCDC 
#
#######################################################################
#
# If this CIF has been generated from an entry in the Cambridge 
# Structural Database, then it will include bibliographic, chemical, 
# crystal, experimental, refinement or atomic coordinate data resulting 
# from the CCDC's data processing and validation procedures.
#
#######################################################################

data_KACGEC
_symmetry_cell_setting           triclinic
_symmetry_space_group_name_H-M   'P -1'
_symmetry_Int_Tables_number      2
_space_group_name_Hall           '-P 1'
loop_
_symmetry_equiv_pos_site_id
_symmetry_equiv_pos_as_xyz
1 x,y,z
2 -x,-y,-z
_cell_length_a                   12.3534(2)
_cell_length_b                   12.4169(2)
_cell_length_c                   14.7112(2)
_cell_angle_alpha                90.7570(10)
_cell_angle_beta                 103.4640(10)
_cell_angle_gamma                116.1850(10)
_cell_volume                     1951.87
loop_
_atom_site_label
_atom_site_type_symbol
_atom_site_fract_x
_atom_site_fract_y
_atom_site_fract_z
Gd1 Gd 0.319897(12) 0.390909(14) -0.032467(9)
N1 N 0.1071(2) 0.3504(2) -0.00802(19)
O1 O 0.2647(3) -0.0173(3) 0.43308(17)
C1 C 0.1882(5) -0.0049(5) 0.4858(3)
H1 H 0.2147 -0.0178 0.5496
H2 H 0.1028 -0.0635 0.4585
H3 H 0.1949 0.0751 0.4854
N2 N 0.1350(2) 0.3361(2) -0.18569(18)
O2 O 0.3971(2) -0.0573(3) 0.3404(2)
C2 C 0.2396(3) -0.0013(3) 0.3400(2)
O3 O 0.26986(19) 0.24535(19) 0.08347(14)
C3 C 0.1514(3) 0.0322(3) 0.2949(2)
H4 H 0.1045 0.0492 0.3287
O4 O 0.2342(2) 0.1736(2) -0.06311(14)
C4 C 0.1316(3) 0.0409(3) 0.1996(3)
H5 H 0.0704 0.0625 0.1694
O5 O 0.7504(3) 0.5473(3) 0.5633(2)
C5 C 0.2015(3) 0.0179(3) 0.1483(2)
O6 O 0.6587(3) 0.3216(3) 0.50573(19)
C6 C 0.2919(3) -0.0131(3) 0.1946(2)
H6 H 0.3405 -0.0273 0.1611
O7 O 0.38510(19) 0.5177(2) 0.11276(14)
C7 C 0.3121(3) -0.0236(3) 0.2893(2)
C8 C 0.4833(4) -0.0674(4) 0.2955(4)
H7 H 0.5371 -0.0920 0.3383
H8 H 0.5327 0.0095 0.2776
H9 H 0.4381 -0.1266 0.2403
O8 O 0.59361(18) 0.6269(2) 0.15648(14)
O9 O 0.1118(2) 0.7369(2) -0.36787(17)
C9 C 0.1825(4) 0.0293(3) 0.0449(2)
H10 H 0.0937 -0.0139 0.0140
H11 H 0.2232 -0.0101 0.0188
C10 C 0.2318(3) 0.1582(3) 0.0215(2)
O10 O 0.1334(2) 0.9424(2) -0.30441(15)
O11 O 0.48649(18) 0.59967(19) -0.04504(14)
C11 C 0.7932(5) 0.6651(5) 0.6043(4)
H12 H 0.8534 0.6804 0.6638
H13 H 0.7241 0.6755 0.6142
H14 H 0.8318 0.7208 0.5634
O12 O 0.29300(18) 0.57064(19) -0.08685(15)
C12 C 0.6624(3) 0.5071(4) 0.4767(3)
C13 C 0.6204(3) 0.5784(4) 0.4209(2)
H15 H 0.6526 0.6604 0.4414
C14 C 0.5315(3) 0.5280(3) 0.3356(2)
C15 C 0.4834(4) 0.4067(4) 0.3063(2)
H16 H 0.4232 0.3724 0.2490
C16 C 0.5235(4) 0.3344(4) 0.3613(3)
H17 H 0.4894 0.2521 0.3411
C17 C 0.6151(3) 0.3854(4) 0.4471(2)
C18 C 0.6065(5) 0.1947(4) 0.4772(3)
H18 H 0.6446 0.1598 0.5240
H19 H 0.6218 0.1815 0.4180
H20 H 0.5179 0.1576 0.4704
C19 C 0.4849(3) 0.6038(3) 0.2733(2)
H21 H 0.4000 0.5835 0.2749
H22 H 0.5373 0.6890 0.2973
C20 C 0.4876(3) 0.5811(3) 0.1723(2)
C21 C 0.0787(4) 0.6148(3) -0.3960(3)
H23 H 0.0181 0.5874 -0.4564
H24 H 0.0435 0.5659 -0.3504
H25 H 0.1518 0.6081 -0.4004
C22 C 0.1988(3) 0.7913(3) -0.2835(2)
C23 C 0.2754(3) 0.7464(3) -0.2343(2)
H26 H 0.2691 0.6737 -0.2586
C24 C 0.3624(3) 0.8074(3) -0.1486(2)
C25 C 0.3636(3) 0.9110(3) -0.1130(2)
H27 H 0.4163 0.9501 -0.0537
C26 C 0.2885(3) 0.9592(3) -0.1627(2)
H28 H 0.2934 1.0308 -0.1374
C27 C 0.2074(3) 0.9010(3) -0.2489(2)
C28 C 0.1666(3) 1.0671(3) -0.2841(2)
H29 H 0.1092 1.0866 -0.3280
H30 H 0.2500 1.1157 -0.2894
H31 H 0.1630 1.0831 -0.2211
C29 C 0.4555(3) 0.7656(3) -0.0990(3)
H32 H 0.5046 0.8193 -0.0404
H33 H 0.5122 0.7760 -0.1378
C30 C 0.4058(3) 0.6375(3) -0.07632(19)
C31 C 0.0908(3) 0.3502(3) 0.0778(3)
H34 H 0.1541 0.3542 0.1286
C32 C -0.0190(4) 0.3443(3) 0.0951(3)
H35 H -0.0288 0.3424 0.1559
C33 C -0.1102(3) 0.3414(3) 0.0216(3)
H36 H -0.1822 0.3397 0.0322
C34 C -0.0968(3) 0.3409(3) -0.0696(3)
C35 C -0.1878(3) 0.3402(3) -0.1502(4)
H37 H -0.2590 0.3427 -0.1418
C36 C -0.1734(3) 0.3358(3) -0.2373(4)
H38 H -0.2339 0.3367 -0.2882
C37 C -0.0663(3) 0.3299(3) -0.2533(3)
C38 C -0.0500(3) 0.3203(3) -0.3426(3)
H39 H -0.1116 0.3143 -0.3956
C39 C 0.0557(3) 0.3195(3) -0.3525(3)
H40 H 0.0675 0.3125 -0.4121
C40 C 0.1467(3) 0.3292(3) -0.2720(2)
H41 H 0.2201 0.3309 -0.2795
C41 C 0.0284(3) 0.3361(3) -0.1758(2)
C42 C 0.0136(3) 0.3426(3) -0.0824(3)
Gd1A Gd 0.680103(12) 0.609091(14) 0.032467(9)
N1A N 0.8929(2) 0.6496(2) 0.00802(19)
O1A O 0.7353(3) 1.0173(3) -0.43308(17)
C1A C 0.8118(5) 1.0049(5) -0.4858(3)
H1A H 0.7853 1.0178 -0.5496
H2A H 0.8972 1.0635 -0.4585
H3A H 0.8051 0.9249 -0.4854
N2A N 0.8650(2) 0.6639(2) 0.18569(18)
O2A O 0.6029(2) 1.0573(3) -0.3404(2)
C2A C 0.7604(3) 1.0013(3) -0.3400(2)
O3A O 0.73014(19) 0.75465(19) -0.08347(14)
C3A C 0.8486(3) 0.9678(3) -0.2949(2)
H4A H 0.8955 0.9508 -0.3287
O4A O 0.7658(2) 0.8264(2) 0.06311(14)
C4A C 0.8684(3) 0.9591(3) -0.1996(3)
H5A H 0.9296 0.9375 -0.1694
O5A O 0.2496(3) 0.4527(3) -0.5633(2)
C5A C 0.7985(3) 0.9821(3) -0.1483(2)
O6A O 0.3413(3) 0.6784(3) -0.50573(19)
C6A C 0.7081(3) 1.0131(3) -0.1946(2)
H6A H 0.6595 1.0273 -0.1611
O7A O 0.61490(19) 0.4823(2) -0.11276(14)
C7A C 0.6879(3) 1.0236(3) -0.2893(2)
C8A C 0.5167(4) 1.0674(4) -0.2955(4)
H7A H 0.4629 1.0920 -0.3383
H8A H 0.4673 0.9905 -0.2776
H9A H 0.5619 1.1266 -0.2403
O8A O 0.40639(18) 0.3731(2) -0.15648(14)
O9A O 0.8882(2) 0.2631(2) 0.36787(17)
C9A C 0.8175(4) 0.9707(3) -0.0449(2)
H10A H 0.9063 1.0139 -0.0140
H11A H 0.7768 1.0101 -0.0188
C10A C 0.7682(3) 0.8418(3) -0.0215(2)
O10A O 0.8666(2) 0.0576(2) 0.30441(15)
O11A O 0.51351(18) 0.40033(19) 0.04504(14)
C11A C 0.2068(5) 0.3349(5) -0.6043(4)
H12A H 0.1466 0.3196 -0.6638
H13A H 0.2759 0.3245 -0.6142
H14A H 0.1682 0.2792 -0.5634
O12A O 0.70700(18) 0.42936(19) 0.08685(15)
C12A C 0.3376(3) 0.4929(4) -0.4767(3)
C13A C 0.3796(3) 0.4216(4) -0.4209(2)
H15A H 0.3474 0.3396 -0.4414
C14A C 0.4685(3) 0.4720(3) -0.3356(2)
C15A C 0.5166(4) 0.5933(4) -0.3063(2)
H16A H 0.5768 0.6276 -0.2490
C16A C 0.4765(4) 0.6656(4) -0.3613(3)
H17A H 0.5106 0.7479 -0.3411
C17A C 0.3849(3) 0.6146(4) -0.4471(2)
C18A C 0.3935(5) 0.8053(4) -0.4772(3)
H18A H 0.3554 0.8402 -0.5240
H19A H 0.3782 0.8185 -0.4180
H20A H 0.4821 0.8424 -0.4704
C19A C 0.5151(3) 0.3962(3) -0.2733(2)
H21A H 0.6000 0.4165 -0.2749
H22A H 0.4627 0.3110 -0.2973
C20A C 0.5124(3) 0.4189(3) -0.1723(2)
C21A C 0.9213(4) 0.3852(3) 0.3960(3)
H23A H 0.9819 0.4126 0.4564
H24A H 0.9565 0.4341 0.3504
H25A H 0.8482 0.3919 0.4004
C22A C 0.8012(3) 0.2087(3) 0.2835(2)
C23A C 0.7246(3) 0.2536(3) 0.2343(2)
H26A H 0.7309 0.3263 0.2586
C24A C 0.6376(3) 0.1926(3) 0.1486(2)
C25A C 0.6364(3) 0.0890(3) 0.1130(2)
H27A H 0.5837 0.0499 0.0537
C26A C 0.7115(3) 0.0408(3) 0.1627(2)
H28A H 0.7066 -0.0308 0.1374
C27A C 0.7926(3) 0.0990(3) 0.2489(2)
C28A C 0.8334(3) -0.0671(3) 0.2841(2)
H29A H 0.8908 -0.0866 0.3280
H30A H 0.7500 -0.1157 0.2894
H31A H 0.8370 -0.0831 0.2211
C29A C 0.5445(3) 0.2344(3) 0.0990(3)
H32A H 0.4954 0.1807 0.0404
H33A H 0.4878 0.2240 0.1378
C30A C 0.5942(3) 0.3625(3) 0.07632(19)
C31A C 0.9092(3) 0.6498(3) -0.0778(3)
H34A H 0.8459 0.6458 -0.1286
C32A C 1.0190(4) 0.6557(3) -0.0951(3)
H35A H 1.0288 0.6576 -0.1559
C33A C 1.1102(3) 0.6586(3) -0.0216(3)
H36A H 1.1822 0.6603 -0.0322
C34A C 1.0968(3) 0.6591(3) 0.0696(3)
C35A C 1.1878(3) 0.6598(3) 0.1502(4)
H37A H 1.2590 0.6573 0.1418
C36A C 1.1734(3) 0.6642(3) 0.2373(4)
H38A H 1.2339 0.6633 0.2882
C37A C 1.0663(3) 0.6701(3) 0.2533(3)
C38A C 1.0500(3) 0.6797(3) 0.3426(3)
H39A H 1.1116 0.6857 0.3956
C39A C 0.9443(3) 0.6805(3) 0.3525(3)
H40A H 0.9325 0.6875 0.4121
C40A C 0.8533(3) 0.6708(3) 0.2720(2)
H41A H 0.7799 0.6691 0.2795
C41A C 0.9716(3) 0.6639(3) 0.1758(2)
C42A C 0.9864(3) 0.6574(3) 0.0824(3)
Gd1 Gd 0.319897(12) 0.390909(14) 0.967533(9)
N1 N 0.1071(2) 0.3504(2) 0.99198(19)
O1 O 0.2647(3) -0.0173(3) 1.43308(17)
C1 C 0.1882(5) -0.0049(5) 1.4858(3)
H1 H 0.2147 -0.0178 1.5496
H2 H 0.1028 -0.0635 1.4585
H3 H 0.1949 0.0751 1.4854
N2 N 0.1350(2) 0.3361(2) 0.81431(18)
O2 O 0.3971(2) -0.0573(3) 1.3404(2)
C2 C 0.2396(3) -0.0013(3) 1.3400(2)
O3 O 0.26986(19) 0.24535(19) 1.08347(14)
C3 C 0.1514(3) 0.0322(3) 1.2949(2)
H4 H 0.1045 0.0492 1.3287
O4 O 0.2342(2) 0.1736(2) 0.93689(14)
C4 C 0.1316(3) 0.0409(3) 1.1996(3)
H5 H 0.0704 0.0625 1.1694
O5 O 0.7504(3) 0.5473(3) 1.5633(2)
C5 C 0.2015(3) 0.0179(3) 1.1483(2)
O6 O 0.6587(3) 0.3216(3) 1.50573(19)
C6 C 0.2919(3) -0.0131(3) 1.1946(2)
H6 H 0.3405 -0.0273 1.1611
O7 O 0.38510(19) 0.5177(2) 1.11276(14)
C7 C 0.3121(3) -0.0236(3) 1.2893(2)
C8 C 0.4833(4) -0.0674(4) 1.2955(4)
H7 H 0.5371 -0.0920 1.3383
H8 H 0.5327 0.0095 1.2776
H9 H 0.4381 -0.1266 1.2403
O8 O 0.59361(18) 0.6269(2) 1.15648(14)
O9 O 0.1118(2) 0.7369(2) 0.63213(17)
C9 C 0.1825(4) 0.0293(3) 1.0449(2)
H10 H 0.0937 -0.0139 1.0140
H11 H 0.2232 -0.0101 1.0188
C10 C 0.2318(3) 0.1582(3) 1.0215(2)
O10 O 0.1334(2) 0.9424(2) 0.69559(15)
O11 O 0.48649(18) 0.59967(19) 0.95496(14)
C11 C 0.7932(5) 0.6651(5) 1.6043(4)
H12 H 0.8534 0.6804 1.6638
H13 H 0.7241 0.6755 1.6142
H14 H 0.8318 0.7208 1.5634
O12 O 0.29300(18) 0.57064(19) 0.91315(15)
C12 C 0.6624(3) 0.5071(4) 1.4767(3)
C13 C 0.6204(3) 0.5784(4) 1.4209(2)
H15 H 0.6526 0.6604 1.4414
C14 C 0.5315(3) 0.5280(3) 1.3356(2)
C15 C 0.4834(4) 0.4067(4) 1.3063(2)
H16 H 0.4232 0.3724 1.2490
C16 C 0.5235(4) 0.3344(4) 1.3613(3)
H17 H 0.4894 0.2521 1.3411
C17 C 0.6151(3) 0.3854(4) 1.4471(2)
C18 C 0.6065(5) 0.1947(4) 1.4772(3)
H18 H 0.6446 0.1598 1.5240
H19 H 0.6218 0.1815 1.4180
H20 H 0.5179 0.1576 1.4704
C19 C 0.4849(3) 0.6038(3) 1.2733(2)
H21 H 0.4000 0.5835 1.2749
H22 H 0.5373 0.6890 1.2973
C20 C 0.4876(3) 0.5811(3) 1.1723(2)
C21 C 0.0787(4) 0.6148(3) 0.6040(3)
H23 H 0.0181 0.5874 0.5436
H24 H 0.0435 0.5659 0.6496
H25 H 0.1518 0.6081 0.5996
C22 C 0.1988(3) 0.7913(3) 0.7165(2)
C23 C 0.2754(3) 0.7464(3) 0.7657(2)
H26 H 0.2691 0.6737 0.7414
C24 C 0.3624(3) 0.8074(3) 0.8514(2)
C25 C 0.3636(3) 0.9110(3) 0.8870(2)
H27 H 0.4163 0.9501 0.9463
C26 C 0.2885(3) 0.9592(3) 0.8373(2)
H28 H 0.2934 1.0308 0.8626
C27 C 0.2074(3) 0.9010(3) 0.7511(2)
C28 C 0.1666(3) 1.0671(3) 0.7159(2)
H29 H 0.1092 1.0866 0.6720
H30 H 0.2500 1.1157 0.7106
H31 H 0.1630 1.0831 0.7789
C29 C 0.4555(3) 0.7656(3) 0.9010(3)
H32 H 0.5046 0.8193 0.9596
H33 H 0.5122 0.7760 0.8622
C30 C 0.4058(3) 0.6375(3) 0.92368(19)
C31 C 0.0908(3) 0.3502(3) 1.0778(3)
H34 H 0.1541 0.3542 1.1286
C32 C -0.0190(4) 0.3443(3) 1.0951(3)
H35 H -0.0288 0.3424 1.1559
C33 C -0.1102(3) 0.3414(3) 1.0216(3)
H36 H -0.1822 0.3397 1.0322
C34 C -0.0968(3) 0.3409(3) 0.9304(3)
C35 C -0.1878(3) 0.3402(3) 0.8498(4)
H37 H -0.2590 0.3427 0.8582
C36 C -0.1734(3) 0.3358(3) 0.7627(4)
H38 H -0.2339 0.3367 0.7118
C37 C -0.0663(3) 0.3299(3) 0.7467(3)
C38 C -0.0500(3) 0.3203(3) 0.6574(3)
H39 H -0.1116 0.3143 0.6044
C39 C 0.0557(3) 0.3195(3) 0.6475(3)
H40 H 0.0675 0.3125 0.5879
C40 C 0.1467(3) 0.3292(3) 0.7280(2)
H41 H 0.2201 0.3309 0.7205
C41 C 0.0284(3) 0.3361(3) 0.8242(2)
C42 C 0.0136(3) 0.3426(3) 0.9176(3)
Gd1A Gd 0.680103(12) 0.609091(14) 1.032467(9)
N1A N 0.8929(2) 0.6496(2) 1.00802(19)
O1A O 0.7353(3) 1.0173(3) 0.56692(17)
C1A C 0.8118(5) 1.0049(5) 0.5142(3)
H1A H 0.7853 1.0178 0.4504
H2A H 0.8972 1.0635 0.5415
H3A H 0.8051 0.9249 0.5146
N2A N 0.8650(2) 0.6639(2) 1.18569(18)
O2A O 0.6029(2) 1.0573(3) 0.6596(2)
C2A C 0.7604(3) 1.0013(3) 0.6600(2)
O3A O 0.73014(19) 0.75465(19) 0.91653(14)
C3A C 0.8486(3) 0.9678(3) 0.7051(2)
H4A H 0.8955 0.9508 0.6713
O4A O 0.7658(2) 0.8264(2) 1.06311(14)
C4A C 0.8684(3) 0.9591(3) 0.8004(3)
H5A H 0.9296 0.9375 0.8306
O5A O 0.2496(3) 0.4527(3) 0.4367(2)
C5A C 0.7985(3) 0.9821(3) 0.8517(2)
O6A O 0.3413(3) 0.6784(3) 0.49427(19)
C6A C 0.7081(3) 1.0131(3) 0.8054(2)
H6A H 0.6595 1.0273 0.8389
O7A O 0.61490(19) 0.4823(2) 0.88724(14)
C7A C 0.6879(3) 1.0236(3) 0.7107(2)
C8A C 0.5167(4) 1.0674(4) 0.7045(4)
H7A H 0.4629 1.0920 0.6617
H8A H 0.4673 0.9905 0.7224
H9A H 0.5619 1.1266 0.7597
O8A O 0.40639(18) 0.3731(2) 0.84352(14)
O9A O 0.8882(2) 0.2631(2) 1.36787(17)
C9A C 0.8175(4) 0.9707(3) 0.9551(2)
H10A H 0.9063 1.0139 0.9860
H11A H 0.7768 1.0101 0.9812
C10A C 0.7682(3) 0.8418(3) 0.9785(2)
O10A O 0.8666(2) 0.0576(2) 1.30441(15)
O11A O 0.51351(18) 0.40033(19) 1.04504(14)
C11A C 0.2068(5) 0.3349(5) 0.3957(4)
H12A H 0.1466 0.3196 0.3362
H13A H 0.2759 0.3245 0.3858
H14A H 0.1682 0.2792 0.4366
O12A O 0.70700(18) 0.42936(19) 1.08685(15)
C12A C 0.3376(3) 0.4929(4) 0.5233(3)
C13A C 0.3796(3) 0.4216(4) 0.5791(2)
H15A H 0.3474 0.3396 0.5586
C14A C 0.4685(3) 0.4720(3) 0.6644(2)
C15A C 0.5166(4) 0.5933(4) 0.6937(2)
H16A H 0.5768 0.6276 0.7510
C16A C 0.4765(4) 0.6656(4) 0.6387(3)
H17A H 0.5106 0.7479 0.6589
C17A C 0.3849(3) 0.6146(4) 0.5529(2)
C18A C 0.3935(5) 0.8053(4) 0.5228(3)
H18A H 0.3554 0.8402 0.4760
H19A H 0.3782 0.8185 0.5820
H20A H 0.4821 0.8424 0.5296
C19A C 0.5151(3) 0.3962(3) 0.7267(2)
H21A H 0.6000 0.4165 0.7251
H22A H 0.4627 0.3110 0.7027
C20A C 0.5124(3) 0.4189(3) 0.8277(2)
C21A C 0.9213(4) 0.3852(3) 1.3960(3)
H23A H 0.9819 0.4126 1.4564
H24A H 0.9565 0.4341 1.3504
H25A H 0.8482 0.3919 1.4004
C22A C 0.8012(3) 0.2087(3) 1.2835(2)
C23A C 0.7246(3) 0.2536(3) 1.2343(2)
H26A H 0.7309 0.3263 1.2586
C24A C 0.6376(3) 0.1926(3) 1.1486(2)
C25A C 0.6364(3) 0.0890(3) 1.1130(2)
H27A H 0.5837 0.0499 1.0537
C26A C 0.7115(3) 0.0408(3) 1.1627(2)
H28A H 0.7066 -0.0308 1.1374
C27A C 0.7926(3) 0.0990(3) 1.2489(2)
C28A C 0.8334(3) -0.0671(3) 1.2841(2)
H29A H 0.8908 -0.0866 1.3280
H30A H 0.7500 -0.1157 1.2894
H31A H 0.8370 -0.0831 1.2211
C29A C 0.5445(3) 0.2344(3) 1.0990(3)
H32A H 0.4954 0.1807 1.0404
H33A H 0.4878 0.2240 1.1378
C30A C 0.5942(3) 0.3625(3) 1.07632(19)
C31A C 0.9092(3) 0.6498(3) 0.9222(3)
H34A H 0.8459 0.6458 0.8714
C32A C 1.0190(4) 0.6557(3) 0.9049(3)
H35A H 1.0288 0.6576 0.8441
C33A C 1.1102(3) 0.6586(3) 0.9784(3)
H36A H 1.1822 0.6603 0.9678
C34A C 1.0968(3) 0.6591(3) 1.0696(3)
C35A C 1.1878(3) 0.6598(3) 1.1502(4)
H37A H 1.2590 0.6573 1.1418
C36A C 1.1734(3) 0.6642(3) 1.2373(4)
H38A H 1.2339 0.6633 1.2882
C37A C 1.0663(3) 0.6701(3) 1.2533(3)
C38A C 1.0500(3) 0.6797(3) 1.3426(3)
H39A H 1.1116 0.6857 1.3956
C39A C 0.9443(3) 0.6805(3) 1.3525(3)
H40A H 0.9325 0.6875 1.4121
C40A C 0.8533(3) 0.6708(3) 1.2720(2)
H41A H 0.7799 0.6691 1.2795
C41A C 0.9716(3) 0.6639(3) 1.1758(2)
C42A C 0.9864(3) 0.6574(3) 1.0824(3)

#END
