
#######################################################################
#
#                 Cambridge Crystallographic Data Centre
#                                CCDC 
#
#######################################################################
#
# If this CIF has been generated from an entry in the Cambridge 
# Structural Database, then it will include bibliographic, chemical, 
# crystal, experimental, refinement or atomic coordinate data resulting 
# from the CCDC's data processing and validation procedures.
#
#######################################################################

data_KACHON
_symmetry_cell_setting           triclinic
_symmetry_space_group_name_H-M   'P -1'
_symmetry_Int_Tables_number      2
_space_group_name_Hall           '-P 1'
loop_
_symmetry_equiv_pos_site_id
_symmetry_equiv_pos_as_xyz
1 x,y,z
2 -x,-y,-z
_cell_length_a                   9.7607(4)
_cell_length_b                   10.6413(4)
_cell_length_c                   12.5451(9)
_cell_angle_alpha                79.851(3)
_cell_angle_beta                 68.139(4)
_cell_angle_gamma                79.241(4)
_cell_volume                     1179.89
loop_
_atom_site_label
_atom_site_type_symbol
_atom_site_fract_x
_atom_site_fract_y
_atom_site_fract_z
B1 B 0.4701(2) 0.12627(19) 0.71702(16)
C1 C 0.52595(19) -0.00500(16) 0.77170(15)
C2 C 0.67420(19) -0.03395(17) 0.75140(15)
H1 H 0.7296 0.0330 0.7080
C3 C 0.55791(18) 0.24558(16) 0.68608(15)
C4 C 0.59369(19) 0.31845(16) 0.57802(15)
F1 F 0.55891(14) 0.28312(11) 0.49428(9)
C5 C 0.6663(2) 0.42452(17) 0.55089(16)
F2 F 0.70147(15) 0.48853(11) 0.44374(11)
C6 C 0.7035(2) 0.46593(17) 0.63293(18)
F3 F 0.77526(14) 0.56831(11) 0.60652(13)
C7 C 0.6665(2) 0.39982(19) 0.74230(17)
F4 F 0.69696(15) 0.44091(14) 0.82473(12)
C8 C 0.59849(19) 0.29105(18) 0.76544(15)
F5 F 0.56715(14) 0.22887(13) 0.87348(9)
C9 C 0.32541(19) 0.14522(16) 0.68492(14)
C10 C 0.3007(2) 0.05897(17) 0.62501(15)
F6 F 0.39612(13) -0.04962(10) 0.60012(9)
C11 C 0.1833(2) 0.0804(2) 0.58561(15)
F7 F 0.16758(14) -0.00453(13) 0.52464(10)
C12 C 0.0825(2) 0.1899(2) 0.60878(17)
F8 F -0.03376(14) 0.21037(16) 0.57293(13)
C13 C 0.1006(2) 0.2775(2) 0.66931(18)
F9 F 0.00270(14) 0.38383(14) 0.69150(13)
C14 C 0.2203(2) 0.25433(17) 0.70575(15)
F10 F 0.23353(12) 0.34148(10) 0.76555(10)
C15 C 0.4151(2) -0.09557(16) 0.83768(15)
C16 C 0.2911(2) -0.05653(18) 0.93019(16)
F11 F 0.27457(14) 0.06214(12) 0.95978(10)
C17 C 0.1833(2) -0.1343(2) 0.99435(17)
F12 F 0.06717(16) -0.09262(16) 1.08501(11)
C18 C 0.1958(2) -0.2555(2) 0.96535(19)
F13 F 0.09315(16) -0.33239(14) 1.02737(13)
C19 C 0.3152(2) -0.29699(18) 0.8725(2)
F14 F 0.32728(17) -0.41493(12) 0.84290(15)
C20 C 0.4220(2) -0.21795(17) 0.81022(17)
F15 F 0.53560(13) -0.26216(11) 0.71983(11)
C21 C 0.7645(2) -0.14944(17) 0.78417(15)
C22 C 0.9146(2) -0.1691(2) 0.71651(19)
H2 H 0.9539 -0.1092 0.6523
C23 C 1.0068(3) -0.2755(3) 0.7424(2)
H3 H 1.1074 -0.2888 0.6945
C24 C 0.9523(3) -0.3617(2) 0.8374(2)
H4 H 1.0153 -0.4341 0.8550
C25 C 0.8052(3) -0.3422(2) 0.9071(2)
H5 H 0.7683 -0.4005 0.9733
C26 C 0.7113(2) -0.23787(18) 0.88076(17)
H6 H 0.6105 -0.2263 0.9284
B1 B 0.5299(2) 0.87373(19) 0.28298(16)
C1 C 0.47405(19) 1.00500(16) 0.22830(15)
C2 C 0.32580(19) 1.03395(17) 0.24860(15)
H1 H 0.2704 0.9670 0.2920
C3 C 0.44209(18) 0.75442(16) 0.31392(15)
C4 C 0.40631(19) 0.68155(16) 0.42198(15)
F1 F 0.44109(14) 0.71688(11) 0.50572(9)
C5 C 0.3337(2) 0.57548(17) 0.44911(16)
F2 F 0.29853(15) 0.51147(11) 0.55626(11)
C6 C 0.2965(2) 0.53407(17) 0.36707(18)
F3 F 0.22474(14) 0.43169(11) 0.39348(13)
C7 C 0.3335(2) 0.60018(19) 0.25770(17)
F4 F 0.30304(15) 0.55909(14) 0.17527(12)
C8 C 0.40151(19) 0.70895(18) 0.23456(15)
F5 F 0.43285(14) 0.77113(13) 0.12652(9)
C9 C 0.67459(19) 0.85478(16) 0.31508(14)
C10 C 0.6993(2) 0.94103(17) 0.37499(15)
F6 F 0.60388(13) 1.04962(10) 0.39988(9)
C11 C 0.8167(2) 0.9196(2) 0.41439(15)
F7 F 0.83242(14) 1.00453(13) 0.47536(10)
C12 C 0.9175(2) 0.8101(2) 0.39122(17)
F8 F 1.03376(14) 0.78963(16) 0.42707(13)
C13 C 0.8994(2) 0.7225(2) 0.33069(18)
F9 F 0.99730(14) 0.61617(14) 0.30850(13)
C14 C 0.7797(2) 0.74567(17) 0.29425(15)
F10 F 0.76647(12) 0.65852(10) 0.23445(10)
C15 C 0.5849(2) 1.09557(16) 0.16232(15)
C16 C 0.7089(2) 1.05653(18) 0.06981(16)
F11 F 0.72543(14) 0.93786(12) 0.04022(10)
C17 C 0.8167(2) 1.1343(2) 0.00565(17)
F12 F 0.93283(16) 1.09262(16) -0.08501(11)
C18 C 0.8042(2) 1.2555(2) 0.03465(19)
F13 F 0.90685(16) 1.33239(14) -0.02737(13)
C19 C 0.6848(2) 1.29699(18) 0.1275(2)
F14 F 0.67272(17) 1.41493(12) 0.15710(15)
C20 C 0.5780(2) 1.21795(17) 0.18978(17)
F15 F 0.46440(13) 1.26216(11) 0.28017(11)
C21 C 0.2355(2) 1.14944(17) 0.21583(15)
C22 C 0.0854(2) 1.1691(2) 0.28349(19)
H2 H 0.0461 1.1092 0.3477
C23 C -0.0068(3) 1.2755(3) 0.2576(2)
H3 H -0.1074 1.2888 0.3055
C24 C 0.0477(3) 1.3617(2) 0.1626(2)
H4 H -0.0153 1.4341 0.1450
C25 C 0.1948(3) 1.3422(2) 0.0929(2)
H5 H 0.2317 1.4005 0.0267
C26 C 0.2887(2) 1.23787(18) 0.11924(17)
H6 H 0.3895 1.2263 0.0716

#END
