./KACHUU_from_POSCAR.cif_generated_by_CrystalShift
_symmetry_cell_setting triclinic
_symmetry_space_group_name_H-M 'P 1'
loop_
_symmetry_equiv_pos_site_id
_symmetry_equiv_pos_as_xyz
1 x,y,z
_cell_length_a 14.733600
_cell_length_b 18.208400
_cell_length_c 9.405700
_cell_angle_alpha 90.000000
_cell_angle_beta 94.715000
_cell_angle_gamma 90.000000
_cell_volume 2514.777669
loop_
_atom_site_label
_atom_site_type_symbol
_atom_site_fract_x
_atom_site_fract_y
_atom_site_fract_z
H1 H 0.757000 0.670300 0.481300
H2 H 1.006100 0.439800 0.625400
H3 H 0.343700 1.166700 0.502400
H4 H 1.023000 0.510300 0.837600
H5 H 0.503500 1.128100 0.489100
H6 H 0.876700 0.555600 0.918600
H7 H 0.503500 0.371900 0.989100
H8 H 0.343700 0.333300 1.002400
H9 H 0.778000 0.664200 0.785500
H10 H 0.837800 0.714400 0.689300
H11 H 0.731700 0.731500 0.697300
H12 H 0.392400 0.762700 0.180200
H13 H 0.876700 0.944400 0.418600
H14 H 0.972900 0.212100 0.973700
H15 H 1.023000 0.989700 0.337600
H16 H 1.062500 0.224700 1.078800
H17 H 1.006100 1.060200 0.125400
H18 H 1.032800 0.284600 0.959400
H19 H 0.800600 0.897600 0.071400
H20 H 0.757000 0.829700 -0.018700
H21 H 0.996400 0.318100 1.193100
H22 H 0.778000 0.835800 0.285500
H23 H 0.837800 0.785600 0.189300
H24 H 0.731700 0.768500 0.197300
H25 H 0.927400 0.250300 1.188800
H26 H 0.838300 0.305600 0.998200
H27 H 0.907700 0.373200 1.000600
H28 H 0.869700 0.399000 1.243100
H29 H 0.789500 0.414900 1.122500
H30 H 0.392400 0.737300 -0.319800
H31 H 0.323500 0.797600 -0.267900
H32 H 0.742600 0.355900 1.329400
H33 H 0.300100 0.721200 -0.067300
H34 H 0.361900 0.659600 -0.133600
H35 H 0.798900 0.285100 1.288300
H36 H 0.201100 0.714900 -0.288300
H37 H 0.257400 0.644100 -0.329400
H38 H 0.638100 0.340400 1.133600
H39 H 0.210500 0.585100 -0.122500
H40 H 0.130300 0.601000 -0.243100
H41 H 0.699900 0.278800 1.067300
H42 H 0.092300 0.626800 -0.000600
H43 H 0.161700 0.694400 0.001800
H44 H 0.676500 0.202400 1.267900
H45 H 0.072600 0.749700 -0.188800
H46 H 0.003600 0.681900 -0.193100
H47 H 0.607600 0.262700 1.319800
H48 H -0.032800 0.715400 0.040600
H49 H -0.062500 0.775300 -0.078800
H50 H 0.027100 0.787900 0.026300
H51 H 0.027100 0.712100 0.526300
H52 H -0.062500 0.724700 0.421200
H53 H -0.032800 0.784600 0.540600
H54 H 0.268300 0.231500 0.802700
H55 H 0.003600 0.818100 0.306900
H56 H 0.072600 0.750300 0.311200
H57 H 0.162200 0.214400 0.810700
H58 H 0.161700 0.805600 0.501800
H59 H 0.092300 0.873200 0.499400
H60 H 0.222000 0.164200 0.714500
H61 H 0.243000 0.170300 1.018700
H62 H 0.199400 0.102400 0.928600
H63 H 0.656300 0.666700 -0.002400
H64 H -0.006100 -0.060200 0.874600
H65 H 0.496500 0.628100 0.010900
H66 H -0.023000 0.010300 0.662400
H67 H 0.123300 0.055600 0.581400
H68 H 0.496500 -0.128100 0.510900
H69 H 0.656300 -0.166700 0.497600
H70 H 0.323500 0.702400 0.232100
H71 H 0.300100 0.778800 0.432700
H72 H 0.361900 0.840400 0.366400
H73 H 0.123300 0.444400 0.081400
H74 H 0.201100 0.785100 0.211700
H75 H -0.023000 0.489700 0.162400
H76 H 0.257400 0.855900 0.170600
H77 H -0.006100 0.560200 0.374600
H78 H 0.210500 0.914900 0.377500
H79 H 0.199400 0.397600 0.428600
H80 H 0.243000 0.329700 0.518700
H81 H 0.130300 0.899000 0.256900
H82 H 0.222000 0.335800 0.214500
H83 H 0.162200 0.285600 0.310700
H84 H 0.268300 0.268500 0.302700
H85 H 0.972900 0.287900 0.473700
H86 H 1.062500 0.275300 0.578800
H87 H 1.032800 0.215400 0.459400
H88 H 0.996400 0.181900 0.693100
H89 H 0.927400 0.249700 0.688800
H90 H 0.607600 0.237300 0.819800
H91 H 0.676500 0.297600 0.767900
H92 H 0.838300 0.194400 0.498200
H93 H 0.699900 0.221200 0.567300
H94 H 0.638100 0.159600 0.633600
H95 H 0.907700 0.126800 0.500600
H96 H 0.798900 0.214900 0.788300
H97 H 0.742600 0.144100 0.829400
H98 H 0.869700 0.101000 0.743100
H99 H 0.789500 0.085100 0.622500
H100 H 0.800600 0.602400 0.571400
C101 C 0.880400 0.164000 0.560900
C102 C 0.763800 0.172300 0.748300
C103 C 0.680500 0.200830 0.657600
C104 C 0.955200 0.212500 0.629100
C105 C 0.632000 0.259260 0.734600
C106 C 0.466600 0.268120 0.656100
C107 C 1.010600 0.251100 0.526500
C108 C 0.578800 0.349950 0.557000
C109 C 0.499600 0.383520 0.472700
C110 C 0.409600 0.356280 0.495300
C111 C 0.222400 0.307500 0.303200
C112 C 0.245100 0.357760 0.428900
C113 C 0.174000 0.875400 0.328400
C114 C 0.043900 0.540700 0.329400
C115 C 0.034600 0.500400 0.210800
C116 C 0.236200 0.827700 0.251700
C117 C 0.117800 0.474630 0.162600
C118 C 0.192200 0.501470 0.255800
C119 C 0.319500 0.799170 0.342400
C120 C 0.290400 0.489610 0.249300
C121 C 0.694600 -0.089670 0.649000
C122 C 0.637500 -0.129010 0.558600
C123 C 0.351800 0.446410 0.327600
C124 C 0.546400 -0.106770 0.566600
C125 C 0.444200 0.463830 0.305100
C126 C 0.537000 -0.050980 0.663500
C127 C 0.453200 -0.018430 0.704600
C128 C 0.444200 0.036170 0.805100
C129 C 0.351800 0.053590 0.827600
C130 C 0.290400 0.010390 0.749300
C131 C 0.192200 -0.001470 0.755800
C132 C 0.117800 0.025370 0.662600
C133 C 0.453200 0.518430 0.204600
C134 C 0.034600 -0.000400 0.710800
C135 C 0.537000 0.550980 0.163500
C136 C 0.043900 -0.040700 0.829400
C137 C 0.546400 0.606770 0.066600
C138 C 0.245100 0.142240 0.928900
C139 C 0.637500 0.629010 0.058600
C140 C 0.694600 0.589670 0.149000
C141 C 0.222400 0.192500 0.803200
C142 C 0.119600 0.836000 0.439100
C143 C 0.044800 0.787500 0.370900
C144 C -0.010600 0.748900 0.473500
C145 C 0.409600 0.143720 0.995300
C146 C 0.499600 0.116480 0.972700
C147 C 0.578800 0.150050 1.057000
C148 C 0.466600 0.231880 1.156100
C149 C 0.632000 0.240740 1.234600
C150 C -0.010600 0.751100 -0.026500
C151 C 0.044800 0.712500 -0.129100
C152 C 0.680500 0.299170 1.157600
C153 C 0.119600 0.664000 -0.060900
C154 C 0.174000 0.624600 -0.171600
C155 C 0.763800 0.327700 1.248300
C156 C 0.236200 0.672300 -0.248300
C157 C 0.319500 0.700830 -0.157600
C158 C 0.826000 0.375400 1.171600
C159 C 0.368000 0.759260 -0.234600
C160 C 0.533400 0.768120 -0.156100
C161 C 0.880400 0.336000 1.060900
C162 C 0.421200 0.849950 -0.057000
C163 C 0.500400 0.883520 0.027300
C164 C 0.955200 0.287500 1.129100
C165 C 0.590400 0.856280 0.004700
C166 C 0.777600 0.807500 0.196800
C167 C 1.010600 0.248900 1.026500
C168 C 0.754900 0.857760 0.071100
C169 C 0.956100 1.040700 0.170600
C170 C 0.965400 1.000400 0.289200
C171 C 0.882200 0.974630 0.337400
C172 C 0.368000 0.740740 0.265400
C173 C 0.533400 0.731880 0.343900
C174 C 0.421200 0.650050 0.443000
C175 C 0.500400 0.616480 0.527300
C176 C 0.590400 0.643720 0.504700
C177 C 0.807800 1.001470 0.244200
C178 C 0.709600 0.989610 0.250700
C179 C 0.648200 0.946410 0.172400
C180 C 0.777600 0.692500 0.696800
C181 C 0.305400 0.410330 0.851000
C182 C 0.362500 0.370990 0.941400
C183 C 0.555800 0.963830 0.194900
C184 C 0.453600 0.393230 0.933400
C185 C 0.546800 1.018430 0.295400
C186 C 0.463000 0.449020 0.836500
C187 C 0.546800 0.481570 0.795400
C188 C 0.555800 0.536170 0.694900
C189 C 0.648200 0.553590 0.672400
C190 C 0.709600 0.510390 0.750700
C191 C 0.807800 0.498530 0.744200
C192 C 0.882200 0.525370 0.837400
C193 C 0.463000 1.050980 0.336500
C194 C 0.965400 0.499600 0.789200
C195 C 0.453600 1.106770 0.433400
C196 C 0.956100 0.459300 0.670600
C197 C 0.362500 1.129010 0.441400
C198 C 0.754900 0.642240 0.571100
C199 C 0.826000 0.124600 0.671600
C200 C 0.305400 1.089670 0.351000
N201 N 0.336920 0.389840 0.422100
N202 N 0.605310 0.699060 0.420900
N203 N 0.663080 0.610160 0.577900
N204 N 0.482480 0.566690 0.619800
N205 N 0.482480 0.933310 0.119800
N206 N 0.556700 0.205890 1.146500
N207 N 0.394690 0.199060 1.079100
N208 N 0.336920 0.110160 0.922100
N209 N 0.517520 0.066690 0.880200
N210 N 0.663080 0.889840 0.077900
N211 N 0.605310 0.800940 -0.079100
N212 N 0.443300 0.794110 -0.146500
N213 N 0.517520 0.433310 0.380200
N214 N 0.443300 0.705890 0.353500
N215 N 0.394690 0.300940 0.579100
N216 N 0.556700 0.294110 0.646500
O217 O 0.656220 0.370350 0.548200
O218 O 0.455350 0.215640 0.732600
O219 O 0.343780 0.629650 0.451800
O220 O 0.544650 0.784360 0.267400
O221 O 0.656220 0.129650 1.048200
O222 O 0.343780 0.870350 -0.048200
O223 O 0.544650 0.715640 -0.232600
O224 O 0.455350 0.284360 1.232600
S225 S 0.652410 1.047510 0.360070
S226 S 0.347590 0.547510 0.139930
S227 S 0.153750 0.553610 0.391660
S228 S 0.652410 0.452490 0.860070
S229 S 0.846250 1.053610 0.108340
S230 S 0.358020 0.475850 0.755450
S231 S 0.641980 0.524150 0.244550
S232 S 0.358020 1.024150 0.255450
S233 S 0.641980 -0.024150 0.744550
S234 S 0.347590 -0.047510 0.639930
S235 S 0.153750 -0.053610 0.891660
S236 S 0.846250 0.446390 0.608340
Br237 Br 0.820820 0.601833 0.184140
Br238 Br 0.820820 -0.101833 0.684140
Br239 Br 0.179180 1.101833 0.315860
Br240 Br 0.179180 0.398167 0.815860

#END
