./KACHAX_from_POSCAR.cif_generated_by_CrystalShift
_symmetry_cell_setting triclinic
_symmetry_space_group_name_H-M 'P 1'
loop_
_symmetry_equiv_pos_site_id
_symmetry_equiv_pos_as_xyz
1 x,y,z
_cell_length_a 8.368000
_cell_length_b 17.110000
_cell_length_c 23.020000
_cell_angle_alpha 90.000000
_cell_angle_beta 90.000000
_cell_angle_gamma 90.000000
_cell_volume 3295.922570
loop_
_atom_site_label
_atom_site_type_symbol
_atom_site_fract_x
_atom_site_fract_y
_atom_site_fract_z
H1 H 0.341900 0.259400 0.946300
H2 H 0.219600 0.161100 1.112400
H3 H 0.037500 0.074100 1.061500
H4 H 0.007800 0.078700 0.959800
H5 H 0.045600 0.155000 0.865000
H6 H 0.758200 -0.033100 0.546900
H7 H 0.956500 -0.077700 0.529000
H8 H 0.839300 -0.115500 0.570500
H9 H 0.215200 0.215000 0.865300
H10 H 1.040590 -0.070600 0.620800
H11 H 0.221500 -0.120300 0.716300
H12 H 0.953200 0.076100 0.562800
H13 H 0.357400 -0.050300 0.712600
H14 H 1.208690 0.107600 0.570400
H15 H 1.247300 0.030600 0.618500
H16 H 0.194100 -0.039800 0.729600
H17 H 1.241700 0.107000 0.699100
H18 H 1.275590 0.173500 0.657500
H19 H 0.514500 0.160200 0.744600
H20 H 0.995200 0.211200 0.632300
H21 H 0.575200 0.231200 0.754300
H22 H 0.877900 0.233400 0.733100
H23 H 1.075200 0.231200 0.745700
H24 H 1.014500 0.160200 0.755400
H25 H 0.377900 0.233400 0.766900
H26 H 0.495200 0.211200 0.867700
H27 H 0.775590 0.173500 0.842500
H28 H 0.741700 0.107000 0.800900
H29 H 0.747300 0.030600 0.881500
H30 H 0.694100 -0.039800 0.770400
H31 H 0.857400 -0.050300 0.787400
H32 H 0.721500 -0.120300 0.783700
H33 H 0.708690 0.107600 0.929600
H34 H 0.715200 0.215000 0.634700
H35 H 0.545600 0.155000 0.635000
H36 H 0.453200 0.076100 0.937200
H37 H 0.540590 -0.070600 0.879200
H38 H 0.339300 -0.115500 0.929500
H39 H 0.456500 -0.077700 0.971000
H40 H 0.258200 -0.033100 0.953100
H41 H 0.158100 0.759400 0.946300
H42 H 0.507800 0.078700 0.540200
H43 H 0.537500 0.074100 0.438500
H44 H 0.719600 0.161100 0.387600
H45 H 0.857300 0.253700 0.441600
H46 H 0.841900 0.259400 0.553700
H47 H 0.142700 0.753700 1.058400
H48 H 0.280400 0.661100 1.112400
H49 H 0.462500 0.574100 1.061500
H50 H 0.492200 0.578700 0.959800
H51 H 0.454400 0.655000 0.865000
H52 H 0.741800 0.466900 0.546900
H53 H 0.543500 0.422300 0.529000
H54 H 0.660700 0.384500 0.570500
H55 H 0.284800 0.715000 0.865300
H56 H 0.459410 0.429400 0.620800
H57 H 0.278500 0.379700 0.716300
H58 H 0.546800 0.576100 0.562800
H59 H 0.142600 0.449700 0.712600
H60 H 0.291310 0.607600 0.570400
H61 H 0.252700 0.530600 0.618500
H62 H 0.305900 0.460200 0.729600
H63 H 0.258300 0.607000 0.699100
H64 H 0.224410 0.673500 0.657500
H65 H -0.014500 0.660200 0.744600
H66 H 0.504800 0.711200 0.632300
H67 H -0.075200 0.731200 0.754300
H68 H 0.622100 0.733400 0.733100
H69 H 0.424800 0.731200 0.745700
H70 H 0.485500 0.660200 0.755400
H71 H 0.122100 0.733400 0.766900
H72 H 0.004800 0.711200 0.867700
H73 H -0.275590 0.673500 0.842500
H74 H -0.241700 0.607000 0.800900
H75 H -0.247300 0.530600 0.881500
H76 H 0.805900 0.460200 0.770400
H77 H 0.642600 0.449700 0.787400
H78 H 0.778500 0.379700 0.783700
H79 H -0.208690 0.607600 0.929600
H80 H 0.784800 0.715000 0.634700
H81 H 0.954400 0.655000 0.635000
H82 H 0.046800 0.576100 0.937200
H83 H -0.040590 0.429400 0.879200
H84 H 0.160700 0.384500 0.929500
H85 H 0.043500 0.422300 0.971000
H86 H 0.241800 0.466900 0.953100
H87 H 0.341900 0.240600 0.446300
H88 H 0.992200 0.578700 0.540200
H89 H 0.962500 0.574100 0.438500
H90 H 0.780400 0.661100 0.387600
H91 H 0.642700 0.753700 0.441600
H92 H 0.658100 0.759400 0.553700
H93 H 0.357300 0.246300 0.558400
H94 H 0.219600 0.338900 0.612400
H95 H 0.037500 0.425900 0.561500
H96 H 0.007800 0.421300 0.459800
H97 H 0.045600 0.345000 0.365000
H98 H 0.758200 0.533100 0.046900
H99 H 0.956500 0.577700 0.029000
H100 H 0.839300 0.615500 0.070500
H101 H 0.215200 0.285000 0.365300
H102 H 1.040590 0.570600 0.120800
H103 H 0.221500 0.620300 0.216300
H104 H 0.953200 0.423900 0.062800
H105 H 0.357400 0.550300 0.212600
H106 H 1.208690 0.392400 0.070400
H107 H 1.247300 0.469400 0.118500
H108 H 0.194100 0.539800 0.229600
H109 H 1.241700 0.393000 0.199100
H110 H 1.275590 0.326500 0.157500
H111 H 0.514500 0.339800 0.244600
H112 H 0.995200 0.288800 0.132300
H113 H 0.575200 0.268800 0.254300
H114 H 0.877900 0.266600 0.233100
H115 H 1.075200 0.268800 0.245700
H116 H 1.014500 0.339800 0.255400
H117 H 0.377900 0.266600 0.266900
H118 H 0.495200 0.288800 0.367700
H119 H 0.775590 0.326500 0.342500
H120 H 0.741700 0.393000 0.300900
H121 H 0.747300 0.469400 0.381500
H122 H 0.694100 0.539800 0.270400
H123 H 0.857400 0.550300 0.287400
H124 H 0.721500 0.620300 0.283700
H125 H 0.708690 0.392400 0.429600
H126 H 0.715200 0.285000 0.134700
H127 H 0.545600 0.345000 0.135000
H128 H 0.453200 0.423900 0.437200
H129 H 0.540590 0.570600 0.379200
H130 H 0.339300 0.615500 0.429500
H131 H 0.456500 0.577700 0.471000
H132 H 0.258200 0.533100 0.453100
H133 H 0.158100 0.740600 0.446300
H134 H 0.507800 0.421300 0.040200
H135 H 0.537500 0.425900 -0.061500
H136 H 0.719600 0.338900 -0.112400
H137 H 0.857300 0.246300 -0.058400
H138 H 0.841900 0.240600 0.053700
H139 H 0.142700 0.746300 0.558400
H140 H 0.280400 0.838900 0.612400
H141 H 0.462500 0.925900 0.561500
H142 H 0.492200 0.921300 0.459800
H143 H 0.454400 0.845000 0.365000
H144 H 0.741800 1.033100 0.046900
H145 H 0.543500 1.077700 0.029000
H146 H 0.660700 1.115500 0.070500
H147 H 0.284800 0.785000 0.365300
H148 H 0.459410 1.070600 0.120800
H149 H 0.278500 1.120300 0.216300
H150 H 0.546800 0.923900 0.062800
H151 H 0.142600 1.050300 0.212600
H152 H 0.291310 0.892400 0.070400
H153 H 0.252700 0.969400 0.118500
H154 H 0.305900 1.039800 0.229600
H155 H 0.258300 0.893000 0.199100
H156 H 0.224410 0.826500 0.157500
H157 H -0.014500 0.839800 0.244600
H158 H 0.504800 0.788800 0.132300
H159 H -0.075200 0.768800 0.254300
H160 H 0.622100 0.766600 0.233100
H161 H 0.424800 0.768800 0.245700
H162 H 0.485500 0.839800 0.255400
H163 H 0.122100 0.766600 0.266900
H164 H 0.004800 0.788800 0.367700
H165 H -0.275590 0.826500 0.342500
H166 H -0.241700 0.893000 0.300900
H167 H -0.247300 0.969400 0.381500
H168 H 0.805900 1.039800 0.270400
H169 H 0.642600 1.050300 0.287400
H170 H 0.778500 1.120300 0.283700
H171 H -0.208690 0.892400 0.429600
H172 H 0.784800 0.785000 0.134700
H173 H 0.954400 0.845000 0.135000
H174 H 0.046800 0.923900 0.437200
H175 H -0.040590 1.070600 0.379200
H176 H 0.160700 1.115500 0.429500
H177 H 0.043500 1.077700 0.471000
H178 H 0.241800 1.033100 0.453100
H179 H 0.658100 0.740600 0.053700
H180 H 0.992200 0.921300 0.040200
H181 H 0.962500 0.925900 -0.061500
H182 H 0.780400 0.838900 -0.112400
H183 H 0.642700 0.746300 -0.058400
H184 H 0.357300 0.253700 1.058400
C185 C 0.175080 0.166370 0.946500
C186 C 0.279840 0.219020 0.972800
C187 C 0.296320 0.219780 1.033100
C188 C 0.208050 0.167900 1.067110
C189 C 0.138180 1.066640 0.440170
C190 C 0.720160 0.780980 0.027200
C191 C 0.703680 0.780220 -0.033100
C192 C 0.791950 0.832100 -0.067110
C193 C 0.053910 1.030090 0.387590
C194 C 0.896710 0.884750 -0.040810
C195 C 0.002370 0.944270 0.397500
C196 C 0.913190 0.885520 0.019490
C197 C -0.176110 0.921760 0.392080
C198 C 0.843140 0.834940 0.118590
C199 C 0.729340 1.079210 0.266490
C200 C -0.187340 0.863540 0.340850
C201 C 0.694510 1.091500 0.203800
C202 C 0.810270 0.972770 0.151080
C203 C -0.017300 0.831390 0.331360
C204 C 0.659290 1.020160 0.167550
C205 C 0.012940 0.797350 0.271120
C206 C 0.579640 0.902680 0.154360
C207 C 0.512940 0.797350 0.228880
C208 C 0.482700 0.831390 0.168640
C209 C 0.079640 0.902680 0.345640
C210 C 0.159290 1.020160 0.332450
C211 C 0.310270 0.972770 0.348920
C212 C 0.194510 1.091500 0.296200
C213 C 0.229340 1.079210 0.233510
C214 C 0.312660 0.863540 0.159150
C215 C 0.323890 0.921760 0.107920
C216 C 0.502370 0.944270 0.102500
C217 C 0.343140 0.834940 0.381410
C218 C 0.553910 1.030090 0.112410
C219 C 0.638180 1.066640 0.059830
C220 C 0.413190 0.885520 0.480510
C221 C 0.396710 0.884750 0.540810
C222 C 0.291950 0.832100 0.567110
C223 C 0.203680 0.780220 0.533100
C224 C 0.220160 0.780980 0.472800
C225 C 0.324920 0.833630 0.446500
C226 C 0.103290 0.115250 1.040810
C227 C 0.086810 0.114480 0.980510
C228 C 0.861820 -0.066640 0.559830
C229 C 0.946090 -0.030090 0.612410
C230 C 0.675080 0.333630 0.053500
C231 C 0.156860 0.165060 0.881410
C232 C 0.997630 0.055730 0.602500
C233 C 1.176110 0.078240 0.607920
C234 C 1.187340 0.136460 0.659150
C235 C 0.361820 0.566640 0.440170
C236 C 0.779840 0.280980 0.027200
C237 C 0.796320 0.280220 -0.033100
C238 C 0.708050 0.332100 -0.067110
C239 C 0.446090 0.530090 0.387590
C240 C 0.603290 0.384750 -0.040810
C241 C 0.497630 0.444270 0.397500
C242 C 0.586810 0.385520 0.019490
C243 C 0.676110 0.421760 0.392080
C244 C 0.656860 0.334940 0.118590
C245 C 0.770660 0.579210 0.266490
C246 C 0.687340 0.363540 0.340850
C247 C 0.805490 0.591500 0.203800
C248 C 0.689730 0.472770 0.151080
C249 C 0.517300 0.331390 0.331360
C250 C 0.840710 0.520160 0.167550
C251 C 0.487060 0.297350 0.271120
C252 C 0.920360 0.402680 0.154360
C253 C 0.987060 0.297350 0.228880
C254 C 1.017300 0.331390 0.168640
C255 C 0.420360 0.402680 0.345640
C256 C 0.340710 0.520160 0.332450
C257 C 0.189730 0.472770 0.348920
C258 C 0.305490 0.591500 0.296200
C259 C 0.270660 0.579210 0.233510
C260 C 1.187340 0.363540 0.159150
C261 C 1.176110 0.421760 0.107920
C262 C 0.997630 0.444270 0.102500
C263 C 0.156860 0.334940 0.381410
C264 C 0.946090 0.530090 0.112410
C265 C 0.861820 0.566640 0.059830
C266 C 0.086810 0.385520 0.480510
C267 C 0.103290 0.384750 0.540810
C268 C 0.208050 0.332100 0.567110
C269 C 0.296320 0.280220 0.533100
C270 C 0.279840 0.280980 0.472800
C271 C 0.175080 0.333630 0.446500
C272 C 0.270660 -0.079210 0.733510
C273 C 0.305490 -0.091500 0.796200
C274 C 0.189730 0.027230 0.848920
C275 C 0.340710 -0.020160 0.832450
C276 C 0.824920 0.666370 0.553500
C277 C 0.420360 0.097320 0.845640
C278 C 1.017300 0.168610 0.668640
C279 C 0.987060 0.202650 0.728880
C280 C 0.920360 0.097320 0.654360
C281 C 0.138180 0.433360 0.940170
C282 C 0.720160 0.719020 0.527200
C283 C 0.703680 0.719780 0.466900
C284 C 0.791950 0.667900 0.432890
C285 C 0.053910 0.469910 0.887590
C286 C 0.896710 0.615250 0.459190
C287 C 0.002370 0.555730 0.897500
C288 C 0.913190 0.614480 0.519490
C289 C -0.176110 0.578240 0.892080
C290 C 0.843140 0.665060 0.618590
C291 C 0.729340 0.420790 0.766490
C292 C -0.187340 0.636460 0.840850
C293 C 0.694510 0.408500 0.703800
C294 C 0.810270 0.527230 0.651080
C295 C -0.017300 0.668610 0.831360
C296 C 0.659290 0.479840 0.667550
C297 C 0.012940 0.702650 0.771120
C298 C 0.579640 0.597320 0.654360
C299 C 0.512940 0.702650 0.728880
C300 C 0.482700 0.668610 0.668640
C301 C 0.079640 0.597320 0.845640
C302 C 0.159290 0.479840 0.832450
C303 C 0.310270 0.527230 0.848920
C304 C 0.194510 0.408500 0.796200
C305 C 0.229340 0.420790 0.733510
C306 C 0.312660 0.636460 0.659150
C307 C 0.323890 0.578240 0.607920
C308 C 0.502370 0.555730 0.602500
C309 C 0.343140 0.665060 0.881410
C310 C 0.553910 0.469910 0.612410
C311 C 0.638180 0.433360 0.559830
C312 C 0.413190 0.614480 0.980510
C313 C 0.396710 0.615250 1.040810
C314 C 0.291950 0.667900 1.067110
C315 C 0.203680 0.719780 1.033100
C316 C 0.220160 0.719020 0.972800
C317 C 0.324920 0.666370 0.946500
C318 C 0.487060 0.202650 0.771120
C319 C 0.840710 -0.020160 0.667550
C320 C 0.517300 0.168610 0.831360
C321 C 0.689730 0.027230 0.651080
C322 C 0.675080 0.166370 0.553500
C323 C 0.805490 -0.091500 0.703800
C324 C 0.687340 0.136460 0.840850
C325 C 0.770660 -0.079210 0.766490
C326 C 0.656860 0.165060 0.618590
C327 C 0.361820 -0.066640 0.940170
C328 C 0.779840 0.219020 0.527200
C329 C 0.796320 0.219780 0.466900
C330 C 0.708050 0.167900 0.432890
C331 C 0.446090 -0.030090 0.887590
C332 C 0.603290 0.115250 0.459190
C333 C 0.497630 0.055730 0.897500
C334 C 0.586810 0.114480 0.519490
C335 C 0.676110 0.078240 0.892080
C336 C 0.824920 0.833630 0.053500
N337 N 0.746650 0.101360 0.646570
N338 N 0.253350 0.898640 0.353430
N339 N 0.753350 0.898640 0.146570
N340 N 0.246650 0.398640 0.353430
N341 N 0.746650 0.398640 0.146570
N342 N 0.253350 0.601360 0.853430
N343 N 0.753350 0.601360 0.646570
N344 N 0.246650 0.101360 0.853430
O345 O 0.197280 0.345360 0.818680
O346 O 0.444370 0.502840 0.857750
O347 O 0.070620 0.538560 0.800820
O348 O 0.929380 0.461440 0.199180
O349 O 0.555630 0.497160 0.142250
O350 O 0.802720 0.654640 0.181320
O351 O 0.944370 0.502840 0.642250
O352 O 0.570620 0.538560 0.699180
O353 O 0.302720 0.654640 0.318680
O354 O 0.055630 0.497160 0.357750
O355 O 0.429380 0.461440 0.300820
O356 O 0.570620 0.961440 0.199180
O357 O 0.944370 0.997160 0.142250
O358 O 0.697280 1.154640 0.181320
O359 O 0.429380 0.038560 0.800820
O360 O 0.055630 0.002840 0.857750
O361 O 0.197280 1.154640 0.318680
O362 O 0.444370 0.997160 0.357750
O363 O 0.070620 0.961440 0.300820
O364 O 0.302720 -0.154640 0.818680
O365 O 0.802720 -0.154640 0.681320
O366 O 0.555630 0.002840 0.642250
O367 O 0.697280 0.345360 0.681320
O368 O 0.929380 0.038560 0.699180

#END
