./KACJIK_from_POSCAR.cif_generated_by_CrystalShift
_symmetry_cell_setting triclinic
_symmetry_space_group_name_H-M 'P 1'
loop_
_symmetry_equiv_pos_site_id
_symmetry_equiv_pos_as_xyz
1 x,y,z
_cell_length_a 8.993600
_cell_length_b 20.913700
_cell_length_c 10.697500
_cell_angle_alpha 90.000000
_cell_angle_beta 112.585000
_cell_angle_gamma 90.000000
_cell_volume 1857.781568
loop_
_atom_site_label
_atom_site_type_symbol
_atom_site_fract_x
_atom_site_fract_y
_atom_site_fract_z
H1 H 0.366300 0.233300 0.259600
H2 H 0.572500 0.175800 0.231000
H3 H 0.668600 -0.128200 0.059000
H4 H 0.651300 0.080800 0.577500
H5 H 0.303500 0.554300 0.640800
H6 H 0.927400 -0.119600 -0.191200
H7 H 0.472400 0.024600 0.271100
H8 H 0.947100 0.158900 0.516300
H9 H 1.149200 0.096500 0.462700
H10 H 0.833100 -0.051100 -0.067200
H11 H 0.446700 0.139100 0.607400
H12 H 1.189800 -0.213800 0.150200
H13 H 1.086300 0.647700 0.771700
H14 H 0.404000 -0.130000 0.035200
H15 H 0.404000 0.630000 0.535200
H16 H 1.086300 -0.147700 0.271700
H17 H 0.303500 -0.054300 0.140800
H18 H 1.189800 0.713800 0.650200
H19 H 0.633700 0.733300 0.240400
H20 H 0.427500 0.675800 0.269000
H21 H 0.446700 0.360900 1.107400
H22 H 0.331400 0.371800 0.441000
H23 H 0.348700 0.580800 -0.077500
H24 H 0.833100 0.551100 0.432800
H25 H 0.072600 0.380400 0.691200
H26 H 1.149200 0.403500 0.962700
H27 H 0.527600 0.524600 0.228900
H28 H 0.947100 0.341100 1.016300
H29 H 0.052900 0.658900 -0.016300
H30 H -0.149200 0.596500 0.037300
H31 H 0.472400 0.475400 0.771100
H32 H 0.166900 0.448900 0.567200
H33 H 0.927400 0.619600 0.308800
H34 H 0.553300 0.639100 -0.107400
H35 H -0.189800 0.286200 0.349800
H36 H 0.651300 0.419200 1.077500
H37 H 0.596000 0.370000 0.464800
H38 H 0.668600 0.628200 0.559000
H39 H -0.086300 0.352300 0.228300
H40 H 0.572500 0.324200 0.731000
H41 H 0.696500 0.445700 0.359200
H42 H 0.366300 0.266700 0.759600
H43 H 0.633700 0.766700 0.740400
H44 H 0.427500 0.824200 0.769000
H45 H 0.331400 1.128200 0.941000
H46 H 0.348700 0.919200 0.422500
H47 H 0.696500 1.054300 0.859200
H48 H 0.072600 1.119600 1.191200
H49 H 0.527600 0.975400 0.728900
H50 H 0.052900 0.841100 0.483700
H51 H -0.149200 0.903500 0.537300
H52 H 0.166900 1.051100 1.067200
H53 H 0.553300 0.860900 0.392600
H54 H -0.189800 1.213800 0.849800
H55 H -0.086300 1.147700 0.728300
H56 H 0.596000 1.130000 0.964800
C57 C 0.528100 1.098240 0.912300
C58 C 0.265900 1.049670 0.821300
C59 C -0.117100 1.181530 0.893200
C60 C -0.056300 1.141710 0.820900
C61 C 0.365500 0.875760 0.596400
C62 C 0.527000 0.853420 0.467300
C63 C -0.067400 1.172300 1.031400
C64 C 0.609300 0.807710 0.562400
C65 C 0.096700 1.084140 1.024200
C66 C 0.046700 0.961170 0.654700
C67 C -0.039200 0.911420 0.568100
C68 C 0.325400 1.002930 0.756900
C69 C 0.073700 0.877120 0.538700
C70 C 0.548100 0.168900 0.306900
C71 C 0.048900 1.093150 0.886100
C72 C 0.488000 1.005680 0.771800
C73 C -0.013400 1.007980 0.724200
C74 C 0.039400 1.124580 1.098000
C75 C 0.630400 -0.097170 0.101400
C76 C 0.208000 0.956900 0.676000
C77 C 0.404300 0.888050 0.485000
C78 C 0.589200 1.052850 0.849300
C79 C 0.369600 1.097170 0.898600
C80 C 0.410800 0.552850 0.650700
C81 C 0.451900 0.831100 0.693100
C82 C 0.595700 0.111950 0.515000
C83 C 0.575000 0.796720 0.676200
C84 C 0.792000 0.043100 0.324000
C85 C 0.960600 -0.124580 -0.098000
C86 C 1.013400 0.507980 0.775800
C87 C 0.512000 -0.005680 0.228200
C88 C 0.589200 0.447150 0.349300
C89 C 0.425000 0.296720 0.823800
C90 C 0.951100 -0.093150 0.113900
C91 C -0.013400 0.492020 0.224200
C92 C 0.926300 0.122880 0.461300
C93 C 0.325400 0.497070 0.256900
C94 C 0.046700 0.538830 0.154700
C95 C -0.067400 0.327700 0.531400
C96 C -0.056300 0.358290 0.320900
C97 C 0.548100 0.331100 0.806900
C98 C 0.528100 0.401760 0.412300
C99 C 0.630400 0.597170 0.601400
C100 C 0.265900 0.450330 0.321300
C101 C -0.117100 0.318470 0.393200
C102 C 0.595700 0.388050 1.015000
C103 C 0.365500 0.624240 0.096400
C104 C 0.527000 0.646580 -0.032700
C105 C 0.792000 0.456900 0.824000
C106 C 0.609300 0.692290 0.062400
C107 C 0.096700 0.415860 0.524200
C108 C 0.960600 0.624580 0.402000
C109 C -0.039200 0.588580 0.068100
C110 C 0.512000 0.505680 0.728200
C111 C 0.073700 0.622880 0.038700
C112 C 0.951100 0.593150 0.613900
C113 C 0.048900 0.406850 0.386100
C114 C 0.488000 0.494320 0.271800
C115 C 0.926300 0.377120 0.961300
C116 C 0.039400 0.375420 0.598000
C117 C 1.039200 0.411420 0.931900
C118 C 0.208000 0.543100 0.176000
C119 C 0.404300 0.611950 -0.015000
C120 C 0.903300 0.584140 0.475800
C121 C 0.369600 0.402830 0.398600
C122 C 0.390700 0.307710 0.937600
C123 C 0.451900 0.668900 0.193100
C124 C 0.473000 0.353420 1.032700
C125 C 0.575000 0.703280 0.176200
C126 C 0.634500 0.375760 0.903600
C127 C 0.674600 0.502930 0.743100
C128 C 1.039200 0.088580 0.431900
C129 C 0.953300 0.461170 0.845300
C130 C 0.410800 -0.052850 0.150700
C131 C 1.117100 0.681530 0.606800
C132 C 0.903300 -0.084140 -0.024200
C133 C 1.013400 -0.007980 0.275800
C134 C 0.390700 0.192290 0.437600
C135 C 0.674600 -0.002930 0.243100
C136 C 0.953300 0.038830 0.345300
C137 C 1.067400 -0.172300 -0.031400
C138 C 1.056300 -0.141710 0.179100
C139 C 0.734100 0.549670 0.678700
C140 C 0.471900 -0.098240 0.087700
C141 C 0.471900 0.598240 0.587700
C142 C 0.734100 -0.049670 0.178700
C143 C 1.117100 -0.181530 0.106800
C144 C 1.056300 0.641710 0.679100
C145 C 0.634500 0.124240 0.403600
C146 C 0.473000 0.146580 0.532700
C147 C 1.067400 0.672300 0.468600
C148 C 0.425000 0.203280 0.323800
N149 N 0.896800 -0.049410 0.191790
N150 N 0.223100 0.904840 0.603990
N151 N 0.103200 1.049410 0.808210
N152 N 0.896800 0.549410 0.691790
N153 N 0.223100 0.595160 0.103990
N154 N 0.776900 0.404840 0.896010
N155 N 0.103200 0.450590 0.308210
N156 N 0.776900 0.095160 0.396010
O157 O -0.153680 1.009870 0.714840
O158 O -0.153680 0.490130 0.214840
O159 O 1.153680 0.509870 0.785160
O160 O 1.153680 -0.009870 0.285160
Cl161 Cl -0.147240 0.278830 0.622930
Cl162 Cl 1.147240 -0.221170 -0.122930
Cl163 Cl 0.240310 0.237140 0.461110
Cl164 Cl -0.147240 1.221170 1.122930
Cl165 Cl 0.759690 0.762860 0.538890
Cl166 Cl 1.147240 0.721170 0.377070
Cl167 Cl 0.759690 0.737140 0.038890
Cl168 Cl 0.240310 0.262860 0.961110

#END
