./KACJUW_from_POSCAR.cif_generated_by_CrystalShift
_symmetry_cell_setting triclinic
_symmetry_space_group_name_H-M 'P 1'
loop_
_symmetry_equiv_pos_site_id
_symmetry_equiv_pos_as_xyz
1 x,y,z
_cell_length_a 5.200500
_cell_length_b 13.556000
_cell_length_c 15.621500
_cell_angle_alpha 73.584000
_cell_angle_beta 85.490000
_cell_angle_gamma 87.120000
_cell_volume 1052.667185
loop_
_atom_site_label
_atom_site_type_symbol
_atom_site_fract_x
_atom_site_fract_y
_atom_site_fract_z
H1 H 0.213000 0.364400 1.068300
H2 H 0.039600 0.279500 1.208500
H3 H 0.501700 0.036100 1.211700
H4 H 0.677100 0.120800 1.069700
H5 H 1.093600 0.496200 0.774300
H6 H 0.804400 0.401200 1.002500
H7 H 0.232800 0.166100 0.680300
H8 H 0.171000 0.802400 0.391900
H9 H -0.059800 0.062600 0.778000
H10 H 0.176900 0.784900 0.543200
H11 H -0.093600 0.057300 0.927500
H12 H 0.175000 0.155300 0.979400
H13 H 0.745900 0.574800 0.562200
H14 H 0.264500 0.409800 0.589600
H15 H 0.735500 0.590200 0.410400
H16 H 0.254100 0.425200 0.437800
H17 H 0.823100 0.215100 0.456800
H18 H 0.825000 0.844700 0.020600
H19 H 0.829000 0.197600 0.608100
H20 H 1.093600 0.942700 0.072500
H21 H 0.787000 0.635600 -0.068300
H22 H 1.059800 0.937400 0.222000
H23 H 0.960400 0.720500 -0.208500
H24 H 0.767200 0.833900 0.319700
H25 H 0.498300 0.963900 -0.211700
H26 H 0.322900 0.879200 -0.069700
H27 H -0.093600 0.503800 0.225700
H28 H 0.195600 0.598800 -0.002500
C29 C 0.281500 0.641800 0.269500
C30 C 0.248000 0.623700 0.042800
C31 C 0.295600 0.647600 0.175500
C32 C 0.156000 0.591300 0.130700
C33 C -0.045600 0.519200 0.164800
C34 C 0.460700 0.711900 0.114100
C35 C 0.540000 0.750300 -0.055200
C36 C 0.452600 0.847100 -0.097600
C37 C 0.633000 0.777500 0.138800
C38 C 0.556700 0.897900 -0.182400
C39 C 0.618600 0.772400 0.230600
C40 C 0.745200 0.849300 -0.221800
C41 C 0.831600 0.752500 -0.180200
C42 C 0.779200 0.834800 0.259800
C43 C 0.729200 0.702000 -0.096700
C44 C 0.953800 0.897200 0.201200
C45 C 0.168400 0.247500 1.180200
C46 C 0.254800 0.150700 1.221800
C47 C 0.443300 0.102100 1.182400
C48 C 0.547400 0.152900 1.097600
C49 C 0.460000 0.249700 1.055200
C50 C 1.045600 0.480800 0.835200
C51 C 0.713300 0.244000 0.574000
C52 C 0.973700 0.900900 0.111800
C53 C 0.710100 0.254500 0.483700
C54 C 0.812800 0.841600 0.081000
C55 C 0.541300 0.322500 0.434400
C56 C 0.371700 0.380000 0.472100
C57 C 0.452800 0.698500 0.386900
C58 C 0.376800 0.370000 0.562900
C59 C 0.623200 0.630000 0.437100
C60 C 0.547200 0.301500 0.613100
C61 C 0.187200 0.158400 0.919000
C62 C 0.628300 0.620000 0.527900
C63 C 0.026300 0.099100 0.888200
C64 C 0.458700 0.677500 0.565600
C65 C 0.046200 0.102800 0.798800
C66 C 0.289900 0.745500 0.516300
C67 C 0.220800 0.165200 0.740200
C68 C 0.286700 0.756000 0.426000
C69 C 0.381400 0.227600 0.769400
C70 C 0.367000 0.222500 0.861200
C71 C 0.539300 0.288100 0.885900
C72 C 0.704400 0.352400 0.824500
C73 C 0.718500 0.358200 0.730500
C74 C 0.752000 0.376300 0.957200
C75 C 0.844000 0.408700 0.869300
C76 C 0.270800 0.298000 1.096700
N77 N 0.572600 0.302500 0.968900
N78 N 0.448200 0.706600 0.292200
N79 N 0.551800 0.293400 0.707800
N80 N 0.427400 0.697500 0.031100
O81 O 1.158200 0.523300 0.879000
O82 O 0.137400 0.585600 0.326490
O83 O 0.862600 0.414400 0.673510
O84 O -0.158200 0.476700 0.121000
Cl85 Cl 0.875700 0.913000 -0.328790
Cl86 Cl 0.538000 0.337340 0.319710
Cl87 Cl 0.124300 0.087000 1.328790
Cl88 Cl 0.462000 0.662660 0.680290

#END
