./KACKUW_from_POSCAR.cif_generated_by_CrystalShift
_symmetry_cell_setting triclinic
_symmetry_space_group_name_H-M 'P 1'
loop_
_symmetry_equiv_pos_site_id
_symmetry_equiv_pos_as_xyz
1 x,y,z
_cell_length_a 7.102100
_cell_length_b 13.135800
_cell_length_c 13.748200
_cell_angle_alpha 90.000000
_cell_angle_beta 90.000000
_cell_angle_gamma 90.000000
_cell_volume 1282.593846
loop_
_atom_site_label
_atom_site_type_symbol
_atom_site_fract_x
_atom_site_fract_y
_atom_site_fract_z
H1 H 0.300500 0.671700 0.936400
H2 H 0.387900 0.755100 1.004400
H3 H 0.340500 0.524700 0.464600
H4 H 0.153800 0.572600 0.504700
H5 H 0.756000 0.434700 0.763200
H6 H 0.161900 0.531000 0.397900
H7 H 0.371000 0.954400 0.888100
H8 H 0.593100 0.141900 0.722600
H9 H 0.156900 0.926400 0.895200
H10 H 0.750800 0.409400 0.931300
H11 H 0.291500 0.903900 0.982900
H12 H 0.594900 0.116400 0.889700
H13 H 0.405100 0.616400 0.610300
H14 H 0.249200 0.909400 0.568700
H15 H 0.406900 0.641900 0.777400
H16 H 0.244000 0.934700 0.736800
H17 H 0.199500 0.328300 0.436400
H18 H -0.009100 0.292900 0.420900
H19 H 0.112100 0.244900 0.504400
H20 H 0.159500 0.475300 -0.035400
H21 H 0.346200 0.427400 0.004700
H22 H 0.708500 0.403900 0.517100
H23 H 0.843100 0.426400 0.604800
H24 H 0.629000 0.454400 0.611900
H25 H 0.338100 0.469000 -0.102100
H26 H 0.838100 0.031000 1.102100
H27 H 0.846200 0.072600 0.995300
H28 H 0.659500 0.024700 1.035400
H29 H 0.129000 0.045600 0.388100
H30 H 0.612100 0.255100 0.495600
H31 H 0.490900 0.207100 0.579100
H32 H 0.699500 0.171700 0.563600
H33 H 0.343100 0.073600 0.395200
H34 H 0.208500 0.096100 0.482900
H35 H 0.094900 0.383600 0.110300
H36 H 0.250800 0.090600 0.068700
H37 H 0.744000 0.565300 0.263200
H38 H 0.093100 0.358100 0.277400
H39 H 0.256000 0.065300 0.236800
H40 H 0.906900 0.858100 0.222600
H41 H 0.800500 0.828300 0.063600
H42 H 0.749200 0.590600 0.431300
H43 H 1.009100 0.792900 0.079100
H44 H 0.905100 0.883600 0.389700
H45 H 0.887900 0.744900 -0.004400
H46 H 0.840500 0.975300 0.535400
H47 H 0.653800 0.927400 0.495300
H48 H 0.661900 0.969000 0.602100
H49 H 0.871000 0.545600 0.111900
H50 H 0.656900 0.573600 0.104800
H51 H 0.791500 0.596100 0.017100
H52 H 0.509100 0.707100 0.920900
C53 C 0.781900 0.593800 0.086700
C54 C 0.385000 0.728700 0.939300
C55 C 0.671400 0.250800 1.033900
C56 C 0.812800 0.809800 0.681900
C57 C 0.731900 0.935300 0.551800
C58 C 0.894400 0.649300 0.768000
C59 C 0.721900 0.369400 0.789100
C60 C 0.860200 0.709100 0.683100
C61 C 0.885000 0.771300 0.060700
C62 C 0.824600 0.708800 0.225000
C63 C 0.872000 0.817900 0.364500
C64 C 0.778400 0.645800 0.388200
C65 C 0.675300 0.259900 0.928270
C66 C 0.231900 0.564700 0.448200
C67 C 0.171400 0.249200 -0.033900
C68 C 0.221900 0.130600 0.210900
C69 C 0.871700 0.803600 0.265500
C70 C 0.175300 0.240100 0.071730
C71 C 0.128300 0.303600 0.234500
C72 C 0.824700 0.740100 0.428270
C73 C 0.221600 0.145800 0.111800
C74 C 0.778100 0.630600 0.289100
C75 C 0.128000 0.317900 0.135500
C76 C 0.828600 0.749200 0.533900
C77 C 0.175400 0.208800 0.275000
C78 C 0.139800 0.209100 -0.183100
C79 C 0.628300 0.196400 0.765500
C80 C 0.105600 0.149300 -0.268000
C81 C 0.187200 0.309800 -0.181900
C82 C 0.721600 0.354200 0.888200
C83 C 0.628000 0.182100 0.864500
C84 C 0.213700 0.378400 -0.260500
C85 C 0.218100 0.093800 0.413300
C86 C 0.281900 0.906200 0.913300
C87 C 0.286300 0.621600 0.239500
C88 C 0.615000 0.228700 0.560700
C89 C 0.268100 0.435300 -0.051800
C90 C 0.768100 0.064700 1.051800
C91 C 0.718100 0.406200 0.586700
C92 C 0.713700 0.121600 1.260500
C93 C 0.115000 0.271300 0.439300
C94 C 0.312800 0.690200 0.318100
C95 C 0.394400 0.850700 0.232000
C96 C 0.687200 0.190200 1.181900
C97 C 0.360200 0.790900 0.316900
C98 C 0.324600 0.791200 0.775000
C99 C 0.328600 0.750800 0.466100
C100 C 0.278100 0.869400 0.710900
C101 C 0.605600 0.350700 1.268000
C102 C 0.324700 0.759900 0.571730
C103 C 0.371700 0.696400 0.734500
C104 C 0.675400 0.291200 0.725000
C105 C 0.278400 0.854200 0.611800
C106 C 0.639800 0.290900 1.183100
C107 C 0.372000 0.682100 0.635500
C108 C 0.786300 0.878400 0.760500
N109 N 0.368600 0.828880 0.408570
N110 N 0.292200 0.664880 0.413800
N111 N 0.321500 0.806700 0.873810
N112 N 0.580300 0.396800 1.337000
N113 N 0.733200 0.069900 1.325800
N114 N 0.419700 0.896800 0.163000
N115 N 0.266800 0.569900 0.174200
N116 N 0.792200 0.835120 0.586200
N117 N 0.868600 0.671120 0.591430
N118 N 0.233200 0.430100 -0.325800
N119 N 0.080300 0.103200 -0.337000
N120 N 0.178500 0.193300 0.373810
N121 N 0.131400 0.171120 -0.091430
N122 N 0.207800 0.335120 -0.086200
N123 N 0.821500 0.693300 0.126190
N124 N 0.919700 0.603200 0.837000
N125 N 0.766800 0.930100 0.825800
N126 N 0.631400 0.328880 1.091430
N127 N 0.678500 0.306700 0.626190
N128 N 0.707800 0.164880 1.086200

#END
