./KACKEH_from_POSCAR.cif_generated_by_CrystalShift
_symmetry_cell_setting triclinic
_symmetry_space_group_name_H-M 'P 1'
loop_
_symmetry_equiv_pos_site_id
_symmetry_equiv_pos_as_xyz
1 x,y,z
_cell_length_a 9.901750
_cell_length_b 8.029850
_cell_length_c 23.368500
_cell_angle_alpha 90.000000
_cell_angle_beta 96.444800
_cell_angle_gamma 90.000000
_cell_volume 1846.277489
loop_
_atom_site_label
_atom_site_type_symbol
_atom_site_fract_x
_atom_site_fract_y
_atom_site_fract_z
H1 H 0.427900 0.848000 0.909600
H2 H 0.592300 0.868500 0.988200
H3 H 0.570300 0.722600 1.071800
H4 H 0.387800 0.545200 1.075900
H5 H 0.649000 1.087000 0.242200
H6 H 0.223400 0.519200 0.997800
H7 H 0.167300 1.049100 0.863300
H8 H 0.175200 1.215200 0.943700
H9 H 0.467200 0.307800 0.215500
H10 H -0.014900 1.242200 0.992700
H11 H 0.613000 0.504000 0.266500
H12 H -0.214100 1.105200 0.958600
H13 H 0.544200 0.579400 0.170300
H14 H 0.415500 0.670600 0.188600
H15 H -0.134000 0.422000 0.831500
H16 H 0.687800 0.776300 0.219200
H17 H 0.581000 0.871100 0.176400
H18 H -0.205900 0.586700 0.847600
H19 H 0.452400 0.937800 0.250100
H20 H -0.147800 0.462900 0.896200
H21 H -0.125800 0.835900 0.795200
H22 H 0.374200 0.664100 0.295200
H23 H -0.047600 0.562200 0.750100
H24 H 0.081000 0.628900 0.676400
H25 H 0.187800 0.723700 0.719200
H26 H 0.352200 1.037100 0.396200
H27 H 0.294100 0.913300 0.347600
H28 H 0.366000 1.078000 0.331500
H29 H -0.084500 0.829400 0.688600
H30 H 0.044200 0.920600 0.670300
H31 H 0.113000 0.996000 0.766500
H32 H 0.285900 0.394800 0.458600
H33 H -0.032800 1.192200 0.715500
H34 H 0.485100 0.257800 0.492700
H35 H 0.149000 0.413000 0.742200
H36 H 0.675200 0.284800 0.443700
H37 H 0.072100 0.348000 0.590400
H38 H 0.667300 0.450900 0.363300
H39 H -0.092300 0.368500 0.511800
H40 H -0.070300 0.222600 0.428200
H41 H 0.723400 0.980800 0.497800
H42 H 0.112200 0.045200 0.424100
H43 H 0.887800 0.954800 0.575900
H44 H 0.276600 0.019200 0.502200
H45 H 1.070300 0.777400 0.571800
H46 H 0.332700 0.549100 0.636700
H47 H 1.092300 0.631500 0.488200
H48 H 0.324800 0.715200 0.556300
H49 H 0.927900 0.652000 0.409600
H50 H 0.514900 0.742200 0.507300
H51 H 0.714100 0.605200 0.541400
H52 H 0.634000 -0.078000 0.668500
H53 H 0.705900 0.086700 0.652400
H54 H 0.851000 0.587000 0.257800
H55 H 0.647800 -0.037100 0.603800
H56 H 0.625800 0.335900 0.704800
H57 H 0.547600 0.062200 0.749900
H58 H 1.032800 -0.192200 0.284500
H59 H 0.419000 0.128900 0.823600
H60 H 0.887000 0.004000 0.233500
H61 H 0.312200 0.223700 0.780800
H62 H 0.955800 0.079400 0.329700
H63 H 1.084500 0.170600 0.311400
H64 H 0.584500 0.329400 0.811400
H65 H 0.812200 0.276300 0.280800
H66 H 0.919000 0.371100 0.323600
H67 H 0.455800 0.420600 0.829700
H68 H 1.047600 0.437800 0.249900
H69 H 0.387000 0.496000 0.733500
H70 H 0.532800 0.692200 0.784500
H71 H 1.125800 0.164100 0.204800
H72 H 0.351000 -0.087000 0.757800
H73 H 0.572100 0.152000 0.090400
H74 H 0.407700 0.131500 0.011800
H75 H 1.147800 0.537100 0.103800
H76 H 1.205900 0.413300 0.152400
H77 H 1.134000 0.578000 0.168500
H78 H 0.429700 0.277400 -0.071800
H79 H 0.612200 0.454800 -0.075900
H80 H 0.776600 0.480800 0.002200
H81 H 1.214100 -0.105200 0.041400
H82 H 0.832700 -0.049100 0.136700
H83 H 1.014900 -0.242200 0.007300
H84 H 0.824800 -0.215200 0.056300
C85 C 0.904640 -0.159400 0.069300
C86 C 0.910060 -0.059200 0.117780
C87 C 1.018390 -0.176400 0.040170
C88 C 0.692010 0.317200 0.054030
C89 C 0.703270 0.409400 0.004100
C90 C 1.137130 -0.094500 0.060500
C91 C 0.604530 0.393900 -0.042580
C92 C 1.141030 0.003700 0.109550
C93 C 0.494820 0.288700 -0.040140
C94 C 1.027440 0.027100 0.139280
C95 C 0.482610 0.200300 0.009840
C96 C 1.134000 0.490400 0.140540
C97 C 0.580680 0.212700 0.057140
C98 C 0.802920 0.269800 0.155390
C99 C 0.517390 0.799700 0.990160
C100 C 0.505180 0.711300 1.040140
C101 C 0.395470 0.606100 1.042580
C102 C 0.296730 0.590600 0.995900
C103 C 1.001240 0.401880 0.135800
C104 C 0.307990 0.682800 0.945970
C105 C 0.089940 1.059200 0.882220
C106 C 0.564400 0.618600 0.758310
C107 C 1.030760 0.133600 0.193480
C108 C 0.481930 0.463600 0.744030
C109 C 0.948230 0.300400 0.182900
C110 C 0.490270 0.356900 0.799200
C111 C 0.953640 0.401700 0.239160
C112 C 0.907830 0.303500 0.289040
C113 C 0.407830 0.196500 0.789040
C114 C 0.990270 0.143100 0.299200
C115 C 0.981930 0.036400 0.244030
C116 C 0.453640 0.098300 0.739160
C117 C 1.064400 -0.118600 0.258310
C118 C 0.448230 0.199600 0.682900
C119 C 0.530760 0.366400 0.693480
C120 C 0.435600 0.381400 0.241690
C121 C 0.501240 0.098120 0.635800
C122 C 0.302920 0.230200 0.655390
C123 C 0.634000 0.009600 0.640540
C124 C 0.095360 1.159400 0.930700
C125 C 0.518070 0.536400 0.255970
C126 C -0.018390 1.176400 0.959830
C127 C 0.527440 0.472900 0.639280
C128 C 0.641030 0.496300 0.609550
C129 C 0.637130 0.594500 0.560500
C130 C 0.509730 0.643100 0.200800
C131 C 0.518390 0.676400 0.540170
C132 C -0.137130 1.094500 0.939500
C133 C 0.404640 0.659400 0.569300
C134 C 0.919320 0.712700 0.442860
C135 C 0.410060 0.559200 0.617780
C136 C 1.017390 0.700300 0.490160
C137 C 0.192010 0.182800 0.554030
C138 C 0.203270 0.090600 0.504100
C139 C 1.005180 0.788700 0.540140
C140 C 0.104530 0.106100 0.457420
C141 C 0.895470 0.893900 0.542580
C142 C -0.005180 0.211300 0.459860
C143 C 0.796730 0.909400 0.495900
C144 C -0.017390 0.299700 0.509840
C145 C 0.807990 0.817200 0.445970
C146 C 0.080680 0.287300 0.557140
C147 C 0.589940 0.440800 0.382220
C148 C -0.141030 0.996300 0.890450
C149 C -0.027440 0.972900 0.860720
C150 C 0.592170 0.803500 0.210960
C151 C 0.546360 0.901700 0.260840
C152 C 0.595360 0.340600 0.430700
C153 C 0.551770 0.800400 0.317100
C154 C -0.134000 0.509600 0.859460
C155 C -0.064400 1.118600 0.741690
C156 C 0.481610 0.323600 0.459830
C157 C 0.018070 0.963600 0.755970
C158 C 0.362870 0.405500 0.439500
C159 C 0.009730 0.856900 0.700800
C160 C 0.358970 0.503700 0.390450
C161 C 0.472560 0.527100 0.360720
C162 C 0.092170 0.696500 0.710960
C163 C 0.366000 0.990400 0.359460
C164 C 0.697080 0.769800 0.344610
C165 C 0.046360 0.598300 0.760840
C166 C 0.498760 0.901880 0.364200
C167 C 0.051770 0.699600 0.817100
C168 C -0.030760 0.866400 0.806520
C169 C 0.469240 0.633600 0.306520
C170 C -0.001240 0.598120 0.864200
C171 C 0.197080 0.730200 0.844610
C172 C 0.419320 0.787300 0.942860
N173 N 0.202870 0.670590 0.899430
N174 N 0.702870 0.829410 0.399430
N175 N 0.297130 0.170590 0.600570
N176 N 0.582370 0.913770 0.409960
N177 N 0.417630 0.086230 0.590040
N178 N 0.917630 0.413770 0.090040
N179 N 0.797130 0.329410 0.100570
N180 N 0.082370 0.586230 0.909960
O181 O 0.872080 0.545730 0.225360
O182 O 1.167970 -0.155700 0.238660
O183 O 0.332030 0.344300 0.261340
O184 O 0.791050 0.701950 0.323130
O185 O -0.167970 1.155700 0.761340
O186 O 0.291050 0.798050 0.823130
O187 O 0.372080 -0.045730 0.725360
O188 O 0.127920 0.454270 0.774640
O189 O 0.208950 0.298050 0.676870
O190 O 0.627920 1.045730 0.274640
O191 O 0.667970 0.655700 0.738660
O192 O 0.708950 0.201950 0.176870
Cl193 Cl 1.298480 0.091900 0.134290
Cl194 Cl 0.798480 0.408100 0.634290
Cl195 Cl -0.298480 0.908100 0.865710
Cl196 Cl 0.201520 0.591900 0.365710

#END
