./KACKUU_from_POSCAR.cif_generated_by_CrystalShift
_symmetry_cell_setting triclinic
_symmetry_space_group_name_H-M 'P 1'
loop_
_symmetry_equiv_pos_site_id
_symmetry_equiv_pos_as_xyz
1 x,y,z
_cell_length_a 8.683000
_cell_length_b 9.878000
_cell_length_c 10.070000
_cell_angle_alpha 61.760000
_cell_angle_beta 68.530000
_cell_angle_gamma 61.160000
_cell_volume 655.822451
loop_
_atom_site_label
_atom_site_type_symbol
_atom_site_fract_x
_atom_site_fract_y
_atom_site_fract_z
H1 H 0.433000 0.871000 -0.130000
H2 H 0.523000 0.693000 -0.008000
H3 H -0.189000 1.210000 0.272000
H4 H -0.168000 1.441000 0.062000
H5 H 0.077000 1.392000 -0.146000
H6 H 0.264000 1.117000 -0.125000
H7 H 0.214000 0.782000 0.059000
H8 H -0.248000 1.022000 0.432000
H9 H -0.250000 0.884000 0.392000
H10 H -0.290000 0.790000 0.655000
H11 H -0.120000 0.828000 0.641000
H12 H 0.179000 0.503000 0.530000
H13 H 0.166000 0.656000 0.557000
H14 H 0.052000 0.692000 0.312000
H15 H 0.567000 0.129000 1.130000
H16 H 0.485000 0.146000 0.998000
H17 H 0.477000 0.307000 1.008000
H18 H 1.189000 -0.210000 0.728000
H19 H 1.168000 -0.441000 0.938000
H20 H 0.948000 0.308000 0.688000
H21 H 0.834000 0.344000 0.443000
H22 H 0.821000 0.497000 0.470000
H23 H 1.120000 0.172000 0.359000
H24 H 1.290000 0.210000 0.345000
H25 H 1.250000 0.116000 0.608000
H26 H 1.248000 -0.022000 0.568000
H27 H 0.786000 0.218000 0.941000
H28 H 0.736000 -0.117000 1.125000
H29 H 0.923000 -0.392000 1.146000
H30 H 0.515000 0.854000 0.002000
C31 C 0.607300 0.458600 0.733500
C32 C 0.549600 0.189900 1.020700
C33 C 1.101000 -0.192700 0.809600
C34 C 1.077100 -0.324800 0.937900
C35 C 0.898900 0.271200 0.648800
C36 C 0.891900 0.382300 0.481600
C37 C 1.171000 0.205300 0.403300
C38 C 1.185200 0.088300 0.565600
C39 C 0.101100 0.728800 0.351200
C40 C 0.108100 0.617700 0.518400
C41 C -0.171000 0.794700 0.596700
C42 C -0.185200 0.911700 0.434400
C43 C 0.012200 1.030300 0.203600
C44 C 0.150700 1.002500 0.080700
C45 C 0.270000 0.829000 0.085600
C46 C 0.288100 0.715100 0.254800
C47 C 0.171600 1.139500 -0.046400
C48 C 0.059100 1.299500 -0.056600
C49 C -0.077100 1.324800 0.062100
C50 C -0.101000 1.192700 0.190400
C51 C 0.450400 0.810100 -0.020700
C52 C 0.392700 0.541400 0.266500
C53 C 0.382400 0.763300 0.311300
C54 C 0.940900 -0.299500 1.056600
C55 C 0.828400 -0.139500 1.046400
C56 C 0.711900 0.284900 0.745200
C57 C 0.730000 0.171000 0.914400
C58 C 0.849300 -0.002500 0.919300
C59 C 0.987800 -0.030300 0.796400
C60 C 0.617600 0.236700 0.688700
N61 N -0.006600 0.898600 0.340800
N62 N 0.455500 0.804000 0.349600
N63 N 0.530100 0.591800 0.727200
N64 N 0.544500 0.196000 0.650400
N65 N 1.006600 0.101400 0.659200
N66 N 0.469900 0.408200 0.272800
O67 O -0.064700 0.629300 0.603400
O68 O 1.064700 0.370700 0.396600

#END
