./KACKOO_from_POSCAR.cif_generated_by_CrystalShift
_symmetry_cell_setting triclinic
_symmetry_space_group_name_H-M 'P 1'
loop_
_symmetry_equiv_pos_site_id
_symmetry_equiv_pos_as_xyz
1 x,y,z
_cell_length_a 8.000000
_cell_length_b 22.181000
_cell_length_c 9.338000
_cell_angle_alpha 90.000000
_cell_angle_beta 114.510000
_cell_angle_gamma 90.000000
_cell_volume 1507.694448
loop_
_atom_site_label
_atom_site_type_symbol
_atom_site_fract_x
_atom_site_fract_y
_atom_site_fract_z
H1 H 0.863000 0.216000 0.742000
H2 H 0.728000 0.250000 0.595000
H3 H 0.530000 0.409000 1.049000
H4 H 0.611000 0.346000 1.173000
H5 H 0.432000 0.351000 1.010000
H6 H 0.697000 0.308000 1.006000
H7 H 0.936000 0.304000 0.748000
H8 H 0.884000 0.291000 0.888000
H9 H 0.571000 0.404000 0.557000
H10 H 0.574000 0.336000 0.526000
H11 H 0.766000 0.473000 0.547000
H12 H 0.943000 0.441000 0.504000
H13 H 1.071000 0.401000 0.759000
H14 H 1.006000 0.472000 0.793000
H15 H 1.184000 0.452000 1.020000
H16 H 1.344000 0.447000 1.279000
H17 H 1.194000 0.405000 1.428000
H18 H 0.898000 0.358000 1.289000
H19 H 0.637000 0.716000 0.758000
H20 H 0.825000 0.737000 0.766000
H21 H 0.772000 0.750000 0.905000
H22 H 0.398000 0.142000 0.789000
H23 H 0.694000 0.095000 0.928000
H24 H 0.844000 0.053000 0.779000
H25 H 0.684000 0.048000 0.520000
H26 H 0.506000 0.028000 0.293000
H27 H 0.571000 0.099000 0.259000
H28 H 0.443000 0.059000 0.004000
H29 H 0.266000 0.027000 0.047000
H30 H 0.074000 0.164000 0.026000
H31 H 0.071000 0.096000 0.057000
H32 H 0.384000 0.209000 0.388000
H33 H 0.436000 0.196000 0.248000
H34 H 0.197000 0.192000 0.506000
H35 H -0.068000 0.149000 0.510000
H36 H 0.111000 0.154000 0.673000
H37 H 0.030000 0.091000 0.549000
H38 H 0.228000 0.250000 0.095000
H39 H 0.175000 0.263000 0.234000
H40 H 0.363000 0.284000 0.242000
H41 H 0.970000 0.909000 0.451000
H42 H 0.889000 0.846000 0.327000
H43 H 1.068000 0.851000 0.490000
H44 H 0.803000 0.808000 0.494000
H45 H 0.564000 0.804000 0.752000
H46 H 0.616000 0.791000 0.612000
H47 H 0.929000 0.904000 0.943000
H48 H 0.926000 0.836000 0.974000
H49 H 0.734000 0.973000 0.953000
H50 H 0.557000 0.941000 0.996000
H51 H 0.429000 0.901000 0.741000
H52 H 0.494000 0.972000 0.707000
H53 H 0.316000 0.952000 0.480000
H54 H 0.156000 0.947000 0.221000
H55 H 0.306000 0.905000 0.072000
H56 H 0.602000 0.858000 0.211000
H57 H 0.137000 0.784000 0.258000
H58 H 0.325000 0.763000 0.266000
H59 H 0.272000 0.750000 0.405000
H60 H 0.470000 0.591000 -0.049000
H61 H 0.389000 0.654000 -0.173000
H62 H 0.102000 0.642000 -0.289000
H63 H -0.194000 0.595000 -0.428000
H64 H -0.344000 0.553000 -0.279000
H65 H -0.184000 0.548000 -0.020000
H66 H -0.006000 0.528000 0.207000
H67 H -0.071000 0.599000 0.241000
H68 H 0.057000 0.559000 0.496000
H69 H 0.234000 0.527000 0.453000
H70 H 0.426000 0.664000 0.474000
H71 H 0.429000 0.596000 0.443000
H72 H 0.116000 0.709000 0.112000
H73 H 0.064000 0.696000 0.252000
H74 H 0.303000 0.692000 -0.006000
H75 H 0.568000 0.649000 -0.010000
H76 H 0.675000 0.237000 0.734000
C77 C 0.443400 0.633900 -0.074300
C78 C 0.318700 0.650900 0.004500
C79 C 0.565300 0.678400 0.261600
C80 C 0.486900 0.576300 0.209400
C81 C 0.453100 0.095000 0.482600
C82 C 0.368900 0.121500 0.572100
C83 C 0.460800 0.123000 0.734500
C84 C 0.632000 0.098300 0.810600
C85 C 0.546900 0.905000 0.517400
C86 C 0.631100 0.878500 0.427900
C87 C 0.539200 0.877000 0.265500
C88 C 0.368000 0.901700 0.189400
C89 C 0.283700 0.928800 0.273000
C90 C 0.372500 0.929700 0.434900
C91 C 0.528000 0.929100 0.765200
C92 C 0.644400 0.935600 0.937500
C93 C 0.860900 0.870200 0.932700
C94 C 0.763400 0.858000 0.755400
C95 C 0.663200 0.797400 0.722300
C96 C 0.907600 0.862800 0.683500
C97 C 0.986900 0.923700 0.709400
C98 C 1.065300 0.821600 0.761600
C99 C 0.818700 0.849100 0.504500
C100 C 0.943400 0.866100 0.425700
C101 C 0.727000 0.746800 0.794000
C102 C 0.407600 0.637200 0.183500
C103 C 0.163200 0.702600 0.222300
C104 C 0.263400 0.642000 0.255400
C105 C 0.360900 0.629800 0.432700
C106 C 0.144400 0.564400 0.437500
C107 C 0.028000 0.570900 0.265200
C108 C -0.127500 0.570300 -0.065100
C109 C -0.216300 0.571200 -0.227000
C110 C -0.132000 0.598300 -0.310600
C111 C 0.039200 0.623000 -0.234500
C112 C 0.131100 0.621500 -0.072100
C113 C 0.046900 0.595000 0.017400
C114 C 0.716300 0.071200 0.727000
C115 C 0.627500 0.070300 0.565100
C116 C 0.472000 0.070900 0.234800
C117 C 0.355600 0.064400 0.062500
C118 C 0.273000 0.253200 0.206000
C119 C 0.056600 0.133900 0.574300
C120 C 0.181300 0.150900 0.495500
C121 C 0.139100 0.129800 0.067300
C122 C 0.236600 0.142000 0.244600
C123 C 0.336800 0.202600 0.277700
C124 C 0.092400 0.137200 0.316500
C125 C 0.953100 0.405000 0.982600
C126 C 0.868900 0.378500 1.072100
C127 C 0.960800 0.377000 1.234500
C128 C 1.132000 0.401700 1.310600
C129 C 1.216300 0.428800 1.227000
C130 C 1.127500 0.429700 1.065100
C131 C 0.972000 0.429100 0.734800
C132 C 0.855600 0.435600 0.562500
C133 C 0.639100 0.370200 0.567300
C134 C 0.736600 0.358000 0.744600
C135 C 0.836800 0.297400 0.777700
C136 C 0.592400 0.362800 0.816500
C137 C 0.513100 0.423700 0.790600
C138 C 0.434700 0.321600 0.738400
C139 C 0.681300 0.349100 0.995500
C140 C 0.556600 0.366100 1.074300
C141 C 0.773000 0.246800 0.706000
C142 C -0.065300 0.178400 0.238400
C143 C 0.013100 0.076300 0.290600
C144 C 0.227000 0.753200 0.294000
N145 N 0.444600 0.469800 0.770200
N146 N 0.863800 0.407200 0.818100
N147 N 0.363800 0.092800 0.318100
N148 N -0.055400 0.030200 0.270200
N149 N 0.136200 0.592800 0.181900
N150 N 0.555400 0.530200 0.229800
N151 N 0.687500 0.708700 0.321800
N152 N 1.187500 0.791300 0.821800
N153 N 1.055400 0.969800 0.729800
N154 N 0.636200 0.907200 0.681900
N155 N -0.187500 0.208700 0.178200
N156 N 0.312500 0.291300 0.678200
O157 O 0.758000 0.381300 0.496500
O158 O 0.242000 0.618700 0.503500
O159 O 0.742000 0.881300 1.003500
O160 O 0.258000 0.118700 -0.003500

#END
