
#######################################################################
#
#                 Cambridge Crystallographic Data Centre
#                                CCDC 
#
#######################################################################
#
# If this CIF has been generated from an entry in the Cambridge 
# Structural Database, then it will include bibliographic, chemical, 
# crystal, experimental, refinement or atomic coordinate data resulting 
# from the CCDC's data processing and validation procedures.
#
#######################################################################

data_KACLEH
_symmetry_cell_setting           orthorhombic
_symmetry_space_group_name_H-M   'P b c a'
_symmetry_Int_Tables_number      61
_space_group_name_Hall           '-P 2ac 2ab'
loop_
_symmetry_equiv_pos_site_id
_symmetry_equiv_pos_as_xyz
1 x,y,z
2 1/2-x,-y,1/2+z
3 1/2+x,1/2-y,-z
4 -x,1/2+y,1/2-z
5 -x,-y,-z
6 1/2+x,y,1/2-z
7 1/2-x,1/2+y,z
8 x,1/2-y,1/2+z
_cell_length_a                   9.1988(5)
_cell_length_b                   13.6812(10)
_cell_length_c                   14.3841(12)
_cell_angle_alpha                90
_cell_angle_beta                 90
_cell_angle_gamma                90
_cell_volume                     1810.25
loop_
_atom_site_label
_atom_site_type_symbol
_atom_site_fract_x
_atom_site_fract_y
_atom_site_fract_z
N1 N 0.9949(2) 0.35390(16) 0.90010(15)
N2 N 0.8412(2) 0.38354(16) 1.01767(15)
C1 C 1.0704(3) 0.36355(19) 0.98111(18)
N3 N 0.7394(2) 0.35537(18) 0.86681(16)
C2 C 1.0106(3) 0.3949(2) 1.15013(19)
C3 C 0.8569(3) 0.36569(18) 0.92489(18)
N4 N 1.0385(3) 0.4032(2) 1.22725(17)
C4 C 1.2252(3) 0.3551(2) 0.98453(19)
N5 N 1.3490(3) 0.34852(19) 0.98696(19)
C5 C 0.9796(3) 0.38226(18) 1.05426(17)
C6 C 0.7073(3) 0.3869(2) 1.0720(2)
H1 H 0.7304 0.4013 1.1357
H2 H 0.6586 0.3249 1.0686
H3 H 0.6448 0.4370 1.0478
C7 C 0.6439(3) 0.4408(2) 0.8566(2)
H4 H 0.5661 0.4255 0.8146
H5 H 0.6987 0.4950 0.8326
H6 H 0.6044 0.4579 0.9162
C8 C 0.7747(4) 0.3108(3) 0.7775(2)
H7 H 0.6882 0.3056 0.7404
H8 H 0.8148 0.2469 0.7874
H9 H 0.8446 0.3508 0.7457
N1 N 0.5051(2) 0.64610(16) 0.40010(15)
N2 N 0.6588(2) 0.61646(16) 0.51767(15)
C1 C 0.4296(3) 0.63645(19) 0.48111(18)
N3 N 0.7606(2) 0.64463(18) 0.36681(16)
C2 C 0.4894(3) 0.6051(2) 0.65013(19)
C3 C 0.6431(3) 0.63431(18) 0.42489(18)
N4 N 0.4615(3) 0.5968(2) 0.72725(17)
C4 C 0.2748(3) 0.6449(2) 0.48453(19)
N5 N 0.1510(3) 0.65148(19) 0.48696(19)
C5 C 0.5204(3) 0.61774(18) 0.55426(17)
C6 C 0.7927(3) 0.6131(2) 0.5720(2)
H1 H 0.7696 0.5987 0.6357
H2 H 0.8414 0.6751 0.5686
H3 H 0.8552 0.5630 0.5478
C7 C 0.8561(3) 0.5592(2) 0.3566(2)
H4 H 0.9339 0.5745 0.3146
H5 H 0.8013 0.5050 0.3326
H6 H 0.8956 0.5421 0.4162
C8 C 0.7253(4) 0.6892(3) 0.2775(2)
H7 H 0.8118 0.6944 0.2404
H8 H 0.6852 0.7531 0.2874
H9 H 0.6554 0.6492 0.2457
N1 N 0.4949(2) 0.14610(16) 0.09990(15)
N2 N 0.3412(2) 0.11646(16) -0.01767(15)
C1 C 0.5704(3) 0.13645(19) 0.01889(18)
N3 N 0.2394(2) 0.14463(18) 0.13319(16)
C2 C 0.5106(3) 0.1051(2) -0.15013(19)
C3 C 0.3569(3) 0.13431(18) 0.07511(18)
N4 N 0.5385(3) 0.0968(2) -0.22725(17)
C4 C 0.7252(3) 0.1449(2) 0.01547(19)
N5 N 0.8490(3) 0.15148(19) 0.01304(19)
C5 C 0.4796(3) 0.11774(18) -0.05426(17)
C6 C 0.2073(3) 0.1131(2) -0.0720(2)
H1 H 0.2304 0.0987 -0.1357
H2 H 0.1586 0.1751 -0.0686
H3 H 0.1448 0.0630 -0.0478
C7 C 0.1439(3) 0.0592(2) 0.1434(2)
H4 H 0.0661 0.0745 0.1854
H5 H 0.1987 0.0050 0.1674
H6 H 0.1044 0.0421 0.0838
C8 C 0.2747(4) 0.1892(3) 0.2225(2)
H7 H 0.1882 0.1944 0.2596
H8 H 0.3148 0.2531 0.2126
H9 H 0.3446 0.1492 0.2543
N1 N 0.0051(2) 0.85390(16) 0.59990(15)
N2 N 0.1588(2) 0.88354(16) 0.48233(15)
C1 C -0.0704(3) 0.86355(19) 0.51889(18)
N3 N 0.2606(2) 0.85537(18) 0.63319(16)
C2 C -0.0106(3) 0.8949(2) 0.34987(19)
C3 C 0.1431(3) 0.86569(18) 0.57511(18)
N4 N -0.0385(3) 0.9032(2) 0.27275(17)
C4 C -0.2252(3) 0.8551(2) 0.51547(19)
N5 N -0.3490(3) 0.84852(19) 0.51304(19)
C5 C 0.0204(3) 0.88226(18) 0.44574(17)
C6 C 0.2927(3) 0.8869(2) 0.4280(2)
H1 H 0.2696 0.9013 0.3643
H2 H 0.3414 0.8249 0.4314
H3 H 0.3552 0.9370 0.4522
C7 C 0.3561(3) 0.9408(2) 0.6434(2)
H4 H 0.4339 0.9255 0.6854
H5 H 0.3013 0.9950 0.6674
H6 H 0.3956 0.9579 0.5838
C8 C 0.2253(4) 0.8108(3) 0.7225(2)
H7 H 0.3118 0.8056 0.7596
H8 H 0.1852 0.7469 0.7126
H9 H 0.1554 0.8508 0.7543
N1 N 0.0051(2) 0.64610(16) 0.09990(15)
N2 N 0.1588(2) 0.61646(16) -0.01767(15)
C1 C -0.0704(3) 0.63645(19) 0.01889(18)
N3 N 0.2606(2) 0.64463(18) 0.13319(16)
C2 C -0.0106(3) 0.6051(2) -0.15013(19)
C3 C 0.1431(3) 0.63431(18) 0.07511(18)
N4 N -0.0385(3) 0.5968(2) -0.22725(17)
C4 C -0.2252(3) 0.6449(2) 0.01547(19)
N5 N -0.3490(3) 0.65148(19) 0.01304(19)
C5 C 0.0204(3) 0.61774(18) -0.05426(17)
C6 C 0.2927(3) 0.6131(2) -0.0720(2)
H1 H 0.2696 0.5987 -0.1357
H2 H 0.3414 0.6751 -0.0686
H3 H 0.3552 0.5630 -0.0478
C7 C 0.3561(3) 0.5592(2) 0.1434(2)
H4 H 0.4339 0.5745 0.1854
H5 H 0.3013 0.5050 0.1674
H6 H 0.3956 0.5421 0.0838
C8 C 0.2253(4) 0.6892(3) 0.2225(2)
H7 H 0.3118 0.6944 0.2596
H8 H 0.1852 0.7531 0.2126
H9 H 0.1554 0.6492 0.2543
N1 N 0.4949(2) 0.35390(16) 0.59990(15)
N2 N 0.3412(2) 0.38354(16) 0.48233(15)
C1 C 0.5704(3) 0.36355(19) 0.51889(18)
N3 N 0.2394(2) 0.35537(18) 0.63319(16)
C2 C 0.5106(3) 0.3949(2) 0.34987(19)
C3 C 0.3569(3) 0.36569(18) 0.57511(18)
N4 N 0.5385(3) 0.4032(2) 0.27275(17)
C4 C 0.7252(3) 0.3551(2) 0.51547(19)
N5 N 0.8490(3) 0.34852(19) 0.51304(19)
C5 C 0.4796(3) 0.38226(18) 0.44574(17)
C6 C 0.2073(3) 0.3869(2) 0.4280(2)
H1 H 0.2304 0.4013 0.3643
H2 H 0.1586 0.3249 0.4314
H3 H 0.1448 0.4370 0.4522
C7 C 0.1439(3) 0.4408(2) 0.6434(2)
H4 H 0.0661 0.4255 0.6854
H5 H 0.1987 0.4950 0.6674
H6 H 0.1044 0.4579 0.5838
C8 C 0.2747(4) 0.3108(3) 0.7225(2)
H7 H 0.1882 0.3056 0.7596
H8 H 0.3148 0.2469 0.7126
H9 H 0.3446 0.3508 0.7543
N1 N 0.5051(2) 0.85390(16) 0.90010(15)
N2 N 0.6588(2) 0.88354(16) 1.01767(15)
C1 C 0.4296(3) 0.86355(19) 0.98111(18)
N3 N 0.7606(2) 0.85537(18) 0.86681(16)
C2 C 0.4894(3) 0.8949(2) 1.15013(19)
C3 C 0.6431(3) 0.86569(18) 0.92489(18)
N4 N 0.4615(3) 0.9032(2) 1.22725(17)
C4 C 0.2748(3) 0.8551(2) 0.98453(19)
N5 N 0.1510(3) 0.84852(19) 0.98696(19)
C5 C 0.5204(3) 0.88226(18) 1.05426(17)
C6 C 0.7927(3) 0.8869(2) 1.0720(2)
H1 H 0.7696 0.9013 1.1357
H2 H 0.8414 0.8249 1.0686
H3 H 0.8552 0.9370 1.0478
C7 C 0.8561(3) 0.9408(2) 0.8566(2)
H4 H 0.9339 0.9255 0.8146
H5 H 0.8013 0.9950 0.8326
H6 H 0.8956 0.9579 0.9162
C8 C 0.7253(4) 0.8108(3) 0.7775(2)
H7 H 0.8118 0.8056 0.7404
H8 H 0.6852 0.7469 0.7874
H9 H 0.6554 0.8508 0.7457
N1 N 0.9949(2) 0.14610(16) 0.40010(15)
N2 N 0.8412(2) 0.11646(16) 0.51767(15)
C1 C 1.0704(3) 0.13645(19) 0.48111(18)
N3 N 0.7394(2) 0.14463(18) 0.36681(16)
C2 C 1.0106(3) 0.1051(2) 0.65013(19)
C3 C 0.8569(3) 0.13431(18) 0.42489(18)
N4 N 1.0385(3) 0.0968(2) 0.72725(17)
C4 C 1.2252(3) 0.1449(2) 0.48453(19)
N5 N 1.3490(3) 0.15148(19) 0.48696(19)
C5 C 0.9796(3) 0.11774(18) 0.55426(17)
C6 C 0.7073(3) 0.1131(2) 0.5720(2)
H1 H 0.7304 0.0987 0.6357
H2 H 0.6586 0.1751 0.5686
H3 H 0.6448 0.0630 0.5478
C7 C 0.6439(3) 0.0592(2) 0.3566(2)
H4 H 0.5661 0.0745 0.3146
H5 H 0.6987 0.0050 0.3326
H6 H 0.6044 0.0421 0.4162
C8 C 0.7747(4) 0.1892(3) 0.2775(2)
H7 H 0.6882 0.1944 0.2404
H8 H 0.8148 0.2531 0.2874
H9 H 0.8446 0.1492 0.2457

#END
