
#######################################################################
#
#                 Cambridge Crystallographic Data Centre
#                                CCDC 
#
#######################################################################
#
# If this CIF has been generated from an entry in the Cambridge 
# Structural Database, then it will include bibliographic, chemical, 
# crystal, experimental, refinement or atomic coordinate data resulting 
# from the CCDC's data processing and validation procedures.
#
#######################################################################

data_KACLOR
_symmetry_cell_setting           triclinic
_symmetry_space_group_name_H-M   'P -1'
_symmetry_Int_Tables_number      2
_space_group_name_Hall           '-P 1'
loop_
_symmetry_equiv_pos_site_id
_symmetry_equiv_pos_as_xyz
1 x,y,z
2 -x,-y,-z
_cell_length_a                   8.5457(16)
_cell_length_b                   11.223(2)
_cell_length_c                   13.325(3)
_cell_angle_alpha                92.781(4)
_cell_angle_beta                 103.496(4)
_cell_angle_gamma                92.021(4)
_cell_volume                     1239.8
loop_
_atom_site_label
_atom_site_type_symbol
_atom_site_fract_x
_atom_site_fract_y
_atom_site_fract_z
F1 F 0.2364(2) 0.06256(15) 0.73951(12)
F2 F 0.3224(2) 0.15985(17) 0.88144(12)
F3 F 0.4613(2) 0.0239(2) 0.8350(2)
N1 N 0.6054(2) 0.23365(15) 0.79980(13)
O1 O 0.70266(18) 0.44053(15) 0.62081(13)
O2 O 0.40102(18) 0.37581(14) 0.52223(11)
C1 C 0.6895(2) 0.31267(17) 0.75782(16)
C2 C 0.6182(2) 0.36078(18) 0.66394(16)
C3 C 0.4598(2) 0.32665(18) 0.61331(16)
C4 C 0.3749(2) 0.24514(18) 0.65717(16)
H1 H 0.2689 0.2207 0.6259
C5 C 0.4545(2) 0.20157(18) 0.74943(16)
C6 C 0.8636(2) 0.34666(19) 0.81592(16)
C7 C 0.9095(3) 0.2805(2) 0.91581(18)
H2 H 1.0198 0.3009 0.9498
H3 H 0.8962 0.1959 0.8995
H4 H 0.8411 0.3032 0.9607
C8 C 0.8840(3) 0.4815(2) 0.84523(18)
H5 H 0.8538 0.5250 0.7839
H6 H 0.9944 0.5019 0.8789
H7 H 0.8164 0.5019 0.8912
C9 C 0.9782(3) 0.3122(2) 0.74697(19)
H8 H 0.9515 0.3536 0.6843
H9 H 0.9673 0.2276 0.7306
H10 H 1.0872 0.3338 0.7830
C10 C 0.3712(3) 0.1123(2) 0.80203(19)
H11 H 0.296(4) 0.370(3) 0.501(3)
H12 H 0.647(3) 0.459(3) 0.567(2)
F1 F 0.7636(2) 0.93744(15) 0.26049(12)
F2 F 0.6776(2) 0.84015(17) 0.11856(12)
F3 F 0.5387(2) 0.9761(2) 0.1650(2)
N1 N 0.3946(2) 0.76635(15) 0.20020(13)
O1 O 0.29734(18) 0.55947(15) 0.37919(13)
O2 O 0.59898(18) 0.62419(14) 0.47777(11)
C1 C 0.3105(2) 0.68733(17) 0.24218(16)
C2 C 0.3818(2) 0.63922(18) 0.33606(16)
C3 C 0.5402(2) 0.67335(18) 0.38669(16)
C4 C 0.6251(2) 0.75486(18) 0.34283(16)
H1 H 0.7311 0.7793 0.3741
C5 C 0.5455(2) 0.79843(18) 0.25057(16)
C6 C 0.1364(2) 0.65334(19) 0.18408(16)
C7 C 0.0905(3) 0.7195(2) 0.08419(18)
H2 H -0.0198 0.6991 0.0502
H3 H 0.1038 0.8041 0.1005
H4 H 0.1589 0.6968 0.0393
C8 C 0.1160(3) 0.5185(2) 0.15477(18)
H5 H 0.1462 0.4750 0.2161
H6 H 0.0056 0.4981 0.1211
H7 H 0.1836 0.4981 0.1088
C9 C 0.0218(3) 0.6878(2) 0.25303(19)
H8 H 0.0485 0.6464 0.3157
H9 H 0.0327 0.7724 0.2694
H10 H -0.0872 0.6662 0.2170
C10 C 0.6288(3) 0.8877(2) 0.19797(19)
H11 H 0.704(4) 0.630(3) 0.499(3)
H12 H 0.353(3) 0.541(3) 0.433(2)
F4 F 1.1438(3) 0.02397(17) 0.22000(13)
F5 F 1.15426(19) 0.15103(15) 0.10828(13)
F6 F 0.94136(18) 0.04330(14) 0.09388(12)
N2 N 0.8483(2) 0.23030(15) 0.18723(14)
O3 O 0.80098(19) 0.45525(14) 0.37624(13)
O4 O 1.09446(16) 0.37998(13) 0.46286(11)
C11 C 0.7766(2) 0.31667(17) 0.23413(15)
C12 C 0.8646(2) 0.36881(18) 0.32660(15)
C13 C 1.0226(2) 0.33182(17) 0.37450(15)
C14 C 1.0875(2) 0.24309(18) 0.31929(16)
H13 H 1.1908 0.2180 0.3457
C15 C 0.9981(2) 0.19468(17) 0.22745(16)
C16 C 0.6052(2) 0.34780(18) 0.18206(15)
C17 C 0.4961(3) 0.3264(2) 0.25678(18)
H14 H 0.4970 0.2439 0.2729
H15 H 0.3881 0.3461 0.2250
H16 H 0.5351 0.3757 0.3192
C18 C 0.6064(3) 0.47958(19) 0.15523(18)
H17 H 0.6504 0.5291 0.2169
H18 H 0.4983 0.5011 0.1259
H19 H 0.6713 0.4908 0.1062
C19 C 0.5372(3) 0.2708(2) 0.08227(17)
H20 H 0.6068 0.2800 0.0358
H21 H 0.4318 0.2957 0.0503
H22 H 0.5304 0.1886 0.0981
C20 C 1.0610(3) 0.1020(2) 0.16362(17)
H23 H 0.860(4) 0.474(3) 0.428(3)
H24 H 0.798(3) 0.194(2) 0.129(2)
F4 F -0.1438(3) 0.97603(17) 0.78000(13)
F5 F -0.15426(19) 0.84897(15) 0.89172(13)
F6 F 0.05864(18) 0.95670(14) 0.90612(12)
N2 N 0.1517(2) 0.76970(15) 0.81277(14)
O3 O 0.19902(19) 0.54475(14) 0.62376(13)
O4 O -0.09446(16) 0.62002(13) 0.53714(11)
C11 C 0.2234(2) 0.68333(17) 0.76587(15)
C12 C 0.1354(2) 0.63119(18) 0.67340(15)
C13 C -0.0226(2) 0.66818(17) 0.62550(15)
C14 C -0.0875(2) 0.75691(18) 0.68071(16)
H13 H -0.1908 0.7820 0.6543
C15 C 0.0019(2) 0.80532(17) 0.77255(16)
C16 C 0.3948(2) 0.65220(18) 0.81794(15)
C17 C 0.5039(3) 0.6736(2) 0.74322(18)
H14 H 0.5030 0.7561 0.7271
H15 H 0.6119 0.6539 0.7750
H16 H 0.4649 0.6243 0.6808
C18 C 0.3936(3) 0.52042(19) 0.84477(18)
H17 H 0.3496 0.4709 0.7831
H18 H 0.5017 0.4989 0.8741
H19 H 0.3287 0.5092 0.8938
C19 C 0.4628(3) 0.7292(2) 0.91773(17)
H20 H 0.3932 0.7200 0.9642
H21 H 0.5682 0.7043 0.9497
H22 H 0.4696 0.8114 0.9019
C20 C -0.0610(3) 0.8980(2) 0.83638(17)
H23 H 0.140(4) 0.526(3) 0.572(3)
H24 H 0.202(3) 0.806(2) 0.871(2)
C21 C 0.8228(6) 0.1384(4) 0.4882(3)
H25 H 0.8090 0.1170 0.4159
H26 H 0.9342 0.1343 0.5228
H27 H 0.7893 0.2183 0.4967
C22 C 0.7232(5) 0.0542(3) 0.5335(3)
H28 H 0.7304 0.0808 0.6048
H29 H 0.7680 -0.0241 0.5336
C23 C 0.5491(4) 0.0429(3) 0.4772(2)
H30 H 0.5038 0.1209 0.4779
H31 H 0.5417 0.0169 0.4057
C21A C 0.1772(6) -0.1384(4) 0.5118(3)
H25A H 0.1910 -0.1170 0.5841
H26A H 0.0658 -0.1343 0.4772
H27A H 0.2107 -0.2183 0.5033
C22A C 0.2768(5) -0.0542(3) 0.4665(3)
H28A H 0.2696 -0.0808 0.3952
H29A H 0.2320 0.0241 0.4664
C23A C 0.4509(4) -0.0429(3) 0.5228(2)
H30A H 0.4962 -0.1209 0.5221
H31A H 0.4583 -0.0169 0.5943
C21 C 0.8228(6) 1.1384(4) 0.4882(3)
H25 H 0.8090 1.1170 0.4159
H26 H 0.9342 1.1343 0.5228
H27 H 0.7893 1.2183 0.4967
C22 C 0.7232(5) 1.0542(3) 0.5335(3)
H28 H 0.7304 1.0808 0.6048
H29 H 0.7680 0.9759 0.5336
C23 C 0.5491(4) 1.0429(3) 0.4772(2)
H30 H 0.5038 1.1209 0.4779
H31 H 0.5417 1.0169 0.4057
C21A C 0.1772(6) 0.8616(4) 0.5118(3)
H25A H 0.1910 0.8830 0.5841
H26A H 0.0658 0.8657 0.4772
H27A H 0.2107 0.7817 0.5033
C22A C 0.2768(5) 0.9458(3) 0.4665(3)
H28A H 0.2696 0.9192 0.3952
H29A H 0.2320 1.0241 0.4664
C23A C 0.4509(4) 0.9571(3) 0.5228(2)
H30A H 0.4962 0.8791 0.5221
H31A H 0.4583 0.9831 0.5943

#END
