
#######################################################################
#
#                 Cambridge Crystallographic Data Centre
#                                CCDC 
#
#######################################################################
#
# If this CIF has been generated from an entry in the Cambridge 
# Structural Database, then it will include bibliographic, chemical, 
# crystal, experimental, refinement or atomic coordinate data resulting 
# from the CCDC's data processing and validation procedures.
#
#######################################################################

data_KACMIK
_symmetry_cell_setting           triclinic
_symmetry_space_group_name_H-M   'P -1'
_symmetry_Int_Tables_number      2
_space_group_name_Hall           '-P 1'
loop_
_symmetry_equiv_pos_site_id
_symmetry_equiv_pos_as_xyz
1 x,y,z
2 -x,-y,-z
_cell_length_a                   15.031(1)
_cell_length_b                   8.190(2)
_cell_length_c                   6.938(1)
_cell_angle_alpha                79.86(1)
_cell_angle_beta                 78.55(1)
_cell_angle_gamma                94.82(1)
_cell_volume                     817.732
loop_
_atom_site_label
_atom_site_type_symbol
_atom_site_fract_x
_atom_site_fract_y
_atom_site_fract_z
O1 O 0.90855(9) 0.8707(2) 0.1453(2)
N1 N 0.77929(9) 0.4570(2) 0.2339(2)
N2 N 0.4526(1) 0.3360(2) 0.3860(3)
N3 N 0.6612(1) 0.0438(2) 0.2150(3)
C1 C 0.8390(1) 0.6093(2) 0.1146(3)
C2 C 0.8197(2) 0.6554(2) -0.0928(4)
C3 C 0.7200(2) 0.6698(3) -0.0871(4)
C4 C 0.6640(1) 0.5087(3) 0.0338(4)
C5 C 0.6821(1) 0.4696(2) 0.2433(3)
C6 C 0.6251(1) 0.3053(2) 0.3709(3)
C7 C 0.6427(1) 0.2752(2) 0.5861(3)
C8 C 0.7443(1) 0.2758(2) 0.5697(3)
C9 C 0.7774(2) 0.1819(2) 0.7236(3)
C10 C 0.8690(2) 0.1863(3) 0.7213(4)
C11 C 0.9301(1) 0.2830(2) 0.5615(4)
C12 C 0.9003(1) 0.3730(2) 0.4051(4)
C13 C 0.8072(1) 0.3715(2) 0.4038(3)
C14 C 0.8331(1) 0.7491(2) 0.2326(3)
C15 C 0.9097(2) 1.0067(2) 0.2459(4)
C16 C 0.5275(1) 0.3214(2) 0.3776(3)
C17 C 0.6470(1) 0.1592(2) 0.2796(3)
C18 C 0.5841(2) 0.1204(3) 0.7206(4)
H1 H 0.901(1) 0.586(2) 0.097(3)
H2 H 0.838(1) 0.568(3) -0.180(3)
H3 H 0.858(1) 0.756(2) -0.157(3)
H4 H 0.710(1) 0.691(3) -0.215(3)
H5 H 0.699(1) 0.767(2) -0.024(3)
H6 H 0.681(1) 0.415(2) -0.036(3)
H7 H 0.598(1) 0.509(2) 0.049(3)
H8 H 0.662(1) 0.556(2) 0.318(3)
H9 H 0.622(1) 0.372(2) 0.638(3)
H10 H 0.734(1) 0.122(2) 0.830(3)
H11 H 0.893(2) 0.123(3) 0.836(3)
H12 H 0.996(1) 0.289(2) 0.554(3)
H13 H 0.943(1) 0.434(2) 0.293(3)
H14 H 0.840(1) 0.712(2) 0.376(3)
H15 H 0.777(1) 0.795(2) 0.238(3)
H16 H 0.969(2) 1.078(3) 0.173(4)
H17 H 0.854(2) 1.061(3) 0.246(4)
H18 H 0.906(2) 0.961(3) 0.396(4)
H19 H 0.587(2) 0.117(3) 0.864(4)
H20 H 0.524(1) 0.124(2) 0.713(3)
H21 H 0.610(2) 0.020(3) 0.667(4)
O1 O 0.09145(9) 0.1293(2) 0.8547(2)
N1 N 0.22071(9) 0.5430(2) 0.7661(2)
N2 N 0.5474(1) 0.6640(2) 0.6140(3)
N3 N 0.3388(1) 0.9562(2) 0.7850(3)
C1 C 0.1610(1) 0.3907(2) 0.8854(3)
C2 C 0.1803(2) 0.3446(2) 1.0928(4)
C3 C 0.2800(2) 0.3302(3) 1.0871(4)
C4 C 0.3360(1) 0.4913(3) 0.9662(4)
C5 C 0.3179(1) 0.5304(2) 0.7567(3)
C6 C 0.3749(1) 0.6947(2) 0.6291(3)
C7 C 0.3573(1) 0.7248(2) 0.4139(3)
C8 C 0.2557(1) 0.7242(2) 0.4303(3)
C9 C 0.2226(2) 0.8181(2) 0.2764(3)
C10 C 0.1310(2) 0.8137(3) 0.2787(4)
C11 C 0.0699(1) 0.7170(2) 0.4385(4)
C12 C 0.0997(1) 0.6270(2) 0.5949(4)
C13 C 0.1928(1) 0.6285(2) 0.5962(3)
C14 C 0.1669(1) 0.2509(2) 0.7674(3)
C15 C 0.0903(2) -0.0067(2) 0.7541(4)
C16 C 0.4725(1) 0.6786(2) 0.6224(3)
C17 C 0.3530(1) 0.8408(2) 0.7204(3)
C18 C 0.4159(2) 0.8796(3) 0.2794(4)
H1 H 0.099(1) 0.414(2) 0.903(3)
H2 H 0.162(1) 0.432(3) 1.180(3)
H3 H 0.142(1) 0.244(2) 1.157(3)
H4 H 0.290(1) 0.309(3) 1.215(3)
H5 H 0.301(1) 0.233(2) 1.024(3)
H6 H 0.319(1) 0.585(2) 1.036(3)
H7 H 0.402(1) 0.491(2) 0.951(3)
H8 H 0.338(1) 0.444(2) 0.682(3)
H9 H 0.378(1) 0.628(2) 0.362(3)
H10 H 0.266(1) 0.878(2) 0.170(3)
H11 H 0.107(2) 0.877(3) 0.164(3)
H12 H 0.004(1) 0.711(2) 0.446(3)
H13 H 0.057(1) 0.566(2) 0.707(3)
H14 H 0.160(1) 0.288(2) 0.624(3)
H15 H 0.223(1) 0.205(2) 0.762(3)
H16 H 0.031(2) -0.078(3) 0.827(4)
H17 H 0.146(2) -0.061(3) 0.754(4)
H18 H 0.094(2) 0.039(3) 0.604(4)
H19 H 0.413(2) 0.883(3) 0.136(4)
H20 H 0.476(1) 0.876(2) 0.287(3)
H21 H 0.390(2) 0.980(3) 0.333(4)

#END
