./KACMIK_from_POSCAR.cif_generated_by_CrystalShift
_symmetry_cell_setting triclinic
_symmetry_space_group_name_H-M 'P 1'
loop_
_symmetry_equiv_pos_site_id
_symmetry_equiv_pos_as_xyz
1 x,y,z
_cell_length_a 15.031000
_cell_length_b 8.190000
_cell_length_c 6.938000
_cell_angle_alpha 79.860000
_cell_angle_beta 78.550000
_cell_angle_gamma 94.820000
_cell_volume 817.732385
loop_
_atom_site_label
_atom_site_type_symbol
_atom_site_fract_x
_atom_site_fract_y
_atom_site_fract_z
H1 H 0.390000 0.980000 0.333000
H2 H 0.413000 0.883000 0.136000
H3 H 0.094000 0.039000 0.604000
H4 H 0.146000 -0.061000 0.754000
H5 H 0.031000 -0.078000 0.827000
H6 H 0.223000 0.205000 0.762000
H7 H 0.160000 0.288000 0.624000
H8 H 0.057000 0.566000 0.707000
H9 H 0.004000 0.711000 0.446000
H10 H 0.107000 0.877000 0.164000
H11 H 0.266000 0.878000 0.170000
H12 H 0.378000 0.628000 0.362000
H13 H 0.338000 0.444000 0.682000
H14 H 0.402000 0.491000 0.951000
H15 H 0.319000 0.585000 1.036000
H16 H 0.301000 0.233000 1.024000
H17 H 0.290000 0.309000 1.215000
H18 H 0.142000 0.244000 1.157000
H19 H 0.162000 0.432000 1.180000
H20 H 0.099000 0.414000 0.903000
H21 H 0.610000 0.020000 0.667000
H22 H 0.524000 0.124000 0.713000
H23 H 0.901000 0.586000 0.097000
H24 H 0.838000 0.568000 -0.180000
H25 H 0.858000 0.756000 -0.157000
H26 H 0.710000 0.691000 -0.215000
H27 H 0.699000 0.767000 -0.024000
H28 H 0.681000 0.415000 -0.036000
H29 H 0.598000 0.509000 0.049000
H30 H 0.662000 0.556000 0.318000
H31 H 0.622000 0.372000 0.638000
H32 H 0.734000 0.122000 0.830000
H33 H 0.893000 0.123000 0.836000
H34 H 0.996000 0.289000 0.554000
H35 H 0.943000 0.434000 0.293000
H36 H 0.840000 0.712000 0.376000
H37 H 0.777000 0.795000 0.238000
H38 H 0.969000 1.078000 0.173000
H39 H 0.854000 1.061000 0.246000
H40 H 0.906000 0.961000 0.396000
H41 H 0.587000 0.117000 0.864000
H42 H 0.476000 0.876000 0.287000
C43 C 0.647000 0.159200 0.279600
C44 C 0.839000 0.609300 0.114600
C45 C 0.819700 0.655400 -0.092800
C46 C 0.720000 0.669800 -0.087100
C47 C 0.664000 0.508700 0.033800
C48 C 0.161000 0.390700 0.885400
C49 C 0.180300 0.344600 1.092800
C50 C 0.280000 0.330200 1.087100
C51 C 0.336000 0.491300 0.966200
C52 C 0.317900 0.530400 0.756700
C53 C 0.374900 0.694700 0.629100
C54 C 0.357300 0.724800 0.413900
C55 C 0.255700 0.724200 0.430300
C56 C 0.222600 0.818100 0.276400
C57 C 0.131000 0.813700 0.278700
C58 C 0.069900 0.717000 0.438500
C59 C 0.099700 0.627000 0.594900
C60 C 0.192800 0.628500 0.596200
C61 C 0.166900 0.250900 0.767400
C62 C 0.090300 -0.006700 0.754100
C63 C 0.472500 0.678600 0.622400
C64 C 0.353000 0.840800 0.720400
C65 C 0.415900 0.879600 0.279400
C66 C 0.527500 0.321400 0.377600
C67 C 0.909700 1.006700 0.245900
C68 C 0.833100 0.749100 0.232600
C69 C 0.807200 0.371500 0.403800
C70 C 0.900300 0.373000 0.405100
C71 C 0.930100 0.283000 0.561500
C72 C 0.869000 0.186300 0.721300
C73 C 0.777400 0.181900 0.723600
C74 C 0.744300 0.275800 0.569700
C75 C 0.642700 0.275200 0.586100
C76 C 0.625100 0.305300 0.370900
C77 C 0.682100 0.469600 0.243300
C78 C 0.584100 0.120400 0.720600
N79 N 0.220710 0.543000 0.766100
N80 N 0.547400 0.664000 0.614000
N81 N 0.661200 0.043800 0.215000
N82 N 0.452600 0.336000 0.386000
N83 N 0.779290 0.457000 0.233900
N84 N 0.338800 0.956200 0.785000
O85 O 0.091450 0.129300 0.854700
O86 O 0.908550 0.870700 0.145300

#END
