./KACPAI_from_POSCAR.cif_generated_by_CrystalShift
_symmetry_cell_setting triclinic
_symmetry_space_group_name_H-M 'P 1'
loop_
_symmetry_equiv_pos_site_id
_symmetry_equiv_pos_as_xyz
1 x,y,z
_cell_length_a 13.698000
_cell_length_b 7.626000
_cell_length_c 38.908000
_cell_angle_alpha 90.000000
_cell_angle_beta 90.000000
_cell_angle_gamma 90.000000
_cell_volume 4064.366565
loop_
_atom_site_label
_atom_site_type_symbol
_atom_site_fract_x
_atom_site_fract_y
_atom_site_fract_z
H1 H 0.447400 0.980300 0.274600
H2 H 0.397800 0.805600 0.316000
H3 H 0.439200 0.953600 0.340200
H4 H 0.749400 0.797800 0.243700
H5 H 0.671700 0.710300 0.219400
H6 H 0.758700 1.085800 0.138200
H7 H 1.230600 0.160800 0.132200
H8 H 0.768800 1.005800 0.069400
H9 H 0.610000 1.203000 -0.007400
H10 H 0.470800 1.183000 0.025900
H11 H 1.214400 0.015100 0.081600
H12 H 0.481500 1.076700 0.081900
H13 H 0.399500 0.814300 0.156300
H14 H 1.066700 0.021200 0.052700
H15 H 0.565100 0.667300 0.076200
H16 H 0.934900 0.167300 0.076200
H17 H 0.433300 0.521200 0.052700
H18 H 0.285600 0.515100 0.081600
H19 H 1.100500 0.314300 0.156300
H20 H 0.269400 0.660800 0.132200
H21 H 1.052600 0.019700 0.774600
H22 H 1.018500 0.576700 0.081900
H23 H 0.977400 -0.076900 0.798500
H24 H 1.029200 0.683000 0.025900
H25 H 1.102200 0.194400 0.816000
H26 H 0.890000 0.703000 -0.007400
H27 H 1.060800 0.046400 0.840200
H28 H 0.750600 0.202200 0.743700
H29 H 0.731200 0.505800 0.069400
H30 H 0.828300 0.289700 0.719400
H31 H 0.741300 -0.085800 0.638200
H32 H 0.741300 0.585800 0.138200
H33 H 0.731200 -0.005800 0.569400
H34 H 0.890000 -0.203000 0.492600
H35 H 0.828300 0.210300 0.219400
H36 H 0.750600 0.297800 0.243700
H37 H 1.029200 -0.183000 0.525900
H38 H 1.018500 -0.076700 0.581900
H39 H 1.100500 0.185700 0.656300
H40 H 1.060800 0.453600 0.340200
H41 H 1.102200 0.305600 0.316000
H42 H 0.934900 0.332700 0.576200
H43 H 0.977400 0.576900 0.298500
H44 H 1.052600 0.480300 0.274600
H45 H 1.066700 0.478800 0.552700
H46 H 1.214400 0.484900 0.581600
H47 H 1.230600 0.339200 0.632200
H48 H 0.552600 0.480300 0.225400
H49 H 0.477400 0.576900 0.201500
H50 H 0.602200 0.305600 0.184000
H51 H 0.269400 0.839200 0.632200
H52 H 0.560800 0.453600 0.159800
H53 H 0.250600 0.297800 0.256300
H54 H 0.328300 0.210300 0.280600
H55 H 0.285600 0.984900 0.581600
H56 H 0.241300 0.585800 0.361800
H57 H 0.231200 0.505800 0.430600
H58 H 0.433300 0.978800 0.552700
H59 H 0.390000 0.703000 0.507400
H60 H 0.565100 0.832700 0.576200
H61 H 0.529200 0.683000 0.474100
H62 H 0.518500 0.576700 0.418100
H63 H 0.399500 0.685700 0.656300
H64 H 0.600500 0.314300 0.343700
H65 H 0.434900 0.167300 0.423800
H66 H 0.481500 0.423300 0.581900
H67 H 0.566700 0.021200 0.447300
H68 H 0.470800 0.317000 0.525900
H69 H 0.714400 0.015100 0.418400
H70 H 0.610000 0.297000 0.492600
H71 H 0.730600 0.160800 0.367800
H72 H -0.052600 0.519700 0.725400
H73 H 0.768800 0.494200 0.569400
H74 H 0.022600 0.423100 0.701500
H75 H -0.102200 0.694400 0.684000
H76 H 0.758700 0.414200 0.638200
H77 H -0.060800 0.546400 0.659800
H78 H 0.249400 0.702200 0.756300
H79 H 0.671700 0.789700 0.719400
H80 H 0.749400 0.702200 0.743700
H81 H 0.171700 0.789700 0.780600
H82 H 0.258700 0.414200 0.861800
H83 H 0.268800 0.494200 0.930600
H84 H 0.439200 0.546400 0.840200
H85 H 0.397800 0.694400 0.816000
H86 H 0.110000 0.297000 1.007400
H87 H 0.522600 0.423100 0.798500
H88 H 0.447400 0.519700 0.774600
H89 H -0.029200 0.317000 0.974100
H90 H -0.018500 0.423300 0.918100
H91 H -0.100500 0.685700 0.843700
H92 H 0.065100 0.832700 0.923800
H93 H -0.066700 0.978800 0.947300
H94 H -0.214400 0.984900 0.918400
H95 H -0.230600 0.660800 0.367800
H96 H -0.230600 0.839200 0.867800
H97 H 0.552600 0.019700 0.725400
H98 H 0.477400 -0.076900 0.701500
H99 H -0.214400 0.515100 0.418400
H100 H 0.602200 0.194400 0.684000
H101 H 0.560800 0.046400 0.659800
H102 H -0.066700 0.521200 0.447300
H103 H 0.250600 0.202200 0.756300
H104 H 0.065100 0.667300 0.423800
H105 H 0.328300 0.289700 0.780600
H106 H 0.241300 -0.085800 0.861800
H107 H -0.100500 0.814300 0.343700
H108 H 0.231200 -0.005800 0.930600
H109 H 0.390000 -0.203000 1.007400
H110 H -0.018500 1.076700 0.418100
H111 H 0.529200 -0.183000 0.974100
H112 H -0.029200 1.183000 0.474100
H113 H 0.518500 -0.076700 0.918100
H114 H 0.110000 1.203000 0.507400
H115 H 0.600500 0.185700 0.843700
H116 H 0.434900 0.332700 0.923800
H117 H 0.268800 1.005800 0.430600
H118 H 0.566700 0.478800 0.947300
H119 H 0.714400 0.484900 0.918400
H120 H 0.258700 1.085800 0.361800
H121 H 0.730600 0.339200 0.867800
H122 H -0.052600 0.980300 0.225400
H123 H 0.171700 0.710300 0.280600
H124 H 0.249400 0.797800 0.256300
H125 H 0.022600 1.076900 0.201500
H126 H -0.102200 0.805600 0.184000
H127 H -0.060800 0.953600 0.159800
H128 H 0.522600 1.076900 0.298500
C129 C 0.112100 0.724900 0.201290
C130 C -0.002200 0.962900 0.208260
C131 C 0.116000 0.920000 0.253930
C132 C 0.196500 0.821500 0.272190
C133 C 0.497800 0.962900 0.291740
C134 C 0.456100 0.870200 0.322340
C135 C 0.612100 0.724900 0.298710
C136 C 0.616000 0.920000 0.246070
C137 C 0.696500 0.821500 0.227810
C138 C 0.670800 0.337100 0.879080
C139 C 0.179600 0.916900 0.329710
C140 C 0.679600 0.916900 0.170290
C141 C 1.170800 0.162900 0.120920
C142 C 0.661600 0.423800 0.909250
C143 C 0.205900 1.010300 0.359090
C144 C 0.705900 1.010300 0.140910
C145 C 0.573200 0.421000 0.926390
C146 C 0.137500 0.967000 0.382900
C147 C 0.494800 0.332600 0.912540
C148 C 0.208700 1.043000 0.438980
C149 C 0.505500 0.244900 0.882230
C150 C 0.593500 0.244800 0.864460
C151 C 0.201800 1.110300 0.471840
C152 C 0.373600 -0.030900 0.918520
C153 C 0.462800 -0.083900 0.931610
C154 C 0.113900 1.160600 0.485060
C155 C 0.469200 -0.148400 0.965200
C156 C 0.030800 1.148400 0.465200
C157 C 0.386100 -0.160600 0.985060
C158 C 0.037200 1.083900 0.431610
C159 C 0.298200 -0.110300 0.971840
C160 C 0.291300 -0.043000 0.938980
C161 C 0.126400 1.030900 0.418520
C162 C 0.362500 0.033000 0.882900
C163 C 0.294100 -0.010300 0.859090
C164 C -0.093500 0.755200 0.364460
C165 C 0.320400 0.083100 0.829710
C166 C 0.303500 0.178500 0.772190
C167 C -0.005500 0.755100 0.382230
C168 C 0.005200 0.667400 0.412540
C169 C 0.384000 0.080000 0.753930
C170 C 0.387900 0.275100 0.701290
C171 C 0.543900 0.129800 0.677660
C172 C -0.073200 0.579000 0.426390
C173 C 0.637500 0.967000 0.117100
C174 C 0.502200 0.037100 0.708260
C175 C -0.161600 0.576200 0.409250
C176 C 0.708700 1.043000 0.061020
C177 C 0.701800 1.110300 0.028160
C178 C 0.613900 1.160600 0.014940
C179 C 1.161600 0.076200 0.090750
C180 C 0.530800 1.148400 0.034800
C181 C 0.537200 1.083900 0.068390
C182 C -0.170800 0.837100 0.879080
C183 C 0.626400 1.030900 0.081480
C184 C 1.073200 0.079000 0.073610
C185 C 0.406500 0.755200 0.135540
C186 C -0.161600 0.923800 0.909250
C187 C -0.170800 0.662900 0.379080
C188 C 0.494500 0.755100 0.117770
C189 C -0.073200 0.921000 0.926390
C190 C 0.994800 0.167400 0.087460
C191 C 0.005200 0.832600 0.912540
C192 C 0.505200 0.667400 0.087460
C193 C -0.005500 0.744900 0.882230
C194 C -0.093500 0.744800 0.864460
C195 C 1.005500 0.255100 0.117770
C196 C 0.126400 0.469100 0.918520
C197 C 0.037200 0.416100 0.931610
C198 C 0.426800 0.579000 0.073610
C199 C 0.030800 0.351600 0.965200
C200 C 1.093500 0.255200 0.135540
C201 C 0.113900 0.339400 0.985060
C202 C 0.497800 0.537100 0.791740
C203 C 0.201800 0.389700 0.971840
C204 C 0.208700 0.457000 0.938980
C205 C 0.456100 0.629800 0.822340
C206 C 0.137500 0.533000 0.882900
C207 C 0.205900 0.489700 0.859090
C208 C 0.612100 0.775100 0.798710
C209 C 0.179600 0.583100 0.829710
C210 C 0.196500 0.678500 0.772190
C211 C 0.616000 0.580000 0.746070
C212 C 0.696500 0.678500 0.727810
C213 C 0.116000 0.580000 0.753930
C214 C 0.112100 0.775100 0.701290
C215 C -0.043900 0.629800 0.677660
C216 C 0.679600 0.583100 0.670290
C217 C 0.705900 0.489700 0.640910
C218 C -0.002200 0.537100 0.708260
C219 C 0.637500 0.533000 0.617100
C220 C 0.708700 0.457000 0.561020
C221 C 0.338400 0.576200 0.090750
C222 C 0.873600 0.530900 0.081480
C223 C 0.329200 0.662900 0.120920
C224 C 0.962800 0.583900 0.068390
C225 C 0.969200 0.648400 0.034800
C226 C 0.670800 0.162900 0.379080
C227 C 0.701800 0.389700 0.528160
C228 C 1.002200 0.037100 0.791740
C229 C 0.886100 0.660600 0.014940
C230 C 0.661600 0.076200 0.409250
C231 C 0.613900 0.339400 0.514940
C232 C 0.798200 0.610300 0.028160
C233 C 0.573200 0.079000 0.426390
C234 C 0.530800 0.351600 0.534800
C235 C 0.494800 0.167400 0.412540
C236 C 0.537200 0.416100 0.568390
C237 C 0.505500 0.255100 0.382230
C238 C 0.593500 0.255200 0.364460
C239 C 0.626400 0.469100 0.581480
C240 C 0.373600 0.530900 0.418520
C241 C 0.462800 0.583900 0.431610
C242 C 0.406500 0.744800 0.635540
C243 C 0.469200 0.648400 0.465200
C244 C 0.494500 0.744900 0.617770
C245 C 0.386100 0.660600 0.485060
C246 C 0.505200 0.832600 0.587460
C247 C 0.298200 0.610300 0.471840
C248 C 0.291300 0.543000 0.438980
C249 C 0.426800 0.921000 0.573610
C250 C 0.362500 0.467000 0.382900
C251 C 0.294100 0.510300 0.359090
C252 C 1.043900 0.129800 0.822340
C253 C 0.320400 0.416900 0.329710
C254 C 0.303500 0.321500 0.272190
C255 C 0.338400 0.923800 0.590750
C256 C 0.887900 0.275100 0.798710
C257 C 0.384000 0.420000 0.253930
C258 C 0.387900 0.224900 0.201290
C259 C 0.543900 0.370200 0.177660
C260 C 0.884000 0.080000 0.746070
C261 C 0.329200 0.837100 0.620920
C262 C 0.502200 0.462900 0.208260
C263 C 0.791300 0.543000 0.061020
C264 C 0.862500 0.467000 0.117100
C265 C 0.803500 0.178500 0.727810
C266 C 0.820400 0.083100 0.670290
C267 C 0.794100 0.510300 0.140910
C268 C 0.794100 -0.010300 0.640910
C269 C 0.862500 0.033000 0.617100
C270 C 1.170800 0.337100 0.620920
C271 C 0.820400 0.416900 0.170290
C272 C 0.791300 -0.043000 0.561020
C273 C 0.798200 -0.110300 0.528160
C274 C 1.161600 0.423800 0.590750
C275 C 0.803500 0.321500 0.227810
C276 C 0.886100 -0.160600 0.514940
C277 C 1.073200 0.421000 0.573610
C278 C 0.884000 0.420000 0.246070
C279 C 0.994800 0.332600 0.587460
C280 C 1.002200 0.462900 0.291740
C281 C 1.005500 0.244900 0.617770
C282 C 1.093500 0.244800 0.635540
C283 C 1.043900 0.370200 0.322340
C284 C 0.873600 -0.030900 0.581480
C285 C 0.962800 -0.083900 0.568390
C286 C 0.887900 0.224900 0.298710
C287 C 0.969200 -0.148400 0.534800
C288 C -0.043900 0.870200 0.177660
N289 N 0.922400 0.144400 0.777300
N290 N 0.924400 0.348200 0.132310
N291 N 0.424400 0.151800 0.867690
N292 N 0.898600 0.182000 0.665680
N293 N 0.398600 0.182000 0.834320
N294 N 0.924400 0.151800 0.632310
N295 N 0.422400 0.144400 0.722700
N296 N 0.077600 0.855600 0.222700
N297 N 0.898600 0.318000 0.165680
N298 N 0.922400 0.355600 0.277300
N299 N 0.075600 0.651800 0.867690
N300 N 0.575600 0.651800 0.632310
N301 N 0.601400 0.682000 0.665680
N302 N 0.101400 0.818000 0.334320
N303 N 0.577600 0.644400 0.777300
N304 N 0.422400 0.355600 0.222700
N305 N 0.101400 0.682000 0.834320
N306 N 0.398600 0.318000 0.334320
N307 N 0.424400 0.348200 0.367690
N308 N 0.077600 0.644400 0.722700
N309 N 0.075600 0.848200 0.367690
N310 N 0.577600 0.855600 0.277300
N311 N 0.601400 0.818000 0.165680
N312 N 0.575600 0.848200 0.132310
O313 O 0.731500 0.923700 0.199790
O314 O 0.917400 -0.054800 0.734420
O315 O 0.417400 -0.054800 0.765580
O316 O 0.768500 0.076300 0.699790
O317 O 0.582600 1.054800 0.234420
O318 O 0.082600 1.054800 0.265580
O319 O 0.268500 0.076300 0.800210
O320 O 0.917400 0.554800 0.234420
O321 O 0.231500 0.576300 0.800210
O322 O 0.731500 0.576300 0.699790
O323 O 0.231500 0.923700 0.300210
O324 O 0.582600 0.445200 0.734420
O325 O 0.268500 0.423700 0.300210
O326 O 0.082600 0.445200 0.765580
O327 O 0.417400 0.554800 0.265580
O328 O 0.768500 0.423700 0.199790
S329 S 0.049350 0.723600 0.163000
S330 S 0.450650 0.276400 0.663000
S331 S 0.200230 0.584100 0.207720
S332 S 0.049350 0.776400 0.663000
S333 S 0.200230 0.915900 0.707720
S334 S 0.700230 0.584100 0.292280
S335 S 0.950650 0.223600 0.337000
S336 S 0.799770 0.084100 0.292280
S337 S 0.799770 0.415900 0.792280
S338 S 0.950650 0.276400 0.837000
S339 S 0.549350 0.723600 0.337000
S340 S 0.299770 0.084100 0.207720
S341 S 0.549350 0.776400 0.837000
S342 S 0.450650 0.223600 0.163000
S343 S 0.700230 0.915900 0.792280
S344 S 0.299770 0.415900 0.707720
Cl345 Cl 0.694450 -0.127900 0.503070
Cl346 Cl 0.805550 1.127900 0.003070
Cl347 Cl 0.305550 1.127900 0.496930
Cl348 Cl 0.194450 0.627900 0.496930
Cl349 Cl 0.194450 -0.127900 0.996930
Cl350 Cl 0.805550 0.372100 0.503070
Cl351 Cl 0.305550 0.372100 0.996930
Cl352 Cl 0.694450 0.627900 0.003070

#END
