./KACQEL_from_POSCAR.cif_generated_by_CrystalShift
_symmetry_cell_setting triclinic
_symmetry_space_group_name_H-M 'P 1'
loop_
_symmetry_equiv_pos_site_id
_symmetry_equiv_pos_as_xyz
1 x,y,z
_cell_length_a 8.575200
_cell_length_b 8.381400
_cell_length_c 25.275000
_cell_angle_alpha 90.000000
_cell_angle_beta 96.273000
_cell_angle_gamma 90.000000
_cell_volume 1805.692775
loop_
_atom_site_label
_atom_site_type_symbol
_atom_site_fract_x
_atom_site_fract_y
_atom_site_fract_z
H1 H 1.144900 0.721000 0.185400
H2 H 0.629800 0.824100 0.313800
H3 H 0.791300 0.669000 0.374600
H4 H 1.008500 0.539100 0.347600
H5 H 1.072600 0.568600 0.260300
H6 H 0.456800 0.863400 0.238200
H7 H 0.149000 0.080200 0.415700
H8 H 0.553900 1.022300 0.254400
H9 H 0.473200 0.999500 0.194800
H10 H -0.244000 0.348400 0.388500
H11 H 0.366600 1.107500 -0.113300
H12 H -0.233400 0.402700 0.479600
H13 H 0.277200 1.039200 -0.065800
H14 H -0.031900 0.295800 0.538600
H15 H 0.411800 1.170700 -0.053900
H16 H 0.164000 0.061400 0.552100
H17 H 0.256900 0.015100 0.502400
H18 H 0.598800 0.446900 -0.081800
H19 H 0.389900 0.402600 -0.148000
H20 H 0.225800 0.612300 -0.178200
H21 H 0.733300 0.367800 0.641500
H22 H 0.266700 0.867800 -0.141500
H23 H 0.774200 0.112300 0.678200
H24 H 0.743100 0.515100 -0.002400
H25 H 0.610100 -0.097400 0.648000
H26 H 0.836000 0.561400 -0.052100
H27 H 0.401200 -0.053100 0.581800
H28 H 1.031900 0.795800 -0.038600
H29 H 0.588200 0.670700 0.553900
H30 H 0.722800 0.539200 0.565800
H31 H 0.633400 0.607500 0.613300
H32 H 1.233400 0.902700 0.020400
H33 H 0.526800 0.499500 0.305200
H34 H 0.446100 0.522300 0.245600
H35 H 0.543200 0.363400 0.261800
H36 H 1.244000 0.848400 0.111500
H37 H 0.851000 0.580200 0.084300
H38 H 1.144900 0.779000 0.685400
H39 H -0.072600 0.068600 0.239700
H40 H 1.057700 0.945600 0.670900
H41 H -0.008500 0.039100 0.152400
H42 H 0.629800 0.675900 0.813800
H43 H 0.208700 0.169000 0.125400
H44 H 0.791300 0.831000 0.874600
H45 H 0.370200 0.324100 0.186200
H46 H 1.008500 0.960900 0.847600
H47 H -0.057700 0.054400 0.329100
H48 H -0.144900 0.221000 0.314600
H49 H 1.072600 0.931400 0.760300
H50 H 0.456800 0.636600 0.738200
H51 H 0.553900 0.477700 0.754400
H52 H 0.473200 0.500500 0.694800
H53 H 0.366600 0.392500 0.386700
H54 H 0.277200 0.460800 0.434200
H55 H 0.149000 0.419800 0.915700
H56 H 0.411800 0.329300 0.446100
H57 H 0.598800 1.053100 0.418200
H58 H -0.244000 0.151600 0.888500
H59 H 0.389900 1.097400 0.352000
H60 H -0.233400 0.097300 0.979600
H61 H 0.225800 0.887700 0.321800
H62 H -0.031900 0.204200 1.038600
H63 H 0.266700 0.632200 0.358500
H64 H 0.164000 0.438600 1.052100
H65 H 0.256900 0.484900 1.002400
H66 H 0.743100 0.984900 0.497600
H67 H 0.836000 0.938600 0.447900
H68 H 1.031900 0.704200 0.461400
H69 H 0.733300 0.132200 1.141500
H70 H 1.233400 0.597300 0.520400
H71 H 0.774200 0.387700 1.178200
H72 H 1.244000 0.651600 0.611500
H73 H 0.610100 0.597400 1.148000
H74 H 0.851000 0.919800 0.584300
H75 H 0.401200 0.553100 1.081800
H76 H -0.144900 0.279000 0.814600
H77 H 0.588200 -0.170700 1.053900
H78 H 0.722800 -0.039200 1.065800
H79 H 0.633400 -0.107500 1.113300
H80 H -0.057700 0.445600 0.829100
H81 H 0.526800 0.000500 0.805200
H82 H 0.446100 -0.022300 0.745600
H83 H 0.543200 0.136600 0.761800
H84 H 0.370200 0.175900 0.686200
H85 H 0.208700 0.331000 0.625400
H86 H -0.008500 0.460900 0.652400
H87 H -0.072600 0.431400 0.739700
H88 H 1.057700 0.554400 0.170900
C89 C 0.018060 0.380450 0.729110
C90 C 0.184960 0.320810 0.661120
C91 C 0.112980 0.289840 0.765440
C92 C 0.281300 0.228710 0.697270
C93 C 0.247120 0.214520 0.749280
C94 C -0.052130 0.328840 0.834800
C95 C 0.473450 0.055230 0.774100
C96 C 0.621900 -0.077560 1.075610
C97 C 1.052130 0.671160 0.165200
C98 C 0.718700 0.771290 0.302730
C99 C 0.815040 0.679190 0.338880
C100 C 0.944440 0.603110 0.323000
C101 C 0.921040 0.822780 0.517140
C102 C 0.928650 0.854080 0.571260
C103 C 0.468100 0.467250 1.094000
C104 C 1.048190 0.790900 0.606890
C105 C 1.161820 0.695130 0.587590
C106 C 0.592580 0.493710 1.133420
C107 C 1.155640 0.662840 0.533420
C108 C 0.690200 0.369660 1.151180
C109 C 1.035850 0.726420 0.498390
C110 C 0.665490 0.217310 1.129360
C111 C 0.792640 0.896030 0.479800
C112 C 0.543060 0.189970 1.090220
C113 C 0.441800 0.315920 1.072610
C114 C 0.558200 0.815920 0.427390
C115 C 0.456940 0.689970 0.409780
C116 C 0.334510 0.717310 0.370640
C117 C 0.207360 0.396030 1.020200
C118 C 0.309800 0.869660 0.348820
C119 C -0.035850 0.226420 1.001610
C120 C 0.407420 0.993710 0.366580
C121 C -0.155640 0.162840 0.966580
C122 C 0.531900 0.967250 0.406000
C123 C -0.161820 0.195130 0.912410
C124 C 0.378100 0.422440 0.424390
C125 C -0.048190 0.290900 0.893110
C126 C 0.071350 0.354080 0.928740
C127 C 0.078960 0.322780 0.982860
C128 C 0.526550 0.555230 0.725900
C129 C 0.078960 0.177220 0.482860
C130 C 0.981940 0.619550 0.270890
C131 C 0.887020 0.710160 0.234560
C132 C 0.752880 0.714520 0.750720
C133 C 0.887020 0.789840 0.734560
C134 C 0.981940 0.880450 0.770890
C135 C 0.752880 0.785480 0.250720
C136 C 0.944440 0.896890 0.823000
C137 C -0.052130 0.171160 0.334800
C138 C 0.815040 0.820810 0.838880
C139 C 0.281300 0.271290 0.197270
C140 C 0.718700 0.728710 0.802730
C141 C 0.184960 0.179190 0.161120
C142 C 1.052130 0.828840 0.665200
C143 C 0.055560 0.103110 0.177000
C144 C 0.018060 0.119550 0.229110
C145 C 0.071350 0.145920 0.428740
C146 C -0.048190 0.209100 0.393110
C147 C -0.161820 0.304870 0.412410
C148 C 0.526550 0.944770 0.225900
C149 C 0.921040 0.677220 0.017140
C150 C 0.928650 0.645920 0.071260
C151 C 0.112980 0.210160 0.265440
C152 C 1.048190 0.709100 0.106890
C153 C 1.161820 0.804870 0.087590
C154 C 0.247120 0.285480 0.249280
C155 C 1.155640 0.837160 0.033420
C156 C 0.473450 0.444770 0.274100
C157 C 1.035850 0.773580 -0.001610
C158 C 0.621900 0.577560 0.575610
C159 C 0.792640 0.603970 -0.020200
C160 C 0.468100 0.032750 0.594000
C161 C 0.592580 0.006290 0.633420
C162 C 0.558200 0.684080 -0.072610
C163 C 0.456940 0.810030 -0.090220
C164 C 0.334510 0.782690 -0.129360
C165 C 0.690200 0.130340 0.651180
C166 C 0.309800 0.630340 -0.151180
C167 C 0.665490 0.282690 0.629360
C168 C 0.407420 0.506290 -0.133420
C169 C 0.543060 0.310030 0.590220
C170 C 0.531900 0.532750 -0.094000
C171 C 0.441800 0.184080 0.572610
C172 C 0.378100 1.077560 -0.075610
C173 C 0.207360 0.103970 0.520200
C174 C -0.035850 0.273580 0.501610
C175 C -0.155640 0.337160 0.466580
C176 C 0.055560 0.396890 0.677000
O177 O 0.665790 0.870660 0.211800
O178 O 0.492850 0.953890 -0.066670
O179 O 0.679050 0.725590 -0.035360
O180 O 0.320950 0.274410 1.035360
O181 O 0.507150 0.046110 1.066670
O182 O 0.334210 0.129340 0.788200
O183 O 0.089630 0.265950 0.817550
O184 O 0.910370 0.765950 0.682450
O185 O 0.089630 0.234050 0.317550
O186 O 0.665790 0.629340 0.711800
O187 O 0.334210 0.370660 0.288200
O188 O 0.492850 0.546110 0.433330
O189 O 0.507150 0.453890 0.566670
O190 O 0.679050 0.774410 0.464640
O191 O 0.910370 0.734050 0.182450
O192 O 0.320950 0.225590 0.535360

#END
