
#######################################################################
#
#                 Cambridge Crystallographic Data Centre
#                                CCDC 
#
#######################################################################
#
# If this CIF has been generated from an entry in the Cambridge 
# Structural Database, then it will include bibliographic, chemical, 
# crystal, experimental, refinement or atomic coordinate data resulting 
# from the CCDC's data processing and validation procedures.
#
#######################################################################

data_KACQUB
_symmetry_cell_setting           orthorhombic
_symmetry_space_group_name_H-M   'P 21 21 21'
_symmetry_Int_Tables_number      19
_space_group_name_Hall           'P 2ac 2ab'
loop_
_symmetry_equiv_pos_site_id
_symmetry_equiv_pos_as_xyz
1 x,y,z
2 1/2-x,-y,1/2+z
3 -x,1/2+y,1/2-z
4 1/2+x,1/2-y,-z
_cell_length_a                   6.2681(14)
_cell_length_b                   14.329(3)
_cell_length_c                   15.231(4)
_cell_angle_alpha                90
_cell_angle_beta                 90
_cell_angle_gamma                90
_cell_volume                     1367.98
loop_
_atom_site_label
_atom_site_type_symbol
_atom_site_fract_x
_atom_site_fract_y
_atom_site_fract_z
C1 C -0.0222(8) 0.4253(3) 0.1147(3)
H1 H -0.1539 0.3873 0.1117
C2 C 0.1154(9) 0.4003(3) 0.0390(3)
C3 C 0.0771(10) 0.4096(3) -0.0516(3)
H2 H -0.0510 0.4359 -0.0720
C4 C 0.2297(11) 0.3796(3) -0.1100(4)
H3 H 0.2039 0.3858 -0.1705
C5 C 0.4221(11) 0.3401(3) -0.0821(4)
H4 H 0.5237 0.3197 -0.1232
C6 C 0.4605(9) 0.3316(3) 0.0067(4)
H5 H 0.5884 0.3046 0.0265
C7 C 0.3116(9) 0.3626(3) 0.0665(3)
C8 C 0.3067(8) 0.3588(3) 0.1629(3)
C9 C 0.4560(8) 0.3253(3) 0.2219(3)
H6 H 0.5870 0.3016 0.2017
C10 C 0.4111(11) 0.3270(3) 0.3113(4)
H7 H 0.5130 0.3067 0.3523
C11 C 0.2154(12) 0.3589(4) 0.3388(4)
H8 H 0.1844 0.3584 0.3992
C12 C 0.0624(10) 0.3918(3) 0.2811(4)
H9 H -0.0701 0.4132 0.3019
C13 C 0.1084(8) 0.3925(3) 0.1915(3)
C14 C 0.1444(9) 0.6273(4) 0.1236(4)
H10 H 0.1050 0.6927 0.1261
H11 H 0.2281 0.6158 0.0712
H12 H 0.2281 0.6114 0.1751
C15 C -0.2668(11) 0.5851(4) 0.0232(4)
H13 H -0.3055 0.6506 0.0260
H14 H -0.3951 0.5473 0.0227
H15 H -0.1857 0.5735 -0.0300
C16 C -0.2642(11) 0.5718(4) 0.2215(4)
H16 H -0.3058 0.6368 0.2258
H17 H -0.1809 0.5547 0.2727
H18 H -0.3908 0.5330 0.2185
Si1 Si -0.1013(2) 0.55418(9) 0.12089(10)
C1 C 0.5222(8) 0.5747(3) 0.6147(3)
H1 H 0.6539 0.6127 0.6117
C2 C 0.3846(9) 0.5997(3) 0.5390(3)
C3 C 0.4229(10) 0.5904(3) 0.4484(3)
H2 H 0.5510 0.5641 0.4280
C4 C 0.2703(11) 0.6204(3) 0.3900(4)
H3 H 0.2961 0.6142 0.3295
C5 C 0.0779(11) 0.6599(3) 0.4179(4)
H4 H -0.0237 0.6803 0.3768
C6 C 0.0395(9) 0.6684(3) 0.5067(4)
H5 H -0.0884 0.6954 0.5265
C7 C 0.1884(9) 0.6374(3) 0.5665(3)
C8 C 0.1933(8) 0.6412(3) 0.6629(3)
C9 C 0.0440(8) 0.6747(3) 0.7219(3)
H6 H -0.0870 0.6984 0.7017
C10 C 0.0889(11) 0.6730(3) 0.8113(4)
H7 H -0.0130 0.6933 0.8523
C11 C 0.2846(12) 0.6411(4) 0.8388(4)
H8 H 0.3156 0.6416 0.8992
C12 C 0.4376(10) 0.6082(3) 0.7811(4)
H9 H 0.5701 0.5868 0.8019
C13 C 0.3916(8) 0.6075(3) 0.6915(3)
C14 C 0.3556(9) 0.3727(4) 0.6236(4)
H10 H 0.3950 0.3073 0.6261
H11 H 0.2719 0.3842 0.5712
H12 H 0.2719 0.3886 0.6751
C15 C 0.7668(11) 0.4149(4) 0.5232(4)
H13 H 0.8055 0.3494 0.5260
H14 H 0.8951 0.4527 0.5227
H15 H 0.6857 0.4265 0.4700
C16 C 0.7642(11) 0.4282(4) 0.7215(4)
H16 H 0.8058 0.3632 0.7258
H17 H 0.6809 0.4453 0.7727
H18 H 0.8908 0.4670 0.7185
Si1 Si 0.6013(2) 0.44582(9) 0.62089(10)
C1 C 1.0222(8) 0.9253(3) 0.3853(3)
H1 H 1.1539 0.8873 0.3883
C2 C 0.8846(9) 0.9003(3) 0.4610(3)
C3 C 0.9229(10) 0.9096(3) 0.5516(3)
H2 H 1.0510 0.9359 0.5720
C4 C 0.7703(11) 0.8796(3) 0.6100(4)
H3 H 0.7961 0.8858 0.6705
C5 C 0.5779(11) 0.8401(3) 0.5821(4)
H4 H 0.4763 0.8197 0.6232
C6 C 0.5395(9) 0.8316(3) 0.4933(4)
H5 H 0.4116 0.8046 0.4735
C7 C 0.6884(9) 0.8626(3) 0.4335(3)
C8 C 0.6933(8) 0.8588(3) 0.3371(3)
C9 C 0.5440(8) 0.8253(3) 0.2781(3)
H6 H 0.4130 0.8016 0.2983
C10 C 0.5889(11) 0.8270(3) 0.1887(4)
H7 H 0.4870 0.8067 0.1477
C11 C 0.7846(12) 0.8589(4) 0.1612(4)
H8 H 0.8156 0.8584 0.1008
C12 C 0.9376(10) 0.8918(3) 0.2189(4)
H9 H 1.0701 0.9132 0.1981
C13 C 0.8916(8) 0.8925(3) 0.3085(3)
C14 C 0.8556(9) 1.1273(4) 0.3764(4)
H10 H 0.8950 1.1927 0.3739
H11 H 0.7719 1.1158 0.4288
H12 H 0.7719 1.1114 0.3249
C15 C 1.2668(11) 1.0851(4) 0.4768(4)
H13 H 1.3055 1.1506 0.4740
H14 H 1.3951 1.0473 0.4773
H15 H 1.1857 1.0735 0.5300
C16 C 1.2642(11) 1.0718(4) 0.2785(4)
H16 H 1.3058 1.1368 0.2742
H17 H 1.1809 1.0547 0.2273
H18 H 1.3908 1.0330 0.2815
Si1 Si 1.1013(2) 1.05418(9) 0.37911(10)
C1 C 0.4778(8) 0.0747(3) 0.8853(3)
H1 H 0.3461 0.1127 0.8883
C2 C 0.6154(9) 0.0997(3) 0.9610(3)
C3 C 0.5771(10) 0.0904(3) 1.0516(3)
H2 H 0.4490 0.0641 1.0720
C4 C 0.7297(11) 0.1204(3) 1.1100(4)
H3 H 0.7039 0.1142 1.1705
C5 C 0.9221(11) 0.1599(3) 1.0821(4)
H4 H 1.0237 0.1803 1.1232
C6 C 0.9605(9) 0.1684(3) 0.9933(4)
H5 H 1.0884 0.1954 0.9735
C7 C 0.8116(9) 0.1374(3) 0.9335(3)
C8 C 0.8067(8) 0.1412(3) 0.8371(3)
C9 C 0.9560(8) 0.1747(3) 0.7781(3)
H6 H 1.0870 0.1984 0.7983
C10 C 0.9111(11) 0.1730(3) 0.6887(4)
H7 H 1.0130 0.1933 0.6477
C11 C 0.7154(12) 0.1411(4) 0.6612(4)
H8 H 0.6844 0.1416 0.6008
C12 C 0.5624(10) 0.1082(3) 0.7189(4)
H9 H 0.4299 0.0868 0.6981
C13 C 0.6084(8) 0.1075(3) 0.8085(3)
C14 C 0.6444(9) -0.1273(4) 0.8764(4)
H10 H 0.6050 -0.1927 0.8739
H11 H 0.7281 -0.1158 0.9288
H12 H 0.7281 -0.1114 0.8249
C15 C 0.2332(11) -0.0851(4) 0.9768(4)
H13 H 0.1945 -0.1506 0.9740
H14 H 0.1049 -0.0473 0.9773
H15 H 0.3143 -0.0735 1.0300
C16 C 0.2358(11) -0.0718(4) 0.7785(4)
H16 H 0.1942 -0.1368 0.7742
H17 H 0.3191 -0.0547 0.7273
H18 H 0.1092 -0.0330 0.7815
Si1 Si 0.3987(2) -0.05418(9) 0.87911(10)

#END
