
#######################################################################
#
#                 Cambridge Crystallographic Data Centre
#                                CCDC 
#
#######################################################################
#
# If this CIF has been generated from an entry in the Cambridge 
# Structural Database, then it will include bibliographic, chemical, 
# crystal, experimental, refinement or atomic coordinate data resulting 
# from the CCDC's data processing and validation procedures.
#
#######################################################################

data_KACQUA
_symmetry_cell_setting           monoclinic
_symmetry_space_group_name_H-M   'P 21/n'
_symmetry_Int_Tables_number      14
_space_group_name_Hall           '-P 2yn'
loop_
_symmetry_equiv_pos_site_id
_symmetry_equiv_pos_as_xyz
1 x,y,z
2 1/2-x,1/2+y,1/2-z
3 -x,-y,-z
4 1/2+x,1/2-y,1/2+z
_cell_length_a                   19.509(3)
_cell_length_b                   9.942(2)
_cell_length_c                   23.397(5)
_cell_angle_alpha                90
_cell_angle_beta                 101.46(2)
_cell_angle_gamma                90
_cell_volume                     4447.57
loop_
_atom_site_label
_atom_site_type_symbol
_atom_site_fract_x
_atom_site_fract_y
_atom_site_fract_z
O1 O 0.5252(2) 0.3750(5) 0.3257(2)
O2 O 0.7035(3) 0.3108(5) 0.3228(3)
O3 O 0.4639(3) 0.5598(5) 0.3103(3)
N1 N 0.5760(3) 0.7166(5) 0.3114(2)
C1 C 0.5915(3) 0.3073(7) 0.3485(3)
C2 C 0.6529(3) 0.3788(7) 0.3278(3)
C3 C 0.6467(4) 0.5192(7) 0.3181(3)
C4 C 0.5860(3) 0.5849(6) 0.3187(3)
C5 C 0.5205(3) 0.5086(7) 0.3189(3)
C6 C 0.5814(4) 0.1656(8) 0.3269(4)
C7 C 0.6044(3) 0.3177(6) 0.4144(2)
C8 C 0.6721 0.3066 0.4473
C9 C 0.6834 0.3150 0.5077
C10 C 0.6269 0.3346 0.5351
C11 C 0.5593 0.3457 0.5021
C12 C 0.5480 0.3373 0.4418
H1 H 0.6103 0.7671 0.3068
H2 H 0.5358 0.7517 0.3119
H3 H 0.6863 0.5689 0.3108
H4 H 0.6234 0.1149 0.3403
H5 H 0.5705 0.1654 0.2852
H6 H 0.5435 0.1256 0.3414
H7 H 0.7109 0.2931 0.4285
H8 H 0.7299 0.3074 0.5304
H9 H 0.6347 0.3404 0.5767
H10 H 0.5204 0.3592 0.5210
H11 H 0.5014 0.3449 0.4191
O1 O 0.9748(2) 0.8750(5) 0.1743(2)
O2 O 0.7965(3) 0.8108(5) 0.1772(3)
O3 O 1.0361(3) 1.0598(5) 0.1897(3)
N1 N 0.9240(3) 1.2166(5) 0.1886(2)
C1 C 0.9085(3) 0.8073(7) 0.1515(3)
C2 C 0.8471(3) 0.8788(7) 0.1722(3)
C3 C 0.8533(4) 1.0192(7) 0.1819(3)
C4 C 0.9140(3) 1.0849(6) 0.1813(3)
C5 C 0.9795(3) 1.0086(7) 0.1811(3)
C6 C 0.9186(4) 0.6656(8) 0.1731(4)
C7 C 0.8956(3) 0.8177(6) 0.0856(2)
C8 C 0.8279 0.8066 0.0527
C9 C 0.8166 0.8150 -0.0077
C10 C 0.8731 0.8346 -0.0351
C11 C 0.9407 0.8457 -0.0021
C12 C 0.9520 0.8373 0.0582
H1 H 0.8897 1.2671 0.1932
H2 H 0.9642 1.2517 0.1881
H3 H 0.8137 1.0689 0.1892
H4 H 0.8766 0.6149 0.1597
H5 H 0.9295 0.6654 0.2148
H6 H 0.9565 0.6256 0.1586
H7 H 0.7891 0.7931 0.0715
H8 H 0.7701 0.8074 -0.0304
H9 H 0.8653 0.8404 -0.0767
H10 H 0.9796 0.8592 -0.0210
H11 H 0.9986 0.8449 0.0809
O1 O 0.4748(2) 0.6250(5) 0.6743(2)
O2 O 0.2965(3) 0.6892(5) 0.6772(3)
O3 O 0.5361(3) 0.4402(5) 0.6897(3)
N1 N 0.4240(3) 0.2834(5) 0.6886(2)
C1 C 0.4085(3) 0.6927(7) 0.6515(3)
C2 C 0.3471(3) 0.6212(7) 0.6722(3)
C3 C 0.3533(4) 0.4808(7) 0.6819(3)
C4 C 0.4140(3) 0.4151(6) 0.6813(3)
C5 C 0.4795(3) 0.4914(7) 0.6811(3)
C6 C 0.4186(4) 0.8344(8) 0.6731(4)
C7 C 0.3956(3) 0.6823(6) 0.5856(2)
C8 C 0.3279 0.6934 0.5527
C9 C 0.3166 0.6850 0.4923
C10 C 0.3731 0.6654 0.4649
C11 C 0.4407 0.6543 0.4979
C12 C 0.4520 0.6627 0.5582
H1 H 0.3897 0.2329 0.6932
H2 H 0.4642 0.2483 0.6881
H3 H 0.3137 0.4311 0.6892
H4 H 0.3766 0.8851 0.6597
H5 H 0.4295 0.8346 0.7148
H6 H 0.4565 0.8744 0.6586
H7 H 0.2891 0.7069 0.5715
H8 H 0.2701 0.6926 0.4696
H9 H 0.3653 0.6596 0.4233
H10 H 0.4796 0.6408 0.4790
H11 H 0.4986 0.6551 0.5809
O1 O 0.0252(2) 0.1250(5) 0.8257(2)
O2 O 0.2035(3) 0.1892(5) 0.8228(3)
O3 O -0.0361(3) -0.0598(5) 0.8103(3)
N1 N 0.0760(3) -0.2166(5) 0.8114(2)
C1 C 0.0915(3) 0.1927(7) 0.8485(3)
C2 C 0.1529(3) 0.1212(7) 0.8278(3)
C3 C 0.1467(4) -0.0192(7) 0.8181(3)
C4 C 0.0860(3) -0.0849(6) 0.8187(3)
C5 C 0.0205(3) -0.0086(7) 0.8189(3)
C6 C 0.0814(4) 0.3344(8) 0.8269(4)
C7 C 0.1044(3) 0.1823(6) 0.9144(2)
C8 C 0.1721 0.1934 0.9473
C9 C 0.1834 0.1850 1.0077
C10 C 0.1269 0.1654 1.0351
C11 C 0.0593 0.1543 1.0021
C12 C 0.0480 0.1627 0.9418
H1 H 0.1103 -0.2671 0.8068
H2 H 0.0358 -0.2517 0.8119
H3 H 0.1863 -0.0689 0.8108
H4 H 0.1234 0.3851 0.8403
H5 H 0.0705 0.3346 0.7852
H6 H 0.0435 0.3744 0.8414
H7 H 0.2109 0.2069 0.9285
H8 H 0.2299 0.1926 1.0304
H9 H 0.1347 0.1596 1.0767
H10 H 0.0204 0.1408 1.0210
H11 H 0.0014 0.1551 0.9191
O4 O 0.4035(2) 0.0815(4) 0.3381(2)
O5 O 0.2209(3) 0.1448(5) 0.3372(2)
O6 O 0.4564(2) -0.1026(5) 0.3208(2)
N2 N 0.3404(3) -0.2565(5) 0.3115(3)
C13 C 0.3454(3) 0.1543(6) 0.3553(3)
C14 C 0.2743(4) 0.0810(7) 0.3379(3)
C15 C 0.2759(3) -0.0574(7) 0.3245(3)
C16 C 0.3352(3) -0.1234(7) 0.3217(3)
C17 C 0.4035(4) -0.0495(7) 0.3276(3)
C18 C 0.3417(4) 0.2845(8) 0.3201(4)
C19 C 0.3619(3) 0.1663(6) 0.4206(2)
C20 C 0.3469 0.2844 0.4478
C21 C 0.3613 0.2927 0.5083
C22 C 0.3907 0.1830 0.5415
C23 C 0.4057 0.0650 0.5142
C24 C 0.3913 0.0567 0.4538
H12 H 0.3033 -0.3057 0.3058
H13 H 0.3804 -0.2921 0.3108
H14 H 0.2325 -0.1063 0.3167
H15 H 0.3047 0.3402 0.3283
H16 H 0.3329 0.2631 0.2795
H17 H 0.3854 0.3317 0.3304
H18 H 0.3267 0.3598 0.4250
H19 H 0.3510 0.3739 0.5270
H20 H 0.4006 0.1888 0.5831
H21 H 0.4259 -0.0105 0.5371
H22 H 0.4016 -0.0246 0.4350
O4 O 0.0965(2) 0.5815(4) 0.1619(2)
O5 O 0.2791(3) 0.6448(5) 0.1628(2)
O6 O 0.0436(2) 0.3974(5) 0.1792(2)
N2 N 0.1596(3) 0.2435(5) 0.1885(3)
C13 C 0.1546(3) 0.6543(6) 0.1447(3)
C14 C 0.2257(4) 0.5810(7) 0.1621(3)
C15 C 0.2241(3) 0.4426(7) 0.1755(3)
C16 C 0.1648(3) 0.3766(7) 0.1783(3)
C17 C 0.0965(4) 0.4505(7) 0.1724(3)
C18 C 0.1583(4) 0.7845(8) 0.1799(4)
C19 C 0.1381(3) 0.6663(6) 0.0794(2)
C20 C 0.1531 0.7844 0.0522
C21 C 0.1387 0.7927 -0.0083
C22 C 0.1093 0.6830 -0.0415
C23 C 0.0943 0.5650 -0.0142
C24 C 0.1087 0.5567 0.0462
H12 H 0.1967 0.1943 0.1942
H13 H 0.1196 0.2079 0.1892
H14 H 0.2675 0.3937 0.1833
H15 H 0.1953 0.8402 0.1717
H16 H 0.1671 0.7631 0.2205
H17 H 0.1146 0.8317 0.1696
H18 H 0.1733 0.8598 0.0750
H19 H 0.1490 0.8739 -0.0270
H20 H 0.0994 0.6888 -0.0831
H21 H 0.0741 0.4895 -0.0371
H22 H 0.0984 0.4754 0.0650
O4 O 0.5965(2) 0.9185(4) 0.6619(2)
O5 O 0.7791(3) 0.8552(5) 0.6628(2)
O6 O 0.5436(2) 1.1026(5) 0.6792(2)
N2 N 0.6596(3) 1.2565(5) 0.6885(3)
C13 C 0.6546(3) 0.8457(6) 0.6447(3)
C14 C 0.7257(4) 0.9190(7) 0.6621(3)
C15 C 0.7241(3) 1.0574(7) 0.6755(3)
C16 C 0.6648(3) 1.1234(7) 0.6783(3)
C17 C 0.5965(4) 1.0495(7) 0.6724(3)
C18 C 0.6583(4) 0.7155(8) 0.6799(4)
C19 C 0.6381(3) 0.8337(6) 0.5794(2)
C20 C 0.6531 0.7156 0.5522
C21 C 0.6387 0.7073 0.4917
C22 C 0.6093 0.8170 0.4585
C23 C 0.5943 0.9350 0.4858
C24 C 0.6087 0.9433 0.5462
H12 H 0.6967 1.3057 0.6942
H13 H 0.6196 1.2921 0.6892
H14 H 0.7675 1.1063 0.6833
H15 H 0.6953 0.6598 0.6717
H16 H 0.6671 0.7369 0.7205
H17 H 0.6146 0.6683 0.6696
H18 H 0.6733 0.6402 0.5750
H19 H 0.6490 0.6261 0.4730
H20 H 0.5994 0.8112 0.4169
H21 H 0.5741 1.0105 0.4629
H22 H 0.5984 1.0246 0.5650
O4 O 0.9035(2) 0.4185(4) 0.8381(2)
O5 O 0.7209(3) 0.3552(5) 0.8372(2)
O6 O 0.9564(2) 0.6026(5) 0.8208(2)
N2 N 0.8404(3) 0.7565(5) 0.8115(3)
C13 C 0.8454(3) 0.3457(6) 0.8553(3)
C14 C 0.7743(4) 0.4190(7) 0.8379(3)
C15 C 0.7759(3) 0.5574(7) 0.8245(3)
C16 C 0.8352(3) 0.6234(7) 0.8217(3)
C17 C 0.9035(4) 0.5495(7) 0.8276(3)
C18 C 0.8417(4) 0.2155(8) 0.8201(4)
C19 C 0.8619(3) 0.3337(6) 0.9206(2)
C20 C 0.8469 0.2156 0.9478
C21 C 0.8613 0.2073 1.0083
C22 C 0.8907 0.3170 1.0415
C23 C 0.9057 0.4350 1.0142
C24 C 0.8913 0.4433 0.9538
H12 H 0.8033 0.8057 0.8058
H13 H 0.8804 0.7921 0.8108
H14 H 0.7325 0.6063 0.8167
H15 H 0.8047 0.1598 0.8283
H16 H 0.8329 0.2369 0.7795
H17 H 0.8854 0.1683 0.8304
H18 H 0.8267 0.1402 0.9250
H19 H 0.8510 0.1261 1.0270
H20 H 0.9006 0.3112 1.0831
H21 H 0.9259 0.5105 1.0371
H22 H 0.9016 0.5246 0.9350
O7 O 0.0242(2) 0.5806(5) 0.3316(2)
O8 O 0.2045(3) 0.6488(5) 0.3334(3)
O9 O -0.0360(3) 0.3965(5) 0.3098(3)
N3 N 0.0780(3) 0.2436(5) 0.3097(2)
C25 C 0.0891(3) 0.6564(7) 0.3500(3)
C26 C 0.1515(3) 0.5822(7) 0.3334(3)
C27 C 0.1474(3) 0.4423(7) 0.3223(3)
C28 C 0.0862(3) 0.3757(7) 0.3172(3)
C29 C 0.0201(4) 0.4502(7) 0.3207(3)
C30 C 0.0747(4) 0.7898(8) 0.3190(4)
C31 C 0.1024(3) 0.6657(7) 0.4159(2)
C32 C 0.1277 0.7849 0.4438
C33 C 0.1406 0.7926 0.5042
C34 C 0.1282 0.6810 0.5368
C35 C 0.1030 0.5618 0.5089
C36 C 0.0901 0.5541 0.4484
H23 H 0.1132 0.1934 0.3073
H24 H 0.0372 0.2084 0.3071
H25 H 0.1888 0.3938 0.3185
H26 H 0.1152 0.8465 0.3289
H27 H 0.0354 0.8327 0.3304
H28 H 0.0645 0.7746 0.2778
H29 H 0.1362 0.8616 0.4214
H30 H 0.1580 0.8746 0.5234
H31 H 0.1371 0.6863 0.5784
H32 H 0.0945 0.4850 0.5313
H33 H 0.0727 0.4721 0.4292
O7 O 0.4758(2) 0.0806(5) 0.1684(2)
O8 O 0.2955(3) 0.1488(5) 0.1666(3)
O9 O 0.5360(3) -0.1035(5) 0.1902(3)
N3 N 0.4220(3) -0.2564(5) 0.1903(2)
C25 C 0.4109(3) 0.1564(7) 0.1500(3)
C26 C 0.3485(3) 0.0822(7) 0.1666(3)
C27 C 0.3526(3) -0.0577(7) 0.1777(3)
C28 C 0.4138(3) -0.1243(7) 0.1828(3)
C29 C 0.4799(4) -0.0498(7) 0.1793(3)
C30 C 0.4253(4) 0.2898(8) 0.1810(4)
C31 C 0.3976(3) 0.1657(7) 0.0841(2)
C32 C 0.3723 0.2849 0.0562
C33 C 0.3594 0.2926 -0.0042
C34 C 0.3718 0.1810 -0.0368
C35 C 0.3970 0.0618 -0.0089
C36 C 0.4099 0.0541 0.0516
H23 H 0.3868 -0.3066 0.1927
H24 H 0.4628 -0.2916 0.1929
H25 H 0.3112 -0.1062 0.1815
H26 H 0.3848 0.3465 0.1711
H27 H 0.4646 0.3327 0.1696
H28 H 0.4355 0.2746 0.2222
H29 H 0.3638 0.3616 0.0786
H30 H 0.3420 0.3746 -0.0234
H31 H 0.3629 0.1863 -0.0784
H32 H 0.4055 -0.0150 -0.0313
H33 H 0.4273 -0.0279 0.0708
O7 O 0.9758(2) 0.4194(5) 0.6684(2)
O8 O 0.7955(3) 0.3512(5) 0.6666(3)
O9 O 1.0360(3) 0.6035(5) 0.6902(3)
N3 N 0.9220(3) 0.7564(5) 0.6903(2)
C25 C 0.9109(3) 0.3436(7) 0.6500(3)
C26 C 0.8485(3) 0.4178(7) 0.6666(3)
C27 C 0.8526(3) 0.5577(7) 0.6777(3)
C28 C 0.9138(3) 0.6243(7) 0.6828(3)
C29 C 0.9799(4) 0.5498(7) 0.6793(3)
C30 C 0.9253(4) 0.2102(8) 0.6810(4)
C31 C 0.8976(3) 0.3343(7) 0.5841(2)
C32 C 0.8723 0.2151 0.5562
C33 C 0.8594 0.2074 0.4958
C34 C 0.8718 0.3190 0.4632
C35 C 0.8970 0.4382 0.4911
C36 C 0.9099 0.4459 0.5516
H23 H 0.8868 0.8066 0.6927
H24 H 0.9628 0.7916 0.6929
H25 H 0.8112 0.6062 0.6815
H26 H 0.8848 0.1535 0.6711
H27 H 0.9646 0.1673 0.6696
H28 H 0.9355 0.2254 0.7222
H29 H 0.8638 0.1384 0.5786
H30 H 0.8420 0.1254 0.4766
H31 H 0.8629 0.3137 0.4216
H32 H 0.9055 0.5150 0.4687
H33 H 0.9273 0.5279 0.5708
O7 O 0.5242(2) 0.9194(5) 0.8316(2)
O8 O 0.7045(3) 0.8512(5) 0.8334(3)
O9 O 0.4640(3) 1.1035(5) 0.8098(3)
N3 N 0.5780(3) 1.2564(5) 0.8097(2)
C25 C 0.5891(3) 0.8436(7) 0.8500(3)
C26 C 0.6515(3) 0.9178(7) 0.8334(3)
C27 C 0.6474(3) 1.0577(7) 0.8223(3)
C28 C 0.5862(3) 1.1243(7) 0.8172(3)
C29 C 0.5201(4) 1.0498(7) 0.8207(3)
C30 C 0.5747(4) 0.7102(8) 0.8190(4)
C31 C 0.6024(3) 0.8343(7) 0.9159(2)
C32 C 0.6277 0.7151 0.9438
C33 C 0.6406 0.7074 1.0042
C34 C 0.6282 0.8190 1.0368
C35 C 0.6030 0.9382 1.0089
C36 C 0.5901 0.9459 0.9484
H23 H 0.6132 1.3066 0.8073
H24 H 0.5372 1.2916 0.8071
H25 H 0.6888 1.1062 0.8185
H26 H 0.6152 0.6535 0.8289
H27 H 0.5354 0.6673 0.8304
H28 H 0.5645 0.7254 0.7778
H29 H 0.6362 0.6384 0.9214
H30 H 0.6580 0.6254 1.0234
H31 H 0.6371 0.8137 1.0784
H32 H 0.5945 1.0150 1.0313
H33 H 0.5727 1.0279 0.9292
O10 O 0.9016(2) 0.8757(4) 0.3337(2)
O11 O 0.7216(3) 0.8119(5) 0.3257(2)
O12 O 0.9575(2) 1.0627(5) 0.3232(2)
N4 N 0.8416(3) 1.2190(5) 0.3123(2)
C37 C 0.8441(3) 0.8101(6) 0.3555(3)
C38 C 0.7757(3) 0.8776(7) 0.3306(3)
C39 C 0.7752(3) 1.0186(7) 0.3185(3)
C40 C 0.8360(3) 1.0869(7) 0.3201(3)
C41 C 0.9041(4) 1.0098(7) 0.3273(3)
C42 C 0.8466(4) 0.6675(7) 0.3361(3)
C43 C 0.8609(3) 0.8244(6) 0.4222(2)
C44 C 0.9297 0.8400 0.4523
C45 C 0.9440 0.8470 0.5128
C46 C 0.8896 0.8385 0.5432
C47 C 0.8207 0.8229 0.5130
C48 C 0.8064 0.8158 0.4525
H34 H 0.8050 1.2694 0.3058
H35 H 0.8823 1.2539 0.3138
H36 H 0.7314 1.0658 0.3093
H37 H 0.8106 0.6167 0.3488
H38 H 0.8915 0.6293 0.3525
H39 H 0.8394 0.6646 0.2946
H40 H 0.9672 0.8458 0.4315
H41 H 0.9914 0.8578 0.5336
H42 H 0.8994 0.8434 0.5848
H43 H 0.7833 0.8171 0.5339
H44 H 0.7591 0.8051 0.4317
O10 O 0.5984(2) 0.3757(4) 0.1663(2)
O11 O 0.7784(3) 0.3119(5) 0.1743(2)
O12 O 0.5425(2) 0.5627(5) 0.1768(2)
N4 N 0.6584(3) 0.7190(5) 0.1877(2)
C37 C 0.6559(3) 0.3101(6) 0.1445(3)
C38 C 0.7243(3) 0.3776(7) 0.1694(3)
C39 C 0.7248(3) 0.5186(7) 0.1815(3)
C40 C 0.6640(3) 0.5869(7) 0.1799(3)
C41 C 0.5959(4) 0.5098(7) 0.1727(3)
C42 C 0.6534(4) 0.1675(7) 0.1639(3)
C43 C 0.6391(3) 0.3244(6) 0.0778(2)
C44 C 0.5703 0.3400 0.0477
C45 C 0.5560 0.3470 -0.0128
C46 C 0.6104 0.3385 -0.0432
C47 C 0.6793 0.3229 -0.0130
C48 C 0.6936 0.3158 0.0475
H34 H 0.6950 0.7694 0.1942
H35 H 0.6177 0.7539 0.1862
H36 H 0.7686 0.5658 0.1907
H37 H 0.6894 0.1167 0.1512
H38 H 0.6085 0.1293 0.1475
H39 H 0.6606 0.1646 0.2054
H40 H 0.5328 0.3458 0.0685
H41 H 0.5086 0.3578 -0.0336
H42 H 0.6006 0.3434 -0.0848
H43 H 0.7167 0.3171 -0.0339
H44 H 0.7409 0.3051 0.0683
O10 O 0.0984(2) 0.1243(4) 0.6663(2)
O11 O 0.2784(3) 0.1881(5) 0.6743(2)
O12 O 0.0425(2) -0.0627(5) 0.6768(2)
N4 N 0.1584(3) -0.2190(5) 0.6877(2)
C37 C 0.1559(3) 0.1899(6) 0.6445(3)
C38 C 0.2243(3) 0.1224(7) 0.6694(3)
C39 C 0.2248(3) -0.0186(7) 0.6815(3)
C40 C 0.1640(3) -0.0869(7) 0.6799(3)
C41 C 0.0959(4) -0.0098(7) 0.6727(3)
C42 C 0.1534(4) 0.3325(7) 0.6639(3)
C43 C 0.1391(3) 0.1756(6) 0.5778(2)
C44 C 0.0703 0.1600 0.5477
C45 C 0.0560 0.1530 0.4872
C46 C 0.1104 0.1615 0.4568
C47 C 0.1793 0.1771 0.4870
C48 C 0.1936 0.1842 0.5475
H34 H 0.1950 -0.2694 0.6942
H35 H 0.1177 -0.2539 0.6862
H36 H 0.2686 -0.0658 0.6907
H37 H 0.1894 0.3833 0.6512
H38 H 0.1085 0.3707 0.6475
H39 H 0.1606 0.3354 0.7054
H40 H 0.0328 0.1542 0.5685
H41 H 0.0086 0.1422 0.4664
H42 H 0.1006 0.1566 0.4152
H43 H 0.2167 0.1829 0.4661
H44 H 0.2409 0.1949 0.5683
O10 O 0.4016(2) 0.6243(4) 0.8337(2)
O11 O 0.2216(3) 0.6881(5) 0.8257(2)
O12 O 0.4575(2) 0.4373(5) 0.8232(2)
N4 N 0.3416(3) 0.2810(5) 0.8123(2)
C37 C 0.3441(3) 0.6899(6) 0.8555(3)
C38 C 0.2757(3) 0.6224(7) 0.8306(3)
C39 C 0.2752(3) 0.4814(7) 0.8185(3)
C40 C 0.3360(3) 0.4131(7) 0.8201(3)
C41 C 0.4041(4) 0.4902(7) 0.8273(3)
C42 C 0.3466(4) 0.8325(7) 0.8361(3)
C43 C 0.3609(3) 0.6756(6) 0.9222(2)
C44 C 0.4297 0.6600 0.9523
C45 C 0.4440 0.6530 1.0128
C46 C 0.3896 0.6615 1.0432
C47 C 0.3207 0.6771 1.0130
C48 C 0.3064 0.6842 0.9525
H34 H 0.3050 0.2306 0.8058
H35 H 0.3823 0.2461 0.8138
H36 H 0.2314 0.4342 0.8093
H37 H 0.3106 0.8833 0.8488
H38 H 0.3915 0.8707 0.8525
H39 H 0.3394 0.8354 0.7946
H40 H 0.4672 0.6542 0.9315
H41 H 0.4914 0.6422 1.0336
H42 H 0.3994 0.6566 1.0848
H43 H 0.2833 0.6829 1.0339
H44 H 0.2591 0.6949 0.9317

#END
