
#######################################################################
#
#                 Cambridge Crystallographic Data Centre
#                                CCDC 
#
#######################################################################
#
# If this CIF has been generated from an entry in the Cambridge 
# Structural Database, then it will include bibliographic, chemical, 
# crystal, experimental, refinement or atomic coordinate data resulting 
# from the CCDC's data processing and validation procedures.
#
#######################################################################

data_KACREO
_symmetry_cell_setting           monoclinic
_symmetry_space_group_name_H-M   'P 21'
_symmetry_Int_Tables_number      4
_space_group_name_Hall           'P 2yb'
loop_
_symmetry_equiv_pos_site_id
_symmetry_equiv_pos_as_xyz
1 x,y,z
2 -x,1/2+y,-z
_cell_length_a                   8.2302(13)
_cell_length_b                   7.5727(14)
_cell_length_c                   12.1999(18)
_cell_angle_alpha                90
_cell_angle_beta                 98.675(11)
_cell_angle_gamma                90
_cell_volume                     751.658
loop_
_atom_site_label
_atom_site_type_symbol
_atom_site_fract_x
_atom_site_fract_y
_atom_site_fract_z
I1 I 0.18550(4) 0.33703(10) 0.27254(2)
N1 N 0.4748(6) 0.7402(6) 0.3278(4)
C1 C 0.0246(6) 0.8296(15) 0.2932(4)
C2 C 0.1933(6) 0.8199(14) 0.3410(4)
C3 C 0.1687(7) 0.5725(9) -0.0515(5)
C4 C 0.2605(6) 0.8567(14) -0.1219(5)
C5 C 0.2726(6) 0.6820(8) 0.1674(5)
C6 C 0.4081(6) 0.8797(8) 0.4945(4)
C7 C 0.3167(7) 0.7481(7) 0.2842(5)
C8 C 0.3577(7) 0.9698(9) 0.0946(5)
C9 C 0.2893(6) 0.7984(8) 0.0782(5)
C10 C 0.2416(7) 0.8879(8) 0.4482(5)
C11 C -0.0381(8) 0.9794(9) 0.4539(5)
C12 C 0.2381(7) 0.7412(9) -0.0333(5)
C13 C 0.3770(7) 1.0774(9) 0.0068(5)
C14 C 0.1209(8) 0.9709(9) 0.5037(5)
C15 C 0.5158(7) 0.8024(9) 0.4334(4)
C16 C 0.3272(7) 1.0194(9) -0.1040(5)
C17 C -0.0882(7) 0.9053(7) 0.3478(5)
C18 C 0.1537(7) 0.4607(8) 0.0345(4)
C19 C 0.2086(7) 0.5164(8) 0.1455(5)
H1 H -0.0085 0.7827 0.2230
H2 H 0.1321 0.5358 -0.1237
H3 H 0.2282 0.8191 -0.1945
H4 H 0.4446 0.9254 0.5647
H5 H 0.3902 1.0104 0.1666
H6 H -0.1155 1.0349 0.4903
H7 H 0.4231 1.1890 0.0200
H8 H 0.1513 1.0192 0.5739
H9 H 0.6248 0.7916 0.4663
H10 H 0.3403 1.0923 -0.1634
H11 H -0.1981 0.9087 0.3158
H12 H 0.1080 0.3491 0.0206
I1 I 0.81450(4) -0.16297(10) 0.72746(2)
N1 N 0.5252(6) 0.2402(6) 0.6722(4)
C1 C 0.9754(6) 0.3296(15) 0.7068(4)
C2 C 0.8067(6) 0.3199(14) 0.6590(4)
C3 C 0.8313(7) 0.0725(9) 1.0515(5)
C4 C 0.7395(6) 0.3567(14) 1.1219(5)
C5 C 0.7274(6) 0.1820(8) 0.8326(5)
C6 C 0.5919(6) 0.3797(8) 0.5055(4)
C7 C 0.6833(7) 0.2481(7) 0.7158(5)
C8 C 0.6423(7) 0.4698(9) 0.9054(5)
C9 C 0.7107(6) 0.2984(8) 0.9218(5)
C10 C 0.7584(7) 0.3879(8) 0.5518(5)
C11 C 1.0381(8) 0.4794(9) 0.5461(5)
C12 C 0.7619(7) 0.2412(9) 1.0333(5)
C13 C 0.6230(7) 0.5774(9) 0.9932(5)
C14 C 0.8791(8) 0.4709(9) 0.4963(5)
C15 C 0.4842(7) 0.3024(9) 0.5666(4)
C16 C 0.6728(7) 0.5194(9) 1.1040(5)
C17 C 1.0882(7) 0.4053(7) 0.6522(5)
C18 C 0.8463(7) -0.0393(8) 0.9655(4)
C19 C 0.7914(7) 0.0164(8) 0.8545(5)
H1 H 1.0085 0.2827 0.7770
H2 H 0.8679 0.0358 1.1237
H3 H 0.7718 0.3191 1.1945
H4 H 0.5554 0.4254 0.4353
H5 H 0.6098 0.5104 0.8334
H6 H 1.1155 0.5349 0.5097
H7 H 0.5769 0.6890 0.9800
H8 H 0.8487 0.5192 0.4261
H9 H 0.3752 0.2916 0.5337
H10 H 0.6597 0.5923 1.1634
H11 H 1.1981 0.4087 0.6842
H12 H 0.8920 -0.1509 0.9794

#END
