
#######################################################################
#
#                 Cambridge Crystallographic Data Centre
#                                CCDC 
#
#######################################################################
#
# If this CIF has been generated from an entry in the Cambridge 
# Structural Database, then it will include bibliographic, chemical, 
# crystal, experimental, refinement or atomic coordinate data resulting 
# from the CCDC's data processing and validation procedures.
#
#######################################################################

data_KACRUB01
_symmetry_cell_setting           monoclinic
_symmetry_space_group_name_H-M   'P 21/n'
_symmetry_Int_Tables_number      14
_space_group_name_Hall           '-P 2yn'
loop_
_symmetry_equiv_pos_site_id
_symmetry_equiv_pos_as_xyz
1 x,y,z
2 1/2-x,1/2+y,1/2-z
3 -x,-y,-z
4 1/2+x,1/2-y,1/2+z
_cell_length_a                   11.239(5)
_cell_length_b                   6.830(2)
_cell_length_c                   16.052(8)
_cell_angle_alpha                90
_cell_angle_beta                 105.20(2)
_cell_angle_gamma                90
_cell_volume                     1189.08
loop_
_atom_site_label
_atom_site_type_symbol
_atom_site_fract_x
_atom_site_fract_y
_atom_site_fract_z
V1 V 0.1292(1) 0.0157(2) 0.47300(9)
O1 O 0.0425(5) 0.1131(9) 0.3616(4)
O2 O 0.3741(6) -0.124(1) 0.8014(4)
O3 O 0.2661(5) 0.098(1) 0.4800(4)
O4 O 0.0671(5) 0.1527(9) 0.5361(4)
N1 N 0.1402(6) -0.248(1) 0.4039(4)
N2 N 0.1909(6) -0.196(1) 0.5742(4)
C1 C 0.0614(7) 0.076(1) 0.2849(5)
C2 C 0.0245(8) 0.220(2) 0.2204(6)
C3 C 0.0352(9) 0.185(2) 0.1392(6)
C4 C 0.0811(8) 0.007(2) 0.1174(6)
C5 C 0.1168(8) -0.136(2) 0.1799(6)
C6 C 0.1089(7) -0.102(1) 0.2639(5)
C7 C 0.1372(7) -0.264(1) 0.3252(6)
C8 C 0.1547(7) -0.428(1) 0.4551(5)
C9 C 0.2376(8) -0.379(1) 0.5444(5)
C10 C 0.2826(8) -0.112(1) 0.6495(5)
C11 C 0.2985(8) -0.234(1) 0.7291(6)
H1 H 0.130 -0.250 0.604
H2 H -0.021 0.351 0.236
H3 H 0.381 -0.209 0.864
H4 H 0.006 0.318 0.090
H5 H 0.105 -0.002 0.063
H6 H 0.169 -0.251 0.164
H7 H 0.158 -0.416 0.298
H8 H 0.065 -0.493 0.461
H9 H 0.178 -0.562 0.428
H10 H 0.245 -0.469 0.600
H11 H 0.320 -0.343 0.529
H12 H 0.273 0.036 0.668
H13 H 0.365 -0.094 0.632
H14 H 0.218 -0.206 0.741
V1B V -0.1292(1) -0.0157(2) 0.52700(9)
O1B O -0.0425(5) -0.1131(9) 0.6384(4)
O2B O -0.3741(6) 0.124(1) 0.1986(4)
O3B O -0.2661(5) -0.098(1) 0.5200(4)
O4B O -0.0671(5) -0.1527(9) 0.4639(4)
N1B N -0.1402(6) 0.248(1) 0.5961(4)
N2B N -0.1909(6) 0.196(1) 0.4258(4)
C1B C -0.0614(7) -0.076(1) 0.7151(5)
C2B C -0.0245(8) -0.220(2) 0.7796(6)
C3B C -0.0352(9) -0.185(2) 0.8608(6)
C4B C -0.0811(8) -0.007(2) 0.8826(6)
C5B C -0.1168(8) 0.136(2) 0.8201(6)
C6B C -0.1089(7) 0.102(1) 0.7361(5)
C7B C -0.1372(7) 0.264(1) 0.6748(6)
C8B C -0.1547(7) 0.428(1) 0.5449(5)
C9B C -0.2376(8) 0.379(1) 0.4556(5)
C10B C -0.2826(8) 0.112(1) 0.3505(5)
C11B C -0.2985(8) 0.234(1) 0.2709(6)
H1B H -0.130 0.250 0.396
H2B H 0.021 -0.351 0.764
H3B H -0.381 0.209 0.136
H4B H -0.006 -0.318 0.910
H5B H -0.105 0.002 0.937
H6B H -0.169 0.251 0.836
H7B H -0.158 0.416 0.702
H8B H -0.065 0.493 0.539
H9B H -0.178 0.562 0.572
H10B H -0.245 0.469 0.400
H11B H -0.320 0.343 0.471
H12B H -0.273 -0.036 0.332
H13B H -0.365 0.094 0.368
H14B H -0.218 0.206 0.259
V1 V 0.1292(1) 1.0157(2) 0.47300(9)
O1 O 0.0425(5) 1.1131(9) 0.3616(4)
O2 O 0.3741(6) 0.876(1) 0.8014(4)
O3 O 0.2661(5) 1.098(1) 0.4800(4)
O4 O 0.0671(5) 1.1527(9) 0.5361(4)
N1 N 0.1402(6) 0.752(1) 0.4039(4)
N2 N 0.1909(6) 0.804(1) 0.5742(4)
C1 C 0.0614(7) 1.076(1) 0.2849(5)
C2 C 0.0245(8) 1.220(2) 0.2204(6)
C3 C 0.0352(9) 1.185(2) 0.1392(6)
C4 C 0.0811(8) 1.007(2) 0.1174(6)
C5 C 0.1168(8) 0.864(2) 0.1799(6)
C6 C 0.1089(7) 0.898(1) 0.2639(5)
C7 C 0.1372(7) 0.736(1) 0.3252(6)
C8 C 0.1547(7) 0.572(1) 0.4551(5)
C9 C 0.2376(8) 0.621(1) 0.5444(5)
C10 C 0.2826(8) 0.888(1) 0.6495(5)
C11 C 0.2985(8) 0.766(1) 0.7291(6)
H1 H 0.130 0.750 0.604
H2 H -0.021 1.351 0.236
H3 H 0.381 0.791 0.864
H4 H 0.006 1.318 0.090
H5 H 0.105 0.998 0.063
H6 H 0.169 0.749 0.164
H7 H 0.158 0.584 0.298
H8 H 0.065 0.507 0.461
H9 H 0.178 0.438 0.428
H10 H 0.245 0.531 0.600
H11 H 0.320 0.657 0.529
H12 H 0.273 1.036 0.668
H13 H 0.365 0.906 0.632
H14 H 0.218 0.794 0.741
V1B V -0.1292(1) 0.9843(2) 0.52700(9)
O1B O -0.0425(5) 0.8869(9) 0.6384(4)
O2B O -0.3741(6) 1.124(1) 0.1986(4)
O3B O -0.2661(5) 0.902(1) 0.5200(4)
O4B O -0.0671(5) 0.8473(9) 0.4639(4)
N1B N -0.1402(6) 1.248(1) 0.5961(4)
N2B N -0.1909(6) 1.196(1) 0.4258(4)
C1B C -0.0614(7) 0.924(1) 0.7151(5)
C2B C -0.0245(8) 0.780(2) 0.7796(6)
C3B C -0.0352(9) 0.815(2) 0.8608(6)
C4B C -0.0811(8) 0.993(2) 0.8826(6)
C5B C -0.1168(8) 1.136(2) 0.8201(6)
C6B C -0.1089(7) 1.102(1) 0.7361(5)
C7B C -0.1372(7) 1.264(1) 0.6748(6)
C8B C -0.1547(7) 1.428(1) 0.5449(5)
C9B C -0.2376(8) 1.379(1) 0.4556(5)
C10B C -0.2826(8) 1.112(1) 0.3505(5)
C11B C -0.2985(8) 1.234(1) 0.2709(6)
H1B H -0.130 1.250 0.396
H2B H 0.021 0.649 0.764
H3B H -0.381 1.209 0.136
H4B H -0.006 0.682 0.910
H5B H -0.105 1.002 0.937
H6B H -0.169 1.251 0.836
H7B H -0.158 1.416 0.702
H8B H -0.065 1.493 0.539
H9B H -0.178 1.562 0.572
H10B H -0.245 1.469 0.400
H11B H -0.320 1.343 0.471
H12B H -0.273 0.964 0.332
H13B H -0.365 1.094 0.368
H14B H -0.218 1.206 0.259
V1 V 1.1292(1) 0.0157(2) 0.47300(9)
O1 O 1.0425(5) 0.1131(9) 0.3616(4)
O2 O 1.3741(6) -0.124(1) 0.8014(4)
O3 O 1.2661(5) 0.098(1) 0.4800(4)
O4 O 1.0671(5) 0.1527(9) 0.5361(4)
N1 N 1.1402(6) -0.248(1) 0.4039(4)
N2 N 1.1909(6) -0.196(1) 0.5742(4)
C1 C 1.0614(7) 0.076(1) 0.2849(5)
C2 C 1.0245(8) 0.220(2) 0.2204(6)
C3 C 1.0352(9) 0.185(2) 0.1392(6)
C4 C 1.0811(8) 0.007(2) 0.1174(6)
C5 C 1.1168(8) -0.136(2) 0.1799(6)
C6 C 1.1089(7) -0.102(1) 0.2639(5)
C7 C 1.1372(7) -0.264(1) 0.3252(6)
C8 C 1.1547(7) -0.428(1) 0.4551(5)
C9 C 1.2376(8) -0.379(1) 0.5444(5)
C10 C 1.2826(8) -0.112(1) 0.6495(5)
C11 C 1.2985(8) -0.234(1) 0.7291(6)
H1 H 1.130 -0.250 0.604
H2 H 0.979 0.351 0.236
H3 H 1.381 -0.209 0.864
H4 H 1.006 0.318 0.090
H5 H 1.105 -0.002 0.063
H6 H 1.169 -0.251 0.164
H7 H 1.158 -0.416 0.298
H8 H 1.065 -0.493 0.461
H9 H 1.178 -0.562 0.428
H10 H 1.245 -0.469 0.600
H11 H 1.320 -0.343 0.529
H12 H 1.273 0.036 0.668
H13 H 1.365 -0.094 0.632
H14 H 1.218 -0.206 0.741
V1B V 0.8708(1) -0.0157(2) 0.52700(9)
O1B O 0.9575(5) -0.1131(9) 0.6384(4)
O2B O 0.6259(6) 0.124(1) 0.1986(4)
O3B O 0.7339(5) -0.098(1) 0.5200(4)
O4B O 0.9329(5) -0.1527(9) 0.4639(4)
N1B N 0.8598(6) 0.248(1) 0.5961(4)
N2B N 0.8091(6) 0.196(1) 0.4258(4)
C1B C 0.9386(7) -0.076(1) 0.7151(5)
C2B C 0.9755(8) -0.220(2) 0.7796(6)
C3B C 0.9648(9) -0.185(2) 0.8608(6)
C4B C 0.9189(8) -0.007(2) 0.8826(6)
C5B C 0.8832(8) 0.136(2) 0.8201(6)
C6B C 0.8911(7) 0.102(1) 0.7361(5)
C7B C 0.8628(7) 0.264(1) 0.6748(6)
C8B C 0.8453(7) 0.428(1) 0.5449(5)
C9B C 0.7624(8) 0.379(1) 0.4556(5)
C10B C 0.7174(8) 0.112(1) 0.3505(5)
C11B C 0.7015(8) 0.234(1) 0.2709(6)
H1B H 0.870 0.250 0.396
H2B H 1.021 -0.351 0.764
H3B H 0.619 0.209 0.136
H4B H 0.994 -0.318 0.910
H5B H 0.895 0.002 0.937
H6B H 0.831 0.251 0.836
H7B H 0.842 0.416 0.702
H8B H 0.935 0.493 0.539
H9B H 0.822 0.562 0.572
H10B H 0.755 0.469 0.400
H11B H 0.680 0.343 0.471
H12B H 0.727 -0.036 0.332
H13B H 0.635 0.094 0.368
H14B H 0.782 0.206 0.259
V1 V 1.1292(1) 1.0157(2) 0.47300(9)
O1 O 1.0425(5) 1.1131(9) 0.3616(4)
O2 O 1.3741(6) 0.876(1) 0.8014(4)
O3 O 1.2661(5) 1.098(1) 0.4800(4)
O4 O 1.0671(5) 1.1527(9) 0.5361(4)
N1 N 1.1402(6) 0.752(1) 0.4039(4)
N2 N 1.1909(6) 0.804(1) 0.5742(4)
C1 C 1.0614(7) 1.076(1) 0.2849(5)
C2 C 1.0245(8) 1.220(2) 0.2204(6)
C3 C 1.0352(9) 1.185(2) 0.1392(6)
C4 C 1.0811(8) 1.007(2) 0.1174(6)
C5 C 1.1168(8) 0.864(2) 0.1799(6)
C6 C 1.1089(7) 0.898(1) 0.2639(5)
C7 C 1.1372(7) 0.736(1) 0.3252(6)
C8 C 1.1547(7) 0.572(1) 0.4551(5)
C9 C 1.2376(8) 0.621(1) 0.5444(5)
C10 C 1.2826(8) 0.888(1) 0.6495(5)
C11 C 1.2985(8) 0.766(1) 0.7291(6)
H1 H 1.130 0.750 0.604
H2 H 0.979 1.351 0.236
H3 H 1.381 0.791 0.864
H4 H 1.006 1.318 0.090
H5 H 1.105 0.998 0.063
H6 H 1.169 0.749 0.164
H7 H 1.158 0.584 0.298
H8 H 1.065 0.507 0.461
H9 H 1.178 0.438 0.428
H10 H 1.245 0.531 0.600
H11 H 1.320 0.657 0.529
H12 H 1.273 1.036 0.668
H13 H 1.365 0.906 0.632
H14 H 1.218 0.794 0.741
V1B V 0.8708(1) 0.9843(2) 0.52700(9)
O1B O 0.9575(5) 0.8869(9) 0.6384(4)
O2B O 0.6259(6) 1.124(1) 0.1986(4)
O3B O 0.7339(5) 0.902(1) 0.5200(4)
O4B O 0.9329(5) 0.8473(9) 0.4639(4)
N1B N 0.8598(6) 1.248(1) 0.5961(4)
N2B N 0.8091(6) 1.196(1) 0.4258(4)
C1B C 0.9386(7) 0.924(1) 0.7151(5)
C2B C 0.9755(8) 0.780(2) 0.7796(6)
C3B C 0.9648(9) 0.815(2) 0.8608(6)
C4B C 0.9189(8) 0.993(2) 0.8826(6)
C5B C 0.8832(8) 1.136(2) 0.8201(6)
C6B C 0.8911(7) 1.102(1) 0.7361(5)
C7B C 0.8628(7) 1.264(1) 0.6748(6)
C8B C 0.8453(7) 1.428(1) 0.5449(5)
C9B C 0.7624(8) 1.379(1) 0.4556(5)
C10B C 0.7174(8) 1.112(1) 0.3505(5)
C11B C 0.7015(8) 1.234(1) 0.2709(6)
H1B H 0.870 1.250 0.396
H2B H 1.021 0.649 0.764
H3B H 0.619 1.209 0.136
H4B H 0.994 0.682 0.910
H5B H 0.895 1.002 0.937
H6B H 0.831 1.251 0.836
H7B H 0.842 1.416 0.702
H8B H 0.935 1.493 0.539
H9B H 0.822 1.562 0.572
H10B H 0.755 1.469 0.400
H11B H 0.680 1.343 0.471
H12B H 0.727 0.964 0.332
H13B H 0.635 1.094 0.368
H14B H 0.782 1.206 0.259
V1 V 0.3708(1) 0.5157(2) 0.02700(9)
O1 O 0.4575(5) 0.6131(9) 0.1384(4)
O2 O 0.1259(6) 0.376(1) -0.3014(4)
O3 O 0.2339(5) 0.598(1) 0.0200(4)
O4 O 0.4329(5) 0.6527(9) -0.0361(4)
N1 N 0.3598(6) 0.252(1) 0.0961(4)
N2 N 0.3091(6) 0.304(1) -0.0742(4)
C1 C 0.4386(7) 0.576(1) 0.2151(5)
C2 C 0.4755(8) 0.720(2) 0.2796(6)
C3 C 0.4648(9) 0.685(2) 0.3608(6)
C4 C 0.4189(8) 0.507(2) 0.3826(6)
C5 C 0.3832(8) 0.364(2) 0.3201(6)
C6 C 0.3911(7) 0.398(1) 0.2361(5)
C7 C 0.3628(7) 0.236(1) 0.1748(6)
C8 C 0.3453(7) 0.072(1) 0.0449(5)
C9 C 0.2624(8) 0.121(1) -0.0444(5)
C10 C 0.2174(8) 0.388(1) -0.1495(5)
C11 C 0.2015(8) 0.266(1) -0.2291(6)
H1 H 0.370 0.250 -0.104
H2 H 0.521 0.851 0.264
H3 H 0.119 0.291 -0.364
H4 H 0.494 0.818 0.410
H5 H 0.395 0.498 0.437
H6 H 0.331 0.249 0.336
H7 H 0.342 0.084 0.202
H8 H 0.435 0.007 0.039
H9 H 0.322 -0.062 0.072
H10 H 0.255 0.031 -0.100
H11 H 0.180 0.157 -0.029
H12 H 0.227 0.536 -0.168
H13 H 0.135 0.406 -0.132
H14 H 0.282 0.294 -0.241
V1B V 0.6292(1) 0.4843(2) -0.02700(9)
O1B O 0.5425(5) 0.3869(9) -0.1384(4)
O2B O 0.8741(6) 0.624(1) 0.3014(4)
O3B O 0.7661(5) 0.402(1) -0.0200(4)
O4B O 0.5671(5) 0.3473(9) 0.0361(4)
N1B N 0.6402(6) 0.748(1) -0.0961(4)
N2B N 0.6909(6) 0.696(1) 0.0742(4)
C1B C 0.5614(7) 0.424(1) -0.2151(5)
C2B C 0.5245(8) 0.280(2) -0.2796(6)
C3B C 0.5352(9) 0.315(2) -0.3608(6)
C4B C 0.5811(8) 0.493(2) -0.3826(6)
C5B C 0.6168(8) 0.636(2) -0.3201(6)
C6B C 0.6089(7) 0.602(1) -0.2361(5)
C7B C 0.6372(7) 0.764(1) -0.1748(6)
C8B C 0.6547(7) 0.928(1) -0.0449(5)
C9B C 0.7376(8) 0.879(1) 0.0444(5)
C10B C 0.7826(8) 0.612(1) 0.1495(5)
C11B C 0.7985(8) 0.734(1) 0.2291(6)
H1B H 0.630 0.750 0.104
H2B H 0.479 0.149 -0.264
H3B H 0.881 0.709 0.364
H4B H 0.506 0.182 -0.410
H5B H 0.605 0.502 -0.437
H6B H 0.669 0.751 -0.336
H7B H 0.658 0.916 -0.202
H8B H 0.565 0.993 -0.039
H9B H 0.678 1.062 -0.072
H10B H 0.745 0.969 0.100
H11B H 0.820 0.843 0.029
H12B H 0.773 0.464 0.168
H13B H 0.865 0.594 0.132
H14B H 0.718 0.706 0.241
V1 V 0.3708(1) 0.5157(2) 1.02700(9)
O1 O 0.4575(5) 0.6131(9) 1.1384(4)
O2 O 0.1259(6) 0.376(1) 0.6986(4)
O3 O 0.2339(5) 0.598(1) 1.0200(4)
O4 O 0.4329(5) 0.6527(9) 0.9639(4)
N1 N 0.3598(6) 0.252(1) 1.0961(4)
N2 N 0.3091(6) 0.304(1) 0.9258(4)
C1 C 0.4386(7) 0.576(1) 1.2151(5)
C2 C 0.4755(8) 0.720(2) 1.2796(6)
C3 C 0.4648(9) 0.685(2) 1.3608(6)
C4 C 0.4189(8) 0.507(2) 1.3826(6)
C5 C 0.3832(8) 0.364(2) 1.3201(6)
C6 C 0.3911(7) 0.398(1) 1.2361(5)
C7 C 0.3628(7) 0.236(1) 1.1748(6)
C8 C 0.3453(7) 0.072(1) 1.0449(5)
C9 C 0.2624(8) 0.121(1) 0.9556(5)
C10 C 0.2174(8) 0.388(1) 0.8505(5)
C11 C 0.2015(8) 0.266(1) 0.7709(6)
H1 H 0.370 0.250 0.896
H2 H 0.521 0.851 1.264
H3 H 0.119 0.291 0.636
H4 H 0.494 0.818 1.410
H5 H 0.395 0.498 1.437
H6 H 0.331 0.249 1.336
H7 H 0.342 0.084 1.202
H8 H 0.435 0.007 1.039
H9 H 0.322 -0.062 1.072
H10 H 0.255 0.031 0.900
H11 H 0.180 0.157 0.971
H12 H 0.227 0.536 0.832
H13 H 0.135 0.406 0.868
H14 H 0.282 0.294 0.759
V1B V 0.6292(1) 0.4843(2) 0.97300(9)
O1B O 0.5425(5) 0.3869(9) 0.8616(4)
O2B O 0.8741(6) 0.624(1) 1.3014(4)
O3B O 0.7661(5) 0.402(1) 0.9800(4)
O4B O 0.5671(5) 0.3473(9) 1.0361(4)
N1B N 0.6402(6) 0.748(1) 0.9039(4)
N2B N 0.6909(6) 0.696(1) 1.0742(4)
C1B C 0.5614(7) 0.424(1) 0.7849(5)
C2B C 0.5245(8) 0.280(2) 0.7204(6)
C3B C 0.5352(9) 0.315(2) 0.6392(6)
C4B C 0.5811(8) 0.493(2) 0.6174(6)
C5B C 0.6168(8) 0.636(2) 0.6799(6)
C6B C 0.6089(7) 0.602(1) 0.7639(5)
C7B C 0.6372(7) 0.764(1) 0.8252(6)
C8B C 0.6547(7) 0.928(1) 0.9551(5)
C9B C 0.7376(8) 0.879(1) 1.0444(5)
C10B C 0.7826(8) 0.612(1) 1.1495(5)
C11B C 0.7985(8) 0.734(1) 1.2291(6)
H1B H 0.630 0.750 1.104
H2B H 0.479 0.149 0.736
H3B H 0.881 0.709 1.364
H4B H 0.506 0.182 0.590
H5B H 0.605 0.502 0.563
H6B H 0.669 0.751 0.664
H7B H 0.658 0.916 0.798
H8B H 0.565 0.993 0.961
H9B H 0.678 1.062 0.928
H10B H 0.745 0.969 1.100
H11B H 0.820 0.843 1.029
H12B H 0.773 0.464 1.168
H13B H 0.865 0.594 1.132
H14B H 0.718 0.706 1.241
H15? H 0.302 0.211 0.763
H15? H 0.198 0.711 0.737
H15? H 0.698 0.789 0.237
H15? H 0.802 0.289 0.263

#END
