./KACRUB03_from_POSCAR.cif_generated_by_CrystalShift
_symmetry_cell_setting triclinic
_symmetry_space_group_name_H-M 'P 1'
loop_
_symmetry_equiv_pos_site_id
_symmetry_equiv_pos_as_xyz
1 x,y,z
_cell_length_a 10.229000
_cell_length_b 10.967000
_cell_length_c 10.547000
_cell_angle_alpha 90.000000
_cell_angle_beta 92.152000
_cell_angle_gamma 90.000000
_cell_volume 1182.343214
loop_
_atom_site_label
_atom_site_type_symbol
_atom_site_fract_x
_atom_site_fract_y
_atom_site_fract_z
H1 H 1.283400 0.460700 0.874700
H2 H 1.081000 0.402300 0.907000
H3 H 1.064500 0.540200 0.872000
H4 H 0.844700 0.437400 0.863400
H5 H 0.890400 0.303000 0.838000
H6 H 0.782600 0.303700 0.639300
H7 H 0.680900 0.343200 0.740200
H8 H 0.226200 -0.065600 0.158200
H9 H 0.563000 0.490500 0.653500
H10 H 0.731600 0.839500 0.361100
H11 H 0.527500 0.923600 0.373300
H12 H -0.576800 -0.164700 0.114500
H13 H 0.374700 0.840400 0.504300
H14 H -0.625300 -0.340400 0.004300
H15 H 0.423200 0.664700 0.614500
H16 H -0.472500 -0.423600 -0.126700
H17 H 1.226200 0.565600 0.658200
H18 H -0.268400 -0.339500 -0.138900
H19 H 0.716600 0.539300 0.125300
H20 H -0.437000 0.009500 0.153500
H21 H 0.756600 0.606700 0.251500
H22 H -0.319100 0.156800 0.240200
H23 H -0.217400 0.196300 0.139300
H24 H 0.919000 0.597700 0.093000
H25 H -0.109600 0.197000 0.338000
H26 H -0.155300 0.062600 0.363400
H27 H 0.935500 0.459800 0.128000
H28 H 0.064500 -0.040200 0.372000
H29 H 0.081000 0.097700 0.407000
H30 H 1.155300 0.562600 0.136600
H31 H 0.243400 0.106700 0.248500
H32 H 0.283400 0.039300 0.374700
H33 H 1.109600 0.697000 0.162000
H34 H 1.217400 0.696300 0.360700
H35 H 1.319100 0.656800 0.259800
H36 H 1.437000 0.509500 0.346500
H37 H 1.268400 0.160500 0.638900
H38 H 1.472500 0.076400 0.626700
H39 H 1.625300 0.159600 0.495700
H40 H -0.226200 0.065600 -0.158200
H41 H 1.576800 0.335300 0.385500
H42 H 0.773800 0.434400 0.341800
H43 H 0.283400 0.460700 0.874700
H44 H 0.576800 0.164700 -0.114500
H45 H 0.243400 0.393300 0.748500
H46 H 0.625300 0.340400 -0.004300
H47 H 0.081000 0.402300 0.907000
H48 H 0.472500 0.423600 0.126700
H49 H 0.064500 0.540200 0.872000
H50 H 0.268400 0.339500 0.138900
H51 H -0.155300 0.437400 0.863400
H52 H 0.437000 -0.009500 -0.153500
H53 H -0.109600 0.303000 0.838000
H54 H 0.319100 -0.156800 -0.240200
H55 H 0.217400 -0.196300 -0.139300
H56 H -0.217400 0.303700 0.639300
H57 H 0.109600 -0.197000 -0.338000
H58 H 0.155300 -0.062600 -0.363400
H59 H -0.319100 0.343200 0.740200
H60 H -0.064500 0.040200 -0.372000
H61 H -0.081000 -0.097700 -0.407000
H62 H -0.437000 0.490500 0.653500
H63 H -0.243400 -0.106700 -0.248500
H64 H -0.283400 -0.039300 -0.374700
H65 H -0.268400 0.839500 0.361100
H66 H -0.472500 0.923600 0.373300
H67 H -0.625300 0.840400 0.504300
H68 H -0.576800 0.664700 0.614500
H69 H 0.226200 0.565600 0.658200
H70 H -0.283400 0.539300 0.125300
H71 H -0.243400 0.606700 0.251500
H72 H 0.226200 -0.065600 1.158200
H73 H -0.081000 0.597700 0.093000
H74 H -0.064500 0.459800 0.128000
H75 H 0.155300 0.562600 0.136600
H76 H -0.576800 -0.164700 1.114500
H77 H 0.109600 0.697000 0.162000
H78 H -0.625300 -0.340400 1.004300
H79 H 0.217400 0.696300 0.360700
H80 H -0.472500 -0.423600 0.873300
H81 H 0.319100 0.656800 0.259800
H82 H -0.268400 -0.339500 0.861100
H83 H 0.437000 0.509500 0.346500
H84 H -0.437000 0.009500 1.153500
H85 H 0.268400 0.160500 0.638900
H86 H -0.319100 0.156800 1.240200
H87 H -0.217400 0.196300 1.139300
H88 H 0.472500 0.076400 0.626700
H89 H -0.109600 0.197000 1.338000
H90 H -0.155300 0.062600 1.363400
H91 H 0.625300 0.159600 0.495700
H92 H 0.064500 -0.040200 1.372000
H93 H 0.081000 0.097700 1.407000
H94 H 0.576800 0.335300 0.385500
H95 H 0.243400 0.106700 1.248500
H96 H 0.283400 0.039300 1.374700
H97 H -0.226200 0.434400 0.341800
H98 H 0.716600 0.960700 0.625300
H99 H 0.756600 0.893300 0.751500
H100 H 0.919000 0.902300 0.593000
H101 H 0.935500 1.040200 0.628000
H102 H 1.155300 0.937400 0.636600
H103 H 1.109600 0.803000 0.662000
H104 H -0.226200 0.065600 0.841800
H105 H 1.217400 0.803700 0.860700
H106 H 1.319100 0.843200 0.759800
H107 H 1.437000 0.990500 0.846500
H108 H 0.576800 0.164700 0.885500
H109 H 1.268400 1.339500 1.138900
H110 H 0.625300 0.340400 0.995700
H111 H 1.472500 1.423600 1.126700
H112 H 0.472500 0.423600 1.126700
H113 H 1.625300 1.340400 0.995700
H114 H 0.268400 0.339500 1.138900
H115 H 1.576800 1.164700 0.885500
H116 H 0.437000 -0.009500 0.846500
H117 H 0.773800 1.065600 0.841800
H118 H 0.319100 -0.156800 0.759800
H119 H 0.217400 -0.196300 0.860700
H120 H 1.283400 1.039300 1.374700
H121 H 0.109600 -0.197000 0.662000
H122 H 0.155300 -0.062600 0.636600
H123 H 1.243400 1.106700 1.248500
H124 H -0.064500 0.040200 0.628000
H125 H -0.081000 -0.097700 0.593000
H126 H 1.081000 1.097700 1.407000
H127 H -0.243400 -0.106700 0.751500
H128 H -0.283400 -0.039300 0.625300
H129 H 1.064500 0.959800 1.372000
H130 H 0.844700 1.062600 1.363400
H131 H 0.890400 1.197000 1.338000
H132 H 0.782600 1.196300 1.139300
H133 H 0.680900 1.156800 1.240200
H134 H 0.563000 1.009500 1.153500
H135 H 0.731600 0.660500 0.861100
H136 H 0.226200 0.934400 0.158200
H137 H 0.527500 0.576400 0.873300
H138 H 0.374700 0.659600 1.004300
H139 H 0.423200 0.835300 1.114500
H140 H -0.576800 0.835300 0.114500
H141 H 1.226200 0.934400 1.158200
H142 H -0.625300 0.659600 0.004300
H143 H 0.716600 0.960700 -0.374700
H144 H -0.472500 0.576400 -0.126700
H145 H 0.756600 0.893300 -0.248500
H146 H -0.268400 0.660500 -0.138900
H147 H 0.919000 0.902300 -0.407000
H148 H -0.437000 1.009500 0.153500
H149 H 0.935500 1.040200 -0.372000
H150 H -0.319100 1.156800 0.240200
H151 H -0.217400 1.196300 0.139300
H152 H 1.155300 0.937400 -0.363400
H153 H -0.109600 1.197000 0.338000
H154 H -0.155300 1.062600 0.363400
H155 H 1.109600 0.803000 -0.338000
H156 H 0.064500 0.959800 0.372000
H157 H 0.081000 1.097700 0.407000
H158 H 1.217400 0.803700 -0.139300
H159 H 0.243400 1.106700 0.248500
H160 H 0.283400 1.039300 0.374700
H161 H 1.319100 0.843200 -0.240200
H162 H 1.437000 0.990500 -0.153500
H163 H 1.268400 1.339500 0.138900
H164 H 1.472500 1.423600 0.126700
H165 H 1.625300 1.340400 -0.004300
H166 H 1.576800 1.164700 -0.114500
H167 H 0.773800 1.065600 -0.158200
H168 H -0.226200 1.065600 -0.158200
H169 H 1.283400 1.039300 0.374700
H170 H 1.243400 1.106700 0.248500
H171 H 1.081000 1.097700 0.407000
H172 H 0.576800 1.164700 -0.114500
H173 H 1.064500 0.959800 0.372000
H174 H 0.625300 1.340400 -0.004300
H175 H 0.844700 1.062600 0.363400
H176 H 0.472500 1.423600 0.126700
H177 H 0.890400 1.197000 0.338000
H178 H 0.268400 1.339500 0.138900
H179 H 0.782600 1.196300 0.139300
H180 H 0.437000 0.990500 -0.153500
H181 H 0.680900 1.156800 0.240200
H182 H 0.319100 0.843200 -0.240200
H183 H 0.217400 0.803700 -0.139300
H184 H 0.563000 1.009500 0.153500
H185 H 0.109600 0.803000 -0.338000
H186 H 0.155300 0.937400 -0.363400
H187 H 0.731600 0.660500 -0.138900
H188 H -0.064500 1.040200 -0.372000
H189 H -0.081000 0.902300 -0.407000
H190 H 0.527500 0.576400 -0.126700
H191 H -0.243400 0.893300 -0.248500
H192 H -0.283400 0.960700 -0.374700
H193 H 0.374700 0.659600 0.004300
H194 H 0.423200 0.835300 0.114500
H195 H 1.226200 0.934400 0.158200
H196 H 0.716600 -0.039300 0.625300
H197 H 0.756600 -0.106700 0.751500
H198 H 0.919000 -0.097700 0.593000
H199 H 0.935500 0.040200 0.628000
H200 H 0.226200 0.934400 1.158200
H201 H 1.155300 -0.062600 0.636600
H202 H 1.109600 -0.197000 0.662000
H203 H 1.217400 -0.196300 0.860700
H204 H -0.576800 0.835300 1.114500
H205 H 1.319100 -0.156800 0.759800
H206 H -0.625300 0.659600 1.004300
H207 H 1.437000 -0.009500 0.846500
H208 H -0.472500 0.576400 0.873300
H209 H 1.268400 0.339500 1.138900
H210 H -0.268400 0.660500 0.861100
H211 H 1.472500 0.423600 1.126700
H212 H -0.437000 1.009500 1.153500
H213 H 1.625300 0.340400 0.995700
H214 H -0.319100 1.156800 1.240200
H215 H -0.217400 1.196300 1.139300
H216 H 1.576800 0.164700 0.885500
H217 H -0.109600 1.197000 1.338000
H218 H -0.155300 1.062600 1.363400
H219 H 0.773800 0.065600 0.841800
H220 H 0.064500 0.959800 1.372000
H221 H 0.081000 1.097700 1.407000
H222 H 1.283400 0.039300 1.374700
H223 H 0.243400 1.106700 1.248500
H224 H 0.283400 1.039300 1.374700
H225 H 1.243400 0.106700 1.248500
H226 H 1.081000 0.097700 1.407000
H227 H 1.064500 -0.040200 1.372000
H228 H 0.844700 0.062600 1.363400
H229 H 0.890400 0.197000 1.338000
H230 H 0.782600 0.196300 1.139300
H231 H 0.680900 0.156800 1.240200
H232 H -0.226200 1.065600 0.841800
H233 H 0.563000 0.009500 1.153500
H234 H 0.731600 -0.339500 0.861100
H235 H 0.527500 -0.423600 0.873300
H236 H 0.576800 1.164700 0.885500
H237 H 0.374700 -0.340400 1.004300
H238 H 0.625300 1.340400 0.995700
H239 H 0.423200 -0.164700 1.114500
H240 H 0.472500 1.423600 1.126700
H241 H 1.226200 -0.065600 1.158200
H242 H 0.268400 1.339500 1.138900
H243 H 0.716600 -0.039300 -0.374700
H244 H 0.437000 0.990500 0.846500
H245 H 0.756600 -0.106700 -0.248500
H246 H 0.319100 0.843200 0.759800
H247 H 0.217400 0.803700 0.860700
H248 H 0.919000 -0.097700 -0.407000
H249 H 0.109600 0.803000 0.662000
H250 H 0.155300 0.937400 0.636600
H251 H 0.935500 0.040200 -0.372000
H252 H -0.064500 1.040200 0.628000
H253 H -0.081000 0.902300 0.593000
H254 H 1.155300 -0.062600 -0.363400
H255 H -0.243400 0.893300 0.751500
H256 H -0.283400 0.960700 0.625300
H257 H 1.109600 -0.197000 -0.338000
H258 H 1.217400 -0.196300 -0.139300
H259 H 1.319100 -0.156800 -0.240200
H260 H 1.437000 -0.009500 -0.153500
H261 H 1.268400 0.339500 0.138900
H262 H 1.472500 0.423600 0.126700
H263 H 1.625300 0.340400 -0.004300
H264 H 1.226200 -0.065600 0.158200
H265 H 1.576800 0.164700 -0.114500
H266 H 0.773800 0.065600 -0.158200
H267 H 1.283400 0.039300 0.374700
H268 H 0.423200 -0.164700 0.114500
H269 H 1.243400 0.106700 0.248500
H270 H 0.374700 -0.340400 0.004300
H271 H 1.081000 0.097700 0.407000
H272 H 0.527500 -0.423600 -0.126700
H273 H 1.064500 -0.040200 0.372000
H274 H 0.731600 -0.339500 -0.138900
H275 H 0.844700 0.062600 0.363400
H276 H 0.563000 0.009500 0.153500
H277 H 0.890400 0.197000 0.338000
H278 H 0.680900 0.156800 0.240200
H279 H 0.782600 0.196300 0.139300
H280 H 1.243400 0.393300 0.748500
C281 C 0.761200 0.133900 0.200300
C282 C 0.634300 -0.032100 0.122500
C283 C 1.087100 0.039100 0.338500
C284 C 0.671200 -0.304400 -0.086100
C285 C 0.548800 -0.354600 -0.079000
C286 C 1.226700 0.034900 0.299100
C287 C 0.456300 -0.304000 -0.001900
C288 C 0.486100 -0.200300 0.064900
C289 C 1.226700 0.465100 0.799100
C290 C 1.087100 0.460900 0.838500
C291 C 0.870800 0.381000 0.798200
C292 C 0.761200 0.366100 0.700300
C293 C -0.294100 -0.201600 -0.015200
C294 C 0.634300 0.532100 0.622500
C295 C -0.390000 -0.146900 0.059600
C296 C 0.610000 -0.146900 0.059600
C297 C 1.294100 0.201600 0.015200
C298 C 1.390000 0.146900 -0.059600
C299 C 1.513900 0.200300 -0.064900
C300 C 0.705900 -0.201600 -0.015200
C301 C 1.543700 0.304000 0.001900
C302 C 0.671200 0.804400 0.413900
C303 C 1.451200 0.354600 0.079000
C304 C -0.513900 -0.200300 0.064900
C305 C 1.328800 0.304400 0.086100
C306 C 0.548800 0.854600 0.421000
C307 C 1.365700 0.032100 -0.122500
C308 C -0.543700 -0.304000 -0.001900
C309 C 1.238800 -0.133900 -0.200300
C310 C 0.456300 0.804000 0.498100
C311 C -0.451200 -0.354600 -0.079000
C312 C 1.129200 -0.119000 -0.298200
C313 C 0.486100 0.700300 0.564900
C314 C -0.226700 0.965100 0.700900
C315 C 0.912900 -0.039100 -0.338500
C316 C -0.087100 0.960900 0.661500
C317 C 0.129200 0.881000 0.701800
C318 C 0.773300 -0.034900 -0.299100
C319 C 0.238800 0.866100 0.799700
C320 C 0.365700 1.032100 0.877500
C321 C 0.610000 0.646900 0.559600
C322 C 0.705900 0.701600 0.484800
C323 C -0.328800 -0.304400 -0.086100
C324 C -0.365700 -0.032100 0.122500
C325 C -0.238800 0.133900 0.200300
C326 C 0.773300 0.534900 0.200900
C327 C -0.129200 0.119000 0.298200
C328 C 0.328800 1.304400 1.086100
C329 C 0.705900 -0.201600 0.984800
C330 C 0.610000 -0.146900 1.059600
C331 C 0.486100 -0.200300 1.064900
C332 C 0.451200 1.354600 1.079000
C333 C 0.456300 -0.304000 0.998100
C334 C 0.543700 1.304000 1.001900
C335 C 0.548800 -0.354600 0.921000
C336 C 0.513900 1.200300 0.935100
C337 C 0.671200 -0.304400 0.913900
C338 C 0.390000 1.146900 0.940400
C339 C 0.634300 -0.032100 1.122500
C340 C 0.294100 1.201600 1.015200
C341 C 0.761200 0.133900 1.200300
C342 C 0.087100 0.039100 0.338500
C343 C 0.912900 0.539100 0.161500
C344 C 0.870800 0.119000 1.298200
C345 C 0.226700 0.034900 0.299100
C346 C 1.129200 0.619000 0.201800
C347 C 1.087100 0.039100 1.338500
C348 C 1.238800 0.633900 0.299700
C349 C 1.365700 0.467900 0.377500
C350 C 1.226700 0.034900 1.299100
C351 C 1.328800 0.195600 0.586100
C352 C 0.226700 1.034900 1.299100
C353 C 1.451200 0.145400 0.579000
C354 C 1.543700 0.196000 0.501900
C355 C 0.294100 0.201600 0.015200
C356 C 1.513900 0.299700 0.435100
C357 C 1.390000 0.353100 0.440400
C358 C 1.294100 0.298400 0.515200
C359 C 0.390000 0.146900 -0.059600
C360 C 0.087100 1.039100 1.338500
C361 C 1.294100 0.201600 1.015200
C362 C 1.390000 0.146900 0.940400
C363 C 1.513900 0.200300 0.935100
C364 C -0.129200 1.119000 1.298200
C365 C 1.543700 0.304000 1.001900
C366 C -0.238800 1.133900 1.200300
C367 C 1.451200 0.354600 1.079000
C368 C -0.365700 0.967900 1.122500
C369 C 1.328800 0.304400 1.086100
C370 C -0.328800 0.695600 0.913900
C371 C 1.365700 0.032100 0.877500
C372 C -0.451200 0.645400 0.921000
C373 C 1.238800 -0.133900 0.799700
C374 C -0.543700 0.696000 0.998100
C375 C -0.513900 0.799700 1.064900
C376 C 1.129200 -0.119000 0.701800
C377 C -0.390000 0.853100 1.059600
C378 C -0.294100 0.798400 0.984800
C379 C 0.912900 -0.039100 0.661500
C380 C 0.513900 0.200300 -0.064900
C381 C 0.543700 0.304000 0.001900
C382 C 0.773300 -0.034900 0.700900
C383 C 0.226700 0.465100 0.799100
C384 C 0.451200 0.354600 0.079000
C385 C 0.328800 0.304400 0.086100
C386 C 0.087100 0.460900 0.838500
C387 C 0.365700 0.032100 -0.122500
C388 C 0.238800 -0.133900 -0.200300
C389 C -0.129200 0.381000 0.798200
C390 C 0.129200 -0.119000 -0.298200
C391 C -0.087100 -0.039100 -0.338500
C392 C -0.238800 0.366100 0.700300
C393 C 0.705900 0.798400 -0.015200
C394 C 0.610000 0.853100 0.059600
C395 C 0.486100 0.799700 0.064900
C396 C -0.226700 -0.034900 -0.299100
C397 C 0.456300 0.696000 -0.001900
C398 C -0.365700 0.532100 0.622500
C399 C 0.548800 0.645400 -0.079000
C400 C -0.226700 0.965100 -0.299100
C401 C 0.671200 0.695600 -0.086100
C402 C -0.087100 0.960900 -0.338500
C403 C 0.634300 0.967900 0.122500
C404 C 0.129200 0.881000 -0.298200
C405 C 0.761200 1.133900 0.200300
C406 C 0.238800 0.866100 -0.200300
C407 C 0.365700 1.032100 -0.122500
C408 C 0.870800 1.119000 0.298200
C409 C 0.328800 1.304400 0.086100
C410 C 0.451200 1.354600 0.079000
C411 C 1.087100 1.039100 0.338500
C412 C 0.543700 1.304000 0.001900
C413 C 0.513900 1.200300 -0.064900
C414 C 1.226700 1.034900 0.299100
C415 C 0.390000 1.146900 -0.059600
C416 C 0.294100 1.201600 0.015200
C417 C -0.328800 0.804400 0.413900
C418 C -0.451200 0.854600 0.421000
C419 C -0.543700 0.804000 0.498100
C420 C -0.513900 0.700300 0.564900
C421 C -0.390000 0.646900 0.559600
C422 C -0.294100 0.701600 0.484800
C423 C -0.226700 0.534900 0.200900
C424 C -0.294100 -0.201600 0.984800
C425 C 1.294100 1.201600 0.015200
C426 C 1.390000 1.146900 -0.059600
C427 C 1.513900 1.200300 -0.064900
C428 C -0.390000 -0.146900 1.059600
C429 C 1.543700 1.304000 0.001900
C430 C -0.087100 0.539100 0.161500
C431 C 1.451200 1.354600 0.079000
C432 C -0.513900 -0.200300 1.064900
C433 C 1.328800 1.304400 0.086100
C434 C -0.543700 -0.304000 0.998100
C435 C 1.365700 1.032100 -0.122500
C436 C 0.129200 0.619000 0.201800
C437 C 1.238800 0.866100 -0.200300
C438 C -0.451200 -0.354600 0.921000
C439 C 0.226700 1.034900 0.299100
C440 C 1.129200 0.881000 -0.298200
C441 C 0.087100 1.039100 0.338500
C442 C -0.129200 1.119000 0.298200
C443 C 0.912900 0.960900 -0.338500
C444 C -0.238800 1.133900 0.200300
C445 C -0.365700 0.967900 0.122500
C446 C 0.773300 0.965100 -0.299100
C447 C -0.328800 0.695600 -0.086100
C448 C -0.451200 0.645400 -0.079000
C449 C -0.328800 -0.304400 0.913900
C450 C 0.238800 0.633900 0.299700
C451 C -0.365700 -0.032100 1.122500
C452 C 0.365700 0.467900 0.377500
C453 C -0.238800 0.133900 1.200300
C454 C 0.328800 0.195600 0.586100
C455 C -0.129200 0.119000 1.298200
C456 C -0.543700 0.696000 -0.001900
C457 C 0.705900 0.798400 0.984800
C458 C 0.610000 0.853100 1.059600
C459 C 0.486100 0.799700 1.064900
C460 C -0.513900 0.799700 0.064900
C461 C 0.456300 0.696000 0.998100
C462 C -0.390000 0.853100 0.059600
C463 C 0.548800 0.645400 0.921000
C464 C -0.294100 0.798400 -0.015200
C465 C 0.671200 0.695600 0.913900
C466 C 0.451200 0.145400 0.579000
C467 C 0.634300 0.967900 1.122500
C468 C 0.087100 0.039100 1.338500
C469 C 0.761200 1.133900 1.200300
C470 C 0.543700 0.196000 0.501900
C471 C 0.226700 0.034900 1.299100
C472 C 0.870800 1.119000 1.298200
C473 C 0.513900 0.299700 0.435100
C474 C 0.390000 0.353100 0.440400
C475 C 1.087100 1.039100 1.338500
C476 C 0.294100 0.298400 0.515200
C477 C -0.226700 -0.034900 0.700900
C478 C 1.226700 1.034900 1.299100
C479 C -0.087100 -0.039100 0.661500
C480 C 0.129200 -0.119000 0.701800
C481 C 0.773300 0.965100 0.700900
C482 C 0.912900 0.960900 0.661500
C483 C 1.129200 0.881000 0.701800
C484 C 0.294100 0.201600 1.015200
C485 C 0.390000 0.146900 0.940400
C486 C 1.238800 0.866100 0.799700
C487 C 0.513900 0.200300 0.935100
C488 C 0.238800 -0.133900 0.799700
C489 C 1.294100 1.201600 1.015200
C490 C 1.390000 1.146900 0.940400
C491 C 1.513900 1.200300 0.935100
C492 C 0.365700 0.032100 0.877500
C493 C 1.543700 1.304000 1.001900
C494 C 0.328800 0.304400 1.086100
C495 C 1.451200 1.354600 1.079000
C496 C 0.451200 0.354600 1.079000
C497 C 1.328800 1.304400 1.086100
C498 C 0.543700 0.304000 1.001900
C499 C 1.365700 1.032100 0.877500
C500 C 0.870800 0.119000 0.298200
N501 N -0.253400 0.016100 0.138300
N502 N -0.011400 0.072100 0.236700
N503 N 1.253400 -0.016100 -0.138300
N504 N 1.011400 0.927900 0.763300
N505 N 1.011400 -0.072100 -0.236700
N506 N 0.988600 0.072100 0.236700
N507 N 1.253400 0.983900 0.861700
N508 N 0.746600 0.016100 0.138300
N509 N 0.746600 0.016100 1.138300
N510 N 0.988600 0.072100 1.236700
N511 N 0.011400 -0.072100 0.763300
N512 N 0.253400 -0.016100 0.861700
N513 N 0.988600 0.427900 0.736700
N514 N 0.253400 0.516100 0.361700
N515 N 0.011400 0.572100 0.263300
N516 N 0.746600 0.483900 0.638300
N517 N 0.253400 -0.016100 -0.138300
N518 N 0.011400 -0.072100 -0.236700
N519 N 0.011400 0.927900 0.763300
N520 N 0.253400 0.983900 0.861700
N521 N 1.253400 -0.016100 0.861700
N522 N -0.253400 1.016100 0.138300
N523 N -0.011400 1.072100 0.236700
N524 N 1.011400 -0.072100 0.763300
N525 N 1.011400 0.572100 0.263300
N526 N 1.253400 0.516100 0.361700
N527 N 0.746600 1.016100 0.138300
N528 N 0.988600 1.072100 0.236700
N529 N -0.011400 1.072100 1.236700
N530 N -0.253400 1.016100 1.138300
N531 N -0.253400 0.016100 1.138300
N532 N 0.988600 1.072100 1.236700
N533 N 0.746600 1.016100 1.138300
N534 N 1.253400 0.983900 -0.138300
N535 N -0.011400 0.072100 1.236700
N536 N 0.253400 0.983900 -0.138300
N537 N 0.011400 0.927900 -0.236700
N538 N 1.011400 0.927900 -0.236700
N539 N -0.011400 0.427900 0.736700
N540 N -0.253400 0.483900 0.638300
O541 O -0.261100 1.068900 -0.229400
O542 O 0.738900 1.068900 -0.229400
O543 O 0.261100 -0.068900 1.229400
O544 O -0.174640 -0.156280 0.976700
O545 O 1.174640 1.156280 1.023300
O546 O 0.174640 1.156280 0.023300
O547 O -0.075460 1.086250 -0.038770
O548 O -0.076560 0.667490 0.717870
O549 O 0.075460 0.586250 0.538770
O550 O -0.174640 0.656280 0.476700
O551 O 0.261100 0.568900 0.729400
O552 O 0.075460 -0.086250 1.038770
O553 O 1.174640 1.156280 0.023300
O554 O 0.924540 1.086250 -0.038770
O555 O 1.076560 1.167490 -0.217870
O556 O -0.076560 -0.167490 1.217870
O557 O 0.076560 1.167490 -0.217870
O558 O 0.924540 1.086250 0.961230
O559 O 1.076560 1.167490 0.782130
O560 O 0.923440 0.832510 1.217870
O561 O -0.076560 -0.167490 0.217870
O562 O 0.075460 -0.086250 0.038770
O563 O -0.261100 0.068900 0.770600
O564 O 1.075460 0.913750 1.038770
O565 O 0.825360 0.843720 0.976700
O566 O 1.261100 0.931100 0.229400
O567 O 0.825360 0.843720 -0.023300
O568 O 1.075460 0.913750 0.038770
O569 O 0.923440 0.832510 0.217870
O570 O 1.261100 0.931100 1.229400
O571 O 0.261100 0.931100 0.229400
O572 O -0.174640 -0.156280 -0.023300
O573 O -0.076560 0.832510 1.217870
O574 O 0.075460 0.913750 1.038770
O575 O -0.174640 0.843720 0.976700
O576 O 0.261100 0.931100 1.229400
O577 O 0.261100 -0.068900 0.229400
O578 O -0.174640 0.843720 -0.023300
O579 O 0.075460 0.913750 0.038770
O580 O 1.076560 0.332510 0.282130
O581 O 0.924540 0.413750 0.461230
O582 O 1.174640 0.343720 0.523300
O583 O 0.738900 0.431100 0.270600
O584 O 0.738900 0.068900 0.770600
O585 O 1.174640 0.156280 1.023300
O586 O 0.924540 0.086250 0.961230
O587 O 1.076560 0.167490 0.782130
O588 O -0.076560 0.832510 0.217870
O589 O 1.076560 0.167490 -0.217870
O590 O -0.261100 0.068900 -0.229400
O591 O 0.924540 0.086250 -0.038770
O592 O 0.174640 0.156280 0.023300
O593 O 1.174640 0.156280 0.023300
O594 O -0.075460 0.086250 -0.038770
O595 O 0.738900 0.068900 -0.229400
O596 O 0.076560 0.167490 -0.217870
O597 O -0.261100 0.431100 0.270600
O598 O 0.174640 0.343720 0.523300
O599 O -0.075460 0.413750 0.461230
O600 O 0.076560 1.167490 0.782130
O601 O 1.261100 -0.068900 0.229400
O602 O -0.075460 1.086250 0.961230
O603 O 0.174640 1.156280 1.023300
O604 O -0.261100 1.068900 0.770600
O605 O 1.261100 -0.068900 1.229400
O606 O 0.825360 -0.156280 0.976700
O607 O 1.075460 -0.086250 1.038770
O608 O 0.923440 -0.167490 1.217870
O609 O 0.825360 -0.156280 -0.023300
O610 O 0.076560 0.332510 0.282130
O611 O 1.075460 -0.086250 0.038770
O612 O 0.923440 0.667490 0.717870
O613 O 1.075460 0.586250 0.538770
O614 O 0.825360 0.656280 0.476700
O615 O 1.261100 0.568900 0.729400
O616 O 0.923440 -0.167490 0.217870
O617 O 0.076560 0.167490 0.782130
O618 O 0.174640 0.156280 1.023300
O619 O -0.075460 0.086250 0.961230
O620 O 0.738900 1.068900 0.770600
V621 V 0.927850 -0.072540 1.101980
V622 V 1.072150 1.072540 0.898020
V623 V 0.072150 0.427460 0.398020
V624 V 0.927850 0.572540 0.601980
V625 V 0.072150 0.072540 -0.101980
V626 V 0.072150 0.072540 0.898020
V627 V 0.072150 1.072540 0.898020
V628 V 1.072150 0.072540 0.898020
V629 V -0.072150 0.927460 0.101980
V630 V 1.072150 0.427460 0.398020
V631 V 0.927850 0.927460 0.101980
V632 V -0.072150 0.927460 1.101980
V633 V -0.072150 -0.072540 1.101980
V634 V 1.072150 1.072540 -0.101980
V635 V 0.927850 0.927460 1.101980
V636 V 0.072150 1.072540 -0.101980
V637 V -0.072150 0.572540 0.601980
V638 V 1.072150 0.072540 -0.101980
V639 V 0.927850 -0.072540 0.101980
V640 V -0.072150 -0.072540 0.101980

#END
