./KACSAJ_from_POSCAR.cif_generated_by_CrystalShift
_symmetry_cell_setting triclinic
_symmetry_space_group_name_H-M 'P 1'
loop_
_symmetry_equiv_pos_site_id
_symmetry_equiv_pos_as_xyz
1 x,y,z
_cell_length_a 14.185000
_cell_length_b 4.105000
_cell_length_c 15.598000
_cell_angle_alpha 90.000000
_cell_angle_beta 98.590000
_cell_angle_gamma 90.000000
_cell_volume 898.074104
loop_
_atom_site_label
_atom_site_type_symbol
_atom_site_fract_x
_atom_site_fract_y
_atom_site_fract_z
H1 H 0.131900 1.091200 0.572900
H2 H 0.059700 1.382400 0.566000
H3 H 0.150100 0.822300 0.212100
H4 H 0.410600 0.245300 0.142000
H5 H 0.049900 1.053600 0.297900
H6 H 0.260200 1.032400 0.501300
H7 H 0.421900 0.904000 0.475900
H8 H 0.534700 0.536000 0.166600
H9 H 0.400700 0.540400 0.447900
H10 H 0.599300 0.040400 0.052100
H11 H 0.578100 0.404000 0.024100
H12 H 0.465300 1.036000 0.333400
H13 H 0.589400 0.745300 0.358000
H14 H 0.739800 0.532400 -0.001300
H15 H 0.131900 0.408800 1.072900
H16 H 0.163800 0.061700 1.046600
H17 H 0.950100 0.553600 0.202100
H18 H 0.059700 0.117600 1.066000
H19 H 0.849900 0.322300 0.287900
H20 H 0.150100 0.677700 0.712100
H21 H 0.049900 0.446400 0.797900
H22 H 0.940300 0.882400 -0.066000
H23 H 0.836200 0.938300 -0.046600
H24 H 0.868100 0.591200 -0.072900
H25 H 0.260200 0.467600 1.001300
H26 H 0.421900 0.596000 0.975900
H27 H 0.400700 0.959600 0.947900
H28 H 0.410600 0.254700 0.642000
H29 H 0.465300 0.464000 0.833400
H30 H 0.589400 0.754700 0.858000
H31 H 0.868100 -0.091200 0.427100
H32 H 0.534700 -0.036000 0.666600
H33 H 0.836200 -0.438300 0.453400
H34 H 0.599300 0.459600 0.552100
H35 H 0.578100 0.096000 0.524100
H36 H 0.940300 -0.382400 0.434000
H37 H 0.849900 0.177700 0.787900
H38 H 0.739800 -0.032400 0.498700
H39 H 0.950100 -0.053600 0.702100
H40 H 0.163800 1.438300 0.546600
C41 C 0.854070 -0.071700 0.591600
C42 C 0.827700 0.134000 0.729860
C43 C 0.761580 0.007300 0.556990
C44 C 0.733830 0.209900 0.695510
C45 C 0.888400 -0.287000 0.458130
C46 C 0.701070 0.145900 0.608990
C47 C 0.601020 0.236500 0.572770
C48 C 0.538130 0.202700 0.641200
C49 C 0.111600 1.287000 0.541870
C50 C 0.266170 0.790100 0.304490
C51 C 0.172300 0.866000 0.270140
C52 C 0.670790 0.371100 0.749260
C53 C 0.112530 1.004400 0.321150
C54 C 0.329210 0.871100 0.750740
C55 C 0.461870 0.702700 0.858800
C56 C 0.145930 1.071700 0.408400
C57 C 0.398980 0.736500 0.927230
C58 C 0.670790 0.128900 0.249260
C59 C 0.238420 0.992700 0.443010
C60 C 0.298930 0.645900 0.891010
C61 C 0.238420 0.507300 0.943010
C62 C 0.298930 0.854100 0.391010
C63 C 0.145930 0.428300 0.908400
C64 C 0.112530 0.495600 0.821150
C65 C 0.888400 0.787000 -0.041870
C66 C 0.172300 0.634000 0.770140
C67 C 0.733830 0.290100 0.195510
C68 C 0.266170 0.709900 0.804490
C69 C 0.111600 0.213000 1.041870
C70 C 0.827700 0.366000 0.229860
C71 C 0.887470 0.504400 0.178850
C72 C 0.854070 0.571700 0.091600
C73 C 0.538130 0.297300 0.141200
C74 C 0.601020 0.263500 0.072770
C75 C 0.398980 0.763500 0.427230
C76 C 0.761580 0.492700 0.056990
C77 C 0.701070 0.354100 0.108990
C78 C 0.329210 0.628900 0.250740
C79 C 0.461870 0.797300 0.358800
C80 C 0.887470 -0.004400 0.678850
O81 O 0.551030 0.669800 0.387040
O82 O 0.421860 0.602500 0.282150
O83 O 0.302320 0.503800 0.180190
O84 O 0.697680 0.496200 0.819810
O85 O 0.578140 0.397500 0.717850
O86 O 0.448970 0.330200 0.612960
O87 O 0.918630 -0.211500 0.547010
O88 O 0.081370 0.288500 0.952990
O89 O 0.918630 0.711500 0.047010
O90 O 0.551030 0.830200 0.887040
O91 O 0.448970 0.169800 0.112960
O92 O 0.421860 0.897500 0.782150
O93 O 0.302320 0.996200 0.680190
O94 O 0.578140 0.102500 0.217850
O95 O 0.081370 1.211500 0.452990
O96 O 0.697680 0.003800 0.319810

#END
