
#######################################################################
#
#                 Cambridge Crystallographic Data Centre
#                                CCDC 
#
#######################################################################
#
# If this CIF has been generated from an entry in the Cambridge 
# Structural Database, then it will include bibliographic, chemical, 
# crystal, experimental, refinement or atomic coordinate data resulting 
# from the CCDC's data processing and validation procedures.
#
#######################################################################

data_KACSOX01
_symmetry_cell_setting           monoclinic
_symmetry_space_group_name_H-M   'P 21/c'
_symmetry_Int_Tables_number      14
_space_group_name_Hall           '-P 2ybc'
loop_
_symmetry_equiv_pos_site_id
_symmetry_equiv_pos_as_xyz
1 x,y,z
2 -x,1/2+y,1/2-z
3 -x,-y,-z
4 x,1/2-y,1/2+z
_cell_length_a                   7.4114(7)
_cell_length_b                   10.6122(10)
_cell_length_c                   10.9137(10)
_cell_angle_alpha                90
_cell_angle_beta                 103.692(2)
_cell_angle_gamma                90
_cell_volume                     833.983
loop_
_atom_site_label
_atom_site_type_symbol
_atom_site_fract_x
_atom_site_fract_y
_atom_site_fract_z
C1 C 0.7514(3) 0.40974(16) 0.50701(18)
H1 H 0.7298 0.4945 0.4763
H2 H 0.8826 0.3953 0.5349
H3 H 0.6939 0.3974 0.5762
C2 C 0.69152(16) 0.19805(13) 0.43426(11)
C3 C 0.61107(16) 0.11978(13) 0.33303(11)
H4 H 0.5495 0.1551 0.2565
C4 C 0.62232(17) -0.00859(13) 0.34580(12)
H5 H 0.5693 -0.0610 0.2786
C5 C 0.71514(15) -0.05932(12) 0.46188(12)
C6 C 0.79157(14) 0.01885(14) 0.56246(11)
C7 C 0.78173(17) 0.14808(14) 0.55045(12)
H6 H 0.8338 0.2003 0.6180
C8 C 0.74800(19) -0.19052(13) 0.49832(14)
C9 C 0.8489(2) -0.19395(14) 0.63633(14)
H7 H 0.9668 -0.2375 0.6471
H8 H 0.7747 -0.2371 0.6856
C10 C 0.87987(19) -0.05668(14) 0.67790(13)
H9 H 0.8212 -0.0386 0.7465
H10 H 1.0114 -0.0381 0.7053
O1 O 0.67421(15) 0.32369(10) 0.40842(10)
O2 O 0.70515(17) -0.28262(12) 0.43097(11)
C1 C 0.2486(3) 0.90974(16) 0.99299(18)
H1 H 0.2702 0.9945 1.0237
H2 H 0.1174 0.8953 0.9651
H3 H 0.3061 0.8974 0.9238
C2 C 0.30848(16) 0.69805(13) 1.06574(11)
C3 C 0.38893(16) 0.61978(13) 1.16697(11)
H4 H 0.4505 0.6551 1.2435
C4 C 0.37768(17) 0.49141(13) 1.15420(12)
H5 H 0.4307 0.4390 1.2214
C5 C 0.28486(15) 0.44068(12) 1.03812(12)
C6 C 0.20843(14) 0.51885(14) 0.93754(11)
C7 C 0.21827(17) 0.64808(14) 0.94955(12)
H6 H 0.1662 0.7003 0.8820
C8 C 0.25200(19) 0.30948(13) 1.00168(14)
C9 C 0.1511(2) 0.30605(14) 0.86367(14)
H7 H 0.0332 0.2625 0.8529
H8 H 0.2253 0.2629 0.8144
C10 C 0.12013(19) 0.44332(14) 0.82210(13)
H9 H 0.1788 0.4614 0.7535
H10 H -0.0114 0.4619 0.7947
O1 O 0.32579(15) 0.82369(10) 1.09158(10)
O2 O 0.29485(17) 0.21738(12) 1.06903(11)
C1 C 0.2486(3) 0.59026(16) 0.49299(18)
H1 H 0.2702 0.5055 0.5237
H2 H 0.1174 0.6047 0.4651
H3 H 0.3061 0.6026 0.4238
C2 C 0.30848(16) 0.80195(13) 0.56574(11)
C3 C 0.38893(16) 0.88022(13) 0.66697(11)
H4 H 0.4505 0.8449 0.7435
C4 C 0.37768(17) 1.00859(13) 0.65420(12)
H5 H 0.4307 1.0610 0.7214
C5 C 0.28486(15) 1.05932(12) 0.53812(12)
C6 C 0.20843(14) 0.98115(14) 0.43754(11)
C7 C 0.21827(17) 0.85192(14) 0.44955(12)
H6 H 0.1662 0.7997 0.3820
C8 C 0.25200(19) 1.19052(13) 0.50168(14)
C9 C 0.1511(2) 1.19395(14) 0.36367(14)
H7 H 0.0332 1.2375 0.3529
H8 H 0.2253 1.2371 0.3144
C10 C 0.12013(19) 1.05668(14) 0.32210(13)
H9 H 0.1788 1.0386 0.2535
H10 H -0.0114 1.0381 0.2947
O1 O 0.32579(15) 0.67631(10) 0.59158(10)
O2 O 0.29485(17) 1.28262(12) 0.56903(11)
C1 C 0.7514(3) 0.09026(16) 0.00701(18)
H1 H 0.7298 0.0055 -0.0237
H2 H 0.8826 0.1047 0.0349
H3 H 0.6939 0.1026 0.0762
C2 C 0.69152(16) 0.30195(13) -0.06574(11)
C3 C 0.61107(16) 0.38022(13) -0.16697(11)
H4 H 0.5495 0.3449 -0.2435
C4 C 0.62232(17) 0.50859(13) -0.15420(12)
H5 H 0.5693 0.5610 -0.2214
C5 C 0.71514(15) 0.55932(12) -0.03812(12)
C6 C 0.79157(14) 0.48115(14) 0.06246(11)
C7 C 0.78173(17) 0.35192(14) 0.05045(12)
H6 H 0.8338 0.2997 0.1180
C8 C 0.74800(19) 0.69052(13) -0.00168(14)
C9 C 0.8489(2) 0.69395(14) 0.13633(14)
H7 H 0.9668 0.7375 0.1471
H8 H 0.7747 0.7371 0.1856
C10 C 0.87987(19) 0.55668(14) 0.17790(13)
H9 H 0.8212 0.5386 0.2465
H10 H 1.0114 0.5381 0.2053
O1 O 0.67421(15) 0.17631(10) -0.09158(10)
O2 O 0.70515(17) 0.78262(12) -0.06903(11)

#END
