
#######################################################################
#
#                 Cambridge Crystallographic Data Centre
#                                CCDC 
#
#######################################################################
#
# If this CIF has been generated from an entry in the Cambridge 
# Structural Database, then it will include bibliographic, chemical, 
# crystal, experimental, refinement or atomic coordinate data resulting 
# from the CCDC's data processing and validation procedures.
#
#######################################################################

data_KACTAK
_symmetry_cell_setting           triclinic
_symmetry_space_group_name_H-M   'P 1'
_symmetry_Int_Tables_number      1
_space_group_name_Hall           'P 1'
loop_
_symmetry_equiv_pos_site_id
_symmetry_equiv_pos_as_xyz
1 x,y,z
_cell_length_a                   5.9343(4)
_cell_length_b                   8.2367(17)
_cell_length_c                   10.987(2)
_cell_angle_alpha                88.290(6)
_cell_angle_beta                 75.442(4)
_cell_angle_gamma                80.655(6)
_cell_volume                     512.86
loop_
_atom_site_label
_atom_site_type_symbol
_atom_site_fract_x
_atom_site_fract_y
_atom_site_fract_z
O1 O 0.1485(3) 0.4027(2) 0.60108(16)
O2 O 0.6063(3) 0.2429(2) 0.51510(16)
O3 O 0.5474(3) 0.3397(2) 0.32896(16)
O4 O 0.8546(5) 0.6282(3) 0.3896(2)
C1 C 0.3375(4) 0.4617(3) 0.6368(2)
C2 C 0.5623(4) 0.4191(3) 0.5309(2)
C3 C 0.5336(5) 0.4838(3) 0.4016(2)
C4 C 0.6664(5) 0.2033(3) 0.3848(2)
C5 C 0.9289(6) 0.1811(6) 0.3320(4)
C6 C 0.5614(7) 0.0523(4) 0.3690(4)
C7 C 0.7170(5) 0.5884(3) 0.3360(2)
C8 C 0.7190(4) 0.6474(3) 0.2070(2)
C9 C 0.5521(5) 0.6177(3) 0.1451(2)
C10 C 0.5568(6) 0.6804(4) 0.0251(3)
C11 C 0.7265(6) 0.7736(4) -0.0308(3)
C12 C 0.8933(6) 0.8027(4) 0.0285(3)
C13 C 0.8901(5) 0.7395(3) 0.1473(3)
C14 C 0.3595(4) 0.3851(3) 0.7635(2)
C15 C 0.1564(5) 0.3913(3) 0.8598(2)
C16 C 0.1633(6) 0.3253(4) 0.9765(3)
C17 C 0.3756(6) 0.2524(4) 0.9983(3)
C18 C 0.5793(5) 0.2454(4) 0.9036(3)
C19 C 0.5718(5) 0.3124(3) 0.7869(2)
C20 C 0.2699(4) 0.6487(3) 0.6534(2)
C21 C 0.4042(4) 0.7356(3) 0.7064(2)
C22 C 0.3426(5) 0.9036(3) 0.7255(3)
C23 C 0.1450(5) 0.9871(3) 0.6945(3)
C24 C 0.0135(5) 0.9026(3) 0.6387(3)
C25 C 0.0752(4) 0.7335(3) 0.6183(2)
H1 H 0.207(7) 0.310(5) 0.575(4)
H2 H 0.700(4) 0.461(3) 0.558(2)
H3 H 0.375(5) 0.549(3) 0.408(2)
H4 H 0.975(6) 0.275(5) 0.347(3)
H5 H 0.970(8) 0.155(5) 0.237(5)
H6 H 0.998(7) 0.084(5) 0.367(4)
H7 H 0.380(9) 0.074(5) 0.408(4)
H8 H 0.645(6) -0.050(5) 0.415(3)
H9 H 0.585(7) 0.034(5) 0.276(5)
H10 H 0.426(5) 0.551(4) 0.182(3)
H11 H 0.436(7) 0.662(5) -0.025(4)
H12 H 0.729(6) 0.825(5) -0.118(4)
H13 H 1.014(7) 0.868(5) -0.001(4)
H14 H 1.004(5) 0.756(3) 0.188(3)
H15 H 0.003(5) 0.438(4) 0.845(3)
H16 H 0.016(5) 0.334(4) 1.048(3)
H17 H 0.384(5) 0.213(4) 1.080(3)
H18 H 0.738(5) 0.194(4) 0.915(3)
H19 H 0.718(6) 0.299(4) 0.718(3)
H20 H 0.537(5) 0.676(4) 0.742(3)
H21 H 0.443(6) 0.962(4) 0.763(3)
H22 H 0.092(6) 1.112(4) 0.711(3)
H23 H -0.123(5) 0.963(4) 0.611(3)
H24 H -0.012(5) 0.669(4) 0.577(3)

#END
