./KACTAK_from_POSCAR.cif_generated_by_CrystalShift
_symmetry_cell_setting triclinic
_symmetry_space_group_name_H-M 'P 1'
loop_
_symmetry_equiv_pos_site_id
_symmetry_equiv_pos_as_xyz
1 x,y,z
_cell_length_a 5.934300
_cell_length_b 8.236700
_cell_length_c 10.987000
_cell_angle_alpha 88.290000
_cell_angle_beta 75.442000
_cell_angle_gamma 80.655000
_cell_volume 512.859634
loop_
_atom_site_label
_atom_site_type_symbol
_atom_site_fract_x
_atom_site_fract_y
_atom_site_fract_z
H1 H -0.012000 0.669000 0.577000
H2 H -0.123000 0.963000 0.611000
H3 H 0.092000 1.112000 0.711000
H4 H 0.443000 0.962000 0.763000
H5 H 0.718000 0.299000 0.718000
H6 H 0.738000 0.194000 0.915000
H7 H 0.384000 0.213000 1.080000
H8 H 0.016000 0.334000 1.048000
H9 H 0.003000 0.438000 0.845000
H10 H 1.004000 0.756000 0.188000
H11 H 1.014000 0.868000 -0.001000
H12 H 0.729000 0.825000 -0.118000
H13 H 0.436000 0.662000 -0.025000
H14 H 0.426000 0.551000 0.182000
H15 H 0.585000 0.034000 0.276000
H16 H 0.645000 -0.050000 0.415000
H17 H 0.380000 0.074000 0.408000
H18 H 0.998000 0.084000 0.367000
H19 H 0.970000 0.155000 0.237000
H20 H 0.975000 0.275000 0.347000
H21 H 0.375000 0.549000 0.408000
H22 H 0.700000 0.461000 0.558000
H23 H 0.207000 0.310000 0.575000
H24 H 0.537000 0.676000 0.742000
C25 C 0.269900 0.648700 0.653400
C26 C 0.342600 0.903600 0.725500
C27 C 0.145000 0.987100 0.694500
C28 C 0.013500 0.902600 0.638700
C29 C 0.075200 0.733500 0.618300
C30 C 0.571800 0.312400 0.786900
C31 C 0.579300 0.245400 0.903600
C32 C 0.375600 0.252400 0.998300
C33 C 0.163300 0.325300 0.976500
C34 C 0.156400 0.391300 0.859800
C35 C 0.359500 0.385100 0.763500
C36 C 0.890100 0.739500 0.147300
C37 C 0.893300 0.802700 0.028500
C38 C 0.726500 0.773600 -0.030800
C39 C 0.556800 0.680400 0.025100
C40 C 0.552100 0.617700 0.145100
C41 C 0.719000 0.647400 0.207000
C42 C 0.717000 0.588400 0.336000
C43 C 0.561400 0.052300 0.369000
C44 C 0.928900 0.181100 0.332000
C45 C 0.666400 0.203300 0.384800
C46 C 0.533600 0.483800 0.401600
C47 C 0.562300 0.419100 0.530900
C48 C 0.337500 0.461700 0.636800
C49 C 0.404200 0.735600 0.706400
O50 O 0.547400 0.339700 0.328960
O51 O 0.606300 0.242900 0.515100
O52 O 0.148500 0.402700 0.601080
O53 O 0.854600 0.628200 0.389600

#END
