
#######################################################################
#
#                 Cambridge Crystallographic Data Centre
#                                CCDC 
#
#######################################################################
#
# If this CIF has been generated from an entry in the Cambridge 
# Structural Database, then it will include bibliographic, chemical, 
# crystal, experimental, refinement or atomic coordinate data resulting 
# from the CCDC's data processing and validation procedures.
#
#######################################################################

data_MAQCIS
_symmetry_cell_setting           monoclinic
_symmetry_space_group_name_H-M   'P 21/c'
_symmetry_Int_Tables_number      14
_space_group_name_Hall           '-P 2ybc'
loop_
_symmetry_equiv_pos_site_id
_symmetry_equiv_pos_as_xyz
1 x,y,z
2 -x,1/2+y,1/2-z
3 -x,-y,-z
4 x,1/2-y,1/2+z
_cell_length_a                   10.5452(2)
_cell_length_b                   7.3885(1)
_cell_length_c                   27.6064(5)
_cell_angle_alpha                90
_cell_angle_beta                 100.074(2)
_cell_angle_gamma                90
_cell_volume                     2117.74
loop_
_atom_site_label
_atom_site_type_symbol
_atom_site_fract_x
_atom_site_fract_y
_atom_site_fract_z
Pt1 Pt 0.461047(8) 0.178752(13) 0.171214(3)
N1 N 0.5152(2) 0.1987(3) 0.10700(9)
N2 N 0.4012(2) 0.1476(3) 0.23643(8)
N3 N 0.2321(3) 0.0930(5) 0.40808(10)
O1 O 0.5421(3) 0.2620(6) -0.06934(9)
O2 O 0.7431(2) 0.1887(3) -0.03461(8)
C1 C 0.6382(3) 0.1564(3) 0.10319(10)
C2 C 0.6762(3) 0.1627(4) 0.05757(11)
H1 H 0.7620 0.1329 0.0544
C3 C 0.5871(3) 0.2130(4) 0.01648(10)
C4 C 0.4598(3) 0.2541(4) 0.02104(9)
H2 H 0.3985 0.2876 -0.0070
C5 C 0.4250(3) 0.2451(4) 0.06717(9)
C6 C 0.6197(3) 0.2223(5) -0.03362(10)
C7 C 0.7787(3) 0.2001(4) -0.08321(12)
H3 H 0.7645 0.3243 -0.0965
H4 H 0.7260 0.1152 -0.1062
C8 C 0.9189(4) 0.1508(5) -0.07734(16)
H5 H 0.9466 0.1572 -0.1094
H6 H 0.9316 0.0275 -0.0643
H7 H 0.9699 0.2356 -0.0545
C9 C 0.6533(2) 0.1104(4) 0.19216(10)
C10 C 0.7304(3) 0.0670(4) 0.23734(10)
H8 H 0.6919 0.0615 0.2659
C11 C 0.8620(3) 0.0316(5) 0.24166(12)
H9 H 0.9119 0.0065 0.2730
C12 C 0.9202(3) 0.0329(6) 0.20013(13)
H10 H 1.0097 0.0087 0.2030
C13 C 0.8472(3) 0.0696(5) 0.15475(11)
H11 H 0.8857 0.0667 0.1261
C14 C 0.7174(2) 0.1109(4) 0.15076(10)
C15 C 0.2890(2) 0.2609(4) 0.13023(9)
C16 C 0.1703(3) 0.3024(3) 0.14306(11)
H12 H 0.1606 0.2934 0.1765
C17 C 0.0648(3) 0.3572(4) 0.10784(11)
H13 H -0.0142 0.3871 0.1180
C18 C 0.0741(3) 0.3684(4) 0.05851(11)
H14 H 0.0011 0.4008 0.0348
C19 C 0.1920(3) 0.3313(4) 0.04407(11)
H15 H 0.2004 0.3398 0.0104
C20 C 0.2974(3) 0.2816(4) 0.07960(10)
C21 C 0.4694(3) 0.2171(4) 0.27817(10)
H16 H 0.5474 0.2792 0.2764
C22 C 0.4308(3) 0.2021(4) 0.32338(11)
H17 H 0.4814 0.2523 0.3521
C23 C 0.3164(3) 0.1121(4) 0.32585(10)
C24 C 0.2468(3) 0.0353(4) 0.28348(10)
H18 H 0.1699 -0.0302 0.2846
C25 C 0.2919(2) 0.0563(4) 0.23966(10)
H19 H 0.2440 0.0044 0.2106
C26 C 0.2701(3) 0.1003(4) 0.37197(10)
Pt1 Pt 0.538953(8) 0.678752(13) 0.328786(3)
N1 N 0.4848(2) 0.6987(3) 0.39300(9)
N2 N 0.5988(2) 0.6476(3) 0.26357(8)
N3 N 0.7679(3) 0.5930(5) 0.09192(10)
O1 O 0.4579(3) 0.7620(6) 0.56934(9)
O2 O 0.2569(2) 0.6887(3) 0.53461(8)
C1 C 0.3618(3) 0.6564(3) 0.39681(10)
C2 C 0.3238(3) 0.6627(4) 0.44243(11)
H1 H 0.2380 0.6329 0.4456
C3 C 0.4129(3) 0.7130(4) 0.48352(10)
C4 C 0.5402(3) 0.7541(4) 0.47896(9)
H2 H 0.6015 0.7876 0.5070
C5 C 0.5750(3) 0.7451(4) 0.43283(9)
C6 C 0.3803(3) 0.7223(5) 0.53362(10)
C7 C 0.2213(3) 0.7001(4) 0.58321(12)
H3 H 0.2355 0.8243 0.5965
H4 H 0.2740 0.6152 0.6062
C8 C 0.0811(4) 0.6508(5) 0.57734(16)
H5 H 0.0534 0.6572 0.6094
H6 H 0.0684 0.5275 0.5643
H7 H 0.0301 0.7356 0.5545
C9 C 0.3467(2) 0.6104(4) 0.30784(10)
C10 C 0.2696(3) 0.5670(4) 0.26266(10)
H8 H 0.3081 0.5615 0.2341
C11 C 0.1380(3) 0.5316(5) 0.25834(12)
H9 H 0.0881 0.5065 0.2270
C12 C 0.0798(3) 0.5329(6) 0.29987(13)
H10 H -0.0097 0.5087 0.2970
C13 C 0.1528(3) 0.5696(5) 0.34525(11)
H11 H 0.1143 0.5667 0.3739
C14 C 0.2826(2) 0.6109(4) 0.34924(10)
C15 C 0.7110(2) 0.7609(4) 0.36977(9)
C16 C 0.8297(3) 0.8024(3) 0.35694(11)
H12 H 0.8394 0.7934 0.3235
C17 C 0.9352(3) 0.8572(4) 0.39216(11)
H13 H 1.0142 0.8871 0.3820
C18 C 0.9259(3) 0.8684(4) 0.44149(11)
H14 H 0.9989 0.9008 0.4652
C19 C 0.8080(3) 0.8313(4) 0.45593(11)
H15 H 0.7996 0.8398 0.4896
C20 C 0.7026(3) 0.7816(4) 0.42040(10)
C21 C 0.5306(3) 0.7171(4) 0.22183(10)
H16 H 0.4526 0.7792 0.2236
C22 C 0.5692(3) 0.7021(4) 0.17662(11)
H17 H 0.5186 0.7523 0.1479
C23 C 0.6836(3) 0.6121(4) 0.17415(10)
C24 C 0.7532(3) 0.5353(4) 0.21652(10)
H18 H 0.8301 0.4698 0.2154
C25 C 0.7081(2) 0.5563(4) 0.26034(10)
H19 H 0.7560 0.5044 0.2894
C26 C 0.7299(3) 0.6003(4) 0.12803(10)
Pt1 Pt 0.538953(8) 0.821248(13) 0.828786(3)
N1 N 0.4848(2) 0.8013(3) 0.89300(9)
N2 N 0.5988(2) 0.8524(3) 0.76357(8)
N3 N 0.7679(3) 0.9070(5) 0.59192(10)
O1 O 0.4579(3) 0.7380(6) 1.06934(9)
O2 O 0.2569(2) 0.8113(3) 1.03461(8)
C1 C 0.3618(3) 0.8436(3) 0.89681(10)
C2 C 0.3238(3) 0.8373(4) 0.94243(11)
H1 H 0.2380 0.8671 0.9456
C3 C 0.4129(3) 0.7870(4) 0.98352(10)
C4 C 0.5402(3) 0.7459(4) 0.97896(9)
H2 H 0.6015 0.7124 1.0070
C5 C 0.5750(3) 0.7549(4) 0.93283(9)
C6 C 0.3803(3) 0.7777(5) 1.03362(10)
C7 C 0.2213(3) 0.7999(4) 1.08321(12)
H3 H 0.2355 0.6757 1.0965
H4 H 0.2740 0.8848 1.1062
C8 C 0.0811(4) 0.8492(5) 1.07734(16)
H5 H 0.0534 0.8428 1.1094
H6 H 0.0684 0.9725 1.0643
H7 H 0.0301 0.7644 1.0545
C9 C 0.3467(2) 0.8896(4) 0.80784(10)
C10 C 0.2696(3) 0.9330(4) 0.76266(10)
H8 H 0.3081 0.9385 0.7341
C11 C 0.1380(3) 0.9684(5) 0.75834(12)
H9 H 0.0881 0.9935 0.7270
C12 C 0.0798(3) 0.9671(6) 0.79987(13)
H10 H -0.0097 0.9913 0.7970
C13 C 0.1528(3) 0.9304(5) 0.84525(11)
H11 H 0.1143 0.9333 0.8739
C14 C 0.2826(2) 0.8891(4) 0.84924(10)
C15 C 0.7110(2) 0.7391(4) 0.86977(9)
C16 C 0.8297(3) 0.6976(3) 0.85694(11)
H12 H 0.8394 0.7066 0.8235
C17 C 0.9352(3) 0.6428(4) 0.89216(11)
H13 H 1.0142 0.6129 0.8820
C18 C 0.9259(3) 0.6316(4) 0.94149(11)
H14 H 0.9989 0.5992 0.9652
C19 C 0.8080(3) 0.6687(4) 0.95593(11)
H15 H 0.7996 0.6602 0.9896
C20 C 0.7026(3) 0.7184(4) 0.92040(10)
C21 C 0.5306(3) 0.7829(4) 0.72183(10)
H16 H 0.4526 0.7208 0.7236
C22 C 0.5692(3) 0.7979(4) 0.67662(11)
H17 H 0.5186 0.7477 0.6479
C23 C 0.6836(3) 0.8879(4) 0.67415(10)
C24 C 0.7532(3) 0.9647(4) 0.71652(10)
H18 H 0.8301 1.0302 0.7154
C25 C 0.7081(2) 0.9437(4) 0.76034(10)
H19 H 0.7560 0.9956 0.7894
C26 C 0.7299(3) 0.8997(4) 0.62803(10)
Pt1 Pt 0.461047(8) 0.321248(13) 0.671214(3)
N1 N 0.5152(2) 0.3013(3) 0.60700(9)
N2 N 0.4012(2) 0.3524(3) 0.73643(8)
N3 N 0.2321(3) 0.4070(5) 0.90808(10)
O1 O 0.5421(3) 0.2380(6) 0.43066(9)
O2 O 0.7431(2) 0.3113(3) 0.46539(8)
C1 C 0.6382(3) 0.3436(3) 0.60319(10)
C2 C 0.6762(3) 0.3373(4) 0.55757(11)
H1 H 0.7620 0.3671 0.5544
C3 C 0.5871(3) 0.2870(4) 0.51648(10)
C4 C 0.4598(3) 0.2459(4) 0.52104(9)
H2 H 0.3985 0.2124 0.4930
C5 C 0.4250(3) 0.2549(4) 0.56717(9)
C6 C 0.6197(3) 0.2777(5) 0.46638(10)
C7 C 0.7787(3) 0.2999(4) 0.41679(12)
H3 H 0.7645 0.1757 0.4035
H4 H 0.7260 0.3848 0.3938
C8 C 0.9189(4) 0.3492(5) 0.42266(16)
H5 H 0.9466 0.3428 0.3906
H6 H 0.9316 0.4725 0.4357
H7 H 0.9699 0.2644 0.4455
C9 C 0.6533(2) 0.3896(4) 0.69216(10)
C10 C 0.7304(3) 0.4330(4) 0.73734(10)
H8 H 0.6919 0.4385 0.7659
C11 C 0.8620(3) 0.4684(5) 0.74166(12)
H9 H 0.9119 0.4935 0.7730
C12 C 0.9202(3) 0.4671(6) 0.70013(13)
H10 H 1.0097 0.4913 0.7030
C13 C 0.8472(3) 0.4304(5) 0.65475(11)
H11 H 0.8857 0.4333 0.6261
C14 C 0.7174(2) 0.3891(4) 0.65076(10)
C15 C 0.2890(2) 0.2391(4) 0.63023(9)
C16 C 0.1703(3) 0.1976(3) 0.64306(11)
H12 H 0.1606 0.2066 0.6765
C17 C 0.0648(3) 0.1428(4) 0.60784(11)
H13 H -0.0142 0.1129 0.6180
C18 C 0.0741(3) 0.1316(4) 0.55851(11)
H14 H 0.0011 0.0992 0.5348
C19 C 0.1920(3) 0.1687(4) 0.54407(11)
H15 H 0.2004 0.1602 0.5104
C20 C 0.2974(3) 0.2184(4) 0.57960(10)
C21 C 0.4694(3) 0.2829(4) 0.77817(10)
H16 H 0.5474 0.2208 0.7764
C22 C 0.4308(3) 0.2979(4) 0.82338(11)
H17 H 0.4814 0.2477 0.8521
C23 C 0.3164(3) 0.3879(4) 0.82585(10)
C24 C 0.2468(3) 0.4647(4) 0.78348(10)
H18 H 0.1699 0.5302 0.7846
C25 C 0.2919(2) 0.4437(4) 0.73966(10)
H19 H 0.2440 0.4956 0.7106
C26 C 0.2701(3) 0.3997(4) 0.87197(10)

#END
