./MAQMOJ_from_xyz.cif_generated_by_CrystalShift
_symmetry_cell_setting triclinic
_symmetry_space_group_name_H-M 'P 1'
loop_
_symmetry_equiv_pos_site_id
_symmetry_equiv_pos_as_xyz
1 x,y,z
_cell_length_a 15.177900
_cell_length_b 8.269900
_cell_length_c 27.967100
_cell_angle_alpha 90.000000
_cell_angle_beta 90.000000
_cell_angle_gamma 90.000000
_cell_volume 3510.422427
loop_
_atom_site_label
_atom_site_type_symbol
_atom_site_fract_x
_atom_site_fract_y
_atom_site_fract_z
C1 C 0.638630 0.179000 0.501770
H2 H 0.652200 0.266200 0.479200
H3 H 0.645600 0.074300 0.485800
H4 H 0.678900 0.185000 0.529100
C5 C 0.319510 0.177800 0.586060
H6 H 0.334300 0.194300 0.619800
H7 H 0.294100 0.069900 0.581800
H8 H 0.276700 0.259700 0.576000
C9 C 0.529590 0.331840 0.542800
C10 C 0.444720 0.330680 0.563660
C11 C 0.416370 0.464680 0.588490
H12 H 0.359100 0.465400 0.602200
C13 C 0.471130 0.600310 0.593710
C14 C 0.555640 0.600830 0.573920
C15 C 0.584080 0.464760 0.548400
H16 H 0.641400 0.463700 0.534800
C17 C 0.438060 0.740300 0.621490
C18 C 0.506120 0.867630 0.634960
H19 H 0.475800 0.970100 0.644400
C20 C 0.566080 0.898970 0.592100
H21 H 0.607600 0.987800 0.599500
H22 H 0.530400 0.931200 0.564100
C23 C 0.617270 0.743940 0.580870
H24 H 0.653200 0.760100 0.551300
C25 C 0.557450 0.800720 0.677210
C26 C 0.638380 0.723840 0.671160
C27 C 0.677820 0.704460 0.622650
C28 C 0.519850 0.807780 0.723050
H29 H 0.465100 0.861300 0.727600
C30 C 0.562010 0.737290 0.761680
C31 C 0.643950 0.658700 0.755220
C32 C 0.681850 0.654460 0.710500
H33 H 0.737600 0.604400 0.706200
C34 C 0.446590 0.805400 0.815900
H35 H 0.448300 0.920700 0.807800
H36 H 0.431200 0.792800 0.849700
H37 H 0.402300 0.751100 0.796100
C38 C 0.757230 0.500300 0.790600
H39 H 0.748700 0.416100 0.766400
H40 H 0.772200 0.449800 0.821300
H41 H 0.805200 0.572200 0.780700
O42 O 0.550360 0.195720 0.518040
O43 O 0.397520 0.191890 0.557670
O44 O 0.361180 0.750920 0.634010
O45 O 0.752480 0.654510 0.616870
O46 O 0.531060 0.735030 0.807270
O47 O 0.678150 0.591210 0.795670
C48 C 0.861370 0.821000 0.001770
H49 H 0.847800 0.733800 -0.020800
H50 H 0.854400 0.925700 -0.014200
H51 H 0.821100 0.815000 0.029100
C52 C 1.180490 0.822200 0.086060
H53 H 1.165700 0.805700 0.119800
H54 H 1.205900 0.930100 0.081800
H55 H 1.223300 0.740300 0.076000
C56 C 0.970410 0.668160 0.042800
C57 C 1.055280 0.669320 0.063660
C58 C 1.083630 0.535320 0.088490
H59 H 1.140900 0.534600 0.102200
C60 C 1.028870 0.399690 0.093710
C61 C 0.944360 0.399170 0.073920
C62 C 0.915920 0.535240 0.048400
H63 H 0.858600 0.536300 0.034800
C64 C 1.061940 0.259700 0.121490
C65 C 0.993880 0.132370 0.134960
H66 H 1.024200 0.029900 0.144400
C67 C 0.933920 0.101030 0.092100
H68 H 0.892400 0.012200 0.099500
H69 H 0.969600 0.068800 0.064100
C70 C 0.882730 0.256060 0.080870
H71 H 0.846800 0.239900 0.051300
C72 C 0.942550 0.199280 0.177210
C73 C 0.861620 0.276160 0.171160
C74 C 0.822180 0.295540 0.122650
C75 C 0.980150 0.192220 0.223050
H76 H 1.034900 0.138700 0.227600
C77 C 0.937990 0.262710 0.261680
C78 C 0.856050 0.341300 0.255220
C79 C 0.818150 0.345540 0.210500
H80 H 0.762400 0.395600 0.206200
C81 C 1.053410 0.194600 0.315900
H82 H 1.051700 0.079300 0.307800
H83 H 1.068800 0.207200 0.349700
H84 H 1.097700 0.248900 0.296100
C85 C 0.742770 0.499700 0.290600
H86 H 0.751300 0.583900 0.266400
H87 H 0.727800 0.550200 0.321300
H88 H 0.694800 0.427800 0.280700
O89 O 0.949640 0.804280 0.018040
O90 O 1.102480 0.808110 0.057670
O91 O 1.138820 0.249080 0.134010
O92 O 0.747520 0.345490 0.116870
O93 O 0.968940 0.264970 0.307270
O94 O 0.821850 0.408790 0.295670
C95 C 0.138630 1.321000 0.498230
H96 H 0.152200 1.233800 0.520800
H97 H 0.145600 1.425700 0.514200
H98 H 0.178900 1.315000 0.470900
C99 C -0.180490 1.322200 0.413940
H100 H -0.165700 1.305700 0.380200
H101 H -0.205900 1.430100 0.418200
H102 H -0.223300 1.240300 0.424000
C103 C 0.029590 1.168160 0.457200
C104 C -0.055280 1.169320 0.436340
C105 C -0.083630 1.035320 0.411510
H106 H -0.140900 1.034600 0.397800
C107 C -0.028870 0.899690 0.406290
C108 C 0.055640 0.899170 0.426080
C109 C 0.084080 1.035240 0.451600
H110 H 0.141400 1.036300 0.465200
C111 C -0.061940 0.759700 0.378510
C112 C 0.006120 0.632370 0.365040
H113 H -0.024200 0.529900 0.355600
C114 C 0.066080 0.601030 0.407900
H115 H 0.107600 0.512200 0.400500
H116 H 0.030400 0.568800 0.435900
C117 C 0.117270 0.756060 0.419130
H118 H 0.153200 0.739900 0.448700
C119 C 0.057450 0.699280 0.322790
C120 C 0.138380 0.776160 0.328840
C121 C 0.177820 0.795540 0.377350
C122 C 0.019850 0.692220 0.276950
H123 H -0.034900 0.638700 0.272400
C124 C 0.062010 0.762710 0.238320
C125 C 0.143950 0.841300 0.244780
C126 C 0.181850 0.845540 0.289500
H127 H 0.237600 0.895600 0.293800
C128 C -0.053410 0.694600 0.184100
H129 H -0.051700 0.579300 0.192200
H130 H -0.068800 0.707200 0.150300
H131 H -0.097700 0.748900 0.203900
C132 C 0.257230 0.999700 0.209400
H133 H 0.248700 1.083900 0.233600
H134 H 0.272200 1.050200 0.178700
H135 H 0.305200 0.927800 0.219300
O136 O 0.050360 1.304280 0.481960
O137 O -0.102480 1.308110 0.442330
O138 O -0.138820 0.749080 0.365990
O139 O 0.252480 0.845490 0.383130
O140 O 0.031060 0.764970 0.192730
O141 O 0.178150 0.908790 0.204330
C142 C 0.361370 -0.321000 0.998230
H143 H 0.347800 -0.233800 1.020800
H144 H 0.354400 -0.425700 1.014200
H145 H 0.321100 -0.315000 0.970900
C146 C 0.680490 -0.322200 0.913940
H147 H 0.665700 -0.305700 0.880200
H148 H 0.705900 -0.430100 0.918200
H149 H 0.723300 -0.240300 0.924000
C150 C 0.470410 -0.168160 0.957200
C151 C 0.555280 -0.169320 0.936340
C152 C 0.583630 -0.035320 0.911510
H153 H 0.640900 -0.034600 0.897800
C154 C 0.528870 0.100310 0.906290
C155 C 0.444360 0.100830 0.926080
C156 C 0.415920 -0.035240 0.951600
H157 H 0.358600 -0.036300 0.965200
C158 C 0.561940 0.240300 0.878510
C159 C 0.493880 0.367630 0.865040
H160 H 0.524200 0.470100 0.855600
C161 C 0.433920 0.398970 0.907900
H162 H 0.392400 0.487800 0.900500
H163 H 0.469600 0.431200 0.935900
C164 C 0.382730 0.243940 0.919130
H165 H 0.346800 0.260100 0.948700
C166 C 0.442550 0.300720 0.822790
C167 C 0.361620 0.223840 0.828840
C168 C 0.322180 0.204460 0.877350
C169 C 0.480150 0.307780 0.776950
H170 H 0.534900 0.361300 0.772400
C171 C 0.437990 0.237290 0.738320
C172 C 0.356050 0.158700 0.744780
C173 C 0.318150 0.154460 0.789500
H174 H 0.262400 0.104400 0.793800
C175 C 0.553410 0.305400 0.684100
H176 H 0.551700 0.420700 0.692200
H177 H 0.568800 0.292800 0.650300
H178 H 0.597700 0.251100 0.703900
C179 C 0.242770 0.000300 0.709400
H180 H 0.251300 -0.083900 0.733600
H181 H 0.227800 -0.050200 0.678700
H182 H 0.194800 0.072200 0.719300
O183 O 0.449640 -0.304280 0.981960
O184 O 0.602480 -0.308110 0.942330
O185 O 0.638820 0.250920 0.865990
O186 O 0.247520 0.154510 0.883130
O187 O 0.468940 0.235030 0.692730
O188 O 0.321850 0.091210 0.704330
C189 C 0.361370 0.821000 0.498230
H190 H 0.347800 0.733800 0.520800
H191 H 0.354400 0.925700 0.514200
H192 H 0.321100 0.815000 0.470900
C193 C 0.680490 0.822200 0.413940
H194 H 0.665700 0.805700 0.380200
H195 H 0.705900 0.930100 0.418200
H196 H 0.723300 0.740300 0.424000
C197 C 0.470410 0.668160 0.457200
C198 C 0.555280 0.669320 0.436340
C199 C 0.583630 0.535320 0.411510
H200 H 0.640900 0.534600 0.397800
C201 C 0.528870 0.399690 0.406290
C202 C 0.444360 0.399170 0.426080
C203 C 0.415920 0.535240 0.451600
H204 H 0.358600 0.536300 0.465200
C205 C 0.561940 0.259700 0.378510
C206 C 0.493880 0.132370 0.365040
H207 H 0.524200 0.029900 0.355600
C208 C 0.433920 0.101030 0.407900
H209 H 0.392400 0.012200 0.400500
H210 H 0.469600 0.068800 0.435900
C211 C 0.382730 0.256060 0.419130
H212 H 0.346800 0.239900 0.448700
C213 C 0.442550 0.199280 0.322790
C214 C 0.361620 0.276160 0.328840
C215 C 0.322180 0.295540 0.377350
C216 C 0.480150 0.192220 0.276950
H217 H 0.534900 0.138700 0.272400
C218 C 0.437990 0.262710 0.238320
C219 C 0.356050 0.341300 0.244780
C220 C 0.318150 0.345540 0.289500
H221 H 0.262400 0.395600 0.293800
C222 C 0.553410 0.194600 0.184100
H223 H 0.551700 0.079300 0.192200
H224 H 0.568800 0.207200 0.150300
H225 H 0.597700 0.248900 0.203900
C226 C 0.242770 0.499700 0.209400
H227 H 0.251300 0.583900 0.233600
H228 H 0.227800 0.550200 0.178700
H229 H 0.194800 0.427800 0.219300
O230 O 0.449640 0.804280 0.481960
O231 O 0.602480 0.808110 0.442330
O232 O 0.638820 0.249080 0.365990
O233 O 0.247520 0.345490 0.383130
O234 O 0.468940 0.264970 0.192730
O235 O 0.321850 0.408790 0.204330
C236 C 0.138630 0.179000 0.998230
H237 H 0.152200 0.266200 1.020800
H238 H 0.145600 0.074300 1.014200
H239 H 0.178900 0.185000 0.970900
C240 C -0.180490 0.177800 0.913940
H241 H -0.165700 0.194300 0.880200
H242 H -0.205900 0.069900 0.918200
H243 H -0.223300 0.259700 0.924000
C244 C 0.029590 0.331840 0.957200
C245 C -0.055280 0.330680 0.936340
C246 C -0.083630 0.464680 0.911510
H247 H -0.140900 0.465400 0.897800
C248 C -0.028870 0.600310 0.906290
C249 C 0.055640 0.600830 0.926080
C250 C 0.084080 0.464760 0.951600
H251 H 0.141400 0.463700 0.965200
C252 C -0.061940 0.740300 0.878510
C253 C 0.006120 0.867630 0.865040
H254 H -0.024200 0.970100 0.855600
C255 C 0.066080 0.898970 0.907900
H256 H 0.107600 0.987800 0.900500
H257 H 0.030400 0.931200 0.935900
C258 C 0.117270 0.743940 0.919130
H259 H 0.153200 0.760100 0.948700
C260 C 0.057450 0.800720 0.822790
C261 C 0.138380 0.723840 0.828840
C262 C 0.177820 0.704460 0.877350
C263 C 0.019850 0.807780 0.776950
H264 H -0.034900 0.861300 0.772400
C265 C 0.062010 0.737290 0.738320
C266 C 0.143950 0.658700 0.744780
C267 C 0.181850 0.654460 0.789500
H268 H 0.237600 0.604400 0.793800
C269 C -0.053410 0.805400 0.684100
H270 H -0.051700 0.920700 0.692200
H271 H -0.068800 0.792800 0.650300
H272 H -0.097700 0.751100 0.703900
C273 C 0.257230 0.500300 0.709400
H274 H 0.248700 0.416100 0.733600
H275 H 0.272200 0.449800 0.678700
H276 H 0.305200 0.572200 0.719300
O277 O 0.050360 0.195720 0.981960
O278 O -0.102480 0.191890 0.942330
O279 O -0.138820 0.750920 0.865990
O280 O 0.252480 0.654510 0.883130
O281 O 0.031060 0.735030 0.692730
O282 O 0.178150 0.591210 0.704330
C283 C 0.861370 -0.321000 0.501770
H284 H 0.847800 -0.233800 0.479200
H285 H 0.854400 -0.425700 0.485800
H286 H 0.821100 -0.315000 0.529100
C287 C 1.180490 -0.322200 0.586060
H288 H 1.165700 -0.305700 0.619800
H289 H 1.205900 -0.430100 0.581800
H290 H 1.223300 -0.240300 0.576000
C291 C 0.970410 -0.168160 0.542800
C292 C 1.055280 -0.169320 0.563660
C293 C 1.083630 -0.035320 0.588490
H294 H 1.140900 -0.034600 0.602200
C295 C 1.028870 0.100310 0.593710
C296 C 0.944360 0.100830 0.573920
C297 C 0.915920 -0.035240 0.548400
H298 H 0.858600 -0.036300 0.534800
C299 C 1.061940 0.240300 0.621490
C300 C 0.993880 0.367630 0.634960
H301 H 1.024200 0.470100 0.644400
C302 C 0.933920 0.398970 0.592100
H303 H 0.892400 0.487800 0.599500
H304 H 0.969600 0.431200 0.564100
C305 C 0.882730 0.243940 0.580870
H306 H 0.846800 0.260100 0.551300
C307 C 0.942550 0.300720 0.677210
C308 C 0.861620 0.223840 0.671160
C309 C 0.822180 0.204460 0.622650
C310 C 0.980150 0.307780 0.723050
H311 H 1.034900 0.361300 0.727600
C312 C 0.937990 0.237290 0.761680
C313 C 0.856050 0.158700 0.755220
C314 C 0.818150 0.154460 0.710500
H315 H 0.762400 0.104400 0.706200
C316 C 1.053410 0.305400 0.815900
H317 H 1.051700 0.420700 0.807800
H318 H 1.068800 0.292800 0.849700
H319 H 1.097700 0.251100 0.796100
C320 C 0.742770 0.000300 0.790600
H321 H 0.751300 -0.083900 0.766400
H322 H 0.727800 -0.050200 0.821300
H323 H 0.694800 0.072200 0.780700
O324 O 0.949640 -0.304280 0.518040
O325 O 1.102480 -0.308110 0.557670
O326 O 1.138820 0.250920 0.634010
O327 O 0.747520 0.154510 0.616870
O328 O 0.968940 0.235030 0.807270
O329 O 0.821850 0.091210 0.795670
C330 C 0.638630 1.321000 0.001770
H331 H 0.652200 1.233800 -0.020800
H332 H 0.645600 1.425700 -0.014200
H333 H 0.678900 1.315000 0.029100
C334 C 0.319510 1.322200 0.086060
H335 H 0.334300 1.305700 0.119800
H336 H 0.294100 1.430100 0.081800
H337 H 0.276700 1.240300 0.076000
C338 C 0.529590 1.168160 0.042800
C339 C 0.444720 1.169320 0.063660
C340 C 0.416370 1.035320 0.088490
H341 H 0.359100 1.034600 0.102200
C342 C 0.471130 0.899690 0.093710
C343 C 0.555640 0.899170 0.073920
C344 C 0.584080 1.035240 0.048400
H345 H 0.641400 1.036300 0.034800
C346 C 0.438060 0.759700 0.121490
C347 C 0.506120 0.632370 0.134960
H348 H 0.475800 0.529900 0.144400
C349 C 0.566080 0.601030 0.092100
H350 H 0.607600 0.512200 0.099500
H351 H 0.530400 0.568800 0.064100
C352 C 0.617270 0.756060 0.080870
H353 H 0.653200 0.739900 0.051300
C354 C 0.557450 0.699280 0.177210
C355 C 0.638380 0.776160 0.171160
C356 C 0.677820 0.795540 0.122650
C357 C 0.519850 0.692220 0.223050
H358 H 0.465100 0.638700 0.227600
C359 C 0.562010 0.762710 0.261680
C360 C 0.643950 0.841300 0.255220
C361 C 0.681850 0.845540 0.210500
H362 H 0.737600 0.895600 0.206200
C363 C 0.446590 0.694600 0.315900
H364 H 0.448300 0.579300 0.307800
H365 H 0.431200 0.707200 0.349700
H366 H 0.402300 0.748900 0.296100
C367 C 0.757230 0.999700 0.290600
H368 H 0.748700 1.083900 0.266400
H369 H 0.772200 1.050200 0.321300
H370 H 0.805200 0.927800 0.280700
O371 O 0.550360 1.304280 0.018040
O372 O 0.397520 1.308110 0.057670
O373 O 0.361180 0.749080 0.134010
O374 O 0.752480 0.845490 0.116870
O375 O 0.531060 0.764970 0.307270
O376 O 0.678150 0.908790 0.295670

#END
