./MAQQED_from_xyz.cif_generated_by_CrystalShift
_symmetry_cell_setting triclinic
_symmetry_space_group_name_H-M 'P 1'
loop_
_symmetry_equiv_pos_site_id
_symmetry_equiv_pos_as_xyz
1 x,y,z
_cell_length_a 8.925000
_cell_length_b 9.067000
_cell_length_c 9.996000
_cell_angle_alpha 107.468000
_cell_angle_beta 96.662000
_cell_angle_gamma 113.768000
_cell_volume 679.640231
loop_
_atom_site_label
_atom_site_type_symbol
_atom_site_fract_x
_atom_site_fract_y
_atom_site_fract_z
O1 O 1.020800 0.532500 0.696400
N2 N 0.783300 0.400500 0.496800
N3 N 0.740600 0.396000 0.705200
H4 H 0.842000 0.419000 0.428000
C5 C 0.865500 0.451400 0.637600
C6 C 0.608100 0.314700 0.475000
C7 C 0.581000 0.309800 0.604000
C8 C 0.488500 0.254700 0.333700
C9 C 0.533500 0.207900 0.204900
H10 H 0.641200 0.210400 0.207700
C11 C 0.422100 0.157700 0.072600
H12 H 0.454300 0.127000 -0.015000
C13 C 0.264400 0.152100 0.066900
H14 H 0.187700 0.116100 -0.024300
C15 C 0.219200 0.198800 0.193800
H16 H 0.111100 0.195600 0.190000
C17 C 0.329400 0.250300 0.326900
H18 H 0.297000 0.282900 0.414000
C19 C 0.421100 0.237600 0.643800
C20 C 0.366000 0.349200 0.726800
H21 H 0.437400 0.471600 0.765600
C22 C 0.208800 0.282900 0.752700
H23 H 0.171100 0.359900 0.807300
C24 C 0.105400 0.104400 0.699400
H25 H -0.003600 0.059000 0.716300
C26 C 0.161800 -0.007500 0.621400
H27 H 0.092600 -0.130000 0.587400
C28 C 0.317600 0.058000 0.592900
H29 H 0.354900 -0.019500 0.538300
C30 C 0.775100 0.418200 0.857900
H31 H 0.686200 0.438700 0.898700
H32 H 0.885900 0.522300 0.912700
C33 C 0.779700 0.261600 0.878900
H34 H 0.797700 0.280300 0.982400
H35 H 0.872800 0.245500 0.844900
H36 H 0.671400 0.157400 0.822800
O37 O -0.020800 0.467500 0.303600
N38 N 0.216700 0.599500 0.503200
N39 N 0.259400 0.604000 0.294800
H40 H 0.158000 0.581000 0.572000
C41 C 0.134500 0.548600 0.362400
C42 C 0.391900 0.685300 0.525000
C43 C 0.419000 0.690200 0.396000
C44 C 0.511500 0.745300 0.666300
C45 C 0.466500 0.792100 0.795100
H46 H 0.358800 0.789600 0.792300
C47 C 0.577900 0.842300 0.927400
H48 H 0.545700 0.873000 1.015000
C49 C 0.735600 0.847900 0.933100
H50 H 0.812300 0.883900 1.024300
C51 C 0.780800 0.801200 0.806200
H52 H 0.888900 0.804400 0.810000
C53 C 0.670600 0.749700 0.673100
H54 H 0.703000 0.717100 0.586000
C55 C 0.578900 0.762400 0.356200
C56 C 0.634000 0.650800 0.273200
H57 H 0.562600 0.528400 0.234400
C58 C 0.791200 0.717100 0.247300
H59 H 0.828900 0.640100 0.192700
C60 C 0.894600 0.895600 0.300600
H61 H 1.003600 0.941000 0.283700
C62 C 0.838200 1.007500 0.378600
H63 H 0.907400 1.130000 0.412600
C64 C 0.682400 0.942000 0.407100
H65 H 0.645100 1.019500 0.461700
C66 C 0.224900 0.581800 0.142100
H67 H 0.313800 0.561300 0.101300
H68 H 0.114100 0.477700 0.087300
C69 C 0.220300 0.738400 0.121100
H70 H 0.202300 0.719700 0.017600
H71 H 0.127200 0.754500 0.155100
H72 H 0.328600 0.842600 0.177200

#END
