./MAQRUU_from_xyz.cif_generated_by_CrystalShift
_symmetry_cell_setting triclinic
_symmetry_space_group_name_H-M 'P 1'
loop_
_symmetry_equiv_pos_site_id
_symmetry_equiv_pos_as_xyz
1 x,y,z
_cell_length_a 8.623500
_cell_length_b 10.009200
_cell_length_c 10.470800
_cell_angle_alpha 77.296000
_cell_angle_beta 72.676000
_cell_angle_gamma 75.912000
_cell_volume 826.154954
loop_
_atom_site_label
_atom_site_type_symbol
_atom_site_fract_x
_atom_site_fract_y
_atom_site_fract_z
Cl1 Cl 0.753910 -0.022410 0.508890
O2 O 0.641200 0.604000 0.330600
O3 O 0.650300 0.819800 0.209900
N4 N 0.763100 0.480900 -0.048300
N5 N 0.739100 0.611100 -0.124200
C6 C 0.786500 0.620300 0.490500
H7 H 0.828000 0.521600 0.496400
H8 H 0.772200 0.648100 0.576000
H9 H 0.863800 0.669000 0.421400
C10 C 0.623400 0.654800 0.455500
H11 H 0.542500 0.612000 0.528700
H12 H 0.584400 0.755000 0.444200
C13 C 0.664400 0.695300 0.214700
C14 C 0.705600 0.627600 0.095100
C15 C 0.743200 0.486200 0.084100
C16 C 0.805500 0.362100 -0.115800
C17 C 0.716800 0.359000 -0.205400
H18 H 0.631900 0.432800 -0.221500
C19 C 0.756300 0.244200 -0.270500
H20 H 0.697800 0.241100 -0.331100
C21 C 0.882100 0.134200 -0.246300
H22 H 0.907000 0.057000 -0.289600
C23 C 0.970900 0.139100 -0.157200
H24 H 1.056500 0.065600 -0.142000
C25 C 0.932900 0.252800 -0.090800
H26 H 0.991700 0.256000 -0.030500
C27 C 0.704900 0.699300 -0.037500
C28 C 0.667300 0.853000 -0.085300
H29 H 0.691500 0.870400 -0.182400
H30 H 0.734000 0.898400 -0.056300
H31 H 0.552400 0.888700 -0.047900
C32 C 0.751400 0.358900 0.187300
C33 C 0.857000 0.332700 0.270900
H34 H 0.926200 0.394500 0.261000
C35 C 0.859600 0.214900 0.369000
H36 H 0.929200 0.197900 0.426000
C37 C 0.757400 0.122600 0.381600
C38 C 0.654300 0.144700 0.296600
H39 H 0.588500 0.080700 0.304400
C40 C 0.650900 0.263400 0.200200
H41 H 0.581200 0.280200 0.143300
Cl42 Cl 0.246090 1.022410 0.491110
O43 O 0.358800 0.396000 0.669400
O44 O 0.349700 0.180200 0.790100
N45 N 0.236900 0.519100 1.048300
N46 N 0.260900 0.388900 1.124200
C47 C 0.213500 0.379700 0.509500
H48 H 0.172000 0.478400 0.503600
H49 H 0.227800 0.351900 0.424000
H50 H 0.136200 0.331000 0.578600
C51 C 0.376600 0.345200 0.544500
H52 H 0.457500 0.388000 0.471300
H53 H 0.415600 0.245000 0.555800
C54 C 0.335600 0.304700 0.785300
C55 C 0.294400 0.372400 0.904900
C56 C 0.256800 0.513800 0.915900
C57 C 0.194500 0.637900 1.115800
C58 C 0.283200 0.641000 1.205400
H59 H 0.368100 0.567200 1.221500
C60 C 0.243700 0.755800 1.270500
H61 H 0.302200 0.758900 1.331100
C62 C 0.117900 0.865800 1.246300
H63 H 0.093000 0.943000 1.289600
C64 C 0.029100 0.860900 1.157200
H65 H -0.056500 0.934400 1.142000
C66 C 0.067100 0.747200 1.090800
H67 H 0.008300 0.744000 1.030500
C68 C 0.295100 0.300700 1.037500
C69 C 0.332700 0.147000 1.085300
H70 H 0.308500 0.129600 1.182400
H71 H 0.266000 0.101600 1.056300
H72 H 0.447600 0.111300 1.047900
C73 C 0.248600 0.641100 0.812700
C74 C 0.143000 0.667300 0.729100
H75 H 0.073800 0.605500 0.739000
C76 C 0.140400 0.785100 0.631000
H77 H 0.070800 0.802100 0.574000
C78 C 0.242600 0.877400 0.618400
C79 C 0.345700 0.855300 0.703400
H80 H 0.411500 0.919300 0.695600
C81 C 0.349100 0.736600 0.799800
H82 H 0.418800 0.719800 0.856700

#END
