
#######################################################################
#
#                 Cambridge Crystallographic Data Centre
#                                CCDC 
#
#######################################################################
#
# If this CIF has been generated from an entry in the Cambridge 
# Structural Database, then it will include bibliographic, chemical, 
# crystal, experimental, refinement or atomic coordinate data resulting 
# from the CCDC's data processing and validation procedures.
#
#######################################################################

data_MAQWIM01
_symmetry_cell_setting           orthorhombic
_symmetry_space_group_name_H-M   'P n a 21'
_symmetry_Int_Tables_number      33
_space_group_name_Hall           'P 2c -2n'
loop_
_symmetry_equiv_pos_site_id
_symmetry_equiv_pos_as_xyz
1 x,y,z
2 -x,-y,1/2+z
3 1/2-x,1/2+y,1/2+z
4 1/2+x,1/2-y,z
_cell_length_a                   9.835(3)
_cell_length_b                   9.153(3)
_cell_length_c                   11.370(5)
_cell_angle_alpha                90
_cell_angle_beta                 90
_cell_angle_gamma                90
_cell_volume                     1023.52
loop_
_atom_site_label
_atom_site_type_symbol
_atom_site_fract_x
_atom_site_fract_y
_atom_site_fract_z
C1 C 0.8503(2) 1.1728(2) 0.7450(2)
C2 C 0.9822(2) 1.1238(2) 0.7274(2)
H1 H 1.0410 1.1742 0.6749
C3 C 1.0276(2) 1.0017(2) 0.7865(2)
H2 H 1.1181 0.9689 0.7741
C4 C 0.9440(2) 0.92500(19) 0.8640(2)
C5 C 0.8112(2) 0.9757(2) 0.8815(2)
H3 H 0.7524 0.9256 0.9341
C6 C 0.7651(2) 1.0987(2) 0.8223(2)
H4 H 0.6749 1.1325 0.8347
C7 C 1.0058(2) 0.8001(2) 0.9280(2)
C8 C 0.9255(2) 0.4705(2) 1.0639(2)
C9 C 0.7953(3) 0.4215(2) 1.0091(3)
H5 H 0.7981 0.4405 0.9243
H6 H 0.7193 0.4752 1.0443
H7 H 0.7831 0.3166 1.0228
C10 C 0.9915(3) 0.3683(3) 1.1490(3)
H8 H 1.0800 0.4079 1.1728
H9 H 1.0045 0.2729 1.1117
H10 H 0.9334 0.3573 1.2185
N1 N 0.92364(18) 0.69341(17) 0.97038(17)
N2 N 0.98526(18) 0.59306(18) 1.04596(18)
O1 O 0.80151(16) 1.29432(16) 0.69023(17)
O2 O 1.12989(14) 0.79273(16) 0.93969(18)
H11 H 0.836(3) 0.697(3) 0.963(3)
H12 H 0.861(3) 1.317(3) 0.620(3)
C1 C 0.1497(2) -0.1728(2) 0.2450(2)
C2 C 0.0178(2) -0.1238(2) 0.2274(2)
H1 H -0.0410 -0.1742 0.1749
C3 C -0.0276(2) -0.0017(2) 0.2865(2)
H2 H -0.1181 0.0311 0.2741
C4 C 0.0560(2) 0.07500(19) 0.3640(2)
C5 C 0.1888(2) 0.0243(2) 0.3815(2)
H3 H 0.2476 0.0744 0.4341
C6 C 0.2349(2) -0.0987(2) 0.3223(2)
H4 H 0.3251 -0.1325 0.3347
C7 C -0.0058(2) 0.1999(2) 0.4280(2)
C8 C 0.0745(2) 0.5295(2) 0.5639(2)
C9 C 0.2047(3) 0.5785(2) 0.5091(3)
H5 H 0.2019 0.5595 0.4243
H6 H 0.2807 0.5248 0.5443
H7 H 0.2169 0.6834 0.5228
C10 C 0.0085(3) 0.6317(3) 0.6490(3)
H8 H -0.0800 0.5921 0.6728
H9 H -0.0045 0.7271 0.6117
H10 H 0.0666 0.6427 0.7185
N1 N 0.07636(18) 0.30659(17) 0.47038(17)
N2 N 0.01474(18) 0.40694(18) 0.54596(18)
O1 O 0.19849(16) -0.29432(16) 0.19023(17)
O2 O -0.12989(14) 0.20727(16) 0.43969(18)
H11 H 0.164(3) 0.303(3) 0.463(3)
H12 H 0.139(3) -0.317(3) 0.120(3)
C1 C 0.6497(2) 0.6728(2) 0.2450(2)
C2 C 0.5178(2) 0.6238(2) 0.2274(2)
H1 H 0.4590 0.6742 0.1749
C3 C 0.4724(2) 0.5017(2) 0.2865(2)
H2 H 0.3819 0.4689 0.2741
C4 C 0.5560(2) 0.42500(19) 0.3640(2)
C5 C 0.6888(2) 0.4757(2) 0.3815(2)
H3 H 0.7476 0.4256 0.4341
C6 C 0.7349(2) 0.5987(2) 0.3223(2)
H4 H 0.8251 0.6325 0.3347
C7 C 0.4942(2) 0.3001(2) 0.4280(2)
C8 C 0.5745(2) -0.0295(2) 0.5639(2)
C9 C 0.7047(3) -0.0785(2) 0.5091(3)
H5 H 0.7019 -0.0595 0.4243
H6 H 0.7807 -0.0248 0.5443
H7 H 0.7169 -0.1834 0.5228
C10 C 0.5085(3) -0.1317(3) 0.6490(3)
H8 H 0.4200 -0.0921 0.6728
H9 H 0.4955 -0.2271 0.6117
H10 H 0.5666 -0.1427 0.7185
N1 N 0.57636(18) 0.19341(17) 0.47038(17)
N2 N 0.51474(18) 0.09306(18) 0.54596(18)
O1 O 0.69849(16) 0.79432(16) 0.19023(17)
O2 O 0.37011(14) 0.29273(16) 0.43969(18)
H11 H 0.664(3) 0.197(3) 0.463(3)
H12 H 0.639(3) 0.817(3) 0.120(3)
C1 C 0.3503(2) 0.3272(2) 0.7450(2)
C2 C 0.4822(2) 0.3762(2) 0.7274(2)
H1 H 0.5410 0.3258 0.6749
C3 C 0.5276(2) 0.4983(2) 0.7865(2)
H2 H 0.6181 0.5311 0.7741
C4 C 0.4440(2) 0.57500(19) 0.8640(2)
C5 C 0.3112(2) 0.5243(2) 0.8815(2)
H3 H 0.2524 0.5744 0.9341
C6 C 0.2651(2) 0.4013(2) 0.8223(2)
H4 H 0.1749 0.3675 0.8347
C7 C 0.5058(2) 0.6999(2) 0.9280(2)
C8 C 0.4255(2) 1.0295(2) 1.0639(2)
C9 C 0.2953(3) 1.0785(2) 1.0091(3)
H5 H 0.2981 1.0595 0.9243
H6 H 0.2193 1.0248 1.0443
H7 H 0.2831 1.1834 1.0228
C10 C 0.4915(3) 1.1317(3) 1.1490(3)
H8 H 0.5800 1.0921 1.1728
H9 H 0.5045 1.2271 1.1117
H10 H 0.4334 1.1427 1.2185
N1 N 0.42364(18) 0.80659(17) 0.97038(17)
N2 N 0.48526(18) 0.90694(18) 1.04596(18)
O1 O 0.30151(16) 0.20568(16) 0.69023(17)
O2 O 0.62989(14) 0.70727(16) 0.93969(18)
H11 H 0.336(3) 0.803(3) 0.963(3)
H12 H 0.361(3) 0.183(3) 0.620(3)

#END
