./MAQWIM01_from_xyz.cif_generated_by_CrystalShift
_symmetry_cell_setting triclinic
_symmetry_space_group_name_H-M 'P 1'
loop_
_symmetry_equiv_pos_site_id
_symmetry_equiv_pos_as_xyz
1 x,y,z
_cell_length_a 9.835000
_cell_length_b 9.153000
_cell_length_c 11.370000
_cell_angle_alpha 90.000000
_cell_angle_beta 90.000000
_cell_angle_gamma 90.000000
_cell_volume 1023.524614
loop_
_atom_site_label
_atom_site_type_symbol
_atom_site_fract_x
_atom_site_fract_y
_atom_site_fract_z
C1 C 0.850300 1.172800 0.745000
C2 C 0.982200 1.123800 0.727400
H3 H 1.041000 1.174200 0.674900
C4 C 1.027600 1.001700 0.786500
H5 H 1.118100 0.968900 0.774100
C6 C 0.944000 0.925000 0.864000
C7 C 0.811200 0.975700 0.881500
H8 H 0.752400 0.925600 0.934100
C9 C 0.765100 1.098700 0.822300
H10 H 0.674900 1.132500 0.834700
C11 C 1.005800 0.800100 0.928000
C12 C 0.925500 0.470500 1.063900
C13 C 0.795300 0.421500 1.009100
H14 H 0.798100 0.440500 0.924300
H15 H 0.719300 0.475200 1.044300
H16 H 0.783100 0.316600 1.022800
C17 C 0.991500 0.368300 1.149000
H18 H 1.080000 0.407900 1.172800
H19 H 1.004500 0.272900 1.111700
H20 H 0.933400 0.357300 1.218500
N21 N 0.923640 0.693410 0.970380
N22 N 0.985260 0.593060 1.045960
O23 O 0.801510 1.294320 0.690230
O24 O 1.129890 0.792730 0.939690
H25 H 0.836000 0.697000 0.963000
H26 H 0.861000 1.317000 0.620000
C27 C 0.149700 -0.172800 0.245000
C28 C 0.017800 -0.123800 0.227400
H29 H -0.041000 -0.174200 0.174900
C30 C -0.027600 -0.001700 0.286500
H31 H -0.118100 0.031100 0.274100
C32 C 0.056000 0.075000 0.364000
C33 C 0.188800 0.024300 0.381500
H34 H 0.247600 0.074400 0.434100
C35 C 0.234900 -0.098700 0.322300
H36 H 0.325100 -0.132500 0.334700
C37 C -0.005800 0.199900 0.428000
C38 C 0.074500 0.529500 0.563900
C39 C 0.204700 0.578500 0.509100
H40 H 0.201900 0.559500 0.424300
H41 H 0.280700 0.524800 0.544300
H42 H 0.216900 0.683400 0.522800
C43 C 0.008500 0.631700 0.649000
H44 H -0.080000 0.592100 0.672800
H45 H -0.004500 0.727100 0.611700
H46 H 0.066600 0.642700 0.718500
N47 N 0.076360 0.306590 0.470380
N48 N 0.014740 0.406940 0.545960
O49 O 0.198490 -0.294320 0.190230
O50 O -0.129890 0.207270 0.439690
H51 H 0.164000 0.303000 0.463000
H52 H 0.139000 -0.317000 0.120000
C53 C 0.649700 0.672800 0.245000
C54 C 0.517800 0.623800 0.227400
H55 H 0.459000 0.674200 0.174900
C56 C 0.472400 0.501700 0.286500
H57 H 0.381900 0.468900 0.274100
C58 C 0.556000 0.425000 0.364000
C59 C 0.688800 0.475700 0.381500
H60 H 0.747600 0.425600 0.434100
C61 C 0.734900 0.598700 0.322300
H62 H 0.825100 0.632500 0.334700
C63 C 0.494200 0.300100 0.428000
C64 C 0.574500 -0.029500 0.563900
C65 C 0.704700 -0.078500 0.509100
H66 H 0.701900 -0.059500 0.424300
H67 H 0.780700 -0.024800 0.544300
H68 H 0.716900 -0.183400 0.522800
C69 C 0.508500 -0.131700 0.649000
H70 H 0.420000 -0.092100 0.672800
H71 H 0.495500 -0.227100 0.611700
H72 H 0.566600 -0.142700 0.718500
N73 N 0.576360 0.193410 0.470380
N74 N 0.514740 0.093060 0.545960
O75 O 0.698490 0.794320 0.190230
O76 O 0.370110 0.292730 0.439690
H77 H 0.664000 0.197000 0.463000
H78 H 0.639000 0.817000 0.120000
C79 C 0.350300 0.327200 0.745000
C80 C 0.482200 0.376200 0.727400
H81 H 0.541000 0.325800 0.674900
C82 C 0.527600 0.498300 0.786500
H83 H 0.618100 0.531100 0.774100
C84 C 0.444000 0.575000 0.864000
C85 C 0.311200 0.524300 0.881500
H86 H 0.252400 0.574400 0.934100
C87 C 0.265100 0.401300 0.822300
H88 H 0.174900 0.367500 0.834700
C89 C 0.505800 0.699900 0.928000
C90 C 0.425500 1.029500 1.063900
C91 C 0.295300 1.078500 1.009100
H92 H 0.298100 1.059500 0.924300
H93 H 0.219300 1.024800 1.044300
H94 H 0.283100 1.183400 1.022800
C95 C 0.491500 1.131700 1.149000
H96 H 0.580000 1.092100 1.172800
H97 H 0.504500 1.227100 1.111700
H98 H 0.433400 1.142700 1.218500
N99 N 0.423640 0.806590 0.970380
N100 N 0.485260 0.906940 1.045960
O101 O 0.301510 0.205680 0.690230
O102 O 0.629890 0.707270 0.939690
H103 H 0.336000 0.803000 0.963000
H104 H 0.361000 0.183000 0.620000

#END
