
#######################################################################
#
#                 Cambridge Crystallographic Data Centre
#                                CCDC 
#
#######################################################################
#
# If this CIF has been generated from an entry in the Cambridge 
# Structural Database, then it will include bibliographic, chemical, 
# crystal, experimental, refinement or atomic coordinate data resulting 
# from the CCDC's data processing and validation procedures.
#
#######################################################################

data_MARBOX
_symmetry_cell_setting           monoclinic
_symmetry_space_group_name_H-M   'C 2/c'
_symmetry_Int_Tables_number      15
_space_group_name_Hall           '-C 2yn'
loop_
_symmetry_equiv_pos_site_id
_symmetry_equiv_pos_as_xyz
1 x,y,z
2 1/2+x,1/2+y,z
3 -x,y,1/2-z
4 1/2-x,1/2+y,1/2-z
5 -x,-y,-z
6 1/2-x,1/2-y,-z
7 x,-y,1/2+z
8 1/2+x,1/2-y,1/2+z
_cell_length_a                   10.4503(3)
_cell_length_b                   10.8358(4)
_cell_length_c                   12.6350(4)
_cell_angle_alpha                90
_cell_angle_beta                 108.8379(15)
_cell_angle_gamma                90
_cell_volume                     1354.12
loop_
_atom_site_label
_atom_site_type_symbol
_atom_site_fract_x
_atom_site_fract_y
_atom_site_fract_z
C1 C 0.33767(10) 0.71698(9) 0.72726(8)
C2 C 0.42712(9) 0.61323(9) 0.72072(7)
C3 C 0.35065(10) 0.52588(9) 0.65477(8)
C4 C 0.20726(10) 0.56973(9) 0.61149(9)
C5 C 0.16031(12) 0.57555(11) 0.48411(10)
C6 C 0.18030(13) 0.44880(13) 0.43839(9)
C7 C 0.32840(13) 0.40892(12) 0.48171(9)
C8 C 0.38536(11) 0.40735(10) 0.61079(9)
O1 O 0.36380(8) 0.81132(7) 0.78065(6)
O2 O 0.20899(8) 0.69067(7) 0.66079(7)
H1 H 0.1429 0.5133 0.6315
H2 H 0.2146 0.6386 0.4595
H3 H 0.0625 0.5986 0.4555
H4 H 0.1243 0.3867 0.4623
H5 H 0.1504 0.4528 0.3549
H6 H 0.3831 0.4677 0.4529
H7 H 0.3361 0.3241 0.4533
H8 H 0.4858 0.3975 0.6352
H9 H 0.3448 0.3370 0.6402
C1B C 0.66233(10) 0.71698(9) 0.77274(8)
C2B C 0.57288(9) 0.61323(9) 0.77928(7)
C3B C 0.64935(10) 0.52588(9) 0.84523(8)
C4B C 0.79274(10) 0.56973(9) 0.88851(9)
C5B C 0.83969(12) 0.57555(11) 1.01589(10)
C6B C 0.81970(13) 0.44880(13) 1.06161(9)
C7B C 0.67160(13) 0.40892(12) 1.01829(9)
C8B C 0.61464(11) 0.40735(10) 0.88921(9)
O1B O 0.63620(8) 0.81132(7) 0.71935(6)
O2B O 0.79101(8) 0.69067(7) 0.83921(7)
H1B H 0.8571 0.5133 0.8685
H2B H 0.7854 0.6386 1.0405
H3B H 0.9375 0.5986 1.0445
H4B H 0.8757 0.3867 1.0377
H5B H 0.8496 0.4528 1.1451
H6B H 0.6169 0.4677 1.0471
H7B H 0.6639 0.3241 1.0467
H8B H 0.5142 0.3975 0.8648
H9B H 0.6552 0.3370 0.8598
C1 C -0.16233(10) 0.21698(9) 0.72726(8)
C2 C -0.07288(9) 0.11323(9) 0.72072(7)
C3 C -0.14935(10) 0.02588(9) 0.65477(8)
C4 C -0.29274(10) 0.06973(9) 0.61149(9)
C5 C -0.33969(12) 0.07555(11) 0.48411(10)
C6 C -0.31970(13) -0.05120(13) 0.43839(9)
C7 C -0.17160(13) -0.09108(12) 0.48171(9)
C8 C -0.11464(11) -0.09265(10) 0.61079(9)
O1 O -0.13620(8) 0.31132(7) 0.78065(6)
O2 O -0.29101(8) 0.19067(7) 0.66079(7)
H1 H -0.3571 0.0133 0.6315
H2 H -0.2854 0.1386 0.4595
H3 H -0.4375 0.0986 0.4555
H4 H -0.3757 -0.1133 0.4623
H5 H -0.3496 -0.0472 0.3549
H6 H -0.1169 -0.0323 0.4529
H7 H -0.1639 -0.1759 0.4533
H8 H -0.0142 -0.1025 0.6352
H9 H -0.1552 -0.1630 0.6402
C1B C 0.16233(10) 0.21698(9) 0.77274(8)
C2B C 0.07288(9) 0.11323(9) 0.77928(7)
C3B C 0.14935(10) 0.02588(9) 0.84523(8)
C4B C 0.29274(10) 0.06973(9) 0.88851(9)
C5B C 0.33969(12) 0.07555(11) 1.01589(10)
C6B C 0.31970(13) -0.05120(13) 1.06161(9)
C7B C 0.17160(13) -0.09108(12) 1.01829(9)
C8B C 0.11464(11) -0.09265(10) 0.88921(9)
O1B O 0.13620(8) 0.31132(7) 0.71935(6)
O2B O 0.29101(8) 0.19067(7) 0.83921(7)
H1B H 0.3571 0.0133 0.8685
H2B H 0.2854 0.1386 1.0405
H3B H 0.4375 0.0986 1.0445
H4B H 0.3757 -0.1133 1.0377
H5B H 0.3496 -0.0472 1.1451
H6B H 0.1169 -0.0323 1.0471
H7B H 0.1639 -0.1759 1.0467
H8B H 0.0142 -0.1025 0.8648
H9B H 0.1552 -0.1630 0.8598
C1 C 0.83767(10) 0.21698(9) 0.72726(8)
C2 C 0.92712(9) 0.11323(9) 0.72072(7)
C3 C 0.85065(10) 0.02588(9) 0.65477(8)
C4 C 0.70726(10) 0.06973(9) 0.61149(9)
C5 C 0.66031(12) 0.07555(11) 0.48411(10)
C6 C 0.68030(13) -0.05120(13) 0.43839(9)
C7 C 0.82840(13) -0.09108(12) 0.48171(9)
C8 C 0.88536(11) -0.09265(10) 0.61079(9)
O1 O 0.86380(8) 0.31132(7) 0.78065(6)
O2 O 0.70899(8) 0.19067(7) 0.66079(7)
H1 H 0.6429 0.0133 0.6315
H2 H 0.7146 0.1386 0.4595
H3 H 0.5625 0.0986 0.4555
H4 H 0.6243 -0.1133 0.4623
H5 H 0.6504 -0.0472 0.3549
H6 H 0.8831 -0.0323 0.4529
H7 H 0.8361 -0.1759 0.4533
H8 H 0.9858 -0.1025 0.6352
H9 H 0.8448 -0.1630 0.6402
C1B C 1.16233(10) 0.21698(9) 0.77274(8)
C2B C 1.07288(9) 0.11323(9) 0.77928(7)
C3B C 1.14935(10) 0.02588(9) 0.84523(8)
C4B C 1.29274(10) 0.06973(9) 0.88851(9)
C5B C 1.33969(12) 0.07555(11) 1.01589(10)
C6B C 1.31970(13) -0.05120(13) 1.06161(9)
C7B C 1.17160(13) -0.09108(12) 1.01829(9)
C8B C 1.11464(11) -0.09265(10) 0.88921(9)
O1B O 1.13620(8) 0.31132(7) 0.71935(6)
O2B O 1.29101(8) 0.19067(7) 0.83921(7)
H1B H 1.3571 0.0133 0.8685
H2B H 1.2854 0.1386 1.0405
H3B H 1.4375 0.0986 1.0445
H4B H 1.3757 -0.1133 1.0377
H5B H 1.3496 -0.0472 1.1451
H6B H 1.1169 -0.0323 1.0471
H7B H 1.1639 -0.1759 1.0467
H8B H 1.0142 -0.1025 0.8648
H9B H 1.1552 -0.1630 0.8598
C1 C 0.66233(10) 0.28302(9) 0.27274(8)
C2 C 0.57288(9) 0.38677(9) 0.27928(7)
C3 C 0.64935(10) 0.47412(9) 0.34523(8)
C4 C 0.79274(10) 0.43027(9) 0.38851(9)
C5 C 0.83969(12) 0.42445(11) 0.51589(10)
C6 C 0.81970(13) 0.55120(13) 0.56161(9)
C7 C 0.67160(13) 0.59108(12) 0.51829(9)
C8 C 0.61464(11) 0.59265(10) 0.38921(9)
O1 O 0.63620(8) 0.18868(7) 0.21935(6)
O2 O 0.79101(8) 0.30933(7) 0.33921(7)
H1 H 0.8571 0.4867 0.3685
H2 H 0.7854 0.3614 0.5405
H3 H 0.9375 0.4014 0.5445
H4 H 0.8757 0.6133 0.5377
H5 H 0.8496 0.5472 0.6451
H6 H 0.6169 0.5323 0.5471
H7 H 0.6639 0.6759 0.5467
H8 H 0.5142 0.6025 0.3648
H9 H 0.6552 0.6630 0.3598
C1B C 0.33767(10) 0.28302(9) 0.22726(8)
C2B C 0.42712(9) 0.38677(9) 0.22072(7)
C3B C 0.35065(10) 0.47412(9) 0.15477(8)
C4B C 0.20726(10) 0.43027(9) 0.11149(9)
C5B C 0.16031(12) 0.42445(11) -0.01589(10)
C6B C 0.18030(13) 0.55120(13) -0.06161(9)
C7B C 0.32840(13) 0.59108(12) -0.01829(9)
C8B C 0.38536(11) 0.59265(10) 0.11079(9)
O1B O 0.36380(8) 0.18868(7) 0.28065(6)
O2B O 0.20899(8) 0.30933(7) 0.16079(7)
H1B H 0.1429 0.4867 0.1315
H2B H 0.2146 0.3614 -0.0405
H3B H 0.0625 0.4014 -0.0445
H4B H 0.1243 0.6133 -0.0377
H5B H 0.1504 0.5472 -0.1451
H6B H 0.3831 0.5323 -0.0471
H7B H 0.3361 0.6759 -0.0467
H8B H 0.4858 0.6025 0.1352
H9B H 0.3448 0.6630 0.1402
C1 C 0.16233(10) 0.78302(9) 0.27274(8)
C2 C 0.07288(9) 0.88677(9) 0.27928(7)
C3 C 0.14935(10) 0.97412(9) 0.34523(8)
C4 C 0.29274(10) 0.93027(9) 0.38851(9)
C5 C 0.33969(12) 0.92445(11) 0.51589(10)
C6 C 0.31970(13) 1.05120(13) 0.56161(9)
C7 C 0.17160(13) 1.09108(12) 0.51829(9)
C8 C 0.11464(11) 1.09265(10) 0.38921(9)
O1 O 0.13620(8) 0.68868(7) 0.21935(6)
O2 O 0.29101(8) 0.80933(7) 0.33921(7)
H1 H 0.3571 0.9867 0.3685
H2 H 0.2854 0.8614 0.5405
H3 H 0.4375 0.9014 0.5445
H4 H 0.3757 1.1133 0.5377
H5 H 0.3496 1.0472 0.6451
H6 H 0.1169 1.0323 0.5471
H7 H 0.1639 1.1759 0.5467
H8 H 0.0142 1.1025 0.3648
H9 H 0.1552 1.1630 0.3598
C1B C -0.16233(10) 0.78302(9) 0.22726(8)
C2B C -0.07288(9) 0.88677(9) 0.22072(7)
C3B C -0.14935(10) 0.97412(9) 0.15477(8)
C4B C -0.29274(10) 0.93027(9) 0.11149(9)
C5B C -0.33969(12) 0.92445(11) -0.01589(10)
C6B C -0.31970(13) 1.05120(13) -0.06161(9)
C7B C -0.17160(13) 1.09108(12) -0.01829(9)
C8B C -0.11464(11) 1.09265(10) 0.11079(9)
O1B O -0.13620(8) 0.68868(7) 0.28065(6)
O2B O -0.29101(8) 0.80933(7) 0.16079(7)
H1B H -0.3571 0.9867 0.1315
H2B H -0.2854 0.8614 -0.0405
H3B H -0.4375 0.9014 -0.0445
H4B H -0.3757 1.1133 -0.0377
H5B H -0.3496 1.0472 -0.1451
H6B H -0.1169 1.0323 -0.0471
H7B H -0.1639 1.1759 -0.0467
H8B H -0.0142 1.1025 0.1352
H9B H -0.1552 1.1630 0.1402
C1 C 1.16233(10) 0.78302(9) 0.27274(8)
C2 C 1.07288(9) 0.88677(9) 0.27928(7)
C3 C 1.14935(10) 0.97412(9) 0.34523(8)
C4 C 1.29274(10) 0.93027(9) 0.38851(9)
C5 C 1.33969(12) 0.92445(11) 0.51589(10)
C6 C 1.31970(13) 1.05120(13) 0.56161(9)
C7 C 1.17160(13) 1.09108(12) 0.51829(9)
C8 C 1.11464(11) 1.09265(10) 0.38921(9)
O1 O 1.13620(8) 0.68868(7) 0.21935(6)
O2 O 1.29101(8) 0.80933(7) 0.33921(7)
H1 H 1.3571 0.9867 0.3685
H2 H 1.2854 0.8614 0.5405
H3 H 1.4375 0.9014 0.5445
H4 H 1.3757 1.1133 0.5377
H5 H 1.3496 1.0472 0.6451
H6 H 1.1169 1.0323 0.5471
H7 H 1.1639 1.1759 0.5467
H8 H 1.0142 1.1025 0.3648
H9 H 1.1552 1.1630 0.3598
C1B C 0.83767(10) 0.78302(9) 0.22726(8)
C2B C 0.92712(9) 0.88677(9) 0.22072(7)
C3B C 0.85065(10) 0.97412(9) 0.15477(8)
C4B C 0.70726(10) 0.93027(9) 0.11149(9)
C5B C 0.66031(12) 0.92445(11) -0.01589(10)
C6B C 0.68030(13) 1.05120(13) -0.06161(9)
C7B C 0.82840(13) 1.09108(12) -0.01829(9)
C8B C 0.88536(11) 1.09265(10) 0.11079(9)
O1B O 0.86380(8) 0.68868(7) 0.28065(6)
O2B O 0.70899(8) 0.80933(7) 0.16079(7)
H1B H 0.6429 0.9867 0.1315
H2B H 0.7146 0.8614 -0.0405
H3B H 0.5625 0.9014 -0.0445
H4B H 0.6243 1.1133 -0.0377
H5B H 0.6504 1.0472 -0.1451
H6B H 0.8831 1.0323 -0.0471
H7B H 0.8361 1.1759 -0.0467
H8B H 0.9858 1.1025 0.1352
H9B H 0.8448 1.1630 0.1402

#END
