./MARHOE_from_xyz.cif_generated_by_CrystalShift
_symmetry_cell_setting triclinic
_symmetry_space_group_name_H-M 'P 1'
loop_
_symmetry_equiv_pos_site_id
_symmetry_equiv_pos_as_xyz
1 x,y,z
_cell_length_a 6.489700
_cell_length_b 19.302000
_cell_length_c 12.454000
_cell_angle_alpha 90.000000
_cell_angle_beta 99.848000
_cell_angle_gamma 90.000000
_cell_volume 1537.052983
loop_
_atom_site_label
_atom_site_type_symbol
_atom_site_fract_x
_atom_site_fract_y
_atom_site_fract_z
C1 C 0.021600 0.432580 0.112500
H2 H 0.157900 0.441000 0.147200
C3 C -0.061100 0.472240 0.021400
C4 C -0.296000 0.367060 0.105300
C5 C -0.529700 0.221860 0.259900
C6 C -0.426100 0.313430 0.145100
H7 H -0.560200 0.308900 0.105100
C8 C -0.531500 0.152700 0.223300
C9 C -0.686300 0.105440 0.247200
C10 C -0.264200 0.456860 -0.025800
H11 H -0.325800 0.481600 -0.087000
C12 C -0.092300 0.381400 0.152500
H13 H -0.030400 0.355900 0.212800
C14 C -0.670100 0.242480 0.328000
C15 C -0.825300 0.194160 0.352000
C16 C -0.378500 0.406110 0.014600
H17 H -0.515000 0.397700 -0.019800
C18 C -0.383400 0.272730 0.224900
H19 H -0.249000 0.274800 0.265300
C20 C -0.831200 0.128090 0.309000
H21 H -0.935900 0.097900 0.322000
C22 C -0.664400 0.309000 0.376100
H23 H -0.566700 0.341100 0.360700
C24 C -0.380300 0.059700 0.132100
H25 H -0.276200 0.043800 0.095400
C26 C -0.962900 0.215800 0.422300
H27 H -1.064000 0.185100 0.438100
C28 C -0.684500 0.036040 0.209600
H29 H -0.787400 0.005400 0.223700
C30 C -0.951700 0.279300 0.466700
H31 H -1.044600 0.292200 0.512200
C32 C -0.797200 0.327100 0.444000
H33 H -0.787800 0.370800 0.475900
C34 C -0.379500 0.126400 0.163800
H35 H -0.277100 0.156100 0.146400
C36 C -0.536600 0.013600 0.153800
H37 H -0.537700 -0.032000 0.129800
C38 C -0.021600 0.567420 -0.112500
H39 H -0.157900 0.559000 -0.147200
C40 C 0.061100 0.527760 -0.021400
C41 C 0.296000 0.632940 -0.105300
C42 C 0.529700 0.778140 -0.259900
C43 C 0.426100 0.686570 -0.145100
H44 H 0.560200 0.691100 -0.105100
C45 C 0.531500 0.847300 -0.223300
C46 C 0.686300 0.894560 -0.247200
C47 C 0.264200 0.543140 0.025800
H48 H 0.325800 0.518400 0.087000
C49 C 0.092300 0.618600 -0.152500
H50 H 0.030400 0.644100 -0.212800
C51 C 0.670100 0.757520 -0.328000
C52 C 0.825300 0.805840 -0.352000
C53 C 0.378500 0.593890 -0.014600
H54 H 0.515000 0.602300 0.019800
C55 C 0.383400 0.727270 -0.224900
H56 H 0.249000 0.725200 -0.265300
C57 C 0.831200 0.871910 -0.309000
H58 H 0.935900 0.902100 -0.322000
C59 C 0.664400 0.691000 -0.376100
H60 H 0.566700 0.658900 -0.360700
C61 C 0.380300 0.940300 -0.132100
H62 H 0.276200 0.956200 -0.095400
C63 C 0.962900 0.784200 -0.422300
H64 H 1.064000 0.814900 -0.438100
C65 C 0.684500 0.963960 -0.209600
H66 H 0.787400 0.994600 -0.223700
C67 C 0.951700 0.720700 -0.466700
H68 H 1.044600 0.707800 -0.512200
C69 C 0.797200 0.672900 -0.444000
H70 H 0.787800 0.629200 -0.475900
C71 C 0.379500 0.873600 -0.163800
H72 H 0.277100 0.843900 -0.146400
C73 C 0.536600 0.986400 -0.153800
H74 H 0.537700 1.032000 -0.129800
C75 C 0.021600 0.432580 1.112500
H76 H 0.157900 0.441000 1.147200
C77 C -0.061100 0.472240 1.021400
C78 C -0.296000 0.367060 1.105300
C79 C -0.529700 0.221860 1.259900
C80 C -0.426100 0.313430 1.145100
H81 H -0.560200 0.308900 1.105100
C82 C -0.531500 0.152700 1.223300
C83 C -0.686300 0.105440 1.247200
C84 C -0.264200 0.456860 0.974200
H85 H -0.325800 0.481600 0.913000
C86 C -0.092300 0.381400 1.152500
H87 H -0.030400 0.355900 1.212800
C88 C -0.670100 0.242480 1.328000
C89 C -0.825300 0.194160 1.352000
C90 C -0.378500 0.406110 1.014600
H91 H -0.515000 0.397700 0.980200
C92 C -0.383400 0.272730 1.224900
H93 H -0.249000 0.274800 1.265300
C94 C -0.831200 0.128090 1.309000
H95 H -0.935900 0.097900 1.322000
C96 C -0.664400 0.309000 1.376100
H97 H -0.566700 0.341100 1.360700
C98 C -0.380300 0.059700 1.132100
H99 H -0.276200 0.043800 1.095400
C100 C -0.962900 0.215800 1.422300
H101 H -1.064000 0.185100 1.438100
C102 C -0.684500 0.036040 1.209600
H103 H -0.787400 0.005400 1.223700
C104 C -0.951700 0.279300 1.466700
H105 H -1.044600 0.292200 1.512200
C106 C -0.797200 0.327100 1.444000
H107 H -0.787800 0.370800 1.475900
C108 C -0.379500 0.126400 1.163800
H109 H -0.277100 0.156100 1.146400
C110 C -0.536600 0.013600 1.153800
H111 H -0.537700 -0.032000 1.129800
C112 C -0.021600 0.567420 0.887500
H113 H -0.157900 0.559000 0.852800
C114 C 0.061100 0.527760 0.978600
C115 C 0.296000 0.632940 0.894700
C116 C 0.529700 0.778140 0.740100
C117 C 0.426100 0.686570 0.854900
H118 H 0.560200 0.691100 0.894900
C119 C 0.531500 0.847300 0.776700
C120 C 0.686300 0.894560 0.752800
C121 C 0.264200 0.543140 1.025800
H122 H 0.325800 0.518400 1.087000
C123 C 0.092300 0.618600 0.847500
H124 H 0.030400 0.644100 0.787200
C125 C 0.670100 0.757520 0.672000
C126 C 0.825300 0.805840 0.648000
C127 C 0.378500 0.593890 0.985400
H128 H 0.515000 0.602300 1.019800
C129 C 0.383400 0.727270 0.775100
H130 H 0.249000 0.725200 0.734700
C131 C 0.831200 0.871910 0.691000
H132 H 0.935900 0.902100 0.678000
C133 C 0.664400 0.691000 0.623900
H134 H 0.566700 0.658900 0.639300
C135 C 0.380300 0.940300 0.867900
H136 H 0.276200 0.956200 0.904600
C137 C 0.962900 0.784200 0.577700
H138 H 1.064000 0.814900 0.561900
C139 C 0.684500 0.963960 0.790400
H140 H 0.787400 0.994600 0.776300
C141 C 0.951700 0.720700 0.533300
H142 H 1.044600 0.707800 0.487800
C143 C 0.797200 0.672900 0.556000
H144 H 0.787800 0.629200 0.524100
C145 C 0.379500 0.873600 0.836200
H146 H 0.277100 0.843900 0.853600
C147 C 0.536600 0.986400 0.846200
H148 H 0.537700 1.032000 0.870200
C149 C 1.021600 0.432580 0.112500
H150 H 1.157900 0.441000 0.147200
C151 C 0.938900 0.472240 0.021400
C152 C 0.704000 0.367060 0.105300
C153 C 0.470300 0.221860 0.259900
C154 C 0.573900 0.313430 0.145100
H155 H 0.439800 0.308900 0.105100
C156 C 0.468500 0.152700 0.223300
C157 C 0.313700 0.105440 0.247200
C158 C 0.735800 0.456860 -0.025800
H159 H 0.674200 0.481600 -0.087000
C160 C 0.907700 0.381400 0.152500
H161 H 0.969600 0.355900 0.212800
C162 C 0.329900 0.242480 0.328000
C163 C 0.174700 0.194160 0.352000
C164 C 0.621500 0.406110 0.014600
H165 H 0.485000 0.397700 -0.019800
C166 C 0.616600 0.272730 0.224900
H167 H 0.751000 0.274800 0.265300
C168 C 0.168800 0.128090 0.309000
H169 H 0.064100 0.097900 0.322000
C170 C 0.335600 0.309000 0.376100
H171 H 0.433300 0.341100 0.360700
C172 C 0.619700 0.059700 0.132100
H173 H 0.723800 0.043800 0.095400
C174 C 0.037100 0.215800 0.422300
H175 H -0.064000 0.185100 0.438100
C176 C 0.315500 0.036040 0.209600
H177 H 0.212600 0.005400 0.223700
C178 C 0.048300 0.279300 0.466700
H179 H -0.044600 0.292200 0.512200
C180 C 0.202800 0.327100 0.444000
H181 H 0.212200 0.370800 0.475900
C182 C 0.620500 0.126400 0.163800
H183 H 0.722900 0.156100 0.146400
C184 C 0.463400 0.013600 0.153800
H185 H 0.462300 -0.032000 0.129800
C186 C 0.978400 0.567420 -0.112500
H187 H 0.842100 0.559000 -0.147200
C188 C 1.061100 0.527760 -0.021400
C189 C 1.296000 0.632940 -0.105300
C190 C 1.529700 0.778140 -0.259900
C191 C 1.426100 0.686570 -0.145100
H192 H 1.560200 0.691100 -0.105100
C193 C 1.531500 0.847300 -0.223300
C194 C 1.686300 0.894560 -0.247200
C195 C 1.264200 0.543140 0.025800
H196 H 1.325800 0.518400 0.087000
C197 C 1.092300 0.618600 -0.152500
H198 H 1.030400 0.644100 -0.212800
C199 C 1.670100 0.757520 -0.328000
C200 C 1.825300 0.805840 -0.352000
C201 C 1.378500 0.593890 -0.014600
H202 H 1.515000 0.602300 0.019800
C203 C 1.383400 0.727270 -0.224900
H204 H 1.249000 0.725200 -0.265300
C205 C 1.831200 0.871910 -0.309000
H206 H 1.935900 0.902100 -0.322000
C207 C 1.664400 0.691000 -0.376100
H208 H 1.566700 0.658900 -0.360700
C209 C 1.380300 0.940300 -0.132100
H210 H 1.276200 0.956200 -0.095400
C211 C 1.962900 0.784200 -0.422300
H212 H 2.064000 0.814900 -0.438100
C213 C 1.684500 0.963960 -0.209600
H214 H 1.787400 0.994600 -0.223700
C215 C 1.951700 0.720700 -0.466700
H216 H 2.044600 0.707800 -0.512200
C217 C 1.797200 0.672900 -0.444000
H218 H 1.787800 0.629200 -0.475900
C219 C 1.379500 0.873600 -0.163800
H220 H 1.277100 0.843900 -0.146400
C221 C 1.536600 0.986400 -0.153800
H222 H 1.537700 1.032000 -0.129800
C223 C 1.021600 0.432580 1.112500
H224 H 1.157900 0.441000 1.147200
C225 C 0.938900 0.472240 1.021400
C226 C 0.704000 0.367060 1.105300
C227 C 0.470300 0.221860 1.259900
C228 C 0.573900 0.313430 1.145100
H229 H 0.439800 0.308900 1.105100
C230 C 0.468500 0.152700 1.223300
C231 C 0.313700 0.105440 1.247200
C232 C 0.735800 0.456860 0.974200
H233 H 0.674200 0.481600 0.913000
C234 C 0.907700 0.381400 1.152500
H235 H 0.969600 0.355900 1.212800
C236 C 0.329900 0.242480 1.328000
C237 C 0.174700 0.194160 1.352000
C238 C 0.621500 0.406110 1.014600
H239 H 0.485000 0.397700 0.980200
C240 C 0.616600 0.272730 1.224900
H241 H 0.751000 0.274800 1.265300
C242 C 0.168800 0.128090 1.309000
H243 H 0.064100 0.097900 1.322000
C244 C 0.335600 0.309000 1.376100
H245 H 0.433300 0.341100 1.360700
C246 C 0.619700 0.059700 1.132100
H247 H 0.723800 0.043800 1.095400
C248 C 0.037100 0.215800 1.422300
H249 H -0.064000 0.185100 1.438100
C250 C 0.315500 0.036040 1.209600
H251 H 0.212600 0.005400 1.223700
C252 C 0.048300 0.279300 1.466700
H253 H -0.044600 0.292200 1.512200
C254 C 0.202800 0.327100 1.444000
H255 H 0.212200 0.370800 1.475900
C256 C 0.620500 0.126400 1.163800
H257 H 0.722900 0.156100 1.146400
C258 C 0.463400 0.013600 1.153800
H259 H 0.462300 -0.032000 1.129800
C260 C 0.978400 0.567420 0.887500
H261 H 0.842100 0.559000 0.852800
C262 C 1.061100 0.527760 0.978600
C263 C 1.296000 0.632940 0.894700
C264 C 1.529700 0.778140 0.740100
C265 C 1.426100 0.686570 0.854900
H266 H 1.560200 0.691100 0.894900
C267 C 1.531500 0.847300 0.776700
C268 C 1.686300 0.894560 0.752800
C269 C 1.264200 0.543140 1.025800
H270 H 1.325800 0.518400 1.087000
C271 C 1.092300 0.618600 0.847500
H272 H 1.030400 0.644100 0.787200
C273 C 1.670100 0.757520 0.672000
C274 C 1.825300 0.805840 0.648000
C275 C 1.378500 0.593890 0.985400
H276 H 1.515000 0.602300 1.019800
C277 C 1.383400 0.727270 0.775100
H278 H 1.249000 0.725200 0.734700
C279 C 1.831200 0.871910 0.691000
H280 H 1.935900 0.902100 0.678000
C281 C 1.664400 0.691000 0.623900
H282 H 1.566700 0.658900 0.639300
C283 C 1.380300 0.940300 0.867900
H284 H 1.276200 0.956200 0.904600
C285 C 1.962900 0.784200 0.577700
H286 H 2.064000 0.814900 0.561900
C287 C 1.684500 0.963960 0.790400
H288 H 1.787400 0.994600 0.776300
C289 C 1.951700 0.720700 0.533300
H290 H 2.044600 0.707800 0.487800
C291 C 1.797200 0.672900 0.556000
H292 H 1.787800 0.629200 0.524100
C293 C 1.379500 0.873600 0.836200
H294 H 1.277100 0.843900 0.853600
C295 C 1.536600 0.986400 0.846200
H296 H 1.537700 1.032000 0.870200
C297 C -0.021600 -0.067420 0.387500
H298 H -0.157900 -0.059000 0.352800
C299 C 0.061100 -0.027760 0.478600
C300 C 0.296000 -0.132940 0.394700
C301 C 0.529700 -0.278140 0.240100
C302 C 0.426100 -0.186570 0.354900
H303 H 0.560200 -0.191100 0.394900
C304 C 0.531500 -0.347300 0.276700
C305 C 0.686300 -0.394560 0.252800
C306 C 0.264200 -0.043140 0.525800
H307 H 0.325800 -0.018400 0.587000
C308 C 0.092300 -0.118600 0.347500
H309 H 0.030400 -0.144100 0.287200
C310 C 0.670100 -0.257520 0.172000
C311 C 0.825300 -0.305840 0.148000
C312 C 0.378500 -0.093890 0.485400
H313 H 0.515000 -0.102300 0.519800
C314 C 0.383400 -0.227270 0.275100
H315 H 0.249000 -0.225200 0.234700
C316 C 0.831200 -0.371910 0.191000
H317 H 0.935900 -0.402100 0.178000
C318 C 0.664400 -0.191000 0.123900
H319 H 0.566700 -0.158900 0.139300
C320 C 0.380300 -0.440300 0.367900
H321 H 0.276200 -0.456200 0.404600
C322 C 0.962900 -0.284200 0.077700
H323 H 1.064000 -0.314900 0.061900
C324 C 0.684500 -0.463960 0.290400
H325 H 0.787400 -0.494600 0.276300
C326 C 0.951700 -0.220700 0.033300
H327 H 1.044600 -0.207800 -0.012200
C328 C 0.797200 -0.172900 0.056000
H329 H 0.787800 -0.129200 0.024100
C330 C 0.379500 -0.373600 0.336200
H331 H 0.277100 -0.343900 0.353600
C332 C 0.536600 -0.486400 0.346200
H333 H 0.537700 -0.532000 0.370200
C334 C 0.021600 0.067420 0.612500
H335 H 0.157900 0.059000 0.647200
C336 C -0.061100 0.027760 0.521400
C337 C -0.296000 0.132940 0.605300
C338 C -0.529700 0.278140 0.759900
C339 C -0.426100 0.186570 0.645100
H340 H -0.560200 0.191100 0.605100
C341 C -0.531500 0.347300 0.723300
C342 C -0.686300 0.394560 0.747200
C343 C -0.264200 0.043140 0.474200
H344 H -0.325800 0.018400 0.413000
C345 C -0.092300 0.118600 0.652500
H346 H -0.030400 0.144100 0.712800
C347 C -0.670100 0.257520 0.828000
C348 C -0.825300 0.305840 0.852000
C349 C -0.378500 0.093890 0.514600
H350 H -0.515000 0.102300 0.480200
C351 C -0.383400 0.227270 0.724900
H352 H -0.249000 0.225200 0.765300
C353 C -0.831200 0.371910 0.809000
H354 H -0.935900 0.402100 0.822000
C355 C -0.664400 0.191000 0.876100
H356 H -0.566700 0.158900 0.860700
C357 C -0.380300 0.440300 0.632100
H358 H -0.276200 0.456200 0.595400
C359 C -0.962900 0.284200 0.922300
H360 H -1.064000 0.314900 0.938100
C361 C -0.684500 0.463960 0.709600
H362 H -0.787400 0.494600 0.723700
C363 C -0.951700 0.220700 0.966700
H364 H -1.044600 0.207800 1.012200
C365 C -0.797200 0.172900 0.944000
H366 H -0.787800 0.129200 0.975900
C367 C -0.379500 0.373600 0.663800
H368 H -0.277100 0.343900 0.646400
C369 C -0.536600 0.486400 0.653800
H370 H -0.537700 0.532000 0.629800
C371 C -0.021600 0.932580 0.387500
H372 H -0.157900 0.941000 0.352800
C373 C 0.061100 0.972240 0.478600
C374 C 0.296000 0.867060 0.394700
C375 C 0.529700 0.721860 0.240100
C376 C 0.426100 0.813430 0.354900
H377 H 0.560200 0.808900 0.394900
C378 C 0.531500 0.652700 0.276700
C379 C 0.686300 0.605440 0.252800
C380 C 0.264200 0.956860 0.525800
H381 H 0.325800 0.981600 0.587000
C382 C 0.092300 0.881400 0.347500
H383 H 0.030400 0.855900 0.287200
C384 C 0.670100 0.742480 0.172000
C385 C 0.825300 0.694160 0.148000
C386 C 0.378500 0.906110 0.485400
H387 H 0.515000 0.897700 0.519800
C388 C 0.383400 0.772730 0.275100
H389 H 0.249000 0.774800 0.234700
C390 C 0.831200 0.628090 0.191000
H391 H 0.935900 0.597900 0.178000
C392 C 0.664400 0.809000 0.123900
H393 H 0.566700 0.841100 0.139300
C394 C 0.380300 0.559700 0.367900
H395 H 0.276200 0.543800 0.404600
C396 C 0.962900 0.715800 0.077700
H397 H 1.064000 0.685100 0.061900
C398 C 0.684500 0.536040 0.290400
H399 H 0.787400 0.505400 0.276300
C400 C 0.951700 0.779300 0.033300
H401 H 1.044600 0.792200 -0.012200
C402 C 0.797200 0.827100 0.056000
H403 H 0.787800 0.870800 0.024100
C404 C 0.379500 0.626400 0.336200
H405 H 0.277100 0.656100 0.353600
C406 C 0.536600 0.513600 0.346200
H407 H 0.537700 0.468000 0.370200
C408 C 0.021600 1.067420 0.612500
H409 H 0.157900 1.059000 0.647200
C410 C -0.061100 1.027760 0.521400
C411 C -0.296000 1.132940 0.605300
C412 C -0.529700 1.278140 0.759900
C413 C -0.426100 1.186570 0.645100
H414 H -0.560200 1.191100 0.605100
C415 C -0.531500 1.347300 0.723300
C416 C -0.686300 1.394560 0.747200
C417 C -0.264200 1.043140 0.474200
H418 H -0.325800 1.018400 0.413000
C419 C -0.092300 1.118600 0.652500
H420 H -0.030400 1.144100 0.712800
C421 C -0.670100 1.257520 0.828000
C422 C -0.825300 1.305840 0.852000
C423 C -0.378500 1.093890 0.514600
H424 H -0.515000 1.102300 0.480200
C425 C -0.383400 1.227270 0.724900
H426 H -0.249000 1.225200 0.765300
C427 C -0.831200 1.371910 0.809000
H428 H -0.935900 1.402100 0.822000
C429 C -0.664400 1.191000 0.876100
H430 H -0.566700 1.158900 0.860700
C431 C -0.380300 1.440300 0.632100
H432 H -0.276200 1.456200 0.595400
C433 C -0.962900 1.284200 0.922300
H434 H -1.064000 1.314900 0.938100
C435 C -0.684500 1.463960 0.709600
H436 H -0.787400 1.494600 0.723700
C437 C -0.951700 1.220700 0.966700
H438 H -1.044600 1.207800 1.012200
C439 C -0.797200 1.172900 0.944000
H440 H -0.787800 1.129200 0.975900
C441 C -0.379500 1.373600 0.663800
H442 H -0.277100 1.343900 0.646400
C443 C -0.536600 1.486400 0.653800
H444 H -0.537700 1.532000 0.629800
C445 C 0.978400 -0.067420 0.387500
H446 H 0.842100 -0.059000 0.352800
C447 C 1.061100 -0.027760 0.478600
C448 C 1.296000 -0.132940 0.394700
C449 C 1.529700 -0.278140 0.240100
C450 C 1.426100 -0.186570 0.354900
H451 H 1.560200 -0.191100 0.394900
C452 C 1.531500 -0.347300 0.276700
C453 C 1.686300 -0.394560 0.252800
C454 C 1.264200 -0.043140 0.525800
H455 H 1.325800 -0.018400 0.587000
C456 C 1.092300 -0.118600 0.347500
H457 H 1.030400 -0.144100 0.287200
C458 C 1.670100 -0.257520 0.172000
C459 C 1.825300 -0.305840 0.148000
C460 C 1.378500 -0.093890 0.485400
H461 H 1.515000 -0.102300 0.519800
C462 C 1.383400 -0.227270 0.275100
H463 H 1.249000 -0.225200 0.234700
C464 C 1.831200 -0.371910 0.191000
H465 H 1.935900 -0.402100 0.178000
C466 C 1.664400 -0.191000 0.123900
H467 H 1.566700 -0.158900 0.139300
C468 C 1.380300 -0.440300 0.367900
H469 H 1.276200 -0.456200 0.404600
C470 C 1.962900 -0.284200 0.077700
H471 H 2.064000 -0.314900 0.061900
C472 C 1.684500 -0.463960 0.290400
H473 H 1.787400 -0.494600 0.276300
C474 C 1.951700 -0.220700 0.033300
H475 H 2.044600 -0.207800 -0.012200
C476 C 1.797200 -0.172900 0.056000
H477 H 1.787800 -0.129200 0.024100
C478 C 1.379500 -0.373600 0.336200
H479 H 1.277100 -0.343900 0.353600
C480 C 1.536600 -0.486400 0.346200
H481 H 1.537700 -0.532000 0.370200
C482 C 1.021600 0.067420 0.612500
H483 H 1.157900 0.059000 0.647200
C484 C 0.938900 0.027760 0.521400
C485 C 0.704000 0.132940 0.605300
C486 C 0.470300 0.278140 0.759900
C487 C 0.573900 0.186570 0.645100
H488 H 0.439800 0.191100 0.605100
C489 C 0.468500 0.347300 0.723300
C490 C 0.313700 0.394560 0.747200
C491 C 0.735800 0.043140 0.474200
H492 H 0.674200 0.018400 0.413000
C493 C 0.907700 0.118600 0.652500
H494 H 0.969600 0.144100 0.712800
C495 C 0.329900 0.257520 0.828000
C496 C 0.174700 0.305840 0.852000
C497 C 0.621500 0.093890 0.514600
H498 H 0.485000 0.102300 0.480200
C499 C 0.616600 0.227270 0.724900
H500 H 0.751000 0.225200 0.765300
C501 C 0.168800 0.371910 0.809000
H502 H 0.064100 0.402100 0.822000
C503 C 0.335600 0.191000 0.876100
H504 H 0.433300 0.158900 0.860700
C505 C 0.619700 0.440300 0.632100
H506 H 0.723800 0.456200 0.595400
C507 C 0.037100 0.284200 0.922300
H508 H -0.064000 0.314900 0.938100
C509 C 0.315500 0.463960 0.709600
H510 H 0.212600 0.494600 0.723700
C511 C 0.048300 0.220700 0.966700
H512 H -0.044600 0.207800 1.012200
C513 C 0.202800 0.172900 0.944000
H514 H 0.212200 0.129200 0.975900
C515 C 0.620500 0.373600 0.663800
H516 H 0.722900 0.343900 0.646400
C517 C 0.463400 0.486400 0.653800
H518 H 0.462300 0.532000 0.629800
C519 C 0.978400 0.932580 0.387500
H520 H 0.842100 0.941000 0.352800
C521 C 1.061100 0.972240 0.478600
C522 C 1.296000 0.867060 0.394700
C523 C 1.529700 0.721860 0.240100
C524 C 1.426100 0.813430 0.354900
H525 H 1.560200 0.808900 0.394900
C526 C 1.531500 0.652700 0.276700
C527 C 1.686300 0.605440 0.252800
C528 C 1.264200 0.956860 0.525800
H529 H 1.325800 0.981600 0.587000
C530 C 1.092300 0.881400 0.347500
H531 H 1.030400 0.855900 0.287200
C532 C 1.670100 0.742480 0.172000
C533 C 1.825300 0.694160 0.148000
C534 C 1.378500 0.906110 0.485400
H535 H 1.515000 0.897700 0.519800
C536 C 1.383400 0.772730 0.275100
H537 H 1.249000 0.774800 0.234700
C538 C 1.831200 0.628090 0.191000
H539 H 1.935900 0.597900 0.178000
C540 C 1.664400 0.809000 0.123900
H541 H 1.566700 0.841100 0.139300
C542 C 1.380300 0.559700 0.367900
H543 H 1.276200 0.543800 0.404600
C544 C 1.962900 0.715800 0.077700
H545 H 2.064000 0.685100 0.061900
C546 C 1.684500 0.536040 0.290400
H547 H 1.787400 0.505400 0.276300
C548 C 1.951700 0.779300 0.033300
H549 H 2.044600 0.792200 -0.012200
C550 C 1.797200 0.827100 0.056000
H551 H 1.787800 0.870800 0.024100
C552 C 1.379500 0.626400 0.336200
H553 H 1.277100 0.656100 0.353600
C554 C 1.536600 0.513600 0.346200
H555 H 1.537700 0.468000 0.370200
C556 C 1.021600 1.067420 0.612500
H557 H 1.157900 1.059000 0.647200
C558 C 0.938900 1.027760 0.521400
C559 C 0.704000 1.132940 0.605300
C560 C 0.470300 1.278140 0.759900
C561 C 0.573900 1.186570 0.645100
H562 H 0.439800 1.191100 0.605100
C563 C 0.468500 1.347300 0.723300
C564 C 0.313700 1.394560 0.747200
C565 C 0.735800 1.043140 0.474200
H566 H 0.674200 1.018400 0.413000
C567 C 0.907700 1.118600 0.652500
H568 H 0.969600 1.144100 0.712800
C569 C 0.329900 1.257520 0.828000
C570 C 0.174700 1.305840 0.852000
C571 C 0.621500 1.093890 0.514600
H572 H 0.485000 1.102300 0.480200
C573 C 0.616600 1.227270 0.724900
H574 H 0.751000 1.225200 0.765300
C575 C 0.168800 1.371910 0.809000
H576 H 0.064100 1.402100 0.822000
C577 C 0.335600 1.191000 0.876100
H578 H 0.433300 1.158900 0.860700
C579 C 0.619700 1.440300 0.632100
H580 H 0.723800 1.456200 0.595400
C581 C 0.037100 1.284200 0.922300
H582 H -0.064000 1.314900 0.938100
C583 C 0.315500 1.463960 0.709600
H584 H 0.212600 1.494600 0.723700
C585 C 0.048300 1.220700 0.966700
H586 H -0.044600 1.207800 1.012200
C587 C 0.202800 1.172900 0.944000
H588 H 0.212200 1.129200 0.975900
C589 C 0.620500 1.373600 0.663800
H590 H 0.722900 1.343900 0.646400
C591 C 0.463400 1.486400 0.653800
H592 H 0.462300 1.532000 0.629800

#END
