
#######################################################################
#
#                 Cambridge Crystallographic Data Centre
#                                CCDC 
#
#######################################################################
#
# If this CIF has been generated from an entry in the Cambridge 
# Structural Database, then it will include bibliographic, chemical, 
# crystal, experimental, refinement or atomic coordinate data resulting 
# from the CCDC's data processing and validation procedures.
#
#######################################################################

data_MARJAT
_symmetry_cell_setting           orthorhombic
_symmetry_space_group_name_H-M   'P 21 21 21'
_symmetry_Int_Tables_number      19
_space_group_name_Hall           'P 2ac 2ab'
loop_
_symmetry_equiv_pos_site_id
_symmetry_equiv_pos_as_xyz
1 x,y,z
2 1/2+x,1/2-y,-z
3 -x,1/2+y,1/2-z
4 1/2-x,-y,1/2+z
_cell_length_a                   7.0526(5)
_cell_length_b                   8.7052(6)
_cell_length_c                   37.845(3)
_cell_angle_alpha                90
_cell_angle_beta                 90
_cell_angle_gamma                90
_cell_volume                     2323.47
loop_
_atom_site_label
_atom_site_type_symbol
_atom_site_fract_x
_atom_site_fract_y
_atom_site_fract_z
O1 O 0.5631(6) 0.6640(3) -0.14371(6)
H1 H 0.5347 0.7293 -0.1584
N1 N 0.5540(4) 0.9256(3) -0.01060(6)
O2 O 0.5783(4) 0.6207(3) 0.12634(6)
O3 O 0.7605(6) 1.2741(4) 0.16893(9)
O4 O 0.6043(5) 1.2950(3) 0.10402(7)
H2 H 0.6976 1.3357 0.1129
C1 C 0.5562(4) 0.8326(3) 0.01676(8)
N2 N 0.5630(4) 0.7477(3) 0.07372(6)
O5 O 0.6571(5) 1.0400(3) 0.17861(7)
C2 C 0.5597(5) 0.7273(4) -0.11090(9)
C3 C 0.5523(6) 0.8875(4) -0.10619(9)
H3 H 0.5471 0.9518 -0.1258
C4 C 0.5526(6) 0.9488(4) -0.07339(9)
H4 H 0.5514 1.0551 -0.0709
C5 C 0.5547(5) 0.8551(3) -0.04262(8)
C6 C 0.5569(5) 0.8793(3) 0.05359(8)
C7 C 0.5546(5) 1.0195(4) 0.06901(8)
H5 H 0.5506 1.1087 0.0555
C8 C 0.5585(5) 1.0255(3) 0.10616(9)
C9 C 0.5406(6) 1.1761(4) 0.12591(9)
C10 C 0.3310(7) 1.2009(5) 0.13780(12)
H6 H 0.2553 1.2232 0.1170
H7 H 0.2843 1.1055 0.1478
C11 C 0.2996(8) 1.3261(6) 0.16419(14)
H8 H 0.3530 1.2964 0.1865
H9 H 0.1660 1.3437 0.1669
H10 H 0.3596 1.4186 0.1561
C12 C 0.5611(5) 0.6694(3) 0.01510(8)
C13 C 0.5623(5) 0.6067(3) 0.05230(8)
H11 H 0.4503 0.5452 0.0569
H12 H 0.6745 0.5452 0.0567
C14 C 0.5701(4) 0.7451(4) 0.11019(8)
C15 C 0.5670(5) 0.8939(4) 0.12591(8)
C16 C 0.6646(7) 1.1674(5) 0.15907(10)
C17 C 0.5710(7) 0.9021(4) 0.16513(9)
H13 H 0.4421 0.8956 0.1739
H14 H 0.6402 0.8141 0.1741
C18 C 0.5662(6) 0.5978(4) -0.01673(9)
C19 C 0.5600(5) 0.6920(3) -0.04729(8)
C20 C 0.5637(6) 0.6336(4) -0.08229(9)
H15 H 0.5689 0.5279 -0.0857
C21 C 0.5855(12) 0.4261(5) -0.01975(13)
H16 H 0.6293 0.4056 -0.0436
H17 H 0.6882 0.3969 -0.0041
C22 C 0.4539(12) 0.3342(8) -0.0140(4)
H18 H 0.4988 0.2310 -0.0172
H19 H 0.3520 0.3538 -0.0302
H20 H 0.4093 0.3470 0.0098
O1 O 0.0631(6) 0.8360(3) 1.14371(6)
H1 H 0.0347 0.7707 1.1584
N1 N 0.0540(4) 0.5744(3) 1.01060(6)
O2 O 0.0783(4) 0.8793(3) 0.87366(6)
O3 O 0.2605(6) 0.2259(4) 0.83107(9)
O4 O 0.1043(5) 0.2050(3) 0.89598(7)
H2 H 0.1976 0.1643 0.8871
C1 C 0.0562(4) 0.6674(3) 0.98324(8)
N2 N 0.0630(4) 0.7523(3) 0.92628(6)
O5 O 0.1571(5) 0.4600(3) 0.82139(7)
C2 C 0.0597(5) 0.7727(4) 1.11090(9)
C3 C 0.0523(6) 0.6125(4) 1.10619(9)
H3 H 0.0471 0.5482 1.1258
C4 C 0.0526(6) 0.5512(4) 1.07339(9)
H4 H 0.0514 0.4449 1.0709
C5 C 0.0547(5) 0.6449(3) 1.04262(8)
C6 C 0.0569(5) 0.6207(3) 0.94641(8)
C7 C 0.0546(5) 0.4805(4) 0.93099(8)
H5 H 0.0506 0.3913 0.9445
C8 C 0.0585(5) 0.4745(3) 0.89384(9)
C9 C 0.0406(6) 0.3239(4) 0.87409(9)
C10 C -0.1690(7) 0.2991(5) 0.86220(12)
H6 H -0.2447 0.2768 0.8830
H7 H -0.2157 0.3945 0.8522
C11 C -0.2004(8) 0.1739(6) 0.83581(14)
H8 H -0.1470 0.2036 0.8135
H9 H -0.3340 0.1563 0.8331
H10 H -0.1404 0.0814 0.8439
C12 C 0.0611(5) 0.8306(3) 0.98490(8)
C13 C 0.0623(5) 0.8933(3) 0.94770(8)
H11 H -0.0497 0.9548 0.9431
H12 H 0.1745 0.9548 0.9433
C14 C 0.0701(4) 0.7549(4) 0.88981(8)
C15 C 0.0670(5) 0.6061(4) 0.87409(8)
C16 C 0.1646(7) 0.3326(5) 0.84093(10)
C17 C 0.0710(7) 0.5979(4) 0.83487(9)
H13 H -0.0579 0.6044 0.8261
H14 H 0.1402 0.6859 0.8259
C18 C 0.0662(6) 0.9022(4) 1.01673(9)
C19 C 0.0600(5) 0.8080(3) 1.04729(8)
C20 C 0.0637(6) 0.8664(4) 1.08229(9)
H15 H 0.0689 0.9721 1.0857
C21 C 0.0855(12) 1.0739(5) 1.01975(13)
H16 H 0.1293 1.0944 1.0436
H17 H 0.1882 1.1031 1.0041
C22 C -0.0461(12) 1.1658(8) 1.0140(4)
H18 H -0.0012 1.2690 1.0172
H19 H -0.1480 1.1462 1.0302
H20 H -0.0907 1.1530 0.9902
O1 O 0.4369(6) 0.1640(3) 0.64371(6)
H1 H 0.4653 0.2293 0.6584
N1 N 0.4460(4) 0.4256(3) 0.51060(6)
O2 O 0.4217(4) 0.1207(3) 0.37366(6)
O3 O 0.2395(6) 0.7741(4) 0.33107(9)
O4 O 0.3957(5) 0.7950(3) 0.39598(7)
H2 H 0.3024 0.8357 0.3871
C1 C 0.4438(4) 0.3326(3) 0.48324(8)
N2 N 0.4370(4) 0.2477(3) 0.42628(6)
O5 O 0.3429(5) 0.5400(3) 0.32139(7)
C2 C 0.4403(5) 0.2273(4) 0.61090(9)
C3 C 0.4477(6) 0.3875(4) 0.60619(9)
H3 H 0.4529 0.4518 0.6258
C4 C 0.4474(6) 0.4488(4) 0.57339(9)
H4 H 0.4486 0.5551 0.5709
C5 C 0.4453(5) 0.3551(3) 0.54262(8)
C6 C 0.4431(5) 0.3793(3) 0.44641(8)
C7 C 0.4454(5) 0.5195(4) 0.43099(8)
H5 H 0.4494 0.6087 0.4445
C8 C 0.4415(5) 0.5255(3) 0.39384(9)
C9 C 0.4594(6) 0.6761(4) 0.37409(9)
C10 C 0.6690(7) 0.7009(5) 0.36220(12)
H6 H 0.7447 0.7232 0.3830
H7 H 0.7157 0.6055 0.3522
C11 C 0.7004(8) 0.8261(6) 0.33581(14)
H8 H 0.6470 0.7964 0.3135
H9 H 0.8340 0.8437 0.3331
H10 H 0.6404 0.9186 0.3439
C12 C 0.4389(5) 0.1694(3) 0.48490(8)
C13 C 0.4377(5) 0.1067(3) 0.44770(8)
H11 H 0.5497 0.0452 0.4431
H12 H 0.3255 0.0452 0.4433
C14 C 0.4299(4) 0.2451(4) 0.38981(8)
C15 C 0.4330(5) 0.3939(4) 0.37409(8)
C16 C 0.3354(7) 0.6674(5) 0.34093(10)
C17 C 0.4290(7) 0.4021(4) 0.33487(9)
H13 H 0.5579 0.3956 0.3261
H14 H 0.3598 0.3141 0.3259
C18 C 0.4338(6) 0.0978(4) 0.51673(9)
C19 C 0.4400(5) 0.1920(3) 0.54729(8)
C20 C 0.4363(6) 0.1336(4) 0.58229(9)
H15 H 0.4311 0.0279 0.5857
C21 C 0.4145(12) -0.0739(5) 0.51975(13)
H16 H 0.3707 -0.0944 0.5436
H17 H 0.3118 -0.1031 0.5041
C22 C 0.5461(12) -0.1658(8) 0.5140(4)
H18 H 0.5012 -0.2690 0.5172
H19 H 0.6480 -0.1462 0.5302
H20 H 0.5907 -0.1530 0.4902
O1 O 0.9369(6) 0.3360(3) 0.35629(6)
H1 H 0.9653 0.2707 0.3416
N1 N 0.9460(4) 0.0744(3) 0.48940(6)
O2 O 0.9217(4) 0.3793(3) 0.62634(6)
O3 O 0.7395(6) -0.2741(4) 0.66893(9)
O4 O 0.8957(5) -0.2950(3) 0.60402(7)
H2 H 0.8024 -0.3357 0.6129
C1 C 0.9438(4) 0.1674(3) 0.51676(8)
N2 N 0.9370(4) 0.2523(3) 0.57372(6)
O5 O 0.8429(5) -0.0400(3) 0.67861(7)
C2 C 0.9403(5) 0.2727(4) 0.38910(9)
C3 C 0.9477(6) 0.1125(4) 0.39381(9)
H3 H 0.9529 0.0482 0.3742
C4 C 0.9474(6) 0.0512(4) 0.42661(9)
H4 H 0.9486 -0.0551 0.4291
C5 C 0.9453(5) 0.1449(3) 0.45738(8)
C6 C 0.9431(5) 0.1207(3) 0.55359(8)
C7 C 0.9454(5) -0.0195(4) 0.56901(8)
H5 H 0.9494 -0.1087 0.5555
C8 C 0.9415(5) -0.0255(3) 0.60616(9)
C9 C 0.9594(6) -0.1761(4) 0.62591(9)
C10 C 1.1690(7) -0.2009(5) 0.63780(12)
H6 H 1.2447 -0.2232 0.6170
H7 H 1.2157 -0.1055 0.6478
C11 C 1.2004(8) -0.3261(6) 0.66419(14)
H8 H 1.1470 -0.2964 0.6865
H9 H 1.3340 -0.3437 0.6669
H10 H 1.1404 -0.4186 0.6561
C12 C 0.9389(5) 0.3306(3) 0.51510(8)
C13 C 0.9377(5) 0.3933(3) 0.55230(8)
H11 H 1.0497 0.4548 0.5569
H12 H 0.8255 0.4548 0.5567
C14 C 0.9299(4) 0.2549(4) 0.61019(8)
C15 C 0.9330(5) 0.1061(4) 0.62591(8)
C16 C 0.8354(7) -0.1674(5) 0.65907(10)
C17 C 0.9290(7) 0.0979(4) 0.66513(9)
H13 H 1.0579 0.1044 0.6739
H14 H 0.8598 0.1859 0.6741
C18 C 0.9338(6) 0.4022(4) 0.48327(9)
C19 C 0.9400(5) 0.3080(3) 0.45271(8)
C20 C 0.9363(6) 0.3664(4) 0.41771(9)
H15 H 0.9311 0.4721 0.4143
C21 C 0.9145(12) 0.5739(5) 0.48025(13)
H16 H 0.8707 0.5944 0.4564
H17 H 0.8118 0.6031 0.4959
C22 C 1.0461(12) 0.6658(8) 0.4860(4)
H18 H 1.0012 0.7690 0.4828
H19 H 1.1480 0.6462 0.4698
H20 H 1.0907 0.6530 0.5098
O6 O 1.0396(7) 0.6477(4) 0.19818(8)
C23 C 0.8874(9) 0.5839(5) 0.20601(12)
H21 H 0.7964 0.5712 0.1885
N3 N 0.8501(8) 0.5340(5) 0.23774(10)
C24 C 0.9841(15) 0.5443(10) 0.26601(15)
H22 H 1.0202 0.4429 0.2733
H23 H 0.9278 0.5978 0.2856
H24 H 1.0943 0.5992 0.2581
C25 C 0.6687(12) 0.4608(11) 0.24459(19)
H25 H 0.5876 0.4733 0.2244
H26 H 0.6106 0.5074 0.2649
H27 H 0.6880 0.3533 0.2490
O6 O 0.5396(7) 0.8523(4) 0.80182(8)
C23 C 0.3874(9) 0.9161(5) 0.79399(12)
H21 H 0.2964 0.9288 0.8115
N3 N 0.3501(8) 0.9660(5) 0.76226(10)
C24 C 0.4841(15) 0.9557(10) 0.73399(15)
H22 H 0.5202 1.0571 0.7267
H23 H 0.4278 0.9022 0.7144
H24 H 0.5943 0.9008 0.7419
C25 C 0.1687(12) 1.0392(11) 0.75541(19)
H25 H 0.0876 1.0267 0.7756
H26 H 0.1106 0.9926 0.7351
H27 H 0.1880 1.1467 0.7510
O6 O -0.0396(7) 0.1477(4) 0.30182(8)
C23 C 0.1126(9) 0.0839(5) 0.29399(12)
H21 H 0.2036 0.0712 0.3115
N3 N 0.1499(8) 0.0340(5) 0.26226(10)
C24 C 0.0159(15) 0.0443(10) 0.23399(15)
H22 H -0.0202 -0.0571 0.2267
H23 H 0.0722 0.0978 0.2144
H24 H -0.0943 0.0992 0.2419
C25 C 0.3313(12) -0.0392(11) 0.25541(19)
H25 H 0.4124 -0.0267 0.2756
H26 H 0.3894 0.0074 0.2351
H27 H 0.3120 -0.1467 0.2510
O6 O 0.4604(7) 0.3523(4) 0.69818(8)
C23 C 0.6126(9) 0.4161(5) 0.70601(12)
H21 H 0.7036 0.4288 0.6885
N3 N 0.6499(8) 0.4660(5) 0.73774(10)
C24 C 0.5159(15) 0.4557(10) 0.76601(15)
H22 H 0.4798 0.5571 0.7733
H23 H 0.5722 0.4022 0.7856
H24 H 0.4057 0.4008 0.7581
C25 C 0.8313(12) 0.5392(11) 0.74459(19)
H25 H 0.9124 0.5267 0.7244
H26 H 0.8894 0.4926 0.7649
H27 H 0.8120 0.6467 0.7490

#END
