./KAHBIG_from_POSCAR.cif_generated_by_CrystalShift
_symmetry_cell_setting triclinic
_symmetry_space_group_name_H-M 'P 1'
loop_
_symmetry_equiv_pos_site_id
_symmetry_equiv_pos_as_xyz
1 x,y,z
_cell_length_a 10.728500
_cell_length_b 5.843100
_cell_length_c 20.815200
_cell_angle_alpha 90.000000
_cell_angle_beta 96.946000
_cell_angle_gamma 90.000000
_cell_volume 1295.280072
loop_
_atom_site_label
_atom_site_type_symbol
_atom_site_fract_x
_atom_site_fract_y
_atom_site_fract_z
H1 H 0.735600 0.355000 1.063700
H2 H 0.875800 0.613200 0.302900
H3 H 0.960800 0.420600 0.278900
H4 H 1.014000 0.581500 0.336000
H5 H 0.801400 -0.086200 0.908900
H6 H 1.017600 0.080400 0.347800
H7 H 0.968600 0.056900 0.415500
H8 H 1.070700 0.240700 0.405100
H9 H 0.936300 -0.040000 0.944300
H10 H 1.070700 0.259300 0.905100
H11 H 0.936300 0.540000 0.444300
H12 H 0.801400 0.586200 0.408900
H13 H 0.968600 0.443100 0.915500
H14 H 1.017600 0.419600 0.847800
H15 H 1.014000 -0.081500 0.836000
H16 H 0.960800 0.079400 0.778900
H17 H 0.714600 0.332100 0.317700
H18 H 0.795300 0.127000 0.297500
H19 H 0.875800 -0.113200 0.802900
H20 H 0.264400 0.855000 0.436300
H21 H 0.565600 -0.365400 0.524600
H22 H 0.795300 0.373000 0.797500
H23 H 0.497100 -0.619100 0.597600
H24 H 0.565600 0.865400 1.024600
H25 H 0.541000 -0.553500 0.706900
H26 H 0.286800 0.970200 0.328800
H27 H 0.647700 -0.228700 0.743900
H28 H 0.352300 1.228700 0.256100
H29 H 0.713200 0.029800 0.671200
H30 H 0.713200 0.470200 1.171200
H31 H 0.459000 1.553500 0.293100
H32 H 0.647700 0.728700 1.243900
H33 H 0.502900 1.619100 0.402400
H34 H 0.735600 0.145000 0.563700
H35 H 0.434400 1.365400 0.475400
H36 H 0.124200 1.113200 0.197100
H37 H 0.039200 0.920600 0.221100
H38 H -0.014000 1.081500 0.164000
H39 H 0.204700 0.873000 0.702500
H40 H -0.017600 0.580400 0.152200
H41 H 0.031400 0.556900 0.084500
H42 H -0.070700 0.740700 0.094900
H43 H 0.285400 0.667900 0.682300
H44 H 0.198600 0.413800 0.591100
H45 H 0.063700 1.040000 0.055700
H46 H 0.198600 1.086200 0.091100
H47 H 0.063700 0.460000 0.555700
H48 H -0.070700 0.759300 0.594900
H49 H 0.031400 0.943100 0.584500
H50 H -0.017600 0.919600 0.652200
H51 H 0.285400 0.832100 0.182300
H52 H 0.204700 0.627000 0.202500
H53 H -0.014000 0.418500 0.664000
H54 H 0.039200 0.579400 0.721100
H55 H 0.434400 0.134600 -0.024600
H56 H 0.124200 0.386800 0.697100
H57 H 0.502900 -0.119100 -0.097600
H58 H 0.264400 0.645000 -0.063700
H59 H 0.459000 -0.053500 -0.206900
H60 H 0.714600 0.167900 0.817700
H61 H 0.352300 0.271300 -0.243900
H62 H 0.497100 1.119100 1.097600
H63 H 0.286800 0.529800 -0.171200
H64 H 0.541000 1.053500 1.206900
C65 C 0.567160 0.949100 1.177590
C66 C 0.329550 0.397900 -0.156410
C67 C 0.541710 0.989000 1.112350
C68 C 0.432840 0.050900 -0.177590
C69 C 0.059500 0.496600 0.683940
C70 C 0.458290 0.011000 -0.112350
C71 C 0.418100 0.162500 -0.068770
C72 C 0.353690 0.355700 -0.090930
C73 C 0.002690 0.837500 0.614880
C74 C 0.224830 0.716600 0.165920
C75 C 0.284570 0.562400 0.120810
C76 C 0.267520 0.621400 0.051480
C77 C 0.105790 0.663700 0.635470
C78 C 0.138960 0.533300 0.576690
C79 C 0.193750 0.820700 0.028300
C80 C 0.138960 0.966700 0.076690
C81 C 0.193750 0.679300 0.528300
C82 C 0.267520 0.878600 0.551480
C83 C 0.284570 0.937600 0.620810
C84 C 0.224830 0.783400 0.665920
C85 C 0.105790 0.836300 0.135470
C86 C 0.002690 0.662500 0.114880
C87 C 0.353690 1.144300 0.409070
C88 C 0.418100 1.337500 0.431230
C89 C 0.059500 1.003400 0.183940
C90 C 0.458290 1.489000 0.387650
C91 C 0.631030 0.755800 1.199710
C92 C 0.432840 1.449100 0.322410
C93 C 0.670450 0.602100 1.156410
C94 C 0.368970 1.255800 0.300290
C95 C 0.670450 -0.102100 0.656410
C96 C 0.329550 1.102100 0.343590
C97 C 0.631030 -0.255800 0.699710
C98 C 0.567160 -0.449100 0.677590
C99 C 0.581900 0.837500 1.068770
C100 C 0.646310 0.644300 1.090930
C101 C 0.541710 -0.489000 0.612350
C102 C 0.581900 -0.337500 0.568770
C103 C 0.940500 -0.003400 0.816060
C104 C 0.646310 -0.144300 0.590930
C105 C 0.775170 0.216600 0.334080
C106 C 0.715430 0.062400 0.379190
C107 C 0.997310 0.337500 0.885120
C108 C 0.732480 0.121400 0.448520
C109 C 0.806250 0.320700 0.471700
C110 C 0.861040 0.466700 0.423310
C111 C 0.894210 0.163700 0.864530
C112 C 0.861040 0.033300 0.923310
C113 C 0.894210 0.336300 0.364530
C114 C 0.997310 0.162500 0.385120
C115 C 0.806250 0.179300 0.971700
C116 C 0.732480 0.378600 0.948520
C117 C 0.715430 0.437600 0.879190
C118 C 0.775170 0.283400 0.834080
C119 C 0.368970 0.244200 -0.199710
C120 C 0.940500 0.503400 0.316060
N121 N 0.681390 0.523700 0.986500
N122 N 0.307630 0.987000 0.451540
N123 N 0.318610 1.023700 0.513500
N124 N 0.681390 -0.023700 0.486500
N125 N 0.692370 0.013000 0.548460
N126 N 0.307630 0.513000 -0.048460
N127 N 0.318610 0.476300 0.013500
N128 N 0.692370 0.487000 1.048460
O129 O 0.343880 0.395400 0.141450
O130 O 0.175980 0.867900 -0.029870
O131 O 0.343880 1.104600 0.641450
O132 O 0.656120 -0.104600 0.358550
O133 O 0.824020 0.367900 0.529870
O134 O 0.656120 0.604600 0.858550
O135 O 0.824020 0.132100 1.029870
O136 O 0.175980 0.632100 0.470130

#END
