
#######################################################################
#
#                 Cambridge Crystallographic Data Centre
#                                CCDC 
#
#######################################################################
#
# If this CIF has been generated from an entry in the Cambridge 
# Structural Database, then it will include bibliographic, chemical, 
# crystal, experimental, refinement or atomic coordinate data resulting 
# from the CCDC's data processing and validation procedures.
#
#######################################################################

data_KAHFOQ
_symmetry_cell_setting           triclinic
_symmetry_space_group_name_H-M   'P -1'
_symmetry_Int_Tables_number      2
_space_group_name_Hall           '-P 1'
loop_
_symmetry_equiv_pos_site_id
_symmetry_equiv_pos_as_xyz
1 x,y,z
2 -x,-y,-z
_cell_length_a                   9.1779(4)
_cell_length_b                   9.6572(5)
_cell_length_c                   11.6045(6)
_cell_angle_alpha                82.966(2)
_cell_angle_beta                 81.514(2)
_cell_angle_gamma                70.515(2)
_cell_volume                     956.055
loop_
_atom_site_label
_atom_site_type_symbol
_atom_site_fract_x
_atom_site_fract_y
_atom_site_fract_z
C1 C 0.75848(19) 0.1700(2) 0.53162(15)
H1 H 0.8443 0.1814 0.4828
C2 C 0.7341(2) 0.0386(2) 0.54379(17)
H2 H 0.8025 -0.0395 0.5036
C3 C 0.6052(2) 0.0203(2) 0.61727(19)
H3 H 0.5884 -0.0704 0.6254
C4 C 0.50383(19) 0.13373(17) 0.67711(15)
H4 H 0.4192 0.1189 0.7254
C5 C 0.52506(14) 0.27315(15) 0.66708(11)
C6 C 0.42331(14) 0.39638(14) 0.72731(11)
C7 C 0.45507(16) 0.52614(16) 0.71189(13)
H5 H 0.3893 0.6057 0.7518
C8 C 0.58451(18) 0.54281(19) 0.63732(15)
H6 H 0.6032 0.6326 0.6282
C9 C 0.68192(17) 0.42799(19) 0.57877(13)
H7 H 0.7671 0.4399 0.5293
C10 C 0.65609(15) 0.29134(17) 0.59167(12)
C11 C 0.27351(14) 0.38882(15) 0.80244(11)
H8 H 0.2829 0.2850 0.8230
C12 C 0.13450(14) 0.45900(15) 0.73413(11)
C13 C 0.03308(15) 0.59360(16) 0.75450(11)
C14 C 0.13399(14) 0.59779(15) 0.93106(11)
C15 C 0.24177(14) 0.46520(15) 0.91428(11)
C16 C 0.11774(15) 0.38682(15) 0.64056(12)
C17 C 0.33276(18) 0.38881(17) 1.00541(14)
C18 C 0.09925(14) 0.68873(15) 1.02779(11)
C19 C -0.03609(14) 0.81691(14) 1.05121(11)
C20 C -0.17092(15) 0.89274(16) 0.99751(13)
H9 H -0.1875 0.8620 0.9291
C21 C -0.27865(17) 1.01349(17) 1.04755(15)
H10 H -0.3683 1.0636 1.0122
C22 C -0.25643(19) 1.06199(17) 1.14938(15)
H11 H -0.3313 1.1439 1.1808
C23 C -0.12615(19) 0.99137(17) 1.20445(14)
H12 H -0.1109 1.0235 1.2727
C24 C -0.01746(16) 0.86930(15) 1.15373(12)
C25 C 0.19108(17) 0.67291(17) 1.11525(12)
H13 H 0.2863 0.5998 1.1223
N1 N 0.4056(2) 0.32310(18) 1.07751(15)
N2 N 0.10547(16) 0.32846(15) 0.56369(11)
N3 N -0.08186(17) 0.67694(19) 0.69171(13)
N4 N 0.12191(16) 0.77983(15) 1.18954(11)
O1 O 0.03771(11) 0.66767(11) 0.84571(8)
H14 H -0.089(2) 0.648(2) 0.6249(19)
H15 H -0.154(3) 0.753(2) 0.7241(19)
H16 H 0.160(2) 0.788(2) 1.2552(17)
C1 C 0.24152(19) 0.8300(2) 0.46838(15)
H1 H 0.1557 0.8186 0.5172
C2 C 0.2659(2) 0.9614(2) 0.45621(17)
H2 H 0.1975 1.0395 0.4964
C3 C 0.3948(2) 0.9797(2) 0.38273(19)
H3 H 0.4116 1.0704 0.3746
C4 C 0.49617(19) 0.86627(17) 0.32289(15)
H4 H 0.5808 0.8811 0.2746
C5 C 0.47494(14) 0.72685(15) 0.33292(11)
C6 C 0.57669(14) 0.60362(14) 0.27269(11)
C7 C 0.54493(16) 0.47386(16) 0.28811(13)
H5 H 0.6107 0.3943 0.2482
C8 C 0.41549(18) 0.45719(19) 0.36268(15)
H6 H 0.3968 0.3674 0.3718
C9 C 0.31808(17) 0.57201(19) 0.42123(13)
H7 H 0.2329 0.5601 0.4707
C10 C 0.34391(15) 0.70866(17) 0.40833(12)
C11 C 0.72649(14) 0.61118(15) 0.19756(11)
H8 H 0.7171 0.7150 0.1770
C12 C 0.86550(14) 0.54100(15) 0.26587(11)
C13 C 0.96692(15) 0.40640(16) 0.24550(11)
C14 C 0.86601(14) 0.40221(15) 0.06894(11)
C15 C 0.75823(14) 0.53480(15) 0.08572(11)
C16 C 0.88226(15) 0.61318(15) 0.35944(12)
C17 C 0.66724(18) 0.61119(17) -0.00541(14)
C18 C 0.90075(14) 0.31127(15) -0.02779(11)
C19 C 1.03609(14) 0.18309(14) -0.05121(11)
C20 C 1.17092(15) 0.10726(16) 0.00249(13)
H9 H 1.1875 0.1380 0.0709
C21 C 1.27865(17) -0.01349(17) -0.04755(15)
H10 H 1.3683 -0.0636 -0.0122
C22 C 1.25643(19) -0.06199(17) -0.14938(15)
H11 H 1.3313 -0.1439 -0.1808
C23 C 1.12615(19) 0.00863(17) -0.20445(14)
H12 H 1.1109 -0.0235 -0.2727
C24 C 1.01746(16) 0.13070(15) -0.15373(12)
C25 C 0.80892(17) 0.32709(17) -0.11525(12)
H13 H 0.7137 0.4002 -0.1223
N1 N 0.5944(2) 0.67690(18) -0.07751(15)
N2 N 0.89453(16) 0.67154(15) 0.43631(11)
N3 N 1.08186(17) 0.32306(19) 0.30829(13)
N4 N 0.87809(16) 0.22017(15) -0.18954(11)
O1 O 0.96229(11) 0.33233(11) 0.15429(8)
H14 H 1.089(2) 0.352(2) 0.3751(19)
H15 H 1.154(3) 0.247(2) 0.2759(19)
H16 H 0.840(2) 0.212(2) -0.2552(17)

#END
