
#######################################################################
#
#                 Cambridge Crystallographic Data Centre
#                                CCDC 
#
#######################################################################
#
# If this CIF has been generated from an entry in the Cambridge 
# Structural Database, then it will include bibliographic, chemical, 
# crystal, experimental, refinement or atomic coordinate data resulting 
# from the CCDC's data processing and validation procedures.
#
#######################################################################

data_KAHHUZ01
_symmetry_cell_setting           monoclinic
_symmetry_space_group_name_H-M   'P 21/n'
_symmetry_Int_Tables_number      14
_space_group_name_Hall           '-P 2yn'
loop_
_symmetry_equiv_pos_site_id
_symmetry_equiv_pos_as_xyz
1 x,y,z
2 1/2-x,1/2+y,1/2-z
3 -x,-y,-z
4 1/2+x,1/2-y,1/2+z
_cell_length_a                   6.0329(2)
_cell_length_b                   20.9117(7)
_cell_length_c                   18.2330(7)
_cell_angle_alpha                90
_cell_angle_beta                 96.126(3)
_cell_angle_gamma                90
_cell_volume                     2287.11
loop_
_atom_site_label
_atom_site_type_symbol
_atom_site_fract_x
_atom_site_fract_y
_atom_site_fract_z
N1 N 0.9089(3) 0.63395(8) 0.73678(10)
O1 O 1.0409(3) 0.71263(9) 0.53069(10)
O2 O 0.2368(3) 0.55020(9) 0.64325(13)
C1 C 0.9362(3) 0.67882(10) 0.68585(11)
C2 C 0.7496(4) 0.58957(10) 0.72244(12)
C3 C 0.7005(4) 0.76916(11) 0.52103(12)
C4 C 0.5095(4) 0.47331(11) 0.62159(12)
C5 C 1.1108(4) 0.72776(10) 0.70722(12)
C6 C 0.8044(4) 0.68036(10) 0.61771(12)
C7 C 0.6070(4) 0.58907(10) 0.65702(12)
C8 C 0.7290(4) 0.54201(10) 0.78238(12)
C9 C 0.8620(4) 0.72154(11) 0.55448(12)
C10 C 0.6359(4) 0.63568(11) 0.60497(12)
H1 H 0.5415 0.6369 0.5612
C11 C 1.0730(4) 0.79209(11) 0.69216(12)
H2 H 0.9375 0.8051 0.6676
C12 C 0.4332(4) 0.53811(11) 0.64080(13)
C13 C 0.5091(4) 0.78534(11) 0.55289(13)
H3 H 0.4793 0.7660 0.5967
C14 C 0.7430(5) 0.79882(12) 0.45521(13)
H4 H 0.8714 0.7887 0.4336
C15 C 1.3129(4) 0.70983(12) 0.74495(13)
H5 H 1.3394 0.6670 0.7564
C16 C 1.2356(4) 0.83710(12) 0.71352(14)
H6 H 1.2085 0.8801 0.7034
C17 C 1.4760(4) 0.75496(13) 0.76582(14)
H7 H 1.6115 0.7423 0.7907
C18 C 1.4370(5) 0.81850(13) 0.74966(14)
H8 H 1.5466 0.8488 0.7632
C19 C 0.7121(4) 0.46390(13) 0.59340(16)
H9 H 0.8060 0.4984 0.5878
C20 C 0.3748(4) 0.42120(12) 0.63079(14)
H10 H 0.2380 0.4270 0.6490
C21 C 0.9058(4) 0.50371(13) 0.80731(15)
H11 H 1.0377 0.5063 0.7853
C22 C 0.3626(5) 0.83011(13) 0.51951(15)
H12 H 0.2345 0.8408 0.5409
C23 C 0.7737(5) 0.40311(15) 0.57364(17)
H13 H 0.9064 0.3971 0.5529
C24 C 0.6397(5) 0.35161(13) 0.58459(15)
H14 H 0.6838 0.3107 0.5725
C25 C 0.5353(4) 0.53694(12) 0.81608(15)
H15 H 0.4120 0.5616 0.7991
C26 C 0.5223(5) 0.49558(14) 0.87497(16)
H16 H 0.3925 0.4937 0.8982
C27 C 0.4416(5) 0.36059(13) 0.61321(16)
H17 H 0.3515 0.3256 0.6208
C28 C 0.8904(5) 0.46134(15) 0.86475(18)
H18 H 1.0109 0.4352 0.8804
C29 C 0.6995(5) 0.45756(14) 0.89882(17)
H19 H 0.6904 0.4294 0.9378
C30 C 0.5950(5) 0.84302(14) 0.42225(15)
H20 H 0.6224 0.8622 0.3781
C31 C 0.4060(5) 0.85878(14) 0.45479(16)
H21 H 0.3073 0.8890 0.4327
N1 N 0.5911(3) 0.13395(8) 0.76322(10)
O1 O 0.4591(3) 0.21263(9) 0.96931(10)
O2 O 1.2632(3) 0.05020(9) 0.85675(13)
C1 C 0.5638(3) 0.17882(10) 0.81415(11)
C2 C 0.7504(4) 0.08957(10) 0.77756(12)
C3 C 0.7995(4) 0.26916(11) 0.97897(12)
C4 C 0.9905(4) -0.02669(11) 0.87841(12)
C5 C 0.3892(4) 0.22776(10) 0.79278(12)
C6 C 0.6956(4) 0.18036(10) 0.88229(12)
C7 C 0.8930(4) 0.08907(10) 0.84298(12)
C8 C 0.7710(4) 0.04201(10) 0.71762(12)
C9 C 0.6380(4) 0.22154(11) 0.94552(12)
C10 C 0.8641(4) 0.13568(11) 0.89503(12)
H1 H 0.9585 0.1369 0.9388
C11 C 0.4270(4) 0.29209(11) 0.80784(12)
H2 H 0.5625 0.3051 0.8324
C12 C 1.0668(4) 0.03811(11) 0.85920(13)
C13 C 0.9909(4) 0.28534(11) 0.94711(13)
H3 H 1.0207 0.2660 0.9033
C14 C 0.7570(5) 0.29882(12) 1.04479(13)
H4 H 0.6286 0.2887 1.0664
C15 C 0.1871(4) 0.20983(12) 0.75505(13)
H5 H 0.1606 0.1670 0.7436
C16 C 0.2644(4) 0.33710(12) 0.78648(14)
H6 H 0.2915 0.3801 0.7966
C17 C 0.0240(4) 0.25496(13) 0.73418(14)
H7 H -0.1115 0.2423 0.7093
C18 C 0.0630(5) 0.31850(13) 0.75034(14)
H8 H -0.0466 0.3488 0.7368
C19 C 0.7879(4) -0.03610(13) 0.90660(16)
H9 H 0.6940 -0.0016 0.9122
C20 C 1.1252(4) -0.07880(12) 0.86921(14)
H10 H 1.2620 -0.0730 0.8510
C21 C 0.5942(4) 0.00371(13) 0.69269(15)
H11 H 0.4623 0.0063 0.7147
C22 C 1.1374(5) 0.33011(13) 0.98049(15)
H12 H 1.2655 0.3408 0.9591
C23 C 0.7263(5) -0.09689(15) 0.92636(17)
H13 H 0.5936 -0.1029 0.9471
C24 C 0.8603(5) -0.14839(13) 0.91541(15)
H14 H 0.8162 -0.1893 0.9275
C25 C 0.9647(4) 0.03694(12) 0.68392(15)
H15 H 1.0880 0.0616 0.7009
C26 C 0.9777(5) -0.00442(14) 0.62503(16)
H16 H 1.1075 -0.0063 0.6018
C27 C 1.0584(5) -0.13941(13) 0.88679(16)
H17 H 1.1485 -0.1744 0.8792
C28 C 0.6096(5) -0.03866(15) 0.63525(18)
H18 H 0.4891 -0.0648 0.6196
C29 C 0.8005(5) -0.04244(14) 0.60118(17)
H19 H 0.8096 -0.0706 0.5622
C30 C 0.9050(5) 0.34302(14) 1.07775(15)
H20 H 0.8776 0.3622 1.1219
C31 C 1.0940(5) 0.35878(14) 1.04521(16)
H21 H 1.1927 0.3890 1.0673
N1 N 0.0911(3) 0.36605(8) 0.26322(10)
O1 O -0.0409(3) 0.28737(9) 0.46931(10)
O2 O 0.7632(3) 0.44980(9) 0.35675(13)
C1 C 0.0638(3) 0.32118(10) 0.31415(11)
C2 C 0.2504(4) 0.41043(10) 0.27756(12)
C3 C 0.2995(4) 0.23084(11) 0.47897(12)
C4 C 0.4905(4) 0.52669(11) 0.37841(12)
C5 C -0.1108(4) 0.27224(10) 0.29278(12)
C6 C 0.1956(4) 0.31964(10) 0.38229(12)
C7 C 0.3930(4) 0.41093(10) 0.34298(12)
C8 C 0.2710(4) 0.45799(10) 0.21762(12)
C9 C 0.1380(4) 0.27846(11) 0.44552(12)
C10 C 0.3641(4) 0.36432(11) 0.39503(12)
H1 H 0.4585 0.3631 0.4388
C11 C -0.0730(4) 0.20791(11) 0.30784(12)
H2 H 0.0625 0.1949 0.3324
C12 C 0.5668(4) 0.46189(11) 0.35920(13)
C13 C 0.4909(4) 0.21466(11) 0.44711(13)
H3 H 0.5207 0.2340 0.4033
C14 C 0.2570(5) 0.20118(12) 0.54479(13)
H4 H 0.1286 0.2113 0.5664
C15 C -0.3129(4) 0.29017(12) 0.25505(13)
H5 H -0.3394 0.3330 0.2436
C16 C -0.2356(4) 0.16290(12) 0.28648(14)
H6 H -0.2085 0.1199 0.2966
C17 C -0.4760(4) 0.24504(13) 0.23418(14)
H7 H -0.6115 0.2577 0.2093
C18 C -0.4370(5) 0.18150(13) 0.25034(14)
H8 H -0.5466 0.1512 0.2368
C19 C 0.2879(4) 0.53610(13) 0.40660(16)
H9 H 0.1940 0.5016 0.4122
C20 C 0.6252(4) 0.57880(12) 0.36921(14)
H10 H 0.7620 0.5730 0.3510
C21 C 0.0942(4) 0.49629(13) 0.19269(15)
H11 H -0.0377 0.4937 0.2147
C22 C 0.6374(5) 0.16989(13) 0.48049(15)
H12 H 0.7655 0.1592 0.4591
C23 C 0.2263(5) 0.59689(15) 0.42636(17)
H13 H 0.0936 0.6029 0.4471
C24 C 0.3603(5) 0.64839(13) 0.41541(15)
H14 H 0.3162 0.6893 0.4275
C25 C 0.4647(4) 0.46306(12) 0.18392(15)
H15 H 0.5880 0.4384 0.2009
C26 C 0.4777(5) 0.50442(14) 0.12503(16)
H16 H 0.6075 0.5063 0.1018
C27 C 0.5584(5) 0.63941(13) 0.38679(16)
H17 H 0.6485 0.6744 0.3792
C28 C 0.1096(5) 0.53866(15) 0.13525(18)
H18 H -0.0109 0.5648 0.1196
C29 C 0.3005(5) 0.54244(14) 0.10118(17)
H19 H 0.3096 0.5706 0.0622
C30 C 0.4050(5) 0.15698(14) 0.57775(15)
H20 H 0.3776 0.1378 0.6219
C31 C 0.5940(5) 0.14122(14) 0.54521(16)
H21 H 0.6927 0.1110 0.5673
N1 N 0.4089(3) 0.86605(8) 0.23678(10)
O1 O 0.5409(3) 0.78737(9) 0.03069(10)
O2 O -0.2632(3) 0.94980(9) 0.14325(13)
C1 C 0.4362(3) 0.82118(10) 0.18585(11)
C2 C 0.2496(4) 0.91043(10) 0.22244(12)
C3 C 0.2005(4) 0.73084(11) 0.02103(12)
C4 C 0.0095(4) 1.02669(11) 0.12159(12)
C5 C 0.6108(4) 0.77224(10) 0.20722(12)
C6 C 0.3044(4) 0.81964(10) 0.11771(12)
C7 C 0.1070(4) 0.91093(10) 0.15702(12)
C8 C 0.2290(4) 0.95799(10) 0.28238(12)
C9 C 0.3620(4) 0.77846(11) 0.05448(12)
C10 C 0.1359(4) 0.86432(11) 0.10497(12)
H1 H 0.0415 0.8631 0.0612
C11 C 0.5730(4) 0.70791(11) 0.19216(12)
H2 H 0.4375 0.6949 0.1676
C12 C -0.0668(4) 0.96189(11) 0.14080(13)
C13 C 0.0091(4) 0.71466(11) 0.05289(13)
H3 H -0.0207 0.7340 0.0967
C14 C 0.2430(5) 0.70118(12) -0.04479(13)
H4 H 0.3714 0.7113 -0.0664
C15 C 0.8129(4) 0.79017(12) 0.24495(13)
H5 H 0.8394 0.8330 0.2564
C16 C 0.7356(4) 0.66290(12) 0.21352(14)
H6 H 0.7085 0.6199 0.2034
C17 C 0.9760(4) 0.74504(13) 0.26582(14)
H7 H 1.1115 0.7577 0.2907
C18 C 0.9370(5) 0.68150(13) 0.24966(14)
H8 H 1.0466 0.6512 0.2632
C19 C 0.2121(4) 1.03610(13) 0.09340(16)
H9 H 0.3060 1.0016 0.0878
C20 C -0.1252(4) 1.07880(12) 0.13079(14)
H10 H -0.2620 1.0730 0.1490
C21 C 0.4058(4) 0.99629(13) 0.30731(15)
H11 H 0.5377 0.9937 0.2853
C22 C -0.1374(5) 0.66989(13) 0.01951(15)
H12 H -0.2655 0.6592 0.0409
C23 C 0.2737(5) 1.09689(15) 0.07364(17)
H13 H 0.4064 1.1029 0.0529
C24 C 0.1397(5) 1.14839(13) 0.08459(15)
H14 H 0.1838 1.1893 0.0725
C25 C 0.0353(4) 0.96306(12) 0.31608(15)
H15 H -0.0880 0.9384 0.2991
C26 C 0.0223(5) 1.00442(14) 0.37497(16)
H16 H -0.1075 1.0063 0.3982
C27 C -0.0584(5) 1.13941(13) 0.11321(16)
H17 H -0.1485 1.1744 0.1208
C28 C 0.3904(5) 1.03866(15) 0.36475(18)
H18 H 0.5109 1.0648 0.3804
C29 C 0.1995(5) 1.04244(14) 0.39882(17)
H19 H 0.1904 1.0706 0.4378
C30 C 0.0950(5) 0.65698(14) -0.07775(15)
H20 H 0.1224 0.6378 -0.1219
C31 C -0.0940(5) 0.64122(14) -0.04521(16)
H21 H -0.1927 0.6110 -0.0673

#END
