./KAHJEK_from_POSCAR.cif_generated_by_CrystalShift
_symmetry_cell_setting triclinic
_symmetry_space_group_name_H-M 'P 1'
loop_
_symmetry_equiv_pos_site_id
_symmetry_equiv_pos_as_xyz
1 x,y,z
_cell_length_a 11.401600
_cell_length_b 11.427100
_cell_length_c 12.717100
_cell_angle_alpha 64.575000
_cell_angle_beta 89.452000
_cell_angle_gamma 73.485000
_cell_volume 1422.514427
loop_
_atom_site_label
_atom_site_type_symbol
_atom_site_fract_x
_atom_site_fract_y
_atom_site_fract_z
H1 H 0.672000 0.614700 0.211200
H2 H 0.553800 0.663000 0.265700
H3 H 0.885600 0.143500 0.739700
H4 H 0.940000 0.242000 0.767200
H5 H 0.333800 0.700600 0.092300
H6 H 0.905700 0.114700 0.873800
H7 H 0.842000 0.593100 0.700000
H8 H 1.059000 0.481000 0.743000
H9 H 1.156400 0.310800 0.923100
H10 H 0.329500 0.276600 0.298900
H11 H 1.033000 0.244000 1.087000
H12 H 0.349400 0.453500 0.061300
H13 H 0.823500 0.361000 1.049200
H14 H 0.587300 0.718100 0.979200
H15 H 0.595500 0.880900 1.038600
H16 H 0.639300 1.083100 0.902800
H17 H 0.219200 0.680600 0.429100
H18 H 0.684600 1.105000 0.717900
H19 H 0.685700 0.940200 0.663200
H20 H 0.449300 0.287000 0.575100
H21 H 0.048600 1.293100 0.513500
H22 H 0.022000 1.385700 0.582300
H23 H 0.144500 1.366100 0.526900
H24 H 0.356900 0.783500 0.878900
H25 H 0.598000 0.038200 0.466300
H26 H 0.207400 0.988800 0.855400
H27 H 0.750000 -0.167700 0.489900
H28 H 0.250000 1.167700 0.510100
H29 H 0.402000 0.961800 0.533700
H30 H 0.792600 0.011200 0.144600
H31 H 0.550700 0.713000 0.424900
H32 H 0.643100 0.216500 0.121100
H33 H 0.780800 0.319400 0.570900
H34 H 0.855500 -0.366100 0.473100
H35 H 0.978000 -0.385700 0.417700
H36 H 0.951400 -0.293100 0.486500
H37 H 0.650600 0.546500 0.938700
H38 H 0.670500 0.723400 0.701100
H39 H 0.314300 0.059800 0.336800
H40 H 0.666200 0.299400 0.907700
H41 H 0.315400 -0.105000 0.282100
H42 H 0.328000 0.385300 0.788800
H43 H 0.360700 -0.083100 0.097200
H44 H 0.329700 0.289100 0.731100
H45 H 0.404500 0.119100 -0.038600
H46 H 0.446200 0.337000 0.734300
H47 H 0.412700 0.281900 0.020800
H48 H 0.114400 0.856500 0.260300
H49 H 0.060000 0.758000 0.232800
H50 H 0.176500 0.639000 -0.049200
H51 H 0.094300 0.885300 0.126200
H52 H -0.033000 0.756000 -0.087000
H53 H 0.158000 0.406900 0.300000
H54 H -0.156400 0.689200 0.076900
H55 H -0.059000 0.519000 0.257000
H56 H 0.670300 0.710900 0.268900
C57 C 0.114320 0.477600 0.214330
C58 C -0.067850 0.644300 0.086870
C59 C 0.116650 0.816110 0.205170
C60 C 0.001360 0.679000 -0.005430
C61 C 0.126890 0.612600 0.011770
C62 C 0.185390 0.511010 0.121980
C63 C 0.354880 0.363220 0.727300
C64 C 0.387990 0.206250 0.073650
C65 C 0.384470 0.106670 0.039890
C66 C 0.358110 -0.009020 0.117230
C67 C 0.645120 0.636780 0.272700
C68 C 0.883350 0.183890 0.794830
C69 C 0.885680 0.522400 0.785670
C70 C 0.509000 0.274530 0.277160
C71 C 0.334000 -0.024560 0.228260
C72 C 1.011450 0.455310 0.804160
C73 C 0.373800 0.293110 0.229110
C74 C 0.491000 0.725470 0.722840
C75 C 0.626200 0.706890 0.770890
C76 C 0.336180 0.075460 0.261330
C77 C 0.677030 0.555420 0.862740
C78 C 0.364540 0.192060 0.185300
C79 C 0.597630 0.485560 0.824870
C80 C 0.624990 0.490740 0.705580
C81 C 0.708420 0.382920 0.691150
C82 C 0.730740 0.393300 0.580990
C83 C 0.914870 -0.321220 0.433740
C84 C 0.671830 0.514030 0.481930
C85 C 0.592120 0.624410 0.491740
C86 C 0.661850 0.137760 0.196910
C87 C 0.570700 0.610280 0.604180
C88 C 0.472090 0.588770 0.804810
C89 C 0.393070 0.853430 0.707400
C90 C 0.360850 0.967320 0.599870
C91 C 0.747170 0.017410 0.209600
C92 C 0.273790 1.088440 0.585480
C93 C 0.779670 -0.096020 0.318950
C94 C 0.220330 1.096020 0.681050
C95 C 0.252830 0.982590 0.790400
C96 C 0.726210 -0.088440 0.414520
C97 C 0.338150 0.862240 0.803090
C98 C 0.639150 0.032680 0.400130
C99 C 0.085130 1.321220 0.566260
C100 C 0.606930 0.146570 0.292600
C101 C 0.527910 0.411230 0.195190
C102 C 0.429300 0.389720 0.395820
C103 C 0.635460 0.807940 0.814700
C104 C 0.663820 0.924540 0.738670
C105 C 0.407880 0.375590 0.508260
C106 C 0.666000 1.024560 0.771740
C107 C 0.328170 0.485970 0.518070
C108 C 0.641890 1.009020 0.882770
C109 C 0.269260 0.606700 0.419010
C110 C 0.615530 0.893330 0.960110
C111 C 0.291580 0.617080 0.308850
C112 C 0.612010 0.793750 0.926350
C113 C 0.375010 0.509260 0.294420
C114 C 0.814610 0.488990 0.878020
C115 C 0.873110 0.387400 0.988230
C116 C 0.402370 0.514440 0.175130
C117 C 0.998640 0.321000 1.005430
C118 C 0.322970 0.444580 0.137260
C119 C 1.067850 0.355700 0.913130
C120 C -0.011450 0.544690 0.195840
O121 O 0.762460 0.266360 0.793300
O122 O 0.599610 0.356530 0.911950
O123 O 0.135050 1.209840 0.678330
O124 O 0.298990 0.485170 0.622650
O125 O 0.381250 0.567630 0.847010
O126 O 0.237540 0.733640 0.206700
O127 O 0.400390 0.643470 0.088050
O128 O 0.864950 -0.209840 0.321670
O129 O 0.492260 0.724670 0.608340
O130 O 0.618750 0.432370 0.152990
O131 O 0.701010 0.514830 0.377350
O132 O 0.507740 0.275330 0.391660

#END
