./KAHLEL_from_POSCAR.cif_generated_by_CrystalShift
_symmetry_cell_setting triclinic
_symmetry_space_group_name_H-M 'P 1'
loop_
_symmetry_equiv_pos_site_id
_symmetry_equiv_pos_as_xyz
1 x,y,z
_cell_length_a 9.768200
_cell_length_b 11.401300
_cell_length_c 12.438900
_cell_angle_alpha 76.597000
_cell_angle_beta 86.581000
_cell_angle_gamma 85.825000
_cell_volume 1342.709324
loop_
_atom_site_label
_atom_site_type_symbol
_atom_site_fract_x
_atom_site_fract_y
_atom_site_fract_z
H1 H 1.095900 0.847900 0.285800
H2 H 1.183900 0.790800 0.388400
H3 H 0.965100 0.645200 0.195300
H4 H 0.686500 0.294300 0.263700
H5 H 0.871600 0.764600 0.185900
H6 H 0.378100 0.167600 0.104600
H7 H 0.805200 0.639400 0.211600
H8 H 0.576100 0.227500 0.459300
H9 H 0.597500 0.587900 0.457400
H10 H 0.684500 0.470000 0.446100
H11 H 0.654000 0.572300 0.340700
H12 H 0.232600 0.087900 0.283100
H13 H 0.853200 0.506100 0.687500
H14 H 0.113000 0.011700 0.467600
H15 H 0.706500 0.538400 0.640300
H16 H 0.119600 -0.043200 0.660300
H17 H 0.779900 0.633500 0.686000
H18 H 0.294100 0.023000 0.747600
H19 H 1.012900 0.725100 0.655400
H20 H 0.459200 0.142400 0.642600
H21 H 1.130000 0.763000 0.564800
H22 H 1.122400 0.627500 0.628100
H23 H 0.419500 0.838400 1.215200
H24 H 0.447800 0.929600 1.102000
H25 H 0.541500 0.810500 1.135400
H26 H 0.135300 0.982400 1.058700
H27 H 0.148100 0.991700 0.930800
H28 H 0.274200 1.016300 0.992900
H29 H 0.527700 0.505700 -0.113700
H30 H 0.447000 0.402500 -0.140000
H31 H 0.563200 0.461700 -0.223100
H32 H 0.042900 0.698900 0.883500
H33 H 0.856200 0.521100 -0.078600
H34 H 0.830700 0.483800 0.050100
H35 H 0.710100 0.544200 -0.025400
H36 H 0.043500 0.838800 0.871600
H37 H 1.035200 0.241100 0.027300
H38 H 0.956500 0.161200 0.128400
H39 H 0.957100 0.301100 0.116500
H40 H -0.035200 0.758900 0.972700
H41 H 0.725800 -0.016300 0.007100
H42 H 0.851900 0.008300 0.069200
H43 H 0.864700 0.017600 -0.058700
H44 H 0.289900 0.455800 1.025400
H45 H 0.458500 0.189500 -0.135400
H46 H 0.552200 0.070400 -0.102000
H47 H 0.580500 0.161600 -0.215200
H48 H 0.169300 0.516200 0.949900
H49 H 0.143800 0.478900 1.078600
H50 H 0.436800 0.538300 1.223100
H51 H 0.553000 0.597500 1.140000
H52 H 0.472300 0.494300 1.113700
H53 H 0.540800 0.857600 0.357400
H54 H -0.122400 0.372500 0.371900
H55 H -0.130000 0.237000 0.435200
H56 H -0.012900 0.274900 0.344600
H57 H 0.705900 0.977000 0.252400
H58 H 0.220100 0.366500 0.314000
H59 H 0.293500 0.461600 0.359700
H60 H 0.146800 0.493900 0.312500
H61 H 0.880400 1.043200 0.339700
H62 H 0.346000 0.427700 0.659300
H63 H 0.315500 0.530000 0.553900
H64 H 0.402500 0.412100 0.542600
H65 H 0.887000 0.988300 0.532400
H66 H 0.194800 0.360600 0.788400
H67 H 0.128400 0.235400 0.814100
H68 H 0.034900 0.354800 0.804700
H69 H 0.767400 0.912100 0.716900
H70 H -0.183900 0.209200 0.611600
H71 H -0.174800 0.278400 0.705900
H72 H -0.095900 0.152100 0.714200
H73 H 0.423900 0.772500 0.540700
H74 H 0.621900 0.832400 0.895400
H75 H 0.313500 0.705700 0.736300
H76 H 1.174800 0.721600 0.294100
C77 C 1.125200 0.773800 0.335400
C78 C 0.510600 0.196000 0.424500
C79 C 0.489400 0.804000 0.575500
C80 C 0.882800 0.681100 0.223500
C81 C 0.479100 0.788300 0.689300
C82 C 0.586800 0.833300 0.744700
C83 C 0.696400 0.888500 0.681500
C84 C -0.125200 0.226200 0.664600
C85 C 0.812600 0.968600 0.498100
C86 C 0.117200 0.318900 0.776500
C87 C 0.812000 0.997900 0.381300
C88 C 0.327200 0.444300 0.582200
C89 C 0.707700 0.958100 0.329100
C90 C 0.206500 0.430400 0.352800
C91 C 0.605100 0.889300 0.393200
C92 C -0.069300 0.299400 0.402400
C93 C 0.596300 0.866300 0.510900
C94 C 0.702700 0.909800 0.565100
C95 C 0.361400 0.655500 1.087500
C96 C 0.247100 0.632000 1.029100
C97 C 0.172000 0.743800 0.988100
C98 C 0.242300 0.837600 1.018900
C99 C 0.355300 0.781000 1.084200
C100 C 0.465200 0.563100 1.146400
C101 C -0.001000 0.287600 0.604900
C102 C 0.106800 0.328400 0.654500
C103 C 0.197700 0.386200 0.568000
C104 C 0.209100 0.509700 1.019900
C105 C 0.143100 0.382400 0.465500
C106 C 0.020400 0.320800 0.489000
C107 C 0.550500 0.154300 -0.139200
C108 C 0.044300 0.761700 0.923100
C109 C 0.804200 0.031200 0.001500
C110 C 0.955700 0.238300 0.076900
C111 C 0.790900 0.490300 -0.019900
C112 C 0.195800 0.968800 0.998500
C113 C 0.534800 0.436900 -0.146400
C114 C 0.644700 0.219000 -0.084200
C115 C 0.757700 0.162400 -0.018900
C116 C 0.449500 0.845700 1.139200
C117 C 0.828000 0.256200 0.011900
C118 C 0.752900 0.368000 -0.029100
C119 C 0.638600 0.344500 -0.087500
C120 C 0.979600 0.679200 0.511000
C121 C 0.856900 0.617600 0.534500
C122 C 0.802300 0.613800 0.432000
C123 C 0.893200 0.671600 0.345500
C124 C 1.001000 0.712400 0.395100
C125 C 1.069300 0.700600 0.597600
C126 C 0.297300 0.090200 0.434900
C127 C 0.403700 0.133700 0.489100
C128 C 0.394900 0.110700 0.606800
C129 C 0.793500 0.569600 0.647200
C130 C 0.292300 0.041900 0.670900
C131 C 0.188000 0.002100 0.618700
C132 C 0.187400 0.031400 0.501900
C133 C 0.672800 0.555700 0.417800
C134 C 0.303600 0.111500 0.318500
C135 C 0.413200 0.166700 0.255300
C136 C 0.520900 0.211700 0.310700
N137 N 0.561800 0.816600 0.853800
N138 N 0.438200 0.183400 0.146200
N139 N 0.622400 0.259300 0.241100
N140 N 0.377600 0.740700 0.758900
Ru141 Ru 0.190270 0.200270 0.561240
Ru142 Ru 0.809730 0.799730 0.438760
Ru143 Ru 0.378100 0.752940 0.919420
Ru144 Ru 0.621900 0.247060 0.080580

#END
