
#######################################################################
#
#                 Cambridge Crystallographic Data Centre
#                                CCDC 
#
#######################################################################
#
# If this CIF has been generated from an entry in the Cambridge 
# Structural Database, then it will include bibliographic, chemical, 
# crystal, experimental, refinement or atomic coordinate data resulting 
# from the CCDC's data processing and validation procedures.
#
#######################################################################

data_KAHSOD
_symmetry_cell_setting           orthorhombic
_symmetry_space_group_name_H-M   'P b c a'
_symmetry_Int_Tables_number      61
_space_group_name_Hall           '-P 2ac 2ab'
loop_
_symmetry_equiv_pos_site_id
_symmetry_equiv_pos_as_xyz
1 x,y,z
2 1/2-x,-y,1/2+z
3 -x,1/2+y,1/2-z
4 1/2+x,1/2-y,-z
5 -x,-y,-z
6 1/2+x,y,1/2-z
7 x,1/2-y,1/2+z
8 1/2-x,1/2+y,z
_cell_length_a                   17.467(3)
_cell_length_b                   9.2050(16)
_cell_length_c                   18.183(3)
_cell_angle_alpha                90
_cell_angle_beta                 90
_cell_angle_gamma                90
_cell_volume                     2923.53
loop_
_atom_site_label
_atom_site_type_symbol
_atom_site_fract_x
_atom_site_fract_y
_atom_site_fract_z
C1 C 0.25674(6) 0.73181(13) 0.33338(7)
C2 C 0.23812(7) 0.79995(16) 0.39822(7)
H1 H 0.1911 0.8465 0.4031
C3 C 0.28925(9) 0.79918(19) 0.45604(9)
H2 H 0.2762 0.8435 0.5003
C4 C 0.35927(10) 0.73321(19) 0.44848(10)
H3 H 0.3938 0.7334 0.4874
C5 C 0.37799(9) 0.66741(18) 0.38369(12)
H4 H 0.4256 0.6234 0.3785
C6 C 0.32689(8) 0.66550(14) 0.32580(9)
H5 H 0.3398 0.6197 0.2819
C7 C 0.12335(6) 0.70356(12) 0.29283(6)
C8 C 0.10424(6) 0.57453(13) 0.32716(6)
H6 H 0.1415 0.5043 0.3357
C9 C 0.02951(6) 0.55086(14) 0.34868(7)
H7 H 0.0166 0.4647 0.3723
C10 C -0.02577(7) 0.65310(15) 0.33557(7)
H8 H -0.0760 0.6361 0.3501
C11 C -0.00697(7) 0.78062(14) 0.30093(7)
H9 H -0.0447 0.8494 0.2914
C12 C 0.06790(7) 0.80724(13) 0.28010(7)
H10 H 0.0808 0.8946 0.2576
C13 C 0.22515(7) 0.77392(15) 0.20499(7)
C14 C 0.17050(7) 0.75485(14) 0.14230(6)
C15 C 0.16174(7) 0.86899(14) 0.09344(7)
H11 H 0.1877 0.9557 0.1015
C16 C 0.11502(8) 0.85520(18) 0.03326(8)
H12 H 0.1081 0.9337 0.0018
C17 C 0.07857(8) 0.72682(19) 0.01923(8)
H13 H 0.0473 0.7178 -0.0219
C18 C 0.08823(8) 0.61105(16) 0.06609(8)
H14 H 0.0641 0.5232 0.0561
C19 C 0.13389(7) 0.62479(15) 0.12822(7)
H15 H 0.1398 0.5468 0.1602
N1 N 0.20232(5) 0.73011(11) 0.27379(6)
O1 O 0.28880(6) 0.82391(14) 0.19418(6)
C1 C 0.24326(6) 0.26819(13) 0.83338(7)
C2 C 0.26188(7) 0.20005(16) 0.89822(7)
H1 H 0.3089 0.1535 0.9031
C3 C 0.21075(9) 0.20082(19) 0.95604(9)
H2 H 0.2238 0.1565 1.0003
C4 C 0.14073(10) 0.26679(19) 0.94848(10)
H3 H 0.1062 0.2666 0.9874
C5 C 0.12201(9) 0.33259(18) 0.88369(12)
H4 H 0.0744 0.3766 0.8785
C6 C 0.17311(8) 0.33450(14) 0.82580(9)
H5 H 0.1602 0.3803 0.7819
C7 C 0.37665(6) 0.29644(12) 0.79283(6)
C8 C 0.39576(6) 0.42547(13) 0.82716(6)
H6 H 0.3585 0.4957 0.8357
C9 C 0.47049(6) 0.44914(14) 0.84868(7)
H7 H 0.4834 0.5353 0.8723
C10 C 0.52577(7) 0.34690(15) 0.83557(7)
H8 H 0.5760 0.3639 0.8501
C11 C 0.50697(7) 0.21938(14) 0.80093(7)
H9 H 0.5447 0.1506 0.7914
C12 C 0.43210(7) 0.19276(13) 0.78010(7)
H10 H 0.4192 0.1054 0.7576
C13 C 0.27485(7) 0.22608(15) 0.70499(7)
C14 C 0.32950(7) 0.24515(14) 0.64230(6)
C15 C 0.33826(7) 0.13101(14) 0.59344(7)
H11 H 0.3123 0.0443 0.6015
C16 C 0.38498(8) 0.14480(18) 0.53326(8)
H12 H 0.3919 0.0663 0.5018
C17 C 0.42143(8) 0.27318(19) 0.51923(8)
H13 H 0.4527 0.2822 0.4781
C18 C 0.41177(8) 0.38895(16) 0.56609(8)
H14 H 0.4359 0.4768 0.5561
C19 C 0.36611(7) 0.37521(15) 0.62822(7)
H15 H 0.3602 0.4532 0.6602
N1 N 0.29768(5) 0.26989(11) 0.77379(6)
O1 O 0.21120(6) 0.17609(14) 0.69418(6)
C1 C 0.74326(6) 0.23181(13) 0.16662(7)
C2 C 0.76188(7) 0.29995(16) 0.10178(7)
H1 H 0.8089 0.3465 0.0969
C3 C 0.71075(9) 0.29918(19) 0.04396(9)
H2 H 0.7238 0.3435 -0.0003
C4 C 0.64073(10) 0.23321(19) 0.05152(10)
H3 H 0.6062 0.2334 0.0126
C5 C 0.62201(9) 0.16741(18) 0.11631(12)
H4 H 0.5744 0.1234 0.1215
C6 C 0.67311(8) 0.16550(14) 0.17420(9)
H5 H 0.6602 0.1197 0.2181
C7 C 0.87665(6) 0.20356(12) 0.20717(6)
C8 C 0.89576(6) 0.07453(13) 0.17284(6)
H6 H 0.8585 0.0043 0.1643
C9 C 0.97049(6) 0.05086(14) 0.15132(7)
H7 H 0.9834 -0.0353 0.1277
C10 C 1.02577(7) 0.15310(15) 0.16443(7)
H8 H 1.0760 0.1361 0.1499
C11 C 1.00697(7) 0.28062(14) 0.19907(7)
H9 H 1.0447 0.3494 0.2086
C12 C 0.93210(7) 0.30724(13) 0.21990(7)
H10 H 0.9192 0.3946 0.2424
C13 C 0.77485(7) 0.27392(15) 0.29501(7)
C14 C 0.82950(7) 0.25485(14) 0.35770(6)
C15 C 0.83826(7) 0.36899(14) 0.40656(7)
H11 H 0.8123 0.4557 0.3985
C16 C 0.88498(8) 0.35520(18) 0.46674(8)
H12 H 0.8919 0.4337 0.4982
C17 C 0.92143(8) 0.22682(19) 0.48077(8)
H13 H 0.9527 0.2178 0.5219
C18 C 0.91177(8) 0.11105(16) 0.43391(8)
H14 H 0.9359 0.0232 0.4439
C19 C 0.86611(7) 0.12479(15) 0.37178(7)
H15 H 0.8602 0.0468 0.3398
N1 N 0.79768(5) 0.23011(11) 0.22621(6)
O1 O 0.71120(6) 0.32391(14) 0.30582(6)
C1 C 0.75674(6) 0.76819(13) 0.66662(7)
C2 C 0.73812(7) 0.70005(16) 0.60178(7)
H1 H 0.6911 0.6535 0.5969
C3 C 0.78925(9) 0.70082(19) 0.54396(9)
H2 H 0.7762 0.6565 0.4997
C4 C 0.85927(10) 0.76679(19) 0.55152(10)
H3 H 0.8938 0.7666 0.5126
C5 C 0.87799(9) 0.83259(18) 0.61631(12)
H4 H 0.9256 0.8766 0.6215
C6 C 0.82689(8) 0.83450(14) 0.67420(9)
H5 H 0.8398 0.8803 0.7181
C7 C 0.62335(6) 0.79644(12) 0.70717(6)
C8 C 0.60424(6) 0.92547(13) 0.67284(6)
H6 H 0.6415 0.9957 0.6643
C9 C 0.52951(6) 0.94914(14) 0.65132(7)
H7 H 0.5166 1.0353 0.6277
C10 C 0.47423(7) 0.84690(15) 0.66443(7)
H8 H 0.4240 0.8639 0.6499
C11 C 0.49303(7) 0.71938(14) 0.69907(7)
H9 H 0.4553 0.6506 0.7086
C12 C 0.56790(7) 0.69276(13) 0.71990(7)
H10 H 0.5808 0.6054 0.7424
C13 C 0.72515(7) 0.72608(15) 0.79501(7)
C14 C 0.67050(7) 0.74515(14) 0.85770(6)
C15 C 0.66174(7) 0.63101(14) 0.90656(7)
H11 H 0.6877 0.5443 0.8985
C16 C 0.61502(8) 0.64480(18) 0.96674(8)
H12 H 0.6081 0.5663 0.9982
C17 C 0.57857(8) 0.77318(19) 0.98077(8)
H13 H 0.5473 0.7822 1.0219
C18 C 0.58823(8) 0.88895(16) 0.93391(8)
H14 H 0.5641 0.9768 0.9439
C19 C 0.63389(7) 0.87521(15) 0.87178(7)
H15 H 0.6398 0.9532 0.8398
N1 N 0.70232(5) 0.76989(11) 0.72621(6)
O1 O 0.78880(6) 0.67609(14) 0.80582(6)
C1 C 0.74326(6) 0.26819(13) 0.66662(7)
C2 C 0.76188(7) 0.20005(16) 0.60178(7)
H1 H 0.8089 0.1535 0.5969
C3 C 0.71075(9) 0.20082(19) 0.54396(9)
H2 H 0.7238 0.1565 0.4997
C4 C 0.64073(10) 0.26679(19) 0.55152(10)
H3 H 0.6062 0.2666 0.5126
C5 C 0.62201(9) 0.33259(18) 0.61631(12)
H4 H 0.5744 0.3766 0.6215
C6 C 0.67311(8) 0.33450(14) 0.67420(9)
H5 H 0.6602 0.3803 0.7181
C7 C 0.87665(6) 0.29644(12) 0.70717(6)
C8 C 0.89576(6) 0.42547(13) 0.67284(6)
H6 H 0.8585 0.4957 0.6643
C9 C 0.97049(6) 0.44914(14) 0.65132(7)
H7 H 0.9834 0.5353 0.6277
C10 C 1.02577(7) 0.34690(15) 0.66443(7)
H8 H 1.0760 0.3639 0.6499
C11 C 1.00697(7) 0.21938(14) 0.69907(7)
H9 H 1.0447 0.1506 0.7086
C12 C 0.93210(7) 0.19276(13) 0.71990(7)
H10 H 0.9192 0.1054 0.7424
C13 C 0.77485(7) 0.22608(15) 0.79501(7)
C14 C 0.82950(7) 0.24515(14) 0.85770(6)
C15 C 0.83826(7) 0.13101(14) 0.90656(7)
H11 H 0.8123 0.0443 0.8985
C16 C 0.88498(8) 0.14480(18) 0.96674(8)
H12 H 0.8919 0.0663 0.9982
C17 C 0.92143(8) 0.27318(19) 0.98077(8)
H13 H 0.9527 0.2822 1.0219
C18 C 0.91177(8) 0.38895(16) 0.93391(8)
H14 H 0.9359 0.4768 0.9439
C19 C 0.86611(7) 0.37521(15) 0.87178(7)
H15 H 0.8602 0.4532 0.8398
N1 N 0.79768(5) 0.26989(11) 0.72621(6)
O1 O 0.71120(6) 0.17609(14) 0.80582(6)
C1 C 0.75674(6) 0.73181(13) 0.16662(7)
C2 C 0.73812(7) 0.79995(16) 0.10178(7)
H1 H 0.6911 0.8465 0.0969
C3 C 0.78925(9) 0.79918(19) 0.04396(9)
H2 H 0.7762 0.8435 -0.0003
C4 C 0.85927(10) 0.73321(19) 0.05152(10)
H3 H 0.8938 0.7334 0.0126
C5 C 0.87799(9) 0.66741(18) 0.11631(12)
H4 H 0.9256 0.6234 0.1215
C6 C 0.82689(8) 0.66550(14) 0.17420(9)
H5 H 0.8398 0.6197 0.2181
C7 C 0.62335(6) 0.70356(12) 0.20717(6)
C8 C 0.60424(6) 0.57453(13) 0.17284(6)
H6 H 0.6415 0.5043 0.1643
C9 C 0.52951(6) 0.55086(14) 0.15132(7)
H7 H 0.5166 0.4647 0.1277
C10 C 0.47423(7) 0.65310(15) 0.16443(7)
H8 H 0.4240 0.6361 0.1499
C11 C 0.49303(7) 0.78062(14) 0.19907(7)
H9 H 0.4553 0.8494 0.2086
C12 C 0.56790(7) 0.80724(13) 0.21990(7)
H10 H 0.5808 0.8946 0.2424
C13 C 0.72515(7) 0.77392(15) 0.29501(7)
C14 C 0.67050(7) 0.75485(14) 0.35770(6)
C15 C 0.66174(7) 0.86899(14) 0.40656(7)
H11 H 0.6877 0.9557 0.3985
C16 C 0.61502(8) 0.85520(18) 0.46674(8)
H12 H 0.6081 0.9337 0.4982
C17 C 0.57857(8) 0.72682(19) 0.48077(8)
H13 H 0.5473 0.7178 0.5219
C18 C 0.58823(8) 0.61105(16) 0.43391(8)
H14 H 0.5641 0.5232 0.4439
C19 C 0.63389(7) 0.62479(15) 0.37178(7)
H15 H 0.6398 0.5468 0.3398
N1 N 0.70232(5) 0.73011(11) 0.22621(6)
O1 O 0.78880(6) 0.82391(14) 0.30582(6)
C1 C 0.25674(6) 0.76819(13) 0.83338(7)
C2 C 0.23812(7) 0.70005(16) 0.89822(7)
H1 H 0.1911 0.6535 0.9031
C3 C 0.28925(9) 0.70082(19) 0.95604(9)
H2 H 0.2762 0.6565 1.0003
C4 C 0.35927(10) 0.76679(19) 0.94848(10)
H3 H 0.3938 0.7666 0.9874
C5 C 0.37799(9) 0.83259(18) 0.88369(12)
H4 H 0.4256 0.8766 0.8785
C6 C 0.32689(8) 0.83450(14) 0.82580(9)
H5 H 0.3398 0.8803 0.7819
C7 C 0.12335(6) 0.79644(12) 0.79283(6)
C8 C 0.10424(6) 0.92547(13) 0.82716(6)
H6 H 0.1415 0.9957 0.8357
C9 C 0.02951(6) 0.94914(14) 0.84868(7)
H7 H 0.0166 1.0353 0.8723
C10 C -0.02577(7) 0.84690(15) 0.83557(7)
H8 H -0.0760 0.8639 0.8501
C11 C -0.00697(7) 0.71938(14) 0.80093(7)
H9 H -0.0447 0.6506 0.7914
C12 C 0.06790(7) 0.69276(13) 0.78010(7)
H10 H 0.0808 0.6054 0.7576
C13 C 0.22515(7) 0.72608(15) 0.70499(7)
C14 C 0.17050(7) 0.74515(14) 0.64230(6)
C15 C 0.16174(7) 0.63101(14) 0.59344(7)
H11 H 0.1877 0.5443 0.6015
C16 C 0.11502(8) 0.64480(18) 0.53326(8)
H12 H 0.1081 0.5663 0.5018
C17 C 0.07857(8) 0.77318(19) 0.51923(8)
H13 H 0.0473 0.7822 0.4781
C18 C 0.08823(8) 0.88895(16) 0.56609(8)
H14 H 0.0641 0.9768 0.5561
C19 C 0.13389(7) 0.87521(15) 0.62822(7)
H15 H 0.1398 0.9532 0.6602
N1 N 0.20232(5) 0.76989(11) 0.77379(6)
O1 O 0.28880(6) 0.67609(14) 0.69418(6)
C1 C 0.24326(6) 0.23181(13) 0.33338(7)
C2 C 0.26188(7) 0.29995(16) 0.39822(7)
H1 H 0.3089 0.3465 0.4031
C3 C 0.21075(9) 0.29918(19) 0.45604(9)
H2 H 0.2238 0.3435 0.5003
C4 C 0.14073(10) 0.23321(19) 0.44848(10)
H3 H 0.1062 0.2334 0.4874
C5 C 0.12201(9) 0.16741(18) 0.38369(12)
H4 H 0.0744 0.1234 0.3785
C6 C 0.17311(8) 0.16550(14) 0.32580(9)
H5 H 0.1602 0.1197 0.2819
C7 C 0.37665(6) 0.20356(12) 0.29283(6)
C8 C 0.39576(6) 0.07453(13) 0.32716(6)
H6 H 0.3585 0.0043 0.3357
C9 C 0.47049(6) 0.05086(14) 0.34868(7)
H7 H 0.4834 -0.0353 0.3723
C10 C 0.52577(7) 0.15310(15) 0.33557(7)
H8 H 0.5760 0.1361 0.3501
C11 C 0.50697(7) 0.28062(14) 0.30093(7)
H9 H 0.5447 0.3494 0.2914
C12 C 0.43210(7) 0.30724(13) 0.28010(7)
H10 H 0.4192 0.3946 0.2576
C13 C 0.27485(7) 0.27392(15) 0.20499(7)
C14 C 0.32950(7) 0.25485(14) 0.14230(6)
C15 C 0.33826(7) 0.36899(14) 0.09344(7)
H11 H 0.3123 0.4557 0.1015
C16 C 0.38498(8) 0.35520(18) 0.03326(8)
H12 H 0.3919 0.4337 0.0018
C17 C 0.42143(8) 0.22682(19) 0.01923(8)
H13 H 0.4527 0.2178 -0.0219
C18 C 0.41177(8) 0.11105(16) 0.06609(8)
H14 H 0.4359 0.0232 0.0561
C19 C 0.36611(7) 0.12479(15) 0.12822(7)
H15 H 0.3602 0.0468 0.1602
N1 N 0.29768(5) 0.23011(11) 0.27379(6)
O1 O 0.21120(6) 0.32391(14) 0.19418(6)

#END
