./KAHSAP_from_POSCAR.cif_generated_by_CrystalShift
_symmetry_cell_setting triclinic
_symmetry_space_group_name_H-M 'P 1'
loop_
_symmetry_equiv_pos_site_id
_symmetry_equiv_pos_as_xyz
1 x,y,z
_cell_length_a 6.149000
_cell_length_b 7.305500
_cell_length_c 13.661300
_cell_angle_alpha 100.162000
_cell_angle_beta 97.147000
_cell_angle_gamma 112.760000
_cell_volume 544.329190
loop_
_atom_site_label
_atom_site_type_symbol
_atom_site_fract_x
_atom_site_fract_y
_atom_site_fract_z
H1 H 1.536000 0.836000 0.706900
H2 H 1.410000 0.834000 0.534000
H3 H 1.117000 0.776000 0.400700
H4 H 1.171000 0.826000 0.128300
H5 H 0.824000 0.778000 0.012300
H6 H 0.454000 0.710000 0.061700
H7 H 0.444000 0.685000 0.233100
H8 H 0.722000 0.669000 0.575700
H9 H 0.839000 0.670000 0.740000
H10 H 0.161000 0.330000 0.260000
H11 H 0.278000 0.331000 0.424300
H12 H 0.556000 0.315000 0.766900
H13 H 0.546000 0.290000 0.938300
H14 H 0.176000 0.222000 0.987700
H15 H -0.171000 0.174000 0.871700
H16 H -0.117000 0.224000 0.599300
H17 H -0.410000 0.166000 0.466000
H18 H -0.536000 0.164000 0.293100
C19 C 1.197600 0.752440 0.738750
C20 C 1.369700 0.801500 0.680470
C21 C 1.300200 0.801000 0.580270
C22 C -0.300200 0.199000 0.419730
C23 C -0.369700 0.198500 0.319530
C24 C -0.197600 0.247560 0.261250
C25 C 0.040900 0.298000 0.300410
C26 C 0.111100 0.297900 0.400680
C27 C -0.059800 0.247110 0.460730
C28 C 0.959100 0.702000 0.699590
C29 C 0.888900 0.702100 0.599320
C30 C 1.059800 0.752890 0.539270
C31 C 0.790500 0.732110 0.381740
C32 C 0.796900 0.743830 0.273090
C33 C 0.588100 0.714600 0.208330
C34 C 0.597500 0.726100 0.108580
C35 C 0.812600 0.768500 0.078810
C36 C 1.012000 0.795800 0.148640
C37 C -0.012000 0.204200 0.851360
C38 C 0.187400 0.231500 0.921190
C39 C 0.402500 0.273900 0.891420
C40 C 0.411900 0.285400 0.791670
C41 C 0.203100 0.256170 0.726910
C42 C 0.209500 0.267890 0.618260
N43 N -0.007000 0.216490 0.754900
N44 N -0.003800 0.243590 0.563000
N45 N 1.007000 0.783510 0.245100
N46 N 1.271000 0.754270 0.845350
N47 N 1.003800 0.756410 0.437000
N48 N -0.271000 0.245730 0.154650
O49 O 1.119400 0.711300 0.896900
O50 O 1.484200 0.799800 0.878070
O51 O 0.607510 0.704040 0.414440
O52 O 0.392490 0.295960 0.585560
O53 O -0.119400 0.288700 0.103100
O54 O -0.484200 0.200200 0.121930

#END
