./KAHSIX_from_POSCAR.cif_generated_by_CrystalShift
_symmetry_cell_setting triclinic
_symmetry_space_group_name_H-M 'P 1'
loop_
_symmetry_equiv_pos_site_id
_symmetry_equiv_pos_as_xyz
1 x,y,z
_cell_length_a 4.176000
_cell_length_b 11.296000
_cell_length_c 12.070000
_cell_angle_alpha 116.929000
_cell_angle_beta 90.478000
_cell_angle_gamma 95.767000
_cell_volume 504.129067
loop_
_atom_site_label
_atom_site_type_symbol
_atom_site_fract_x
_atom_site_fract_y
_atom_site_fract_z
H1 H 0.133500 0.420000 0.770400
H2 H 0.352300 1.169800 0.857600
H3 H 0.574400 0.799200 0.502100
H4 H 0.850600 0.885600 0.609700
H5 H 0.640700 1.078300 0.823900
H6 H 0.937700 0.155900 0.039100
H7 H 0.792200 0.560200 0.589300
H8 H 0.062300 0.844100 0.960900
H9 H 0.207800 0.439800 0.410700
H10 H 0.866500 0.580000 0.229600
H11 H 0.162700 0.431500 0.907300
H12 H 0.837300 0.568500 0.092700
H13 H 0.149400 0.114400 0.390300
H14 H 0.425600 0.200800 0.497900
H15 H 0.526300 0.529900 0.151500
H16 H 0.336900 1.037900 0.727000
H17 H 0.473700 0.470100 0.848500
H18 H 0.359300 -0.078300 0.176100
H19 H 0.663100 -0.037900 0.273000
H20 H 0.647700 -0.169800 0.142400
C21 C 0.593000 -0.077800 0.184600
C22 C 0.240000 0.471400 0.853900
C23 C 0.407000 1.077800 0.815400
C24 C 0.006200 0.162400 0.562700
C25 C 0.192800 0.190200 0.474700
C26 C 0.105100 0.316200 0.474200
C27 C 0.446100 0.299300 0.300000
C28 C 0.553900 0.700700 0.700000
C29 C 0.993800 0.837600 0.437300
C30 C 0.314800 0.875400 0.830400
C31 C 0.192900 0.806300 0.892100
C32 C 0.685200 0.124600 0.169600
C33 C 0.273600 0.678100 0.847000
C34 C 0.807200 0.809800 0.525300
C35 C 0.726400 0.321900 0.153000
C36 C 0.894900 0.683800 0.525800
C37 C 0.807100 0.193700 0.107900
C38 C 0.760000 0.528600 0.146100
N39 N 0.505300 0.175230 0.266910
N40 N 0.494700 0.824770 0.733090
N41 N 1.141500 0.861400 0.369900
N42 N 0.453500 0.622700 0.751180
N43 N -0.141500 0.138600 0.630100
N44 N 0.247600 0.359400 0.397120
N45 N 0.752400 0.640600 0.602880
N46 N 0.546500 0.377300 0.248820
O47 O 0.166600 0.607180 0.905700
O48 O 0.833400 0.392820 0.094300
O49 O 0.752700 -0.001010 0.129400
O50 O -0.088300 0.380880 0.546000
O51 O 1.088300 0.619120 0.454000
O52 O 0.247300 1.001010 0.870600

#END
