./KAHTAO_from_POSCAR.cif_generated_by_CrystalShift
_symmetry_cell_setting triclinic
_symmetry_space_group_name_H-M 'P 1'
loop_
_symmetry_equiv_pos_site_id
_symmetry_equiv_pos_as_xyz
1 x,y,z
_cell_length_a 9.308000
_cell_length_b 8.356000
_cell_length_c 26.378000
_cell_angle_alpha 90.000000
_cell_angle_beta 93.670000
_cell_angle_gamma 90.000000
_cell_volume 2047.411484
loop_
_atom_site_label
_atom_site_type_symbol
_atom_site_fract_x
_atom_site_fract_y
_atom_site_fract_z
H1 H 1.377900 0.010500 0.573700
H2 H 1.284000 -0.101600 0.537300
H3 H 1.179400 0.138600 0.501200
H4 H 1.252000 0.228300 0.548300
H5 H 1.042100 0.001300 0.551800
H6 H 1.116200 0.087200 0.599400
H7 H 0.947000 0.266200 0.526700
H8 H 0.624100 0.530600 0.698600
H9 H 0.501600 0.662200 0.628600
H10 H 0.470500 0.504500 0.553300
H11 H 0.455800 0.391600 0.600100
H12 H 0.629600 0.246700 0.572800
H13 H 0.658300 0.373000 0.530600
H14 H 1.556000 1.080700 0.684300
H15 H 1.549100 1.070900 0.743500
H16 H 1.520300 1.234100 0.715300
H17 H 1.320000 1.136100 0.734400
H18 H 1.330300 1.129300 0.675300
H19 H 1.349100 0.867600 0.740300
H20 H 1.375200 0.856100 0.682300
H21 H 1.100500 0.947500 0.715000
H22 H 0.840900 0.585300 0.544400
H23 H 0.644300 0.720400 0.557300
H24 H 0.635500 0.899400 0.626400
H25 H 0.763500 0.922500 0.591200
H26 H 0.787500 0.779400 0.687700
H27 H 0.853800 0.945300 0.674200
H28 H 0.122100 -0.489500 0.926300
H29 H 0.353800 0.554700 0.174200
H30 H 0.287500 0.720600 0.187700
H31 H 0.263500 0.577500 0.091200
H32 H 0.135500 0.600600 0.126400
H33 H 0.144300 0.779600 0.057300
H34 H 0.340900 0.914700 0.044400
H35 H 0.600500 0.552500 0.215000
H36 H 0.875200 0.643900 0.182300
H37 H 0.849100 0.632400 0.240300
H38 H 0.830300 0.370700 0.175300
H39 H 0.820000 0.363900 0.234400
H40 H 1.020300 0.265900 0.215300
H41 H 1.049100 0.429100 0.243500
H42 H 1.056000 0.419300 0.184300
H43 H 0.158300 1.127000 0.030600
H44 H 0.129600 1.253300 0.072800
H45 H -0.044200 1.108400 0.100100
H46 H -0.029500 0.995500 0.053300
H47 H 0.001600 0.837800 0.128600
H48 H 0.124100 0.969400 0.198600
H49 H 0.447000 1.233800 0.026700
H50 H 0.616200 1.412800 0.099400
H51 H 0.542100 1.498700 0.051800
H52 H 0.752000 1.271700 0.048300
H53 H 0.679400 1.361400 0.001200
H54 H 0.784000 1.601600 0.037300
H55 H 0.892800 1.481600 0.014900
H56 H 0.877900 1.489500 0.073700
H57 H 0.107200 -0.481600 0.985100
H58 H 0.216000 -0.601600 0.962700
H59 H 0.320600 -0.361400 0.998800
H60 H 0.248000 -0.271700 0.951700
H61 H 0.457900 -0.498700 0.948200
H62 H 0.383800 -0.412800 0.900600
H63 H 0.553000 -0.233800 0.973300
H64 H 0.875900 0.030600 0.801400
H65 H 0.998400 0.162200 0.871400
H66 H 1.029500 0.004500 0.946700
H67 H 1.044200 -0.108400 0.899900
H68 H 0.870400 -0.253300 0.927200
H69 H 0.841700 -0.127000 0.969400
H70 H -0.056000 0.580700 0.815700
H71 H -0.049100 0.570900 0.756500
H72 H -0.020300 0.734100 0.784700
H73 H 0.180000 0.636100 0.765600
H74 H 0.169700 0.629300 0.824700
H75 H 0.150900 0.367600 0.759700
H76 H 0.124800 0.356100 0.817700
H77 H 0.399500 0.447500 0.785000
H78 H 0.659100 0.085300 0.955600
H79 H 0.855700 0.220400 0.942700
H80 H 0.864500 0.399400 0.873600
H81 H 0.736500 0.422500 0.908800
H82 H 0.712500 0.279400 0.812300
H83 H 0.646200 0.445300 0.825800
H84 H -0.377900 0.989500 0.426300
H85 H 0.146200 0.054700 0.325800
H86 H 0.212500 0.220600 0.312300
H87 H 0.236500 0.077500 0.408800
H88 H 0.364500 0.100600 0.373600
H89 H 0.355700 0.279600 0.442700
H90 H 0.159100 0.414700 0.455600
H91 H -0.100500 0.052500 0.285000
H92 H -0.375200 0.143900 0.317700
H93 H -0.349100 0.132400 0.259700
H94 H -0.330300 -0.129300 0.324700
H95 H -0.320000 -0.136100 0.265600
H96 H -0.520300 -0.234100 0.284700
H97 H -0.549100 -0.070900 0.256500
H98 H -0.556000 -0.080700 0.315700
H99 H 0.341700 0.627000 0.469400
H100 H 0.370400 0.753300 0.427200
H101 H 0.544200 0.608400 0.399900
H102 H 0.529500 0.495500 0.446700
H103 H 0.498400 0.337800 0.371400
H104 H 0.375900 0.469400 0.301400
H105 H 0.053000 0.733800 0.473300
H106 H -0.116200 0.912800 0.400600
H107 H -0.042100 0.998700 0.448200
H108 H -0.252000 0.771700 0.451700
H109 H -0.179400 0.861400 0.498800
H110 H -0.284000 1.101600 0.462700
H111 H -0.392800 0.981600 0.485100
H112 H 1.392800 0.018400 0.514900
C113 C 0.604800 0.880600 0.094100
C114 C 0.395200 0.119400 0.905900
C115 C 0.609100 0.710700 0.159900
C116 C 0.390900 0.289300 0.840100
C117 C 0.539900 0.258100 0.855100
C118 C 0.670900 0.340400 0.838500
C119 C 0.776900 0.353400 0.884300
C120 C 0.812800 0.190900 0.910000
C121 C 0.678200 0.084800 0.920300
C122 C 0.544900 0.149400 0.893000
C123 C 0.334400 0.387700 0.804500
C124 C 0.176400 0.411500 0.792700
C125 C 0.133800 0.584800 0.792800
C126 C -0.008200 0.620200 0.787000
C127 C 0.460100 0.741900 0.144900
C128 C 0.646100 -0.190400 0.818900
C129 C 0.329100 0.659600 0.161500
C130 C 0.594700 -0.209000 0.902900
C131 C 0.714000 -0.089000 0.903300
C132 C 0.852600 -0.142200 0.933700
C133 C 0.979500 -0.041500 0.917300
C134 C 0.923000 0.093000 0.881500
C135 C 0.849300 0.013600 0.835600
C136 C 0.743700 -0.082100 0.847700
C137 C 0.527200 -0.273200 0.939700
C138 C 0.414800 -0.400700 0.935800
C139 C 0.289600 -0.371000 0.963600
C140 C 0.173100 -0.497500 0.959000
C141 C -0.210400 0.871000 0.463600
C142 C -0.085200 0.900700 0.435800
C143 C 0.027200 0.773200 0.439700
C144 C 0.243700 0.582100 0.347700
C145 C 0.349300 0.486400 0.335600
C146 C 0.423000 0.407000 0.381500
C147 C 0.479500 0.541500 0.417300
C148 C 0.352600 0.642200 0.433700
C149 C 0.214000 0.589000 0.403300
C150 C 0.094700 0.709000 0.402900
C151 C 0.223100 0.646600 0.115700
C152 C 0.146100 0.690400 0.318900
C153 C 0.187200 0.809100 0.090000
C154 C -0.508200 -0.120200 0.287000
C155 C -0.366200 -0.084800 0.292800
C156 C -0.323600 0.088500 0.292700
C157 C -0.165600 0.112300 0.304500
C158 C 0.044900 0.350600 0.393000
C159 C 0.178200 0.415200 0.420300
C160 C 0.312800 0.309100 0.410000
C161 C 0.276900 0.146600 0.384300
C162 C 0.170900 0.159600 0.338500
C163 C 0.039900 0.241900 0.355100
C164 C -0.109100 0.210700 0.340100
C165 C 0.321800 0.915200 0.079700
C166 C -0.104800 0.380600 0.405900
C167 C 0.455100 0.850600 0.107000
C168 C 0.826900 1.497500 0.041000
C169 C 0.665600 0.612300 0.195500
C170 C 1.104800 0.619400 0.594100
C171 C 0.823600 0.588500 0.207300
C172 C 1.109100 0.789300 0.659900
C173 C 0.960100 0.758100 0.644900
C174 C 0.829100 0.840400 0.661500
C175 C 0.723100 0.853400 0.615700
C176 C 0.687200 0.690900 0.590000
C177 C 0.821800 0.584800 0.579700
C178 C 0.955100 0.649400 0.607000
C179 C 1.165600 0.887700 0.695500
C180 C 1.323600 0.911500 0.707300
C181 C 1.366200 1.084800 0.707200
C182 C 1.508200 1.120200 0.713000
C183 C 0.866200 0.415200 0.207200
C184 C 0.853900 0.309600 0.681100
C185 C 1.008200 0.379800 0.213000
C186 C 0.905300 0.291000 0.597100
C187 C 0.786000 0.411000 0.596700
C188 C 0.647400 0.357800 0.566300
C189 C 0.520500 0.458500 0.582700
C190 C 0.577000 0.593000 0.618500
C191 C 0.650700 0.513600 0.664400
C192 C 0.756300 0.417900 0.652300
C193 C 0.972800 0.226800 0.560300
C194 C 1.085200 0.099300 0.564200
C195 C 1.210400 0.129000 0.536400
C196 C 1.326900 0.002500 0.541000
C197 C 0.710400 1.371000 0.036400
C198 C 0.585200 1.400700 0.064200
C199 C 0.472800 1.273200 0.060300
C200 C 0.256300 1.082100 0.152300
C201 C 0.150700 0.986400 0.164400
C202 C 0.077000 0.907000 0.118500
C203 C 0.020500 1.041500 0.082700
C204 C 0.147400 1.142200 0.066300
C205 C 0.286000 1.089000 0.096700
C206 C 0.405300 1.209000 0.097100
C207 C 0.353900 1.190400 0.181100
C208 C -0.326900 0.997500 0.459000
O209 O 0.364300 1.227700 0.225200
O210 O 0.942400 0.240900 0.647700
O211 O 0.864300 0.272300 0.725200
O212 O 1.194100 0.699800 0.628900
O213 O 1.152800 0.547500 0.559300
O214 O -0.152800 0.452500 0.440700
O215 O -0.194100 0.300200 0.371100
O216 O 0.135700 0.727700 0.274800
O217 O 0.057600 0.759100 0.352300
O218 O 0.557600 -0.259100 0.852300
O219 O 0.635700 -0.227700 0.774800
O220 O 0.305900 0.199800 0.871100
O221 O 0.694100 0.800200 0.128900
O222 O 0.347200 0.047500 0.940700
O223 O 0.442400 1.259100 0.147700
O224 O 0.652800 0.952500 0.059300

#END
