
#######################################################################
#
#                 Cambridge Crystallographic Data Centre
#                                CCDC 
#
#######################################################################
#
# If this CIF has been generated from an entry in the Cambridge 
# Structural Database, then it will include bibliographic, chemical, 
# crystal, experimental, refinement or atomic coordinate data resulting 
# from the CCDC's data processing and validation procedures.
#
#######################################################################

data_LAFHEH
_symmetry_cell_setting           triclinic
_symmetry_space_group_name_H-M   'P 1'
_symmetry_Int_Tables_number      1
_space_group_name_Hall           'P 1'
loop_
_symmetry_equiv_pos_site_id
_symmetry_equiv_pos_as_xyz
1 x,y,z
_cell_length_a                   5.1780(4)
_cell_length_b                   12.2346(10)
_cell_length_c                   12.4865(10)
_cell_angle_alpha                105.2135(15)
_cell_angle_beta                 99.6982(16)
_cell_angle_gamma                90.5036(17)
_cell_volume                     751.23
loop_
_atom_site_label
_atom_site_type_symbol
_atom_site_fract_x
_atom_site_fract_y
_atom_site_fract_z
O1 O 0.2156(4) 0.41224(19) 0.90583(18)
N1 N 0.7054(5) 0.2810(2) 0.46525(19)
C1 C 0.7145(5) 0.2182(2) 0.5351(2)
C2 C 0.8452(6) 0.1135(2) 0.5339(2)
H1 H 0.8081 0.0762 0.5878
C3 C 1.0118(6) 0.0617(2) 0.4671(2)
H2 H 1.0813 -0.0046 0.4839
C4 C 1.2864(6) 0.0218(3) 0.3236(3)
H3 H 1.3514 -0.0376 0.3550
C5 C 1.3814(6) 0.0359(3) 0.2285(3)
H4 H 1.5089 -0.0120 0.1975
C6 C 1.3260(6) 0.1612(3) 0.0862(3)
H5 H 1.4405 0.1304 0.0353
C7 C 1.1731(6) 0.2512(3) 0.0811(3)
H6 H 1.1638 0.2923 0.0258
C8 C 0.8469(6) 0.3498(3) 0.2116(3)
H7 H 0.7899 0.4050 0.1729
C9 C 0.7485(6) 0.3446(2) 0.3081(2)
H8 H 0.6260 0.3983 0.3338
C10 C 0.8199(5) 0.2647(2) 0.3692(2)
C11 C 1.0045(5) 0.1822(2) 0.3290(2)
C12 C 1.1016(6) 0.0903(2) 0.3746(2)
C13 C 1.2854(6) 0.1203(3) 0.1817(3)
C14 C 1.0991(6) 0.1914(2) 0.2342(2)
C15 C 1.0277(6) 0.2738(2) 0.1736(2)
C16 C 0.5739(5) 0.2638(2) 0.6311(2)
C17 C 0.3741(5) 0.3377(2) 0.6194(2)
H9 H 0.3228 0.3539 0.5487
C18 C 0.2474(6) 0.3886(2) 0.7085(2)
H10 H 0.1124 0.4390 0.6987
C19 C 0.3208(6) 0.3647(2) 0.8119(2)
C20 C 0.5152(6) 0.2883(3) 0.8248(3)
H11 H 0.5627 0.2704 0.8949
C21 C 0.6384(6) 0.2387(3) 0.7351(2)
H12 H 0.7695 0.1865 0.7445
C22 C 0.0313(7) 0.4981(3) 0.8987(3)
H13 H -0.0289 0.5251 0.9710
H14 H -0.1192 0.4663 0.8391
H15 H 0.1162 0.5617 0.8813
O2 O 0.8156(5) 0.6873(2) 0.10089(19)
N2 N 0.2923(5) 0.8001(2) 0.5340(2)
C23 C 0.4314(6) 0.6920(2) 0.3702(2)
C24 C 0.2844(6) 0.6984(2) 0.4652(2)
C25 C 0.6267(6) 0.7753(2) 0.3818(2)
H16 H 0.6692 0.8326 0.4510
C26 C 0.1515(6) 0.5948(3) 0.4670(3)
H17 H 0.1868 0.5285 0.4131
C27 C 0.7616(6) 0.7766(3) 0.2944(3)
H18 H 0.8937 0.8345 0.3039
C28 C -0.0154(6) 0.5784(3) 0.5341(3)
H19 H -0.0831 0.5024 0.5186
C29 C 0.7007(6) 0.6922(3) 0.1928(3)
C30 C -0.2907(6) 0.6151(3) 0.6772(3)
H20 H -0.3517 0.5378 0.6482
C31 C 0.5091(6) 0.6066(3) 0.1810(3)
H21 H 0.4695 0.5480 0.1125
C32 C -0.3901(6) 0.6813(3) 0.7704(3)
H22 H -0.5180 0.6496 0.8016
C33 C 0.3775(6) 0.6069(3) 0.2680(3)
H23 H 0.2476 0.5482 0.2588
C34 C -0.3460(6) 0.8845(3) 0.9085(3)
H24 H -0.4642 0.8811 0.9582
C35 C 1.0039(7) 0.7775(3) 0.1096(3)
H25 H 1.0719 0.7646 0.0389
H26 H 1.1490 0.7795 0.1718
H27 H 0.9194 0.8500 0.1241
C36 C -0.1903(6) 0.9781(3) 0.9129(3)
H28 H -0.1822 1.0494 0.9673
C37 C 0.1413(6) 1.0071(3) 0.7835(3)
H29 H 0.1971 1.0838 0.8212
C38 C 0.2433(6) 0.9496(3) 0.6883(2)
H30 H 0.3662 0.9899 0.6623
C39 C 0.1743(5) 0.8356(3) 0.6289(2)
C40 C -0.0122(6) 0.7743(3) 0.6691(3)
C41 C -0.1076(6) 0.6566(3) 0.6250(3)
C42 C -0.2987(6) 0.7918(3) 0.8149(3)
C43 C -0.1105(6) 0.8354(3) 0.7623(3)
C44 C -0.0409(6) 0.9511(3) 0.8218(3)

#END
