
#######################################################################
#
#                 Cambridge Crystallographic Data Centre
#                                CCDC 
#
#######################################################################
#
# If this CIF has been generated from an entry in the Cambridge 
# Structural Database, then it will include bibliographic, chemical, 
# crystal, experimental, refinement or atomic coordinate data resulting 
# from the CCDC's data processing and validation procedures.
#
#######################################################################

data_LAFHEI
_symmetry_cell_setting           triclinic
_symmetry_space_group_name_H-M   'P -1'
_symmetry_Int_Tables_number      2
_space_group_name_Hall           '-P 1'
loop_
_symmetry_equiv_pos_site_id
_symmetry_equiv_pos_as_xyz
1 x,y,z
2 -x,-y,-z
_cell_length_a                   9.762(11)
_cell_length_b                   9.773(11)
_cell_length_c                   10.371(11)
_cell_angle_alpha                66.713(10)
_cell_angle_beta                 72.735(10)
_cell_angle_gamma                60.089(9)
_cell_volume                     781.581
loop_
_atom_site_label
_atom_site_type_symbol
_atom_site_fract_x
_atom_site_fract_y
_atom_site_fract_z
O1 O 0.2822(5) 0.3216(6) 0.1292(5)
C1 C 0.2770(6) 0.4963(7) 0.2389(6)
N1 N 0.5209(5) 0.2760(6) 0.1574(5)
C2 C 0.3609(7) 0.3611(7) 0.1709(6)
O2 O 0.0170(6) 0.8570(6) 0.4459(6)
C3 C 0.0918(7) 0.7414(7) 0.3754(7)
C4 C 0.6045(7) -0.0200(7) 0.1817(6)
C5 C 0.6096(7) 0.1425(7) 0.0880(7)
H1 H 0.5706 0.1779 -0.0021
C6 C 0.0202(7) 0.6676(8) 0.3455(7)
H2 H -0.0885 0.6982 0.3709
C7 C 0.3434(7) 0.5787(7) 0.2639(7)
H3 H 0.4512 0.5519 0.2354
C8 C 0.1128(7) 0.5474(7) 0.2771(7)
H4 H 0.0642 0.4990 0.2559
N2 N 0.6262(6) 0.3067(7) 0.1982(7)
C9 C 0.6629(7) -0.1452(7) 0.1192(6)
C10 C 0.2528(7) 0.6991(8) 0.3301(7)
H5 H 0.2998 0.7533 0.3450
C11 C 0.6728(8) -0.3010(8) 0.1999(7)
H6 H 0.7117 -0.3834 0.1573
C12 C 0.5514(7) -0.0548(8) 0.3259(6)
H7 H 0.5075 0.0284 0.3685
C13 C 0.6249(8) -0.3332(8) 0.3431(7)
H8 H 0.6346 -0.4387 0.3974
C14 C 0.7674(8) 0.2252(8) 0.1486(8)
C15 C 0.7797(7) 0.1269(8) 0.0623(7)
H9 H 0.8560 0.0123 0.0945
H10 H 0.8105 0.1730 -0.0371
C16 C 0.5624(9) -0.2108(9) 0.4075(7)
H11 H 0.5282 -0.2328 0.5041
C17 C -0.1445(9) 0.8995(10) 0.5041(9)
H12 H -0.1803 0.9819 0.5501
H13 H -0.1546 0.8029 0.5718
H14 H -0.2081 0.9425 0.4300
C18 C 0.9044(8) 0.2387(11) 0.1697(11)
H15 H 0.8673 0.3074 0.2296
H16 H 0.9522 0.2867 0.0798
H17 H 0.9819 0.1305 0.2134
O3 O 0.7107(5) -0.1051(6) -0.0240(5)
H18 H 0.7131 -0.1709 -0.0559
O1 O 0.7178(5) 0.6784(6) 0.8708(5)
C1 C 0.7230(6) 0.5037(7) 0.7611(6)
N1 N 0.4791(5) 0.7240(6) 0.8426(5)
C2 C 0.6391(7) 0.6389(7) 0.8291(6)
O2 O 0.9830(6) 0.1430(6) 0.5541(6)
C3 C 0.9082(7) 0.2586(7) 0.6246(7)
C4 C 0.3955(7) 1.0200(7) 0.8183(6)
C5 C 0.3904(7) 0.8575(7) 0.9120(7)
H1 H 0.4294 0.8221 1.0021
C6 C 0.9798(7) 0.3324(8) 0.6545(7)
H2 H 1.0885 0.3018 0.6291
C7 C 0.6566(7) 0.4213(7) 0.7361(7)
H3 H 0.5488 0.4481 0.7646
C8 C 0.8872(7) 0.4526(7) 0.7229(7)
H4 H 0.9358 0.5010 0.7441
N2 N 0.3738(6) 0.6933(7) 0.8018(7)
C9 C 0.3371(7) 1.1452(7) 0.8808(6)
C10 C 0.7472(7) 0.3009(8) 0.6699(7)
H5 H 0.7002 0.2467 0.6550
C11 C 0.3272(8) 1.3010(8) 0.8001(7)
H6 H 0.2883 1.3834 0.8427
C12 C 0.4486(7) 1.0548(8) 0.6741(6)
H7 H 0.4925 0.9716 0.6315
C13 C 0.3751(8) 1.3332(8) 0.6569(7)
H8 H 0.3654 1.4387 0.6026
C14 C 0.2326(8) 0.7748(8) 0.8514(8)
C15 C 0.2203(7) 0.8731(8) 0.9377(7)
H9 H 0.1440 0.9877 0.9055
H10 H 0.1895 0.8270 1.0371
C16 C 0.4376(9) 1.2108(9) 0.5925(7)
H11 H 0.4718 1.2328 0.4959
C17 C 1.1445(9) 0.1005(10) 0.4959(9)
H12 H 1.1803 0.0181 0.4499
H13 H 1.1546 0.1971 0.4282
H14 H 1.2081 0.0575 0.5700
C18 C 0.0956(8) 0.7613(11) 0.8303(11)
H15 H 0.1327 0.6926 0.7704
H16 H 0.0478 0.7133 0.9202
H17 H 0.0181 0.8695 0.7866
O3 O 0.2893(5) 1.1051(6) 1.0240(5)
H18 H 0.2869 1.1709 1.0559

#END
