./LAFHEI_from_xyz.cif_generated_by_CrystalShift
_symmetry_cell_setting triclinic
_symmetry_space_group_name_H-M 'P 1'
loop_
_symmetry_equiv_pos_site_id
_symmetry_equiv_pos_as_xyz
1 x,y,z
_cell_length_a 9.762000
_cell_length_b 9.773000
_cell_length_c 10.371000
_cell_angle_alpha 66.713000
_cell_angle_beta 72.735000
_cell_angle_gamma 60.089000
_cell_volume 781.581205
loop_
_atom_site_label
_atom_site_type_symbol
_atom_site_fract_x
_atom_site_fract_y
_atom_site_fract_z
O1 O 0.282200 0.321600 0.129200
C2 C 0.277000 0.496300 0.238900
N3 N 0.520900 0.276000 0.157400
C4 C 0.360900 0.361100 0.170900
O5 O 0.017000 0.857000 0.445900
C6 C 0.091800 0.741400 0.375400
C7 C 0.604500 -0.020000 0.181700
C8 C 0.609600 0.142500 0.088000
H9 H 0.570600 0.177900 -0.002100
C10 C 0.020200 0.667600 0.345500
H11 H -0.088500 0.698200 0.370900
C12 C 0.343400 0.578700 0.263900
H13 H 0.451200 0.551900 0.235400
C14 C 0.112800 0.547400 0.277100
H15 H 0.064200 0.499000 0.255900
N16 N 0.626200 0.306700 0.198200
C17 C 0.662900 -0.145200 0.119200
C18 C 0.252800 0.699100 0.330100
H19 H 0.299800 0.753300 0.345000
C20 C 0.672800 -0.301000 0.199900
H21 H 0.711700 -0.383400 0.157300
C22 C 0.551400 -0.054800 0.325900
H23 H 0.507500 0.028400 0.368500
C24 C 0.624900 -0.333200 0.343100
H25 H 0.634600 -0.438700 0.397400
C26 C 0.767400 0.225200 0.148600
C27 C 0.779700 0.126900 0.062300
H28 H 0.856000 0.012300 0.094500
H29 H 0.810500 0.173000 -0.037100
C30 C 0.562400 -0.210800 0.407500
H31 H 0.528200 -0.232800 0.504100
C32 C -0.144500 0.899500 0.504100
H33 H -0.180300 0.981900 0.550100
H34 H -0.154600 0.802900 0.571800
H35 H -0.208100 0.942500 0.430000
C36 C 0.904400 0.238700 0.169700
H37 H 0.867300 0.307400 0.229600
H38 H 0.952200 0.286700 0.079800
H39 H 0.981900 0.130500 0.213400
O40 O 0.710700 -0.105100 -0.024000
H41 H 0.713100 -0.170900 -0.055900
O42 O 0.717800 0.678400 0.870800
C43 C 0.723000 0.503700 0.761100
N44 N 0.479100 0.724000 0.842600
C45 C 0.639100 0.638900 0.829100
O46 O 0.983000 0.143000 0.554100
C47 C 0.908200 0.258600 0.624600
C48 C 0.395500 1.020000 0.818300
C49 C 0.390400 0.857500 0.912000
H50 H 0.429400 0.822100 1.002100
C51 C 0.979800 0.332400 0.654500
H52 H 1.088500 0.301800 0.629100
C53 C 0.656600 0.421300 0.736100
H54 H 0.548800 0.448100 0.764600
C55 C 0.887200 0.452600 0.722900
H56 H 0.935800 0.501000 0.744100
N57 N 0.373800 0.693300 0.801800
C58 C 0.337100 1.145200 0.880800
C59 C 0.747200 0.300900 0.669900
H60 H 0.700200 0.246700 0.655000
C61 C 0.327200 1.301000 0.800100
H62 H 0.288300 1.383400 0.842700
C63 C 0.448600 1.054800 0.674100
H64 H 0.492500 0.971600 0.631500
C65 C 0.375100 1.333200 0.656900
H66 H 0.365400 1.438700 0.602600
C67 C 0.232600 0.774800 0.851400
C68 C 0.220300 0.873100 0.937700
H69 H 0.144000 0.987700 0.905500
H70 H 0.189500 0.827000 1.037100
C71 C 0.437600 1.210800 0.592500
H72 H 0.471800 1.232800 0.495900
C73 C 1.144500 0.100500 0.495900
H74 H 1.180300 0.018100 0.449900
H75 H 1.154600 0.197100 0.428200
H76 H 1.208100 0.057500 0.570000
C77 C 0.095600 0.761300 0.830300
H78 H 0.132700 0.692600 0.770400
H79 H 0.047800 0.713300 0.920200
H80 H 0.018100 0.869500 0.786600
O81 O 0.289300 1.105100 1.024000
H82 H 0.286900 1.170900 1.055900

#END
