./LAFHEH_from_xyz.cif_generated_by_CrystalShift
_symmetry_cell_setting triclinic
_symmetry_space_group_name_H-M 'P 1'
loop_
_symmetry_equiv_pos_site_id
_symmetry_equiv_pos_as_xyz
1 x,y,z
_cell_length_a 5.178000
_cell_length_b 12.234600
_cell_length_c 12.486500
_cell_angle_alpha 105.213500
_cell_angle_beta 99.698200
_cell_angle_gamma 90.503600
_cell_volume 751.229993
loop_
_atom_site_label
_atom_site_type_symbol
_atom_site_fract_x
_atom_site_fract_y
_atom_site_fract_z
O1 O 0.215600 0.412240 0.905830
N2 N 0.705400 0.281000 0.465250
C3 C 0.714500 0.218200 0.535100
C4 C 0.845200 0.113500 0.533900
H5 H 0.808100 0.076200 0.587800
C6 C 1.011800 0.061700 0.467100
H7 H 1.081300 -0.004600 0.483900
C8 C 1.286400 0.021800 0.323600
H9 H 1.351400 -0.037600 0.355000
C10 C 1.381400 0.035900 0.228500
H11 H 1.508900 -0.012000 0.197500
C12 C 1.326000 0.161200 0.086200
H13 H 1.440500 0.130400 0.035300
C14 C 1.173100 0.251200 0.081100
H15 H 1.163800 0.292300 0.025800
C16 C 0.846900 0.349800 0.211600
H17 H 0.789900 0.405000 0.172900
C18 C 0.748500 0.344600 0.308100
H19 H 0.626000 0.398300 0.333800
C20 C 0.819900 0.264700 0.369200
C21 C 1.004500 0.182200 0.329000
C22 C 1.101600 0.090300 0.374600
C23 C 1.285400 0.120300 0.181700
C24 C 1.099100 0.191400 0.234200
C25 C 1.027700 0.273800 0.173600
C26 C 0.573900 0.263800 0.631100
C27 C 0.374100 0.337700 0.619400
H28 H 0.322800 0.353900 0.548700
C29 C 0.247400 0.388600 0.708500
H30 H 0.112400 0.439000 0.698700
C31 C 0.320800 0.364700 0.811900
C32 C 0.515200 0.288300 0.824800
H33 H 0.562700 0.270400 0.894900
C34 C 0.638400 0.238700 0.735100
H35 H 0.769500 0.186500 0.744500
C36 C 0.031300 0.498100 0.898700
H37 H -0.028900 0.525100 0.971000
H38 H -0.119200 0.466300 0.839100
H39 H 0.116200 0.561700 0.881300
O40 O 0.815600 0.687300 0.100890
N41 N 0.292300 0.800100 0.534000
C42 C 0.431400 0.692000 0.370200
C43 C 0.284400 0.698400 0.465200
C44 C 0.626700 0.775300 0.381800
H45 H 0.669200 0.832600 0.451000
C46 C 0.151500 0.594800 0.467000
H47 H 0.186800 0.528500 0.413100
C48 C 0.761600 0.776600 0.294400
H49 H 0.893700 0.834500 0.303900
C50 C -0.015400 0.578400 0.534100
H51 H -0.083100 0.502400 0.518600
C52 C 0.700700 0.692200 0.192800
C53 C -0.290700 0.615100 0.677200
H54 H -0.351700 0.537800 0.648200
C55 C 0.509100 0.606600 0.181000
H56 H 0.469500 0.548000 0.112500
C57 C -0.390100 0.681300 0.770400
H58 H -0.518000 0.649600 0.801600
C59 C 0.377500 0.606900 0.268000
H60 H 0.247600 0.548200 0.258800
C61 C -0.346000 0.884500 0.908500
H62 H -0.464200 0.881100 0.958200
C63 C 1.003900 0.777500 0.109600
H64 H 1.071900 0.764600 0.038900
H65 H 1.149000 0.779500 0.171800
H66 H 0.919400 0.850000 0.124100
C67 C -0.190300 0.978100 0.912900
H68 H -0.182200 1.049400 0.967300
C69 C 0.141300 1.007100 0.783500
H70 H 0.197100 1.083800 0.821200
C71 C 0.243300 0.949600 0.688300
H72 H 0.366200 0.989900 0.662300
C73 C 0.174300 0.835600 0.628900
C74 C -0.012200 0.774300 0.669100
C75 C -0.107600 0.656600 0.625000
C76 C -0.298700 0.791800 0.814900
C77 C -0.110500 0.835400 0.762300
C78 C -0.040900 0.951100 0.821800

#END
