./LAFJOR_from_xyz.cif_generated_by_CrystalShift
_symmetry_cell_setting triclinic
_symmetry_space_group_name_H-M 'P 1'
loop_
_symmetry_equiv_pos_site_id
_symmetry_equiv_pos_as_xyz
1 x,y,z
_cell_length_a 5.520000
_cell_length_b 32.570000
_cell_length_c 5.560000
_cell_angle_alpha 90.000000
_cell_angle_beta 90.000000
_cell_angle_gamma 90.000000
_cell_volume 999.612384
loop_
_atom_site_label
_atom_site_type_symbol
_atom_site_fract_x
_atom_site_fract_y
_atom_site_fract_z
C1 C 0.757000 0.986300 1.075000
C2 C 0.785000 0.954300 0.878000
C3 C 0.547000 0.944100 0.749000
C4 C 0.575000 0.907800 0.577000
C5 C 0.342000 0.896600 0.439000
C6 C 0.382000 0.859900 0.274000
C7 C 0.156000 0.847800 0.135000
C8 C 0.195000 0.810300 -0.027000
C9 C -0.033000 0.798700 -0.172000
C10 C 0.009000 0.761400 -0.335000
C11 C -0.224000 0.745000 -0.454000
C12 C -0.182000 0.712100 -0.637000
C13 C -0.402000 0.700200 -0.782000
C14 C 0.682000 1.028270 0.990000
C15 C 0.670000 1.062200 1.183000
C16 C 0.729000 1.101200 1.044000
C17 C 0.894000 1.084400 0.850000
C18 C 0.433000 1.063200 1.306000
C19 C 0.832000 1.137400 1.176000
O20 O 0.432000 1.087300 1.494000
O21 O 0.255000 1.045400 1.247000
O22 O 0.863100 1.044400 0.821400
O23 O 1.040000 1.103900 0.739000
H24 H 0.930000 0.988000 1.170000
H25 H 0.640000 0.978000 1.200000
H26 H 0.920000 0.964000 0.770000
H27 H 0.860000 0.925000 0.920000
H28 H 0.480000 0.975000 0.680000
H29 H 0.430000 0.940000 0.850000
H30 H 0.720000 0.916000 0.450000
H31 H 0.620000 0.882000 0.650000
H32 H 0.190000 0.893000 0.570000
H33 H 0.270000 0.923000 0.390000
H34 H 0.370000 0.841000 0.390000
H35 H 0.510000 0.860000 0.180000
H36 H 0.110000 0.868000 0.040000
H37 H 0.050000 0.848000 0.220000
H38 H 0.320000 0.811000 -0.130000
H39 H 0.280000 0.790000 0.060000
H40 H -0.110000 0.816000 -0.240000
H41 H -0.210000 0.800000 -0.030000
H42 H 0.180000 0.759000 -0.380000
H43 H 0.020000 0.742000 -0.210000
H44 H -0.290000 0.773000 -0.520000
H45 H -0.390000 0.755000 -0.380000
H46 H -0.110000 0.690000 -0.550000
H47 H 0.030000 0.715000 -0.730000
H48 H -0.500000 0.688000 -0.670000
H49 H -0.370000 0.673000 -0.880000
H50 H -0.470000 0.725000 -0.820000
H51 H 0.520000 1.027000 0.890000
H52 H 0.810000 1.056000 1.290000
H53 H 0.580000 1.108000 0.950000
H54 H 0.880000 1.161000 1.110000
H55 H 0.700000 1.143000 1.260000
H56 H 1.010000 1.128000 1.200000
C57 C 0.243000 0.486300 -0.075000
C58 C 0.215000 0.454300 0.122000
C59 C 0.453000 0.444100 0.251000
C60 C 0.425000 0.407800 0.423000
C61 C 0.658000 0.396600 0.561000
C62 C 0.618000 0.359900 0.726000
C63 C 0.844000 0.347800 0.865000
C64 C 0.805000 0.310300 1.027000
C65 C 1.033000 0.298700 1.172000
C66 C 0.991000 0.261400 1.335000
C67 C 1.224000 0.245000 1.454000
C68 C 1.182000 0.212100 1.637000
C69 C 1.402000 0.200200 1.782000
C70 C 0.318000 0.528270 0.010000
C71 C 0.330000 0.562200 -0.183000
C72 C 0.271000 0.601200 -0.044000
C73 C 0.106000 0.584400 0.150000
C74 C 0.567000 0.563200 -0.306000
C75 C 0.168000 0.637400 -0.176000
O76 O 0.568000 0.587300 -0.494000
O77 O 0.745000 0.545400 -0.247000
O78 O 0.136900 0.544400 0.178600
O79 O -0.040000 0.603900 0.261000
H80 H 0.070000 0.488000 -0.170000
H81 H 0.360000 0.478000 -0.200000
H82 H 0.080000 0.464000 0.230000
H83 H 0.140000 0.425000 0.080000
H84 H 0.520000 0.475000 0.320000
H85 H 0.570000 0.440000 0.150000
H86 H 0.280000 0.416000 0.550000
H87 H 0.380000 0.382000 0.350000
H88 H 0.810000 0.393000 0.430000
H89 H 0.730000 0.423000 0.610000
H90 H 0.630000 0.341000 0.610000
H91 H 0.490000 0.360000 0.820000
H92 H 0.890000 0.368000 0.960000
H93 H 0.950000 0.348000 0.780000
H94 H 0.680000 0.311000 1.130000
H95 H 0.720000 0.290000 0.940000
H96 H 1.110000 0.316000 1.240000
H97 H 1.210000 0.300000 1.030000
H98 H 0.820000 0.259000 1.380000
H99 H 0.980000 0.242000 1.210000
H100 H 1.290000 0.273000 1.520000
H101 H 1.390000 0.255000 1.380000
H102 H 1.110000 0.190000 1.550000
H103 H 0.970000 0.215000 1.730000
H104 H 1.500000 0.188000 1.670000
H105 H 1.370000 0.173000 1.880000
H106 H 1.470000 0.225000 1.820000
H107 H 0.480000 0.527000 0.110000
H108 H 0.190000 0.556000 -0.290000
H109 H 0.420000 0.608000 0.050000
H110 H 0.120000 0.661000 -0.110000
H111 H 0.300000 0.643000 -0.260000
H112 H -0.010000 0.628000 -0.200000

#END
