
#######################################################################
#
#                 Cambridge Crystallographic Data Centre
#                                CCDC 
#
#######################################################################
#
# If this CIF has been generated from an entry in the Cambridge 
# Structural Database, then it will include bibliographic, chemical, 
# crystal, experimental, refinement or atomic coordinate data resulting 
# from the CCDC's data processing and validation procedures.
#
#######################################################################

data_LAFJAD
_symmetry_cell_setting           monoclinic
_symmetry_space_group_name_H-M   'P 21/c'
_symmetry_Int_Tables_number      14
_space_group_name_Hall           '-P 2ybc'
loop_
_symmetry_equiv_pos_site_id
_symmetry_equiv_pos_as_xyz
1 x,y,z
2 -x,1/2+y,1/2-z
3 -x,-y,-z
4 x,1/2-y,1/2+z
_cell_length_a                   13.684(5)
_cell_length_b                   10.749(4)
_cell_length_c                   8.340(3)
_cell_angle_alpha                90
_cell_angle_beta                 95.66(3)
_cell_angle_gamma                90
_cell_volume                     1220.74
loop_
_atom_site_label
_atom_site_type_symbol
_atom_site_fract_x
_atom_site_fract_y
_atom_site_fract_z
O1 O 0.4952(1) 0.3170(1) 0.4097(1)
C1 C 0.4942(1) 0.4058(2) 0.2937(2)
O2 O 0.5629(1) 0.4154(1) 0.2106(2)
C2 C 0.4031(1) 0.4784(2) 0.2908(2)
C3 C 0.3417(1) 0.4327(2) 0.4197(2)
C4 C 0.2378(1) 0.3844(2) 0.3565(3)
C5 C 0.2509(2) 0.2463(2) 0.3555(3)
C6 C 0.3379(2) 0.2098(2) 0.4217(2)
C7 C 0.4006(1) 0.3164(2) 0.4822(2)
C8 C 0.3832(1) 0.5649(2) 0.1789(2)
O3 O 0.2992(1) 0.6351(1) 0.1757(1)
O4 O 0.2169(1) 0.5828(1) -0.0707(2)
C9 C 0.2644(1) 0.6823(2) 0.0212(2)
C10 C 0.1855(1) 0.7749(2) 0.0377(2)
C11 C 0.1006(1) 0.7342(2) -0.0326(2)
C12 C -0.0007(2) 0.7919(4) -0.0493(4)
C13 C 0.1187(2) 0.6111(2) -0.1019(3)
O5 O 0.0625(1) 0.5413(2) -0.1768(2)
H1 H -0.0471 0.7299 -0.0235
H2 H -0.0162 0.8189 -0.1585
H3 H -0.0037 0.8616 0.0220
H4 H 0.3399(13) 0.4948(13) 0.5033(16)
H5 H 0.2175(14) 0.4167(18) 0.2509(14)
H6 H 0.1921(13) 0.4099(18) 0.4322(20)
H7 H 0.2007(11) 0.1906(16) 0.3106(23)
H8 H 0.3621(13) 0.1256(10) 0.4311(22)
H9 H 0.4167(12) 0.3154(16) 0.5976(11)
H10 H 0.4238(10) 0.5820(15) 0.0940(15)
H11 H 0.3203(10) 0.7053(16) -0.0360(19)
H12 H 0.1967(13) 0.8520(12) 0.0938(20)
O1 O 0.5048(1) -0.1830(1) 0.0903(1)
C1 C 0.5058(1) -0.0942(2) 0.2063(2)
O2 O 0.4371(1) -0.0846(1) 0.2894(2)
C2 C 0.5969(1) -0.0216(2) 0.2092(2)
C3 C 0.6583(1) -0.0673(2) 0.0803(2)
C4 C 0.7622(1) -0.1156(2) 0.1435(3)
C5 C 0.7491(2) -0.2537(2) 0.1445(3)
C6 C 0.6621(2) -0.2902(2) 0.0783(2)
C7 C 0.5994(1) -0.1836(2) 0.0178(2)
C8 C 0.6168(1) 0.0649(2) 0.3211(2)
O3 O 0.7008(1) 0.1351(1) 0.3243(1)
O4 O 0.7831(1) 0.0828(1) 0.5707(2)
C9 C 0.7356(1) 0.1823(2) 0.4788(2)
C10 C 0.8145(1) 0.2749(2) 0.4623(2)
C11 C 0.8994(1) 0.2342(2) 0.5326(2)
C12 C 1.0007(2) 0.2919(4) 0.5493(4)
C13 C 0.8813(2) 0.1111(2) 0.6019(3)
O5 O 0.9375(1) 0.0413(2) 0.6768(2)
H1 H 1.0471 0.2299 0.5235
H2 H 1.0162 0.3189 0.6585
H3 H 1.0037 0.3616 0.4780
H4 H 0.6601(13) -0.0052(13) -0.0033(16)
H5 H 0.7825(14) -0.0833(18) 0.2491(14)
H6 H 0.8079(13) -0.0901(18) 0.0678(20)
H7 H 0.7993(11) -0.3094(16) 0.1894(23)
H8 H 0.6379(13) -0.3744(10) 0.0689(22)
H9 H 0.5833(12) -0.1846(16) -0.0976(11)
H10 H 0.5762(10) 0.0820(15) 0.4060(15)
H11 H 0.6797(10) 0.2053(16) 0.5360(19)
H12 H 0.8033(13) 0.3520(12) 0.4062(20)
O1 O 0.5048(1) 0.6830(1) 0.5903(1)
C1 C 0.5058(1) 0.5942(2) 0.7063(2)
O2 O 0.4371(1) 0.5846(1) 0.7894(2)
C2 C 0.5969(1) 0.5216(2) 0.7092(2)
C3 C 0.6583(1) 0.5673(2) 0.5803(2)
C4 C 0.7622(1) 0.6156(2) 0.6435(3)
C5 C 0.7491(2) 0.7537(2) 0.6445(3)
C6 C 0.6621(2) 0.7902(2) 0.5783(2)
C7 C 0.5994(1) 0.6836(2) 0.5178(2)
C8 C 0.6168(1) 0.4351(2) 0.8211(2)
O3 O 0.7008(1) 0.3649(1) 0.8243(1)
O4 O 0.7831(1) 0.4172(1) 1.0707(2)
C9 C 0.7356(1) 0.3177(2) 0.9788(2)
C10 C 0.8145(1) 0.2251(2) 0.9623(2)
C11 C 0.8994(1) 0.2658(2) 1.0326(2)
C12 C 1.0007(2) 0.2081(4) 1.0493(4)
C13 C 0.8813(2) 0.3889(2) 1.1019(3)
O5 O 0.9375(1) 0.4587(2) 1.1768(2)
H1 H 1.0471 0.2701 1.0235
H2 H 1.0162 0.1811 1.1585
H3 H 1.0037 0.1384 0.9780
H4 H 0.6601(13) 0.5052(13) 0.4967(16)
H5 H 0.7825(14) 0.5833(18) 0.7491(14)
H6 H 0.8079(13) 0.5901(18) 0.5678(20)
H7 H 0.7993(11) 0.8094(16) 0.6894(23)
H8 H 0.6379(13) 0.8744(10) 0.5689(22)
H9 H 0.5833(12) 0.6846(16) 0.4024(11)
H10 H 0.5762(10) 0.4180(15) 0.9060(15)
H11 H 0.6797(10) 0.2947(16) 1.0360(19)
H12 H 0.8033(13) 0.1480(12) 0.9062(20)
O1 O 0.4952(1) 1.1830(1) 0.9097(1)
C1 C 0.4942(1) 1.0942(2) 0.7937(2)
O2 O 0.5629(1) 1.0846(1) 0.7106(2)
C2 C 0.4031(1) 1.0216(2) 0.7908(2)
C3 C 0.3417(1) 1.0673(2) 0.9197(2)
C4 C 0.2378(1) 1.1156(2) 0.8565(3)
C5 C 0.2509(2) 1.2537(2) 0.8555(3)
C6 C 0.3379(2) 1.2902(2) 0.9217(2)
C7 C 0.4006(1) 1.1836(2) 0.9822(2)
C8 C 0.3832(1) 0.9351(2) 0.6789(2)
O3 O 0.2992(1) 0.8649(1) 0.6757(1)
O4 O 0.2169(1) 0.9172(1) 0.4293(2)
C9 C 0.2644(1) 0.8177(2) 0.5212(2)
C10 C 0.1855(1) 0.7251(2) 0.5377(2)
C11 C 0.1006(1) 0.7658(2) 0.4674(2)
C12 C -0.0007(2) 0.7081(4) 0.4507(4)
C13 C 0.1187(2) 0.8889(2) 0.3981(3)
O5 O 0.0625(1) 0.9587(2) 0.3232(2)
H1 H -0.0471 0.7701 0.4765
H2 H -0.0162 0.6811 0.3415
H3 H -0.0037 0.6384 0.5220
H4 H 0.3399(13) 1.0052(13) 1.0033(16)
H5 H 0.2175(14) 1.0833(18) 0.7509(14)
H6 H 0.1921(13) 1.0901(18) 0.9322(20)
H7 H 0.2007(11) 1.3094(16) 0.8106(23)
H8 H 0.3621(13) 1.3744(10) 0.9311(22)
H9 H 0.4167(12) 1.1846(16) 1.0976(11)
H10 H 0.4238(10) 0.9180(15) 0.5940(15)
H11 H 0.3203(10) 0.7947(16) 0.4640(19)
H12 H 0.1967(13) 0.6480(12) 0.5938(20)

#END
