
#######################################################################
#
#                 Cambridge Crystallographic Data Centre
#                                CCDC 
#
#######################################################################
#
# If this CIF has been generated from an entry in the Cambridge 
# Structural Database, then it will include bibliographic, chemical, 
# crystal, experimental, refinement or atomic coordinate data resulting 
# from the CCDC's data processing and validation procedures.
#
#######################################################################

data_LAFJEH
_symmetry_cell_setting           orthorhombic
_symmetry_space_group_name_H-M   'P 21 21 21'
_symmetry_Int_Tables_number      19
_space_group_name_Hall           'P 2ac 2ab'
loop_
_symmetry_equiv_pos_site_id
_symmetry_equiv_pos_as_xyz
1 x,y,z
2 1/2+x,1/2-y,-z
3 -x,1/2+y,1/2-z
4 1/2-x,-y,1/2+z
_cell_length_a                   9.167(3)
_cell_length_b                   9.949(1)
_cell_length_c                   23.56(2)
_cell_angle_alpha                90
_cell_angle_beta                 90
_cell_angle_gamma                90
_cell_volume                     2148.73
loop_
_atom_site_label
_atom_site_type_symbol
_atom_site_fract_x
_atom_site_fract_y
_atom_site_fract_z
N1 N 0.2127(7) 0.4965(5) 0.3784(3)
N2 N 0.3850(6) 0.6887(5) 0.4316(2)
C1 C 0.1834(8) 0.3565(6) 0.3629(3)
C2 C 0.1138(7) 0.2760(6) 0.4101(3)
C3 C 0.0034(8) 0.1854(8) 0.3977(4)
C4 C -0.0492(12) 0.1011(10) 0.4396(5)
C5 C 0.0030(14) 0.1056(10) 0.4929(6)
C6 C 0.1090(12) 0.1947(11) 0.5061(4)
C7 C 0.1652(8) 0.2800(8) 0.4642(3)
C8 C 0.3309(8) 0.2941(7) 0.3453(3)
C9 C 0.1197(7) 0.6021(6) 0.3703(2)
C10 C 0.1489(7) 0.7275(7) 0.3892(3)
C11 C 0.2796(7) 0.7756(6) 0.4171(3)
C12 C 0.5036(9) 0.7378(9) 0.4585(3)
C13 C 0.5249(9) 0.8692(8) 0.4716(3)
C14 C 0.4169(9) 0.9577(7) 0.4564(3)
C15 C 0.2934(9) 0.9127(6) 0.4288(3)
C16 C -0.0201(7) 0.5734(6) 0.3400(3)
C17 C -0.0222(7) 0.5445(6) 0.2809(3)
C18 C -0.1540(8) 0.5211(7) 0.2562(3)
C19 C -0.2827(8) 0.5215(8) 0.2867(4)
C20 C -0.2818(9) 0.5492(8) 0.3444(4)
C21 C -0.1495(8) 0.5760(8) 0.3702(3)
C22 C 0.1120(7) 0.5398(6) 0.2464(3)
C23 C 0.2111(8) 0.6460(6) 0.2460(3)
C24 C 0.3334(9) 0.6400(10) 0.2125(4)
C25 C 0.3644(11) 0.5296(10) 0.1806(4)
C26 C 0.2667(11) 0.4248(9) 0.1793(4)
C27 C 0.1430(9) 0.4295(7) 0.2126(3)
H1 H 0.318(8) 0.525(7) 0.392(3)
H2 H 0.1052(8) 0.3542(6) 0.3286(3)
H3 H -0.0413(8) 0.1807(8) 0.3553(4)
H4 H -0.1342(12) 0.0300(10) 0.4293(5)
H5 H -0.0395(14) 0.0386(10) 0.5250(6)
H6 H 0.1504(12) 0.2001(11) 0.5490(4)
H7 H 0.2507(8) 0.3500(8) 0.4750(3)
H8 H 0.086(9) 0.798(8) 0.372(3)
H9 H 0.5878(9) 0.6674(9) 0.4704(3)
H10 H 0.6225(9) 0.9026(8) 0.4930(3)
H11 H 0.4286(9) 1.0632(7) 0.4662(3)
H12 H 0.2088(9) 0.9823(6) 0.4165(3)
H13 H -0.1582(8) 0.5015(7) 0.2111(3)
H14 H -0.3846(8) 0.5002(8) 0.2656(4)
H15 H -0.3819(9) 0.5497(8) 0.3685(4)
H16 H -0.1471(8) 0.5996(8) 0.4150(3)
H17 H 0.1917(8) 0.7333(6) 0.2722(3)
H18 H 0.4067(9) 0.7249(10) 0.2113(4)
H19 H 0.4647(11) 0.5243(10) 0.1567(4)
H20 H 0.2867(11) 0.3391(9) 0.1522(4)
H21 H 0.0687(9) 0.3453(7) 0.2123(3)
H22 H 0.3148(8) 0.1903(7) 0.3334(3)
H23 H 0.4061(8) 0.2994(7) 0.3805(3)
H24 H 0.3751(8) 0.3490(7) 0.3097(3)
N1 N 0.7127(7) 1.0035(5) 0.6216(3)
N2 N 0.8850(6) 0.8113(5) 0.5684(2)
C1 C 0.6834(8) 1.1435(6) 0.6371(3)
C2 C 0.6138(7) 1.2240(6) 0.5899(3)
C3 C 0.5034(8) 1.3146(8) 0.6023(4)
C4 C 0.4508(12) 1.3989(10) 0.5604(5)
C5 C 0.5030(14) 1.3944(10) 0.5071(6)
C6 C 0.6090(12) 1.3053(11) 0.4939(4)
C7 C 0.6652(8) 1.2200(8) 0.5358(3)
C8 C 0.8309(8) 1.2059(7) 0.6547(3)
C9 C 0.6197(7) 0.8979(6) 0.6297(2)
C10 C 0.6489(7) 0.7725(7) 0.6108(3)
C11 C 0.7796(7) 0.7244(6) 0.5829(3)
C12 C 1.0036(9) 0.7622(9) 0.5415(3)
C13 C 1.0249(9) 0.6308(8) 0.5284(3)
C14 C 0.9169(9) 0.5423(7) 0.5436(3)
C15 C 0.7934(9) 0.5873(6) 0.5712(3)
C16 C 0.4799(7) 0.9266(6) 0.6600(3)
C17 C 0.4778(7) 0.9555(6) 0.7191(3)
C18 C 0.3460(8) 0.9789(7) 0.7438(3)
C19 C 0.2173(8) 0.9785(8) 0.7133(4)
C20 C 0.2182(9) 0.9508(8) 0.6556(4)
C21 C 0.3505(8) 0.9240(8) 0.6298(3)
C22 C 0.6120(7) 0.9602(6) 0.7536(3)
C23 C 0.7111(8) 0.8540(6) 0.7540(3)
C24 C 0.8334(9) 0.8600(10) 0.7875(4)
C25 C 0.8644(11) 0.9704(10) 0.8194(4)
C26 C 0.7667(11) 1.0752(9) 0.8207(4)
C27 C 0.6430(9) 1.0705(7) 0.7874(3)
H1 H 0.818(8) 0.975(7) 0.608(3)
H2 H 0.6052(8) 1.1458(6) 0.6714(3)
H3 H 0.4587(8) 1.3193(8) 0.6447(4)
H4 H 0.3658(12) 1.4700(10) 0.5707(5)
H5 H 0.4605(14) 1.4614(10) 0.4750(6)
H6 H 0.6504(12) 1.2999(11) 0.4510(4)
H7 H 0.7507(8) 1.1500(8) 0.5250(3)
H8 H 0.586(9) 0.702(8) 0.628(3)
H9 H 1.0878(9) 0.8326(9) 0.5296(3)
H10 H 1.1225(9) 0.5974(8) 0.5070(3)
H11 H 0.9286(9) 0.4368(7) 0.5338(3)
H12 H 0.7088(9) 0.5177(6) 0.5835(3)
H13 H 0.3418(8) 0.9985(7) 0.7889(3)
H14 H 0.1154(8) 0.9998(8) 0.7344(4)
H15 H 0.1181(9) 0.9503(8) 0.6315(4)
H16 H 0.3529(8) 0.9004(8) 0.5850(3)
H17 H 0.6917(8) 0.7667(6) 0.7278(3)
H18 H 0.9067(9) 0.7751(10) 0.7887(4)
H19 H 0.9647(11) 0.9757(10) 0.8433(4)
H20 H 0.7867(11) 1.1609(9) 0.8478(4)
H21 H 0.5687(9) 1.1547(7) 0.7877(3)
H22 H 0.8148(8) 1.3097(7) 0.6666(3)
H23 H 0.9061(8) 1.2006(7) 0.6195(3)
H24 H 0.8751(8) 1.1510(7) 0.6903(3)
N1 N 0.7873(7) -0.0035(5) 0.1216(3)
N2 N 0.6150(6) 0.1887(5) 0.0684(2)
C1 C 0.8166(8) -0.1435(6) 0.1371(3)
C2 C 0.8862(7) -0.2240(6) 0.0899(3)
C3 C 0.9966(8) -0.3146(8) 0.1023(4)
C4 C 1.0492(12) -0.3989(10) 0.0604(5)
C5 C 0.9970(14) -0.3944(10) 0.0071(6)
C6 C 0.8910(12) -0.3053(11) -0.0061(4)
C7 C 0.8348(8) -0.2200(8) 0.0358(3)
C8 C 0.6691(8) -0.2059(7) 0.1547(3)
C9 C 0.8803(7) 0.1021(6) 0.1297(2)
C10 C 0.8511(7) 0.2275(7) 0.1108(3)
C11 C 0.7204(7) 0.2756(6) 0.0829(3)
C12 C 0.4964(9) 0.2378(9) 0.0415(3)
C13 C 0.4751(9) 0.3692(8) 0.0284(3)
C14 C 0.5831(9) 0.4577(7) 0.0436(3)
C15 C 0.7066(9) 0.4127(6) 0.0712(3)
C16 C 1.0201(7) 0.0734(6) 0.1600(3)
C17 C 1.0222(7) 0.0445(6) 0.2191(3)
C18 C 1.1540(8) 0.0211(7) 0.2438(3)
C19 C 1.2827(8) 0.0215(8) 0.2133(4)
C20 C 1.2818(9) 0.0492(8) 0.1556(4)
C21 C 1.1495(8) 0.0760(8) 0.1298(3)
C22 C 0.8880(7) 0.0398(6) 0.2536(3)
C23 C 0.7889(8) 0.1460(6) 0.2540(3)
C24 C 0.6666(9) 0.1400(10) 0.2875(4)
C25 C 0.6356(11) 0.0296(10) 0.3194(4)
C26 C 0.7333(11) -0.0752(9) 0.3207(4)
C27 C 0.8570(9) -0.0705(7) 0.2874(3)
H1 H 0.682(8) 0.025(7) 0.108(3)
H2 H 0.8948(8) -0.1458(6) 0.1714(3)
H3 H 1.0413(8) -0.3193(8) 0.1447(4)
H4 H 1.1342(12) -0.4700(10) 0.0707(5)
H5 H 1.0395(14) -0.4614(10) -0.0250(6)
H6 H 0.8496(12) -0.2999(11) -0.0490(4)
H7 H 0.7493(8) -0.1500(8) 0.0250(3)
H8 H 0.914(9) 0.298(8) 0.128(3)
H9 H 0.4122(9) 0.1674(9) 0.0296(3)
H10 H 0.3775(9) 0.4026(8) 0.0070(3)
H11 H 0.5714(9) 0.5632(7) 0.0338(3)
H12 H 0.7912(9) 0.4823(6) 0.0835(3)
H13 H 1.1582(8) 0.0015(7) 0.2889(3)
H14 H 1.3846(8) 0.0002(8) 0.2344(4)
H15 H 1.3819(9) 0.0497(8) 0.1315(4)
H16 H 1.1471(8) 0.0996(8) 0.0850(3)
H17 H 0.8083(8) 0.2333(6) 0.2278(3)
H18 H 0.5933(9) 0.2249(10) 0.2887(4)
H19 H 0.5353(11) 0.0243(10) 0.3433(4)
H20 H 0.7133(11) -0.1609(9) 0.3478(4)
H21 H 0.9313(9) -0.1547(7) 0.2877(3)
H22 H 0.6852(8) -0.3097(7) 0.1666(3)
H23 H 0.5939(8) -0.2006(7) 0.1195(3)
H24 H 0.6249(8) -0.1510(7) 0.1903(3)
N1 N 0.2873(7) 0.5035(5) 0.8784(3)
N2 N 0.1150(6) 0.3113(5) 0.9316(2)
C1 C 0.3166(8) 0.6435(6) 0.8629(3)
C2 C 0.3862(7) 0.7240(6) 0.9101(3)
C3 C 0.4966(8) 0.8146(8) 0.8977(4)
C4 C 0.5492(12) 0.8989(10) 0.9396(5)
C5 C 0.4970(14) 0.8944(10) 0.9929(6)
C6 C 0.3910(12) 0.8053(11) 1.0061(4)
C7 C 0.3348(8) 0.7200(8) 0.9642(3)
C8 C 0.1691(8) 0.7059(7) 0.8453(3)
C9 C 0.3803(7) 0.3979(6) 0.8703(2)
C10 C 0.3511(7) 0.2725(7) 0.8892(3)
C11 C 0.2204(7) 0.2244(6) 0.9171(3)
C12 C -0.0036(9) 0.2622(9) 0.9585(3)
C13 C -0.0249(9) 0.1308(8) 0.9716(3)
C14 C 0.0831(9) 0.0423(7) 0.9564(3)
C15 C 0.2066(9) 0.0873(6) 0.9288(3)
C16 C 0.5201(7) 0.4266(6) 0.8400(3)
C17 C 0.5222(7) 0.4555(6) 0.7809(3)
C18 C 0.6540(8) 0.4789(7) 0.7562(3)
C19 C 0.7827(8) 0.4785(8) 0.7867(4)
C20 C 0.7818(9) 0.4508(8) 0.8444(4)
C21 C 0.6495(8) 0.4240(8) 0.8702(3)
C22 C 0.3880(7) 0.4602(6) 0.7464(3)
C23 C 0.2889(8) 0.3540(6) 0.7460(3)
C24 C 0.1666(9) 0.3600(10) 0.7125(4)
C25 C 0.1356(11) 0.4704(10) 0.6806(4)
C26 C 0.2333(11) 0.5752(9) 0.6793(4)
C27 C 0.3570(9) 0.5705(7) 0.7126(3)
H1 H 0.182(8) 0.475(7) 0.892(3)
H2 H 0.3948(8) 0.6458(6) 0.8286(3)
H3 H 0.5413(8) 0.8193(8) 0.8553(4)
H4 H 0.6342(12) 0.9700(10) 0.9293(5)
H5 H 0.5395(14) 0.9614(10) 1.0250(6)
H6 H 0.3496(12) 0.7999(11) 1.0490(4)
H7 H 0.2493(8) 0.6500(8) 0.9750(3)
H8 H 0.414(9) 0.202(8) 0.872(3)
H9 H -0.0878(9) 0.3326(9) 0.9704(3)
H10 H -0.1225(9) 0.0974(8) 0.9930(3)
H11 H 0.0714(9) -0.0632(7) 0.9662(3)
H12 H 0.2912(9) 0.0177(6) 0.9165(3)
H13 H 0.6582(8) 0.4985(7) 0.7111(3)
H14 H 0.8846(8) 0.4998(8) 0.7656(4)
H15 H 0.8819(9) 0.4503(8) 0.8685(4)
H16 H 0.6471(8) 0.4004(8) 0.9150(3)
H17 H 0.3083(8) 0.2667(6) 0.7722(3)
H18 H 0.0933(9) 0.2751(10) 0.7113(4)
H19 H 0.0353(11) 0.4757(10) 0.6567(4)
H20 H 0.2133(11) 0.6609(9) 0.6522(4)
H21 H 0.4313(9) 0.6547(7) 0.7123(3)
H22 H 0.1852(8) 0.8097(7) 0.8334(3)
H23 H 0.0939(8) 0.7006(7) 0.8805(3)
H24 H 0.1249(8) 0.6510(7) 0.8097(3)

#END
