./LAFJEH_from_xyz.cif_generated_by_CrystalShift
_symmetry_cell_setting triclinic
_symmetry_space_group_name_H-M 'P 1'
loop_
_symmetry_equiv_pos_site_id
_symmetry_equiv_pos_as_xyz
1 x,y,z
_cell_length_a 9.167000
_cell_length_b 9.949000
_cell_length_c 23.560000
_cell_angle_alpha 90.000000
_cell_angle_beta 90.000000
_cell_angle_gamma 90.000000
_cell_volume 2148.730499
loop_
_atom_site_label
_atom_site_type_symbol
_atom_site_fract_x
_atom_site_fract_y
_atom_site_fract_z
N1 N 0.212700 0.496500 0.378400
N2 N 0.385000 0.688700 0.431600
C3 C 0.183400 0.356500 0.362900
C4 C 0.113800 0.276000 0.410100
C5 C 0.003400 0.185400 0.397700
C6 C -0.049200 0.101100 0.439600
C7 C 0.003000 0.105600 0.492900
C8 C 0.109000 0.194700 0.506100
C9 C 0.165200 0.280000 0.464200
C10 C 0.330900 0.294100 0.345300
C11 C 0.119700 0.602100 0.370300
C12 C 0.148900 0.727500 0.389200
C13 C 0.279600 0.775600 0.417100
C14 C 0.503600 0.737800 0.458500
C15 C 0.524900 0.869200 0.471600
C16 C 0.416900 0.957700 0.456400
C17 C 0.293400 0.912700 0.428800
C18 C -0.020100 0.573400 0.340000
C19 C -0.022200 0.544500 0.280900
C20 C -0.154000 0.521100 0.256200
C21 C -0.282700 0.521500 0.286700
C22 C -0.281800 0.549200 0.344400
C23 C -0.149500 0.576000 0.370200
C24 C 0.112000 0.539800 0.246400
C25 C 0.211100 0.646000 0.246000
C26 C 0.333400 0.640000 0.212500
C27 C 0.364400 0.529600 0.180600
C28 C 0.266700 0.424800 0.179300
C29 C 0.143000 0.429500 0.212600
H30 H 0.318000 0.525000 0.392000
H31 H 0.105200 0.354200 0.328600
H32 H -0.041300 0.180700 0.355300
H33 H -0.134200 0.030000 0.429300
H34 H -0.039500 0.038600 0.525000
H35 H 0.150400 0.200100 0.549000
H36 H 0.250700 0.350000 0.475000
H37 H 0.086000 0.798000 0.372000
H38 H 0.587800 0.667400 0.470400
H39 H 0.622500 0.902600 0.493000
H40 H 0.428600 1.063200 0.466200
H41 H 0.208800 0.982300 0.416500
H42 H -0.158200 0.501500 0.211100
H43 H -0.384600 0.500200 0.265600
H44 H -0.381900 0.549700 0.368500
H45 H -0.147100 0.599600 0.415000
H46 H 0.191700 0.733300 0.272200
H47 H 0.406700 0.724900 0.211300
H48 H 0.464700 0.524300 0.156700
H49 H 0.286700 0.339100 0.152200
H50 H 0.068700 0.345300 0.212300
H51 H 0.314800 0.190300 0.333400
H52 H 0.406100 0.299400 0.380500
H53 H 0.375100 0.349000 0.309700
N54 N 0.712700 1.003500 0.621600
N55 N 0.885000 0.811300 0.568400
C56 C 0.683400 1.143500 0.637100
C57 C 0.613800 1.224000 0.589900
C58 C 0.503400 1.314600 0.602300
C59 C 0.450800 1.398900 0.560400
C60 C 0.503000 1.394400 0.507100
C61 C 0.609000 1.305300 0.493900
C62 C 0.665200 1.220000 0.535800
C63 C 0.830900 1.205900 0.654700
C64 C 0.619700 0.897900 0.629700
C65 C 0.648900 0.772500 0.610800
C66 C 0.779600 0.724400 0.582900
C67 C 1.003600 0.762200 0.541500
C68 C 1.024900 0.630800 0.528400
C69 C 0.916900 0.542300 0.543600
C70 C 0.793400 0.587300 0.571200
C71 C 0.479900 0.926600 0.660000
C72 C 0.477800 0.955500 0.719100
C73 C 0.346000 0.978900 0.743800
C74 C 0.217300 0.978500 0.713300
C75 C 0.218200 0.950800 0.655600
C76 C 0.350500 0.924000 0.629800
C77 C 0.612000 0.960200 0.753600
C78 C 0.711100 0.854000 0.754000
C79 C 0.833400 0.860000 0.787500
C80 C 0.864400 0.970400 0.819400
C81 C 0.766700 1.075200 0.820700
C82 C 0.643000 1.070500 0.787400
H83 H 0.818000 0.975000 0.608000
H84 H 0.605200 1.145800 0.671400
H85 H 0.458700 1.319300 0.644700
H86 H 0.365800 1.470000 0.570700
H87 H 0.460500 1.461400 0.475000
H88 H 0.650400 1.299900 0.451000
H89 H 0.750700 1.150000 0.525000
H90 H 0.586000 0.702000 0.628000
H91 H 1.087800 0.832600 0.529600
H92 H 1.122500 0.597400 0.507000
H93 H 0.928600 0.436800 0.533800
H94 H 0.708800 0.517700 0.583500
H95 H 0.341800 0.998500 0.788900
H96 H 0.115400 0.999800 0.734400
H97 H 0.118100 0.950300 0.631500
H98 H 0.352900 0.900400 0.585000
H99 H 0.691700 0.766700 0.727800
H100 H 0.906700 0.775100 0.788700
H101 H 0.964700 0.975700 0.843300
H102 H 0.786700 1.160900 0.847800
H103 H 0.568700 1.154700 0.787700
H104 H 0.814800 1.309700 0.666600
H105 H 0.906100 1.200600 0.619500
H106 H 0.875100 1.151000 0.690300
N107 N 0.787300 -0.003500 0.121600
N108 N 0.615000 0.188700 0.068400
C109 C 0.816600 -0.143500 0.137100
C110 C 0.886200 -0.224000 0.089900
C111 C 0.996600 -0.314600 0.102300
C112 C 1.049200 -0.398900 0.060400
C113 C 0.997000 -0.394400 0.007100
C114 C 0.891000 -0.305300 -0.006100
C115 C 0.834800 -0.220000 0.035800
C116 C 0.669100 -0.205900 0.154700
C117 C 0.880300 0.102100 0.129700
C118 C 0.851100 0.227500 0.110800
C119 C 0.720400 0.275600 0.082900
C120 C 0.496400 0.237800 0.041500
C121 C 0.475100 0.369200 0.028400
C122 C 0.583100 0.457700 0.043600
C123 C 0.706600 0.412700 0.071200
C124 C 1.020100 0.073400 0.160000
C125 C 1.022200 0.044500 0.219100
C126 C 1.154000 0.021100 0.243800
C127 C 1.282700 0.021500 0.213300
C128 C 1.281800 0.049200 0.155600
C129 C 1.149500 0.076000 0.129800
C130 C 0.888000 0.039800 0.253600
C131 C 0.788900 0.146000 0.254000
C132 C 0.666600 0.140000 0.287500
C133 C 0.635600 0.029600 0.319400
C134 C 0.733300 -0.075200 0.320700
C135 C 0.857000 -0.070500 0.287400
H136 H 0.682000 0.025000 0.108000
H137 H 0.894800 -0.145800 0.171400
H138 H 1.041300 -0.319300 0.144700
H139 H 1.134200 -0.470000 0.070700
H140 H 1.039500 -0.461400 -0.025000
H141 H 0.849600 -0.299900 -0.049000
H142 H 0.749300 -0.150000 0.025000
H143 H 0.914000 0.298000 0.128000
H144 H 0.412200 0.167400 0.029600
H145 H 0.377500 0.402600 0.007000
H146 H 0.571400 0.563200 0.033800
H147 H 0.791200 0.482300 0.083500
H148 H 1.158200 0.001500 0.288900
H149 H 1.384600 0.000200 0.234400
H150 H 1.381900 0.049700 0.131500
H151 H 1.147100 0.099600 0.085000
H152 H 0.808300 0.233300 0.227800
H153 H 0.593300 0.224900 0.288700
H154 H 0.535300 0.024300 0.343300
H155 H 0.713300 -0.160900 0.347800
H156 H 0.931300 -0.154700 0.287700
H157 H 0.685200 -0.309700 0.166600
H158 H 0.593900 -0.200600 0.119500
H159 H 0.624900 -0.151000 0.190300
N160 N 0.287300 0.503500 0.878400
N161 N 0.115000 0.311300 0.931600
C162 C 0.316600 0.643500 0.862900
C163 C 0.386200 0.724000 0.910100
C164 C 0.496600 0.814600 0.897700
C165 C 0.549200 0.898900 0.939600
C166 C 0.497000 0.894400 0.992900
C167 C 0.391000 0.805300 1.006100
C168 C 0.334800 0.720000 0.964200
C169 C 0.169100 0.705900 0.845300
C170 C 0.380300 0.397900 0.870300
C171 C 0.351100 0.272500 0.889200
C172 C 0.220400 0.224400 0.917100
C173 C -0.003600 0.262200 0.958500
C174 C -0.024900 0.130800 0.971600
C175 C 0.083100 0.042300 0.956400
C176 C 0.206600 0.087300 0.928800
C177 C 0.520100 0.426600 0.840000
C178 C 0.522200 0.455500 0.780900
C179 C 0.654000 0.478900 0.756200
C180 C 0.782700 0.478500 0.786700
C181 C 0.781800 0.450800 0.844400
C182 C 0.649500 0.424000 0.870200
C183 C 0.388000 0.460200 0.746400
C184 C 0.288900 0.354000 0.746000
C185 C 0.166600 0.360000 0.712500
C186 C 0.135600 0.470400 0.680600
C187 C 0.233300 0.575200 0.679300
C188 C 0.357000 0.570500 0.712600
H189 H 0.182000 0.475000 0.892000
H190 H 0.394800 0.645800 0.828600
H191 H 0.541300 0.819300 0.855300
H192 H 0.634200 0.970000 0.929300
H193 H 0.539500 0.961400 1.025000
H194 H 0.349600 0.799900 1.049000
H195 H 0.249300 0.650000 0.975000
H196 H 0.414000 0.202000 0.872000
H197 H -0.087800 0.332600 0.970400
H198 H -0.122500 0.097400 0.993000
H199 H 0.071400 -0.063200 0.966200
H200 H 0.291200 0.017700 0.916500
H201 H 0.658200 0.498500 0.711100
H202 H 0.884600 0.499800 0.765600
H203 H 0.881900 0.450300 0.868500
H204 H 0.647100 0.400400 0.915000
H205 H 0.308300 0.266700 0.772200
H206 H 0.093300 0.275100 0.711300
H207 H 0.035300 0.475700 0.656700
H208 H 0.213300 0.660900 0.652200
H209 H 0.431300 0.654700 0.712300
H210 H 0.185200 0.809700 0.833400
H211 H 0.093900 0.700600 0.880500
H212 H 0.124900 0.651000 0.809700

#END
