./LAFKEI_from_xyz.cif_generated_by_CrystalShift
_symmetry_cell_setting triclinic
_symmetry_space_group_name_H-M 'P 1'
loop_
_symmetry_equiv_pos_site_id
_symmetry_equiv_pos_as_xyz
1 x,y,z
_cell_length_a 8.425000
_cell_length_b 13.819000
_cell_length_c 23.902000
_cell_angle_alpha 90.000000
_cell_angle_beta 95.870000
_cell_angle_gamma 90.000000
_cell_volume 2768.200588
loop_
_atom_site_label
_atom_site_type_symbol
_atom_site_fract_x
_atom_site_fract_y
_atom_site_fract_z
C1 C 0.852600 0.752100 0.429600
C2 C 0.899400 0.660200 0.416000
C3 C 0.999500 0.609200 0.455900
C4 C 1.050500 0.649800 0.507400
C5 C 1.001000 0.741800 0.521300
C6 C 0.900700 0.792200 0.481800
C7 C 0.831000 0.890000 0.484100
C8 C 0.837600 0.957200 0.527700
C9 C 0.759800 1.044300 0.518000
C10 C 0.679900 1.065000 0.465900
C11 C 0.671200 0.997900 0.422300
C12 C 0.747200 0.910500 0.432600
C13 C 0.752200 0.824100 0.392700
O14 O 0.831900 0.848700 0.344000
H15 H 0.921000 0.893000 0.358000
C16 C 0.585700 0.788400 0.373200
C17 C 0.526700 0.785000 0.317200
C18 C 0.369300 0.755800 0.302000
C19 C 0.271500 0.730900 0.342500
C20 C 0.329900 0.733600 0.398200
C21 C 0.486400 0.760700 0.413800
H22 H 0.867700 0.624600 0.376600
H23 H 1.036700 0.538300 0.442800
H24 H 1.135000 0.613100 0.539100
H25 H 1.051400 0.764300 0.563800
H26 H 0.919700 0.943300 0.566100
H27 H 0.762300 1.097800 0.550800
H28 H 0.602500 1.128400 0.467000
H29 H 0.599100 1.015300 0.377600
H30 H 0.595600 0.797700 0.284100
H31 H 0.322600 0.760800 0.256200
H32 H 0.149700 0.713900 0.326100
H33 H 0.258300 0.701000 0.436100
H34 H 0.530700 0.762400 0.462700
C35 C 0.647400 0.252100 0.070400
C36 C 0.600600 0.160200 0.084000
C37 C 0.500500 0.109200 0.044100
C38 C 0.449500 0.149800 -0.007400
C39 C 0.499000 0.241800 -0.021300
C40 C 0.599300 0.292200 0.018200
C41 C 0.669000 0.390000 0.015900
C42 C 0.662400 0.457200 -0.027700
C43 C 0.740200 0.544300 -0.018000
C44 C 0.820100 0.565000 0.034100
C45 C 0.828800 0.497900 0.077700
C46 C 0.752800 0.410500 0.067400
C47 C 0.747800 0.324100 0.107300
O48 O 0.668100 0.348700 0.156000
H49 H 0.579000 0.393000 0.142000
C50 C 0.914300 0.288400 0.126800
C51 C 0.973300 0.285000 0.182800
C52 C 1.130700 0.255800 0.198000
C53 C 1.228500 0.230900 0.157500
C54 C 1.170100 0.233600 0.101800
C55 C 1.013600 0.260700 0.086200
H56 H 0.632300 0.124600 0.123400
H57 H 0.463300 0.038300 0.057200
H58 H 0.365000 0.113100 -0.039100
H59 H 0.448600 0.264300 -0.063800
H60 H 0.580300 0.443300 -0.066100
H61 H 0.737700 0.597800 -0.050800
H62 H 0.897500 0.628400 0.033000
H63 H 0.900900 0.515300 0.122400
H64 H 0.904400 0.297700 0.215900
H65 H 1.177400 0.260800 0.243800
H66 H 1.350300 0.213900 0.173900
H67 H 1.241700 0.201000 0.063900
H68 H 0.969300 0.262400 0.037300
C69 C 0.147400 0.247900 0.570400
C70 C 0.100600 0.339800 0.584000
C71 C 0.000500 0.390800 0.544100
C72 C -0.050500 0.350200 0.492600
C73 C -0.001000 0.258200 0.478700
C74 C 0.099300 0.207800 0.518200
C75 C 0.169000 0.110000 0.515900
C76 C 0.162400 0.042800 0.472300
C77 C 0.240200 -0.044300 0.482000
C78 C 0.320100 -0.065000 0.534100
C79 C 0.328800 0.002100 0.577700
C80 C 0.252800 0.089500 0.567400
C81 C 0.247800 0.175900 0.607300
O82 O 0.168100 0.151300 0.656000
H83 H 0.079000 0.107000 0.642000
C84 C 0.414300 0.211600 0.626800
C85 C 0.473300 0.215000 0.682800
C86 C 0.630700 0.244200 0.698000
C87 C 0.728500 0.269100 0.657500
C88 C 0.670100 0.266400 0.601800
C89 C 0.513600 0.239300 0.586200
H90 H 0.132300 0.375400 0.623400
H91 H -0.036700 0.461700 0.557200
H92 H -0.135000 0.386900 0.460900
H93 H -0.051400 0.235700 0.436200
H94 H 0.080300 0.056700 0.433900
H95 H 0.237700 -0.097800 0.449200
H96 H 0.397500 -0.128400 0.533000
H97 H 0.400900 -0.015300 0.622400
H98 H 0.404400 0.202300 0.715900
H99 H 0.677400 0.239200 0.743800
H100 H 0.850300 0.286100 0.673900
H101 H 0.741700 0.299000 0.563900
H102 H 0.469300 0.237600 0.537300
C103 C 0.352600 0.747900 0.929600
C104 C 0.399400 0.839800 0.916000
C105 C 0.499500 0.890800 0.955900
C106 C 0.550500 0.850200 1.007400
C107 C 0.501000 0.758200 1.021300
C108 C 0.400700 0.707800 0.981800
C109 C 0.331000 0.610000 0.984100
C110 C 0.337600 0.542800 1.027700
C111 C 0.259800 0.455700 1.018000
C112 C 0.179900 0.435000 0.965900
C113 C 0.171200 0.502100 0.922300
C114 C 0.247200 0.589500 0.932600
C115 C 0.252200 0.675900 0.892700
O116 O 0.331900 0.651300 0.844000
H117 H 0.421000 0.607000 0.858000
C118 C 0.085700 0.711600 0.873200
C119 C 0.026700 0.715000 0.817200
C120 C -0.130700 0.744200 0.802000
C121 C -0.228500 0.769100 0.842500
C122 C -0.170100 0.766400 0.898200
C123 C -0.013600 0.739300 0.913800
H124 H 0.367700 0.875400 0.876600
H125 H 0.536700 0.961700 0.942800
H126 H 0.635000 0.886900 1.039100
H127 H 0.551400 0.735700 1.063800
H128 H 0.419700 0.556700 1.066100
H129 H 0.262300 0.402200 1.050800
H130 H 0.102500 0.371600 0.967000
H131 H 0.099100 0.484700 0.877600
H132 H 0.095600 0.702300 0.784100
H133 H -0.177400 0.739200 0.756200
H134 H -0.350300 0.786100 0.826100
H135 H -0.241700 0.799000 0.936100
H136 H 0.030700 0.737600 0.962700
C137 C 0.741600 0.925300 0.201000
C138 C 0.618700 0.881400 0.167700
C139 C 0.467400 0.923100 0.164600
C140 C 0.441300 1.006300 0.194100
C141 C 0.564000 1.051100 0.227400
C142 C 0.715800 1.009800 0.230600
C143 C 0.867000 1.038700 0.262200
C144 C 0.902700 1.116500 0.297800
C145 C 1.056900 1.124400 0.323800
C146 C 1.171000 1.057400 0.315000
C147 C 1.136700 0.978500 0.278700
C148 C 0.983900 0.971100 0.252000
C149 C 0.914700 0.892200 0.211800
O150 O 0.927000 0.798200 0.237000
H151 H 0.898000 0.808000 0.275000
C152 C 0.991900 0.887200 0.157000
C153 C 1.039600 0.800000 0.135600
C154 C 1.103600 0.797500 0.084000
C155 C 1.119600 0.880500 0.054100
C156 C 1.073700 0.967900 0.075400
C157 C 1.010800 0.971100 0.126400
H158 H 0.639300 0.817900 0.142500
H159 H 0.364900 0.891600 0.139600
H160 H 0.328300 1.039400 0.194000
H161 H 0.538200 1.114800 0.246600
H162 H 0.824300 1.171500 0.305300
H163 H 1.084500 1.190900 0.345300
H164 H 1.283700 1.060200 0.335400
H165 H 1.216700 0.925200 0.273800
H166 H 1.023600 0.738400 0.159800
H167 H 1.138000 0.734100 0.066800
H168 H 1.171700 0.880400 0.017100
H169 H 1.104400 1.037400 0.056800
H170 H 0.981300 1.038700 0.141300
C171 C 0.758400 0.425300 0.299000
C172 C 0.881300 0.381400 0.332300
C173 C 1.032600 0.423100 0.335400
C174 C 1.058700 0.506300 0.305900
C175 C 0.936000 0.551100 0.272600
C176 C 0.784200 0.509800 0.269400
C177 C 0.633000 0.538700 0.237800
C178 C 0.597300 0.616500 0.202200
C179 C 0.443100 0.624400 0.176200
C180 C 0.329000 0.557400 0.185000
C181 C 0.363300 0.478500 0.221300
C182 C 0.516100 0.471100 0.248000
C183 C 0.585300 0.392200 0.288200
O184 O 0.573000 0.298200 0.263000
H185 H 0.602000 0.308000 0.225000
C186 C 0.508100 0.387200 0.343000
C187 C 0.460400 0.300000 0.364400
C188 C 0.396400 0.297500 0.416000
C189 C 0.380400 0.380500 0.445900
C190 C 0.426300 0.467900 0.424600
C191 C 0.489200 0.471100 0.373600
H192 H 0.860700 0.317900 0.357500
H193 H 1.135100 0.391600 0.360400
H194 H 1.171700 0.539400 0.306000
H195 H 0.961800 0.614800 0.253400
H196 H 0.675700 0.671500 0.194700
H197 H 0.415500 0.690900 0.154700
H198 H 0.216300 0.560200 0.164600
H199 H 0.283300 0.425200 0.226200
H200 H 0.476400 0.238400 0.340200
H201 H 0.362000 0.234100 0.433200
H202 H 0.328300 0.380400 0.482900
H203 H 0.395600 0.537400 0.443200
H204 H 0.518700 0.538700 0.358700
C205 C 0.258400 0.074700 0.799000
C206 C 0.381300 0.118600 0.832300
C207 C 0.532600 0.076900 0.835400
C208 C 0.558700 -0.006300 0.805900
C209 C 0.436000 -0.051100 0.772600
C210 C 0.284200 -0.009800 0.769400
C211 C 0.133000 -0.038700 0.737800
C212 C 0.097300 -0.116500 0.702200
C213 C -0.056900 -0.124400 0.676200
C214 C -0.171000 -0.057400 0.685000
C215 C -0.136700 0.021500 0.721300
C216 C 0.016100 0.028900 0.748000
C217 C 0.085300 0.107800 0.788200
O218 O 0.073000 0.201800 0.763000
H219 H 0.102000 0.192000 0.725000
C220 C 0.008100 0.112800 0.843000
C221 C -0.039600 0.200000 0.864400
C222 C -0.103600 0.202500 0.916000
C223 C -0.119600 0.119500 0.945900
C224 C -0.073700 0.032100 0.924600
C225 C -0.010800 0.028900 0.873600
H226 H 0.360700 0.182100 0.857500
H227 H 0.635100 0.108400 0.860400
H228 H 0.671700 -0.039400 0.806000
H229 H 0.461800 -0.114800 0.753400
H230 H 0.175700 -0.171500 0.694700
H231 H -0.084500 -0.190900 0.654700
H232 H -0.283700 -0.060200 0.664600
H233 H -0.216700 0.074800 0.726200
H234 H -0.023600 0.261600 0.840200
H235 H -0.138000 0.265900 0.933200
H236 H -0.171700 0.119600 0.982900
H237 H -0.104400 -0.037400 0.943200
H238 H 0.018700 -0.038700 0.858700
C239 C 0.241600 0.574700 0.701000
C240 C 0.118700 0.618600 0.667700
C241 C -0.032600 0.576900 0.664600
C242 C -0.058700 0.493700 0.694100
C243 C 0.064000 0.448900 0.727400
C244 C 0.215800 0.490200 0.730600
C245 C 0.367000 0.461300 0.762200
C246 C 0.402700 0.383500 0.797800
C247 C 0.556900 0.375600 0.823800
C248 C 0.671000 0.442600 0.815000
C249 C 0.636700 0.521500 0.778700
C250 C 0.483900 0.528900 0.752000
C251 C 0.414700 0.607800 0.711800
O252 O 0.427000 0.701800 0.737000
H253 H 0.398000 0.692000 0.775000
C254 C 0.491900 0.612800 0.657000
C255 C 0.539600 0.700000 0.635600
C256 C 0.603600 0.702500 0.584000
C257 C 0.619600 0.619500 0.554100
C258 C 0.573700 0.532100 0.575400
C259 C 0.510800 0.528900 0.626400
H260 H 0.139300 0.682100 0.642500
H261 H -0.135100 0.608400 0.639600
H262 H -0.171700 0.460600 0.694000
H263 H 0.038200 0.385200 0.746600
H264 H 0.324300 0.328500 0.805300
H265 H 0.584500 0.309100 0.845300
H266 H 0.783700 0.439800 0.835400
H267 H 0.716700 0.574800 0.773800
H268 H 0.523600 0.761600 0.659800
H269 H 0.638000 0.765900 0.566800
H270 H 0.671700 0.619600 0.517100
H271 H 0.604400 0.462600 0.556800
H272 H 0.481300 0.461300 0.641300

#END
