./LAFKAE01_from_xyz.cif_generated_by_CrystalShift
_symmetry_cell_setting triclinic
_symmetry_space_group_name_H-M 'P 1'
loop_
_symmetry_equiv_pos_site_id
_symmetry_equiv_pos_as_xyz
1 x,y,z
_cell_length_a 9.254000
_cell_length_b 11.415400
_cell_length_c 11.847600
_cell_angle_alpha 89.198000
_cell_angle_beta 116.162000
_cell_angle_gamma 107.108000
_cell_volume 1063.820469
loop_
_atom_site_label
_atom_site_type_symbol
_atom_site_fract_x
_atom_site_fract_y
_atom_site_fract_z
O1 O 0.415730 0.325750 0.528140
H2 H 0.426000 0.395000 0.572000
C3 C 0.462400 0.236030 0.611400
C4 C 0.367100 0.208280 0.691370
C5 C 0.194500 0.169600 0.651810
H6 H 0.116600 0.156900 0.564100
C7 C 0.136100 0.149420 0.743210
H8 H 0.017500 0.124200 0.717500
C9 C 0.249800 0.165810 0.871210
H10 H 0.208000 0.150500 0.932100
C11 C 0.423700 0.204250 0.911360
H12 H 0.501300 0.215000 0.999000
C13 C 0.482300 0.226800 0.820700
C14 C 0.656600 0.273910 0.835020
C15 C 0.646600 0.281720 0.713690
C16 C 0.793600 0.325030 0.699710
H17 H 0.787700 0.330100 0.617800
C18 C 0.949300 0.360690 0.807460
H19 H 1.050800 0.391000 0.799100
C20 C 0.958900 0.352800 0.927130
H21 H 1.067100 0.377700 0.999700
C22 C 0.812600 0.308870 0.942680
H23 H 0.819500 0.303000 1.024900
C24 C 0.424300 0.120930 0.526140
H25 H 0.303600 0.092800 0.464300
H26 H 0.450900 0.055400 0.578000
H27 H 0.493700 0.140600 0.481200
O28 O 0.584270 0.674250 0.471860
H29 H 0.574000 0.605000 0.428000
C30 C 0.537600 0.763970 0.388600
C31 C 0.632900 0.791720 0.308630
C32 C 0.805500 0.830400 0.348190
H33 H 0.883400 0.843100 0.435900
C34 C 0.863900 0.850580 0.256790
H35 H 0.982500 0.875800 0.282500
C36 C 0.750200 0.834190 0.128790
H37 H 0.792000 0.849500 0.067900
C38 C 0.576300 0.795750 0.088640
H39 H 0.498700 0.785000 0.001000
C40 C 0.517700 0.773200 0.179300
C41 C 0.343400 0.726090 0.164980
C42 C 0.353400 0.718280 0.286310
C43 C 0.206400 0.674970 0.300290
H44 H 0.212300 0.669900 0.382200
C45 C 0.050700 0.639310 0.192540
H46 H -0.050800 0.609000 0.200900
C47 C 0.041100 0.647200 0.072870
H48 H -0.067100 0.622300 0.000300
C49 C 0.187400 0.691130 0.057320
H50 H 0.180500 0.697000 -0.024900
C51 C 0.575700 0.879070 0.473860
H52 H 0.696400 0.907200 0.535700
H53 H 0.549100 0.944600 0.422000
H54 H 0.506300 0.859400 0.518800
O55 O 0.562220 0.446860 0.384560
H56 H 0.517000 0.393000 0.428000
C57 C 0.545120 0.380720 0.274450
C58 C 0.699900 0.341120 0.301870
C59 C 0.868000 0.413730 0.350430
H60 H 0.900700 0.500200 0.374100
C61 C 0.989200 0.357780 0.364130
H62 H 1.105700 0.406300 0.398300
C63 C 0.940000 0.231130 0.327940
H64 H 1.023700 0.194300 0.337300
C65 C 0.771200 0.157690 0.278510
H66 H 0.738300 0.071400 0.253400
C67 C 0.650920 0.213580 0.266630
C68 C 0.466190 0.160930 0.222420
C69 C 0.403670 0.256550 0.230370
C70 C 0.234200 0.231690 0.200020
H71 H 0.191900 0.296500 0.206000
C72 C 0.126800 0.109470 0.160420
H73 H 0.010200 0.090800 0.139700
C74 C 0.188300 0.014630 0.150920
H75 H 0.113100 -0.068000 0.123200
C76 C 0.358700 0.039310 0.181580
H77 H 0.400700 -0.025500 0.174800
C78 C 0.516600 0.466340 0.172000
H79 H 0.412400 0.485800 0.152300
H80 H 0.505800 0.425200 0.095300
H81 H 0.613400 0.543000 0.202700
O82 O 0.437780 0.553140 0.615440
H83 H 0.483000 0.607000 0.572000
C84 C 0.454880 0.619280 0.725550
C85 C 0.300100 0.658880 0.698130
C86 C 0.132000 0.586270 0.649570
H87 H 0.099300 0.499800 0.625900
C88 C 0.010800 0.642220 0.635870
H89 H -0.105700 0.593700 0.601700
C90 C 0.060000 0.768870 0.672060
H91 H -0.023700 0.805700 0.662700
C92 C 0.228800 0.842310 0.721490
H93 H 0.261700 0.928600 0.746600
C94 C 0.349080 0.786420 0.733370
C95 C 0.533810 0.839070 0.777580
C96 C 0.596330 0.743450 0.769630
C97 C 0.765800 0.768310 0.799980
H98 H 0.808100 0.703500 0.794000
C99 C 0.873200 0.890530 0.839580
H100 H 0.989800 0.909200 0.860300
C101 C 0.811700 0.985370 0.849080
H102 H 0.886900 1.068000 0.876800
C103 C 0.641300 0.960690 0.818420
H104 H 0.599300 1.025500 0.825200
C105 C 0.483400 0.533660 0.828000
H106 H 0.587600 0.514200 0.847700
H107 H 0.494200 0.574800 0.904700
H108 H 0.386600 0.457000 0.797300

#END
