./LAFLEL_from_xyz.cif_generated_by_CrystalShift
_symmetry_cell_setting triclinic
_symmetry_space_group_name_H-M 'P 1'
loop_
_symmetry_equiv_pos_site_id
_symmetry_equiv_pos_as_xyz
1 x,y,z
_cell_length_a 7.985300
_cell_length_b 16.056000
_cell_length_c 11.368000
_cell_angle_alpha 90.000000
_cell_angle_beta 90.000000
_cell_angle_gamma 90.000000
_cell_volume 1457.513752
loop_
_atom_site_label
_atom_site_type_symbol
_atom_site_fract_x
_atom_site_fract_y
_atom_site_fract_z
N1 N 0.236900 1.042840 0.077220
O2 O -0.132900 0.927000 0.122200
N3 N 0.126500 0.979110 0.117200
O4 O 0.204500 0.722850 0.171130
H5 H 0.263700 0.672400 0.160500
C6 C 0.209400 0.896150 0.124800
H7 H 0.153900 0.857400 0.070800
C8 C 0.234700 1.095700 0.281700
H9 H 0.153100 1.057100 0.302500
C10 C 0.205800 0.860220 0.247900
H11 H 0.263400 0.897900 0.300800
H12 H 0.090400 0.856000 0.273900
C13 C 0.300700 1.095610 0.168200
C14 C 0.286800 0.775160 0.255300
H15 H 0.405500 0.780000 0.234600
C16 C -0.041300 0.987270 0.104000
C17 C 0.361500 0.995300 0.006000
H18 H 0.467200 1.026200 0.001900
C19 C 0.423300 1.153660 0.140500
H20 H 0.468100 1.154700 0.064900
C21 C 0.290400 1.153280 0.363600
H22 H 0.244600 1.153100 0.438900
C23 C 0.271200 0.738570 0.378300
H24 H 0.317900 0.683500 0.379100
H25 H 0.155300 0.736100 0.400200
H26 H 0.330800 0.773100 0.433100
C27 C 0.295200 0.979500 -0.117100
H28 H 0.281500 1.031600 -0.157300
H29 H 0.189100 0.951600 -0.112200
H30 H 0.373100 0.945200 -0.159500
C31 C -0.107300 1.071590 0.072600
H32 H -0.224900 1.067800 0.056100
H33 H -0.049700 1.092000 0.004300
H34 H -0.089500 1.109100 0.137100
C35 C 0.411900 1.210690 0.335900
H36 H 0.448200 1.249400 0.391200
C37 C 0.479300 1.209480 0.222700
H38 H 0.563300 1.247000 0.202700
C39 C 0.385600 0.915520 0.078600
H40 H 0.427200 0.870400 0.029900
H41 H 0.463200 0.924700 0.143000
N42 N 0.763100 -0.042840 0.577220
O43 O 1.132900 0.073000 0.622200
N44 N 0.873500 0.020890 0.617200
O45 O 0.795500 0.277150 0.671130
H46 H 0.736300 0.327600 0.660500
C47 C 0.790600 0.103850 0.624800
H48 H 0.846100 0.142600 0.570800
C49 C 0.765300 -0.095700 0.781700
H50 H 0.846900 -0.057100 0.802500
C51 C 0.794200 0.139780 0.747900
H52 H 0.736600 0.102100 0.800800
H53 H 0.909600 0.144000 0.773900
C54 C 0.699300 -0.095610 0.668200
C55 C 0.713200 0.224840 0.755300
H56 H 0.594500 0.220000 0.734600
C57 C 1.041300 0.012730 0.604000
C58 C 0.638500 0.004700 0.506000
H59 H 0.532800 -0.026200 0.501900
C60 C 0.576700 -0.153660 0.640500
H61 H 0.531900 -0.154700 0.564900
C62 C 0.709600 -0.153280 0.863600
H63 H 0.755400 -0.153100 0.938900
C64 C 0.728800 0.261430 0.878300
H65 H 0.682100 0.316500 0.879100
H66 H 0.844700 0.263900 0.900200
H67 H 0.669200 0.226900 0.933100
C68 C 0.704800 0.020500 0.382900
H69 H 0.718500 -0.031600 0.342700
H70 H 0.810900 0.048400 0.387800
H71 H 0.626900 0.054800 0.340500
C72 C 1.107300 -0.071590 0.572600
H73 H 1.224900 -0.067800 0.556100
H74 H 1.049700 -0.092000 0.504300
H75 H 1.089500 -0.109100 0.637100
C76 C 0.588100 -0.210690 0.835900
H77 H 0.551800 -0.249400 0.891200
C78 C 0.520700 -0.209480 0.722700
H79 H 0.436700 -0.247000 0.702700
C80 C 0.614400 0.084480 0.578600
H81 H 0.572800 0.129600 0.529900
H82 H 0.536800 0.075300 0.643000
N83 N 0.736900 0.457160 0.077220
O84 O 0.367100 0.573000 0.122200
N85 N 0.626500 0.520890 0.117200
O86 O 0.704500 0.777150 0.171130
H87 H 0.763700 0.827600 0.160500
C88 C 0.709400 0.603850 0.124800
H89 H 0.653900 0.642600 0.070800
C90 C 0.734700 0.404300 0.281700
H91 H 0.653100 0.442900 0.302500
C92 C 0.705800 0.639780 0.247900
H93 H 0.763400 0.602100 0.300800
H94 H 0.590400 0.644000 0.273900
C95 C 0.800700 0.404390 0.168200
C96 C 0.786800 0.724840 0.255300
H97 H 0.905500 0.720000 0.234600
C98 C 0.458700 0.512730 0.104000
C99 C 0.861500 0.504700 0.006000
H100 H 0.967200 0.473800 0.001900
C101 C 0.923300 0.346340 0.140500
H102 H 0.968100 0.345300 0.064900
C103 C 0.790400 0.346720 0.363600
H104 H 0.744600 0.346900 0.438900
C105 C 0.771200 0.761430 0.378300
H106 H 0.817900 0.816500 0.379100
H107 H 0.655300 0.763900 0.400200
H108 H 0.830800 0.726900 0.433100
C109 C 0.795200 0.520500 -0.117100
H110 H 0.781500 0.468400 -0.157300
H111 H 0.689100 0.548400 -0.112200
H112 H 0.873100 0.554800 -0.159500
C113 C 0.392700 0.428410 0.072600
H114 H 0.275100 0.432200 0.056100
H115 H 0.450300 0.408000 0.004300
H116 H 0.410500 0.390900 0.137100
C117 C 0.911900 0.289310 0.335900
H118 H 0.948200 0.250600 0.391200
C119 C 0.979300 0.290520 0.222700
H120 H 1.063300 0.253000 0.202700
C121 C 0.885600 0.584480 0.078600
H122 H 0.927200 0.629600 0.029900
H123 H 0.963200 0.575300 0.143000
N124 N 0.263100 0.542840 0.577220
O125 O 0.632900 0.427000 0.622200
N126 N 0.373500 0.479110 0.617200
O127 O 0.295500 0.222850 0.671130
H128 H 0.236300 0.172400 0.660500
C129 C 0.290600 0.396150 0.624800
H130 H 0.346100 0.357400 0.570800
C131 C 0.265300 0.595700 0.781700
H132 H 0.346900 0.557100 0.802500
C133 C 0.294200 0.360220 0.747900
H134 H 0.236600 0.397900 0.800800
H135 H 0.409600 0.356000 0.773900
C136 C 0.199300 0.595610 0.668200
C137 C 0.213200 0.275160 0.755300
H138 H 0.094500 0.280000 0.734600
C139 C 0.541300 0.487270 0.604000
C140 C 0.138500 0.495300 0.506000
H141 H 0.032800 0.526200 0.501900
C142 C 0.076700 0.653660 0.640500
H143 H 0.031900 0.654700 0.564900
C144 C 0.209600 0.653280 0.863600
H145 H 0.255400 0.653100 0.938900
C146 C 0.228800 0.238570 0.878300
H147 H 0.182100 0.183500 0.879100
H148 H 0.344700 0.236100 0.900200
H149 H 0.169200 0.273100 0.933100
C150 C 0.204800 0.479500 0.382900
H151 H 0.218500 0.531600 0.342700
H152 H 0.310900 0.451600 0.387800
H153 H 0.126900 0.445200 0.340500
C154 C 0.607300 0.571590 0.572600
H155 H 0.724900 0.567800 0.556100
H156 H 0.549700 0.592000 0.504300
H157 H 0.589500 0.609100 0.637100
C158 C 0.088100 0.710690 0.835900
H159 H 0.051800 0.749400 0.891200
C160 C 0.020700 0.709480 0.722700
H161 H -0.063300 0.747000 0.702700
C162 C 0.114400 0.415520 0.578600
H163 H 0.072800 0.370400 0.529900
H164 H 0.036800 0.424700 0.643000

#END
