./LAFLUA_from_xyz.cif_generated_by_CrystalShift
_symmetry_cell_setting triclinic
_symmetry_space_group_name_H-M 'P 1'
loop_
_symmetry_equiv_pos_site_id
_symmetry_equiv_pos_as_xyz
1 x,y,z
_cell_length_a 10.027900
_cell_length_b 11.107600
_cell_length_c 17.085600
_cell_angle_alpha 90.000000
_cell_angle_beta 105.522000
_cell_angle_gamma 90.000000
_cell_volume 1833.684843
loop_
_atom_site_label
_atom_site_type_symbol
_atom_site_fract_x
_atom_site_fract_y
_atom_site_fract_z
C1 C 0.283600 0.565800 0.350390
H2 H 0.219400 0.576300 0.297200
H3 H 0.267300 0.629600 0.385500
C4 C 0.430600 0.573000 0.343620
H5 H 0.435400 0.534200 0.293600
H6 H 0.455300 0.656900 0.340500
C7 C 0.532400 0.516000 0.412340
H8 H 0.625600 0.523600 0.414200
C9 C 0.500900 0.454500 0.471910
C10 C 0.351600 0.432200 0.474630
C11 C 0.336900 0.303700 0.503570
H12 H 0.383400 0.249000 0.475300
H13 H 0.383100 0.298400 0.561100
C14 C 0.187200 0.263500 0.489670
H15 H 0.143400 0.312300 0.522800
H16 H 0.185700 0.180500 0.507100
C17 C 0.103700 0.273700 0.400410
H18 H 0.150200 0.223000 0.368800
C19 C 0.104800 0.404100 0.368200
C20 C 0.259400 0.443400 0.385320
H21 H 0.299600 0.385400 0.354900
C22 C 0.035800 0.409000 0.274760
H23 H -0.056800 0.376200 0.265100
H24 H 0.026000 0.493000 0.258900
C25 C 0.106000 0.344900 0.218070
H26 H 0.199700 0.375300 0.227600
H27 H 0.111900 0.259700 0.230900
C28 C 0.032300 0.360400 0.129530
C29 C 0.048200 0.287200 0.064800
H30 H 0.106000 0.220700 0.068900
C31 C -0.035500 0.331800 -0.003300
H32 H -0.045900 0.299100 -0.054700
C33 C -0.059500 0.443300 0.094100
H34 H -0.090500 0.503700 0.122600
C35 C -0.042100 0.220000 0.390200
H36 H -0.094300 0.225900 0.334400
H37 H -0.088600 0.263700 0.423600
H38 H -0.033900 0.136900 0.406400
C39 C 0.618400 0.414600 0.541090
C40 C 0.317500 0.524800 0.534060
H41 H 0.327300 0.604800 0.515100
H42 H 0.380000 0.514100 0.587000
H43 H 0.224200 0.513000 0.537000
C44 C 0.017300 0.489600 0.405260
H45 H 0.020200 0.569300 0.383900
H46 H 0.053800 0.491100 0.463200
H47 H -0.076800 0.461800 0.391700
O48 O 0.735280 0.395500 0.522390
O49 O 0.608010 0.400800 0.610250
O50 O -0.103600 0.431300 0.012100
H51 H 0.804000 0.378000 0.570000
C52 C 0.716400 1.065800 0.649610
H53 H 0.780600 1.076300 0.702800
H54 H 0.732700 1.129600 0.614500
C55 C 0.569400 1.073000 0.656380
H56 H 0.564600 1.034200 0.706400
H57 H 0.544700 1.156900 0.659500
C58 C 0.467600 1.016000 0.587660
H59 H 0.374400 1.023600 0.585800
C60 C 0.499100 0.954500 0.528090
C61 C 0.648400 0.932200 0.525370
C62 C 0.663100 0.803700 0.496430
H63 H 0.616600 0.749000 0.524700
H64 H 0.616900 0.798400 0.438900
C65 C 0.812800 0.763500 0.510330
H66 H 0.856600 0.812300 0.477200
H67 H 0.814300 0.680500 0.492900
C68 C 0.896300 0.773700 0.599590
H69 H 0.849800 0.723000 0.631200
C70 C 0.895200 0.904100 0.631800
C71 C 0.740600 0.943400 0.614680
H72 H 0.700400 0.885400 0.645100
C73 C 0.964200 0.909000 0.725240
H74 H 1.056800 0.876200 0.734900
H75 H 0.974000 0.993000 0.741100
C76 C 0.894000 0.844900 0.781930
H77 H 0.800300 0.875300 0.772400
H78 H 0.888100 0.759700 0.769100
C79 C 0.967700 0.860400 0.870470
C80 C 0.951800 0.787200 0.935200
H81 H 0.894000 0.720700 0.931100
C82 C 1.035500 0.831800 1.003300
H83 H 1.045900 0.799100 1.054700
C84 C 1.059500 0.943300 0.905900
H85 H 1.090500 1.003700 0.877400
C86 C 1.042100 0.720000 0.609800
H87 H 1.094300 0.725900 0.665600
H88 H 1.088600 0.763700 0.576400
H89 H 1.033900 0.636900 0.593600
C90 C 0.381600 0.914600 0.458910
C91 C 0.682500 1.024800 0.465940
H92 H 0.672700 1.104800 0.484900
H93 H 0.620000 1.014100 0.413000
H94 H 0.775800 1.013000 0.463000
C95 C 0.982700 0.989600 0.594740
H96 H 0.979800 1.069300 0.616100
H97 H 0.946200 0.991100 0.536800
H98 H 1.076800 0.961800 0.608300
O99 O 0.264720 0.895500 0.477610
O100 O 0.391990 0.900800 0.389750
O101 O 1.103600 0.931300 0.987900
H102 H 0.196000 0.878000 0.430000
C103 C 0.306900 0.507400 0.906830
H104 H 0.373400 0.514200 0.959600
H105 H 0.337000 0.559400 0.869300
C106 C 0.167800 0.547400 0.913200
H107 H 0.155700 0.521500 0.965100
H108 H 0.164000 0.634600 0.911800
C109 C 0.051900 0.498800 0.846780
H110 H -0.037100 0.525600 0.844100
C111 C 0.066400 0.419200 0.790730
C112 C 0.206700 0.367200 0.789260
C113 C 0.195000 0.232900 0.767450
H114 H 0.146000 0.191900 0.801500
H115 H 0.141400 0.223600 0.711400
C116 C 0.336400 0.174300 0.778590
H117 H 0.381900 0.211500 0.741300
H118 H 0.323200 0.089800 0.764300
C119 C 0.431400 0.184700 0.865320
H120 H 0.386100 0.140900 0.900900
C121 C 0.448600 0.316600 0.895740
C122 C 0.302700 0.376900 0.877290
H123 H 0.253900 0.332800 0.910900
C124 C 0.515600 0.318400 0.989630
H125 H 0.600500 0.272000 1.000600
H126 H 0.541300 0.400900 1.005300
C127 C 0.430700 0.271500 1.044420
H128 H 0.346400 0.318500 1.035100
H129 H 0.404600 0.188800 1.029700
C130 C 0.505600 0.276400 1.133780
C131 C 0.455700 0.233600 1.198880
H132 H 0.371700 0.195200 1.195100
C133 C 0.554700 0.259800 1.267240
H134 H 0.549100 0.240800 1.319300
C135 C 0.630100 0.324200 1.168360
H136 H 0.687200 0.358100 1.139500
C137 C 0.568800 0.120500 0.870620
H138 H 0.627600 0.126800 0.924900
H139 H 0.613400 0.157300 0.833500
H140 H 0.551400 0.037100 0.856700
C141 C -0.058500 0.391100 0.723620
C142 C 0.257300 0.437600 0.724260
H143 H 0.345700 0.407100 0.722000
H144 H 0.265700 0.521500 0.738400
H145 H 0.191700 0.428000 0.672200
C146 C 0.549700 0.386100 0.858150
H147 H 0.558500 0.467400 0.877900
H148 H 0.514800 0.386400 0.800100
H149 H 0.638700 0.347600 0.873100
O150 O -0.177150 0.405300 0.742100
O151 O -0.054790 0.361600 0.655420
O152 O 0.662900 0.317000 1.251040
H153 H -0.241000 0.386000 0.701000
C154 C 0.693100 1.007400 0.093170
H155 H 0.626600 1.014200 0.040400
H156 H 0.663000 1.059400 0.130700
C157 C 0.832200 1.047400 0.086800
H158 H 0.844300 1.021500 0.034900
H159 H 0.836000 1.134600 0.088200
C160 C 0.948100 0.998800 0.153220
H161 H 1.037100 1.025600 0.155900
C162 C 0.933600 0.919200 0.209270
C163 C 0.793300 0.867200 0.210740
C164 C 0.805000 0.732900 0.232550
H165 H 0.854000 0.691900 0.198500
H166 H 0.858600 0.723600 0.288600
C167 C 0.663600 0.674300 0.221410
H168 H 0.618100 0.711500 0.258700
H169 H 0.676800 0.589800 0.235700
C170 C 0.568600 0.684700 0.134680
H171 H 0.613900 0.640900 0.099100
C172 C 0.551400 0.816600 0.104260
C173 C 0.697300 0.876900 0.122710
H174 H 0.746100 0.832800 0.089100
C175 C 0.484400 0.818400 0.010370
H176 H 0.399500 0.772000 -0.000600
H177 H 0.458700 0.900900 -0.005300
C178 C 0.569300 0.771500 -0.044420
H179 H 0.653600 0.818500 -0.035100
H180 H 0.595400 0.688800 -0.029700
C181 C 0.494400 0.776400 -0.133780
C182 C 0.544300 0.733600 -0.198880
H183 H 0.628300 0.695200 -0.195100
C184 C 0.445300 0.759800 -0.267240
H185 H 0.450900 0.740800 -0.319300
C186 C 0.369900 0.824200 -0.168360
H187 H 0.312800 0.858100 -0.139500
C188 C 0.431200 0.620500 0.129380
H189 H 0.372400 0.626800 0.075100
H190 H 0.386600 0.657300 0.166500
H191 H 0.448600 0.537100 0.143300
C192 C 1.058500 0.891100 0.276380
C193 C 0.742700 0.937600 0.275740
H194 H 0.654300 0.907100 0.278000
H195 H 0.734300 1.021500 0.261600
H196 H 0.808300 0.928000 0.327800
C197 C 0.450300 0.886100 0.141850
H198 H 0.441500 0.967400 0.122100
H199 H 0.485200 0.886400 0.199900
H200 H 0.361300 0.847600 0.126900
O201 O 1.177150 0.905300 0.257900
O202 O 1.054790 0.861600 0.344580
O203 O 0.337100 0.817000 -0.251040
H204 H 1.241000 0.886000 0.299000

#END
