
#######################################################################
#
#                 Cambridge Crystallographic Data Centre
#                                CCDC 
#
#######################################################################
#
# If this CIF has been generated from an entry in the Cambridge 
# Structural Database, then it will include bibliographic, chemical, 
# crystal, experimental, refinement or atomic coordinate data resulting 
# from the CCDC's data processing and validation procedures.
#
#######################################################################

data_LAFNEM
_symmetry_cell_setting           monoclinic
_symmetry_space_group_name_H-M   'P 21/c'
_symmetry_Int_Tables_number      14
_space_group_name_Hall           '-P 2ybc'
loop_
_symmetry_equiv_pos_site_id
_symmetry_equiv_pos_as_xyz
1 x,y,z
2 -x,1/2+y,1/2-z
3 -x,-y,-z
4 x,1/2-y,1/2+z
_cell_length_a                   7.033(4)
_cell_length_b                   14.768(9)
_cell_length_c                   10.377(6)
_cell_angle_alpha                90
_cell_angle_beta                 96.026(9)
_cell_angle_gamma                90
_cell_volume                     1071.83
loop_
_atom_site_label
_atom_site_type_symbol
_atom_site_fract_x
_atom_site_fract_y
_atom_site_fract_z
N1 N 0.2401(3) 1.13357(14) -0.0792(2)
N2 N 0.3080(4) 0.81363(14) 0.3481(2)
O1 O 0.2521(3) 0.98198(12) -0.07068(16)
O2 O 0.2123(4) 0.88650(15) 0.5161(2)
C1 C 0.2549(3) 1.05977(15) 0.1316(2)
C2 C 0.2590(3) 0.97793(16) 0.1968(2)
H1 H 0.2586 0.9241 0.1503
C3 C 0.2639(4) 0.97534(16) 0.3310(2)
C4 C 0.2654(4) 1.05572(18) 0.3995(3)
H2 H 0.2675 1.0547 0.4893
C5 C 0.2639(5) 1.13765(19) 0.3347(3)
H3 H 0.2665 1.1916 0.3811
C6 C 0.2586(4) 1.13970(17) 0.2018(3)
H4 H 0.2575 1.1950 0.1588
C7 C 0.2485(3) 1.06295(17) -0.0106(2)
C8 C 0.2410(4) 1.00117(18) -0.2080(2)
H5 H 0.1253 0.9760 -0.2533
H6 H 0.3508 0.9768 -0.2454
C9 C 0.2388(4) 1.10435(18) -0.2142(3)
H7 H 0.3506 1.1269 -0.2513
H8 H 0.1250 1.1259 -0.2659
C10 C 0.2633(4) 0.88720(18) 0.3974(2)
C11 C 0.2238(5) 0.7923(2) 0.5584(3)
H9 H 0.1010 0.7710 0.5807
H10 H 0.3182 0.7849 0.6328
C12 C 0.2818(5) 0.7430(2) 0.4443(3)
H11 H 0.3999 0.7100 0.4668
H12 H 0.1833 0.7005 0.4112
N1 N 0.7599(3) 0.63357(14) 0.5792(2)
N2 N 0.6920(4) 0.31363(14) 0.1519(2)
O1 O 0.7479(3) 0.48198(12) 0.57068(16)
O2 O 0.7877(4) 0.38650(15) -0.0161(2)
C1 C 0.7451(3) 0.55977(15) 0.3684(2)
C2 C 0.7410(3) 0.47793(16) 0.3032(2)
H1 H 0.7414 0.4241 0.3497
C3 C 0.7361(4) 0.47534(16) 0.1690(2)
C4 C 0.7346(4) 0.55572(18) 0.1005(3)
H2 H 0.7325 0.5547 0.0107
C5 C 0.7361(5) 0.63765(19) 0.1653(3)
H3 H 0.7335 0.6916 0.1189
C6 C 0.7414(4) 0.63970(17) 0.2982(3)
H4 H 0.7425 0.6950 0.3412
C7 C 0.7515(3) 0.56295(17) 0.5106(2)
C8 C 0.7590(4) 0.50117(18) 0.7080(2)
H5 H 0.8747 0.4760 0.7533
H6 H 0.6492 0.4768 0.7454
C9 C 0.7612(4) 0.60435(18) 0.7142(3)
H7 H 0.6494 0.6269 0.7513
H8 H 0.8750 0.6259 0.7659
C10 C 0.7367(4) 0.38720(18) 0.1026(2)
C11 C 0.7762(5) 0.2923(2) -0.0584(3)
H9 H 0.8990 0.2710 -0.0807
H10 H 0.6818 0.2849 -0.1328
C12 C 0.7182(5) 0.2430(2) 0.0557(3)
H11 H 0.6001 0.2100 0.0332
H12 H 0.8167 0.2005 0.0888
N1 N 0.7599(3) -0.13357(14) 1.0792(2)
N2 N 0.6920(4) 0.18637(14) 0.6519(2)
O1 O 0.7479(3) 0.01802(12) 1.07068(16)
O2 O 0.7877(4) 0.11350(15) 0.4839(2)
C1 C 0.7451(3) -0.05977(15) 0.8684(2)
C2 C 0.7410(3) 0.02207(16) 0.8032(2)
H1 H 0.7414 0.0759 0.8497
C3 C 0.7361(4) 0.02466(16) 0.6690(2)
C4 C 0.7346(4) -0.05572(18) 0.6005(3)
H2 H 0.7325 -0.0547 0.5107
C5 C 0.7361(5) -0.13765(19) 0.6653(3)
H3 H 0.7335 -0.1916 0.6189
C6 C 0.7414(4) -0.13970(17) 0.7982(3)
H4 H 0.7425 -0.1950 0.8412
C7 C 0.7515(3) -0.06295(17) 1.0106(2)
C8 C 0.7590(4) -0.00117(18) 1.2080(2)
H5 H 0.8747 0.0240 1.2533
H6 H 0.6492 0.0232 1.2454
C9 C 0.7612(4) -0.10435(18) 1.2142(3)
H7 H 0.6494 -0.1269 1.2513
H8 H 0.8750 -0.1259 1.2659
C10 C 0.7367(4) 0.11280(18) 0.6026(2)
C11 C 0.7762(5) 0.2077(2) 0.4416(3)
H9 H 0.8990 0.2290 0.4193
H10 H 0.6818 0.2151 0.3672
C12 C 0.7182(5) 0.2570(2) 0.5557(3)
H11 H 0.6001 0.2900 0.5332
H12 H 0.8167 0.2995 0.5888
N1 N 0.2401(3) 0.36643(14) 0.4208(2)
N2 N 0.3080(4) 0.68637(14) 0.8481(2)
O1 O 0.2521(3) 0.51802(12) 0.42932(16)
O2 O 0.2123(4) 0.61350(15) 1.0161(2)
C1 C 0.2549(3) 0.44023(15) 0.6316(2)
C2 C 0.2590(3) 0.52207(16) 0.6968(2)
H1 H 0.2586 0.5759 0.6503
C3 C 0.2639(4) 0.52466(16) 0.8310(2)
C4 C 0.2654(4) 0.44428(18) 0.8995(3)
H2 H 0.2675 0.4453 0.9893
C5 C 0.2639(5) 0.36235(19) 0.8347(3)
H3 H 0.2665 0.3084 0.8811
C6 C 0.2586(4) 0.36030(17) 0.7018(3)
H4 H 0.2575 0.3050 0.6588
C7 C 0.2485(3) 0.43705(17) 0.4894(2)
C8 C 0.2410(4) 0.49883(18) 0.2920(2)
H5 H 0.1253 0.5240 0.2467
H6 H 0.3508 0.5232 0.2546
C9 C 0.2388(4) 0.39565(18) 0.2858(3)
H7 H 0.3506 0.3731 0.2487
H8 H 0.1250 0.3741 0.2341
C10 C 0.2633(4) 0.61280(18) 0.8974(2)
C11 C 0.2238(5) 0.7077(2) 1.0584(3)
H9 H 0.1010 0.7290 1.0807
H10 H 0.3182 0.7151 1.1328
C12 C 0.2818(5) 0.7570(2) 0.9443(3)
H11 H 0.3999 0.7900 0.9668
H12 H 0.1833 0.7995 0.9112

#END
