./LAFNEM_from_xyz.cif_generated_by_CrystalShift
_symmetry_cell_setting triclinic
_symmetry_space_group_name_H-M 'P 1'
loop_
_symmetry_equiv_pos_site_id
_symmetry_equiv_pos_as_xyz
1 x,y,z
_cell_length_a 7.033000
_cell_length_b 14.768000
_cell_length_c 10.377000
_cell_angle_alpha 90.000000
_cell_angle_beta 96.026000
_cell_angle_gamma 90.000000
_cell_volume 1071.834397
loop_
_atom_site_label
_atom_site_type_symbol
_atom_site_fract_x
_atom_site_fract_y
_atom_site_fract_z
N1 N 0.240100 1.133570 -0.079200
N2 N 0.308000 0.813630 0.348100
O3 O 0.252100 0.981980 -0.070680
O4 O 0.212300 0.886500 0.516100
C5 C 0.254900 1.059770 0.131600
C6 C 0.259000 0.977930 0.196800
H7 H 0.258600 0.924100 0.150300
C8 C 0.263900 0.975340 0.331000
C9 C 0.265400 1.055720 0.399500
H10 H 0.267500 1.054700 0.489300
C11 C 0.263900 1.137650 0.334700
H12 H 0.266500 1.191600 0.381100
C13 C 0.258600 1.139700 0.201800
H14 H 0.257500 1.195000 0.158800
C15 C 0.248500 1.062950 -0.010600
C16 C 0.241000 1.001170 -0.208000
H17 H 0.125300 0.976000 -0.253300
H18 H 0.350800 0.976800 -0.245400
C19 C 0.238800 1.104350 -0.214200
H20 H 0.350600 1.126900 -0.251300
H21 H 0.125000 1.125900 -0.265900
C22 C 0.263300 0.887200 0.397400
C23 C 0.223800 0.792300 0.558400
H24 H 0.101000 0.771000 0.580700
H25 H 0.318200 0.784900 0.632800
C26 C 0.281800 0.743000 0.444300
H27 H 0.399900 0.710000 0.466800
H28 H 0.183300 0.700500 0.411200
N29 N 0.759900 0.633570 0.579200
N30 N 0.692000 0.313630 0.151900
O31 O 0.747900 0.481980 0.570680
O32 O 0.787700 0.386500 -0.016100
C33 C 0.745100 0.559770 0.368400
C34 C 0.741000 0.477930 0.303200
H35 H 0.741400 0.424100 0.349700
C36 C 0.736100 0.475340 0.169000
C37 C 0.734600 0.555720 0.100500
H38 H 0.732500 0.554700 0.010700
C39 C 0.736100 0.637650 0.165300
H40 H 0.733500 0.691600 0.118900
C41 C 0.741400 0.639700 0.298200
H42 H 0.742500 0.695000 0.341200
C43 C 0.751500 0.562950 0.510600
C44 C 0.759000 0.501170 0.708000
H45 H 0.874700 0.476000 0.753300
H46 H 0.649200 0.476800 0.745400
C47 C 0.761200 0.604350 0.714200
H48 H 0.649400 0.626900 0.751300
H49 H 0.875000 0.625900 0.765900
C50 C 0.736700 0.387200 0.102600
C51 C 0.776200 0.292300 -0.058400
H52 H 0.899000 0.271000 -0.080700
H53 H 0.681800 0.284900 -0.132800
C54 C 0.718200 0.243000 0.055700
H55 H 0.600100 0.210000 0.033200
H56 H 0.816700 0.200500 0.088800
N57 N 0.759900 -0.133570 1.079200
N58 N 0.692000 0.186370 0.651900
O59 O 0.747900 0.018020 1.070680
O60 O 0.787700 0.113500 0.483900
C61 C 0.745100 -0.059770 0.868400
C62 C 0.741000 0.022070 0.803200
H63 H 0.741400 0.075900 0.849700
C64 C 0.736100 0.024660 0.669000
C65 C 0.734600 -0.055720 0.600500
H66 H 0.732500 -0.054700 0.510700
C67 C 0.736100 -0.137650 0.665300
H68 H 0.733500 -0.191600 0.618900
C69 C 0.741400 -0.139700 0.798200
H70 H 0.742500 -0.195000 0.841200
C71 C 0.751500 -0.062950 1.010600
C72 C 0.759000 -0.001170 1.208000
H73 H 0.874700 0.024000 1.253300
H74 H 0.649200 0.023200 1.245400
C75 C 0.761200 -0.104350 1.214200
H76 H 0.649400 -0.126900 1.251300
H77 H 0.875000 -0.125900 1.265900
C78 C 0.736700 0.112800 0.602600
C79 C 0.776200 0.207700 0.441600
H80 H 0.899000 0.229000 0.419300
H81 H 0.681800 0.215100 0.367200
C82 C 0.718200 0.257000 0.555700
H83 H 0.600100 0.290000 0.533200
H84 H 0.816700 0.299500 0.588800
N85 N 0.240100 0.366430 0.420800
N86 N 0.308000 0.686370 0.848100
O87 O 0.252100 0.518020 0.429320
O88 O 0.212300 0.613500 1.016100
C89 C 0.254900 0.440230 0.631600
C90 C 0.259000 0.522070 0.696800
H91 H 0.258600 0.575900 0.650300
C92 C 0.263900 0.524660 0.831000
C93 C 0.265400 0.444280 0.899500
H94 H 0.267500 0.445300 0.989300
C95 C 0.263900 0.362350 0.834700
H96 H 0.266500 0.308400 0.881100
C97 C 0.258600 0.360300 0.701800
H98 H 0.257500 0.305000 0.658800
C99 C 0.248500 0.437050 0.489400
C100 C 0.241000 0.498830 0.292000
H101 H 0.125300 0.524000 0.246700
H102 H 0.350800 0.523200 0.254600
C103 C 0.238800 0.395650 0.285800
H104 H 0.350600 0.373100 0.248700
H105 H 0.125000 0.374100 0.234100
C106 C 0.263300 0.612800 0.897400
C107 C 0.223800 0.707700 1.058400
H108 H 0.101000 0.729000 1.080700
H109 H 0.318200 0.715100 1.132800
C110 C 0.281800 0.757000 0.944300
H111 H 0.399900 0.790000 0.966800
H112 H 0.183300 0.799500 0.911200

#END
