./LAFRAM_from_xyz.cif_generated_by_CrystalShift
_symmetry_cell_setting triclinic
_symmetry_space_group_name_H-M 'P 1'
loop_
_symmetry_equiv_pos_site_id
_symmetry_equiv_pos_as_xyz
1 x,y,z
_cell_length_a 7.366200
_cell_length_b 8.883700
_cell_length_c 11.242000
_cell_angle_alpha 68.640000
_cell_angle_beta 81.328000
_cell_angle_gamma 85.050000
_cell_volume 676.907847
loop_
_atom_site_label
_atom_site_type_symbol
_atom_site_fract_x
_atom_site_fract_y
_atom_site_fract_z
C1 C 0.324500 0.300800 0.189700
O2 O 0.223200 0.662500 0.260510
O3 O 0.694600 0.409600 0.233570
O4 O 0.678900 0.326100 0.448870
O5 O 0.307300 0.288400 0.644810
O6 O 0.237800 0.037700 0.665600
N7 N 0.317400 0.420900 0.245300
C8 C 0.311900 0.138000 0.273900
C9 C 0.308700 0.018200 0.224200
H10 H 0.297300 -0.088600 0.280000
C11 C 0.321900 0.052800 0.093400
H12 H 0.318000 -0.029500 0.061200
C13 C 0.341100 0.211800 0.010400
H14 H 0.352100 0.235800 -0.078100
C15 C 0.344100 0.334800 0.057300
H16 H 0.359400 0.440800 0.000500
C17 C 0.398100 0.377200 0.365100
H18 H 0.358800 0.459200 0.403800
C19 C 0.328200 0.215200 0.458100
C20 C 0.293300 0.104900 0.411800
H21 H 0.255900 0.003700 0.468800
C22 C 0.218000 0.567700 0.206800
C23 C 0.100000 0.603000 0.101200
H24 H 0.040600 0.707700 0.085400
H25 H 0.008800 0.522400 0.126500
H26 H 0.175300 0.601500 0.024000
C27 C 0.606600 0.374100 0.337900
C28 C 0.877000 0.329800 0.435500
H29 H 0.916500 0.293600 0.519400
H30 H 0.915400 0.438300 0.387800
H31 H 0.930700 0.259900 0.390700
C32 C 0.292900 0.188500 0.597800
C33 C 0.188300 -0.000200 0.802200
H34 H 0.150600 -0.110100 0.841700
H35 H 0.088900 0.071000 0.816700
H36 H 0.292300 0.013300 0.839000
C37 C 0.675500 0.699200 0.810300
O38 O 0.776800 0.337500 0.739490
O39 O 0.305400 0.590400 0.766430
O40 O 0.321100 0.673900 0.551130
O41 O 0.692700 0.711600 0.355190
O42 O 0.762200 0.962300 0.334400
N43 N 0.682600 0.579100 0.754700
C44 C 0.688100 0.862000 0.726100
C45 C 0.691300 0.981800 0.775800
H46 H 0.702700 1.088600 0.720000
C47 C 0.678100 0.947200 0.906600
H48 H 0.682000 1.029500 0.938800
C49 C 0.658900 0.788200 0.989600
H50 H 0.647900 0.764200 1.078100
C51 C 0.655900 0.665200 0.942700
H52 H 0.640600 0.559200 0.999500
C53 C 0.601900 0.622800 0.634900
H54 H 0.641200 0.540800 0.596200
C55 C 0.671800 0.784800 0.541900
C56 C 0.706700 0.895100 0.588200
H57 H 0.744100 0.996300 0.531200
C58 C 0.782000 0.432300 0.793200
C59 C 0.900000 0.397000 0.898800
H60 H 0.959400 0.292300 0.914600
H61 H 0.991200 0.477600 0.873500
H62 H 0.824700 0.398500 0.976000
C63 C 0.393400 0.625900 0.662100
C64 C 0.123000 0.670200 0.564500
H65 H 0.083500 0.706400 0.480600
H66 H 0.084600 0.561700 0.612200
H67 H 0.069300 0.740100 0.609300
C68 C 0.707100 0.811500 0.402200
C69 C 0.811700 1.000200 0.197800
H70 H 0.849400 1.110100 0.158300
H71 H 0.911100 0.929000 0.183300
H72 H 0.707700 0.986700 0.161000

#END
