
#######################################################################
#
#                 Cambridge Crystallographic Data Centre
#                                CCDC 
#
#######################################################################
#
# If this CIF has been generated from an entry in the Cambridge 
# Structural Database, then it will include bibliographic, chemical, 
# crystal, experimental, refinement or atomic coordinate data resulting 
# from the CCDC's data processing and validation procedures.
#
#######################################################################

data_LAFSOA
_symmetry_cell_setting           triclinic
_symmetry_space_group_name_H-M   'P -1'
_symmetry_Int_Tables_number      2
_space_group_name_Hall           '-P 1'
loop_
_symmetry_equiv_pos_site_id
_symmetry_equiv_pos_as_xyz
1 x,y,z
2 -x,-y,-z
_cell_length_a                   8.394(3)
_cell_length_b                   8.540(3)
_cell_length_c                   10.415(3)
_cell_angle_alpha                71.64(3)
_cell_angle_beta                 81.60(3)
_cell_angle_gamma                66.50(3)
_cell_volume                     649.642
loop_
_atom_site_label
_atom_site_type_symbol
_atom_site_fract_x
_atom_site_fract_y
_atom_site_fract_z
Sn1 Sn 0.0129(1) 0.1328(1) 0.32857(9)
S1 S 0.1524(5) 0.2134(5) 0.5638(4)
S2 S 0.1355(5) 0.3836(5) 0.2856(4)
N1 N 0.185(1) 0.361(1) 0.441(1)
N2 N 0.068(1) 0.099(1) 0.533(1)
C1 C 0.219(2) -0.028(2) 0.211(1)
C2 C 0.215(2) 0.099(2) 0.065(2)
C3 C 0.193(2) -0.194(2) 0.213(2)
C4 C 0.393(2) -0.081(2) 0.271(2)
C5 C -0.247(2) 0.311(2) 0.251(1)
C6 C -0.347(2) 0.402(3) 0.359(2)
C7 C -0.334(2) 0.210(3) 0.213(3)
C8 C -0.226(2) 0.469(2) 0.136(2)
H1 H 0.0919(23) 0.1388(21) 0.0209(15)
H2 H 0.3188(23) 0.0306(21) 0.0044(15)
H3 H 0.2334(23) 0.2156(21) 0.0700(15)
H4 H 0.0692(17) -0.1576(18) 0.1702(16)
H5 H 0.1970(17) -0.2773(18) 0.3155(16)
H6 H 0.2959(17) -0.2667(18) 0.1531(16)
H7 H 0.4124(16) 0.0371(23) 0.2699(18)
H8 H 0.4949(16) -0.1535(23) 0.2109(18)
H9 H 0.3961(16) -0.1642(23) 0.3733(18)
H10 H -0.3717(23) 0.3047(28) 0.4464(20)
H11 H -0.4697(23) 0.5037(28) 0.3190(20)
H12 H -0.2718(23) 0.4618(28) 0.3874(20)
H13 H -0.2568(22) 0.1494(26) 0.1368(25)
H14 H -0.4615(22) 0.2997(26) 0.1741(25)
H15 H -0.3484(22) 0.1075(26) 0.3015(25)
H16 H -0.1562(21) 0.4214(22) 0.0520(20)
H17 H -0.1549(21) 0.5262(22) 0.1730(20)
H18 H -0.3529(21) 0.5680(22) 0.1045(20)
Sn1 Sn 0.9871(1) 0.8672(1) 0.67143(9)
S1 S 0.8476(5) 0.7866(5) 0.4362(4)
S2 S 0.8645(5) 0.6164(5) 0.7144(4)
N1 N 0.815(1) 0.639(1) 0.559(1)
N2 N 0.932(1) 0.901(1) 0.467(1)
C1 C 0.781(2) 1.028(2) 0.789(1)
C2 C 0.785(2) 0.901(2) 0.935(2)
C3 C 0.807(2) 1.194(2) 0.787(2)
C4 C 0.607(2) 1.081(2) 0.729(2)
C5 C 1.247(2) 0.689(2) 0.749(1)
C6 C 1.347(2) 0.598(3) 0.641(2)
C7 C 1.334(2) 0.790(3) 0.787(3)
C8 C 1.226(2) 0.531(2) 0.864(2)
H1 H 0.9081(23) 0.8612(21) 0.9791(15)
H2 H 0.6812(23) 0.9694(21) 0.9956(15)
H3 H 0.7666(23) 0.7844(21) 0.9300(15)
H4 H 0.9308(17) 1.1576(18) 0.8298(16)
H5 H 0.8030(17) 1.2773(18) 0.6845(16)
H6 H 0.7041(17) 1.2667(18) 0.8469(16)
H7 H 0.5876(16) 0.9629(23) 0.7301(18)
H8 H 0.5051(16) 1.1535(23) 0.7891(18)
H9 H 0.6039(16) 1.1642(23) 0.6267(18)
H10 H 1.3717(23) 0.6953(28) 0.5536(20)
H11 H 1.4697(23) 0.4963(28) 0.6810(20)
H12 H 1.2718(23) 0.5382(28) 0.6126(20)
H13 H 1.2568(22) 0.8506(26) 0.8632(25)
H14 H 1.4615(22) 0.7003(26) 0.8259(25)
H15 H 1.3484(22) 0.8925(26) 0.6985(25)
H16 H 1.1562(21) 0.5786(22) 0.9480(20)
H17 H 1.1549(21) 0.4738(22) 0.8270(20)
H18 H 1.3529(21) 0.4320(22) 0.8955(20)

#END
