
#######################################################################
#
#                 Cambridge Crystallographic Data Centre
#                                CCDC 
#
#######################################################################
#
# If this CIF has been generated from an entry in the Cambridge 
# Structural Database, then it will include bibliographic, chemical, 
# crystal, experimental, refinement or atomic coordinate data resulting 
# from the CCDC's data processing and validation procedures.
#
#######################################################################

data_LAFSIW
_symmetry_cell_setting           monoclinic
_symmetry_space_group_name_H-M   'C 2/c'
_symmetry_Int_Tables_number      15
_space_group_name_Hall           '-C 2yn'
loop_
_symmetry_equiv_pos_site_id
_symmetry_equiv_pos_as_xyz
1 x,y,z
2 -x,y,1/2-z
3 1/2+x,1/2+y,z
4 1/2-x,1/2+y,1/2-z
5 -x,-y,-z
6 x,-y,1/2+z
7 1/2-x,1/2-y,-z
8 1/2+x,1/2-y,1/2+z
_cell_length_a                   14.9539(5)
_cell_length_b                   9.0880(8)
_cell_length_c                   18.4755(10)
_cell_angle_alpha                90
_cell_angle_beta                 91.392(5)
_cell_angle_gamma                90
_cell_volume                     2510.1
loop_
_atom_site_label
_atom_site_type_symbol
_atom_site_fract_x
_atom_site_fract_y
_atom_site_fract_z
C1 C 0.12266(6) 0.92690(10) 0.43102(5)
C2 C 0.05256(6) 0.99929(10) 0.39269(5)
C3 C 0.17122(6) 0.99634(10) 0.48782(5)
C4 C 0.05167(6) 0.64719(10) 0.40467(5)
C5 C -0.01612(6) 0.68399(10) 0.45174(5)
H1 H -0.0095 0.7651 0.4838
C6 C -0.09381(7) 0.59926(11) 0.45075(6)
H2 H -0.1413 0.6232 0.4819
C7 C -0.10179(7) 0.47960(12) 0.40410(6)
H3 H -0.1550 0.4225 0.4034
C8 C -0.03259(8) 0.44261(12) 0.35833(6)
H4 H -0.0385 0.3598 0.3272
C9 C 0.04535(7) 0.52686(10) 0.35807(5)
H5 H 0.0929 0.5029 0.3270
C10 C 0.19429(6) 0.74395(9) 0.32088(5)
C11 C 0.14376(6) 0.80091(10) 0.26258(5)
H6 H 0.0851 0.8378 0.2694
C12 C 0.18131(7) 0.80223(11) 0.19460(5)
H7 H 0.1484 0.8414 0.1544
C13 C 0.26736(7) 0.74613(10) 0.18511(5)
H8 H 0.2926 0.7476 0.1384
C14 C 0.31632(6) 0.68818(11) 0.24359(5)
H9 H 0.3745 0.6497 0.2366
C15 C 0.27986(6) 0.68671(10) 0.31249(5)
H10 H 0.3127 0.6476 0.3527
N1 N -0.00588(6) 1.05588(10) 0.36104(5)
N2 N 0.21218(6) 1.05182(11) 0.53442(5)
S1 S 0.154140(14) 0.75001(2) 0.411059(11)
C1 C 0.87734(6) 0.92690(10) 0.06898(5)
C2 C 0.94744(6) 0.99929(10) 0.10731(5)
C3 C 0.82878(6) 0.99634(10) 0.01218(5)
C4 C 0.94833(6) 0.64719(10) 0.09533(5)
C5 C 1.01612(6) 0.68399(10) 0.04826(5)
H1 H 1.0095 0.7651 0.0162
C6 C 1.09381(7) 0.59926(11) 0.04925(6)
H2 H 1.1413 0.6232 0.0181
C7 C 1.10179(7) 0.47960(12) 0.09590(6)
H3 H 1.1550 0.4225 0.0966
C8 C 1.03259(8) 0.44261(12) 0.14167(6)
H4 H 1.0385 0.3598 0.1728
C9 C 0.95465(7) 0.52686(10) 0.14193(5)
H5 H 0.9071 0.5029 0.1730
C10 C 0.80571(6) 0.74395(9) 0.17912(5)
C11 C 0.85624(6) 0.80091(10) 0.23742(5)
H6 H 0.9149 0.8378 0.2306
C12 C 0.81869(7) 0.80223(11) 0.30540(5)
H7 H 0.8516 0.8414 0.3456
C13 C 0.73264(7) 0.74613(10) 0.31489(5)
H8 H 0.7074 0.7476 0.3616
C14 C 0.68368(6) 0.68818(11) 0.25641(5)
H9 H 0.6255 0.6497 0.2634
C15 C 0.72014(6) 0.68671(10) 0.18751(5)
H10 H 0.6873 0.6476 0.1473
N1 N 1.00588(6) 1.05588(10) 0.13896(5)
N2 N 0.78782(6) 1.05182(11) -0.03442(5)
S1 S 0.845860(14) 0.75001(2) 0.088941(11)
C1 C 0.62266(6) 0.42690(10) 0.43102(5)
C2 C 0.55256(6) 0.49929(10) 0.39269(5)
C3 C 0.67122(6) 0.49634(10) 0.48782(5)
C4 C 0.55167(6) 0.14719(10) 0.40467(5)
C5 C 0.48388(6) 0.18399(10) 0.45174(5)
H1 H 0.4905 0.2651 0.4838
C6 C 0.40619(7) 0.09926(11) 0.45075(6)
H2 H 0.3587 0.1232 0.4819
C7 C 0.39821(7) -0.02040(12) 0.40410(6)
H3 H 0.3450 -0.0775 0.4034
C8 C 0.46741(8) -0.05739(12) 0.35833(6)
H4 H 0.4615 -0.1402 0.3272
C9 C 0.54535(7) 0.02686(10) 0.35807(5)
H5 H 0.5929 0.0029 0.3270
C10 C 0.69429(6) 0.24395(9) 0.32088(5)
C11 C 0.64376(6) 0.30091(10) 0.26258(5)
H6 H 0.5851 0.3378 0.2694
C12 C 0.68131(7) 0.30223(11) 0.19460(5)
H7 H 0.6484 0.3414 0.1544
C13 C 0.76736(7) 0.24613(10) 0.18511(5)
H8 H 0.7926 0.2476 0.1384
C14 C 0.81632(6) 0.18818(11) 0.24359(5)
H9 H 0.8745 0.1497 0.2366
C15 C 0.77986(6) 0.18671(10) 0.31249(5)
H10 H 0.8127 0.1476 0.3527
N1 N 0.49412(6) 0.55588(10) 0.36104(5)
N2 N 0.71218(6) 0.55182(11) 0.53442(5)
S1 S 0.654140(14) 0.25001(2) 0.411059(11)
C1 C 0.37734(6) 0.42690(10) 0.06898(5)
C2 C 0.44744(6) 0.49929(10) 0.10731(5)
C3 C 0.32878(6) 0.49634(10) 0.01218(5)
C4 C 0.44833(6) 0.14719(10) 0.09533(5)
C5 C 0.51612(6) 0.18399(10) 0.04826(5)
H1 H 0.5095 0.2651 0.0162
C6 C 0.59381(7) 0.09926(11) 0.04925(6)
H2 H 0.6413 0.1232 0.0181
C7 C 0.60179(7) -0.02040(12) 0.09590(6)
H3 H 0.6550 -0.0775 0.0966
C8 C 0.53259(8) -0.05739(12) 0.14167(6)
H4 H 0.5385 -0.1402 0.1728
C9 C 0.45465(7) 0.02686(10) 0.14193(5)
H5 H 0.4071 0.0029 0.1730
C10 C 0.30571(6) 0.24395(9) 0.17912(5)
C11 C 0.35624(6) 0.30091(10) 0.23742(5)
H6 H 0.4149 0.3378 0.2306
C12 C 0.31869(7) 0.30223(11) 0.30540(5)
H7 H 0.3516 0.3414 0.3456
C13 C 0.23264(7) 0.24613(10) 0.31489(5)
H8 H 0.2074 0.2476 0.3616
C14 C 0.18368(6) 0.18818(11) 0.25641(5)
H9 H 0.1255 0.1497 0.2634
C15 C 0.22014(6) 0.18671(10) 0.18751(5)
H10 H 0.1873 0.1476 0.1473
N1 N 0.50588(6) 0.55588(10) 0.13896(5)
N2 N 0.28782(6) 0.55182(11) -0.03442(5)
S1 S 0.345860(14) 0.25001(2) 0.088941(11)
C1 C 0.87734(6) 0.07310(10) 0.56898(5)
C2 C 0.94744(6) 0.00071(10) 0.60731(5)
C3 C 0.82878(6) 0.00366(10) 0.51218(5)
C4 C 0.94833(6) 0.35281(10) 0.59533(5)
C5 C 1.01612(6) 0.31601(10) 0.54826(5)
H1 H 1.0095 0.2349 0.5162
C6 C 1.09381(7) 0.40074(11) 0.54925(6)
H2 H 1.1413 0.3768 0.5181
C7 C 1.10179(7) 0.52040(12) 0.59590(6)
H3 H 1.1550 0.5775 0.5966
C8 C 1.03259(8) 0.55739(12) 0.64167(6)
H4 H 1.0385 0.6402 0.6728
C9 C 0.95465(7) 0.47314(10) 0.64193(5)
H5 H 0.9071 0.4971 0.6730
C10 C 0.80571(6) 0.25605(9) 0.67912(5)
C11 C 0.85624(6) 0.19909(10) 0.73742(5)
H6 H 0.9149 0.1622 0.7306
C12 C 0.81869(7) 0.19777(11) 0.80540(5)
H7 H 0.8516 0.1586 0.8456
C13 C 0.73264(7) 0.25387(10) 0.81489(5)
H8 H 0.7074 0.2524 0.8616
C14 C 0.68368(6) 0.31182(11) 0.75641(5)
H9 H 0.6255 0.3503 0.7634
C15 C 0.72014(6) 0.31329(10) 0.68751(5)
H10 H 0.6873 0.3524 0.6473
N1 N 1.00588(6) -0.05588(10) 0.63896(5)
N2 N 0.78782(6) -0.05182(11) 0.46558(5)
S1 S 0.845860(14) 0.24999(2) 0.588941(11)
C1 C 0.12266(6) 0.07310(10) 0.93102(5)
C2 C 0.05256(6) 0.00071(10) 0.89269(5)
C3 C 0.17122(6) 0.00366(10) 0.98782(5)
C4 C 0.05167(6) 0.35281(10) 0.90467(5)
C5 C -0.01612(6) 0.31601(10) 0.95174(5)
H1 H -0.0095 0.2349 0.9838
C6 C -0.09381(7) 0.40074(11) 0.95075(6)
H2 H -0.1413 0.3768 0.9819
C7 C -0.10179(7) 0.52040(12) 0.90410(6)
H3 H -0.1550 0.5775 0.9034
C8 C -0.03259(8) 0.55739(12) 0.85833(6)
H4 H -0.0385 0.6402 0.8272
C9 C 0.04535(7) 0.47314(10) 0.85807(5)
H5 H 0.0929 0.4971 0.8270
C10 C 0.19429(6) 0.25605(9) 0.82088(5)
C11 C 0.14376(6) 0.19909(10) 0.76258(5)
H6 H 0.0851 0.1622 0.7694
C12 C 0.18131(7) 0.19777(11) 0.69460(5)
H7 H 0.1484 0.1586 0.6544
C13 C 0.26736(7) 0.25387(10) 0.68511(5)
H8 H 0.2926 0.2524 0.6384
C14 C 0.31632(6) 0.31182(11) 0.74359(5)
H9 H 0.3745 0.3503 0.7366
C15 C 0.27986(6) 0.31329(10) 0.81249(5)
H10 H 0.3127 0.3524 0.8527
N1 N -0.00588(6) -0.05588(10) 0.86104(5)
N2 N 0.21218(6) -0.05182(11) 1.03442(5)
S1 S 0.154140(14) 0.24999(2) 0.911059(11)
C1 C 0.37734(6) 0.57310(10) 0.56898(5)
C2 C 0.44744(6) 0.50071(10) 0.60731(5)
C3 C 0.32878(6) 0.50366(10) 0.51218(5)
C4 C 0.44833(6) 0.85281(10) 0.59533(5)
C5 C 0.51612(6) 0.81601(10) 0.54826(5)
H1 H 0.5095 0.7349 0.5162
C6 C 0.59381(7) 0.90074(11) 0.54925(6)
H2 H 0.6413 0.8768 0.5181
C7 C 0.60179(7) 1.02040(12) 0.59590(6)
H3 H 0.6550 1.0775 0.5966
C8 C 0.53259(8) 1.05739(12) 0.64167(6)
H4 H 0.5385 1.1402 0.6728
C9 C 0.45465(7) 0.97314(10) 0.64193(5)
H5 H 0.4071 0.9971 0.6730
C10 C 0.30571(6) 0.75605(9) 0.67912(5)
C11 C 0.35624(6) 0.69909(10) 0.73742(5)
H6 H 0.4149 0.6622 0.7306
C12 C 0.31869(7) 0.69777(11) 0.80540(5)
H7 H 0.3516 0.6586 0.8456
C13 C 0.23264(7) 0.75387(10) 0.81489(5)
H8 H 0.2074 0.7524 0.8616
C14 C 0.18368(6) 0.81182(11) 0.75641(5)
H9 H 0.1255 0.8503 0.7634
C15 C 0.22014(6) 0.81329(10) 0.68751(5)
H10 H 0.1873 0.8524 0.6473
N1 N 0.50588(6) 0.44412(10) 0.63896(5)
N2 N 0.28782(6) 0.44818(11) 0.46558(5)
S1 S 0.345860(14) 0.74999(2) 0.588941(11)
C1 C 0.62266(6) 0.57310(10) 0.93102(5)
C2 C 0.55256(6) 0.50071(10) 0.89269(5)
C3 C 0.67122(6) 0.50366(10) 0.98782(5)
C4 C 0.55167(6) 0.85281(10) 0.90467(5)
C5 C 0.48388(6) 0.81601(10) 0.95174(5)
H1 H 0.4905 0.7349 0.9838
C6 C 0.40619(7) 0.90074(11) 0.95075(6)
H2 H 0.3587 0.8768 0.9819
C7 C 0.39821(7) 1.02040(12) 0.90410(6)
H3 H 0.3450 1.0775 0.9034
C8 C 0.46741(8) 1.05739(12) 0.85833(6)
H4 H 0.4615 1.1402 0.8272
C9 C 0.54535(7) 0.97314(10) 0.85807(5)
H5 H 0.5929 0.9971 0.8270
C10 C 0.69429(6) 0.75605(9) 0.82088(5)
C11 C 0.64376(6) 0.69909(10) 0.76258(5)
H6 H 0.5851 0.6622 0.7694
C12 C 0.68131(7) 0.69777(11) 0.69460(5)
H7 H 0.6484 0.6586 0.6544
C13 C 0.76736(7) 0.75387(10) 0.68511(5)
H8 H 0.7926 0.7524 0.6384
C14 C 0.81632(6) 0.81182(11) 0.74359(5)
H9 H 0.8745 0.8503 0.7366
C15 C 0.77986(6) 0.81329(10) 0.81249(5)
H10 H 0.8127 0.8524 0.8527
N1 N 0.49412(6) 0.44412(10) 0.86104(5)
N2 N 0.71218(6) 0.44818(11) 1.03442(5)
S1 S 0.654140(14) 0.74999(2) 0.911059(11)

#END
