./LAFVIA_from_xyz.cif_generated_by_CrystalShift
_symmetry_cell_setting triclinic
_symmetry_space_group_name_H-M 'P 1'
loop_
_symmetry_equiv_pos_site_id
_symmetry_equiv_pos_as_xyz
1 x,y,z
_cell_length_a 23.874000
_cell_length_b 4.007100
_cell_length_c 17.265000
_cell_angle_alpha 90.000000
_cell_angle_beta 108.838000
_cell_angle_gamma 90.000000
_cell_volume 1563.194065
loop_
_atom_site_label
_atom_site_type_symbol
_atom_site_fract_x
_atom_site_fract_y
_atom_site_fract_z
C1 C 0.437800 0.675500 0.187900
C2 C 0.427100 0.508000 0.249400
H3 H 0.457500 0.439200 0.295600
C4 C 0.368000 0.445000 0.239400
C5 C 0.320100 0.549200 0.173400
C6 C 0.332700 0.718300 0.111400
H7 H 0.302500 0.788800 0.065200
C8 C 0.268500 0.437400 0.191700
C9 C 0.206200 0.459500 0.152400
C10 C 0.181700 0.616200 0.075900
H11 H 0.207000 0.704000 0.049900
C12 C 0.121400 0.643400 0.038300
H13 H 0.105900 0.753900 -0.011400
C14 C 0.084000 0.498000 0.077700
C15 C 0.105900 0.345800 0.150900
H16 H 0.079800 0.258300 0.175600
C17 C 0.167400 0.316000 0.190800
C18 C 0.192000 0.153500 0.269200
C19 C 0.155700 0.015200 0.311200
H20 H 0.114800 0.028200 0.288000
C21 C 0.179900 -0.138900 0.386000
H22 H 0.155000 -0.229500 0.412400
C23 C 0.240200 -0.160000 0.422100
H24 H 0.256000 -0.264700 0.472600
C25 C 0.276600 -0.029000 0.383900
H26 H 0.317400 -0.045000 0.408400
C27 C 0.253900 0.129800 0.308700
C28 C 0.288200 0.276100 0.265900
C29 C 0.542200 0.671000 0.255000
H30 H 0.537100 0.758400 0.304000
H31 H 0.577800 0.759300 0.248700
H32 H 0.544800 0.431900 0.258400
C33 C -0.015200 0.375000 0.067200
H34 H -0.003200 0.147500 0.079900
H35 H -0.054300 0.380800 0.028100
H36 H -0.015100 0.488400 0.116300
C37 C 0.391600 0.780400 0.119800
H38 H 0.400500 0.896100 0.078600
O39 O 0.493200 0.763600 0.186600
O40 O 0.350300 0.277700 0.297700
O41 O 0.025000 0.537100 0.033700
C42 C 0.437800 0.324500 0.687900
C43 C 0.427100 0.492000 0.749400
H44 H 0.457500 0.560800 0.795600
C45 C 0.368000 0.555000 0.739400
C46 C 0.320100 0.450800 0.673400
C47 C 0.332700 0.281700 0.611400
H48 H 0.302500 0.211200 0.565200
C49 C 0.268500 0.562600 0.691700
C50 C 0.206200 0.540500 0.652400
C51 C 0.181700 0.383800 0.575900
H52 H 0.207000 0.296000 0.549900
C53 C 0.121400 0.356600 0.538300
H54 H 0.105900 0.246100 0.488600
C55 C 0.084000 0.502000 0.577700
C56 C 0.105900 0.654200 0.650900
H57 H 0.079800 0.741700 0.675600
C58 C 0.167400 0.684000 0.690800
C59 C 0.192000 0.846500 0.769200
C60 C 0.155700 0.984800 0.811200
H61 H 0.114800 0.971800 0.788000
C62 C 0.179900 1.138900 0.886000
H63 H 0.155000 1.229500 0.912400
C64 C 0.240200 1.160000 0.922100
H65 H 0.256000 1.264700 0.972600
C66 C 0.276600 1.029000 0.883900
H67 H 0.317400 1.045000 0.908400
C68 C 0.253900 0.870200 0.808700
C69 C 0.288200 0.723900 0.765900
C70 C 0.542200 0.329000 0.755000
H71 H 0.537100 0.241600 0.804000
H72 H 0.577800 0.240700 0.748700
H73 H 0.544800 0.568100 0.758400
C74 C -0.015200 0.625000 0.567200
H75 H -0.003200 0.852500 0.579900
H76 H -0.054300 0.619200 0.528100
H77 H -0.015100 0.511600 0.616300
C78 C 0.391600 0.219600 0.619800
H79 H 0.400500 0.103900 0.578600
O80 O 0.493200 0.236400 0.686600
O81 O 0.350300 0.722300 0.797700
O82 O 0.025000 0.462900 0.533700
C83 C 0.914100 0.416100 0.744200
C84 C 0.876300 0.294900 0.671300
H85 H 0.891000 0.172400 0.636400
C86 C 0.817500 0.355900 0.651100
H87 H 0.792500 0.280800 0.600800
C88 C 0.793000 0.529100 0.703300
C89 C 0.731500 0.598500 0.683500
C90 C 0.679000 0.532000 0.614600
C91 C 0.665000 0.382500 0.538500
H92 H 0.694300 0.278300 0.522600
C93 C 0.607300 0.388100 0.486200
H94 H 0.598300 0.288300 0.435000
C95 C 0.562600 0.539900 0.508700
C96 C 0.574100 0.686700 0.583800
H97 H 0.544400 0.783500 0.600400
C98 C 0.632800 0.682100 0.633800
C99 C 0.711600 0.771600 0.738200
C100 C 0.748300 0.882400 0.816500
C101 C 0.725000 1.051700 0.871000
H102 H 0.684600 1.093500 0.856900
C103 C 0.762900 1.152500 0.944800
H104 H 0.748000 1.259600 0.981700
C105 C 0.822900 1.099200 0.965700
H106 H 0.848000 1.171700 1.016200
C107 C 0.846000 0.939500 0.912500
H108 H 0.886700 0.908100 0.927300
C109 C 0.809600 0.822500 0.836300
C110 C 0.832100 0.642400 0.779200
C111 C 0.893300 0.579800 0.797900
H112 H 0.919500 0.652000 0.847500
C113 C 1.014700 0.473000 0.829700
H114 H 1.010000 0.711200 0.830000
H115 H 1.053900 0.420200 0.829800
H116 H 1.008500 0.379700 0.877500
C117 C 0.459400 0.689000 0.468900
H118 H 0.455700 0.599600 0.518600
H119 H 0.423200 0.652700 0.424900
H120 H 0.467400 0.923700 0.475300
O121 O 0.972500 0.337800 0.758400
O122 O 0.651600 0.825200 0.711100
O123 O 0.507200 0.524100 0.450700
C124 C 0.914100 0.583900 0.244200
C125 C 0.876300 0.705100 0.171300
H126 H 0.891000 0.827600 0.136400
C127 C 0.817500 0.644100 0.151100
H128 H 0.792500 0.719200 0.100800
C129 C 0.793000 0.470900 0.203300
C130 C 0.731500 0.401500 0.183500
C131 C 0.679000 0.468000 0.114600
C132 C 0.665000 0.617500 0.038500
H133 H 0.694300 0.721700 0.022600
C134 C 0.607300 0.611900 -0.013800
H135 H 0.598300 0.711700 -0.065000
C136 C 0.562600 0.460100 0.008700
C137 C 0.574100 0.313300 0.083800
H138 H 0.544400 0.216500 0.100400
C139 C 0.632800 0.317900 0.133800
C140 C 0.711600 0.228400 0.238200
C141 C 0.748300 0.117600 0.316500
C142 C 0.725000 -0.051700 0.371000
H143 H 0.684600 -0.093500 0.356900
C144 C 0.762900 -0.152500 0.444800
H145 H 0.748000 -0.259600 0.481700
C146 C 0.822900 -0.099200 0.465700
H147 H 0.848000 -0.171700 0.516200
C148 C 0.846000 0.060500 0.412500
H149 H 0.886700 0.091900 0.427300
C150 C 0.809600 0.177500 0.336300
C151 C 0.832100 0.357600 0.279200
C152 C 0.893300 0.420200 0.297900
H153 H 0.919500 0.348000 0.347500
C154 C 1.014700 0.527000 0.329700
H155 H 1.010000 0.288800 0.330000
H156 H 1.053900 0.579800 0.329800
H157 H 1.008500 0.620300 0.377500
C158 C 0.459400 0.311000 -0.031100
H159 H 0.455700 0.400400 0.018600
H160 H 0.423200 0.347300 -0.075100
H161 H 0.467400 0.076300 -0.024700
O162 O 0.972500 0.662200 0.258400
O163 O 0.651600 0.174800 0.211100
O164 O 0.507200 0.475900 -0.049300

#END
