./LAFWIZ_from_xyz.cif_generated_by_CrystalShift
_symmetry_cell_setting triclinic
_symmetry_space_group_name_H-M 'P 1'
loop_
_symmetry_equiv_pos_site_id
_symmetry_equiv_pos_as_xyz
1 x,y,z
_cell_length_a 6.152200
_cell_length_b 17.970100
_cell_length_c 16.902300
_cell_angle_alpha 90.000000
_cell_angle_beta 94.423000
_cell_angle_gamma 90.000000
_cell_volume 1863.079710
loop_
_atom_site_label
_atom_site_type_symbol
_atom_site_fract_x
_atom_site_fract_y
_atom_site_fract_z
S1 S 0.949370 1.117170 0.278490
N2 N 0.620200 1.070710 0.177880
N3 N 0.657000 1.014200 0.298730
N4 N 0.491760 0.967970 0.271160
N5 N 0.688200 0.929200 0.429770
C6 C 0.830400 1.084520 0.062090
C7 C 0.878400 1.136600 -0.005930
H8 H 0.976500 1.112000 -0.039900
H9 H 0.950200 1.181000 0.015500
C10 C 0.669000 1.158500 -0.055100
C11 C 0.509000 1.192670 -0.003250
C12 C 0.460100 1.141310 0.065400
C13 C 0.670600 1.119580 0.113400
C14 C 0.731800 1.065690 0.248120
C15 C 0.420300 0.917500 0.316860
C16 C 0.490300 0.904710 0.402040
C17 C 0.746700 0.919220 0.506900
C18 C 0.613900 0.887070 0.559340
C19 C 0.411300 0.863520 0.531190
C20 C 0.348000 0.871690 0.451680
C21 C 0.240300 0.871520 0.278640
C22 C 0.248000 0.794070 0.281360
C23 C 0.078300 0.752850 0.245260
C24 C -0.099500 0.787740 0.207050
C25 C -0.106700 0.864150 0.203040
C26 C 0.063500 0.905810 0.238120
H27 H 0.962000 1.077500 0.095900
H28 H 0.733000 1.039600 0.035300
H29 H 0.612000 1.109900 -0.072800
H30 H 0.706000 1.187400 -0.100500
H31 H 0.372000 1.202200 -0.036300
H32 H 0.626000 1.233600 0.012900
H33 H 0.395000 1.085800 0.038600
H34 H 0.361000 1.166000 0.100900
H35 H 0.730000 1.166900 0.135500
H36 H 0.895000 0.936500 0.525400
H37 H 0.657000 0.880600 0.611500
H38 H 0.310000 0.842600 0.565800
H39 H 0.217000 0.859300 0.432100
H40 H 0.369000 0.771100 0.306700
H41 H 0.086000 0.701200 0.249200
H42 H -0.215000 0.762000 0.183600
H43 H -0.225000 0.888300 0.177200
H44 H 0.066000 0.958600 0.236700
H45 H 0.510000 1.040800 0.170700
H46 H 0.733000 1.005000 0.345100
S47 S -0.449370 0.617170 0.221510
N48 N -0.120200 0.570710 0.322120
N49 N -0.157000 0.514200 0.201270
N50 N 0.008240 0.467970 0.228840
N51 N -0.188200 0.429200 0.070230
C52 C -0.330400 0.584520 0.437910
C53 C -0.378400 0.636600 0.505930
H54 H -0.476500 0.612000 0.539900
H55 H -0.450200 0.681000 0.484500
C56 C -0.169000 0.658500 0.555100
C57 C -0.009000 0.692670 0.503250
C58 C 0.039900 0.641310 0.434600
C59 C -0.170600 0.619580 0.386600
C60 C -0.231800 0.565690 0.251880
C61 C 0.079700 0.417500 0.183140
C62 C 0.009700 0.404710 0.097960
C63 C -0.246700 0.419220 -0.006900
C64 C -0.113900 0.387070 -0.059340
C65 C 0.088700 0.363520 -0.031190
C66 C 0.152000 0.371690 0.048320
C67 C 0.259700 0.371520 0.221360
C68 C 0.252000 0.294070 0.218640
C69 C 0.421700 0.252850 0.254740
C70 C 0.599500 0.287740 0.292950
C71 C 0.606700 0.364150 0.296960
C72 C 0.436500 0.405810 0.261880
H73 H -0.462000 0.577500 0.404100
H74 H -0.233000 0.539600 0.464700
H75 H -0.112000 0.609900 0.572800
H76 H -0.206000 0.687400 0.600500
H77 H 0.128000 0.702200 0.536300
H78 H -0.126000 0.733600 0.487100
H79 H 0.105000 0.585800 0.461400
H80 H 0.139000 0.666000 0.399100
H81 H -0.230000 0.666900 0.364500
H82 H -0.395000 0.436500 -0.025400
H83 H -0.157000 0.380600 -0.111500
H84 H 0.190000 0.342600 -0.065800
H85 H 0.283000 0.359300 0.067900
H86 H 0.131000 0.271100 0.193300
H87 H 0.414000 0.201200 0.250800
H88 H 0.715000 0.262000 0.316400
H89 H 0.725000 0.388300 0.322800
H90 H 0.434000 0.458600 0.263300
H91 H -0.010000 0.540800 0.329300
H92 H -0.233000 0.505000 0.154900
S93 S 0.050630 -0.117170 0.721510
N94 N 0.379800 -0.070710 0.822120
N95 N 0.343000 -0.014200 0.701270
N96 N 0.508240 0.032030 0.728840
N97 N 0.311800 0.070800 0.570230
C98 C 0.169600 -0.084520 0.937910
C99 C 0.121600 -0.136600 1.005930
H100 H 0.023500 -0.112000 1.039900
H101 H 0.049800 -0.181000 0.984500
C102 C 0.331000 -0.158500 1.055100
C103 C 0.491000 -0.192670 1.003250
C104 C 0.539900 -0.141310 0.934600
C105 C 0.329400 -0.119580 0.886600
C106 C 0.268200 -0.065690 0.751880
C107 C 0.579700 0.082500 0.683140
C108 C 0.509700 0.095290 0.597960
C109 C 0.253300 0.080780 0.493100
C110 C 0.386100 0.112930 0.440660
C111 C 0.588700 0.136480 0.468810
C112 C 0.652000 0.128310 0.548320
C113 C 0.759700 0.128480 0.721360
C114 C 0.752000 0.205930 0.718640
C115 C 0.921700 0.247150 0.754740
C116 C 1.099500 0.212260 0.792950
C117 C 1.106700 0.135850 0.796960
C118 C 0.936500 0.094190 0.761880
H119 H 0.038000 -0.077500 0.904100
H120 H 0.267000 -0.039600 0.964700
H121 H 0.388000 -0.109900 1.072800
H122 H 0.294000 -0.187400 1.100500
H123 H 0.628000 -0.202200 1.036300
H124 H 0.374000 -0.233600 0.987100
H125 H 0.605000 -0.085800 0.961400
H126 H 0.639000 -0.166000 0.899100
H127 H 0.270000 -0.166900 0.864500
H128 H 0.105000 0.063500 0.474600
H129 H 0.343000 0.119400 0.388500
H130 H 0.690000 0.157400 0.434200
H131 H 0.783000 0.140700 0.567900
H132 H 0.631000 0.228900 0.693300
H133 H 0.914000 0.298800 0.750800
H134 H 1.215000 0.238000 0.816400
H135 H 1.225000 0.111700 0.822800
H136 H 0.934000 0.041400 0.763300
H137 H 0.490000 -0.040800 0.829300
H138 H 0.267000 -0.005000 0.654900
S139 S 1.449370 0.382830 0.778490
N140 N 1.120200 0.429290 0.677880
N141 N 1.157000 0.485800 0.798730
N142 N 0.991760 0.532030 0.771160
N143 N 1.188200 0.570800 0.929770
C144 C 1.330400 0.415480 0.562090
C145 C 1.378400 0.363400 0.494070
H146 H 1.476500 0.388000 0.460100
H147 H 1.450200 0.319000 0.515500
C148 C 1.169000 0.341500 0.444900
C149 C 1.009000 0.307330 0.496750
C150 C 0.960100 0.358690 0.565400
C151 C 1.170600 0.380420 0.613400
C152 C 1.231800 0.434310 0.748120
C153 C 0.920300 0.582500 0.816860
C154 C 0.990300 0.595290 0.902040
C155 C 1.246700 0.580780 1.006900
C156 C 1.113900 0.612930 1.059340
C157 C 0.911300 0.636480 1.031190
C158 C 0.848000 0.628310 0.951680
C159 C 0.740300 0.628480 0.778640
C160 C 0.748000 0.705930 0.781360
C161 C 0.578300 0.747150 0.745260
C162 C 0.400500 0.712260 0.707050
C163 C 0.393300 0.635850 0.703040
C164 C 0.563500 0.594190 0.738120
H165 H 1.462000 0.422500 0.595900
H166 H 1.233000 0.460400 0.535300
H167 H 1.112000 0.390100 0.427200
H168 H 1.206000 0.312600 0.399500
H169 H 0.872000 0.297800 0.463700
H170 H 1.126000 0.266400 0.512900
H171 H 0.895000 0.414200 0.538600
H172 H 0.861000 0.334000 0.600900
H173 H 1.230000 0.333100 0.635500
H174 H 1.395000 0.563500 1.025400
H175 H 1.157000 0.619400 1.111500
H176 H 0.810000 0.657400 1.065800
H177 H 0.717000 0.640700 0.932100
H178 H 0.869000 0.728900 0.806700
H179 H 0.586000 0.798800 0.749200
H180 H 0.285000 0.738000 0.683600
H181 H 0.275000 0.611700 0.677200
H182 H 0.566000 0.541400 0.736700
H183 H 1.010000 0.459200 0.670700
H184 H 1.233000 0.495000 0.845100

#END
