
#######################################################################
#
#                 Cambridge Crystallographic Data Centre
#                                CCDC 
#
#######################################################################
#
# If this CIF has been generated from an entry in the Cambridge 
# Structural Database, then it will include bibliographic, chemical, 
# crystal, experimental, refinement or atomic coordinate data resulting 
# from the CCDC's data processing and validation procedures.
#
#######################################################################

data_LAFWIZ
_symmetry_cell_setting           monoclinic
_symmetry_space_group_name_H-M   'P 21/n'
_symmetry_Int_Tables_number      14
_space_group_name_Hall           '-P 2yn'
loop_
_symmetry_equiv_pos_site_id
_symmetry_equiv_pos_as_xyz
1 x,y,z
2 1/2-x,1/2+y,1/2-z
3 -x,-y,-z
4 1/2+x,1/2-y,1/2+z
_cell_length_a                   6.1522(3)
_cell_length_b                   17.9701(8)
_cell_length_c                   16.9023(7)
_cell_angle_alpha                90
_cell_angle_beta                 94.423(1)
_cell_angle_gamma                90
_cell_volume                     1863.08
loop_
_atom_site_label
_atom_site_type_symbol
_atom_site_fract_x
_atom_site_fract_y
_atom_site_fract_z
S1 S 0.94937(7) 1.11717(2) 0.27849(3)
N1 N 0.6202(2) 1.07071(8) 0.17788(7)
N2 N 0.6570(2) 1.01420(7) 0.29873(7)
N3 N 0.49176(19) 0.96797(7) 0.27116(7)
N4 N 0.6882(2) 0.92920(8) 0.42977(8)
C1 C 0.8304(4) 1.08452(16) 0.06209(14)
C2 C 0.8784(4) 1.1366(2) -0.00593(16)
H1 H 0.9765 1.1120 -0.0399
H2 H 0.9502 1.1810 0.0155
C3 C 0.6690(5) 1.1585(2) -0.05510(14)
C4 C 0.5090(5) 1.19267(16) -0.00325(14)
C5 C 0.4601(3) 1.14131(12) 0.06540(11)
C6 C 0.6706(3) 1.11958(9) 0.11340(9)
C7 C 0.7318(2) 1.06569(7) 0.24812(8)
C8 C 0.4203(2) 0.91750(8) 0.31686(8)
C9 C 0.4903(2) 0.90471(8) 0.40204(8)
C10 C 0.7467(3) 0.91922(12) 0.50690(11)
C11 C 0.6139(4) 0.88707(12) 0.55934(11)
C12 C 0.4113(4) 0.86352(13) 0.53119(11)
C13 C 0.3480(3) 0.87169(11) 0.45168(10)
C14 C 0.2403(2) 0.87152(7) 0.27864(8)
C15 C 0.2480(3) 0.79407(9) 0.28136(9)
C16 C 0.0783(4) 0.75285(10) 0.24526(10)
C17 C -0.0995(3) 0.78774(11) 0.20705(11)
C18 C -0.1067(3) 0.86415(11) 0.20304(11)
C19 C 0.0635(3) 0.90581(10) 0.23812(10)
H3 H 0.962(4) 1.0775(14) 0.0959(15)
H4 H 0.733(3) 1.0396(12) 0.0353(12)
H5 H 0.612(5) 1.1099(17) -0.0728(16)
H6 H 0.706(4) 1.1874(16) -0.1005(17)
H7 H 0.372(5) 1.2022(15) -0.0363(16)
H8 H 0.626(5) 1.2336(16) 0.0129(16)
H9 H 0.395(4) 1.0858(16) 0.0386(17)
H10 H 0.361(3) 1.1660(12) 0.1009(13)
H11 H 0.730(3) 1.1669(11) 0.1355(10)
H12 H 0.895(4) 0.9365(13) 0.5254(13)
H13 H 0.657(5) 0.8806(14) 0.6115(17)
H14 H 0.310(4) 0.8426(13) 0.5658(14)
H15 H 0.217(3) 0.8593(11) 0.4321(11)
H16 H 0.369(4) 0.7711(12) 0.3067(12)
H17 H 0.086(3) 0.7012(13) 0.2492(12)
H18 H -0.215(4) 0.7620(13) 0.1836(13)
H19 H -0.225(4) 0.8883(13) 0.1772(14)
H20 H 0.066(3) 0.9586(12) 0.2367(11)
H21 H 0.510(3) 1.0408(11) 0.1707(11)
H22 H 0.733(3) 1.0050(11) 0.3451(12)
S1 S -0.44937(7) 0.61717(2) 0.22151(3)
N1 N -0.1202(2) 0.57071(8) 0.32212(7)
N2 N -0.1570(2) 0.51420(7) 0.20127(7)
N3 N 0.00824(19) 0.46797(7) 0.22884(7)
N4 N -0.1882(2) 0.42920(8) 0.07023(8)
C1 C -0.3304(4) 0.58452(16) 0.43791(14)
C2 C -0.3784(4) 0.6366(2) 0.50593(16)
H1 H -0.4765 0.6120 0.5399
H2 H -0.4502 0.6810 0.4845
C3 C -0.1690(5) 0.6585(2) 0.55510(14)
C4 C -0.0090(5) 0.69267(16) 0.50325(14)
C5 C 0.0399(3) 0.64131(12) 0.43460(11)
C6 C -0.1706(3) 0.61958(9) 0.38660(9)
C7 C -0.2318(2) 0.56569(7) 0.25188(8)
C8 C 0.0797(2) 0.41750(8) 0.18314(8)
C9 C 0.0097(2) 0.40471(8) 0.09796(8)
C10 C -0.2467(3) 0.41922(12) -0.00690(11)
C11 C -0.1139(4) 0.38707(12) -0.05934(11)
C12 C 0.0887(4) 0.36352(13) -0.03119(11)
C13 C 0.1520(3) 0.37169(11) 0.04832(10)
C14 C 0.2597(2) 0.37152(7) 0.22136(8)
C15 C 0.2520(3) 0.29407(9) 0.21864(9)
C16 C 0.4217(4) 0.25285(10) 0.25474(10)
C17 C 0.5995(3) 0.28774(11) 0.29295(11)
C18 C 0.6067(3) 0.36415(11) 0.29696(11)
C19 C 0.4365(3) 0.40581(10) 0.26188(10)
H3 H -0.462(4) 0.5775(14) 0.4041(15)
H4 H -0.233(3) 0.5396(12) 0.4647(12)
H5 H -0.112(5) 0.6099(17) 0.5728(16)
H6 H -0.206(4) 0.6874(16) 0.6005(17)
H7 H 0.128(5) 0.7022(15) 0.5363(16)
H8 H -0.126(5) 0.7336(16) 0.4871(16)
H9 H 0.105(4) 0.5858(16) 0.4614(17)
H10 H 0.139(3) 0.6660(12) 0.3991(13)
H11 H -0.230(3) 0.6669(11) 0.3645(10)
H12 H -0.395(4) 0.4365(13) -0.0254(13)
H13 H -0.157(5) 0.3806(14) -0.1115(17)
H14 H 0.190(4) 0.3426(13) -0.0658(14)
H15 H 0.283(3) 0.3593(11) 0.0679(11)
H16 H 0.131(4) 0.2711(12) 0.1933(12)
H17 H 0.414(3) 0.2012(13) 0.2508(12)
H18 H 0.715(4) 0.2620(13) 0.3164(13)
H19 H 0.725(4) 0.3883(13) 0.3228(14)
H20 H 0.434(3) 0.4586(12) 0.2633(11)
H21 H -0.010(3) 0.5408(11) 0.3293(11)
H22 H -0.233(3) 0.5050(11) 0.1549(12)
S1 S 0.05063(7) -0.11717(2) 0.72151(3)
N1 N 0.3798(2) -0.07071(8) 0.82212(7)
N2 N 0.3430(2) -0.01420(7) 0.70127(7)
N3 N 0.50824(19) 0.03203(7) 0.72884(7)
N4 N 0.3118(2) 0.07080(8) 0.57023(8)
C1 C 0.1696(4) -0.08452(16) 0.93791(14)
C2 C 0.1216(4) -0.1366(2) 1.00593(16)
H1 H 0.0235 -0.1120 1.0399
H2 H 0.0498 -0.1810 0.9845
C3 C 0.3310(5) -0.1585(2) 1.05510(14)
C4 C 0.4910(5) -0.19267(16) 1.00325(14)
C5 C 0.5399(3) -0.14131(12) 0.93460(11)
C6 C 0.3294(3) -0.11958(9) 0.88660(9)
C7 C 0.2682(2) -0.06569(7) 0.75188(8)
C8 C 0.5797(2) 0.08250(8) 0.68314(8)
C9 C 0.5097(2) 0.09529(8) 0.59796(8)
C10 C 0.2533(3) 0.08078(12) 0.49310(11)
C11 C 0.3861(4) 0.11293(12) 0.44066(11)
C12 C 0.5887(4) 0.13648(13) 0.46881(11)
C13 C 0.6520(3) 0.12831(11) 0.54832(10)
C14 C 0.7597(2) 0.12848(7) 0.72136(8)
C15 C 0.7520(3) 0.20593(9) 0.71864(9)
C16 C 0.9217(4) 0.24715(10) 0.75474(10)
C17 C 1.0995(3) 0.21226(11) 0.79295(11)
C18 C 1.1067(3) 0.13585(11) 0.79696(11)
C19 C 0.9365(3) 0.09419(10) 0.76188(10)
H3 H 0.038(4) -0.0775(14) 0.9041(15)
H4 H 0.267(3) -0.0396(12) 0.9647(12)
H5 H 0.388(5) -0.1099(17) 1.0728(16)
H6 H 0.294(4) -0.1874(16) 1.1005(17)
H7 H 0.628(5) -0.2022(15) 1.0363(16)
H8 H 0.374(5) -0.2336(16) 0.9871(16)
H9 H 0.605(4) -0.0858(16) 0.9614(17)
H10 H 0.639(3) -0.1660(12) 0.8991(13)
H11 H 0.270(3) -0.1669(11) 0.8645(10)
H12 H 0.105(4) 0.0635(13) 0.4746(13)
H13 H 0.343(5) 0.1194(14) 0.3885(17)
H14 H 0.690(4) 0.1574(13) 0.4342(14)
H15 H 0.783(3) 0.1407(11) 0.5679(11)
H16 H 0.631(4) 0.2289(12) 0.6933(12)
H17 H 0.914(3) 0.2988(13) 0.7508(12)
H18 H 1.215(4) 0.2380(13) 0.8164(13)
H19 H 1.225(4) 0.1117(13) 0.8228(14)
H20 H 0.934(3) 0.0414(12) 0.7633(11)
H21 H 0.490(3) -0.0408(11) 0.8293(11)
H22 H 0.267(3) -0.0050(11) 0.6549(12)
S1 S 1.44937(7) 0.38283(2) 0.77849(3)
N1 N 1.1202(2) 0.42929(8) 0.67788(7)
N2 N 1.1570(2) 0.48580(7) 0.79873(7)
N3 N 0.99176(19) 0.53203(7) 0.77116(7)
N4 N 1.1882(2) 0.57080(8) 0.92977(8)
C1 C 1.3304(4) 0.41548(16) 0.56209(14)
C2 C 1.3784(4) 0.3634(2) 0.49407(16)
H1 H 1.4765 0.3880 0.4601
H2 H 1.4502 0.3190 0.5155
C3 C 1.1690(5) 0.3415(2) 0.44490(14)
C4 C 1.0090(5) 0.30733(16) 0.49675(14)
C5 C 0.9601(3) 0.35869(12) 0.56540(11)
C6 C 1.1706(3) 0.38042(9) 0.61340(9)
C7 C 1.2318(2) 0.43431(7) 0.74812(8)
C8 C 0.9203(2) 0.58250(8) 0.81686(8)
C9 C 0.9903(2) 0.59529(8) 0.90204(8)
C10 C 1.2467(3) 0.58078(12) 1.00690(11)
C11 C 1.1139(4) 0.61293(12) 1.05934(11)
C12 C 0.9113(4) 0.63648(13) 1.03119(11)
C13 C 0.8480(3) 0.62831(11) 0.95168(10)
C14 C 0.7403(2) 0.62848(7) 0.77864(8)
C15 C 0.7480(3) 0.70593(9) 0.78136(9)
C16 C 0.5783(4) 0.74715(10) 0.74526(10)
C17 C 0.4005(3) 0.71226(11) 0.70705(11)
C18 C 0.3933(3) 0.63585(11) 0.70304(11)
C19 C 0.5635(3) 0.59419(10) 0.73812(10)
H3 H 1.462(4) 0.4225(14) 0.5959(15)
H4 H 1.233(3) 0.4604(12) 0.5353(12)
H5 H 1.112(5) 0.3901(17) 0.4272(16)
H6 H 1.206(4) 0.3126(16) 0.3995(17)
H7 H 0.872(5) 0.2978(15) 0.4637(16)
H8 H 1.126(5) 0.2664(16) 0.5129(16)
H9 H 0.895(4) 0.4142(16) 0.5386(17)
H10 H 0.861(3) 0.3340(12) 0.6009(13)
H11 H 1.230(3) 0.3331(11) 0.6355(10)
H12 H 1.395(4) 0.5635(13) 1.0254(13)
H13 H 1.157(5) 0.6194(14) 1.1115(17)
H14 H 0.810(4) 0.6574(13) 1.0658(14)
H15 H 0.717(3) 0.6407(11) 0.9321(11)
H16 H 0.869(4) 0.7289(12) 0.8067(12)
H17 H 0.586(3) 0.7988(13) 0.7492(12)
H18 H 0.285(4) 0.7380(13) 0.6836(13)
H19 H 0.275(4) 0.6117(13) 0.6772(14)
H20 H 0.566(3) 0.5414(12) 0.7367(11)
H21 H 1.010(3) 0.4592(11) 0.6707(11)
H22 H 1.233(3) 0.4950(11) 0.8451(12)

#END
