./LAFWOF_from_xyz.cif_generated_by_CrystalShift
_symmetry_cell_setting triclinic
_symmetry_space_group_name_H-M 'P 1'
loop_
_symmetry_equiv_pos_site_id
_symmetry_equiv_pos_as_xyz
1 x,y,z
_cell_length_a 11.118000
_cell_length_b 5.564000
_cell_length_c 15.194000
_cell_angle_alpha 90.000000
_cell_angle_beta 103.760000
_cell_angle_gamma 90.000000
_cell_volume 912.934377
loop_
_atom_site_label
_atom_site_type_symbol
_atom_site_fract_x
_atom_site_fract_y
_atom_site_fract_z
O1 O 0.236880 0.241100 0.270580
O2 O 0.263050 0.526900 0.424020
O3 O 0.019130 0.348500 0.121450
H4 H 0.061000 0.372000 0.172000
O5 O 0.686830 0.476500 0.089880
O6 O 0.858320 0.598800 0.392300
O7 O 0.905040 0.867100 0.295110
N8 N 0.591710 0.387800 0.136780
C9 C 0.430420 0.354300 0.254690
C10 C 0.341150 0.377000 0.304220
C11 C 0.357630 0.522100 0.380850
C12 C 0.469370 0.643500 0.406440
H13 H 0.482800 0.747300 0.455800
C14 C 0.562260 0.613000 0.359450
H15 H 0.637100 0.693600 0.379400
C16 C 0.545860 0.465300 0.283660
C17 C 0.649570 0.404800 0.236520
H18 H 0.686300 0.249400 0.258500
C19 C 0.560900 0.144800 0.101480
H20 H 0.635800 0.048900 0.111600
H21 H 0.525600 0.152700 0.036700
C22 C 0.468900 0.025300 0.147560
H23 H 0.514400 -0.052500 0.202500
H24 H 0.424600 -0.098600 0.107800
C25 C 0.374040 0.198800 0.171910
C26 C 0.314050 0.363200 0.093250
H27 H 0.366000 0.466300 0.071300
C28 C 0.194680 0.371500 0.053720
H29 H 0.168200 0.483300 0.007700
C30 C 0.099600 0.212100 0.078410
H31 H 0.048300 0.147600 0.021800
C32 C 0.158900 0.000000 0.134740
H33 H 0.181900 -0.119100 0.095100
H34 H 0.098700 -0.072800 0.163400
C35 C 0.272700 0.069100 0.207150
H36 H 0.307800 -0.075300 0.240500
C37 C 0.278400 0.681300 0.501120
H38 H 0.207400 0.667900 0.526500
H39 H 0.286700 0.844500 0.482900
H40 H 0.351400 0.635200 0.545700
C41 C 0.751880 0.585900 0.237310
C42 C 0.766480 0.602600 0.152920
H43 H 0.828500 0.696400 0.138700
C44 C 0.840910 0.679600 0.316560
C45 C 1.001800 0.967500 0.366800
H46 H 1.014300 1.133300 0.353900
H47 H 1.077400 0.880000 0.370700
H48 H 0.978100 0.955600 0.423400
O49 O 0.763120 0.741100 0.729420
O50 O 0.736950 1.026900 0.575980
O51 O 0.980870 0.848500 0.878550
H52 H 0.939000 0.872000 0.828000
O53 O 0.313170 0.976500 0.910120
O54 O 0.141680 1.098800 0.607700
O55 O 0.094960 1.367100 0.704890
N56 N 0.408290 0.887800 0.863220
C57 C 0.569580 0.854300 0.745310
C58 C 0.658850 0.877000 0.695780
C59 C 0.642370 1.022100 0.619150
C60 C 0.530630 1.143500 0.593560
H61 H 0.517200 1.247300 0.544200
C62 C 0.437740 1.113000 0.640550
H63 H 0.362900 1.193600 0.620600
C64 C 0.454140 0.965300 0.716340
C65 C 0.350430 0.904800 0.763480
H66 H 0.313700 0.749400 0.741500
C67 C 0.439100 0.644800 0.898520
H68 H 0.364200 0.548900 0.888400
H69 H 0.474400 0.652700 0.963300
C70 C 0.531100 0.525300 0.852440
H71 H 0.485600 0.447500 0.797500
H72 H 0.575400 0.401400 0.892200
C73 C 0.625960 0.698800 0.828090
C74 C 0.685950 0.863200 0.906750
H75 H 0.634000 0.966300 0.928700
C76 C 0.805320 0.871500 0.946280
H77 H 0.831800 0.983300 0.992300
C78 C 0.900400 0.712100 0.921590
H79 H 0.951700 0.647600 0.978200
C80 C 0.841100 0.500000 0.865260
H81 H 0.818100 0.380900 0.904900
H82 H 0.901300 0.427200 0.836600
C83 C 0.727300 0.569100 0.792850
H84 H 0.692200 0.424700 0.759500
C85 C 0.721600 1.181300 0.498880
H86 H 0.792600 1.167900 0.473500
H87 H 0.713300 1.344500 0.517100
H88 H 0.648600 1.135200 0.454300
C89 C 0.248120 1.085900 0.762690
C90 C 0.233520 1.102600 0.847080
H91 H 0.171500 1.196400 0.861300
C92 C 0.159090 1.179600 0.683440
C93 C -0.001800 1.467500 0.633200
H94 H -0.014300 1.633300 0.646100
H95 H -0.077400 1.380000 0.629300
H96 H 0.021900 1.455600 0.576600

#END
