
#######################################################################
#
#                 Cambridge Crystallographic Data Centre
#                                CCDC 
#
#######################################################################
#
# If this CIF has been generated from an entry in the Cambridge 
# Structural Database, then it will include bibliographic, chemical, 
# crystal, experimental, refinement or atomic coordinate data resulting 
# from the CCDC's data processing and validation procedures.
#
#######################################################################

data_LAFYOG
_symmetry_cell_setting           monoclinic
_symmetry_space_group_name_H-M   'P 21/c'
_symmetry_Int_Tables_number      14
_space_group_name_Hall           '-P 2ybc'
loop_
_symmetry_equiv_pos_site_id
_symmetry_equiv_pos_as_xyz
1 x,y,z
2 -x,1/2+y,1/2-z
3 -x,-y,-z
4 x,1/2-y,1/2+z
_cell_length_a                   12.900(2)
_cell_length_b                   8.995(1)
_cell_length_c                   11.010(1)
_cell_angle_alpha                90
_cell_angle_beta                 94.72(1)
_cell_angle_gamma                90
_cell_volume                     1273.22
loop_
_atom_site_label
_atom_site_type_symbol
_atom_site_fract_x
_atom_site_fract_y
_atom_site_fract_z
O1 O 0.9177(1) 0.3044(2) 0.5272(1)
C1 C 0.7919(2) 0.2161(2) 0.3730(2)
C2 C 0.8854(2) 0.3071(3) 0.4213(2)
C3 C 0.8367(2) 0.0750(3) 0.3173(3)
C4 C 0.9412(4) 0.3935(5) 0.3298(3)
C5 C 0.7639(2) -0.0560(3) 0.3223(2)
C6 C 0.7405(2) -0.0881(2) 0.4537(2)
C7 C 0.6916(1) 0.0465(2) 0.5081(2)
C8 C 0.8358(3) -0.1420(4) 0.5320(3)
C9 C 0.6201(2) 0.0270(2) 0.5976(2)
C10 C 0.5922(3) -0.1242(3) 0.6438(3)
C11 C 0.5736(2) 0.1514(3) 0.6423(2)
C12 C 0.5946(2) 0.2908(3) 0.6012(2)
C13 C 0.6650(2) 0.3140(2) 0.5144(2)
C14 C 0.7150(1) 0.1896(2) 0.4686(2)
C15 C 0.6852(3) 0.4697(3) 0.4733(3)
H1 H 0.7545(16) 0.2743(24) 0.3098(19)
H2 H 0.9059(21) 0.0471(27) 0.3669(23)
H3 H 0.8544(21) 0.0998(29) 0.2400(26)
H4 H 0.9387(30) 0.3514(42) 0.2584(37)
H5 H 1.0065(31) 0.4413(39) 0.3643(32)
H6 H 0.8923(32) 0.4680(46) 0.2982(37)
H7 H 0.6932(20) -0.0342(26) 0.2702(21)
H8 H 0.7959(20) -0.1484(31) 0.2905(22)
H9 H 0.6884(19) -0.1683(28) 0.4502(20)
H10 H 0.8681(29) -0.2258(44) 0.4903(33)
H11 H 0.8157(22) -0.1740(32) 0.6191(29)
H12 H 0.8851(22) -0.0613(32) 0.5443(24)
H13 H 0.5633(29) -0.1845(39) 0.5863(35)
H14 H 0.5440(38) -0.1152(51) 0.7030(44)
H15 H 0.6496(36) -0.1711(44) 0.6908(36)
H16 H 0.5225(20) 0.1406(29) 0.6988(23)
H17 H 0.5623(20) 0.3742(28) 0.6292(22)
H18 H 0.6871(22) 0.4764(32) 0.3862(29)
H19 H 0.7545(26) 0.5045(35) 0.5085(26)
H20 H 0.6348(28) 0.5390(39) 0.4956(29)
O1 O 0.0823(1) 0.8044(2) -0.0272(1)
C1 C 0.2081(2) 0.7161(2) 0.1270(2)
C2 C 0.1146(2) 0.8071(3) 0.0787(2)
C3 C 0.1633(2) 0.5750(3) 0.1827(3)
C4 C 0.0588(4) 0.8935(5) 0.1702(3)
C5 C 0.2361(2) 0.4440(3) 0.1777(2)
C6 C 0.2595(2) 0.4119(2) 0.0463(2)
C7 C 0.3084(1) 0.5465(2) -0.0081(2)
C8 C 0.1642(3) 0.3580(4) -0.0320(3)
C9 C 0.3799(2) 0.5270(2) -0.0976(2)
C10 C 0.4078(3) 0.3758(3) -0.1438(3)
C11 C 0.4264(2) 0.6514(3) -0.1423(2)
C12 C 0.4054(2) 0.7908(3) -0.1012(2)
C13 C 0.3350(2) 0.8140(2) -0.0144(2)
C14 C 0.2850(1) 0.6896(2) 0.0314(2)
C15 C 0.3148(3) 0.9697(3) 0.0267(3)
H1 H 0.2455(16) 0.7743(24) 0.1902(19)
H2 H 0.0941(21) 0.5471(27) 0.1331(23)
H3 H 0.1456(21) 0.5998(29) 0.2600(26)
H4 H 0.0613(30) 0.8514(42) 0.2416(37)
H5 H -0.0065(31) 0.9413(39) 0.1357(32)
H6 H 0.1077(32) 0.9680(46) 0.2018(37)
H7 H 0.3068(20) 0.4658(26) 0.2298(21)
H8 H 0.2041(20) 0.3516(31) 0.2095(22)
H9 H 0.3116(19) 0.3317(28) 0.0498(20)
H10 H 0.1319(29) 0.2742(44) 0.0097(33)
H11 H 0.1843(22) 0.3260(32) -0.1191(29)
H12 H 0.1149(22) 0.4387(32) -0.0443(24)
H13 H 0.4367(29) 0.3155(39) -0.0863(35)
H14 H 0.4560(38) 0.3848(51) -0.2030(44)
H15 H 0.3504(36) 0.3289(44) -0.1908(36)
H16 H 0.4775(20) 0.6406(29) -0.1988(23)
H17 H 0.4377(20) 0.8742(28) -0.1292(22)
H18 H 0.3129(22) 0.9764(32) 0.1138(29)
H19 H 0.2455(26) 1.0045(35) -0.0085(26)
H20 H 0.3652(28) 1.0390(39) 0.0044(29)
O1 O 0.0823(1) 0.6956(2) 0.4728(1)
C1 C 0.2081(2) 0.7839(2) 0.6270(2)
C2 C 0.1146(2) 0.6929(3) 0.5787(2)
C3 C 0.1633(2) 0.9250(3) 0.6827(3)
C4 C 0.0588(4) 0.6065(5) 0.6702(3)
C5 C 0.2361(2) 1.0560(3) 0.6777(2)
C6 C 0.2595(2) 1.0881(2) 0.5463(2)
C7 C 0.3084(1) 0.9535(2) 0.4919(2)
C8 C 0.1642(3) 1.1420(4) 0.4680(3)
C9 C 0.3799(2) 0.9730(2) 0.4024(2)
C10 C 0.4078(3) 1.1242(3) 0.3562(3)
C11 C 0.4264(2) 0.8486(3) 0.3577(2)
C12 C 0.4054(2) 0.7092(3) 0.3988(2)
C13 C 0.3350(2) 0.6860(2) 0.4856(2)
C14 C 0.2850(1) 0.8104(2) 0.5314(2)
C15 C 0.3148(3) 0.5303(3) 0.5267(3)
H1 H 0.2455(16) 0.7257(24) 0.6902(19)
H2 H 0.0941(21) 0.9529(27) 0.6331(23)
H3 H 0.1456(21) 0.9002(29) 0.7600(26)
H4 H 0.0613(30) 0.6486(42) 0.7416(37)
H5 H -0.0065(31) 0.5587(39) 0.6357(32)
H6 H 0.1077(32) 0.5320(46) 0.7018(37)
H7 H 0.3068(20) 1.0342(26) 0.7298(21)
H8 H 0.2041(20) 1.1484(31) 0.7095(22)
H9 H 0.3116(19) 1.1683(28) 0.5498(20)
H10 H 0.1319(29) 1.2258(44) 0.5097(33)
H11 H 0.1843(22) 1.1740(32) 0.3809(29)
H12 H 0.1149(22) 1.0613(32) 0.4557(24)
H13 H 0.4367(29) 1.1845(39) 0.4137(35)
H14 H 0.4560(38) 1.1152(51) 0.2970(44)
H15 H 0.3504(36) 1.1711(44) 0.3092(36)
H16 H 0.4775(20) 0.8594(29) 0.3012(23)
H17 H 0.4377(20) 0.6258(28) 0.3708(22)
H18 H 0.3129(22) 0.5236(32) 0.6138(29)
H19 H 0.2455(26) 0.4955(35) 0.4915(26)
H20 H 0.3652(28) 0.4610(39) 0.5044(29)
O1 O 0.9177(1) 0.1956(2) 1.0272(1)
C1 C 0.7919(2) 0.2839(2) 0.8730(2)
C2 C 0.8854(2) 0.1929(3) 0.9213(2)
C3 C 0.8367(2) 0.4250(3) 0.8173(3)
C4 C 0.9412(4) 0.1065(5) 0.8298(3)
C5 C 0.7639(2) 0.5560(3) 0.8223(2)
C6 C 0.7405(2) 0.5881(2) 0.9537(2)
C7 C 0.6916(1) 0.4535(2) 1.0081(2)
C8 C 0.8358(3) 0.6420(4) 1.0320(3)
C9 C 0.6201(2) 0.4730(2) 1.0976(2)
C10 C 0.5922(3) 0.6242(3) 1.1438(3)
C11 C 0.5736(2) 0.3486(3) 1.1423(2)
C12 C 0.5946(2) 0.2092(3) 1.1012(2)
C13 C 0.6650(2) 0.1860(2) 1.0144(2)
C14 C 0.7150(1) 0.3104(2) 0.9686(2)
C15 C 0.6852(3) 0.0303(3) 0.9733(3)
H1 H 0.7545(16) 0.2257(24) 0.8098(19)
H2 H 0.9059(21) 0.4529(27) 0.8669(23)
H3 H 0.8544(21) 0.4002(29) 0.7400(26)
H4 H 0.9387(30) 0.1486(42) 0.7584(37)
H5 H 1.0065(31) 0.0587(39) 0.8643(32)
H6 H 0.8923(32) 0.0320(46) 0.7982(37)
H7 H 0.6932(20) 0.5342(26) 0.7702(21)
H8 H 0.7959(20) 0.6484(31) 0.7905(22)
H9 H 0.6884(19) 0.6683(28) 0.9502(20)
H10 H 0.8681(29) 0.7258(44) 0.9903(33)
H11 H 0.8157(22) 0.6740(32) 1.1191(29)
H12 H 0.8851(22) 0.5613(32) 1.0443(24)
H13 H 0.5633(29) 0.6845(39) 1.0863(35)
H14 H 0.5440(38) 0.6152(51) 1.2030(44)
H15 H 0.6496(36) 0.6711(44) 1.1908(36)
H16 H 0.5225(20) 0.3594(29) 1.1988(23)
H17 H 0.5623(20) 0.1258(28) 1.1292(22)
H18 H 0.6871(22) 0.0236(32) 0.8862(29)
H19 H 0.7545(26) -0.0045(35) 1.0085(26)
H20 H 0.6348(28) -0.0390(39) 0.9956(29)

#END
