./LAFZUN_from_xyz.cif_generated_by_CrystalShift
_symmetry_cell_setting triclinic
_symmetry_space_group_name_H-M 'P 1'
loop_
_symmetry_equiv_pos_site_id
_symmetry_equiv_pos_as_xyz
1 x,y,z
_cell_length_a 10.555000
_cell_length_b 8.356000
_cell_length_c 19.146000
_cell_angle_alpha 90.000000
_cell_angle_beta 90.300000
_cell_angle_gamma 90.000000
_cell_volume 1688.607759
loop_
_atom_site_label
_atom_site_type_symbol
_atom_site_fract_x
_atom_site_fract_y
_atom_site_fract_z
S1 S 0.816400 0.488900 -0.000400
O2 O 0.535900 0.164600 0.145500
O3 O 0.426800 0.250300 -0.091000
O4 O 0.279200 0.082200 -0.018900
N5 N 0.658000 0.311900 0.071200
N6 N 0.602200 0.358500 -0.044800
N7 N 0.322200 0.044200 0.096700
C8 C 0.809500 0.540700 -0.091300
C9 C 0.679700 0.376600 0.006200
C10 C 0.548900 0.218800 0.085800
C11 C 0.497200 0.266800 -0.036000
C12 C 0.466600 0.193900 0.028800
C13 C 0.349700 0.102500 0.033300
C14 C 0.749300 0.329500 0.128400
C15 C 0.729200 0.446900 0.178400
C16 C 0.813800 0.456000 0.235000
C17 C 0.913900 0.352600 0.238800
C18 C 0.934600 0.238100 0.188600
C19 C 0.847500 0.224400 0.132000
C20 C 0.213700 -0.040200 0.119500
C21 C 0.113000 -0.081400 0.078400
C22 C 0.009700 -0.161800 0.108600
C23 C 0.011000 -0.198200 0.177800
C24 C 0.110600 -0.159000 0.218600
C25 C 0.214700 -0.079400 0.190000
H26 H 0.368000 0.193000 -0.076000
H27 H 0.409000 0.064000 0.140000
H28 H 0.891000 0.613000 -0.105000
H29 H 0.724000 0.607000 -0.102000
H30 H 0.810000 0.433000 -0.122000
H31 H 0.651000 0.529000 0.174000
H32 H 0.800000 0.545000 0.275000
H33 H 0.978000 0.361000 0.283000
H34 H 1.016000 0.160000 0.192000
H35 H 0.859000 0.133000 0.093000
H36 H 0.113000 -0.053000 0.023000
H37 H -0.071000 -0.194000 0.077000
H38 H -0.069000 -0.260000 0.200000
H39 H 0.110000 -0.189000 0.273000
H40 H 0.295000 -0.048000 0.223000
S41 S 0.683600 0.988900 0.500400
O42 O 0.964100 0.664600 0.354500
O43 O 1.073200 0.750300 0.591000
O44 O 1.220800 0.582200 0.518900
N45 N 0.842000 0.811900 0.428800
N46 N 0.897800 0.858500 0.544800
N47 N 1.177800 0.544200 0.403300
C48 C 0.690500 1.040700 0.591300
C49 C 0.820300 0.876600 0.493800
C50 C 0.951100 0.718800 0.414200
C51 C 1.002800 0.766800 0.536000
C52 C 1.033400 0.693900 0.471200
C53 C 1.150300 0.602500 0.466700
C54 C 0.750700 0.829500 0.371600
C55 C 0.770800 0.946900 0.321600
C56 C 0.686200 0.956000 0.265000
C57 C 0.586100 0.852600 0.261200
C58 C 0.565400 0.738100 0.311400
C59 C 0.652500 0.724400 0.368000
C60 C 1.286300 0.459800 0.380500
C61 C 1.387000 0.418600 0.421600
C62 C 1.490300 0.338200 0.391400
C63 C 1.489000 0.301800 0.322200
C64 C 1.389400 0.341000 0.281400
C65 C 1.285300 0.420600 0.310000
H66 H 1.132000 0.693000 0.576000
H67 H 1.091000 0.564000 0.360000
H68 H 0.609000 1.113000 0.605000
H69 H 0.776000 1.107000 0.602000
H70 H 0.690000 0.933000 0.622000
H71 H 0.849000 1.029000 0.326000
H72 H 0.700000 1.045000 0.225000
H73 H 0.522000 0.861000 0.217000
H74 H 0.484000 0.660000 0.308000
H75 H 0.641000 0.633000 0.407000
H76 H 1.387000 0.447000 0.477000
H77 H 1.571000 0.306000 0.423000
H78 H 1.569000 0.240000 0.300000
H79 H 1.390000 0.311000 0.227000
H80 H 1.205000 0.452000 0.277000
S81 S 0.183600 0.511100 1.000400
O82 O 0.464100 0.835400 0.854500
O83 O 0.573200 0.749700 1.091000
O84 O 0.720800 0.917800 1.018900
N85 N 0.342000 0.688100 0.928800
N86 N 0.397800 0.641500 1.044800
N87 N 0.677800 0.955800 0.903300
C88 C 0.190500 0.459300 1.091300
C89 C 0.320300 0.623400 0.993800
C90 C 0.451100 0.781200 0.914200
C91 C 0.502800 0.733200 1.036000
C92 C 0.533400 0.806100 0.971200
C93 C 0.650300 0.897500 0.966700
C94 C 0.250700 0.670500 0.871600
C95 C 0.270800 0.553100 0.821600
C96 C 0.186200 0.544000 0.765000
C97 C 0.086100 0.647400 0.761200
C98 C 0.065400 0.761900 0.811400
C99 C 0.152500 0.775600 0.868000
C100 C 0.786300 1.040200 0.880500
C101 C 0.887000 1.081400 0.921600
C102 C 0.990300 1.161800 0.891400
C103 C 0.989000 1.198200 0.822200
C104 C 0.889400 1.159000 0.781400
C105 C 0.785300 1.079400 0.810000
H106 H 0.632000 0.807000 1.076000
H107 H 0.591000 0.936000 0.860000
H108 H 0.109000 0.387000 1.105000
H109 H 0.276000 0.393000 1.102000
H110 H 0.190000 0.567000 1.122000
H111 H 0.349000 0.471000 0.826000
H112 H 0.200000 0.455000 0.725000
H113 H 0.022000 0.639000 0.717000
H114 H -0.016000 0.840000 0.808000
H115 H 0.141000 0.867000 0.907000
H116 H 0.887000 1.053000 0.977000
H117 H 1.071000 1.194000 0.923000
H118 H 1.069000 1.260000 0.800000
H119 H 0.890000 1.189000 0.727000
H120 H 0.705000 1.048000 0.777000
S121 S 0.316400 0.011100 0.499600
O122 O 0.035900 0.335400 0.645500
O123 O -0.073200 0.249700 0.409000
O124 O -0.220800 0.417800 0.481100
N125 N 0.158000 0.188100 0.571200
N126 N 0.102200 0.141500 0.455200
N127 N -0.177800 0.455800 0.596700
C128 C 0.309500 -0.040700 0.408700
C129 C 0.179700 0.123400 0.506200
C130 C 0.048900 0.281200 0.585800
C131 C -0.002800 0.233200 0.464000
C132 C -0.033400 0.306100 0.528800
C133 C -0.150300 0.397500 0.533300
C134 C 0.249300 0.170500 0.628400
C135 C 0.229200 0.053100 0.678400
C136 C 0.313800 0.044000 0.735000
C137 C 0.413900 0.147400 0.738800
C138 C 0.434600 0.261900 0.688600
C139 C 0.347500 0.275600 0.632000
C140 C -0.286300 0.540200 0.619500
C141 C -0.387000 0.581400 0.578400
C142 C -0.490300 0.661800 0.608600
C143 C -0.489000 0.698200 0.677800
C144 C -0.389400 0.659000 0.718600
C145 C -0.285300 0.579400 0.690000
H146 H -0.132000 0.307000 0.424000
H147 H -0.091000 0.436000 0.640000
H148 H 0.391000 -0.113000 0.395000
H149 H 0.224000 -0.107000 0.398000
H150 H 0.310000 0.067000 0.378000
H151 H 0.151000 -0.029000 0.674000
H152 H 0.300000 -0.045000 0.775000
H153 H 0.478000 0.139000 0.783000
H154 H 0.516000 0.340000 0.692000
H155 H 0.359000 0.367000 0.593000
H156 H -0.387000 0.553000 0.523000
H157 H -0.571000 0.694000 0.577000
H158 H -0.569000 0.760000 0.700000
H159 H -0.390000 0.689000 0.773000
H160 H -0.205000 0.548000 0.723000

#END
