
#######################################################################
#
#                 Cambridge Crystallographic Data Centre
#                                CCDC 
#
#######################################################################
#
# If this CIF has been generated from an entry in the Cambridge 
# Structural Database, then it will include bibliographic, chemical, 
# crystal, experimental, refinement or atomic coordinate data resulting 
# from the CCDC's data processing and validation procedures.
#
#######################################################################

data_LAGBUQ
_symmetry_cell_setting           orthorhombic
_symmetry_space_group_name_H-M   'P 21 21 21'
_symmetry_Int_Tables_number      19
_space_group_name_Hall           'P 2ac 2ab'
loop_
_symmetry_equiv_pos_site_id
_symmetry_equiv_pos_as_xyz
1 x,y,z
2 1/2-x,-y,1/2+z
3 1/2+x,1/2-y,-z
4 -x,1/2+y,1/2-z
_cell_length_a                   8.0118(16)
_cell_length_b                   11.709(6)
_cell_length_c                   16.055(4)
_cell_angle_alpha                90
_cell_angle_beta                 90
_cell_angle_gamma                90
_cell_volume                     1506.12
loop_
_atom_site_label
_atom_site_type_symbol
_atom_site_fract_x
_atom_site_fract_y
_atom_site_fract_z
N1 N 0.2453(3) 0.3139(2) 0.22842(17)
C1 C 0.3320(4) 0.3755(3) 0.1701(2)
C2 C 0.3006(4) 0.3297(3) 0.0949(2)
C3 C 0.1919(4) 0.2364(3) 0.10614(19)
C4 C 0.1596(4) 0.2266(2) 0.18993(17)
C5 C 0.0464(3) 0.1469(2) 0.23803(16)
C6 C 0.1320(4) 0.0852(2) 0.30874(15)
C7 C 0.2838(4) 0.0966(3) 0.3457(2)
C8 C 0.2927(5) 0.0159(3) 0.4112(2)
C9 C 0.1504(5) -0.0431(3) 0.41274(19)
N2 N 0.0510(4) -0.0003(2) 0.35038(15)
C10 C -0.0477(3) 0.0662(2) 0.17924(15)
C11 C -0.2176(3) 0.0859(2) 0.16255(16)
C12 C -0.3022(4) 0.0135(3) 0.1075(2)
C13 C -0.2248(4) -0.0773(2) 0.06934(15)
C14 C -0.0602(4) -0.0972(2) 0.08831(18)
C15 C 0.0333(3) -0.0275(2) 0.14132(16)
C16 C -0.3143(4) 0.1842(2) 0.2003(2)
C17 C -0.3174(5) -0.1550(3) 0.0091(2)
C18 C 0.2147(3) -0.0540(3) 0.1544(2)
H1 H 0.238(5) 0.328(4) 0.284(2)
H2 H -0.046(4) -0.029(2) 0.3386(17)
H3 H 0.387(4) 0.434(3) 0.1879(18)
H4 H 0.341(4) 0.352(3) 0.0481(18)
H5 H 0.150(4) 0.186(3) 0.0652(19)
H6 H -0.041(3) 0.197(2) 0.2635(15)
H7 H 0.365(4) 0.145(2) 0.3297(16)
H8 H 0.375(4) 0.006(3) 0.440(2)
H9 H 0.111(4) -0.106(2) 0.4503(18)
H10 H -0.414(4) 0.031(2) 0.0977(17)
H11 H -0.006(4) -0.153(3) 0.0589(18)
H12 H -0.312(2) 0.1779(9) 0.2599(2)
H13 H -0.4277(6) 0.1819(10) 0.1811(9)
H14 H -0.2640(14) 0.25516(18) 0.1839(10)
H15 H -0.391(2) -0.2045(13) 0.0397(3)
H16 H -0.2384(8) -0.2001(12) -0.0216(9)
H17 H -0.382(2) -0.1094(5) -0.0289(9)
H18 H 0.2790(4) 0.0148(5) 0.1491(11)
H19 H 0.2508(7) -0.1083(12) 0.1133(8)
H20 H 0.2303(6) -0.0856(15) 0.2090(5)
N1 N 0.2547(3) 0.6861(2) 0.72842(17)
C1 C 0.1680(4) 0.6245(3) 0.6701(2)
C2 C 0.1994(4) 0.6703(3) 0.5949(2)
C3 C 0.3081(4) 0.7636(3) 0.60614(19)
C4 C 0.3404(4) 0.7734(2) 0.68993(17)
C5 C 0.4536(3) 0.8531(2) 0.73803(16)
C6 C 0.3680(4) 0.9148(2) 0.80874(15)
C7 C 0.2162(4) 0.9034(3) 0.8457(2)
C8 C 0.2073(5) 0.9841(3) 0.9112(2)
C9 C 0.3496(5) 1.0431(3) 0.91274(19)
N2 N 0.4490(4) 1.0003(2) 0.85038(15)
C10 C 0.5477(3) 0.9338(2) 0.67924(15)
C11 C 0.7176(3) 0.9141(2) 0.66255(16)
C12 C 0.8022(4) 0.9865(3) 0.6075(2)
C13 C 0.7248(4) 1.0773(2) 0.56934(15)
C14 C 0.5602(4) 1.0972(2) 0.58831(18)
C15 C 0.4667(3) 1.0275(2) 0.64132(16)
C16 C 0.8143(4) 0.8158(2) 0.7003(2)
C17 C 0.8174(5) 1.1550(3) 0.5091(2)
C18 C 0.2853(3) 1.0540(3) 0.6544(2)
H1 H 0.262(5) 0.672(4) 0.784(2)
H2 H 0.546(4) 1.029(2) 0.8386(17)
H3 H 0.113(4) 0.566(3) 0.6879(18)
H4 H 0.159(4) 0.648(3) 0.5481(18)
H5 H 0.350(4) 0.814(3) 0.5652(19)
H6 H 0.541(3) 0.803(2) 0.7635(15)
H7 H 0.135(4) 0.855(2) 0.8297(16)
H8 H 0.125(4) 0.994(3) 0.940(2)
H9 H 0.389(4) 1.106(2) 0.9503(18)
H10 H 0.914(4) 0.969(2) 0.5977(17)
H11 H 0.506(4) 1.153(3) 0.5589(18)
H12 H 0.812(2) 0.8221(9) 0.7599(2)
H13 H 0.9277(6) 0.8181(10) 0.6811(9)
H14 H 0.7640(14) 0.74484(18) 0.6839(10)
H15 H 0.891(2) 1.2045(13) 0.5397(3)
H16 H 0.7384(8) 1.2001(12) 0.4784(9)
H17 H 0.882(2) 1.1094(5) 0.4711(9)
H18 H 0.2210(4) 0.9852(5) 0.6491(11)
H19 H 0.2492(7) 1.1083(12) 0.6133(8)
H20 H 0.2697(6) 1.0856(15) 0.7090(5)
N1 N 0.7453(3) 0.1861(2) 0.77158(17)
C1 C 0.8320(4) 0.1245(3) 0.8299(2)
C2 C 0.8006(4) 0.1703(3) 0.9051(2)
C3 C 0.6919(4) 0.2636(3) 0.89386(19)
C4 C 0.6596(4) 0.2734(2) 0.81007(17)
C5 C 0.5464(3) 0.3531(2) 0.76197(16)
C6 C 0.6320(4) 0.4148(2) 0.69126(15)
C7 C 0.7838(4) 0.4034(3) 0.6543(2)
C8 C 0.7927(5) 0.4841(3) 0.5888(2)
C9 C 0.6504(5) 0.5431(3) 0.58726(19)
N2 N 0.5510(4) 0.5003(2) 0.64962(15)
C10 C 0.4523(3) 0.4338(2) 0.82076(15)
C11 C 0.2824(3) 0.4141(2) 0.83745(16)
C12 C 0.1978(4) 0.4865(3) 0.8925(2)
C13 C 0.2752(4) 0.5773(2) 0.93066(15)
C14 C 0.4398(4) 0.5972(2) 0.91169(18)
C15 C 0.5333(3) 0.5275(2) 0.85868(16)
C16 C 0.1857(4) 0.3158(2) 0.7997(2)
C17 C 0.1826(5) 0.6550(3) 0.9909(2)
C18 C 0.7147(3) 0.5540(3) 0.8456(2)
H1 H 0.738(5) 0.172(4) 0.716(2)
H2 H 0.454(4) 0.529(2) 0.6614(17)
H3 H 0.887(4) 0.066(3) 0.8121(18)
H4 H 0.841(4) 0.148(3) 0.9519(18)
H5 H 0.650(4) 0.314(3) 0.9348(19)
H6 H 0.459(3) 0.303(2) 0.7365(15)
H7 H 0.865(4) 0.355(2) 0.6703(16)
H8 H 0.875(4) 0.494(3) 0.560(2)
H9 H 0.611(4) 0.606(2) 0.5497(18)
H10 H 0.086(4) 0.469(2) 0.9023(17)
H11 H 0.494(4) 0.653(3) 0.9411(18)
H12 H 0.188(2) 0.3221(9) 0.7401(2)
H13 H 0.0723(6) 0.3181(10) 0.8189(9)
H14 H 0.2360(14) 0.24484(18) 0.8161(10)
H15 H 0.109(2) 0.7045(13) 0.9603(3)
H16 H 0.2616(8) 0.7001(12) 1.0216(9)
H17 H 0.118(2) 0.6094(5) 1.0289(9)
H18 H 0.7790(4) 0.4852(5) 0.8509(11)
H19 H 0.7508(7) 0.6083(12) 0.8867(8)
H20 H 0.7303(6) 0.5856(15) 0.7910(5)
N1 N 0.7547(3) 0.8139(2) 0.27158(17)
C1 C 0.6680(4) 0.8755(3) 0.3299(2)
C2 C 0.6994(4) 0.8297(3) 0.4051(2)
C3 C 0.8081(4) 0.7364(3) 0.39386(19)
C4 C 0.8404(4) 0.7266(2) 0.31007(17)
C5 C 0.9536(3) 0.6469(2) 0.26197(16)
C6 C 0.8680(4) 0.5852(2) 0.19126(15)
C7 C 0.7162(4) 0.5966(3) 0.1543(2)
C8 C 0.7073(5) 0.5159(3) 0.0888(2)
C9 C 0.8496(5) 0.4569(3) 0.08726(19)
N2 N 0.9490(4) 0.4997(2) 0.14962(15)
C10 C 1.0477(3) 0.5662(2) 0.32076(15)
C11 C 1.2176(3) 0.5859(2) 0.33745(16)
C12 C 1.3022(4) 0.5135(3) 0.3925(2)
C13 C 1.2248(4) 0.4227(2) 0.43066(15)
C14 C 1.0602(4) 0.4028(2) 0.41169(18)
C15 C 0.9667(3) 0.4725(2) 0.35868(16)
C16 C 1.3143(4) 0.6842(2) 0.2997(2)
C17 C 1.3174(5) 0.3450(3) 0.4909(2)
C18 C 0.7853(3) 0.4460(3) 0.3456(2)
H1 H 0.762(5) 0.828(4) 0.216(2)
H2 H 1.046(4) 0.471(2) 0.1614(17)
H3 H 0.613(4) 0.934(3) 0.3121(18)
H4 H 0.659(4) 0.852(3) 0.4519(18)
H5 H 0.850(4) 0.686(3) 0.4348(19)
H6 H 1.041(3) 0.697(2) 0.2365(15)
H7 H 0.635(4) 0.645(2) 0.1703(16)
H8 H 0.625(4) 0.506(3) 0.060(2)
H9 H 0.889(4) 0.394(2) 0.0497(18)
H10 H 1.414(4) 0.531(2) 0.4023(17)
H11 H 1.006(4) 0.347(3) 0.4411(18)
H12 H 1.312(2) 0.6779(9) 0.2401(2)
H13 H 1.4277(6) 0.6819(10) 0.3189(9)
H14 H 1.2640(14) 0.75516(18) 0.3161(10)
H15 H 1.391(2) 0.2955(13) 0.4603(3)
H16 H 1.2384(8) 0.2999(12) 0.5216(9)
H17 H 1.382(2) 0.3906(5) 0.5289(9)
H18 H 0.7210(4) 0.5148(5) 0.3509(11)
H19 H 0.7492(7) 0.3917(12) 0.3867(8)
H20 H 0.7697(6) 0.4144(15) 0.2910(5)

#END
