
#######################################################################
#
#                 Cambridge Crystallographic Data Centre
#                                CCDC 
#
#######################################################################
#
# If this CIF has been generated from an entry in the Cambridge 
# Structural Database, then it will include bibliographic, chemical, 
# crystal, experimental, refinement or atomic coordinate data resulting 
# from the CCDC's data processing and validation procedures.
#
#######################################################################

data_LAGCIF
_symmetry_cell_setting           monoclinic
_symmetry_space_group_name_H-M   'P 21/c'
_symmetry_Int_Tables_number      14
_space_group_name_Hall           '-P 2ybc'
loop_
_symmetry_equiv_pos_site_id
_symmetry_equiv_pos_as_xyz
1 x,y,z
2 -x,1/2+y,1/2-z
3 -x,-y,-z
4 x,1/2-y,1/2+z
_cell_length_a                   12.873(2)
_cell_length_b                   7.455(2)
_cell_length_c                   12.071(2)
_cell_angle_alpha                90
_cell_angle_beta                 113.98(2)
_cell_angle_gamma                90
_cell_volume                     1058.44
loop_
_atom_site_label
_atom_site_type_symbol
_atom_site_fract_x
_atom_site_fract_y
_atom_site_fract_z
C1 C 0.2266(3) 0.3628(6) 0.6057(4)
C2 C 0.3400(4) 0.4621(6) 0.6592(4)
C3 C 0.4304(4) 0.4267(7) 0.6092(4)
C4 C 0.5428(4) 0.4263(7) 0.7236(5)
O1 O 0.6362(3) 0.4301(5) 0.7175(4)
C5 C 0.5170(4) 0.4154(7) 0.8262(5)
C6 C 0.4042(4) 0.4213(6) 0.7923(4)
O2 O 0.3509(2) 0.4084(4) 0.8667(3)
C7 C 0.2356(3) 0.3337(7) 0.8135(4)
C8 C 0.1658(4) 0.4079(6) 0.6874(4)
C9 C 0.0433(3) 0.3422(6) 0.6452(4)
C10 C -0.0193(4) 0.3976(6) 0.7095(4)
C11 C -0.1314(4) 0.3445(6) 0.6758(4)
C12 C -0.1820(4) 0.2397(6) 0.5743(4)
C13 C -0.1227(4) 0.1864(6) 0.5073(4)
C14 C -0.0099(4) 0.2398(6) 0.5429(4)
H1 H 0.2391(3) 0.2318(6) 0.6049(4)
H2 H 0.1812(3) 0.4031(6) 0.5216(4)
H3 H 0.3231(4) 0.5936(6) 0.6514(4)
H4 H 0.4302(4) 0.5225(7) 0.5523(4)
H5 H 0.4176(4) 0.3096(7) 0.5670(4)
H6 H 0.5716(4) 0.4053(7) 0.9075(5)
H7 H 0.1965(3) 0.3615(7) 0.8672(4)
H8 H 0.2403(3) 0.2016(7) 0.8087(4)
H9 H 0.1648(4) 0.5415(6) 0.6943(4)
H10 H 0.0154(4) 0.4733(6) 0.7780(4)
H11 H -0.1724(4) 0.3800(6) 0.7221(4)
H12 H -0.2589(4) 0.2036(6) 0.5500(4)
H13 H -0.1583(4) 0.1137(6) 0.4374(4)
H14 H 0.0306(4) 0.2051(6) 0.4958(4)
C1 C 0.7734(3) 0.8628(6) 0.8943(4)
C2 C 0.6600(4) 0.9621(6) 0.8408(4)
C3 C 0.5696(4) 0.9267(7) 0.8908(4)
C4 C 0.4572(4) 0.9263(7) 0.7764(5)
O1 O 0.3638(3) 0.9301(5) 0.7825(4)
C5 C 0.4830(4) 0.9154(7) 0.6738(5)
C6 C 0.5958(4) 0.9213(6) 0.7077(4)
O2 O 0.6491(2) 0.9084(4) 0.6333(3)
C7 C 0.7644(3) 0.8337(7) 0.6865(4)
C8 C 0.8342(4) 0.9079(6) 0.8126(4)
C9 C 0.9567(3) 0.8422(6) 0.8548(4)
C10 C 1.0193(4) 0.8976(6) 0.7905(4)
C11 C 1.1314(4) 0.8445(6) 0.8242(4)
C12 C 1.1820(4) 0.7397(6) 0.9257(4)
C13 C 1.1227(4) 0.6864(6) 0.9927(4)
C14 C 1.0099(4) 0.7398(6) 0.9571(4)
H1 H 0.7609(3) 0.7318(6) 0.8951(4)
H2 H 0.8188(3) 0.9031(6) 0.9784(4)
H3 H 0.6769(4) 1.0936(6) 0.8486(4)
H4 H 0.5698(4) 1.0225(7) 0.9477(4)
H5 H 0.5824(4) 0.8096(7) 0.9330(4)
H6 H 0.4284(4) 0.9053(7) 0.5925(5)
H7 H 0.8035(3) 0.8615(7) 0.6328(4)
H8 H 0.7597(3) 0.7016(7) 0.6913(4)
H9 H 0.8352(4) 1.0415(6) 0.8057(4)
H10 H 0.9846(4) 0.9733(6) 0.7220(4)
H11 H 1.1724(4) 0.8800(6) 0.7779(4)
H12 H 1.2589(4) 0.7036(6) 0.9500(4)
H13 H 1.1583(4) 0.6137(6) 1.0626(4)
H14 H 0.9694(4) 0.7051(6) 1.0042(4)
C1 C 0.7734(3) 0.6372(6) 0.3943(4)
C2 C 0.6600(4) 0.5379(6) 0.3408(4)
C3 C 0.5696(4) 0.5733(7) 0.3908(4)
C4 C 0.4572(4) 0.5737(7) 0.2764(5)
O1 O 0.3638(3) 0.5699(5) 0.2825(4)
C5 C 0.4830(4) 0.5846(7) 0.1738(5)
C6 C 0.5958(4) 0.5787(6) 0.2077(4)
O2 O 0.6491(2) 0.5916(4) 0.1333(3)
C7 C 0.7644(3) 0.6663(7) 0.1865(4)
C8 C 0.8342(4) 0.5921(6) 0.3126(4)
C9 C 0.9567(3) 0.6578(6) 0.3548(4)
C10 C 1.0193(4) 0.6024(6) 0.2905(4)
C11 C 1.1314(4) 0.6555(6) 0.3242(4)
C12 C 1.1820(4) 0.7603(6) 0.4257(4)
C13 C 1.1227(4) 0.8136(6) 0.4927(4)
C14 C 1.0099(4) 0.7602(6) 0.4571(4)
H1 H 0.7609(3) 0.7682(6) 0.3951(4)
H2 H 0.8188(3) 0.5969(6) 0.4784(4)
H3 H 0.6769(4) 0.4064(6) 0.3486(4)
H4 H 0.5698(4) 0.4775(7) 0.4477(4)
H5 H 0.5824(4) 0.6904(7) 0.4330(4)
H6 H 0.4284(4) 0.5947(7) 0.0925(5)
H7 H 0.8035(3) 0.6385(7) 0.1328(4)
H8 H 0.7597(3) 0.7984(7) 0.1913(4)
H9 H 0.8352(4) 0.4585(6) 0.3057(4)
H10 H 0.9846(4) 0.5267(6) 0.2220(4)
H11 H 1.1724(4) 0.6200(6) 0.2779(4)
H12 H 1.2589(4) 0.7964(6) 0.4500(4)
H13 H 1.1583(4) 0.8863(6) 0.5626(4)
H14 H 0.9694(4) 0.7949(6) 0.5042(4)
C1 C 0.2266(3) 0.1372(6) 0.1057(4)
C2 C 0.3400(4) 0.0379(6) 0.1592(4)
C3 C 0.4304(4) 0.0733(7) 0.1092(4)
C4 C 0.5428(4) 0.0737(7) 0.2236(5)
O1 O 0.6362(3) 0.0699(5) 0.2175(4)
C5 C 0.5170(4) 0.0846(7) 0.3262(5)
C6 C 0.4042(4) 0.0787(6) 0.2923(4)
O2 O 0.3509(2) 0.0916(4) 0.3667(3)
C7 C 0.2356(3) 0.1663(7) 0.3135(4)
C8 C 0.1658(4) 0.0921(6) 0.1874(4)
C9 C 0.0433(3) 0.1578(6) 0.1452(4)
C10 C -0.0193(4) 0.1024(6) 0.2095(4)
C11 C -0.1314(4) 0.1555(6) 0.1758(4)
C12 C -0.1820(4) 0.2603(6) 0.0743(4)
C13 C -0.1227(4) 0.3136(6) 0.0073(4)
C14 C -0.0099(4) 0.2602(6) 0.0429(4)
H1 H 0.2391(3) 0.2682(6) 0.1049(4)
H2 H 0.1812(3) 0.0969(6) 0.0216(4)
H3 H 0.3231(4) -0.0936(6) 0.1514(4)
H4 H 0.4302(4) -0.0225(7) 0.0523(4)
H5 H 0.4176(4) 0.1904(7) 0.0670(4)
H6 H 0.5716(4) 0.0947(7) 0.4075(5)
H7 H 0.1965(3) 0.1385(7) 0.3672(4)
H8 H 0.2403(3) 0.2984(7) 0.3087(4)
H9 H 0.1648(4) -0.0415(6) 0.1943(4)
H10 H 0.0154(4) 0.0267(6) 0.2780(4)
H11 H -0.1724(4) 0.1200(6) 0.2221(4)
H12 H -0.2589(4) 0.2964(6) 0.0500(4)
H13 H -0.1583(4) 0.3863(6) -0.0626(4)
H14 H 0.0306(4) 0.2949(6) -0.0042(4)

#END
