
#######################################################################
#
#                 Cambridge Crystallographic Data Centre
#                                CCDC 
#
#######################################################################
#
# If this CIF has been generated from an entry in the Cambridge 
# Structural Database, then it will include bibliographic, chemical, 
# crystal, experimental, refinement or atomic coordinate data resulting 
# from the CCDC's data processing and validation procedures.
#
#######################################################################

data_LAGDAZ
_symmetry_cell_setting           monoclinic
_symmetry_space_group_name_H-M   'P 21/c'
_symmetry_Int_Tables_number      14
_space_group_name_Hall           '-P 2ybc'
loop_
_symmetry_equiv_pos_site_id
_symmetry_equiv_pos_as_xyz
1 x,y,z
2 x,1/2-y,1/2+z
3 -x,-y,-z
4 -x,1/2+y,1/2-z
_cell_length_a                   9.539(2)
_cell_length_b                   21.892(5)
_cell_length_c                   9.441(2)
_cell_angle_alpha                90
_cell_angle_beta                 93.846(4)
_cell_angle_gamma                90
_cell_volume                     1967.1
loop_
_atom_site_label
_atom_site_type_symbol
_atom_site_fract_x
_atom_site_fract_y
_atom_site_fract_z
Sn1 Sn 0.27148(4) 0.569755(14) 0.63275(3)
S1 S 0.50817(14) 0.61009(6) 0.67815(13)
N1 N 0.4789(5) 0.72783(19) 0.5903(4)
N2 N 0.4769(5) 0.76267(19) 0.4766(5)
N3 N 0.4982(5) 0.7253(2) 0.3692(5)
C1 C 0.5139(6) 0.6682(3) 0.4113(5)
C2 C 0.5004(5) 0.6692(2) 0.5537(4)
C3 C 0.2049(6) 0.6084(3) 0.3231(7)
C4 C 0.1815(8) 0.5998(6) 0.1786(9)
C5 C 0.1774(8) 0.5445(6) 0.1208(8)
C6 C 0.1945(7) 0.4942(5) 0.2062(9)
C7 C 0.2196(6) 0.5007(3) 0.3514(6)
C8 C 0.2260(5) 0.5575(2) 0.4116(5)
C9 C 0.1299(6) 0.6364(2) 0.7059(5)
C10 C -0.0008(7) 0.6436(3) 0.6365(8)
C11 C -0.0962(9) 0.6860(4) 0.6840(12)
C12 C -0.0593(12) 0.7210(4) 0.8009(12)
C13 C 0.0700(12) 0.7157(3) 0.8676(9)
C14 C 0.1641(8) 0.6737(3) 0.8192(6)
C15 C 0.2853(5) 0.4861(2) 0.7486(4)
C16 C 0.1739(7) 0.4462(3) 0.7506(7)
C17 C 0.1851(8) 0.3930(3) 0.8294(8)
C18 C 0.3062(8) 0.3799(3) 0.9070(7)
C19 C 0.4166(8) 0.4177(3) 0.9057(6)
C20 C 0.4082(6) 0.4707(2) 0.8272(5)
H1 H 0.499(5) 0.7400(19) 0.285(5)
H2 H 0.533(5) 0.634(2) 0.347(5)
H3 H 0.205(5) 0.644(2) 0.371(5)
H4 H 0.169(7) 0.636(3) 0.138(7)
H5 H 0.158(6) 0.539(2) 0.026(6)
H6 H 0.177(4) 0.456(2) 0.177(4)
H7 H 0.237(5) 0.467(2) 0.414(5)
H8 H -0.028(5) 0.616(2) 0.564(5)
H9 H -0.187(8) 0.690(4) 0.635(7)
H10 H -0.131(9) 0.747(4) 0.837(9)
H11 H 0.101(6) 0.740(3) 0.945(6)
H12 H 0.256(4) 0.6712(18) 0.858(4)
H13 H 0.090(6) 0.456(2) 0.700(5)
H14 H 0.111(6) 0.371(2) 0.824(6)
H15 H 0.311(5) 0.350(2) 0.958(5)
H16 H 0.498(5) 0.4090(17) 0.953(4)
H17 H 0.478(5) 0.495(2) 0.821(5)
Sn1 Sn 0.27148(4) 0.930245(14) 0.13275(3)
S1 S 0.50817(14) 0.88991(6) 0.17815(13)
N1 N 0.4789(5) 0.77217(19) 0.0903(4)
N2 N 0.4769(5) 0.73733(19) -0.0234(5)
N3 N 0.4982(5) 0.7747(2) -0.1308(5)
C1 C 0.5139(6) 0.8318(3) -0.0887(5)
C2 C 0.5004(5) 0.8308(2) 0.0537(4)
C3 C 0.2049(6) 0.8916(3) -0.1769(7)
C4 C 0.1815(8) 0.9002(6) -0.3214(9)
C5 C 0.1774(8) 0.9555(6) -0.3792(8)
C6 C 0.1945(7) 1.0058(5) -0.2938(9)
C7 C 0.2196(6) 0.9993(3) -0.1486(6)
C8 C 0.2260(5) 0.9425(2) -0.0884(5)
C9 C 0.1299(6) 0.8636(2) 0.2059(5)
C10 C -0.0008(7) 0.8564(3) 0.1365(8)
C11 C -0.0962(9) 0.8140(4) 0.1840(12)
C12 C -0.0593(12) 0.7790(4) 0.3009(12)
C13 C 0.0700(12) 0.7843(3) 0.3676(9)
C14 C 0.1641(8) 0.8263(3) 0.3192(6)
C15 C 0.2853(5) 1.0139(2) 0.2486(4)
C16 C 0.1739(7) 1.0538(3) 0.2506(7)
C17 C 0.1851(8) 1.1070(3) 0.3294(8)
C18 C 0.3062(8) 1.1201(3) 0.4070(7)
C19 C 0.4166(8) 1.0823(3) 0.4057(6)
C20 C 0.4082(6) 1.0293(2) 0.3272(5)
H1 H 0.499(5) 0.7600(19) -0.215(5)
H2 H 0.533(5) 0.866(2) -0.153(5)
H3 H 0.205(5) 0.856(2) -0.129(5)
H4 H 0.169(7) 0.864(3) -0.362(7)
H5 H 0.158(6) 0.961(2) -0.474(6)
H6 H 0.177(4) 1.044(2) -0.323(4)
H7 H 0.237(5) 1.033(2) -0.086(5)
H8 H -0.028(5) 0.884(2) 0.064(5)
H9 H -0.187(8) 0.810(4) 0.135(7)
H10 H -0.131(9) 0.753(4) 0.337(9)
H11 H 0.101(6) 0.760(3) 0.445(6)
H12 H 0.256(4) 0.8288(18) 0.358(4)
H13 H 0.090(6) 1.044(2) 0.200(5)
H14 H 0.111(6) 1.129(2) 0.324(6)
H15 H 0.311(5) 1.150(2) 0.458(5)
H16 H 0.498(5) 1.0910(17) 0.453(4)
H17 H 0.478(5) 1.005(2) 0.321(5)
Sn1 Sn 0.72852(4) 0.430245(14) 0.36725(3)
S1 S 0.49183(14) 0.38991(6) 0.32185(13)
N1 N 0.5211(5) 0.27217(19) 0.4097(4)
N2 N 0.5231(5) 0.23733(19) 0.5234(5)
N3 N 0.5018(5) 0.2747(2) 0.6308(5)
C1 C 0.4861(6) 0.3318(3) 0.5887(5)
C2 C 0.4996(5) 0.3308(2) 0.4463(4)
C3 C 0.7951(6) 0.3916(3) 0.6769(7)
C4 C 0.8185(8) 0.4002(6) 0.8214(9)
C5 C 0.8226(8) 0.4555(6) 0.8792(8)
C6 C 0.8055(7) 0.5058(5) 0.7938(9)
C7 C 0.7804(6) 0.4993(3) 0.6486(6)
C8 C 0.7740(5) 0.4425(2) 0.5884(5)
C9 C 0.8701(6) 0.3636(2) 0.2941(5)
C10 C 1.0008(7) 0.3564(3) 0.3635(8)
C11 C 1.0962(9) 0.3140(4) 0.3160(12)
C12 C 1.0593(12) 0.2790(4) 0.1991(12)
C13 C 0.9300(12) 0.2843(3) 0.1324(9)
C14 C 0.8359(8) 0.3263(3) 0.1808(6)
C15 C 0.7147(5) 0.5139(2) 0.2514(4)
C16 C 0.8261(7) 0.5538(3) 0.2494(7)
C17 C 0.8149(8) 0.6070(3) 0.1706(8)
C18 C 0.6938(8) 0.6201(3) 0.0930(7)
C19 C 0.5834(8) 0.5823(3) 0.0943(6)
C20 C 0.5918(6) 0.5293(2) 0.1728(5)
H1 H 0.501(5) 0.2600(19) 0.715(5)
H2 H 0.467(5) 0.366(2) 0.653(5)
H3 H 0.795(5) 0.356(2) 0.629(5)
H4 H 0.831(7) 0.364(3) 0.862(7)
H5 H 0.842(6) 0.461(2) 0.974(6)
H6 H 0.823(4) 0.544(2) 0.823(4)
H7 H 0.763(5) 0.533(2) 0.586(5)
H8 H 1.028(5) 0.384(2) 0.436(5)
H9 H 1.187(8) 0.310(4) 0.365(7)
H10 H 1.131(9) 0.253(4) 0.163(9)
H11 H 0.899(6) 0.260(3) 0.055(6)
H12 H 0.744(4) 0.3288(18) 0.142(4)
H13 H 0.910(6) 0.544(2) 0.300(5)
H14 H 0.889(6) 0.629(2) 0.176(6)
H15 H 0.689(5) 0.650(2) 0.042(5)
H16 H 0.502(5) 0.5910(17) 0.047(4)
H17 H 0.522(5) 0.505(2) 0.179(5)
Sn1 Sn 0.72852(4) 0.069755(14) 0.86725(3)
S1 S 0.49183(14) 0.11009(6) 0.82185(13)
N1 N 0.5211(5) 0.22783(19) 0.9097(4)
N2 N 0.5231(5) 0.26267(19) 1.0234(5)
N3 N 0.5018(5) 0.2253(2) 1.1308(5)
C1 C 0.4861(6) 0.1682(3) 1.0887(5)
C2 C 0.4996(5) 0.1692(2) 0.9463(4)
C3 C 0.7951(6) 0.1084(3) 1.1769(7)
C4 C 0.8185(8) 0.0998(6) 1.3214(9)
C5 C 0.8226(8) 0.0445(6) 1.3792(8)
C6 C 0.8055(7) -0.0058(5) 1.2938(9)
C7 C 0.7804(6) 0.0007(3) 1.1486(6)
C8 C 0.7740(5) 0.0575(2) 1.0884(5)
C9 C 0.8701(6) 0.1364(2) 0.7941(5)
C10 C 1.0008(7) 0.1436(3) 0.8635(8)
C11 C 1.0962(9) 0.1860(4) 0.8160(12)
C12 C 1.0593(12) 0.2210(4) 0.6991(12)
C13 C 0.9300(12) 0.2157(3) 0.6324(9)
C14 C 0.8359(8) 0.1737(3) 0.6808(6)
C15 C 0.7147(5) -0.0139(2) 0.7514(4)
C16 C 0.8261(7) -0.0538(3) 0.7494(7)
C17 C 0.8149(8) -0.1070(3) 0.6706(8)
C18 C 0.6938(8) -0.1201(3) 0.5930(7)
C19 C 0.5834(8) -0.0823(3) 0.5943(6)
C20 C 0.5918(6) -0.0293(2) 0.6728(5)
H1 H 0.501(5) 0.2400(19) 1.215(5)
H2 H 0.467(5) 0.134(2) 1.153(5)
H3 H 0.795(5) 0.144(2) 1.129(5)
H4 H 0.831(7) 0.136(3) 1.362(7)
H5 H 0.842(6) 0.039(2) 1.474(6)
H6 H 0.823(4) -0.044(2) 1.323(4)
H7 H 0.763(5) -0.033(2) 1.086(5)
H8 H 1.028(5) 0.116(2) 0.936(5)
H9 H 1.187(8) 0.190(4) 0.865(7)
H10 H 1.131(9) 0.247(4) 0.663(9)
H11 H 0.899(6) 0.240(3) 0.555(6)
H12 H 0.744(4) 0.1712(18) 0.642(4)
H13 H 0.910(6) -0.044(2) 0.800(5)
H14 H 0.889(6) -0.129(2) 0.676(6)
H15 H 0.689(5) -0.150(2) 0.542(5)
H16 H 0.502(5) -0.0910(17) 0.547(4)
H17 H 0.522(5) -0.005(2) 0.679(5)

#END
