
#######################################################################
#
#                 Cambridge Crystallographic Data Centre
#                                CCDC 
#
#######################################################################
#
# If this CIF has been generated from an entry in the Cambridge 
# Structural Database, then it will include bibliographic, chemical, 
# crystal, experimental, refinement or atomic coordinate data resulting 
# from the CCDC's data processing and validation procedures.
#
#######################################################################

data_KAGZAW
_symmetry_cell_setting           monoclinic
_symmetry_space_group_name_H-M   'P 21/n'
_symmetry_Int_Tables_number      14
_space_group_name_Hall           '-P 2yn'
loop_
_symmetry_equiv_pos_site_id
_symmetry_equiv_pos_as_xyz
1 x,y,z
2 1/2-x,1/2+y,1/2-z
3 -x,-y,-z
4 1/2+x,1/2-y,1/2+z
_cell_length_a                   7.463(5)
_cell_length_b                   7.827(5)
_cell_length_c                   11.790(5)
_cell_angle_alpha                90
_cell_angle_beta                 93.233(5)
_cell_angle_gamma                90
_cell_volume                     687.592
loop_
_atom_site_label
_atom_site_type_symbol
_atom_site_fract_x
_atom_site_fract_y
_atom_site_fract_z
Cl1 Cl 0.47393(16) 0.21816(17) 0.57181(8)
Cl2 Cl 0.45631(17) 0.4430(2) 0.13763(9)
N1 N 0.2066(5) 0.4832(6) 0.2775(3)
N2 N 0.2153(5) 0.3882(5) 0.4695(3)
C1 C 0.1383(6) 0.4657(7) 0.3784(4)
H1 H 0.0251 0.5123 0.3865
C2 C 0.3744(5) 0.3225(5) 0.4544(3)
C3 C 0.4659(5) 0.3309(6) 0.3546(3)
C4 C 0.3650(6) 0.4175(6) 0.2685(3)
C5 C 0.6464(6) 0.2553(7) 0.3426(4)
H2 H 0.7041 0.3121 0.2823
H3 H 0.6344 0.1359 0.3252
H4 H 0.7175 0.2692 0.4124
Cl1 Cl 0.02607(16) 0.71816(17) -0.07181(8)
Cl2 Cl 0.04369(17) 0.9430(2) 0.36237(9)
N1 N 0.2934(5) 0.9832(6) 0.2225(3)
N2 N 0.2847(5) 0.8882(5) 0.0305(3)
C1 C 0.3617(6) 0.9657(7) 0.1216(4)
H1 H 0.4749 1.0123 0.1135
C2 C 0.1256(5) 0.8225(5) 0.0456(3)
C3 C 0.0341(5) 0.8309(6) 0.1454(3)
C4 C 0.1350(6) 0.9175(6) 0.2315(3)
C5 C -0.1464(6) 0.7553(7) 0.1574(4)
H2 H -0.2041 0.8121 0.2177
H3 H -0.1344 0.6359 0.1748
H4 H -0.2175 0.7692 0.0876
Cl1 Cl 0.52607(16) 0.78184(17) 0.42819(8)
Cl2 Cl 0.54369(17) 0.5570(2) 0.86237(9)
N1 N 0.7934(5) 0.5168(6) 0.7225(3)
N2 N 0.7847(5) 0.6118(5) 0.5305(3)
C1 C 0.8617(6) 0.5343(7) 0.6216(4)
H1 H 0.9749 0.4877 0.6135
C2 C 0.6256(5) 0.6775(5) 0.5456(3)
C3 C 0.5341(5) 0.6691(6) 0.6454(3)
C4 C 0.6350(6) 0.5825(6) 0.7315(3)
C5 C 0.3536(6) 0.7447(7) 0.6574(4)
H2 H 0.2959 0.6879 0.7177
H3 H 0.3656 0.8641 0.6748
H4 H 0.2825 0.7308 0.5876
Cl1 Cl 0.97393(16) 0.28184(17) 1.07181(8)
Cl2 Cl 0.95631(17) 0.0570(2) 0.63763(9)
N1 N 0.7066(5) 0.0168(6) 0.7775(3)
N2 N 0.7153(5) 0.1118(5) 0.9695(3)
C1 C 0.6383(6) 0.0343(7) 0.8784(4)
H1 H 0.5251 -0.0123 0.8865
C2 C 0.8744(5) 0.1775(5) 0.9544(3)
C3 C 0.9659(5) 0.1691(6) 0.8546(3)
C4 C 0.8650(6) 0.0825(6) 0.7685(3)
C5 C 1.1464(6) 0.2447(7) 0.8426(4)
H2 H 1.2041 0.1879 0.7823
H3 H 1.1344 0.3641 0.8252
H4 H 1.2175 0.2308 0.9124

#END
