./KAGZOK_from_POSCAR.cif_generated_by_CrystalShift
_symmetry_cell_setting triclinic
_symmetry_space_group_name_H-M 'P 1'
loop_
_symmetry_equiv_pos_site_id
_symmetry_equiv_pos_as_xyz
1 x,y,z
_cell_length_a 9.007300
_cell_length_b 12.385600
_cell_length_c 7.555300
_cell_angle_alpha 90.000000
_cell_angle_beta 98.620000
_cell_angle_gamma 90.000000
_cell_volume 833.354408
loop_
_atom_site_label
_atom_site_type_symbol
_atom_site_fract_x
_atom_site_fract_y
_atom_site_fract_z
H1 H 0.436300 -0.149800 0.523900
H2 H 0.673400 -0.146800 0.430800
H3 H 0.923300 0.046200 0.484400
H4 H 0.324000 0.788000 0.069000
H5 H 0.847000 0.082600 0.288500
H6 H 0.877600 -0.042600 0.332100
H7 H 0.665700 0.177900 0.462200
H8 H 0.267500 -0.134800 0.728200
H9 H -0.131700 0.581700 0.146900
H10 H -0.002500 0.565500 0.316000
H11 H 0.174300 -0.132200 0.530500
H12 H 0.104700 -0.080100 0.693700
H13 H -0.050200 0.648100 0.615300
H14 H -0.385700 0.387000 0.699200
H15 H -0.225900 0.658700 0.810700
H16 H -0.561300 0.376200 0.894600
H17 H -0.620000 0.391500 1.195000
H18 H -0.547700 0.718000 0.781200
H19 H -0.487200 0.603800 0.861200
H20 H -0.620000 0.608500 0.695000
H21 H -0.487200 0.396200 1.361200
H22 H -0.561300 0.623800 0.394600
H23 H -0.547700 0.282000 1.281200
H24 H -0.385700 0.613000 0.199200
H25 H -0.225900 0.341300 1.310700
H26 H 0.104700 1.080100 0.193700
H27 H 0.174300 1.132200 0.030500
H28 H 0.267500 1.134800 0.228200
H29 H -0.050200 0.351900 1.115300
H30 H -0.002500 0.434500 0.816000
H31 H -0.131700 0.418300 0.646900
H32 H 0.665700 0.822100 -0.037800
H33 H 0.324000 0.212000 0.569000
H34 H 0.877600 1.042600 -0.167900
H35 H 0.847000 0.917400 -0.211500
H36 H 0.923300 0.953800 -0.015600
H37 H 0.436300 1.149800 0.023900
H38 H 0.673400 1.146800 -0.069200
C39 C 0.626000 1.081100 -0.044500
C40 C 0.485200 1.083000 0.010700
C41 C 0.696900 0.983200 -0.063200
C42 C 0.626000 -0.081100 0.455500
C43 C 0.696900 0.016800 0.436800
C44 C 0.849500 0.026600 0.380600
C45 C 0.849500 0.973400 -0.119400
C46 C 0.152400 0.714100 0.130500
C47 C 0.619000 0.110100 0.474400
C48 C 0.152400 0.285900 0.630500
C49 C -0.084300 0.386200 0.761600
C50 C 0.619000 0.889900 -0.025600
C51 C 0.416400 0.986000 0.046400
C52 C -0.199300 0.372600 0.886500
C53 C -0.154100 0.357700 1.069800
C54 C 0.267900 0.985700 0.109700
C55 C -0.259000 0.351300 1.186400
C56 C 0.197500 1.092500 0.143400
C57 C -0.412900 0.359100 1.123900
C58 C -0.527000 0.357000 1.251600
C59 C -0.352500 0.621600 0.323800
C60 C -0.457400 0.628100 0.440600
C61 C -0.527000 0.643000 0.751600
C62 C -0.457400 0.371900 0.940600
C63 C -0.412900 0.640900 0.623900
C64 C -0.352500 0.378400 0.823800
C65 C -0.259000 0.648700 0.686400
C66 C 0.197500 -0.092500 0.643400
C67 C -0.154100 0.642300 0.569800
C68 C -0.199300 0.627400 0.386500
C69 C -0.084300 0.613800 0.261600
C70 C 0.267900 0.014300 0.609700
C71 C 0.416400 0.014000 0.546400
C72 C 0.485200 -0.083000 0.510700
N73 N 0.188100 0.097770 0.640200
N74 N 0.238200 0.199470 0.607100
N75 N 0.483500 0.889950 0.026200
N76 N 0.188100 0.902230 0.140200
N77 N 0.238200 0.800530 0.107100
N78 N 0.483500 0.110050 0.526200
S79 S 0.201970 0.591210 0.075980
S80 S -0.010040 0.252970 0.723090
S81 S 0.201970 0.408790 0.575980
S82 S -0.010040 0.747030 0.223090

#END
