
#######################################################################
#
#                 Cambridge Crystallographic Data Centre
#                                CCDC 
#
#######################################################################
#
# If this CIF has been generated from an entry in the Cambridge 
# Structural Database, then it will include bibliographic, chemical, 
# crystal, experimental, refinement or atomic coordinate data resulting 
# from the CCDC's data processing and validation procedures.
#
#######################################################################

data_KAGZOK
_symmetry_cell_setting           monoclinic
_symmetry_space_group_name_H-M   'P c'
_symmetry_Int_Tables_number      7
_space_group_name_Hall           'P -2yc'
loop_
_symmetry_equiv_pos_site_id
_symmetry_equiv_pos_as_xyz
1 x,y,z
2 x,-y,1/2+z
_cell_length_a                   9.0073(2)
_cell_length_b                   12.3856(2)
_cell_length_c                   7.55530(10)
_cell_angle_alpha                90
_cell_angle_beta                 98.620(2)
_cell_angle_gamma                90
_cell_volume                     833.354
loop_
_atom_site_label
_atom_site_type_symbol
_atom_site_fract_x
_atom_site_fract_y
_atom_site_fract_z
S1 S -0.01004(7) 0.74703(4) 0.22309(8)
S2 S 0.20197(7) 0.59121(5) 0.07598(9)
N1 N 0.2382(2) 0.80053(17) 0.1071(3)
H1 H 0.324(2) 0.788(3) 0.069(4)
N2 N 0.1881(2) 0.90223(17) 0.1402(3)
N3 N 0.4835(2) 0.88995(18) 0.0262(3)
C1 C 0.1524(3) 0.7141(2) 0.1305(3)
C2 C -0.0843(3) 0.6138(2) 0.2616(4)
H2 H -0.1317 0.5817 0.1469
H3 H -0.0025 0.5655 0.3160
C3 C -0.1993(3) 0.6274(2) 0.3865(4)
C4 C -0.1541(3) 0.6423(2) 0.5698(4)
H4 H -0.0502 0.6481 0.6153
C5 C -0.2590(3) 0.6487(2) 0.6864(4)
H5 H -0.2259 0.6587 0.8107
C6 C -0.4129(3) 0.6409(2) 0.6239(4)
C7 C -0.5270(4) 0.6430(2) 0.7516(4)
H6 H -0.5477 0.7180 0.7812
H7 H -0.4872 0.6038 0.8612
H8 H -0.6200 0.6085 0.6950
C8 C -0.4574(3) 0.6281(2) 0.4406(4)
H9 H -0.5613 0.6238 0.3946
C9 C -0.3525(3) 0.6216(2) 0.3238(4)
H10 H -0.3857 0.6130 0.1992
C10 C 0.1975(3) 1.0925(2) 0.1434(4)
H11 H 0.1047 1.0801 0.1937
H12 H 0.1743 1.1322 0.0305
H13 H 0.2675 1.1348 0.2282
C11 C 0.2679(3) 0.9857(2) 0.1097(3)
C12 C 0.4164(3) 0.9860(2) 0.0464(3)
C13 C 0.6190(3) 0.8899(2) -0.0256(3)
H14 H 0.6657 0.8221 -0.0378
C14 C 0.8495(3) 0.9734(2) -0.1194(3)
H15 H 0.8776 1.0426 -0.1679
H16 H 0.8470 0.9174 -0.2115
H17 H 0.9233 0.9538 -0.0156
C15 C 0.6969(3) 0.9832(2) -0.0632(3)
C16 C 0.6260(3) 1.0811(2) -0.0445(3)
H18 H 0.6734 1.1468 -0.0692
C17 C 0.4852(3) 1.0830(2) 0.0107(3)
H19 H 0.4363 1.1498 0.0239
S1 S -0.01004(7) 0.25297(4) 0.72309(8)
S2 S 0.20197(7) 0.40879(5) 0.57598(9)
N1 N 0.2382(2) 0.19947(17) 0.6071(3)
H1 H 0.324(2) 0.212(3) 0.569(4)
N2 N 0.1881(2) 0.09777(17) 0.6402(3)
N3 N 0.4835(2) 0.11005(18) 0.5262(3)
C1 C 0.1524(3) 0.2859(2) 0.6305(3)
C2 C -0.0843(3) 0.3862(2) 0.7616(4)
H2 H -0.1317 0.4183 0.6469
H3 H -0.0025 0.4345 0.8160
C3 C -0.1993(3) 0.3726(2) 0.8865(4)
C4 C -0.1541(3) 0.3577(2) 1.0698(4)
H4 H -0.0502 0.3519 1.1153
C5 C -0.2590(3) 0.3513(2) 1.1864(4)
H5 H -0.2259 0.3413 1.3107
C6 C -0.4129(3) 0.3591(2) 1.1239(4)
C7 C -0.5270(4) 0.3570(2) 1.2516(4)
H6 H -0.5477 0.2820 1.2812
H7 H -0.4872 0.3962 1.3612
H8 H -0.6200 0.3915 1.1950
C8 C -0.4574(3) 0.3719(2) 0.9406(4)
H9 H -0.5613 0.3762 0.8946
C9 C -0.3525(3) 0.3784(2) 0.8238(4)
H10 H -0.3857 0.3870 0.6992
C10 C 0.1975(3) -0.0925(2) 0.6434(4)
H11 H 0.1047 -0.0801 0.6937
H12 H 0.1743 -0.1322 0.5305
H13 H 0.2675 -0.1348 0.7282
C11 C 0.2679(3) 0.0143(2) 0.6097(3)
C12 C 0.4164(3) 0.0140(2) 0.5464(3)
C13 C 0.6190(3) 0.1101(2) 0.4744(3)
H14 H 0.6657 0.1779 0.4622
C14 C 0.8495(3) 0.0266(2) 0.3806(3)
H15 H 0.8776 -0.0426 0.3321
H16 H 0.8470 0.0826 0.2885
H17 H 0.9233 0.0462 0.4844
C15 C 0.6969(3) 0.0168(2) 0.4368(3)
C16 C 0.6260(3) -0.0811(2) 0.4555(3)
H18 H 0.6734 -0.1468 0.4308
C17 C 0.4852(3) -0.0830(2) 0.5107(3)
H19 H 0.4363 -0.1498 0.5239

#END
