
#######################################################################
#
#                 Cambridge Crystallographic Data Centre
#                                CCDC 
#
#######################################################################
#
# If this CIF has been generated from an entry in the Cambridge 
# Structural Database, then it will include bibliographic, chemical, 
# crystal, experimental, refinement or atomic coordinate data resulting 
# from the CCDC's data processing and validation procedures.
#
#######################################################################

data_KAHCEC
_symmetry_cell_setting           monoclinic
_symmetry_space_group_name_H-M   'C 2/c'
_symmetry_Int_Tables_number      15
_space_group_name_Hall           '-C 2yn'
loop_
_symmetry_equiv_pos_site_id
_symmetry_equiv_pos_as_xyz
1 x,y,z
2 1/2+x,1/2+y,z
3 x,-y,1/2+z
4 1/2+x,1/2-y,1/2+z
5 -x,-y,-z
6 1/2-x,1/2-y,-z
7 -x,y,1/2-z
8 1/2-x,1/2+y,1/2-z
_cell_length_a                   19.049(4)
_cell_length_b                   5.4779(11)
_cell_length_c                   15.536(3)
_cell_angle_alpha                90
_cell_angle_beta                 98.79(3)
_cell_angle_gamma                90
_cell_volume                     1602.12
loop_
_atom_site_label
_atom_site_type_symbol
_atom_site_fract_x
_atom_site_fract_y
_atom_site_fract_z
Br1 Br 0.042449(14) 1.08874(5) 0.895665(16)
O1 O 0.20807(10) 0.9459(3) 0.92289(11)
C1 C 0.26851(14) 0.9404(4) 0.88463(14)
C2 C 0.15817(13) 0.7515(4) 0.90271(15)
H1 H 0.1801 0.5940 0.9233
H2 H 0.1430 0.7410 0.8390
C3 C 0.09540(14) 0.8047(5) 0.94764(16)
H3 H 0.1120 0.8363 1.0102
H4 H 0.0637 0.6607 0.9431
C4 C 0.31558(15) 1.1329(5) 0.90624(15)
H5 H 0.3048 1.2561 0.9452
C5 C 0.39364(15) 0.9630(5) 0.81337(16)
H6 H 0.4365 0.9702 0.7893
C6 C 0.28342(14) 0.7595(4) 0.82716(14)
H7 H 0.2512 0.6284 0.8121
C7 C 0.34656(15) 0.7742(5) 0.79195(17)
H8 H 0.3572 0.6518 0.7526
C8 C 0.37782(14) 1.1453(5) 0.87122(16)
H9 H 0.4099 1.2766 0.8862
Br1 Br 0.542449(14) 0.58874(5) 0.895665(16)
O1 O 0.70807(10) 0.4459(3) 0.92289(11)
C1 C 0.76851(14) 0.4404(4) 0.88463(14)
C2 C 0.65817(13) 0.2515(4) 0.90271(15)
H1 H 0.6801 0.0940 0.9233
H2 H 0.6430 0.2410 0.8390
C3 C 0.59540(14) 0.3047(5) 0.94764(16)
H3 H 0.6120 0.3363 1.0102
H4 H 0.5637 0.1607 0.9431
C4 C 0.81558(15) 0.6329(5) 0.90624(15)
H5 H 0.8048 0.7561 0.9452
C5 C 0.89364(15) 0.4630(5) 0.81337(16)
H6 H 0.9365 0.4702 0.7893
C6 C 0.78342(14) 0.2595(4) 0.82716(14)
H7 H 0.7512 0.1284 0.8121
C7 C 0.84656(15) 0.2742(5) 0.79195(17)
H8 H 0.8572 0.1518 0.7526
C8 C 0.87782(14) 0.6453(5) 0.87122(16)
H9 H 0.9099 0.7766 0.8862
Br1 Br 0.042449(14) -0.08874(5) 0.395665(16)
O1 O 0.20807(10) 0.0541(3) 0.42289(11)
C1 C 0.26851(14) 0.0596(4) 0.38463(14)
C2 C 0.15817(13) 0.2485(4) 0.40271(15)
H1 H 0.1801 0.4060 0.4233
H2 H 0.1430 0.2590 0.3390
C3 C 0.09540(14) 0.1953(5) 0.44764(16)
H3 H 0.1120 0.1637 0.5102
H4 H 0.0637 0.3393 0.4431
C4 C 0.31558(15) -0.1329(5) 0.40624(15)
H5 H 0.3048 -0.2561 0.4452
C5 C 0.39364(15) 0.0370(5) 0.31337(16)
H6 H 0.4365 0.0298 0.2893
C6 C 0.28342(14) 0.2405(4) 0.32716(14)
H7 H 0.2512 0.3716 0.3121
C7 C 0.34656(15) 0.2258(5) 0.29195(17)
H8 H 0.3572 0.3482 0.2526
C8 C 0.37782(14) -0.1453(5) 0.37122(16)
H9 H 0.4099 -0.2766 0.3862
Br1 Br 0.542449(14) 0.41126(5) 0.395665(16)
O1 O 0.70807(10) 0.5541(3) 0.42289(11)
C1 C 0.76851(14) 0.5596(4) 0.38463(14)
C2 C 0.65817(13) 0.7485(4) 0.40271(15)
H1 H 0.6801 0.9060 0.4233
H2 H 0.6430 0.7590 0.3390
C3 C 0.59540(14) 0.6953(5) 0.44764(16)
H3 H 0.6120 0.6637 0.5102
H4 H 0.5637 0.8393 0.4431
C4 C 0.81558(15) 0.3671(5) 0.40624(15)
H5 H 0.8048 0.2439 0.4452
C5 C 0.89364(15) 0.5370(5) 0.31337(16)
H6 H 0.9365 0.5298 0.2893
C6 C 0.78342(14) 0.7405(4) 0.32716(14)
H7 H 0.7512 0.8716 0.3121
C7 C 0.84656(15) 0.7258(5) 0.29195(17)
H8 H 0.8572 0.8482 0.2526
C8 C 0.87782(14) 0.3547(5) 0.37122(16)
H9 H 0.9099 0.2234 0.3862
Br1 Br 0.957551(14) -0.08874(5) 0.104335(16)
O1 O 0.79193(10) 0.0541(3) 0.07711(11)
C1 C 0.73149(14) 0.0596(4) 0.11537(14)
C2 C 0.84183(13) 0.2485(4) 0.09729(15)
H1 H 0.8199 0.4060 0.0767
H2 H 0.8570 0.2590 0.1610
C3 C 0.90460(14) 0.1953(5) 0.05236(16)
H3 H 0.8880 0.1637 -0.0102
H4 H 0.9363 0.3393 0.0569
C4 C 0.68442(15) -0.1329(5) 0.09376(15)
H5 H 0.6952 -0.2561 0.0548
C5 C 0.60636(15) 0.0370(5) 0.18663(16)
H6 H 0.5635 0.0298 0.2107
C6 C 0.71658(14) 0.2405(4) 0.17284(14)
H7 H 0.7488 0.3716 0.1879
C7 C 0.65344(15) 0.2258(5) 0.20805(17)
H8 H 0.6428 0.3482 0.2474
C8 C 0.62218(14) -0.1453(5) 0.12878(16)
H9 H 0.5901 -0.2766 0.1138
Br1 Br 0.457551(14) 0.41126(5) 0.104335(16)
O1 O 0.29193(10) 0.5541(3) 0.07711(11)
C1 C 0.23149(14) 0.5596(4) 0.11537(14)
C2 C 0.34183(13) 0.7485(4) 0.09729(15)
H1 H 0.3199 0.9060 0.0767
H2 H 0.3570 0.7590 0.1610
C3 C 0.40460(14) 0.6953(5) 0.05236(16)
H3 H 0.3880 0.6637 -0.0102
H4 H 0.4363 0.8393 0.0569
C4 C 0.18442(15) 0.3671(5) 0.09376(15)
H5 H 0.1952 0.2439 0.0548
C5 C 0.10636(15) 0.5370(5) 0.18663(16)
H6 H 0.0635 0.5298 0.2107
C6 C 0.21658(14) 0.7405(4) 0.17284(14)
H7 H 0.2488 0.8716 0.1879
C7 C 0.15344(15) 0.7258(5) 0.20805(17)
H8 H 0.1428 0.8482 0.2474
C8 C 0.12218(14) 0.3547(5) 0.12878(16)
H9 H 0.0901 0.2234 0.1138
Br1 Br 0.957551(14) 1.08874(5) 0.604335(16)
O1 O 0.79193(10) 0.9459(3) 0.57711(11)
C1 C 0.73149(14) 0.9404(4) 0.61537(14)
C2 C 0.84183(13) 0.7515(4) 0.59729(15)
H1 H 0.8199 0.5940 0.5767
H2 H 0.8570 0.7410 0.6610
C3 C 0.90460(14) 0.8047(5) 0.55236(16)
H3 H 0.8880 0.8363 0.4898
H4 H 0.9363 0.6607 0.5569
C4 C 0.68442(15) 1.1329(5) 0.59376(15)
H5 H 0.6952 1.2561 0.5548
C5 C 0.60636(15) 0.9630(5) 0.68663(16)
H6 H 0.5635 0.9702 0.7107
C6 C 0.71658(14) 0.7595(4) 0.67284(14)
H7 H 0.7488 0.6284 0.6879
C7 C 0.65344(15) 0.7742(5) 0.70805(17)
H8 H 0.6428 0.6518 0.7474
C8 C 0.62218(14) 1.1453(5) 0.62878(16)
H9 H 0.5901 1.2766 0.6138
Br1 Br 0.457551(14) 0.58874(5) 0.604335(16)
O1 O 0.29193(10) 0.4459(3) 0.57711(11)
C1 C 0.23149(14) 0.4404(4) 0.61537(14)
C2 C 0.34183(13) 0.2515(4) 0.59729(15)
H1 H 0.3199 0.0940 0.5767
H2 H 0.3570 0.2410 0.6610
C3 C 0.40460(14) 0.3047(5) 0.55236(16)
H3 H 0.3880 0.3363 0.4898
H4 H 0.4363 0.1607 0.5569
C4 C 0.18442(15) 0.6329(5) 0.59376(15)
H5 H 0.1952 0.7561 0.5548
C5 C 0.10636(15) 0.4630(5) 0.68663(16)
H6 H 0.0635 0.4702 0.7107
C6 C 0.21658(14) 0.2595(4) 0.67284(14)
H7 H 0.2488 0.1284 0.6879
C7 C 0.15344(15) 0.2742(5) 0.70805(17)
H8 H 0.1428 0.1518 0.7474
C8 C 0.12218(14) 0.6453(5) 0.62878(16)
H9 H 0.0901 0.7766 0.6138

#END
