./KAHFUV_from_POSCAR.cif_generated_by_CrystalShift
_symmetry_cell_setting triclinic
_symmetry_space_group_name_H-M 'P 1'
loop_
_symmetry_equiv_pos_site_id
_symmetry_equiv_pos_as_xyz
1 x,y,z
_cell_length_a 23.978200
_cell_length_b 8.443700
_cell_length_c 11.302900
_cell_angle_alpha 90.000000
_cell_angle_beta 90.000000
_cell_angle_gamma 90.000000
_cell_volume 2288.438567
loop_
_atom_site_label
_atom_site_type_symbol
_atom_site_fract_x
_atom_site_fract_y
_atom_site_fract_z
H1 H 0.641900 -0.102000 0.977000
H2 H -0.039400 0.424000 0.836000
H3 H -0.073300 0.326000 0.929000
H4 H 0.270200 0.428000 0.635000
H5 H 0.268300 0.670000 0.696000
H6 H 0.292200 0.733000 0.575000
H7 H 0.181000 0.542000 0.566000
H8 H 0.188000 0.775000 0.535000
H9 H 0.219000 0.629000 0.434000
H10 H 0.111800 0.267000 1.306000
H11 H 0.049100 0.093000 1.406000
H12 H -0.037100 0.008000 1.314000
H13 H 0.729800 0.572000 0.135000
H14 H 0.731700 0.330000 0.196000
H15 H 0.707800 0.267000 0.075000
H16 H 0.819000 0.458000 0.066000
H17 H 0.812000 0.225000 0.035000
H18 H 0.781000 0.371000 -0.066000
H19 H -0.061900 0.115000 1.121000
H20 H 0.077000 0.346000 0.545000
H21 H 0.047100 0.233000 0.621000
H22 H 0.770200 0.572000 0.635000
H23 H 0.768300 0.330000 0.696000
H24 H 0.792200 0.267000 0.575000
H25 H 0.681000 0.458000 0.566000
H26 H 0.688000 0.225000 0.535000
H27 H 0.719000 0.371000 0.434000
H28 H 0.036100 0.404000 0.657000
H29 H 0.280200 0.253000 0.850000
H30 H 0.312800 0.095000 0.693000
H31 H 0.229800 0.428000 0.135000
H32 H 0.231700 0.670000 0.196000
H33 H 0.207800 0.733000 0.075000
H34 H 0.319000 0.542000 0.066000
H35 H 0.312000 0.775000 0.035000
H36 H 0.281000 0.629000 -0.066000
H37 H 0.250400 0.034000 0.537000
H38 H 0.158600 0.146000 0.521000
H39 H 0.046700 0.536000 0.832000
H40 H 0.154200 0.704000 0.772000
H41 H 0.181800 0.969000 0.813000
H42 H 0.141900 1.102000 0.977000
H43 H 0.082100 0.963000 1.109000
H44 H 0.057200 0.714000 1.069000
H45 H 0.124400 0.439000 1.097000
H46 H 0.187000 0.418000 0.918000
H47 H 1.033400 0.763000 0.346000
H48 H 1.039400 0.576000 0.336000
H49 H 1.073300 0.674000 0.429000
H50 H 0.888200 0.733000 0.806000
H51 H 0.950900 0.907000 0.906000
H52 H 1.037100 0.992000 0.814000
H53 H 1.061900 0.885000 0.621000
H54 H 0.923000 0.654000 0.045000
H55 H 0.952900 0.767000 0.121000
H56 H 0.963900 0.596000 0.157000
H57 H 0.719800 0.747000 0.350000
H58 H 0.687200 0.905000 0.193000
H59 H 0.749600 0.966000 0.037000
H60 H 0.841400 0.854000 0.021000
H61 H 0.953300 0.464000 0.332000
H62 H 0.845800 0.296000 0.272000
H63 H 0.818200 0.031000 0.313000
H64 H 0.313000 0.418000 0.418000
H65 H 0.375600 0.439000 0.597000
H66 H 0.442800 0.714000 0.569000
H67 H 0.417900 0.963000 0.609000
H68 H 0.358100 1.102000 0.477000
H69 H 0.318200 0.969000 0.313000
H70 H 0.345800 0.704000 0.272000
H71 H 0.453300 0.536000 0.332000
H72 H 0.341400 0.146000 0.021000
H73 H 0.249600 0.034000 0.037000
H74 H 0.187200 0.095000 0.193000
H75 H 0.219800 0.253000 0.350000
H76 H 0.463900 0.404000 0.157000
H77 H 0.452900 0.233000 0.121000
H78 H 0.423000 0.346000 0.045000
H79 H 0.561900 0.115000 0.621000
H80 H 0.537100 0.008000 0.814000
H81 H 0.450900 0.093000 0.906000
H82 H 0.388200 0.267000 0.806000
H83 H 0.573300 0.326000 0.429000
H84 H 0.539400 0.424000 0.336000
H85 H 0.533400 0.237000 0.346000
H86 H 0.858100 -0.102000 0.477000
H87 H 0.917900 0.037000 0.609000
H88 H 0.942800 0.286000 0.569000
H89 H 0.875600 0.561000 0.597000
H90 H 0.813000 0.582000 0.418000
H91 H 0.466600 0.763000 0.846000
H92 H 0.460600 0.576000 0.836000
H93 H 0.426700 0.674000 0.929000
H94 H 0.611800 0.733000 1.306000
H95 H 0.549100 0.907000 1.406000
H96 H 0.462900 0.992000 1.314000
H97 H 0.438100 0.885000 1.121000
H98 H 0.577000 0.654000 0.545000
H99 H 0.547100 0.767000 0.621000
H100 H 0.536100 0.596000 0.657000
H101 H 0.780200 0.747000 0.850000
H102 H 0.812800 0.905000 0.693000
H103 H 0.750400 0.966000 0.537000
H104 H 0.658600 0.854000 0.521000
H105 H 0.546700 0.464000 0.832000
H106 H 0.654200 0.296000 0.772000
H107 H 0.681800 0.031000 0.813000
H108 H -0.033400 0.237000 0.846000
H109 H 0.582100 0.037000 1.109000
H110 H 0.557200 0.286000 1.069000
H111 H 0.624400 0.561000 1.097000
H112 H 0.687000 0.582000 0.918000
C113 C 0.462280 0.673200 0.902400
C114 C 0.560950 0.705200 1.159000
C115 C 0.575550 0.761800 1.271100
C116 C 0.539510 0.866700 1.324000
C117 C 0.489560 0.913500 1.269100
C118 C 0.474350 0.853500 1.160400
C119 C 0.510650 0.746500 1.103300
C120 C 0.508840 0.666000 0.991400
C121 C 0.557570 0.580700 0.982900
C122 C 0.563020 0.664100 0.629500
C123 C 0.701850 0.705800 0.778400
C124 C 0.755910 0.767300 0.784100
C125 C 0.772730 0.865900 0.692000
C126 C 0.737230 0.901300 0.598100
C127 C 0.683590 0.839700 0.592500
C128 C 0.665380 0.740300 0.683100
C129 C 0.613910 0.657800 0.706300
C130 C 0.620650 0.580600 0.811400
C131 C 0.639450 0.241900 0.844800
C132 C 0.655000 0.086600 0.868500
C133 C 0.633360 0.008500 0.965300
C134 C 0.596710 0.087400 1.040500
C135 C 0.263130 0.650400 0.604200
C136 C 0.209900 0.652800 0.528900
C137 C 0.920450 0.484200 0.382100
C138 C 0.898150 0.321100 0.417500
C139 C 0.918590 0.241400 0.516200
C140 C 0.903290 0.087400 0.540500
C141 C 0.866640 0.008500 0.465300
C142 C 0.845000 0.086600 0.368500
C143 C 0.860550 0.241900 0.344800
C144 C 0.879350 0.580600 0.311400
C145 C 0.886090 0.657800 0.206300
C146 C 0.834620 0.740300 0.183100
C147 C 0.816410 0.839700 0.092500
C148 C 0.762770 0.901300 0.098100
C149 C 0.727270 0.865900 0.192000
C150 C 0.744090 0.767300 0.284100
C151 C 0.798150 0.705800 0.278400
C152 C 0.936980 0.664100 0.129500
C153 C 0.942430 0.580700 0.482900
C154 C 0.991160 0.666000 0.491400
C155 C 0.989350 0.746500 0.603300
C156 C 1.025650 0.853500 0.660400
C157 C 1.010440 0.913500 0.769100
C158 C 0.960490 0.866700 0.824000
C159 C 0.924450 0.761800 0.771100
C160 C 0.939050 0.705200 0.659000
C161 C 1.037720 0.673200 0.402400
C162 C 0.581410 0.241400 1.016200
C163 C 0.601850 0.321100 0.917500
C164 C 0.579550 0.484200 0.882100
C165 C 0.736870 0.349600 0.104200
C166 C 0.790100 0.347200 0.028900
C167 C 0.537720 0.326800 0.402400
C168 C 0.439050 0.294800 0.659000
C169 C 0.424450 0.238200 0.771100
C170 C 0.460490 0.133300 0.824000
C171 C 0.510440 0.086500 0.769100
C172 C 0.525650 0.146500 0.660400
C173 C 0.489350 0.253500 0.603300
C174 C 0.491160 0.334000 0.491400
C175 C 0.442430 0.419300 0.482900
C176 C 0.436980 0.335900 0.129500
C177 C 0.298150 0.294200 0.278400
C178 C 0.244090 0.232700 0.284100
C179 C 0.227270 0.134100 0.192000
C180 C 0.262770 0.098700 0.098100
C181 C 0.316410 0.160300 0.092500
C182 C 0.334620 0.259700 0.183100
C183 C 0.386090 0.342200 0.206300
C184 C 0.763130 0.349600 0.604200
C185 C 0.709900 0.347200 0.528900
C186 C 0.079550 0.515800 0.882100
C187 C 0.101850 0.678900 0.917500
C188 C 0.081410 0.758600 1.016200
C189 C 0.096710 0.912600 1.040500
C190 C 0.133360 0.991500 0.965300
C191 C 0.155000 0.913400 0.868500
C192 C 0.139450 0.758100 0.844800
C193 C 0.120650 0.419400 0.811400
C194 C 0.113910 0.342200 0.706300
C195 C 0.165380 0.259700 0.683100
C196 C 0.183590 0.160300 0.592500
C197 C 0.237230 0.098700 0.598100
C198 C 0.272730 0.134100 0.692000
C199 C 0.255910 0.232700 0.784100
C200 C 0.201850 0.294200 0.778400
C201 C 0.063020 0.335900 0.629500
C202 C 0.057570 0.419300 0.982900
C203 C 0.008840 0.334000 0.991400
C204 C 0.010650 0.253500 1.103300
C205 C -0.025650 0.146500 1.160400
C206 C -0.010440 0.086500 1.269100
C207 C 0.039510 0.133300 1.324000
C208 C 0.075550 0.238200 1.271100
C209 C 0.060950 0.294800 1.159000
C210 C -0.037720 0.326800 0.902400
C211 C 0.379350 0.419400 0.311400
C212 C 0.360550 0.758100 0.344800
C213 C 0.345000 0.913400 0.368500
C214 C 0.366640 0.991500 0.465300
C215 C 0.403290 0.912600 0.540500
C216 C 0.418590 0.758600 0.516200
C217 C 0.398150 0.678900 0.417500
C218 C 0.420450 0.515800 0.382100
C219 C 0.236870 0.650400 0.104200
C220 C 0.290100 0.652800 0.028900
N221 N 0.325990 0.391100 0.355100
N222 N 0.411070 0.396700 0.585000
N223 N 0.825990 0.608900 0.355100
N224 N 0.088930 0.396700 1.085000
N225 N 0.174010 0.391100 0.855100
N226 N 0.911070 0.603300 0.585000
N227 N 0.674010 0.608900 0.855100
N228 N 0.588930 0.603300 1.085000
O229 O 0.791150 0.499600 0.589700
O230 O 0.208850 0.500400 0.089700
O231 O 0.291150 0.500400 0.589700
O232 O 0.708850 0.499600 0.089700

#END
