
#######################################################################
#
#                 Cambridge Crystallographic Data Centre
#                                CCDC 
#
#######################################################################
#
# If this CIF has been generated from an entry in the Cambridge 
# Structural Database, then it will include bibliographic, chemical, 
# crystal, experimental, refinement or atomic coordinate data resulting 
# from the CCDC's data processing and validation procedures.
#
#######################################################################

data_KAHFEF
_symmetry_cell_setting           monoclinic
_symmetry_space_group_name_H-M   'P 21/c'
_symmetry_Int_Tables_number      14
_space_group_name_Hall           '-P 2ybc'
loop_
_symmetry_equiv_pos_site_id
_symmetry_equiv_pos_as_xyz
1 x,y,z
2 x,1/2-y,1/2+z
3 -x,-y,-z
4 -x,1/2+y,1/2-z
_cell_length_a                   14.1941(10)
_cell_length_b                   6.2831(6)
_cell_length_c                   20.9475(10)
_cell_angle_alpha                90
_cell_angle_beta                 101.762(6)
_cell_angle_gamma                90
_cell_volume                     1828.93
loop_
_atom_site_label
_atom_site_type_symbol
_atom_site_fract_x
_atom_site_fract_y
_atom_site_fract_z
N1 N 0.00535(9) 0.72807(19) 0.63121(5)
C1 C 0.02350(13) 0.9010(3) 0.58837(9)
H1 H -0.0193(14) 1.018(3) 0.5950(9)
H2 H 0.0059(13) 0.848(3) 0.5382(10)
C2 C 0.12797(13) 0.9683(3) 0.60408(9)
H3 H 0.1381(13) 1.082(3) 0.5728(9)
H4 H 0.1441(13) 1.028(3) 0.6482(10)
C3 C 0.19470(11) 0.7835(2) 0.59946(7)
H5 H 0.1818(11) 0.726(2) 0.5542(8)
C4 C 0.30122(13) 0.8435(4) 0.61793(9)
H6 H 0.3137(13) 0.917(3) 0.6627(10)
H7 H 0.3389(15) 0.716(3) 0.6212(9)
C5 C 0.33556(11) 0.9897(3) 0.57039(7)
C6 C 0.37151(13) 1.1889(3) 0.58877(10)
H8 H 0.3728(15) 1.237(3) 0.6339(10)
C7 C 0.40384(16) 1.3216(4) 0.54523(13)
H9 H 0.4277(17) 1.456(4) 0.5596(11)
C8 C 0.40116(15) 1.2560(4) 0.48261(12)
H10 H 0.4219(16) 1.350(4) 0.4521(11)
C9 C 0.36550(16) 1.0589(4) 0.46325(10)
H11 H 0.3647(16) 1.008(4) 0.4186(12)
C10 C 0.33356(15) 0.9268(3) 0.50670(9)
H12 H 0.3104(15) 0.783(3) 0.4944(10)
C11 C 0.17082(12) 0.6032(3) 0.64216(9)
H13 H 0.2113(13) 0.484(3) 0.6394(9)
H14 H 0.1892(13) 0.657(3) 0.6902(10)
C12 C 0.06509(12) 0.5441(3) 0.62444(8)
H15 H 0.0516(12) 0.485(3) 0.5771(8)
H16 H 0.0500(12) 0.429(3) 0.6540(8)
C13 C -0.09756(11) 0.6800(3) 0.62452(7)
H17 H -0.1302(10) 0.817(3) 0.6226(7)
C14 C -0.14343(15) 0.5525(4) 0.56433(8)
H18 H -0.1158(17) 0.400(4) 0.5687(12)
H19 H -0.2122(17) 0.546(4) 0.5601(11)
H20 H -0.1265(15) 0.621(4) 0.5262(11)
C15 C -0.11188(11) 0.5712(3) 0.68775(7)
H21 H -0.0871(13) 0.412(3) 0.6882(9)
O1 O -0.05569(10) 0.6772(3) 0.74164(5)
H22 H -0.0123(18) 0.753(4) 0.7262(12)
C16 C -0.21615(11) 0.5711(3) 0.69378(6)
C17 C -0.25740(14) 0.7504(3) 0.71444(8)
H23 H -0.2192(13) 0.871(3) 0.7243(9)
C18 C -0.35325(15) 0.7529(4) 0.71923(9)
H24 H -0.3807(15) 0.873(4) 0.7330(10)
C19 C -0.40643(12) 0.5728(4) 0.70282(8)
F1 F -0.50031(8) 0.5736(3) 0.70791(6)
C20 C -0.36895(14) 0.3921(4) 0.68249(10)
H25 H -0.4074(16) 0.266(4) 0.6724(11)
C21 C -0.27285(13) 0.3925(3) 0.67814(9)
H26 H -0.2434(14) 0.266(3) 0.6631(9)
N1 N 0.00535(9) 0.77193(19) 0.13121(5)
C1 C 0.02350(13) 0.5990(3) 0.08837(9)
H1 H -0.0193(14) 0.482(3) 0.0950(9)
H2 H 0.0059(13) 0.652(3) 0.0382(10)
C2 C 0.12797(13) 0.5317(3) 0.10408(9)
H3 H 0.1381(13) 0.418(3) 0.0728(9)
H4 H 0.1441(13) 0.472(3) 0.1482(10)
C3 C 0.19470(11) 0.7165(2) 0.09946(7)
H5 H 0.1818(11) 0.774(2) 0.0542(8)
C4 C 0.30122(13) 0.6565(4) 0.11793(9)
H6 H 0.3137(13) 0.583(3) 0.1627(10)
H7 H 0.3389(15) 0.784(3) 0.1212(9)
C5 C 0.33556(11) 0.5103(3) 0.07039(7)
C6 C 0.37151(13) 0.3111(3) 0.08877(10)
H8 H 0.3728(15) 0.263(3) 0.1339(10)
C7 C 0.40384(16) 0.1784(4) 0.04523(13)
H9 H 0.4277(17) 0.044(4) 0.0596(11)
C8 C 0.40116(15) 0.2440(4) -0.01739(12)
H10 H 0.4219(16) 0.150(4) -0.0479(11)
C9 C 0.36550(16) 0.4411(4) -0.03675(10)
H11 H 0.3647(16) 0.492(4) -0.0814(12)
C10 C 0.33356(15) 0.5732(3) 0.00670(9)
H12 H 0.3104(15) 0.717(3) -0.0056(10)
C11 C 0.17082(12) 0.8968(3) 0.14216(9)
H13 H 0.2113(13) 1.016(3) 0.1394(9)
H14 H 0.1892(13) 0.843(3) 0.1902(10)
C12 C 0.06509(12) 0.9559(3) 0.12444(8)
H15 H 0.0516(12) 1.015(3) 0.0771(8)
H16 H 0.0500(12) 1.071(3) 0.1540(8)
C13 C -0.09756(11) 0.8200(3) 0.12452(7)
H17 H -0.1302(10) 0.683(3) 0.1226(7)
C14 C -0.14343(15) 0.9475(4) 0.06433(8)
H18 H -0.1158(17) 1.100(4) 0.0687(12)
H19 H -0.2122(17) 0.954(4) 0.0601(11)
H20 H -0.1265(15) 0.879(4) 0.0262(11)
C15 C -0.11188(11) 0.9288(3) 0.18775(7)
H21 H -0.0871(13) 1.088(3) 0.1882(9)
O1 O -0.05569(10) 0.8228(3) 0.24164(5)
H22 H -0.0123(18) 0.747(4) 0.2262(12)
C16 C -0.21615(11) 0.9289(3) 0.19378(6)
C17 C -0.25740(14) 0.7496(3) 0.21444(8)
H23 H -0.2192(13) 0.629(3) 0.2243(9)
C18 C -0.35325(15) 0.7471(4) 0.21923(9)
H24 H -0.3807(15) 0.627(4) 0.2330(10)
C19 C -0.40643(12) 0.9272(4) 0.20282(8)
F1 F -0.50031(8) 0.9264(3) 0.20791(6)
C20 C -0.36895(14) 1.1079(4) 0.18249(10)
H25 H -0.4074(16) 1.234(4) 0.1724(11)
C21 C -0.27285(13) 1.1075(3) 0.17814(9)
H26 H -0.2434(14) 1.234(3) 0.1631(9)
N1 N 0.99465(9) 0.27193(19) 0.36879(5)
C1 C 0.97650(13) 0.0990(3) 0.41163(9)
H1 H 1.0193(14) -0.018(3) 0.4050(9)
H2 H 0.9941(13) 0.152(3) 0.4618(10)
C2 C 0.87203(13) 0.0317(3) 0.39592(9)
H3 H 0.8619(13) -0.082(3) 0.4272(9)
H4 H 0.8559(13) -0.028(3) 0.3518(10)
C3 C 0.80530(11) 0.2165(2) 0.40054(7)
H5 H 0.8182(11) 0.274(2) 0.4458(8)
C4 C 0.69878(13) 0.1565(4) 0.38207(9)
H6 H 0.6863(13) 0.083(3) 0.3373(10)
H7 H 0.6611(15) 0.284(3) 0.3788(9)
C5 C 0.66444(11) 0.0103(3) 0.42961(7)
C6 C 0.62849(13) -0.1889(3) 0.41123(10)
H8 H 0.6272(15) -0.237(3) 0.3661(10)
C7 C 0.59616(16) -0.3216(4) 0.45477(13)
H9 H 0.5723(17) -0.456(4) 0.4404(11)
C8 C 0.59884(15) -0.2560(4) 0.51739(12)
H10 H 0.5781(16) -0.350(4) 0.5479(11)
C9 C 0.63450(16) -0.0589(4) 0.53675(10)
H11 H 0.6353(16) -0.008(4) 0.5814(12)
C10 C 0.66644(15) 0.0732(3) 0.49330(9)
H12 H 0.6896(15) 0.217(3) 0.5056(10)
C11 C 0.82918(12) 0.3968(3) 0.35784(9)
H13 H 0.7887(13) 0.516(3) 0.3606(9)
H14 H 0.8108(13) 0.343(3) 0.3098(10)
C12 C 0.93491(12) 0.4559(3) 0.37556(8)
H15 H 0.9484(12) 0.515(3) 0.4229(8)
H16 H 0.9500(12) 0.571(3) 0.3460(8)
C13 C 1.09756(11) 0.3200(3) 0.37548(7)
H17 H 1.1302(10) 0.183(3) 0.3774(7)
C14 C 1.14343(15) 0.4475(4) 0.43567(8)
H18 H 1.1158(17) 0.600(4) 0.4313(12)
H19 H 1.2122(17) 0.454(4) 0.4399(11)
H20 H 1.1265(15) 0.379(4) 0.4738(11)
C15 C 1.11188(11) 0.4288(3) 0.31225(7)
H21 H 1.0871(13) 0.588(3) 0.3118(9)
O1 O 1.05569(10) 0.3228(3) 0.25836(5)
H22 H 1.0123(18) 0.247(4) 0.2738(12)
C16 C 1.21615(11) 0.4289(3) 0.30622(6)
C17 C 1.25740(14) 0.2496(3) 0.28556(8)
H23 H 1.2192(13) 0.129(3) 0.2757(9)
C18 C 1.35325(15) 0.2471(4) 0.28077(9)
H24 H 1.3807(15) 0.127(4) 0.2670(10)
C19 C 1.40643(12) 0.4272(4) 0.29718(8)
F1 F 1.50031(8) 0.4264(3) 0.29209(6)
C20 C 1.36895(14) 0.6079(4) 0.31751(10)
H25 H 1.4074(16) 0.734(4) 0.3276(11)
C21 C 1.27285(13) 0.6075(3) 0.32186(9)
H26 H 1.2434(14) 0.734(3) 0.3369(9)
N1 N 0.99465(9) 0.22807(19) 0.86879(5)
C1 C 0.97650(13) 0.4010(3) 0.91163(9)
H1 H 1.0193(14) 0.518(3) 0.9050(9)
H2 H 0.9941(13) 0.348(3) 0.9618(10)
C2 C 0.87203(13) 0.4683(3) 0.89592(9)
H3 H 0.8619(13) 0.582(3) 0.9272(9)
H4 H 0.8559(13) 0.528(3) 0.8518(10)
C3 C 0.80530(11) 0.2835(2) 0.90054(7)
H5 H 0.8182(11) 0.226(2) 0.9458(8)
C4 C 0.69878(13) 0.3435(4) 0.88207(9)
H6 H 0.6863(13) 0.417(3) 0.8373(10)
H7 H 0.6611(15) 0.216(3) 0.8788(9)
C5 C 0.66444(11) 0.4897(3) 0.92961(7)
C6 C 0.62849(13) 0.6889(3) 0.91123(10)
H8 H 0.6272(15) 0.737(3) 0.8661(10)
C7 C 0.59616(16) 0.8216(4) 0.95477(13)
H9 H 0.5723(17) 0.956(4) 0.9404(11)
C8 C 0.59884(15) 0.7560(4) 1.01739(12)
H10 H 0.5781(16) 0.850(4) 1.0479(11)
C9 C 0.63450(16) 0.5589(4) 1.03675(10)
H11 H 0.6353(16) 0.508(4) 1.0814(12)
C10 C 0.66644(15) 0.4268(3) 0.99330(9)
H12 H 0.6896(15) 0.283(3) 1.0056(10)
C11 C 0.82918(12) 0.1032(3) 0.85784(9)
H13 H 0.7887(13) -0.016(3) 0.8606(9)
H14 H 0.8108(13) 0.157(3) 0.8098(10)
C12 C 0.93491(12) 0.0441(3) 0.87556(8)
H15 H 0.9484(12) -0.015(3) 0.9229(8)
H16 H 0.9500(12) -0.071(3) 0.8460(8)
C13 C 1.09756(11) 0.1800(3) 0.87548(7)
H17 H 1.1302(10) 0.317(3) 0.8774(7)
C14 C 1.14343(15) 0.0525(4) 0.93567(8)
H18 H 1.1158(17) -0.100(4) 0.9313(12)
H19 H 1.2122(17) 0.046(4) 0.9399(11)
H20 H 1.1265(15) 0.121(4) 0.9738(11)
C15 C 1.11188(11) 0.0712(3) 0.81225(7)
H21 H 1.0871(13) -0.088(3) 0.8118(9)
O1 O 1.05569(10) 0.1772(3) 0.75836(5)
H22 H 1.0123(18) 0.253(4) 0.7738(12)
C16 C 1.21615(11) 0.0711(3) 0.80622(6)
C17 C 1.25740(14) 0.2504(3) 0.78556(8)
H23 H 1.2192(13) 0.371(3) 0.7757(9)
C18 C 1.35325(15) 0.2529(4) 0.78077(9)
H24 H 1.3807(15) 0.373(4) 0.7670(10)
C19 C 1.40643(12) 0.0728(4) 0.79718(8)
F1 F 1.50031(8) 0.0736(3) 0.79209(6)
C20 C 1.36895(14) -0.1079(4) 0.81751(10)
H25 H 1.4074(16) -0.234(4) 0.8276(11)
C21 C 1.27285(13) -0.1075(3) 0.82186(9)
H26 H 1.2434(14) -0.234(3) 0.8369(9)

#END
