./KAHGUV10_from_POSCAR.cif_generated_by_CrystalShift
_symmetry_cell_setting triclinic
_symmetry_space_group_name_H-M 'P 1'
loop_
_symmetry_equiv_pos_site_id
_symmetry_equiv_pos_as_xyz
1 x,y,z
_cell_length_a 9.784000
_cell_length_b 9.384000
_cell_length_c 9.614000
_cell_angle_alpha 90.000000
_cell_angle_beta 117.530000
_cell_angle_gamma 90.000000
_cell_volume 782.742715
loop_
_atom_site_label
_atom_site_type_symbol
_atom_site_fract_x
_atom_site_fract_y
_atom_site_fract_z
H1 H 0.163700 0.832900 0.521100
H2 H 0.259200 0.742000 0.670400
H3 H 0.092900 0.847800 0.785500
H4 H 0.596800 1.209700 1.460000
H5 H 0.836300 1.167100 1.478900
H6 H 0.740800 1.258000 1.329600
H7 H 0.907100 1.152200 1.214500
H8 H 0.993600 1.068000 1.371300
H9 H 0.313200 1.049000 1.274500
H10 H 0.322500 1.211700 1.308300
H11 H 0.780000 0.744000 0.957400
H12 H 0.163700 0.832900 -0.478900
H13 H 0.006400 0.568000 0.128700
H14 H 0.092900 0.652200 0.285500
H15 H 0.259200 0.758000 0.170400
H16 H 0.163700 0.667100 0.021100
H17 H 0.403200 0.709700 0.040000
H18 H 0.387200 0.547500 0.062700
H19 H 0.686800 0.549000 0.225500
H20 H 0.677500 0.711700 0.191700
H21 H 0.220000 0.244000 0.542600
H22 H 0.106300 0.333800 0.577400
H23 H -0.014000 0.444100 0.324400
H24 H 0.085900 0.356200 0.268400
H25 H 0.259200 0.742000 -0.329600
H26 H 0.092900 0.847800 -0.214500
H27 H 0.006400 0.932000 -0.371300
H28 H 0.387200 0.952500 -0.437300
H29 H 0.006400 0.932000 0.628700
H30 H 0.403200 0.790300 -0.460000
H31 H 0.387200 0.952500 0.562700
H32 H 0.780000 0.756000 0.457400
H33 H 0.893700 0.666200 0.422600
H34 H 0.313200 0.451000 0.774500
H35 H 0.322500 0.288300 0.808300
H36 H 0.085900 1.143800 -0.231600
H37 H 0.403200 0.790300 0.540000
H38 H -0.014000 1.055900 -0.175600
H39 H 0.893700 0.833800 0.922600
H40 H 1.014000 0.555900 0.675600
H41 H 0.914100 0.643800 0.731600
H42 H 0.677500 0.788300 -0.308300
H43 H 0.596800 0.290300 0.960000
H44 H 0.612800 0.452500 0.937300
H45 H 0.993600 0.432000 0.871300
H46 H 0.907100 0.347800 0.714500
H47 H 0.740800 0.242000 0.829600
H48 H 0.836300 0.332900 0.978900
H49 H 0.686800 0.951000 -0.274500
H50 H 0.085900 1.143800 0.768400
H51 H -0.014000 1.055900 0.824400
H52 H 0.106300 1.166200 0.077400
H53 H 0.220000 1.256000 0.042600
H54 H 1.014000 0.944100 1.175600
H55 H 0.914100 0.856200 1.231600
H56 H 0.914100 0.856200 0.231600
H57 H 1.014000 0.944100 0.175600
H58 H 0.893700 0.833800 -0.077400
H59 H 0.780000 0.744000 -0.042600
H60 H 0.322500 1.211700 0.308300
H61 H 0.993600 0.068000 0.371300
H62 H 0.907100 0.152200 0.214500
H63 H 0.740800 0.258000 0.329600
H64 H 0.836300 0.167100 0.478900
H65 H 0.596800 0.209700 0.460000
H66 H 0.612800 0.047500 0.437300
H67 H 0.313200 0.049000 0.274500
H68 H 0.322500 0.211700 0.308300
H69 H 0.780000 -0.256000 -0.042600
H70 H 0.893700 -0.166200 -0.077400
H71 H 1.014000 -0.055900 0.175600
H72 H 0.914100 -0.143800 0.231600
H73 H 0.313200 1.049000 0.274500
H74 H 0.612800 1.047500 0.437300
H75 H 0.596800 1.209700 0.460000
H76 H 0.836300 1.167100 0.478900
H77 H 0.740800 1.258000 0.329600
H78 H 0.907100 1.152200 0.214500
H79 H 0.993600 1.068000 0.371300
H80 H 0.220000 0.256000 0.042600
H81 H 0.106300 0.166200 0.077400
H82 H 0.686800 -0.049000 -0.274500
H83 H 0.677500 -0.211700 -0.308300
H84 H 0.163700 -0.167100 0.521100
H85 H 0.259200 -0.258000 0.670400
H86 H 0.092900 -0.152200 0.785500
H87 H 0.006400 -0.068000 0.628700
H88 H -0.014000 0.055900 -0.175600
H89 H 0.085900 0.143800 -0.231600
H90 H 0.387200 -0.047500 0.562700
H91 H 0.403200 -0.209700 -0.460000
H92 H 0.387200 -0.047500 -0.437300
H93 H 0.006400 -0.068000 -0.371300
H94 H 0.092900 -0.152200 -0.214500
H95 H 0.259200 -0.258000 -0.329600
H96 H 0.163700 -0.167100 -0.478900
H97 H 0.677500 0.788300 0.691700
H98 H 0.686800 0.951000 0.725500
H99 H 0.106300 1.166200 1.077400
H100 H 0.403200 -0.209700 0.540000
H101 H 0.085900 0.143800 0.768400
H102 H -0.014000 0.055900 0.824400
H103 H 0.677500 -0.211700 0.691700
H104 H 0.686800 -0.049000 0.725500
H105 H 0.106300 0.166200 1.077400
H106 H 0.612800 1.047500 1.437300
H107 H 0.220000 0.256000 1.042600
H108 H 0.220000 1.256000 1.042600
H109 H 0.993600 0.068000 1.371300
H110 H 0.907100 0.152200 1.214500
H111 H 0.740800 0.258000 1.329600
H112 H 0.836300 0.167100 1.478900
H113 H 0.596800 0.209700 1.460000
H114 H 0.612800 0.047500 1.437300
H115 H 0.313200 0.049000 1.274500
H116 H 0.322500 0.211700 1.308300
H117 H 0.780000 -0.256000 0.957400
H118 H 0.893700 -0.166200 0.922600
H119 H 1.014000 -0.055900 1.175600
H120 H 0.914100 -0.143800 1.231600
C121 C 0.354700 0.031900 0.985200
C122 C 0.513300 -0.068700 0.877300
C123 C 0.203600 0.166200 1.077900
C124 C 0.673000 -0.140500 0.759500
C125 C 0.919200 -0.058900 1.180300
C126 C 0.367500 -0.032400 0.861600
C127 C 0.367500 0.967600 0.861600
C128 C 0.796400 -0.166200 0.922100
C129 C 0.606600 0.139600 1.393800
C130 C 0.749400 0.167900 1.377900
C131 C 0.908100 0.067600 1.269200
C132 C 0.080800 0.058900 0.819700
C133 C 0.673000 0.859500 0.759500
C134 C 0.393400 -0.139600 0.606200
C135 C 0.091900 -0.067600 0.730800
C136 C 0.645300 -0.031900 1.014800
C137 C 0.486700 0.068700 1.122700
C138 C 0.250600 -0.167900 0.622100
C139 C 0.632500 0.032400 1.138400
C140 C 0.250600 -0.167900 -0.377900
C141 C 0.091900 -0.067600 -0.269200
C142 C 0.393400 -0.139600 -0.393800
C143 C 0.080800 1.058900 0.819700
C144 C 0.080800 0.058900 -0.180300
C145 C 0.203600 1.166200 1.077900
C146 C 0.513300 0.931300 0.877300
C147 C 0.354700 1.031900 0.985200
C148 C 0.632500 1.032400 0.138400
C149 C 0.486700 1.068700 0.122700
C150 C 0.645300 0.968100 0.014800
C151 C 0.908100 1.067600 0.269200
C152 C 0.749400 1.167900 0.377900
C153 C 0.606600 1.139600 0.393800
C154 C 0.327000 1.140500 0.240500
C155 C 0.796400 0.833800 -0.077900
C156 C 0.919200 0.941100 0.180300
C157 C 0.393400 0.860400 0.606200
C158 C 0.367500 -0.032400 -0.138400
C159 C 0.091900 0.932400 0.730800
C160 C 0.673000 -0.140500 -0.240500
C161 C 0.203600 0.166200 0.077900
C162 C 0.513300 -0.068700 -0.122700
C163 C 0.354700 0.031900 -0.014800
C164 C 0.919200 -0.058900 0.180300
C165 C 0.796400 -0.166200 -0.077900
C166 C 0.327000 0.140500 0.240500
C167 C 0.606600 0.139600 0.393800
C168 C 0.749400 0.167900 0.377900
C169 C 0.354700 1.031900 -0.014800
C170 C 0.513300 0.931300 -0.122700
C171 C 0.203600 1.166200 0.077900
C172 C 0.673000 0.859500 -0.240500
C173 C 0.908100 0.067600 0.269200
C174 C 0.367500 0.967600 -0.138400
C175 C 0.645300 -0.031900 0.014800
C176 C 0.486700 0.068700 0.122700
C177 C 0.632500 0.032400 0.138400
C178 C 0.250600 0.832100 0.622100
C179 C 0.749400 0.332100 0.877900
C180 C 0.080800 1.058900 -0.180300
C181 C 0.908100 0.432400 0.769200
C182 C 0.393400 0.860400 -0.393800
C183 C 0.091900 0.932400 -0.269200
C184 C 0.606600 0.360400 0.893800
C185 C 0.919200 0.558900 0.680300
C186 C 0.250600 0.832100 -0.377900
C187 C 0.632500 0.467600 0.638400
C188 C 0.327000 0.359500 0.740500
C189 C 0.796400 0.666200 0.422100
C190 C 0.486700 0.431300 0.622700
C191 C 0.645300 0.531900 0.514800
C192 C 0.080800 0.441100 0.319700
C193 C 0.203600 0.333800 0.577900
C194 C 0.673000 0.640500 0.259500
C195 C 0.393400 0.639600 0.106200
C196 C 0.632500 1.032400 1.138400
C197 C 0.486700 1.068700 1.122700
C198 C 0.645300 0.968100 1.014800
C199 C 0.908100 1.067600 1.269200
C200 C 0.749400 1.167900 1.377900
C201 C 0.606600 1.139600 1.393800
C202 C 0.327000 1.140500 1.240500
C203 C 0.796400 0.833800 0.922100
C204 C 0.919200 0.941100 1.180300
C205 C 0.250600 0.667900 0.122100
C206 C 0.091900 0.567600 0.230800
C207 C 0.354700 0.468100 0.485200
C208 C 0.513300 0.568700 0.377300
C209 C 0.367500 0.532400 0.361600
C210 C 0.327000 0.140500 1.240500
N211 N 0.793000 0.943700 1.023500
N212 N 0.475300 1.146300 1.241800
N213 N 0.766300 1.057600 1.281700
N214 N 0.233700 0.942400 -0.281700
N215 N 0.524700 0.853700 -0.241800
N216 N 0.207000 1.056300 -0.023500
N217 N 0.793000 0.943700 0.023500
N218 N 0.475300 1.146300 0.241800
N219 N 0.766300 1.057600 0.281700
N220 N 0.233700 -0.057600 0.718300
N221 N 0.207000 1.056300 0.976500
N222 N 0.524700 -0.146300 0.758200
N223 N 0.524700 0.853700 0.758200
N224 N 0.207000 0.056300 0.976500
N225 N 0.793000 -0.056300 1.023500
N226 N 0.475300 0.146300 1.241800
N227 N 0.766300 0.057600 1.281700
N228 N 0.233700 -0.057600 -0.281700
N229 N 0.233700 0.942400 0.718300
N230 N 0.524700 -0.146300 -0.241800
N231 N 0.207000 0.056300 -0.023500
N232 N 0.793000 -0.056300 0.023500
N233 N 0.475300 0.146300 0.241800
N234 N 0.766300 0.057600 0.281700
N235 N 0.766300 0.442400 0.781700
N236 N 0.475300 0.353700 0.741800
N237 N 0.793000 0.556300 0.523500
N238 N 0.207000 0.443700 0.476500
N239 N 0.524700 0.646300 0.258200
N240 N 0.233700 0.557600 0.218300

#END
