
#######################################################################
#
#                 Cambridge Crystallographic Data Centre
#                                CCDC 
#
#######################################################################
#
# If this CIF has been generated from an entry in the Cambridge 
# Structural Database, then it will include bibliographic, chemical, 
# crystal, experimental, refinement or atomic coordinate data resulting 
# from the CCDC's data processing and validation procedures.
#
#######################################################################

data_KAHGAC
_symmetry_cell_setting           orthorhombic
_symmetry_space_group_name_H-M   'P 21 21 21'
_symmetry_Int_Tables_number      19
_space_group_name_Hall           'P 2ac 2ab'
loop_
_symmetry_equiv_pos_site_id
_symmetry_equiv_pos_as_xyz
1 x,y,z
2 1/2-x,-y,1/2+z
3 -x,1/2+y,1/2-z
4 1/2+x,1/2-y,-z
_cell_length_a                   8.911(3)
_cell_length_b                   9.584(4)
_cell_length_c                   24.040(11)
_cell_angle_alpha                90
_cell_angle_beta                 90
_cell_angle_gamma                90
_cell_volume                     2053.09
loop_
_atom_site_label
_atom_site_type_symbol
_atom_site_fract_x
_atom_site_fract_y
_atom_site_fract_z
Br1 Br 1.27162(5) 0.54632(5) 0.19559(2)
N1 N 0.5780(3) 0.2639(3) 0.18514(12)
H1 H 0.6216 0.3391 0.1961
N2 N 0.5349(3) 0.4531(3) 0.07492(13)
H2 H 0.5157 0.4679 0.1095
C1 C 0.7133(4) 0.2557(3) 0.09344(13)
H3 H 0.7503 0.1775 0.0710
C2 C 0.8512(3) 0.3270(3) 0.11827(14)
C3 C 0.9016(4) 0.4551(4) 0.09867(15)
H4 H 0.8498 0.4992 0.0700
C4 C 1.0276(4) 0.5183(4) 0.12102(16)
H5 H 1.0608 0.6037 0.1074
C5 C 1.1025(3) 0.4534(4) 0.16341(15)
C6 C 1.0587(4) 0.3256(4) 0.18306(15)
H6 H 1.1132 0.2814 0.2109
C7 C 0.9325(4) 0.2632(4) 0.16092(15)
H7 H 0.9011 0.1773 0.1746
C8 C 0.6083(4) 0.1947(4) 0.13586(15)
C9 C 0.5144(4) 0.0823(4) 0.13206(18)
C10 C 0.4256(4) 0.0819(4) 0.18119(19)
C11 C 0.3066(5) -0.0036(5) 0.2013(3)
H8 H 0.2719 -0.0793 0.1808
C12 C 0.2437(5) 0.0302(6) 0.2529(3)
H9 H 0.1653 -0.0240 0.2665
C13 C 0.2936(6) 0.1400(7) 0.2841(2)
H10 H 0.2500 0.1572 0.3186
C14 C 0.4055(5) 0.2247(6) 0.26580(19)
H11 H 0.4390 0.2997 0.2870
C15 C 0.4681(4) 0.1947(4) 0.21390(16)
C16 C 0.5049(6) -0.0173(5) 0.0847(3)
H12 H 0.5781 0.0073 0.0570
H13 H 0.4064 -0.0133 0.0686
H14 H 0.5242 -0.1102 0.0978
C17 C 0.6289(4) 0.3498(3) 0.05462(13)
C18 C 0.6352(4) 0.3576(4) -0.00187(14)
C19 C 0.5392(4) 0.4714(4) -0.01775(15)
C20 C 0.5001(5) 0.5311(5) -0.06816(19)
H15 H 0.5419 0.4982 -0.1011
C21 C 0.3984(6) 0.6400(5) -0.0691(3)
H16 H 0.3696 0.6788 -0.1029
C22 C 0.3396(6) 0.6914(5) -0.0202(3)
H17 H 0.2720 0.7652 -0.0220
C23 C 0.3763(5) 0.6383(4) 0.0310(2)
H18 H 0.3359 0.6742 0.0637
C24 C 0.4770(4) 0.5280(4) 0.03125(16)
C25 C 0.7228(5) 0.2664(4) -0.03962(16)
H19 H 0.7772 0.1989 -0.0181
H20 H 0.7920 0.3220 -0.0607
H21 H 0.6557 0.2191 -0.0646
Br1 Br 0.22838(5) 0.45368(5) 0.69559(2)
N1 N 0.9220(3) 0.7361(3) 0.68514(12)
H1 H 0.8784 0.6609 0.6961
N2 N 0.9651(3) 0.5469(3) 0.57492(13)
H2 H 0.9843 0.5321 0.6095
C1 C 0.7867(4) 0.7443(3) 0.59344(13)
H3 H 0.7497 0.8225 0.5710
C2 C 0.6488(3) 0.6730(3) 0.61827(14)
C3 C 0.5984(4) 0.5449(4) 0.59867(15)
H4 H 0.6502 0.5008 0.5700
C4 C 0.4724(4) 0.4817(4) 0.62102(16)
H5 H 0.4392 0.3963 0.6074
C5 C 0.3975(3) 0.5466(4) 0.66341(15)
C6 C 0.4413(4) 0.6744(4) 0.68306(15)
H6 H 0.3868 0.7186 0.7109
C7 C 0.5675(4) 0.7368(4) 0.66092(15)
H7 H 0.5989 0.8227 0.6746
C8 C 0.8917(4) 0.8053(4) 0.63586(15)
C9 C 0.9856(4) 0.9177(4) 0.63206(18)
C10 C 1.0744(4) 0.9181(4) 0.68119(19)
C11 C 1.1934(5) 1.0036(5) 0.7013(3)
H8 H 1.2281 1.0793 0.6808
C12 C 1.2563(5) 0.9698(6) 0.7529(3)
H9 H 1.3347 1.0240 0.7665
C13 C 1.2064(6) 0.8600(7) 0.7841(2)
H10 H 1.2500 0.8428 0.8186
C14 C 1.0945(5) 0.7753(6) 0.76580(19)
H11 H 1.0610 0.7003 0.7870
C15 C 1.0319(4) 0.8053(4) 0.71390(16)
C16 C 0.9951(6) 1.0173(5) 0.5847(3)
H12 H 0.9219 0.9927 0.5570
H13 H 1.0936 1.0133 0.5686
H14 H 0.9758 1.1102 0.5978
C17 C 0.8711(4) 0.6502(3) 0.55462(13)
C18 C 0.8648(4) 0.6424(4) 0.49813(14)
C19 C 0.9608(4) 0.5286(4) 0.48225(15)
C20 C 0.9999(5) 0.4689(5) 0.43184(19)
H15 H 0.9581 0.5018 0.3989
C21 C 1.1016(6) 0.3600(5) 0.4309(3)
H16 H 1.1304 0.3212 0.3971
C22 C 1.1604(6) 0.3086(5) 0.4798(3)
H17 H 1.2280 0.2348 0.4780
C23 C 1.1237(5) 0.3617(4) 0.5310(2)
H18 H 1.1641 0.3258 0.5637
C24 C 1.0230(4) 0.4720(4) 0.53125(16)
C25 C 0.7772(5) 0.7336(4) 0.46038(16)
H19 H 0.7228 0.8011 0.4819
H20 H 0.7080 0.6780 0.4393
H21 H 0.8443 0.7809 0.4354
Br1 Br -0.27162(5) 1.04632(5) 0.30441(2)
N1 N 0.4220(3) 0.7639(3) 0.31486(12)
H1 H 0.3784 0.8391 0.3039
N2 N 0.4651(3) 0.9531(3) 0.42508(13)
H2 H 0.4843 0.9679 0.3905
C1 C 0.2867(4) 0.7557(3) 0.40656(13)
H3 H 0.2497 0.6775 0.4290
C2 C 0.1488(3) 0.8270(3) 0.38173(14)
C3 C 0.0984(4) 0.9551(4) 0.40133(15)
H4 H 0.1502 0.9992 0.4300
C4 C -0.0276(4) 1.0183(4) 0.37898(16)
H5 H -0.0608 1.1037 0.3926
C5 C -0.1025(3) 0.9534(4) 0.33659(15)
C6 C -0.0587(4) 0.8256(4) 0.31694(15)
H6 H -0.1132 0.7814 0.2891
C7 C 0.0675(4) 0.7632(4) 0.33908(15)
H7 H 0.0989 0.6773 0.3254
C8 C 0.3917(4) 0.6947(4) 0.36414(15)
C9 C 0.4856(4) 0.5823(4) 0.36794(18)
C10 C 0.5744(4) 0.5819(4) 0.31881(19)
C11 C 0.6934(5) 0.4964(5) 0.2987(3)
H8 H 0.7281 0.4207 0.3192
C12 C 0.7563(5) 0.5302(6) 0.2471(3)
H9 H 0.8347 0.4760 0.2335
C13 C 0.7064(6) 0.6400(7) 0.2159(2)
H10 H 0.7500 0.6572 0.1814
C14 C 0.5945(5) 0.7247(6) 0.23420(19)
H11 H 0.5610 0.7997 0.2130
C15 C 0.5319(4) 0.6947(4) 0.28610(16)
C16 C 0.4951(6) 0.4827(5) 0.4153(3)
H12 H 0.4219 0.5073 0.4430
H13 H 0.5936 0.4867 0.4314
H14 H 0.4758 0.3898 0.4022
C17 C 0.3711(4) 0.8498(3) 0.44538(13)
C18 C 0.3648(4) 0.8576(4) 0.50187(14)
C19 C 0.4608(4) 0.9714(4) 0.51775(15)
C20 C 0.4999(5) 1.0311(5) 0.56816(19)
H15 H 0.4581 0.9982 0.6011
C21 C 0.6016(6) 1.1400(5) 0.5691(3)
H16 H 0.6304 1.1788 0.6029
C22 C 0.6604(6) 1.1914(5) 0.5202(3)
H17 H 0.7280 1.2652 0.5220
C23 C 0.6237(5) 1.1383(4) 0.4690(2)
H18 H 0.6641 1.1742 0.4363
C24 C 0.5230(4) 1.0280(4) 0.46875(16)
C25 C 0.2772(5) 0.7664(4) 0.53962(16)
H19 H 0.2228 0.6989 0.5181
H20 H 0.2080 0.8220 0.5607
H21 H 0.3443 0.7191 0.5646
Br1 Br 0.77162(5) -0.04632(5) 0.80441(2)
N1 N 0.0780(3) 0.2361(3) 0.81486(12)
H1 H 0.1216 0.1609 0.8039
N2 N 0.0349(3) 0.0469(3) 0.92508(13)
H2 H 0.0157 0.0321 0.8905
C1 C 0.2133(4) 0.2443(3) 0.90656(13)
H3 H 0.2503 0.3225 0.9290
C2 C 0.3512(3) 0.1730(3) 0.88173(14)
C3 C 0.4016(4) 0.0449(4) 0.90133(15)
H4 H 0.3498 0.0008 0.9300
C4 C 0.5276(4) -0.0183(4) 0.87898(16)
H5 H 0.5608 -0.1037 0.8926
C5 C 0.6025(3) 0.0466(4) 0.83659(15)
C6 C 0.5587(4) 0.1744(4) 0.81694(15)
H6 H 0.6132 0.2186 0.7891
C7 C 0.4325(4) 0.2368(4) 0.83908(15)
H7 H 0.4011 0.3227 0.8254
C8 C 0.1083(4) 0.3053(4) 0.86414(15)
C9 C 0.0144(4) 0.4177(4) 0.86794(18)
C10 C -0.0744(4) 0.4181(4) 0.81881(19)
C11 C -0.1934(5) 0.5036(5) 0.7987(3)
H8 H -0.2281 0.5793 0.8192
C12 C -0.2563(5) 0.4698(6) 0.7471(3)
H9 H -0.3347 0.5240 0.7335
C13 C -0.2064(6) 0.3600(7) 0.7159(2)
H10 H -0.2500 0.3428 0.6814
C14 C -0.0945(5) 0.2753(6) 0.73420(19)
H11 H -0.0610 0.2003 0.7130
C15 C -0.0319(4) 0.3053(4) 0.78610(16)
C16 C 0.0049(6) 0.5173(5) 0.9153(3)
H12 H 0.0781 0.4927 0.9430
H13 H -0.0936 0.5133 0.9314
H14 H 0.0242 0.6102 0.9022
C17 C 0.1289(4) 0.1502(3) 0.94538(13)
C18 C 0.1352(4) 0.1424(4) 1.00187(14)
C19 C 0.0392(4) 0.0286(4) 1.01775(15)
C20 C 0.0001(5) -0.0311(5) 1.06816(19)
H15 H 0.0419 0.0018 1.1011
C21 C -0.1016(6) -0.1400(5) 1.0691(3)
H16 H -0.1304 -0.1788 1.1029
C22 C -0.1604(6) -0.1914(5) 1.0202(3)
H17 H -0.2280 -0.2652 1.0220
C23 C -0.1237(5) -0.1383(4) 0.9690(2)
H18 H -0.1641 -0.1742 0.9363
C24 C -0.0230(4) -0.0280(4) 0.96875(16)
C25 C 0.2228(5) 0.2336(4) 1.03962(16)
H19 H 0.2772 0.3011 1.0181
H20 H 0.2920 0.1780 1.0607
H21 H 0.1557 0.2809 1.0646

#END
