
#######################################################################
#
#                 Cambridge Crystallographic Data Centre
#                                CCDC 
#
#######################################################################
#
# If this CIF has been generated from an entry in the Cambridge 
# Structural Database, then it will include bibliographic, chemical, 
# crystal, experimental, refinement or atomic coordinate data resulting 
# from the CCDC's data processing and validation procedures.
#
#######################################################################

data_KAHHUW
_symmetry_cell_setting           monoclinic
_symmetry_space_group_name_H-M   'P 21'
_symmetry_Int_Tables_number      4
_space_group_name_Hall           'P 2yb'
loop_
_symmetry_equiv_pos_site_id
_symmetry_equiv_pos_as_xyz
1 x,y,z
2 -x,1/2+y,-z
_cell_length_a                   8.568(2)
_cell_length_b                   6.189(2)
_cell_length_c                   12.375(5)
_cell_angle_alpha                90
_cell_angle_beta                 99.68(3)
_cell_angle_gamma                90
_cell_volume                     646.87
loop_
_atom_site_label
_atom_site_type_symbol
_atom_site_fract_x
_atom_site_fract_y
_atom_site_fract_z
I1 I 0.13256(3) -0.5000 0.06138(2)
C1 C 0.2317(4) -0.2524(6) 0.1663(3)
C2 C 0.3889(4) -0.1889(5) 0.1708(3)
C3 C 0.4489(3) -0.0342(6) 0.2489(2)
C4 C 0.3573(4) 0.0526(5) 0.3201(3)
C5 C 0.2028(3) -0.0164(8) 0.3150(2)
C6 C 0.1395(4) -0.1667(6) 0.2367(3)
C7 C 0.4900(5) -0.2825(7) 0.0945(3)
C8 C 0.6176(3) 0.0358(6) 0.2611(3)
C9 C 0.3603(6) 0.4071(7) 0.3933(4)
C10 C 0.1471(5) -0.015(1) 0.4956(3)
C11 C 0.7907(5) 0.3105(8) 0.2223(4)
O1 O 0.4268(3) 0.1940(4) 0.3982(2)
O2 O 0.1056(3) 0.0615(4) 0.3853(2)
O3 O -0.0116(3) -0.2358(5) 0.2318(3)
O4 O 0.6318(3) 0.2247(4) 0.2154(2)
O5 O 0.7272(3) -0.0686(4) 0.3057(3)
H1 H 0.4425 -0.2506 0.0194
H2 H 0.5007 -0.4301 0.1042
H3 H 0.5924 -0.2133 0.1069
H4 H 0.4217 0.5081 0.3559
H5 H 0.3619 0.4683 0.4658
H6 H 0.2543 0.4122 0.3556
H7 H 0.0707 0.0261 0.5389
H8 H 0.2484 0.0454 0.5293
H9 H 0.1573 -0.1672 0.4951
H10 H 0.7878 0.4721 0.2213
H11 H 0.8364 0.2686 0.1615
H12 H 0.8559 0.2715 0.2885
H13 H -0.0547 -0.1680 0.2792
I1 I 0.86744(3) 0.0000 0.93862(2)
C1 C 0.7683(4) 0.2476(6) 0.8337(3)
C2 C 0.6111(4) 0.3111(5) 0.8292(3)
C3 C 0.5511(3) 0.4658(6) 0.7511(2)
C4 C 0.6427(4) 0.5526(5) 0.6799(3)
C5 C 0.7972(3) 0.4836(8) 0.6850(2)
C6 C 0.8605(4) 0.3333(6) 0.7633(3)
C7 C 0.5100(5) 0.2175(7) 0.9055(3)
C8 C 0.3824(3) 0.5358(6) 0.7389(3)
C9 C 0.6397(6) 0.9071(7) 0.6067(4)
C10 C 0.8529(5) 0.485(1) 0.5044(3)
C11 C 0.2093(5) 0.8105(8) 0.7777(4)
O1 O 0.5732(3) 0.6940(4) 0.6018(2)
O2 O 0.8944(3) 0.5615(4) 0.6147(2)
O3 O 1.0116(3) 0.2642(5) 0.7682(3)
O4 O 0.3682(3) 0.7247(4) 0.7846(2)
O5 O 0.2728(3) 0.4314(4) 0.6943(3)
H1 H 0.5575 0.2494 0.9806
H2 H 0.4993 0.0699 0.8958
H3 H 0.4076 0.2867 0.8931
H4 H 0.5783 1.0081 0.6441
H5 H 0.6381 0.9683 0.5342
H6 H 0.7457 0.9122 0.6444
H7 H 0.9293 0.5261 0.4611
H8 H 0.7516 0.5454 0.4707
H9 H 0.8427 0.3328 0.5049
H10 H 0.2122 0.9721 0.7787
H11 H 0.1636 0.7686 0.8385
H12 H 0.1441 0.7715 0.7115
H13 H 1.0547 0.3320 0.7208

#END
