./KAHHUY_from_POSCAR.cif_generated_by_CrystalShift
_symmetry_cell_setting triclinic
_symmetry_space_group_name_H-M 'P 1'
loop_
_symmetry_equiv_pos_site_id
_symmetry_equiv_pos_as_xyz
1 x,y,z
_cell_length_a 7.213200
_cell_length_b 12.425800
_cell_length_c 7.159800
_cell_angle_alpha 90.000000
_cell_angle_beta 106.814000
_cell_angle_gamma 90.000000
_cell_volume 614.296549
loop_
_atom_site_label
_atom_site_type_symbol
_atom_site_fract_x
_atom_site_fract_y
_atom_site_fract_z
H1 H 0.765000 0.285300 0.774000
H2 H 0.235000 0.714700 0.226000
H3 H 0.351000 0.517600 0.275000
H4 H 0.621000 0.203200 0.783000
H5 H 0.649000 0.017600 0.225000
H6 H 0.649000 0.482400 0.725000
H7 H 0.765000 0.214700 0.274000
H8 H 0.621000 0.296800 0.283000
H9 H 0.351000 0.982400 0.775000
H10 H 0.235000 0.785300 0.726000
H11 H 0.379000 0.703200 0.717000
H12 H 0.379000 0.796800 0.217000
C13 C 0.480150 0.847350 0.729330
C14 C 0.331390 0.341670 0.791920
C15 C 0.519850 0.347350 0.770670
C16 C 0.732140 0.550750 0.223070
C17 C 0.668610 0.658330 0.208080
C18 C 0.480150 0.652650 0.229330
C19 C 0.668610 0.841670 0.708080
C20 C 0.519850 0.152650 0.270670
C21 C 0.732140 0.949250 0.723070
C22 C 0.331390 0.158330 0.291920
C23 C 0.267860 0.449250 0.776930
C24 C 0.267860 0.050750 0.276930
N25 N 0.755850 0.751050 0.162280
N26 N 0.648660 0.270420 0.773140
N27 N 0.244150 0.248950 0.837720
N28 N 0.351340 0.729580 0.226860
N29 N 0.081410 0.492250 0.779680
N30 N 0.918590 0.507750 0.220320
N31 N 0.604230 0.483040 0.250870
N32 N 0.450940 0.546950 0.254500
N33 N 0.648660 0.229580 0.273140
N34 N 0.450940 0.953050 0.754500
N35 N 0.395770 0.516960 0.749130
N36 N 0.604230 1.016960 0.750870
N37 N 0.918590 0.992250 0.720320
N38 N 0.395770 -0.016960 0.249130
N39 N 0.549060 0.453050 0.745500
N40 N 0.755850 0.748950 0.662280
N41 N 0.081410 0.007750 0.279680
N42 N 0.549060 0.046950 0.245500
N43 N 0.351340 0.770420 0.726860
N44 N 0.244150 0.251050 0.337720
O45 O 0.326800 0.337740 0.331220
O46 O 0.082100 -0.072310 0.378040
O47 O -0.064090 0.054600 0.181930
O48 O 0.673200 0.662260 0.668780
O49 O 0.917900 1.072310 0.621960
O50 O 1.064090 0.945400 0.818070
O51 O 0.095110 0.243230 0.387860
O52 O 1.064090 0.554600 0.318070
O53 O -0.064090 0.445400 0.681930
O54 O 0.082100 0.572310 0.878040
O55 O 0.904890 0.743230 0.112140
O56 O 0.326800 0.162260 0.831220
O57 O 0.095110 0.256770 0.887860
O58 O 0.673200 0.837740 0.168780
O59 O 0.904890 0.756770 0.612140
O60 O 0.917900 0.427690 0.121960

#END
