./KAHHUZ01_from_POSCAR.cif_generated_by_CrystalShift
_symmetry_cell_setting triclinic
_symmetry_space_group_name_H-M 'P 1'
loop_
_symmetry_equiv_pos_site_id
_symmetry_equiv_pos_as_xyz
1 x,y,z
_cell_length_a 6.032900
_cell_length_b 20.911700
_cell_length_c 18.233000
_cell_angle_alpha 90.000000
_cell_angle_beta 96.126000
_cell_angle_gamma 90.000000
_cell_volume 2287.107112
loop_
_atom_site_label
_atom_site_type_symbol
_atom_site_fract_x
_atom_site_fract_y
_atom_site_fract_z
H1 H -0.192700 0.611000 -0.067300
H2 H -0.107500 1.006300 0.398200
H3 H 0.122400 0.637800 -0.121900
H4 H -0.088000 0.938400 0.299100
H5 H 0.183800 1.189300 0.072500
H6 H 0.406400 1.102900 0.052900
H7 H -0.265500 0.659200 0.040900
H8 H 0.537700 0.993700 0.285300
H9 H -0.262000 1.073000 0.149000
H10 H 0.306000 1.001600 0.087800
H11 H 1.046600 0.651200 0.263200
H12 H 1.111500 0.757700 0.290700
H13 H 0.708500 0.619900 0.203400
H14 H 0.541500 0.636900 0.561200
H15 H 0.839400 0.833000 0.256400
H16 H 0.937500 0.805100 0.667600
H17 H 0.371400 0.711300 -0.066400
H18 H -0.020700 0.734000 0.096700
H19 H 0.479300 0.766000 0.596700
H20 H 0.437500 0.694900 0.167600
H21 H 0.871400 0.788700 0.433600
H22 H 0.041500 0.863100 0.061200
H23 H 1.339400 0.667000 0.756400
H24 H -0.148500 1.174400 0.120800
H25 H 1.208500 0.880100 0.703400
H26 H 0.692700 0.111000 0.567300
H27 H 1.611500 0.742300 0.790700
H28 H 0.377600 0.137800 0.621900
H29 H 1.546600 0.848800 0.763200
H30 H 0.309600 0.570600 0.062200
H31 H 0.806000 0.498400 0.587800
H32 H -0.010900 0.564800 0.119600
H33 H 0.238000 0.427000 0.649000
H34 H 0.648500 0.674400 0.379200
H35 H 1.037700 0.506300 0.785300
H36 H 0.607500 0.506300 0.101800
H37 H 0.234500 0.840800 0.540900
H38 H 0.588000 0.438400 0.200900
H39 H 0.906400 0.397100 0.552900
H40 H 0.316200 0.689300 0.427500
H41 H 0.683800 0.310700 0.572500
H42 H 0.093600 0.602900 0.447100
H43 H 0.412000 0.561600 0.799100
H44 H 0.765500 0.159200 0.459100
H45 H 0.392500 0.493700 0.898200
H46 H -0.037700 0.493700 0.214700
H47 H 0.351500 0.325600 0.620800
H48 H 0.762000 0.573000 0.351000
H49 H 1.010900 0.435200 0.880400
H50 H 0.194000 0.501600 0.412200
H51 H 0.690400 0.429400 0.937800
H52 H -0.546600 0.151200 0.236800
H53 H 0.622400 0.862200 0.378100
H54 H -0.611500 0.257700 0.209300
H55 H 0.307300 0.889000 0.432700
H56 H -0.208500 0.119900 0.296600
H57 H -0.339400 0.333000 0.243600
H58 H 0.190400 1.070600 0.437800
H59 H 0.128600 0.211300 0.566400
H60 H 0.520700 0.234000 0.403300
H61 H 0.062500 0.194900 0.332400
H62 H 0.458500 0.363100 0.438800
H63 H 0.510900 1.064800 0.380400
H64 H 1.192700 0.389000 1.067300
H65 H 0.877600 0.362200 1.121900
H66 H 0.809600 -0.070600 0.562200
H67 H 0.489100 -0.064800 0.619600
H68 H 1.148500 -0.174400 0.879200
H69 H 0.958500 0.136900 0.938800
H70 H 1.107500 -0.006300 0.601800
H71 H 0.562500 0.305100 0.832400
H72 H 1.088000 0.061600 0.700900
H73 H 0.816200 -0.189300 0.927500
H74 H 1.020700 0.266000 0.903300
H75 H 0.593600 -0.102900 0.947100
H76 H 0.628600 0.288700 1.066400
H77 H 1.265500 0.340800 0.959100
H78 H 0.160600 0.167000 0.743600
H79 H 0.462300 0.006300 0.714700
H80 H 0.291500 0.380100 0.796600
H81 H 1.262000 -0.073000 0.851000
H82 H -0.111500 0.242300 0.709300
H83 H 0.694000 -0.001600 0.912200
H84 H -0.046600 0.348800 0.736800
C85 C 0.787900 -0.036100 0.906600
C86 C 0.063000 0.318500 0.750340
C87 C 1.125200 -0.078800 0.869210
C88 C 0.024000 0.254960 0.734180
C89 C 0.594200 0.003710 0.692690
C90 C 0.264400 0.337100 0.786480
C91 C 1.137400 0.330110 0.980490
C92 C 0.187100 0.209830 0.755050
C93 C 0.726300 -0.096890 0.926360
C94 C 0.757000 0.298820 1.044790
C95 C 0.860300 -0.148390 0.915410
C96 C 0.990900 0.285340 0.947110
C97 C 0.964700 0.036940 0.683920
C98 C 1.066800 0.038110 0.859200
C99 C 0.977700 -0.004420 0.625030
C100 C 0.427000 0.292090 0.807840
C101 C 1.058400 -0.139410 0.886790
C102 C 0.864100 0.135680 0.895030
C103 C 0.609600 -0.038660 0.635250
C104 C 0.638000 0.221540 0.945520
C105 C 0.800500 -0.042440 0.601180
C106 C 0.771000 0.042010 0.717620
C107 C 0.905000 0.343020 1.077750
C108 C 0.893000 0.089070 0.842980
C109 C 1.094000 0.358780 1.045210
C110 C 0.695600 0.180360 0.882290
C111 C -0.094000 0.641220 -0.045210
C112 C 0.199500 1.042440 0.398820
C113 C 0.389200 0.227760 0.792780
C114 C 0.063800 0.321180 0.314150
C115 C 0.250400 0.410430 0.277560
C116 C 0.299500 0.230840 0.478970
C117 C 0.490500 0.526690 0.378410
C118 C -0.110800 0.272240 0.292780
C119 C 0.195600 0.319640 0.382290
C120 C 0.393000 0.410930 0.342980
C121 C 0.271000 0.457990 0.217620
C122 C 0.138000 0.278460 0.445520
C123 C 0.364100 0.364320 0.395030
C124 C 0.990500 -0.026690 0.878410
C125 C -0.073000 0.207910 0.307840
C126 C 0.799500 0.269160 0.978970
C127 C 0.566800 0.461890 0.359200
C128 C 0.490900 0.214660 0.447110
C129 C 0.750400 0.089570 0.777560
C130 C 0.257000 0.201180 0.544790
C131 C 0.563800 0.178820 0.814150
C132 C -0.312900 0.290170 0.255050
C133 C 0.095000 0.656980 -0.077750
C134 C -0.235600 0.162900 0.286480
C135 C 0.022300 1.004420 0.374970
C136 C -0.476000 0.245040 0.234180
C137 C 0.406000 0.858780 0.454790
C138 C -0.437000 0.181500 0.250340
C139 C 0.595000 0.843020 0.422250
C140 C 0.287900 0.536100 0.406600
C141 C 0.699500 0.457560 0.898820
C142 C 0.625200 0.578800 0.369210
C143 C 0.890400 0.461340 0.864750
C144 C 0.094200 0.496290 0.192690
C145 C 0.441600 0.360590 0.613210
C146 C 0.637400 0.169890 0.480490
C147 C 0.522300 0.495580 0.874970
C148 C 0.226300 0.596890 0.426360
C149 C 0.535300 0.536940 0.816080
C150 C 0.360300 0.648390 0.415410
C151 C 0.639700 0.351610 0.584590
C152 C 0.464700 0.463060 0.183920
C153 C 0.773700 0.403110 0.573640
C154 C 0.477700 0.504420 0.125030
C155 C 0.362600 0.830110 0.519510
C156 C 0.558400 0.639410 0.386790
C157 C 0.905800 0.503710 0.807310
C158 C 0.109600 0.538660 0.135250
C159 C 0.374800 0.421200 0.630790
C160 C 0.300500 0.542440 0.101180
C161 C 0.712100 0.463900 0.593400
C162 C 0.405000 0.156980 0.577750
C163 C 1.437000 0.818500 0.749660
C164 C 0.594000 0.141220 0.545210
C165 C 1.476000 0.754960 0.765820
C166 C 0.936200 0.678820 0.685850
C167 C 0.390400 1.038660 0.364750
C168 C 1.235600 0.837100 0.713520
C169 C 0.436200 0.821180 0.185850
C170 C 0.249600 0.910430 0.222440
C171 C 0.200500 0.730840 0.021030
C172 C 0.009500 1.026690 0.121590
C173 C 0.610800 0.772240 0.207220
C174 C 0.304400 0.819640 0.117710
C175 C 0.107000 0.910930 0.157020
C176 C 0.229000 0.957990 0.282380
C177 C 0.362000 0.778460 0.054480
C178 C 0.135900 0.864320 0.104970
C179 C 1.312900 0.709830 0.744950
C180 C 0.573000 0.707910 0.192160
C181 C 0.743000 0.798820 0.455210
C182 C -0.066800 0.961890 0.140800
C183 C 0.009100 0.714660 0.052890
C184 C 0.509100 0.785340 0.552890
C185 C 0.243000 0.701180 -0.044790
C186 C 0.433200 0.538110 0.640800
C187 C 0.812900 0.790170 0.244950
C188 C 1.073000 0.792090 0.692160
C189 C 0.735600 0.662900 0.213520
C190 C 0.635900 0.635680 0.604970
C191 C 0.976000 0.745040 0.265820
C192 C 0.862000 0.721540 0.554480
C193 C 0.937000 0.681500 0.249660
C194 C 0.729000 0.542010 0.782380
C195 C 0.212100 1.036100 0.093400
C196 C 0.607000 0.589070 0.657020
C197 C -0.125200 1.078800 0.130790
C198 C 0.804400 0.680360 0.617710
C199 C 0.405800 0.996290 0.307310
C200 C 1.110800 0.727760 0.707220
C201 C -0.137400 0.669890 0.019510
C202 C 0.509500 0.473310 0.621590
C203 C 0.273700 1.096890 0.073640
C204 C 0.700500 0.769160 0.521030
C205 C 0.139700 1.148390 0.084590
C206 C 0.749600 0.589570 0.722440
C207 C 0.035300 0.963060 0.316080
C208 C -0.058400 1.139410 0.113210
N209 N 0.091100 0.366050 0.263220
N210 N 0.591100 0.133950 0.763220
N211 N 0.408900 0.866050 0.236780
N212 N 0.908900 0.633950 0.736780
O213 O 0.540900 0.787370 0.030690
O214 O 0.763200 0.449800 0.356750
O215 O -0.040900 0.287370 0.469310
O216 O 1.263200 0.050200 0.856750
O217 O 0.459100 0.212630 0.969310
O218 O 0.236800 0.550200 0.643250
O219 O 1.040900 0.712630 0.530690
O220 O -0.263200 0.949800 0.143250

#END
