
#######################################################################
#
#                 Cambridge Crystallographic Data Centre
#                                CCDC 
#
#######################################################################
#
# If this CIF has been generated from an entry in the Cambridge 
# Structural Database, then it will include bibliographic, chemical, 
# crystal, experimental, refinement or atomic coordinate data resulting 
# from the CCDC's data processing and validation procedures.
#
#######################################################################

data_KAHJUA
_symmetry_cell_setting           monoclinic
_symmetry_space_group_name_H-M   'P 21/n'
_symmetry_Int_Tables_number      14
_space_group_name_Hall           '-P 2yn'
loop_
_symmetry_equiv_pos_site_id
_symmetry_equiv_pos_as_xyz
1 x,y,z
2 1/2-x,1/2+y,1/2-z
3 -x,-y,-z
4 1/2+x,1/2-y,1/2+z
_cell_length_a                   17.797(8)
_cell_length_b                   8.102(4)
_cell_length_c                   20.035(9)
_cell_angle_alpha                90
_cell_angle_beta                 109.269(6)
_cell_angle_gamma                90
_cell_volume                     2727.04
loop_
_atom_site_label
_atom_site_type_symbol
_atom_site_fract_x
_atom_site_fract_y
_atom_site_fract_z
S1 S 0.08076(11) 0.2866(2) 0.04535(9)
O1 O -0.1753(3) 0.5057(6) 0.3860(2)
O2 O -0.2099(3) 0.4763(6) 0.2691(2)
O3 O 0.1781(3) -0.0382(7) 0.5905(3)
O4 O 0.2851(3) -0.0467(5) 0.5556(2)
C1 C -0.0030(3) 0.2205(8) 0.0664(3)
C2 C -0.0652(4) 0.1487(8) 0.0114(3)
C3 C -0.1338(4) 0.0999(8) 0.0236(3)
C4 C -0.1430(4) 0.1344(8) 0.0881(3)
C5 C -0.0802(4) 0.2039(8) 0.1421(3)
C6 C -0.0059(4) 0.2416(8) 0.1341(3)
C7 C 0.0591(3) 0.3121(8) 0.1935(3)
C8 C 0.1106(4) 0.4351(8) 0.1775(3)
C9 C 0.1570(4) 0.5439(8) 0.2307(3)
C10 C 0.2071(4) 0.6587(8) 0.2135(4)
C11 C 0.2125(4) 0.6642(9) 0.1468(4)
C12 C 0.1698(4) 0.5526(9) 0.0952(4)
C13 C 0.1200(4) 0.4374(8) 0.1098(3)
C14 C 0.0692(3) 0.2795(8) 0.2637(3)
C15 C 0.0419(3) 0.1235(8) 0.2871(3)
C16 C 0.0333(4) -0.0202(9) 0.2458(3)
C17 C 0.0048(4) -0.1657(9) 0.2645(3)
C18 C -0.0159(4) -0.1682(9) 0.3260(4)
C19 C -0.0011(4) -0.0315(9) 0.3691(3)
C20 C 0.0306(4) 0.1149(8) 0.3528(3)
C21 C 0.0515(3) 0.2558(8) 0.4055(3)
C22 C 0.1016(3) 0.3893(8) 0.3859(3)
C23 C 0.1377(4) 0.5088(8) 0.4352(3)
C24 C 0.1813(4) 0.6371(9) 0.4197(3)
C25 C 0.1875(3) 0.6495(8) 0.3535(3)
C26 C 0.1518(4) 0.5343(9) 0.3017(3)
C27 C 0.1090(4) 0.3983(8) 0.3178(3)
C28 C -0.0271(3) 0.3359(8) 0.4080(3)
C29 C -0.0824(3) 0.3858(7) 0.3356(3)
C30 C -0.1596(4) 0.4642(9) 0.3358(3)
C31 C -0.2876(4) 0.5485(9) 0.2619(3)
C32 C 0.0963(3) 0.1862(8) 0.4799(3)
C33 C 0.1766(3) 0.1078(8) 0.4858(3)
C34 C 0.2108(4) 0.0047(10) 0.5497(3)
C35 C 0.3248(4) -0.1527(9) 0.6148(3)
H1 H -0.06006 0.13379 -0.03398
H2 H -0.17437 0.04304 -0.01196
H3 H -0.19197 0.11080 0.09549
H4 H -0.08747 0.22704 0.18602
H5 H 0.23760 0.73340 0.24851
H6 H 0.24557 0.74431 0.13573
H7 H 0.17491 0.55581 0.04954
H8 H 0.04739 -0.01722 0.20405
H9 H -0.00055 -0.26180 0.23614
H10 H -0.04002 -0.26333 0.33795
H11 H -0.01293 -0.03674 0.41190
H12 H 0.13270 0.50327 0.48093
H13 H 0.20668 0.71608 0.45494
H14 H 0.21661 0.73831 0.34298
H15 H -0.05500 0.25657 0.42931
H16 H -0.01399 0.43469 0.43882
H17 H -0.05414 0.46458 0.31449
H18 H -0.09511 0.28671 0.30500
H19 H -0.31490 0.47940 0.28688
H20 H -0.31969 0.55483 0.21177
H21 H -0.28013 0.65966 0.28238
H22 H 0.10523 0.27664 0.51490
H23 H 0.06241 0.10226 0.49194
H24 H 0.16987 0.03875 0.44344
H25 H 0.21488 0.19669 0.48597
H26 H 0.33022 -0.09469 0.65909
H27 H 0.37766 -0.18194 0.61338
H28 H 0.29336 -0.25336 0.61212
S1 S 0.41924(11) 0.7866(2) 0.45465(9)
O1 O 0.6753(3) 1.0057(6) 0.1140(2)
O2 O 0.7099(3) 0.9763(6) 0.2309(2)
O3 O 0.3219(3) 0.4618(7) -0.0905(3)
O4 O 0.2149(3) 0.4533(5) -0.0556(2)
C1 C 0.5030(3) 0.7205(8) 0.4336(3)
C2 C 0.5652(4) 0.6487(8) 0.4886(3)
C3 C 0.6338(4) 0.5999(8) 0.4764(3)
C4 C 0.6430(4) 0.6344(8) 0.4119(3)
C5 C 0.5802(4) 0.7039(8) 0.3579(3)
C6 C 0.5059(4) 0.7416(8) 0.3659(3)
C7 C 0.4409(3) 0.8121(8) 0.3065(3)
C8 C 0.3894(4) 0.9351(8) 0.3225(3)
C9 C 0.3430(4) 1.0439(8) 0.2693(3)
C10 C 0.2929(4) 1.1587(8) 0.2865(4)
C11 C 0.2875(4) 1.1642(9) 0.3532(4)
C12 C 0.3302(4) 1.0526(9) 0.4048(4)
C13 C 0.3800(4) 0.9374(8) 0.3902(3)
C14 C 0.4308(3) 0.7795(8) 0.2363(3)
C15 C 0.4581(3) 0.6235(8) 0.2129(3)
C16 C 0.4667(4) 0.4798(9) 0.2542(3)
C17 C 0.4952(4) 0.3343(9) 0.2355(3)
C18 C 0.5159(4) 0.3318(9) 0.1740(4)
C19 C 0.5011(4) 0.4685(9) 0.1309(3)
C20 C 0.4694(4) 0.6149(8) 0.1472(3)
C21 C 0.4485(3) 0.7558(8) 0.0945(3)
C22 C 0.3984(3) 0.8893(8) 0.1141(3)
C23 C 0.3623(4) 1.0088(8) 0.0648(3)
C24 C 0.3187(4) 1.1371(9) 0.0803(3)
C25 C 0.3125(3) 1.1495(8) 0.1465(3)
C26 C 0.3482(4) 1.0343(9) 0.1983(3)
C27 C 0.3910(4) 0.8983(8) 0.1822(3)
C28 C 0.5271(3) 0.8359(8) 0.0920(3)
C29 C 0.5824(3) 0.8858(7) 0.1644(3)
C30 C 0.6596(4) 0.9642(9) 0.1642(3)
C31 C 0.7876(4) 1.0485(9) 0.2381(3)
C32 C 0.4037(3) 0.6862(8) 0.0201(3)
C33 C 0.3234(3) 0.6078(8) 0.0142(3)
C34 C 0.2892(4) 0.5047(10) -0.0497(3)
C35 C 0.1752(4) 0.3473(9) -0.1148(3)
H1 H 0.56006 0.63379 0.53398
H2 H 0.67437 0.54304 0.51196
H3 H 0.69197 0.61080 0.40451
H4 H 0.58747 0.72704 0.31398
H5 H 0.26240 1.23340 0.25149
H6 H 0.25443 1.24431 0.36427
H7 H 0.32509 1.05581 0.45046
H8 H 0.45261 0.48278 0.29595
H9 H 0.50055 0.23820 0.26386
H10 H 0.54002 0.23667 0.16205
H11 H 0.51293 0.46326 0.08810
H12 H 0.36730 1.00327 0.01907
H13 H 0.29332 1.21608 0.04506
H14 H 0.28339 1.23831 0.15702
H15 H 0.55500 0.75657 0.07069
H16 H 0.51399 0.93469 0.06118
H17 H 0.55414 0.96458 0.18551
H18 H 0.59511 0.78671 0.19500
H19 H 0.81490 0.97940 0.21312
H20 H 0.81969 1.05483 0.28823
H21 H 0.78013 1.15966 0.21762
H22 H 0.39477 0.77664 -0.01490
H23 H 0.43759 0.60226 0.00806
H24 H 0.33013 0.53875 0.05656
H25 H 0.28512 0.69669 0.01403
H26 H 0.16978 0.40531 -0.15909
H27 H 0.12234 0.31806 -0.11338
H28 H 0.20664 0.24664 -0.11212
S1 S 0.91924(11) 0.7134(2) 0.95465(9)
O1 O 1.1753(3) 0.4943(6) 0.6140(2)
O2 O 1.2099(3) 0.5237(6) 0.7309(2)
O3 O 0.8219(3) 1.0382(7) 0.4095(3)
O4 O 0.7149(3) 1.0467(5) 0.4444(2)
C1 C 1.0030(3) 0.7795(8) 0.9336(3)
C2 C 1.0652(4) 0.8513(8) 0.9886(3)
C3 C 1.1338(4) 0.9001(8) 0.9764(3)
C4 C 1.1430(4) 0.8656(8) 0.9119(3)
C5 C 1.0802(4) 0.7961(8) 0.8579(3)
C6 C 1.0059(4) 0.7584(8) 0.8659(3)
C7 C 0.9409(3) 0.6879(8) 0.8065(3)
C8 C 0.8894(4) 0.5649(8) 0.8225(3)
C9 C 0.8430(4) 0.4561(8) 0.7693(3)
C10 C 0.7929(4) 0.3413(8) 0.7865(4)
C11 C 0.7875(4) 0.3358(9) 0.8532(4)
C12 C 0.8302(4) 0.4474(9) 0.9048(4)
C13 C 0.8800(4) 0.5626(8) 0.8902(3)
C14 C 0.9308(3) 0.7205(8) 0.7363(3)
C15 C 0.9581(3) 0.8765(8) 0.7129(3)
C16 C 0.9667(4) 1.0202(9) 0.7542(3)
C17 C 0.9952(4) 1.1657(9) 0.7355(3)
C18 C 1.0159(4) 1.1682(9) 0.6740(4)
C19 C 1.0011(4) 1.0315(9) 0.6309(3)
C20 C 0.9694(4) 0.8851(8) 0.6472(3)
C21 C 0.9485(3) 0.7442(8) 0.5945(3)
C22 C 0.8984(3) 0.6107(8) 0.6141(3)
C23 C 0.8623(4) 0.4912(8) 0.5648(3)
C24 C 0.8187(4) 0.3629(9) 0.5803(3)
C25 C 0.8125(3) 0.3505(8) 0.6465(3)
C26 C 0.8482(4) 0.4657(9) 0.6983(3)
C27 C 0.8910(4) 0.6017(8) 0.6822(3)
C28 C 1.0271(3) 0.6641(8) 0.5920(3)
C29 C 1.0824(3) 0.6142(7) 0.6644(3)
C30 C 1.1596(4) 0.5358(9) 0.6642(3)
C31 C 1.2876(4) 0.4515(9) 0.7381(3)
C32 C 0.9037(3) 0.8138(8) 0.5201(3)
C33 C 0.8234(3) 0.8922(8) 0.5142(3)
C34 C 0.7892(4) 0.9953(10) 0.4503(3)
C35 C 0.6752(4) 1.1527(9) 0.3852(3)
H1 H 1.06006 0.86621 1.03398
H2 H 1.17437 0.95696 1.01196
H3 H 1.19197 0.88920 0.90451
H4 H 1.08747 0.77296 0.81398
H5 H 0.76240 0.26660 0.75149
H6 H 0.75443 0.25569 0.86427
H7 H 0.82509 0.44419 0.95046
H8 H 0.95261 1.01722 0.79595
H9 H 1.00055 1.26180 0.76386
H10 H 1.04002 1.26333 0.66205
H11 H 1.01293 1.03674 0.58810
H12 H 0.86730 0.49673 0.51907
H13 H 0.79332 0.28392 0.54506
H14 H 0.78339 0.26169 0.65702
H15 H 1.05500 0.74343 0.57069
H16 H 1.01399 0.56531 0.56118
H17 H 1.05414 0.53542 0.68551
H18 H 1.09511 0.71329 0.69500
H19 H 1.31490 0.52060 0.71312
H20 H 1.31969 0.44517 0.78823
H21 H 1.28013 0.34034 0.71762
H22 H 0.89477 0.72336 0.48510
H23 H 0.93759 0.89774 0.50806
H24 H 0.83013 0.96125 0.55656
H25 H 0.78512 0.80331 0.51403
H26 H 0.66978 1.09469 0.34091
H27 H 0.62234 1.18194 0.38662
H28 H 0.70664 1.25336 0.38788
S1 S 0.58076(11) 0.2134(2) 0.54535(9)
O1 O 0.3247(3) -0.0057(6) 0.8860(2)
O2 O 0.2901(3) 0.0237(6) 0.7691(2)
O3 O 0.6781(3) 0.5382(7) 1.0905(3)
O4 O 0.7851(3) 0.5467(5) 1.0556(2)
C1 C 0.4970(3) 0.2795(8) 0.5664(3)
C2 C 0.4348(4) 0.3513(8) 0.5114(3)
C3 C 0.3662(4) 0.4001(8) 0.5236(3)
C4 C 0.3570(4) 0.3656(8) 0.5881(3)
C5 C 0.4198(4) 0.2961(8) 0.6421(3)
C6 C 0.4941(4) 0.2584(8) 0.6341(3)
C7 C 0.5591(3) 0.1879(8) 0.6935(3)
C8 C 0.6106(4) 0.0649(8) 0.6775(3)
C9 C 0.6570(4) -0.0439(8) 0.7307(3)
C10 C 0.7071(4) -0.1587(8) 0.7135(4)
C11 C 0.7125(4) -0.1642(9) 0.6468(4)
C12 C 0.6698(4) -0.0526(9) 0.5952(4)
C13 C 0.6200(4) 0.0626(8) 0.6098(3)
C14 C 0.5692(3) 0.2205(8) 0.7637(3)
C15 C 0.5419(3) 0.3765(8) 0.7871(3)
C16 C 0.5333(4) 0.5202(9) 0.7458(3)
C17 C 0.5048(4) 0.6657(9) 0.7645(3)
C18 C 0.4841(4) 0.6682(9) 0.8260(4)
C19 C 0.4989(4) 0.5315(9) 0.8691(3)
C20 C 0.5306(4) 0.3851(8) 0.8528(3)
C21 C 0.5515(3) 0.2442(8) 0.9055(3)
C22 C 0.6016(3) 0.1107(8) 0.8859(3)
C23 C 0.6377(4) -0.0088(8) 0.9352(3)
C24 C 0.6813(4) -0.1371(9) 0.9197(3)
C25 C 0.6875(3) -0.1495(8) 0.8535(3)
C26 C 0.6518(4) -0.0343(9) 0.8017(3)
C27 C 0.6090(4) 0.1017(8) 0.8178(3)
C28 C 0.4729(3) 0.1641(8) 0.9080(3)
C29 C 0.4176(3) 0.1142(7) 0.8356(3)
C30 C 0.3404(4) 0.0358(9) 0.8358(3)
C31 C 0.2124(4) -0.0485(9) 0.7619(3)
C32 C 0.5963(3) 0.3138(8) 0.9799(3)
C33 C 0.6766(3) 0.3922(8) 0.9858(3)
C34 C 0.7108(4) 0.4953(10) 1.0497(3)
C35 C 0.8248(4) 0.6527(9) 1.1148(3)
H1 H 0.43994 0.36621 0.46602
H2 H 0.32563 0.45696 0.48804
H3 H 0.30803 0.38920 0.59549
H4 H 0.41253 0.27296 0.68602
H5 H 0.73760 -0.23340 0.74851
H6 H 0.74557 -0.24431 0.63573
H7 H 0.67491 -0.05581 0.54954
H8 H 0.54739 0.51722 0.70405
H9 H 0.49945 0.76180 0.73614
H10 H 0.45998 0.76333 0.83795
H11 H 0.48707 0.53674 0.91190
H12 H 0.63270 -0.00327 0.98093
H13 H 0.70668 -0.21608 0.95494
H14 H 0.71661 -0.23831 0.84298
H15 H 0.44500 0.24343 0.92931
H16 H 0.48601 0.06531 0.93882
H17 H 0.44586 0.03542 0.81449
H18 H 0.40489 0.21329 0.80500
H19 H 0.18510 0.02060 0.78688
H20 H 0.18031 -0.05483 0.71177
H21 H 0.21987 -0.15966 0.78238
H22 H 0.60523 0.22336 1.01490
H23 H 0.56241 0.39774 0.99194
H24 H 0.66987 0.46125 0.94344
H25 H 0.71488 0.30331 0.98597
H26 H 0.83022 0.59469 1.15909
H27 H 0.87766 0.68194 1.11338
H28 H 0.79336 0.75336 1.11212

#END
