./KAHJOU_from_POSCAR.cif_generated_by_CrystalShift
_symmetry_cell_setting triclinic
_symmetry_space_group_name_H-M 'P 1'
loop_
_symmetry_equiv_pos_site_id
_symmetry_equiv_pos_as_xyz
1 x,y,z
_cell_length_a 7.484000
_cell_length_b 10.621000
_cell_length_c 18.582000
_cell_angle_alpha 101.624000
_cell_angle_beta 90.084000
_cell_angle_gamma 106.693000
_cell_volume 1383.001179
loop_
_atom_site_label
_atom_site_type_symbol
_atom_site_fract_x
_atom_site_fract_y
_atom_site_fract_z
H1 H -0.337000 0.677000 1.024000
H2 H -0.434000 0.660000 0.938000
H3 H 0.152000 0.764000 0.896000
H4 H 0.200000 0.882000 0.965000
H5 H 0.045000 0.901000 0.824000
H6 H 0.115000 1.028000 0.895200
H7 H 1.162000 1.439000 0.858000
H8 H 1.077000 1.453000 0.942000
H9 H 0.955000 1.475000 0.869000
H10 H 0.691000 1.086000 0.816200
H11 H 0.762000 1.056000 0.887500
H12 H 0.484000 0.991000 0.932100
H13 H 0.455000 1.131000 0.930900
H14 H 0.291000 0.654000 0.628000
H15 H 0.503000 0.558000 0.670800
H16 H 0.623000 0.646000 0.793100
H17 H 0.557000 0.825000 0.868100
H18 H 0.443000 1.251000 0.845100
H19 H 0.428000 1.386000 0.763100
H20 H 0.284000 1.279000 0.645400
H21 H 0.169000 1.049000 0.611600
H22 H -0.143000 0.988000 0.726500
H23 H -0.355000 1.086000 0.685900
H24 H -0.501000 0.997000 0.564900
H25 H -0.432000 0.814000 0.491000
H26 H -0.292000 0.383000 0.509000
H27 H -0.258000 0.259000 0.598000
H28 H -0.129000 0.373000 0.714800
H29 H -0.034000 0.605000 0.743000
H30 H 1.337000 0.323000 -0.024000
H31 H 1.367000 0.465000 0.031700
H32 H 1.434000 0.340000 0.062000
H33 H 0.848000 0.236000 0.104000
H34 H 0.800000 0.118000 0.035000
H35 H 0.955000 0.099000 0.176000
H36 H 0.885000 -0.028000 0.104800
H37 H -0.162000 -0.439000 0.142000
H38 H -0.077000 -0.453000 0.058000
H39 H 0.045000 -0.475000 0.131000
H40 H 0.309000 -0.086000 0.183800
H41 H 1.034000 0.395000 0.257000
H42 H 1.129000 0.627000 0.285200
H43 H 1.258000 0.741000 0.402000
H44 H 1.292000 0.617000 0.491000
H45 H 1.432000 0.186000 0.509000
H46 H 1.501000 0.003000 0.435100
H47 H 1.355000 -0.086000 0.314100
H48 H 1.143000 0.012000 0.273500
H49 H 0.831000 -0.049000 0.388400
H50 H 0.716000 -0.279000 0.354600
H51 H 0.572000 -0.386000 0.236900
H52 H 0.557000 -0.251000 0.154900
H53 H 0.443000 0.175000 0.131900
H54 H 0.377000 0.354000 0.206900
H55 H 0.497000 0.442000 0.329200
H56 H 0.709000 0.346000 0.372000
H57 H 0.545000 -0.131000 0.069100
H58 H 0.516000 0.009000 0.067900
H59 H 0.238000 -0.056000 0.112500
H60 H -0.367000 0.535000 0.968300
C61 C 1.082900 0.194000 0.058200
C62 C 0.885100 0.157600 0.082100
C63 C 0.860300 0.060200 0.134000
C64 C -0.049100 -0.430400 0.112800
C65 C 0.215500 -0.250100 0.099200
C66 C 0.313400 -0.103800 0.127300
C67 C 0.513000 -0.053800 0.102500
C68 C 0.704000 0.203400 0.280830
C69 C 0.657000 0.311700 0.324100
C70 C 0.532100 0.368400 0.296900
C71 C 1.081600 0.362500 0.357710
C72 C 1.076000 0.436800 0.304100
C73 C 1.141000 0.575900 0.320700
C74 C 1.216400 0.643200 0.391000
C75 C 1.231700 0.572000 0.443300
C76 C -0.081600 0.637500 0.642290
C77 C -0.076000 0.563200 0.695900
C78 C -0.141000 0.424100 0.679300
C79 C -0.216400 0.356800 0.609000
C80 C -0.231700 0.428000 0.556700
C81 C -0.167400 0.568600 0.573100
C82 C -0.238100 0.798000 0.562310
C83 C -0.365600 0.855500 0.537200
C84 C -0.407300 0.962700 0.582100
C85 C -0.322900 1.012300 0.653200
C86 C -0.195800 0.956600 0.678000
C87 C -0.147800 0.849700 0.632580
C88 C -0.011500 0.787100 0.656970
C89 C 0.160000 0.858400 0.691270
C90 C 0.233100 1.007900 0.710180
C91 C 0.221600 1.087000 0.659800
C92 C 0.292200 1.225900 0.679000
C93 C 0.373400 1.286400 0.748900
C94 C 0.389400 1.209300 0.798800
C95 C 0.323000 1.068300 0.780390
C96 C 0.337800 0.979400 0.833960
C97 C 0.380300 0.852800 0.789660
C98 C 0.502400 0.792700 0.817100
C99 C 0.543000 0.683500 0.774200
C100 C 0.467900 0.631600 0.703100
C101 C 0.343000 0.688300 0.675900
C102 C 0.296000 0.796600 0.719170
C103 C 0.487000 1.053800 0.897500
C104 C 0.686600 1.103800 0.872700
C105 C 0.784500 1.250100 0.900800
C106 C 1.049100 1.430400 0.887200
C107 C 0.139700 0.939800 0.866000
C108 C 0.114900 0.842400 0.917900
C109 C -0.082900 0.806000 0.941800
C110 C -0.333000 0.632400 0.970700
C111 C 0.457000 0.316500 0.225800
C112 C 0.497600 0.207300 0.182900
C113 C 0.619700 0.147200 0.210340
C114 C 0.662200 0.020600 0.166040
C115 C 0.677000 -0.068300 0.219610
C116 C 0.610600 -0.209300 0.201200
C117 C 0.626600 -0.286400 0.251100
C118 C 0.707800 -0.225900 0.321000
C119 C 0.778400 -0.087000 0.340200
C120 C 0.766900 -0.007900 0.289820
C121 C 0.840000 0.141600 0.308730
C122 C 1.011500 0.212900 0.343030
C123 C 1.147800 0.150300 0.367420
C124 C 1.195800 0.043400 0.322000
C125 C 1.322900 -0.012300 0.346800
C126 C 1.407300 0.037300 0.417900
C127 C 1.365600 0.144500 0.462800
C128 C 1.238100 0.202000 0.437690
C129 C 1.167400 0.431400 0.426900
C130 C 1.333000 0.367600 0.029300
O131 O -0.176900 0.881500 0.957070
O132 O 0.945100 1.288000 0.866980
O133 O 0.731600 1.326200 0.946900
O134 O 0.268400 -0.326200 0.053100
O135 O 1.145200 0.324300 0.054440
O136 O 1.176900 0.118500 0.042930
O137 O 0.054900 -0.288000 0.133020
O138 O -0.145200 0.675700 0.945560
S139 S -0.194310 0.656940 0.504550
S140 S 1.194310 0.343060 0.495450

#END
