
#######################################################################
#
#                 Cambridge Crystallographic Data Centre
#                                CCDC 
#
#######################################################################
#
# If this CIF has been generated from an entry in the Cambridge 
# Structural Database, then it will include bibliographic, chemical, 
# crystal, experimental, refinement or atomic coordinate data resulting 
# from the CCDC's data processing and validation procedures.
#
#######################################################################

data_KAHLEL
_symmetry_cell_setting           triclinic
_symmetry_space_group_name_H-M   'P -1'
_symmetry_Int_Tables_number      2
_space_group_name_Hall           '-P 1'
loop_
_symmetry_equiv_pos_site_id
_symmetry_equiv_pos_as_xyz
1 x,y,z
2 -x,-y,-z
_cell_length_a                   9.7682(8)
_cell_length_b                   11.4013(7)
_cell_length_c                   12.4389(12)
_cell_angle_alpha                76.597(5)
_cell_angle_beta                 86.581(3)
_cell_angle_gamma                85.825(3)
_cell_volume                     1342.71
loop_
_atom_site_label
_atom_site_type_symbol
_atom_site_fract_x
_atom_site_fract_y
_atom_site_fract_z
Ru1 Ru 0.62190(2) 0.24706(2) 0.08058(2)
Ru2 Ru 0.19027(2) 0.20027(2) 0.56124(2)
N1 N 0.6224(3) 0.2593(2) 0.2411(2)
H1 H 0.6865 0.2943 0.2637
N2 N 0.4382(3) 0.1834(3) 0.1462(2)
H2 H 0.3781 0.1676 0.1046
C1 C 0.5106(3) 0.1960(3) 0.4245(3)
H3 H 0.5761 0.2275 0.4593
C2 C 0.5209(3) 0.2117(3) 0.3107(2)
C3 C 0.4132(3) 0.1667(3) 0.2553(2)
C4 C 0.3036(3) 0.1115(3) 0.3185(3)
H4 H 0.2326 0.0879 0.2831
C5 C 0.1874(4) 0.0314(3) 0.5019(3)
H5 H 0.1130 0.0117 0.4676
C6 C 0.1880(4) 0.0021(3) 0.6187(3)
H6 H 0.1196 -0.0432 0.6603
C7 C 0.2923(4) 0.0419(3) 0.6709(3)
H7 H 0.2941 0.0230 0.7476
C8 C 0.3949(4) 0.1107(3) 0.6068(3)
H8 H 0.4592 0.1424 0.6426
C9 C 0.4037(3) 0.1337(3) 0.4891(3)
C10 C 0.2973(3) 0.0902(3) 0.4349(3)
C11 C 0.6386(4) 0.3445(3) -0.0875(3)
C12 C 0.7529(4) 0.3680(3) -0.0291(3)
C13 C 0.8280(3) 0.2562(3) 0.0119(3)
C14 C 0.7577(4) 0.1624(3) -0.0189(3)
C15 C 0.6447(4) 0.2190(3) -0.0842(3)
C16 C 0.5348(5) 0.4369(4) -0.1464(4)
H9 H 0.5277 0.5057 -0.1137
H10 H 0.4470 0.4025 -0.1400
H11 H 0.5632 0.4617 -0.2231
C17 C 0.7909(5) 0.4903(4) -0.0199(4)
H12 H 0.8562 0.5211 -0.0786
H13 H 0.8307 0.4838 0.0501
H14 H 0.7101 0.5442 -0.0254
C18 C 0.9557(4) 0.2383(4) 0.0769(4)
H15 H 1.0352 0.2411 0.0273
H16 H 0.9565 0.1612 0.1284
H17 H 0.9571 0.3011 0.1165
C19 C 0.8042(4) 0.0312(4) 0.0015(4)
H18 H 0.7258 -0.0163 0.0071
H19 H 0.8519 0.0083 0.0692
H20 H 0.8647 0.0176 -0.0587
C20 C 0.5505(5) 0.1543(5) -0.1392(4)
H21 H 0.4585 0.1895 -0.1354
H22 H 0.5522 0.0704 -0.1020
H23 H 0.5805 0.1616 -0.2152
C21 C 0.0204(4) 0.3208(3) 0.4890(3)
C22 C 0.1431(4) 0.3824(3) 0.4655(3)
C23 C 0.1977(4) 0.3862(3) 0.5680(4)
C24 C 0.1068(5) 0.3284(4) 0.6545(3)
C25 C -0.0010(4) 0.2876(3) 0.6049(4)
C26 C -0.0693(6) 0.2994(5) 0.4024(5)
H24 H -0.1224 0.3725 0.3719
H25 H -0.1300 0.2370 0.4352
H26 H -0.0129 0.2749 0.3446
C27 C 0.2065(7) 0.4304(4) 0.3528(5)
H27 H 0.2201 0.3665 0.3140
H28 H 0.2935 0.4616 0.3597
H29 H 0.1468 0.4939 0.3125
C28 C 0.3272(5) 0.4443(5) 0.5822(7)
H30 H 0.3460 0.4277 0.6593
H31 H 0.3155 0.5300 0.5539
H32 H 0.4025 0.4121 0.5426
C29 C 0.1172(7) 0.3189(5) 0.7765(4)
H33 H 0.1948 0.3606 0.7884
H34 H 0.1284 0.2354 0.8141
H35 H 0.0349 0.3548 0.8047
C30 C -0.1252(5) 0.2262(4) 0.6646(6)
H36 H -0.1839 0.2092 0.6116
H37 H -0.1748 0.2784 0.7059
H38 H -0.0959 0.1521 0.7142
Ru1 Ru 0.37810(2) 0.75294(2) 0.91942(2)
Ru2 Ru 0.80973(2) 0.79973(2) 0.43876(2)
N1 N 0.3776(3) 0.7407(2) 0.7589(2)
H1 H 0.3135 0.7057 0.7363
N2 N 0.5618(3) 0.8166(3) 0.8538(2)
H2 H 0.6219 0.8324 0.8954
C1 C 0.4894(3) 0.8040(3) 0.5755(3)
H3 H 0.4239 0.7725 0.5407
C2 C 0.4791(3) 0.7883(3) 0.6893(2)
C3 C 0.5868(3) 0.8333(3) 0.7447(2)
C4 C 0.6964(3) 0.8885(3) 0.6815(3)
H4 H 0.7674 0.9121 0.7169
C5 C 0.8126(4) 0.9686(3) 0.4981(3)
H5 H 0.8870 0.9883 0.5324
C6 C 0.8120(4) 0.9979(3) 0.3813(3)
H6 H 0.8804 1.0432 0.3397
C7 C 0.7077(4) 0.9581(3) 0.3291(3)
H7 H 0.7059 0.9770 0.2524
C8 C 0.6051(4) 0.8893(3) 0.3932(3)
H8 H 0.5408 0.8576 0.3574
C9 C 0.5963(3) 0.8663(3) 0.5109(3)
C10 C 0.7027(3) 0.9098(3) 0.5651(3)
C11 C 0.3614(4) 0.6555(3) 1.0875(3)
C12 C 0.2471(4) 0.6320(3) 1.0291(3)
C13 C 0.1720(3) 0.7438(3) 0.9881(3)
C14 C 0.2423(4) 0.8376(3) 1.0189(3)
C15 C 0.3553(4) 0.7810(3) 1.0842(3)
C16 C 0.4652(5) 0.5631(4) 1.1464(4)
H9 H 0.4723 0.4943 1.1137
H10 H 0.5530 0.5975 1.1400
H11 H 0.4368 0.5383 1.2231
C17 C 0.2091(5) 0.5097(4) 1.0199(4)
H12 H 0.1438 0.4789 1.0786
H13 H 0.1693 0.5162 0.9499
H14 H 0.2899 0.4558 1.0254
C18 C 0.0443(4) 0.7617(4) 0.9231(4)
H15 H -0.0352 0.7589 0.9727
H16 H 0.0435 0.8388 0.8716
H17 H 0.0429 0.6989 0.8835
C19 C 0.1958(4) 0.9688(4) 0.9985(4)
H18 H 0.2742 1.0163 0.9929
H19 H 0.1481 0.9917 0.9308
H20 H 0.1353 0.9824 1.0587
C20 C 0.4495(5) 0.8457(5) 1.1392(4)
H21 H 0.5415 0.8105 1.1354
H22 H 0.4478 0.9296 1.1020
H23 H 0.4195 0.8384 1.2152
C21 C 0.9796(4) 0.6792(3) 0.5110(3)
C22 C 0.8569(4) 0.6176(3) 0.5345(3)
C23 C 0.8023(4) 0.6138(3) 0.4320(4)
C24 C 0.8932(5) 0.6716(4) 0.3455(3)
C25 C 1.0010(4) 0.7124(3) 0.3951(4)
C26 C 1.0693(6) 0.7006(5) 0.5976(5)
H24 H 1.1224 0.6275 0.6281
H25 H 1.1300 0.7630 0.5648
H26 H 1.0129 0.7251 0.6554
C27 C 0.7935(7) 0.5696(4) 0.6472(5)
H27 H 0.7799 0.6335 0.6860
H28 H 0.7065 0.5384 0.6403
H29 H 0.8532 0.5061 0.6875
C28 C 0.6728(5) 0.5557(5) 0.4178(7)
H30 H 0.6540 0.5723 0.3407
H31 H 0.6845 0.4700 0.4461
H32 H 0.5975 0.5879 0.4574
C29 C 0.8828(7) 0.6811(5) 0.2235(4)
H33 H 0.8052 0.6394 0.2116
H34 H 0.8716 0.7646 0.1859
H35 H 0.9651 0.6452 0.1953
C30 C 1.1252(5) 0.7738(4) 0.3354(6)
H36 H 1.1839 0.7908 0.3884
H37 H 1.1748 0.7216 0.2941
H38 H 1.0959 0.8479 0.2858

#END
