./KAHLEK01_from_POSCAR.cif_generated_by_CrystalShift
_symmetry_cell_setting triclinic
_symmetry_space_group_name_H-M 'P 1'
loop_
_symmetry_equiv_pos_site_id
_symmetry_equiv_pos_as_xyz
1 x,y,z
_cell_length_a 8.756000
_cell_length_b 16.969000
_cell_length_c 5.249900
_cell_angle_alpha 93.104000
_cell_angle_beta 106.514000
_cell_angle_gamma 97.035000
_cell_volume 738.975711
loop_
_atom_site_label
_atom_site_type_symbol
_atom_site_fract_x
_atom_site_fract_y
_atom_site_fract_z
H1 H 0.204000 0.692800 0.235000
H2 H 0.519000 0.793000 0.939000
H3 H 0.751000 0.874000 0.914000
H4 H 0.735000 0.949600 0.548000
H5 H 0.488000 0.937000 0.177000
H6 H 0.269000 0.852000 0.215000
H7 H 0.134000 0.558800 0.136000
H8 H 0.077000 0.507000 0.336000
H9 H 0.007000 0.776600 0.675000
H10 H 0.002000 0.771800 0.131000
H11 H -0.252000 0.742000 0.498000
H12 H -0.507000 0.672000 0.359000
H13 H -0.594000 0.576000 -0.041000
H14 H -0.400000 0.559000 -0.281000
H15 H -0.149000 0.632000 -0.138000
H16 H 0.074000 0.906600 0.911000
H17 H 0.058000 0.980000 0.741000
H18 H 0.796000 0.307200 0.765000
H19 H 0.750000 0.262400 0.223000
H20 H 0.481000 0.207000 0.061000
H21 H 0.249000 0.126000 0.086000
H22 H 0.265000 0.050400 0.452000
H23 H 0.942000 0.020000 0.259000
H24 H 0.926000 0.093400 0.089000
H25 H 1.149000 0.368000 1.138000
H26 H 1.400000 0.441000 1.281000
H27 H 1.594000 0.424000 1.041000
H28 H 1.507000 0.328000 0.641000
H29 H 1.252000 0.258000 0.502000
H30 H 0.998000 0.228200 0.869000
H31 H 0.993000 0.223400 0.325000
H32 H 0.923000 0.493000 0.664000
H33 H 0.866000 0.441200 0.864000
H34 H 0.731000 0.148000 0.785000
H35 H 0.512000 0.063000 0.823000
H36 H 0.250000 0.737600 0.777000
C37 C 0.854100 0.304930 0.632700
C38 C 0.774500 0.238010 0.400200
C39 C 0.485600 0.178100 0.222700
C40 C 0.350400 0.128300 0.237400
C41 C 1.172600 0.306720 0.802200
C42 C 1.219600 0.360500 1.029000
C43 C 1.372400 0.403300 1.114300
C44 C 1.481900 0.392500 0.977000
C45 C -0.172600 0.693280 0.197800
C46 C -0.219600 0.639500 -0.029000
C47 C -0.372400 0.596700 -0.114300
C48 C -0.481900 0.607500 0.023000
C49 C -0.437800 0.660900 0.246100
C50 C -0.284100 0.703600 0.333400
C51 C -0.006000 0.739870 0.281300
C52 C 0.057700 0.793580 0.544100
C53 C 0.048100 0.881980 0.524400
C54 C 0.370000 0.815550 0.575300
C55 C 0.367400 0.858700 0.357060
C56 C 0.501300 0.908800 0.346300
C57 C 0.642600 0.915600 0.550700
C58 C 0.649600 0.871700 0.762600
C59 C 0.514400 0.821900 0.777300
C60 C 0.225500 0.761990 0.599800
C61 C 0.145900 0.695070 0.367300
C62 C 0.110300 0.614030 0.456900
C63 C 0.357400 0.084400 0.449300
C64 C 0.498700 0.091200 0.653700
C65 C 0.632600 0.141300 0.642940
C66 C 0.630000 0.184450 0.424700
C67 C 0.951900 0.118020 0.475600
C68 C 0.942300 0.206420 0.455900
C69 C 1.006000 0.260130 0.718700
C70 C 1.284100 0.296400 0.666600
C71 C 1.437800 0.339100 0.753900
C72 C 0.889700 0.385970 0.543100
N73 N 0.071000 0.926950 0.751400
N74 N 0.929000 0.073050 0.248600
N75 N 0.885500 0.447320 0.709700
N76 N 0.114500 0.552680 0.290300
O77 O 0.922900 0.394750 0.333400
O78 O 0.020700 0.910190 0.306600
O79 O 0.077100 0.605250 0.666600
O80 O 0.979300 0.089810 0.693400

#END
