
#######################################################################
#
#                 Cambridge Crystallographic Data Centre
#                                CCDC 
#
#######################################################################
#
# If this CIF has been generated from an entry in the Cambridge 
# Structural Database, then it will include bibliographic, chemical, 
# crystal, experimental, refinement or atomic coordinate data resulting 
# from the CCDC's data processing and validation procedures.
#
#######################################################################

data_KAHLEK01
_symmetry_cell_setting           triclinic
_symmetry_space_group_name_H-M   'P -1'
_symmetry_Int_Tables_number      2
_space_group_name_Hall           '-P 1'
loop_
_symmetry_equiv_pos_site_id
_symmetry_equiv_pos_as_xyz
1 x,y,z
2 -x,-y,-z
_cell_length_a                   8.756(1)
_cell_length_b                   16.969(1)
_cell_length_c                   5.2499(3)
_cell_angle_alpha                93.104(6)
_cell_angle_beta                 106.514(7)
_cell_angle_gamma                97.035(8)
_cell_volume                     738.976
loop_
_atom_site_label
_atom_site_type_symbol
_atom_site_fract_x
_atom_site_fract_y
_atom_site_fract_z
O1 O 0.9793(1) 0.08981(6) 0.6934(2)
O2 O 0.9229(1) 0.39475(6) 0.3334(2)
N1 N 0.9290(2) 0.07305(7) 0.2486(3)
N2 N 0.8855(2) 0.44732(8) 0.7097(4)
C1 C 1.1726(2) 0.30672(8) 0.8022(3)
C2 C 1.2196(2) 0.3605(1) 1.0290(4)
C3 C 1.3724(2) 0.4033(1) 1.1143(4)
C4 C 1.4819(2) 0.3925(1) 0.9770(5)
C5 C 1.4378(2) 0.3391(1) 0.7539(4)
C6 C 1.2841(2) 0.2964(1) 0.6666(4)
C7 C 1.0060(2) 0.26013(8) 0.7187(3)
C8 C 0.9423(2) 0.20642(8) 0.4559(3)
C9 C 0.9519(2) 0.11802(8) 0.4756(3)
C10 C 0.6300(2) 0.18445(8) 0.4247(3)
C11 C 0.6326(2) 0.1413(1) 0.64294
C12 C 0.4987(2) 0.0912(1) 0.6537(4)
C13 C 0.3574(2) 0.0844(1) 0.4493(5)
C14 C 0.3504(2) 0.1283(1) 0.2374(5)
C15 C 0.4856(2) 0.1781(1) 0.2227(4)
C16 C 0.7745(2) 0.23801(8) 0.4002(3)
C17 C 0.8541(2) 0.30493(8) 0.6327(3)
C18 C 0.8897(2) 0.38597(8) 0.5431(3)
H1 H 0.942(2) 0.020(1) 0.259(4)
H2 H 0.926(2) 0.0934(9) 0.089(4)
H3 H 1.149(2) 0.368(1) 1.138(4)
H4 H 1.400(2) 0.441(1) 1.281(4)
H5 H 1.594(2) 0.424(1) 1.041(4)
H6 H 1.507(2) 0.328(1) 0.641(4)
H7 H 1.252(2) 0.258(1) 0.502(4)
H8 H 0.998(2) 0.2282(8) 0.869(3)
H9 H 0.993(1) 0.2234(8) 0.325(3)
H10 H 0.923(2) 0.493(1) 0.664(4)
H11 H 0.866(2) 0.4412(9) 0.864(4)
H12 H 0.731(2) 0.148(1) 0.785(4)
H13 H 0.512(2) 0.063(1) 0.823(4)
H14 H 0.265(2) 0.0504(9) 0.452(4)
H15 H 0.249(2) 0.126(1) 0.086(4)
H16 H 0.481(2) 0.207(1) 0.061(4)
H17 H 0.750(2) 0.2624(8) 0.223(3)
H18 H 0.796(2) 0.3072(8) 0.765(3)
O1 O 0.0207(1) 0.91019(6) 0.3066(2)
O2 O 0.0771(1) 0.60525(6) 0.6666(2)
N1 N 0.0710(2) 0.92695(7) 0.7514(3)
N2 N 0.1145(2) 0.55268(8) 0.2903(4)
C1 C -0.1726(2) 0.69328(8) 0.1978(3)
C2 C -0.2196(2) 0.6395(1) -0.0290(4)
C3 C -0.3724(2) 0.5967(1) -0.1143(4)
C4 C -0.4819(2) 0.6075(1) 0.0230(5)
C5 C -0.4378(2) 0.6609(1) 0.2461(4)
C6 C -0.2841(2) 0.7036(1) 0.3334(4)
C7 C -0.0060(2) 0.73987(8) 0.2813(3)
C8 C 0.0577(2) 0.79358(8) 0.5441(3)
C9 C 0.0481(2) 0.88198(8) 0.5244(3)
C10 C 0.3700(2) 0.81555(8) 0.5753(3)
C11 C 0.3674(2) 0.8587(1) 0.35706
C12 C 0.5013(2) 0.9088(1) 0.3463(4)
C13 C 0.6426(2) 0.9156(1) 0.5507(5)
C14 C 0.6496(2) 0.8717(1) 0.7626(5)
C15 C 0.5144(2) 0.8219(1) 0.7773(4)
C16 C 0.2255(2) 0.76199(8) 0.5998(3)
C17 C 0.1459(2) 0.69507(8) 0.3673(3)
C18 C 0.1103(2) 0.61403(8) 0.4569(3)
H1 H 0.058(2) 0.980(1) 0.741(4)
H2 H 0.074(2) 0.9066(9) 0.911(4)
H3 H -0.149(2) 0.632(1) -0.138(4)
H4 H -0.400(2) 0.559(1) -0.281(4)
H5 H -0.594(2) 0.576(1) -0.041(4)
H6 H -0.507(2) 0.672(1) 0.359(4)
H7 H -0.252(2) 0.742(1) 0.498(4)
H8 H 0.002(2) 0.7718(8) 0.131(3)
H9 H 0.007(1) 0.7766(8) 0.675(3)
H10 H 0.077(2) 0.507(1) 0.336(4)
H11 H 0.134(2) 0.5588(9) 0.136(4)
H12 H 0.269(2) 0.852(1) 0.215(4)
H13 H 0.488(2) 0.937(1) 0.177(4)
H14 H 0.735(2) 0.9496(9) 0.548(4)
H15 H 0.751(2) 0.874(1) 0.914(4)
H16 H 0.519(2) 0.793(1) 0.939(4)
H17 H 0.250(2) 0.7376(8) 0.777(3)
H18 H 0.204(2) 0.6928(8) 0.235(3)

#END
