./KAHNEP_from_POSCAR.cif_generated_by_CrystalShift
_symmetry_cell_setting triclinic
_symmetry_space_group_name_H-M 'P 1'
loop_
_symmetry_equiv_pos_site_id
_symmetry_equiv_pos_as_xyz
1 x,y,z
_cell_length_a 9.396000
_cell_length_b 11.516000
_cell_length_c 9.933000
_cell_angle_alpha 90.000000
_cell_angle_beta 97.590000
_cell_angle_gamma 90.000000
_cell_volume 1065.376981
loop_
_atom_site_label
_atom_site_type_symbol
_atom_site_fract_x
_atom_site_fract_y
_atom_site_fract_z
H1 H 0.105900 0.802300 0.758800
H2 H 0.103800 0.632400 0.972800
H3 H -0.013600 0.661300 0.837300
H4 H 0.443000 0.114600 0.500200
H5 H 0.437000 0.320000 0.546800
H6 H 0.142400 0.241300 0.832100
H7 H 0.192800 0.032100 0.801200
H8 H 0.394100 1.302300 0.241200
H9 H 0.239600 1.283900 0.092600
H10 H 0.396200 1.132400 0.027200
H11 H 0.513600 1.161300 0.162700
H12 H 0.057000 0.614600 0.499800
H13 H 0.063000 0.820000 0.453200
H14 H 0.357600 0.741300 0.167900
H15 H 0.307200 0.532100 0.198800
H16 H 0.894100 0.197700 0.241200
H17 H 0.692800 0.467900 0.801200
H18 H 0.642400 0.258700 0.832100
H19 H 0.937000 0.180000 0.546800
H20 H 0.943000 0.385400 0.500200
H21 H 0.486400 -0.161300 0.837300
H22 H 0.603800 -0.132400 0.972800
H23 H 0.760400 -0.283900 0.907400
H24 H 0.605900 -0.302300 0.758800
H25 H 0.739600 0.216100 0.092600
H26 H 0.896200 0.367600 0.027200
H27 H 1.013600 0.338700 0.162700
H28 H 0.557000 0.885400 0.499800
H29 H 0.563000 0.680000 0.453200
H30 H 0.857600 0.758700 0.167900
H31 H 0.807200 0.967900 0.198800
H32 H 0.260400 0.783900 0.907400
C33 C 0.602200 0.850300 0.429500
C34 C 0.714400 0.699100 0.308300
C35 C 0.726800 0.582100 0.282500
C36 C 0.669500 0.941900 0.353800
C37 C 0.621900 0.738300 0.406500
C38 C 0.766300 0.901600 0.258500
C39 C 0.870700 0.226600 0.139800
C40 C 0.913300 0.349900 0.123500
C41 C 0.644500 0.499300 0.348900
C42 C 0.824100 0.529900 0.190500
C43 C 0.675900 0.029900 0.809500
C44 C 0.855500 -0.000700 0.651100
C45 C 0.086700 0.650100 0.876500
C46 C 0.129300 0.773400 0.860200
C47 C 0.233700 0.098400 0.741500
C48 C 0.586700 -0.150100 0.876500
C49 C 0.378100 0.261700 0.593500
C50 C 0.330500 0.058100 0.646200
C51 C 0.273200 0.417900 0.717500
C52 C 0.285600 0.300900 0.691700
C53 C 0.397800 0.149700 0.570500
C54 C 0.324100 0.970100 0.190500
C55 C 0.144500 1.000700 0.348900
C56 C 0.286700 0.712000 0.235800
C57 C 0.102200 0.649700 0.429500
C58 C 0.214400 0.800900 0.308300
C59 C 0.226800 0.917900 0.282500
C60 C 0.169500 0.558100 0.353800
C61 C 0.121900 0.761700 0.406500
C62 C 0.266300 0.598400 0.258500
C63 C 0.370700 1.273400 0.139800
C64 C 0.413300 1.150100 0.123500
C65 C 0.629300 -0.273400 0.860200
C66 C 0.733700 0.401600 0.741500
C67 C 0.878100 0.238300 0.593500
C68 C 0.830500 0.441900 0.646200
C69 C 0.773200 0.082100 0.717500
C70 C 0.785600 0.199100 0.691700
C71 C 0.897800 0.350300 0.570500
C72 C 0.713300 0.288000 0.764200
C73 C 0.213300 0.212000 0.764200
C74 C 0.355500 0.500700 0.651100
C75 C 0.175900 0.470100 0.809500
C76 C 0.786700 0.788000 0.235800
N77 N 0.423900 0.569100 0.604100
N78 N 0.576100 0.430900 0.395900
N79 N 0.923900 -0.069100 0.604100
N80 N 0.076100 1.069100 0.395900
O81 O 0.673600 -0.085000 0.792400
O82 O 0.147500 0.454000 0.370300
O83 O 0.388300 0.918300 0.112400
O84 O 0.173600 0.585000 0.792400
O85 O 0.611700 0.081700 0.887600
O86 O 0.352500 -0.046000 0.629700
O87 O 0.826400 0.415000 0.207600
O88 O 0.888300 0.581700 0.112400
O89 O 0.647500 1.046000 0.370300
O90 O 0.111700 0.418300 0.887600
O91 O 0.326400 1.085000 0.207600
O92 O 0.852500 0.546000 0.629700
Cl93 Cl 0.026100 0.864420 0.958400
Cl94 Cl 0.973900 0.135580 0.041600
Cl95 Cl 0.473900 1.364420 0.041600
Cl96 Cl 0.526100 -0.364420 0.958400

#END
