
#######################################################################
#
#                 Cambridge Crystallographic Data Centre
#                                CCDC 
#
#######################################################################
#
# If this CIF has been generated from an entry in the Cambridge 
# Structural Database, then it will include bibliographic, chemical, 
# crystal, experimental, refinement or atomic coordinate data resulting 
# from the CCDC's data processing and validation procedures.
#
#######################################################################

data_KAHNUF
_symmetry_cell_setting           monoclinic
_symmetry_space_group_name_H-M   'P 21/n'
_symmetry_Int_Tables_number      14
_space_group_name_Hall           '-P 2yn'
loop_
_symmetry_equiv_pos_site_id
_symmetry_equiv_pos_as_xyz
1 x,y,z
2 1/2-x,1/2+y,1/2-z
3 -x,-y,-z
4 1/2+x,1/2-y,1/2+z
_cell_length_a                   16.660(9)
_cell_length_b                   6.124(4)
_cell_length_c                   17.274(10)
_cell_angle_alpha                90
_cell_angle_beta                 106.504(12)
_cell_angle_gamma                90
_cell_volume                     1689.78
loop_
_atom_site_label
_atom_site_type_symbol
_atom_site_fract_x
_atom_site_fract_y
_atom_site_fract_z
Br1 Br 0.38122(2) 0.63915(4) 1.19892(2)
S1 S 0.26543(3) 0.22582(9) 0.93253(3)
O1 O 0.10873(9) 0.1086(2) 0.95688(9)
O2 O 0.33889(10) 0.3551(3) 0.93963(10)
O3 O 0.27450(9) -0.0024(3) 0.95022(10)
N1 N 0.21708(11) 0.3492(3) 0.99464(11)
C1 C 0.10251(13) 0.3707(3) 1.05739(13)
C2 C 0.03688(12) 0.2637(4) 1.07732(13)
H1 H 0.0185 0.1242 1.0553
C3 C -0.00087(14) 0.3648(4) 1.12978(14)
H2 H -0.0456 0.2942 1.1438
C4 C 0.02617(14) 0.5680(4) 1.16182(13)
H3 H 0.0000 0.6353 1.1979
C5 C 0.09084(14) 0.6741(4) 1.14194(14)
H4 H 0.1088 0.8135 1.1643
C6 C 0.12978(13) 0.5769(3) 1.08906(13)
C7 C 0.19660(13) 0.6893(3) 1.06073(14)
H5 H 0.2245 0.8007 1.1009
H6 H 0.1705 0.7648 1.0090
C8 C 0.26154(12) 0.5277(3) 1.04903(13)
H7 H 0.2996 0.6047 1.0224
C9 C 0.14055(12) 0.2618(3) 0.99928(12)
C10 C 0.31442(14) 0.4208(4) 1.12646(14)
H8 H 0.3519 0.3105 1.1131
H9 H 0.2774 0.3453 1.1537
C11 C 0.19657(12) 0.2632(3) 0.83553(12)
C12 C 0.14919(14) 0.0878(4) 0.79523(14)
H10 H 0.1520 -0.0504 0.8208
C13 C 0.09809(15) 0.1185(4) 0.71746(15)
H11 H 0.0661 -0.0006 0.6896
C14 C 0.09257(14) 0.3203(4) 0.67931(14)
C15 C 0.13991(13) 0.4937(4) 0.72121(14)
H12 H 0.1359 0.6329 0.6962
C16 C 0.19270(13) 0.4664(4) 0.79877(13)
H13 H 0.2256 0.5846 0.8263
C17 C 0.03687(18) 0.3524(5) 0.59456(18)
H14 H 0.0018 0.4818 0.5928
H15 H 0.0011 0.2237 0.5781
H16 H 0.0715 0.3725 0.5577
Br1 Br 0.11878(2) 1.13915(4) 0.30108(2)
S1 S 0.23457(3) 0.72582(9) 0.56747(3)
O1 O 0.39127(9) 0.6086(2) 0.54312(9)
O2 O 0.16111(10) 0.8551(3) 0.56037(10)
O3 O 0.22550(9) 0.4976(3) 0.54978(10)
N1 N 0.28292(11) 0.8492(3) 0.50536(11)
C1 C 0.39749(13) 0.8707(3) 0.44261(13)
C2 C 0.46312(12) 0.7637(4) 0.42268(13)
H1 H 0.4815 0.6242 0.4447
C3 C 0.50087(14) 0.8648(4) 0.37022(14)
H2 H 0.5456 0.7942 0.3562
C4 C 0.47383(14) 1.0680(4) 0.33818(13)
H3 H 0.5000 1.1353 0.3021
C5 C 0.40916(14) 1.1741(4) 0.35806(14)
H4 H 0.3912 1.3135 0.3357
C6 C 0.37022(13) 1.0769(3) 0.41094(13)
C7 C 0.30340(13) 1.1893(3) 0.43927(14)
H5 H 0.2755 1.3007 0.3991
H6 H 0.3295 1.2648 0.4910
C8 C 0.23846(12) 1.0277(3) 0.45097(13)
H7 H 0.2004 1.1047 0.4776
C9 C 0.35945(12) 0.7618(3) 0.50072(12)
C10 C 0.18558(14) 0.9208(4) 0.37354(14)
H8 H 0.1481 0.8105 0.3869
H9 H 0.2226 0.8453 0.3463
C11 C 0.30343(12) 0.7632(3) 0.66447(12)
C12 C 0.35081(14) 0.5878(4) 0.70477(14)
H10 H 0.3480 0.4496 0.6792
C13 C 0.40191(15) 0.6185(4) 0.78254(15)
H11 H 0.4339 0.4994 0.8104
C14 C 0.40743(14) 0.8203(4) 0.82069(14)
C15 C 0.36009(13) 0.9937(4) 0.77879(14)
H12 H 0.3641 1.1329 0.8038
C16 C 0.30730(13) 0.9664(4) 0.70123(13)
H13 H 0.2744 1.0846 0.6737
C17 C 0.46313(18) 0.8524(5) 0.90544(18)
H14 H 0.4982 0.9818 0.9072
H15 H 0.4989 0.7237 0.9219
H16 H 0.4285 0.8725 0.9423
Br1 Br 0.61878(2) 0.36085(4) -0.19892(2)
S1 S 0.73457(3) 0.77418(9) 0.06747(3)
O1 O 0.89127(9) 0.8914(2) 0.04312(9)
O2 O 0.66111(10) 0.6449(3) 0.06037(10)
O3 O 0.72550(9) 1.0024(3) 0.04978(10)
N1 N 0.78292(11) 0.6508(3) 0.00536(11)
C1 C 0.89749(13) 0.6293(3) -0.05739(13)
C2 C 0.96312(12) 0.7363(4) -0.07732(13)
H1 H 0.9815 0.8758 -0.0553
C3 C 1.00087(14) 0.6352(4) -0.12978(14)
H2 H 1.0456 0.7058 -0.1438
C4 C 0.97383(14) 0.4320(4) -0.16182(13)
H3 H 1.0000 0.3647 -0.1979
C5 C 0.90916(14) 0.3259(4) -0.14194(14)
H4 H 0.8912 0.1865 -0.1643
C6 C 0.87022(13) 0.4231(3) -0.08906(13)
C7 C 0.80340(13) 0.3107(3) -0.06073(14)
H5 H 0.7755 0.1993 -0.1009
H6 H 0.8295 0.2352 -0.0090
C8 C 0.73846(12) 0.4723(3) -0.04903(13)
H7 H 0.7004 0.3953 -0.0224
C9 C 0.85945(12) 0.7382(3) 0.00072(12)
C10 C 0.68558(14) 0.5792(4) -0.12646(14)
H8 H 0.6481 0.6895 -0.1131
H9 H 0.7226 0.6547 -0.1537
C11 C 0.80343(12) 0.7368(3) 0.16447(12)
C12 C 0.85081(14) 0.9122(4) 0.20477(14)
H10 H 0.8480 1.0504 0.1792
C13 C 0.90191(15) 0.8815(4) 0.28254(15)
H11 H 0.9339 1.0006 0.3104
C14 C 0.90743(14) 0.6797(4) 0.32069(14)
C15 C 0.86009(13) 0.5063(4) 0.27879(14)
H12 H 0.8641 0.3671 0.3038
C16 C 0.80730(13) 0.5336(4) 0.20123(13)
H13 H 0.7744 0.4154 0.1737
C17 C 0.96313(18) 0.6476(5) 0.40544(18)
H14 H 0.9982 0.5182 0.4072
H15 H 0.9989 0.7763 0.4219
H16 H 0.9285 0.6275 0.4423
Br1 Br 0.88122(2) -0.13915(4) 0.69892(2)
S1 S 0.76543(3) 0.27418(9) 0.43253(3)
O1 O 0.60873(9) 0.3914(2) 0.45688(9)
O2 O 0.83889(10) 0.1449(3) 0.43963(10)
O3 O 0.77450(9) 0.5024(3) 0.45022(10)
N1 N 0.71708(11) 0.1508(3) 0.49464(11)
C1 C 0.60251(13) 0.1293(3) 0.55739(13)
C2 C 0.53688(12) 0.2363(4) 0.57732(13)
H1 H 0.5185 0.3758 0.5553
C3 C 0.49913(14) 0.1352(4) 0.62978(14)
H2 H 0.4544 0.2058 0.6438
C4 C 0.52617(14) -0.0680(4) 0.66182(13)
H3 H 0.5000 -0.1353 0.6979
C5 C 0.59084(14) -0.1741(4) 0.64194(14)
H4 H 0.6088 -0.3135 0.6643
C6 C 0.62978(13) -0.0769(3) 0.58906(13)
C7 C 0.69660(13) -0.1893(3) 0.56073(14)
H5 H 0.7245 -0.3007 0.6009
H6 H 0.6705 -0.2648 0.5090
C8 C 0.76154(12) -0.0277(3) 0.54903(13)
H7 H 0.7996 -0.1047 0.5224
C9 C 0.64055(12) 0.2382(3) 0.49928(12)
C10 C 0.81442(14) 0.0792(4) 0.62646(14)
H8 H 0.8519 0.1895 0.6131
H9 H 0.7774 0.1547 0.6537
C11 C 0.69657(12) 0.2368(3) 0.33553(12)
C12 C 0.64919(14) 0.4122(4) 0.29523(14)
H10 H 0.6520 0.5504 0.3208
C13 C 0.59809(15) 0.3815(4) 0.21746(15)
H11 H 0.5661 0.5006 0.1896
C14 C 0.59257(14) 0.1797(4) 0.17931(14)
C15 C 0.63991(13) 0.0063(4) 0.22121(14)
H12 H 0.6359 -0.1329 0.1962
C16 C 0.69270(13) 0.0336(4) 0.29877(13)
H13 H 0.7256 -0.0846 0.3263
C17 C 0.53687(18) 0.1476(5) 0.09456(18)
H14 H 0.5018 0.0182 0.0928
H15 H 0.5011 0.2763 0.0781
H16 H 0.5715 0.1275 0.0577

#END
