
#######################################################################
#
#                 Cambridge Crystallographic Data Centre
#                                CCDC 
#
#######################################################################
#
# If this CIF has been generated from an entry in the Cambridge 
# Structural Database, then it will include bibliographic, chemical, 
# crystal, experimental, refinement or atomic coordinate data resulting 
# from the CCDC's data processing and validation procedures.
#
#######################################################################

data_KAHNEP
_symmetry_cell_setting           monoclinic
_symmetry_space_group_name_H-M   'P 21/a'
_symmetry_Int_Tables_number      14
_space_group_name_Hall           '-P 2yab'
loop_
_symmetry_equiv_pos_site_id
_symmetry_equiv_pos_as_xyz
1 x,y,z
2 1/2-x,1/2+y,-z
3 -x,-y,-z
4 1/2+x,1/2-y,z
_cell_length_a                   9.396(2)
_cell_length_b                   11.516(2)
_cell_length_c                   9.933(1)
_cell_angle_alpha                90
_cell_angle_beta                 97.59(1)
_cell_angle_gamma                90
_cell_volume                     1065.38
loop_
_atom_site_label
_atom_site_type_symbol
_atom_site_fract_x
_atom_site_fract_y
_atom_site_fract_z
Cl1 Cl 0.5261(1) -0.36442(10) 0.9584(1)
O1 O 0.6736(4) -0.0850(3) 0.7924(3)
O2 O 0.6117(4) 0.0817(3) 0.8876(4)
O3 O 0.8525(4) 0.5460(3) 0.6297(4)
N1 N 0.9239(4) -0.0691(3) 0.6041(4)
C1 C 0.6759(5) 0.0299(4) 0.8095(5)
C2 C 0.8555(5) -0.0007(4) 0.6511(4)
C3 C 0.7133(6) 0.2880(4) 0.7642(5)
C4 C 0.8978(5) 0.3503(4) 0.5705(4)
C5 C 0.7856(5) 0.1991(4) 0.6917(5)
C6 C 0.7732(5) 0.0821(4) 0.7175(4)
C7 C 0.8305(6) 0.4419(4) 0.6462(5)
C8 C 0.8781(5) 0.2383(4) 0.5935(5)
C9 C 0.7337(6) 0.4016(4) 0.7415(5)
C10 C 0.6293(6) -0.2734(4) 0.8602(5)
C11 C 0.5867(5) -0.1501(4) 0.8765(5)
H1 H 0.6928 0.4679 0.8012
H2 H 0.6424 0.2587 0.8321
H3 H 0.9370 0.1800 0.5468
H4 H 0.9430 0.3854 0.5002
H5 H 0.4864 -0.1613 0.8373
H6 H 0.6038 -0.1324 0.9728
H7 H 0.7604 -0.2839 0.9074
H8 H 0.6059 -0.3023 0.7588
Cl1 Cl 0.9739(1) 0.13558(10) 0.0416(1)
O1 O 0.8264(4) 0.4150(3) 0.2076(3)
O2 O 0.8883(4) 0.5817(3) 0.1124(4)
O3 O 0.6475(4) 1.0460(3) 0.3703(4)
N1 N 0.5761(4) 0.4309(3) 0.3959(4)
C1 C 0.8241(5) 0.5299(4) 0.1905(5)
C2 C 0.6445(5) 0.4993(4) 0.3489(4)
C3 C 0.7867(6) 0.7880(4) 0.2358(5)
C4 C 0.6022(5) 0.8503(4) 0.4295(4)
C5 C 0.7144(5) 0.6991(4) 0.3083(5)
C6 C 0.7268(5) 0.5821(4) 0.2825(4)
C7 C 0.6695(6) 0.9419(4) 0.3538(5)
C8 C 0.6219(5) 0.7383(4) 0.4065(5)
C9 C 0.7663(6) 0.9016(4) 0.2585(5)
C10 C 0.8707(6) 0.2266(4) 0.1398(5)
C11 C 0.9133(5) 0.3499(4) 0.1235(5)
H1 H 0.8072 0.9679 0.1988
H2 H 0.8576 0.7587 0.1679
H3 H 0.5630 0.6800 0.4532
H4 H 0.5570 0.8854 0.4998
H5 H 1.0136 0.3387 0.1627
H6 H 0.8962 0.3676 0.0272
H7 H 0.7396 0.2161 0.0926
H8 H 0.8941 0.1977 0.2412
Cl1 Cl 0.4739(1) 1.36442(10) 0.0416(1)
O1 O 0.3264(4) 1.0850(3) 0.2076(3)
O2 O 0.3883(4) 0.9183(3) 0.1124(4)
O3 O 0.1475(4) 0.4540(3) 0.3703(4)
N1 N 0.0761(4) 1.0691(3) 0.3959(4)
C1 C 0.3241(5) 0.9701(4) 0.1905(5)
C2 C 0.1445(5) 1.0007(4) 0.3489(4)
C3 C 0.2867(6) 0.7120(4) 0.2358(5)
C4 C 0.1022(5) 0.6497(4) 0.4295(4)
C5 C 0.2144(5) 0.8009(4) 0.3083(5)
C6 C 0.2268(5) 0.9179(4) 0.2825(4)
C7 C 0.1695(6) 0.5581(4) 0.3538(5)
C8 C 0.1219(5) 0.7617(4) 0.4065(5)
C9 C 0.2663(6) 0.5984(4) 0.2585(5)
C10 C 0.3707(6) 1.2734(4) 0.1398(5)
C11 C 0.4133(5) 1.1501(4) 0.1235(5)
H1 H 0.3072 0.5321 0.1988
H2 H 0.3576 0.7413 0.1679
H3 H 0.0630 0.8200 0.4532
H4 H 0.0570 0.6146 0.4998
H5 H 0.5136 1.1613 0.1627
H6 H 0.3962 1.1324 0.0272
H7 H 0.2396 1.2839 0.0926
H8 H 0.3941 1.3023 0.2412
Cl1 Cl 0.0261(1) 0.86442(10) 0.9584(1)
O1 O 0.1736(4) 0.5850(3) 0.7924(3)
O2 O 0.1117(4) 0.4183(3) 0.8876(4)
O3 O 0.3525(4) -0.0460(3) 0.6297(4)
N1 N 0.4239(4) 0.5691(3) 0.6041(4)
C1 C 0.1759(5) 0.4701(4) 0.8095(5)
C2 C 0.3555(5) 0.5007(4) 0.6511(4)
C3 C 0.2133(6) 0.2120(4) 0.7642(5)
C4 C 0.3978(5) 0.1497(4) 0.5705(4)
C5 C 0.2856(5) 0.3009(4) 0.6917(5)
C6 C 0.2732(5) 0.4179(4) 0.7175(4)
C7 C 0.3305(6) 0.0581(4) 0.6462(5)
C8 C 0.3781(5) 0.2617(4) 0.5935(5)
C9 C 0.2337(6) 0.0984(4) 0.7415(5)
C10 C 0.1293(6) 0.7734(4) 0.8602(5)
C11 C 0.0867(5) 0.6501(4) 0.8765(5)
H1 H 0.1928 0.0321 0.8012
H2 H 0.1424 0.2413 0.8321
H3 H 0.4370 0.3200 0.5468
H4 H 0.4430 0.1146 0.5002
H5 H -0.0136 0.6613 0.8373
H6 H 0.1038 0.6324 0.9728
H7 H 0.2604 0.7839 0.9074
H8 H 0.1059 0.8023 0.7588

#END
