
#######################################################################
#
#                 Cambridge Crystallographic Data Centre
#                                CCDC 
#
#######################################################################
#
# If this CIF has been generated from an entry in the Cambridge 
# Structural Database, then it will include bibliographic, chemical, 
# crystal, experimental, refinement or atomic coordinate data resulting 
# from the CCDC's data processing and validation procedures.
#
#######################################################################

data_KAHNAL
_symmetry_cell_setting           monoclinic
_symmetry_space_group_name_H-M   'P 21/c'
_symmetry_Int_Tables_number      14
_space_group_name_Hall           '-P 2ybc'
loop_
_symmetry_equiv_pos_site_id
_symmetry_equiv_pos_as_xyz
1 x,y,z
2 -x,1/2+y,1/2-z
3 -x,-y,-z
4 x,1/2-y,1/2+z
_cell_length_a                   10.072(2)
_cell_length_b                   5.665(1)
_cell_length_c                   17.929(3)
_cell_angle_alpha                90
_cell_angle_beta                 103.34(2)
_cell_angle_gamma                90
_cell_volume                     995.388
loop_
_atom_site_label
_atom_site_type_symbol
_atom_site_fract_x
_atom_site_fract_y
_atom_site_fract_z
F1 F 0.0734(4) 0.3489(8) 0.2988(2)
O1 O 0.2954(4) 0.0466(8) 0.2901(2)
O2 O 0.9917(4) 0.2092(9) 0.5703(3)
O3 O 0.4791(5) 0.2554(8) 0.2746(3)
N1 N 0.3887(5) -0.417(1) 0.4073(3)
C1 C 0.8090(7) -0.059(1) 0.5370(4)
C2 C 0.2098(7) 0.166(1) 0.2245(4)
C3 C 0.4280(6) 0.106(1) 0.3081(4)
C4 C 0.6254(6) 0.032(1) 0.4243(3)
C5 C 0.4370(7) -0.243(1) 0.3938(4)
C6 C 0.6981(6) 0.246(1) 0.4109(4)
C7 C 0.6870(6) -0.116(1) 0.4893(4)
C8 C 0.5024(7) -0.029(1) 0.3770(4)
C9 C 0.8822(7) 0.157(1) 0.5260(4)
C10 C 0.8166(7) 0.302(1) 0.4601(4)
C11 C 0.1547(7) 0.394(1) 0.2458(4)
H1 H 0.8480 -0.1653 0.5793
H2 H 0.2625 0.1885 0.1867
H3 H 0.1340 0.0653 0.2022
H4 H 0.6616 0.3457 0.3668
H5 H 0.6394 -0.2599 0.4984
H6 H 0.8598 0.4475 0.4501
H7 H 0.1046 0.4744 0.2009
H8 H 0.2323 0.4979 0.2680
F1 F 0.9266(4) 0.8489(8) 0.2012(2)
O1 O 0.7046(4) 0.5466(8) 0.2099(2)
O2 O 0.0083(4) 0.7092(9) -0.0703(3)
O3 O 0.5209(5) 0.7554(8) 0.2254(3)
N1 N 0.6113(5) 0.083(1) 0.0927(3)
C1 C 0.1910(7) 0.441(1) -0.0370(4)
C2 C 0.7902(7) 0.666(1) 0.2755(4)
C3 C 0.5720(6) 0.606(1) 0.1919(4)
C4 C 0.3746(6) 0.532(1) 0.0757(3)
C5 C 0.5630(7) 0.257(1) 0.1062(4)
C6 C 0.3019(6) 0.746(1) 0.0891(4)
C7 C 0.3130(6) 0.384(1) 0.0107(4)
C8 C 0.4976(7) 0.471(1) 0.1230(4)
C9 C 0.1178(7) 0.657(1) -0.0260(4)
C10 C 0.1834(7) 0.802(1) 0.0399(4)
C11 C 0.8453(7) 0.894(1) 0.2542(4)
H1 H 0.1520 0.3347 -0.0793
H2 H 0.7375 0.6885 0.3133
H3 H 0.8660 0.5653 0.2978
H4 H 0.3384 0.8457 0.1332
H5 H 0.3606 0.2401 0.0016
H6 H 0.1402 0.9475 0.0499
H7 H 0.8954 0.9744 0.2991
H8 H 0.7677 0.9979 0.2320
F1 F 0.9266(4) 0.6511(8) 0.7012(2)
O1 O 0.7046(4) 0.9534(8) 0.7099(2)
O2 O 0.0083(4) 0.7908(9) 0.4297(3)
O3 O 0.5209(5) 0.7446(8) 0.7254(3)
N1 N 0.6113(5) 1.417(1) 0.5927(3)
C1 C 0.1910(7) 1.059(1) 0.4630(4)
C2 C 0.7902(7) 0.834(1) 0.7755(4)
C3 C 0.5720(6) 0.894(1) 0.6919(4)
C4 C 0.3746(6) 0.968(1) 0.5757(3)
C5 C 0.5630(7) 1.243(1) 0.6062(4)
C6 C 0.3019(6) 0.754(1) 0.5891(4)
C7 C 0.3130(6) 1.116(1) 0.5107(4)
C8 C 0.4976(7) 1.029(1) 0.6230(4)
C9 C 0.1178(7) 0.843(1) 0.4740(4)
C10 C 0.1834(7) 0.698(1) 0.5399(4)
C11 C 0.8453(7) 0.606(1) 0.7542(4)
H1 H 0.1520 1.1653 0.4207
H2 H 0.7375 0.8115 0.8133
H3 H 0.8660 0.9347 0.7978
H4 H 0.3384 0.6543 0.6332
H5 H 0.3606 1.2599 0.5016
H6 H 0.1402 0.5525 0.5499
H7 H 0.8954 0.5256 0.7991
H8 H 0.7677 0.5021 0.7320
F1 F 0.0734(4) 0.1511(8) 0.7988(2)
O1 O 0.2954(4) 0.4534(8) 0.7901(2)
O2 O 0.9917(4) 0.2908(9) 1.0703(3)
O3 O 0.4791(5) 0.2446(8) 0.7746(3)
N1 N 0.3887(5) 0.917(1) 0.9073(3)
C1 C 0.8090(7) 0.559(1) 1.0370(4)
C2 C 0.2098(7) 0.334(1) 0.7245(4)
C3 C 0.4280(6) 0.394(1) 0.8081(4)
C4 C 0.6254(6) 0.468(1) 0.9243(3)
C5 C 0.4370(7) 0.743(1) 0.8938(4)
C6 C 0.6981(6) 0.254(1) 0.9109(4)
C7 C 0.6870(6) 0.616(1) 0.9893(4)
C8 C 0.5024(7) 0.529(1) 0.8770(4)
C9 C 0.8822(7) 0.343(1) 1.0260(4)
C10 C 0.8166(7) 0.198(1) 0.9601(4)
C11 C 0.1547(7) 0.106(1) 0.7458(4)
H1 H 0.8480 0.6653 1.0793
H2 H 0.2625 0.3115 0.6867
H3 H 0.1340 0.4347 0.7022
H4 H 0.6616 0.1543 0.8668
H5 H 0.6394 0.7599 0.9984
H6 H 0.8598 0.0525 0.9501
H7 H 0.1046 0.0256 0.7009
H8 H 0.2323 0.0021 0.7680

#END
