./KAHNAL_from_POSCAR.cif_generated_by_CrystalShift
_symmetry_cell_setting triclinic
_symmetry_space_group_name_H-M 'P 1'
loop_
_symmetry_equiv_pos_site_id
_symmetry_equiv_pos_as_xyz
1 x,y,z
_cell_length_a 10.072000
_cell_length_b 5.665000
_cell_length_c 17.929000
_cell_angle_alpha 90.000000
_cell_angle_beta 103.340000
_cell_angle_gamma 90.000000
_cell_volume 995.388426
loop_
_atom_site_label
_atom_site_type_symbol
_atom_site_fract_x
_atom_site_fract_y
_atom_site_fract_z
H1 H 0.232300 0.002100 0.768000
H2 H 0.859800 0.052500 0.950100
H3 H 0.639400 0.759900 0.998400
H4 H 0.661600 0.154300 0.866800
H5 H 0.134000 0.434700 0.702200
H6 H 0.262500 0.311500 0.686700
H7 H 0.848000 0.665300 1.079300
H8 H 0.767700 0.502100 0.732000
H9 H 0.895400 0.525600 0.799100
H10 H 0.140200 0.552500 0.549900
H11 H 0.360600 1.259900 0.501600
H12 H 0.338400 0.654300 0.633200
H13 H 0.866000 0.934700 0.797800
H14 H 0.737500 0.811500 0.813300
H15 H 0.152000 1.165300 0.420700
H16 H 0.767700 0.997900 0.232000
H17 H 0.848000 -0.165300 0.579300
H18 H 0.262500 0.188500 0.186700
H19 H 0.134000 0.065300 0.202200
H20 H 0.661600 0.345700 0.366800
H21 H 0.639400 -0.259900 0.498400
H22 H 0.859800 0.447500 0.450100
H23 H 0.104600 0.474400 0.200900
H24 H 0.232300 0.497900 0.268000
H25 H 0.895400 0.974400 0.299100
H26 H 0.140200 0.947500 0.049900
H27 H 0.360600 0.240100 0.001600
H28 H 0.338400 0.845700 0.133200
H29 H 0.866000 0.565300 0.297800
H30 H 0.737500 0.688500 0.313300
H31 H 0.152000 0.334700 -0.079300
H32 H 0.104600 0.025600 0.700900
C33 C 0.374600 0.532000 0.075700
C34 C 0.563000 0.257000 0.106200
C35 C 0.301900 0.746000 0.089100
C36 C 0.313000 0.384000 0.010700
C37 C 0.497600 0.471000 0.123000
C38 C 0.117800 0.657000 -0.026000
C39 C 0.183400 0.802000 0.039900
C40 C 0.845300 0.894000 0.254200
C41 C 0.790200 0.666000 0.275500
C42 C 0.191000 0.441000 -0.037000
C43 C 0.809000 -0.059000 0.537000
C44 C 0.209800 0.166000 0.224500
C45 C 0.154700 0.106000 0.745800
C46 C 0.816600 0.198000 0.960100
C47 C 0.882200 0.343000 1.026000
C48 C 0.154700 0.394000 0.245800
C49 C 0.502400 0.529000 0.877000
C50 C 0.687000 0.616000 0.989300
C51 C 0.698100 0.254000 0.910900
C52 C 0.437000 0.743000 0.893800
C53 C 0.625400 0.468000 0.924300
C54 C 0.191000 1.059000 0.463000
C55 C 0.790200 0.834000 0.775500
C56 C 0.572000 0.894000 0.691900
C57 C 0.374600 0.968000 0.575700
C58 C 0.563000 1.243000 0.606200
C59 C 0.301900 0.754000 0.589100
C60 C 0.313000 1.116000 0.510700
C61 C 0.497600 1.029000 0.623000
C62 C 0.117800 0.843000 0.474000
C63 C 0.183400 0.698000 0.539900
C64 C 0.845300 0.606000 0.754200
C65 C 0.816600 0.302000 0.460100
C66 C 0.882200 0.157000 0.526000
C67 C 0.502400 -0.029000 0.377000
C68 C 0.687000 -0.116000 0.489300
C69 C 0.698100 0.246000 0.410900
C70 C 0.437000 -0.243000 0.393800
C71 C 0.625400 0.032000 0.424300
C72 C 0.428000 0.106000 0.308100
C73 C 0.428000 0.394000 0.808100
C74 C 0.209800 0.334000 0.724500
C75 C 0.809000 0.559000 1.037000
C76 C 0.572000 0.606000 0.191900
N77 N 0.388700 0.917000 0.907300
N78 N 0.611300 0.083000 0.092700
N79 N 0.388700 -0.417000 0.407300
N80 N 0.611300 1.417000 0.592700
O81 O 0.295400 0.046600 0.290100
O82 O 0.520900 0.744600 0.725400
O83 O 0.008300 0.790800 0.429700
O84 O 0.295400 0.453400 0.790100
O85 O 0.991700 0.209200 0.570300
O86 O 0.479100 0.244600 0.774600
O87 O 0.704600 0.546600 0.209900
O88 O 0.008300 0.709200 -0.070300
O89 O 0.520900 0.755400 0.225400
O90 O 0.991700 0.290800 1.070300
O91 O 0.704600 0.953400 0.709900
O92 O 0.479100 0.255400 0.274600
F93 F 0.073400 0.151100 0.798800
F94 F 0.926600 0.848900 0.201200
F95 F 0.926600 0.651100 0.701200
F96 F 0.073400 0.348900 0.298800

#END
