
#######################################################################
#
#                 Cambridge Crystallographic Data Centre
#                                CCDC 
#
#######################################################################
#
# If this CIF has been generated from an entry in the Cambridge 
# Structural Database, then it will include bibliographic, chemical, 
# crystal, experimental, refinement or atomic coordinate data resulting 
# from the CCDC's data processing and validation procedures.
#
#######################################################################

data_KAHPAL
_symmetry_cell_setting           orthorhombic
_symmetry_space_group_name_H-M   'P b c a'
_symmetry_Int_Tables_number      61
_space_group_name_Hall           '-P 2ac 2ab'
loop_
_symmetry_equiv_pos_site_id
_symmetry_equiv_pos_as_xyz
1 x,y,z
2 1/2-x,-y,1/2+z
3 1/2+x,1/2-y,-z
4 -x,1/2+y,1/2-z
5 -x,-y,-z
6 1/2+x,y,1/2-z
7 1/2-x,1/2+y,z
8 x,1/2-y,1/2+z
_cell_length_a                   10.6030(6)
_cell_length_b                   9.7780(6)
_cell_length_c                   25.203(2)
_cell_angle_alpha                90
_cell_angle_beta                 90
_cell_angle_gamma                90
_cell_volume                     2612.95
loop_
_atom_site_label
_atom_site_type_symbol
_atom_site_fract_x
_atom_site_fract_y
_atom_site_fract_z
O1 O 0.5061(2) 0.5996(2) 0.41965(6)
O2 O 0.58010(10) 0.63420(10) 0.52152(5)
O3 O 0.71870(10) 0.58260(10) 0.65676(5)
N1 N 0.69710(10) 0.78550(10) 0.58850(5)
N2 N 0.7490(2) 0.80440(10) 0.63790(5)
C1 C 0.5928(2) 0.7422(2) 0.48773(6)
C2 C 0.5534(2) 0.7225(2) 0.43570(7)
C3 C 0.5631(2) 0.8273(2) 0.39990(8)
C4 C 0.6112(2) 0.9521(2) 0.41513(8)
C5 C 0.6519(2) 0.9720(2) 0.46615(7)
C6 C 0.6443(2) 0.8667(2) 0.50329(6)
C7 C 0.6936(2) 0.8862(2) 0.55645(6)
C8 C 0.7599(2) 0.6950(2) 0.66983(6)
C9 C 0.8237(2) 0.7178(2) 0.72173(6)
C10 C 0.9097(2) 0.8210(2) 0.73034(7)
C11 C 0.9679(2) 0.8325(2) 0.77915(8)
C12 C 0.9412(2) 0.7426(3) 0.81879(8)
C13 C 0.8572(2) 0.6397(3) 0.81063(8)
C14 C 0.7984(2) 0.6268(2) 0.76232(7)
H1 H 0.509(3) 0.542(2) 0.4454(9)
H2 H 0.614(2) 0.663(2) 0.5502(6)
H3 H 0.771(2) 0.8860(10) 0.6468(7)
H4 H 0.5370 0.8141 0.3650
H5 H 0.6162 1.0231 0.3907
H6 H 0.6847 1.0564 0.4761
H7 H 0.7225 0.9718 0.5671
H8 H 0.9285 0.8827 0.7034
H9 H 1.0258 0.9023 0.7850
H10 H 0.9806 0.7515 0.8516
H11 H 0.8395 0.5781 0.8377
H12 H 0.7411 0.5561 0.7569
O1 O 0.9939(2) 0.4004(2) -0.08035(6)
O2 O 0.91990(10) 0.36580(10) 0.02152(5)
O3 O 0.78130(10) 0.41740(10) 0.15676(5)
N1 N 0.80290(10) 0.21450(10) 0.08850(5)
N2 N 0.7510(2) 0.19560(10) 0.13790(5)
C1 C 0.9072(2) 0.2578(2) -0.01227(6)
C2 C 0.9466(2) 0.2775(2) -0.06430(7)
C3 C 0.9369(2) 0.1727(2) -0.10010(8)
C4 C 0.8888(2) 0.0479(2) -0.08487(8)
C5 C 0.8481(2) 0.0280(2) -0.03385(7)
C6 C 0.8557(2) 0.1333(2) 0.00329(6)
C7 C 0.8064(2) 0.1138(2) 0.05645(6)
C8 C 0.7401(2) 0.3050(2) 0.16983(6)
C9 C 0.6763(2) 0.2822(2) 0.22173(6)
C10 C 0.5903(2) 0.1790(2) 0.23034(7)
C11 C 0.5321(2) 0.1675(2) 0.27915(8)
C12 C 0.5588(2) 0.2574(3) 0.31879(8)
C13 C 0.6428(2) 0.3603(3) 0.31063(8)
C14 C 0.7016(2) 0.3732(2) 0.26232(7)
H1 H 0.991(3) 0.458(2) -0.0546(9)
H2 H 0.886(2) 0.337(2) 0.0502(6)
H3 H 0.729(2) 0.1140(10) 0.1468(7)
H4 H 0.9630 0.1859 -0.1350
H5 H 0.8838 -0.0231 -0.1093
H6 H 0.8153 -0.0564 -0.0239
H7 H 0.7775 0.0282 0.0671
H8 H 0.5715 0.1173 0.2034
H9 H 0.4742 0.0977 0.2850
H10 H 0.5194 0.2485 0.3516
H11 H 0.6605 0.4219 0.3377
H12 H 0.7589 0.4439 0.2569
O1 O 0.0061(2) 0.9004(2) 0.58035(6)
O2 O 0.08010(10) 0.86580(10) 0.47848(5)
O3 O 0.21870(10) 0.91740(10) 0.34324(5)
N1 N 0.19710(10) 0.71450(10) 0.41150(5)
N2 N 0.2490(2) 0.69560(10) 0.36210(5)
C1 C 0.0928(2) 0.7578(2) 0.51227(6)
C2 C 0.0534(2) 0.7775(2) 0.56430(7)
C3 C 0.0631(2) 0.6727(2) 0.60010(8)
C4 C 0.1112(2) 0.5479(2) 0.58487(8)
C5 C 0.1519(2) 0.5280(2) 0.53385(7)
C6 C 0.1443(2) 0.6333(2) 0.49671(6)
C7 C 0.1936(2) 0.6138(2) 0.44355(6)
C8 C 0.2599(2) 0.8050(2) 0.33017(6)
C9 C 0.3237(2) 0.7822(2) 0.27827(6)
C10 C 0.4097(2) 0.6790(2) 0.26966(7)
C11 C 0.4679(2) 0.6675(2) 0.22085(8)
C12 C 0.4412(2) 0.7574(3) 0.18121(8)
C13 C 0.3572(2) 0.8603(3) 0.18937(8)
C14 C 0.2984(2) 0.8732(2) 0.23768(7)
H1 H 0.009(3) 0.958(2) 0.5546(9)
H2 H 0.114(2) 0.837(2) 0.4498(6)
H3 H 0.271(2) 0.6140(10) 0.3532(7)
H4 H 0.0370 0.6859 0.6350
H5 H 0.1162 0.4769 0.6093
H6 H 0.1847 0.4436 0.5239
H7 H 0.2225 0.5282 0.4329
H8 H 0.4285 0.6173 0.2966
H9 H 0.5258 0.5977 0.2150
H10 H 0.4806 0.7485 0.1484
H11 H 0.3395 0.9219 0.1623
H12 H 0.2411 0.9439 0.2431
O1 O 0.4939(2) 0.0996(2) 1.08035(6)
O2 O 0.41990(10) 0.13420(10) 0.97848(5)
O3 O 0.28130(10) 0.08260(10) 0.84324(5)
N1 N 0.30290(10) 0.28550(10) 0.91150(5)
N2 N 0.2510(2) 0.30440(10) 0.86210(5)
C1 C 0.4072(2) 0.2422(2) 1.01227(6)
C2 C 0.4466(2) 0.2225(2) 1.06430(7)
C3 C 0.4369(2) 0.3273(2) 1.10010(8)
C4 C 0.3888(2) 0.4521(2) 1.08487(8)
C5 C 0.3481(2) 0.4720(2) 1.03385(7)
C6 C 0.3557(2) 0.3667(2) 0.99671(6)
C7 C 0.3064(2) 0.3862(2) 0.94355(6)
C8 C 0.2401(2) 0.1950(2) 0.83017(6)
C9 C 0.1763(2) 0.2178(2) 0.77827(6)
C10 C 0.0903(2) 0.3210(2) 0.76966(7)
C11 C 0.0321(2) 0.3325(2) 0.72085(8)
C12 C 0.0588(2) 0.2426(3) 0.68121(8)
C13 C 0.1428(2) 0.1397(3) 0.68937(8)
C14 C 0.2016(2) 0.1268(2) 0.73768(7)
H1 H 0.491(3) 0.042(2) 1.0546(9)
H2 H 0.386(2) 0.163(2) 0.9498(6)
H3 H 0.229(2) 0.3860(10) 0.8532(7)
H4 H 0.4630 0.3141 1.1350
H5 H 0.3838 0.5231 1.1093
H6 H 0.3153 0.5564 1.0239
H7 H 0.2775 0.4718 0.9329
H8 H 0.0715 0.3827 0.7966
H9 H -0.0258 0.4023 0.7150
H10 H 0.0194 0.2515 0.6484
H11 H 0.1605 0.0781 0.6623
H12 H 0.2589 0.0561 0.7431
O1 O 0.4939(2) 0.4004(2) 0.58035(6)
O2 O 0.41990(10) 0.36580(10) 0.47848(5)
O3 O 0.28130(10) 0.41740(10) 0.34324(5)
N1 N 0.30290(10) 0.21450(10) 0.41150(5)
N2 N 0.2510(2) 0.19560(10) 0.36210(5)
C1 C 0.4072(2) 0.2578(2) 0.51227(6)
C2 C 0.4466(2) 0.2775(2) 0.56430(7)
C3 C 0.4369(2) 0.1727(2) 0.60010(8)
C4 C 0.3888(2) 0.0479(2) 0.58487(8)
C5 C 0.3481(2) 0.0280(2) 0.53385(7)
C6 C 0.3557(2) 0.1333(2) 0.49671(6)
C7 C 0.3064(2) 0.1138(2) 0.44355(6)
C8 C 0.2401(2) 0.3050(2) 0.33017(6)
C9 C 0.1763(2) 0.2822(2) 0.27827(6)
C10 C 0.0903(2) 0.1790(2) 0.26966(7)
C11 C 0.0321(2) 0.1675(2) 0.22085(8)
C12 C 0.0588(2) 0.2574(3) 0.18121(8)
C13 C 0.1428(2) 0.3603(3) 0.18937(8)
C14 C 0.2016(2) 0.3732(2) 0.23768(7)
H1 H 0.491(3) 0.458(2) 0.5546(9)
H2 H 0.386(2) 0.337(2) 0.4498(6)
H3 H 0.229(2) 0.1140(10) 0.3532(7)
H4 H 0.4630 0.1859 0.6350
H5 H 0.3838 -0.0231 0.6093
H6 H 0.3153 -0.0564 0.5239
H7 H 0.2775 0.0282 0.4329
H8 H 0.0715 0.1173 0.2966
H9 H -0.0258 0.0977 0.2150
H10 H 0.0194 0.2485 0.1484
H11 H 0.1605 0.4219 0.1623
H12 H 0.2589 0.4439 0.2431
O1 O 0.0061(2) 0.5996(2) 1.08035(6)
O2 O 0.08010(10) 0.63420(10) 0.97848(5)
O3 O 0.21870(10) 0.58260(10) 0.84324(5)
N1 N 0.19710(10) 0.78550(10) 0.91150(5)
N2 N 0.2490(2) 0.80440(10) 0.86210(5)
C1 C 0.0928(2) 0.7422(2) 1.01227(6)
C2 C 0.0534(2) 0.7225(2) 1.06430(7)
C3 C 0.0631(2) 0.8273(2) 1.10010(8)
C4 C 0.1112(2) 0.9521(2) 1.08487(8)
C5 C 0.1519(2) 0.9720(2) 1.03385(7)
C6 C 0.1443(2) 0.8667(2) 0.99671(6)
C7 C 0.1936(2) 0.8862(2) 0.94355(6)
C8 C 0.2599(2) 0.6950(2) 0.83017(6)
C9 C 0.3237(2) 0.7178(2) 0.77827(6)
C10 C 0.4097(2) 0.8210(2) 0.76966(7)
C11 C 0.4679(2) 0.8325(2) 0.72085(8)
C12 C 0.4412(2) 0.7426(3) 0.68121(8)
C13 C 0.3572(2) 0.6397(3) 0.68937(8)
C14 C 0.2984(2) 0.6268(2) 0.73768(7)
H1 H 0.009(3) 0.542(2) 1.0546(9)
H2 H 0.114(2) 0.663(2) 0.9498(6)
H3 H 0.271(2) 0.8860(10) 0.8532(7)
H4 H 0.0370 0.8141 1.1350
H5 H 0.1162 1.0231 1.1093
H6 H 0.1847 1.0564 1.0239
H7 H 0.2225 0.9718 0.9329
H8 H 0.4285 0.8827 0.7966
H9 H 0.5258 0.9023 0.7150
H10 H 0.4806 0.7515 0.6484
H11 H 0.3395 0.5781 0.6623
H12 H 0.2411 0.5561 0.7431
O1 O 0.9939(2) 0.0996(2) 0.41965(6)
O2 O 0.91990(10) 0.13420(10) 0.52152(5)
O3 O 0.78130(10) 0.08260(10) 0.65676(5)
N1 N 0.80290(10) 0.28550(10) 0.58850(5)
N2 N 0.7510(2) 0.30440(10) 0.63790(5)
C1 C 0.9072(2) 0.2422(2) 0.48773(6)
C2 C 0.9466(2) 0.2225(2) 0.43570(7)
C3 C 0.9369(2) 0.3273(2) 0.39990(8)
C4 C 0.8888(2) 0.4521(2) 0.41513(8)
C5 C 0.8481(2) 0.4720(2) 0.46615(7)
C6 C 0.8557(2) 0.3667(2) 0.50329(6)
C7 C 0.8064(2) 0.3862(2) 0.55645(6)
C8 C 0.7401(2) 0.1950(2) 0.66983(6)
C9 C 0.6763(2) 0.2178(2) 0.72173(6)
C10 C 0.5903(2) 0.3210(2) 0.73034(7)
C11 C 0.5321(2) 0.3325(2) 0.77915(8)
C12 C 0.5588(2) 0.2426(3) 0.81879(8)
C13 C 0.6428(2) 0.1397(3) 0.81063(8)
C14 C 0.7016(2) 0.1268(2) 0.76232(7)
H1 H 0.991(3) 0.042(2) 0.4454(9)
H2 H 0.886(2) 0.163(2) 0.5502(6)
H3 H 0.729(2) 0.3860(10) 0.6468(7)
H4 H 0.9630 0.3141 0.3650
H5 H 0.8838 0.5231 0.3907
H6 H 0.8153 0.5564 0.4761
H7 H 0.7775 0.4718 0.5671
H8 H 0.5715 0.3827 0.7034
H9 H 0.4742 0.4023 0.7850
H10 H 0.5194 0.2515 0.8516
H11 H 0.6605 0.0781 0.8377
H12 H 0.7589 0.0561 0.7569
O1 O 0.5061(2) 0.9004(2) -0.08035(6)
O2 O 0.58010(10) 0.86580(10) 0.02152(5)
O3 O 0.71870(10) 0.91740(10) 0.15676(5)
N1 N 0.69710(10) 0.71450(10) 0.08850(5)
N2 N 0.7490(2) 0.69560(10) 0.13790(5)
C1 C 0.5928(2) 0.7578(2) -0.01227(6)
C2 C 0.5534(2) 0.7775(2) -0.06430(7)
C3 C 0.5631(2) 0.6727(2) -0.10010(8)
C4 C 0.6112(2) 0.5479(2) -0.08487(8)
C5 C 0.6519(2) 0.5280(2) -0.03385(7)
C6 C 0.6443(2) 0.6333(2) 0.00329(6)
C7 C 0.6936(2) 0.6138(2) 0.05645(6)
C8 C 0.7599(2) 0.8050(2) 0.16983(6)
C9 C 0.8237(2) 0.7822(2) 0.22173(6)
C10 C 0.9097(2) 0.6790(2) 0.23034(7)
C11 C 0.9679(2) 0.6675(2) 0.27915(8)
C12 C 0.9412(2) 0.7574(3) 0.31879(8)
C13 C 0.8572(2) 0.8603(3) 0.31063(8)
C14 C 0.7984(2) 0.8732(2) 0.26232(7)
H1 H 0.509(3) 0.958(2) -0.0546(9)
H2 H 0.614(2) 0.837(2) 0.0502(6)
H3 H 0.771(2) 0.6140(10) 0.1468(7)
H4 H 0.5370 0.6859 -0.1350
H5 H 0.6162 0.4769 -0.1093
H6 H 0.6847 0.4436 -0.0239
H7 H 0.7225 0.5282 0.0671
H8 H 0.9285 0.6173 0.2034
H9 H 1.0258 0.5977 0.2850
H10 H 0.9806 0.7485 0.3516
H11 H 0.8395 0.9219 0.3377
H12 H 0.7411 0.9439 0.2569

#END
