
#######################################################################
#
#                 Cambridge Crystallographic Data Centre
#                                CCDC 
#
#######################################################################
#
# If this CIF has been generated from an entry in the Cambridge 
# Structural Database, then it will include bibliographic, chemical, 
# crystal, experimental, refinement or atomic coordinate data resulting 
# from the CCDC's data processing and validation procedures.
#
#######################################################################

data_KAHPOB
_symmetry_cell_setting           triclinic
_symmetry_space_group_name_H-M   'P -1'
_symmetry_Int_Tables_number      2
_space_group_name_Hall           '-P 1'
loop_
_symmetry_equiv_pos_site_id
_symmetry_equiv_pos_as_xyz
1 x,y,z
2 -x,-y,-z
_cell_length_a                   7.8355(4)
_cell_length_b                   11.0538(6)
_cell_length_c                   12.4164(7)
_cell_angle_alpha                101.7992(5)
_cell_angle_beta                 91.9711(6)
_cell_angle_gamma                102.7405(6)
_cell_volume                     1023.2
loop_
_atom_site_label
_atom_site_type_symbol
_atom_site_fract_x
_atom_site_fract_y
_atom_site_fract_z
Br1 Br 0.746742(17) 0.121967(12) 1.006078(10)
N1 N 0.82883(14) 0.27959(10) 0.56358(9)
C1 C 0.80846(16) 0.24656(12) 0.66715(10)
C2 C 0.68060(17) 0.27535(13) 0.73463(11)
C3 C 0.66366(17) 0.23668(13) 0.83542(11)
C4 C 0.77551(16) 0.16946(12) 0.86788(10)
C5 C 0.90743(16) 0.13316(11) 0.80122(10)
C6 C 1.02237(17) 0.06029(12) 0.83070(11)
C7 C 1.14285(19) 0.02544(14) 0.76092(12)
C8 C 1.15464(19) 0.06111(14) 0.65830(12)
C9 C 1.04750(18) 0.13302(13) 0.62813(11)
C10 C 0.92151(16) 0.17170(11) 0.69820(10)
C11 C 0.78786(16) 0.38014(12) 0.54751(10)
C12 C 0.79911(16) 0.41500(11) 0.43977(10)
C13 C 0.88603(17) 0.35360(12) 0.35644(10)
C14 C 0.89652(16) 0.38978(12) 0.25638(10)
C15 C 0.82056(16) 0.48687(12) 0.23477(10)
C16 C 0.73368(17) 0.54725(12) 0.31768(11)
C17 C 0.72479(17) 0.51240(12) 0.41943(11)
C18 C 0.84265(17) 0.52321(13) 0.12409(10)
C19 C 0.72445(16) 0.60433(12) 0.09019(10)
C20 C 0.76334(17) 0.62886(12) -0.02430(11)
C21 C 0.65286(17) 0.70869(12) -0.06860(10)
C22 C 0.70058(17) 0.72918(13) -0.18253(11)
C23 C 0.59060(17) 0.80515(12) -0.23255(10)
C24 C 0.64099(18) 0.82315(13) -0.34633(11)
C25 C 0.5376(2) 0.90537(14) -0.39273(12)
H1 H 0.596(2) 0.3170(16) 0.7097(15)
H2 H 0.572(2) 0.2580(16) 0.8790(15)
H3 H 1.016(2) 0.0363(15) 0.8987(14)
H4 H 1.224(2) -0.0250(16) 0.7769(14)
H5 H 1.233(2) 0.0343(16) 0.6097(15)
H6 H 1.054(2) 0.1565(17) 0.5624(15)
H7 H 0.749(2) 0.4409(16) 0.6060(14)
H8 H 0.938(2) 0.2885(16) 0.3690(14)
H9 H 0.957(2) 0.3480(15) 0.1989(14)
H10 H 0.683(2) 0.6143(15) 0.3065(13)
H11 H 0.668(2) 0.5578(16) 0.4764(14)
H12 H 0.825(2) 0.4450(16) 0.0676(13)
H13 H 0.965(2) 0.5679(16) 0.1244(14)
H14 H 0.744(2) 0.6846(15) 0.1430(13)
H15 H 0.599(2) 0.5596(14) 0.0908(12)
H16 H 0.889(2) 0.6721(15) -0.0200(13)
H17 H 0.746(2) 0.5464(16) -0.0762(13)
H18 H 0.528(2) 0.6665(14) -0.0718(12)
H19 H 0.670(2) 0.7904(16) -0.0173(14)
H20 H 0.688(2) 0.6450(16) -0.2313(14)
H21 H 0.822(2) 0.7739(16) -0.1754(14)
H22 H 0.465(2) 0.7618(15) -0.2374(13)
H23 H 0.606(2) 0.8887(16) -0.1833(14)
H24 H 0.618(2) 0.7401(17) -0.3948(14)
H25 H 0.765(2) 0.8618(16) -0.3423(14)
H26 H 0.568(3) 0.9135(19) -0.4637(18)
H27 H 0.564(2) 0.9886(18) -0.3471(15)
H28 H 0.412(2) 0.8685(16) -0.3996(14)
Br1 Br 0.253258(17) 0.878033(12) -0.006078(10)
N1 N 0.17117(14) 0.72041(10) 0.43642(9)
C1 C 0.19154(16) 0.75344(12) 0.33285(10)
C2 C 0.31940(17) 0.72465(13) 0.26537(11)
C3 C 0.33634(17) 0.76332(13) 0.16458(11)
C4 C 0.22449(16) 0.83054(12) 0.13212(10)
C5 C 0.09257(16) 0.86684(11) 0.19878(10)
C6 C -0.02237(17) 0.93971(12) 0.16930(11)
C7 C -0.14285(19) 0.97456(14) 0.23908(12)
C8 C -0.15464(19) 0.93889(14) 0.34170(12)
C9 C -0.04750(18) 0.86698(13) 0.37187(11)
C10 C 0.07849(16) 0.82830(11) 0.30180(10)
C11 C 0.21214(16) 0.61986(12) 0.45249(10)
C12 C 0.20089(16) 0.58500(11) 0.56023(10)
C13 C 0.11397(17) 0.64640(12) 0.64356(10)
C14 C 0.10348(16) 0.61022(12) 0.74362(10)
C15 C 0.17944(16) 0.51313(12) 0.76523(10)
C16 C 0.26632(17) 0.45275(12) 0.68232(11)
C17 C 0.27521(17) 0.48760(12) 0.58057(11)
C18 C 0.15735(17) 0.47679(13) 0.87591(10)
C19 C 0.27555(16) 0.39567(12) 0.90981(10)
C20 C 0.23666(17) 0.37114(12) 1.02430(11)
C21 C 0.34714(17) 0.29131(12) 1.06860(10)
C22 C 0.29942(17) 0.27082(13) 1.18253(11)
C23 C 0.40940(17) 0.19485(12) 1.23255(10)
C24 C 0.35901(18) 0.17685(13) 1.34633(11)
C25 C 0.4624(2) 0.09463(14) 1.39273(12)
H1 H 0.404(2) 0.6830(16) 0.2903(15)
H2 H 0.428(2) 0.7420(16) 0.1210(15)
H3 H -0.016(2) 0.9637(15) 0.1013(14)
H4 H -0.224(2) 1.0250(16) 0.2231(14)
H5 H -0.233(2) 0.9657(16) 0.3903(15)
H6 H -0.054(2) 0.8435(17) 0.4376(15)
H7 H 0.251(2) 0.5591(16) 0.3940(14)
H8 H 0.062(2) 0.7115(16) 0.6310(14)
H9 H 0.043(2) 0.6520(15) 0.8011(14)
H10 H 0.317(2) 0.3857(15) 0.6935(13)
H11 H 0.332(2) 0.4422(16) 0.5236(14)
H12 H 0.175(2) 0.5550(16) 0.9324(13)
H13 H 0.035(2) 0.4321(16) 0.8756(14)
H14 H 0.256(2) 0.3154(15) 0.8570(13)
H15 H 0.401(2) 0.4404(14) 0.9092(12)
H16 H 0.111(2) 0.3279(15) 1.0200(13)
H17 H 0.254(2) 0.4536(16) 1.0762(13)
H18 H 0.472(2) 0.3335(14) 1.0718(12)
H19 H 0.330(2) 0.2096(16) 1.0173(14)
H20 H 0.312(2) 0.3550(16) 1.2313(14)
H21 H 0.178(2) 0.2261(16) 1.1754(14)
H22 H 0.535(2) 0.2382(15) 1.2374(13)
H23 H 0.394(2) 0.1113(16) 1.1833(14)
H24 H 0.382(2) 0.2599(17) 1.3948(14)
H25 H 0.235(2) 0.1382(16) 1.3423(14)
H26 H 0.432(3) 0.0865(19) 1.4637(18)
H27 H 0.436(2) 0.0114(18) 1.3471(15)
H28 H 0.588(2) 0.1315(16) 1.3996(14)

#END
