./KAHQOA_from_POSCAR.cif_generated_by_CrystalShift
_symmetry_cell_setting triclinic
_symmetry_space_group_name_H-M 'P 1'
loop_
_symmetry_equiv_pos_site_id
_symmetry_equiv_pos_as_xyz
1 x,y,z
_cell_length_a 13.113400
_cell_length_b 14.252000
_cell_length_c 18.331000
_cell_angle_alpha 79.190000
_cell_angle_beta 73.781000
_cell_angle_gamma 75.565000
_cell_volume 3160.003089
loop_
_atom_site_label
_atom_site_type_symbol
_atom_site_fract_x
_atom_site_fract_y
_atom_site_fract_z
H1 H 0.846900 1.072900 0.910100
H2 H 0.020900 -0.138800 0.067400
H3 H -0.159000 -0.054500 0.089800
H4 H -0.205800 0.096000 0.133300
H5 H -0.075800 0.163400 0.156500
H6 H 0.000300 0.507000 -0.077100
H7 H -0.086500 0.508500 -0.171900
H8 H -0.043100 0.375600 -0.239600
H9 H 0.089700 0.242100 -0.213000
H10 H 0.176000 0.238300 -0.116900
H11 H 0.273600 0.142400 0.221600
H12 H 0.365200 0.256600 0.235800
H13 H 0.367400 0.401600 0.154000
H14 H 0.281200 0.436500 0.053000
H15 H 0.083500 0.207800 0.020500
H16 H 0.535900 0.606300 0.268600
H17 H 0.712800 0.625400 0.247800
H18 H 0.778700 0.636400 0.350500
H19 H 0.664200 0.635600 0.471500
H20 H 0.484300 0.625400 0.491800
H21 H 0.979100 1.138800 0.932600
H22 H 1.159000 1.054500 0.910200
H23 H 1.205800 0.904000 0.866700
H24 H 0.667600 0.628500 0.079700
H25 H 0.392000 0.913500 0.161400
H26 H 0.214000 0.897300 0.221500
H27 H 0.165300 0.747300 0.243900
H28 H 0.293000 0.607600 0.203600
H29 H 0.631000 0.963600 -0.013400
H30 H 0.600200 1.125700 0.006600
H31 H 0.566100 1.166700 0.128800
H32 H 0.563300 1.045100 0.232400
H33 H 0.591200 0.881900 0.214400
H34 H 0.542900 0.403100 0.028200
H35 H 0.699000 0.298600 -0.029600
H36 H 0.860900 0.281200 0.005500
H37 H 0.865400 0.367100 0.099600
H38 H 0.711000 0.473500 0.156800
H39 H 0.542600 0.323400 0.245300
H40 H 0.723600 0.243000 0.220300
H41 H 0.787800 0.123500 0.311200
H42 H 0.670500 0.083900 0.427300
H43 H 0.487500 0.160600 0.452900
H44 H 0.148800 0.344000 0.376600
H45 H -0.015800 0.460200 0.396400
H46 H -0.019500 0.618500 0.413000
H47 H 0.139300 0.667500 0.410100
H48 H 0.485400 0.437200 0.363000
H49 H 0.464100 0.393700 0.731400
H50 H 0.287200 0.374600 0.752200
H51 H 0.221300 0.363600 0.649500
H52 H 0.335800 0.364400 0.528500
H53 H 0.515700 0.374600 0.508200
H54 H 0.457400 0.676600 0.754700
H55 H 0.276400 0.757000 0.779700
H56 H 0.212200 0.876500 0.688800
H57 H 0.329500 0.916100 0.572700
H58 H 0.512500 0.839400 0.547100
H59 H 1.075800 0.836600 0.843500
H60 H 0.999700 0.493000 1.077100
H61 H 1.086500 0.491500 1.171900
H62 H 0.332400 0.371500 0.920300
H63 H 0.608000 0.086500 0.838600
H64 H 0.786000 0.102700 0.778500
H65 H 0.834700 0.252700 0.756100
H66 H 0.707000 0.392400 0.796400
H67 H 0.369000 0.036400 1.013400
H68 H 0.399800 -0.125700 0.993400
H69 H 0.433900 -0.166700 0.871200
H70 H 0.436700 -0.045100 0.767600
H71 H 0.408800 0.118100 0.785600
H72 H 0.457100 0.596900 0.971800
H73 H 0.301000 0.701400 1.029600
H74 H 0.139100 0.718800 0.994500
H75 H 0.134600 0.632900 0.900400
H76 H 0.289000 0.526500 0.843200
H77 H 0.851200 0.656000 0.623400
H78 H 1.015800 0.539800 0.603600
H79 H 1.019500 0.381500 0.587000
H80 H 0.860700 0.332500 0.589900
H81 H 0.514600 0.562800 0.637000
H82 H 0.916500 0.792200 0.979500
H83 H 0.718800 0.563500 0.947000
H84 H -0.098500 0.200400 0.468700
H85 H -0.264400 0.307000 0.468200
H86 H -0.288500 0.412500 0.358500
H87 H -0.145200 0.415700 0.251500
H88 H 0.023300 0.312700 0.252000
H89 H -0.094200 -0.203600 0.492100
H90 H -0.268900 -0.203700 0.488300
H91 H -0.330400 -0.137100 0.378500
H92 H -0.215700 -0.069000 0.272400
H93 H -0.040600 -0.065800 0.275300
H94 H 0.311900 0.128400 0.373300
H95 H 0.462700 0.001200 0.383500
H96 H 0.451000 -0.160300 0.391500
H97 H 1.043100 0.624400 1.239600
H98 H 0.910300 0.757900 1.213000
H99 H 0.824000 0.761700 1.116900
H100 H 1.027200 0.946400 0.627000
H101 H 0.710900 1.201500 0.608200
H102 H 0.549000 1.160300 0.608500
H103 H 0.537300 0.998800 0.616500
H104 H 0.688100 0.871600 0.626700
H105 H 1.040600 1.065800 0.724700
H106 H 1.215700 1.069000 0.727600
H107 H 1.330400 1.137100 0.621500
H108 H 1.268900 1.203700 0.511700
H109 H 1.094200 1.203600 0.507900
H110 H 0.976700 0.687300 0.748000
H111 H 1.145200 0.584300 0.748500
H112 H 1.288500 0.587500 0.641500
H113 H 1.264400 0.693000 0.531800
H114 H 1.098500 0.799600 0.531300
H115 H 0.289100 -0.201500 0.391800
H116 H -0.027200 0.053600 0.373000
H117 H 0.632600 0.598400 0.846000
H118 H 0.634800 0.743400 0.764200
H119 H 0.726400 0.857600 0.778400
H120 H 0.153100 -0.072900 0.089900
C121 C 0.396080 -0.013450 0.383050
C122 C 0.307250 0.062080 0.377300
C123 C -0.050140 -0.133000 0.384150
C124 C -0.086920 -0.094030 0.319000
C125 C -0.190880 -0.095970 0.317360
C126 C -0.258730 -0.136330 0.379840
C127 C -0.221990 -0.175800 0.444770
C128 C -0.118900 -0.175210 0.447300
C129 C -0.021160 0.246200 0.360900
C130 C -0.035350 0.310590 0.296160
C131 C -0.135400 0.371850 0.296130
C132 C -0.220060 0.370230 0.359270
C133 C -0.206010 0.307460 0.423730
C134 C 0.388800 -0.110120 0.388110
C135 C 0.293470 -0.135240 0.388390
C136 C 0.093600 -0.062200 0.382280
C137 C 0.204470 -0.059740 0.383440
C138 C 0.211870 0.037100 0.377660
C139 C 0.105790 0.099200 0.371810
C140 C 1.107180 0.755160 0.575810
C141 C 1.206010 0.692540 0.576270
C142 C 1.220060 0.629770 0.640730
C143 C 1.135400 0.628150 0.703870
C144 C 1.035350 0.689410 0.703840
C145 C 1.021160 0.753800 0.639100
C146 C 1.118900 1.175210 0.552700
C147 C 1.221990 1.175800 0.555230
C148 C 1.258730 1.136330 0.620160
C149 C 1.190880 1.095970 0.682640
C150 C 1.086920 1.094030 0.681000
C151 C 1.050140 1.133000 0.615850
C152 C 0.692750 0.937920 0.622700
C153 C 0.649920 0.457600 0.615670
C154 C 0.762230 0.466300 0.608690
C155 C 0.760420 0.561090 0.618210
C156 C 0.646950 0.616100 0.630250
C157 C 0.858730 0.397390 0.596700
C158 C 0.952130 0.427160 0.595080
C159 C 0.950160 0.521970 0.604940
C160 C 0.853300 0.591000 0.616700
C161 C 0.503120 0.749500 0.648400
C162 C 0.464600 0.821710 0.594390
C163 C 0.356060 0.867590 0.609970
C164 C 0.286430 0.844080 0.678490
C165 C 0.324470 0.773310 0.732090
C166 C 0.431910 0.725810 0.717400
C167 C 0.508890 0.383900 0.618330
C168 C 0.469270 0.375710 0.558270
C169 C 0.362300 0.368900 0.570580
C170 C 0.294540 0.368710 0.641710
C171 C 0.333210 0.376050 0.701890
C172 C 0.439070 0.385650 0.689570
C173 C 0.603920 1.013450 0.616950
C174 C 0.611200 1.110120 0.611890
C175 C 0.920160 1.037830 0.901150
C176 C 0.706530 1.135240 0.611610
C177 C 0.906400 1.062200 0.617720
C178 C 0.795530 1.059740 0.616560
C179 C 0.788130 0.962900 0.622340
C180 C 0.894210 0.900800 0.628190
C181 C 0.291810 0.561530 0.881640
C182 C 0.200190 0.624780 0.915520
C183 C 0.202800 0.676090 0.970730
C184 C 0.298600 0.665410 0.991580
C185 C 0.391140 0.602850 0.957780
C186 C 0.388280 0.548480 0.903300
C187 C 0.407670 0.068550 0.828320
C188 C 0.423950 -0.028480 0.817640
C189 C 0.421680 -0.100260 0.878780
C190 C 0.401800 -0.075800 0.950940
C191 C 0.350080 0.542400 0.384330
C192 C 0.237770 0.533700 0.391310
C193 C 0.239580 0.438910 0.381790
C194 C 0.353050 0.383900 0.369750
C195 C 0.141270 0.602610 0.403300
C196 C 0.047870 0.572840 0.404920
C197 C 0.049840 0.478030 0.395060
C198 C 0.146700 0.409000 0.383300
C199 C 0.496880 0.250500 0.351600
C200 C 0.535400 0.178290 0.405610
C201 C 0.643940 0.132410 0.390030
C202 C 0.713570 0.155920 0.321510
C203 C 0.675530 0.226690 0.267910
C204 C 0.568090 0.274190 0.282600
C205 C 0.491110 0.616100 0.381670
C206 C 0.530730 0.624290 0.441730
C207 C 0.637700 0.631100 0.429420
C208 C 0.705460 0.631290 0.358290
C209 C 0.666790 0.623950 0.298110
C210 C 0.560930 0.614350 0.310430
C211 C 0.998720 1.076990 0.914380
C212 C 1.105060 1.027280 0.901300
C213 C 1.132410 0.938620 0.875500
C214 C 0.384470 0.020330 0.962860
C215 C 0.389720 0.093320 0.900990
C216 C 0.686870 0.331000 0.804520
C217 C 0.761920 0.248030 0.781340
C218 C 0.732540 0.158530 0.794310
C219 C 0.627380 0.148320 0.829700
C220 C 0.433930 0.246620 0.890220
C221 C 0.551060 0.231180 0.851770
C222 C 0.581470 0.320940 0.839880
C223 C 0.485620 0.395270 0.870680
C224 C 0.708190 0.438470 0.118360
C225 C 0.799810 0.375220 0.084480
C226 C 0.797200 0.323910 0.029270
C227 C 0.701400 0.334590 0.008420
C228 C 0.608860 0.397150 0.042220
C229 C 0.152920 0.169980 0.109850
C230 C 0.222250 0.223710 0.129090
C231 C 0.225330 0.309260 0.079340
C232 C 0.161830 0.311190 0.023720
C233 C 0.279300 0.377530 0.087100
C234 C 0.330380 0.356060 0.146670
C235 C 0.328560 0.269490 0.195870
C236 C 0.274720 0.201800 0.188000
C237 C 0.096400 0.371830 -0.086890
C238 C 0.122380 0.293940 -0.127700
C239 C 0.070630 0.296150 -0.184830
C240 C -0.007180 0.374920 -0.201000
C241 C -0.032870 0.453150 -0.160730
C242 C 0.018490 0.452160 -0.104280
C243 C 0.052260 0.052030 0.125010
C244 C -0.055290 0.101690 0.138120
C245 C -0.132410 0.061380 0.124500
C246 C -0.105060 -0.027280 0.098700
C247 C 0.001280 -0.076990 0.085620
C248 C 0.079840 -0.037830 0.098850
C249 C 1.055290 0.898310 0.861880
C250 C 0.947740 0.947970 0.874990
C251 C 0.981510 0.547840 1.104280
C252 C 0.611720 0.451520 0.096700
C253 C 0.592330 0.931450 0.171680
C254 C 0.576050 1.028480 0.182360
C255 C 0.578320 1.100260 0.121220
C256 C 0.598200 1.075800 0.049060
C257 C 0.615530 0.979670 0.037140
C258 C 0.610280 0.906680 0.099010
C259 C 0.313130 0.669000 0.195480
C260 C 0.238080 0.751970 0.218660
C261 C 0.267460 0.841470 0.205690
C262 C 0.372620 0.851680 0.170300
C263 C 0.566070 0.753380 0.109780
C264 C 0.448940 0.768820 0.148230
C265 C 0.418530 0.679060 0.160120
C266 C -0.107180 0.244840 0.424190
C267 C 0.847080 0.830020 0.890150
C268 C 0.777750 0.776290 0.870910
C269 C 0.774670 0.690740 0.920660
C270 C 0.838170 0.688810 0.976280
C271 C 0.720700 0.622470 0.912900
C272 C 0.669620 0.643940 0.853330
C273 C 0.671440 0.730510 0.804130
C274 C 0.725280 0.798200 0.812000
C275 C 0.903600 0.628170 1.086890
C276 C 0.877620 0.706060 1.127700
C277 C 0.929370 0.703850 1.184830
C278 C 1.007180 0.625080 1.201000
C279 C 1.032870 0.546850 1.160730
C280 C 0.514380 0.604730 0.129320
N281 N 0.153140 0.377420 -0.032820
N282 N 0.116600 0.228670 0.047760
N283 N 0.379320 0.616970 0.393480
N284 N 0.384430 0.292670 0.365530
N285 N 0.414760 0.451290 0.368020
N286 N 0.620680 0.383030 0.606520
N287 N 0.883400 0.771330 0.952240
N288 N 0.846860 0.622580 1.032820
N289 N 0.869750 0.910700 0.855530
N290 N 0.615570 0.707330 0.634470
N291 N 0.585240 0.548710 0.631980
N292 N 0.084780 0.191770 0.363120
N293 N 0.058190 -0.139190 0.387320
N294 N 0.038640 0.035030 0.376170
N295 N 0.915220 0.808230 0.636880
N296 N 0.941810 1.139190 0.612680
N297 N 0.961360 0.964970 0.623830
N298 N 0.485360 0.484800 0.870380
N299 N 0.364990 0.191900 0.915000
N300 N 0.402320 0.345500 0.899910
N301 N 0.514640 0.515200 0.129620
N302 N 0.635010 0.808100 0.085000
N303 N 0.597680 0.654500 0.100090
N304 N 0.130250 0.089300 0.144470

#END
