./KAHRIW_from_POSCAR.cif_generated_by_CrystalShift
_symmetry_cell_setting triclinic
_symmetry_space_group_name_H-M 'P 1'
loop_
_symmetry_equiv_pos_site_id
_symmetry_equiv_pos_as_xyz
1 x,y,z
_cell_length_a 15.185100
_cell_length_b 18.658400
_cell_length_c 19.911400
_cell_angle_alpha 90.000000
_cell_angle_beta 91.300000
_cell_angle_gamma 90.000000
_cell_volume 5640.038321
loop_
_atom_site_label
_atom_site_type_symbol
_atom_site_fract_x
_atom_site_fract_y
_atom_site_fract_z
H1 H 0.080100 0.649100 0.364700
H2 H 0.376300 0.303000 0.292000
H3 H 0.556000 0.757100 0.195000
H4 H 0.412100 0.148600 0.119900
H5 H 0.623700 0.803000 0.208000
H6 H 0.334500 0.203600 0.202800
H7 H 0.556000 0.742900 0.695000
H8 H 0.623700 0.697000 0.708000
H9 H 0.220800 0.332900 0.066100
H10 H 0.444000 0.242900 0.805000
H11 H 0.376300 0.197000 0.792000
H12 H 0.221000 0.341000 -0.094900
H13 H 0.486000 0.753000 0.299000
H14 H 0.400000 0.765000 0.299300
H15 H 0.401000 0.191000 -0.041200
H16 H 0.514000 0.253000 0.201000
H17 H 0.600000 0.265000 0.200700
H18 H 0.514000 0.247000 0.701000
H19 H 0.600000 0.235000 0.700700
H20 H 0.486000 0.747000 0.799000
H21 H 0.400000 0.735000 0.799300
H22 H 0.366200 0.839000 0.669000
H23 H 0.587900 0.648600 0.380100
H24 H 0.291000 0.805900 0.676000
H25 H 0.665500 0.703600 0.297200
H26 H 0.633800 0.339000 0.831000
H27 H 0.709000 0.305900 0.824000
H28 H 0.779200 0.832900 0.433900
H29 H 0.633800 0.161000 0.331000
H30 H 0.709000 0.194100 0.324000
H31 H 0.779000 0.841000 0.594900
H32 H 0.366200 0.661000 0.169000
H33 H 0.291000 0.694100 0.176000
H34 H 0.599000 0.691000 0.541200
H35 H 0.130500 0.338000 0.813000
H36 H 0.203000 0.297900 0.805000
H37 H 0.869500 0.838000 0.687000
H38 H 0.797000 0.797900 0.695000
H39 H 0.869500 0.662000 0.187000
H40 H 0.797000 0.702100 0.195000
H41 H 0.130500 0.162000 0.313000
H42 H 0.587900 0.851400 0.880100
H43 H 0.203000 0.202100 0.305000
H44 H 0.665500 0.796400 0.797200
H45 H 0.411300 0.900600 1.245100
H46 H 0.497700 0.879000 1.226500
H47 H 0.779200 0.667100 0.933900
H48 H 0.486000 0.950500 1.244000
H49 H 0.323900 0.955800 0.716900
H50 H 0.779000 0.659000 1.094900
H51 H 0.233100 0.951000 0.738300
H52 H 0.270000 1.017600 0.731900
H53 H 0.599000 0.809000 1.041200
H54 H 0.353900 0.837300 1.026400
H55 H 0.395800 0.822100 1.137300
H56 H 0.463600 1.028300 1.148800
H57 H 0.424000 1.043000 1.037500
H58 H 0.346400 0.865100 0.805800
H59 H 0.385600 0.851100 0.917500
H60 H 0.317800 1.054400 0.951800
H61 H 0.412100 0.351400 0.619900
H62 H 0.279200 1.068000 0.839800
H63 H 0.334500 0.296400 0.702800
H64 H 0.588700 0.400600 0.254900
H65 H 0.502300 0.379000 0.273500
H66 H 0.220800 0.167100 0.566100
H67 H 0.514000 0.450500 0.256000
H68 H 0.676100 0.455800 0.783100
H69 H 0.221000 0.159000 0.405100
H70 H 0.766900 0.451000 0.761700
H71 H 0.730000 0.517600 0.768100
H72 H 0.401000 0.309000 0.458800
H73 H 0.646100 0.337300 0.473600
H74 H 0.604200 0.322100 0.362700
H75 H 0.536400 0.528300 0.351200
H76 H 0.576000 0.543000 0.462500
H77 H 0.653600 0.365100 0.694200
H78 H 0.614400 0.351100 0.582500
H79 H 0.682200 0.554400 0.548200
H80 H 0.185600 0.457200 0.023700
H81 H 0.720800 0.568000 0.660200
H82 H 0.144000 0.487500 0.130200
H83 H 0.588700 0.099400 -0.245100
H84 H 0.502300 0.121000 -0.226500
H85 H -0.007600 0.645800 0.056100
H86 H 0.514000 0.049500 -0.244000
H87 H 0.676100 0.044200 0.283100
H88 H -0.060000 0.690000 -0.100900
H89 H 0.766900 0.049000 0.261700
H90 H 0.730000 -0.017600 0.268100
H91 H 0.116000 0.536000 -0.114800
H92 H 0.646100 0.162700 -0.026400
H93 H 0.604200 0.177900 -0.137300
H94 H 0.536400 -0.028300 -0.148800
H95 H 0.576000 -0.043000 -0.037500
H96 H 0.653600 0.134900 0.194200
H97 H 0.614400 0.148900 0.082500
H98 H 0.682200 -0.054400 0.048200
H99 H 0.814400 -0.042800 0.476300
H100 H 0.720800 -0.068000 0.160200
H101 H 0.856000 -0.012500 0.369800
H102 H 0.411300 0.599400 0.745100
H103 H 0.497700 0.621000 0.726500
H104 H 1.007600 0.145800 0.443900
H105 H 0.486000 0.549500 0.744000
H106 H 0.323900 0.544200 0.216900
H107 H 1.060000 0.190000 0.600900
H108 H 0.233100 0.549000 0.238300
H109 H 0.270000 0.482400 0.231900
H110 H 0.884000 0.036000 0.614800
H111 H 0.353900 0.662700 0.526400
H112 H 0.395800 0.677900 0.637300
H113 H 0.463600 0.471700 0.648800
H114 H 0.424000 0.457000 0.537500
H115 H 0.346400 0.634900 0.305800
H116 H 0.385600 0.648900 0.417500
H117 H 0.317800 0.445600 0.451800
H118 H 0.814400 0.542800 0.976300
H119 H 0.279200 0.432000 0.339800
H120 H 0.856000 0.512500 0.869800
H121 H 0.167000 0.050000 0.270800
H122 H 0.224000 -0.008300 0.251300
H123 H 1.007600 0.354200 0.943900
H124 H 0.248500 0.065100 0.259600
H125 H 0.004000 0.062700 -0.250500
H126 H 1.060000 0.310000 1.100900
H127 H -0.044800 0.122600 -0.233900
H128 H 0.042000 0.132200 -0.254600
H129 H 0.884000 0.464000 1.114800
H130 H 0.185400 -0.027600 0.029100
H131 H 0.227400 -0.046000 0.139400
H132 H 0.127600 0.145600 0.187900
H133 H 0.086000 0.163900 0.077300
H134 H 0.033400 -0.010200 -0.161800
H135 H 0.081300 -0.024700 -0.051900
H136 H 0.108200 0.187900 -0.034900
H137 H 0.185600 1.042800 0.523700
H138 H 0.055500 0.201900 -0.143600
H139 H 0.144000 1.012500 0.630200
H140 H 0.833000 0.550000 0.229200
H141 H 0.776000 0.491700 0.248700
H142 H -0.007600 0.854200 0.556100
H143 H 0.751500 0.565100 0.240400
H144 H 0.996000 0.562700 0.750500
H145 H -0.060000 0.810000 0.399100
H146 H 1.044800 0.622600 0.733900
H147 H 0.958000 0.632200 0.754600
H148 H 0.116000 0.964000 0.385200
H149 H 0.814600 0.472400 0.470900
H150 H 0.772600 0.454000 0.360600
H151 H 0.872400 0.645600 0.312100
H152 H 0.914000 0.663900 0.422700
H153 H 0.966600 0.489800 0.661800
H154 H 0.918700 0.475300 0.551900
H155 H 0.891800 0.687900 0.534900
H156 H 0.316000 0.545700 0.975100
H157 H 0.944500 0.701900 0.643600
H158 H 0.354500 0.512200 0.869100
H159 H 0.833000 0.950000 0.729200
H160 H 0.776000 1.008300 0.748700
H161 H 0.505600 0.354100 0.945400
H162 H 0.751500 0.934900 0.740400
H163 H 0.996000 0.937300 1.250500
H164 H 0.546000 0.298000 1.098400
H165 H 1.044800 0.877400 1.233900
H166 H 0.958000 0.867800 1.254600
H167 H 0.388000 0.466000 1.112200
H168 H 0.814600 1.027600 0.970900
H169 H 0.772600 1.046000 0.860600
H170 H 0.872400 0.854400 0.812100
H171 H 0.914000 0.836100 0.922700
H172 H 0.966600 1.010200 1.161800
H173 H 0.918700 1.024700 1.051900
H174 H 0.891800 0.812100 1.034900
H175 H 0.684000 1.045700 0.524900
H176 H 0.944500 0.798100 1.143600
H177 H 0.645500 1.012200 0.630900
H178 H 0.167000 0.450000 0.770800
H179 H 0.224000 0.508300 0.751300
H180 H 0.494400 0.854100 0.554600
H181 H 0.248500 0.434900 0.759600
H182 H 0.004000 0.437300 0.249500
H183 H 0.454000 0.798000 0.401600
H184 H -0.044800 0.377400 0.266100
H185 H 0.042000 0.367800 0.245400
H186 H 0.612000 0.966000 0.387800
H187 H 0.185400 0.527600 0.529100
H188 H 0.227400 0.546000 0.639400
H189 H 0.127600 0.354400 0.687900
H190 H 0.086000 0.336100 0.577300
H191 H 0.033400 0.510200 0.338200
H192 H 0.081300 0.524700 0.448100
H193 H 0.108200 0.312100 0.465100
H194 H 0.684000 0.454300 0.024900
H195 H 0.055500 0.298100 0.356400
H196 H 0.645500 0.487800 0.130900
H197 H 0.129000 0.675000 0.524800
H198 H 0.288000 0.840000 0.573400
H199 H 0.494400 0.645900 0.054600
H200 H 0.262800 0.841800 0.410400
H201 H 0.131700 0.717300 0.278500
H202 H 0.454000 0.702000 -0.098400
H203 H 0.444000 0.257100 0.305000
H204 H 0.871000 0.175000 -0.024800
H205 H 0.612000 0.534000 -0.112200
H206 H 0.712000 0.340000 -0.073400
H207 H 0.737200 0.341800 0.089600
H208 H 0.868300 0.217300 0.221500
H209 H 0.919900 0.149100 0.135300
H210 H 0.871000 0.325000 0.475200
H211 H 0.712000 0.160000 0.426600
H212 H 0.737200 0.158200 0.589600
H213 H 0.316000 -0.045700 0.475100
H214 H 0.868300 0.282700 0.721500
H215 H 0.354500 -0.012200 0.369100
H216 H 0.919900 0.350900 0.635300
H217 H 0.129000 0.825000 1.024800
H218 H 0.505600 0.145900 0.445400
H219 H 0.288000 0.660000 1.073400
H220 H 0.262800 0.658200 0.910400
H221 H 0.546000 0.202000 0.598400
H222 H 0.131700 0.782700 0.778500
H223 H 0.080100 0.850900 0.864700
H224 H 0.388000 0.034000 0.612200
C225 C 0.304200 0.261830 0.026040
C226 C 0.636700 0.706500 0.457470
C227 C 0.626500 0.685610 0.391190
C228 C 0.363300 0.206500 0.042530
C229 C 0.194600 0.738130 0.954540
C230 C 0.140400 0.796700 0.940500
C231 C 0.117000 0.812300 0.874100
C232 C 0.672500 0.718650 0.341550
C233 C 0.147600 0.771700 0.822600
C234 C 0.729500 0.774680 0.357320
C235 C 0.202500 0.713730 0.836520
C236 C 0.226000 0.696990 0.901580
C237 C 0.740800 0.795550 0.423250
C238 C 0.217600 0.720900 1.025200
C239 C 0.710200 0.782400 0.545130
C240 C 0.478000 0.126710 0.576510
C241 C 0.695800 0.738170 0.973960
C242 C 0.636700 0.793500 0.957470
C243 C 0.467500 0.107690 0.451740
C244 C 0.626500 0.814390 0.891190
C245 C 0.672500 0.781350 0.841550
C246 C 0.729500 0.725320 0.857320
C247 C 0.740800 0.704450 0.923250
C248 C 0.805400 0.238130 0.545460
C249 C 0.859600 0.296700 0.559500
C250 C 0.883000 0.312300 0.625900
C251 C 0.434000 0.070220 0.396690
C252 C 0.852400 0.271700 0.677400
C253 C 0.376900 0.012810 0.406120
C254 C 0.797500 0.213730 0.663480
C255 C 0.774000 0.196990 0.598420
C256 C 0.353700 -0.007000 0.469440
C257 C 0.782400 0.220900 0.474800
C258 C 0.710200 0.717600 1.045130
C259 C 0.385800 0.030090 0.525490
C260 C 0.376000 0.876140 1.050740
C261 C 0.400700 0.866800 1.117220
C262 C 0.444000 0.088170 0.516960
C263 C 0.432700 0.924150 1.153580
C264 C 0.441500 0.989680 1.124080
C265 C 0.417400 0.998310 1.057510
C266 C 0.373500 0.185610 0.108810
C267 C 0.805400 0.261870 0.045460
C268 C 0.859600 0.203300 0.059500
C269 C 0.883000 0.187700 0.125900
C270 C 0.327500 0.218650 0.158450
C271 C 0.852400 0.228300 0.177400
C272 C 0.383400 0.942100 1.019600
C273 C 0.797500 0.286270 0.163480
C274 C 0.774000 0.303010 0.098420
C275 C 0.304200 0.238170 0.526040
C276 C 0.782400 0.279100 -0.025200
C277 C 0.340300 0.903200 0.835450
C278 C 0.363300 0.293500 0.542530
C279 C 0.364200 0.895100 0.902290
C280 C 0.356900 0.951700 0.947460
C281 C 0.373500 0.314390 0.608810
C282 C 0.324000 1.015800 0.922680
C283 C 0.327500 0.281350 0.658450
C284 C 0.300200 1.024100 0.855570
C285 C 0.307500 0.967580 0.812860
C286 C 0.194600 0.761870 0.454540
C287 C 0.140400 0.703300 0.440500
C288 C 0.117000 0.687700 0.374100
C289 C 0.270500 0.225320 0.642680
C290 C 0.147600 0.728300 0.322600
C291 C 0.259200 0.204450 0.576750
C292 C 0.202500 0.786270 0.336520
C293 C 0.226000 0.803010 0.401580
C294 C 0.522000 0.626710 -0.076510
C295 C 0.217600 0.779100 0.525200
C296 C 0.289800 0.217600 0.454870
C297 C 0.532500 0.607690 0.048260
C298 C 0.624000 0.376140 0.449260
C299 C 0.599300 0.366800 0.382780
C300 C 0.566000 0.570220 0.103310
C301 C 0.567300 0.424150 0.346420
C302 C 0.558500 0.489680 0.375920
C303 C 0.582600 0.498310 0.442490
C304 C 0.270500 0.274680 0.142680
C305 C 0.040300 0.403300 0.337300
C306 C 0.061600 0.343700 0.374810
C307 C 0.623100 0.512810 0.093880
C308 C 0.092300 0.352300 0.440140
C309 C 0.646300 0.493000 0.030560
C310 C 0.100000 0.419590 0.469460
C311 C 0.077000 0.478900 0.429900
C312 C 0.614200 0.530090 -0.025490
C313 C 0.047900 0.470300 0.364130
C314 C 0.556000 0.588170 -0.016960
C315 C 0.130100 0.430060 0.540320
C316 C 0.114300 0.378540 0.589520
C317 C 0.259200 0.295550 0.076750
C318 C 0.139400 0.389050 0.655770
C319 C 0.616600 0.442100 0.480400
C320 C 0.182600 0.451880 0.673790
C321 C 0.199100 0.503700 0.626800
C322 C 0.055200 0.589480 -0.016440
C323 C 0.173500 0.492500 0.560870
C324 C 0.659700 0.403200 0.664550
C325 C 0.113900 0.532480 -0.025190
C326 C 0.635800 0.395100 0.597710
C327 C 0.643100 0.451700 0.552540
C328 C 0.146600 0.495020 0.029880
C329 C 0.676000 0.515800 0.577320
C330 C 0.522000 0.873290 0.423490
C331 C 0.532500 0.892310 0.548260
C332 C 0.566000 0.929780 0.603310
C333 C 0.959700 0.903300 1.162700
C334 C 0.938400 0.843700 1.125190
C335 C 0.623100 0.987190 0.593880
C336 C 0.907700 0.852300 1.059860
C337 C 0.646300 1.007000 0.530560
C338 C 0.900000 0.919590 1.030540
C339 C 0.923000 0.978900 1.070100
C340 C 0.614200 0.969910 0.474510
C341 C 0.952100 0.970300 1.135870
C342 C 0.556000 0.911830 0.483040
C343 C 0.869900 0.930060 0.959680
C344 C 0.885700 0.878540 0.910480
C345 C 0.122100 0.513250 0.093510
C346 C 0.860600 0.889050 0.844230
C347 C 0.699800 0.524100 0.644430
C348 C 0.817400 0.951880 0.826210
C349 C 0.800900 1.003700 0.873200
C350 C 0.692500 0.467580 0.687140
C351 C 0.826500 0.992500 0.939130
C352 C 0.064100 0.570360 0.103510
C353 C 0.031000 0.607910 0.049380
C354 C 0.018200 0.625540 -0.076370
C355 C 0.624000 0.123860 -0.050740
C356 C 0.599300 0.133200 -0.117220
C357 C 0.567300 0.075850 -0.153580
C358 C 0.478000 0.373290 1.076510
C359 C 0.467500 0.392310 0.951740
C360 C 0.434000 0.429780 0.896690
C361 C 0.959700 0.596700 0.662700
C362 C 0.938400 0.656300 0.625190
C363 C 0.376900 0.487190 0.906120
C364 C 0.907700 0.647700 0.559860
C365 C 0.353700 0.507000 0.969440
C366 C 0.900000 0.580410 0.530540
C367 C 0.923000 0.521100 0.570100
C368 C 0.385800 0.469910 1.025490
C369 C 0.952100 0.529700 0.635870
C370 C 0.444000 0.411830 1.016960
C371 C 0.869900 0.569940 0.459680
C372 C 0.885700 0.621460 0.410480
C373 C 0.289800 0.282400 -0.045130
C374 C 0.860600 0.610950 0.344230
C375 C 0.558500 0.010320 -0.124080
C376 C 0.817400 0.548120 0.326210
C377 C 0.800900 0.496300 0.373200
C378 C 0.582600 0.001690 -0.057510
C379 C 0.826500 0.507500 0.439130
C380 C 0.616600 0.057900 -0.019600
C381 C 0.944800 0.089480 0.516440
C382 C 0.659700 0.096800 0.164550
C383 C 0.886100 0.032480 0.525190
C384 C 0.635800 0.104900 0.097710
C385 C 0.643100 0.048300 0.052540
C386 C 0.018200 0.874460 0.423630
C387 C 0.031000 0.892090 0.549380
C388 C 0.064100 0.929640 0.603510
C389 C 0.040300 0.096700 -0.162700
C390 C 0.061600 0.156300 -0.125190
C391 C 0.122100 0.986750 0.593510
C392 C 0.092300 0.147700 -0.059860
C393 C 0.146600 1.004980 0.529880
C394 C 0.100000 0.080410 -0.030540
C395 C 0.077000 0.021100 -0.070100
C396 C 0.113900 0.967520 0.474810
C397 C 0.047900 0.029700 -0.135870
C398 C 0.055200 0.910520 0.483560
C399 C 0.130100 0.069940 0.040320
C400 C 0.114300 0.121460 0.089520
C401 C 0.853400 -0.004980 0.470120
C402 C 0.139400 0.110950 0.155770
C403 C 0.676000 -0.015800 0.077320
C404 C 0.182600 0.048120 0.173790
C405 C 0.199100 -0.003700 0.126800
C406 C 0.877900 0.013250 0.406490
C407 C 0.173500 0.007500 0.060870
C408 C 0.699800 -0.024100 0.144430
C409 C 0.692500 0.032420 0.187140
C410 C 0.935900 0.070360 0.396490
C411 C 0.969000 0.107910 0.450620
C412 C 0.981800 0.125540 0.576370
C413 C 0.376000 0.623860 0.550740
C414 C 0.981800 0.374460 1.076370
C415 C 0.969000 0.392090 0.950620
C416 C 0.935900 0.429640 0.896490
C417 C 0.307500 0.532420 0.312860
C418 C 0.300200 0.475900 0.355570
C419 C 0.877900 0.486750 0.906490
C420 C 0.324000 0.484200 0.422680
C421 C 0.853400 0.504980 0.970120
C422 C 0.356900 0.548300 0.447460
C423 C 0.364200 0.604900 0.402290
C424 C 0.886100 0.467520 1.025190
C425 C 0.340300 0.596800 0.335450
C426 C 0.944800 0.410520 1.016440
C427 C 0.383400 0.557900 0.519600
C428 C 0.417400 0.501690 0.557510
C429 C 0.400700 0.633200 0.617220
C430 C 0.441500 0.510320 0.624080
C431 C 0.432700 0.575850 0.653580
C432 C 0.695800 0.761830 0.473960
N433 N 0.282600 0.974010 0.741370
N434 N 0.541000 0.413790 0.275480
N435 N 0.208100 0.035980 0.244520
N436 N 0.717400 0.474010 0.758630
N437 N 0.282600 0.525990 0.241370
N438 N 0.006900 0.395000 0.268130
N439 N 0.459000 0.913790 1.224520
N440 N 0.208100 0.464020 0.744520
N441 N 0.459000 0.586210 0.724520
N442 N 0.993100 0.895000 1.231870
N443 N 0.541000 0.086210 -0.224520
N444 N 0.717400 0.025990 0.258630
N445 N 0.006900 0.105000 -0.231870
N446 N 0.791900 0.964020 0.755480
N447 N 0.993100 0.605000 0.731870
N448 N 0.791900 0.535980 0.255480
O449 O 0.525870 0.038490 0.291630
O450 O 1.028140 0.464820 0.792850
O451 O -0.040240 0.822930 0.435620
O452 O 0.038310 0.890190 0.366930
O453 O 0.141370 0.989020 0.413820
O454 O 0.885230 0.413520 0.772830
O455 O -0.004810 0.838970 0.686000
O456 O 0.114770 0.913520 0.727170
O457 O 0.431060 0.202640 0.788360
O458 O -0.028140 0.964820 0.707150
O459 O -0.028140 0.535180 0.207150
O460 O 1.004810 0.338970 0.814000
O461 O 0.530980 0.319750 1.063600
O462 O 0.114770 0.586480 0.227170
O463 O 0.458320 0.390000 1.133860
O464 O -0.004810 0.661030 0.186000
O465 O 0.858630 0.489020 1.086180
O466 O 0.141370 0.510980 -0.086180
O467 O 0.038310 0.609810 -0.133070
O468 O -0.040240 0.677070 -0.064380
O469 O 0.961690 0.390190 1.133070
O470 O 0.359600 0.491630 1.086490
O471 O 1.040240 0.322930 1.064380
O472 O 0.525870 0.461510 0.791630
O473 O 0.383360 0.408280 0.773190
O474 O 0.504760 0.337080 0.818220
O475 O 0.568940 0.702640 0.711640
O476 O 1.040240 0.177070 0.564380
O477 O 0.469020 0.819750 0.436400
O478 O 0.541680 0.890000 0.366140
O479 O 0.961690 0.109810 0.633070
O480 O 0.858630 0.010980 0.586180
O481 O 0.474130 0.961510 0.708370
O482 O 0.616640 0.908280 0.726810
O483 O 0.495240 0.837080 0.681780
O484 O 0.166600 0.853170 0.224400
O485 O 0.329580 0.253920 -0.091250
O486 O 0.301010 0.786760 0.233970
O487 O 0.244690 0.205910 0.769460
O488 O 0.288600 0.897190 0.292510
O489 O 0.108200 0.661320 0.489140
O490 O 0.118250 0.202780 0.693460
O491 O 0.190800 0.744220 0.572290
O492 O 0.221680 0.105650 0.695120
O493 O 1.004810 0.161030 0.314000
O494 O 0.411400 0.327440 0.495970
O495 O 0.329580 0.246080 0.408750
O496 O 0.231500 0.166490 0.445630
O497 O 0.885230 0.086480 0.272830
O498 O 0.268400 0.835540 0.533820
O499 O 0.469020 0.680250 -0.063600
O500 O 0.541680 0.610000 -0.133860
O501 O 0.568940 0.797360 0.211640
O502 O 0.833400 0.353170 0.275600
O503 O 0.698990 0.286760 0.266030
O504 O 0.711400 0.397190 0.207490
O505 O 0.640400 0.508370 -0.086490
O506 O 0.891800 0.161320 0.010860
O507 O 0.809200 0.244220 -0.072290
O508 O 0.474130 0.538490 0.208370
O509 O 0.731600 0.335540 -0.033820
O510 O 0.616640 0.591720 0.226810
O511 O 0.495240 0.662920 0.181780
O512 O 0.833400 0.146830 0.775600
O513 O 0.411400 0.172560 -0.004030
O514 O 0.698990 0.213240 0.766030
O515 O 0.755310 0.705910 0.730540
O516 O 0.711400 0.102810 0.707490
O517 O 0.891800 0.338680 0.510860
O518 O 0.881750 0.702780 0.806540
O519 O 0.809200 0.255780 0.427710
O520 O 0.778320 0.605650 0.804880
O521 O 0.231500 0.333510 -0.054370
O522 O 0.588600 0.827440 1.004030
O523 O 0.670420 0.746080 1.091250
O524 O 0.768500 0.666490 1.054370
O525 O 0.640400 0.991630 0.413510
O526 O 0.731600 0.164460 0.466180
O527 O 0.431060 0.297360 0.288360
O528 O 0.166600 0.646830 0.724400
O529 O 0.183520 0.164930 0.320230
O530 O 0.301010 0.713240 0.733970
O531 O 0.288600 0.602810 0.792510
O532 O 0.816480 0.664930 0.179770
O533 O 0.108200 0.838680 0.989140
O534 O 0.190800 0.755780 1.072290
O535 O 0.816480 0.835070 0.679770
O536 O 0.442730 0.749630 0.322630
O537 O 0.755310 0.794090 0.230540
O538 O 0.183520 0.335070 0.820230
O539 O 0.881750 0.797220 0.306540
O540 O 0.778320 0.894350 0.304880
O541 O 0.313470 0.656990 0.161980
O542 O 0.588600 0.672560 0.504030
O543 O 0.670420 0.753920 0.591250
O544 O 0.686530 0.156990 0.338020
O545 O 0.768500 0.833510 0.554370
O546 O 0.268400 0.664460 1.033820
O547 O 0.686530 0.343010 0.838020
O548 O 0.530980 0.180250 0.563600
O549 O 0.458320 0.110000 0.633860
O550 O 0.313470 0.843010 0.661980
O551 O 0.359600 0.008370 0.586490
O552 O 0.504760 0.162920 0.318220
O553 O 0.442730 0.750370 0.822630
O554 O 0.383360 0.091720 0.273190
O555 O 1.028140 0.035180 0.292850
O556 O 0.557270 0.250370 0.677370
O557 O 0.221680 0.394350 0.195120
O558 O 0.244690 0.294090 0.269460
O559 O 0.557270 0.249630 0.177370
O560 O 0.118250 0.297220 0.193460
S561 S 0.210360 0.318450 0.204800
S562 S 0.789640 0.818450 0.295200
S563 S 0.789640 0.681550 0.795200
S564 S 0.210360 0.181550 0.704800
S565 S 0.034500 0.590400 0.187030
S566 S 0.965500 0.090400 0.312970
S567 S 0.034500 0.909600 0.687030
S568 S 0.463530 0.407260 0.813790
S569 S 0.536470 0.907260 0.686210
S570 S 0.241760 0.835130 0.267580
S571 S 0.758240 0.335130 0.232420
S572 S 0.536470 0.592740 0.186210
S573 S 0.758240 0.164870 0.732420
S574 S 0.241760 0.664870 0.767580
S575 S 0.463530 0.092740 0.313790
S576 S 0.965500 0.409600 0.812970

#END
