
#######################################################################
#
#                 Cambridge Crystallographic Data Centre
#                                CCDC 
#
#######################################################################
#
# If this CIF has been generated from an entry in the Cambridge 
# Structural Database, then it will include bibliographic, chemical, 
# crystal, experimental, refinement or atomic coordinate data resulting 
# from the CCDC's data processing and validation procedures.
#
#######################################################################

data_KAHRUI
_symmetry_cell_setting           monoclinic
_symmetry_space_group_name_H-M   'P 21/c'
_symmetry_Int_Tables_number      14
_space_group_name_Hall           '-P 2ybc'
loop_
_symmetry_equiv_pos_site_id
_symmetry_equiv_pos_as_xyz
1 x,y,z
2 -x,1/2+y,1/2-z
3 -x,-y,-z
4 x,1/2-y,1/2+z
_cell_length_a                   8.2500(3)
_cell_length_b                   6.0649(2)
_cell_length_c                   20.5484(8)
_cell_angle_alpha                90
_cell_angle_beta                 96.479(4)
_cell_angle_gamma                90
_cell_volume                     1021.58
loop_
_atom_site_label
_atom_site_type_symbol
_atom_site_fract_x
_atom_site_fract_y
_atom_site_fract_z
C1 C 0.32637(17) 0.5407(3) 0.28306(7)
C2 C 0.2479(2) 0.7416(3) 0.27325(9)
C3 C 0.1394(2) 0.7772(3) 0.21731(9)
C4 C 0.1131(2) 0.6102(3) 0.17293(8)
C5 C 0.1882(2) 0.4102(3) 0.18130(8)
C6 C 0.2960(2) 0.3736(3) 0.23732(8)
C7 C 0.48262(19) 0.3276(3) 0.37228(7)
C8 C 0.60614(18) 0.3584(2) 0.43165(7)
C9 C 0.6492(2) 0.1784(3) 0.47109(9)
C10 C 0.7559(2) 0.2110(3) 0.52774(9)
C11 C 0.8178(2) 0.4178(3) 0.54068(9)
C12 C 0.7712(2) 0.5864(3) 0.49784(9)
N1 N 0.44150(16) 0.5154(2) 0.33956(6)
N2 N 0.66513(16) 0.5602(2) 0.44373(7)
O1 O 0.42591(17) 0.1465(2) 0.35782(7)
F1 F 0.00806(16) 0.6455(2) 0.11748(6)
H1 H 0.270(2) 0.857(3) 0.3038(11)
H2 H 0.084(3) 0.919(4) 0.2095(11)
H3 H 0.170(3) 0.292(4) 0.1471(11)
H4 H 0.349(3) 0.236(4) 0.2451(10)
H5 H 0.605(2) 0.030(4) 0.4605(10)
H6 H 0.781(3) 0.087(4) 0.5588(11)
H7 H 0.892(3) 0.452(3) 0.5803(10)
H8 H 0.815(2) 0.736(4) 0.5053(9)
H9 H 0.481(3) 0.633(3) 0.3578(10)
C1 C 0.67363(17) 1.0407(3) 0.21694(7)
C2 C 0.7521(2) 1.2416(3) 0.22675(9)
C3 C 0.8606(2) 1.2772(3) 0.28269(9)
C4 C 0.8869(2) 1.1102(3) 0.32707(8)
C5 C 0.8118(2) 0.9102(3) 0.31870(8)
C6 C 0.7040(2) 0.8736(3) 0.26268(8)
C7 C 0.51738(19) 0.8276(3) 0.12772(7)
C8 C 0.39386(18) 0.8584(2) 0.06835(7)
C9 C 0.3508(2) 0.6784(3) 0.02891(9)
C10 C 0.2441(2) 0.7110(3) -0.02774(9)
C11 C 0.1822(2) 0.9178(3) -0.04068(9)
C12 C 0.2288(2) 1.0864(3) 0.00216(9)
N1 N 0.55850(16) 1.0154(2) 0.16044(6)
N2 N 0.33487(16) 1.0602(2) 0.05627(7)
O1 O 0.57409(17) 0.6465(2) 0.14218(7)
F1 F 0.99194(16) 1.1455(2) 0.38252(6)
H1 H 0.730(2) 1.357(3) 0.1962(11)
H2 H 0.916(3) 1.419(4) 0.2905(11)
H3 H 0.830(3) 0.792(4) 0.3529(11)
H4 H 0.651(3) 0.736(4) 0.2549(10)
H5 H 0.395(2) 0.530(4) 0.0395(10)
H6 H 0.219(3) 0.587(4) -0.0588(11)
H7 H 0.108(3) 0.952(3) -0.0803(10)
H8 H 0.185(2) 1.236(4) -0.0053(9)
H9 H 0.519(3) 1.133(3) 0.1422(10)
C1 C 0.67363(17) 0.4593(3) 0.71694(7)
C2 C 0.7521(2) 0.2584(3) 0.72675(9)
C3 C 0.8606(2) 0.2228(3) 0.78269(9)
C4 C 0.8869(2) 0.3898(3) 0.82707(8)
C5 C 0.8118(2) 0.5898(3) 0.81870(8)
C6 C 0.7040(2) 0.6264(3) 0.76268(8)
C7 C 0.51738(19) 0.6724(3) 0.62772(7)
C8 C 0.39386(18) 0.6416(2) 0.56835(7)
C9 C 0.3508(2) 0.8216(3) 0.52891(9)
C10 C 0.2441(2) 0.7890(3) 0.47226(9)
C11 C 0.1822(2) 0.5822(3) 0.45932(9)
C12 C 0.2288(2) 0.4136(3) 0.50216(9)
N1 N 0.55850(16) 0.4846(2) 0.66044(6)
N2 N 0.33487(16) 0.4398(2) 0.55627(7)
O1 O 0.57409(17) 0.8535(2) 0.64218(7)
F1 F 0.99194(16) 0.3545(2) 0.88252(6)
H1 H 0.730(2) 0.143(3) 0.6962(11)
H2 H 0.916(3) 0.081(4) 0.7905(11)
H3 H 0.830(3) 0.708(4) 0.8529(11)
H4 H 0.651(3) 0.764(4) 0.7549(10)
H5 H 0.395(2) 0.970(4) 0.5395(10)
H6 H 0.219(3) 0.913(4) 0.4412(11)
H7 H 0.108(3) 0.548(3) 0.4197(10)
H8 H 0.185(2) 0.264(4) 0.4947(9)
H9 H 0.519(3) 0.367(3) 0.6422(10)
C1 C 0.32637(17) -0.0407(3) 0.78306(7)
C2 C 0.2479(2) -0.2416(3) 0.77325(9)
C3 C 0.1394(2) -0.2772(3) 0.71731(9)
C4 C 0.1131(2) -0.1102(3) 0.67293(8)
C5 C 0.1882(2) 0.0898(3) 0.68130(8)
C6 C 0.2960(2) 0.1264(3) 0.73732(8)
C7 C 0.48262(19) 0.1724(3) 0.87228(7)
C8 C 0.60614(18) 0.1416(2) 0.93165(7)
C9 C 0.6492(2) 0.3216(3) 0.97109(9)
C10 C 0.7559(2) 0.2890(3) 1.02774(9)
C11 C 0.8178(2) 0.0822(3) 1.04068(9)
C12 C 0.7712(2) -0.0864(3) 0.99784(9)
N1 N 0.44150(16) -0.0154(2) 0.83956(6)
N2 N 0.66513(16) -0.0602(2) 0.94373(7)
O1 O 0.42591(17) 0.3535(2) 0.85782(7)
F1 F 0.00806(16) -0.1455(2) 0.61748(6)
H1 H 0.270(2) -0.357(3) 0.8038(11)
H2 H 0.084(3) -0.419(4) 0.7095(11)
H3 H 0.170(3) 0.208(4) 0.6471(11)
H4 H 0.349(3) 0.264(4) 0.7451(10)
H5 H 0.605(2) 0.470(4) 0.9605(10)
H6 H 0.781(3) 0.413(4) 1.0588(11)
H7 H 0.892(3) 0.048(3) 1.0803(10)
H8 H 0.815(2) -0.236(4) 1.0053(9)
H9 H 0.481(3) -0.133(3) 0.8578(10)

#END
