./KAHRUI_from_POSCAR.cif_generated_by_CrystalShift
_symmetry_cell_setting triclinic
_symmetry_space_group_name_H-M 'P 1'
loop_
_symmetry_equiv_pos_site_id
_symmetry_equiv_pos_as_xyz
1 x,y,z
_cell_length_a 8.250000
_cell_length_b 6.064900
_cell_length_c 20.548400
_cell_angle_alpha 90.000000
_cell_angle_beta 96.479000
_cell_angle_gamma 90.000000
_cell_volume 1021.581434
loop_
_atom_site_label
_atom_site_type_symbol
_atom_site_fract_x
_atom_site_fract_y
_atom_site_fract_z
H1 H 0.481000 -0.133000 0.857800
H2 H 0.185000 0.264000 0.494700
H3 H 0.108000 0.548000 0.419700
H4 H 0.219000 0.913000 0.441200
H5 H 0.395000 0.970000 0.539500
H6 H 0.651000 0.764000 0.754900
H7 H 0.830000 0.708000 0.852900
H8 H 0.916000 0.081000 0.790500
H9 H 0.730000 0.143000 0.696200
H10 H 0.519000 1.133000 0.142200
H11 H 0.185000 1.236000 -0.005300
H12 H 0.108000 0.952000 -0.080300
H13 H 0.815000 -0.236000 1.005300
H14 H 0.892000 0.048000 1.080300
H15 H 0.781000 0.413000 1.058800
H16 H 0.605000 0.470000 0.960500
H17 H 0.270000 0.857000 0.303800
H18 H 0.084000 0.919000 0.209500
H19 H 0.170000 0.292000 0.147100
H20 H 0.349000 0.236000 0.245100
H21 H 0.605000 0.030000 0.460500
H22 H 0.781000 0.087000 0.558800
H23 H 0.892000 0.452000 0.580300
H24 H 0.815000 0.736000 0.505300
H25 H 0.481000 0.633000 0.357800
H26 H 0.219000 0.587000 -0.058800
H27 H 0.395000 0.530000 0.039500
H28 H 0.651000 0.736000 0.254900
H29 H 0.830000 0.792000 0.352900
H30 H 0.916000 1.419000 0.290500
H31 H 0.730000 1.357000 0.196200
H32 H 0.270000 -0.357000 0.803800
H33 H 0.084000 -0.419000 0.709500
H34 H 0.170000 0.208000 0.647100
H35 H 0.349000 0.264000 0.745100
H36 H 0.519000 0.367000 0.642200
C37 C 0.228800 1.086400 0.002160
C38 C 0.244100 0.711000 -0.027740
C39 C 0.350800 0.678400 0.028910
C40 C 0.393860 0.858400 0.068350
C41 C 0.517380 0.827600 0.127720
C42 C 0.704000 0.873600 0.262680
C43 C 0.811800 0.910200 0.318700
C44 C 0.886900 1.110200 0.327070
C45 C 0.860600 1.277200 0.282690
C46 C 0.752100 1.241600 0.226750
C47 C 0.673630 1.040700 0.216940
C48 C 0.771200 0.586400 0.497840
C49 C 0.817800 0.417800 0.540680
C50 C 0.755900 0.211000 0.527740
C51 C 0.673630 0.459300 0.716940
C52 C 0.752100 0.258400 0.726750
C53 C 0.860600 0.222800 0.782690
C54 C 0.886900 0.389800 0.827070
C55 C 0.811800 0.589800 0.818700
C56 C 0.704000 0.626400 0.762680
C57 C 0.517380 0.672400 0.627720
C58 C 0.393860 0.641600 0.568350
C59 C 0.350800 0.821600 0.528910
C60 C 0.244100 0.789000 0.472260
C61 C 0.182200 0.582200 0.459320
C62 C 0.228800 0.413600 0.502160
C63 C 0.771200 -0.086400 0.997840
C64 C 0.817800 0.082200 1.040680
C65 C 0.755900 0.289000 1.027740
C66 C 0.649200 0.321600 0.971090
C67 C 0.649200 0.178400 0.471090
C68 C 0.606140 0.358400 0.431650
C69 C 0.482620 0.327600 0.372280
C70 C 0.296000 0.373600 0.237320
C71 C 0.188200 0.410200 0.181300
C72 C 0.113100 0.610200 0.172930
C73 C 0.139400 0.777200 0.217310
C74 C 0.247900 0.741600 0.273250
C75 C 0.182200 0.917800 -0.040680
C76 C 0.326370 -0.040700 0.783060
C77 C 0.247900 -0.241600 0.773250
C78 C 0.139400 -0.277200 0.717310
C79 C 0.113100 -0.110200 0.672930
C80 C 0.188200 0.089800 0.681300
C81 C 0.296000 0.126400 0.737320
C82 C 0.482620 0.172400 0.872280
C83 C 0.606140 0.141600 0.931650
C84 C 0.326370 0.540700 0.283060
N85 N 0.665130 0.560200 0.443730
N86 N 0.334870 0.439800 0.556270
N87 N 0.558500 0.484600 0.660440
N88 N 0.441500 -0.015400 0.839560
N89 N 0.665130 -0.060200 0.943730
N90 N 0.558500 1.015400 0.160440
N91 N 0.334870 1.060200 0.056270
N92 N 0.441500 0.515400 0.339560
O93 O 0.574090 0.853500 0.642180
O94 O 0.425910 0.353500 0.857820
O95 O 0.425910 0.146500 0.357820
O96 O 0.574090 0.646500 0.142180
F97 F 0.008060 0.645500 0.117480
F98 F 0.991940 1.145500 0.382520
F99 F 0.008060 -0.145500 0.617480
F100 F 0.991940 0.354500 0.882520

#END
