./KAHSAQ_from_POSCAR.cif_generated_by_CrystalShift
_symmetry_cell_setting triclinic
_symmetry_space_group_name_H-M 'P 1'
loop_
_symmetry_equiv_pos_site_id
_symmetry_equiv_pos_as_xyz
1 x,y,z
_cell_length_a 10.046000
_cell_length_b 6.594000
_cell_length_c 13.521000
_cell_angle_alpha 90.000000
_cell_angle_beta 91.895000
_cell_angle_gamma 90.000000
_cell_volume 895.186144
loop_
_atom_site_label
_atom_site_type_symbol
_atom_site_fract_x
_atom_site_fract_y
_atom_site_fract_z
H1 H 0.600100 1.250600 0.365300
H2 H 0.546900 0.287600 0.569200
H3 H 0.762600 0.638400 0.368000
H4 H 0.872700 0.714200 0.297200
H5 H 0.177500 0.374200 0.462000
H6 H 0.235600 0.590900 0.482600
H7 H 0.909200 0.669200 0.408700
H8 H 0.976800 1.047000 0.321300
H9 H 0.917500 1.208200 0.392800
H10 H 0.234400 0.394000 0.807800
H11 H 0.186100 0.618800 0.795700
H12 H 1.000000 1.024800 0.436000
H13 H 0.360900 0.742200 0.876800
H14 H 0.365900 0.525400 0.924000
H15 H 0.210800 1.373200 0.128300
H16 H 0.533200 0.688800 0.784800
H17 H 0.106700 1.249900 0.187900
H18 H 0.252700 1.276200 0.230600
H19 H 0.053300 1.034500 -0.091400
H20 H 0.687400 0.250500 0.689600
H21 H 0.693200 0.487800 0.685000
H22 H 0.130500 1.242200 -0.064000
H23 H 0.761800 0.253800 0.855400
H24 H 0.864300 0.371600 0.792000
H25 H 0.124500 0.895700 0.032800
H26 H 0.399200 1.196600 0.051900
H27 H 0.595100 0.459900 0.953900
H28 H 0.600800 0.696600 0.948100
H29 H 0.404900 0.959900 0.046100
H30 H 0.875500 0.395700 0.967200
H31 H 0.135700 0.871600 0.208000
H32 H 0.869500 0.742200 1.064000
H33 H 0.946700 0.534500 1.091400
H34 H 0.238200 0.753800 0.144600
H35 H 0.747300 0.776200 0.769400
H36 H 0.893300 0.749900 0.812100
H37 H 0.789200 0.873200 0.871700
H38 H 0.306800 0.987800 0.315000
H39 H 0.000000 0.524800 0.564000
H40 H 0.082500 0.708200 0.607200
H41 H 0.023200 0.547000 0.678700
H42 H 0.312600 0.750500 0.310400
H43 H 0.090800 0.169200 0.591300
H44 H 0.127300 0.214200 0.702800
H45 H 0.237400 0.138400 0.632000
H46 H 0.466800 1.188800 0.215200
H47 H 0.400000 0.195900 0.831200
H48 H 0.549000 0.161000 0.865200
H49 H 0.495600 0.075200 0.763300
H50 H 0.504400 0.575200 0.236700
H51 H 0.451000 0.661000 0.134800
H52 H 0.399900 0.750600 0.634700
H53 H 0.634100 1.025400 0.076000
H54 H 0.453100 0.787600 0.430800
H55 H 0.639100 1.242200 0.123200
H56 H 0.813900 1.118800 0.204300
H57 H 0.822500 0.874200 0.538000
H58 H 0.764400 1.090900 0.517400
H59 H 0.765600 0.894000 0.192200
H60 H 0.600000 0.695900 0.168800
C61 C 0.737900 1.029500 0.210400
C62 C 0.808800 0.940600 0.389900
C63 C 0.761200 0.950800 0.495600
C64 C 0.626300 1.099500 0.137500
C65 C 0.622800 0.870800 0.508700
C66 C 0.535400 0.848800 0.422700
C67 C 0.485900 1.069900 0.174500
C68 C 0.489700 0.185400 0.809300
C69 C 0.471000 0.884600 0.241600
C70 C 0.565800 0.911400 0.331600
C71 C 0.325200 0.873400 0.272500
C72 C 0.158600 0.219900 0.636500
C73 C 0.061900 0.567200 0.615500
C74 C 0.225500 0.875000 0.183800
C75 C 0.801300 0.759100 0.828800
C76 C 0.890800 0.608700 1.048800
C77 C 0.240500 1.061600 0.117700
C78 C 0.386400 1.073100 0.089400
C79 C 0.843600 0.527900 0.969800
C80 C 0.613600 0.573100 0.910600
C81 C 0.156400 1.027900 0.030200
C82 C 0.759500 0.561600 0.882300
C83 C 0.109200 1.108700 -0.048800
C84 C 0.774500 0.375000 0.816200
C85 C 0.674800 0.373400 0.727500
C86 C 0.198700 1.259100 0.171200
C87 C 0.434200 0.411400 0.668400
C88 C 0.529000 0.384600 0.758400
C89 C 0.514100 0.569900 0.825500
C90 C 0.938100 1.067200 0.384500
C91 C 0.373700 0.599500 0.862500
C92 C 0.262100 0.529500 0.789600
C93 C 0.303100 0.527500 0.681600
C94 C 0.841400 0.719900 0.363500
C95 C 0.191200 0.440600 0.610100
C96 C 0.238800 0.450800 0.504400
C97 C 0.377200 0.370800 0.491300
C98 C 0.510300 0.685400 0.190700
C99 C 0.696900 1.027500 0.318400
C100 C 0.464600 0.348800 0.577300
O101 O 0.586400 0.828600 0.592200
O102 O 0.676000 1.236800 0.345800
O103 O 0.413600 0.328600 0.407800
O104 O 0.324000 0.736800 0.654200

#END
