./KAHSOD_from_POSCAR.cif_generated_by_CrystalShift
_symmetry_cell_setting triclinic
_symmetry_space_group_name_H-M 'P 1'
loop_
_symmetry_equiv_pos_site_id
_symmetry_equiv_pos_as_xyz
1 x,y,z
_cell_length_a 17.467000
_cell_length_b 9.205000
_cell_length_c 18.183000
_cell_angle_alpha 90.000000
_cell_angle_beta 90.000000
_cell_angle_gamma 90.000000
_cell_volume 2923.530654
loop_
_atom_site_label
_atom_site_type_symbol
_atom_site_fract_x
_atom_site_fract_y
_atom_site_fract_z
H1 H 0.544700 0.349400 0.291400
H2 H 0.483400 -0.035300 0.372300
H3 H 0.191100 0.846500 0.403100
H4 H 0.358500 0.004300 0.335700
H5 H 0.276200 0.843500 0.500300
H6 H 0.160200 0.119700 0.281900
H7 H 0.393800 0.733400 0.487400
H8 H 0.074400 0.123400 0.378500
H9 H 0.425600 0.623400 0.378500
H10 H 0.106200 0.233400 0.487400
H11 H 0.339800 0.619700 0.281900
H12 H 0.223800 0.343500 0.500300
H13 H 0.308900 0.346500 0.403100
H14 H 0.141500 0.504300 0.335700
H15 H 0.419200 0.394600 0.257600
H16 H 0.016600 0.464700 0.372300
H17 H 0.139800 0.953200 0.660200
H18 H -0.076000 0.636100 0.350100
H19 H 0.064100 0.976800 0.556100
H20 H -0.044700 0.849400 0.291400
H21 H 0.047300 0.782200 0.478100
H22 H 0.080800 0.894600 0.257600
H23 H 0.108100 0.566300 0.501800
H24 H 0.187700 0.544300 0.601500
H25 H 0.080800 0.605400 0.757600
H26 H 0.187700 0.955700 0.101500
H27 H -0.044700 0.650600 0.791400
H28 H 0.108100 0.933700 0.001800
H29 H -0.076000 0.863900 0.850100
H30 H 0.047300 0.717800 -0.021900
H31 H 0.016600 1.035300 0.872300
H32 H 0.064100 0.523200 0.056100
H33 H 0.141500 0.995700 0.835700
H34 H 0.139800 0.546800 0.160200
H35 H 0.360200 0.046800 0.160200
H36 H 0.339800 0.880300 0.781900
H37 H 0.425600 0.876600 0.878500
H38 H 0.393800 0.766600 0.987400
H39 H 0.308900 0.153500 0.903100
H40 H 0.276200 0.656500 1.000300
H41 H 0.223800 0.156500 1.000300
H42 H 0.191100 0.653500 0.903100
H43 H 0.106200 0.266600 0.987400
H44 H 0.639800 0.546800 0.339800
H45 H 0.074400 0.376600 0.878500
H46 H 0.564100 0.523200 0.443900
H47 H 0.160200 0.380300 0.781900
H48 H 0.547300 0.717800 0.521900
H49 H 0.608100 0.933700 0.498200
H50 H 0.358500 0.495700 0.835700
H51 H 0.687700 0.955700 0.398500
H52 H 0.483400 0.535300 0.872300
H53 H 0.580800 0.894600 0.242400
H54 H 0.576000 0.363900 0.850100
H55 H 0.455300 0.849400 0.208600
H56 H 0.544700 0.150600 0.791400
H57 H 0.424000 0.636100 0.149900
H58 H 0.419200 0.105400 0.757600
H59 H 0.516600 0.464700 0.127700
H60 H 0.641500 0.504300 0.164300
H61 H 0.839800 0.619700 0.218100
H62 H 0.312300 0.044300 0.601500
H63 H 0.925600 0.623400 0.121500
H64 H 0.391900 0.066300 0.501800
H65 H 0.893800 0.733400 0.012600
H66 H 0.452700 0.282200 0.478100
H67 H 0.776200 0.843500 -0.000300
H68 H 0.435900 0.476800 0.556100
H69 H 0.691100 0.846500 0.096900
H70 H 0.360200 0.453200 0.660200
H71 H 0.435900 0.023200 0.056100
H72 H 0.312300 0.455700 0.101500
H73 H 0.860200 0.453200 0.839800
H74 H 0.935900 0.476800 0.943900
H75 H 0.808900 0.346500 0.096900
H76 H 0.952700 0.282200 1.021900
H77 H 0.723800 0.343500 -0.000300
H78 H 0.891900 0.066300 0.998200
H79 H 0.606200 0.233400 0.012600
H80 H 0.812300 0.044300 0.898500
H81 H 0.574400 0.123400 0.121500
H82 H 0.919200 0.105400 0.742400
H83 H 0.660200 0.119700 0.218100
H84 H 1.044700 0.150600 0.708600
H85 H 1.076000 0.363900 0.649900
H86 H 0.858500 0.004300 0.164300
H87 H 0.983400 0.535300 0.627700
H88 H 0.983400 -0.035300 0.127700
H89 H 0.858500 0.495700 0.664300
H90 H 1.076000 0.136100 0.149900
H91 H 0.660200 0.380300 0.718100
H92 H 1.044700 0.349400 0.208600
H93 H 0.574400 0.376600 0.621500
H94 H 0.919200 0.394600 0.242400
H95 H 0.606200 0.266600 0.512600
H96 H 0.723800 0.156500 0.499700
H97 H 0.808900 0.153500 0.596900
H98 H 0.812300 0.455700 0.398500
H99 H 0.391900 0.433700 0.001800
H100 H 0.891900 0.433700 0.498200
H101 H 0.639800 0.953200 0.839800
H102 H 0.952700 0.217800 0.521900
H103 H 0.564100 0.976800 0.943900
H104 H 0.935900 0.023200 0.443900
H105 H 0.547300 0.782200 1.021900
H106 H 0.860200 0.046800 0.339800
H107 H 0.452700 0.217800 -0.021900
H108 H 0.608100 0.566300 0.998200
H109 H 0.687700 0.544300 0.898500
H110 H 0.580800 0.605400 0.742400
H111 H 0.691100 0.653500 0.596900
H112 H 0.455300 0.650600 0.708600
H113 H 0.776200 0.656500 0.499700
H114 H 0.424000 0.863900 0.649900
H115 H 0.893800 0.766600 0.512600
H116 H 0.516600 1.035300 0.627700
H117 H 0.925600 0.876600 0.621500
H118 H 0.641500 0.995700 0.664300
H119 H 0.839800 0.880300 0.718100
H120 H 0.576000 0.136100 0.350100
C121 C 0.604240 0.925470 0.672840
C122 C 0.826890 0.834500 0.674200
C123 C 0.529510 0.949140 0.651320
C124 C 0.877990 0.832590 0.616310
C125 C 0.474230 0.846900 0.664430
C126 C 0.859270 0.766790 0.551520
C127 C 0.493030 0.719380 0.699070
C128 C 0.789250 0.700820 0.543960
C129 C 0.567900 0.692760 0.719900
C130 C 0.738120 0.700050 0.601780
C131 C 0.725150 0.726080 0.795010
C132 C 0.670500 0.745150 0.857700
C133 C 0.661740 0.631010 0.906560
C134 C 0.756740 0.768190 0.666620
C135 C 0.615020 0.644800 0.966740
C136 C 0.421430 0.226820 0.019230
C137 C 0.578570 0.773180 0.980770
C138 C 0.866110 0.124790 0.371780
C139 C 0.588230 0.888950 0.933910
C140 C 0.911770 0.111050 0.433910
C141 C 0.633890 0.875210 0.871780
C142 C 0.921430 0.226820 0.480770
C143 C 0.884980 0.355200 0.466740
C144 C 0.384980 0.355200 0.033260
C145 C 0.743260 0.268190 0.666620
C146 C 0.761880 0.200050 0.601780
C147 C 0.838260 0.368990 0.406560
C148 C 0.710750 0.200820 0.543960
C149 C 0.829500 0.254850 0.357700
C150 C 0.640730 0.266790 0.551520
C151 C 0.774850 0.273920 0.295010
C152 C 0.622010 0.332590 0.616310
C153 C 0.932100 0.307240 0.219900
C154 C 0.673110 0.334500 0.674200
C155 C 1.006970 0.280620 0.199070
C156 C 0.876650 0.296440 0.707170
C157 C 0.895760 0.425470 0.672840
C158 C 1.025770 0.153100 0.164430
C159 C 0.970490 0.449140 0.651320
C160 C 0.970490 0.050860 0.151320
C161 C 1.025770 0.346900 0.664430
C162 C 0.895760 0.074530 0.172840
C163 C 1.006970 0.219380 0.699070
C164 C 0.876650 0.203560 0.207170
C165 C 0.932100 0.192760 0.719900
C166 C 0.673110 0.165500 0.174200
C167 C 0.774850 0.226080 0.795010
C168 C 0.829500 0.245150 0.857700
C169 C 0.838260 0.131010 0.906560
C170 C 0.622010 0.167410 0.116310
C171 C 0.884980 0.144800 0.966740
C172 C 0.640730 0.233210 0.051520
C173 C 0.921430 0.273180 0.980770
C174 C 0.710750 0.299180 0.043960
C175 C 0.911770 0.388950 0.933910
C176 C 0.761880 0.299950 0.101780
C177 C 0.866110 0.375210 0.871780
C178 C 0.743260 0.231810 0.166620
C179 C 0.411770 0.111050 0.066090
C180 C 0.338260 0.368990 0.093440
C181 C 0.756740 0.731810 0.166620
C182 C 0.738120 0.799950 0.101780
C183 C 0.366110 0.375210 0.628220
C184 C 0.789250 0.799180 0.043960
C185 C 0.411770 0.388950 0.566090
C186 C 0.859270 0.733210 0.051520
C187 C 0.421430 0.273180 0.519230
C188 C 0.877990 0.667410 0.116310
C189 C 0.384980 0.144800 0.533260
C190 C 0.826890 0.665500 0.174200
C191 C 0.338260 0.131010 0.593440
C192 C 0.623350 0.703560 0.207170
C193 C 0.604240 0.574530 0.172840
C194 C 0.329500 0.245150 0.642300
C195 C 0.529510 0.550860 0.151320
C196 C 0.274850 0.226080 0.704990
C197 C 0.474230 0.653100 0.164430
C198 C 0.432100 0.192760 0.780100
C199 C 0.493030 0.780620 0.199070
C200 C 0.506970 0.219380 0.800930
C201 C 0.567900 0.807240 0.219900
C202 C 0.525770 0.346900 0.835570
C203 C 0.725150 0.773920 0.295010
C204 C 0.670500 0.754850 0.357700
C205 C 0.661740 0.868990 0.406560
C206 C 0.470490 0.449140 0.848680
C207 C 0.615020 0.855200 0.466740
C208 C 0.395760 0.425470 0.827160
C209 C 0.578570 0.726820 0.480770
C210 C 0.376650 0.296440 0.792830
C211 C 0.588230 0.611050 0.433910
C212 C 0.173110 0.334500 0.825800
C213 C 0.633890 0.624790 0.371780
C214 C 0.122010 0.332590 0.883690
C215 C 0.329500 0.254850 0.142300
C216 C 0.274850 0.273920 0.204990
C217 C 0.256740 0.768190 0.833380
C218 C 0.238120 0.700050 0.898220
C219 C 0.140730 0.266790 0.948480
C220 C 0.289250 0.700820 0.956040
C221 C 0.210750 0.200820 0.956040
C222 C 0.359270 0.766790 0.948480
C223 C 0.261880 0.200050 0.898220
C224 C 0.377990 0.832590 0.883690
C225 C 0.243260 0.268190 0.833380
C226 C 0.326890 0.834500 0.825800
C227 C 0.366110 0.124790 0.128220
C228 C 0.123350 0.796440 0.792830
C229 C 0.104240 0.925470 0.827160
C230 C 0.133890 0.624790 0.128220
C231 C 0.029510 0.949140 0.848680
C232 C 0.088230 0.611050 0.066090
C233 C -0.025770 0.846900 0.835570
C234 C 0.078570 0.726820 0.019230
C235 C -0.006970 0.719380 0.800930
C236 C 0.115020 0.855200 0.033260
C237 C 0.067900 0.692760 0.780100
C238 C 0.161740 0.868990 0.093440
C239 C 0.225150 0.726080 0.704990
C240 C 0.170500 0.745150 0.642300
C241 C 0.161740 0.631010 0.593440
C242 C 0.170500 0.754850 0.142300
C243 C 0.115020 0.644800 0.533260
C244 C 0.225150 0.773920 0.204990
C245 C 0.078570 0.773180 0.519230
C246 C 0.067900 0.807240 0.280100
C247 C 0.088230 0.888950 0.566090
C248 C -0.006970 0.780620 0.300930
C249 C 0.133890 0.875210 0.628220
C250 C -0.025770 0.653100 0.335570
C251 C 0.029510 0.550860 0.348680
C252 C 0.432100 0.307240 0.280100
C253 C 0.243260 0.231810 0.333380
C254 C 0.261880 0.299950 0.398220
C255 C 0.104240 0.574530 0.327160
C256 C 0.210750 0.299180 0.456040
C257 C 0.123350 0.703560 0.292830
C258 C 0.140730 0.233210 0.448480
C259 C 0.326890 0.665500 0.325800
C260 C 0.122010 0.167410 0.383690
C261 C 0.377990 0.667410 0.383690
C262 C 0.173110 0.165500 0.325800
C263 C 0.359270 0.733210 0.448480
C264 C 0.376650 0.203560 0.292830
C265 C 0.395760 0.074530 0.327160
C266 C 0.289250 0.799180 0.456040
C267 C 0.470490 0.050860 0.348680
C268 C 0.238120 0.799950 0.398220
C269 C 0.525770 0.153100 0.335570
C270 C 0.623350 0.796440 0.707170
C271 C 0.506970 0.280620 0.300930
C272 C 0.256740 0.731810 0.333380
N273 N 0.702320 0.769890 0.726210
N274 N 0.202320 0.769890 0.773790
N275 N 0.202320 0.730110 0.273790
N276 N 0.702320 0.730110 0.226210
N277 N 0.297680 0.269890 0.773790
N278 N 0.797680 0.269890 0.726210
N279 N 0.797680 0.230110 0.226210
N280 N 0.297680 0.230110 0.273790
O281 O 0.788800 0.676090 0.805820
O282 O 0.211200 0.176090 0.694180
O283 O 0.711200 0.176090 0.805820
O284 O 0.288800 0.823910 0.194180
O285 O 0.788800 0.823910 0.305820
O286 O 0.288800 0.676090 0.694180
O287 O 0.711200 0.323910 0.305820
O288 O 0.211200 0.323910 0.194180

#END
