./KAHTAO01_from_POSCAR.cif_generated_by_CrystalShift
_symmetry_cell_setting triclinic
_symmetry_space_group_name_H-M 'P 1'
loop_
_symmetry_equiv_pos_site_id
_symmetry_equiv_pos_as_xyz
1 x,y,z
_cell_length_a 26.345000
_cell_length_b 8.313000
_cell_length_c 9.297000
_cell_angle_alpha 90.000000
_cell_angle_beta 86.330000
_cell_angle_gamma 90.000000
_cell_volume 2031.923155
loop_
_atom_site_label
_atom_site_type_symbol
_atom_site_fract_x
_atom_site_fract_y
_atom_site_fract_z
C1 C 0.540400 0.995200 -0.326900
C2 C 0.563900 0.902900 -0.082600
C3 C 0.559500 0.774000 0.028300
C4 C 0.652600 0.582000 0.243100
C5 C 0.079900 0.087600 0.677600
C6 C 0.089800 0.191600 0.812000
C7 C 0.115900 0.351900 0.778100
C8 C 0.161100 0.340100 0.670200
C9 C 0.144900 0.258300 0.540100
C10 C 0.160500 0.289000 0.392900
C11 C 0.094500 0.119600 0.396700
C12 C 0.106600 0.149200 0.545100
C13 C 0.195800 0.385900 0.334000
C14 C 0.208600 0.413500 0.180700
C15 C 0.206300 0.587000 0.133500
C16 C 0.215000 0.619000 -0.011000
C17 C 0.164300 0.013500 0.849600
C18 C 0.119100 0.093200 0.923300
C19 C 0.080200 -0.042100 0.979200
C20 C 0.067100 -0.142200 0.852600
C21 C 0.096900 -0.090400 0.713400
C22 C 0.097100 -0.208600 0.593700
C23 C 0.181500 -0.190200 0.646700
C24 C 0.152600 -0.082000 0.743100
C25 C 0.059500 -0.274000 0.528300
C26 C 0.063900 -0.402900 0.417400
C27 C 0.037100 -0.370700 0.287100
C28 C 0.040400 -0.495200 0.173100
C29 C 0.681500 0.690200 0.146700
C30 C 0.597100 0.708600 0.093700
C31 C 0.596900 0.590400 0.213400
C32 C 0.567100 0.642200 0.352600
C33 C 0.420100 0.587600 0.822400
C34 C 0.410200 0.691600 0.688000
C35 C 0.384100 0.851900 0.721900
C36 C 0.338900 0.840100 0.829800
C37 C 0.355100 0.758300 0.959900
C38 C 0.339500 0.789000 1.107100
C39 C 0.405500 0.619600 1.103300
C40 C 0.393400 0.649200 0.954900
C41 C 0.304200 0.885900 1.166000
C42 C 0.291400 0.913500 1.319300
C43 C 0.293700 1.087000 1.366500
C44 C 0.285000 1.119000 1.511000
C45 C 0.335700 0.513500 0.650400
C46 C 0.380900 0.593200 0.576700
C47 C 0.419800 0.457900 0.520800
C48 C 0.432900 0.357800 0.647400
C49 C 0.403100 0.409600 0.786600
C50 C 0.402900 0.291400 0.906300
C51 C 0.318500 0.309800 0.853300
C52 C 0.347400 0.418000 0.756900
C53 C 0.440500 0.226000 0.971700
C54 C 0.436100 0.097100 1.082600
C55 C 0.462900 0.129300 1.212900
C56 C 0.459600 0.004800 1.326900
C57 C 0.580200 0.542100 0.479200
C58 C 0.619100 0.406800 0.423300
C59 C 0.664300 0.486500 0.349600
C60 C 0.715000 -0.119000 -0.511000
C61 C 0.920100 0.912400 0.322400
C62 C 0.910200 0.808400 0.188000
C63 C 0.884100 0.648100 0.221900
C64 C 0.838900 0.659900 0.329800
C65 C 0.855100 0.741700 0.459900
C66 C 0.839500 0.711000 0.607100
C67 C 0.905500 0.880400 0.603300
C68 C 0.893400 0.850800 0.454900
C69 C 0.804200 0.614100 0.666000
C70 C 0.791400 0.586500 0.819300
C71 C 0.793700 0.413000 0.866500
C72 C 0.785000 0.381000 1.011000
C73 C 0.835700 0.986500 0.150400
C74 C 0.880900 0.906800 0.076700
C75 C 0.919800 1.042100 0.020800
C76 C 0.932900 1.142200 0.147400
C77 C 0.903100 1.090400 0.286600
C78 C 0.902900 1.208600 0.406300
C79 C 0.818500 1.190200 0.353300
C80 C 0.847400 1.082000 0.256900
C81 C 0.940500 1.274000 0.471700
C82 C 0.936100 1.402900 0.582600
C83 C 0.962900 1.370700 0.712900
C84 C 0.959600 1.495200 0.826900
C85 C 0.706300 -0.087000 -0.366500
C86 C 0.708600 0.086500 -0.319300
C87 C 0.695800 0.114100 -0.166000
C88 C 0.606600 0.350800 0.045100
C89 C 0.579900 0.412400 0.177600
C90 C 0.589800 0.308400 0.312000
C91 C 0.615900 0.148100 0.278100
C92 C 0.661100 0.159900 0.170200
C93 C 0.644900 0.241700 0.040100
C94 C 0.660500 0.211000 -0.107100
C95 C 0.594500 0.380400 -0.103300
C96 C 0.537100 0.870700 -0.212900
O97 O 0.647800 0.760300 0.057300
O98 O 0.559100 0.453000 -0.153200
O99 O 0.629500 0.301400 -0.194100
O100 O 0.774500 1.228000 0.363300
O101 O 0.852200 1.260300 0.442700
O102 O 0.940900 0.953000 0.653200
O103 O 0.870500 0.801400 0.694100
O104 O 0.274500 0.272000 0.863300
O105 O 0.352200 0.239700 0.942700
O106 O 0.440900 0.547000 1.153200
O107 O 0.370500 0.698600 1.194100
O108 O 0.225500 -0.228000 0.636700
O109 O 0.147800 -0.260300 0.557300
O110 O 0.059100 0.047000 0.346800
O111 O 0.725500 0.728000 0.136700
O112 O 0.129500 0.198600 0.305900

#END
