
#######################################################################
#
#                 Cambridge Crystallographic Data Centre
#                                CCDC 
#
#######################################################################
#
# If this CIF has been generated from an entry in the Cambridge 
# Structural Database, then it will include bibliographic, chemical, 
# crystal, experimental, refinement or atomic coordinate data resulting 
# from the CCDC's data processing and validation procedures.
#
#######################################################################

data_KAHTAO
_symmetry_cell_setting           monoclinic
_symmetry_space_group_name_H-M   'P 21/n'
_symmetry_Int_Tables_number      14
_space_group_name_Hall           '-P 2yn'
loop_
_symmetry_equiv_pos_site_id
_symmetry_equiv_pos_as_xyz
1 x,y,z
2 1/2-x,1/2+y,1/2-z
3 -x,-y,-z
4 1/2+x,1/2-y,1/2+z
_cell_length_a                   9.308(4)
_cell_length_b                   8.356(2)
_cell_length_c                   26.378(13)
_cell_angle_alpha                90
_cell_angle_beta                 93.67(4)
_cell_angle_gamma                90
_cell_volume                     2047.41
loop_
_atom_site_label
_atom_site_type_symbol
_atom_site_fract_x
_atom_site_fract_y
_atom_site_fract_z
O1 O 0.6528(4) 0.9525(5) 0.0593(2)
C1 C 0.6048(5) 0.8806(6) 0.0941(2)
O2 O 0.6941(3) 0.8002(4) 0.1289(1)
C2 C 0.6091(5) 0.7107(6) 0.1599(2)
C3 C 0.4601(5) 0.7419(5) 0.1449(2)
C4 C 0.3291(5) 0.6596(6) 0.1615(2)
C5 C 0.2231(5) 0.6466(6) 0.1157(2)
C6 C 0.1872(5) 0.8091(5) 0.0900(2)
C7 C 0.3218(4) 0.9152(5) 0.0797(2)
C8 C 0.4551(4) 0.8506(5) 0.1070(2)
C9 C 0.6656(6) 0.6123(7) 0.1955(2)
C10 C 0.8236(7) 0.5885(9) 0.2073(3)
C11 C 0.8662(8) 0.4152(11) 0.2072(4)
C12 C 1.0082(11) 0.3798(12) 0.2130(4)
O3 O 0.3643(4) 1.2277(4) 0.2252(1)
C13 C 0.3539(5) 1.1904(5) 0.1811(2)
O4 O 0.4424(4) 1.2591(4) 0.1477(1)
C14 C 0.4053(5) 1.2090(5) 0.0971(2)
C15 C 0.2860(4) 1.0890(5) 0.0967(2)
C16 C 0.1474(5) 1.1422(7) 0.0663(2)
C17 C 0.0205(5) 1.0415(7) 0.0827(2)
C18 C 0.0770(5) 0.9070(6) 0.1185(2)
C19 C 0.1507(5) 0.9864(5) 0.1644(2)
C20 C 0.2563(5) 1.0821(5) 0.1523(2)
C21 C 0.4728(5) 1.2732(6) 0.0603(2)
C22 C 0.5852(6) 1.4007(7) 0.0642(2)
C23 C 0.7104(6) 1.3710(8) 0.0364(2)
C24 C 0.8269(6) 1.4975(8) 0.0410(3)
H1 H 0.3538 0.5547 0.1742
H2 H 0.2875 0.7206 0.1877
H3 H 0.2635 0.5775 0.0912
H4 H 0.1355 0.6006 0.1264
H5 H 0.1443 0.7796 0.0573
H6 H 0.3409 0.9147 0.0444
H7 H 0.6005 0.5525 0.2150
H8 H 0.8752 0.6439 0.1823
H9 H 0.8491 0.6324 0.2403
H10 H 0.8303 0.3707 0.1753
H11 H 0.8200 0.3639 0.2344
H12 H 1.0203 0.2659 0.2153
H13 H 1.0491 0.4291 0.2435
H14 H 1.0560 0.4193 0.1843
H15 H 0.1583 1.1270 0.0306
H16 H 0.1296 1.2533 0.0728
H17 H -0.0442 1.1084 0.1001
H18 H -0.0295 0.9955 0.0533
H19 H 0.0016 0.8378 0.1286
H20 H 0.1241 0.9694 0.1986
H21 H 0.4470 1.2338 0.0267
H22 H 0.6162 1.4128 0.0994
H23 H 0.5421 1.4987 0.0518
H24 H 0.7520 1.2717 0.0483
H25 H 0.6794 1.3614 0.0012
H26 H 0.7840 1.6016 0.0373
H27 H 0.8928 1.4816 0.0149
H28 H 0.8779 1.4895 0.0737
O1 O -0.1528(4) 0.4525(5) 0.4407(2)
C1 C -0.1048(5) 0.3806(6) 0.4059(2)
O2 O -0.1941(3) 0.3002(4) 0.3711(1)
C2 C -0.1091(5) 0.2107(6) 0.3401(2)
C3 C 0.0399(5) 0.2419(5) 0.3551(2)
C4 C 0.1709(5) 0.1596(6) 0.3385(2)
C5 C 0.2769(5) 0.1466(6) 0.3843(2)
C6 C 0.3128(5) 0.3091(5) 0.4100(2)
C7 C 0.1782(4) 0.4152(5) 0.4203(2)
C8 C 0.0449(4) 0.3506(5) 0.3930(2)
C9 C -0.1656(6) 0.1123(7) 0.3045(2)
C10 C -0.3236(7) 0.0885(9) 0.2927(3)
C11 C -0.3662(8) -0.0848(11) 0.2928(4)
C12 C -0.5082(11) -0.1202(12) 0.2870(4)
O3 O 0.1357(4) 0.7277(4) 0.2748(1)
C13 C 0.1461(5) 0.6904(5) 0.3189(2)
O4 O 0.0576(4) 0.7591(4) 0.3523(1)
C14 C 0.0947(5) 0.7090(5) 0.4029(2)
C15 C 0.2140(4) 0.5890(5) 0.4033(2)
C16 C 0.3526(5) 0.6422(7) 0.4337(2)
C17 C 0.4795(5) 0.5415(7) 0.4173(2)
C18 C 0.4230(5) 0.4070(6) 0.3815(2)
C19 C 0.3493(5) 0.4864(5) 0.3356(2)
C20 C 0.2437(5) 0.5821(5) 0.3477(2)
C21 C 0.0272(5) 0.7732(6) 0.4397(2)
C22 C -0.0852(6) 0.9007(7) 0.4358(2)
C23 C -0.2104(6) 0.8710(8) 0.4636(2)
C24 C -0.3269(6) 0.9975(8) 0.4590(3)
H1 H 0.1462 0.0547 0.3258
H2 H 0.2125 0.2206 0.3123
H3 H 0.2365 0.0775 0.4088
H4 H 0.3645 0.1006 0.3736
H5 H 0.3557 0.2796 0.4427
H6 H 0.1591 0.4147 0.4556
H7 H -0.1005 0.0525 0.2850
H8 H -0.3752 0.1439 0.3177
H9 H -0.3491 0.1324 0.2597
H10 H -0.3303 -0.1293 0.3247
H11 H -0.3200 -0.1361 0.2656
H12 H -0.5203 -0.2341 0.2847
H13 H -0.5491 -0.0709 0.2565
H14 H -0.5560 -0.0807 0.3157
H15 H 0.3417 0.6270 0.4694
H16 H 0.3704 0.7533 0.4272
H17 H 0.5442 0.6084 0.3999
H18 H 0.5295 0.4955 0.4467
H19 H 0.4984 0.3378 0.3714
H20 H 0.3759 0.4694 0.3014
H21 H 0.0530 0.7338 0.4733
H22 H -0.1162 0.9128 0.4006
H23 H -0.0421 0.9987 0.4482
H24 H -0.2520 0.7717 0.4517
H25 H -0.1794 0.8614 0.4988
H26 H -0.2840 1.1016 0.4627
H27 H -0.3928 0.9816 0.4851
H28 H -0.3779 0.9895 0.4263
O1 O 0.3472(4) 0.0475(5) 0.9407(2)
C1 C 0.3952(5) 0.1194(6) 0.9059(2)
O2 O 0.3059(3) 0.1998(4) 0.8711(1)
C2 C 0.3909(5) 0.2893(6) 0.8401(2)
C3 C 0.5399(5) 0.2581(5) 0.8551(2)
C4 C 0.6709(5) 0.3404(6) 0.8385(2)
C5 C 0.7769(5) 0.3534(6) 0.8843(2)
C6 C 0.8128(5) 0.1909(5) 0.9100(2)
C7 C 0.6782(4) 0.0848(5) 0.9203(2)
C8 C 0.5449(4) 0.1494(5) 0.8930(2)
C9 C 0.3344(6) 0.3877(7) 0.8045(2)
C10 C 0.1764(7) 0.4115(9) 0.7927(3)
C11 C 0.1338(8) 0.5848(11) 0.7928(4)
C12 C -0.0082(11) 0.6202(12) 0.7870(4)
O3 O 0.6357(4) -0.2277(4) 0.7748(1)
C13 C 0.6461(5) -0.1904(5) 0.8189(2)
O4 O 0.5576(4) -0.2591(4) 0.8523(1)
C14 C 0.5947(5) -0.2090(5) 0.9029(2)
C15 C 0.7140(4) -0.0890(5) 0.9033(2)
C16 C 0.8526(5) -0.1422(7) 0.9337(2)
C17 C 0.9795(5) -0.0415(7) 0.9173(2)
C18 C 0.9230(5) 0.0930(6) 0.8815(2)
C19 C 0.8493(5) 0.0136(5) 0.8356(2)
C20 C 0.7437(5) -0.0821(5) 0.8477(2)
C21 C 0.5272(5) -0.2732(6) 0.9397(2)
C22 C 0.4148(6) -0.4007(7) 0.9358(2)
C23 C 0.2896(6) -0.3710(8) 0.9636(2)
C24 C 0.1731(6) -0.4975(8) 0.9590(3)
H1 H 0.6462 0.4453 0.8258
H2 H 0.7125 0.2794 0.8123
H3 H 0.7365 0.4225 0.9088
H4 H 0.8645 0.3994 0.8736
H5 H 0.8557 0.2204 0.9427
H6 H 0.6591 0.0853 0.9556
H7 H 0.3995 0.4475 0.7850
H8 H 0.1248 0.3561 0.8177
H9 H 0.1509 0.3676 0.7597
H10 H 0.1697 0.6293 0.8247
H11 H 0.1800 0.6361 0.7656
H12 H -0.0203 0.7341 0.7847
H13 H -0.0491 0.5709 0.7565
H14 H -0.0560 0.5807 0.8157
H15 H 0.8417 -0.1270 0.9694
H16 H 0.8704 -0.2533 0.9272
H17 H 1.0442 -0.1084 0.8999
H18 H 1.0295 0.0045 0.9467
H19 H 0.9984 0.1622 0.8714
H20 H 0.8759 0.0306 0.8014
H21 H 0.5530 -0.2338 0.9733
H22 H 0.3838 -0.4128 0.9006
H23 H 0.4579 -0.4987 0.9482
H24 H 0.2480 -0.2717 0.9517
H25 H 0.3206 -0.3614 0.9988
H26 H 0.2160 -0.6016 0.9627
H27 H 0.1072 -0.4816 0.9851
H28 H 0.1221 -0.4895 0.9263
O1 O 1.1528(4) 0.5475(5) 0.5593(2)
C1 C 1.1048(5) 0.6194(6) 0.5941(2)
O2 O 1.1941(3) 0.6998(4) 0.6289(1)
C2 C 1.1091(5) 0.7893(6) 0.6599(2)
C3 C 0.9601(5) 0.7581(5) 0.6449(2)
C4 C 0.8291(5) 0.8404(6) 0.6615(2)
C5 C 0.7231(5) 0.8534(6) 0.6157(2)
C6 C 0.6872(5) 0.6909(5) 0.5900(2)
C7 C 0.8218(4) 0.5848(5) 0.5797(2)
C8 C 0.9551(4) 0.6494(5) 0.6070(2)
C9 C 1.1656(6) 0.8877(7) 0.6955(2)
C10 C 1.3236(7) 0.9115(9) 0.7073(3)
C11 C 1.3662(8) 1.0848(11) 0.7072(4)
C12 C 1.5082(11) 1.1202(12) 0.7130(4)
O3 O 0.8643(4) 0.2723(4) 0.7252(1)
C13 C 0.8539(5) 0.3096(5) 0.6811(2)
O4 O 0.9424(4) 0.2409(4) 0.6477(1)
C14 C 0.9053(5) 0.2910(5) 0.5971(2)
C15 C 0.7860(4) 0.4110(5) 0.5967(2)
C16 C 0.6474(5) 0.3578(7) 0.5663(2)
C17 C 0.5205(5) 0.4585(7) 0.5827(2)
C18 C 0.5770(5) 0.5930(6) 0.6185(2)
C19 C 0.6507(5) 0.5136(5) 0.6644(2)
C20 C 0.7563(5) 0.4179(5) 0.6523(2)
C21 C 0.9728(5) 0.2268(6) 0.5603(2)
C22 C 1.0852(6) 0.0993(7) 0.5642(2)
C23 C 1.2104(6) 0.1290(8) 0.5364(2)
C24 C 1.3269(6) 0.0025(8) 0.5410(3)
H1 H 0.8538 0.9453 0.6742
H2 H 0.7875 0.7794 0.6877
H3 H 0.7635 0.9225 0.5912
H4 H 0.6355 0.8994 0.6264
H5 H 0.6443 0.7204 0.5573
H6 H 0.8409 0.5853 0.5444
H7 H 1.1005 0.9475 0.7150
H8 H 1.3752 0.8561 0.6823
H9 H 1.3491 0.8676 0.7403
H10 H 1.3303 1.1293 0.6753
H11 H 1.3200 1.1361 0.7344
H12 H 1.5203 1.2341 0.7153
H13 H 1.5491 1.0709 0.7435
H14 H 1.5560 1.0807 0.6843
H15 H 0.6583 0.3730 0.5306
H16 H 0.6296 0.2467 0.5728
H17 H 0.4558 0.3916 0.6001
H18 H 0.4705 0.5045 0.5533
H19 H 0.5016 0.6622 0.6286
H20 H 0.6241 0.5306 0.6986
H21 H 0.9470 0.2662 0.5267
H22 H 1.1162 0.0872 0.5994
H23 H 1.0421 0.0013 0.5518
H24 H 1.2520 0.2283 0.5483
H25 H 1.1794 0.1386 0.5012
H26 H 1.2840 -0.1016 0.5373
H27 H 1.3928 0.0184 0.5149
H28 H 1.3779 0.0105 0.5737

#END
