
#######################################################################
#
#                 Cambridge Crystallographic Data Centre
#                                CCDC 
#
#######################################################################
#
# If this CIF has been generated from an entry in the Cambridge 
# Structural Database, then it will include bibliographic, chemical, 
# crystal, experimental, refinement or atomic coordinate data resulting 
# from the CCDC's data processing and validation procedures.
#
#######################################################################

data_KAHTEU
_symmetry_cell_setting           monoclinic
_symmetry_space_group_name_H-M   'P 21/c'
_symmetry_Int_Tables_number      14
_space_group_name_Hall           '-P 2ybc'
loop_
_symmetry_equiv_pos_site_id
_symmetry_equiv_pos_as_xyz
1 x,y,z
2 -x,1/2+y,1/2-z
3 -x,-y,-z
4 x,1/2-y,1/2+z
_cell_length_a                   3.8650(10)
_cell_length_b                   19.424(2)
_cell_length_c                   10.1130(10)
_cell_angle_alpha                90
_cell_angle_beta                 92.560(10)
_cell_angle_gamma                90
_cell_volume                     758.463
loop_
_atom_site_label
_atom_site_type_symbol
_atom_site_fract_x
_atom_site_fract_y
_atom_site_fract_z
C1 C 0.2997(9) -0.19363(18) 0.0111(4)
C2 C 0.2213(10) -0.22540(18) 0.1302(4)
C3 C 0.0647(9) -0.18868(19) 0.2269(4)
C4 C -0.0190(9) -0.11848(16) 0.2087(3)
C5 C 0.0539(8) -0.08627(16) 0.0862(3)
C6 C -0.0361(7) -0.01604(16) 0.0635(3)
C7 C 0.1726(8) 0.07663(18) -0.3070(3)
C8 C 0.2574(9) 0.00979(19) -0.2847(3)
C9 C 0.1921(8) -0.02116(16) -0.1614(3)
C10 C 0.3004(9) -0.09342(17) -0.1398(3)
C11 C 0.2147(8) -0.12559(17) -0.0119(3)
H1 H 0.429(11) -0.220(2) -0.055(4)
H2 H 0.271(8) -0.2695(17) 0.159(3)
H3 H 0.041(12) -0.207(3) 0.308(5)
H4 H 0.384(12) -0.020(2) -0.351(5)
Br1 Br 0.26710(10) 0.11466(2) -0.47457(4)
O1 O 0.4590(9) -0.12517(13) -0.2226(3)
C1B C -0.2997(9) 0.19363(18) -0.0111(4)
C2B C -0.2213(10) 0.22540(18) -0.1302(4)
C3B C -0.0647(9) 0.18868(19) -0.2269(4)
C4B C 0.0190(9) 0.11848(16) -0.2087(3)
C5B C -0.0539(8) 0.08627(16) -0.0862(3)
C6B C 0.0361(7) 0.01604(16) -0.0635(3)
C7B C -0.1726(8) -0.07663(18) 0.3070(3)
C8B C -0.2574(9) -0.00979(19) 0.2847(3)
C9B C -0.1921(8) 0.02116(16) 0.1614(3)
C10B C -0.3004(9) 0.09342(17) 0.1398(3)
C11B C -0.2147(8) 0.12559(17) 0.0119(3)
H1B H -0.429(11) 0.220(2) 0.055(4)
H2B H -0.271(8) 0.2695(17) -0.159(3)
H3B H -0.041(12) 0.207(3) -0.308(5)
H4B H -0.384(12) 0.020(2) 0.351(5)
Br1B Br -0.26710(10) -0.11466(2) 0.47457(4)
O1B O -0.4590(9) 0.12517(13) 0.2226(3)
C1 C 0.2997(9) -0.19363(18) 1.0111(4)
C2 C 0.2213(10) -0.22540(18) 1.1302(4)
C3 C 0.0647(9) -0.18868(19) 1.2269(4)
C4 C -0.0190(9) -0.11848(16) 1.2087(3)
C5 C 0.0539(8) -0.08627(16) 1.0862(3)
C6 C -0.0361(7) -0.01604(16) 1.0635(3)
C7 C 0.1726(8) 0.07663(18) 0.6930(3)
C8 C 0.2574(9) 0.00979(19) 0.7153(3)
C9 C 0.1921(8) -0.02116(16) 0.8386(3)
C10 C 0.3004(9) -0.09342(17) 0.8602(3)
C11 C 0.2147(8) -0.12559(17) 0.9881(3)
H1 H 0.429(11) -0.220(2) 0.945(4)
H2 H 0.271(8) -0.2695(17) 1.159(3)
H3 H 0.041(12) -0.207(3) 1.308(5)
H4 H 0.384(12) -0.020(2) 0.649(5)
Br1 Br 0.26710(10) 0.11466(2) 0.52543(4)
O1 O 0.4590(9) -0.12517(13) 0.7774(3)
C1B C -0.2997(9) 0.19363(18) 0.9889(4)
C2B C -0.2213(10) 0.22540(18) 0.8698(4)
C3B C -0.0647(9) 0.18868(19) 0.7731(4)
C4B C 0.0190(9) 0.11848(16) 0.7913(3)
C5B C -0.0539(8) 0.08627(16) 0.9138(3)
C6B C 0.0361(7) 0.01604(16) 0.9365(3)
C7B C -0.1726(8) -0.07663(18) 1.3070(3)
C8B C -0.2574(9) -0.00979(19) 1.2847(3)
C9B C -0.1921(8) 0.02116(16) 1.1614(3)
C10B C -0.3004(9) 0.09342(17) 1.1398(3)
C11B C -0.2147(8) 0.12559(17) 1.0119(3)
H1B H -0.429(11) 0.220(2) 1.055(4)
H2B H -0.271(8) 0.2695(17) 0.841(3)
H3B H -0.041(12) 0.207(3) 0.692(5)
H4B H -0.384(12) 0.020(2) 1.351(5)
Br1B Br -0.26710(10) -0.11466(2) 1.47457(4)
O1B O -0.4590(9) 0.12517(13) 1.2226(3)
C1 C 0.2997(9) 0.80637(18) 0.0111(4)
C2 C 0.2213(10) 0.77460(18) 0.1302(4)
C3 C 0.0647(9) 0.81132(19) 0.2269(4)
C4 C -0.0190(9) 0.88152(16) 0.2087(3)
C5 C 0.0539(8) 0.91373(16) 0.0862(3)
C6 C -0.0361(7) 0.98396(16) 0.0635(3)
C7 C 0.1726(8) 1.07663(18) -0.3070(3)
C8 C 0.2574(9) 1.00979(19) -0.2847(3)
C9 C 0.1921(8) 0.97884(16) -0.1614(3)
C10 C 0.3004(9) 0.90658(17) -0.1398(3)
C11 C 0.2147(8) 0.87441(17) -0.0119(3)
H1 H 0.429(11) 0.780(2) -0.055(4)
H2 H 0.271(8) 0.7305(17) 0.159(3)
H3 H 0.041(12) 0.793(3) 0.308(5)
H4 H 0.384(12) 0.980(2) -0.351(5)
Br1 Br 0.26710(10) 1.11466(2) -0.47457(4)
O1 O 0.4590(9) 0.87483(13) -0.2226(3)
C1B C -0.2997(9) 1.19363(18) -0.0111(4)
C2B C -0.2213(10) 1.22540(18) -0.1302(4)
C3B C -0.0647(9) 1.18868(19) -0.2269(4)
C4B C 0.0190(9) 1.11848(16) -0.2087(3)
C5B C -0.0539(8) 1.08627(16) -0.0862(3)
C6B C 0.0361(7) 1.01604(16) -0.0635(3)
C7B C -0.1726(8) 0.92337(18) 0.3070(3)
C8B C -0.2574(9) 0.99021(19) 0.2847(3)
C9B C -0.1921(8) 1.02116(16) 0.1614(3)
C10B C -0.3004(9) 1.09342(17) 0.1398(3)
C11B C -0.2147(8) 1.12559(17) 0.0119(3)
H1B H -0.429(11) 1.220(2) 0.055(4)
H2B H -0.271(8) 1.2695(17) -0.159(3)
H3B H -0.041(12) 1.207(3) -0.308(5)
H4B H -0.384(12) 1.020(2) 0.351(5)
Br1B Br -0.26710(10) 0.88534(2) 0.47457(4)
O1B O -0.4590(9) 1.12517(13) 0.2226(3)
C1 C 0.2997(9) 0.80637(18) 1.0111(4)
C2 C 0.2213(10) 0.77460(18) 1.1302(4)
C3 C 0.0647(9) 0.81132(19) 1.2269(4)
C4 C -0.0190(9) 0.88152(16) 1.2087(3)
C5 C 0.0539(8) 0.91373(16) 1.0862(3)
C6 C -0.0361(7) 0.98396(16) 1.0635(3)
C7 C 0.1726(8) 1.07663(18) 0.6930(3)
C8 C 0.2574(9) 1.00979(19) 0.7153(3)
C9 C 0.1921(8) 0.97884(16) 0.8386(3)
C10 C 0.3004(9) 0.90658(17) 0.8602(3)
C11 C 0.2147(8) 0.87441(17) 0.9881(3)
H1 H 0.429(11) 0.780(2) 0.945(4)
H2 H 0.271(8) 0.7305(17) 1.159(3)
H3 H 0.041(12) 0.793(3) 1.308(5)
H4 H 0.384(12) 0.980(2) 0.649(5)
Br1 Br 0.26710(10) 1.11466(2) 0.52543(4)
O1 O 0.4590(9) 0.87483(13) 0.7774(3)
C1B C -0.2997(9) 1.19363(18) 0.9889(4)
C2B C -0.2213(10) 1.22540(18) 0.8698(4)
C3B C -0.0647(9) 1.18868(19) 0.7731(4)
C4B C 0.0190(9) 1.11848(16) 0.7913(3)
C5B C -0.0539(8) 1.08627(16) 0.9138(3)
C6B C 0.0361(7) 1.01604(16) 0.9365(3)
C7B C -0.1726(8) 0.92337(18) 1.3070(3)
C8B C -0.2574(9) 0.99021(19) 1.2847(3)
C9B C -0.1921(8) 1.02116(16) 1.1614(3)
C10B C -0.3004(9) 1.09342(17) 1.1398(3)
C11B C -0.2147(8) 1.12559(17) 1.0119(3)
H1B H -0.429(11) 1.220(2) 1.055(4)
H2B H -0.271(8) 1.2695(17) 0.841(3)
H3B H -0.041(12) 1.207(3) 0.692(5)
H4B H -0.384(12) 1.020(2) 1.351(5)
Br1B Br -0.26710(10) 0.88534(2) 1.47457(4)
O1B O -0.4590(9) 1.12517(13) 1.2226(3)
C1 C 1.2997(9) -0.19363(18) 0.0111(4)
C2 C 1.2213(10) -0.22540(18) 0.1302(4)
C3 C 1.0647(9) -0.18868(19) 0.2269(4)
C4 C 0.9810(9) -0.11848(16) 0.2087(3)
C5 C 1.0539(8) -0.08627(16) 0.0862(3)
C6 C 0.9639(7) -0.01604(16) 0.0635(3)
C7 C 1.1726(8) 0.07663(18) -0.3070(3)
C8 C 1.2574(9) 0.00979(19) -0.2847(3)
C9 C 1.1921(8) -0.02116(16) -0.1614(3)
C10 C 1.3004(9) -0.09342(17) -0.1398(3)
C11 C 1.2147(8) -0.12559(17) -0.0119(3)
H1 H 1.429(11) -0.220(2) -0.055(4)
H2 H 1.271(8) -0.2695(17) 0.159(3)
H3 H 1.041(12) -0.207(3) 0.308(5)
H4 H 1.384(12) -0.020(2) -0.351(5)
Br1 Br 1.26710(10) 0.11466(2) -0.47457(4)
O1 O 1.4590(9) -0.12517(13) -0.2226(3)
C1B C 0.7003(9) 0.19363(18) -0.0111(4)
C2B C 0.7787(10) 0.22540(18) -0.1302(4)
C3B C 0.9353(9) 0.18868(19) -0.2269(4)
C4B C 1.0190(9) 0.11848(16) -0.2087(3)
C5B C 0.9461(8) 0.08627(16) -0.0862(3)
C6B C 1.0361(7) 0.01604(16) -0.0635(3)
C7B C 0.8274(8) -0.07663(18) 0.3070(3)
C8B C 0.7426(9) -0.00979(19) 0.2847(3)
C9B C 0.8079(8) 0.02116(16) 0.1614(3)
C10B C 0.6996(9) 0.09342(17) 0.1398(3)
C11B C 0.7853(8) 0.12559(17) 0.0119(3)
H1B H 0.571(11) 0.220(2) 0.055(4)
H2B H 0.729(8) 0.2695(17) -0.159(3)
H3B H 0.959(12) 0.207(3) -0.308(5)
H4B H 0.616(12) 0.020(2) 0.351(5)
Br1B Br 0.73290(10) -0.11466(2) 0.47457(4)
O1B O 0.5410(9) 0.12517(13) 0.2226(3)
C1 C 1.2997(9) -0.19363(18) 1.0111(4)
C2 C 1.2213(10) -0.22540(18) 1.1302(4)
C3 C 1.0647(9) -0.18868(19) 1.2269(4)
C4 C 0.9810(9) -0.11848(16) 1.2087(3)
C5 C 1.0539(8) -0.08627(16) 1.0862(3)
C6 C 0.9639(7) -0.01604(16) 1.0635(3)
C7 C 1.1726(8) 0.07663(18) 0.6930(3)
C8 C 1.2574(9) 0.00979(19) 0.7153(3)
C9 C 1.1921(8) -0.02116(16) 0.8386(3)
C10 C 1.3004(9) -0.09342(17) 0.8602(3)
C11 C 1.2147(8) -0.12559(17) 0.9881(3)
H1 H 1.429(11) -0.220(2) 0.945(4)
H2 H 1.271(8) -0.2695(17) 1.159(3)
H3 H 1.041(12) -0.207(3) 1.308(5)
H4 H 1.384(12) -0.020(2) 0.649(5)
Br1 Br 1.26710(10) 0.11466(2) 0.52543(4)
O1 O 1.4590(9) -0.12517(13) 0.7774(3)
C1B C 0.7003(9) 0.19363(18) 0.9889(4)
C2B C 0.7787(10) 0.22540(18) 0.8698(4)
C3B C 0.9353(9) 0.18868(19) 0.7731(4)
C4B C 1.0190(9) 0.11848(16) 0.7913(3)
C5B C 0.9461(8) 0.08627(16) 0.9138(3)
C6B C 1.0361(7) 0.01604(16) 0.9365(3)
C7B C 0.8274(8) -0.07663(18) 1.3070(3)
C8B C 0.7426(9) -0.00979(19) 1.2847(3)
C9B C 0.8079(8) 0.02116(16) 1.1614(3)
C10B C 0.6996(9) 0.09342(17) 1.1398(3)
C11B C 0.7853(8) 0.12559(17) 1.0119(3)
H1B H 0.571(11) 0.220(2) 1.055(4)
H2B H 0.729(8) 0.2695(17) 0.841(3)
H3B H 0.959(12) 0.207(3) 0.692(5)
H4B H 0.616(12) 0.020(2) 1.351(5)
Br1B Br 0.73290(10) -0.11466(2) 1.47457(4)
O1B O 0.5410(9) 0.12517(13) 1.2226(3)
C1 C 1.2997(9) 0.80637(18) 0.0111(4)
C2 C 1.2213(10) 0.77460(18) 0.1302(4)
C3 C 1.0647(9) 0.81132(19) 0.2269(4)
C4 C 0.9810(9) 0.88152(16) 0.2087(3)
C5 C 1.0539(8) 0.91373(16) 0.0862(3)
C6 C 0.9639(7) 0.98396(16) 0.0635(3)
C7 C 1.1726(8) 1.07663(18) -0.3070(3)
C8 C 1.2574(9) 1.00979(19) -0.2847(3)
C9 C 1.1921(8) 0.97884(16) -0.1614(3)
C10 C 1.3004(9) 0.90658(17) -0.1398(3)
C11 C 1.2147(8) 0.87441(17) -0.0119(3)
H1 H 1.429(11) 0.780(2) -0.055(4)
H2 H 1.271(8) 0.7305(17) 0.159(3)
H3 H 1.041(12) 0.793(3) 0.308(5)
H4 H 1.384(12) 0.980(2) -0.351(5)
Br1 Br 1.26710(10) 1.11466(2) -0.47457(4)
O1 O 1.4590(9) 0.87483(13) -0.2226(3)
C1B C 0.7003(9) 1.19363(18) -0.0111(4)
C2B C 0.7787(10) 1.22540(18) -0.1302(4)
C3B C 0.9353(9) 1.18868(19) -0.2269(4)
C4B C 1.0190(9) 1.11848(16) -0.2087(3)
C5B C 0.9461(8) 1.08627(16) -0.0862(3)
C6B C 1.0361(7) 1.01604(16) -0.0635(3)
C7B C 0.8274(8) 0.92337(18) 0.3070(3)
C8B C 0.7426(9) 0.99021(19) 0.2847(3)
C9B C 0.8079(8) 1.02116(16) 0.1614(3)
C10B C 0.6996(9) 1.09342(17) 0.1398(3)
C11B C 0.7853(8) 1.12559(17) 0.0119(3)
H1B H 0.571(11) 1.220(2) 0.055(4)
H2B H 0.729(8) 1.2695(17) -0.159(3)
H3B H 0.959(12) 1.207(3) -0.308(5)
H4B H 0.616(12) 1.020(2) 0.351(5)
Br1B Br 0.73290(10) 0.88534(2) 0.47457(4)
O1B O 0.5410(9) 1.12517(13) 0.2226(3)
C1 C 1.2997(9) 0.80637(18) 1.0111(4)
C2 C 1.2213(10) 0.77460(18) 1.1302(4)
C3 C 1.0647(9) 0.81132(19) 1.2269(4)
C4 C 0.9810(9) 0.88152(16) 1.2087(3)
C5 C 1.0539(8) 0.91373(16) 1.0862(3)
C6 C 0.9639(7) 0.98396(16) 1.0635(3)
C7 C 1.1726(8) 1.07663(18) 0.6930(3)
C8 C 1.2574(9) 1.00979(19) 0.7153(3)
C9 C 1.1921(8) 0.97884(16) 0.8386(3)
C10 C 1.3004(9) 0.90658(17) 0.8602(3)
C11 C 1.2147(8) 0.87441(17) 0.9881(3)
H1 H 1.429(11) 0.780(2) 0.945(4)
H2 H 1.271(8) 0.7305(17) 1.159(3)
H3 H 1.041(12) 0.793(3) 1.308(5)
H4 H 1.384(12) 0.980(2) 0.649(5)
Br1 Br 1.26710(10) 1.11466(2) 0.52543(4)
O1 O 1.4590(9) 0.87483(13) 0.7774(3)
C1B C 0.7003(9) 1.19363(18) 0.9889(4)
C2B C 0.7787(10) 1.22540(18) 0.8698(4)
C3B C 0.9353(9) 1.18868(19) 0.7731(4)
C4B C 1.0190(9) 1.11848(16) 0.7913(3)
C5B C 0.9461(8) 1.08627(16) 0.9138(3)
C6B C 1.0361(7) 1.01604(16) 0.9365(3)
C7B C 0.8274(8) 0.92337(18) 1.3070(3)
C8B C 0.7426(9) 0.99021(19) 1.2847(3)
C9B C 0.8079(8) 1.02116(16) 1.1614(3)
C10B C 0.6996(9) 1.09342(17) 1.1398(3)
C11B C 0.7853(8) 1.12559(17) 1.0119(3)
H1B H 0.571(11) 1.220(2) 1.055(4)
H2B H 0.729(8) 1.2695(17) 0.841(3)
H3B H 0.959(12) 1.207(3) 0.692(5)
H4B H 0.616(12) 1.020(2) 1.351(5)
Br1B Br 0.73290(10) 0.88534(2) 1.47457(4)
O1B O 0.5410(9) 1.12517(13) 1.2226(3)
C1 C -0.2997(9) 0.30637(18) 0.4889(4)
C2 C -0.2213(10) 0.27460(18) 0.3698(4)
C3 C -0.0647(9) 0.31132(19) 0.2731(4)
C4 C 0.0190(9) 0.38152(16) 0.2913(3)
C5 C -0.0539(8) 0.41373(16) 0.4138(3)
C6 C 0.0361(7) 0.48396(16) 0.4365(3)
C7 C -0.1726(8) 0.57663(18) 0.8070(3)
C8 C -0.2574(9) 0.50979(19) 0.7847(3)
C9 C -0.1921(8) 0.47884(16) 0.6614(3)
C10 C -0.3004(9) 0.40658(17) 0.6398(3)
C11 C -0.2147(8) 0.37441(17) 0.5119(3)
H1 H -0.429(11) 0.280(2) 0.555(4)
H2 H -0.271(8) 0.2305(17) 0.341(3)
H3 H -0.041(12) 0.293(3) 0.192(5)
H4 H -0.384(12) 0.480(2) 0.851(5)
Br1 Br -0.26710(10) 0.61466(2) 0.97457(4)
O1 O -0.4590(9) 0.37483(13) 0.7226(3)
C1B C 0.2997(9) 0.69363(18) 0.5111(4)
C2B C 0.2213(10) 0.72540(18) 0.6302(4)
C3B C 0.0647(9) 0.68868(19) 0.7269(4)
C4B C -0.0190(9) 0.61848(16) 0.7087(3)
C5B C 0.0539(8) 0.58627(16) 0.5862(3)
C6B C -0.0361(7) 0.51604(16) 0.5635(3)
C7B C 0.1726(8) 0.42337(18) 0.1930(3)
C8B C 0.2574(9) 0.49021(19) 0.2153(3)
C9B C 0.1921(8) 0.52116(16) 0.3386(3)
C10B C 0.3004(9) 0.59342(17) 0.3602(3)
C11B C 0.2147(8) 0.62559(17) 0.4881(3)
H1B H 0.429(11) 0.720(2) 0.445(4)
H2B H 0.271(8) 0.7695(17) 0.659(3)
H3B H 0.041(12) 0.707(3) 0.808(5)
H4B H 0.384(12) 0.520(2) 0.149(5)
Br1B Br 0.26710(10) 0.38534(2) 0.02543(4)
O1B O 0.4590(9) 0.62517(13) 0.2774(3)
C1 C 0.7003(9) 0.30637(18) 0.4889(4)
C2 C 0.7787(10) 0.27460(18) 0.3698(4)
C3 C 0.9353(9) 0.31132(19) 0.2731(4)
C4 C 1.0190(9) 0.38152(16) 0.2913(3)
C5 C 0.9461(8) 0.41373(16) 0.4138(3)
C6 C 1.0361(7) 0.48396(16) 0.4365(3)
C7 C 0.8274(8) 0.57663(18) 0.8070(3)
C8 C 0.7426(9) 0.50979(19) 0.7847(3)
C9 C 0.8079(8) 0.47884(16) 0.6614(3)
C10 C 0.6996(9) 0.40658(17) 0.6398(3)
C11 C 0.7853(8) 0.37441(17) 0.5119(3)
H1 H 0.571(11) 0.280(2) 0.555(4)
H2 H 0.729(8) 0.2305(17) 0.341(3)
H3 H 0.959(12) 0.293(3) 0.192(5)
H4 H 0.616(12) 0.480(2) 0.851(5)
Br1 Br 0.73290(10) 0.61466(2) 0.97457(4)
O1 O 0.5410(9) 0.37483(13) 0.7226(3)
C1B C 1.2997(9) 0.69363(18) 0.5111(4)
C2B C 1.2213(10) 0.72540(18) 0.6302(4)
C3B C 1.0647(9) 0.68868(19) 0.7269(4)
C4B C 0.9810(9) 0.61848(16) 0.7087(3)
C5B C 1.0539(8) 0.58627(16) 0.5862(3)
C6B C 0.9639(7) 0.51604(16) 0.5635(3)
C7B C 1.1726(8) 0.42337(18) 0.1930(3)
C8B C 1.2574(9) 0.49021(19) 0.2153(3)
C9B C 1.1921(8) 0.52116(16) 0.3386(3)
C10B C 1.3004(9) 0.59342(17) 0.3602(3)
C11B C 1.2147(8) 0.62559(17) 0.4881(3)
H1B H 1.429(11) 0.720(2) 0.445(4)
H2B H 1.271(8) 0.7695(17) 0.659(3)
H3B H 1.041(12) 0.707(3) 0.808(5)
H4B H 1.384(12) 0.520(2) 0.149(5)
Br1B Br 1.26710(10) 0.38534(2) 0.02543(4)
O1B O 1.4590(9) 0.62517(13) 0.2774(3)

#END
