./KAHTEU_from_POSCAR.cif_generated_by_CrystalShift
_symmetry_cell_setting triclinic
_symmetry_space_group_name_H-M 'P 1'
loop_
_symmetry_equiv_pos_site_id
_symmetry_equiv_pos_as_xyz
1 x,y,z
_cell_length_a 3.865000
_cell_length_b 19.424000
_cell_length_c 10.113000
_cell_angle_alpha 90.000000
_cell_angle_beta 92.560000
_cell_angle_gamma 90.000000
_cell_volume 758.463229
loop_
_atom_site_label
_atom_site_type_symbol
_atom_site_fract_x
_atom_site_fract_y
_atom_site_fract_z
H1 H 0.429000 0.720000 0.445000
H2 H -0.384000 0.480000 0.851000
H3 H -0.041000 0.293000 0.192000
H4 H -0.271000 0.230500 0.341000
H5 H -0.429000 0.280000 0.555000
H6 H 0.041000 0.707000 0.808000
H7 H 0.384000 0.520000 0.149000
H8 H 0.616000 1.020000 1.351000
H9 H 0.959000 1.207000 0.692000
H10 H 0.729000 1.269500 0.841000
H11 H 0.571000 1.220000 1.055000
H12 H 0.429000 -0.220000 -0.055000
H13 H 0.271000 -0.269500 0.159000
H14 H 0.041000 -0.207000 0.308000
H15 H 0.384000 -0.020000 -0.351000
H16 H 1.384000 0.520000 0.149000
H17 H 1.041000 0.707000 0.808000
H18 H 1.384000 0.980000 0.649000
H19 H 1.041000 0.793000 1.308000
H20 H 1.271000 0.730500 1.159000
H21 H 1.429000 0.780000 0.945000
H22 H 0.616000 1.020000 0.351000
H23 H 0.959000 1.207000 -0.308000
H24 H 0.729000 1.269500 -0.159000
H25 H 0.571000 1.220000 0.055000
H26 H 1.384000 0.980000 -0.351000
H27 H 1.041000 0.793000 0.308000
H28 H 1.271000 0.730500 0.159000
H29 H -0.429000 0.220000 0.055000
H30 H -0.271000 0.269500 -0.159000
H31 H -0.041000 0.207000 -0.308000
H32 H -0.384000 0.020000 0.351000
H33 H 1.271000 0.769500 0.659000
H34 H 1.429000 0.720000 0.445000
H35 H 1.429000 0.780000 -0.055000
H36 H 0.616000 0.020000 1.351000
H37 H 0.959000 0.207000 0.692000
H38 H 0.729000 0.269500 0.841000
H39 H 0.571000 0.220000 1.055000
H40 H 1.384000 -0.020000 0.649000
H41 H 1.041000 -0.207000 1.308000
H42 H 1.271000 -0.269500 1.159000
H43 H 1.429000 -0.220000 0.945000
H44 H 0.571000 0.280000 0.555000
H45 H 0.616000 0.020000 0.351000
H46 H 0.429000 -0.220000 0.945000
H47 H 0.271000 -0.269500 1.159000
H48 H 0.041000 -0.207000 1.308000
H49 H 0.384000 -0.020000 0.649000
H50 H 0.959000 0.207000 -0.308000
H51 H 0.729000 0.269500 -0.159000
H52 H 0.571000 0.220000 0.055000
H53 H 0.729000 0.230500 0.341000
H54 H 0.959000 0.293000 0.192000
H55 H 1.384000 -0.020000 -0.351000
H56 H 1.041000 -0.207000 0.308000
H57 H 1.271000 -0.269500 0.159000
H58 H 1.429000 -0.220000 -0.055000
H59 H 0.271000 0.769500 0.659000
H60 H 0.616000 0.480000 0.851000
H61 H -0.384000 1.020000 1.351000
H62 H -0.041000 1.207000 0.692000
H63 H -0.429000 0.220000 1.055000
H64 H -0.271000 0.269500 0.841000
H65 H -0.041000 0.207000 0.692000
H66 H -0.384000 0.020000 1.351000
H67 H -0.271000 1.269500 0.841000
H68 H -0.429000 1.220000 1.055000
H69 H 0.384000 0.980000 0.649000
H70 H 0.041000 0.793000 1.308000
H71 H 0.271000 0.730500 1.159000
H72 H 0.429000 0.780000 0.945000
H73 H -0.384000 1.020000 0.351000
H74 H -0.041000 1.207000 -0.308000
H75 H -0.271000 1.269500 -0.159000
H76 H -0.429000 1.220000 0.055000
H77 H 0.384000 0.980000 -0.351000
H78 H 0.041000 0.793000 0.308000
H79 H 0.271000 0.730500 0.159000
H80 H 0.429000 0.780000 -0.055000
C81 C 0.214700 0.874410 -0.011900
C82 C 0.300400 0.906580 -0.139800
C83 C 0.192100 0.978840 -0.161400
C84 C 1.172600 0.423370 0.193000
C85 C 0.963900 0.516040 0.563500
C86 C -0.299700 1.193630 -0.011100
C87 C -0.221300 1.225400 -0.130200
C88 C -0.064700 1.188680 -0.226900
C89 C 0.019000 1.118480 -0.208700
C90 C -0.053900 1.086270 -0.086200
C91 C 0.036100 1.016040 -0.063500
C92 C -0.172600 0.923370 0.307000
C93 C -0.257400 0.990210 0.284700
C94 C -0.192100 1.021160 0.161400
C95 C -0.300400 1.093420 0.139800
C96 C -0.214700 1.125590 0.011900
C97 C 0.257400 1.009790 -0.284700
C98 C 0.172600 1.076630 -0.307000
C99 C -0.036100 0.983960 0.063500
C100 C 0.053900 0.913730 0.086200
C101 C 1.053900 0.586270 0.586200
C102 C 0.981000 0.618480 0.708700
C103 C 0.299700 0.806370 1.011100
C104 C 0.221300 0.774600 1.130200
C105 C 0.064700 0.811320 1.226900
C106 C -0.019000 0.881520 1.208700
C107 C 0.053900 0.913730 1.086200
C108 C -0.036100 0.983960 1.063500
C109 C 0.172600 1.076630 0.693000
C110 C 0.257400 1.009790 0.715300
C111 C 0.192100 0.978840 0.838600
C112 C 0.300400 0.906580 0.860200
C113 C 0.214700 0.874410 0.988100
C114 C -0.019000 0.881520 0.208700
C115 C 0.064700 0.811320 0.226900
C116 C 0.221300 0.774600 0.130200
C117 C 0.299700 0.806370 0.011100
C118 C 1.064700 0.688680 0.726900
C119 C 1.221300 0.725400 0.630200
C120 C -0.299700 1.193630 0.988900
C121 C -0.221300 1.225400 0.869800
C122 C -0.064700 1.188680 0.773100
C123 C 0.019000 1.118480 0.791300
C124 C -0.053900 1.086270 0.913800
C125 C 0.036100 1.016040 0.936500
C126 C -0.172600 0.923370 1.307000
C127 C -0.257400 0.990210 1.284700
C128 C -0.192100 1.021160 1.161400
C129 C -0.300400 1.093420 1.139800
C130 C -0.214700 1.125590 1.011900
C131 C 1.257400 0.490210 0.215300
C132 C 1.192100 0.521160 0.338600
C133 C -0.214700 0.125590 1.011900
C134 C -0.300400 0.093420 1.139800
C135 C 1.299700 0.693630 0.511100
C136 C -0.192100 0.021160 1.161400
C137 C 1.299700 -0.193630 0.011100
C138 C 1.221300 -0.225400 0.130200
C139 C 1.064700 -0.188680 0.226900
C140 C 0.981000 -0.118480 0.208700
C141 C 1.053900 -0.086270 0.086200
C142 C 0.963900 -0.016040 0.063500
C143 C 1.172600 0.076630 -0.307000
C144 C 1.257400 0.009790 -0.284700
C145 C -0.257400 -0.009790 1.284700
C146 C 1.300400 -0.093420 -0.139800
C147 C 1.214700 -0.125590 -0.011900
C148 C -0.172600 -0.076630 1.307000
C149 C 0.036100 0.016040 0.936500
C150 C -0.053900 0.086270 0.913800
C151 C 0.019000 0.118480 0.791300
C152 C -0.064700 0.188680 0.773100
C153 C -0.221300 0.225400 0.869800
C154 C 0.700300 0.193630 -0.011100
C155 C 0.778700 0.225400 -0.130200
C156 C 0.935300 0.188680 -0.226900
C157 C 1.019000 0.118480 -0.208700
C158 C 0.946100 0.086270 -0.086200
C159 C 1.036100 0.016040 -0.063500
C160 C 0.827400 -0.076630 0.307000
C161 C 0.742600 -0.009790 0.284700
C162 C 0.807900 0.021160 0.161400
C163 C 0.699600 0.093420 0.139800
C164 C 0.785300 0.125590 0.011900
C165 C -0.299700 0.193630 0.988900
C166 C 1.300400 0.593420 0.360200
C167 C 1.214700 0.625590 0.488100
C168 C 0.214700 -0.125590 0.988100
C169 C 0.300400 -0.093420 0.860200
C170 C 0.785300 0.374410 0.511900
C171 C 1.299700 -0.193630 1.011100
C172 C 1.221300 -0.225400 1.130200
C173 C 1.064700 -0.188680 1.226900
C174 C 0.981000 -0.118480 1.208700
C175 C 1.053900 -0.086270 1.086200
C176 C 0.963900 -0.016040 1.063500
C177 C 1.172600 0.076630 0.693000
C178 C 1.257400 0.009790 0.715300
C179 C 1.192100 -0.021160 0.838600
C180 C 1.300400 -0.093420 0.860200
C181 C 1.214700 -0.125590 0.988100
C182 C 0.192100 -0.021160 0.838600
C183 C 0.257400 0.009790 0.715300
C184 C 0.172600 0.076630 0.693000
C185 C -0.036100 -0.016040 1.063500
C186 C 0.699600 0.406580 0.639800
C187 C 0.807900 0.478840 0.661400
C188 C 0.700300 0.193630 0.988900
C189 C 0.778700 0.225400 0.869800
C190 C 0.935300 0.188680 0.773100
C191 C 1.019000 0.118480 0.791300
C192 C 0.946100 0.086270 0.913800
C193 C 1.036100 0.016040 0.936500
C194 C 0.827400 -0.076630 1.307000
C195 C 0.742600 -0.009790 1.284700
C196 C 0.807900 0.021160 1.161400
C197 C 0.699600 0.093420 1.139800
C198 C 0.785300 0.125590 1.011900
C199 C 0.053900 -0.086270 1.086200
C200 C -0.019000 -0.118480 1.208700
C201 C 0.064700 -0.188680 1.226900
C202 C 0.221300 -0.225400 1.130200
C203 C 0.742600 0.509790 0.784700
C204 C 0.827400 0.576630 0.807000
C205 C 1.299700 0.806370 0.011100
C206 C 1.221300 0.774600 0.130200
C207 C 1.064700 0.811320 0.226900
C208 C 0.981000 0.881520 0.208700
C209 C 1.053900 0.913730 0.086200
C210 C 0.963900 0.983960 0.063500
C211 C 1.172600 1.076630 -0.307000
C212 C 1.257400 1.009790 -0.284700
C213 C 1.192100 0.978840 -0.161400
C214 C 1.300400 0.906580 -0.139800
C215 C 1.214700 0.874410 -0.011900
C216 C 0.299700 -0.193630 1.011100
C217 C -0.214700 0.125590 0.011900
C218 C -0.300400 0.093420 0.139800
C219 C -0.192100 0.021160 0.161400
C220 C 1.036100 0.483960 0.436500
C221 C 0.946100 0.413730 0.413800
C222 C 0.700300 1.193630 -0.011100
C223 C 0.778700 1.225400 -0.130200
C224 C 0.935300 1.188680 -0.226900
C225 C 1.019000 1.118480 -0.208700
C226 C 0.946100 1.086270 -0.086200
C227 C 1.036100 1.016040 -0.063500
C228 C 0.827400 0.923370 0.307000
C229 C 0.742600 0.990210 0.284700
C230 C 0.807900 1.021160 0.161400
C231 C 0.699600 1.093420 0.139800
C232 C 0.785300 1.125590 0.011900
C233 C -0.257400 -0.009790 0.284700
C234 C -0.172600 -0.076630 0.307000
C235 C 0.036100 0.016040 -0.063500
C236 C -0.053900 0.086270 -0.086200
C237 C 1.019000 0.381520 0.291300
C238 C 0.935300 0.311320 0.273100
C239 C 1.299700 0.806370 1.011100
C240 C 1.221300 0.774600 1.130200
C241 C 1.064700 0.811320 1.226900
C242 C 0.981000 0.881520 1.208700
C243 C 1.053900 0.913730 1.086200
C244 C 0.963900 0.983960 1.063500
C245 C 1.172600 1.076630 0.693000
C246 C 1.257400 1.009790 0.715300
C247 C 1.192100 0.978840 0.838600
C248 C 1.300400 0.906580 0.860200
C249 C 1.214700 0.874410 0.988100
C250 C 0.019000 0.118480 -0.208700
C251 C -0.064700 0.188680 -0.226900
C252 C -0.221300 0.225400 -0.130200
C253 C -0.299700 0.193630 -0.011100
C254 C 0.778700 0.274600 0.369800
C255 C 0.700300 0.306370 0.488900
C256 C 0.700300 1.193630 0.988900
C257 C 0.778700 1.225400 0.869800
C258 C 0.935300 1.188680 0.773100
C259 C 1.019000 1.118480 0.791300
C260 C 0.946100 1.086270 0.913800
C261 C 1.036100 1.016040 0.936500
C262 C 0.827400 0.923370 1.307000
C263 C 0.742600 0.990210 1.284700
C264 C 0.807900 1.021160 1.161400
C265 C 0.699600 1.093420 1.139800
C266 C 0.785300 1.125590 1.011900
C267 C 0.214700 -0.125590 -0.011900
C268 C 0.300400 -0.093420 -0.139800
C269 C 0.192100 -0.021160 -0.161400
C270 C 0.257400 0.009790 -0.284700
C271 C 0.172600 0.076630 -0.307000
C272 C -0.036100 -0.016040 0.063500
C273 C -0.299700 0.306370 0.488900
C274 C -0.221300 0.274600 0.369800
C275 C -0.064700 0.311320 0.273100
C276 C 0.019000 0.381520 0.291300
C277 C -0.053900 0.413730 0.413800
C278 C 0.036100 0.483960 0.436500
C279 C -0.172600 0.576630 0.807000
C280 C -0.257400 0.509790 0.784700
C281 C -0.192100 0.478840 0.661400
C282 C -0.300400 0.406580 0.639800
C283 C -0.214700 0.374410 0.511900
C284 C 0.053900 -0.086270 0.086200
C285 C -0.019000 -0.118480 0.208700
C286 C 0.064700 -0.188680 0.226900
C287 C 0.221300 -0.225400 0.130200
C288 C 1.192100 -0.021160 -0.161400
C289 C 0.299700 -0.193630 0.011100
C290 C 0.299700 0.693630 0.511100
C291 C 0.221300 0.725400 0.630200
C292 C 0.064700 0.688680 0.726900
C293 C -0.019000 0.618480 0.708700
C294 C 0.053900 0.586270 0.586200
C295 C -0.036100 0.516040 0.563500
C296 C 0.172600 0.423370 0.193000
C297 C 0.257400 0.490210 0.215300
C298 C 0.192100 0.521160 0.338600
C299 C 0.300400 0.593420 0.360200
C300 C 0.214700 0.625590 0.488100
O301 O -0.459000 0.374830 0.722600
O302 O 0.459000 -0.125170 -0.222600
O303 O 0.541000 1.125170 1.222600
O304 O -0.459000 0.125170 0.222600
O305 O 0.459000 -0.125170 0.777400
O306 O 0.459000 0.625170 0.277400
O307 O 1.459000 0.874830 0.777400
O308 O -0.459000 0.125170 1.222600
O309 O 0.541000 1.125170 0.222600
O310 O 0.459000 0.874830 -0.222600
O311 O 1.459000 0.874830 -0.222600
O312 O -0.459000 1.125170 0.222600
O313 O 0.541000 0.125170 1.222600
O314 O 0.459000 0.874830 0.777400
O315 O 1.459000 -0.125170 0.777400
O316 O 0.541000 0.374830 0.722600
O317 O 0.541000 0.125170 0.222600
O318 O -0.459000 1.125170 1.222600
O319 O 1.459000 -0.125170 -0.222600
O320 O 1.459000 0.625170 0.277400
Br321 Br 0.732900 -0.114660 0.474570
Br322 Br 0.732900 0.614660 0.974570
Br323 Br 1.267100 0.114660 0.525430
Br324 Br -0.267100 0.885340 1.474570
Br325 Br 0.732900 -0.114660 1.474570
Br326 Br 0.267100 1.114660 0.525430
Br327 Br 1.267100 1.114660 -0.474570
Br328 Br -0.267100 0.885340 0.474570
Br329 Br 0.732900 0.885340 0.474570
Br330 Br 0.267100 1.114660 -0.474570
Br331 Br 1.267100 1.114660 0.525430
Br332 Br -0.267100 -0.114660 1.474570
Br333 Br 0.267100 0.385340 0.025430
Br334 Br 0.267100 0.114660 0.525430
Br335 Br 0.732900 0.885340 1.474570
Br336 Br -0.267100 -0.114660 0.474570
Br337 Br -0.267100 0.614660 0.974570
Br338 Br 0.267100 0.114660 -0.474570
Br339 Br 1.267100 0.385340 0.025430
Br340 Br 1.267100 0.114660 -0.474570

#END
