
#######################################################################
#
#                 Cambridge Crystallographic Data Centre
#                                CCDC 
#
#######################################################################
#
# If this CIF has been generated from an entry in the Cambridge 
# Structural Database, then it will include bibliographic, chemical, 
# crystal, experimental, refinement or atomic coordinate data resulting 
# from the CCDC's data processing and validation procedures.
#
#######################################################################

data_KAHTOC
_symmetry_cell_setting           triclinic
_symmetry_space_group_name_H-M   'P -1'
_symmetry_Int_Tables_number      2
_space_group_name_Hall           '-P 1'
loop_
_symmetry_equiv_pos_site_id
_symmetry_equiv_pos_as_xyz
1 x,y,z
2 -x,-y,-z
_cell_length_a                   9.9489(22)
_cell_length_b                   10.0555(21)
_cell_length_c                   10.1418(20)
_cell_angle_alpha                115.006(16)
_cell_angle_beta                 102.820(17)
_cell_angle_gamma                93.647(18)
_cell_volume                     882.233
loop_
_atom_site_label
_atom_site_type_symbol
_atom_site_fract_x
_atom_site_fract_y
_atom_site_fract_z
C1 C -0.1182(2) 0.0372(2) -0.0690(2)
C2 C 0.0060(2) 0.0492(2) -0.1078(2)
C3 C -0.1252(2) -0.0118(2) 0.0385(2)
C4 C -0.2381(2) 0.0810(2) -0.1382(2)
C5 C 0.0125(2) 0.1057(2) -0.2145(2)
C6 C -0.2532(2) -0.0237(2) 0.0789(2)
N1 N -0.3293(2) 0.1217(2) -0.1901(2)
N2 N 0.0166(2) 0.1546(2) -0.2964(2)
N3 N -0.3532(2) -0.0311(2) 0.1131(2)
C3A C 0.1252(2) 0.0118(2) -0.0385(2)
C2A C -0.0060(2) -0.0492(2) 0.1078(2)
C1A C 0.1182(2) -0.0372(2) 0.0690(2)
C6A C 0.2532(2) 0.0237(2) -0.0789(2)
C5A C -0.0125(2) -0.1057(2) 0.2145(2)
C4A C 0.2381(2) -0.0810(2) 0.1382(2)
N3A N 0.3532(2) 0.0311(2) -0.1131(2)
N2A N -0.0166(2) -0.1546(2) 0.2964(2)
N1A N 0.3293(2) -0.1217(2) 0.1901(2)
C1 C -0.1182(2) 0.0372(2) 0.9310(2)
C2 C 0.0060(2) 0.0492(2) 0.8922(2)
C3 C -0.1252(2) -0.0118(2) 1.0385(2)
C4 C -0.2381(2) 0.0810(2) 0.8618(2)
C5 C 0.0125(2) 0.1057(2) 0.7855(2)
C6 C -0.2532(2) -0.0237(2) 1.0789(2)
N1 N -0.3293(2) 0.1217(2) 0.8099(2)
N2 N 0.0166(2) 0.1546(2) 0.7036(2)
N3 N -0.3532(2) -0.0311(2) 1.1131(2)
C3A C 0.1252(2) 0.0118(2) 0.9615(2)
C2A C -0.0060(2) -0.0492(2) 1.1078(2)
C1A C 0.1182(2) -0.0372(2) 1.0690(2)
C6A C 0.2532(2) 0.0237(2) 0.9211(2)
C5A C -0.0125(2) -0.1057(2) 1.2145(2)
C4A C 0.2381(2) -0.0810(2) 1.1382(2)
N3A N 0.3532(2) 0.0311(2) 0.8869(2)
N2A N -0.0166(2) -0.1546(2) 1.2964(2)
N1A N 0.3293(2) -0.1217(2) 1.1901(2)
C1 C -0.1182(2) 1.0372(2) -0.0690(2)
C2 C 0.0060(2) 1.0492(2) -0.1078(2)
C3 C -0.1252(2) 0.9882(2) 0.0385(2)
C4 C -0.2381(2) 1.0810(2) -0.1382(2)
C5 C 0.0125(2) 1.1057(2) -0.2145(2)
C6 C -0.2532(2) 0.9763(2) 0.0789(2)
N1 N -0.3293(2) 1.1217(2) -0.1901(2)
N2 N 0.0166(2) 1.1546(2) -0.2964(2)
N3 N -0.3532(2) 0.9689(2) 0.1131(2)
C3A C 0.1252(2) 1.0118(2) -0.0385(2)
C2A C -0.0060(2) 0.9508(2) 0.1078(2)
C1A C 0.1182(2) 0.9628(2) 0.0690(2)
C6A C 0.2532(2) 1.0237(2) -0.0789(2)
C5A C -0.0125(2) 0.8943(2) 0.2145(2)
C4A C 0.2381(2) 0.9190(2) 0.1382(2)
N3A N 0.3532(2) 1.0311(2) -0.1131(2)
N2A N -0.0166(2) 0.8454(2) 0.2964(2)
N1A N 0.3293(2) 0.8783(2) 0.1901(2)
C1 C -0.1182(2) 1.0372(2) 0.9310(2)
C2 C 0.0060(2) 1.0492(2) 0.8922(2)
C3 C -0.1252(2) 0.9882(2) 1.0385(2)
C4 C -0.2381(2) 1.0810(2) 0.8618(2)
C5 C 0.0125(2) 1.1057(2) 0.7855(2)
C6 C -0.2532(2) 0.9763(2) 1.0789(2)
N1 N -0.3293(2) 1.1217(2) 0.8099(2)
N2 N 0.0166(2) 1.1546(2) 0.7036(2)
N3 N -0.3532(2) 0.9689(2) 1.1131(2)
C3A C 0.1252(2) 1.0118(2) 0.9615(2)
C2A C -0.0060(2) 0.9508(2) 1.1078(2)
C1A C 0.1182(2) 0.9628(2) 1.0690(2)
C6A C 0.2532(2) 1.0237(2) 0.9211(2)
C5A C -0.0125(2) 0.8943(2) 1.2145(2)
C4A C 0.2381(2) 0.9190(2) 1.1382(2)
N3A N 0.3532(2) 1.0311(2) 0.8869(2)
N2A N -0.0166(2) 0.8454(2) 1.2964(2)
N1A N 0.3293(2) 0.8783(2) 1.1901(2)
C1 C 0.8818(2) 0.0372(2) -0.0690(2)
C2 C 1.0060(2) 0.0492(2) -0.1078(2)
C3 C 0.8748(2) -0.0118(2) 0.0385(2)
C4 C 0.7619(2) 0.0810(2) -0.1382(2)
C5 C 1.0125(2) 0.1057(2) -0.2145(2)
C6 C 0.7468(2) -0.0237(2) 0.0789(2)
N1 N 0.6707(2) 0.1217(2) -0.1901(2)
N2 N 1.0166(2) 0.1546(2) -0.2964(2)
N3 N 0.6468(2) -0.0311(2) 0.1131(2)
C3A C 1.1252(2) 0.0118(2) -0.0385(2)
C2A C 0.9940(2) -0.0492(2) 0.1078(2)
C1A C 1.1182(2) -0.0372(2) 0.0690(2)
C6A C 1.2532(2) 0.0237(2) -0.0789(2)
C5A C 0.9875(2) -0.1057(2) 0.2145(2)
C4A C 1.2381(2) -0.0810(2) 0.1382(2)
N3A N 1.3532(2) 0.0311(2) -0.1131(2)
N2A N 0.9834(2) -0.1546(2) 0.2964(2)
N1A N 1.3293(2) -0.1217(2) 0.1901(2)
C1 C 0.8818(2) 0.0372(2) 0.9310(2)
C2 C 1.0060(2) 0.0492(2) 0.8922(2)
C3 C 0.8748(2) -0.0118(2) 1.0385(2)
C4 C 0.7619(2) 0.0810(2) 0.8618(2)
C5 C 1.0125(2) 0.1057(2) 0.7855(2)
C6 C 0.7468(2) -0.0237(2) 1.0789(2)
N1 N 0.6707(2) 0.1217(2) 0.8099(2)
N2 N 1.0166(2) 0.1546(2) 0.7036(2)
N3 N 0.6468(2) -0.0311(2) 1.1131(2)
C3A C 1.1252(2) 0.0118(2) 0.9615(2)
C2A C 0.9940(2) -0.0492(2) 1.1078(2)
C1A C 1.1182(2) -0.0372(2) 1.0690(2)
C6A C 1.2532(2) 0.0237(2) 0.9211(2)
C5A C 0.9875(2) -0.1057(2) 1.2145(2)
C4A C 1.2381(2) -0.0810(2) 1.1382(2)
N3A N 1.3532(2) 0.0311(2) 0.8869(2)
N2A N 0.9834(2) -0.1546(2) 1.2964(2)
N1A N 1.3293(2) -0.1217(2) 1.1901(2)
C1 C 0.8818(2) 1.0372(2) -0.0690(2)
C2 C 1.0060(2) 1.0492(2) -0.1078(2)
C3 C 0.8748(2) 0.9882(2) 0.0385(2)
C4 C 0.7619(2) 1.0810(2) -0.1382(2)
C5 C 1.0125(2) 1.1057(2) -0.2145(2)
C6 C 0.7468(2) 0.9763(2) 0.0789(2)
N1 N 0.6707(2) 1.1217(2) -0.1901(2)
N2 N 1.0166(2) 1.1546(2) -0.2964(2)
N3 N 0.6468(2) 0.9689(2) 0.1131(2)
C3A C 1.1252(2) 1.0118(2) -0.0385(2)
C2A C 0.9940(2) 0.9508(2) 0.1078(2)
C1A C 1.1182(2) 0.9628(2) 0.0690(2)
C6A C 1.2532(2) 1.0237(2) -0.0789(2)
C5A C 0.9875(2) 0.8943(2) 0.2145(2)
C4A C 1.2381(2) 0.9190(2) 0.1382(2)
N3A N 1.3532(2) 1.0311(2) -0.1131(2)
N2A N 0.9834(2) 0.8454(2) 0.2964(2)
N1A N 1.3293(2) 0.8783(2) 0.1901(2)
C1 C 0.8818(2) 1.0372(2) 0.9310(2)
C2 C 1.0060(2) 1.0492(2) 0.8922(2)
C3 C 0.8748(2) 0.9882(2) 1.0385(2)
C4 C 0.7619(2) 1.0810(2) 0.8618(2)
C5 C 1.0125(2) 1.1057(2) 0.7855(2)
C6 C 0.7468(2) 0.9763(2) 1.0789(2)
N1 N 0.6707(2) 1.1217(2) 0.8099(2)
N2 N 1.0166(2) 1.1546(2) 0.7036(2)
N3 N 0.6468(2) 0.9689(2) 1.1131(2)
C3A C 1.1252(2) 1.0118(2) 0.9615(2)
C2A C 0.9940(2) 0.9508(2) 1.1078(2)
C1A C 1.1182(2) 0.9628(2) 1.0690(2)
C6A C 1.2532(2) 1.0237(2) 0.9211(2)
C5A C 0.9875(2) 0.8943(2) 1.2145(2)
C4A C 1.2381(2) 0.9190(2) 1.1382(2)
N3A N 1.3532(2) 1.0311(2) 0.8869(2)
N2A N 0.9834(2) 0.8454(2) 1.2964(2)
N1A N 1.3293(2) 0.8783(2) 1.1901(2)
C7 C 0.7179(2) 0.7374(2) 0.5876(2)
C8 C 0.6720(2) 0.6915(2) 0.6845(2)
C9 C 0.7618(2) 0.6436(2) 0.7745(2)
C10 C 0.8994(2) 0.6434(2) 0.7687(2)
C11 C 0.9489(2) 0.6930(2) 0.6769(2)
C12 C 0.8580(2) 0.7401(2) 0.5868(2)
C13 C 0.6721(2) 0.8306(3) 0.3982(2)
C14 C 0.4819(2) 0.7802(4) 0.5000(3)
C15 C 0.5685(3) 0.5926(4) 0.8717(4)
C16 C 0.7901(4) 0.5150(4) 0.9344(5)
C17 C 1.1800(3) 0.6270(3) 0.7456(3)
C18 C 1.1373(2) 0.7290(3) 0.5691(3)
N4 N 0.6262(1) 0.7787(2) 0.4943(2)
N5 N 0.7149(2) 0.6014(3) 0.8726(3)
N6 N 1.0891(2) 0.7018(2) 0.6803(2)
H1 H 0.5655 0.6706 0.6589
H2 H 0.96702 0.61734 0.82484
H3 H 0.89086 0.77546 0.52639
H4 H 0.60230 0.86990 0.35930
H5 H 0.76390 0.90390 0.44280
H6 H 0.7252 0.7647 0.3147
H7 H 0.42910 0.79310 0.40890
H8 H 0.4849 0.8613 0.5995
H9 H 0.4379 0.6685 0.4939
H10 H 0.5699 0.5160 0.9125
H11 H 0.5275 0.6921 0.8687
H12 H 0.4912 0.5099 0.7682
H13 H 0.9162 0.5702 0.9896
H14 H 0.8261 0.4300 0.8649
H15 H 0.7263 0.4723 0.9940
H16 H 1.1545 0.6300 0.8255
H17 H 1.1533 0.5321 0.7210
H18 H 1.2467 0.6303 0.6736
H19 H 1.1225 0.8108 0.5683
H20 H 1.0863 0.6641 0.4475
H21 H 1.2460 0.7939 0.6269
C7 C 0.2821(2) 0.2626(2) 0.4124(2)
C8 C 0.3280(2) 0.3085(2) 0.3155(2)
C9 C 0.2382(2) 0.3564(2) 0.2255(2)
C10 C 0.1006(2) 0.3566(2) 0.2313(2)
C11 C 0.0511(2) 0.3070(2) 0.3231(2)
C12 C 0.1420(2) 0.2599(2) 0.4132(2)
C13 C 0.3279(2) 0.1694(3) 0.6018(2)
C14 C 0.5181(2) 0.2198(4) 0.5000(3)
C15 C 0.4315(3) 0.4074(4) 0.1283(4)
C16 C 0.2099(4) 0.4850(4) 0.0656(5)
C17 C -0.1800(3) 0.3730(3) 0.2544(3)
C18 C -0.1373(2) 0.2710(3) 0.4309(3)
N4 N 0.3738(1) 0.2213(2) 0.5057(2)
N5 N 0.2851(2) 0.3986(3) 0.1274(3)
N6 N -0.0891(2) 0.2982(2) 0.3197(2)
H1 H 0.4345 0.3294 0.3411
H2 H 0.03298 0.38266 0.17516
H3 H 0.10914 0.22454 0.47361
H4 H 0.39770 0.13010 0.64070
H5 H 0.23610 0.09610 0.55720
H6 H 0.2748 0.2353 0.6853
H7 H 0.57090 0.20690 0.59110
H8 H 0.5151 0.1387 0.4005
H9 H 0.5621 0.3315 0.5061
H10 H 0.4301 0.4840 0.0875
H11 H 0.4725 0.3079 0.1313
H12 H 0.5088 0.4901 0.2318
H13 H 0.0838 0.4298 0.0104
H14 H 0.1739 0.5700 0.1351
H15 H 0.2737 0.5277 0.0060
H16 H -0.1545 0.3700 0.1745
H17 H -0.1533 0.4679 0.2790
H18 H -0.2467 0.3697 0.3264
H19 H -0.1225 0.1892 0.4317
H20 H -0.0863 0.3359 0.5525
H21 H -0.2460 0.2061 0.3731

#END
