
#######################################################################
#
#                 Cambridge Crystallographic Data Centre
#                                CCDC 
#
#######################################################################
#
# If this CIF has been generated from an entry in the Cambridge 
# Structural Database, then it will include bibliographic, chemical, 
# crystal, experimental, refinement or atomic coordinate data resulting 
# from the CCDC's data processing and validation procedures.
#
#######################################################################

data_ABAJOE
_symmetry_cell_setting           monoclinic
_symmetry_space_group_name_H-M   'P 21/c'
_symmetry_Int_Tables_number      14
_space_group_name_Hall           '-P 2ybc'
loop_
_symmetry_equiv_pos_site_id
_symmetry_equiv_pos_as_xyz
1 x,y,z
2 -x,1/2+y,1/2-z
3 -x,-y,-z
4 x,1/2-y,1/2+z
_cell_length_a                   8.190(8)
_cell_length_b                   13.914(3)
_cell_length_c                   11.675(4)
_cell_angle_alpha                90
_cell_angle_beta                 102.38(2)
_cell_angle_gamma                90
_cell_volume                     1299.5
loop_
_atom_site_label
_atom_site_type_symbol
_atom_site_fract_x
_atom_site_fract_y
_atom_site_fract_z
N1 N 0.0863(3) 0.54749(15) 0.22101(19)
C1 C 0.1226(3) 0.45544(18) 0.1820(2)
O1 O 0.0815(2) 0.38150(13) 0.22548(16)
C2 C 0.2076(3) 0.47398(16) 0.0895(2)
N2 N 0.2102(2) 0.57470(13) 0.07555(17)
C3 C 0.2755(3) 0.62878(19) -0.0013(2)
H1 H 0.3244 0.5997 -0.0574
C4 C 0.2675(4) 0.7264(2) 0.0060(3)
H2 H 0.3118 0.7641 -0.0457
C5 C 0.1947(4) 0.7704(2) 0.0887(3)
H3 H 0.1903 0.8371 0.0920
C6 C 0.1292(4) 0.71635(19) 0.1653(3)
H4 H 0.0801 0.7453 0.2213
C7 C 0.1377(3) 0.61773(18) 0.1577(2)
C8 C -0.0063(4) 0.5623(2) 0.3124(3)
H5 H 0.0696 0.5797 0.3840
H6 H -0.0636 0.5041 0.3240
H7 H -0.0863 0.6129 0.2895
C9 C 0.2748(3) 0.40950(17) 0.0162(2)
O2 O 0.3115(3) 0.43543(13) -0.07607(15)
C10 C 0.3064(3) 0.30759(17) 0.0552(2)
C11 C 0.3762(3) 0.28280(17) 0.1699(2)
H8 H 0.3955 0.3304 0.2271
C12 C 0.4177(3) 0.18918(18) 0.2012(2)
H9 H 0.4654 0.1733 0.2785
C13 C 0.3869(3) 0.11962(17) 0.1154(2)
Cl1 Cl 0.43791(11) 0.00078(5) 0.15427(8)
C14 C 0.3144(3) 0.14142(17) 0.0010(2)
H10 H 0.2914 0.0931 -0.0552
C15 C 0.2766(3) 0.23515(18) -0.0291(2)
H11 H 0.2305 0.2507 -0.1068
N1 N 0.9137(3) 1.04749(15) 0.27899(19)
C1 C 0.8774(3) 0.95544(18) 0.3180(2)
O1 O 0.9185(2) 0.88150(13) 0.27452(16)
C2 C 0.7924(3) 0.97398(16) 0.4105(2)
N2 N 0.7898(2) 1.07470(13) 0.42445(17)
C3 C 0.7245(3) 1.12878(19) 0.5013(2)
H1 H 0.6756 1.0997 0.5574
C4 C 0.7325(4) 1.2264(2) 0.4940(3)
H2 H 0.6882 1.2641 0.5457
C5 C 0.8053(4) 1.2704(2) 0.4113(3)
H3 H 0.8097 1.3371 0.4080
C6 C 0.8708(4) 1.21635(19) 0.3347(3)
H4 H 0.9199 1.2453 0.2787
C7 C 0.8623(3) 1.11773(18) 0.3423(2)
C8 C 1.0063(4) 1.0623(2) 0.1876(3)
H5 H 0.9304 1.0797 0.1160
H6 H 1.0636 1.0041 0.1760
H7 H 1.0863 1.1129 0.2105
C9 C 0.7252(3) 0.90950(17) 0.4838(2)
O2 O 0.6885(3) 0.93543(13) 0.57607(15)
C10 C 0.6936(3) 0.80759(17) 0.4448(2)
C11 C 0.6238(3) 0.78280(17) 0.3301(2)
H8 H 0.6045 0.8304 0.2729
C12 C 0.5823(3) 0.68918(18) 0.2988(2)
H9 H 0.5346 0.6733 0.2215
C13 C 0.6131(3) 0.61962(17) 0.3846(2)
Cl1 Cl 0.56209(11) 0.50078(5) 0.34573(8)
C14 C 0.6856(3) 0.64142(17) 0.4990(2)
H10 H 0.7086 0.5931 0.5552
C15 C 0.7234(3) 0.73515(18) 0.5291(2)
H11 H 0.7695 0.7507 0.6068
N1 N 0.9137(3) 0.45251(15) 0.77899(19)
C1 C 0.8774(3) 0.54456(18) 0.8180(2)
O1 O 0.9185(2) 0.61850(13) 0.77452(16)
C2 C 0.7924(3) 0.52602(16) 0.9105(2)
N2 N 0.7898(2) 0.42530(13) 0.92445(17)
C3 C 0.7245(3) 0.37122(19) 1.0013(2)
H1 H 0.6756 0.4003 1.0574
C4 C 0.7325(4) 0.2736(2) 0.9940(3)
H2 H 0.6882 0.2359 1.0457
C5 C 0.8053(4) 0.2296(2) 0.9113(3)
H3 H 0.8097 0.1629 0.9080
C6 C 0.8708(4) 0.28365(19) 0.8347(3)
H4 H 0.9199 0.2547 0.7787
C7 C 0.8623(3) 0.38227(18) 0.8423(2)
C8 C 1.0063(4) 0.4377(2) 0.6876(3)
H5 H 0.9304 0.4203 0.6160
H6 H 1.0636 0.4959 0.6760
H7 H 1.0863 0.3871 0.7105
C9 C 0.7252(3) 0.59050(17) 0.9838(2)
O2 O 0.6885(3) 0.56457(13) 1.07607(15)
C10 C 0.6936(3) 0.69241(17) 0.9448(2)
C11 C 0.6238(3) 0.71720(17) 0.8301(2)
H8 H 0.6045 0.6696 0.7729
C12 C 0.5823(3) 0.81082(18) 0.7988(2)
H9 H 0.5346 0.8267 0.7215
C13 C 0.6131(3) 0.88038(17) 0.8846(2)
Cl1 Cl 0.56209(11) 0.99922(5) 0.84573(8)
C14 C 0.6856(3) 0.85858(17) 0.9990(2)
H10 H 0.7086 0.9069 1.0552
C15 C 0.7234(3) 0.76485(18) 1.0291(2)
H11 H 0.7695 0.7493 1.1068
N1 N 0.0863(3) -0.04749(15) 0.72101(19)
C1 C 0.1226(3) 0.04456(18) 0.6820(2)
O1 O 0.0815(2) 0.11850(13) 0.72548(16)
C2 C 0.2076(3) 0.02602(16) 0.5895(2)
N2 N 0.2102(2) -0.07470(13) 0.57555(17)
C3 C 0.2755(3) -0.12878(19) 0.4987(2)
H1 H 0.3244 -0.0997 0.4426
C4 C 0.2675(4) -0.2264(2) 0.5060(3)
H2 H 0.3118 -0.2641 0.4543
C5 C 0.1947(4) -0.2704(2) 0.5887(3)
H3 H 0.1903 -0.3371 0.5920
C6 C 0.1292(4) -0.21635(19) 0.6653(3)
H4 H 0.0801 -0.2453 0.7213
C7 C 0.1377(3) -0.11773(18) 0.6577(2)
C8 C -0.0063(4) -0.0623(2) 0.8124(3)
H5 H 0.0696 -0.0797 0.8840
H6 H -0.0636 -0.0041 0.8240
H7 H -0.0863 -0.1129 0.7895
C9 C 0.2748(3) 0.09050(17) 0.5162(2)
O2 O 0.3115(3) 0.06457(13) 0.42393(15)
C10 C 0.3064(3) 0.19241(17) 0.5552(2)
C11 C 0.3762(3) 0.21720(17) 0.6699(2)
H8 H 0.3955 0.1696 0.7271
C12 C 0.4177(3) 0.31082(18) 0.7012(2)
H9 H 0.4654 0.3267 0.7785
C13 C 0.3869(3) 0.38038(17) 0.6154(2)
Cl1 Cl 0.43791(11) 0.49922(5) 0.65427(8)
C14 C 0.3144(3) 0.35858(17) 0.5010(2)
H10 H 0.2914 0.4069 0.4448
C15 C 0.2766(3) 0.26485(18) 0.4709(2)
H11 H 0.2305 0.2493 0.3932

#END
