
#######################################################################
#
#                 Cambridge Crystallographic Data Centre
#                                CCDC 
#
#######################################################################
#
# If this CIF has been generated from an entry in the Cambridge 
# Structural Database, then it will include bibliographic, chemical, 
# crystal, experimental, refinement or atomic coordinate data resulting 
# from the CCDC's data processing and validation procedures.
#
#######################################################################

data_ABAKEV02
_symmetry_cell_setting           monoclinic
_symmetry_space_group_name_H-M   'P 21/c'
_symmetry_Int_Tables_number      14
_space_group_name_Hall           '-P 2ybc'
loop_
_symmetry_equiv_pos_site_id
_symmetry_equiv_pos_as_xyz
1 x,y,z
2 -x,1/2+y,1/2-z
3 -x,-y,-z
4 x,1/2-y,1/2+z
_cell_length_a                   7.1752(2)
_cell_length_b                   21.6841(6)
_cell_length_c                   10.7764(3)
_cell_angle_alpha                90
_cell_angle_beta                 110.035(2)
_cell_angle_gamma                90
_cell_volume                     1575.21
loop_
_atom_site_label
_atom_site_type_symbol
_atom_site_fract_x
_atom_site_fract_y
_atom_site_fract_z
O1 O 1.0563(2) 0.01624(8) 0.83227(16)
N1 N 0.7635(2) -0.03586(6) 0.52205(15)
C1 C 0.9666(3) -0.01483(11) 0.7400(2)
H1 H 0.9699 -0.0573 0.7531
C2 C 0.8507(2) 0.00796(8) 0.60669(17)
C3 C 0.8385(3) 0.07070(8) 0.57583(19)
H2 H 0.9056 0.0995 0.6393
C4 C 0.7284(3) 0.08907(9) 0.45320(19)
H3 H 0.7181 0.1307 0.4314
C5 C 0.6296(2) 0.04498(8) 0.35899(17)
C6 C 0.6525(2) -0.01786(8) 0.39661(17)
C7 C 0.5608(3) -0.06340(10) 0.3035(2)
H4 H 0.5759 -0.1048 0.3271
C8 C 0.4499(3) -0.04677(12) 0.1787(2)
H5 H 0.3908 -0.0772 0.1169
C9 C 0.4230(3) 0.01474(13) 0.1414(2)
H6 H 0.3438 0.0250 0.0557
C10 C 0.5107(3) 0.06002(10) 0.2283(2)
H7 H 0.4925 0.1011 0.2019
O1 O -0.0563(2) 0.51624(8) -0.33227(16)
N1 N 0.2365(2) 0.46414(6) -0.02205(15)
C1 C 0.0334(3) 0.48517(11) -0.2400(2)
H1 H 0.0301 0.4427 -0.2531
C2 C 0.1493(2) 0.50796(8) -0.10669(17)
C3 C 0.1615(3) 0.57070(8) -0.07583(19)
H2 H 0.0944 0.5995 -0.1393
C4 C 0.2716(3) 0.58907(9) 0.04680(19)
H3 H 0.2819 0.6307 0.0686
C5 C 0.3704(2) 0.54498(8) 0.14101(17)
C6 C 0.3475(2) 0.48214(8) 0.10339(17)
C7 C 0.4392(3) 0.43660(10) 0.1965(2)
H4 H 0.4241 0.3952 0.1729
C8 C 0.5501(3) 0.45323(12) 0.3213(2)
H5 H 0.6092 0.4228 0.3831
C9 C 0.5770(3) 0.51474(13) 0.3586(2)
H6 H 0.6562 0.5250 0.4443
C10 C 0.4893(3) 0.56002(10) 0.2717(2)
H7 H 0.5075 0.6011 0.2981
O1 O -0.0563(2) 0.98376(8) 0.16773(16)
N1 N 0.2365(2) 1.03586(6) 0.47795(15)
C1 C 0.0334(3) 1.01483(11) 0.2600(2)
H1 H 0.0301 1.0573 0.2469
C2 C 0.1493(2) 0.99204(8) 0.39331(17)
C3 C 0.1615(3) 0.92930(8) 0.42417(19)
H2 H 0.0944 0.9005 0.3607
C4 C 0.2716(3) 0.91093(9) 0.54680(19)
H3 H 0.2819 0.8693 0.5686
C5 C 0.3704(2) 0.95502(8) 0.64101(17)
C6 C 0.3475(2) 1.01786(8) 0.60339(17)
C7 C 0.4392(3) 1.06340(10) 0.6965(2)
H4 H 0.4241 1.1048 0.6729
C8 C 0.5501(3) 1.04677(12) 0.8213(2)
H5 H 0.6092 1.0772 0.8831
C9 C 0.5770(3) 0.98526(13) 0.8586(2)
H6 H 0.6562 0.9750 0.9443
C10 C 0.4893(3) 0.93998(10) 0.7717(2)
H7 H 0.5075 0.8989 0.7981
O1 O 1.0563(2) 0.48376(8) 1.33227(16)
N1 N 0.7635(2) 0.53586(6) 1.02205(15)
C1 C 0.9666(3) 0.51483(11) 1.2400(2)
H1 H 0.9699 0.5573 1.2531
C2 C 0.8507(2) 0.49204(8) 1.10669(17)
C3 C 0.8385(3) 0.42930(8) 1.07583(19)
H2 H 0.9056 0.4005 1.1393
C4 C 0.7284(3) 0.41093(9) 0.95320(19)
H3 H 0.7181 0.3693 0.9314
C5 C 0.6296(2) 0.45502(8) 0.85899(17)
C6 C 0.6525(2) 0.51786(8) 0.89661(17)
C7 C 0.5608(3) 0.56340(10) 0.8035(2)
H4 H 0.5759 0.6048 0.8271
C8 C 0.4499(3) 0.54677(12) 0.6787(2)
H5 H 0.3908 0.5772 0.6169
C9 C 0.4230(3) 0.48526(13) 0.6414(2)
H6 H 0.3438 0.4750 0.5557
C10 C 0.5107(3) 0.43998(10) 0.7283(2)
H7 H 0.4925 0.3989 0.7019
O2 O -0.3798(2) 0.28207(8) 0.72280(17)
N2 N -0.0657(2) 0.22889(7) 0.56226(15)
C11 C -0.2890(3) 0.24987(11) 0.6735(2)
H8 H -0.3012 0.2074 0.6802
C12 C -0.1592(3) 0.27249(8) 0.60290(18)
C13 C -0.1388(3) 0.33555(8) 0.58333(19)
H9 H -0.2091 0.3644 0.6136
C14 C -0.0157(3) 0.35389(9) 0.52006(19)
H10 H -0.0004 0.3956 0.5062
C15 C 0.0896(3) 0.30960(8) 0.47508(17)
C16 C 0.0597(3) 0.24700(8) 0.49822(18)
C17 C 0.1609(3) 0.20132(9) 0.4528(2)
H11 H 0.1425 0.1598 0.4671
C18 C 0.2855(3) 0.21822(12) 0.3880(2)
H12 H 0.3521 0.1880 0.3585
C19 C 0.3149(3) 0.28013(12) 0.3652(2)
H13 H 0.4008 0.2908 0.3208
C20 C 0.2194(3) 0.32460(10) 0.4072(2)
H14 H 0.2396 0.3658 0.3911
O2 O 1.3798(2) 0.78207(8) 0.77720(17)
N2 N 1.0657(2) 0.72889(7) 0.93774(15)
C11 C 1.2890(3) 0.74987(11) 0.8265(2)
H8 H 1.3012 0.7074 0.8198
C12 C 1.1592(3) 0.77249(8) 0.89710(18)
C13 C 1.1388(3) 0.83555(8) 0.91667(19)
H9 H 1.2091 0.8644 0.8864
C14 C 1.0157(3) 0.85389(9) 0.97994(19)
H10 H 1.0004 0.8956 0.9938
C15 C 0.9104(3) 0.80960(8) 1.02492(17)
C16 C 0.9403(3) 0.74700(8) 1.00178(18)
C17 C 0.8391(3) 0.70132(9) 1.0472(2)
H11 H 0.8575 0.6598 1.0329
C18 C 0.7145(3) 0.71822(12) 1.1120(2)
H12 H 0.6479 0.6880 1.1415
C19 C 0.6851(3) 0.78013(12) 1.1348(2)
H13 H 0.5992 0.7908 1.1792
C20 C 0.7806(3) 0.82460(10) 1.0928(2)
H14 H 0.7604 0.8658 1.1089
O2 O 1.3798(2) 0.71793(8) 0.27720(17)
N2 N 1.0657(2) 0.77111(7) 0.43774(15)
C11 C 1.2890(3) 0.75013(11) 0.3265(2)
H8 H 1.3012 0.7926 0.3198
C12 C 1.1592(3) 0.72751(8) 0.39710(18)
C13 C 1.1388(3) 0.66445(8) 0.41667(19)
H9 H 1.2091 0.6356 0.3864
C14 C 1.0157(3) 0.64611(9) 0.47994(19)
H10 H 1.0004 0.6044 0.4938
C15 C 0.9104(3) 0.69040(8) 0.52492(17)
C16 C 0.9403(3) 0.75300(8) 0.50178(18)
C17 C 0.8391(3) 0.79868(9) 0.5472(2)
H11 H 0.8575 0.8402 0.5329
C18 C 0.7145(3) 0.78178(12) 0.6120(2)
H12 H 0.6479 0.8120 0.6415
C19 C 0.6851(3) 0.71987(12) 0.6348(2)
H13 H 0.5992 0.7092 0.6792
C20 C 0.7806(3) 0.67540(10) 0.5928(2)
H14 H 0.7604 0.6342 0.6089
O2 O -0.3798(2) 0.21793(8) 0.22280(17)
N2 N -0.0657(2) 0.27111(7) 0.06226(15)
C11 C -0.2890(3) 0.25013(11) 0.1735(2)
H8 H -0.3012 0.2926 0.1802
C12 C -0.1592(3) 0.22751(8) 0.10290(18)
C13 C -0.1388(3) 0.16445(8) 0.08333(19)
H9 H -0.2091 0.1356 0.1136
C14 C -0.0157(3) 0.14611(9) 0.02006(19)
H10 H -0.0004 0.1044 0.0062
C15 C 0.0896(3) 0.19040(8) -0.02492(17)
C16 C 0.0597(3) 0.25300(8) -0.00178(18)
C17 C 0.1609(3) 0.29868(9) -0.0472(2)
H11 H 0.1425 0.3402 -0.0329
C18 C 0.2855(3) 0.28178(12) -0.1120(2)
H12 H 0.3521 0.3120 -0.1415
C19 C 0.3149(3) 0.21987(12) -0.1348(2)
H13 H 0.4008 0.2092 -0.1792
C20 C 0.2194(3) 0.17540(10) -0.0928(2)
H14 H 0.2396 0.1342 -0.1089

#END
