
#######################################################################
#
#                 Cambridge Crystallographic Data Centre
#                                CCDC 
#
#######################################################################
#
# If this CIF has been generated from an entry in the Cambridge 
# Structural Database, then it will include bibliographic, chemical, 
# crystal, experimental, refinement or atomic coordinate data resulting 
# from the CCDC's data processing and validation procedures.
#
#######################################################################

data_ABAQOL
_symmetry_cell_setting           monoclinic
_symmetry_space_group_name_H-M   'P 21/c'
_symmetry_Int_Tables_number      14
_space_group_name_Hall           '-P 2ybc'
loop_
_symmetry_equiv_pos_site_id
_symmetry_equiv_pos_as_xyz
1 x,y,z
2 -x,1/2+y,1/2-z
3 -x,-y,-z
4 x,1/2-y,1/2+z
_cell_length_a                   16.9941(13)
_cell_length_b                   5.8895(5)
_cell_length_c                   12.0930(9)
_cell_angle_alpha                90
_cell_angle_beta                 91.7700(10)
_cell_angle_gamma                90
_cell_volume                     1209.77
loop_
_atom_site_label
_atom_site_type_symbol
_atom_site_fract_x
_atom_site_fract_y
_atom_site_fract_z
S1 S 0.14776(2) 0.26324(6) 0.56813(2)
Cl1 Cl 0.03783(2) 1.00056(7) 0.32558(4)
N1 N 0.24962(6) 0.23101(16) 0.41312(8)
N2 N 0.31988(7) -0.07810(19) 0.44194(8)
N3 N 0.26554(7) -0.06213(19) 0.52726(9)
C1 C 0.35771(8) -0.0067(2) 0.19026(10)
H1 H 0.3299 -0.1423 0.1940
C2 C 0.40171(9) 0.0410(3) 0.09818(11)
H2 H 0.4029 -0.0621 0.0400
C3 C 0.44371(8) 0.2413(3) 0.09278(12)
H3 H 0.4736 0.2719 0.0314
C4 C 0.44144(8) 0.3969(2) 0.17883(11)
H4 H 0.4698 0.5316 0.1750
C5 C 0.39691(7) 0.3515(2) 0.27057(10)
H5 H 0.3948 0.4566 0.3278
C6 C 0.35531(6) 0.1482(2) 0.27673(9)
C7 C 0.30952(7) 0.0965(2) 0.37544(9)
C8 C 0.22587(7) 0.1233(2) 0.50709(9)
C9 C 0.20460(6) 0.42020(19) 0.38183(9)
C10 C 0.21108(7) 0.5535(2) 0.28811(9)
H6 H 0.2495 0.5239 0.2369
C11 C 0.15893(8) 0.7317(2) 0.27264(11)
H7 H 0.1620 0.8234 0.2103
C12 C 0.10195(7) 0.7744(2) 0.34998(11)
C13 C 0.09432(7) 0.6425(2) 0.44419(10)
H8 H 0.0559 0.6734 0.4952
C14 C 0.14623(7) 0.4629(2) 0.45909(9)
S1 S 0.85224(2) 0.76324(6) -0.06813(2)
Cl1 Cl 0.96217(2) 1.50056(7) 0.17442(4)
N1 N 0.75038(6) 0.73101(16) 0.08688(8)
N2 N 0.68012(7) 0.42190(19) 0.05806(8)
N3 N 0.73446(7) 0.43787(19) -0.02726(9)
C1 C 0.64229(8) 0.4933(2) 0.30974(10)
H1 H 0.6701 0.3577 0.3060
C2 C 0.59829(9) 0.5410(3) 0.40182(11)
H2 H 0.5971 0.4379 0.4600
C3 C 0.55629(8) 0.7413(3) 0.40722(12)
H3 H 0.5264 0.7719 0.4686
C4 C 0.55856(8) 0.8969(2) 0.32117(11)
H4 H 0.5302 1.0316 0.3250
C5 C 0.60309(7) 0.8515(2) 0.22943(10)
H5 H 0.6052 0.9566 0.1722
C6 C 0.64469(6) 0.6482(2) 0.22327(9)
C7 C 0.69048(7) 0.5965(2) 0.12456(9)
C8 C 0.77413(7) 0.6233(2) -0.00709(9)
C9 C 0.79540(6) 0.92020(19) 0.11817(9)
C10 C 0.78892(7) 1.0535(2) 0.21189(9)
H6 H 0.7505 1.0239 0.2631
C11 C 0.84107(8) 1.2317(2) 0.22736(11)
H7 H 0.8380 1.3234 0.2897
C12 C 0.89805(7) 1.2744(2) 0.15002(11)
C13 C 0.90568(7) 1.1425(2) 0.05581(10)
H8 H 0.9441 1.1734 0.0048
C14 C 0.85377(7) 0.9629(2) 0.04091(9)
S1 S 0.85224(2) 0.73676(6) 0.43187(2)
Cl1 Cl 0.96217(2) -0.00056(7) 0.67442(4)
N1 N 0.75038(6) 0.76899(16) 0.58688(8)
N2 N 0.68012(7) 1.07810(19) 0.55806(8)
N3 N 0.73446(7) 1.06213(19) 0.47274(9)
C1 C 0.64229(8) 1.0067(2) 0.80974(10)
H1 H 0.6701 1.1423 0.8060
C2 C 0.59829(9) 0.9590(3) 0.90182(11)
H2 H 0.5971 1.0621 0.9600
C3 C 0.55629(8) 0.7587(3) 0.90722(12)
H3 H 0.5264 0.7281 0.9686
C4 C 0.55856(8) 0.6031(2) 0.82117(11)
H4 H 0.5302 0.4684 0.8250
C5 C 0.60309(7) 0.6485(2) 0.72943(10)
H5 H 0.6052 0.5434 0.6722
C6 C 0.64469(6) 0.8518(2) 0.72327(9)
C7 C 0.69048(7) 0.9035(2) 0.62456(9)
C8 C 0.77413(7) 0.8767(2) 0.49291(9)
C9 C 0.79540(6) 0.57980(19) 0.61817(9)
C10 C 0.78892(7) 0.4465(2) 0.71189(9)
H6 H 0.7505 0.4761 0.7631
C11 C 0.84107(8) 0.2683(2) 0.72736(11)
H7 H 0.8380 0.1766 0.7897
C12 C 0.89805(7) 0.2256(2) 0.65002(11)
C13 C 0.90568(7) 0.3575(2) 0.55581(10)
H8 H 0.9441 0.3266 0.5048
C14 C 0.85377(7) 0.5371(2) 0.54091(9)
S1 S 0.14776(2) 0.23676(6) 1.06813(2)
Cl1 Cl 0.03783(2) -0.50056(7) 0.82558(4)
N1 N 0.24962(6) 0.26899(16) 0.91312(8)
N2 N 0.31988(7) 0.57810(19) 0.94194(8)
N3 N 0.26554(7) 0.56213(19) 1.02726(9)
C1 C 0.35771(8) 0.5067(2) 0.69026(10)
H1 H 0.3299 0.6423 0.6940
C2 C 0.40171(9) 0.4590(3) 0.59818(11)
H2 H 0.4029 0.5621 0.5400
C3 C 0.44371(8) 0.2587(3) 0.59278(12)
H3 H 0.4736 0.2281 0.5314
C4 C 0.44144(8) 0.1031(2) 0.67883(11)
H4 H 0.4698 -0.0316 0.6750
C5 C 0.39691(7) 0.1485(2) 0.77057(10)
H5 H 0.3948 0.0434 0.8278
C6 C 0.35531(6) 0.3518(2) 0.77673(9)
C7 C 0.30952(7) 0.4035(2) 0.87544(9)
C8 C 0.22587(7) 0.3767(2) 1.00709(9)
C9 C 0.20460(6) 0.07980(19) 0.88183(9)
C10 C 0.21108(7) -0.0535(2) 0.78811(9)
H6 H 0.2495 -0.0239 0.7369
C11 C 0.15893(8) -0.2317(2) 0.77264(11)
H7 H 0.1620 -0.3234 0.7103
C12 C 0.10195(7) -0.2744(2) 0.84998(11)
C13 C 0.09432(7) -0.1425(2) 0.94419(10)
H8 H 0.0559 -0.1734 0.9952
C14 C 0.14623(7) 0.0371(2) 0.95909(9)

#END
