
#######################################################################
#
#                 Cambridge Crystallographic Data Centre
#                                CCDC 
#
#######################################################################
#
# If this CIF has been generated from an entry in the Cambridge 
# Structural Database, then it will include bibliographic, chemical, 
# crystal, experimental, refinement or atomic coordinate data resulting 
# from the CCDC's data processing and validation procedures.
#
#######################################################################

data_ABAXOR
_symmetry_cell_setting           triclinic
_symmetry_space_group_name_H-M   'P -1'
_symmetry_Int_Tables_number      2
_space_group_name_Hall           '-P 1'
loop_
_symmetry_equiv_pos_site_id
_symmetry_equiv_pos_as_xyz
1 x,y,z
2 -x,-y,-z
_cell_length_a                   8.548(2)
_cell_length_b                   10.347(4)
_cell_length_c                   14.667(3)
_cell_angle_alpha                96.19(2)
_cell_angle_beta                 102.92(1)
_cell_angle_gamma                110.07(2)
_cell_volume                     1163.23
loop_
_atom_site_label
_atom_site_type_symbol
_atom_site_fract_x
_atom_site_fract_y
_atom_site_fract_z
Sn1 Sn 1.01833(7) 0.30253(6) 0.26555(4)
C1 C 0.8745(12) 0.1522(11) 0.4915(7)
H1 H 0.9851 0.1516 0.5133
C2 C 0.8518(11) 0.2456(9) 0.4366(6)
C3 C 0.8091(13) 0.3196(15) 0.1615(8)
H2 H 0.7862 0.3956 0.1948
C4 C 0.5731(10) 0.0502(8) 0.4869(5)
C5 C 1.2611(10) 0.4674(8) 0.2669(6)
H3 H 1.2726 0.4578 0.2018
C6 C 0.7402(12) 0.0588(11) 0.5159(7)
H4 H 0.7641 -0.002 0.5542
C7 C 1.2651(12) 0.6134(9) 0.2962(7)
H5 H 1.1719 0.6261 0.2513
H6 H 1.2455 0.6232 0.3588
C8 C 0.8856(14) -0.0268(10) 0.2317(9)
H7 H 0.7945 -0.0293 0.1776
H8 H 0.8461 -0.0202 0.2885
C9 C 0.6815(13) 0.2356(12) 0.4035(7)
H9 H 0.6587 0.2954 0.3641
C10 C 0.9959(12) 0.3523(10) 0.4075(7)
H10 H 1.1055 0.3672 0.4526
H11 H 0.9798 0.4409 0.4141
C11 C 1.4359(15) 0.7262(9) 0.2993(8)
H12 H 1.4361 0.8175 0.3228
H13 H 1.449 0.7243 0.2352
C12 C 1.4138(12) 0.4484(10) 0.3309(8)
H14 H 1.4135 0.3568 0.3079
H15 H 1.4005 0.4507 0.395
C13 C 0.5466(12) 0.1420(12) 0.4263(8)
H16 H 0.435 0.1387 0.4013
C14 C 0.5574(18) 0.288(2) -0.0197(10)
H17 H 0.5622 0.2138 -0.0642
H18 H 0.4697 0.319 -0.0532
C15 C 1.0479(11) 0.1014(9) 0.2427(7)
H19 H 1.1356 0.1021 0.2989
C16 C 1.5883(13) 0.7051(11) 0.3637(9)
H20 H 1.6959 0.7754 0.3609
H21 H 1.5825 0.7182 0.4291
C17 C 0.9200(18) -0.1621(11) 0.2165(9)
H22 H 1.0035 -0.1634 0.273
H23 H 0.8132 -0.2424 0.207
C18 C 1.152(2) -0.0495(13) 0.1441(12)
H24 H 1.1932 -0.0566 0.0881
H25 H 1.2404 -0.0478 0.1991
C19 C 1.1160(18) 0.0862(12) 0.1582(10)
H26 H 1.2226 0.1663 0.1667
H27 H 1.0324 0.086 0.1012
C20 C 0.9882(16) -0.1734(11) 0.1318(9)
H28 H 0.902 -0.1779 0.0746
H29 H 1.0109 -0.259 0.1243
C21 C 1.5885(13) 0.5616(13) 0.3348(11)
H30 H 1.6809 0.5491 0.3804
H31 H 1.6095 0.5523 0.2726
C22 C 0.6371(15) 0.2006(18) 0.1314(11)
H32 H 0.5971 0.1821 0.1873
H33 H 0.6507 0.117 0.1036
C23 C 0.8644(16) 0.3764(18) 0.0787(10)
H34 H 0.8995 0.3101 0.045
H35 H 0.965 0.4635 0.1035
C24 C 0.5019(16) 0.228(2) 0.0600(11)
H36 H 0.4027 0.1408 0.0336
H37 H 0.4635 0.2924 0.0937
C25 C 0.7238(19) 0.4047(17) 0.0068(11)
H38 H 0.7109 0.4885 0.0347
H39 H 0.7608 0.4219 -0.0502
C4A C 0.4269(10) -0.0502(8) 0.5131(5)
C6A C 0.2598(12) -0.0588(11) 0.4841(7)
C1A C 0.1255(12) -0.1522(11) 0.5085(7)
H1A H 0.0149 -0.1516 0.4867
C2A C 0.1482(11) -0.2456(9) 0.5634(6)
C9A C 0.3185(13) -0.2356(12) 0.5965(7)
H9A H 0.3413 -0.2954 0.6359
C13A C 0.4534(12) -0.1420(12) 0.5737(8)
H16A H 0.565 -0.1387 0.5987
C10A C 0.0041(12) -0.3523(10) 0.5925(7)
Sn1A Sn -0.01833(7) -0.30253(6) 0.73445(4)
C3A C 0.1909(13) -0.3196(15) 0.8385(8)
H2A H 0.2138 -0.3956 0.8052
C22A C 0.3629(15) -0.2006(18) 0.8686(11)
H32A H 0.4029 -0.1821 0.8127
H33A H 0.3493 -0.117 0.8964
C24A C 0.4981(16) -0.228(2) 0.9400(11)
C14A C 0.4426(18) -0.288(2) 1.0197(10)
H17A H 0.4378 -0.2138 1.0642
H18A H 0.5303 -0.319 1.0532
C25A C 0.2762(19) -0.4047(17) 0.9932(11)
C23A C 0.1356(16) -0.3764(18) 0.9213(10)
H34A H 0.1005 -0.3101 0.955
H35A H 0.035 -0.4635 0.8965
H38A H 0.2891 -0.4885 0.9653
H39A H 0.2392 -0.4219 1.0502
H36A H 0.5973 -0.1408 0.9664
H37A H 0.5365 -0.2924 0.9063
C5A C -0.2611(10) -0.4674(8) 0.7331(6)
H3A H -0.2726 -0.4578 0.7982
C7A C -0.2651(12) -0.6134(9) 0.7038(7)
H5A H -0.1719 -0.6261 0.7487
H6A H -0.2455 -0.6232 0.6412
C11A C -0.4359(15) -0.7262(9) 0.7007(8)
H12A H -0.4361 -0.8175 0.6772
H13A H -0.449 -0.7243 0.7648
C16A C -0.5883(13) -0.7051(11) 0.6363(9)
H20A H -0.6959 -0.7754 0.6391
H21A H -0.5825 -0.7182 0.5709
C21A C -0.5885(13) -0.5616(13) 0.6652(11)
C12A C -0.4138(12) -0.4484(10) 0.6691(8)
H14A H -0.4135 -0.3568 0.6921
H15A H -0.4005 -0.4507 0.605
H30A H -0.6809 -0.5491 0.6196
H31A H -0.6095 -0.5523 0.7274
C15A C -0.0479(11) -0.1014(9) 0.7573(7)
C8A C 0.1144(14) 0.0268(10) 0.7683(9)
H7A H 0.2055 0.0293 0.8224
H8A H 0.1539 0.0202 0.7115
C17A C 0.0800(18) 0.1621(11) 0.7835(9)
H22A H -0.0035 0.1634 0.727
H23A H 0.1868 0.2424 0.793
C20A C 0.0118(16) 0.1734(11) 0.8682(9)
C18A C -0.152(2) 0.0495(13) 0.8559(12)
H24A H -0.1932 0.0566 0.9119
H25A H -0.2404 0.0478 0.8009
C19A C -0.1160(18) -0.0862(12) 0.8418(10)
H19A H -0.1356 -0.1021 0.7011
H26A H -0.2226 -0.1663 0.8333
H27A H -0.0324 -0.086 0.8988
H28A H 0.098 0.1779 0.9254
H29A H -0.0109 0.259 0.8757
H10A H -0.1055 -0.3672 0.5474
H11A H 0.0202 -0.4409 0.5859
H4A H 0.2359 0.002 0.4458
Sn1 Sn 1.01833(7) 1.30253(6) 0.26555(4)
C1 C 0.8745(12) 1.1522(11) 0.4915(7)
H1 H 0.9851 1.1516 0.5133
C2 C 0.8518(11) 1.2456(9) 0.4366(6)
C3 C 0.8091(13) 1.3196(15) 0.1615(8)
H2 H 0.7862 1.3956 0.1948
C4 C 0.5731(10) 1.0502(8) 0.4869(5)
C5 C 1.2611(10) 1.4674(8) 0.2669(6)
H3 H 1.2726 1.4578 0.2018
C6 C 0.7402(12) 1.0588(11) 0.5159(7)
H4 H 0.7641 0.998 0.5542
C7 C 1.2651(12) 1.6134(9) 0.2962(7)
H5 H 1.1719 1.6261 0.2513
H6 H 1.2455 1.6232 0.3588
C8 C 0.8856(14) 0.9732(10) 0.2317(9)
H7 H 0.7945 0.9707 0.1776
H8 H 0.8461 0.9798 0.2885
C9 C 0.6815(13) 1.2356(12) 0.4035(7)
H9 H 0.6587 1.2954 0.3641
C10 C 0.9959(12) 1.3523(10) 0.4075(7)
H10 H 1.1055 1.3672 0.4526
H11 H 0.9798 1.4409 0.4141
C11 C 1.4359(15) 1.7262(9) 0.2993(8)
H12 H 1.4361 1.8175 0.3228
H13 H 1.449 1.7243 0.2352
C12 C 1.4138(12) 1.4484(10) 0.3309(8)
H14 H 1.4135 1.3568 0.3079
H15 H 1.4005 1.4507 0.395
C13 C 0.5466(12) 1.1420(12) 0.4263(8)
H16 H 0.435 1.1387 0.4013
C14 C 0.5574(18) 1.288(2) -0.0197(10)
H17 H 0.5622 1.2138 -0.0642
H18 H 0.4697 1.319 -0.0532
C15 C 1.0479(11) 1.1014(9) 0.2427(7)
H19 H 1.1356 1.1021 0.2989
C16 C 1.5883(13) 1.7051(11) 0.3637(9)
H20 H 1.6959 1.7754 0.3609
H21 H 1.5825 1.7182 0.4291
C17 C 0.9200(18) 0.8379(11) 0.2165(9)
H22 H 1.0035 0.8366 0.273
H23 H 0.8132 0.7576 0.207
C18 C 1.152(2) 0.9505(13) 0.1441(12)
H24 H 1.1932 0.9434 0.0881
H25 H 1.2404 0.9522 0.1991
C19 C 1.1160(18) 1.0862(12) 0.1582(10)
H26 H 1.2226 1.1663 0.1667
H27 H 1.0324 1.086 0.1012
C20 C 0.9882(16) 0.8266(11) 0.1318(9)
H28 H 0.902 0.8221 0.0746
H29 H 1.0109 0.741 0.1243
C21 C 1.5885(13) 1.5616(13) 0.3348(11)
H30 H 1.6809 1.5491 0.3804
H31 H 1.6095 1.5523 0.2726
C22 C 0.6371(15) 1.2006(18) 0.1314(11)
H32 H 0.5971 1.1821 0.1873
H33 H 0.6507 1.117 0.1036
C23 C 0.8644(16) 1.3764(18) 0.0787(10)
H34 H 0.8995 1.3101 0.045
H35 H 0.965 1.4635 0.1035
C24 C 0.5019(16) 1.228(2) 0.0600(11)
H36 H 0.4027 1.1408 0.0336
H37 H 0.4635 1.2924 0.0937
C25 C 0.7238(19) 1.4047(17) 0.0068(11)
H38 H 0.7109 1.4885 0.0347
H39 H 0.7608 1.4219 -0.0502
C4A C 0.4269(10) 0.9498(8) 0.5131(5)
C6A C 0.2598(12) 0.9412(11) 0.4841(7)
C1A C 0.1255(12) 0.8478(11) 0.5085(7)
H1A H 0.0149 0.8484 0.4867
C2A C 0.1482(11) 0.7544(9) 0.5634(6)
C9A C 0.3185(13) 0.7644(12) 0.5965(7)
H9A H 0.3413 0.7046 0.6359
C13A C 0.4534(12) 0.8580(12) 0.5737(8)
H16A H 0.565 0.8613 0.5987
C10A C 0.0041(12) 0.6477(10) 0.5925(7)
Sn1A Sn -0.01833(7) 0.69747(6) 0.73445(4)
C3A C 0.1909(13) 0.6804(15) 0.8385(8)
H2A H 0.2138 0.6044 0.8052
C22A C 0.3629(15) 0.7994(18) 0.8686(11)
H32A H 0.4029 0.8179 0.8127
H33A H 0.3493 0.883 0.8964
C24A C 0.4981(16) 0.772(2) 0.9400(11)
C14A C 0.4426(18) 0.712(2) 1.0197(10)
H17A H 0.4378 0.7862 1.0642
H18A H 0.5303 0.681 1.0532
C25A C 0.2762(19) 0.5953(17) 0.9932(11)
C23A C 0.1356(16) 0.6236(18) 0.9213(10)
H34A H 0.1005 0.6899 0.955
H35A H 0.035 0.5365 0.8965
H38A H 0.2891 0.5115 0.9653
H39A H 0.2392 0.5781 1.0502
H36A H 0.5973 0.8592 0.9664
H37A H 0.5365 0.7076 0.9063
C5A C -0.2611(10) 0.5326(8) 0.7331(6)
H3A H -0.2726 0.5422 0.7982
C7A C -0.2651(12) 0.3866(9) 0.7038(7)
H5A H -0.1719 0.3739 0.7487
H6A H -0.2455 0.3768 0.6412
C11A C -0.4359(15) 0.2738(9) 0.7007(8)
H12A H -0.4361 0.1825 0.6772
H13A H -0.449 0.2757 0.7648
C16A C -0.5883(13) 0.2949(11) 0.6363(9)
H20A H -0.6959 0.2246 0.6391
H21A H -0.5825 0.2818 0.5709
C21A C -0.5885(13) 0.4384(13) 0.6652(11)
C12A C -0.4138(12) 0.5516(10) 0.6691(8)
H14A H -0.4135 0.6432 0.6921
H15A H -0.4005 0.5493 0.605
H30A H -0.6809 0.4509 0.6196
H31A H -0.6095 0.4477 0.7274
C15A C -0.0479(11) 0.8986(9) 0.7573(7)
C8A C 0.1144(14) 1.0268(10) 0.7683(9)
H7A H 0.2055 1.0293 0.8224
H8A H 0.1539 1.0202 0.7115
C17A C 0.0800(18) 1.1621(11) 0.7835(9)
H22A H -0.0035 1.1634 0.727
H23A H 0.1868 1.2424 0.793
C20A C 0.0118(16) 1.1734(11) 0.8682(9)
C18A C -0.152(2) 1.0495(13) 0.8559(12)
H24A H -0.1932 1.0566 0.9119
H25A H -0.2404 1.0478 0.8009
C19A C -0.1160(18) 0.9138(12) 0.8418(10)
H19A H -0.1356 0.8979 0.7011
H26A H -0.2226 0.8337 0.8333
H27A H -0.0324 0.914 0.8988
H28A H 0.098 1.1779 0.9254
H29A H -0.0109 1.259 0.8757
H10A H -0.1055 0.6328 0.5474
H11A H 0.0202 0.5591 0.5859
H4A H 0.2359 1.002 0.4458

#END
