
#######################################################################
#
#                 Cambridge Crystallographic Data Centre
#                                CCDC 
#
#######################################################################
#
# If this CIF has been generated from an entry in the Cambridge 
# Structural Database, then it will include bibliographic, chemical, 
# crystal, experimental, refinement or atomic coordinate data resulting 
# from the CCDC's data processing and validation procedures.
#
#######################################################################

data_ABEFAQ
_symmetry_cell_setting           triclinic
_symmetry_space_group_name_H-M   'P -1'
_symmetry_Int_Tables_number      2
_space_group_name_Hall           '-P 1'
loop_
_symmetry_equiv_pos_site_id
_symmetry_equiv_pos_as_xyz
1 x,y,z
2 -x,-y,-z
_cell_length_a                   8.9761(4)
_cell_length_b                   11.3076(5)
_cell_length_c                   12.2970(5)
_cell_angle_alpha                63.7884(5)
_cell_angle_beta                 78.2742(5)
_cell_angle_gamma                73.1019(5)
_cell_volume                     1067.35
loop_
_atom_site_label
_atom_site_type_symbol
_atom_site_fract_x
_atom_site_fract_y
_atom_site_fract_z
O1 O -0.09521(10) 0.45717(9) 0.15673(9)
O2 O 0.01881(11) 0.61568(9) 0.12916(9)
O3 O 0.08790(10) 0.40842(10) 0.38921(9)
C1 C 0.03358(15) 0.49715(13) 0.15481(11)
C2 C 0.19171(14) 0.39756(12) 0.16745(11)
H1 H 0.2428 0.4200 0.0827
C3 C 0.18809(14) 0.24652(12) 0.21878(11)
H2 H 0.1679 0.2131 0.3093
C4 C 0.05263(14) 0.23119(12) 0.17075(11)
H3 H 0.0688 0.2698 0.0799
C5 C -0.09967(14) 0.31441(13) 0.20682(12)
H4 H -0.1156 0.2792 0.2976
C6 C 0.30149(14) 0.41638(12) 0.23664(11)
H5 H 0.3965 0.3407 0.2468
C7 C 0.35914(16) 0.54860(13) 0.17163(13)
H6 H 0.4050 0.5584 0.0895
H7 H 0.4382 0.5460 0.2176
H8 H 0.2709 0.6256 0.1664
C8 C 0.22843(14) 0.39926(12) 0.36426(12)
C9 C 0.33112(15) 0.37086(13) 0.45849(12)
C10 C 0.26473(18) 0.39975(14) 0.55913(13)
H9 H 0.1564 0.4403 0.5653
C11 C 0.3561(2) 0.36952(16) 0.65057(14)
H10 H 0.3104 0.3896 0.7190
C12 C 0.5132(2) 0.31036(16) 0.64215(15)
H11 H 0.5753 0.2891 0.7052
C13 C 0.58037(18) 0.28200(16) 0.54262(15)
H12 H 0.6888 0.2416 0.5370
C14 C 0.49058(16) 0.31216(15) 0.45109(13)
H13 H 0.5377 0.2928 0.3825
C15 C 0.34592(14) 0.16438(12) 0.19063(12)
C16 C 0.43784(16) 0.06983(13) 0.28396(14)
H14 H 0.4005 0.0550 0.3659
C17 C 0.58423(17) -0.00349(15) 0.25860(17)
H15 H 0.6464 -0.0675 0.3231
C18 C 0.63878(18) 0.01667(16) 0.14056(18)
H16 H 0.7386 -0.0335 0.1234
C19 C 0.54865(17) 0.10982(16) 0.04672(16)
H17 H 0.5864 0.1234 -0.0349
C20 C 0.40322(16) 0.18357(15) 0.07145(14)
H18 H 0.3421 0.2478 0.0064
C21 C 0.04590(14) 0.08453(12) 0.21534(12)
C22 C 0.00959(17) 0.00671(14) 0.33722(13)
H19 H -0.0113 0.0457 0.3947
C23 C 0.00343(18) -0.12728(15) 0.37590(15)
H20 H -0.0227 -0.1789 0.4594
C24 C 0.03495(17) -0.18595(15) 0.29391(17)
H21 H 0.0314 -0.2779 0.3207
C25 C 0.07173(17) -0.10984(15) 0.17235(16)
H22 H 0.0939 -0.1495 0.1153
C26 C 0.07627(16) 0.02460(14) 0.13362(13)
H23 H 0.1006 0.0764 0.0498
C27 C -0.24057(15) 0.31175(14) 0.15950(13)
H24 H -0.3341 0.3686 0.1838
H25 H -0.2533 0.2185 0.1935
H26 H -0.2259 0.3464 0.0705
O1 O 1.09521(10) 0.54283(9) 0.84327(9)
O2 O 0.98119(11) 0.38432(9) 0.87084(9)
O3 O 0.91210(10) 0.59158(10) 0.61079(9)
C1 C 0.96642(15) 0.50285(13) 0.84519(11)
C2 C 0.80829(14) 0.60244(12) 0.83255(11)
H1 H 0.7572 0.5800 0.9173
C3 C 0.81191(14) 0.75348(12) 0.78122(11)
H2 H 0.8321 0.7869 0.6907
C4 C 0.94737(14) 0.76881(12) 0.82925(11)
H3 H 0.9312 0.7302 0.9201
C5 C 1.09967(14) 0.68559(13) 0.79318(12)
H4 H 1.1156 0.7208 0.7024
C6 C 0.69851(14) 0.58362(12) 0.76336(11)
H5 H 0.6035 0.6593 0.7532
C7 C 0.64086(16) 0.45140(13) 0.82837(13)
H6 H 0.5950 0.4416 0.9105
H7 H 0.5618 0.4540 0.7824
H8 H 0.7291 0.3744 0.8336
C8 C 0.77157(14) 0.60074(12) 0.63574(12)
C9 C 0.66888(15) 0.62914(13) 0.54151(12)
C10 C 0.73527(18) 0.60025(14) 0.44087(13)
H9 H 0.8436 0.5597 0.4347
C11 C 0.6439(2) 0.63048(16) 0.34943(14)
H10 H 0.6896 0.6104 0.2810
C12 C 0.4868(2) 0.68964(16) 0.35785(15)
H11 H 0.4247 0.7109 0.2948
C13 C 0.41963(18) 0.71800(16) 0.45738(15)
H12 H 0.3112 0.7584 0.4630
C14 C 0.50942(16) 0.68784(15) 0.54891(13)
H13 H 0.4623 0.7072 0.6175
C15 C 0.65408(14) 0.83562(12) 0.80937(12)
C16 C 0.56216(16) 0.93017(13) 0.71604(14)
H14 H 0.5995 0.9450 0.6341
C17 C 0.41577(17) 1.00349(15) 0.74140(17)
H15 H 0.3536 1.0675 0.6769
C18 C 0.36122(18) 0.98333(16) 0.85944(18)
H16 H 0.2614 1.0335 0.8766
C19 C 0.45135(17) 0.89018(16) 0.95328(16)
H17 H 0.4136 0.8766 1.0349
C20 C 0.59678(16) 0.81643(15) 0.92855(14)
H18 H 0.6579 0.7522 0.9936
C21 C 0.95410(14) 0.91547(12) 0.78466(12)
C22 C 0.99041(17) 0.99329(14) 0.66278(13)
H19 H 1.0113 0.9543 0.6053
C23 C 0.99657(18) 1.12728(15) 0.62410(15)
H20 H 1.0227 1.1789 0.5406
C24 C 0.96505(17) 1.18595(15) 0.70609(17)
H21 H 0.9686 1.2779 0.6793
C25 C 0.92827(17) 1.10984(15) 0.82765(16)
H22 H 0.9061 1.1495 0.8847
C26 C 0.92373(16) 0.97540(14) 0.86638(13)
H23 H 0.8994 0.9236 0.9502
C27 C 1.24057(15) 0.68825(14) 0.84050(13)
H24 H 1.3341 0.6314 0.8162
H25 H 1.2533 0.7815 0.8065
H26 H 1.2259 0.6536 0.9295

#END
