./MAPXOR_from_POSCAR.cif_generated_by_CrystalShift
_symmetry_cell_setting triclinic
_symmetry_space_group_name_H-M 'P 1'
loop_
_symmetry_equiv_pos_site_id
_symmetry_equiv_pos_as_xyz
1 x,y,z
_cell_length_a 8.920000
_cell_length_b 16.524000
_cell_length_c 9.857000
_cell_angle_alpha 90.000000
_cell_angle_beta 93.836000
_cell_angle_gamma 90.000000
_cell_volume 1449.608495
loop_
_atom_site_label
_atom_site_type_symbol
_atom_site_fract_x
_atom_site_fract_y
_atom_site_fract_z
H1 H 1.024590 -0.034710 0.301420
H2 H 1.264420 -0.070600 0.424730
H3 H 1.121350 0.078970 0.562850
H4 H 1.239750 0.134130 0.502020
H5 H 1.499080 -0.000690 0.371930
H6 H 1.017400 0.273100 0.810800
H7 H 1.490890 0.103730 0.191640
H8 H 1.279760 0.210740 0.710960
H9 H 1.133960 0.153870 0.772580
H10 H 1.251590 0.139310 0.068720
H11 H 0.900050 0.027940 0.095090
H12 H 0.993320 0.100400 0.002750
H13 H 0.772720 0.333310 0.859160
H14 H 0.757500 0.432430 0.791850
H15 H 0.927430 0.400280 0.877920
H16 H 0.740880 0.289950 0.202610
H17 H 0.509200 0.338980 0.081390
H18 H 0.725880 0.423320 0.456330
H19 H 0.383200 0.257240 -0.102550
H20 H 0.492980 0.373840 0.335770
H21 H 0.492980 0.126160 -0.164230
H22 H 0.383200 0.242760 0.397450
H23 H 0.725880 0.076680 -0.043670
H24 H 0.509200 0.161020 0.581390
H25 H 0.927430 0.099720 0.377920
H26 H 0.740880 0.210050 0.702610
H27 H 0.757500 0.067570 0.291850
H28 H 0.993320 0.399600 0.502750
H29 H 0.900050 0.472060 0.595090
H30 H 0.772720 0.166690 0.359160
H31 H 1.133960 0.346130 0.272580
H32 H 1.251590 0.360690 0.568720
H33 H 1.279760 0.289260 0.210960
H34 H 1.490890 0.396270 0.691640
H35 H 1.017400 0.226900 0.310800
H36 H 1.499080 0.500690 0.871930
H37 H 1.239750 0.365870 0.002020
H38 H 1.264420 0.570600 0.924730
H39 H 1.121350 0.421030 0.062850
H40 H 1.024590 0.534710 0.801420
H41 H -0.024590 0.465290 0.198580
H42 H -0.264420 0.429400 0.075270
H43 H -0.121350 0.578970 0.937150
H44 H -0.239750 0.634130 0.997980
H45 H -0.499080 0.499310 0.128070
H46 H -0.017400 0.773100 0.689200
H47 H -0.490890 0.603730 0.308360
H48 H -0.279760 0.710740 0.789040
H49 H -0.133960 0.653870 0.727420
H50 H -0.251590 0.639310 0.431280
H51 H 0.099950 0.527940 0.404910
H52 H 0.006680 0.600400 0.497250
H53 H 0.227280 0.833310 0.640840
H54 H 0.242500 0.932430 0.708150
H55 H 0.072570 0.900280 0.622080
H56 H 0.259120 0.789950 0.297390
H57 H 0.490800 0.838980 0.418610
H58 H 0.274120 0.923320 1.043670
H59 H 0.616800 0.757240 0.602550
H60 H 0.507020 0.873840 1.164230
H61 H 0.507020 0.626160 0.664230
H62 H 0.616800 0.742760 1.102550
H63 H 0.274120 0.576680 0.543670
H64 H 0.490800 0.661020 0.918610
H65 H 0.072570 0.599720 0.122080
H66 H 0.259120 0.710050 0.797390
H67 H 0.242500 0.567570 0.208150
H68 H 0.006680 0.899600 0.997250
H69 H 0.099950 0.972060 0.904910
H70 H 0.227280 0.666690 0.140840
H71 H -0.133960 0.846130 0.227420
H72 H -0.251590 0.860690 0.931280
H73 H -0.279760 0.789260 0.289040
H74 H -0.490890 0.896270 0.808360
H75 H -0.017400 0.726900 0.189200
H76 H -0.499080 1.000690 0.628070
H77 H -0.239750 0.865870 0.497980
H78 H -0.264420 1.070600 0.575270
H79 H -0.121350 0.921030 0.437150
H80 H -0.024590 1.034710 0.698580
C81 C 1.126500 -0.003680 0.277600
C82 C 1.176700 0.178840 0.681200
C83 C -0.126500 1.003680 0.722400
C84 C -0.261800 1.024150 0.652900
C85 C 1.388600 0.073440 0.216500
C86 C -0.393600 0.985320 0.682800
C87 C -0.176700 0.821160 0.318800
C88 C -0.388600 0.926560 0.783500
C89 C -0.253300 0.906370 0.852400
C90 C -0.063000 0.760160 0.379320
C91 C 0.111900 0.648960 0.323810
C92 C 0.167700 0.618490 0.188700
C93 C -0.119800 0.943600 0.822440
C94 C 0.027800 0.919370 0.895530
C95 C 0.312800 0.746360 0.878210
C96 C 0.248700 0.679870 0.411640
C97 C 0.320900 0.634310 0.515610
C98 C 0.443600 0.718640 0.946200
C99 C 0.452400 0.662250 0.583600
C100 C 0.514300 0.764210 1.049300
C101 C 0.514300 0.735790 0.549300
C102 C 0.452400 0.837750 1.083600
C103 C 0.443600 0.781360 0.446200
C104 C 0.320900 0.865690 1.015610
C105 C 0.312800 0.753640 0.378210
C106 C 0.248700 0.820130 0.911640
C107 C 0.027800 0.580630 0.395530
C108 C 0.167700 0.881510 0.688700
C109 C 0.111900 0.851040 0.823810
C110 C -0.119800 0.556400 0.322440
C111 C -0.253300 0.593630 0.352400
C112 C -0.063000 0.739840 0.879320
C113 C -0.388600 0.573440 0.283500
C114 C -0.176700 0.678840 0.818800
C115 C -0.393600 0.514680 0.182800
C116 C 1.063000 0.239840 0.620680
C117 C -0.261800 0.475850 0.152900
C118 C 1.393600 0.014680 0.317200
C119 C -0.126500 0.496320 0.222400
C120 C 1.253300 0.093630 0.147600
C121 C 1.261800 -0.024150 0.347100
C122 C 1.119800 0.056400 0.177560
C123 C 1.126500 0.503680 0.777600
C124 C 1.261800 0.524150 0.847100
C125 C 0.888100 0.351040 0.676190
C126 C 1.393600 0.485320 0.817200
C127 C 1.176700 0.321160 0.181200
C128 C 1.388600 0.426560 0.716500
C129 C 1.253300 0.406370 0.647600
C130 C 1.063000 0.260160 0.120680
C131 C 0.888100 0.148960 0.176190
C132 C 0.832300 0.118490 0.311300
C133 C 1.119800 0.443600 0.677560
C134 C 0.972200 0.419370 0.604470
C135 C 0.687200 0.246360 0.621790
C136 C 0.751300 0.179870 0.088360
C137 C 0.679100 0.134310 -0.015610
C138 C 0.556400 0.218640 0.553800
C139 C 0.547600 0.162250 -0.083600
C140 C 0.485700 0.264210 0.450700
C141 C 0.485700 0.235790 -0.049300
C142 C 0.547600 0.337750 0.416400
C143 C 0.556400 0.281360 0.053800
C144 C 0.679100 0.365690 0.484390
C145 C 0.687200 0.253640 0.121790
C146 C 0.751300 0.320130 0.588360
C147 C 0.972200 0.080630 0.104470
C148 C 0.832300 0.381510 0.811300
N149 N 1.212000 0.387390 0.092800
N150 N 1.212000 0.112610 0.592800
N151 N 0.009070 0.783250 0.788870
N152 N 0.009070 0.716750 0.288870
N153 N -0.212000 0.887390 0.407200
N154 N -0.212000 0.612610 0.907200
N155 N 0.990930 0.216750 0.211130
N156 N 0.990930 0.283250 0.711130
O157 O -0.045860 0.749990 1.003760
O158 O 1.045860 0.250010 -0.003760
O159 O -0.045860 0.750010 0.503760
O160 O 1.045860 0.249990 0.496240

#END
