
#######################################################################
#
#                 Cambridge Crystallographic Data Centre
#                                CCDC 
#
#######################################################################
#
# If this CIF has been generated from an entry in the Cambridge 
# Structural Database, then it will include bibliographic, chemical, 
# crystal, experimental, refinement or atomic coordinate data resulting 
# from the CCDC's data processing and validation procedures.
#
#######################################################################

data_MAPYAG
_symmetry_cell_setting           monoclinic
_symmetry_space_group_name_H-M   'P 21/c'
_symmetry_Int_Tables_number      14
_space_group_name_Hall           '-P 2ybc'
loop_
_symmetry_equiv_pos_site_id
_symmetry_equiv_pos_as_xyz
1 x,y,z
2 -x,1/2+y,1/2-z
3 -x,-y,-z
4 x,1/2-y,1/2+z
_cell_length_a                   9.0611(6)
_cell_length_b                   7.1551(4)
_cell_length_c                   20.5051(18)
_cell_angle_alpha                90
_cell_angle_beta                 93.684(6)
_cell_angle_gamma                90
_cell_volume                     1326.66
loop_
_atom_site_label
_atom_site_type_symbol
_atom_site_fract_x
_atom_site_fract_y
_atom_site_fract_z
C1 C 0.9889(2) 0.3414(3) 0.71245(11)
H1 H 0.9665 0.4352 0.7416
C2 C 1.1347(3) 0.3091(3) 0.69805(13)
H2 H 1.2106 0.3799 0.7183
C3 C 1.1668(2) 0.1718(3) 0.65364(12)
H3 H 1.2646 0.1525 0.6440
C4 C 1.0563(2) 0.0619(3) 0.62303(11)
H4 H 1.0781 -0.0292 0.5928
C5 C 0.9131(2) 0.0933(3) 0.63932(9)
C6 C 0.8786(2) 0.2331(3) 0.68304(9)
C7 C 0.7168(2) 0.2345(3) 0.68607(10)
C8 C 0.6592(2) 0.0836(3) 0.64163(11)
C9 C 0.6249(3) 0.4114(3) 0.69170(13)
H5 H 0.6773 0.5290 0.6975
H6 H 0.5320 0.4191 0.6655
C10 C 0.6343(3) 0.2773(4) 0.74673(12)
H7 H 0.5472 0.2034 0.7541
H8 H 0.6925 0.3133 0.7861
C11 C 0.7730(2) -0.1586(3) 0.57454(10)
C12 C 0.6712(2) -0.1644(3) 0.52133(11)
H9 H 0.6128 -0.0604 0.5109
C13 C 0.6560(3) -0.3234(3) 0.48373(12)
H10 H 0.5853 -0.3286 0.4488
C14 C 0.7456(3) -0.4739(3) 0.49813(11)
C15 C 0.8506(3) -0.4688(3) 0.54961(12)
H11 H 0.9126 -0.5706 0.5582
C16 C 0.8632(2) -0.3106(3) 0.58838(11)
H12 H 0.9325 -0.3069 0.6238
Cl1 Cl 0.72477(9) -0.67334(10) 0.44990(4)
N1 N 0.78152(17) 0.0027(2) 0.61516(8)
O1 O 0.53138(16) 0.0359(3) 0.63031(9)
C1 C 0.0111(2) 0.8414(3) 0.78755(11)
H1 H 0.0335 0.9352 0.7584
C2 C -0.1347(3) 0.8091(3) 0.80195(13)
H2 H -0.2106 0.8799 0.7817
C3 C -0.1668(2) 0.6718(3) 0.84636(12)
H3 H -0.2646 0.6525 0.8560
C4 C -0.0563(2) 0.5619(3) 0.87697(11)
H4 H -0.0781 0.4708 0.9072
C5 C 0.0869(2) 0.5933(3) 0.86068(9)
C6 C 0.1214(2) 0.7331(3) 0.81696(9)
C7 C 0.2832(2) 0.7345(3) 0.81393(10)
C8 C 0.3408(2) 0.5836(3) 0.85837(11)
C9 C 0.3751(3) 0.9114(3) 0.80830(13)
H5 H 0.3227 1.0290 0.8025
H6 H 0.4680 0.9191 0.8345
C10 C 0.3657(3) 0.7773(4) 0.75327(12)
H7 H 0.4528 0.7034 0.7459
H8 H 0.3075 0.8133 0.7139
C11 C 0.2270(2) 0.3414(3) 0.92546(10)
C12 C 0.3288(2) 0.3356(3) 0.97867(11)
H9 H 0.3872 0.4396 0.9891
C13 C 0.3440(3) 0.1766(3) 1.01627(12)
H10 H 0.4147 0.1714 1.0512
C14 C 0.2544(3) 0.0261(3) 1.00187(11)
C15 C 0.1494(3) 0.0312(3) 0.95039(12)
H11 H 0.0874 -0.0706 0.9418
C16 C 0.1368(2) 0.1894(3) 0.91162(11)
H12 H 0.0675 0.1931 0.8762
Cl1 Cl 0.27523(9) -0.17334(10) 1.05010(4)
N1 N 0.21848(17) 0.5027(2) 0.88484(8)
O1 O 0.46862(16) 0.5359(3) 0.86969(9)
C1 C 0.0111(2) 0.6586(3) 0.28755(11)
H1 H 0.0335 0.5648 0.2584
C2 C -0.1347(3) 0.6909(3) 0.30195(13)
H2 H -0.2106 0.6201 0.2817
C3 C -0.1668(2) 0.8282(3) 0.34636(12)
H3 H -0.2646 0.8475 0.3560
C4 C -0.0563(2) 0.9381(3) 0.37697(11)
H4 H -0.0781 1.0292 0.4072
C5 C 0.0869(2) 0.9067(3) 0.36068(9)
C6 C 0.1214(2) 0.7669(3) 0.31696(9)
C7 C 0.2832(2) 0.7655(3) 0.31393(10)
C8 C 0.3408(2) 0.9164(3) 0.35837(11)
C9 C 0.3751(3) 0.5886(3) 0.30830(13)
H5 H 0.3227 0.4710 0.3025
H6 H 0.4680 0.5809 0.3345
C10 C 0.3657(3) 0.7227(4) 0.25327(12)
H7 H 0.4528 0.7966 0.2459
H8 H 0.3075 0.6867 0.2139
C11 C 0.2270(2) 1.1586(3) 0.42546(10)
C12 C 0.3288(2) 1.1644(3) 0.47867(11)
H9 H 0.3872 1.0604 0.4891
C13 C 0.3440(3) 1.3234(3) 0.51627(12)
H10 H 0.4147 1.3286 0.5512
C14 C 0.2544(3) 1.4739(3) 0.50187(11)
C15 C 0.1494(3) 1.4688(3) 0.45039(12)
H11 H 0.0874 1.5706 0.4418
C16 C 0.1368(2) 1.3106(3) 0.41162(11)
H12 H 0.0675 1.3069 0.3762
Cl1 Cl 0.27523(9) 1.67334(10) 0.55010(4)
N1 N 0.21848(17) 0.9973(2) 0.38484(8)
O1 O 0.46862(16) 0.9641(3) 0.36969(9)
C1 C 0.9889(2) 0.1586(3) 0.21245(11)
H1 H 0.9665 0.0648 0.2416
C2 C 1.1347(3) 0.1909(3) 0.19805(13)
H2 H 1.2106 0.1201 0.2183
C3 C 1.1668(2) 0.3282(3) 0.15364(12)
H3 H 1.2646 0.3475 0.1440
C4 C 1.0563(2) 0.4381(3) 0.12303(11)
H4 H 1.0781 0.5292 0.0928
C5 C 0.9131(2) 0.4067(3) 0.13932(9)
C6 C 0.8786(2) 0.2669(3) 0.18304(9)
C7 C 0.7168(2) 0.2655(3) 0.18607(10)
C8 C 0.6592(2) 0.4164(3) 0.14163(11)
C9 C 0.6249(3) 0.0886(3) 0.19170(13)
H5 H 0.6773 -0.0290 0.1975
H6 H 0.5320 0.0809 0.1655
C10 C 0.6343(3) 0.2227(4) 0.24673(12)
H7 H 0.5472 0.2966 0.2541
H8 H 0.6925 0.1867 0.2861
C11 C 0.7730(2) 0.6586(3) 0.07454(10)
C12 C 0.6712(2) 0.6644(3) 0.02133(11)
H9 H 0.6128 0.5604 0.0109
C13 C 0.6560(3) 0.8234(3) -0.01627(12)
H10 H 0.5853 0.8286 -0.0512
C14 C 0.7456(3) 0.9739(3) -0.00187(11)
C15 C 0.8506(3) 0.9688(3) 0.04961(12)
H11 H 0.9126 1.0706 0.0582
C16 C 0.8632(2) 0.8106(3) 0.08838(11)
H12 H 0.9325 0.8069 0.1238
Cl1 Cl 0.72477(9) 1.17334(10) -0.05010(4)
N1 N 0.78152(17) 0.4973(2) 0.11516(8)
O1 O 0.53138(16) 0.4641(3) 0.13031(9)

#END
