./MAPYAG_from_POSCAR.cif_generated_by_CrystalShift
_symmetry_cell_setting triclinic
_symmetry_space_group_name_H-M 'P 1'
loop_
_symmetry_equiv_pos_site_id
_symmetry_equiv_pos_as_xyz
1 x,y,z
_cell_length_a 9.061100
_cell_length_b 7.155100
_cell_length_c 20.505100
_cell_angle_alpha 90.000000
_cell_angle_beta 93.684000
_cell_angle_gamma 90.000000
_cell_volume 1326.661629
loop_
_atom_site_label
_atom_site_type_symbol
_atom_site_fract_x
_atom_site_fract_y
_atom_site_fract_z
H1 H 0.692500 0.186700 0.286100
H2 H 0.966500 0.435200 0.741600
H3 H 0.532000 0.080900 0.165500
H4 H 1.210600 0.379900 0.718300
H5 H 0.677300 -0.029000 0.197500
H6 H 1.264600 0.152500 0.644000
H7 H 1.078100 0.529200 0.092800
H8 H 1.078100 -0.029200 0.592800
H9 H 1.264600 0.347500 0.144000
H10 H 1.210600 0.120100 0.218300
H11 H 0.966500 0.064800 0.241600
H12 H 0.612800 0.560400 0.010900
H13 H 0.067500 1.306900 0.376200
H14 H 0.677300 0.529000 0.697500
H15 H 0.532000 0.419100 0.665500
H16 H 0.087400 1.570600 0.441800
H17 H 0.547200 0.203400 0.754100
H18 H 0.692500 0.313300 0.786100
H19 H 0.414700 1.328600 0.551200
H20 H 0.387200 1.060400 0.489100
H21 H 0.612800 -0.060400 0.510900
H22 H 0.307500 0.686700 0.213900
H23 H 0.585300 -0.328600 0.448800
H24 H 0.452800 0.796600 0.245900
H25 H 0.468000 0.580900 0.334500
H26 H 0.912600 -0.570600 0.558200
H27 H 0.322700 0.471000 0.302500
H28 H 0.932500 -0.306900 0.623800
H29 H 0.932500 0.806900 0.123800
H30 H -0.078100 1.029200 0.407200
H31 H 0.912600 1.070600 0.058200
H32 H -0.264600 0.847500 0.356000
H33 H 0.033500 0.935200 0.758400
H34 H -0.210600 0.620100 0.281700
H35 H -0.210600 0.879900 0.781700
H36 H 0.033500 0.564800 0.258400
H37 H -0.264600 0.652500 0.856000
H38 H 0.585300 0.828600 -0.051200
H39 H -0.078100 0.470800 0.907200
H40 H 0.067500 0.193100 0.876200
H41 H 0.087400 -0.070600 0.941800
H42 H 0.547200 0.296600 0.254100
H43 H 0.414700 0.171400 1.051200
H44 H 0.387200 0.439600 0.989100
H45 H 0.322700 1.029000 0.802500
H46 H 0.468000 0.919100 0.834500
H47 H 0.307500 0.813300 0.713900
H48 H 0.452800 0.703400 0.745900
C49 C 0.365700 0.777300 0.753270
C50 C 0.227000 0.341400 0.925460
C51 C 0.328800 0.335600 0.978670
C52 C 0.375100 0.911400 0.808300
C53 C 0.344000 0.176600 1.016270
C54 C 0.340800 0.583600 0.858370
C55 C 0.254400 0.026100 1.001870
C56 C 0.283200 0.734500 0.813930
C57 C 0.121400 0.733100 0.816960
C58 C 0.136800 0.189400 0.911620
C59 C 0.086900 0.593300 0.860680
C60 C 0.850600 0.968800 0.049610
C61 C 0.745600 0.973900 -0.001870
C62 C -0.056300 0.561900 0.876970
C63 C 0.011100 0.658600 0.287550
C64 C -0.166800 0.671800 0.846360
C65 C -0.134700 0.690900 0.301950
C66 C -0.134700 0.809100 0.801950
C67 C -0.166800 0.828200 0.346360
C68 C 0.011100 0.841400 0.787550
C69 C -0.056300 0.938100 0.376970
C70 C 0.863200 0.810600 0.088380
C71 C 0.086900 0.906700 0.360680
C72 C 0.121400 0.766900 0.316960
C73 C 0.283200 0.765500 0.313930
C74 C 0.340800 0.916400 0.358370
C75 C 0.375100 0.588600 0.308300
C76 C 0.863200 -0.310600 0.588380
C77 C 0.850600 -0.468800 0.549610
C78 C 0.365700 0.722700 0.253270
C79 C 0.745600 -0.473900 0.498130
C80 C 0.656000 -0.323400 0.483730
C81 C 0.227000 1.158600 0.425460
C82 C 0.328800 1.164400 0.478670
C83 C 0.671200 -0.164400 0.521330
C84 C 0.344000 1.323400 0.516270
C85 C 0.773000 -0.158600 0.574540
C86 C 0.254400 1.473900 0.501870
C87 C 0.149400 1.468800 0.450390
C88 C 0.634300 0.277300 0.746730
C89 C 0.136800 1.310600 0.411620
C90 C 0.624900 0.411400 0.691700
C91 C 0.656000 0.823400 -0.016270
C92 C 0.659200 0.083600 0.641630
C93 C 0.671200 0.664400 0.021330
C94 C 0.988900 0.158600 0.212450
C95 C 0.716800 0.234500 0.686070
C96 C 1.134700 0.190900 0.198050
C97 C 0.878600 0.233100 0.683040
C98 C 1.166800 0.328200 0.153640
C99 C 0.913100 0.093300 0.639320
C100 C 1.056300 0.438100 0.123030
C101 C 1.056300 0.061900 0.623030
C102 C 0.913100 0.406700 0.139320
C103 C 0.878600 0.266900 0.183040
C104 C 0.716800 0.265500 0.186070
C105 C 0.659200 0.416400 0.141630
C106 C 0.624900 0.088600 0.191700
C107 C 1.166800 0.171800 0.653640
C108 C 1.134700 0.309100 0.698050
C109 C 0.634300 0.222700 0.246730
C110 C 0.149400 0.031200 0.950390
C111 C 0.988900 0.341400 0.712450
C112 C 0.773000 0.658600 0.074540
N113 N 0.218480 0.997300 0.384840
N114 N 0.781520 0.497300 0.115160
N115 N 0.218480 0.502700 0.884840
N116 N 0.781520 0.002700 0.615160
O117 O 0.468620 0.535900 0.869690
O118 O 0.468620 0.964100 0.369690
O119 O 0.531380 0.035900 0.630310
O120 O 0.531380 0.464100 0.130310
Cl121 Cl 0.724770 1.173340 -0.050100
Cl122 Cl 0.275230 1.673340 0.550100
Cl123 Cl 0.724770 -0.673340 0.449900
Cl124 Cl 0.275230 -0.173340 1.050100

#END
