
#######################################################################
#
#                 Cambridge Crystallographic Data Centre
#                                CCDC 
#
#######################################################################
#
# If this CIF has been generated from an entry in the Cambridge 
# Structural Database, then it will include bibliographic, chemical, 
# crystal, experimental, refinement or atomic coordinate data resulting 
# from the CCDC's data processing and validation procedures.
#
#######################################################################

data_MAPYNM
_symmetry_cell_setting           triclinic
_symmetry_space_group_name_H-M   'P -1'
_symmetry_Int_Tables_number      2
_space_group_name_Hall           '-P 1'
loop_
_symmetry_equiv_pos_site_id
_symmetry_equiv_pos_as_xyz
1 x,y,z
2 -x,-y,-z
_cell_length_a                   8.886(13)
_cell_length_b                   8.235(10)
_cell_length_c                   7.871(9)
_cell_angle_alpha                90.38(2)
_cell_angle_beta                 79.78(3)
_cell_angle_gamma                63.22(6)
_cell_volume                     503.572
loop_
_atom_site_label
_atom_site_type_symbol
_atom_site_fract_x
_atom_site_fract_y
_atom_site_fract_z
O1 O 0.09750 0.22140 0.43860
O2 O 0.27900 0.27530 0.55060
O3 O 0.17030 0.16190 0.10020
O4 O 0.38120 0.21180 -0.02860
N1 N 0.46840 0.26620 0.25810
N2 N 0.30460 0.57540 0.23940
N3 N 0.22730 0.24410 0.42190
N4 N 0.28840 0.20090 0.10560
C1 C 0.62040 0.11780 0.27050
C2 C 0.75920 0.14060 0.27950
C3 C 0.74900 0.31450 0.27540
C4 C 0.60000 0.46120 0.26340
C5 C 0.45320 0.43970 0.25310
C6 C 0.27140 0.76400 0.23670
C7 C 0.32350 0.23780 0.26130
H1 H 0.61000 -0.00400 0.27400
H2 H 0.86100 0.03000 0.29000
H3 H 0.85300 0.33100 0.28600
H4 H 0.59100 0.58000 0.26800
H5 H 0.20200 0.55800 0.22300
H6 H 0.15300 0.84600 0.24000
H7 H 0.30300 0.80300 0.33500
H8 H 0.33800 0.78200 0.13400
O1 O 0.90250 0.77860 0.56140
O2 O 0.72100 0.72470 0.44940
O3 O 0.82970 0.83810 0.89980
O4 O 0.61880 0.78820 1.02860
N1 N 0.53160 0.73380 0.74190
N2 N 0.69540 0.42460 0.76060
N3 N 0.77270 0.75590 0.57810
N4 N 0.71160 0.79910 0.89440
C1 C 0.37960 0.88220 0.72950
C2 C 0.24080 0.85940 0.72050
C3 C 0.25100 0.68550 0.72460
C4 C 0.40000 0.53880 0.73660
C5 C 0.54680 0.56030 0.74690
C6 C 0.72860 0.23600 0.76330
C7 C 0.67650 0.76220 0.73870
H1 H 0.39000 1.00400 0.72600
H2 H 0.13900 0.97000 0.71000
H3 H 0.14700 0.66900 0.71400
H4 H 0.40900 0.42000 0.73200
H5 H 0.79800 0.44200 0.77700
H6 H 0.84700 0.15400 0.76000
H7 H 0.69700 0.19700 0.66500
H8 H 0.66200 0.21800 0.86600
O5 O 1.00280 0.59930 0.16310
H9 H 0.90100 0.64400 0.26500
H10 H 0.94300 0.68000 0.07600
O5 O -0.00280 0.40070 0.83690
H9 H 0.09900 0.35600 0.73500
H10 H 0.05700 0.32000 0.92400

#END
