
#######################################################################
#
#                 Cambridge Crystallographic Data Centre
#                                CCDC 
#
#######################################################################
#
# If this CIF has been generated from an entry in the Cambridge 
# Structural Database, then it will include bibliographic, chemical, 
# crystal, experimental, refinement or atomic coordinate data resulting 
# from the CCDC's data processing and validation procedures.
#
#######################################################################

data_MAPZPY
_symmetry_cell_setting           monoclinic
_symmetry_space_group_name_H-M   'C 2/c'
_symmetry_Int_Tables_number      15
_space_group_name_Hall           '-C 2yn'
loop_
_symmetry_equiv_pos_site_id
_symmetry_equiv_pos_as_xyz
1 x,y,z
2 1/2+x,1/2+y,z
3 -x,y,1/2-z
4 1/2-x,1/2+y,1/2-z
5 -x,-y,-z
6 1/2-x,1/2-y,-z
7 x,-y,1/2+z
8 1/2+x,1/2-y,1/2+z
_cell_length_a                   14.24(5)
_cell_length_b                   16.70(5)
_cell_length_c                   9.43(2)
_cell_angle_alpha                90
_cell_angle_beta                 110.5(5)
_cell_angle_gamma                90
_cell_volume                     2100.51
loop_
_atom_site_label
_atom_site_type_symbol
_atom_site_fract_x
_atom_site_fract_y
_atom_site_fract_z
C1 C 0.12130 0.50000 0.86760
C2 C 0.12960 0.58330 0.92780
C3 C 0.13810 0.19100 0.69200
C4 C 0.11810 0.02850 1.16460
C5 C 0.11460 0.10960 1.10240
C6 C 0.11040 0.18450 1.17560
C7 C 0.12040 0.35820 0.95710
C8 C 0.12980 0.32030 0.82700
C9 C 0.13080 0.23790 0.82830
C10 C 0.11300 0.24060 1.06690
N1 N 0.12640 0.11880 0.97110
N2 N 0.12250 0.44190 0.97610
N3 N 0.11220 0.32220 1.07470
N4 N 0.12490 0.20020 0.94850
O1 O 0.11970 0.48220 0.74010
C1 C 0.62130 1.00000 0.86760
C2 C 0.62960 1.08330 0.92780
C3 C 0.63810 0.69100 0.69200
C4 C 0.61810 0.52850 1.16460
C5 C 0.61460 0.60960 1.10240
C6 C 0.61040 0.68450 1.17560
C7 C 0.62040 0.85820 0.95710
C8 C 0.62980 0.82030 0.82700
C9 C 0.63080 0.73790 0.82830
C10 C 0.61300 0.74060 1.06690
N1 N 0.62640 0.61880 0.97110
N2 N 0.62250 0.94190 0.97610
N3 N 0.61220 0.82220 1.07470
N4 N 0.62490 0.70020 0.94850
O1 O 0.61970 0.98220 0.74010
C1 C 0.87870 0.50000 0.63240
C2 C 0.87040 0.58330 0.57220
C3 C 0.86190 0.19100 0.80800
C4 C 0.88190 0.02850 0.33540
C5 C 0.88540 0.10960 0.39760
C6 C 0.88960 0.18450 0.32440
C7 C 0.87960 0.35820 0.54290
C8 C 0.87020 0.32030 0.67300
C9 C 0.86920 0.23790 0.67170
C10 C 0.88700 0.24060 0.43310
N1 N 0.87360 0.11880 0.52890
N2 N 0.87750 0.44190 0.52390
N3 N 0.88780 0.32220 0.42530
N4 N 0.87510 0.20020 0.55150
O1 O 0.88030 0.48220 0.75990
C1 C 0.37870 1.00000 0.63240
C2 C 0.37040 1.08330 0.57220
C3 C 0.36190 0.69100 0.80800
C4 C 0.38190 0.52850 0.33540
C5 C 0.38540 0.60960 0.39760
C6 C 0.38960 0.68450 0.32440
C7 C 0.37960 0.85820 0.54290
C8 C 0.37020 0.82030 0.67300
C9 C 0.36920 0.73790 0.67170
C10 C 0.38700 0.74060 0.43310
N1 N 0.37360 0.61880 0.52890
N2 N 0.37750 0.94190 0.52390
N3 N 0.38780 0.82220 0.42530
N4 N 0.37510 0.70020 0.55150
O1 O 0.38030 0.98220 0.75990
C1 C 0.87870 0.50000 0.13240
C2 C 0.87040 0.41670 0.07220
C3 C 0.86190 0.80900 0.30800
C4 C 0.88190 0.97150 -0.16460
C5 C 0.88540 0.89040 -0.10240
C6 C 0.88960 0.81550 -0.17560
C7 C 0.87960 0.64180 0.04290
C8 C 0.87020 0.67970 0.17300
C9 C 0.86920 0.76210 0.17170
C10 C 0.88700 0.75940 -0.06690
N1 N 0.87360 0.88120 0.02890
N2 N 0.87750 0.55810 0.02390
N3 N 0.88780 0.67780 -0.07470
N4 N 0.87510 0.79980 0.05150
O1 O 0.88030 0.51780 0.25990
C1 C 0.37870 0.00000 0.13240
C2 C 0.37040 -0.08330 0.07220
C3 C 0.36190 0.30900 0.30800
C4 C 0.38190 0.47150 -0.16460
C5 C 0.38540 0.39040 -0.10240
C6 C 0.38960 0.31550 -0.17560
C7 C 0.37960 0.14180 0.04290
C8 C 0.37020 0.17970 0.17300
C9 C 0.36920 0.26210 0.17170
C10 C 0.38700 0.25940 -0.06690
N1 N 0.37360 0.38120 0.02890
N2 N 0.37750 0.05810 0.02390
N3 N 0.38780 0.17780 -0.07470
N4 N 0.37510 0.29980 0.05150
O1 O 0.38030 0.01780 0.25990
C1 C 0.12130 0.50000 0.36760
C2 C 0.12960 0.41670 0.42780
C3 C 0.13810 0.80900 0.19200
C4 C 0.11810 0.97150 0.66460
C5 C 0.11460 0.89040 0.60240
C6 C 0.11040 0.81550 0.67560
C7 C 0.12040 0.64180 0.45710
C8 C 0.12980 0.67970 0.32700
C9 C 0.13080 0.76210 0.32830
C10 C 0.11300 0.75940 0.56690
N1 N 0.12640 0.88120 0.47110
N2 N 0.12250 0.55810 0.47610
N3 N 0.11220 0.67780 0.57470
N4 N 0.12490 0.79980 0.44850
O1 O 0.11970 0.51780 0.24010
C1 C 0.62130 0.00000 0.36760
C2 C 0.62960 -0.08330 0.42780
C3 C 0.63810 0.30900 0.19200
C4 C 0.61810 0.47150 0.66460
C5 C 0.61460 0.39040 0.60240
C6 C 0.61040 0.31550 0.67560
C7 C 0.62040 0.14180 0.45710
C8 C 0.62980 0.17970 0.32700
C9 C 0.63080 0.26210 0.32830
C10 C 0.61300 0.25940 0.56690
N1 N 0.62640 0.38120 0.47110
N2 N 0.62250 0.05810 0.47610
N3 N 0.61220 0.17780 0.57470
N4 N 0.62490 0.29980 0.44850
O1 O 0.61970 0.01780 0.24010

#END
