./MAPZPY_from_POSCAR.cif_generated_by_CrystalShift
_symmetry_cell_setting triclinic
_symmetry_space_group_name_H-M 'P 1'
loop_
_symmetry_equiv_pos_site_id
_symmetry_equiv_pos_as_xyz
1 x,y,z
_cell_length_a 14.240000
_cell_length_b 16.700000
_cell_length_c 9.430000
_cell_angle_alpha 90.000000
_cell_angle_beta 110.500000
_cell_angle_gamma 90.000000
_cell_volume 2100.514960
loop_
_atom_site_label
_atom_site_type_symbol
_atom_site_fract_x
_atom_site_fract_y
_atom_site_fract_z
C1 C 0.121300 0.500000 0.867600
C2 C 0.129600 0.583300 0.927800
C3 C 0.138100 0.191000 0.692000
C4 C 0.118100 0.028500 1.164600
C5 C 0.114600 0.109600 1.102400
C6 C 0.110400 0.184500 1.175600
C7 C 0.120400 0.358200 0.957100
C8 C 0.129800 0.320300 0.827000
C9 C 0.130800 0.237900 0.828300
C10 C 0.113000 0.240600 1.066900
C11 C 0.613000 0.259400 0.566900
C12 C 0.630800 0.262100 0.328300
C13 C 0.629800 0.179700 0.327000
C14 C 0.620400 0.141800 0.457100
C15 C 0.610400 0.315500 0.675600
C16 C 0.621300 1.000000 0.867600
C17 C 0.629600 1.083300 0.927800
C18 C 0.638100 0.691000 0.692000
C19 C 0.618100 0.528500 1.164600
C20 C 0.614600 0.609600 1.102400
C21 C 0.610400 0.684500 1.175600
C22 C 0.620400 0.858200 0.957100
C23 C 0.629800 0.820300 0.827000
C24 C 0.630800 0.737900 0.828300
C25 C 0.613000 0.740600 1.066900
C26 C 0.614600 0.390400 0.602400
C27 C 0.618100 0.471500 0.664600
C28 C 0.638100 0.309000 0.192000
C29 C 0.629600 -0.083300 0.427800
C30 C 0.621300 0.000000 0.367600
C31 C 0.878700 0.500000 0.632400
C32 C 0.870400 0.583300 0.572200
C33 C 0.861900 0.191000 0.808000
C34 C 0.881900 0.028500 0.335400
C35 C 0.885400 0.109600 0.397600
C36 C 0.889600 0.184500 0.324400
C37 C 0.879600 0.358200 0.542900
C38 C 0.870200 0.320300 0.673000
C39 C 0.869200 0.237900 0.671700
C40 C 0.887000 0.240600 0.433100
C41 C 0.113000 0.759400 0.566900
C42 C 0.130800 0.762100 0.328300
C43 C 0.129800 0.679700 0.327000
C44 C 0.120400 0.641800 0.457100
C45 C 0.110400 0.815500 0.675600
C46 C 0.378700 1.000000 0.632400
C47 C 0.370400 1.083300 0.572200
C48 C 0.361900 0.691000 0.808000
C49 C 0.381900 0.528500 0.335400
C50 C 0.385400 0.609600 0.397600
C51 C 0.389600 0.684500 0.324400
C52 C 0.379600 0.858200 0.542900
C53 C 0.370200 0.820300 0.673000
C54 C 0.369200 0.737900 0.671700
C55 C 0.387000 0.740600 0.433100
C56 C 0.114600 0.890400 0.602400
C57 C 0.118100 0.971500 0.664600
C58 C 0.138100 0.809000 0.192000
C59 C 0.129600 0.416700 0.427800
C60 C 0.121300 0.500000 0.367600
C61 C 0.878700 0.500000 0.132400
C62 C 0.870400 0.416700 0.072200
C63 C 0.861900 0.809000 0.308000
C64 C 0.881900 0.971500 -0.164600
C65 C 0.885400 0.890400 -0.102400
C66 C 0.889600 0.815500 -0.175600
C67 C 0.879600 0.641800 0.042900
C68 C 0.870200 0.679700 0.173000
C69 C 0.869200 0.762100 0.171700
C70 C 0.887000 0.759400 -0.066900
C71 C 0.387000 0.259400 -0.066900
C72 C 0.369200 0.262100 0.171700
C73 C 0.370200 0.179700 0.173000
C74 C 0.379600 0.141800 0.042900
C75 C 0.389600 0.315500 -0.175600
C76 C 0.378700 0.000000 0.132400
C77 C 0.370400 -0.083300 0.072200
C78 C 0.361900 0.309000 0.308000
C79 C 0.381900 0.471500 -0.164600
C80 C 0.385400 0.390400 -0.102400
N81 N 0.126400 0.881200 0.471100
N82 N 0.875100 0.799800 0.051500
N83 N 0.887800 0.677800 -0.074700
N84 N 0.877500 0.558100 0.023900
N85 N 0.873600 0.881200 0.028900
N86 N 0.373600 0.381200 0.028900
N87 N 0.377500 0.058100 0.023900
N88 N 0.387800 0.177800 -0.074700
N89 N 0.375100 0.299800 0.051500
N90 N 0.612200 0.177800 0.574700
N91 N 0.622500 0.058100 0.476100
N92 N 0.375100 0.700200 0.551500
N93 N 0.387800 0.822200 0.425300
N94 N 0.377500 0.941900 0.523900
N95 N 0.373600 0.618800 0.528900
N96 N 0.626400 0.381200 0.471100
N97 N 0.875100 0.200200 0.551500
N98 N 0.887800 0.322200 0.425300
N99 N 0.877500 0.441900 0.523900
N100 N 0.873600 0.118800 0.528900
N101 N 0.126400 0.118800 0.971100
N102 N 0.122500 0.558100 0.476100
N103 N 0.112200 0.677800 0.574700
N104 N 0.124900 0.799800 0.448500
N105 N 0.122500 0.441900 0.976100
N106 N 0.112200 0.322200 1.074700
N107 N 0.624900 0.700200 0.948500
N108 N 0.612200 0.822200 1.074700
N109 N 0.622500 0.941900 0.976100
N110 N 0.626400 0.618800 0.971100
N111 N 0.124900 0.200200 0.948500
N112 N 0.624900 0.299800 0.448500
O113 O 0.119700 0.517800 0.240100
O114 O 0.880300 0.517800 0.259900
O115 O 0.880300 0.482200 0.759900
O116 O 0.380300 0.982200 0.759900
O117 O 0.380300 0.017800 0.259900
O118 O 0.619700 0.982200 0.740100
O119 O 0.119700 0.482200 0.740100
O120 O 0.619700 0.017800 0.240100

#END
