
#######################################################################
#
#                 Cambridge Crystallographic Data Centre
#                                CCDC 
#
#######################################################################
#
# If this CIF has been generated from an entry in the Cambridge 
# Structural Database, then it will include bibliographic, chemical, 
# crystal, experimental, refinement or atomic coordinate data resulting 
# from the CCDC's data processing and validation procedures.
#
#######################################################################

data_MAQBEM
_symmetry_cell_setting           triclinic
_symmetry_space_group_name_H-M   'P -1'
_symmetry_Int_Tables_number      2
_space_group_name_Hall           '-P 1'
loop_
_symmetry_equiv_pos_site_id
_symmetry_equiv_pos_as_xyz
1 x,y,z
2 -x,-y,-z
_cell_length_a                   6.928(2)
_cell_length_b                   11.272(4)
_cell_length_c                   11.678(4)
_cell_angle_alpha                110.157(6)
_cell_angle_beta                 103.151(6)
_cell_angle_gamma                94.128(6)
_cell_volume                     822.296
loop_
_atom_site_label
_atom_site_type_symbol
_atom_site_fract_x
_atom_site_fract_y
_atom_site_fract_z
O1 O 0.3196(3) 0.51940(17) 0.20134(16)
O2 O 0.2663(3) 1.11771(19) 0.66889(17)
O3 O 0.1650(3) 1.08958(17) 0.46509(16)
O4 O 0.2451(3) 0.68189(18) 0.14576(16)
O5 O 0.6112(4) 0.6157(2) 0.65641(19)
C1 C 0.3278(4) 0.7207(2) 0.3650(2)
C2 C 0.4148(4) 0.6826(2) 0.4624(2)
H1 H 0.4561 0.6030 0.4437
O6 O 0.5340(4) 0.7778(2) 0.80232(18)
C3 C 0.2676(4) 0.8408(2) 0.3949(2)
H2 H 0.2077 0.8674 0.3302
C4 C 0.2961(4) 0.9210(2) 0.5203(2)
C6 C 0.2954(4) 0.6340(2) 0.2275(2)
C7 C 0.2362(4) 1.0502(2) 0.5481(2)
C9 C 0.3812(4) 0.8811(2) 0.6175(2)
H3 H 0.3978 0.9339 0.7014
C10 C 0.5321(4) 0.7204(2) 0.6941(2)
C11 C 0.4416(4) 0.7618(2) 0.5885(2)
H11 H 0.642(6) 0.578(4) 0.716(4)
H12 H 0.246(5) 1.191(4) 0.681(3)
O1 O 0.6804(3) 0.48060(17) 0.79866(16)
O2 O 0.7337(3) -0.11771(19) 0.33111(17)
O3 O 0.8350(3) -0.08958(17) 0.53491(16)
O4 O 0.7549(3) 0.31811(18) 0.85424(16)
O5 O 0.3888(4) 0.3843(2) 0.34359(19)
C1 C 0.6722(4) 0.2793(2) 0.6350(2)
C2 C 0.5852(4) 0.3174(2) 0.5376(2)
H1 H 0.5439 0.3970 0.5563
O6 O 0.4660(4) 0.2222(2) 0.19768(18)
C3 C 0.7324(4) 0.1592(2) 0.6051(2)
H2 H 0.7923 0.1326 0.6698
C4 C 0.7039(4) 0.0790(2) 0.4797(2)
C6 C 0.7046(4) 0.3660(2) 0.7725(2)
C7 C 0.7638(4) -0.0502(2) 0.4519(2)
C9 C 0.6188(4) 0.1189(2) 0.3825(2)
H3 H 0.6022 0.0661 0.2986
C10 C 0.4679(4) 0.2796(2) 0.3059(2)
C11 C 0.5584(4) 0.2382(2) 0.4115(2)
H11 H 0.358(6) 0.422(4) 0.284(4)
H12 H 0.754(5) -0.191(4) 0.319(3)
N1 N 0.1887(3) 0.35761(19) 0.72901(19)
N2 N 0.0892(3) 0.5409(2) 0.6840(2)
C5 C 0.1247(4) 0.4190(2) 0.6495(2)
N3 N 0.1935(3) 0.5501(2) 0.8938(2)
N4 N 0.2822(4) 0.3759(2) 0.9377(2)
N5 N 0.0942(4) 0.3530(2) 0.5272(2)
N6 N 0.0897(4) 0.7233(2) 0.8525(2)
C8 C 0.1235(4) 0.6049(2) 0.8078(2)
C12 C 0.2215(4) 0.4255(2) 0.8524(2)
H4 H 0.305(5) 0.424(3) 1.026(3)
H5 H 0.198(4) 0.590(3) 0.973(3)
H6 H 0.052(5) 0.762(3) 0.802(3)
H7 H 0.153(5) 0.776(3) 0.939(3)
H8 H 0.056(5) 0.388(3) 0.475(3)
H9 H 0.120(5) 0.269(3) 0.504(3)
H14 H 0.317(7) 0.305(5) 0.923(5)
N1 N 0.8113(3) 0.64239(19) 0.27099(19)
N2 N 0.9108(3) 0.4591(2) 0.3160(2)
C5 C 0.8753(4) 0.5810(2) 0.3505(2)
N3 N 0.8065(3) 0.4499(2) 0.1062(2)
N4 N 0.7178(4) 0.6241(2) 0.0623(2)
N5 N 0.9058(4) 0.6470(2) 0.4728(2)
N6 N 0.9103(4) 0.2767(2) 0.1475(2)
C8 C 0.8765(4) 0.3951(2) 0.1922(2)
C12 C 0.7785(4) 0.5745(2) 0.1476(2)
H4 H 0.695(5) 0.576(3) -0.026(3)
H5 H 0.802(4) 0.410(3) 0.027(3)
H6 H 0.948(5) 0.238(3) 0.198(3)
H7 H 0.847(5) 0.224(3) 0.061(3)
H8 H 0.944(5) 0.612(3) 0.525(3)
H9 H 0.880(5) 0.731(3) 0.496(3)
H14 H 0.683(7) 0.695(5) 0.077(5)
O7 O 1.0094(4) 0.0577(2) 0.2116(2)
H13 H 1.056(6) 0.047(4) 0.282(5)
H16 H 0.900(8) -0.001(5) 0.164(6)
O7 O -0.0094(4) 0.9423(2) 0.7884(2)
H13 H -0.056(6) 0.953(4) 0.718(5)
H16 H 0.100(8) 1.001(5) 0.836(6)
O8 O 0.2764(4) 0.9030(2) 0.1055(2)
H10 H 0.266(7) 0.844(5) 0.135(5)
H15 H 0.196(6) 0.966(4) 0.131(4)
O8 O 0.7236(4) 0.0970(2) 0.8945(2)
H10 H 0.734(7) 0.156(5) 0.865(5)
H15 H 0.804(6) 0.034(4) 0.869(4)
O9 O 0.6581(5) 0.8825(3) 0.0644(2)
H17 H 0.658(6) 0.866(4) -0.008(5)
H18 H 0.571(9) 0.905(6) 0.081(6)
O9 O 0.3419(5) 0.1175(3) 0.9356(2)
H17 H 0.342(6) 0.134(4) 1.008(5)
H18 H 0.429(9) 0.095(6) 0.919(6)

#END
