
#######################################################################
#
#                 Cambridge Crystallographic Data Centre
#                                CCDC 
#
#######################################################################
#
# If this CIF has been generated from an entry in the Cambridge 
# Structural Database, then it will include bibliographic, chemical, 
# crystal, experimental, refinement or atomic coordinate data resulting 
# from the CCDC's data processing and validation procedures.
#
#######################################################################

data_MAQFUI
_symmetry_cell_setting           orthorhombic
_symmetry_space_group_name_H-M   'P 21 21 21'
_symmetry_Int_Tables_number      19
_space_group_name_Hall           'P 2ac 2ab'
loop_
_symmetry_equiv_pos_site_id
_symmetry_equiv_pos_as_xyz
1 x,y,z
2 1/2-x,-y,1/2+z
3 1/2+x,1/2-y,-z
4 -x,1/2+y,1/2-z
_cell_length_a                   7.2822(5)
_cell_length_b                   9.7226(7)
_cell_length_c                   33.427(2)
_cell_angle_alpha                90
_cell_angle_beta                 90
_cell_angle_gamma                90
_cell_volume                     2366.7
loop_
_atom_site_label
_atom_site_type_symbol
_atom_site_fract_x
_atom_site_fract_y
_atom_site_fract_z
C1 C 0.7170(5) 0.5483(4) 0.15773(12)
H1 H 0.8477 0.528 0.1521
H2 H 0.6971 0.6479 0.1535
C2 C 0.2404(6) 0.7008(4) 0.21308(12)
H3 H 0.169 0.663 0.1904
H4 H 0.2252 0.802 0.2129
C3 C 0.6743(6) 0.5123(5) 0.20131(12)
H5 H 0.7148 0.4169 0.2068
H6 H 0.744 0.5745 0.2192
C4 C 0.4704(6) 0.5249(4) 0.21052(12)
C5 C 0.4230(6) 0.4727(5) 0.25208(12)
H7 H 0.4131 0.3712 0.2511
H8 H 0.525 0.496 0.2704
C6 C 0.1685(7) 0.4752(5) 0.30374(12)
H9 H 0.2222 0.3963 0.3158
C7 C 0.3954(5) 0.4886(4) 0.14181(11)
H10 H 0.3686 0.5892 0.1398
C8 C 0.0146(7) 0.5336(6) 0.32072(13)
H11 H -0.0375 0.494 0.3441
C9 C 0.2579(5) 0.4134(4) 0.11555(12)
H12 H 0.132 0.4283 0.1258
H13 H 0.2836 0.3134 0.116
C10 C 0.2728(5) 0.4678(4) 0.07273(11)
H14 H 0.2296 0.5643 0.072
H15 H 0.1915 0.413 0.0552
C11 C -0.0648(7) 0.6497(5) 0.30392(14)
H16 H -0.1691 0.6914 0.3159
C12 C 0.0109(6) 0.7036(5) 0.26929(12)
H17 H -0.0431 0.7825 0.2574
C13 C 0.4692(5) 0.4616(4) 0.05644(11)
H18 H 0.5037 0.3627 0.053
C14 C 0.1650(6) 0.6442(4) 0.25154(12)
C15 C 0.6075(5) 0.5283(4) 0.08564(11)
H19 H 0.5688 0.6266 0.0883
C16 C 0.5948(5) 0.4662(4) 0.12834(12)
C17 C 0.2469(6) 0.5301(4) 0.26908(12)
C18 C 0.8036(5) 0.5319(5) 0.06881(12)
H20 H 0.853 0.437 0.068
H21 H 0.8824 0.5865 0.087
C19 C 0.8129(6) 0.5942(4) 0.02650(12)
H22 H 0.7822 0.6933 0.0278
H23 H 0.9396 0.5856 0.0161
C20 C 0.6803(6) 0.5223(4) -0.00195(12)
C21 C 0.4858(5) 0.5327(4) 0.01593(11)
H24 H 0.4628 0.6327 0.0208
C22 C 0.3585(6) 0.4906(4) -0.01867(12)
H25 H 0.2372 0.5358 -0.0162
H26 H 0.3407 0.3896 -0.0192
C23 C 0.4611(6) 0.5407(5) -0.05678(13)
H27 H 0.478 0.464 -0.0759
H28 H 0.3916 0.6151 -0.0702
C24 C 0.6476(6) 0.5938(4) -0.04189(12)
H29 H 0.64 0.6954 -0.0375
C25 C 0.7398(7) 0.3728(4) -0.00921(14)
H30 H 0.7394 0.3226 0.0162
H31 H 0.8639 0.3715 -0.0206
H32 H 0.6543 0.3289 -0.0279
C26 C 0.6514(6) 0.3136(4) 0.12967(13)
H33 H 0.5949 0.2646 0.1072
H34 H 0.61 0.2727 0.1549
H35 H 0.7854 0.3064 0.1278
C27 C 0.7953(6) 0.6286(4) -0.10424(12)
C28 C 0.9528(7) 0.5842(5) -0.13022(13)
H36 H 1.066 0.5832 -0.1144
H37 H 0.9662 0.6486 -0.1526
H38 H 0.9288 0.4917 -0.1406
O1 O 0.3647(4) 0.4476(3) 0.18272(8)
O2 O 0.7984(4) 0.5639(3) -0.06892(9)
O3 O 0.4298(4) 0.6684(3) 0.20759(8)
O4 O 0.6798(4) 0.7100(3) -0.11363(9)
C1 C 0.7830(5) 0.4517(4) 0.65773(12)
H1 H 0.6523 0.472 0.6521
H2 H 0.8029 0.3521 0.6535
C2 C 1.2596(6) 0.2992(4) 0.71308(12)
H3 H 1.331 0.337 0.6904
H4 H 1.2748 0.198 0.7129
C3 C 0.8257(6) 0.4877(5) 0.70131(12)
H5 H 0.7852 0.5831 0.7068
H6 H 0.756 0.4255 0.7192
C4 C 1.0296(6) 0.4751(4) 0.71052(12)
C5 C 1.0770(6) 0.5273(5) 0.75208(12)
H7 H 1.0869 0.6288 0.7511
H8 H 0.975 0.504 0.7704
C6 C 1.3315(7) 0.5248(5) 0.80374(12)
H9 H 1.2778 0.6037 0.8158
C7 C 1.1046(5) 0.5114(4) 0.64181(11)
H10 H 1.1314 0.4108 0.6398
C8 C 1.4854(7) 0.4664(6) 0.82072(13)
H11 H 1.5375 0.506 0.8441
C9 C 1.2421(5) 0.5866(4) 0.61555(12)
H12 H 1.368 0.5717 0.6258
H13 H 1.2164 0.6866 0.616
C10 C 1.2272(5) 0.5322(4) 0.57273(11)
H14 H 1.2704 0.4357 0.572
H15 H 1.3085 0.587 0.5552
C11 C 1.5648(7) 0.3503(5) 0.80392(14)
H16 H 1.6691 0.3086 0.8159
C12 C 1.4891(6) 0.2964(5) 0.76929(12)
H17 H 1.5431 0.2175 0.7574
C13 C 1.0308(5) 0.5384(4) 0.55644(11)
H18 H 0.9963 0.6373 0.553
C14 C 1.3350(6) 0.3558(4) 0.75154(12)
C15 C 0.8925(5) 0.4717(4) 0.58564(11)
H19 H 0.9312 0.3734 0.5883
C16 C 0.9052(5) 0.5338(4) 0.62834(12)
C17 C 1.2531(6) 0.4699(4) 0.76908(12)
C18 C 0.6964(5) 0.4681(5) 0.56881(12)
H20 H 0.647 0.563 0.568
H21 H 0.6176 0.4135 0.587
C19 C 0.6871(6) 0.4058(4) 0.52650(12)
H22 H 0.7178 0.3067 0.5278
H23 H 0.5604 0.4144 0.5161
C20 C 0.8197(6) 0.4777(4) 0.49805(12)
C21 C 1.0142(5) 0.4673(4) 0.51593(11)
H24 H 1.0372 0.3673 0.5208
C22 C 1.1415(6) 0.5094(4) 0.48133(12)
H25 H 1.2628 0.4642 0.4838
H26 H 1.1593 0.6104 0.4808
C23 C 1.0389(6) 0.4593(5) 0.44322(13)
H27 H 1.022 0.536 0.4241
H28 H 1.1084 0.3849 0.4298
C24 C 0.8524(6) 0.4062(4) 0.45811(12)
H29 H 0.86 0.3046 0.4625
C25 C 0.7602(7) 0.6272(4) 0.49079(14)
H30 H 0.7606 0.6774 0.5162
H31 H 0.6361 0.6285 0.4794
H32 H 0.8457 0.6711 0.4721
C26 C 0.8486(6) 0.6864(4) 0.62967(13)
H33 H 0.9051 0.7354 0.6072
H34 H 0.89 0.7273 0.6549
H35 H 0.7146 0.6936 0.6278
C27 C 0.7047(6) 0.3714(4) 0.39576(12)
C28 C 0.5472(7) 0.4158(5) 0.36978(13)
H36 H 0.434 0.4168 0.3856
H37 H 0.5338 0.3514 0.3474
H38 H 0.5712 0.5083 0.3594
O1 O 1.1353(4) 0.5524(3) 0.68272(8)
O2 O 0.7016(4) 0.4361(3) 0.43108(9)
O3 O 1.0702(4) 0.3316(3) 0.70759(8)
O4 O 0.8202(4) 0.2900(3) 0.38637(9)
C1 C 0.2170(5) 0.9517(4) 0.84227(12)
H1 H 0.3477 0.972 0.8479
H2 H 0.1971 0.8521 0.8465
C2 C -0.2596(6) 0.7992(4) 0.78692(12)
H3 H -0.331 0.837 0.8096
H4 H -0.2748 0.698 0.7871
C3 C 0.1743(6) 0.9877(5) 0.79869(12)
H5 H 0.2148 1.0831 0.7932
H6 H 0.244 0.9255 0.7808
C4 C -0.0296(6) 0.9751(4) 0.78948(12)
C5 C -0.0770(6) 1.0273(5) 0.74792(12)
H7 H -0.0869 1.1288 0.7489
H8 H 0.025 1.004 0.7296
C6 C -0.3315(7) 1.0248(5) 0.69626(12)
H9 H -0.2778 1.1037 0.6842
C7 C -0.1046(5) 1.0114(4) 0.85819(11)
H10 H -0.1314 0.9108 0.8602
C8 C -0.4854(7) 0.9664(6) 0.67928(13)
H11 H -0.5375 1.006 0.6559
C9 C -0.2421(5) 1.0866(4) 0.88445(12)
H12 H -0.368 1.0717 0.8742
H13 H -0.2164 1.1866 0.884
C10 C -0.2272(5) 1.0322(4) 0.92727(11)
H14 H -0.2704 0.9357 0.928
H15 H -0.3085 1.087 0.9448
C11 C -0.5648(7) 0.8503(5) 0.69608(14)
H16 H -0.6691 0.8086 0.6841
C12 C -0.4891(6) 0.7964(5) 0.73071(12)
H17 H -0.5431 0.7175 0.7426
C13 C -0.0308(5) 1.0384(4) 0.94356(11)
H18 H 0.0037 1.1373 0.947
C14 C -0.3350(6) 0.8558(4) 0.74846(12)
C15 C 0.1075(5) 0.9717(4) 0.91436(11)
H19 H 0.0688 0.8734 0.9117
C16 C 0.0948(5) 1.0338(4) 0.87166(12)
C17 C -0.2531(6) 0.9699(4) 0.73092(12)
C18 C 0.3036(5) 0.9681(5) 0.93119(12)
H20 H 0.353 1.063 0.932
H21 H 0.3824 0.9135 0.913
C19 C 0.3129(6) 0.9058(4) 0.97350(12)
H22 H 0.2822 0.8067 0.9722
H23 H 0.4396 0.9144 0.9839
C20 C 0.1803(6) 0.9777(4) 1.00195(12)
C21 C -0.0142(5) 0.9673(4) 0.98407(11)
H24 H -0.0372 0.8673 0.9792
C22 C -0.1415(6) 1.0094(4) 1.01867(12)
H25 H -0.2628 0.9642 1.0162
H26 H -0.1593 1.1104 1.0192
C23 C -0.0389(6) 0.9593(5) 1.05678(13)
H27 H -0.022 1.036 1.0759
H28 H -0.1084 0.8849 1.0702
C24 C 0.1476(6) 0.9062(4) 1.04189(12)
H29 H 0.14 0.8046 1.0375
C25 C 0.2398(7) 1.1272(4) 1.00921(14)
H30 H 0.2394 1.1774 0.9838
H31 H 0.3639 1.1285 1.0206
H32 H 0.1543 1.1711 1.0279
C26 C 0.1514(6) 1.1864(4) 0.87033(13)
H33 H 0.0949 1.2354 0.8928
H34 H 0.11 1.2273 0.8451
H35 H 0.2854 1.1936 0.8722
C27 C 0.2953(6) 0.8714(4) 1.10424(12)
C28 C 0.4528(7) 0.9158(5) 1.13022(13)
H36 H 0.566 0.9168 1.1144
H37 H 0.4662 0.8514 1.1526
H38 H 0.4288 1.0083 1.1406
O1 O -0.1353(4) 1.0524(3) 0.81728(8)
O2 O 0.2984(4) 0.9361(3) 1.06892(9)
O3 O -0.0702(4) 0.8316(3) 0.79241(8)
O4 O 0.1798(4) 0.7900(3) 1.11363(9)
C1 C 0.2830(5) 0.0483(4) 0.34227(12)
H1 H 0.1523 0.028 0.3479
H2 H 0.3029 0.1479 0.3465
C2 C 0.7596(6) 0.2008(4) 0.28692(12)
H3 H 0.831 0.163 0.3096
H4 H 0.7748 0.302 0.2871
C3 C 0.3257(6) 0.0123(5) 0.29869(12)
H5 H 0.2852 -0.0831 0.2932
H6 H 0.256 0.0745 0.2808
C4 C 0.5296(6) 0.0249(4) 0.28948(12)
C5 C 0.5770(6) -0.0273(5) 0.24792(12)
H7 H 0.5869 -0.1288 0.2489
H8 H 0.475 -0.004 0.2296
C6 C 0.8315(7) -0.0248(5) 0.19626(12)
H9 H 0.7778 -0.1037 0.1842
C7 C 0.6046(5) -0.0114(4) 0.35819(11)
H10 H 0.6314 0.0892 0.3602
C8 C 0.9854(7) 0.0336(6) 0.17928(13)
H11 H 1.0375 -0.006 0.1559
C9 C 0.7421(5) -0.0866(4) 0.38445(12)
H12 H 0.868 -0.0717 0.3742
H13 H 0.7164 -0.1866 0.384
C10 C 0.7272(5) -0.0322(4) 0.42727(11)
H14 H 0.7704 0.0643 0.428
H15 H 0.8085 -0.087 0.4448
C11 C 1.0648(7) 0.1497(5) 0.19608(14)
H16 H 1.1691 0.1914 0.1841
C12 C 0.9891(6) 0.2036(5) 0.23071(12)
H17 H 1.0431 0.2825 0.2426
C13 C 0.5308(5) -0.0384(4) 0.44356(11)
H18 H 0.4963 -0.1373 0.447
C14 C 0.8350(6) 0.1442(4) 0.24846(12)
C15 C 0.3925(5) 0.0283(4) 0.41436(11)
H19 H 0.4312 0.1266 0.4117
C16 C 0.4052(5) -0.0338(4) 0.37166(12)
C17 C 0.7531(6) 0.0301(4) 0.23092(12)
C18 C 0.1964(5) 0.0319(5) 0.43119(12)
H20 H 0.147 -0.063 0.432
H21 H 0.1176 0.0865 0.413
C19 C 0.1871(6) 0.0942(4) 0.47350(12)
H22 H 0.2178 0.1933 0.4722
H23 H 0.0604 0.0856 0.4839
C20 C 0.3197(6) 0.0223(4) 0.50195(12)
C21 C 0.5142(5) 0.0327(4) 0.48407(11)
H24 H 0.5372 0.1327 0.4792
C22 C 0.6415(6) -0.0094(4) 0.51867(12)
H25 H 0.7628 0.0358 0.5162
H26 H 0.6593 -0.1104 0.5192
C23 C 0.5389(6) 0.0407(5) 0.55678(13)
H27 H 0.522 -0.036 0.5759
H28 H 0.6084 0.1151 0.5702
C24 C 0.3524(6) 0.0938(4) 0.54189(12)
H29 H 0.36 0.1954 0.5375
C25 C 0.2602(7) -0.1272(4) 0.50921(14)
H30 H 0.2606 -0.1774 0.4838
H31 H 0.1361 -0.1285 0.5206
H32 H 0.3457 -0.1711 0.5279
C26 C 0.3486(6) -0.1864(4) 0.37033(13)
H33 H 0.4051 -0.2354 0.3928
H34 H 0.39 -0.2273 0.3451
H35 H 0.2146 -0.1936 0.3722
C27 C 0.2047(6) 0.1286(4) 0.60424(12)
C28 C 0.0472(7) 0.0842(5) 0.63022(13)
H36 H -0.066 0.0832 0.6144
H37 H 0.0338 0.1486 0.6526
H38 H 0.0712 -0.0083 0.6406
O1 O 0.6353(4) -0.0524(3) 0.31728(8)
O2 O 0.2016(4) 0.0639(3) 0.56892(9)
O3 O 0.5702(4) 0.1684(3) 0.29241(8)
O4 O 0.3202(4) 0.2100(3) 0.61363(9)

#END
