./MAQFUI_from_POSCAR.cif_generated_by_CrystalShift
_symmetry_cell_setting triclinic
_symmetry_space_group_name_H-M 'P 1'
loop_
_symmetry_equiv_pos_site_id
_symmetry_equiv_pos_as_xyz
1 x,y,z
_cell_length_a 7.282200
_cell_length_b 9.722600
_cell_length_c 33.427000
_cell_angle_alpha 90.000000
_cell_angle_beta 90.000000
_cell_angle_gamma 90.000000
_cell_volume 2366.695704
loop_
_atom_site_label
_atom_site_type_symbol
_atom_site_fract_x
_atom_site_fract_y
_atom_site_fract_z
H1 H 0.360000 0.195400 0.537500
H2 H 0.847700 0.528000 0.152100
H3 H 0.697100 0.647900 0.153500
H4 H 0.522000 -0.036000 0.575900
H5 H 0.169000 0.663000 0.190400
H6 H 0.225200 0.802000 0.212900
H7 H 0.659300 -0.110400 0.519200
H8 H 0.714800 0.416900 0.206800
H9 H 0.744000 0.574500 0.219200
H10 H 0.762800 0.035800 0.516200
H11 H 0.537200 0.132700 0.479200
H12 H 0.413100 0.371200 0.251100
H13 H 0.525000 0.496000 0.270400
H14 H 0.060400 0.085600 0.483900
H15 H 0.222200 0.396300 0.315800
H16 H 0.217800 0.193300 0.472200
H17 H 0.368600 0.589200 0.139800
H18 H 0.117600 0.086500 0.413000
H19 H -0.037500 0.494000 0.344100
H20 H 0.147000 -0.063000 0.432000
H21 H 0.132000 0.428300 0.125800
H22 H 0.283600 0.313400 0.116000
H23 H 0.431200 0.126600 0.411700
H24 H 0.229600 0.564300 0.072000
H25 H 0.191500 0.413000 0.055200
H26 H 0.496300 -0.137300 0.447000
H27 H -0.169100 0.691400 0.315900
H28 H 1.043100 0.282500 0.242600
H29 H -0.043100 0.782500 0.257400
H30 H 1.169100 0.191400 0.184100
H31 H 0.503700 0.362700 0.053000
H32 H 0.808500 -0.087000 0.444800
H33 H 0.770400 0.064300 0.428000
H34 H 0.568800 0.626600 0.088300
H35 H 0.716400 -0.186600 0.384000
H36 H 0.868000 -0.071700 0.374200
H37 H 1.037500 -0.006000 0.155900
H38 H 0.853000 0.437000 0.068000
H39 H 0.882400 0.586500 0.087000
H40 H 0.631400 0.089200 0.360200
H41 H 0.782200 0.693300 0.027800
H42 H 0.939600 0.585600 0.016100
H43 H 0.777800 -0.103700 0.184200
H44 H 0.475000 -0.004000 0.229600
H45 H 0.462800 0.632700 0.020800
H46 H 0.586900 -0.128800 0.248900
H47 H 0.237200 0.535800 -0.016200
H48 H 0.340700 0.389600 -0.019200
H49 H 0.256000 0.074500 0.280800
H50 H 0.478000 0.464000 -0.075900
H51 H 0.391600 0.615100 -0.070200
H52 H 0.285200 -0.083100 0.293200
H53 H 0.640000 0.695400 -0.037500
H54 H 0.774800 0.302000 0.287100
H55 H 0.739400 0.322600 0.016200
H56 H 0.863900 0.371500 -0.020600
H57 H 0.654300 0.328900 -0.027900
H58 H 0.831000 0.163000 0.309600
H59 H 0.594900 0.264600 0.107200
H60 H 0.610000 0.272700 0.154900
H61 H 0.785400 0.306400 0.127800
H62 H 0.302900 0.147900 0.346500
H63 H 0.152300 0.028000 0.347900
H64 H 1.066000 0.583200 -0.114400
H65 H 0.966200 0.648600 -0.152600
H66 H 0.928800 0.491700 -0.140600
H67 H 0.071200 -0.008300 0.640600
H68 H 0.033800 0.148600 0.652600
H69 H -0.066000 0.083200 0.614400
H70 H 0.260600 -0.177400 0.483800
H71 H 0.136100 -0.128500 0.520600
H72 H 0.652300 0.472000 0.652100
H73 H 0.802900 0.352100 0.653500
H74 H 0.345700 -0.171100 0.527900
H75 H 1.331000 0.337000 0.690400
H76 H 1.274800 0.198000 0.712900
H77 H 0.428800 1.008300 1.140600
H78 H 0.785200 0.583100 0.706800
H79 H 0.756000 0.425500 0.719200
H80 H 0.466200 0.851400 1.152600
H81 H 0.566000 0.916800 1.114400
H82 H 1.086900 0.628800 0.751100
H83 H 0.975000 0.504000 0.770400
H84 H 0.285400 1.193600 0.872200
H85 H 1.277800 0.603700 0.815800
H86 H 0.110000 1.227300 0.845100
H87 H 1.131400 0.410800 0.639800
H88 H 0.094900 1.235400 0.892800
H89 H 1.537500 0.506000 0.844100
H90 H 0.154300 1.171100 1.027900
H91 H 1.368000 0.571700 0.625800
H92 H 1.216400 0.686600 0.616000
H93 H 0.363900 1.128500 1.020600
H94 H 1.270400 0.435700 0.572000
H95 H 1.308500 0.587000 0.555200
H96 H 0.239400 1.177400 0.983800
H97 H 1.669100 0.308600 0.815900
H98 H 0.140000 0.804600 1.037500
H99 H 1.543100 0.217500 0.757400
H100 H -0.108400 0.884900 1.070200
H101 H 0.996300 0.637300 0.553000
H102 H -0.022000 1.036000 1.075900
H103 H -0.159300 1.110400 1.019200
H104 H 0.931200 0.373400 0.588300
H105 H -0.262800 0.964200 1.016200
H106 H -0.037200 0.867300 0.979200
H107 H 0.439600 0.914400 0.983900
H108 H 0.647000 0.563000 0.568000
H109 H 0.617600 0.413500 0.587000
H110 H 0.282200 0.806700 0.972200
H111 H 0.717800 0.306700 0.527800
H112 H 0.560400 0.414400 0.516100
H113 H 0.382400 0.913500 0.913000
H114 H 0.353000 1.063000 0.932000
H115 H 1.037200 0.367300 0.520800
H116 H 0.068800 0.873400 0.911700
H117 H 1.262800 0.464200 0.483800
H118 H 1.159300 0.610400 0.480800
H119 H 0.003700 1.137300 0.947000
H120 H 1.022000 0.536000 0.424100
H121 H 1.108400 0.384900 0.429800
H122 H -0.543100 0.717500 0.742600
H123 H 0.860000 0.304600 0.462500
H124 H -0.669100 0.808600 0.684100
H125 H 0.760600 0.677400 0.516200
H126 H 0.636100 0.628500 0.479400
H127 H 0.845700 0.671100 0.472100
H128 H -0.308500 1.087000 0.944800
H129 H 0.905100 0.735400 0.607200
H130 H 0.890000 0.727300 0.654900
H131 H 0.714600 0.693600 0.627800
H132 H -0.270400 0.935700 0.928000
H133 H -0.216400 1.186600 0.884000
H134 H 0.434000 0.416800 0.385600
H135 H 0.533800 0.351400 0.347400
H136 H 0.571200 0.508300 0.359400
H137 H -0.368000 1.071700 0.874200
H138 H 0.214600 -0.193600 0.372200
H139 H 0.390000 -0.227300 0.345100
H140 H 0.405100 -0.235400 0.392800
H141 H -0.537500 1.006000 0.655900
H142 H 0.347700 0.972000 0.847900
H143 H 0.197100 0.852100 0.846500
H144 H -0.131400 0.910800 0.860200
H145 H -0.331000 0.837000 0.809600
H146 H -0.274800 0.698000 0.787100
H147 H -0.277800 1.103700 0.684200
H148 H 0.214800 1.083100 0.793200
H149 H 0.244000 0.925500 0.780800
H150 H 0.025000 1.004000 0.729600
H151 H -0.086900 1.128800 0.748900
H152 H 0.608400 0.115100 0.570200
C153 C -0.029600 0.975100 0.789480
C154 C -0.331500 1.024800 0.696260
C155 C 0.174300 0.987700 0.798690
C156 C -0.104600 1.011400 0.858190
C157 C -0.259600 0.799200 0.786920
C158 C -0.485400 0.966400 0.679280
C159 C 0.217000 0.951700 0.842270
C160 C -0.242100 1.086600 0.884450
C161 C 0.204700 0.128600 0.604240
C162 C 0.547200 0.415800 0.369780
C163 C -0.227200 1.032200 0.927270
C164 C 0.704700 0.371400 0.395760
C165 C 0.848600 0.686400 0.629670
C166 C -0.564800 0.850300 0.696080
C167 C 0.760200 0.627200 0.490790
C168 C -0.489100 0.796400 0.730710
C169 C 0.852400 0.406200 0.458110
C170 C -0.030800 1.038400 0.943560
C171 C 1.038900 0.459300 0.443220
C172 C -0.335000 0.855800 0.748460
C173 C 0.107500 0.971700 0.914360
C174 C 1.141500 0.509400 0.481330
C175 C 0.094800 1.033800 0.871660
C176 C -0.253100 0.969900 0.730920
C177 C 0.303600 0.968100 0.931190
C178 C 1.014200 0.467300 0.515930
C179 C 0.819700 0.477700 0.498050
C180 C 0.312900 0.905800 0.973500
C181 C 0.687100 0.405800 0.526500
C182 C 0.696400 0.468100 0.568810
C183 C 0.180300 0.977700 1.001950
C184 C -0.014200 0.967300 0.984070
C185 C 1.253100 0.469900 0.769080
C186 C -0.141500 1.009400 1.018670
C187 C 0.905200 0.533800 0.628340
C188 C 0.892500 0.471700 0.585640
C189 C -0.038900 0.959300 1.056780
C190 C 1.335000 0.355800 0.751540
C191 C 1.030800 0.538400 0.556440
C192 C 0.147600 0.906200 1.041890
C193 C 1.489100 0.296400 0.769290
C194 C 0.239800 1.127200 1.009210
C195 C 1.564800 0.350300 0.803920
C196 C 1.227200 0.532200 0.572730
C197 C 1.242100 0.586600 0.615550
C198 C 0.151400 1.186400 0.870330
C199 C 1.485400 0.466400 0.820720
C200 C 1.104600 0.511400 0.641810
C201 C 1.331500 0.524800 0.803740
C202 C 0.295300 0.871400 1.104240
C203 C 0.452800 0.915800 1.130220
C204 C 1.077000 0.527300 0.752080
C205 C 1.029600 0.475100 0.710520
C206 C 0.825700 0.487700 0.701310
C207 C 0.348600 -0.186400 0.370330
C208 C 1.259600 0.299200 0.713080
C209 C 0.783000 0.451700 0.657730
C210 C 0.047200 0.084200 0.630220
C211 C 0.283000 0.048300 0.342270
C212 C 0.952800 0.584200 -0.130220
C213 C 0.795300 0.628600 -0.104240
C214 C 0.759600 0.200800 0.286920
C215 C 0.651400 0.313600 0.129670
C216 C 0.739800 0.372800 -0.009210
C217 C 0.325700 0.012300 0.298690
C218 C 0.647600 0.593800 -0.041890
C219 C 0.461100 0.540700 -0.056780
C220 C 0.529600 0.024900 0.289480
C221 C 0.577000 -0.027300 0.247920
C222 C 0.358500 0.490600 -0.018670
C223 C 0.485800 0.532700 0.015930
C224 C 0.831500 -0.024800 0.196260
C225 C 0.680300 0.522300 -0.001950
C226 C 0.604600 -0.011400 0.358190
C227 C 0.812900 0.594200 0.026500
C228 C 0.985400 0.033600 0.179280
C229 C 0.803600 0.531900 0.068810
C230 C 0.742100 -0.086600 0.384450
C231 C 0.246900 0.530100 0.269080
C232 C 0.594800 0.466200 0.128340
C233 C 0.727200 -0.032200 0.427270
C234 C 0.607500 0.528300 0.085640
C235 C 0.165000 0.644200 0.251540
C236 C 1.064800 0.149700 0.196080
C237 C 0.469200 0.461600 0.056440
C238 C 0.989100 0.203600 0.230710
C239 C 0.010900 0.703600 0.269290
C240 C 0.530800 -0.038400 0.443560
C241 C -0.064800 0.649700 0.303920
C242 C 0.835000 0.144200 0.248460
C243 C 0.392500 0.028300 0.414360
C244 C 0.272800 0.467800 0.072730
C245 C 0.405200 -0.033800 0.371660
C246 C 0.753100 0.030100 0.230920
C247 C 0.196400 0.031900 0.431190
C248 C 0.257900 0.413400 0.115550
C249 C 0.014600 0.533600 0.320720
C250 C 0.187100 0.094200 0.473500
C251 C 0.395400 0.488600 0.141810
C252 C 0.168500 0.475200 0.303740
C253 C 0.319700 0.022300 0.501950
C254 C 0.514200 0.032700 0.484070
C255 C 0.423000 0.472700 0.252080
C256 C 0.641500 -0.009400 0.518670
C257 C 0.470400 0.524900 0.210520
C258 C 0.674300 0.512300 0.201310
C259 C 0.538900 0.040700 0.556780
C260 C 0.240400 0.700800 0.213080
C261 C -0.077000 1.027300 0.747920
C262 C 0.352400 0.093800 0.541890
C263 C 0.717000 0.548300 0.157730
C264 C 0.260200 -0.127200 0.509210
O265 O 0.179800 0.790000 1.113630
O266 O -0.070200 0.831600 0.792410
O267 O 0.298400 0.936100 1.068920
O268 O -0.135300 1.052400 0.817280
O269 O 0.820200 0.290000 0.386370
O270 O 1.070200 0.331600 0.707590
O271 O 0.701600 0.436100 0.431080
O272 O 1.135300 0.552400 0.682720
O273 O 0.679800 0.710000 -0.113630
O274 O 0.429800 0.668400 0.207590
O275 O 0.798400 0.563900 -0.068920
O276 O 0.364700 0.447600 0.182720
O277 O 0.635300 -0.052400 0.317280
O278 O 0.201600 0.063900 0.568920
O279 O 0.570200 0.168400 0.292410
O280 O 0.320200 0.210000 0.613630

#END
