
#######################################################################
#
#                 Cambridge Crystallographic Data Centre
#                                CCDC 
#
#######################################################################
#
# If this CIF has been generated from an entry in the Cambridge 
# Structural Database, then it will include bibliographic, chemical, 
# crystal, experimental, refinement or atomic coordinate data resulting 
# from the CCDC's data processing and validation procedures.
#
#######################################################################

data_MAQGOA
_symmetry_cell_setting           orthorhombic
_symmetry_space_group_name_H-M   'P 21 21 21'
_symmetry_Int_Tables_number      19
_space_group_name_Hall           'P 2ac 2ab'
loop_
_symmetry_equiv_pos_site_id
_symmetry_equiv_pos_as_xyz
1 x,y,z
2 1/2-x,-y,1/2+z
3 -x,1/2+y,1/2-z
4 1/2+x,1/2-y,-z
_cell_length_a                   9.3361(7)
_cell_length_b                   9.6261(7)
_cell_length_c                   17.764(2)
_cell_angle_alpha                90
_cell_angle_beta                 90
_cell_angle_gamma                90
_cell_volume                     1596.45
loop_
_atom_site_label
_atom_site_type_symbol
_atom_site_fract_x
_atom_site_fract_y
_atom_site_fract_z
C1 C 0.2964(2) 0.8623(2) 0.86551(14)
H1 H 0.2591(2) 0.9448(2) 0.89004(14)
H2 H 0.3032(2) 0.8820(2) 0.81207(14)
O1 O 0.19615(14) 0.7488(2) 0.87671(10)
C2 C 0.2404(2) 0.6214(2) 0.85772(12)
O2 O 0.1531(2) 0.5281(2) 0.85524(11)
C3 C 0.3931(2) 0.5997(2) 0.84450(11)
H3 H 0.4228(2) 0.5180(2) 0.82133(11)
C4 C 0.4916(2) 0.6931(2) 0.86450(10)
C5 C 0.6480(2) 0.6589(2) 0.86318(13)
H4 H 0.6774(2) 0.6370(2) 0.91479(13)
O3 O 0.6718(2) 0.5394(2) 0.81851(12)
H5 H 0.753(5) 0.490(4) 0.848(2)
C6 C 0.7391(2) 0.7799(2) 0.83602(13)
H6 H 0.7225(2) 0.7943(2) 0.78268(13)
H7 H 0.8396(2) 0.7574(2) 0.84279(13)
C7 C 0.7050(2) 0.9134(2) 0.87846(10)
H8 H 0.7231(2) 0.8992(2) 0.93226(10)
C8 C 0.5460(2) 0.9506(2) 0.86688(10)
H9 H 0.5311(2) 0.9562(2) 0.81235(10)
C9 C 0.4458(2) 0.8329(2) 0.89578(10)
C10 C 0.5067(2) 1.0936(2) 0.89874(13)
H10 H 0.5080(2) 1.0889(2) 0.95328(13)
H11 H 0.4099(2) 1.1166(2) 0.88331(13)
C11 C 0.6082(2) 1.2096(2) 0.87294(13)
H12 H 0.5962(2) 1.2249(2) 0.81933(13)
H13 H 0.5840(2) 1.2951(2) 0.89881(13)
C12 C 0.7647(2) 1.1720(2) 0.88936(10)
C13 C 0.7962(2) 1.0335(2) 0.85058(11)
H14 H 0.7715(2) 1.0464(2) 0.79743(11)
C14 C 0.9602(2) 1.0202(2) 0.8536(2)
H15 H 0.9958(2) 0.9673(2) 0.8110(2)
H16 H 0.9907(2) 0.9754(2) 0.8998(2)
C15 C 1.0134(2) 1.1722(2) 0.8504(2)
H17 H 1.0723(2) 1.1935(2) 0.8939(2)
H18 H 1.0693(2) 1.1881(2) 0.8051(2)
C16 C 0.8778(2) 1.2619(2) 0.85001(11)
H19 H 0.8480(2) 1.2761(2) 0.79766(11)
O4 O 0.8934(2) 1.39449(15) 0.88491(10)
H20 H 0.973(3) 1.429(3) 0.8692(15)
C17 C 0.7926(3) 1.1699(3) 0.97428(12)
H21 H 0.7265(14) 1.1073(15) 0.9981(2)
H22 H 0.7799(19) 1.2616(5) 0.9944(2)
H23 H 0.8889(7) 1.1393(18) 0.98360(12)
C18 C 0.4428(3) 0.8221(2) 0.98248(11)
H24 H 0.3802(13) 0.7478(10) 0.99723(11)
H25 H 0.4085(15) 0.9079(6) 1.00336(12)
H26 H 0.5377(4) 0.8039(15) 1.00078(12)
C1 C 1.2036(2) 0.1377(2) 0.36551(14)
H1 H 1.2409(2) 0.0552(2) 0.39004(14)
H2 H 1.1968(2) 0.1180(2) 0.31207(14)
O1 O 1.30385(14) 0.2512(2) 0.37671(10)
C2 C 1.2596(2) 0.3786(2) 0.35772(12)
O2 O 1.3469(2) 0.4719(2) 0.35524(11)
C3 C 1.1069(2) 0.4003(2) 0.34450(11)
H3 H 1.0772(2) 0.4820(2) 0.32133(11)
C4 C 1.0084(2) 0.3069(2) 0.36450(10)
C5 C 0.8520(2) 0.3411(2) 0.36318(13)
H4 H 0.8226(2) 0.3630(2) 0.41479(13)
O3 O 0.8282(2) 0.4606(2) 0.31851(12)
H5 H 0.747(5) 0.510(4) 0.348(2)
C6 C 0.7609(2) 0.2201(2) 0.33602(13)
H6 H 0.7775(2) 0.2057(2) 0.28268(13)
H7 H 0.6604(2) 0.2426(2) 0.34279(13)
C7 C 0.7950(2) 0.0866(2) 0.37846(10)
H8 H 0.7769(2) 0.1008(2) 0.43226(10)
C8 C 0.9540(2) 0.0494(2) 0.36688(10)
H9 H 0.9689(2) 0.0438(2) 0.31235(10)
C9 C 1.0542(2) 0.1671(2) 0.39578(10)
C10 C 0.9933(2) -0.0936(2) 0.39874(13)
H10 H 0.9920(2) -0.0889(2) 0.45328(13)
H11 H 1.0901(2) -0.1166(2) 0.38331(13)
C11 C 0.8918(2) -0.2096(2) 0.37294(13)
H12 H 0.9038(2) -0.2249(2) 0.31933(13)
H13 H 0.9160(2) -0.2951(2) 0.39881(13)
C12 C 0.7353(2) -0.1720(2) 0.38936(10)
C13 C 0.7038(2) -0.0335(2) 0.35058(11)
H14 H 0.7285(2) -0.0464(2) 0.29743(11)
C14 C 0.5398(2) -0.0202(2) 0.3536(2)
H15 H 0.5042(2) 0.0327(2) 0.3110(2)
H16 H 0.5093(2) 0.0246(2) 0.3998(2)
C15 C 0.4866(2) -0.1722(2) 0.3504(2)
H17 H 0.4277(2) -0.1935(2) 0.3939(2)
H18 H 0.4307(2) -0.1881(2) 0.3051(2)
C16 C 0.6222(2) -0.2619(2) 0.35001(11)
H19 H 0.6520(2) -0.2761(2) 0.29766(11)
O4 O 0.6066(2) -0.39449(15) 0.38491(10)
H20 H 0.527(3) -0.429(3) 0.3692(15)
C17 C 0.7074(3) -0.1699(3) 0.47428(12)
H21 H 0.7735(14) -0.1073(15) 0.4981(2)
H22 H 0.7201(19) -0.2616(5) 0.4944(2)
H23 H 0.6111(7) -0.1393(18) 0.48360(12)
C18 C 1.0572(3) 0.1779(2) 0.48248(11)
H24 H 1.1198(13) 0.2522(10) 0.49723(11)
H25 H 1.0915(15) 0.0921(6) 0.50336(12)
H26 H 0.9623(4) 0.1961(15) 0.50078(12)
C1 C 0.7036(2) 0.3623(2) 0.63449(14)
H1 H 0.7409(2) 0.4448(2) 0.60996(14)
H2 H 0.6968(2) 0.3820(2) 0.68793(14)
O1 O 0.80385(14) 0.2488(2) 0.62329(10)
C2 C 0.7596(2) 0.1214(2) 0.64228(12)
O2 O 0.8469(2) 0.0281(2) 0.64476(11)
C3 C 0.6069(2) 0.0997(2) 0.65550(11)
H3 H 0.5772(2) 0.0180(2) 0.67867(11)
C4 C 0.5084(2) 0.1931(2) 0.63550(10)
C5 C 0.3520(2) 0.1589(2) 0.63682(13)
H4 H 0.3226(2) 0.1370(2) 0.58521(13)
O3 O 0.3282(2) 0.0394(2) 0.68149(12)
H5 H 0.247(5) -0.010(4) 0.652(2)
C6 C 0.2609(2) 0.2799(2) 0.66398(13)
H6 H 0.2775(2) 0.2943(2) 0.71732(13)
H7 H 0.1604(2) 0.2574(2) 0.65721(13)
C7 C 0.2950(2) 0.4134(2) 0.62154(10)
H8 H 0.2769(2) 0.3992(2) 0.56774(10)
C8 C 0.4540(2) 0.4506(2) 0.63312(10)
H9 H 0.4689(2) 0.4562(2) 0.68765(10)
C9 C 0.5542(2) 0.3329(2) 0.60422(10)
C10 C 0.4933(2) 0.5936(2) 0.60126(13)
H10 H 0.4920(2) 0.5889(2) 0.54672(13)
H11 H 0.5901(2) 0.6166(2) 0.61669(13)
C11 C 0.3918(2) 0.7096(2) 0.62706(13)
H12 H 0.4038(2) 0.7249(2) 0.68067(13)
H13 H 0.4160(2) 0.7951(2) 0.60119(13)
C12 C 0.2353(2) 0.6720(2) 0.61064(10)
C13 C 0.2038(2) 0.5335(2) 0.64942(11)
H14 H 0.2285(2) 0.5464(2) 0.70257(11)
C14 C 0.0398(2) 0.5202(2) 0.6464(2)
H15 H 0.0042(2) 0.4673(2) 0.6890(2)
H16 H 0.0093(2) 0.4754(2) 0.6002(2)
C15 C -0.0134(2) 0.6722(2) 0.6496(2)
H17 H -0.0723(2) 0.6935(2) 0.6061(2)
H18 H -0.0693(2) 0.6881(2) 0.6949(2)
C16 C 0.1222(2) 0.7619(2) 0.64999(11)
H19 H 0.1520(2) 0.7761(2) 0.70234(11)
O4 O 0.1066(2) 0.89449(15) 0.61509(10)
H20 H 0.027(3) 0.929(3) 0.6308(15)
C17 C 0.2074(3) 0.6699(3) 0.52572(12)
H21 H 0.2735(14) 0.6073(15) 0.5019(2)
H22 H 0.2201(19) 0.7616(5) 0.5056(2)
H23 H 0.1111(7) 0.6393(18) 0.51640(12)
C18 C 0.5572(3) 0.3221(2) 0.51752(11)
H24 H 0.6198(13) 0.2478(10) 0.50277(11)
H25 H 0.5915(15) 0.4079(6) 0.49664(12)
H26 H 0.4623(4) 0.3039(15) 0.49922(12)
C1 C -0.2036(2) 0.6377(2) 0.13449(14)
H1 H -0.2409(2) 0.5552(2) 0.10996(14)
H2 H -0.1968(2) 0.6180(2) 0.18793(14)
O1 O -0.30385(14) 0.7512(2) 0.12329(10)
C2 C -0.2596(2) 0.8786(2) 0.14228(12)
O2 O -0.3469(2) 0.9719(2) 0.14476(11)
C3 C -0.1069(2) 0.9003(2) 0.15550(11)
H3 H -0.0772(2) 0.9820(2) 0.17867(11)
C4 C -0.0084(2) 0.8069(2) 0.13550(10)
C5 C 0.1480(2) 0.8411(2) 0.13682(13)
H4 H 0.1774(2) 0.8630(2) 0.08521(13)
O3 O 0.1718(2) 0.9606(2) 0.18149(12)
H5 H 0.253(5) 1.010(4) 0.152(2)
C6 C 0.2391(2) 0.7201(2) 0.16398(13)
H6 H 0.2225(2) 0.7057(2) 0.21732(13)
H7 H 0.3396(2) 0.7426(2) 0.15721(13)
C7 C 0.2050(2) 0.5866(2) 0.12154(10)
H8 H 0.2231(2) 0.6008(2) 0.06774(10)
C8 C 0.0460(2) 0.5494(2) 0.13312(10)
H9 H 0.0311(2) 0.5438(2) 0.18765(10)
C9 C -0.0542(2) 0.6671(2) 0.10422(10)
C10 C 0.0067(2) 0.4064(2) 0.10126(13)
H10 H 0.0080(2) 0.4111(2) 0.04672(13)
H11 H -0.0901(2) 0.3834(2) 0.11669(13)
C11 C 0.1082(2) 0.2904(2) 0.12706(13)
H12 H 0.0962(2) 0.2751(2) 0.18067(13)
H13 H 0.0840(2) 0.2049(2) 0.10119(13)
C12 C 0.2647(2) 0.3280(2) 0.11064(10)
C13 C 0.2962(2) 0.4665(2) 0.14942(11)
H14 H 0.2715(2) 0.4536(2) 0.20257(11)
C14 C 0.4602(2) 0.4798(2) 0.1464(2)
H15 H 0.4958(2) 0.5327(2) 0.1890(2)
H16 H 0.4907(2) 0.5246(2) 0.1002(2)
C15 C 0.5134(2) 0.3278(2) 0.1496(2)
H17 H 0.5723(2) 0.3065(2) 0.1061(2)
H18 H 0.5693(2) 0.3119(2) 0.1949(2)
C16 C 0.3778(2) 0.2381(2) 0.14999(11)
H19 H 0.3480(2) 0.2239(2) 0.20234(11)
O4 O 0.3934(2) 0.10551(15) 0.11509(10)
H20 H 0.473(3) 0.071(3) 0.1308(15)
C17 C 0.2926(3) 0.3301(3) 0.02572(12)
H21 H 0.2265(14) 0.3927(15) 0.0019(2)
H22 H 0.2799(19) 0.2384(5) 0.0056(2)
H23 H 0.3889(7) 0.3607(18) 0.01640(12)
C18 C -0.0572(3) 0.6779(2) 0.01752(11)
H24 H -0.1198(13) 0.7522(10) 0.00277(11)
H25 H -0.0915(15) 0.5921(6) -0.00336(12)
H26 H 0.0377(4) 0.6961(15) -0.00078(12)

#END
