
#######################################################################
#
#                 Cambridge Crystallographic Data Centre
#                                CCDC 
#
#######################################################################
#
# If this CIF has been generated from an entry in the Cambridge 
# Structural Database, then it will include bibliographic, chemical, 
# crystal, experimental, refinement or atomic coordinate data resulting 
# from the CCDC's data processing and validation procedures.
#
#######################################################################

data_MAQHUK
_symmetry_cell_setting           monoclinic
_symmetry_space_group_name_H-M   'P 21/c'
_symmetry_Int_Tables_number      14
_space_group_name_Hall           '-P 2ybc'
loop_
_symmetry_equiv_pos_site_id
_symmetry_equiv_pos_as_xyz
1 x,y,z
2 -x,1/2+y,1/2-z
3 -x,-y,-z
4 x,1/2-y,1/2+z
_cell_length_a                   9.1245(18)
_cell_length_b                   18.508(4)
_cell_length_c                   10.5209(18)
_cell_angle_alpha                90
_cell_angle_beta                 115.544(5)
_cell_angle_gamma                90
_cell_volume                     1603.06
loop_
_atom_site_label
_atom_site_type_symbol
_atom_site_fract_x
_atom_site_fract_y
_atom_site_fract_z
O1 O -0.1514(4) 0.43647(19) 0.4936(3)
N1 N 0.0077(4) 0.4300(2) 0.3794(4)
H1 H 0.0588 0.4681 0.4228
N2 N 0.0504(4) 0.3202(2) 0.2874(4)
C1 C -0.0838(5) 0.2891(3) 0.2984(4)
C2 C -0.1368(5) 0.2201(3) 0.2571(5)
H2 H -0.0850 0.1918 0.2157
C3 C -0.2663(6) 0.1917(3) 0.2760(5)
H3 H -0.3017 0.1450 0.2458
C4 C -0.3431(5) 0.2321(3) 0.3392(5)
H4 H -0.4290 0.2126 0.3531
C5 C -0.2931(5) 0.3000(3) 0.3808(5)
H5 H -0.3457 0.3273 0.4230
C6 C -0.1637(4) 0.3304(2) 0.3619(4)
C7 C -0.1062(5) 0.4024(3) 0.4147(5)
C8 C 0.0499(6) 0.3988(3) 0.2711(6)
C9 C -0.0862(10) 0.4227(4) 0.1180(7)
H6 H -0.0655 0.3990 0.0461
H7 H -0.0822 0.4741 0.1077
H8 H -0.1917 0.4091 0.1090
C10 C 0.2076(11) 0.4301(4) 0.2914(11)
H9 H 0.2306 0.4134 0.2145
H10 H 0.1941 0.4821 0.2819
C11 C 0.3346(12) 0.4174(5) 0.4073(12)
H11 H 0.4276 0.4398 0.4038
H12 H 0.3520 0.3662 0.4191
H13 H 0.3187 0.4366 0.4851
C12 C 0.1242(5) 0.2768(3) 0.2120(5)
H14 H 0.1948 0.3077 0.1884
H15 H 0.0387 0.2594 0.1245
C13 C 0.2204(5) 0.2136(2) 0.2952(5)
C14 C 0.3019(5) 0.2149(3) 0.4420(5)
H16 H 0.2936 0.2557 0.4902
C15 C 0.3942(6) 0.1575(3) 0.5169(6)
H17 H 0.4486 0.1589 0.6146
C16 C 0.4037(8) 0.0980(3) 0.4430(10)
H18 H 0.4661 0.0586 0.4915
C17 C 0.3215(9) 0.0955(4) 0.2969(10)
H19 H 0.3270 0.0544 0.2482
C18 C 0.2331(6) 0.1536(3) 0.2261(6)
H20 H 0.1802 0.1523 0.1282
O1 O 1.1514(4) 0.93647(19) 0.0064(3)
N1 N 0.9923(4) 0.9300(2) 0.1206(4)
H1 H 0.9412 0.9681 0.0772
N2 N 0.9496(4) 0.8202(2) 0.2126(4)
C1 C 1.0838(5) 0.7891(3) 0.2016(4)
C2 C 1.1368(5) 0.7201(3) 0.2429(5)
H2 H 1.0850 0.6918 0.2843
C3 C 1.2663(6) 0.6917(3) 0.2240(5)
H3 H 1.3017 0.6450 0.2542
C4 C 1.3431(5) 0.7321(3) 0.1608(5)
H4 H 1.4290 0.7126 0.1469
C5 C 1.2931(5) 0.8000(3) 0.1192(5)
H5 H 1.3457 0.8273 0.0770
C6 C 1.1637(4) 0.8304(2) 0.1381(4)
C7 C 1.1062(5) 0.9024(3) 0.0853(5)
C8 C 0.9501(6) 0.8988(3) 0.2289(6)
C9 C 1.0862(10) 0.9227(4) 0.3820(7)
H6 H 1.0655 0.8990 0.4539
H7 H 1.0822 0.9741 0.3923
H8 H 1.1917 0.9091 0.3910
C10 C 0.7924(11) 0.9301(4) 0.2086(11)
H9 H 0.7694 0.9134 0.2855
H10 H 0.8059 0.9821 0.2181
C11 C 0.6654(12) 0.9174(5) 0.0927(12)
H11 H 0.5724 0.9398 0.0962
H12 H 0.6480 0.8662 0.0809
H13 H 0.6813 0.9366 0.0149
C12 C 0.8758(5) 0.7768(3) 0.2880(5)
H14 H 0.8052 0.8077 0.3116
H15 H 0.9613 0.7594 0.3755
C13 C 0.7796(5) 0.7136(2) 0.2048(5)
C14 C 0.6981(5) 0.7149(3) 0.0580(5)
H16 H 0.7064 0.7557 0.0098
C15 C 0.6058(6) 0.6575(3) -0.0169(6)
H17 H 0.5514 0.6589 -0.1146
C16 C 0.5963(8) 0.5980(3) 0.0570(10)
H18 H 0.5339 0.5586 0.0085
C17 C 0.6785(9) 0.5955(4) 0.2031(10)
H19 H 0.6730 0.5544 0.2518
C18 C 0.7669(6) 0.6536(3) 0.2739(6)
H20 H 0.8198 0.6523 0.3718
O1 O 1.1514(4) 0.56353(19) 0.5064(3)
N1 N 0.9923(4) 0.5700(2) 0.6206(4)
H1 H 0.9412 0.5319 0.5772
N2 N 0.9496(4) 0.6798(2) 0.7126(4)
C1 C 1.0838(5) 0.7109(3) 0.7016(4)
C2 C 1.1368(5) 0.7799(3) 0.7429(5)
H2 H 1.0850 0.8082 0.7843
C3 C 1.2663(6) 0.8083(3) 0.7240(5)
H3 H 1.3017 0.8550 0.7542
C4 C 1.3431(5) 0.7679(3) 0.6608(5)
H4 H 1.4290 0.7874 0.6469
C5 C 1.2931(5) 0.7000(3) 0.6192(5)
H5 H 1.3457 0.6727 0.5770
C6 C 1.1637(4) 0.6696(2) 0.6381(4)
C7 C 1.1062(5) 0.5976(3) 0.5853(5)
C8 C 0.9501(6) 0.6012(3) 0.7289(6)
C9 C 1.0862(10) 0.5773(4) 0.8820(7)
H6 H 1.0655 0.6010 0.9539
H7 H 1.0822 0.5259 0.8923
H8 H 1.1917 0.5909 0.8910
C10 C 0.7924(11) 0.5699(4) 0.7086(11)
H9 H 0.7694 0.5866 0.7855
H10 H 0.8059 0.5179 0.7181
C11 C 0.6654(12) 0.5826(5) 0.5927(12)
H11 H 0.5724 0.5602 0.5962
H12 H 0.6480 0.6338 0.5809
H13 H 0.6813 0.5634 0.5149
C12 C 0.8758(5) 0.7232(3) 0.7880(5)
H14 H 0.8052 0.6923 0.8116
H15 H 0.9613 0.7406 0.8755
C13 C 0.7796(5) 0.7864(2) 0.7048(5)
C14 C 0.6981(5) 0.7851(3) 0.5580(5)
H16 H 0.7064 0.7443 0.5098
C15 C 0.6058(6) 0.8425(3) 0.4831(6)
H17 H 0.5514 0.8411 0.3854
C16 C 0.5963(8) 0.9020(3) 0.5570(10)
H18 H 0.5339 0.9414 0.5085
C17 C 0.6785(9) 0.9045(4) 0.7031(10)
H19 H 0.6730 0.9456 0.7518
C18 C 0.7669(6) 0.8464(3) 0.7739(6)
H20 H 0.8198 0.8477 0.8718
O1 O -0.1514(4) 0.06353(19) 0.9936(3)
N1 N 0.0077(4) 0.0700(2) 0.8794(4)
H1 H 0.0588 0.0319 0.9228
N2 N 0.0504(4) 0.1798(2) 0.7874(4)
C1 C -0.0838(5) 0.2109(3) 0.7984(4)
C2 C -0.1368(5) 0.2799(3) 0.7571(5)
H2 H -0.0850 0.3082 0.7157
C3 C -0.2663(6) 0.3083(3) 0.7760(5)
H3 H -0.3017 0.3550 0.7458
C4 C -0.3431(5) 0.2679(3) 0.8392(5)
H4 H -0.4290 0.2874 0.8531
C5 C -0.2931(5) 0.2000(3) 0.8808(5)
H5 H -0.3457 0.1727 0.9230
C6 C -0.1637(4) 0.1696(2) 0.8619(4)
C7 C -0.1062(5) 0.0976(3) 0.9147(5)
C8 C 0.0499(6) 0.1012(3) 0.7711(6)
C9 C -0.0862(10) 0.0773(4) 0.6180(7)
H6 H -0.0655 0.1010 0.5461
H7 H -0.0822 0.0259 0.6077
H8 H -0.1917 0.0909 0.6090
C10 C 0.2076(11) 0.0699(4) 0.7914(11)
H9 H 0.2306 0.0866 0.7145
H10 H 0.1941 0.0179 0.7819
C11 C 0.3346(12) 0.0826(5) 0.9073(12)
H11 H 0.4276 0.0602 0.9038
H12 H 0.3520 0.1338 0.9191
H13 H 0.3187 0.0634 0.9851
C12 C 0.1242(5) 0.2232(3) 0.7120(5)
H14 H 0.1948 0.1923 0.6884
H15 H 0.0387 0.2406 0.6245
C13 C 0.2204(5) 0.2864(2) 0.7952(5)
C14 C 0.3019(5) 0.2851(3) 0.9420(5)
H16 H 0.2936 0.2443 0.9902
C15 C 0.3942(6) 0.3425(3) 1.0169(6)
H17 H 0.4486 0.3411 1.1146
C16 C 0.4037(8) 0.4020(3) 0.9430(10)
H18 H 0.4661 0.4414 0.9915
C17 C 0.3215(9) 0.4045(4) 0.7969(10)
H19 H 0.3270 0.4456 0.7482
C18 C 0.2331(6) 0.3464(3) 0.7261(6)
H20 H 0.1802 0.3477 0.6282

#END
