
#######################################################################
#
#                 Cambridge Crystallographic Data Centre
#                                CCDC 
#
#######################################################################
#
# If this CIF has been generated from an entry in the Cambridge 
# Structural Database, then it will include bibliographic, chemical, 
# crystal, experimental, refinement or atomic coordinate data resulting 
# from the CCDC's data processing and validation procedures.
#
#######################################################################

data_MAQMUP
_symmetry_cell_setting           orthorhombic
_symmetry_space_group_name_H-M   'P 21 21 21'
_symmetry_Int_Tables_number      19
_space_group_name_Hall           'P 2ac 2ab'
loop_
_symmetry_equiv_pos_site_id
_symmetry_equiv_pos_as_xyz
1 x,y,z
2 1/2-x,-y,1/2+z
3 1/2+x,1/2-y,-z
4 -x,1/2+y,1/2-z
_cell_length_a                   7.6363(4)
_cell_length_b                   8.2848(6)
_cell_length_c                   27.736(2)
_cell_angle_alpha                90
_cell_angle_beta                 90
_cell_angle_gamma                90
_cell_volume                     1754.72
loop_
_atom_site_label
_atom_site_type_symbol
_atom_site_fract_x
_atom_site_fract_y
_atom_site_fract_z
C1 C -0.4975(9) 0.4268(9) 0.3965(3)
H1 H -0.5588 0.3239 0.4007
H2 H -0.4503 0.4332 0.3637
H3 H -0.5795 0.5161 0.4018
C2 C 0.5584(9) 0.7633(10) 0.2412(3)
H4 H 0.6231 0.7235 0.2131
H5 H 0.5378 0.6740 0.2637
H6 H 0.6269 0.8475 0.2574
O1 O 0.3960(6) 0.8279(6) 0.22613(17)
O2 O -0.3570(6) 0.4376(6) 0.43052(17)
O3 O -0.0791(6) 0.4394(6) 0.48481(17)
O4 O 0.1191(5) 0.9724(5) 0.19517(16)
C3 C 0.0911(8) 0.9856(8) 0.4287(2)
H7 H 0.1325 1.0052 0.4624
C4 C -0.2568(8) 0.5752(8) 0.4290(3)
C5 C -0.2932(8) 0.7076(8) 0.4008(3)
H8 H -0.3952 0.7067 0.3812
C6 C 0.0003(8) 0.7094(8) 0.4583(2)
H9 H 0.1013 0.7100 0.4782
C7 C 0.2070(8) 0.9534(9) 0.3436(2)
C8 C -0.1066(9) 0.5770(8) 0.4583(2)
C9 C 0.2879(9) 0.8903(8) 0.2613(3)
C10 C -0.0772(8) 1.1025(8) 0.3613(2)
H10 H -0.1224 1.2055 0.3472
C11 C 0.3212(8) 0.8847(8) 0.3098(2)
H11 H 0.4247 0.8327 0.3208
C12 C 0.0052(9) 1.1388(8) 0.4100(2)
H12 H 0.0938 1.2253 0.4067
H13 H -0.0857 1.1758 0.4330
C13 C -0.2306(8) 0.9870(8) 0.3685(2)
H14 H -0.3292 1.0464 0.3834
H15 H -0.2700 0.9470 0.3367
C14 C 0.1365(8) 0.9694(7) 0.2444(2)
C15 C 0.2499(8) 0.9467(9) 0.3970(2)
H16 H 0.3447 1.0248 0.4041
H17 H 0.2935 0.8375 0.4051
C16 C -0.0363(8) 0.8455(8) 0.4291(2)
C17 C -0.1837(8) 0.8444(8) 0.4001(2)
C18 C 0.0564(8) 1.0308(7) 0.3271(2)
C19 C 0.0932(9) 0.4216(9) 0.5056(3)
H18 H 0.0993 0.3198 0.5235
H19 H 0.1162 0.5119 0.5275
H20 H 0.1810 0.4210 0.4798
C20 C 0.0240(8) 1.0373(7) 0.2771(3)
H21 H -0.0785 1.0901 0.2657
C21 C -0.0348(9) 1.0501(9) 0.1767(2)
H22 H -0.0335 1.0460 0.1414
H23 H -0.0368 1.1629 0.1873
H24 H -0.1392 0.9944 0.1888
C1 C 0.9975(9) 0.5732(9) 0.8965(3)
H1 H 1.0588 0.6761 0.9007
H2 H 0.9503 0.5668 0.8637
H3 H 1.0795 0.4839 0.9018
C2 C -0.0584(9) 0.2367(10) 0.7412(3)
H4 H -0.1231 0.2765 0.7131
H5 H -0.0378 0.3260 0.7637
H6 H -0.1269 0.1525 0.7574
O1 O 0.1040(6) 0.1721(6) 0.72613(17)
O2 O 0.8570(6) 0.5624(6) 0.93052(17)
O3 O 0.5791(6) 0.5606(6) 0.98481(17)
O4 O 0.3809(5) 0.0276(5) 0.69517(16)
C3 C 0.4089(8) 0.0144(8) 0.9287(2)
H7 H 0.3675 -0.0052 0.9624
C4 C 0.7568(8) 0.4248(8) 0.9290(3)
C5 C 0.7932(8) 0.2924(8) 0.9008(3)
H8 H 0.8952 0.2933 0.8812
C6 C 0.4997(8) 0.2906(8) 0.9583(2)
H9 H 0.3987 0.2900 0.9782
C7 C 0.2930(8) 0.0466(9) 0.8436(2)
C8 C 0.6066(9) 0.4230(8) 0.9583(2)
C9 C 0.2121(9) 0.1097(8) 0.7613(3)
C10 C 0.5772(8) -0.1025(8) 0.8613(2)
H10 H 0.6224 -0.2055 0.8472
C11 C 0.1788(8) 0.1153(8) 0.8098(2)
H11 H 0.0753 0.1673 0.8208
C12 C 0.4948(9) -0.1388(8) 0.9100(2)
H12 H 0.4062 -0.2253 0.9067
H13 H 0.5857 -0.1758 0.9330
C13 C 0.7306(8) 0.0130(8) 0.8685(2)
H14 H 0.8292 -0.0464 0.8834
H15 H 0.7700 0.0530 0.8367
C14 C 0.3635(8) 0.0306(7) 0.7444(2)
C15 C 0.2501(8) 0.0533(9) 0.8970(2)
H16 H 0.1553 -0.0248 0.9041
H17 H 0.2065 0.1625 0.9051
C16 C 0.5363(8) 0.1545(8) 0.9291(2)
C17 C 0.6837(8) 0.1556(8) 0.9001(2)
C18 C 0.4436(8) -0.0308(7) 0.8271(2)
C19 C 0.4068(9) 0.5784(9) 1.0056(3)
H18 H 0.4007 0.6802 1.0235
H19 H 0.3838 0.4881 1.0275
H20 H 0.3190 0.5790 0.9798
C20 C 0.4760(8) -0.0373(7) 0.7771(3)
H21 H 0.5785 -0.0901 0.7657
C21 C 0.5348(9) -0.0501(9) 0.6767(2)
H22 H 0.5335 -0.0460 0.6414
H23 H 0.5368 -0.1629 0.6873
H24 H 0.6392 0.0056 0.6888
C1 C 0.0025(9) 1.0732(9) 0.6035(3)
H1 H -0.0588 1.1761 0.5993
H2 H 0.0497 1.0668 0.6363
H3 H -0.0795 0.9839 0.5982
C2 C 1.0584(9) 0.7367(10) 0.7588(3)
H4 H 1.1231 0.7765 0.7869
H5 H 1.0378 0.8260 0.7363
H6 H 1.1269 0.6525 0.7426
O1 O 0.8960(6) 0.6721(6) 0.77387(17)
O2 O 0.1430(6) 1.0624(6) 0.56948(17)
O3 O 0.4209(6) 1.0606(6) 0.51519(17)
O4 O 0.6191(5) 0.5276(5) 0.80483(16)
C3 C 0.5911(8) 0.5144(8) 0.5713(2)
H7 H 0.6325 0.4948 0.5376
C4 C 0.2432(8) 0.9248(8) 0.5710(3)
C5 C 0.2068(8) 0.7924(8) 0.5992(3)
H8 H 0.1048 0.7933 0.6188
C6 C 0.5003(8) 0.7906(8) 0.5417(2)
H9 H 0.6013 0.7900 0.5218
C7 C 0.7070(8) 0.5466(9) 0.6564(2)
C8 C 0.3934(9) 0.9230(8) 0.5417(2)
C9 C 0.7879(9) 0.6097(8) 0.7387(3)
C10 C 0.4228(8) 0.3975(8) 0.6387(2)
H10 H 0.3776 0.2945 0.6528
C11 C 0.8212(8) 0.6153(8) 0.6902(2)
H11 H 0.9247 0.6673 0.6792
C12 C 0.5052(9) 0.3612(8) 0.5900(2)
H12 H 0.5938 0.2747 0.5933
H13 H 0.4143 0.3242 0.5670
C13 C 0.2694(8) 0.5130(8) 0.6315(2)
H14 H 0.1708 0.4536 0.6166
H15 H 0.2300 0.5530 0.6633
C14 C 0.6365(8) 0.5306(7) 0.7556(2)
C15 C 0.7499(8) 0.5533(9) 0.6030(2)
H16 H 0.8447 0.4752 0.5959
H17 H 0.7935 0.6625 0.5949
C16 C 0.4637(8) 0.6545(8) 0.5709(2)
C17 C 0.3163(8) 0.6556(8) 0.5999(2)
C18 C 0.5564(8) 0.4692(7) 0.6729(2)
C19 C 0.5932(9) 1.0784(9) 0.4944(3)
H18 H 0.5993 1.1802 0.4765
H19 H 0.6162 0.9881 0.4725
H20 H 0.6810 1.0790 0.5202
C20 C 0.5240(8) 0.4627(7) 0.7229(3)
H21 H 0.4215 0.4099 0.7343
C21 C 0.4652(9) 0.4499(9) 0.8233(2)
H22 H 0.4665 0.4540 0.8586
H23 H 0.4632 0.3371 0.8127
H24 H 0.3608 0.5056 0.8112
C1 C 1.4975(9) -0.0732(9) 0.1035(3)
H1 H 1.5588 -0.1761 0.0993
H2 H 1.4503 -0.0668 0.1363
H3 H 1.5795 0.0161 0.0982
C2 C 0.4416(9) 0.2633(10) 0.2588(3)
H4 H 0.3769 0.2235 0.2869
H5 H 0.4622 0.1740 0.2363
H6 H 0.3731 0.3475 0.2426
O1 O 0.6040(6) 0.3279(6) 0.27387(17)
O2 O 1.3570(6) -0.0624(6) 0.06948(17)
O3 O 1.0791(6) -0.0606(6) 0.01519(17)
O4 O 0.8809(5) 0.4724(5) 0.30483(16)
C3 C 0.9089(8) 0.4856(8) 0.0713(2)
H7 H 0.8675 0.5052 0.0376
C4 C 1.2568(8) 0.0752(8) 0.0710(3)
C5 C 1.2932(8) 0.2076(8) 0.0992(3)
H8 H 1.3952 0.2067 0.1188
C6 C 0.9997(8) 0.2094(8) 0.0417(2)
H9 H 0.8987 0.2100 0.0218
C7 C 0.7930(8) 0.4534(9) 0.1564(2)
C8 C 1.1066(9) 0.0770(8) 0.0417(2)
C9 C 0.7121(9) 0.3903(8) 0.2387(3)
C10 C 1.0772(8) 0.6025(8) 0.1387(2)
H10 H 1.1224 0.7055 0.1528
C11 C 0.6788(8) 0.3847(8) 0.1902(2)
H11 H 0.5753 0.3327 0.1792
C12 C 0.9948(9) 0.6388(8) 0.0900(2)
H12 H 0.9062 0.7253 0.0933
H13 H 1.0857 0.6758 0.0670
C13 C 1.2306(8) 0.4870(8) 0.1315(2)
H14 H 1.3292 0.5464 0.1166
H15 H 1.2700 0.4470 0.1633
C14 C 0.8635(8) 0.4694(7) 0.2556(2)
C15 C 0.7501(8) 0.4467(9) 0.1030(2)
H16 H 0.6553 0.5248 0.0959
H17 H 0.7065 0.3375 0.0949
C16 C 1.0363(8) 0.3455(8) 0.0709(2)
C17 C 1.1837(8) 0.3444(8) 0.0999(2)
C18 C 0.9436(8) 0.5308(7) 0.1729(2)
C19 C 0.9068(9) -0.0784(9) -0.0056(3)
H18 H 0.9007 -0.1802 -0.0235
H19 H 0.8838 0.0119 -0.0275
H20 H 0.8190 -0.0790 0.0202
C20 C 0.9760(8) 0.5373(7) 0.2229(3)
H21 H 1.0785 0.5901 0.2343
C21 C 1.0348(9) 0.5501(9) 0.3233(2)
H22 H 1.0335 0.5460 0.3586
H23 H 1.0368 0.6629 0.3127
H24 H 1.1392 0.4944 0.3112

#END
