
#######################################################################
#
#                 Cambridge Crystallographic Data Centre
#                                CCDC 
#
#######################################################################
#
# If this CIF has been generated from an entry in the Cambridge 
# Structural Database, then it will include bibliographic, chemical, 
# crystal, experimental, refinement or atomic coordinate data resulting 
# from the CCDC's data processing and validation procedures.
#
#######################################################################

data_MAQMOJ
_symmetry_cell_setting           orthorhombic
_symmetry_space_group_name_H-M   'P b c a'
_symmetry_Int_Tables_number      61
_space_group_name_Hall           '-P 2ac 2ab'
loop_
_symmetry_equiv_pos_site_id
_symmetry_equiv_pos_as_xyz
1 x,y,z
2 1/2-x,-y,1/2+z
3 1/2+x,1/2-y,-z
4 -x,1/2+y,1/2-z
5 -x,-y,-z
6 1/2+x,y,1/2-z
7 1/2-x,1/2+y,z
8 x,1/2-y,1/2+z
_cell_length_a                   15.1779(3)
_cell_length_b                   8.26990(10)
_cell_length_c                   27.9671(4)
_cell_angle_alpha                90
_cell_angle_beta                 90
_cell_angle_gamma                90
_cell_volume                     3510.42
loop_
_atom_site_label
_atom_site_type_symbol
_atom_site_fract_x
_atom_site_fract_y
_atom_site_fract_z
C1 C 0.63863(11) 0.1790(2) 0.50177(6)
H1 H 0.6522 0.2662 0.4792
H2 H 0.6456 0.0743 0.4858
H3 H 0.6789 0.1850 0.5291
C2 C 0.31951(11) 0.1778(2) 0.58606(6)
H4 H 0.3343 0.1943 0.6198
H5 H 0.2941 0.0699 0.5818
H6 H 0.2767 0.2597 0.5760
C3 C 0.52959(10) 0.33184(17) 0.54280(5)
C4 C 0.44472(10) 0.33068(17) 0.56366(5)
C5 C 0.41637(10) 0.46468(17) 0.58849(5)
H7 H 0.3591 0.4654 0.6022
C6 C 0.47113(10) 0.60031(17) 0.59371(5)
C7 C 0.55564(10) 0.60083(17) 0.57392(5)
C8 C 0.58408(10) 0.46476(18) 0.54840(5)
H8 H 0.6414 0.4637 0.5348
C9 C 0.43806(9) 0.74030(18) 0.62149(5)
C10 C 0.50612(10) 0.86763(17) 0.63496(5)
H9 H 0.4758 0.9701 0.6444
C11 C 0.56608(11) 0.89897(18) 0.59210(5)
H10 H 0.6076 0.9878 0.5995
H11 H 0.5304 0.9312 0.5641
C12 C 0.61727(10) 0.74394(18) 0.58087(5)
H12 H 0.6532 0.7601 0.5513
C13 C 0.55745(10) 0.80072(16) 0.67721(5)
C14 C 0.63838(10) 0.72384(17) 0.67116(5)
C15 C 0.67782(10) 0.70446(18) 0.62265(5)
C16 C 0.51985(10) 0.80778(17) 0.72305(5)
H13 H 0.4651 0.8613 0.7276
C17 C 0.56201(10) 0.73729(17) 0.76168(5)
C18 C 0.64395(10) 0.65870(16) 0.75522(5)
C19 C 0.68185(10) 0.65446(17) 0.71050(5)
H14 H 0.7376 0.6044 0.7062
C20 C 0.44659(12) 0.8054(2) 0.81590(6)
H15 H 0.4483 0.9207 0.8078
H16 H 0.4312 0.7928 0.8497
H17 H 0.4023 0.7511 0.7961
C21 C 0.75723(12) 0.5003(2) 0.79060(6)
H18 H 0.7487 0.4161 0.7664
H19 H 0.7722 0.4498 0.8213
H20 H 0.8052 0.5722 0.7807
O1 O 0.55036(7) 0.19572(12) 0.51804(4)
O2 O 0.39752(7) 0.19189(13) 0.55767(4)
O3 O 0.36118(7) 0.75092(14) 0.63401(4)
O4 O 0.75248(8) 0.65451(16) 0.61687(4)
O5 O 0.53106(7) 0.73503(13) 0.80727(4)
O6 O 0.67815(7) 0.59121(13) 0.79567(4)
C1 C 0.86137(11) 0.8210(2) 0.00177(6)
H1 H 0.8478 0.7338 -0.0208
H2 H 0.8544 0.9257 -0.0142
H3 H 0.8211 0.8150 0.0291
C2 C 1.18049(11) 0.8222(2) 0.08606(6)
H4 H 1.1657 0.8057 0.1198
H5 H 1.2059 0.9301 0.0818
H6 H 1.2233 0.7403 0.0760
C3 C 0.97041(10) 0.66816(17) 0.04280(5)
C4 C 1.05528(10) 0.66932(17) 0.06366(5)
C5 C 1.08363(10) 0.53532(17) 0.08849(5)
H7 H 1.1409 0.5346 0.1022
C6 C 1.02887(10) 0.39969(17) 0.09371(5)
C7 C 0.94436(10) 0.39917(17) 0.07392(5)
C8 C 0.91592(10) 0.53524(18) 0.04840(5)
H8 H 0.8586 0.5363 0.0348
C9 C 1.06194(9) 0.25970(18) 0.12149(5)
C10 C 0.99388(10) 0.13237(17) 0.13496(5)
H9 H 1.0242 0.0299 0.1444
C11 C 0.93392(11) 0.10103(18) 0.09210(5)
H10 H 0.8924 0.0122 0.0995
H11 H 0.9696 0.0688 0.0641
C12 C 0.88273(10) 0.25606(18) 0.08087(5)
H12 H 0.8468 0.2399 0.0513
C13 C 0.94255(10) 0.19928(16) 0.17721(5)
C14 C 0.86162(10) 0.27616(17) 0.17116(5)
C15 C 0.82218(10) 0.29554(18) 0.12265(5)
C16 C 0.98015(10) 0.19222(17) 0.22305(5)
H13 H 1.0349 0.1387 0.2276
C17 C 0.93799(10) 0.26271(17) 0.26168(5)
C18 C 0.85605(10) 0.34130(16) 0.25522(5)
C19 C 0.81815(10) 0.34554(17) 0.21050(5)
H14 H 0.7624 0.3956 0.2062
C20 C 1.05341(12) 0.1946(2) 0.31590(6)
H15 H 1.0517 0.0793 0.3078
H16 H 1.0688 0.2072 0.3497
H17 H 1.0977 0.2489 0.2961
C21 C 0.74277(12) 0.4997(2) 0.29060(6)
H18 H 0.7513 0.5839 0.2664
H19 H 0.7278 0.5502 0.3213
H20 H 0.6948 0.4278 0.2807
O1 O 0.94964(7) 0.80428(12) 0.01804(4)
O2 O 1.10248(7) 0.80811(13) 0.05767(4)
O3 O 1.13882(7) 0.24908(14) 0.13401(4)
O4 O 0.74752(8) 0.34549(16) 0.11687(4)
O5 O 0.96894(7) 0.26497(13) 0.30727(4)
O6 O 0.82185(7) 0.40879(13) 0.29567(4)
C1 C 0.13863(11) 1.3210(2) 0.49823(6)
H1 H 0.1522 1.2338 0.5208
H2 H 0.1456 1.4257 0.5142
H3 H 0.1789 1.3150 0.4709
C2 C -0.18049(11) 1.3222(2) 0.41394(6)
H4 H -0.1657 1.3057 0.3802
H5 H -0.2059 1.4301 0.4182
H6 H -0.2233 1.2403 0.4240
C3 C 0.02959(10) 1.16816(17) 0.45720(5)
C4 C -0.05528(10) 1.16932(17) 0.43634(5)
C5 C -0.08363(10) 1.03532(17) 0.41151(5)
H7 H -0.1409 1.0346 0.3978
C6 C -0.02887(10) 0.89969(17) 0.40629(5)
C7 C 0.05564(10) 0.89917(17) 0.42608(5)
C8 C 0.08408(10) 1.03524(18) 0.45160(5)
H8 H 0.1414 1.0363 0.4652
C9 C -0.06194(9) 0.75970(18) 0.37851(5)
C10 C 0.00612(10) 0.63237(17) 0.36504(5)
H9 H -0.0242 0.5299 0.3556
C11 C 0.06608(11) 0.60103(18) 0.40790(5)
H10 H 0.1076 0.5122 0.4005
H11 H 0.0304 0.5688 0.4359
C12 C 0.11727(10) 0.75606(18) 0.41913(5)
H12 H 0.1532 0.7399 0.4487
C13 C 0.05745(10) 0.69928(16) 0.32279(5)
C14 C 0.13838(10) 0.77616(17) 0.32884(5)
C15 C 0.17782(10) 0.79554(18) 0.37735(5)
C16 C 0.01985(10) 0.69222(17) 0.27695(5)
H13 H -0.0349 0.6387 0.2724
C17 C 0.06201(10) 0.76271(17) 0.23832(5)
C18 C 0.14395(10) 0.84130(16) 0.24478(5)
C19 C 0.18185(10) 0.84554(17) 0.28950(5)
H14 H 0.2376 0.8956 0.2938
C20 C -0.05341(12) 0.6946(2) 0.18410(6)
H15 H -0.0517 0.5793 0.1922
H16 H -0.0688 0.7072 0.1503
H17 H -0.0977 0.7489 0.2039
C21 C 0.25723(12) 0.9997(2) 0.20940(6)
H18 H 0.2487 1.0839 0.2336
H19 H 0.2722 1.0502 0.1787
H20 H 0.3052 0.9278 0.2193
O1 O 0.05036(7) 1.30428(12) 0.48196(4)
O2 O -0.10248(7) 1.30811(13) 0.44233(4)
O3 O -0.13882(7) 0.74908(14) 0.36599(4)
O4 O 0.25248(8) 0.84549(16) 0.38313(4)
O5 O 0.03106(7) 0.76497(13) 0.19273(4)
O6 O 0.17815(7) 0.90879(13) 0.20433(4)
C1 C 0.36137(11) -0.3210(2) 0.99823(6)
H1 H 0.3478 -0.2338 1.0208
H2 H 0.3544 -0.4257 1.0142
H3 H 0.3211 -0.3150 0.9709
C2 C 0.68049(11) -0.3222(2) 0.91394(6)
H4 H 0.6657 -0.3057 0.8802
H5 H 0.7059 -0.4301 0.9182
H6 H 0.7233 -0.2403 0.9240
C3 C 0.47041(10) -0.16816(17) 0.95720(5)
C4 C 0.55528(10) -0.16932(17) 0.93634(5)
C5 C 0.58363(10) -0.03532(17) 0.91151(5)
H7 H 0.6409 -0.0346 0.8978
C6 C 0.52887(10) 0.10031(17) 0.90629(5)
C7 C 0.44436(10) 0.10083(17) 0.92608(5)
C8 C 0.41592(10) -0.03524(18) 0.95160(5)
H8 H 0.3586 -0.0363 0.9652
C9 C 0.56194(9) 0.24030(18) 0.87851(5)
C10 C 0.49388(10) 0.36763(17) 0.86504(5)
H9 H 0.5242 0.4701 0.8556
C11 C 0.43392(11) 0.39897(18) 0.90790(5)
H10 H 0.3924 0.4878 0.9005
H11 H 0.4696 0.4312 0.9359
C12 C 0.38273(10) 0.24394(18) 0.91913(5)
H12 H 0.3468 0.2601 0.9487
C13 C 0.44255(10) 0.30072(16) 0.82279(5)
C14 C 0.36162(10) 0.22384(17) 0.82884(5)
C15 C 0.32218(10) 0.20446(18) 0.87735(5)
C16 C 0.48015(10) 0.30778(17) 0.77695(5)
H13 H 0.5349 0.3613 0.7724
C17 C 0.43799(10) 0.23729(17) 0.73832(5)
C18 C 0.35605(10) 0.15870(16) 0.74478(5)
C19 C 0.31815(10) 0.15446(17) 0.78950(5)
H14 H 0.2624 0.1044 0.7938
C20 C 0.55341(12) 0.3054(2) 0.68410(6)
H15 H 0.5517 0.4207 0.6922
H16 H 0.5688 0.2928 0.6503
H17 H 0.5977 0.2511 0.7039
C21 C 0.24277(12) 0.0003(2) 0.70940(6)
H18 H 0.2513 -0.0839 0.7336
H19 H 0.2278 -0.0502 0.6787
H20 H 0.1948 0.0722 0.7193
O1 O 0.44964(7) -0.30428(12) 0.98196(4)
O2 O 0.60248(7) -0.30811(13) 0.94233(4)
O3 O 0.63882(7) 0.25092(14) 0.86599(4)
O4 O 0.24752(8) 0.15451(16) 0.88313(4)
O5 O 0.46894(7) 0.23503(13) 0.69273(4)
O6 O 0.32185(7) 0.09121(13) 0.70433(4)
C1 C 0.36137(11) 0.8210(2) 0.49823(6)
H1 H 0.3478 0.7338 0.5208
H2 H 0.3544 0.9257 0.5142
H3 H 0.3211 0.8150 0.4709
C2 C 0.68049(11) 0.8222(2) 0.41394(6)
H4 H 0.6657 0.8057 0.3802
H5 H 0.7059 0.9301 0.4182
H6 H 0.7233 0.7403 0.4240
C3 C 0.47041(10) 0.66816(17) 0.45720(5)
C4 C 0.55528(10) 0.66932(17) 0.43634(5)
C5 C 0.58363(10) 0.53532(17) 0.41151(5)
H7 H 0.6409 0.5346 0.3978
C6 C 0.52887(10) 0.39969(17) 0.40629(5)
C7 C 0.44436(10) 0.39917(17) 0.42608(5)
C8 C 0.41592(10) 0.53524(18) 0.45160(5)
H8 H 0.3586 0.5363 0.4652
C9 C 0.56194(9) 0.25970(18) 0.37851(5)
C10 C 0.49388(10) 0.13237(17) 0.36504(5)
H9 H 0.5242 0.0299 0.3556
C11 C 0.43392(11) 0.10103(18) 0.40790(5)
H10 H 0.3924 0.0122 0.4005
H11 H 0.4696 0.0688 0.4359
C12 C 0.38273(10) 0.25606(18) 0.41913(5)
H12 H 0.3468 0.2399 0.4487
C13 C 0.44255(10) 0.19928(16) 0.32279(5)
C14 C 0.36162(10) 0.27616(17) 0.32884(5)
C15 C 0.32218(10) 0.29554(18) 0.37735(5)
C16 C 0.48015(10) 0.19222(17) 0.27695(5)
H13 H 0.5349 0.1387 0.2724
C17 C 0.43799(10) 0.26271(17) 0.23832(5)
C18 C 0.35605(10) 0.34130(16) 0.24478(5)
C19 C 0.31815(10) 0.34554(17) 0.28950(5)
H14 H 0.2624 0.3956 0.2938
C20 C 0.55341(12) 0.1946(2) 0.18410(6)
H15 H 0.5517 0.0793 0.1922
H16 H 0.5688 0.2072 0.1503
H17 H 0.5977 0.2489 0.2039
C21 C 0.24277(12) 0.4997(2) 0.20940(6)
H18 H 0.2513 0.5839 0.2336
H19 H 0.2278 0.5502 0.1787
H20 H 0.1948 0.4278 0.2193
O1 O 0.44964(7) 0.80428(12) 0.48196(4)
O2 O 0.60248(7) 0.80811(13) 0.44233(4)
O3 O 0.63882(7) 0.24908(14) 0.36599(4)
O4 O 0.24752(8) 0.34549(16) 0.38313(4)
O5 O 0.46894(7) 0.26497(13) 0.19273(4)
O6 O 0.32185(7) 0.40879(13) 0.20433(4)
C1 C 0.13863(11) 0.1790(2) 0.99823(6)
H1 H 0.1522 0.2662 1.0208
H2 H 0.1456 0.0743 1.0142
H3 H 0.1789 0.1850 0.9709
C2 C -0.18049(11) 0.1778(2) 0.91394(6)
H4 H -0.1657 0.1943 0.8802
H5 H -0.2059 0.0699 0.9182
H6 H -0.2233 0.2597 0.9240
C3 C 0.02959(10) 0.33184(17) 0.95720(5)
C4 C -0.05528(10) 0.33068(17) 0.93634(5)
C5 C -0.08363(10) 0.46468(17) 0.91151(5)
H7 H -0.1409 0.4654 0.8978
C6 C -0.02887(10) 0.60031(17) 0.90629(5)
C7 C 0.05564(10) 0.60083(17) 0.92608(5)
C8 C 0.08408(10) 0.46476(18) 0.95160(5)
H8 H 0.1414 0.4637 0.9652
C9 C -0.06194(9) 0.74030(18) 0.87851(5)
C10 C 0.00612(10) 0.86763(17) 0.86504(5)
H9 H -0.0242 0.9701 0.8556
C11 C 0.06608(11) 0.89897(18) 0.90790(5)
H10 H 0.1076 0.9878 0.9005
H11 H 0.0304 0.9312 0.9359
C12 C 0.11727(10) 0.74394(18) 0.91913(5)
H12 H 0.1532 0.7601 0.9487
C13 C 0.05745(10) 0.80072(16) 0.82279(5)
C14 C 0.13838(10) 0.72384(17) 0.82884(5)
C15 C 0.17782(10) 0.70446(18) 0.87735(5)
C16 C 0.01985(10) 0.80778(17) 0.77695(5)
H13 H -0.0349 0.8613 0.7724
C17 C 0.06201(10) 0.73729(17) 0.73832(5)
C18 C 0.14395(10) 0.65870(16) 0.74478(5)
C19 C 0.18185(10) 0.65446(17) 0.78950(5)
H14 H 0.2376 0.6044 0.7938
C20 C -0.05341(12) 0.8054(2) 0.68410(6)
H15 H -0.0517 0.9207 0.6922
H16 H -0.0688 0.7928 0.6503
H17 H -0.0977 0.7511 0.7039
C21 C 0.25723(12) 0.5003(2) 0.70940(6)
H18 H 0.2487 0.4161 0.7336
H19 H 0.2722 0.4498 0.6787
H20 H 0.3052 0.5722 0.7193
O1 O 0.05036(7) 0.19572(12) 0.98196(4)
O2 O -0.10248(7) 0.19189(13) 0.94233(4)
O3 O -0.13882(7) 0.75092(14) 0.86599(4)
O4 O 0.25248(8) 0.65451(16) 0.88313(4)
O5 O 0.03106(7) 0.73503(13) 0.69273(4)
O6 O 0.17815(7) 0.59121(13) 0.70433(4)
C1 C 0.86137(11) -0.3210(2) 0.50177(6)
H1 H 0.8478 -0.2338 0.4792
H2 H 0.8544 -0.4257 0.4858
H3 H 0.8211 -0.3150 0.5291
C2 C 1.18049(11) -0.3222(2) 0.58606(6)
H4 H 1.1657 -0.3057 0.6198
H5 H 1.2059 -0.4301 0.5818
H6 H 1.2233 -0.2403 0.5760
C3 C 0.97041(10) -0.16816(17) 0.54280(5)
C4 C 1.05528(10) -0.16932(17) 0.56366(5)
C5 C 1.08363(10) -0.03532(17) 0.58849(5)
H7 H 1.1409 -0.0346 0.6022
C6 C 1.02887(10) 0.10031(17) 0.59371(5)
C7 C 0.94436(10) 0.10083(17) 0.57392(5)
C8 C 0.91592(10) -0.03524(18) 0.54840(5)
H8 H 0.8586 -0.0363 0.5348
C9 C 1.06194(9) 0.24030(18) 0.62149(5)
C10 C 0.99388(10) 0.36763(17) 0.63496(5)
H9 H 1.0242 0.4701 0.6444
C11 C 0.93392(11) 0.39897(18) 0.59210(5)
H10 H 0.8924 0.4878 0.5995
H11 H 0.9696 0.4312 0.5641
C12 C 0.88273(10) 0.24394(18) 0.58087(5)
H12 H 0.8468 0.2601 0.5513
C13 C 0.94255(10) 0.30072(16) 0.67721(5)
C14 C 0.86162(10) 0.22384(17) 0.67116(5)
C15 C 0.82218(10) 0.20446(18) 0.62265(5)
C16 C 0.98015(10) 0.30778(17) 0.72305(5)
H13 H 1.0349 0.3613 0.7276
C17 C 0.93799(10) 0.23729(17) 0.76168(5)
C18 C 0.85605(10) 0.15870(16) 0.75522(5)
C19 C 0.81815(10) 0.15446(17) 0.71050(5)
H14 H 0.7624 0.1044 0.7062
C20 C 1.05341(12) 0.3054(2) 0.81590(6)
H15 H 1.0517 0.4207 0.8078
H16 H 1.0688 0.2928 0.8497
H17 H 1.0977 0.2511 0.7961
C21 C 0.74277(12) 0.0003(2) 0.79060(6)
H18 H 0.7513 -0.0839 0.7664
H19 H 0.7278 -0.0502 0.8213
H20 H 0.6948 0.0722 0.7807
O1 O 0.94964(7) -0.30428(12) 0.51804(4)
O2 O 1.10248(7) -0.30811(13) 0.55767(4)
O3 O 1.13882(7) 0.25092(14) 0.63401(4)
O4 O 0.74752(8) 0.15451(16) 0.61687(4)
O5 O 0.96894(7) 0.23503(13) 0.80727(4)
O6 O 0.82185(7) 0.09121(13) 0.79567(4)
C1 C 0.63863(11) 1.3210(2) 0.00177(6)
H1 H 0.6522 1.2338 -0.0208
H2 H 0.6456 1.4257 -0.0142
H3 H 0.6789 1.3150 0.0291
C2 C 0.31951(11) 1.3222(2) 0.08606(6)
H4 H 0.3343 1.3057 0.1198
H5 H 0.2941 1.4301 0.0818
H6 H 0.2767 1.2403 0.0760
C3 C 0.52959(10) 1.16816(17) 0.04280(5)
C4 C 0.44472(10) 1.16932(17) 0.06366(5)
C5 C 0.41637(10) 1.03532(17) 0.08849(5)
H7 H 0.3591 1.0346 0.1022
C6 C 0.47113(10) 0.89969(17) 0.09371(5)
C7 C 0.55564(10) 0.89917(17) 0.07392(5)
C8 C 0.58408(10) 1.03524(18) 0.04840(5)
H8 H 0.6414 1.0363 0.0348
C9 C 0.43806(9) 0.75970(18) 0.12149(5)
C10 C 0.50612(10) 0.63237(17) 0.13496(5)
H9 H 0.4758 0.5299 0.1444
C11 C 0.56608(11) 0.60103(18) 0.09210(5)
H10 H 0.6076 0.5122 0.0995
H11 H 0.5304 0.5688 0.0641
C12 C 0.61727(10) 0.75606(18) 0.08087(5)
H12 H 0.6532 0.7399 0.0513
C13 C 0.55745(10) 0.69928(16) 0.17721(5)
C14 C 0.63838(10) 0.77616(17) 0.17116(5)
C15 C 0.67782(10) 0.79554(18) 0.12265(5)
C16 C 0.51985(10) 0.69222(17) 0.22305(5)
H13 H 0.4651 0.6387 0.2276
C17 C 0.56201(10) 0.76271(17) 0.26168(5)
C18 C 0.64395(10) 0.84130(16) 0.25522(5)
C19 C 0.68185(10) 0.84554(17) 0.21050(5)
H14 H 0.7376 0.8956 0.2062
C20 C 0.44659(12) 0.6946(2) 0.31590(6)
H15 H 0.4483 0.5793 0.3078
H16 H 0.4312 0.7072 0.3497
H17 H 0.4023 0.7489 0.2961
C21 C 0.75723(12) 0.9997(2) 0.29060(6)
H18 H 0.7487 1.0839 0.2664
H19 H 0.7722 1.0502 0.3213
H20 H 0.8052 0.9278 0.2807
O1 O 0.55036(7) 1.30428(12) 0.01804(4)
O2 O 0.39752(7) 1.30811(13) 0.05767(4)
O3 O 0.36118(7) 0.74908(14) 0.13401(4)
O4 O 0.75248(8) 0.84549(16) 0.11687(4)
O5 O 0.53106(7) 0.76497(13) 0.30727(4)
O6 O 0.67815(7) 0.90879(13) 0.29567(4)

#END
