
#######################################################################
#
#                 Cambridge Crystallographic Data Centre
#                                CCDC 
#
#######################################################################
#
# If this CIF has been generated from an entry in the Cambridge 
# Structural Database, then it will include bibliographic, chemical, 
# crystal, experimental, refinement or atomic coordinate data resulting 
# from the CCDC's data processing and validation procedures.
#
#######################################################################

data_MAQQON
_symmetry_cell_setting           triclinic
_symmetry_space_group_name_H-M   'P -1'
_symmetry_Int_Tables_number      2
_space_group_name_Hall           '-P 1'
loop_
_symmetry_equiv_pos_site_id
_symmetry_equiv_pos_as_xyz
1 x,y,z
2 -x,-y,-z
_cell_length_a                   8.7534(7)
_cell_length_b                   9.3029(7)
_cell_length_c                   10.2662(8)
_cell_angle_alpha                89.203(2)
_cell_angle_beta                 78.281(2)
_cell_angle_gamma                66.4680(10)
_cell_volume                     748.392
loop_
_atom_site_label
_atom_site_type_symbol
_atom_site_fract_x
_atom_site_fract_y
_atom_site_fract_z
O1 O -0.50712(11) 0.45172(12) 0.17885(10)
N1 N -0.28073(14) 0.39740(13) -0.00621(11)
H1 H -0.345(2) 0.4478(19) -0.0662(16)
N2 N -0.21898(13) 0.30965(12) 0.18258(11)
C1 C -0.35246(17) 0.39226(15) 0.12306(14)
C2 C -0.10240(16) 0.32220(14) -0.02816(13)
C3 C -0.06432(16) 0.26655(14) 0.08929(13)
C4 C 0.00568(16) 0.32130(14) -0.15737(13)
C5 C -0.05162(18) 0.32360(15) -0.27578(14)
H2 H -0.1586 0.3188 -0.2729
C6 C 0.04678(19) 0.33281(17) -0.39664(14)
H3 H 0.0065 0.3346 -0.4761
C7 C 0.20384(19) 0.33941(17) -0.40319(15)
H4 H 0.2707 0.3459 -0.4866
C8 C 0.26243(18) 0.33642(16) -0.28679(14)
H5 H 0.3700 0.3404 -0.2906
C9 C 0.16431(16) 0.32765(14) -0.16505(13)
H6 H 0.2053 0.3259 -0.0859
C10 C 0.10294(16) 0.17803(15) 0.12524(12)
C11 C 0.19483(17) 0.01858(15) 0.08735(14)
H7 H 0.1492 -0.0356 0.0394
C12 C 0.35282(17) -0.06201(16) 0.11915(15)
H8 H 0.4142 -0.1712 0.0940
C13 C 0.42090(17) 0.01668(16) 0.18744(14)
H9 H 0.5295 -0.0382 0.2083
C14 C 0.33065(17) 0.17539(16) 0.22530(13)
H10 H 0.3776 0.2296 0.2718
C15 C 0.17167(17) 0.25549(15) 0.19552(13)
H11 H 0.1092 0.3640 0.2233
C16 C -0.24233(17) 0.27923(16) 0.32354(13)
H12 H -0.3566 0.3545 0.3710
H13 H -0.1564 0.2988 0.3614
C17 C -0.2267(2) 0.11405(18) 0.34929(15)
H14 H -0.1115 0.0378 0.3046
H15 H -0.3115 0.0929 0.3112
C18 C -0.2558(2) 0.0925(2) 0.49815(17)
H16 H -0.2489 -0.0141 0.5127
H17 H -0.3690 0.1693 0.5427
H18 H -0.1684 0.1083 0.5350
O1 O 1.50712(11) 0.54828(12) 0.82115(10)
N1 N 1.28073(14) 0.60260(13) 1.00621(11)
H1 H 1.345(2) 0.5522(19) 1.0662(16)
N2 N 1.21898(13) 0.69035(12) 0.81742(11)
C1 C 1.35246(17) 0.60774(15) 0.87694(14)
C2 C 1.10240(16) 0.67780(14) 1.02816(13)
C3 C 1.06432(16) 0.73345(14) 0.91071(13)
C4 C 0.99432(16) 0.67870(14) 1.15737(13)
C5 C 1.05162(18) 0.67640(15) 1.27578(14)
H2 H 1.1586 0.6812 1.2729
C6 C 0.95322(19) 0.66719(17) 1.39664(14)
H3 H 0.9935 0.6654 1.4761
C7 C 0.79616(19) 0.66059(17) 1.40319(15)
H4 H 0.7293 0.6541 1.4866
C8 C 0.73757(18) 0.66358(16) 1.28679(14)
H5 H 0.6300 0.6596 1.2906
C9 C 0.83569(16) 0.67235(14) 1.16505(13)
H6 H 0.7947 0.6741 1.0859
C10 C 0.89706(16) 0.82197(15) 0.87476(12)
C11 C 0.80517(17) 0.98142(15) 0.91265(14)
H7 H 0.8508 1.0356 0.9606
C12 C 0.64718(17) 1.06201(16) 0.88085(15)
H8 H 0.5858 1.1712 0.9060
C13 C 0.57910(17) 0.98332(16) 0.81256(14)
H9 H 0.4705 1.0382 0.7917
C14 C 0.66935(17) 0.82461(16) 0.77470(13)
H10 H 0.6224 0.7704 0.7282
C15 C 0.82833(17) 0.74451(15) 0.80448(13)
H11 H 0.8908 0.6360 0.7767
C16 C 1.24233(17) 0.72077(16) 0.67646(13)
H12 H 1.3566 0.6455 0.6290
H13 H 1.1564 0.7012 0.6386
C17 C 1.2267(2) 0.88595(18) 0.65071(15)
H14 H 1.1115 0.9622 0.6954
H15 H 1.3115 0.9071 0.6888
C18 C 1.2558(2) 0.9075(2) 0.50185(17)
H16 H 1.2489 1.0141 0.4873
H17 H 1.3690 0.8307 0.4573
H18 H 1.1684 0.8917 0.4650

#END
