
#######################################################################
#
#                 Cambridge Crystallographic Data Centre
#                                CCDC 
#
#######################################################################
#
# If this CIF has been generated from an entry in the Cambridge 
# Structural Database, then it will include bibliographic, chemical, 
# crystal, experimental, refinement or atomic coordinate data resulting 
# from the CCDC's data processing and validation procedures.
#
#######################################################################

data_MAQQED
_symmetry_cell_setting           triclinic
_symmetry_space_group_name_H-M   'P -1'
_symmetry_Int_Tables_number      2
_space_group_name_Hall           '-P 1'
loop_
_symmetry_equiv_pos_site_id
_symmetry_equiv_pos_as_xyz
1 x,y,z
2 -x,-y,-z
_cell_length_a                   8.925(3)
_cell_length_b                   9.067(3)
_cell_length_c                   9.996(3)
_cell_angle_alpha                107.468(5)
_cell_angle_beta                 96.662(5)
_cell_angle_gamma                113.768(5)
_cell_volume                     679.64
loop_
_atom_site_label
_atom_site_type_symbol
_atom_site_fract_x
_atom_site_fract_y
_atom_site_fract_z
O1 O 1.0208(2) 0.5325(3) 0.6964(2)
N1 N 0.7833(3) 0.4005(3) 0.4968(2)
N2 N 0.7406(3) 0.3960(3) 0.7052(2)
H1 H 0.842(4) 0.419(4) 0.428(4)
C1 C 0.8655(3) 0.4514(3) 0.6376(3)
C2 C 0.6081(3) 0.3147(3) 0.4750(3)
C3 C 0.5810(3) 0.3098(3) 0.6040(3)
C4 C 0.4885(3) 0.2547(3) 0.3337(3)
C5 C 0.5335(4) 0.2079(3) 0.2049(3)
H2 H 0.6412 0.2104 0.2077
C6 C 0.4221(4) 0.1577(4) 0.0726(3)
H3 H 0.4543 0.1270 -0.0150
C7 C 0.2644(4) 0.1521(4) 0.0669(3)
H4 H 0.1877 0.1161 -0.0243
C8 C 0.2192(4) 0.1988(4) 0.1938(3)
H5 H 0.1111 0.1956 0.1900
C9 C 0.3294(3) 0.2503(3) 0.3269(3)
H6 H 0.2970 0.2829 0.4140
C10 C 0.4211(3) 0.2376(3) 0.6438(3)
C11 C 0.3660(4) 0.3492(4) 0.7268(3)
H7 H 0.4374 0.4716 0.7656
C12 C 0.2088(4) 0.2829(4) 0.7527(3)
H8 H 0.1711 0.3599 0.8073
C13 C 0.1054(4) 0.1044(4) 0.6994(3)
H9 H -0.0036 0.0590 0.7163
C14 C 0.1618(4) -0.0075(4) 0.6214(3)
H10 H 0.0926 -0.1300 0.5874
C15 C 0.3176(3) 0.0580(3) 0.5929(3)
H11 H 0.3549 -0.0195 0.5383
C16 C 0.7751(3) 0.4182(4) 0.8579(3)
H12 H 0.6862 0.4387 0.8987
H13 H 0.8859 0.5223 0.9127
C17 C 0.7797(4) 0.2616(4) 0.8789(3)
H14 H 0.7977 0.2803 0.9824
H15 H 0.8728 0.2455 0.8449
H16 H 0.6714 0.1574 0.8228
O1 O -0.0208(2) 0.4675(3) 0.3036(2)
N1 N 0.2167(3) 0.5995(3) 0.5032(2)
N2 N 0.2594(3) 0.6040(3) 0.2948(2)
H1 H 0.158(4) 0.581(4) 0.572(4)
C1 C 0.1345(3) 0.5486(3) 0.3624(3)
C2 C 0.3919(3) 0.6853(3) 0.5250(3)
C3 C 0.4190(3) 0.6902(3) 0.3960(3)
C4 C 0.5115(3) 0.7453(3) 0.6663(3)
C5 C 0.4665(4) 0.7921(3) 0.7951(3)
H2 H 0.3588 0.7896 0.7923
C6 C 0.5779(4) 0.8423(4) 0.9274(3)
H3 H 0.5457 0.8730 1.0150
C7 C 0.7356(4) 0.8479(4) 0.9331(3)
H4 H 0.8123 0.8839 1.0243
C8 C 0.7808(4) 0.8012(4) 0.8062(3)
H5 H 0.8889 0.8044 0.8100
C9 C 0.6706(3) 0.7497(3) 0.6731(3)
H6 H 0.7030 0.7171 0.5860
C10 C 0.5789(3) 0.7624(3) 0.3562(3)
C11 C 0.6340(4) 0.6508(4) 0.2732(3)
H7 H 0.5626 0.5284 0.2344
C12 C 0.7912(4) 0.7171(4) 0.2473(3)
H8 H 0.8289 0.6401 0.1927
C13 C 0.8946(4) 0.8956(4) 0.3006(3)
H9 H 1.0036 0.9410 0.2837
C14 C 0.8382(4) 1.0075(4) 0.3786(3)
H10 H 0.9074 1.1300 0.4126
C15 C 0.6824(3) 0.9420(3) 0.4071(3)
H11 H 0.6451 1.0195 0.4617
C16 C 0.2249(3) 0.5818(4) 0.1421(3)
H12 H 0.3138 0.5613 0.1013
H13 H 0.1141 0.4777 0.0873
C17 C 0.2203(4) 0.7384(4) 0.1211(3)
H14 H 0.2023 0.7197 0.0176
H15 H 0.1272 0.7545 0.1551
H16 H 0.3286 0.8426 0.1772

#END
