
#######################################################################
#
#                 Cambridge Crystallographic Data Centre
#                                CCDC 
#
#######################################################################
#
# If this CIF has been generated from an entry in the Cambridge 
# Structural Database, then it will include bibliographic, chemical, 
# crystal, experimental, refinement or atomic coordinate data resulting 
# from the CCDC's data processing and validation procedures.
#
#######################################################################

data_MAQRUU
_symmetry_cell_setting           triclinic
_symmetry_space_group_name_H-M   'P -1'
_symmetry_Int_Tables_number      2
_space_group_name_Hall           '-P 1'
loop_
_symmetry_equiv_pos_site_id
_symmetry_equiv_pos_as_xyz
1 x,y,z
2 -x,-y,-z
_cell_length_a                   8.6235(3)
_cell_length_b                   10.0092(3)
_cell_length_c                   10.4708(4)
_cell_angle_alpha                77.2960(10)
_cell_angle_beta                 72.6760(10)
_cell_angle_gamma                75.9120(10)
_cell_volume                     826.155
loop_
_atom_site_label
_atom_site_type_symbol
_atom_site_fract_x
_atom_site_fract_y
_atom_site_fract_z
Cl1 Cl 0.75391(10) -0.02241(8) 0.50889(8)
O1 O 0.6412(3) 0.6040(2) 0.3306(2)
O2 O 0.6503(3) 0.8198(2) 0.2099(2)
N1 N 0.7631(3) 0.4809(3) -0.0483(3)
N2 N 0.7391(3) 0.6111(3) -0.1242(3)
C1 C 0.7865(5) 0.6203(4) 0.4905(4)
H1 H 0.8280 0.5216 0.4964
H2 H 0.7722 0.6481 0.5760
H3 H 0.8638 0.6690 0.4214
C2 C 0.6234(5) 0.6548(4) 0.4555(3)
H4 H 0.5425 0.6120 0.5287
H5 H 0.5844 0.7550 0.4442
C3 C 0.6644(4) 0.6953(3) 0.2147(3)
C4 C 0.7056(4) 0.6276(3) 0.0951(3)
C5 C 0.7432(4) 0.4862(3) 0.0841(3)
C6 C 0.8055(4) 0.3621(3) -0.1158(3)
C7 C 0.7168(4) 0.3590(3) -0.2054(3)
H6 H 0.6319 0.4328 -0.2215
C8 C 0.7563(4) 0.2442(4) -0.2705(3)
H7 H 0.6978 0.2411 -0.3311
C9 C 0.8821(4) 0.1342(3) -0.2463(3)
H8 H 0.9070 0.0570 -0.2896
C10 C 0.9709(4) 0.1391(3) -0.1572(3)
H9 H 1.0565 0.0656 -0.1420
C11 C 0.9329(4) 0.2528(3) -0.0908(3)
H10 H 0.9917 0.2560 -0.0305
C12 C 0.7049(4) 0.6993(3) -0.0375(3)
C13 C 0.6673(5) 0.8530(3) -0.0853(4)
H11 H 0.6915 0.8704 -0.1824
H12 H 0.7340 0.8984 -0.0563
H13 H 0.5524 0.8887 -0.0479
C14 C 0.7514(4) 0.3589(3) 0.1873(3)
C15 C 0.8570(4) 0.3327(3) 0.2709(3)
H14 H 0.9262 0.3945 0.2610
C16 C 0.8596(4) 0.2149(3) 0.3690(3)
H15 H 0.9292 0.1979 0.4260
C17 C 0.7574(4) 0.1226(3) 0.3816(3)
C18 C 0.6543(4) 0.1447(3) 0.2966(3)
H16 H 0.5885 0.0807 0.3044
C19 C 0.6509(4) 0.2634(3) 0.2002(3)
H17 H 0.5812 0.2802 0.1433
Cl1 Cl 0.24609(10) 1.02241(8) 0.49111(8)
O1 O 0.3588(3) 0.3960(2) 0.6694(2)
O2 O 0.3497(3) 0.1802(2) 0.7901(2)
N1 N 0.2369(3) 0.5191(3) 1.0483(3)
N2 N 0.2609(3) 0.3889(3) 1.1242(3)
C1 C 0.2135(5) 0.3797(4) 0.5095(4)
H1 H 0.1720 0.4784 0.5036
H2 H 0.2278 0.3519 0.4240
H3 H 0.1362 0.3310 0.5786
C2 C 0.3766(5) 0.3452(4) 0.5445(3)
H4 H 0.4575 0.3880 0.4713
H5 H 0.4156 0.2450 0.5558
C3 C 0.3356(4) 0.3047(3) 0.7853(3)
C4 C 0.2944(4) 0.3724(3) 0.9049(3)
C5 C 0.2568(4) 0.5138(3) 0.9159(3)
C6 C 0.1945(4) 0.6379(3) 1.1158(3)
C7 C 0.2832(4) 0.6410(3) 1.2054(3)
H6 H 0.3681 0.5672 1.2215
C8 C 0.2437(4) 0.7558(4) 1.2705(3)
H7 H 0.3022 0.7589 1.3311
C9 C 0.1179(4) 0.8658(3) 1.2463(3)
H8 H 0.0930 0.9430 1.2896
C10 C 0.0291(4) 0.8609(3) 1.1572(3)
H9 H -0.0565 0.9344 1.1420
C11 C 0.0671(4) 0.7472(3) 1.0908(3)
H10 H 0.0083 0.7440 1.0305
C12 C 0.2951(4) 0.3007(3) 1.0375(3)
C13 C 0.3327(5) 0.1470(3) 1.0853(4)
H11 H 0.3085 0.1296 1.1824
H12 H 0.2660 0.1016 1.0563
H13 H 0.4476 0.1113 1.0479
C14 C 0.2486(4) 0.6411(3) 0.8127(3)
C15 C 0.1430(4) 0.6673(3) 0.7291(3)
H14 H 0.0738 0.6055 0.7390
C16 C 0.1404(4) 0.7851(3) 0.6310(3)
H15 H 0.0708 0.8021 0.5740
C17 C 0.2426(4) 0.8774(3) 0.6184(3)
C18 C 0.3457(4) 0.8553(3) 0.7034(3)
H16 H 0.4115 0.9193 0.6956
C19 C 0.3491(4) 0.7366(3) 0.7998(3)
H17 H 0.4188 0.7198 0.8567

#END
