./MAQTIK_from_POSCAR.cif_generated_by_CrystalShift
_symmetry_cell_setting triclinic
_symmetry_space_group_name_H-M 'P 1'
loop_
_symmetry_equiv_pos_site_id
_symmetry_equiv_pos_as_xyz
1 x,y,z
_cell_length_a 10.795300
_cell_length_b 18.409100
_cell_length_c 10.933300
_cell_angle_alpha 90.000000
_cell_angle_beta 92.583000
_cell_angle_gamma 90.000000
_cell_volume 2170.586331
loop_
_atom_site_label
_atom_site_type_symbol
_atom_site_fract_x
_atom_site_fract_y
_atom_site_fract_z
H1 H 0.815800 0.297800 0.369400
H2 H 0.104700 0.608500 0.890400
H3 H 0.517400 0.375500 0.182700
H4 H 0.439600 0.875300 -0.125600
H5 H 0.431800 0.445500 0.141800
H6 H 0.335900 0.815600 -0.125100
H7 H 0.890500 -0.068200 0.861800
H8 H 0.475700 0.792800 -0.128500
H9 H 0.793400 0.023700 1.365500
H10 H 0.417600 0.697600 0.366200
H11 H 0.640700 -0.030100 0.974000
H12 H 0.647700 0.375400 0.375700
H13 H 0.899000 0.063700 1.199000
H14 H 0.453800 0.802000 0.256900
H15 H 0.350300 0.699200 -0.055000
H16 H 0.421400 0.204100 0.415300
H17 H 0.338500 0.320300 0.440700
H18 H 0.536200 -0.068500 1.141400
H19 H 0.591000 0.126000 0.405000
H20 H 0.702200 0.069300 0.865100
H21 H 0.202200 0.430700 0.365100
H22 H 0.036200 0.568500 0.641400
H23 H 1.091000 0.374000 0.905000
H24 H 0.399000 0.436300 0.699000
H25 H 0.838500 0.179700 0.940700
H26 H 0.140700 0.530100 0.474000
H27 H 0.921400 0.295900 0.915300
H28 H 0.293400 0.476300 0.865500
H29 H 0.390500 0.568200 0.361800
H30 H 0.850300 -0.199200 0.445000
H31 H 0.116100 0.532400 0.954000
H32 H 0.318100 0.593500 0.054900
H33 H 0.953800 -0.302000 0.756900
H34 H -0.315800 0.797800 0.130600
H35 H 1.147700 0.124600 0.875700
H36 H -0.017400 0.875500 0.317300
H37 H 0.917600 -0.197600 0.866200
H38 H 0.068200 0.945500 0.358200
H39 H 0.975700 -0.292800 0.371500
H40 H 0.835900 -0.315600 0.374900
H41 H 0.939600 -0.375300 0.374400
H42 H 0.249500 0.868800 0.369200
H43 H 0.604700 -0.108500 1.390400
H44 H 0.500000 -0.050400 1.368200
H45 H 0.616100 -0.032400 1.454000
H46 H 0.163900 0.798800 0.328300
H47 H 0.818100 -0.093500 0.554900
H48 H -0.287400 0.673800 0.116800
H49 H 1.287400 0.326200 0.883200
H50 H 0.181900 1.093500 0.445100
H51 H 0.836100 0.201200 0.671700
H52 H 0.750500 0.131200 0.630800
H53 H 0.383900 1.032400 -0.454000
H54 H 0.931800 0.054500 0.641800
H55 H 1.017400 0.124500 0.682700
H56 H 0.500000 1.050400 -0.368200
H57 H 1.315800 0.202200 0.869400
H58 H 0.395300 1.108500 -0.390400
H59 H 0.060400 1.375300 0.625600
H60 H 0.250500 0.368800 0.130800
H61 H 0.164100 1.315600 0.625100
H62 H 0.336100 0.298800 0.171700
H63 H 0.024300 1.292800 0.628500
H64 H 0.609500 0.431800 0.638200
H65 H 0.082400 1.197600 0.133800
H66 H 0.706600 0.523700 0.134500
H67 H -0.147700 0.875400 0.124300
H68 H 0.859300 0.469900 0.526000
H69 H 0.046200 1.302000 0.243100
H70 H 0.601000 0.563700 0.301000
H71 H 0.149700 1.199200 0.555000
H72 H 0.078600 0.704100 0.084700
H73 H 0.161500 0.820300 0.059300
H74 H -0.091000 0.626000 0.095000
H75 H 0.963800 0.431500 0.358600
H76 H 0.297800 0.930700 0.134900
H77 H 0.797800 0.569300 0.634900
H78 H 0.463800 1.068500 -0.141400
H79 H 0.101000 0.936300 -0.199000
H80 H 0.409000 0.874000 0.595000
H81 H 0.359300 1.030100 0.026000
H82 H 0.661500 0.679700 0.559300
H83 H 0.206600 0.976300 -0.365500
H84 H 0.578600 0.795900 0.584700
H85 H 0.109500 1.068200 0.138200
H86 H 0.787400 0.173800 0.383200
H87 H 0.649700 0.300800 1.055000
H88 H 0.184200 0.702200 0.630600
H89 H 0.482600 0.624500 0.817300
H90 H 0.546200 0.198000 0.743100
H91 H 0.568200 0.554500 0.858200
H92 H 0.352300 0.624600 0.624300
H93 H 0.749500 0.631200 0.869200
H94 H 0.582400 0.302400 0.633800
H95 H 0.663900 0.701200 0.828300
H96 H 0.524300 0.207200 1.128500
H97 H 0.664100 0.184400 1.125100
H98 H 0.560400 0.124700 1.125600
H99 H 0.212600 0.826200 0.616800
H100 H 0.895300 0.391500 0.109600
H101 H 1.000000 0.449600 0.131800
H102 H 0.883900 0.467600 0.046000
H103 H 0.681900 0.406500 0.945100
H104 H 0.000000 0.550400 0.868200
C105 C 0.280470 0.795260 0.613500
C106 C 0.912350 0.442420 0.118770
C107 C 0.676490 0.649070 0.823690
C108 C 0.581010 0.172360 1.097100
C109 C 0.595250 0.302370 0.718530
C110 C 0.563170 0.601200 0.817070
C111 C 0.364000 0.674460 0.617670
C112 C 0.573980 0.239660 0.783860
C113 C 0.263280 0.720950 0.622010
C114 C 0.639410 0.611930 0.706670
C115 C 0.736720 0.279050 0.377990
C116 C 0.323510 0.350930 0.176310
C117 C 0.635320 0.301180 0.970530
C118 C 0.217100 0.979900 -0.068330
C119 C 0.719530 0.204740 0.386500
C120 C 0.087650 0.557580 0.881230
C121 C 0.482830 0.702030 0.603350
C122 C 0.237260 0.987670 -0.286960
C123 C 0.499710 0.777050 0.594450
C124 C 0.327670 1.019420 -0.052530
C125 C 0.592840 0.652400 0.592820
C126 C 0.173130 0.963440 -0.186680
C127 C 0.397920 0.823980 0.600130
C128 C 0.226560 1.014410 0.236430
C129 C 0.346020 1.028460 -0.272870
C130 C 0.135630 1.134590 0.278010
C131 C 0.390220 1.042680 -0.153650
C132 C 0.594030 0.238760 0.910470
C133 C 0.214880 0.948830 0.151650
C134 C 0.714880 0.551170 0.651650
C135 C 0.094030 1.261240 0.410470
C136 C -0.102080 0.676020 0.100130
C137 C 0.890220 0.457320 0.346350
C138 C 0.092840 0.847600 0.092820
C139 C 0.635630 0.365410 0.778010
C140 C -0.000290 0.722950 0.094450
C141 C 0.846020 0.471540 0.227130
C142 C -0.017170 0.797970 0.103350
C143 C 0.135320 1.198820 0.470530
C144 C 0.726560 0.485590 0.736430
C145 C 0.139410 0.888070 0.206670
C146 C 0.073980 1.260340 0.283860
C147 C 0.673130 0.536560 0.313320
C148 C -0.136000 0.825540 0.117670
C149 C 0.827670 0.480580 0.447470
C150 C 0.095250 1.197630 0.218530
C151 C 0.737260 0.512330 0.213040
C152 C 0.081010 1.327640 0.597100
C153 C 0.782900 0.020100 1.068330
C154 C 0.717100 0.520100 0.431670
C155 C 0.436830 0.398800 0.182930
C156 C 0.412350 1.057580 -0.381230
C157 C 0.762740 0.012330 1.286960
C158 C 1.236720 0.220950 0.877990
C159 C 0.936830 0.101200 0.682930
C160 C 0.155310 1.135430 0.404380
C161 C 0.823510 0.149070 0.676310
C162 C -0.219530 0.704740 0.113500
C163 C 1.219530 0.295260 0.886500
C164 C 0.176490 0.850930 0.323690
C165 C 0.844690 -0.135430 0.595620
C166 C 0.587650 -0.057580 1.381230
C167 C 0.063170 0.898800 0.317070
C168 C 0.918990 -0.327640 0.402900
C169 C 0.904750 -0.197630 0.781470
C170 C -0.236720 0.779050 0.122010
C171 C 1.136000 0.174460 0.882330
C172 C 0.418990 0.827640 -0.097100
C173 C 0.926020 -0.260340 0.716140
C174 C 0.344690 0.635430 0.095620
C175 C 0.282900 0.479900 0.568330
C176 C 0.860590 0.111930 0.793330
C177 C 0.672330 -0.019420 1.052530
C178 C 0.864680 -0.198820 0.529470
C179 C 0.262740 0.487670 0.786960
C180 C 1.017170 0.202030 0.896650
C181 C 0.172330 0.519420 0.552530
C182 C 1.000290 0.277050 0.905550
C183 C 0.326870 0.463440 0.686680
C184 C 0.907160 0.152400 0.907180
C185 C 0.273440 0.514410 0.263570
C186 C 0.153980 0.528460 0.772870
C187 C 0.364370 0.634590 0.221990
C188 C 0.109780 0.542680 0.653650
C189 C 1.102080 0.323980 0.899870
C190 C 0.285120 0.448830 0.348350
C191 C 0.905970 -0.261240 0.589530
C192 C 0.405970 0.761240 0.089530
C193 C 0.602080 0.176020 0.399870
C194 C 0.785120 0.051170 0.848350
C195 C 0.407160 0.347600 0.407180
C196 C 0.609780 -0.042680 1.153650
C197 C 0.500290 0.222950 0.405550
C198 C 0.864370 -0.134590 0.721990
C199 C 0.517170 0.297970 0.396650
C200 C 0.364680 0.698820 0.029470
C201 C 0.653980 -0.028460 1.272870
C202 C 0.360590 0.388070 0.293330
C203 C 0.426020 0.760340 0.216140
C204 C 0.773440 -0.014410 0.763570
C205 C 0.636000 0.325540 0.382330
C206 C 0.826870 0.036560 1.186680
C207 C 0.404750 0.697630 0.281470
C208 C 0.655310 0.364570 0.904380
N209 N 0.646500 0.535330 0.535230
N210 N 0.848370 -0.070910 0.793250
N211 N 0.651630 0.429090 0.706750
N212 N 0.151630 1.070910 0.206750
N213 N 0.146500 0.964670 0.035230
N214 N 0.353500 0.464670 0.464770
N215 N 0.348370 0.570910 0.293250
N216 N 0.853500 0.035330 0.964770
O217 O 0.202300 0.511230 0.173630
O218 O 0.441990 0.406230 0.489520
O219 O 0.072420 1.326410 0.466640
O220 O 0.297700 1.011230 0.326370
O221 O 0.058010 0.906230 0.010480
O222 O 0.572420 0.173590 0.966640
O223 O 0.797700 0.488770 0.826370
O224 O 0.558010 0.593770 0.510480
O225 O 0.927580 -0.326410 0.533360
O226 O 0.702300 -0.011230 0.673630
O227 O 0.941990 0.093770 0.989520
O228 O 0.427580 0.826410 0.033360

#END
