
#######################################################################
#
#                 Cambridge Crystallographic Data Centre
#                                CCDC 
#
#######################################################################
#
# If this CIF has been generated from an entry in the Cambridge 
# Structural Database, then it will include bibliographic, chemical, 
# crystal, experimental, refinement or atomic coordinate data resulting 
# from the CCDC's data processing and validation procedures.
#
#######################################################################

data_MAQTIH
_symmetry_cell_setting           monoclinic
_symmetry_space_group_name_H-M   'C 2/c'
_symmetry_Int_Tables_number      15
_space_group_name_Hall           '-C 2yn'
loop_
_symmetry_equiv_pos_site_id
_symmetry_equiv_pos_as_xyz
1 x,y,z
2 x,-y,1/2+z
3 1/2+x,1/2+y,z
4 1/2+x,1/2-y,1/2+z
5 -x,-y,-z
6 -x,y,1/2-z
7 1/2-x,1/2-y,-z
8 1/2-x,1/2+y,1/2-z
_cell_length_a                   36.040(12)
_cell_length_b                   12.110(6)
_cell_length_c                   8.861(3)
_cell_angle_alpha                90
_cell_angle_beta                 104.04(3)
_cell_angle_gamma                90
_cell_volume                     3751.8
loop_
_atom_site_label
_atom_site_type_symbol
_atom_site_fract_x
_atom_site_fract_y
_atom_site_fract_z
S1 S 0.35116(2) 0.61801(5) 0.20065(9)
O1 O 0.32551(7) 0.55304(15) 0.2640(3)
O2 O 0.37957(7) 0.5642(2) 0.1423(3)
O3 O 0.37840(7) 0.8252(2) 0.7987(2)
O4 O 0.23463(6) 1.12267(14) -0.0168(2)
N1 N 0.37236(6) 0.7064(2) 0.3360(2)
N2 N 0.37025(9) 0.9361(2) 0.7503(3)
N3 N 0.28930(6) 0.7332(2) -0.1999(2)
N4 N 0.25307(6) 1.03523(15) -0.0674(2)
C1 C 0.32363(7) 0.7060(2) 0.0625(3)
C2 C 0.30763(6) 0.7999(2) 0.1149(3)
C3 C 0.31839(6) 0.8303(2) 0.2773(3)
H1 H 0.30321(6) 0.8811(2) 0.3134(3)
C4 C 0.34912(7) 0.7892(2) 0.3788(3)
C5 C 0.36040(7) 0.8249(2) 0.5412(3)
C6 C 0.37268(9) 0.7636(3) 0.6725(3)
H2 H 0.37657(9) 0.6877(3) 0.6731(3)
C7 C 0.35935(10) 0.9310(3) 0.5999(4)
H3 H 0.35157(10) 0.9924(3) 0.5373(4)
C8 C 0.41329(8) 0.7111(2) 0.3881(3)
C9 C 0.43293(9) 0.6235(3) 0.4683(4)
H4 H 0.42001(9) 0.5608(3) 0.4883(4)
C10 C 0.47209(12) 0.6304(4) 0.5184(5)
H5 H 0.48560(12) 0.5711(4) 0.5719(5)
C11 C 0.49143(11) 0.7211(6) 0.4921(6)
C12 C 0.47165(14) 0.8087(5) 0.4164(6)
H6 H 0.48467(14) 0.8722(5) 0.4005(6)
C13 C 0.43186(11) 0.8038(3) 0.3625(5)
H7 H 0.41835(11) 0.8633(3) 0.3097(5)
C14 C 0.53538(12) 0.7281(9) 0.5571(11)
H8 H 0.5381(26) 0.8070(8) 0.5560(96)
H9 H 0.5465(28) 0.6960(61) 0.4791(76)
H10 H 0.5482(27) 0.7001(63) 0.6577(42)
C15 C 0.31448(8) 0.6770(2) -0.0931(3)
H11 H 0.32639(8) 0.6159(2) -0.1241(3)
C16 C 0.27343(7) 0.8221(2) -0.1526(3)
H12 H 0.25551(7) 0.8610(2) -0.2267(3)
C17 C 0.28180(6) 0.8608(2) 0.0000(3)
C18 C 0.26288(7) 0.9616(2) 0.0370(3)
H13 H 0.25821(7) 0.9712(2) 0.1349(3)
H14 H 0.2288(9) 1.1643(24) -0.1018(36)
S1 S 0.35116(2) 0.38199(5) 0.70065(9)
O1 O 0.32551(7) 0.44696(15) 0.7640(3)
O2 O 0.37957(7) 0.4358(2) 0.6423(3)
O3 O 0.37840(7) 0.1748(2) 1.2987(2)
O4 O 0.23463(6) -0.12267(14) 0.4832(2)
N1 N 0.37236(6) 0.2936(2) 0.8360(2)
N2 N 0.37025(9) 0.0639(2) 1.2503(3)
N3 N 0.28930(6) 0.2668(2) 0.3001(2)
N4 N 0.25307(6) -0.03523(15) 0.4326(2)
C1 C 0.32363(7) 0.2940(2) 0.5625(3)
C2 C 0.30763(6) 0.2001(2) 0.6149(3)
C3 C 0.31839(6) 0.1697(2) 0.7773(3)
H1 H 0.30321(6) 0.1189(2) 0.8134(3)
C4 C 0.34912(7) 0.2108(2) 0.8788(3)
C5 C 0.36040(7) 0.1751(2) 1.0412(3)
C6 C 0.37268(9) 0.2364(3) 1.1725(3)
H2 H 0.37657(9) 0.3123(3) 1.1731(3)
C7 C 0.35935(10) 0.0690(3) 1.0999(4)
H3 H 0.35157(10) 0.0076(3) 1.0373(4)
C8 C 0.41329(8) 0.2889(2) 0.8881(3)
C9 C 0.43293(9) 0.3765(3) 0.9683(4)
H4 H 0.42001(9) 0.4392(3) 0.9883(4)
C10 C 0.47209(12) 0.3696(4) 1.0184(5)
H5 H 0.48560(12) 0.4289(4) 1.0719(5)
C11 C 0.49143(11) 0.2789(6) 0.9921(6)
C12 C 0.47165(14) 0.1913(5) 0.9164(6)
H6 H 0.48467(14) 0.1278(5) 0.9005(6)
C13 C 0.43186(11) 0.1962(3) 0.8625(5)
H7 H 0.41835(11) 0.1367(3) 0.8097(5)
C14 C 0.53538(12) 0.2719(9) 1.0571(11)
H8 H 0.5381(26) 0.1930(8) 1.0560(96)
H9 H 0.5465(28) 0.3040(61) 0.9791(76)
H10 H 0.5482(27) 0.2999(63) 1.1577(42)
C15 C 0.31448(8) 0.3230(2) 0.4069(3)
H11 H 0.32639(8) 0.3841(2) 0.3759(3)
C16 C 0.27343(7) 0.1779(2) 0.3474(3)
H12 H 0.25551(7) 0.1390(2) 0.2733(3)
C17 C 0.28180(6) 0.1392(2) 0.5000(3)
C18 C 0.26288(7) 0.0384(2) 0.5370(3)
H13 H 0.25821(7) 0.0288(2) 0.6349(3)
H14 H 0.2288(9) -0.1643(24) 0.3982(36)
S1 S 0.85116(2) 0.11801(5) 0.20065(9)
O1 O 0.82551(7) 0.05304(15) 0.2640(3)
O2 O 0.87957(7) 0.0642(2) 0.1423(3)
O3 O 0.87840(7) 0.3252(2) 0.7987(2)
O4 O 0.73463(6) 0.62267(14) -0.0168(2)
N1 N 0.87236(6) 0.2064(2) 0.3360(2)
N2 N 0.87025(9) 0.4361(2) 0.7503(3)
N3 N 0.78930(6) 0.2332(2) -0.1999(2)
N4 N 0.75307(6) 0.53523(15) -0.0674(2)
C1 C 0.82363(7) 0.2060(2) 0.0625(3)
C2 C 0.80763(6) 0.2999(2) 0.1149(3)
C3 C 0.81839(6) 0.3303(2) 0.2773(3)
H1 H 0.80321(6) 0.3811(2) 0.3134(3)
C4 C 0.84912(7) 0.2892(2) 0.3788(3)
C5 C 0.86040(7) 0.3249(2) 0.5412(3)
C6 C 0.87268(9) 0.2636(3) 0.6725(3)
H2 H 0.87657(9) 0.1877(3) 0.6731(3)
C7 C 0.85935(10) 0.4310(3) 0.5999(4)
H3 H 0.85157(10) 0.4924(3) 0.5373(4)
C8 C 0.91329(8) 0.2111(2) 0.3881(3)
C9 C 0.93293(9) 0.1235(3) 0.4683(4)
H4 H 0.92001(9) 0.0608(3) 0.4883(4)
C10 C 0.97209(12) 0.1304(4) 0.5184(5)
H5 H 0.98560(12) 0.0711(4) 0.5719(5)
C11 C 0.99143(11) 0.2211(6) 0.4921(6)
C12 C 0.97165(14) 0.3087(5) 0.4164(6)
H6 H 0.98467(14) 0.3722(5) 0.4005(6)
C13 C 0.93186(11) 0.3038(3) 0.3625(5)
H7 H 0.91835(11) 0.3633(3) 0.3097(5)
C14 C 1.03538(12) 0.2281(9) 0.5571(11)
H8 H 1.0381(26) 0.3070(8) 0.5560(96)
H9 H 1.0465(28) 0.1960(61) 0.4791(76)
H10 H 1.0482(27) 0.2001(63) 0.6577(42)
C15 C 0.81448(8) 0.1770(2) -0.0931(3)
H11 H 0.82639(8) 0.1159(2) -0.1241(3)
C16 C 0.77343(7) 0.3221(2) -0.1526(3)
H12 H 0.75551(7) 0.3610(2) -0.2267(3)
C17 C 0.78180(6) 0.3608(2) 0.0000(3)
C18 C 0.76288(7) 0.4616(2) 0.0370(3)
H13 H 0.75821(7) 0.4712(2) 0.1349(3)
H14 H 0.7288(9) 0.6643(24) -0.1018(36)
S1 S 0.85116(2) 0.88199(5) 0.70065(9)
O1 O 0.82551(7) 0.94696(15) 0.7640(3)
O2 O 0.87957(7) 0.9358(2) 0.6423(3)
O3 O 0.87840(7) 0.6748(2) 1.2987(2)
O4 O 0.73463(6) 0.37733(14) 0.4832(2)
N1 N 0.87236(6) 0.7936(2) 0.8360(2)
N2 N 0.87025(9) 0.5639(2) 1.2503(3)
N3 N 0.78930(6) 0.7668(2) 0.3001(2)
N4 N 0.75307(6) 0.46477(15) 0.4326(2)
C1 C 0.82363(7) 0.7940(2) 0.5625(3)
C2 C 0.80763(6) 0.7001(2) 0.6149(3)
C3 C 0.81839(6) 0.6697(2) 0.7773(3)
H1 H 0.80321(6) 0.6189(2) 0.8134(3)
C4 C 0.84912(7) 0.7108(2) 0.8788(3)
C5 C 0.86040(7) 0.6751(2) 1.0412(3)
C6 C 0.87268(9) 0.7364(3) 1.1725(3)
H2 H 0.87657(9) 0.8123(3) 1.1731(3)
C7 C 0.85935(10) 0.5690(3) 1.0999(4)
H3 H 0.85157(10) 0.5076(3) 1.0373(4)
C8 C 0.91329(8) 0.7889(2) 0.8881(3)
C9 C 0.93293(9) 0.8765(3) 0.9683(4)
H4 H 0.92001(9) 0.9392(3) 0.9883(4)
C10 C 0.97209(12) 0.8696(4) 1.0184(5)
H5 H 0.98560(12) 0.9289(4) 1.0719(5)
C11 C 0.99143(11) 0.7789(6) 0.9921(6)
C12 C 0.97165(14) 0.6913(5) 0.9164(6)
H6 H 0.98467(14) 0.6278(5) 0.9005(6)
C13 C 0.93186(11) 0.6962(3) 0.8625(5)
H7 H 0.91835(11) 0.6367(3) 0.8097(5)
C14 C 1.03538(12) 0.7719(9) 1.0571(11)
H8 H 1.0381(26) 0.6930(8) 1.0560(96)
H9 H 1.0465(28) 0.8040(61) 0.9791(76)
H10 H 1.0482(27) 0.7999(63) 1.1577(42)
C15 C 0.81448(8) 0.8230(2) 0.4069(3)
H11 H 0.82639(8) 0.8841(2) 0.3759(3)
C16 C 0.77343(7) 0.6779(2) 0.3474(3)
H12 H 0.75551(7) 0.6390(2) 0.2733(3)
C17 C 0.78180(6) 0.6392(2) 0.5000(3)
C18 C 0.76288(7) 0.5384(2) 0.5370(3)
H13 H 0.75821(7) 0.5288(2) 0.6349(3)
H14 H 0.7288(9) 0.3357(24) 0.3982(36)
S1 S 0.64884(2) 0.38199(5) 0.79935(9)
O1 O 0.67449(7) 0.44696(15) 0.7360(3)
O2 O 0.62043(7) 0.4358(2) 0.8577(3)
O3 O 0.62160(7) 0.1748(2) 0.2013(2)
O4 O 0.76537(6) -0.12267(14) 1.0168(2)
N1 N 0.62764(6) 0.2936(2) 0.6640(2)
N2 N 0.62975(9) 0.0639(2) 0.2497(3)
N3 N 0.71070(6) 0.2668(2) 1.1999(2)
N4 N 0.74693(6) -0.03523(15) 1.0674(2)
C1 C 0.67637(7) 0.2940(2) 0.9375(3)
C2 C 0.69237(6) 0.2001(2) 0.8851(3)
C3 C 0.68161(6) 0.1697(2) 0.7227(3)
H1 H 0.69679(6) 0.1189(2) 0.6866(3)
C4 C 0.65088(7) 0.2108(2) 0.6212(3)
C5 C 0.63960(7) 0.1751(2) 0.4588(3)
C6 C 0.62732(9) 0.2364(3) 0.3275(3)
H2 H 0.62343(9) 0.3123(3) 0.3269(3)
C7 C 0.64065(10) 0.0690(3) 0.4001(4)
H3 H 0.64843(10) 0.0076(3) 0.4627(4)
C8 C 0.58671(8) 0.2889(2) 0.6119(3)
C9 C 0.56707(9) 0.3765(3) 0.5317(4)
H4 H 0.57999(9) 0.4392(3) 0.5117(4)
C10 C 0.52791(12) 0.3696(4) 0.4816(5)
H5 H 0.51440(12) 0.4289(4) 0.4281(5)
C11 C 0.50857(11) 0.2789(6) 0.5079(6)
C12 C 0.52835(14) 0.1913(5) 0.5836(6)
H6 H 0.51533(14) 0.1278(5) 0.5995(6)
C13 C 0.56814(11) 0.1962(3) 0.6375(5)
H7 H 0.58165(11) 0.1367(3) 0.6903(5)
C14 C 0.46462(12) 0.2719(9) 0.4429(11)
H8 H 0.4619(26) 0.1930(8) 0.4440(96)
H9 H 0.4535(28) 0.3040(61) 0.5209(76)
H10 H 0.4518(27) 0.2999(63) 0.3423(42)
C15 C 0.68552(8) 0.3230(2) 1.0931(3)
H11 H 0.67361(8) 0.3841(2) 1.1241(3)
C16 C 0.72657(7) 0.1779(2) 1.1526(3)
H12 H 0.74449(7) 0.1390(2) 1.2267(3)
C17 C 0.71820(6) 0.1392(2) 1.0000(3)
C18 C 0.73712(7) 0.0384(2) 0.9630(3)
H13 H 0.74179(7) 0.0288(2) 0.8651(3)
H14 H 0.7712(9) -0.1643(24) 1.1018(36)
S1 S 0.64884(2) 0.61801(5) 0.29935(9)
O1 O 0.67449(7) 0.55304(15) 0.2360(3)
O2 O 0.62043(7) 0.5642(2) 0.3577(3)
O3 O 0.62160(7) 0.8252(2) -0.2987(2)
O4 O 0.76537(6) 1.12267(14) 0.5168(2)
N1 N 0.62764(6) 0.7064(2) 0.1640(2)
N2 N 0.62975(9) 0.9361(2) -0.2503(3)
N3 N 0.71070(6) 0.7332(2) 0.6999(2)
N4 N 0.74693(6) 1.03523(15) 0.5674(2)
C1 C 0.67637(7) 0.7060(2) 0.4375(3)
C2 C 0.69237(6) 0.7999(2) 0.3851(3)
C3 C 0.68161(6) 0.8303(2) 0.2227(3)
H1 H 0.69679(6) 0.8811(2) 0.1866(3)
C4 C 0.65088(7) 0.7892(2) 0.1212(3)
C5 C 0.63960(7) 0.8249(2) -0.0412(3)
C6 C 0.62732(9) 0.7636(3) -0.1725(3)
H2 H 0.62343(9) 0.6877(3) -0.1731(3)
C7 C 0.64065(10) 0.9310(3) -0.0999(4)
H3 H 0.64843(10) 0.9924(3) -0.0373(4)
C8 C 0.58671(8) 0.7111(2) 0.1119(3)
C9 C 0.56707(9) 0.6235(3) 0.0317(4)
H4 H 0.57999(9) 0.5608(3) 0.0117(4)
C10 C 0.52791(12) 0.6304(4) -0.0184(5)
H5 H 0.51440(12) 0.5711(4) -0.0719(5)
C11 C 0.50857(11) 0.7211(6) 0.0079(6)
C12 C 0.52835(14) 0.8087(5) 0.0836(6)
H6 H 0.51533(14) 0.8722(5) 0.0995(6)
C13 C 0.56814(11) 0.8038(3) 0.1375(5)
H7 H 0.58165(11) 0.8633(3) 0.1903(5)
C14 C 0.46462(12) 0.7281(9) -0.0571(11)
H8 H 0.4619(26) 0.8070(8) -0.0560(96)
H9 H 0.4535(28) 0.6960(61) 0.0209(76)
H10 H 0.4518(27) 0.7001(63) -0.1577(42)
C15 C 0.68552(8) 0.6770(2) 0.5931(3)
H11 H 0.67361(8) 0.6159(2) 0.6241(3)
C16 C 0.72657(7) 0.8221(2) 0.6526(3)
H12 H 0.74449(7) 0.8610(2) 0.7267(3)
C17 C 0.71820(6) 0.8608(2) 0.5000(3)
C18 C 0.73712(7) 0.9616(2) 0.4630(3)
H13 H 0.74179(7) 0.9712(2) 0.3651(3)
H14 H 0.7712(9) 1.1643(24) 0.6018(36)
S1 S 0.14884(2) 0.88199(5) 0.79935(9)
O1 O 0.17449(7) 0.94696(15) 0.7360(3)
O2 O 0.12043(7) 0.9358(2) 0.8577(3)
O3 O 0.12160(7) 0.6748(2) 0.2013(2)
O4 O 0.26537(6) 0.37733(14) 1.0168(2)
N1 N 0.12764(6) 0.7936(2) 0.6640(2)
N2 N 0.12975(9) 0.5639(2) 0.2497(3)
N3 N 0.21070(6) 0.7668(2) 1.1999(2)
N4 N 0.24693(6) 0.46477(15) 1.0674(2)
C1 C 0.17637(7) 0.7940(2) 0.9375(3)
C2 C 0.19237(6) 0.7001(2) 0.8851(3)
C3 C 0.18161(6) 0.6697(2) 0.7227(3)
H1 H 0.19679(6) 0.6189(2) 0.6866(3)
C4 C 0.15088(7) 0.7108(2) 0.6212(3)
C5 C 0.13960(7) 0.6751(2) 0.4588(3)
C6 C 0.12732(9) 0.7364(3) 0.3275(3)
H2 H 0.12343(9) 0.8123(3) 0.3269(3)
C7 C 0.14065(10) 0.5690(3) 0.4001(4)
H3 H 0.14843(10) 0.5076(3) 0.4627(4)
C8 C 0.08671(8) 0.7889(2) 0.6119(3)
C9 C 0.06707(9) 0.8765(3) 0.5317(4)
H4 H 0.07999(9) 0.9392(3) 0.5117(4)
C10 C 0.02791(12) 0.8696(4) 0.4816(5)
H5 H 0.01440(12) 0.9289(4) 0.4281(5)
C11 C 0.00857(11) 0.7789(6) 0.5079(6)
C12 C 0.02835(14) 0.6913(5) 0.5836(6)
H6 H 0.01533(14) 0.6278(5) 0.5995(6)
C13 C 0.06814(11) 0.6962(3) 0.6375(5)
H7 H 0.08165(11) 0.6367(3) 0.6903(5)
C14 C -0.03538(12) 0.7719(9) 0.4429(11)
H8 H -0.0381(26) 0.6930(8) 0.4440(96)
H9 H -0.0465(28) 0.8040(61) 0.5209(76)
H10 H -0.0482(27) 0.7999(63) 0.3423(42)
C15 C 0.18552(8) 0.8230(2) 1.0931(3)
H11 H 0.17361(8) 0.8841(2) 1.1241(3)
C16 C 0.22657(7) 0.6779(2) 1.1526(3)
H12 H 0.24449(7) 0.6390(2) 1.2267(3)
C17 C 0.21820(6) 0.6392(2) 1.0000(3)
C18 C 0.23712(7) 0.5384(2) 0.9630(3)
H13 H 0.24179(7) 0.5288(2) 0.8651(3)
H14 H 0.2712(9) 0.3357(24) 1.1018(36)
S1 S 0.14884(2) 0.11801(5) 0.29935(9)
O1 O 0.17449(7) 0.05304(15) 0.2360(3)
O2 O 0.12043(7) 0.0642(2) 0.3577(3)
O3 O 0.12160(7) 0.3252(2) -0.2987(2)
O4 O 0.26537(6) 0.62267(14) 0.5168(2)
N1 N 0.12764(6) 0.2064(2) 0.1640(2)
N2 N 0.12975(9) 0.4361(2) -0.2503(3)
N3 N 0.21070(6) 0.2332(2) 0.6999(2)
N4 N 0.24693(6) 0.53523(15) 0.5674(2)
C1 C 0.17637(7) 0.2060(2) 0.4375(3)
C2 C 0.19237(6) 0.2999(2) 0.3851(3)
C3 C 0.18161(6) 0.3303(2) 0.2227(3)
H1 H 0.19679(6) 0.3811(2) 0.1866(3)
C4 C 0.15088(7) 0.2892(2) 0.1212(3)
C5 C 0.13960(7) 0.3249(2) -0.0412(3)
C6 C 0.12732(9) 0.2636(3) -0.1725(3)
H2 H 0.12343(9) 0.1877(3) -0.1731(3)
C7 C 0.14065(10) 0.4310(3) -0.0999(4)
H3 H 0.14843(10) 0.4924(3) -0.0373(4)
C8 C 0.08671(8) 0.2111(2) 0.1119(3)
C9 C 0.06707(9) 0.1235(3) 0.0317(4)
H4 H 0.07999(9) 0.0608(3) 0.0117(4)
C10 C 0.02791(12) 0.1304(4) -0.0184(5)
H5 H 0.01440(12) 0.0711(4) -0.0719(5)
C11 C 0.00857(11) 0.2211(6) 0.0079(6)
C12 C 0.02835(14) 0.3087(5) 0.0836(6)
H6 H 0.01533(14) 0.3722(5) 0.0995(6)
C13 C 0.06814(11) 0.3038(3) 0.1375(5)
H7 H 0.08165(11) 0.3633(3) 0.1903(5)
C14 C -0.03538(12) 0.2281(9) -0.0571(11)
H8 H -0.0381(26) 0.3070(8) -0.0560(96)
H9 H -0.0465(28) 0.1960(61) 0.0209(76)
H10 H -0.0482(27) 0.2001(63) -0.1577(42)
C15 C 0.18552(8) 0.1770(2) 0.5931(3)
H11 H 0.17361(8) 0.1159(2) 0.6241(3)
C16 C 0.22657(7) 0.3221(2) 0.6526(3)
H12 H 0.24449(7) 0.3610(2) 0.7267(3)
C17 C 0.21820(6) 0.3608(2) 0.5000(3)
C18 C 0.23712(7) 0.4616(2) 0.4630(3)
H13 H 0.24179(7) 0.4712(2) 0.3651(3)
H14 H 0.2712(9) 0.6643(24) 0.6018(36)

#END
