./MAQWIM03_from_POSCAR.cif_generated_by_CrystalShift
_symmetry_cell_setting triclinic
_symmetry_space_group_name_H-M 'P 1'
loop_
_symmetry_equiv_pos_site_id
_symmetry_equiv_pos_as_xyz
1 x,y,z
_cell_length_a 9.008000
_cell_length_b 7.064000
_cell_length_c 15.833000
_cell_angle_alpha 90.000000
_cell_angle_beta 90.000000
_cell_angle_gamma 90.000000
_cell_volume 1007.493562
loop_
_atom_site_label
_atom_site_type_symbol
_atom_site_fract_x
_atom_site_fract_y
_atom_site_fract_z
H1 H 0.684200 -0.204400 1.031700
H2 H 0.236400 0.897800 0.305700
H3 H 0.461200 0.362900 0.079400
H4 H -0.158600 1.027500 0.199600
H5 H 0.341400 0.472500 0.199600
H6 H -0.038800 1.137100 0.079400
H7 H 0.810000 -0.186000 0.512800
H8 H 0.736400 0.602200 0.305700
H9 H 0.915000 0.322000 0.865000
H10 H 0.858500 0.486100 0.186800
H11 H 0.146000 0.354500 0.420300
H12 H 1.037200 0.649100 1.082900
H13 H 1.184200 0.704400 1.031700
H14 H 0.646000 1.145500 0.420300
H15 H 0.514800 1.296700 0.430100
H16 H 0.513300 1.149900 0.353100
H17 H 1.168800 0.498500 1.073000
H18 H 0.331200 0.998500 0.573000
H19 H 0.315800 1.204400 0.531700
H20 H 0.462800 1.149100 0.582900
H21 H 0.190000 1.186000 0.012800
H22 H 0.585000 0.822000 0.365000
H23 H 0.085000 0.678000 0.365000
H24 H -0.037200 0.350900 0.582900
H25 H 0.690000 0.314000 0.012800
H26 H -0.184200 0.295600 0.531700
H27 H 0.986700 0.649900 0.853100
H28 H 0.985200 0.796700 0.930100
H29 H 0.538800 0.637100 0.579400
H30 H 0.854000 0.645500 0.920300
H31 H 0.658600 0.527500 0.699600
H32 H 0.641500 -0.013900 0.686800
H33 H 0.763600 0.102200 0.805700
H34 H 0.263600 0.397800 0.805700
H35 H 1.158600 -0.027500 0.699600
H36 H 0.141500 0.513900 0.686800
H37 H 1.038800 -0.137100 0.579400
H38 H 0.014800 0.203300 0.430100
H39 H 0.310000 0.686000 0.512800
H40 H 0.354000 -0.145500 0.920300
H41 H 0.485200 -0.296700 0.930100
H42 H 0.486700 -0.149900 0.853100
H43 H 0.013300 0.350100 0.353100
H44 H 0.668800 0.001500 1.073000
H45 H 0.358500 1.013900 0.186800
H46 H 0.537200 -0.149100 1.082900
H47 H -0.168800 0.501500 0.573000
H48 H 0.415000 0.178000 0.865000
C49 C -0.115000 0.398300 0.545130
C50 C 0.615000 -0.101700 1.045130
C51 C 0.460600 -0.167300 0.912700
C52 C 0.545780 -0.029800 0.965430
C53 C 0.828170 -0.079500 0.619980
C54 C 0.982640 -0.086700 0.624910
C55 C 0.558680 0.363580 0.835460
C56 C 1.053490 -0.020300 0.696150
C57 C 0.246920 0.512700 0.688590
C58 C 0.974290 0.056700 0.762920
C59 C 0.819530 0.055600 0.759260
C60 C 0.319530 0.444400 0.759260
C61 C 0.746920 -0.012700 0.688590
C62 C 0.474290 0.443300 0.762920
C63 C 1.058680 0.136420 0.835460
C64 C 1.045780 0.529800 0.965430
C65 C 0.960600 0.667300 0.912700
C66 C 0.553490 0.520300 0.696150
C67 C 0.482640 0.586700 0.624910
C68 C 0.328170 0.579500 0.619980
C69 C 1.115000 0.601700 1.045130
C70 C 0.385000 1.101700 0.545130
C71 C 0.539400 1.167300 0.412700
C72 C 0.454220 1.029800 0.465430
C73 C 0.441320 0.636420 0.335460
C74 C 0.753080 0.487300 0.188590
C75 C 0.039400 0.332700 0.412700
C76 C -0.045780 0.470200 0.465430
C77 C 0.680470 0.555600 0.259260
C78 C -0.058680 0.863580 0.335460
C79 C 0.171830 1.079500 0.119980
C80 C 0.017360 1.086700 0.124910
C81 C 0.525710 0.556700 0.262920
C82 C -0.053490 1.020300 0.196150
C83 C 0.446510 0.479700 0.196150
C84 C 0.025710 0.943300 0.262920
C85 C 0.180470 0.944400 0.259260
C86 C 0.517360 0.413300 0.124910
C87 C 0.253080 1.012700 0.188590
C88 C 0.671830 0.420500 0.119980
N89 N 0.495530 0.215370 0.876070
N90 N -0.066330 0.644990 0.447830
N91 N 1.066330 0.355010 0.947830
N92 N 0.995530 0.284630 0.876070
N93 N 0.433670 0.855010 0.447830
N94 N 0.004470 0.715370 0.376070
N95 N 0.566330 0.144990 0.947830
N96 N 0.504470 0.784630 0.376070
O97 O 0.747890 0.365920 0.050270
O98 O 0.252110 0.634080 0.550270
O99 O 0.683460 0.420490 0.854300
O100 O 0.752110 -0.134080 0.550270
O101 O 0.247890 1.134080 0.050270
O102 O 1.183460 0.079510 0.854300
O103 O 0.316540 0.579510 0.354300
O104 O -0.183460 0.920490 0.354300

#END
