
#######################################################################
#
#                 Cambridge Crystallographic Data Centre
#                                CCDC 
#
#######################################################################
#
# If this CIF has been generated from an entry in the Cambridge 
# Structural Database, then it will include bibliographic, chemical, 
# crystal, experimental, refinement or atomic coordinate data resulting 
# from the CCDC's data processing and validation procedures.
#
#######################################################################

data_MAQWIM
_symmetry_cell_setting           orthorhombic
_symmetry_space_group_name_H-M   'P n a 21'
_symmetry_Int_Tables_number      33
_space_group_name_Hall           'P 2c -2n'
loop_
_symmetry_equiv_pos_site_id
_symmetry_equiv_pos_as_xyz
1 x,y,z
2 -x,-y,1/2+z
3 1/2-x,1/2+y,1/2+z
4 1/2+x,1/2-y,z
_cell_length_a                   9.968(5)
_cell_length_b                   8.082(5)
_cell_length_c                   13.267(8)
_cell_angle_alpha                90
_cell_angle_beta                 90
_cell_angle_gamma                90
_cell_volume                     1068.81
loop_
_atom_site_label
_atom_site_type_symbol
_atom_site_fract_x
_atom_site_fract_y
_atom_site_fract_z
C1 C 0.1696(5) 1.1403(7) 0.0160(5)
C2 C 0.0304(5) 1.1215(7) 0.0127(4)
H1 H -0.0195 1.1773 -0.0358
C3 C -0.0323(5) 1.0209(6) 0.0808(5)
H2 H -0.1253 1.0114 0.0793
C4 C 0.0398(5) 0.9334(6) 0.1518(4)
C5 C 0.1789(6) 0.9552(7) 0.1534(5)
H3 H 0.2294 0.8985 0.2011
C6 C 0.2431(5) 1.0581(8) 0.0863(5)
H4 H 0.3357 1.0713 0.0890
C7 C -0.0350(5) 0.8239(7) 0.2209(4)
C8 C 0.0087(6) 0.4504(7) 0.3440(5)
C9 C 0.1187(9) 0.3708(8) 0.2884(10)
H5 H 0.1051 0.3853 0.2173
H6 H 0.1205 0.2548 0.3040
H7 H 0.2025 0.4202 0.3076
C10 C -0.0611(11) 0.3549(9) 0.4235(8)
H8 H -0.1257 0.4245 0.4564
H9 H 0.0031 0.3163 0.4720
H10 H -0.1061 0.2619 0.3936
N1 N 0.0310(5) 0.6910(5) 0.2573(4)
N2 N -0.0353(5) 0.5971(5) 0.3291(4)
O1 O 0.2352(4) 1.2401(6) -0.0499(4)
O2 O -0.1537(3) 0.8505(4) 0.2420(4)
H11 H 0.114(7) 0.679(8) 0.241(6)
H12 H 0.167(8) 1.293(8) -0.098(5)
C1 C 0.8304(5) -0.1403(7) 0.5160(5)
C2 C 0.9696(5) -0.1215(7) 0.5127(4)
H1 H 1.0195 -0.1773 0.4642
C3 C 1.0323(5) -0.0209(6) 0.5808(5)
H2 H 1.1253 -0.0114 0.5793
C4 C 0.9602(5) 0.0666(6) 0.6518(4)
C5 C 0.8211(6) 0.0448(7) 0.6534(5)
H3 H 0.7706 0.1015 0.7011
C6 C 0.7569(5) -0.0581(8) 0.5863(5)
H4 H 0.6643 -0.0713 0.5890
C7 C 1.0350(5) 0.1761(7) 0.7209(4)
C8 C 0.9913(6) 0.5496(7) 0.8440(5)
C9 C 0.8813(9) 0.6292(8) 0.7884(10)
H5 H 0.8949 0.6147 0.7173
H6 H 0.8795 0.7452 0.8040
H7 H 0.7975 0.5798 0.8076
C10 C 1.0611(11) 0.6451(9) 0.9235(8)
H8 H 1.1257 0.5755 0.9564
H9 H 0.9969 0.6837 0.9720
H10 H 1.1061 0.7381 0.8936
N1 N 0.9690(5) 0.3090(5) 0.7573(4)
N2 N 1.0353(5) 0.4029(5) 0.8291(4)
O1 O 0.7648(4) -0.2401(6) 0.4501(4)
O2 O 1.1537(3) 0.1495(4) 0.7420(4)
H11 H 0.886(7) 0.321(8) 0.741(6)
H12 H 0.833(8) -0.293(8) 0.402(5)
C1 C 0.3304(5) 0.6403(7) 0.5160(5)
C2 C 0.4696(5) 0.6215(7) 0.5127(4)
H1 H 0.5195 0.6773 0.4642
C3 C 0.5323(5) 0.5209(6) 0.5808(5)
H2 H 0.6253 0.5114 0.5793
C4 C 0.4602(5) 0.4334(6) 0.6518(4)
C5 C 0.3211(6) 0.4552(7) 0.6534(5)
H3 H 0.2706 0.3985 0.7011
C6 C 0.2569(5) 0.5581(8) 0.5863(5)
H4 H 0.1643 0.5713 0.5890
C7 C 0.5350(5) 0.3239(7) 0.7209(4)
C8 C 0.4913(6) -0.0496(7) 0.8440(5)
C9 C 0.3813(9) -0.1292(8) 0.7884(10)
H5 H 0.3949 -0.1147 0.7173
H6 H 0.3795 -0.2452 0.8040
H7 H 0.2975 -0.0798 0.8076
C10 C 0.5611(11) -0.1451(9) 0.9235(8)
H8 H 0.6257 -0.0755 0.9564
H9 H 0.4969 -0.1837 0.9720
H10 H 0.6061 -0.2381 0.8936
N1 N 0.4690(5) 0.1910(5) 0.7573(4)
N2 N 0.5353(5) 0.0971(5) 0.8291(4)
O1 O 0.2648(4) 0.7401(6) 0.4501(4)
O2 O 0.6537(3) 0.3505(4) 0.7420(4)
H11 H 0.386(7) 0.179(8) 0.741(6)
H12 H 0.333(8) 0.793(8) 0.402(5)
C1 C 0.6696(5) 0.3597(7) 0.0160(5)
C2 C 0.5304(5) 0.3785(7) 0.0127(4)
H1 H 0.4805 0.3227 -0.0358
C3 C 0.4677(5) 0.4791(6) 0.0808(5)
H2 H 0.3747 0.4886 0.0793
C4 C 0.5398(5) 0.5666(6) 0.1518(4)
C5 C 0.6789(6) 0.5448(7) 0.1534(5)
H3 H 0.7294 0.6015 0.2011
C6 C 0.7431(5) 0.4419(8) 0.0863(5)
H4 H 0.8357 0.4287 0.0890
C7 C 0.4650(5) 0.6761(7) 0.2209(4)
C8 C 0.5087(6) 1.0496(7) 0.3440(5)
C9 C 0.6187(9) 1.1292(8) 0.2884(10)
H5 H 0.6051 1.1147 0.2173
H6 H 0.6205 1.2452 0.3040
H7 H 0.7025 1.0798 0.3076
C10 C 0.4389(11) 1.1451(9) 0.4235(8)
H8 H 0.3743 1.0755 0.4564
H9 H 0.5031 1.1837 0.4720
H10 H 0.3939 1.2381 0.3936
N1 N 0.5310(5) 0.8090(5) 0.2573(4)
N2 N 0.4647(5) 0.9029(5) 0.3291(4)
O1 O 0.7352(4) 0.2599(6) -0.0499(4)
O2 O 0.3463(3) 0.6495(4) 0.2420(4)
H11 H 0.614(7) 0.821(8) 0.241(6)
H12 H 0.667(8) 0.207(8) -0.098(5)

#END
