
#######################################################################
#
#                 Cambridge Crystallographic Data Centre
#                                CCDC 
#
#######################################################################
#
# If this CIF has been generated from an entry in the Cambridge 
# Structural Database, then it will include bibliographic, chemical, 
# crystal, experimental, refinement or atomic coordinate data resulting 
# from the CCDC's data processing and validation procedures.
#
#######################################################################

data_MAQWIM03
_symmetry_cell_setting           orthorhombic
_symmetry_space_group_name_H-M   'P n a 21'
_symmetry_Int_Tables_number      33
_space_group_name_Hall           'P 2c -2n'
loop_
_symmetry_equiv_pos_site_id
_symmetry_equiv_pos_as_xyz
1 x,y,z
2 -x,-y,1/2+z
3 1/2-x,1/2+y,1/2+z
4 1/2+x,1/2-y,z
_cell_length_a                   9.0080(10)
_cell_length_b                   7.0640(10)
_cell_length_c                   15.833(2)
_cell_angle_alpha                90
_cell_angle_beta                 90
_cell_angle_gamma                90
_cell_volume                     1007.49
loop_
_atom_site_label
_atom_site_type_symbol
_atom_site_fract_x
_atom_site_fract_y
_atom_site_fract_z
C1 C 0.67183(18) 0.4205(2) 0.11998(9)
C2 C 0.51736(18) 0.4133(2) 0.12491(10)
H1 H 0.4612 0.3629 0.0794
C3 C 0.44651(16) 0.4797(2) 0.19615(10)
H2 H 0.3414 0.4725 0.1996
C4 C 0.52571(16) 0.5567(2) 0.26292(9)
C5 C 0.68047(17) 0.5556(2) 0.25926(10)
H3 H 0.7364 0.6022 0.3057
C6 C 0.75308(16) 0.4873(2) 0.18859(11)
H4 H 0.8585 0.4861 0.1868
C7 C 0.44132(15) 0.63642(19) 0.33546(9)
C8 C 0.45422(17) 1.0298(2) 0.46543(10)
C9 C 0.5394(2) 1.1673(3) 0.41270(13)
H5 H 0.6460 1.1455 0.4203
H6 H 0.5148 1.2967 0.4301
H7 H 0.5133 1.1499 0.3531
C10 C 0.3850(2) 1.1017(3) 0.54513(13)
H8 H 0.3312 0.9985 0.5730
H9 H 0.3158 1.2044 0.5317
H10 H 0.4628 1.1491 0.5829
N1 N 0.50447(15) 0.78463(18) 0.37607(8)
H11 H 0.585(2) 0.822(3) 0.3650(14)
N2 N 0.43367(15) 0.85501(17) 0.44783(9)
O1 O 0.74789(13) 0.36592(17) 0.05027(7)
H12 H 0.690(2) 0.314(3) 0.0128(14)
O2 O 0.31654(12) 0.57951(15) 0.35430(7)
C1 C 0.32817(18) 0.5795(2) 0.61998(9)
C2 C 0.48264(18) 0.5867(2) 0.62491(10)
H1 H 0.5388 0.6371 0.5794
C3 C 0.55349(16) 0.5203(2) 0.69615(10)
H2 H 0.6586 0.5275 0.6996
C4 C 0.47429(16) 0.4433(2) 0.76292(9)
C5 C 0.31953(17) 0.4444(2) 0.75926(10)
H3 H 0.2636 0.3978 0.8057
C6 C 0.24692(16) 0.5127(2) 0.68859(11)
H4 H 0.1415 0.5139 0.6868
C7 C 0.55868(15) 0.36358(19) 0.83546(9)
C8 C 0.54578(17) -0.0298(2) 0.96543(10)
C9 C 0.4606(2) -0.1673(3) 0.91270(13)
H5 H 0.3540 -0.1455 0.9203
H6 H 0.4852 -0.2967 0.9301
H7 H 0.4867 -0.1499 0.8531
C10 C 0.6150(2) -0.1017(3) 1.04513(13)
H8 H 0.6688 0.0015 1.0730
H9 H 0.6842 -0.2044 1.0317
H10 H 0.5372 -0.1491 1.0829
N1 N 0.49553(15) 0.21537(18) 0.87607(8)
H11 H 0.415(2) 0.178(3) 0.8650(14)
N2 N 0.56633(15) 0.14499(17) 0.94783(9)
O1 O 0.25211(13) 0.63408(17) 0.55027(7)
H12 H 0.310(2) 0.686(3) 0.5128(14)
O2 O 0.68346(12) 0.42049(15) 0.85430(7)
C1 C 0.82817(18) -0.0795(2) 0.61998(9)
C2 C 0.98264(18) -0.0867(2) 0.62491(10)
H1 H 1.0388 -0.1371 0.5794
C3 C 1.05349(16) -0.0203(2) 0.69615(10)
H2 H 1.1586 -0.0275 0.6996
C4 C 0.97429(16) 0.0567(2) 0.76292(9)
C5 C 0.81953(17) 0.0556(2) 0.75926(10)
H3 H 0.7636 0.1022 0.8057
C6 C 0.74692(16) -0.0127(2) 0.68859(11)
H4 H 0.6415 -0.0139 0.6868
C7 C 1.05868(15) 0.13642(19) 0.83546(9)
C8 C 1.04578(17) 0.5298(2) 0.96543(10)
C9 C 0.9606(2) 0.6673(3) 0.91270(13)
H5 H 0.8540 0.6455 0.9203
H6 H 0.9852 0.7967 0.9301
H7 H 0.9867 0.6499 0.8531
C10 C 1.1150(2) 0.6017(3) 1.04513(13)
H8 H 1.1688 0.4985 1.0730
H9 H 1.1842 0.7044 1.0317
H10 H 1.0372 0.6491 1.0829
N1 N 0.99553(15) 0.28463(18) 0.87607(8)
H11 H 0.915(2) 0.322(3) 0.8650(14)
N2 N 1.06633(15) 0.35501(17) 0.94783(9)
O1 O 0.75211(13) -0.13408(17) 0.55027(7)
H12 H 0.810(2) -0.186(3) 0.5128(14)
O2 O 1.18346(12) 0.07951(15) 0.85430(7)
C1 C 0.17183(18) 1.0795(2) 0.11998(9)
C2 C 0.01736(18) 1.0867(2) 0.12491(10)
H1 H -0.0388 1.1371 0.0794
C3 C -0.05349(16) 1.0203(2) 0.19615(10)
H2 H -0.1586 1.0275 0.1996
C4 C 0.02571(16) 0.9433(2) 0.26292(9)
C5 C 0.18047(17) 0.9444(2) 0.25926(10)
H3 H 0.2364 0.8978 0.3057
C6 C 0.25308(16) 1.0127(2) 0.18859(11)
H4 H 0.3585 1.0139 0.1868
C7 C -0.05868(15) 0.86358(19) 0.33546(9)
C8 C -0.04578(17) 0.4702(2) 0.46543(10)
C9 C 0.0394(2) 0.3327(3) 0.41270(13)
H5 H 0.1460 0.3545 0.4203
H6 H 0.0148 0.2033 0.4301
H7 H 0.0133 0.3501 0.3531
C10 C -0.1150(2) 0.3983(3) 0.54513(13)
H8 H -0.1688 0.5015 0.5730
H9 H -0.1842 0.2956 0.5317
H10 H -0.0372 0.3509 0.5829
N1 N 0.00447(15) 0.71537(18) 0.37607(8)
H11 H 0.085(2) 0.678(3) 0.3650(14)
N2 N -0.06633(15) 0.64499(17) 0.44783(9)
O1 O 0.24789(13) 1.13408(17) 0.05027(7)
H12 H 0.190(2) 1.186(3) 0.0128(14)
O2 O -0.18346(12) 0.92049(15) 0.35430(7)

#END
