
#######################################################################
#
#                 Cambridge Crystallographic Data Centre
#                                CCDC 
#
#######################################################################
#
# If this CIF has been generated from an entry in the Cambridge 
# Structural Database, then it will include bibliographic, chemical, 
# crystal, experimental, refinement or atomic coordinate data resulting 
# from the CCDC's data processing and validation procedures.
#
#######################################################################

data_MAQXUX
_symmetry_cell_setting           orthorhombic
_symmetry_space_group_name_H-M   'P 21 21 21'
_symmetry_Int_Tables_number      19
_space_group_name_Hall           'P 2ac 2ab'
loop_
_symmetry_equiv_pos_site_id
_symmetry_equiv_pos_as_xyz
1 x,y,z
2 1/2-x,-y,1/2+z
3 1/2+x,1/2-y,-z
4 -x,1/2+y,1/2-z
_cell_length_a                   6.4391(9)
_cell_length_b                   10.698(2)
_cell_length_c                   30.203(2)
_cell_angle_alpha                90
_cell_angle_beta                 90
_cell_angle_gamma                90
_cell_volume                     2080.55
loop_
_atom_site_label
_atom_site_type_symbol
_atom_site_fract_x
_atom_site_fract_y
_atom_site_fract_z
O1 O 0.3571(2) 0.3088(1) 1.03256(5)
O2 O 0.1526(3) 0.0538(1) 0.92912(5)
N1 N 0.4255(3) 0.1097(2) 0.97038(6)
C1 C 0.4135(4) 0.1865(2) 1.04595(7)
C2 C 0.3287(4) 0.0917(2) 1.01339(7)
C3 C 0.3504(4) -0.0391(2) 1.03120(7)
C4 C 0.1937(4) -0.0897(2) 1.05634(8)
C5 C 0.2106(5) -0.2066(3) 1.07425(9)
C6 C 0.3853(6) -0.2751(2) 1.06732(9)
C7 C 0.5449(6) -0.2266(3) 1.04284(9)
C8 C 0.5274(5) -0.1099(2) 1.02481(9)
C9 C 0.3351(4) 0.0899(2) 0.93189(7)
C10 C 0.4591(4) 0.1172(2) 0.89099(7)
C11 C 0.3655(7) 0.2267(3) 0.8674(1)
C12 C 0.4736(5) 0.0041(3) 0.86210(9)
C13 C 0.5977(5) 0.0201(2) 0.81996(8)
C14 C 0.5259(6) -0.0140(4) 0.7811(1)
C15 C 0.6268(6) 0.0067(4) 0.7415(1)
C16 C 0.8128(5) 0.0657(3) 0.73961(8)
C17 C 0.8947(6) 0.0878(4) 0.7795(1)
C18 C 0.7933(6) 0.0654(4) 0.8190(1)
C19 C 0.9222(6) 0.0900(3) 0.69630(9)
C20 C 1.0479(7) -0.0224(4) 0.6828(1)
C21 C 0.773(1) 0.1102(6) 0.6590(1)
C22 C 1.0647(9) 0.1980(4) 0.6996(1)
H1 H 0.437(5) 0.356(2) 1.0445(8)
H2 H 0.537(4) 0.143(2) 0.9719(7)
H3 H 0.565(4) 0.181(2) 1.0474(6)
H4 H 0.376(3) 0.173(2) 1.0767(6)
H5 H 0.181(3) 0.114(2) 1.0094(6)
H6 H 0.082(3) -0.041(2) 1.0605(6)
H7 H 0.112(5) -0.243(2) 1.0936(9)
H8 H 0.403(4) -0.353(2) 1.0812(8)
H9 H 0.660(4) -0.268(2) 1.0368(7)
H10 H 0.623(3) -0.073(2) 1.0109(6)
H11 H 0.589(3) 0.139(2) 0.8994(7)
H12 H 0.4409 0.2495 0.8404
H13 H 0.3572 0.3014 0.8868
H14 H 0.2193 0.2054 0.8588
H15 H 0.5399 -0.0657 0.8802
H16 H 0.3307 -0.0240 0.8556
H17 H 0.3846 -0.0580 0.7797
H18 H 0.5608 -0.0194 0.7123
H19 H 1.0364 0.1353 0.7795
H20 H 0.8715 0.0843 0.8486
H21 H 1.1269 -0.0142 0.6555
H22 H 0.9603 -0.0993 0.6807
H23 H 1.1553 -0.0435 0.7071
H24 H 0.8353 0.1259 0.6301
H25 H 0.6710 0.1790 0.6651
H26 H 0.6809 0.0323 0.6551
H27 H 1.1406 0.2203 0.6722
H28 H 1.1753 0.1848 0.7232
H29 H 0.9914 0.2778 0.7094
O1 O 1.1429(2) 0.6912(1) 0.53256(5)
O2 O 1.3474(3) 0.9462(1) 0.42912(5)
N1 N 1.0745(3) 0.8903(2) 0.47038(6)
C1 C 1.0865(4) 0.8135(2) 0.54595(7)
C2 C 1.1713(4) 0.9083(2) 0.51339(7)
C3 C 1.1496(4) 1.0391(2) 0.53120(7)
C4 C 1.3063(4) 1.0897(2) 0.55634(8)
C5 C 1.2894(5) 1.2066(3) 0.57425(9)
C6 C 1.1147(6) 1.2751(2) 0.56732(9)
C7 C 0.9551(6) 1.2266(3) 0.54284(9)
C8 C 0.9726(5) 1.1099(2) 0.52481(9)
C9 C 1.1649(4) 0.9101(2) 0.43189(7)
C10 C 1.0409(4) 0.8828(2) 0.39099(7)
C11 C 1.1345(7) 0.7733(3) 0.3674(1)
C12 C 1.0264(5) 0.9959(3) 0.36210(9)
C13 C 0.9023(5) 0.9799(2) 0.31996(8)
C14 C 0.9741(6) 1.0140(4) 0.2811(1)
C15 C 0.8732(6) 0.9933(4) 0.2415(1)
C16 C 0.6872(5) 0.9343(3) 0.23961(8)
C17 C 0.6053(6) 0.9122(4) 0.2795(1)
C18 C 0.7067(6) 0.9346(4) 0.3190(1)
C19 C 0.5778(6) 0.9100(3) 0.19630(9)
C20 C 0.4521(7) 1.0224(4) 0.1828(1)
C21 C 0.727(1) 0.8898(6) 0.1590(1)
C22 C 0.4353(9) 0.8020(4) 0.1996(1)
H1 H 1.063(5) 0.644(2) 0.5445(8)
H2 H 0.963(4) 0.857(2) 0.4719(7)
H3 H 0.935(4) 0.819(2) 0.5474(6)
H4 H 1.124(3) 0.827(2) 0.5767(6)
H5 H 1.319(3) 0.886(2) 0.5094(6)
H6 H 1.418(3) 1.041(2) 0.5605(6)
H7 H 1.388(5) 1.243(2) 0.5936(9)
H8 H 1.097(4) 1.353(2) 0.5812(8)
H9 H 0.840(4) 1.268(2) 0.5368(7)
H10 H 0.877(3) 1.073(2) 0.5109(6)
H11 H 0.911(3) 0.861(2) 0.3994(7)
H12 H 1.0591 0.7505 0.3404
H13 H 1.1428 0.6986 0.3868
H14 H 1.2807 0.7946 0.3588
H15 H 0.9601 1.0657 0.3802
H16 H 1.1693 1.0240 0.3556
H17 H 1.1154 1.0580 0.2797
H18 H 0.9392 1.0194 0.2123
H19 H 0.4636 0.8647 0.2795
H20 H 0.6285 0.9157 0.3486
H21 H 0.3731 1.0142 0.1555
H22 H 0.5397 1.0993 0.1807
H23 H 0.3447 1.0435 0.2071
H24 H 0.6647 0.8741 0.1301
H25 H 0.8290 0.8210 0.1651
H26 H 0.8191 0.9677 0.1551
H27 H 0.3594 0.7797 0.1722
H28 H 0.3247 0.8152 0.2232
H29 H 0.5086 0.7222 0.2094
O1 O -0.1429(2) 0.1912(1) -0.03256(5)
O2 O -0.3474(3) 0.4462(1) 0.07088(5)
N1 N -0.0745(3) 0.3903(2) 0.02962(6)
C1 C -0.0865(4) 0.3135(2) -0.04595(7)
C2 C -0.1713(4) 0.4083(2) -0.01339(7)
C3 C -0.1496(4) 0.5391(2) -0.03120(7)
C4 C -0.3063(4) 0.5897(2) -0.05634(8)
C5 C -0.2894(5) 0.7066(3) -0.07425(9)
C6 C -0.1147(6) 0.7751(2) -0.06732(9)
C7 C 0.0449(6) 0.7266(3) -0.04284(9)
C8 C 0.0274(5) 0.6099(2) -0.02481(9)
C9 C -0.1649(4) 0.4101(2) 0.06811(7)
C10 C -0.0409(4) 0.3828(2) 0.10901(7)
C11 C -0.1345(7) 0.2733(3) 0.1326(1)
C12 C -0.0264(5) 0.4959(3) 0.13790(9)
C13 C 0.0977(5) 0.4799(2) 0.18004(8)
C14 C 0.0259(6) 0.5140(4) 0.2189(1)
C15 C 0.1268(6) 0.4933(4) 0.2585(1)
C16 C 0.3128(5) 0.4343(3) 0.26039(8)
C17 C 0.3947(6) 0.4122(4) 0.2205(1)
C18 C 0.2933(6) 0.4346(4) 0.1810(1)
C19 C 0.4222(6) 0.4100(3) 0.30370(9)
C20 C 0.5479(7) 0.5224(4) 0.3172(1)
C21 C 0.273(1) 0.3898(6) 0.3410(1)
C22 C 0.5647(9) 0.3020(4) 0.3004(1)
H1 H -0.063(5) 0.144(2) -0.0445(8)
H2 H 0.037(4) 0.357(2) 0.0281(7)
H3 H 0.065(4) 0.319(2) -0.0474(6)
H4 H -0.124(3) 0.327(2) -0.0767(6)
H5 H -0.319(3) 0.386(2) -0.0094(6)
H6 H -0.418(3) 0.541(2) -0.0605(6)
H7 H -0.388(5) 0.743(2) -0.0936(9)
H8 H -0.097(4) 0.853(2) -0.0812(8)
H9 H 0.160(4) 0.768(2) -0.0368(7)
H10 H 0.123(3) 0.573(2) -0.0109(6)
H11 H 0.089(3) 0.361(2) 0.1006(7)
H12 H -0.0591 0.2505 0.1596
H13 H -0.1428 0.1986 0.1132
H14 H -0.2807 0.2946 0.1412
H15 H 0.0399 0.5657 0.1198
H16 H -0.1693 0.5240 0.1444
H17 H -0.1154 0.5580 0.2203
H18 H 0.0608 0.5194 0.2877
H19 H 0.5364 0.3647 0.2205
H20 H 0.3715 0.4157 0.1514
H21 H 0.6269 0.5142 0.3445
H22 H 0.4603 0.5993 0.3193
H23 H 0.6553 0.5435 0.2929
H24 H 0.3353 0.3741 0.3699
H25 H 0.1710 0.3210 0.3349
H26 H 0.1809 0.4677 0.3449
H27 H 0.6406 0.2797 0.3278
H28 H 0.6753 0.3152 0.2768
H29 H 0.4914 0.2222 0.2906
O1 O 0.6429(2) 0.8088(1) 0.46744(5)
O2 O 0.8474(3) 0.5538(1) 0.57088(5)
N1 N 0.5745(3) 0.6097(2) 0.52962(6)
C1 C 0.5865(4) 0.6865(2) 0.45405(7)
C2 C 0.6713(4) 0.5917(2) 0.48661(7)
C3 C 0.6496(4) 0.4609(2) 0.46880(7)
C4 C 0.8063(4) 0.4103(2) 0.44366(8)
C5 C 0.7894(5) 0.2934(3) 0.42575(9)
C6 C 0.6147(6) 0.2249(2) 0.43268(9)
C7 C 0.4551(6) 0.2734(3) 0.45716(9)
C8 C 0.4726(5) 0.3901(2) 0.47519(9)
C9 C 0.6649(4) 0.5899(2) 0.56811(7)
C10 C 0.5409(4) 0.6172(2) 0.60901(7)
C11 C 0.6345(7) 0.7267(3) 0.6326(1)
C12 C 0.5264(5) 0.5041(3) 0.63790(9)
C13 C 0.4023(5) 0.5201(2) 0.68004(8)
C14 C 0.4741(6) 0.4860(4) 0.7189(1)
C15 C 0.3732(6) 0.5067(4) 0.7585(1)
C16 C 0.1872(5) 0.5657(3) 0.76039(8)
C17 C 0.1053(6) 0.5878(4) 0.7205(1)
C18 C 0.2067(6) 0.5654(4) 0.6810(1)
C19 C 0.0778(6) 0.5900(3) 0.80370(9)
C20 C -0.0479(7) 0.4776(4) 0.8172(1)
C21 C 0.227(1) 0.6102(6) 0.8410(1)
C22 C -0.0647(9) 0.6980(4) 0.8004(1)
H1 H 0.563(5) 0.856(2) 0.4555(8)
H2 H 0.463(4) 0.643(2) 0.5281(7)
H3 H 0.435(4) 0.681(2) 0.4526(6)
H4 H 0.624(3) 0.673(2) 0.4233(6)
H5 H 0.819(3) 0.614(2) 0.4906(6)
H6 H 0.918(3) 0.459(2) 0.4395(6)
H7 H 0.888(5) 0.257(2) 0.4064(9)
H8 H 0.597(4) 0.147(2) 0.4188(8)
H9 H 0.340(4) 0.232(2) 0.4632(7)
H10 H 0.377(3) 0.427(2) 0.4891(6)
H11 H 0.411(3) 0.639(2) 0.6006(7)
H12 H 0.5591 0.7495 0.6596
H13 H 0.6428 0.8014 0.6132
H14 H 0.7807 0.7054 0.6412
H15 H 0.4601 0.4343 0.6198
H16 H 0.6693 0.4760 0.6444
H17 H 0.6154 0.4420 0.7203
H18 H 0.4392 0.4806 0.7877
H19 H -0.0364 0.6353 0.7205
H20 H 0.1285 0.5843 0.6514
H21 H -0.1269 0.4858 0.8445
H22 H 0.0397 0.4007 0.8193
H23 H -0.1553 0.4565 0.7929
H24 H 0.1647 0.6259 0.8699
H25 H 0.3290 0.6790 0.8349
H26 H 0.3191 0.5323 0.8449
H27 H -0.1406 0.7203 0.8278
H28 H -0.1753 0.6848 0.7768
H29 H 0.0086 0.7778 0.7906

#END
