
#######################################################################
#
#                 Cambridge Crystallographic Data Centre
#                                CCDC 
#
#######################################################################
#
# If this CIF has been generated from an entry in the Cambridge 
# Structural Database, then it will include bibliographic, chemical, 
# crystal, experimental, refinement or atomic coordinate data resulting 
# from the CCDC's data processing and validation procedures.
#
#######################################################################

data_MAQXEJ
_symmetry_cell_setting           monoclinic
_symmetry_space_group_name_H-M   'C c'
_symmetry_Int_Tables_number      9
_space_group_name_Hall           'C -2yc'
loop_
_symmetry_equiv_pos_site_id
_symmetry_equiv_pos_as_xyz
1 x,y,z
2 x,-y,1/2+z
3 1/2+x,1/2+y,z
4 1/2+x,1/2-y,1/2+z
_cell_length_a                   8.415(4)
_cell_length_b                   16.247(7)
_cell_length_c                   7.729(3)
_cell_angle_alpha                90
_cell_angle_beta                 112.60(3)
_cell_angle_gamma                90
_cell_volume                     975.554
loop_
_atom_site_label
_atom_site_type_symbol
_atom_site_fract_x
_atom_site_fract_y
_atom_site_fract_z
C1 C 0.1449(3) 1.11038(19) -0.1919(3)
C2 C 0.2468(4) 1.17416(19) -0.0867(4)
H1 H 0.2185 1.2286 -0.1227
C3 C 0.3905(3) 1.15608(16) 0.0717(3)
H2 H 0.4576 1.1988 0.1431
C4 C 0.4361(3) 1.07547(14) 0.1258(3)
C5 C 0.3316(4) 1.01275(15) 0.0193(4)
H3 H 0.3594 0.9582 0.0546
C6 C 0.1876(4) 1.03039(18) -0.1375(4)
H4 H 0.1188 0.9878 -0.2072
C7 C 0.5878(3) 1.05931(15) 0.3032(3)
C8 C 0.8235(3) 0.88727(16) 0.4915(3)
C9 C 0.7353(4) 0.81489(17) 0.3734(4)
H5 H 0.7505 0.8113 0.2554
H6 H 0.6151 0.8094 0.3548
C10 C 0.8571(5) 0.75898(18) 0.5281(4)
H7 H 0.9324 0.7260 0.4875
H8 H 0.7982 0.7249 0.5878
C11 C 0.9470(4) 0.83469(18) 0.6460(4)
H9 H 0.9333 0.8392 0.7646
H10 H 1.0666 0.8409 0.6624
N1 N 0.6651(3) 0.98703(14) 0.3118(3)
H11 H 0.647(5) 0.9627(19) 0.219(5)
N2 N 0.8010(3) 0.96419(13) 0.4785(3)
O1 O 0.0040(3) 1.13155(18) -0.3459(3)
H12 H -0.044(7) 1.092(3) -0.392(6)
O2 O 0.6323(3) 1.10792(12) 0.4345(3)
C1 C 0.1449(3) -0.11038(19) 0.3081(3)
C2 C 0.2468(4) -0.17416(19) 0.4133(4)
H1 H 0.2185 -0.2286 0.3773
C3 C 0.3905(3) -0.15608(16) 0.5717(3)
H2 H 0.4576 -0.1988 0.6431
C4 C 0.4361(3) -0.07547(14) 0.6258(3)
C5 C 0.3316(4) -0.01275(15) 0.5193(4)
H3 H 0.3594 0.0418 0.5546
C6 C 0.1876(4) -0.03039(18) 0.3625(4)
H4 H 0.1188 0.0122 0.2928
C7 C 0.5878(3) -0.05931(15) 0.8032(3)
C8 C 0.8235(3) 0.11273(16) 0.9915(3)
C9 C 0.7353(4) 0.18511(17) 0.8734(4)
H5 H 0.7505 0.1887 0.7554
H6 H 0.6151 0.1906 0.8548
C10 C 0.8571(5) 0.24102(18) 1.0281(4)
H7 H 0.9324 0.2740 0.9875
H8 H 0.7982 0.2751 1.0878
C11 C 0.9470(4) 0.16531(18) 1.1460(4)
H9 H 0.9333 0.1608 1.2646
H10 H 1.0666 0.1591 1.1624
N1 N 0.6651(3) 0.01297(14) 0.8118(3)
H11 H 0.647(5) 0.0373(19) 0.719(5)
N2 N 0.8010(3) 0.03581(13) 0.9785(3)
O1 O 0.0040(3) -0.13155(18) 0.1541(3)
H12 H -0.044(7) -0.092(3) 0.108(6)
O2 O 0.6323(3) -0.10792(12) 0.9345(3)
C1 C -0.3551(3) 0.61038(19) -0.1919(3)
C2 C -0.2532(4) 0.67416(19) -0.0867(4)
H1 H -0.2815 0.7286 -0.1227
C3 C -0.1095(3) 0.65608(16) 0.0717(3)
H2 H -0.0424 0.6988 0.1431
C4 C -0.0639(3) 0.57547(14) 0.1258(3)
C5 C -0.1684(4) 0.51275(15) 0.0193(4)
H3 H -0.1406 0.4582 0.0546
C6 C -0.3124(4) 0.53039(18) -0.1375(4)
H4 H -0.3812 0.4878 -0.2072
C7 C 0.0878(3) 0.55931(15) 0.3032(3)
C8 C 0.3235(3) 0.38727(16) 0.4915(3)
C9 C 0.2353(4) 0.31489(17) 0.3734(4)
H5 H 0.2505 0.3113 0.2554
H6 H 0.1151 0.3094 0.3548
C10 C 0.3571(5) 0.25898(18) 0.5281(4)
H7 H 0.4324 0.2260 0.4875
H8 H 0.2982 0.2249 0.5878
C11 C 0.4470(4) 0.33469(18) 0.6460(4)
H9 H 0.4333 0.3392 0.7646
H10 H 0.5666 0.3409 0.6624
N1 N 0.1651(3) 0.48703(14) 0.3118(3)
H11 H 0.147(5) 0.4627(19) 0.219(5)
N2 N 0.3010(3) 0.46419(13) 0.4785(3)
O1 O -0.4960(3) 0.63155(18) -0.3459(3)
H12 H -0.544(7) 0.592(3) -0.392(6)
O2 O 0.1323(3) 0.60792(12) 0.4345(3)
C1 C -0.3551(3) 0.38962(19) 0.3081(3)
C2 C -0.2532(4) 0.32584(19) 0.4133(4)
H1 H -0.2815 0.2714 0.3773
C3 C -0.1095(3) 0.34392(16) 0.5717(3)
H2 H -0.0424 0.3012 0.6431
C4 C -0.0639(3) 0.42453(14) 0.6258(3)
C5 C -0.1684(4) 0.48725(15) 0.5193(4)
H3 H -0.1406 0.5418 0.5546
C6 C -0.3124(4) 0.46961(18) 0.3625(4)
H4 H -0.3812 0.5122 0.2928
C7 C 0.0878(3) 0.44069(15) 0.8032(3)
C8 C 0.3235(3) 0.61273(16) 0.9915(3)
C9 C 0.2353(4) 0.68511(17) 0.8734(4)
H5 H 0.2505 0.6887 0.7554
H6 H 0.1151 0.6906 0.8548
C10 C 0.3571(5) 0.74102(18) 1.0281(4)
H7 H 0.4324 0.7740 0.9875
H8 H 0.2982 0.7751 1.0878
C11 C 0.4470(4) 0.66531(18) 1.1460(4)
H9 H 0.4333 0.6608 1.2646
H10 H 0.5666 0.6591 1.1624
N1 N 0.1651(3) 0.51297(14) 0.8118(3)
H11 H 0.147(5) 0.5373(19) 0.719(5)
N2 N 0.3010(3) 0.53581(13) 0.9785(3)
O1 O -0.4960(3) 0.36845(18) 0.1541(3)
H12 H -0.544(7) 0.408(3) 0.108(6)
O2 O 0.1323(3) 0.39208(12) 0.9345(3)

#END
