./MAQXUX_from_POSCAR.cif_generated_by_CrystalShift
_symmetry_cell_setting triclinic
_symmetry_space_group_name_H-M 'P 1'
loop_
_symmetry_equiv_pos_site_id
_symmetry_equiv_pos_as_xyz
1 x,y,z
_cell_length_a 6.439100
_cell_length_b 10.698000
_cell_length_c 30.203000
_cell_angle_alpha 90.000000
_cell_angle_beta 90.000000
_cell_angle_gamma 90.000000
_cell_volume 2080.548509
loop_
_atom_site_label
_atom_site_type_symbol
_atom_site_fract_x
_atom_site_fract_y
_atom_site_fract_z
H1 H 0.008600 0.777800 0.790600
H2 H -0.140600 0.720300 0.827800
H3 H 0.319100 0.532300 0.844900
H4 H 0.329000 0.679000 0.834900
H5 H 0.164700 0.625900 0.869900
H6 H -0.155300 0.456500 0.792900
H7 H 0.039700 0.400700 0.819300
H8 H -0.126900 0.485800 0.844500
H9 H 0.128500 0.584300 0.651400
H10 H -0.036400 0.635300 0.720500
H11 H 0.439200 0.480600 0.787700
H12 H 0.615400 0.442000 0.720300
H13 H 0.669300 0.476000 0.644400
H14 H 0.460100 0.434300 0.619800
H15 H 0.780700 0.705400 0.641200
H16 H 0.642800 0.801400 0.613200
H17 H 0.559100 0.749500 0.659600
H18 H 0.411000 0.639000 0.600600
H19 H 0.377000 0.427000 0.489100
H20 H 0.340000 0.232000 0.463200
H21 H 0.597000 0.147000 0.418800
H22 H 0.888000 0.257000 0.406400
H23 H 0.918000 0.459000 0.439500
H24 H 0.819000 0.614000 0.490600
H25 H 0.624000 0.673000 0.423300
H26 H 0.437000 0.356000 1.044500
H27 H 0.537000 0.143000 0.971900
H28 H 0.565000 0.181000 1.047400
H29 H 0.376000 0.173000 1.076700
H30 H 0.181000 0.114000 1.009400
H31 H 0.082000 -0.041000 1.060500
H32 H 0.112000 -0.243000 1.093600
H33 H 0.403000 -0.353000 1.081200
H34 H 0.660000 -0.268000 1.036800
H35 H 0.623000 -0.073000 1.010900
H36 H 0.589000 0.139000 0.899400
H37 H 0.440900 0.249500 0.840400
H38 H 0.357200 0.301400 0.886800
H39 H 0.219300 0.205400 0.858800
H40 H 0.539900 -0.065700 0.880200
H41 H 0.330700 -0.024000 0.855600
H42 H 0.384600 -0.058000 0.779700
H43 H 0.560800 -0.019400 0.712300
H44 H 1.036400 0.135300 0.779500
H45 H 0.871500 0.084300 0.848600
H46 H 1.126900 -0.014200 0.655500
H47 H 0.960300 -0.099300 0.680700
H48 H 1.155300 -0.043500 0.707100
H49 H 0.835300 0.125900 0.630100
H50 H 0.671000 0.179000 0.665100
H51 H 0.680900 0.032300 0.655100
H52 H 1.140600 0.220300 0.672200
H53 H 1.175300 0.184800 0.723200
H54 H 0.991400 0.277800 0.709400
H55 H 0.435000 0.681000 0.452600
H56 H 0.463000 0.643000 0.528100
H57 H 0.563000 0.856000 0.455500
H58 H 0.491400 0.222200 0.290600
H59 H 0.675300 0.315200 0.276800
H60 H 0.640600 0.279700 0.327800
H61 H 0.180900 0.467700 0.344900
H62 H 0.171000 0.321000 0.334900
H63 H 0.335300 0.374100 0.369900
H64 H 0.655300 0.543500 0.292900
H65 H 0.460300 0.599300 0.319300
H66 H 0.626900 0.514200 0.344500
H67 H 0.371500 0.415700 0.151400
H68 H 0.536400 0.364700 0.220500
H69 H 0.060800 0.519400 0.287700
H70 H -0.115400 0.558000 0.220300
H71 H -0.169300 0.524000 0.144400
H72 H 0.039900 0.565700 0.119800
H73 H -0.280700 0.294600 0.141200
H74 H -0.142800 0.198600 0.113200
H75 H -0.059100 0.250500 0.159600
H76 H 0.089000 0.361000 0.100600
H77 H 0.123000 0.573000 -0.010900
H78 H 0.160000 0.768000 -0.036800
H79 H -0.097000 0.853000 -0.081200
H80 H 1.063000 0.644000 0.544500
H81 H 0.963000 0.857000 0.471900
H82 H 0.935000 0.819000 0.547400
H83 H 1.124000 0.827000 0.576700
H84 H 1.319000 0.886000 0.509400
H85 H 1.418000 1.041000 0.560500
H86 H 1.388000 1.243000 0.593600
H87 H 1.097000 1.353000 0.581200
H88 H 0.840000 1.268000 0.536800
H89 H 0.877000 1.073000 0.510900
H90 H 0.911000 0.861000 0.399400
H91 H 1.059100 0.750500 0.340400
H92 H 1.142800 0.698600 0.386800
H93 H 1.280700 0.794600 0.358800
H94 H 0.960100 1.065700 0.380200
H95 H 1.169300 1.024000 0.355600
H96 H 1.115400 1.058000 0.279700
H97 H 0.939200 1.019400 0.212300
H98 H 0.463600 0.864700 0.279500
H99 H 0.628500 0.915700 0.348600
H100 H 0.373100 1.014200 0.155500
H101 H 0.539700 1.099300 0.180700
H102 H 0.344700 1.043500 0.207100
H103 H 0.664700 0.874100 0.130100
H104 H 0.829000 0.821000 0.165100
H105 H 0.819100 0.967700 0.155100
H106 H 0.359400 0.779700 0.172200
H107 H 0.324700 0.815200 0.223200
H108 H 0.508600 0.722200 0.209400
H109 H -0.388000 0.743000 -0.093600
H110 H -0.418000 0.541000 -0.060500
H111 H -0.319000 0.386000 -0.009400
H112 H -0.124000 0.327000 -0.076700
H113 H 0.065000 0.319000 -0.047400
H114 H 0.037000 0.357000 0.028100
H115 H -0.063000 0.144000 -0.044500
H116 H -0.175300 0.684800 0.776800
C117 C -0.114700 0.775100 -0.067320
C118 C 0.044900 0.726600 -0.042840
C119 C 0.027400 0.609900 -0.024810
C120 C -0.164900 0.410100 0.068110
C121 C -0.040900 0.382800 0.109010
C122 C -0.134500 0.273300 0.132600
C123 C -0.026400 0.495900 0.137900
C124 C 0.097700 0.479900 0.180040
C125 C 0.025900 0.514000 0.218900
C126 C 0.126800 0.493300 0.258500
C127 C 0.312800 0.434300 0.260390
C128 C 0.394700 0.412200 0.220500
C129 C 0.293300 0.434600 0.181000
C130 C 0.422200 0.410000 0.303700
C131 C 0.547900 0.522400 0.317200
C132 C 0.273000 0.389800 0.341000
C133 C 0.564700 0.302000 0.300400
C134 C -0.306300 0.589700 -0.056340
C135 C -0.149600 0.539100 -0.031200
C136 C -0.171300 0.408300 -0.013390
C137 C -0.086500 0.313500 -0.045950
C138 C 0.413500 0.186500 1.045950
C139 C 0.328700 0.091700 1.013390
C140 C 0.350400 -0.039100 1.031200
C141 C 0.435300 0.802000 0.199600
C142 C 0.727000 0.889800 0.159000
C143 C 0.452100 1.022400 0.182800
C144 C 0.577800 0.910000 0.196300
C145 C 0.706700 0.934600 0.319000
C146 C 0.605300 0.912200 0.279500
C147 C 0.687200 0.934300 0.239610
C148 C 0.873200 0.993300 0.241500
C149 C 0.974100 1.014000 0.281100
C150 C 0.902300 0.979900 0.319960
C151 C 1.026400 0.995900 0.362100
C152 C 1.134500 0.773300 0.367400
C153 C 1.040900 0.882800 0.390990
C154 C 1.164900 0.910100 0.431890
C155 C 0.972600 1.109900 0.524810
C156 C 0.955100 1.226600 0.542840
C157 C 1.114700 1.275100 0.567320
C158 C 1.289400 1.206600 0.574250
C159 C 1.306300 1.089700 0.556340
C160 C 1.149600 1.039100 0.531200
C161 C 1.171300 0.908300 0.513390
C162 C 1.086500 0.813500 0.545950
C163 C 0.193700 -0.089700 1.056340
C164 C 0.210600 -0.206600 1.074250
C165 C 0.385300 -0.275100 1.067320
C166 C 0.586500 0.686500 0.454050
C167 C 0.671300 0.591700 0.486610
C168 C 0.649600 0.460900 0.468800
C169 C 0.806300 0.410300 0.443660
C170 C 0.789400 0.293400 0.425750
C171 C 0.614700 0.224900 0.432680
C172 C 0.455100 0.273400 0.457160
C173 C 0.472600 0.390100 0.475190
C174 C 0.664900 0.589900 0.568110
C175 C 0.540900 0.617200 0.609010
C176 C 0.634500 0.726700 0.632600
C177 C 0.526400 0.504100 0.637900
C178 C 0.402300 0.520100 0.680040
C179 C 0.474100 0.486000 0.718900
C180 C 0.373200 0.506700 0.758500
C181 C 0.187200 0.565700 0.760390
C182 C 0.105300 0.587800 0.720500
C183 C 0.206700 0.565400 0.681000
C184 C 0.077800 0.590000 0.803700
C185 C -0.047900 0.477600 0.817200
C186 C 0.227000 0.610200 0.841000
C187 C -0.064700 0.698000 0.800400
C188 C 0.544900 -0.226600 1.042840
C189 C 0.527400 -0.109900 1.024810
C190 C 0.335100 0.089900 0.931890
C191 C 1.064700 0.198000 0.699600
C192 C 0.773000 0.110200 0.659000
C193 C 1.047900 -0.022400 0.682800
C194 C 0.922200 0.090000 0.696300
C195 C 0.793300 0.065400 0.819000
C196 C 0.894700 0.087800 0.779500
C197 C 0.812800 0.065700 0.739610
C198 C 0.626800 0.006700 0.741500
C199 C 0.525900 -0.014000 0.781100
C200 C 0.597700 0.020100 0.819960
C201 C 0.473600 0.004100 0.862100
C202 C 0.365500 0.226700 0.867400
C203 C 0.459100 0.117200 0.890990
C204 C -0.289400 0.706600 -0.074250
N205 N -0.074500 0.390300 0.029620
N206 N 1.074500 0.890300 0.470380
N207 N 0.574500 0.609700 0.529620
N208 N 0.425500 0.109700 0.970380
O209 O -0.142900 0.191200 -0.032560
O210 O -0.347400 0.446200 0.070880
O211 O 1.347400 0.946200 0.429120
O212 O 0.642900 0.808800 0.467440
O213 O 0.847400 0.553800 0.570880
O214 O 0.152600 0.053800 0.929120
O215 O 1.142900 0.691200 0.532560
O216 O 0.357100 0.308800 1.032560

#END
