
#######################################################################
#
#                 Cambridge Crystallographic Data Centre
#                                CCDC 
#
#######################################################################
#
# If this CIF has been generated from an entry in the Cambridge 
# Structural Database, then it will include bibliographic, chemical, 
# crystal, experimental, refinement or atomic coordinate data resulting 
# from the CCDC's data processing and validation procedures.
#
#######################################################################

data_MAQYEL
_symmetry_cell_setting           triclinic
_symmetry_space_group_name_H-M   'P -1'
_symmetry_Int_Tables_number      2
_space_group_name_Hall           '-P 1'
loop_
_symmetry_equiv_pos_site_id
_symmetry_equiv_pos_as_xyz
1 x,y,z
2 -x,-y,-z
_cell_length_a                   11.1587(8)
_cell_length_b                   13.0479(10)
_cell_length_c                   13.1431(10)
_cell_angle_alpha                111.784(8)
_cell_angle_beta                 110.740(8)
_cell_angle_gamma                97.685(7)
_cell_volume                     1582.45
loop_
_atom_site_label
_atom_site_type_symbol
_atom_site_fract_x
_atom_site_fract_y
_atom_site_fract_z
C1 C 0.8139(4) 0.5456(3) 0.0013(3)
H1 H 0.8847 0.5885 -0.0047
C2 C 0.6950(4) 0.4762(3) -0.1043(4)
H2 H 0.6855 0.4731 -0.1802
C3 C 0.5921(4) 0.4128(3) -0.0983(4)
H3 H 0.5102 0.3658 -0.1693
C4 C 0.6100(4) 0.4185(3) 0.0148(4)
C5 C 0.7311(4) 0.4901(3) 0.1171(3)
C6 C 0.5124(4) 0.3530(3) 0.0330(3)
C7 C 0.5379(4) 0.3596(3) 0.1467(4)
C8 C 0.6605(4) 0.4320(3) 0.2532(3)
C9 C 0.7563(4) 0.4980(3) 0.2357(3)
C10 C 0.6950(4) 0.4424(3) 0.3714(3)
H4 H 0.6342 0.3994 0.3872
C11 C 0.8190(4) 0.5165(4) 0.4637(4)
H5 H 0.8445 0.5242 0.5439
C12 C 0.9070(4) 0.5800(3) 0.4402(4)
H6 H 0.9906 0.6323 0.5058
C13 C 0.3399(4) 0.2333(3) 0.0041(3)
C14 C 0.2119(4) 0.1403(3) -0.0533(4)
C15 C 0.1030(4) 0.1589(4) -0.0286(4)
H7 H 0.1104 0.2329 0.0288
C16 C -0.0162(4) 0.0690(4) -0.0878(4)
H8 H -0.0921 0.0824 -0.0743
C17 C -0.0245(4) -0.0416(4) -0.1677(4)
H9 H -0.1048 -0.1041 -0.2058
C18 C 0.0843(4) -0.0597(4) -0.1909(4)
C19 C 0.2025(4) 0.0308(3) -0.1357(4)
C20 C 0.3005(5) 0.0115(4) -0.2697(4)
H10 H 0.2109 -0.0380 -0.3349
H11 H 0.3690 -0.0189 -0.2899
H12 H 0.3139 0.0905 -0.2612
C21 C 0.1664(5) -0.2241(4) -0.2255(5)
H13 H 0.2494 -0.1990 -0.2316
H14 H 0.1279 -0.3086 -0.2726
H15 H 0.1867 -0.2015 -0.1399
C22 C 0.4030(4) 0.2502(3) 0.2149(4)
C23 C 0.4255(4) 0.1498(4) 0.2180(4)
H16 H 0.4525 0.1011 0.1617
C24 C 0.4081(4) 0.1210(3) 0.3042(4)
H17 H 0.4226 0.0513 0.3056
C25 C 0.3700(4) 0.1911(3) 0.3892(4)
C26 C 0.3452(4) 0.2901(3) 0.3811(4)
H18 H 0.3168 0.3386 0.4363
C27 C 0.3606(4) 0.3200(3) 0.2949(4)
H19 H 0.3423 0.3878 0.2907
C28 C 0.3586(4) 0.1594(3) 0.4877(4)
C29 C 0.2736(5) 0.0324(4) 0.4306(4)
H20 H 0.2741 0.0120 0.4954
H21 H 0.3115 -0.0179 0.3830
H22 H 0.1809 0.0223 0.3772
C30 C 0.2921(5) 0.2349(4) 0.5574(4)
H23 H 0.2853 0.2107 0.6179
H24 H 0.2019 0.2257 0.4999
H25 H 0.3468 0.3163 0.5987
C31 C 0.5011(4) 0.1775(4) 0.5781(4)
H26 H 0.5551 0.2586 0.6144
H27 H 0.5427 0.1269 0.5352
H28 H 0.4967 0.1587 0.6425
C32 C 1.1229(4) 0.7103(3) 0.2128(4)
C33 C 0.9696(4) 0.7936(4) 0.3232(4)
C34 C 1.1707(4) 0.7175(4) 0.4313(4)
Br1 Br 1.06881(4) 0.45251(3) 0.21752(4)
N1 N 0.8319(3) 0.5538(3) 0.1098(3)
N2 N 0.8778(3) 0.5700(3) 0.3283(3)
N3 N 0.3894(3) 0.2750(3) -0.0551(3)
N4 N 0.4243(3) 0.2826(3) 0.1275(3)
O1 O 1.1853(3) 0.7469(3) 0.1741(3)
O2 O 0.9480(3) 0.8788(3) 0.3532(3)
O3 O 1.2635(3) 0.7543(3) 0.5247(3)
O4 O 0.3116(3) 0.0126(3) -0.1568(3)
O5 O 0.0711(3) -0.1701(3) -0.2734(3)
Re1 Re 1.01561(2) 0.65140(2) 0.27796(2)
C1 C 0.1861(4) 0.4544(3) 0.9987(3)
H1 H 0.1153 0.4115 1.0047
C2 C 0.3050(4) 0.5238(3) 1.1043(4)
H2 H 0.3145 0.5269 1.1802
C3 C 0.4079(4) 0.5872(3) 1.0983(4)
H3 H 0.4898 0.6342 1.1693
C4 C 0.3900(4) 0.5815(3) 0.9852(4)
C5 C 0.2689(4) 0.5099(3) 0.8829(3)
C6 C 0.4876(4) 0.6470(3) 0.9670(3)
C7 C 0.4621(4) 0.6404(3) 0.8533(4)
C8 C 0.3395(4) 0.5680(3) 0.7468(3)
C9 C 0.2437(4) 0.5020(3) 0.7643(3)
C10 C 0.3050(4) 0.5576(3) 0.6286(3)
H4 H 0.3658 0.6006 0.6128
C11 C 0.1810(4) 0.4835(4) 0.5363(4)
H5 H 0.1555 0.4758 0.4561
C12 C 0.0930(4) 0.4200(3) 0.5598(4)
H6 H 0.0094 0.3677 0.4942
C13 C 0.6601(4) 0.7667(3) 0.9959(3)
C14 C 0.7881(4) 0.8597(3) 1.0533(4)
C15 C 0.8970(4) 0.8411(4) 1.0286(4)
H7 H 0.8896 0.7671 0.9712
C16 C 1.0162(4) 0.9310(4) 1.0878(4)
H8 H 1.0921 0.9176 1.0743
C17 C 1.0245(4) 1.0416(4) 1.1677(4)
H9 H 1.1048 1.1041 1.2058
C18 C 0.9157(4) 1.0597(4) 1.1909(4)
C19 C 0.7975(4) 0.9692(3) 1.1357(4)
C20 C 0.6995(5) 0.9885(4) 1.2697(4)
H10 H 0.7891 1.0380 1.3349
H11 H 0.6310 1.0189 1.2899
H12 H 0.6861 0.9095 1.2612
C21 C 0.8336(5) 1.2241(4) 1.2255(5)
H13 H 0.7506 1.1990 1.2316
H14 H 0.8721 1.3086 1.2726
H15 H 0.8133 1.2015 1.1399
C22 C 0.5970(4) 0.7498(3) 0.7851(4)
C23 C 0.5745(4) 0.8502(4) 0.7820(4)
H16 H 0.5475 0.8989 0.8383
C24 C 0.5919(4) 0.8790(3) 0.6958(4)
H17 H 0.5774 0.9487 0.6944
C25 C 0.6300(4) 0.8089(3) 0.6108(4)
C26 C 0.6548(4) 0.7099(3) 0.6189(4)
H18 H 0.6832 0.6614 0.5637
C27 C 0.6394(4) 0.6800(3) 0.7051(4)
H19 H 0.6577 0.6122 0.7093
C28 C 0.6414(4) 0.8406(3) 0.5123(4)
C29 C 0.7264(5) 0.9676(4) 0.5694(4)
H20 H 0.7259 0.9880 0.5046
H21 H 0.6885 1.0179 0.6170
H22 H 0.8191 0.9777 0.6228
C30 C 0.7079(5) 0.7651(4) 0.4426(4)
H23 H 0.7147 0.7893 0.3821
H24 H 0.7981 0.7743 0.5001
H25 H 0.6532 0.6837 0.4013
C31 C 0.4989(4) 0.8225(4) 0.4219(4)
H26 H 0.4449 0.7414 0.3856
H27 H 0.4573 0.8731 0.4648
H28 H 0.5033 0.8413 0.3575
C32 C -0.1229(4) 0.2897(3) 0.7872(4)
C33 C 0.0304(4) 0.2064(4) 0.6768(4)
C34 C -0.1707(4) 0.2825(4) 0.5687(4)
Br1 Br -0.06881(4) 0.54749(3) 0.78248(4)
N1 N 0.1681(3) 0.4462(3) 0.8902(3)
N2 N 0.1222(3) 0.4300(3) 0.6717(3)
N3 N 0.6106(3) 0.7250(3) 1.0551(3)
N4 N 0.5757(3) 0.7174(3) 0.8725(3)
O1 O -0.1853(3) 0.2531(3) 0.8259(3)
O2 O 0.0520(3) 0.1212(3) 0.6468(3)
O3 O -0.2635(3) 0.2457(3) 0.4753(3)
O4 O 0.6884(3) 0.9874(3) 1.1568(3)
O5 O 0.9289(3) 1.1701(3) 1.2734(3)
Re1 Re -0.01561(2) 0.34860(2) 0.72204(2)

#END
