./MARBEM_from_POSCAR.cif_generated_by_CrystalShift
_symmetry_cell_setting triclinic
_symmetry_space_group_name_H-M 'P 1'
loop_
_symmetry_equiv_pos_site_id
_symmetry_equiv_pos_as_xyz
1 x,y,z
_cell_length_a 15.200000
_cell_length_b 7.802000
_cell_length_c 11.432000
_cell_angle_alpha 90.000000
_cell_angle_beta 91.100000
_cell_angle_gamma 90.000000
_cell_volume 1355.475609
loop_
_atom_site_label
_atom_site_type_symbol
_atom_site_fract_x
_atom_site_fract_y
_atom_site_fract_z
H1 H 0.006000 0.853000 0.560000
H2 H 0.293400 0.784100 0.465600
H3 H 0.578900 0.541900 0.996400
H4 H 0.096000 0.898000 0.499000
H5 H 0.508000 0.505000 0.234000
H6 H 0.421100 0.041900 0.503600
H7 H 0.264000 0.360000 0.115000
H8 H 0.006000 0.647000 0.060000
H9 H 0.160400 0.351300 0.506200
H10 H 0.706600 1.284100 1.034400
H11 H 0.096000 0.602000 -0.001000
H12 H 0.994000 0.147000 0.440000
H13 H 0.452000 0.829000 1.265000
H14 H 0.492000 1.005000 1.266000
H15 H 0.146500 0.420100 0.282400
H16 H 0.244800 0.363100 0.299900
H17 H 0.839600 0.851300 0.993800
H18 H -0.008000 -0.008000 0.164000
H19 H 0.938800 0.774000 0.863200
H20 H 0.081000 -0.148000 0.030000
H21 H 0.859300 0.863200 0.668500
H22 H 0.061200 0.274000 0.636800
H23 H 0.704000 0.938000 0.751000
H24 H 0.270000 -0.233000 0.212000
H25 H 0.839000 1.189000 0.777000
H26 H 0.730000 1.233000 0.788000
H27 H 0.904000 0.102000 0.501000
H28 H 0.919000 1.148000 0.970000
H29 H 0.994000 0.353000 0.940000
H30 H 1.008000 1.008000 0.836000
H31 H 0.161000 -0.189000 0.223000
H32 H 0.755200 0.636900 0.700100
H33 H 0.853500 0.579900 0.717600
H34 H 0.904000 0.398000 1.001000
H35 H 0.736000 0.640000 0.885000
H36 H 0.264000 0.140000 0.615000
H37 H 0.296000 0.062000 0.249000
H38 H 0.578900 0.958100 0.496400
H39 H 0.146500 0.079900 0.782400
H40 H 0.140700 0.136800 0.331500
H41 H 0.061200 0.226000 0.136800
H42 H 0.160400 0.148700 0.006200
H43 H 0.244800 0.136900 0.799900
H44 H 0.508000 -0.005000 -0.266000
H45 H 0.706600 0.215900 0.534400
H46 H 0.548000 0.171000 -0.265000
H47 H -0.008000 0.508000 0.664000
H48 H 0.452000 0.671000 0.765000
H49 H 0.492000 0.495000 0.766000
H50 H 0.140700 0.363200 0.831500
H51 H 0.293400 -0.284100 -0.034400
H52 H 0.839600 0.648700 0.493800
H53 H 0.296000 0.438000 0.749000
H54 H 0.938800 0.726000 0.363200
H55 H 0.421100 0.458100 0.003600
H56 H 0.859300 0.636800 0.168500
H57 H 0.736000 0.860000 0.385000
H58 H 0.704000 0.562000 0.251000
H59 H 0.548000 0.329000 0.235000
H60 H 0.839000 0.311000 0.277000
H61 H 0.730000 0.267000 0.288000
H62 H 0.081000 0.648000 0.530000
H63 H 0.919000 0.352000 0.470000
H64 H 0.270000 0.733000 0.712000
H65 H 1.008000 0.492000 0.336000
H66 H 0.161000 0.689000 0.723000
H67 H 0.755200 0.863100 0.200100
H68 H 0.853500 0.920100 0.217600
C69 C 0.807300 0.849300 0.249600
C70 C 0.760500 0.540100 0.271500
C71 C 0.220200 0.645600 0.708100
C72 C 0.415600 0.344900 -0.020900
C73 C 0.836200 0.662500 0.246100
C74 C 0.907700 0.620800 0.340300
C75 C 0.354800 0.088500 -0.005900
C76 C 0.407200 0.021100 -0.092400
C77 C 0.465900 0.135300 -0.145500
C78 C 0.239500 0.459900 0.728500
C79 C 0.321600 -0.178600 -0.039800
C80 C 0.856200 0.550500 0.445500
C81 C 0.772100 0.474600 0.394200
C82 C 0.163800 0.337500 0.753900
C83 C 0.192700 0.150700 0.750400
C84 C 0.678400 0.321400 0.539800
C85 C 0.227900 -0.025400 0.105800
C86 C 0.143800 0.050500 0.054500
C87 C 0.534100 0.635300 0.645500
C88 C 0.092300 0.120800 0.159700
C89 C 0.592800 0.521100 0.592400
C90 C 0.163800 0.162500 0.253900
C91 C 0.645200 0.588500 0.505900
C92 C 0.239500 0.040100 0.228500
C93 C 0.584400 0.844900 0.520900
C94 C 0.220200 -0.145600 0.208100
C95 C 0.807300 0.650700 0.749600
C96 C 0.779800 1.145600 0.791900
C97 C 0.760500 0.959900 0.771500
C98 C 0.836200 0.837500 0.746100
C99 C 0.092300 0.379200 0.659700
C100 C 0.907700 0.879200 0.840300
C101 C 0.192700 0.349300 0.250400
C102 C 0.856200 0.949500 0.945500
C103 C 0.772100 1.025400 0.894200
C104 C 0.678400 1.178600 1.039800
C105 C 0.534100 0.864700 1.145500
C106 C 0.143800 0.449500 0.554500
C107 C 0.415600 0.155100 0.479100
C108 C 0.592800 0.978900 1.092400
C109 C 0.227900 0.525400 0.605800
C110 C 0.354800 0.411500 0.494100
C111 C 0.407200 0.478900 0.407600
C112 C 0.465900 0.364700 0.354500
C113 C 0.645200 0.911500 1.005900
C114 C 0.321600 0.678600 0.460200
C115 C 0.584400 0.655100 1.020900
C116 C 0.779800 0.354400 0.291900
N117 N 0.518200 0.407500 0.266800
N118 N 0.300700 0.541000 0.527700
N119 N 0.385500 0.648500 0.386500
N120 N 0.355300 0.248300 0.534700
N121 N 0.468900 0.202100 0.393700
N122 N 0.644700 0.748300 0.965300
N123 N 0.614500 1.148500 1.113500
N124 N 0.699300 1.041000 0.972300
N125 N 0.518200 0.092500 -0.233200
N126 N 0.300700 -0.041000 0.027700
N127 N 0.385500 -0.148500 -0.113500
N128 N 0.355300 0.251700 0.034700
N129 N 0.468900 0.297900 -0.106300
N130 N 0.481800 0.907500 1.233200
N131 N 0.531100 0.797900 0.606300
N132 N 0.644700 0.751700 0.465300
N133 N 0.614500 0.351500 0.613500
N134 N 0.699300 0.459000 0.472300
N135 N 0.481800 0.592500 0.733200
N136 N 0.531100 0.702100 1.106300
O137 O 0.903600 0.433000 0.519400
O138 O 0.096400 0.567000 0.480600
O139 O 0.211600 0.091700 0.636000
O140 O 0.968200 0.499400 0.299200
O141 O 0.940600 0.403700 0.930500
O142 O 0.788400 0.591700 0.864000
O143 O 0.968200 1.000600 0.799200
O144 O 0.940600 0.096300 0.430500
O145 O 0.903600 1.067000 1.019400
O146 O 0.788400 0.908300 0.364000
O147 O 0.059400 0.596300 0.069500
O148 O 0.096400 -0.067000 -0.019400
O149 O 0.031800 -0.000600 0.200800
O150 O 0.059400 0.903700 0.569500
O151 O 0.211600 0.408300 0.136000
O152 O 0.031800 0.500600 0.700800

#END
