./MARBUD_from_POSCAR.cif_generated_by_CrystalShift
_symmetry_cell_setting triclinic
_symmetry_space_group_name_H-M 'P 1'
loop_
_symmetry_equiv_pos_site_id
_symmetry_equiv_pos_as_xyz
1 x,y,z
_cell_length_a 6.654900
_cell_length_b 9.476800
_cell_length_c 10.021200
_cell_angle_alpha 113.714200
_cell_angle_beta 91.422100
_cell_angle_gamma 102.503100
_cell_volume 560.477586
loop_
_atom_site_label
_atom_site_type_symbol
_atom_site_fract_x
_atom_site_fract_y
_atom_site_fract_z
H1 H 0.782300 0.954300 0.991200
H2 H 0.264300 0.961000 0.492500
H3 H 0.036600 0.856700 0.401000
H4 H 0.145800 0.631600 0.308400
H5 H 0.080400 0.677700 0.570400
H6 H 0.177600 0.814500 0.176500
H7 H 0.587300 0.944900 1.085700
H8 H 0.824900 1.009600 1.168300
H9 H 0.405300 0.918900 0.268000
H10 H 0.760400 0.674400 0.732900
H11 H 0.645800 0.537500 0.901700
H12 H 0.217700 0.045700 0.008800
H13 H 0.412700 0.055100 -0.085700
H14 H 0.175100 -0.009600 -0.168300
H15 H 0.883200 0.754600 1.042100
H16 H 0.688300 0.745300 1.136700
H17 H 0.919600 0.322300 0.429600
H18 H 0.854200 0.368400 0.691600
H19 H 0.963400 0.143300 0.599000
H20 H 0.735700 0.039000 0.507500
H21 H 0.785300 -0.004700 0.721700
H22 H 0.822400 0.185500 0.823500
H23 H 0.594700 0.081100 0.732000
H24 H 0.239600 0.325600 0.267100
H25 H 0.354200 0.462500 0.098300
H26 H 0.311700 0.254700 -0.136700
H27 H 0.116800 0.245400 -0.042100
H28 H 0.214700 1.004700 0.278300
C29 C 0.263200 0.236000 -0.050170
C30 C 0.398800 0.364800 0.087950
C31 C 0.553700 0.708530 0.490290
C32 C 0.395600 0.687170 0.587370
C33 C 0.214800 0.691240 0.529000
C34 C 0.242600 0.718800 0.393430
C35 C 0.189700 0.869570 0.400120
C36 C 0.252200 0.905000 0.269520
C37 C 0.373100 0.338300 0.224470
C38 C 0.553900 0.334010 0.281280
C39 C 0.288100 0.642290 0.815240
C40 C 0.446100 0.665990 0.718720
C41 C 0.626900 0.661700 0.775530
C42 C 0.601200 0.635200 0.912050
C43 C 0.736800 0.764000 1.050170
C44 C 0.732500 0.932600 1.076100
C45 C 0.711900 0.357710 0.184760
C46 C 0.747800 0.095000 0.730480
C47 C 0.810300 0.130430 0.599880
C48 C 0.757400 0.281200 0.606570
C49 C 0.785200 0.308760 0.471000
C50 C 0.604400 0.312830 0.412630
C51 C 0.267500 0.067400 -0.076100
C52 C 0.446300 0.291470 0.509710
O53 O 0.105180 0.636770 0.803640
O54 O 0.462020 0.728790 0.379040
O55 O 0.735440 0.709230 0.500050
O56 O 0.617430 0.373430 0.071970
O57 O 0.894820 0.363230 0.196360
O58 O 0.537980 0.271210 0.620960
O59 O 0.264560 0.290770 0.499950
O60 O 0.382570 0.626570 0.928030

#END
