
#######################################################################
#
#                 Cambridge Crystallographic Data Centre
#                                CCDC 
#
#######################################################################
#
# If this CIF has been generated from an entry in the Cambridge 
# Structural Database, then it will include bibliographic, chemical, 
# crystal, experimental, refinement or atomic coordinate data resulting 
# from the CCDC's data processing and validation procedures.
#
#######################################################################

data_MARBUF
_symmetry_cell_setting           orthorhombic
_symmetry_space_group_name_H-M   'P 21 21 21'
_symmetry_Int_Tables_number      19
_space_group_name_Hall           'P 2ac 2ab'
loop_
_symmetry_equiv_pos_site_id
_symmetry_equiv_pos_as_xyz
1 x,y,z
2 1/2-x,-y,1/2+z
3 -x,1/2+y,1/2-z
4 1/2+x,1/2-y,-z
_cell_length_a                   6.6770(2)
_cell_length_b                   9.4799(2)
_cell_length_c                   23.9593(7)
_cell_angle_alpha                90
_cell_angle_beta                 90
_cell_angle_gamma                90
_cell_volume                     1516.56
loop_
_atom_site_label
_atom_site_type_symbol
_atom_site_fract_x
_atom_site_fract_y
_atom_site_fract_z
O1 O 0.82380(17) 0.44348(11) 0.65343(4)
O2 O 1.11193(17) 0.33014(12) 0.65631(5)
O3 O 0.19743(16) 0.68233(12) 0.63957(4)
O4 O -0.04456(17) 0.65572(13) 0.50425(5)
H1 H 0.0660 0.6421 0.4884
N1 N -0.1950(2) 0.93830(14) 0.55854(6)
C1 C 0.9988(2) 0.40771(17) 0.68080(7)
C2 C 1.0275(3) 0.46664(17) 0.73601(7)
H2 H 1.1426 0.4407 0.7569
C3 C 0.8951(2) 0.55694(17) 0.75822(7)
H3 H 0.9197 0.5960 0.7941
C4 C 0.7167(2) 0.59531(17) 0.72842(7)
C5 C 0.5688(2) 0.68809(17) 0.74848(6)
H4 H 0.5865 0.7326 0.7837
C6 C 0.3995(3) 0.71509(17) 0.71793(7)
H5 H 0.3010 0.7781 0.7320
C7 C 0.3714(2) 0.64971(17) 0.66580(6)
C8 C 0.5143(2) 0.55909(16) 0.64456(6)
H6 H 0.4964 0.5151 0.6093
C9 C 0.6851(2) 0.53396(16) 0.67627(6)
C10 C 0.1776(2) 0.63963(17) 0.58204(6)
H7 H 0.1678 0.5356 0.5794
H8 H 0.2957 0.6708 0.5603
C11 C -0.0112(2) 0.70767(17) 0.55926(6)
H9 H -0.1265 0.6786 0.5833
C12 C 0.0022(2) 0.86843(17) 0.55973(7)
H10 H 0.0750 0.8987 0.5937
H11 H 0.0809 0.8997 0.5270
C13 C -0.2825(3) 0.93914(18) 0.61504(7)
H12 H -0.1906 0.9886 0.6409
H13 H -0.2977 0.8408 0.6283
C14 C -0.4848(3) 1.01143(19) 0.61587(8)
H14 H -0.5395 1.0101 0.6543
H15 H -0.5790 0.9599 0.5913
C15 C -0.4652(3) 1.1639(2) 0.59586(8)
H16 H -0.5997 1.2072 0.5928
H17 H -0.3863 1.2190 0.6232
C16 C -0.3619(3) 1.16733(19) 0.53926(8)
H18 H -0.4519 1.1262 0.5108
H19 H -0.3348 1.2665 0.5287
C17 C -0.1664(3) 1.08568(18) 0.54014(7)
H20 H -0.1071 1.0861 0.5023
H21 H -0.0711 1.1332 0.5656
O1 O -0.32380(17) 0.55652(11) 0.15343(4)
O2 O -0.61193(17) 0.66986(12) 0.15631(5)
O3 O 0.30257(16) 0.31767(12) 0.13957(4)
O4 O 0.54456(17) 0.34428(13) 0.00425(5)
H1 H 0.4340 0.3579 -0.0116
N1 N 0.6950(2) 0.06170(14) 0.05854(6)
C1 C -0.4988(2) 0.59229(17) 0.18080(7)
C2 C -0.5275(3) 0.53336(17) 0.23601(7)
H2 H -0.6426 0.5593 0.2569
C3 C -0.3951(2) 0.44306(17) 0.25822(7)
H3 H -0.4197 0.4040 0.2941
C4 C -0.2167(2) 0.40469(17) 0.22842(7)
C5 C -0.0688(2) 0.31191(17) 0.24848(6)
H4 H -0.0865 0.2674 0.2837
C6 C 0.1005(3) 0.28491(17) 0.21793(7)
H5 H 0.1990 0.2219 0.2320
C7 C 0.1286(2) 0.35029(17) 0.16580(6)
C8 C -0.0143(2) 0.44091(16) 0.14456(6)
H6 H 0.0036 0.4849 0.1093
C9 C -0.1851(2) 0.46604(16) 0.17627(6)
C10 C 0.3224(2) 0.36037(17) 0.08204(6)
H7 H 0.3322 0.4644 0.0794
H8 H 0.2043 0.3292 0.0603
C11 C 0.5112(2) 0.29233(17) 0.05926(6)
H9 H 0.6265 0.3214 0.0833
C12 C 0.4978(2) 0.13157(17) 0.05973(7)
H10 H 0.4250 0.1013 0.0937
H11 H 0.4191 0.1003 0.0270
C13 C 0.7825(3) 0.06086(18) 0.11504(7)
H12 H 0.6906 0.0114 0.1409
H13 H 0.7977 0.1592 0.1283
C14 C 0.9848(3) -0.01143(19) 0.11587(8)
H14 H 1.0395 -0.0101 0.1543
H15 H 1.0790 0.0401 0.0913
C15 C 0.9652(3) -0.1639(2) 0.09586(8)
H16 H 1.0997 -0.2072 0.0928
H17 H 0.8863 -0.2190 0.1232
C16 C 0.8619(3) -0.16733(19) 0.03926(8)
H18 H 0.9519 -0.1262 0.0108
H19 H 0.8348 -0.2665 0.0287
C17 C 0.6664(3) -0.08568(18) 0.04014(7)
H20 H 0.6071 -0.0861 0.0023
H21 H 0.5711 -0.1332 0.0656
O1 O 0.17620(17) -0.05652(11) 0.84657(4)
O2 O -0.11193(17) -0.16986(12) 0.84369(5)
O3 O 0.80257(16) 0.18233(12) 0.86043(4)
O4 O 1.04456(17) 0.15572(13) 0.99575(5)
H1 H 0.9340 0.1421 1.0116
N1 N 1.1950(2) 0.43830(14) 0.94146(6)
C1 C 0.0012(2) -0.09229(17) 0.81920(7)
C2 C -0.0275(3) -0.03336(17) 0.76399(7)
H2 H -0.1426 -0.0593 0.7431
C3 C 0.1049(2) 0.05694(17) 0.74178(7)
H3 H 0.0803 0.0960 0.7059
C4 C 0.2833(2) 0.09531(17) 0.77158(7)
C5 C 0.4312(2) 0.18809(17) 0.75152(6)
H4 H 0.4135 0.2326 0.7163
C6 C 0.6005(3) 0.21509(17) 0.78207(7)
H5 H 0.6990 0.2781 0.7680
C7 C 0.6286(2) 0.14971(17) 0.83420(6)
C8 C 0.4857(2) 0.05909(16) 0.85544(6)
H6 H 0.5036 0.0151 0.8907
C9 C 0.3149(2) 0.03396(16) 0.82373(6)
C10 C 0.8224(2) 0.13963(17) 0.91796(6)
H7 H 0.8322 0.0356 0.9206
H8 H 0.7043 0.1708 0.9397
C11 C 1.0112(2) 0.20767(17) 0.94074(6)
H9 H 1.1265 0.1786 0.9167
C12 C 0.9978(2) 0.36843(17) 0.94027(7)
H10 H 0.9250 0.3987 0.9063
H11 H 0.9191 0.3997 0.9730
C13 C 1.2825(3) 0.43914(18) 0.88496(7)
H12 H 1.1906 0.4886 0.8591
H13 H 1.2977 0.3408 0.8717
C14 C 1.4848(3) 0.51143(19) 0.88413(8)
H14 H 1.5395 0.5101 0.8457
H15 H 1.5790 0.4599 0.9087
C15 C 1.4652(3) 0.6639(2) 0.90414(8)
H16 H 1.5997 0.7072 0.9072
H17 H 1.3863 0.7190 0.8768
C16 C 1.3619(3) 0.66733(19) 0.96074(8)
H18 H 1.4519 0.6262 0.9892
H19 H 1.3348 0.7665 0.9713
C17 C 1.1664(3) 0.58568(18) 0.95986(7)
H20 H 1.1071 0.5861 0.9977
H21 H 1.0711 0.6332 0.9344
O1 O 1.32380(17) 1.05652(11) 0.34657(4)
O2 O 1.61193(17) 1.16986(12) 0.34369(5)
O3 O 0.69743(16) 0.81767(12) 0.36043(4)
O4 O 0.45544(17) 0.84428(13) 0.49575(5)
H1 H 0.5660 0.8579 0.5116
N1 N 0.3050(2) 0.56170(14) 0.44146(6)
C1 C 1.4988(2) 1.09229(17) 0.31920(7)
C2 C 1.5275(3) 1.03336(17) 0.26399(7)
H2 H 1.6426 1.0593 0.2431
C3 C 1.3951(2) 0.94306(17) 0.24178(7)
H3 H 1.4197 0.9040 0.2059
C4 C 1.2167(2) 0.90469(17) 0.27158(7)
C5 C 1.0688(2) 0.81191(17) 0.25152(6)
H4 H 1.0865 0.7674 0.2163
C6 C 0.8995(3) 0.78491(17) 0.28207(7)
H5 H 0.8010 0.7219 0.2680
C7 C 0.8714(2) 0.85029(17) 0.33420(6)
C8 C 1.0143(2) 0.94091(16) 0.35544(6)
H6 H 0.9964 0.9849 0.3907
C9 C 1.1851(2) 0.96604(16) 0.32373(6)
C10 C 0.6776(2) 0.86037(17) 0.41796(6)
H7 H 0.6678 0.9644 0.4206
H8 H 0.7957 0.8292 0.4397
C11 C 0.4888(2) 0.79233(17) 0.44074(6)
H9 H 0.3735 0.8214 0.4167
C12 C 0.5022(2) 0.63157(17) 0.44027(7)
H10 H 0.5750 0.6013 0.4063
H11 H 0.5809 0.6003 0.4730
C13 C 0.2175(3) 0.56086(18) 0.38496(7)
H12 H 0.3094 0.5114 0.3591
H13 H 0.2023 0.6592 0.3717
C14 C 0.0152(3) 0.48857(19) 0.38413(8)
H14 H -0.0395 0.4899 0.3457
H15 H -0.0790 0.5401 0.4087
C15 C 0.0348(3) 0.3361(2) 0.40414(8)
H16 H -0.0997 0.2928 0.4072
H17 H 0.1137 0.2810 0.3768
C16 C 0.1381(3) 0.33267(19) 0.46074(8)
H18 H 0.0481 0.3738 0.4892
H19 H 0.1652 0.2335 0.4713
C17 C 0.3336(3) 0.41432(18) 0.45986(7)
H20 H 0.3929 0.4139 0.4977
H21 H 0.4289 0.3668 0.4344

#END
