./MARBOX_from_POSCAR.cif_generated_by_CrystalShift
_symmetry_cell_setting triclinic
_symmetry_space_group_name_H-M 'P 1'
loop_
_symmetry_equiv_pos_site_id
_symmetry_equiv_pos_as_xyz
1 x,y,z
_cell_length_a 10.450300
_cell_length_b 10.835800
_cell_length_c 12.635000
_cell_angle_alpha 90.000000
_cell_angle_beta 108.837900
_cell_angle_gamma 90.000000
_cell_volume 1354.116972
loop_
_atom_site_label
_atom_site_type_symbol
_atom_site_fract_x
_atom_site_fract_y
_atom_site_fract_z
H1 H 0.844800 1.163000 0.140200
H2 H 1.285400 0.861400 0.540500
H3 H 1.357100 0.986700 0.368500
H4 H 1.375700 1.113300 0.537700
H5 H 1.349600 1.047200 0.645100
H6 H -0.155200 1.163000 0.140200
H7 H -0.014200 1.102500 0.135200
H8 H -0.163900 1.175900 -0.046700
H9 H 0.985800 1.102500 0.135200
H10 H 0.836100 1.175900 -0.046700
H11 H 0.142900 0.513300 0.631500
H12 H 0.214600 0.638600 0.459500
H13 H 0.062500 0.598600 0.455500
H14 H 0.124300 0.386700 0.462300
H15 H 0.150400 0.452800 0.354900
H16 H 0.383100 0.467700 0.452900
H17 H 0.336100 0.324100 0.453300
H18 H 0.485800 0.397500 0.635200
H19 H 0.344800 0.337000 0.640200
H20 H -0.116900 1.032300 -0.047100
H21 H -0.349600 1.047200 -0.145100
H22 H -0.375700 1.113300 -0.037700
H23 H -0.437500 0.901400 -0.044500
H24 H -0.285400 0.861400 -0.040500
H25 H -0.357100 0.986700 0.131500
H26 H 1.116900 1.032300 0.547100
H27 H 1.163900 1.175900 0.546700
H28 H 0.883100 1.032300 -0.047100
H29 H 0.650400 1.047200 -0.145100
H30 H 0.857100 0.513300 0.868500
H31 H 0.785400 0.638600 1.040500
H32 H 0.937500 0.598600 1.044500
H33 H 0.875700 0.386700 1.037700
H34 H 0.849600 0.452800 1.145100
H35 H 0.616900 0.467700 1.047100
H36 H 0.663900 0.324100 1.046700
H37 H 0.514200 0.397500 0.864800
H38 H 0.655200 0.337000 0.859800
H39 H 0.155200 1.163000 0.359800
H40 H 0.014200 1.102500 0.364800
H41 H 0.163900 1.175900 0.546700
H42 H 0.116900 1.032300 0.547100
H43 H 0.349600 1.047200 0.645100
H44 H 0.375700 1.113300 0.537700
H45 H 0.437500 0.901400 0.544500
H46 H 0.285400 0.861400 0.540500
H47 H 0.624300 1.113300 -0.037700
H48 H 0.562500 0.901400 -0.044500
H49 H -0.357100 0.013300 0.631500
H50 H -0.285400 0.138600 0.459500
H51 H -0.437500 0.098600 0.455500
H52 H -0.375700 -0.113300 0.462300
H53 H -0.349600 -0.047200 0.354900
H54 H -0.116900 -0.032300 0.452900
H55 H -0.163900 -0.175900 0.453300
H56 H -0.014200 -0.102500 0.635200
H57 H -0.155200 -0.163000 0.640200
H58 H 0.357100 0.986700 0.368500
H59 H 1.014200 1.102500 0.364800
H60 H 1.155200 1.163000 0.359800
H61 H 0.344800 0.663000 0.140200
H62 H 0.485800 0.602500 0.135200
H63 H 0.336100 0.675900 -0.046700
H64 H 0.383100 0.532300 -0.047100
H65 H 0.150400 0.547200 -0.145100
H66 H 0.714600 0.861400 -0.040500
H67 H 0.642900 0.986700 0.131500
H68 H 0.357100 0.013300 0.868500
H69 H 0.285400 0.138600 1.040500
H70 H 0.437500 0.098600 1.044500
H71 H 0.375700 -0.113300 1.037700
H72 H 0.349600 -0.047200 1.145100
H73 H 0.116900 -0.032300 1.047100
H74 H 0.163900 -0.175900 1.046700
H75 H 0.014200 -0.102500 0.864800
H76 H 0.155200 -0.163000 0.859800
H77 H 0.124300 0.613300 -0.037700
H78 H 0.062500 0.401400 -0.044500
H79 H 0.214600 0.361400 -0.040500
H80 H 0.142900 0.486700 0.131500
H81 H 0.655200 0.663000 0.359800
H82 H 0.514200 0.602500 0.364800
H83 H 0.663900 0.675900 0.546700
H84 H 0.616900 0.532300 0.547100
H85 H 0.849600 0.547200 0.645100
H86 H 0.875700 0.613300 0.537700
H87 H 0.642900 0.013300 0.631500
H88 H 0.714600 0.138600 0.459500
H89 H 0.562500 0.098600 0.455500
H90 H 0.624300 -0.113300 0.462300
H91 H 0.650400 -0.047200 0.354900
H92 H 0.883100 -0.032300 0.452900
H93 H 0.836100 -0.175900 0.453300
H94 H 0.985800 -0.102500 0.635200
H95 H 0.844800 -0.163000 0.640200
H96 H 0.937500 0.401400 0.544500
H97 H 0.785400 0.361400 0.540500
H98 H 0.857100 0.486700 0.368500
H99 H 1.155200 -0.163000 0.859800
H100 H 1.014200 -0.102500 0.864800
H101 H 1.163900 -0.175900 1.046700
H102 H 1.437500 0.901400 0.544500
H103 H 1.116900 -0.032300 1.047100
H104 H 1.349600 -0.047200 1.145100
H105 H 1.375700 -0.113300 1.037700
H106 H 1.357100 0.013300 0.868500
H107 H 1.285400 0.138600 1.040500
H108 H 1.437500 0.098600 1.044500
C109 C 0.660310 0.924450 -0.015890
C110 C 0.680300 1.051200 -0.061610
C111 C 1.114640 -0.092650 0.889210
C112 C 1.319700 -0.051200 1.061610
C113 C 1.339690 0.075550 1.015890
C114 C 1.292740 0.069730 0.888510
C115 C 0.662330 0.283020 0.272740
C116 C 0.572880 0.386770 0.279280
C117 C 0.649350 0.474120 0.345230
C118 C 0.792740 0.430270 0.388510
C119 C 0.839690 0.424450 0.515890
C120 C 0.819700 0.551200 0.561610
C121 C 0.671600 0.591080 0.518290
C122 C 0.614640 0.592650 0.389210
C123 C 0.707260 0.930270 0.111490
C124 C 0.850650 0.974120 0.154770
C125 C 1.149350 0.025880 0.845230
C126 C 1.072880 0.113230 0.779280
C127 C 1.162330 0.216980 0.772740
C128 C 0.828400 1.091080 -0.018290
C129 C 0.885360 1.092650 0.110790
C130 C 0.885360 -0.092650 0.610790
C131 C 0.828400 -0.091080 0.481710
C132 C 0.680300 -0.051200 0.438390
C133 C 0.660310 0.075550 0.484110
C134 C 0.337670 0.283020 0.227260
C135 C 0.427120 0.386770 0.220720
C136 C 0.350650 0.474120 0.154770
C137 C 0.207260 0.430270 0.111490
C138 C 0.160310 0.424450 -0.015890
C139 C 0.180300 0.551200 -0.061610
C140 C 0.328400 0.591080 -0.018290
C141 C 0.385360 0.592650 0.110790
C142 C 0.927120 0.886770 0.220720
C143 C 0.837670 0.783020 0.227260
C144 C 0.707260 0.069730 0.611490
C145 C 0.850650 0.025880 0.654770
C146 C 0.927120 0.113230 0.720720
C147 C 0.837670 0.216980 0.727260
C148 C 0.114640 -0.092650 0.889210
C149 C 0.171600 -0.091080 1.018290
C150 C 0.319700 -0.051200 1.061610
C151 C 0.339690 0.075550 1.015890
C152 C 0.292740 0.069730 0.888510
C153 C 0.162330 0.783020 0.272740
C154 C 0.072880 0.886770 0.279280
C155 C 0.149350 0.974120 0.345230
C156 C 0.292740 0.930270 0.388510
C157 C 0.339690 0.924450 0.515890
C158 C 0.319700 1.051200 0.561610
C159 C 0.171600 1.091080 0.518290
C160 C 0.114640 1.092650 0.389210
C161 C 0.149350 0.025880 0.845230
C162 C 0.072880 0.113230 0.779280
C163 C 0.162330 0.216980 0.772740
C164 C -0.114640 -0.092650 0.610790
C165 C -0.171600 -0.091080 0.481710
C166 C -0.319700 -0.051200 0.438390
C167 C -0.339690 0.075550 0.484110
C168 C -0.292740 0.069730 0.611490
C169 C -0.149350 0.025880 0.654770
C170 C -0.072880 0.113230 0.720720
C171 C -0.162330 0.216980 0.727260
C172 C -0.162330 0.783020 0.227260
C173 C -0.072880 0.886770 0.220720
C174 C -0.149350 0.974120 0.154770
C175 C -0.292740 0.930270 0.111490
C176 C -0.339690 0.924450 -0.015890
C177 C -0.319700 1.051200 -0.061610
C178 C -0.171600 1.091080 -0.018290
C179 C -0.114640 1.092650 0.110790
C180 C 0.614640 0.407350 0.889210
C181 C 0.671600 0.408920 1.018290
C182 C 0.819700 0.448800 1.061610
C183 C 0.839690 0.575550 1.015890
C184 C 0.792740 0.569730 0.888510
C185 C 0.649350 0.525880 0.845230
C186 C 0.572880 0.613230 0.779280
C187 C 0.662330 0.716980 0.772740
C188 C 0.385360 0.407350 0.610790
C189 C 0.328400 0.408920 0.481710
C190 C 0.180300 0.448800 0.438390
C191 C 1.162330 0.783020 0.272740
C192 C 1.072880 0.886770 0.279280
C193 C 1.149350 0.974120 0.345230
C194 C 1.292740 0.930270 0.388510
C195 C 1.339690 0.924450 0.515890
C196 C 1.319700 1.051200 0.561610
C197 C 1.171600 1.091080 0.518290
C198 C 1.114640 1.092650 0.389210
C199 C 0.160310 0.575550 0.484110
C200 C 0.207260 0.569730 0.611490
C201 C 0.350650 0.525880 0.654770
C202 C 0.427120 0.613230 0.720720
C203 C 1.171600 -0.091080 1.018290
C204 C 0.337670 0.716980 0.727260
O205 O 1.136200 0.688680 0.219350
O206 O -0.291010 0.809330 0.160790
O207 O -0.136200 0.688680 0.280650
O208 O 0.291010 0.809330 0.339210
O209 O 0.136200 0.688680 0.219350
O210 O 0.208990 0.309330 0.160790
O211 O 0.363800 0.188680 0.280650
O212 O 0.791010 0.309330 0.339210
O213 O 0.636200 0.188680 0.219350
O214 O 1.291010 0.190670 0.839210
O215 O 1.136200 0.311320 0.719350
O216 O 0.708990 0.190670 0.660790
O217 O 0.863800 0.311320 0.780650
O218 O 0.863800 0.688680 0.280650
O219 O 0.708990 0.809330 0.160790
O220 O 0.291010 0.190670 0.839210
O221 O 0.136200 0.311320 0.719350
O222 O -0.291010 0.190670 0.660790
O223 O -0.136200 0.311320 0.780650
O224 O 0.791010 0.690670 0.839210
O225 O 0.636200 0.811320 0.719350
O226 O 0.208990 0.690670 0.660790
O227 O 0.363800 0.811320 0.780650
O228 O 1.291010 0.809330 0.339210

#END
