
#######################################################################
#
#                 Cambridge Crystallographic Data Centre
#                                CCDC 
#
#######################################################################
#
# If this CIF has been generated from an entry in the Cambridge 
# Structural Database, then it will include bibliographic, chemical, 
# crystal, experimental, refinement or atomic coordinate data resulting 
# from the CCDC's data processing and validation procedures.
#
#######################################################################

data_MARBUD
_symmetry_cell_setting           triclinic
_symmetry_space_group_name_H-M   'P -1'
_symmetry_Int_Tables_number      2
_space_group_name_Hall           '-P 1'
loop_
_symmetry_equiv_pos_site_id
_symmetry_equiv_pos_as_xyz
1 x,y,z
2 -x,-y,-z
_cell_length_a                   6.6549(2)
_cell_length_b                   9.4768(3)
_cell_length_c                   10.0212(3)
_cell_angle_alpha                113.7142(18)
_cell_angle_beta                 91.4221(16)
_cell_angle_gamma                102.5031(18)
_cell_volume                     560.478
loop_
_atom_site_label
_atom_site_type_symbol
_atom_site_fract_x
_atom_site_fract_y
_atom_site_fract_z
C1 C 0.4463(2) 0.29147(16) 0.50971(16)
C2 C 0.6044(2) 0.31283(16) 0.41263(16)
C3 C 0.7852(2) 0.30876(17) 0.47100(17)
C4 C 0.7574(2) 0.28120(17) 0.60657(16)
C5 C 0.8103(2) 0.13043(18) 0.59988(17)
C6 C 0.7478(3) 0.0950(2) 0.73048(19)
O1 O 0.26456(16) 0.29077(13) 0.49995(12)
O2 O 0.53798(15) 0.27121(12) 0.62096(11)
C7 C 0.7119(2) 0.35771(17) 0.18476(17)
C8 C 0.5539(2) 0.33401(16) 0.28128(16)
C9 C 0.3731(2) 0.33830(17) 0.22447(16)
C10 C 0.3988(2) 0.36480(19) 0.08795(17)
C11 C 0.2632(3) 0.2360(2) -0.05017(19)
C12 C 0.2675(3) 0.0674(2) -0.0761(2)
O3 O 0.89482(16) 0.36323(14) 0.19636(13)
O4 O 0.61743(16) 0.37343(13) 0.07197(12)
H1 H 0.9196 0.3223 0.4296
H2 H 0.8542 0.3684 0.6916
H3 H 0.9634 0.1433 0.5990
H4 H 0.7357 0.0390 0.5075
H5 H 0.7853 -0.0047 0.7217
H6 H 0.8224 0.1855 0.8235
H7 H 0.5947 0.0811 0.7320
H8 H 0.2396 0.3256 0.2671
H9 H 0.3542 0.4625 0.0983
H10 H 0.3117 0.2547 -0.1367
H11 H 0.1168 0.2454 -0.0421
H12 H 0.1751 -0.0096 -0.1683
H13 H 0.4127 0.0551 -0.0857
H14 H 0.2177 0.0457 0.0088
C1 C 0.5537(2) 0.70853(16) 0.49029(16)
C2 C 0.3956(2) 0.68717(16) 0.58737(16)
C3 C 0.2148(2) 0.69124(17) 0.52900(17)
C4 C 0.2426(2) 0.71880(17) 0.39343(16)
C5 C 0.1897(2) 0.86957(18) 0.40012(17)
C6 C 0.2522(3) 0.9050(2) 0.26952(19)
O1 O 0.73544(16) 0.70923(13) 0.50005(12)
O2 O 0.46202(15) 0.72879(12) 0.37904(11)
C7 C 0.2881(2) 0.64229(17) 0.81524(17)
C8 C 0.4461(2) 0.66599(16) 0.71872(16)
C9 C 0.6269(2) 0.66170(17) 0.77553(16)
C10 C 0.6012(2) 0.63520(19) 0.91205(17)
C11 C 0.7368(3) 0.7640(2) 1.05017(19)
C12 C 0.7325(3) 0.9326(2) 1.0761(2)
O3 O 0.10518(16) 0.63677(14) 0.80364(13)
O4 O 0.38257(16) 0.62657(13) 0.92803(12)
H1 H 0.0804 0.6777 0.5704
H2 H 0.1458 0.6316 0.3084
H3 H 0.0366 0.8567 0.4010
H4 H 0.2643 0.9610 0.4925
H5 H 0.2147 1.0047 0.2783
H6 H 0.1776 0.8145 0.1765
H7 H 0.4053 0.9189 0.2680
H8 H 0.7604 0.6744 0.7329
H9 H 0.6458 0.5375 0.9017
H10 H 0.6883 0.7453 1.1367
H11 H 0.8832 0.7546 1.0421
H12 H 0.8249 1.0096 1.1683
H13 H 0.5873 0.9449 1.0857
H14 H 0.7823 0.9543 0.9912

#END
