./MARBIR_from_POSCAR.cif_generated_by_CrystalShift
_symmetry_cell_setting triclinic
_symmetry_space_group_name_H-M 'P 1'
loop_
_symmetry_equiv_pos_site_id
_symmetry_equiv_pos_as_xyz
1 x,y,z
_cell_length_a 5.494200
_cell_length_b 6.454500
_cell_length_c 13.522500
_cell_angle_alpha 96.549700
_cell_angle_beta 91.079000
_cell_angle_gamma 114.750000
_cell_volume 431.468006
loop_
_atom_site_label
_atom_site_type_symbol
_atom_site_fract_x
_atom_site_fract_y
_atom_site_fract_z
H1 H 0.714400 0.329400 0.635400
H2 H 0.276000 0.954000 0.953800
H3 H 0.079900 0.975800 0.867300
H4 H -0.036800 0.764500 0.934400
H5 H 0.441600 0.160000 0.565900
H6 H 0.726900 0.276500 0.515100
H7 H 0.057300 0.634000 0.773000
H8 H 0.609800 0.939500 0.827000
H9 H 0.416500 0.998500 0.752700
H10 H 0.202300 0.441700 0.642500
H11 H 0.300800 0.436600 0.823900
H12 H 0.797700 0.558300 0.357500
H13 H 0.583500 0.001500 0.247300
H14 H 0.390200 0.060500 0.173000
H15 H 0.942700 0.366000 0.227000
H16 H 1.036800 0.235500 0.065600
H17 H 0.920100 0.024200 0.132700
H18 H 0.724000 0.046000 0.046200
H19 H 0.909400 0.559800 0.092900
H20 H 0.699200 0.563400 0.176100
H21 H 0.590900 0.385600 0.072400
H22 H 0.273100 0.723500 0.484900
H23 H 0.558400 0.840000 0.434100
H24 H 0.285600 0.670600 0.364600
H25 H 0.409100 0.614400 0.927600
H26 H 0.090600 0.440200 0.907100
C27 C 0.391000 0.550220 0.632920
C28 C 0.558500 0.506970 0.553860
C29 C 0.795100 0.859720 0.647920
C30 C 0.384800 0.699600 0.431160
C31 C 0.453300 0.872050 0.776010
C32 C 0.206800 0.718200 0.826040
C33 C 0.124400 0.865800 0.901880
C34 C 0.256100 0.536800 0.875420
C35 C 0.615200 0.300400 0.568840
C36 C 0.743900 0.463200 0.124580
C37 C 0.875600 0.134200 0.098120
C38 C 0.793200 0.281800 0.173960
C39 C 0.546700 0.127950 0.223990
C40 C 0.441500 0.493030 0.446140
C41 C 0.609000 0.449780 0.367080
C42 C 0.472300 0.247540 0.311570
C43 C 0.527700 0.752460 0.688430
C44 C 0.204900 0.140280 0.352080
O45 O 0.190170 0.286220 0.430830
O46 O 0.018940 -0.042870 0.324540
O47 O 0.981060 1.042870 0.675460
O48 O 0.809830 0.713780 0.569170

#END
