./MARGUK_from_POSCAR.cif_generated_by_CrystalShift
_symmetry_cell_setting triclinic
_symmetry_space_group_name_H-M 'P 1'
loop_
_symmetry_equiv_pos_site_id
_symmetry_equiv_pos_as_xyz
1 x,y,z
_cell_length_a 6.235200
_cell_length_b 17.664400
_cell_length_c 15.453600
_cell_angle_alpha 90.000000
_cell_angle_beta 97.454000
_cell_angle_gamma 90.000000
_cell_volume 1687.692317
loop_
_atom_site_label
_atom_site_type_symbol
_atom_site_fract_x
_atom_site_fract_y
_atom_site_fract_z
H1 H 0.667500 0.534500 0.505100
H2 H 0.916600 0.530500 0.346300
H3 H 0.413100 0.175700 0.397300
H4 H 0.799600 0.380400 0.146500
H5 H 0.754600 0.164800 0.353700
H6 H 1.439400 0.455200 0.075000
H7 H 1.027200 0.099300 0.444500
H8 H 1.527200 0.400700 -0.055500
H9 H 0.939400 0.044800 0.575000
H10 H 1.254600 0.335200 -0.146300
H11 H 0.913100 0.324300 -0.102700
H12 H 1.746600 0.671700 0.312600
H13 H 0.299600 0.119600 0.646500
H14 H 1.167500 0.965500 0.005100
H15 H 1.470300 0.892700 -0.015600
H16 H 0.416600 -0.030500 0.846300
H17 H 1.577800 0.791100 0.076400
H18 H -0.077800 0.291100 0.423600
H19 H 1.387700 0.759500 0.192600
H20 H 1.589400 0.750500 0.410700
H21 H 1.032200 -0.077300 0.736500
H22 H 0.272600 1.232500 0.072100
H23 H 1.246600 -0.171700 0.812600
H24 H -0.089400 1.250500 0.089300
H25 H 1.089400 -0.250500 0.910700
H26 H -0.246600 1.171700 0.187400
H27 H 0.727400 -0.232500 0.927900
H28 H -0.032200 1.077300 0.263500
H29 H 0.583400 1.030500 0.153700
H30 H 0.700400 0.880400 0.353500
H31 H 0.060600 0.955200 0.425000
H32 H -0.027200 0.900700 0.555500
H33 H -0.387700 0.240500 0.807400
H34 H 0.245400 0.835200 0.646300
H35 H -0.577800 0.208900 0.923600
H36 H 0.586900 0.824300 0.602700
H37 H -0.470300 0.107300 1.015600
H38 H 1.227400 0.732500 0.427900
H39 H -0.167500 0.034500 0.994900
H40 H 0.970300 0.607300 0.484400
H41 H 0.112300 0.259500 0.307400
H42 H 1.077800 0.708900 0.576400
H43 H 0.887700 0.740500 0.692600
H44 H 0.086900 0.675700 1.102700
H45 H 1.532200 0.577300 0.236500
H46 H -0.254600 0.664800 1.146300
H47 H 0.332500 0.465500 0.494900
H48 H -0.527200 0.599300 1.055500
H49 H 0.029700 0.392700 0.515600
H50 H -0.439400 0.544800 0.925000
H51 H -0.227400 0.267500 0.572100
H52 H -0.589400 0.249500 0.589300
H53 H -0.746600 0.328300 0.687400
H54 H 0.200400 0.619600 0.853500
H55 H -0.532200 0.422700 0.763500
H56 H 0.083400 0.469500 0.653700
C57 C 0.048520 0.491560 0.706150
C58 C -0.126410 0.464570 0.745560
C59 C 0.337600 0.344830 0.332250
C60 C -0.261730 0.401100 0.704940
C61 C -0.474440 0.391310 0.722240
C62 C 0.170730 0.551480 0.745360
C63 C -0.600060 0.334980 0.678290
C64 C 0.116840 0.580230 0.823840
C65 C -0.507620 0.288390 0.620560
C66 C -0.061860 0.550360 0.858190
C67 C -0.291870 0.300460 0.609910
C68 C -0.124880 0.581500 0.940910
C69 C -0.334070 0.572290 0.962420
C70 C 0.351830 0.582670 0.704170
C71 C -0.385650 0.604070 1.039590
C72 C 0.662400 0.655170 0.667750
C73 C -0.225530 0.642960 1.092830
C74 C -0.021860 0.649120 1.066020
C75 C 0.954810 0.680020 0.586320
C76 C 0.156790 0.300890 0.344780
C77 C 0.890230 0.619030 0.530910
C78 C -0.095860 0.093680 0.887430
C79 C 0.711210 0.575590 0.543010
C80 C 0.109770 0.380970 0.469090
C81 C 0.595860 0.593680 0.612570
C82 C 0.648170 0.417330 0.295830
C83 C -0.211210 0.075590 0.956990
C84 C 0.478140 0.850880 0.566020
C85 C -0.390230 0.119030 0.969090
C86 C 0.274470 0.857040 0.592830
C87 C -0.454810 0.180020 0.913680
C88 C 0.114350 0.895930 0.539590
C89 C -0.343210 0.199110 0.844780
C90 C 0.165930 0.927710 0.462420
C91 C -0.162400 0.155170 0.832250
C92 C 0.375120 0.918500 0.440910
C93 C 0.438140 0.949640 0.358190
C94 C 0.616840 0.919770 0.323840
C95 C 0.404140 0.406320 0.387430
C96 C 0.670730 0.948520 0.245360
C97 C 0.548520 1.008440 0.206150
C98 C 0.148170 0.082670 0.795830
C99 C 0.373590 1.035430 0.245560
C100 C 1.291870 0.699540 0.390090
C101 C 0.238270 1.098900 0.204940
C102 C 0.025560 1.108690 0.222240
C103 C 0.045190 0.319980 0.413680
C104 C -0.100060 1.165020 0.178290
C105 C 0.791870 -0.199540 0.890090
C106 C -0.007620 1.211610 0.120560
C107 C 1.007620 -0.211610 0.879440
C108 C 0.208130 1.199540 0.109910
C109 C 1.100060 -0.165020 0.821710
C110 C 0.974440 -0.108690 0.777760
C111 C 0.851830 0.917330 0.204170
C112 C 0.288790 0.424410 0.456990
C113 C 1.162400 0.844830 0.167750
C114 C 1.343210 0.800890 0.155220
C115 C 0.761730 -0.098900 0.795060
C116 C 1.454810 0.819980 0.086320
C117 C 0.626410 -0.035430 0.754440
C118 C 1.390230 0.880970 0.030910
C119 C 0.451480 -0.008440 0.793850
C120 C 1.211210 0.924410 0.043010
C121 C 0.329270 0.051480 0.754640
C122 C 1.095860 0.906320 0.112570
C123 C 1.507620 0.711610 0.379440
C124 C 0.383160 0.080230 0.676160
C125 C 1.021860 0.350880 -0.066020
C126 C 0.561860 0.050360 0.641810
C127 C 1.225530 0.357040 -0.092830
C128 C 0.624880 0.081500 0.559090
C129 C 1.385650 0.395930 -0.039590
C130 C 0.834070 0.072290 0.537580
C131 C 1.334070 0.427710 0.037580
C132 C 0.885650 0.104070 0.460410
C133 C 1.124880 0.418500 0.059090
C134 C 1.061860 0.449640 0.141810
C135 C 0.883160 0.419770 0.176160
C136 C 0.725530 0.142960 0.407170
C137 C 0.829270 0.448520 0.254640
C138 C 0.951480 0.508440 0.293850
C139 C 0.521860 0.149120 0.433980
C140 C 1.126410 0.535430 0.254440
C141 C 1.600060 0.665020 0.321710
C142 C 1.261730 0.598900 0.295060
C143 C 1.474440 0.608690 0.277760
C144 C 0.843210 0.699110 0.655220
N145 N 1.185090 0.505620 0.180800
N146 N 0.969830 0.380160 0.008430
N147 N 0.918350 0.946140 0.134660
N148 N 0.330060 1.144100 0.149910
N149 N 0.314910 1.005620 0.319200
N150 N 0.530170 0.880160 0.491570
N151 N 1.169940 0.644100 0.350090
N152 N 0.418350 0.553860 0.634660
N153 N -0.169940 0.355900 0.649910
N154 N -0.185090 0.494380 0.819200
N155 N 0.030170 0.619840 0.991570
N156 N 0.081650 0.053860 0.865340
N157 N 0.669940 -0.144100 0.850090
N158 N 0.685090 -0.005620 0.680800
N159 N 0.469830 0.119840 0.508430
N160 N 0.581650 0.446140 0.365340
S161 S 0.494500 0.662592 0.748432
S162 S 0.005500 0.162592 0.751568
S163 S 0.994500 0.837408 0.248432
S164 S 0.505500 0.337408 0.251568

#END
