./ACICAR01_from_xyz.cif_generated_by_CrystalShift
_symmetry_cell_setting triclinic
_symmetry_space_group_name_H-M 'P 1'
loop_
_symmetry_equiv_pos_site_id
_symmetry_equiv_pos_as_xyz
1 x,y,z
_cell_length_a 16.622000
_cell_length_b 6.171000
_cell_length_c 7.159000
_cell_angle_alpha 90.000000
_cell_angle_beta 95.732000
_cell_angle_gamma 90.000000
_cell_volume 730.658208
loop_
_atom_site_label
_atom_site_type_symbol
_atom_site_fract_x
_atom_site_fract_y
_atom_site_fract_z
N1 N 0.403270 0.212600 0.318200
N2 N 0.161090 0.089300 0.423000
C3 C 0.326430 0.177200 0.354800
H4 H 0.309100 0.031000 0.362200
C5 C 0.270310 0.339400 0.382500
C6 C 0.296040 0.553000 0.373200
H7 H 0.260200 0.669000 0.392200
C8 C 0.374900 0.594000 0.335600
H9 H 0.393800 0.738700 0.328200
C10 C 0.425720 0.420800 0.309200
H11 H 0.479500 0.451400 0.283100
C12 C 0.187340 0.284900 0.423200
H13 H 0.152000 0.399000 0.450700
C14 C 0.079630 0.050800 0.461700
C15 C 0.063820 -0.138100 0.560100
H16 H 0.107000 -0.233300 0.600600
C17 C 0.014650 0.188200 0.400400
H18 H 0.024300 0.315800 0.331800
N19 N -0.403270 -0.212600 0.681800
N20 N -0.161090 -0.089300 0.577000
C21 C -0.326430 -0.177200 0.645200
H22 H -0.309100 -0.031000 0.637800
C23 C -0.270310 -0.339400 0.617500
C24 C -0.296040 -0.553000 0.626800
H25 H -0.260200 -0.669000 0.607800
C26 C -0.374900 -0.594000 0.664400
H27 H -0.393800 -0.738700 0.671800
C28 C -0.425720 -0.420800 0.690800
H29 H -0.479500 -0.451400 0.716900
C30 C -0.187340 -0.284900 0.576800
H31 H -0.152000 -0.399000 0.549300
C32 C -0.079630 -0.050800 0.538300
C33 C -0.063820 0.138100 0.439900
H34 H -0.107000 0.233300 0.399400
C35 C -0.014650 -0.188200 0.599600
H36 H -0.024300 -0.315800 0.668200
N37 N 0.403270 1.212600 0.318200
N38 N 0.161090 1.089300 0.423000
C39 C 0.326430 1.177200 0.354800
H40 H 0.309100 1.031000 0.362200
C41 C 0.270310 1.339400 0.382500
C42 C 0.296040 1.553000 0.373200
H43 H 0.260200 1.669000 0.392200
C44 C 0.374900 1.594000 0.335600
H45 H 0.393800 1.738700 0.328200
C46 C 0.425720 1.420800 0.309200
H47 H 0.479500 1.451400 0.283100
C48 C 0.187340 1.284900 0.423200
H49 H 0.152000 1.399000 0.450700
C50 C 0.079630 1.050800 0.461700
C51 C 0.063820 0.861900 0.560100
H52 H 0.107000 0.766700 0.600600
C53 C 0.014650 1.188200 0.400400
H54 H 0.024300 1.315800 0.331800
N55 N -0.403270 0.787400 0.681800
N56 N -0.161090 0.910700 0.577000
C57 C -0.326430 0.822800 0.645200
H58 H -0.309100 0.969000 0.637800
C59 C -0.270310 0.660600 0.617500
C60 C -0.296040 0.447000 0.626800
H61 H -0.260200 0.331000 0.607800
C62 C -0.374900 0.406000 0.664400
H63 H -0.393800 0.261300 0.671800
C64 C -0.425720 0.579200 0.690800
H65 H -0.479500 0.548600 0.716900
C66 C -0.187340 0.715100 0.576800
H67 H -0.152000 0.601000 0.549300
C68 C -0.079630 0.949200 0.538300
C69 C -0.063820 1.138100 0.439900
H70 H -0.107000 1.233300 0.399400
C71 C -0.014650 0.811800 0.599600
H72 H -0.024300 0.684200 0.668200
N73 N 1.403270 0.212600 0.318200
N74 N 1.161090 0.089300 0.423000
C75 C 1.326430 0.177200 0.354800
H76 H 1.309100 0.031000 0.362200
C77 C 1.270310 0.339400 0.382500
C78 C 1.296040 0.553000 0.373200
H79 H 1.260200 0.669000 0.392200
C80 C 1.374900 0.594000 0.335600
H81 H 1.393800 0.738700 0.328200
C82 C 1.425720 0.420800 0.309200
H83 H 1.479500 0.451400 0.283100
C84 C 1.187340 0.284900 0.423200
H85 H 1.152000 0.399000 0.450700
C86 C 1.079630 0.050800 0.461700
C87 C 1.063820 -0.138100 0.560100
H88 H 1.107000 -0.233300 0.600600
C89 C 1.014650 0.188200 0.400400
H90 H 1.024300 0.315800 0.331800
N91 N 0.596730 -0.212600 0.681800
N92 N 0.838910 -0.089300 0.577000
C93 C 0.673570 -0.177200 0.645200
H94 H 0.690900 -0.031000 0.637800
C95 C 0.729690 -0.339400 0.617500
C96 C 0.703960 -0.553000 0.626800
H97 H 0.739800 -0.669000 0.607800
C98 C 0.625100 -0.594000 0.664400
H99 H 0.606200 -0.738700 0.671800
C100 C 0.574280 -0.420800 0.690800
H101 H 0.520500 -0.451400 0.716900
C102 C 0.812660 -0.284900 0.576800
H103 H 0.848000 -0.399000 0.549300
C104 C 0.920370 -0.050800 0.538300
C105 C 0.936180 0.138100 0.439900
H106 H 0.893000 0.233300 0.399400
C107 C 0.985350 -0.188200 0.599600
H108 H 0.975700 -0.315800 0.668200
N109 N 1.403270 1.212600 0.318200
N110 N 1.161090 1.089300 0.423000
C111 C 1.326430 1.177200 0.354800
H112 H 1.309100 1.031000 0.362200
C113 C 1.270310 1.339400 0.382500
C114 C 1.296040 1.553000 0.373200
H115 H 1.260200 1.669000 0.392200
C116 C 1.374900 1.594000 0.335600
H117 H 1.393800 1.738700 0.328200
C118 C 1.425720 1.420800 0.309200
H119 H 1.479500 1.451400 0.283100
C120 C 1.187340 1.284900 0.423200
H121 H 1.152000 1.399000 0.450700
C122 C 1.079630 1.050800 0.461700
C123 C 1.063820 0.861900 0.560100
H124 H 1.107000 0.766700 0.600600
C125 C 1.014650 1.188200 0.400400
H126 H 1.024300 1.315800 0.331800
N127 N 0.596730 0.787400 0.681800
N128 N 0.838910 0.910700 0.577000
C129 C 0.673570 0.822800 0.645200
H130 H 0.690900 0.969000 0.637800
C131 C 0.729690 0.660600 0.617500
C132 C 0.703960 0.447000 0.626800
H133 H 0.739800 0.331000 0.607800
C134 C 0.625100 0.406000 0.664400
H135 H 0.606200 0.261300 0.671800
C136 C 0.574280 0.579200 0.690800
H137 H 0.520500 0.548600 0.716900
C138 C 0.812660 0.715100 0.576800
H139 H 0.848000 0.601000 0.549300
C140 C 0.920370 0.949200 0.538300
C141 C 0.936180 1.138100 0.439900
H142 H 0.893000 1.233300 0.399400
C143 C 0.985350 0.811800 0.599600
H144 H 0.975700 0.684200 0.668200
N145 N -0.403270 0.712600 0.181800
N146 N -0.161090 0.589300 0.077000
C147 C -0.326430 0.677200 0.145200
H148 H -0.309100 0.531000 0.137800
C149 C -0.270310 0.839400 0.117500
C150 C -0.296040 1.053000 0.126800
H151 H -0.260200 1.169000 0.107800
C152 C -0.374900 1.094000 0.164400
H153 H -0.393800 1.238700 0.171800
C154 C -0.425720 0.920800 0.190800
H155 H -0.479500 0.951400 0.216900
C156 C -0.187340 0.784900 0.076800
H157 H -0.152000 0.899000 0.049300
C158 C -0.079630 0.550800 0.038300
C159 C -0.063820 0.361900 -0.060100
H160 H -0.107000 0.266700 -0.100600
C161 C -0.014650 0.688200 0.099600
H162 H -0.024300 0.815800 0.168200
N163 N 0.403270 0.287400 -0.181800
N164 N 0.161090 0.410700 -0.077000
C165 C 0.326430 0.322800 -0.145200
H166 H 0.309100 0.469000 -0.137800
C167 C 0.270310 0.160600 -0.117500
C168 C 0.296040 -0.053000 -0.126800
H169 H 0.260200 -0.169000 -0.107800
C170 C 0.374900 -0.094000 -0.164400
H171 H 0.393800 -0.238700 -0.171800
C172 C 0.425720 0.079200 -0.190800
H173 H 0.479500 0.048600 -0.216900
C174 C 0.187340 0.215100 -0.076800
H175 H 0.152000 0.101000 -0.049300
C176 C 0.079630 0.449200 -0.038300
C177 C 0.063820 0.638100 0.060100
H178 H 0.107000 0.733300 0.100600
C179 C 0.014650 0.311800 -0.099600
H180 H 0.024300 0.184200 -0.168200
N181 N -0.403270 0.712600 1.181800
N182 N -0.161090 0.589300 1.077000
C183 C -0.326430 0.677200 1.145200
H184 H -0.309100 0.531000 1.137800
C185 C -0.270310 0.839400 1.117500
C186 C -0.296040 1.053000 1.126800
H187 H -0.260200 1.169000 1.107800
C188 C -0.374900 1.094000 1.164400
H189 H -0.393800 1.238700 1.171800
C190 C -0.425720 0.920800 1.190800
H191 H -0.479500 0.951400 1.216900
C192 C -0.187340 0.784900 1.076800
H193 H -0.152000 0.899000 1.049300
C194 C -0.079630 0.550800 1.038300
C195 C -0.063820 0.361900 0.939900
H196 H -0.107000 0.266700 0.899400
C197 C -0.014650 0.688200 1.099600
H198 H -0.024300 0.815800 1.168200
N199 N 0.403270 0.287400 0.818200
N200 N 0.161090 0.410700 0.923000
C201 C 0.326430 0.322800 0.854800
H202 H 0.309100 0.469000 0.862200
C203 C 0.270310 0.160600 0.882500
C204 C 0.296040 -0.053000 0.873200
H205 H 0.260200 -0.169000 0.892200
C206 C 0.374900 -0.094000 0.835600
H207 H 0.393800 -0.238700 0.828200
C208 C 0.425720 0.079200 0.809200
H209 H 0.479500 0.048600 0.783100
C210 C 0.187340 0.215100 0.923200
H211 H 0.152000 0.101000 0.950700
C212 C 0.079630 0.449200 0.961700
C213 C 0.063820 0.638100 1.060100
H214 H 0.107000 0.733300 1.100600
C215 C 0.014650 0.311800 0.900400
H216 H 0.024300 0.184200 0.831800
N217 N 0.596730 0.712600 0.181800
N218 N 0.838910 0.589300 0.077000
C219 C 0.673570 0.677200 0.145200
H220 H 0.690900 0.531000 0.137800
C221 C 0.729690 0.839400 0.117500
C222 C 0.703960 1.053000 0.126800
H223 H 0.739800 1.169000 0.107800
C224 C 0.625100 1.094000 0.164400
H225 H 0.606200 1.238700 0.171800
C226 C 0.574280 0.920800 0.190800
H227 H 0.520500 0.951400 0.216900
C228 C 0.812660 0.784900 0.076800
H229 H 0.848000 0.899000 0.049300
C230 C 0.920370 0.550800 0.038300
C231 C 0.936180 0.361900 -0.060100
H232 H 0.893000 0.266700 -0.100600
C233 C 0.985350 0.688200 0.099600
H234 H 0.975700 0.815800 0.168200
N235 N 1.403270 0.287400 -0.181800
N236 N 1.161090 0.410700 -0.077000
C237 C 1.326430 0.322800 -0.145200
H238 H 1.309100 0.469000 -0.137800
C239 C 1.270310 0.160600 -0.117500
C240 C 1.296040 -0.053000 -0.126800
H241 H 1.260200 -0.169000 -0.107800
C242 C 1.374900 -0.094000 -0.164400
H243 H 1.393800 -0.238700 -0.171800
C244 C 1.425720 0.079200 -0.190800
H245 H 1.479500 0.048600 -0.216900
C246 C 1.187340 0.215100 -0.076800
H247 H 1.152000 0.101000 -0.049300
C248 C 1.079630 0.449200 -0.038300
C249 C 1.063820 0.638100 0.060100
H250 H 1.107000 0.733300 0.100600
C251 C 1.014650 0.311800 -0.099600
H252 H 1.024300 0.184200 -0.168200
N253 N 0.596730 0.712600 1.181800
N254 N 0.838910 0.589300 1.077000
C255 C 0.673570 0.677200 1.145200
H256 H 0.690900 0.531000 1.137800
C257 C 0.729690 0.839400 1.117500
C258 C 0.703960 1.053000 1.126800
H259 H 0.739800 1.169000 1.107800
C260 C 0.625100 1.094000 1.164400
H261 H 0.606200 1.238700 1.171800
C262 C 0.574280 0.920800 1.190800
H263 H 0.520500 0.951400 1.216900
C264 C 0.812660 0.784900 1.076800
H265 H 0.848000 0.899000 1.049300
C266 C 0.920370 0.550800 1.038300
C267 C 0.936180 0.361900 0.939900
H268 H 0.893000 0.266700 0.899400
C269 C 0.985350 0.688200 1.099600
H270 H 0.975700 0.815800 1.168200
N271 N 1.403270 0.287400 0.818200
N272 N 1.161090 0.410700 0.923000
C273 C 1.326430 0.322800 0.854800
H274 H 1.309100 0.469000 0.862200
C275 C 1.270310 0.160600 0.882500
C276 C 1.296040 -0.053000 0.873200
H277 H 1.260200 -0.169000 0.892200
C278 C 1.374900 -0.094000 0.835600
H279 H 1.393800 -0.238700 0.828200
C280 C 1.425720 0.079200 0.809200
H281 H 1.479500 0.048600 0.783100
C282 C 1.187340 0.215100 0.923200
H283 H 1.152000 0.101000 0.950700
C284 C 1.079630 0.449200 0.961700
C285 C 1.063820 0.638100 1.060100
H286 H 1.107000 0.733300 1.100600
C287 C 1.014650 0.311800 0.900400
H288 H 1.024300 0.184200 0.831800

#END
