
#######################################################################
#
#                 Cambridge Crystallographic Data Centre
#                                CCDC 
#
#######################################################################
#
# If this CIF has been generated from an entry in the Cambridge 
# Structural Database, then it will include bibliographic, chemical, 
# crystal, experimental, refinement or atomic coordinate data resulting 
# from the CCDC's data processing and validation procedures.
#
#######################################################################

data_ACIDUL
_symmetry_cell_setting           monoclinic
_symmetry_space_group_name_H-M   'P 21'
_symmetry_Int_Tables_number      4
_space_group_name_Hall           'P 2yb'
loop_
_symmetry_equiv_pos_site_id
_symmetry_equiv_pos_as_xyz
1 x,y,z
2 -x,1/2+y,-z
_cell_length_a                   6.0520(7)
_cell_length_b                   10.2748(7)
_cell_length_c                   7.1621(9)
_cell_angle_alpha                90
_cell_angle_beta                 91.335(4)
_cell_angle_gamma                90
_cell_volume                     445.241
loop_
_atom_site_label
_atom_site_type_symbol
_atom_site_fract_x
_atom_site_fract_y
_atom_site_fract_z
O1 O 0.3206(5) 0.6557(3) 0.9979(4)
C1 C 0.2451(6) 0.7491(4) 0.6890(5)
C2 C 0.2344(6) 0.7388(3) 0.8999(5)
C3 C 0.0983(6) 0.8536(4) 0.9685(5)
C4 C 0.0405(6) 0.9233(4) 0.7811(5)
H1 H -0.0912 0.9818 0.7855
C5 C 0.2476(6) 0.9870(4) 0.7011(5)
H2 H 0.3206 1.0451 0.7939
H3 H 0.2107 1.0375 0.5868
C6 C 0.3949(6) 0.8690(4) 0.6567(5)
H4 H 0.5269 0.8666 0.7409
H5 H 0.4436 0.8722 0.5257
C7 C 0.0140(6) 0.8069(4) 0.6455(5)
H6 H -0.1073 0.7476 0.6800
H7 H -0.0048 0.8345 0.5136
C8 C 0.3129(8) 0.6255(4) 0.5892(6)
H8 H 0.3125 0.6410 0.4542
H9 H 0.2084 0.5557 0.6171
H10 H 0.4617 0.6000 0.6320
C9 C -0.1120(7) 0.8032(4) 1.0608(5)
H11 H -0.1984 0.7514 0.9703
H12 H -0.2007 0.8771 1.1022
H13 H -0.0710 0.7489 1.1686
C10 C 0.2299(7) 0.9334(4) 1.1118(5)
H14 H 0.3686 0.9623 1.0572
H15 H 0.2626 0.8798 1.2222
H16 H 0.1433 1.0095 1.1481
O1 O 0.6794(5) 0.1557(3) 0.0021(4)
C1 C 0.7549(6) 0.2491(4) 0.3110(5)
C2 C 0.7656(6) 0.2388(3) 0.1001(5)
C3 C 0.9017(6) 0.3536(4) 0.0315(5)
C4 C 0.9595(6) 0.4233(4) 0.2189(5)
H1 H 1.0912 0.4818 0.2145
C5 C 0.7524(6) 0.4870(4) 0.2989(5)
H2 H 0.6794 0.5451 0.2061
H3 H 0.7893 0.5375 0.4132
C6 C 0.6051(6) 0.3690(4) 0.3433(5)
H4 H 0.4731 0.3666 0.2591
H5 H 0.5564 0.3722 0.4743
C7 C 0.9860(6) 0.3069(4) 0.3545(5)
H6 H 1.1073 0.2476 0.3200
H7 H 1.0048 0.3345 0.4864
C8 C 0.6871(8) 0.1255(4) 0.4108(6)
H8 H 0.6875 0.1410 0.5458
H9 H 0.7916 0.0557 0.3829
H10 H 0.5383 0.1000 0.3680
C9 C 1.1120(7) 0.3032(4) -0.0608(5)
H11 H 1.1984 0.2514 0.0297
H12 H 1.2007 0.3771 -0.1022
H13 H 1.0710 0.2489 -0.1686
C10 C 0.7701(7) 0.4334(4) -0.1118(5)
H14 H 0.6314 0.4623 -0.0572
H15 H 0.7374 0.3798 -0.2222
H16 H 0.8567 0.5095 -0.1481

#END
