./ACIFUP_from_xyz.cif_generated_by_CrystalShift
_symmetry_cell_setting triclinic
_symmetry_space_group_name_H-M 'P 1'
loop_
_symmetry_equiv_pos_site_id
_symmetry_equiv_pos_as_xyz
1 x,y,z
_cell_length_a 25.832500
_cell_length_b 8.589400
_cell_length_c 22.711200
_cell_angle_alpha 90.000000
_cell_angle_beta 123.229000
_cell_angle_gamma 90.000000
_cell_volume 4215.300856
loop_
_atom_site_label
_atom_site_type_symbol
_atom_site_fract_x
_atom_site_fract_y
_atom_site_fract_z
Ni1 Ni 0.250000 0.750000 0.000000
S2 S 0.181540 0.847070 0.014510
S3 S 0.292920 0.629620 0.098930
S4 S 0.156850 0.850530 0.128050
S5 S 0.276160 0.599370 0.215990
C6 C 0.202100 0.783860 0.096950
C7 C 0.250950 0.685130 0.133920
C8 C 0.095640 0.701400 0.094300
H9 H 0.085400 0.684600 0.129000
H10 H 0.058900 0.741200 0.052100
C11 C 0.205100 0.511300 0.201810
H12 H 0.216100 0.423600 0.233500
H13 H 0.183800 0.587200 0.212800
C14 C 0.112120 0.547300 0.077360
C15 C 0.162410 0.457000 0.127220
C16 C 0.173590 0.316000 0.106160
H17 H 0.206900 0.255400 0.139100
C18 C 0.137010 0.264000 0.038350
H19 H 0.145600 0.169300 0.025500
C20 C 0.087160 0.352800 -0.011160
H21 H 0.061800 0.317800 -0.057300
C22 C 0.075350 0.493700 0.008390
H23 H 0.042200 0.553900 -0.025100
S24 S 0.318460 0.652930 -0.014510
S25 S 0.207080 0.870380 -0.098930
S26 S 0.343150 0.649470 -0.128050
S27 S 0.223840 0.900630 -0.215990
C28 C 0.297900 0.716140 -0.096950
C29 C 0.249050 0.814870 -0.133920
C30 C 0.404360 0.798600 -0.094300
H31 H 0.414600 0.815400 -0.129000
H32 H 0.441100 0.758800 -0.052100
C33 C 0.294900 0.988700 -0.201810
H34 H 0.283900 1.076400 -0.233500
H35 H 0.316200 0.912800 -0.212800
C36 C 0.387880 0.952700 -0.077360
C37 C 0.337590 1.043000 -0.127220
C38 C 0.326410 1.184000 -0.106160
H39 H 0.293100 1.244600 -0.139100
C40 C 0.362990 1.236000 -0.038350
H41 H 0.354400 1.330700 -0.025500
C42 C 0.412840 1.147200 0.011160
H43 H 0.438200 1.182200 0.057300
C44 C 0.424650 1.006300 -0.008390
H45 H 0.457800 0.946100 0.025100
Ni46 Ni 0.250000 0.750000 1.000000
S47 S 0.181540 0.847070 1.014510
S48 S 0.292920 0.629620 1.098930
S49 S 0.156850 0.850530 1.128050
S50 S 0.276160 0.599370 1.215990
C51 C 0.202100 0.783860 1.096950
C52 C 0.250950 0.685130 1.133920
C53 C 0.095640 0.701400 1.094300
H54 H 0.085400 0.684600 1.129000
H55 H 0.058900 0.741200 1.052100
C56 C 0.205100 0.511300 1.201810
H57 H 0.216100 0.423600 1.233500
H58 H 0.183800 0.587200 1.212800
C59 C 0.112120 0.547300 1.077360
C60 C 0.162410 0.457000 1.127220
C61 C 0.173590 0.316000 1.106160
H62 H 0.206900 0.255400 1.139100
C63 C 0.137010 0.264000 1.038350
H64 H 0.145600 0.169300 1.025500
C65 C 0.087160 0.352800 0.988840
H66 H 0.061800 0.317800 0.942700
C67 C 0.075350 0.493700 1.008390
H68 H 0.042200 0.553900 0.974900
S69 S 0.318460 0.652930 0.985490
S70 S 0.207080 0.870380 0.901070
S71 S 0.343150 0.649470 0.871950
S72 S 0.223840 0.900630 0.784010
C73 C 0.297900 0.716140 0.903050
C74 C 0.249050 0.814870 0.866080
C75 C 0.404360 0.798600 0.905700
H76 H 0.414600 0.815400 0.871000
H77 H 0.441100 0.758800 0.947900
C78 C 0.294900 0.988700 0.798190
H79 H 0.283900 1.076400 0.766500
H80 H 0.316200 0.912800 0.787200
C81 C 0.387880 0.952700 0.922640
C82 C 0.337590 1.043000 0.872780
C83 C 0.326410 1.184000 0.893840
H84 H 0.293100 1.244600 0.860900
C85 C 0.362990 1.236000 0.961650
H86 H 0.354400 1.330700 0.974500
C87 C 0.412840 1.147200 1.011160
H88 H 0.438200 1.182200 1.057300
C89 C 0.424650 1.006300 0.991610
H90 H 0.457800 0.946100 1.025100
Ni91 Ni 0.750000 0.750000 0.500000
S92 S 0.818460 0.847070 0.485490
S93 S 0.707080 0.629620 0.401070
S94 S 0.843150 0.850530 0.371950
S95 S 0.723840 0.599370 0.284010
C96 C 0.797900 0.783860 0.403050
C97 C 0.749050 0.685130 0.366080
C98 C 0.904360 0.701400 0.405700
H99 H 0.914600 0.684600 0.371000
H100 H 0.941100 0.741200 0.447900
C101 C 0.794900 0.511300 0.298190
H102 H 0.783900 0.423600 0.266500
H103 H 0.816200 0.587200 0.287200
C104 C 0.887880 0.547300 0.422640
C105 C 0.837590 0.457000 0.372780
C106 C 0.826410 0.316000 0.393840
H107 H 0.793100 0.255400 0.360900
C108 C 0.862990 0.264000 0.461650
H109 H 0.854400 0.169300 0.474500
C110 C 0.912840 0.352800 0.511160
H111 H 0.938200 0.317800 0.557300
C112 C 0.924650 0.493700 0.491610
H113 H 0.957800 0.553900 0.525100
S114 S 0.681540 0.652930 0.514510
S115 S 0.792920 0.870380 0.598930
S116 S 0.656850 0.649470 0.628050
S117 S 0.776160 0.900630 0.715990
C118 C 0.702100 0.716140 0.596950
C119 C 0.750950 0.814870 0.633920
C120 C 0.595640 0.798600 0.594300
H121 H 0.585400 0.815400 0.629000
H122 H 0.558900 0.758800 0.552100
C123 C 0.705100 0.988700 0.701810
H124 H 0.716100 1.076400 0.733500
H125 H 0.683800 0.912800 0.712800
C126 C 0.612120 0.952700 0.577360
C127 C 0.662410 1.043000 0.627220
C128 C 0.673590 1.184000 0.606160
H129 H 0.706900 1.244600 0.639100
C130 C 0.637010 1.236000 0.538350
H131 H 0.645600 1.330700 0.525500
C132 C 0.587160 1.147200 0.488840
H133 H 0.561800 1.182200 0.442700
C134 C 0.575350 1.006300 0.508390
H135 H 0.542200 0.946100 0.474900
Ni136 Ni 0.750000 0.250000 0.000000
S137 S 0.681540 0.347070 0.014510
S138 S 0.792920 0.129620 0.098930
S139 S 0.656850 0.350530 0.128050
S140 S 0.776160 0.099370 0.215990
C141 C 0.702100 0.283860 0.096950
C142 C 0.750950 0.185130 0.133920
C143 C 0.595640 0.201400 0.094300
H144 H 0.585400 0.184600 0.129000
H145 H 0.558900 0.241200 0.052100
C146 C 0.705100 0.011300 0.201810
H147 H 0.716100 -0.076400 0.233500
H148 H 0.683800 0.087200 0.212800
C149 C 0.612120 0.047300 0.077360
C150 C 0.662410 -0.043000 0.127220
C151 C 0.673590 -0.184000 0.106160
H152 H 0.706900 -0.244600 0.139100
C153 C 0.637010 -0.236000 0.038350
H154 H 0.645600 -0.330700 0.025500
C155 C 0.587160 -0.147200 -0.011160
H156 H 0.561800 -0.182200 -0.057300
C157 C 0.575350 -0.006300 0.008390
H158 H 0.542200 0.053900 -0.025100
S159 S 0.818460 0.152930 -0.014510
S160 S 0.707080 0.370380 -0.098930
S161 S 0.843150 0.149470 -0.128050
S162 S 0.723840 0.400630 -0.215990
C163 C 0.797900 0.216140 -0.096950
C164 C 0.749050 0.314870 -0.133920
C165 C 0.904360 0.298600 -0.094300
H166 H 0.914600 0.315400 -0.129000
H167 H 0.941100 0.258800 -0.052100
C168 C 0.794900 0.488700 -0.201810
H169 H 0.783900 0.576400 -0.233500
H170 H 0.816200 0.412800 -0.212800
C171 C 0.887880 0.452700 -0.077360
C172 C 0.837590 0.543000 -0.127220
C173 C 0.826410 0.684000 -0.106160
H174 H 0.793100 0.744600 -0.139100
C175 C 0.862990 0.736000 -0.038350
H176 H 0.854400 0.830700 -0.025500
C177 C 0.912840 0.647200 0.011160
H178 H 0.938200 0.682200 0.057300
C179 C 0.924650 0.506300 -0.008390
H180 H 0.957800 0.446100 0.025100
Ni181 Ni 0.750000 0.250000 1.000000
S182 S 0.681540 0.347070 1.014510
S183 S 0.792920 0.129620 1.098930
S184 S 0.656850 0.350530 1.128050
S185 S 0.776160 0.099370 1.215990
C186 C 0.702100 0.283860 1.096950
C187 C 0.750950 0.185130 1.133920
C188 C 0.595640 0.201400 1.094300
H189 H 0.585400 0.184600 1.129000
H190 H 0.558900 0.241200 1.052100
C191 C 0.705100 0.011300 1.201810
H192 H 0.716100 -0.076400 1.233500
H193 H 0.683800 0.087200 1.212800
C194 C 0.612120 0.047300 1.077360
C195 C 0.662410 -0.043000 1.127220
C196 C 0.673590 -0.184000 1.106160
H197 H 0.706900 -0.244600 1.139100
C198 C 0.637010 -0.236000 1.038350
H199 H 0.645600 -0.330700 1.025500
C200 C 0.587160 -0.147200 0.988840
H201 H 0.561800 -0.182200 0.942700
C202 C 0.575350 -0.006300 1.008390
H203 H 0.542200 0.053900 0.974900
S204 S 0.818460 0.152930 0.985490
S205 S 0.707080 0.370380 0.901070
S206 S 0.843150 0.149470 0.871950
S207 S 0.723840 0.400630 0.784010
C208 C 0.797900 0.216140 0.903050
C209 C 0.749050 0.314870 0.866080
C210 C 0.904360 0.298600 0.905700
H211 H 0.914600 0.315400 0.871000
H212 H 0.941100 0.258800 0.947900
C213 C 0.794900 0.488700 0.798190
H214 H 0.783900 0.576400 0.766500
H215 H 0.816200 0.412800 0.787200
C216 C 0.887880 0.452700 0.922640
C217 C 0.837590 0.543000 0.872780
C218 C 0.826410 0.684000 0.893840
H219 H 0.793100 0.744600 0.860900
C220 C 0.862990 0.736000 0.961650
H221 H 0.854400 0.830700 0.974500
C222 C 0.912840 0.647200 1.011160
H223 H 0.938200 0.682200 1.057300
C224 C 0.924650 0.506300 0.991610
H225 H 0.957800 0.446100 1.025100
Ni226 Ni 0.250000 0.250000 0.500000
S227 S 0.318460 0.347070 0.485490
S228 S 0.207080 0.129620 0.401070
S229 S 0.343150 0.350530 0.371950
S230 S 0.223840 0.099370 0.284010
C231 C 0.297900 0.283860 0.403050
C232 C 0.249050 0.185130 0.366080
C233 C 0.404360 0.201400 0.405700
H234 H 0.414600 0.184600 0.371000
H235 H 0.441100 0.241200 0.447900
C236 C 0.294900 0.011300 0.298190
H237 H 0.283900 -0.076400 0.266500
H238 H 0.316200 0.087200 0.287200
C239 C 0.387880 0.047300 0.422640
C240 C 0.337590 -0.043000 0.372780
C241 C 0.326410 -0.184000 0.393840
H242 H 0.293100 -0.244600 0.360900
C243 C 0.362990 -0.236000 0.461650
H244 H 0.354400 -0.330700 0.474500
C245 C 0.412840 -0.147200 0.511160
H246 H 0.438200 -0.182200 0.557300
C247 C 0.424650 -0.006300 0.491610
H248 H 0.457800 0.053900 0.525100
S249 S 0.181540 0.152930 0.514510
S250 S 0.292920 0.370380 0.598930
S251 S 0.156850 0.149470 0.628050
S252 S 0.276160 0.400630 0.715990
C253 C 0.202100 0.216140 0.596950
C254 C 0.250950 0.314870 0.633920
C255 C 0.095640 0.298600 0.594300
H256 H 0.085400 0.315400 0.629000
H257 H 0.058900 0.258800 0.552100
C258 C 0.205100 0.488700 0.701810
H259 H 0.216100 0.576400 0.733500
H260 H 0.183800 0.412800 0.712800
C261 C 0.112120 0.452700 0.577360
C262 C 0.162410 0.543000 0.627220
C263 C 0.173590 0.684000 0.606160
H264 H 0.206900 0.744600 0.639100
C265 C 0.137010 0.736000 0.538350
H266 H 0.145600 0.830700 0.525500
C267 C 0.087160 0.647200 0.488840
H268 H 0.061800 0.682200 0.442700
C269 C 0.075350 0.506300 0.508390
H270 H 0.042200 0.446100 0.474900
P271 P -0.000000 0.399240 0.250000
C272 C 0.005180 0.272000 0.190640
C273 C 0.050470 0.290200 0.176170
H274 H 0.078200 0.372800 0.195600
C275 C 0.053910 0.184200 0.132490
H276 H 0.084300 0.195600 0.122700
C277 C 0.013160 0.063300 0.103630
H278 H 0.015500 -0.006100 0.073800
C279 C -0.031730 0.043200 0.118550
H280 H -0.059100 -0.040100 0.099100
C281 C -0.035670 0.146900 0.162170
H282 H -0.065500 0.133400 0.172600
C283 C 0.066680 0.523440 0.295080
C284 C 0.068680 0.654300 0.259570
H285 H 0.035800 0.675800 0.213900
C286 C 0.119580 0.751100 0.292510
H287 H 0.121200 0.837500 0.268900
C288 C 0.167770 0.720300 0.359850
H289 H 0.202100 0.785700 0.381600
C290 C 0.166000 0.592800 0.395960
H291 H 0.198700 0.573700 0.442000
C292 C 0.115230 0.493200 0.363340
H293 H 0.114000 0.407000 0.387300
C294 C -0.005180 0.272000 0.309360
C295 C -0.050470 0.290200 0.323830
H296 H -0.078200 0.372800 0.304400
C297 C -0.053910 0.184200 0.367510
H298 H -0.084300 0.195600 0.377300
C299 C -0.013160 0.063300 0.396370
H300 H -0.015500 -0.006100 0.426200
C301 C 0.031730 0.043200 0.381450
H302 H 0.059100 -0.040100 0.400900
C303 C 0.035670 0.146900 0.337830
H304 H 0.065500 0.133400 0.327400
C305 C -0.066680 0.523440 0.204920
C306 C -0.068680 0.654300 0.240430
H307 H -0.035800 0.675800 0.286100
C308 C -0.119580 0.751100 0.207490
H309 H -0.121200 0.837500 0.231100
C310 C -0.167770 0.720300 0.140150
H311 H -0.202100 0.785700 0.118400
C312 C -0.166000 0.592800 0.104040
H313 H -0.198700 0.573700 0.058000
C314 C -0.115230 0.493200 0.136660
H315 H -0.114000 0.407000 0.112700
P316 P 1.000000 0.399240 0.250000
C317 C 1.005180 0.272000 0.190640
C318 C 1.050470 0.290200 0.176170
H319 H 1.078200 0.372800 0.195600
C320 C 1.053910 0.184200 0.132490
H321 H 1.084300 0.195600 0.122700
C322 C 1.013160 0.063300 0.103630
H323 H 1.015500 -0.006100 0.073800
C324 C 0.968270 0.043200 0.118550
H325 H 0.940900 -0.040100 0.099100
C326 C 0.964330 0.146900 0.162170
H327 H 0.934500 0.133400 0.172600
C328 C 1.066680 0.523440 0.295080
C329 C 1.068680 0.654300 0.259570
H330 H 1.035800 0.675800 0.213900
C331 C 1.119580 0.751100 0.292510
H332 H 1.121200 0.837500 0.268900
C333 C 1.167770 0.720300 0.359850
H334 H 1.202100 0.785700 0.381600
C335 C 1.166000 0.592800 0.395960
H336 H 1.198700 0.573700 0.442000
C337 C 1.115230 0.493200 0.363340
H338 H 1.114000 0.407000 0.387300
C339 C 0.994820 0.272000 0.309360
C340 C 0.949530 0.290200 0.323830
H341 H 0.921800 0.372800 0.304400
C342 C 0.946090 0.184200 0.367510
H343 H 0.915700 0.195600 0.377300
C344 C 0.986840 0.063300 0.396370
H345 H 0.984500 -0.006100 0.426200
C346 C 1.031730 0.043200 0.381450
H347 H 1.059100 -0.040100 0.400900
C348 C 1.035670 0.146900 0.337830
H349 H 1.065500 0.133400 0.327400
C350 C 0.933320 0.523440 0.204920
C351 C 0.931320 0.654300 0.240430
H352 H 0.964200 0.675800 0.286100
C353 C 0.880420 0.751100 0.207490
H354 H 0.878800 0.837500 0.231100
C355 C 0.832230 0.720300 0.140150
H356 H 0.797900 0.785700 0.118400
C357 C 0.834000 0.592800 0.104040
H358 H 0.801300 0.573700 0.058000
C359 C 0.884770 0.493200 0.136660
H360 H 0.886000 0.407000 0.112700
P361 P 0.500000 0.899240 0.250000
C362 C 0.505180 0.772000 0.190640
C363 C 0.550470 0.790200 0.176170
H364 H 0.578200 0.872800 0.195600
C365 C 0.553910 0.684200 0.132490
H366 H 0.584300 0.695600 0.122700
C367 C 0.513160 0.563300 0.103630
H368 H 0.515500 0.493900 0.073800
C369 C 0.468270 0.543200 0.118550
H370 H 0.440900 0.459900 0.099100
C371 C 0.464330 0.646900 0.162170
H372 H 0.434500 0.633400 0.172600
C373 C 0.566680 1.023440 0.295080
C374 C 0.568680 1.154300 0.259570
H375 H 0.535800 1.175800 0.213900
C376 C 0.619580 1.251100 0.292510
H377 H 0.621200 1.337500 0.268900
C378 C 0.667770 1.220300 0.359850
H379 H 0.702100 1.285700 0.381600
C380 C 0.666000 1.092800 0.395960
H381 H 0.698700 1.073700 0.442000
C382 C 0.615230 0.993200 0.363340
H383 H 0.614000 0.907000 0.387300
C384 C 0.494820 0.772000 0.309360
C385 C 0.449530 0.790200 0.323830
H386 H 0.421800 0.872800 0.304400
C387 C 0.446090 0.684200 0.367510
H388 H 0.415700 0.695600 0.377300
C389 C 0.486840 0.563300 0.396370
H390 H 0.484500 0.493900 0.426200
C391 C 0.531730 0.543200 0.381450
H392 H 0.559100 0.459900 0.400900
C393 C 0.535670 0.646900 0.337830
H394 H 0.565500 0.633400 0.327400
C395 C 0.433320 1.023440 0.204920
C396 C 0.431320 1.154300 0.240430
H397 H 0.464200 1.175800 0.286100
C398 C 0.380420 1.251100 0.207490
H399 H 0.378800 1.337500 0.231100
C400 C 0.332230 1.220300 0.140150
H401 H 0.297900 1.285700 0.118400
C402 C 0.334000 1.092800 0.104040
H403 H 0.301300 1.073700 0.058000
C404 C 0.384770 0.993200 0.136660
H405 H 0.386000 0.907000 0.112700
P406 P 0.000000 0.600760 0.750000
C407 C -0.005180 0.728000 0.809360
C408 C -0.050470 0.709800 0.823830
H409 H -0.078200 0.627200 0.804400
C410 C -0.053910 0.815800 0.867510
H411 H -0.084300 0.804400 0.877300
C412 C -0.013160 0.936700 0.896370
H413 H -0.015500 1.006100 0.926200
C414 C 0.031730 0.956800 0.881450
H415 H 0.059100 1.040100 0.900900
C416 C 0.035670 0.853100 0.837830
H417 H 0.065500 0.866600 0.827400
C418 C -0.066680 0.476560 0.704920
C419 C -0.068680 0.345700 0.740430
H420 H -0.035800 0.324200 0.786100
C421 C -0.119580 0.248900 0.707490
H422 H -0.121200 0.162500 0.731100
C423 C -0.167770 0.279700 0.640150
H424 H -0.202100 0.214300 0.618400
C425 C -0.166000 0.407200 0.604040
H426 H -0.198700 0.426300 0.558000
C427 C -0.115230 0.506800 0.636660
H428 H -0.114000 0.593000 0.612700
C429 C 0.005180 0.728000 0.690640
C430 C 0.050470 0.709800 0.676170
H431 H 0.078200 0.627200 0.695600
C432 C 0.053910 0.815800 0.632490
H433 H 0.084300 0.804400 0.622700
C434 C 0.013160 0.936700 0.603630
H435 H 0.015500 1.006100 0.573800
C436 C -0.031730 0.956800 0.618550
H437 H -0.059100 1.040100 0.599100
C438 C -0.035670 0.853100 0.662170
H439 H -0.065500 0.866600 0.672600
C440 C 0.066680 0.476560 0.795080
C441 C 0.068680 0.345700 0.759570
H442 H 0.035800 0.324200 0.713900
C443 C 0.119580 0.248900 0.792510
H444 H 0.121200 0.162500 0.768900
C445 C 0.167770 0.279700 0.859850
H446 H 0.202100 0.214300 0.881600
C447 C 0.166000 0.407200 0.895960
H448 H 0.198700 0.426300 0.942000
C449 C 0.115230 0.506800 0.863340
H450 H 0.114000 0.593000 0.887300
P451 P 1.000000 0.600760 0.750000
C452 C 0.994820 0.728000 0.809360
C453 C 0.949530 0.709800 0.823830
H454 H 0.921800 0.627200 0.804400
C455 C 0.946090 0.815800 0.867510
H456 H 0.915700 0.804400 0.877300
C457 C 0.986840 0.936700 0.896370
H458 H 0.984500 1.006100 0.926200
C459 C 1.031730 0.956800 0.881450
H460 H 1.059100 1.040100 0.900900
C461 C 1.035670 0.853100 0.837830
H462 H 1.065500 0.866600 0.827400
C463 C 0.933320 0.476560 0.704920
C464 C 0.931320 0.345700 0.740430
H465 H 0.964200 0.324200 0.786100
C466 C 0.880420 0.248900 0.707490
H467 H 0.878800 0.162500 0.731100
C468 C 0.832230 0.279700 0.640150
H469 H 0.797900 0.214300 0.618400
C470 C 0.834000 0.407200 0.604040
H471 H 0.801300 0.426300 0.558000
C472 C 0.884770 0.506800 0.636660
H473 H 0.886000 0.593000 0.612700
C474 C 1.005180 0.728000 0.690640
C475 C 1.050470 0.709800 0.676170
H476 H 1.078200 0.627200 0.695600
C477 C 1.053910 0.815800 0.632490
H478 H 1.084300 0.804400 0.622700
C479 C 1.013160 0.936700 0.603630
H480 H 1.015500 1.006100 0.573800
C481 C 0.968270 0.956800 0.618550
H482 H 0.940900 1.040100 0.599100
C483 C 0.964330 0.853100 0.662170
H484 H 0.934500 0.866600 0.672600
C485 C 1.066680 0.476560 0.795080
C486 C 1.068680 0.345700 0.759570
H487 H 1.035800 0.324200 0.713900
C488 C 1.119580 0.248900 0.792510
H489 H 1.121200 0.162500 0.768900
C490 C 1.167770 0.279700 0.859850
H491 H 1.202100 0.214300 0.881600
C492 C 1.166000 0.407200 0.895960
H493 H 1.198700 0.426300 0.942000
C494 C 1.115230 0.506800 0.863340
H495 H 1.114000 0.593000 0.887300
P496 P 0.500000 0.100760 0.750000
C497 C 0.494820 0.228000 0.809360
C498 C 0.449530 0.209800 0.823830
H499 H 0.421800 0.127200 0.804400
C500 C 0.446090 0.315800 0.867510
H501 H 0.415700 0.304400 0.877300
C502 C 0.486840 0.436700 0.896370
H503 H 0.484500 0.506100 0.926200
C504 C 0.531730 0.456800 0.881450
H505 H 0.559100 0.540100 0.900900
C506 C 0.535670 0.353100 0.837830
H507 H 0.565500 0.366600 0.827400
C508 C 0.433320 -0.023440 0.704920
C509 C 0.431320 -0.154300 0.740430
H510 H 0.464200 -0.175800 0.786100
C511 C 0.380420 -0.251100 0.707490
H512 H 0.378800 -0.337500 0.731100
C513 C 0.332230 -0.220300 0.640150
H514 H 0.297900 -0.285700 0.618400
C515 C 0.334000 -0.092800 0.604040
H516 H 0.301300 -0.073700 0.558000
C517 C 0.384770 0.006800 0.636660
H518 H 0.386000 0.093000 0.612700
C519 C 0.505180 0.228000 0.690640
C520 C 0.550470 0.209800 0.676170
H521 H 0.578200 0.127200 0.695600
C522 C 0.553910 0.315800 0.632490
H523 H 0.584300 0.304400 0.622700
C524 C 0.513160 0.436700 0.603630
H525 H 0.515500 0.506100 0.573800
C526 C 0.468270 0.456800 0.618550
H527 H 0.440900 0.540100 0.599100
C528 C 0.464330 0.353100 0.662170
H529 H 0.434500 0.366600 0.672600
C530 C 0.566680 -0.023440 0.795080
C531 C 0.568680 -0.154300 0.759570
H532 H 0.535800 -0.175800 0.713900
C533 C 0.619580 -0.251100 0.792510
H534 H 0.621200 -0.337500 0.768900
C535 C 0.667770 -0.220300 0.859850
H536 H 0.702100 -0.285700 0.881600
C537 C 0.666000 -0.092800 0.895960
H538 H 0.698700 -0.073700 0.942000
C539 C 0.615230 0.006800 0.863340
H540 H 0.614000 0.093000 0.887300

#END
