./ACIGID01_from_xyz.cif_generated_by_CrystalShift
_symmetry_cell_setting triclinic
_symmetry_space_group_name_H-M 'P 1'
loop_
_symmetry_equiv_pos_site_id
_symmetry_equiv_pos_as_xyz
1 x,y,z
_cell_length_a 12.694000
_cell_length_b 13.219000
_cell_length_c 19.292000
_cell_angle_alpha 90.000000
_cell_angle_beta 90.000000
_cell_angle_gamma 90.000000
_cell_volume 3237.235914
loop_
_atom_site_label
_atom_site_type_symbol
_atom_site_fract_x
_atom_site_fract_y
_atom_site_fract_z
S1 S 0.045490 0.525590 0.609720
C2 C 0.108100 0.426300 0.567260
N3 N 0.196200 0.444100 0.538320
N4 N 0.222600 0.547090 0.546010
C5 C 0.167800 0.601700 0.602890
C6 C 0.138300 0.714800 0.591190
H7 H 0.168100 0.739700 0.548200
H8 H 0.062500 0.723600 0.589900
C9 C 0.186300 0.769800 0.653700
H10 H 0.154800 0.835900 0.663500
C11 C 0.305300 0.772100 0.642300
H12 H 0.339700 0.816000 0.675700
H13 H 0.322600 0.794600 0.595800
C14 C 0.336900 0.660400 0.653400
H15 H 0.387300 0.654100 0.691000
H16 H 0.367500 0.632200 0.611600
C17 C 0.232000 0.606400 0.671700
C18 C 0.174900 0.692000 0.712660
N19 N 0.066400 0.329700 0.566290
H20 H 0.102000 0.290000 0.544000
C21 C -0.032500 0.307800 0.586800
O22 O -0.093400 0.371800 0.606600
C23 C -0.062500 0.197800 0.582000
H24 H -0.003600 0.159500 0.565100
H25 H -0.120900 0.190300 0.550800
H26 H -0.082100 0.173500 0.627100
C27 C 0.283300 0.587400 0.494200
O28 O 0.310900 0.675000 0.494570
C29 C 0.315900 0.514600 0.438000
H30 H 0.285400 0.449400 0.447000
H31 H 0.391200 0.508800 0.437400
H32 H 0.291700 0.539100 0.394000
C33 C 0.248800 0.505600 0.708200
H34 H 0.289200 0.516100 0.749600
H35 H 0.285900 0.460300 0.677900
H36 H 0.181700 0.476800 0.720000
C37 C 0.232600 0.722200 0.779000
H38 H 0.222800 0.670700 0.813500
H39 H 0.204700 0.785100 0.795900
H40 H 0.306300 0.729800 0.769500
C41 C 0.060300 0.674000 0.733100
H42 H 0.057300 0.625100 0.769800
H43 H 0.021800 0.649300 0.693700
H44 H 0.029600 0.736500 0.748600
S45 S 0.954510 0.974410 0.109720
C46 C 0.891900 1.073700 0.067260
N47 N 0.803800 1.055900 0.038320
N48 N 0.777400 0.952910 0.046010
C49 C 0.832200 0.898300 0.102890
C50 C 0.861700 0.785200 0.091190
H51 H 0.831900 0.760300 0.048200
H52 H 0.937500 0.776400 0.089900
C53 C 0.813700 0.730200 0.153700
H54 H 0.845200 0.664100 0.163500
C55 C 0.694700 0.727900 0.142300
H56 H 0.660300 0.684000 0.175700
H57 H 0.677400 0.705400 0.095800
C58 C 0.663100 0.839600 0.153400
H59 H 0.612700 0.845900 0.191000
H60 H 0.632500 0.867800 0.111600
C61 C 0.768000 0.893600 0.171700
C62 C 0.825100 0.808000 0.212660
N63 N 0.933600 1.170300 0.066290
H64 H 0.898000 1.210000 0.044000
C65 C 1.032500 1.192200 0.086800
O66 O 1.093400 1.128200 0.106600
C67 C 1.062500 1.302200 0.082000
H68 H 1.003600 1.340500 0.065100
H69 H 1.120900 1.309700 0.050800
H70 H 1.082100 1.326500 0.127100
C71 C 0.716700 0.912600 -0.005800
O72 O 0.689100 0.825000 -0.005430
C73 C 0.684100 0.985400 -0.062000
H74 H 0.714600 1.050600 -0.053000
H75 H 0.608800 0.991200 -0.062600
H76 H 0.708300 0.960900 -0.106000
C77 C 0.751200 0.994400 0.208200
H78 H 0.710800 0.983900 0.249600
H79 H 0.714100 1.039700 0.177900
H80 H 0.818300 1.023200 0.220000
C81 C 0.767400 0.777800 0.279000
H82 H 0.777200 0.829300 0.313500
H83 H 0.795300 0.714900 0.295900
H84 H 0.693700 0.770200 0.269500
C85 C 0.939700 0.826000 0.233100
H86 H 0.942700 0.874900 0.269800
H87 H 0.978200 0.850700 0.193700
H88 H 0.970400 0.763500 0.248600
S89 S 0.545490 0.474410 0.890280
C90 C 0.608100 0.573700 0.932740
N91 N 0.696200 0.555900 0.961680
N92 N 0.722600 0.452910 0.953990
C93 C 0.667800 0.398300 0.897110
C94 C 0.638300 0.285200 0.908810
H95 H 0.668100 0.260300 0.951800
H96 H 0.562500 0.276400 0.910100
C97 C 0.686300 0.230200 0.846300
H98 H 0.654800 0.164100 0.836500
C99 C 0.805300 0.227900 0.857700
H100 H 0.839700 0.184000 0.824300
H101 H 0.822600 0.205400 0.904200
C102 C 0.836900 0.339600 0.846600
H103 H 0.887300 0.345900 0.809000
H104 H 0.867500 0.367800 0.888400
C105 C 0.732000 0.393600 0.828300
C106 C 0.674900 0.308000 0.787340
N107 N 0.566400 0.670300 0.933710
H108 H 0.602000 0.710000 0.956000
C109 C 0.467500 0.692200 0.913200
O110 O 0.406600 0.628200 0.893400
C111 C 0.437500 0.802200 0.918000
H112 H 0.496400 0.840500 0.934900
H113 H 0.379100 0.809700 0.949200
H114 H 0.417900 0.826500 0.872900
C115 C 0.783300 0.412600 1.005800
O116 O 0.810900 0.325000 1.005430
C117 C 0.815900 0.485400 1.062000
H118 H 0.785400 0.550600 1.053000
H119 H 0.891200 0.491200 1.062600
H120 H 0.791700 0.460900 1.106000
C121 C 0.748800 0.494400 0.791800
H122 H 0.789200 0.483900 0.750400
H123 H 0.785900 0.539700 0.822100
H124 H 0.681700 0.523200 0.780000
C125 C 0.732600 0.277800 0.721000
H126 H 0.722800 0.329300 0.686500
H127 H 0.704700 0.214900 0.704100
H128 H 0.806300 0.270200 0.730500
C129 C 0.560300 0.326000 0.766900
H130 H 0.557300 0.374900 0.730200
H131 H 0.521800 0.350700 0.806300
H132 H 0.529600 0.263500 0.751400
S133 S 0.454510 0.025590 0.390280
C134 C 0.391900 -0.073700 0.432740
N135 N 0.303800 -0.055900 0.461680
N136 N 0.277400 0.047090 0.453990
C137 C 0.332200 0.101700 0.397110
C138 C 0.361700 0.214800 0.408810
H139 H 0.331900 0.239700 0.451800
H140 H 0.437500 0.223600 0.410100
C141 C 0.313700 0.269800 0.346300
H142 H 0.345200 0.335900 0.336500
C143 C 0.194700 0.272100 0.357700
H144 H 0.160300 0.316000 0.324300
H145 H 0.177400 0.294600 0.404200
C146 C 0.163100 0.160400 0.346600
H147 H 0.112700 0.154100 0.309000
H148 H 0.132500 0.132200 0.388400
C149 C 0.268000 0.106400 0.328300
C150 C 0.325100 0.192000 0.287340
N151 N 0.433600 -0.170300 0.433710
H152 H 0.398000 -0.210000 0.456000
C153 C 0.532500 -0.192200 0.413200
O154 O 0.593400 -0.128200 0.393400
C155 C 0.562500 -0.302200 0.418000
H156 H 0.503600 -0.340500 0.434900
H157 H 0.620900 -0.309700 0.449200
H158 H 0.582100 -0.326500 0.372900
C159 C 0.216700 0.087400 0.505800
O160 O 0.189100 0.175000 0.505430
C161 C 0.184100 0.014600 0.562000
H162 H 0.214600 -0.050600 0.553000
H163 H 0.108800 0.008800 0.562600
H164 H 0.208300 0.039100 0.606000
C165 C 0.251200 0.005600 0.291800
H166 H 0.210800 0.016100 0.250400
H167 H 0.214100 -0.039700 0.322100
H168 H 0.318300 -0.023200 0.280000
C169 C 0.267400 0.222200 0.221000
H170 H 0.277200 0.170700 0.186500
H171 H 0.295300 0.285100 0.204100
H172 H 0.193700 0.229800 0.230500
C173 C 0.439700 0.174000 0.266900
H174 H 0.442700 0.125100 0.230200
H175 H 0.478200 0.149300 0.306300
H176 H 0.470400 0.236500 0.251400
S177 S 0.954510 0.474410 0.390280
C178 C 0.891900 0.573700 0.432740
N179 N 0.803800 0.555900 0.461680
N180 N 0.777400 0.452910 0.453990
C181 C 0.832200 0.398300 0.397110
C182 C 0.861700 0.285200 0.408810
H183 H 0.831900 0.260300 0.451800
H184 H 0.937500 0.276400 0.410100
C185 C 0.813700 0.230200 0.346300
H186 H 0.845200 0.164100 0.336500
C187 C 0.694700 0.227900 0.357700
H188 H 0.660300 0.184000 0.324300
H189 H 0.677400 0.205400 0.404200
C190 C 0.663100 0.339600 0.346600
H191 H 0.612700 0.345900 0.309000
H192 H 0.632500 0.367800 0.388400
C193 C 0.768000 0.393600 0.328300
C194 C 0.825100 0.308000 0.287340
N195 N 0.933600 0.670300 0.433710
H196 H 0.898000 0.710000 0.456000
C197 C 1.032500 0.692200 0.413200
O198 O 1.093400 0.628200 0.393400
C199 C 1.062500 0.802200 0.418000
H200 H 1.003600 0.840500 0.434900
H201 H 1.120900 0.809700 0.449200
H202 H 1.082100 0.826500 0.372900
C203 C 0.716700 0.412600 0.505800
O204 O 0.689100 0.325000 0.505430
C205 C 0.684100 0.485400 0.562000
H206 H 0.714600 0.550600 0.553000
H207 H 0.608800 0.491200 0.562600
H208 H 0.708300 0.460900 0.606000
C209 C 0.751200 0.494400 0.291800
H210 H 0.710800 0.483900 0.250400
H211 H 0.714100 0.539700 0.322100
H212 H 0.818300 0.523200 0.280000
C213 C 0.767400 0.277800 0.221000
H214 H 0.777200 0.329300 0.186500
H215 H 0.795300 0.214900 0.204100
H216 H 0.693700 0.270200 0.230500
C217 C 0.939700 0.326000 0.266900
H218 H 0.942700 0.374900 0.230200
H219 H 0.978200 0.350700 0.306300
H220 H 0.970400 0.263500 0.251400
S221 S 0.045490 0.025590 0.890280
C222 C 0.108100 -0.073700 0.932740
N223 N 0.196200 -0.055900 0.961680
N224 N 0.222600 0.047090 0.953990
C225 C 0.167800 0.101700 0.897110
C226 C 0.138300 0.214800 0.908810
H227 H 0.168100 0.239700 0.951800
H228 H 0.062500 0.223600 0.910100
C229 C 0.186300 0.269800 0.846300
H230 H 0.154800 0.335900 0.836500
C231 C 0.305300 0.272100 0.857700
H232 H 0.339700 0.316000 0.824300
H233 H 0.322600 0.294600 0.904200
C234 C 0.336900 0.160400 0.846600
H235 H 0.387300 0.154100 0.809000
H236 H 0.367500 0.132200 0.888400
C237 C 0.232000 0.106400 0.828300
C238 C 0.174900 0.192000 0.787340
N239 N 0.066400 -0.170300 0.933710
H240 H 0.102000 -0.210000 0.956000
C241 C -0.032500 -0.192200 0.913200
O242 O -0.093400 -0.128200 0.893400
C243 C -0.062500 -0.302200 0.918000
H244 H -0.003600 -0.340500 0.934900
H245 H -0.120900 -0.309700 0.949200
H246 H -0.082100 -0.326500 0.872900
C247 C 0.283300 0.087400 1.005800
O248 O 0.310900 0.175000 1.005430
C249 C 0.315900 0.014600 1.062000
H250 H 0.285400 -0.050600 1.053000
H251 H 0.391200 0.008800 1.062600
H252 H 0.291700 0.039100 1.106000
C253 C 0.248800 0.005600 0.791800
H254 H 0.289200 0.016100 0.750400
H255 H 0.285900 -0.039700 0.822100
H256 H 0.181700 -0.023200 0.780000
C257 C 0.232600 0.222200 0.721000
H258 H 0.222800 0.170700 0.686500
H259 H 0.204700 0.285100 0.704100
H260 H 0.306300 0.229800 0.730500
C261 C 0.060300 0.174000 0.766900
H262 H 0.057300 0.125100 0.730200
H263 H 0.021800 0.149300 0.806300
H264 H 0.029600 0.236500 0.751400
S265 S 0.454510 0.525590 0.109720
C266 C 0.391900 0.426300 0.067260
N267 N 0.303800 0.444100 0.038320
N268 N 0.277400 0.547090 0.046010
C269 C 0.332200 0.601700 0.102890
C270 C 0.361700 0.714800 0.091190
H271 H 0.331900 0.739700 0.048200
H272 H 0.437500 0.723600 0.089900
C273 C 0.313700 0.769800 0.153700
H274 H 0.345200 0.835900 0.163500
C275 C 0.194700 0.772100 0.142300
H276 H 0.160300 0.816000 0.175700
H277 H 0.177400 0.794600 0.095800
C278 C 0.163100 0.660400 0.153400
H279 H 0.112700 0.654100 0.191000
H280 H 0.132500 0.632200 0.111600
C281 C 0.268000 0.606400 0.171700
C282 C 0.325100 0.692000 0.212660
N283 N 0.433600 0.329700 0.066290
H284 H 0.398000 0.290000 0.044000
C285 C 0.532500 0.307800 0.086800
O286 O 0.593400 0.371800 0.106600
C287 C 0.562500 0.197800 0.082000
H288 H 0.503600 0.159500 0.065100
H289 H 0.620900 0.190300 0.050800
H290 H 0.582100 0.173500 0.127100
C291 C 0.216700 0.587400 -0.005800
O292 O 0.189100 0.675000 -0.005430
C293 C 0.184100 0.514600 -0.062000
H294 H 0.214600 0.449400 -0.053000
H295 H 0.108800 0.508800 -0.062600
H296 H 0.208300 0.539100 -0.106000
C297 C 0.251200 0.505600 0.208200
H298 H 0.210800 0.516100 0.249600
H299 H 0.214100 0.460300 0.177900
H300 H 0.318300 0.476800 0.220000
C301 C 0.267400 0.722200 0.279000
H302 H 0.277200 0.670700 0.313500
H303 H 0.295300 0.785100 0.295900
H304 H 0.193700 0.729800 0.269500
C305 C 0.439700 0.674000 0.233100
H306 H 0.442700 0.625100 0.269800
H307 H 0.478200 0.649300 0.193700
H308 H 0.470400 0.736500 0.248600
S309 S 0.545490 0.974410 0.609720
C310 C 0.608100 1.073700 0.567260
N311 N 0.696200 1.055900 0.538320
N312 N 0.722600 0.952910 0.546010
C313 C 0.667800 0.898300 0.602890
C314 C 0.638300 0.785200 0.591190
H315 H 0.668100 0.760300 0.548200
H316 H 0.562500 0.776400 0.589900
C317 C 0.686300 0.730200 0.653700
H318 H 0.654800 0.664100 0.663500
C319 C 0.805300 0.727900 0.642300
H320 H 0.839700 0.684000 0.675700
H321 H 0.822600 0.705400 0.595800
C322 C 0.836900 0.839600 0.653400
H323 H 0.887300 0.845900 0.691000
H324 H 0.867500 0.867800 0.611600
C325 C 0.732000 0.893600 0.671700
C326 C 0.674900 0.808000 0.712660
N327 N 0.566400 1.170300 0.566290
H328 H 0.602000 1.210000 0.544000
C329 C 0.467500 1.192200 0.586800
O330 O 0.406600 1.128200 0.606600
C331 C 0.437500 1.302200 0.582000
H332 H 0.496400 1.340500 0.565100
H333 H 0.379100 1.309700 0.550800
H334 H 0.417900 1.326500 0.627100
C335 C 0.783300 0.912600 0.494200
O336 O 0.810900 0.825000 0.494570
C337 C 0.815900 0.985400 0.438000
H338 H 0.785400 1.050600 0.447000
H339 H 0.891200 0.991200 0.437400
H340 H 0.791700 0.960900 0.394000
C341 C 0.748800 0.994400 0.708200
H342 H 0.789200 0.983900 0.749600
H343 H 0.785900 1.039700 0.677900
H344 H 0.681700 1.023200 0.720000
C345 C 0.732600 0.777800 0.779000
H346 H 0.722800 0.829300 0.813500
H347 H 0.704700 0.714900 0.795900
H348 H 0.806300 0.770200 0.769500
C349 C 0.560300 0.826000 0.733100
H350 H 0.557300 0.874900 0.769800
H351 H 0.521800 0.850700 0.693700
H352 H 0.529600 0.763500 0.748600

#END
