./ACINDN01_from_xyz.cif_generated_by_CrystalShift
_symmetry_cell_setting triclinic
_symmetry_space_group_name_H-M 'P 1'
loop_
_symmetry_equiv_pos_site_id
_symmetry_equiv_pos_as_xyz
1 x,y,z
_cell_length_a 5.229200
_cell_length_b 7.306100
_cell_length_c 22.832000
_cell_angle_alpha 90.000000
_cell_angle_beta 96.204000
_cell_angle_gamma 90.000000
_cell_volume 867.189221
loop_
_atom_site_label
_atom_site_type_symbol
_atom_site_fract_x
_atom_site_fract_y
_atom_site_fract_z
C1 C 0.747000 0.584100 0.586470
C2 C 0.554700 0.446000 0.595520
C3 C 0.412400 0.506300 0.644290
C4 C 0.521700 0.690500 0.662720
C5 C 0.456100 0.809600 0.706010
H6 H 0.321500 0.780900 0.729300
C7 C 0.593100 0.971900 0.714240
H8 H 0.551800 1.055400 0.743700
C9 C 0.790100 1.014300 0.680130
H10 H 0.880700 1.126500 0.686600
C11 C 0.856100 0.895000 0.636810
H12 H 0.990000 0.923800 0.613400
C13 C 0.720600 0.733400 0.629040
O14 O 0.900600 0.577900 0.549140
O15 O 0.240000 0.428200 0.666830
C16 C 0.517100 0.295600 0.559780
O17 O 0.665000 0.266800 0.516430
H18 H 0.773400 0.351600 0.516200
C19 C 0.316100 0.155300 0.563730
H20 H 0.201200 0.152900 0.526900
H21 H 0.216700 0.184700 0.596500
H22 H 0.397100 0.035000 0.570400
C23 C 0.753000 0.084100 0.913530
C24 C 0.945300 -0.054000 0.904480
C25 C 1.087600 0.006300 0.855710
C26 C 0.978300 0.190500 0.837280
C27 C 1.043900 0.309600 0.793990
H28 H 1.178500 0.280900 0.770700
C29 C 0.906900 0.471900 0.785760
H30 H 0.948200 0.555400 0.756300
C31 C 0.709900 0.514300 0.819870
H32 H 0.619300 0.626500 0.813400
C33 C 0.643900 0.395000 0.863190
H34 H 0.510000 0.423800 0.886600
C35 C 0.779400 0.233400 0.870960
O36 O 0.599400 0.077900 0.950860
O37 O 1.260000 -0.071800 0.833170
C38 C 0.982900 -0.204400 0.940220
O39 O 0.835000 -0.233200 0.983570
H40 H 0.726600 -0.148400 0.983800
C41 C 1.183900 -0.344700 0.936270
H42 H 1.298800 -0.347100 0.973100
H43 H 1.283300 -0.315300 0.903500
H44 H 1.102900 -0.465000 0.929600
C45 C 0.253000 0.415900 0.413530
C46 C 0.445300 0.554000 0.404480
C47 C 0.587600 0.493700 0.355710
C48 C 0.478300 0.309500 0.337280
C49 C 0.543900 0.190400 0.293990
H50 H 0.678500 0.219100 0.270700
C51 C 0.406900 0.028100 0.285760
H52 H 0.448200 -0.055400 0.256300
C53 C 0.209900 -0.014300 0.319870
H54 H 0.119300 -0.126500 0.313400
C55 C 0.143900 0.105000 0.363190
H56 H 0.010000 0.076200 0.386600
C57 C 0.279400 0.266600 0.370960
O58 O 0.099400 0.422100 0.450860
O59 O 0.760000 0.571800 0.333170
C60 C 0.482900 0.704400 0.440220
O61 O 0.335000 0.733200 0.483570
H62 H 0.226600 0.648400 0.483800
C63 C 0.683900 0.844700 0.436270
H64 H 0.798800 0.847100 0.473100
H65 H 0.783300 0.815300 0.403500
H66 H 0.602900 0.965000 0.429600
C67 C 0.247000 0.915900 0.086470
C68 C 0.054700 1.054000 0.095520
C69 C -0.087600 0.993700 0.144290
C70 C 0.021700 0.809500 0.162720
C71 C -0.043900 0.690400 0.206010
H72 H -0.178500 0.719100 0.229300
C73 C 0.093100 0.528100 0.214240
H74 H 0.051800 0.444600 0.243700
C75 C 0.290100 0.485700 0.180130
H76 H 0.380700 0.373500 0.186600
C77 C 0.356100 0.605000 0.136810
H78 H 0.490000 0.576200 0.113400
C79 C 0.220600 0.766600 0.129040
O80 O 0.400600 0.922100 0.049140
O81 O -0.260000 1.071800 0.166830
C82 C 0.017100 1.204400 0.059780
O83 O 0.165000 1.233200 0.016430
H84 H 0.273400 1.148400 0.016200
C85 C -0.183900 1.344700 0.063730
H86 H -0.298800 1.347100 0.026900
H87 H -0.283300 1.315300 0.096500
H88 H -0.102900 1.465000 0.070400

#END
