
#######################################################################
#
#                 Cambridge Crystallographic Data Centre
#                                CCDC 
#
#######################################################################
#
# If this CIF has been generated from an entry in the Cambridge 
# Structural Database, then it will include bibliographic, chemical, 
# crystal, experimental, refinement or atomic coordinate data resulting 
# from the CCDC's data processing and validation procedures.
#
#######################################################################

data_ACIXAL01
_symmetry_cell_setting           triclinic
_symmetry_space_group_name_H-M   'P -1'
_symmetry_Int_Tables_number      2
_space_group_name_Hall           '-P 1'
loop_
_symmetry_equiv_pos_site_id
_symmetry_equiv_pos_as_xyz
1 x,y,z
2 -x,-y,-z
_cell_length_a                   5.5787(12)
_cell_length_b                   11.021(2)
_cell_length_c                   13.128(3)
_cell_angle_alpha                95.143(6)
_cell_angle_beta                 100.311(6)
_cell_angle_gamma                100.424(6)
_cell_volume                     774.77
loop_
_atom_site_label
_atom_site_type_symbol
_atom_site_fract_x
_atom_site_fract_y
_atom_site_fract_z
P1 P -0.04825(8) 0.18064(4) 0.30412(3)
O1 O -0.3118(3) -0.11156(12) 0.02915(10)
H1 H -0.4354 -0.0968 -0.011
O2 O -0.2949(2) 0.08147(11) 0.10131(9)
C1 C -0.2117(3) -0.01349(16) 0.09877(13)
C2 C 0.0075(3) -0.03031(15) 0.17354(13)
C3 C 0.1009(3) 0.05110(15) 0.26752(13)
C4 C 0.1353(3) 0.24440(15) 0.43447(12)
C5 C 0.0161(4) 0.22605(19) 0.51699(14)
H2 H -0.1467 0.1763 0.5045
C6 C 0.1293(4) 0.2787(2) 0.61745(15)
H3 H 0.0449 0.2647 0.6734
C7 C 0.3641(4) 0.35128(19) 0.63638(15)
H4 H 0.44 0.3901 0.705
C8 C 0.1205(3) -0.12903(16) 0.14946(14)
H5 H 0.0565 -0.1826 0.0858
C9 C 0.3243(4) -0.14982(17) 0.21696(15)
H6 H 0.4034 -0.2159 0.1992
C10 C 0.4124(3) -0.07398(17) 0.31033(16)
H7 H 0.5501 -0.0891 0.358
C11 C 0.3011(3) 0.02419(16) 0.33499(14)
H8 H 0.3635 0.0749 0.4002
C12 C 0.0729(3) 0.30023(15) 0.22804(12)
C13 C -0.0336(3) 0.40475(17) 0.22601(14)
H9 H -0.1585 0.4121 0.2655
C14 C 0.0382(4) 0.49794(19) 0.16790(16)
H10 H -0.0362 0.5689 0.1681
C15 C 0.2170(4) 0.48847(18) 0.10977(14)
H11 H 0.2647 0.552 0.0687
C16 C 0.3266(4) 0.38638(19) 0.11137(15)
H12 H 0.451 0.3797 0.0715
C17 C 0.2569(3) 0.29311(17) 0.17073(14)
H13 H 0.336 0.2237 0.1721
C18 C 0.3755(3) 0.31501(16) 0.45541(14)
H14 H 0.4627 0.3273 0.4001
C19 C 0.4889(4) 0.36759(17) 0.55609(15)
H15 H 0.6537 0.4151 0.5696
P1 P 1.04825(8) 0.81936(4) 0.69588(3)
O1 O 1.3118(3) 1.11156(12) 0.97085(10)
H1 H 1.4354 1.0968 1.011
O2 O 1.2949(2) 0.91853(11) 0.89869(9)
C1 C 1.2117(3) 1.01349(16) 0.90123(13)
C2 C 0.9925(3) 1.03031(15) 0.82646(13)
C3 C 0.8991(3) 0.94890(15) 0.73248(13)
C4 C 0.8647(3) 0.75560(15) 0.56553(12)
C5 C 0.9839(4) 0.77395(19) 0.48301(14)
H2 H 1.1467 0.8237 0.4955
C6 C 0.8707(4) 0.7213(2) 0.38255(15)
H3 H 0.9551 0.7353 0.3266
C7 C 0.6359(4) 0.64872(19) 0.36362(15)
H4 H 0.56 0.6099 0.295
C8 C 0.8795(3) 1.12903(16) 0.85054(14)
H5 H 0.9435 1.1826 0.9142
C9 C 0.6757(4) 1.14982(17) 0.78304(15)
H6 H 0.5966 1.2159 0.8008
C10 C 0.5876(3) 1.07398(17) 0.68967(16)
H7 H 0.4499 1.0891 0.642
C11 C 0.6989(3) 0.97581(16) 0.66501(14)
H8 H 0.6365 0.9251 0.5998
C12 C 0.9271(3) 0.69977(15) 0.77196(12)
C13 C 1.0336(3) 0.59525(17) 0.77399(14)
H9 H 1.1585 0.5879 0.7345
C14 C 0.9618(4) 0.50206(19) 0.83210(16)
H10 H 1.0362 0.4311 0.8319
C15 C 0.7830(4) 0.51153(18) 0.89023(14)
H11 H 0.7353 0.448 0.9313
C16 C 0.6734(4) 0.61362(19) 0.88863(15)
H12 H 0.549 0.6203 0.9285
C17 C 0.7431(3) 0.70689(17) 0.82927(14)
H13 H 0.664 0.7763 0.8279
C18 C 0.6245(3) 0.68499(16) 0.54459(14)
H14 H 0.5373 0.6727 0.5999
C19 C 0.5111(4) 0.63241(17) 0.44391(15)
H15 H 0.3463 0.5849 0.4304

#END
