
#######################################################################
#
#                 Cambridge Crystallographic Data Centre
#                                CCDC 
#
#######################################################################
#
# If this CIF has been generated from an entry in the Cambridge 
# Structural Database, then it will include bibliographic, chemical, 
# crystal, experimental, refinement or atomic coordinate data resulting 
# from the CCDC's data processing and validation procedures.
#
#######################################################################

data_ACIXOZ
_symmetry_cell_setting           triclinic
_symmetry_space_group_name_H-M   'P -1'
_symmetry_Int_Tables_number      2
_space_group_name_Hall           '-P 1'
loop_
_symmetry_equiv_pos_site_id
_symmetry_equiv_pos_as_xyz
1 x,y,z
2 -x,-y,-z
_cell_length_a                   10.622(2)
_cell_length_b                   12.417(3)
_cell_length_c                   20.960(4)
_cell_angle_alpha                86.078(3)
_cell_angle_beta                 87.948(3)
_cell_angle_gamma                74.079(3)
_cell_volume                     2651.8
loop_
_atom_site_label
_atom_site_type_symbol
_atom_site_fract_x
_atom_site_fract_y
_atom_site_fract_z
Li1 Li 0.7332(4) 0.2851(4) 0.3729(2)
Li2 Li 0.8939(5) 0.3874(4) 0.3448(2)
Li3 Li 0.7405(4) 0.4435(3) 0.2562(2)
Li4 Li 0.8965(4) 0.1578(4) 0.3109(2)
Li5 Li 0.6628(4) 0.2428(3) 0.2293(2)
Li6 Li 0.9862(4) 0.2923(3) 0.2055(2)
Li7 Li 0.9206(4) 0.1405(3) 0.15997(19)
Li8 Li 0.7538(4) 0.3082(4) 0.1269(2)
O1 O 0.70951(17) 0.43607(13) 0.34539(8)
O2 O 0.91520(17) 0.24177(14) 0.38085(7)
O3 O 0.92628(16) 0.41282(13) 0.25680(7)
O4 O 0.70779(15) 0.18855(13) 0.31288(7)
O5 O 0.65600(16) 0.39265(13) 0.19333(7)
O6 O 1.00028(16) 0.14118(12) 0.23810(7)
O7 O 0.93540(17) 0.27851(14) 0.12079(7)
O8 O 0.73771(16) 0.16585(13) 0.15621(8)
C1 C 0.5874(3) 0.5052(3) 0.36387(16)
H1 H 0.5480 0.4627 0.3953
H2 H 0.5317 0.5224 0.3268
C2 C 0.5871(3) 0.6132(2) 0.39125(13)
C3 C 0.6643(4) 0.5908(4) 0.4513(2)
H3 H 0.6262 0.5472 0.4819
H4 H 0.6631 0.6607 0.4686
H5 H 0.7530 0.5500 0.4419
C4 C 0.6443(5) 0.6817(3) 0.3426(2)
H6 H 0.5937 0.6953 0.3044
H7 H 0.7330 0.6416 0.3328
H8 H 0.6427 0.7520 0.3595
C5 C 0.4493(3) 0.6794(3) 0.40771(17)
H9 H 0.3984 0.6974 0.3696
H10 H 0.4515 0.7475 0.4262
H11 H 0.4105 0.6356 0.4378
C6 C 1.0143(3) 0.1811(2) 0.42234(12)
H12 H 1.0984 0.1817 0.4028
H13 H 1.0108 0.1037 0.4265
C7 C 1.0079(3) 0.2240(2) 0.48871(12)
C8 C 1.1202(3) 0.1467(3) 0.52727(15)
H14 H 1.1176 0.1722 0.5697
H15 H 1.2022 0.1479 0.5068
H16 H 1.1116 0.0716 0.5296
C9 C 1.0215(3) 0.3427(2) 0.48495(14)
H17 H 0.9506 0.3913 0.4609
H18 H 1.1032 0.3439 0.4643
H19 H 1.0192 0.3680 0.5273
C10 C 0.8795(3) 0.2216(3) 0.52129(14)
H20 H 0.8085 0.2704 0.4974
H21 H 0.8774 0.2465 0.5638
H22 H 0.8710 0.1464 0.5234
C11 C 0.9717(2) 0.5047(2) 0.23484(13)
H23 H 0.9129 0.5724 0.2507
H24 H 0.9686 0.5116 0.1885
C12 C 1.1099(3) 0.4974(2) 0.25481(13)
C13 C 1.1201(4) 0.4832(4) 0.32688(15)
H25 H 1.0602 0.5462 0.3456
H26 H 1.2079 0.4791 0.3388
H27 H 1.0989 0.4155 0.3419
C14 C 1.2066(3) 0.3970(2) 0.22586(15)
H28 H 1.2007 0.4049 0.1801
H29 H 1.1858 0.3292 0.2413
H30 H 1.2939 0.3938 0.2380
C15 C 1.1430(3) 0.6046(3) 0.22910(19)
H31 H 1.1358 0.6119 0.1834
H32 H 1.2309 0.6012 0.2404
H33 H 1.0832 0.6682 0.2473
C16 C 0.6665(2) 0.0930(2) 0.33319(12)
H34 H 0.7375 0.0400 0.3560
H35 H 0.6499 0.0577 0.2957
C17 C 0.5442(2) 0.1157(2) 0.37614(11)
C18 C 0.4291(3) 0.1956(3) 0.34139(15)
H36 H 0.3530 0.2094 0.3690
H37 H 0.4122 0.1628 0.3036
H38 H 0.4495 0.2651 0.3297
C19 C 0.5136(3) 0.0047(2) 0.39413(15)
H39 H 0.4366 0.0175 0.4210
H40 H 0.5861 -0.0450 0.4166
H41 H 0.4990 -0.0286 0.3560
C20 C 0.5682(3) 0.1664(3) 0.43717(13)
H42 H 0.4904 0.1809 0.4636
H43 H 0.5905 0.2354 0.4265
H44 H 0.6389 0.1148 0.4599
C21 C 0.5374(2) 0.4674(2) 0.17316(12)
H45 H 0.4895 0.5008 0.2104
H46 H 0.4854 0.4252 0.1542
C22 C 0.5522(2) 0.5617(2) 0.12478(12)
C23 C 0.6296(3) 0.5125(2) 0.06626(13)
H47 H 0.5853 0.4656 0.0470
H48 H 0.7155 0.4687 0.0788
H49 H 0.6371 0.5722 0.0360
C24 C 0.6227(3) 0.6365(2) 0.15474(15)
H50 H 0.7089 0.5929 0.1669
H51 H 0.5745 0.6675 0.1919
H52 H 0.6293 0.6962 0.1243
C25 C 0.4157(3) 0.6305(3) 0.10486(15)
H53 H 0.3715 0.5829 0.0861
H54 H 0.4227 0.6897 0.0742
H55 H 0.3669 0.6621 0.1417
C26 C 1.1300(3) 0.0778(2) 0.24425(13)
H56 H 1.1637 0.0957 0.2834
H57 H 1.1811 0.0997 0.2089
C27 C 1.1501(3) -0.0488(2) 0.24549(12)
C28 C 1.0778(4) -0.0851(2) 0.30253(15)
H58 H 0.9859 -0.0486 0.2990
H59 H 1.1098 -0.0649 0.3410
H60 H 1.0916 -0.1649 0.3039
C29 C 1.1014(3) -0.0806(2) 0.18487(14)
H61 H 1.0092 -0.0454 0.1813
H62 H 1.1171 -0.1606 0.1858
H63 H 1.1469 -0.0561 0.1488
C30 C 1.2954(3) -0.1065(3) 0.2510(2)
H64 H 1.3414 -0.0834 0.2146
H65 H 1.3093 -0.1864 0.2524
H66 H 1.3275 -0.0863 0.2894
C31 C 1.0146(3) 0.3108(2) 0.07276(13)
H67 H 1.1013 0.2995 0.0898
H68 H 0.9795 0.3905 0.0622
C32 C 1.0281(3) 0.2499(2) 0.01157(12)
C33 C 1.0836(4) 0.1255(3) 0.02504(16)
H69 H 1.0909 0.0883 -0.0141
H70 H 1.0267 0.0980 0.0545
H71 H 1.1687 0.1109 0.0434
C34 C 1.1177(4) 0.2933(3) -0.03506(15)
H72 H 1.1264 0.2547 -0.0738
H73 H 1.2023 0.2803 -0.0165
H74 H 1.0813 0.3723 -0.0444
C35 C 0.8945(4) 0.2725(4) -0.01753(16)
H75 H 0.9020 0.2338 -0.0562
H76 H 0.8597 0.3516 -0.0271
H77 H 0.8369 0.2463 0.0122
C36 C 0.7045(3) 0.0703(2) 0.13844(12)
H78 H 0.7060 0.0204 0.1763
H79 H 0.7713 0.0314 0.1089
C37 C 0.5716(3) 0.0927(2) 0.10740(12)
C38 C 0.5501(3) -0.0195(2) 0.09281(14)
H80 H 0.5523 -0.0651 0.1318
H81 H 0.6180 -0.0571 0.0642
H82 H 0.4665 -0.0069 0.0733
C39 C 0.5676(3) 0.1653(3) 0.04594(13)
H83 H 0.6349 0.1278 0.0170
H84 H 0.5817 0.2357 0.0553
H85 H 0.4837 0.1785 0.0267
C40 C 0.4648(3) 0.1512(3) 0.15351(15)
H86 H 0.4680 0.1050 0.1924
H87 H 0.3809 0.1639 0.1344
H88 H 0.4783 0.2218 0.1629
Li1 Li 0.2668(4) 0.7149(4) 0.6271(2)
Li2 Li 0.1061(5) 0.6126(4) 0.6552(2)
Li3 Li 0.2595(4) 0.5565(3) 0.7438(2)
Li4 Li 0.1035(4) 0.8422(4) 0.6891(2)
Li5 Li 0.3372(4) 0.7572(3) 0.7707(2)
Li6 Li 0.0138(4) 0.7077(3) 0.7945(2)
Li7 Li 0.0794(4) 0.8595(3) 0.84003(19)
Li8 Li 0.2462(4) 0.6918(4) 0.8731(2)
O1 O 0.29049(17) 0.56393(13) 0.65461(8)
O2 O 0.08480(17) 0.75823(14) 0.61915(7)
O3 O 0.07372(16) 0.58718(13) 0.74320(7)
O4 O 0.29221(15) 0.81145(13) 0.68712(7)
O5 O 0.34400(16) 0.60735(13) 0.80667(7)
O6 O -0.00028(16) 0.85882(12) 0.76190(7)
O7 O 0.06460(17) 0.72149(14) 0.87921(7)
O8 O 0.26229(16) 0.83415(13) 0.84379(8)
C1 C 0.4126(3) 0.4948(3) 0.63613(16)
H1 H 0.4520 0.5373 0.6047
H2 H 0.4683 0.4776 0.6732
C2 C 0.4129(3) 0.3868(2) 0.60875(13)
C3 C 0.3357(4) 0.4092(4) 0.5487(2)
H3 H 0.3738 0.4528 0.5181
H4 H 0.3369 0.3393 0.5314
H5 H 0.2470 0.4500 0.5581
C4 C 0.3557(5) 0.3183(3) 0.6574(2)
H6 H 0.4063 0.3047 0.6956
H7 H 0.2670 0.3584 0.6672
H8 H 0.3573 0.2480 0.6405
C5 C 0.5507(3) 0.3206(3) 0.59229(17)
H9 H 0.6016 0.3026 0.6304
H10 H 0.5485 0.2525 0.5738
H11 H 0.5895 0.3644 0.5622
C6 C -0.0143(3) 0.8189(2) 0.57766(12)
H12 H -0.0984 0.8183 0.5972
H13 H -0.0108 0.8963 0.5735
C7 C -0.0079(3) 0.7760(2) 0.51129(12)
C8 C -0.1202(3) 0.8533(3) 0.47273(15)
H14 H -0.1176 0.8278 0.4303
H15 H -0.2022 0.8521 0.4932
H16 H -0.1116 0.9284 0.4704
C9 C -0.0215(3) 0.6573(2) 0.51505(14)
H17 H 0.0494 0.6087 0.5391
H18 H -0.1032 0.6561 0.5357
H19 H -0.0192 0.6320 0.4727
C10 C 0.1205(3) 0.7784(3) 0.47871(14)
H20 H 0.1915 0.7296 0.5026
H21 H 0.1226 0.7535 0.4362
H22 H 0.1290 0.8536 0.4766
C11 C 0.0283(2) 0.4953(2) 0.76516(13)
H23 H 0.0871 0.4276 0.7493
H24 H 0.0314 0.4884 0.8115
C12 C -0.1099(3) 0.5026(2) 0.74519(13)
C13 C -0.1201(4) 0.5168(4) 0.67312(15)
H25 H -0.0602 0.4538 0.6544
H26 H -0.2079 0.5209 0.6612
H27 H -0.0989 0.5845 0.6581
C14 C -0.2066(3) 0.6030(2) 0.77414(15)
H28 H -0.2007 0.5951 0.8199
H29 H -0.1858 0.6708 0.7587
H30 H -0.2939 0.6062 0.7620
C15 C -0.1430(3) 0.3954(3) 0.77090(19)
H31 H -0.1358 0.3881 0.8166
H32 H -0.2309 0.3988 0.7596
H33 H -0.0832 0.3318 0.7527
C16 C 0.3335(2) 0.9070(2) 0.66681(12)
H34 H 0.2625 0.9600 0.6440
H35 H 0.3501 0.9423 0.7043
C17 C 0.4558(2) 0.8843(2) 0.62386(11)
C18 C 0.5709(3) 0.8044(3) 0.65861(15)
H36 H 0.6470 0.7906 0.6310
H37 H 0.5878 0.8372 0.6964
H38 H 0.5505 0.7349 0.6703
C19 C 0.4864(3) 0.9953(2) 0.60587(15)
H39 H 0.5634 0.9825 0.5790
H40 H 0.4139 1.0450 0.5834
H41 H 0.5010 1.0286 0.6440
C20 C 0.4318(3) 0.8336(3) 0.56283(13)
H42 H 0.5096 0.8191 0.5364
H43 H 0.4095 0.7646 0.5735
H44 H 0.3611 0.8852 0.5401
C21 C 0.4626(2) 0.5326(2) 0.82684(12)
H45 H 0.5105 0.4992 0.7896
H46 H 0.5146 0.5748 0.8458
C22 C 0.4478(2) 0.4383(2) 0.87522(12)
C23 C 0.3704(3) 0.4875(2) 0.93374(13)
H47 H 0.4147 0.5344 0.9530
H48 H 0.2845 0.5313 0.9212
H49 H 0.3629 0.4278 0.9640
C24 C 0.3773(3) 0.3635(2) 0.84526(15)
H50 H 0.2911 0.4071 0.8331
H51 H 0.4255 0.3325 0.8081
H52 H 0.3707 0.3038 0.8757
C25 C 0.5843(3) 0.3695(3) 0.89514(15)
H53 H 0.6285 0.4171 0.9139
H54 H 0.5773 0.3103 0.9258
H55 H 0.6331 0.3379 0.8583
C26 C -0.1300(3) 0.9222(2) 0.75575(13)
H56 H -0.1637 0.9043 0.7166
H57 H -0.1811 0.9003 0.7911
C27 C -0.1501(3) 1.0488(2) 0.75451(12)
C28 C -0.0778(4) 1.0851(2) 0.69747(15)
H58 H 0.0141 1.0486 0.7010
H59 H -0.1098 1.0649 0.6590
H60 H -0.0916 1.1649 0.6961
C29 C -0.1014(3) 1.0806(2) 0.81513(14)
H61 H -0.0092 1.0454 0.8187
H62 H -0.1171 1.1606 0.8142
H63 H -0.1469 1.0561 0.8512
C30 C -0.2954(3) 1.1065(3) 0.7490(2)
H64 H -0.3414 1.0834 0.7854
H65 H -0.3093 1.1864 0.7476
H66 H -0.3275 1.0863 0.7106
C31 C -0.0146(3) 0.6892(2) 0.92724(13)
H67 H -0.1013 0.7005 0.9102
H68 H 0.0205 0.6095 0.9378
C32 C -0.0281(3) 0.7501(2) 0.98843(12)
C33 C -0.0836(4) 0.8745(3) 0.97496(16)
H69 H -0.0909 0.9117 1.0141
H70 H -0.0267 0.9020 0.9455
H71 H -0.1687 0.8891 0.9566
C34 C -0.1177(4) 0.7067(3) 1.03506(15)
H72 H -0.1264 0.7453 1.0738
H73 H -0.2023 0.7197 1.0165
H74 H -0.0813 0.6277 1.0444
C35 C 0.1055(4) 0.7275(4) 1.01753(16)
H75 H 0.0980 0.7662 1.0562
H76 H 0.1403 0.6484 1.0271
H77 H 0.1631 0.7537 0.9878
C36 C 0.2955(3) 0.9297(2) 0.86156(12)
H78 H 0.2940 0.9796 0.8237
H79 H 0.2287 0.9686 0.8911
C37 C 0.4284(3) 0.9073(2) 0.89260(12)
C38 C 0.4499(3) 1.0195(2) 0.90719(14)
H80 H 0.4477 1.0651 0.8682
H81 H 0.3820 1.0571 0.9358
H82 H 0.5335 1.0069 0.9267
C39 C 0.4324(3) 0.8347(3) 0.95406(13)
H83 H 0.3651 0.8722 0.9830
H84 H 0.4183 0.7643 0.9447
H85 H 0.5163 0.8215 0.9733
C40 C 0.5352(3) 0.8488(3) 0.84649(15)
H86 H 0.5320 0.8950 0.8076
H87 H 0.6191 0.8361 0.8656
H88 H 0.5217 0.7782 0.8371

#END
