./ACIYAN_from_xyz.cif_generated_by_CrystalShift
_symmetry_cell_setting triclinic
_symmetry_space_group_name_H-M 'P 1'
loop_
_symmetry_equiv_pos_site_id
_symmetry_equiv_pos_as_xyz
1 x,y,z
_cell_length_a 14.290000
_cell_length_b 17.640000
_cell_length_c 19.010000
_cell_angle_alpha 112.680000
_cell_angle_beta 96.560000
_cell_angle_gamma 97.870000
_cell_volume 4305.997811
loop_
_atom_site_label
_atom_site_type_symbol
_atom_site_fract_x
_atom_site_fract_y
_atom_site_fract_z
Y1 Y 0.478400 0.279620 0.265100
Cl2 Cl 0.980800 0.620300 0.144600
Cl3 Cl 1.015300 0.212700 0.586930
Cl4 Cl 0.220000 -0.312940 0.118000
Cl5 Cl 0.140400 0.161900 -0.251600
N6 N 0.343800 0.340400 0.231400
N7 N 0.429000 0.473100 0.238400
N8 N 0.515800 0.435700 0.332300
N9 N 0.618300 0.455800 0.450500
N10 N 0.503300 0.327600 0.408400
N11 N 0.402000 0.213500 0.420400
N12 N 0.333100 0.233100 0.307900
N13 N 0.206900 0.232800 0.210000
N14 N 0.520700 0.301900 0.153200
N15 N 0.654000 0.309700 0.285200
N16 N 0.531900 0.161200 0.281200
N17 N 0.397600 0.155900 0.149700
O18 O 0.053900 0.243700 0.099400
O19 O 0.540800 0.639800 0.255300
O20 O 0.735700 0.483300 0.595500
O21 O 0.259300 0.084100 0.436800
C22 C 0.252800 0.296000 0.198200
C23 C 0.203700 0.334300 0.153000
C24 C 0.111800 0.314600 0.107800
C25 C 0.087800 0.367300 0.073200
H26 H 0.028500 0.354100 0.041000
C27 C 0.153200 0.440400 0.086800
H28 H 0.134600 0.475500 0.064100
C29 C 0.245500 0.464000 0.133000
H30 H 0.287800 0.513200 0.142200
C31 C 0.268200 0.406600 0.163900
C32 C 0.355200 0.408200 0.213000
C33 C 0.501900 0.487700 0.295300
C34 C 0.573000 0.565500 0.332000
C35 C 0.595900 0.635800 0.316000
C36 C 0.670500 0.699800 0.367300
H37 H 0.687400 0.747600 0.358200
C38 C 0.719000 0.694200 0.430100
H39 H 0.768400 0.738300 0.462700
C40 C 0.698100 0.626100 0.447200
H41 H 0.731100 0.623600 0.491000
C42 C 0.624100 0.559500 0.395300
C43 C 0.587400 0.479500 0.393700
C44 C 0.577400 0.387300 0.458900
C45 C 0.605000 0.372600 0.526900
C46 C 0.676900 0.414400 0.593100
C47 C 0.680700 0.381300 0.648500
H48 H 0.726700 0.407900 0.693700
C49 C 0.618000 0.310100 0.638200
H50 H 0.622900 0.289600 0.676400
C51 C 0.547200 0.267700 0.572300
H52 H 0.505100 0.219300 0.565600
C53 C 0.542400 0.300500 0.517300
C54 C 0.477200 0.274400 0.442900
C55 C 0.332500 0.196300 0.360100
C56 C 0.239300 0.139900 0.343700
C57 C 0.201000 0.089100 0.378100
C58 C 0.106500 0.044600 0.346600
H59 H 0.079200 0.009000 0.367500
C60 C 0.053300 0.052000 0.285800
H61 H -0.009100 0.021200 0.266600
C62 C 0.088900 0.103200 0.252700
H63 H 0.052000 0.108800 0.212100
C64 C 0.184100 0.147100 0.283000
C65 C 0.243100 0.205600 0.262400
C66 C -0.045400 0.216100 0.058800
H67 H -0.073600 0.265800 0.067200
C68 C -0.046600 0.171500 -0.026400
H69 H -0.112900 0.150200 -0.052800
H70 H -0.018900 0.212000 -0.044900
C71 C 0.005700 0.100500 -0.049100
H72 H -0.000300 0.075400 -0.104500
H73 H -0.021200 0.059400 -0.031700
H74 H 0.072400 0.121000 -0.025700
C75 C -0.098000 0.165700 0.095400
H76 H -0.062700 0.122900 0.096600
H77 H -0.160400 0.137300 0.062800
C78 C -0.113400 0.216900 0.179300
H79 H -0.146600 0.179800 0.198300
H80 H -0.150900 0.258000 0.178800
H81 H -0.052200 0.244600 0.212500
C82 C 0.585300 0.673800 0.206600
H83 H 0.652800 0.699700 0.229900
C84 C 0.578100 0.599600 0.127300
H85 H 0.613100 0.559000 0.134400
H86 H 0.607200 0.619900 0.092600
C87 C 0.471300 0.556600 0.090400
H88 H 0.468500 0.511200 0.041200
H89 H 0.436700 0.596700 0.083000
H90 H 0.443000 0.535200 0.124200
C91 C 0.531900 0.737100 0.199100
H92 H 0.463500 0.715400 0.190400
H93 H 0.545400 0.747500 0.154400
C94 C 0.558900 0.818800 0.271000
H95 H 0.522000 0.858000 0.264500
H96 H 0.626000 0.841400 0.278500
H97 H 0.545600 0.808600 0.315300
C98 C 0.814800 0.517600 0.629100
H99 H 0.805600 0.531200 0.682600
C100 C 0.894900 0.468200 0.625900
H101 H 0.867300 0.408800 0.605600
H102 H 0.936000 0.477000 0.591400
C103 C 0.950600 0.494500 0.701900
H104 H 1.002500 0.464800 0.698800
H105 H 0.910600 0.482800 0.735100
H106 H 0.976100 0.553600 0.722500
C107 C 0.845700 0.602400 0.633200
H108 H 0.788500 0.621200 0.619300
H109 H 0.872300 0.638700 0.687100
C110 C 0.912600 0.616900 0.589000
H111 H 0.924700 0.675200 0.598200
H112 H 0.887200 0.583800 0.534700
H113 H 0.971400 0.601500 0.602900
C114 C 0.238200 0.021900 0.463700
H115 H 0.195500 -0.027600 0.422900
C116 C 0.185400 0.062500 0.532500
H117 H 0.232500 0.102200 0.576800
H118 H 0.141500 0.093400 0.517800
C119 C 0.131900 0.002200 0.555400
H120 H 0.101200 0.031200 0.597600
H121 H 0.175000 -0.027600 0.571500
H122 H 0.084000 -0.036700 0.512200
C123 C 0.325700 -0.002000 0.493100
H124 H 0.308400 -0.037300 0.520000
H125 H 0.370800 0.047900 0.529400
C126 C 0.372800 -0.050200 0.423200
H127 H 0.431500 -0.062700 0.442000
H128 H 0.386500 -0.016200 0.395200
H129 H 0.329600 -0.101500 0.389400
C130 C 0.457600 0.278300 0.083400
C131 C 0.493700 0.324600 0.042000
H132 H 0.464400 0.321300 -0.005600
C133 C 0.579000 0.374900 0.085100
H134 H 0.618000 0.412800 0.072600
C135 C 0.597900 0.358600 0.154000
C136 C 0.682500 0.393400 0.209700
C137 C 0.706600 0.370200 0.270000
C138 C 0.797400 0.399300 0.321500
H139 H 0.845700 0.441900 0.324100
C140 C 0.801600 0.356400 0.364300
H141 H 0.852400 0.363200 0.402800
C142 C 0.711800 0.296500 0.340100
C143 C 0.694200 0.229800 0.362200
C144 C 0.612300 0.165600 0.331700
C145 C 0.602800 0.089600 0.343200
H146 H 0.646100 0.077400 0.375800
C147 C 0.520700 0.039100 0.298700
H148 H 0.496700 -0.014500 0.294500
C149 C 0.477000 0.082500 0.259000
C150 C 0.394000 0.046500 0.200600
C151 C 0.357500 0.081800 0.151400
C152 C 0.275900 0.038800 0.087900
H153 H 0.235900 -0.012100 0.076900
C154 C 0.270100 0.087500 0.048100
H155 H 0.223900 0.077200 0.005200
C156 C 0.349400 0.158900 0.084800
C157 C 0.374700 0.215100 0.053500
C158 C 0.758200 0.452300 0.194600
C159 C 0.784600 0.534400 0.243000
H160 H 0.757800 0.556100 0.287200
C161 C 0.853000 0.586600 0.225800
H162 H 0.870400 0.643400 0.258200
C163 C 0.893700 0.555300 0.162900
C164 C 0.868600 0.473100 0.115100
H165 H 0.896600 0.452000 0.071600
C166 C 0.801200 0.420100 0.130600
H167 H 0.785100 0.363300 0.098300
C168 C 0.772000 0.221500 0.416700
C169 C 0.760800 0.229100 0.489700
H170 H 0.701900 0.236900 0.504700
C171 C 0.834600 0.225300 0.542200
H172 H 0.824200 0.229900 0.591000
C173 C 0.922100 0.215000 0.522200
C174 C 0.936900 0.206300 0.450900
H175 H 0.996500 0.198800 0.437300
C176 C 0.861700 0.208600 0.396600
H177 H 0.872000 0.201500 0.347200
C178 C 0.349400 -0.042000 0.181900
C179 C 0.279200 -0.064500 0.215800
H180 H 0.256600 -0.022800 0.253100
C181 C 0.240600 -0.145400 0.197500
H182 H 0.193300 -0.158200 0.223200
C183 C 0.270100 -0.208400 0.141900
C184 C 0.338000 -0.188600 0.105300
H185 H 0.357900 -0.230900 0.066400
C186 C 0.378300 -0.106500 0.124800
H187 H 0.425800 -0.093700 0.099200
C188 C 0.319600 0.202100 -0.022700
C189 C 0.316000 0.131500 -0.089000
H190 H 0.351000 0.091400 -0.086900
C191 C 0.260300 0.119300 -0.159300
H192 H 0.258500 0.071400 -0.203700
C193 C 0.209500 0.176900 -0.162700
C194 C 0.212100 0.250200 -0.099400
H195 H 0.177900 0.290300 -0.102500
C196 C 0.269200 0.260900 -0.030000
H197 H 0.273400 0.310300 0.013400
Y198 Y 0.521600 0.720380 0.734900
Cl199 Cl 0.019200 0.379700 0.855400
Cl200 Cl -0.015300 0.787300 0.413070
Cl201 Cl 0.780000 1.312940 0.882000
Cl202 Cl 0.859600 0.838100 1.251600
N203 N 0.656200 0.659600 0.768600
N204 N 0.571000 0.526900 0.761600
N205 N 0.484200 0.564300 0.667700
N206 N 0.381700 0.544200 0.549500
N207 N 0.496700 0.672400 0.591600
N208 N 0.598000 0.786500 0.579600
N209 N 0.666900 0.766900 0.692100
N210 N 0.793100 0.767200 0.790000
N211 N 0.479300 0.698100 0.846800
N212 N 0.346000 0.690300 0.714800
N213 N 0.468100 0.838800 0.718800
N214 N 0.602400 0.844100 0.850300
O215 O 0.946100 0.756300 0.900600
O216 O 0.459200 0.360200 0.744700
O217 O 0.264300 0.516700 0.404500
O218 O 0.740700 0.915900 0.563200
C219 C 0.747200 0.704000 0.801800
C220 C 0.796300 0.665700 0.847000
C221 C 0.888200 0.685400 0.892200
C222 C 0.912200 0.632700 0.926800
H223 H 0.971500 0.645900 0.959000
C224 C 0.846800 0.559600 0.913200
H225 H 0.865400 0.524500 0.935900
C226 C 0.754500 0.536000 0.867000
H227 H 0.712200 0.486800 0.857800
C228 C 0.731800 0.593400 0.836100
C229 C 0.644800 0.591800 0.787000
C230 C 0.498100 0.512300 0.704700
C231 C 0.427000 0.434500 0.668000
C232 C 0.404100 0.364200 0.684000
C233 C 0.329500 0.300200 0.632700
H234 H 0.312600 0.252400 0.641800
C235 C 0.281000 0.305800 0.569900
H236 H 0.231600 0.261700 0.537300
C237 C 0.301900 0.373900 0.552800
H238 H 0.268900 0.376400 0.509000
C239 C 0.375900 0.440500 0.604700
C240 C 0.412600 0.520500 0.606300
C241 C 0.422600 0.612700 0.541100
C242 C 0.395000 0.627400 0.473100
C243 C 0.323100 0.585600 0.406900
C244 C 0.319300 0.618700 0.351500
H245 H 0.273300 0.592100 0.306300
C246 C 0.382000 0.689900 0.361800
H247 H 0.377100 0.710400 0.323600
C248 C 0.452800 0.732300 0.427700
H249 H 0.494900 0.780700 0.434400
C250 C 0.457600 0.699500 0.482700
C251 C 0.522800 0.725600 0.557100
C252 C 0.667500 0.803700 0.639900
C253 C 0.760700 0.860100 0.656300
C254 C 0.799000 0.910900 0.621900
C255 C 0.893500 0.955400 0.653400
H256 H 0.920800 0.991000 0.632500
C257 C 0.946700 0.948000 0.714200
H258 H 1.009100 0.978800 0.733400
C259 C 0.911100 0.896800 0.747300
H260 H 0.948000 0.891200 0.787900
C261 C 0.815900 0.852900 0.717000
C262 C 0.756900 0.794400 0.737600
C263 C 1.045400 0.783900 0.941200
H264 H 1.073600 0.734200 0.932800
C265 C 1.046600 0.828500 1.026400
H266 H 1.112900 0.849800 1.052800
H267 H 1.018900 0.788000 1.044900
C268 C 0.994300 0.899500 1.049100
H269 H 1.000300 0.924600 1.104500
H270 H 1.021200 0.940600 1.031700
H271 H 0.927600 0.879000 1.025700
C272 C 1.098000 0.834300 0.904600
H273 H 1.062700 0.877100 0.903400
H274 H 1.160400 0.862700 0.937200
C275 C 1.113400 0.783100 0.820700
H276 H 1.146600 0.820200 0.801700
H277 H 1.150900 0.742000 0.821200
H278 H 1.052200 0.755400 0.787500
C279 C 0.414700 0.326200 0.793400
H280 H 0.347200 0.300300 0.770100
C281 C 0.421900 0.400400 0.872700
H282 H 0.386900 0.441000 0.865600
H283 H 0.392800 0.380100 0.907400
C284 C 0.528700 0.443400 0.909600
H285 H 0.531500 0.488800 0.958800
H286 H 0.563300 0.403300 0.917000
H287 H 0.557000 0.464800 0.875800
C288 C 0.468100 0.262900 0.800900
H289 H 0.536500 0.284600 0.809600
H290 H 0.454600 0.252500 0.845600
C291 C 0.441100 0.181200 0.729000
H292 H 0.478000 0.142000 0.735500
H293 H 0.374000 0.158600 0.721500
H294 H 0.454400 0.191400 0.684700
C295 C 0.185200 0.482400 0.370900
H296 H 0.194400 0.468800 0.317400
C297 C 0.105100 0.531800 0.374100
H298 H 0.132700 0.591200 0.394400
H299 H 0.064000 0.523000 0.408600
C300 C 0.049400 0.505500 0.298100
H301 H -0.002500 0.535200 0.301200
H302 H 0.089400 0.517200 0.264900
H303 H 0.023900 0.446400 0.277500
C304 C 0.154300 0.397600 0.366800
H305 H 0.211500 0.378800 0.380700
H306 H 0.127700 0.361300 0.312900
C307 C 0.087400 0.383100 0.411000
H308 H 0.075300 0.324800 0.401800
H309 H 0.112800 0.416200 0.465300
H310 H 0.028600 0.398500 0.397100
C311 C 0.761800 0.978100 0.536300
H312 H 0.804500 1.027600 0.577100
C313 C 0.814600 0.937500 0.467500
H314 H 0.767500 0.897800 0.423200
H315 H 0.858500 0.906600 0.482200
C316 C 0.868100 0.997800 0.444600
H317 H 0.898800 0.968800 0.402400
H318 H 0.825000 1.027600 0.428500
H319 H 0.916000 1.036700 0.487800
C320 C 0.674300 1.002000 0.506900
H321 H 0.691600 1.037300 0.480000
H322 H 0.629200 0.952100 0.470600
C323 C 0.627200 1.050200 0.576800
H324 H 0.568500 1.062700 0.558000
H325 H 0.613500 1.016200 0.604800
H326 H 0.670400 1.101500 0.610600
C327 C 0.542400 0.721700 0.916600
C328 C 0.506300 0.675400 0.958000
H329 H 0.535600 0.678700 1.005600
C330 C 0.421000 0.625100 0.914900
H331 H 0.382000 0.587200 0.927400
C332 C 0.402100 0.641400 0.846000
C333 C 0.317500 0.606600 0.790300
C334 C 0.293400 0.629800 0.730000
C335 C 0.202600 0.600700 0.678500
H336 H 0.154300 0.558100 0.675900
C337 C 0.198400 0.643600 0.635700
H338 H 0.147600 0.636800 0.597200
C339 C 0.288200 0.703500 0.659900
C340 C 0.305800 0.770200 0.637800
C341 C 0.387700 0.834400 0.668300
C342 C 0.397200 0.910400 0.656800
H343 H 0.353900 0.922600 0.624200
C344 C 0.479300 0.960900 0.701300
H345 H 0.503300 1.014500 0.705500
C346 C 0.523000 0.917500 0.741000
C347 C 0.606000 0.953500 0.799400
C348 C 0.642500 0.918200 0.848600
C349 C 0.724100 0.961200 0.912100
H350 H 0.764100 1.012100 0.923100
C351 C 0.729900 0.912500 0.951900
H352 H 0.776100 0.922800 0.994800
C353 C 0.650600 0.841100 0.915200
C354 C 0.625300 0.784900 0.946500
C355 C 0.241800 0.547700 0.805400
C356 C 0.215400 0.465600 0.757000
H357 H 0.242200 0.443900 0.712800
C358 C 0.147000 0.413400 0.774200
H359 H 0.129600 0.356600 0.741800
C360 C 0.106300 0.444700 0.837100
C361 C 0.131400 0.526900 0.884900
H362 H 0.103400 0.548000 0.928400
C363 C 0.198800 0.579900 0.869400
H364 H 0.214900 0.636700 0.901700
C365 C 0.228000 0.778500 0.583300
C366 C 0.239200 0.770900 0.510300
H367 H 0.298100 0.763100 0.495300
C368 C 0.165400 0.774700 0.457800
H369 H 0.175800 0.770100 0.409000
C370 C 0.077900 0.785000 0.477800
C371 C 0.063100 0.793700 0.549100
H372 H 0.003500 0.801200 0.562700
C373 C 0.138300 0.791400 0.603400
H374 H 0.128000 0.798500 0.652800
C375 C 0.650600 1.042000 0.818100
C376 C 0.720800 1.064500 0.784200
H377 H 0.743400 1.022800 0.746900
C378 C 0.759400 1.145400 0.802500
H379 H 0.806700 1.158200 0.776800
C380 C 0.729900 1.208400 0.858100
C381 C 0.662000 1.188600 0.894700
H382 H 0.642100 1.230900 0.933600
C383 C 0.621700 1.106500 0.875200
H384 H 0.574200 1.093700 0.900800
C385 C 0.680400 0.797900 1.022700
C386 C 0.684000 0.868500 1.089000
H387 H 0.649000 0.908600 1.086900
C388 C 0.739700 0.880700 1.159300
H389 H 0.741500 0.928600 1.203700
C390 C 0.790500 0.823100 1.162700
C391 C 0.787900 0.749800 1.099400
H392 H 0.822100 0.709700 1.102500
C393 C 0.730800 0.739100 1.030000
H394 H 0.726600 0.689700 0.986600
Cl395 Cl 0.678700 0.085600 0.154000
Cl396 Cl 0.533900 0.029500 0.035600
Cl397 Cl 0.657300 0.170100 0.065900
C398 C 0.603000 0.114300 0.102200
H399 H 0.563000 0.147100 0.135900
Cl400 Cl 0.321300 0.914400 0.846000
Cl401 Cl 0.466100 0.970500 0.964400
Cl402 Cl 0.342700 0.829900 0.934100
C403 C 0.397000 0.885700 0.897800
H404 H 0.437000 0.852900 0.864100

#END
