
#######################################################################
#
#                 Cambridge Crystallographic Data Centre
#                                CCDC 
#
#######################################################################
#
# If this CIF has been generated from an entry in the Cambridge 
# Structural Database, then it will include bibliographic, chemical, 
# crystal, experimental, refinement or atomic coordinate data resulting 
# from the CCDC's data processing and validation procedures.
#
#######################################################################

data_ACIZAP
_symmetry_cell_setting           monoclinic
_symmetry_space_group_name_H-M   'P 21/n'
_symmetry_Int_Tables_number      14
_space_group_name_Hall           '-P 2yn'
loop_
_symmetry_equiv_pos_site_id
_symmetry_equiv_pos_as_xyz
1 x,y,z
2 1/2-x,1/2+y,1/2-z
3 -x,-y,-z
4 1/2+x,1/2-y,1/2+z
_cell_length_a                   8.3977(11)
_cell_length_b                   17.1272(16)
_cell_length_c                   10.6981(12)
_cell_angle_alpha                90
_cell_angle_beta                 93.352(14)
_cell_angle_gamma                90
_cell_volume                     1536.07
loop_
_atom_site_label
_atom_site_type_symbol
_atom_site_fract_x
_atom_site_fract_y
_atom_site_fract_z
S1 S 0.33400(4) 0.03070(2) 0.63353(3)
N1 N 0.28561(14) 0.03250(7) 0.38826(12)
N2 N 0.12169(15) 0.11299(7) 0.49467(13)
C1 C 0.24219(14) 0.06115(7) 0.49823(13)
C2 C 0.06596(15) 0.15502(7) 0.59787(13)
C3 C -0.09383(16) 0.15015(8) 0.62098(15)
C4 C 0.16738(17) 0.20374(8) 0.66852(15)
C5 C 0.10838(19) 0.24748(8) 0.76461(15)
C6 C -0.0530(2) 0.24287(8) 0.78564(16)
C7 C -0.15550(18) 0.19550(9) 0.71449(16)
C8 C 0.2169(3) 0.29823(11) 0.8456(2)
C9 C -0.3307(3) 0.19491(17) 0.7359(3)
C10 C 0.29601(15) 0.09880(7) 0.06096(14)
C11 C 0.23008(14) 0.05594(7) 0.26617(13)
C12 C 0.34263(14) 0.07583(7) 0.18196(14)
C13 C 0.06826(15) 0.05727(7) 0.22855(13)
C14 C -0.15443(17) 0.08767(10) 0.06869(17)
C15 C 0.01946(15) 0.08257(7) 0.10938(14)
C16 C 0.41901(19) 0.11948(11) -0.02933(17)
C17 C 0.13421(16) 0.10315(8) 0.02670(14)
H1 H -0.175(3) 0.0709(14) -0.019(2)
H2 H -0.190(3) 0.1401(15) 0.072(2)
H3 H -0.217(3) 0.0585(17) 0.122(3)
H4 H 0.162(4) 0.349(2) 0.856(3)
H5 H 0.236(3) 0.2739(16) 0.928(3)
H6 H 0.318(4) 0.3050(19) 0.815(3)
H7 H 0.373(3) 0.1279(15) -0.107(3)
H8 H 0.474(3) 0.1688(16) 0.000(3)
H9 H 0.493(3) 0.0794(15) -0.036(2)
H10 H 0.449(2) 0.0747(11) 0.2074(19)
H11 H -0.163(2) 0.1150(10) 0.5719(19)
H12 H 0.100(2) 0.1185(10) -0.0555(19)
H13 H 0.075(2) 0.1213(11) 0.425(2)
H14 H -0.005(2) 0.0378(10) 0.2845(19)
H15 H 0.277(3) 0.2049(11) 0.648(2)
H16 H -0.096(2) 0.2753(12) 0.857(2)
H17 H 0.366(3) 0.0126(11) 0.3935(19)
H18 H -0.346(4) 0.211(2) 0.823(4)
H19 H -0.365(4) 0.146(2) 0.734(3)
H20 H -0.392(5) 0.232(3) 0.694(4)
S1 S 0.16600(4) 0.53070(2) -0.13353(3)
N1 N 0.21439(14) 0.53250(7) 0.11174(12)
N2 N 0.37831(15) 0.61299(7) 0.00533(13)
C1 C 0.25781(14) 0.56115(7) 0.00177(13)
C2 C 0.43404(15) 0.65502(7) -0.09787(13)
C3 C 0.59383(16) 0.65015(8) -0.12098(15)
C4 C 0.33262(17) 0.70374(8) -0.16852(15)
C5 C 0.39162(19) 0.74748(8) -0.26461(15)
C6 C 0.5530(2) 0.74287(8) -0.28564(16)
C7 C 0.65550(18) 0.69550(9) -0.21449(16)
C8 C 0.2831(3) 0.79823(11) -0.3456(2)
C9 C 0.8307(3) 0.69491(17) -0.2359(3)
C10 C 0.20399(15) 0.59880(7) 0.43904(14)
C11 C 0.26992(14) 0.55594(7) 0.23383(13)
C12 C 0.15737(14) 0.57583(7) 0.31804(14)
C13 C 0.43174(15) 0.55727(7) 0.27145(13)
C14 C 0.65443(17) 0.58767(10) 0.43131(17)
C15 C 0.48054(15) 0.58257(7) 0.39062(14)
C16 C 0.08099(19) 0.61948(11) 0.52933(17)
C17 C 0.36579(16) 0.60315(8) 0.47330(14)
H1 H 0.675(3) 0.5709(14) 0.519(2)
H2 H 0.690(3) 0.6401(15) 0.428(2)
H3 H 0.717(3) 0.5585(17) 0.378(3)
H4 H 0.338(4) 0.849(2) -0.356(3)
H5 H 0.264(3) 0.7739(16) -0.428(3)
H6 H 0.182(4) 0.8050(19) -0.315(3)
H7 H 0.127(3) 0.6279(15) 0.607(3)
H8 H 0.026(3) 0.6688(16) 0.500(3)
H9 H 0.007(3) 0.5794(15) 0.536(2)
H10 H 0.051(2) 0.5747(11) 0.2926(19)
H11 H 0.663(2) 0.6150(10) -0.0719(19)
H12 H 0.400(2) 0.6185(10) 0.5555(19)
H13 H 0.425(2) 0.6213(11) 0.075(2)
H14 H 0.505(2) 0.5378(10) 0.2155(19)
H15 H 0.223(3) 0.7049(11) -0.148(2)
H16 H 0.596(2) 0.7753(12) -0.357(2)
H17 H 0.134(3) 0.5126(11) 0.1065(19)
H18 H 0.846(4) 0.711(2) -0.323(4)
H19 H 0.865(4) 0.646(2) -0.234(3)
H20 H 0.892(5) 0.732(3) -0.194(4)
S1 S 0.66600(4) 0.96930(2) 0.36647(3)
N1 N 0.71439(14) 0.96750(7) 0.61174(12)
N2 N 0.87831(15) 0.88701(7) 0.50533(13)
C1 C 0.75781(14) 0.93885(7) 0.50177(13)
C2 C 0.93404(15) 0.84498(7) 0.40213(13)
C3 C 1.09383(16) 0.84985(8) 0.37902(15)
C4 C 0.83262(17) 0.79626(8) 0.33148(15)
C5 C 0.89162(19) 0.75252(8) 0.23539(15)
C6 C 1.0530(2) 0.75713(8) 0.21436(16)
C7 C 1.15550(18) 0.80450(9) 0.28551(16)
C8 C 0.7831(3) 0.70177(11) 0.1544(2)
C9 C 1.3307(3) 0.80509(17) 0.2641(3)
C10 C 0.70399(15) 0.90120(7) 0.93904(14)
C11 C 0.76992(14) 0.94406(7) 0.73383(13)
C12 C 0.65737(14) 0.92417(7) 0.81804(14)
C13 C 0.93174(15) 0.94273(7) 0.77145(13)
C14 C 1.15443(17) 0.91233(10) 0.93131(17)
C15 C 0.98054(15) 0.91743(7) 0.89062(14)
C16 C 0.58099(19) 0.88052(11) 1.02933(17)
C17 C 0.86579(16) 0.89685(8) 0.97330(14)
H1 H 1.175(3) 0.9291(14) 1.019(2)
H2 H 1.190(3) 0.8599(15) 0.928(2)
H3 H 1.217(3) 0.9415(17) 0.878(3)
H4 H 0.838(4) 0.651(2) 0.144(3)
H5 H 0.764(3) 0.7261(16) 0.072(3)
H6 H 0.682(4) 0.6950(19) 0.185(3)
H7 H 0.627(3) 0.8721(15) 1.107(3)
H8 H 0.526(3) 0.8312(16) 1.000(3)
H9 H 0.507(3) 0.9206(15) 1.036(2)
H10 H 0.551(2) 0.9253(11) 0.7926(19)
H11 H 1.163(2) 0.8850(10) 0.4281(19)
H12 H 0.900(2) 0.8815(10) 1.0555(19)
H13 H 0.925(2) 0.8787(11) 0.575(2)
H14 H 1.005(2) 0.9622(10) 0.7155(19)
H15 H 0.723(3) 0.7951(11) 0.352(2)
H16 H 1.096(2) 0.7247(12) 0.143(2)
H17 H 0.634(3) 0.9874(11) 0.6065(19)
H18 H 1.346(4) 0.789(2) 0.177(4)
H19 H 1.365(4) 0.854(2) 0.266(3)
H20 H 1.392(5) 0.768(3) 0.306(4)
S1 S 0.83400(4) 0.46930(2) 1.13353(3)
N1 N 0.78561(14) 0.46750(7) 0.88826(12)
N2 N 0.62169(15) 0.38701(7) 0.99467(13)
C1 C 0.74219(14) 0.43885(7) 0.99823(13)
C2 C 0.56596(15) 0.34498(7) 1.09787(13)
C3 C 0.40617(16) 0.34985(8) 1.12098(15)
C4 C 0.66738(17) 0.29626(8) 1.16852(15)
C5 C 0.60838(19) 0.25252(8) 1.26461(15)
C6 C 0.4470(2) 0.25713(8) 1.28564(16)
C7 C 0.34450(18) 0.30450(9) 1.21449(16)
C8 C 0.7169(3) 0.20177(11) 1.3456(2)
C9 C 0.1693(3) 0.30509(17) 1.2359(3)
C10 C 0.79601(15) 0.40120(7) 0.56096(14)
C11 C 0.73008(14) 0.44406(7) 0.76617(13)
C12 C 0.84263(14) 0.42417(7) 0.68196(14)
C13 C 0.56826(15) 0.44273(7) 0.72855(13)
C14 C 0.34557(17) 0.41233(10) 0.56869(17)
C15 C 0.51946(15) 0.41743(7) 0.60938(14)
C16 C 0.91901(19) 0.38052(11) 0.47067(17)
C17 C 0.63421(16) 0.39685(8) 0.52670(14)
H1 H 0.325(3) 0.4291(14) 0.481(2)
H2 H 0.310(3) 0.3599(15) 0.572(2)
H3 H 0.283(3) 0.4415(17) 0.622(3)
H4 H 0.662(4) 0.151(2) 1.356(3)
H5 H 0.736(3) 0.2261(16) 1.428(3)
H6 H 0.818(4) 0.1950(19) 1.315(3)
H7 H 0.873(3) 0.3721(15) 0.393(3)
H8 H 0.974(3) 0.3312(16) 0.500(3)
H9 H 0.993(3) 0.4206(15) 0.464(2)
H10 H 0.949(2) 0.4253(11) 0.7074(19)
H11 H 0.337(2) 0.3850(10) 1.0719(19)
H12 H 0.600(2) 0.3815(10) 0.4445(19)
H13 H 0.575(2) 0.3787(11) 0.925(2)
H14 H 0.495(2) 0.4622(10) 0.7845(19)
H15 H 0.777(3) 0.2951(11) 1.148(2)
H16 H 0.404(2) 0.2247(12) 1.357(2)
H17 H 0.866(3) 0.4874(11) 0.8935(19)
H18 H 0.154(4) 0.289(2) 1.323(4)
H19 H 0.135(4) 0.354(2) 1.234(3)
H20 H 0.108(5) 0.268(3) 1.194(4)

#END
