./ACLTRY01_from_xyz.cif_generated_by_CrystalShift
_symmetry_cell_setting triclinic
_symmetry_space_group_name_H-M 'P 1'
loop_
_symmetry_equiv_pos_site_id
_symmetry_equiv_pos_as_xyz
1 x,y,z
_cell_length_a 23.418000
_cell_length_b 6.152000
_cell_length_c 8.384000
_cell_angle_alpha 90.000000
_cell_angle_beta 94.702000
_cell_angle_gamma 90.000000
_cell_volume 1203.797212
loop_
_atom_site_label
_atom_site_type_symbol
_atom_site_fract_x
_atom_site_fract_y
_atom_site_fract_z
C1 C 0.198200 0.904800 0.595000
H2 H 0.227100 0.959000 0.670800
C3 C 0.113000 0.868600 0.454300
C4 C 0.056100 0.891100 0.392300
H5 H 0.031900 1.001900 0.427900
C6 C 0.037200 0.742800 0.276400
H7 H -0.001300 0.752400 0.230800
C8 C 0.072100 0.580900 0.224100
H9 H 0.056700 0.483600 0.143600
C10 C 0.128500 0.554900 0.284500
H11 H 0.151800 0.441500 0.248200
C12 C 0.150100 0.704800 0.402800
C13 C 0.204900 0.731400 0.494500
C14 C 0.257600 0.598500 0.481300
H15 H 0.246200 0.456200 0.433700
H16 H 0.275600 0.570800 0.590400
C17 C 0.302700 0.701000 0.381000
H18 H 0.284700 0.732400 0.271200
C19 C 0.396500 0.591500 0.296900
C20 C 0.443700 0.429600 0.305000
H21 H 0.475500 0.485700 0.247900
H22 H 0.429800 0.293400 0.255300
H23 H 0.457000 0.403000 0.417200
C24 C 0.324900 0.910100 0.456300
N25 N 0.144800 0.986900 0.570700
H26 H 0.130000 1.090000 0.620000
N27 N 0.349600 0.544200 0.369000
H28 H 0.342000 0.410000 0.394000
O29 O 0.402200 0.773400 0.232100
O30 O 0.307700 1.088500 0.411500
O31 O 0.361900 0.879200 0.581400
H32 H 0.367000 1.003000 0.627000
C33 C 0.198200 0.095200 1.095000
H34 H 0.227100 0.041000 1.170800
C35 C 0.113000 0.131400 0.954300
C36 C 0.056100 0.108900 0.892300
H37 H 0.031900 -0.001900 0.927900
C38 C 0.037200 0.257200 0.776400
H39 H -0.001300 0.247600 0.730800
C40 C 0.072100 0.419100 0.724100
H41 H 0.056700 0.516400 0.643600
C42 C 0.128500 0.445100 0.784500
H43 H 0.151800 0.558500 0.748200
C44 C 0.150100 0.295200 0.902800
C45 C 0.204900 0.268600 0.994500
C46 C 0.257600 0.401500 0.981300
H47 H 0.246200 0.543800 0.933700
H48 H 0.275600 0.429200 1.090400
C49 C 0.302700 0.299000 0.881000
H50 H 0.284700 0.267600 0.771200
C51 C 0.396500 0.408500 0.796900
C52 C 0.443700 0.570400 0.805000
H53 H 0.475500 0.514300 0.747900
H54 H 0.429800 0.706600 0.755300
H55 H 0.457000 0.597000 0.917200
C56 C 0.324900 0.089900 0.956300
N57 N 0.144800 0.013100 1.070700
H58 H 0.130000 -0.090000 1.120000
N59 N 0.349600 0.455800 0.869000
H60 H 0.342000 0.590000 0.894000
O61 O 0.402200 0.226600 0.732100
O62 O 0.307700 -0.088500 0.911500
O63 O 0.361900 0.120800 1.081400
H64 H 0.367000 -0.003000 1.127000
C65 C 0.771700 0.597600 0.994000
H66 H 0.742600 0.544300 1.056100
C67 C 0.856900 0.632300 0.893700
C68 C 0.913600 0.613800 0.857800
H69 H 0.937800 0.504600 0.906400
C70 C 0.933300 0.756700 0.750800
H71 H 0.971700 0.744800 0.722700
C72 C 0.897700 0.922300 0.681100
H73 H 0.912300 1.020900 0.607400
C74 C 0.841500 0.941600 0.719800
H75 H 0.817800 1.054100 0.673500
C76 C 0.819800 0.795300 0.827000
C77 C 0.765700 0.765300 0.890500
C78 C 0.712300 0.900500 0.856900
H79 H 0.723200 1.044100 0.815800
H80 H 0.694600 0.924900 0.958700
C81 C 0.667000 0.796300 0.734600
H82 H 0.685300 0.764200 0.633400
C83 C 0.572000 0.897400 0.612500
C84 C 0.525500 1.067100 0.598000
H85 H 0.492200 1.010100 0.532400
H86 H 0.539700 1.197800 0.547400
H87 H 0.514200 1.103700 0.704700
C88 C 0.645500 0.583400 0.803100
N89 N 0.827000 0.514500 0.996200
H90 H 0.842000 0.412000 1.054000
N91 N 0.620500 0.951900 0.700200
H92 H 0.625000 1.084000 0.734000
O93 O 0.565500 0.718900 0.549800
O94 O 0.662400 0.407900 0.767200
O95 O 0.608700 0.621100 0.912800
H96 H 0.595000 0.496000 0.930000
C97 C 0.771700 0.402400 0.494000
H98 H 0.742600 0.455700 0.556100
C99 C 0.856900 0.367700 0.393700
C100 C 0.913600 0.386200 0.357800
H101 H 0.937800 0.495400 0.406400
C102 C 0.933300 0.243300 0.250800
H103 H 0.971700 0.255200 0.222700
C104 C 0.897700 0.077700 0.181100
H105 H 0.912300 -0.020900 0.107400
C106 C 0.841500 0.058400 0.219800
H107 H 0.817800 -0.054100 0.173500
C108 C 0.819800 0.204700 0.327000
C109 C 0.765700 0.234700 0.390500
C110 C 0.712300 0.099500 0.356900
H111 H 0.723200 -0.044100 0.315800
H112 H 0.694600 0.075100 0.458700
C113 C 0.667000 0.203700 0.234600
H114 H 0.685300 0.235800 0.133400
C115 C 0.572000 0.102600 0.112500
C116 C 0.525500 -0.067100 0.098000
H117 H 0.492200 -0.010100 0.032400
H118 H 0.539700 -0.197800 0.047400
H119 H 0.514200 -0.103700 0.204700
C120 C 0.645500 0.416600 0.303100
N121 N 0.827000 0.485500 0.496200
H122 H 0.842000 0.588000 0.554000
N123 N 0.620500 0.048100 0.200200
H124 H 0.625000 -0.084000 0.234000
O125 O 0.565500 0.281100 0.049800
O126 O 0.662400 0.592100 0.267200
O127 O 0.608700 0.378900 0.412800
H128 H 0.595000 0.504000 0.430000

#END
