
#######################################################################
#
#                 Cambridge Crystallographic Data Centre
#                                CCDC 
#
#######################################################################
#
# If this CIF has been generated from an entry in the Cambridge 
# Structural Database, then it will include bibliographic, chemical, 
# crystal, experimental, refinement or atomic coordinate data resulting 
# from the CCDC's data processing and validation procedures.
#
#######################################################################

data_ACMEPT10
_symmetry_cell_setting           monoclinic
_symmetry_space_group_name_H-M   'P 21/c'
_symmetry_Int_Tables_number      14
_space_group_name_Hall           '-P 2ybc'
loop_
_symmetry_equiv_pos_site_id
_symmetry_equiv_pos_as_xyz
1 x,y,z
2 -x,1/2+y,1/2-z
3 -x,-y,-z
4 x,1/2-y,1/2+z
_cell_length_a                   6.5497(5)
_cell_length_b                   12.654(1)
_cell_length_c                   13.887(2)
_cell_angle_alpha                90
_cell_angle_beta                 101.902(8)
_cell_angle_gamma                90
_cell_volume                     1126.21
loop_
_atom_site_label
_atom_site_type_symbol
_atom_site_fract_x
_atom_site_fract_y
_atom_site_fract_z
C1 C 0.40150 0.12850 0.99420
C2 C 0.23250 0.11660 0.90090
C3 C 0.25650 0.21720 0.94650
C4 C 0.36760 0.19710 0.86160
C5 C 0.55680 0.16050 0.93400
O1 O 0.74210 0.16070 0.94140
C6 C 0.07770 0.03510 0.86250
O2 O 0.19090 -0.05650 0.84040
C7 C 0.07650 -0.14400 0.81810
O3 O -0.10780 -0.14600 0.81490
C8 C 0.20640 -0.23500 0.80090
C9 C 0.14800 0.30500 0.98440
O4 O 0.30790 0.37560 1.03350
C10 C 0.25150 0.44550 1.09570
O5 O 0.08000 0.44910 1.11250
C11 C 0.43170 0.51220 1.14220
H1 H 0.40500 0.09800 1.05700
H2 H 0.34500 0.22900 0.80000
H3 H -0.01200 0.05800 0.80000
H4 H -0.00500 0.01400 0.91100
H5 H 0.35800 -0.22400 0.81600
H6 H 0.17800 -0.25200 0.73000
H7 H 0.18200 -0.29600 0.83100
H8 H 0.06200 0.34400 0.93000
H9 H 0.07600 0.27800 1.03100
H10 H 0.41100 0.56400 1.10100
H11 H 0.42200 0.54200 1.19500
H12 H 0.55300 0.50100 1.12200
C1 C 0.59850 0.62850 0.50580
C2 C 0.76750 0.61660 0.59910
C3 C 0.74350 0.71720 0.55350
C4 C 0.63240 0.69710 0.63840
C5 C 0.44320 0.66050 0.56600
O1 O 0.25790 0.66070 0.55860
C6 C 0.92230 0.53510 0.63750
O2 O 0.80910 0.44350 0.65960
C7 C 0.92350 0.35600 0.68190
O3 O 1.10780 0.35400 0.68510
C8 C 0.79360 0.26500 0.69910
C9 C 0.85200 0.80500 0.51560
O4 O 0.69210 0.87560 0.46650
C10 C 0.74850 0.94550 0.40430
O5 O 0.92000 0.94910 0.38750
C11 C 0.56830 1.01220 0.35780
H1 H 0.59500 0.59800 0.44300
H2 H 0.65500 0.72900 0.70000
H3 H 1.01200 0.55800 0.70000
H4 H 1.00500 0.51400 0.58900
H5 H 0.64200 0.27600 0.68400
H6 H 0.82200 0.24800 0.77000
H7 H 0.81800 0.20400 0.66900
H8 H 0.93800 0.84400 0.57000
H9 H 0.92400 0.77800 0.46900
H10 H 0.58900 1.06400 0.39900
H11 H 0.57800 1.04200 0.30500
H12 H 0.44700 1.00100 0.37800
C1 C 0.59850 0.87150 0.00580
C2 C 0.76750 0.88340 0.09910
C3 C 0.74350 0.78280 0.05350
C4 C 0.63240 0.80290 0.13840
C5 C 0.44320 0.83950 0.06600
O1 O 0.25790 0.83930 0.05860
C6 C 0.92230 0.96490 0.13750
O2 O 0.80910 1.05650 0.15960
C7 C 0.92350 1.14400 0.18190
O3 O 1.10780 1.14600 0.18510
C8 C 0.79360 1.23500 0.19910
C9 C 0.85200 0.69500 0.01560
O4 O 0.69210 0.62440 -0.03350
C10 C 0.74850 0.55450 -0.09570
O5 O 0.92000 0.55090 -0.11250
C11 C 0.56830 0.48780 -0.14220
H1 H 0.59500 0.90200 -0.05700
H2 H 0.65500 0.77100 0.20000
H3 H 1.01200 0.94200 0.20000
H4 H 1.00500 0.98600 0.08900
H5 H 0.64200 1.22400 0.18400
H6 H 0.82200 1.25200 0.27000
H7 H 0.81800 1.29600 0.16900
H8 H 0.93800 0.65600 0.07000
H9 H 0.92400 0.72200 -0.03100
H10 H 0.58900 0.43600 -0.10100
H11 H 0.57800 0.45800 -0.19500
H12 H 0.44700 0.49900 -0.12200
C1 C 0.40150 0.37150 0.49420
C2 C 0.23250 0.38340 0.40090
C3 C 0.25650 0.28280 0.44650
C4 C 0.36760 0.30290 0.36160
C5 C 0.55680 0.33950 0.43400
O1 O 0.74210 0.33930 0.44140
C6 C 0.07770 0.46490 0.36250
O2 O 0.19090 0.55650 0.34040
C7 C 0.07650 0.64400 0.31810
O3 O -0.10780 0.64600 0.31490
C8 C 0.20640 0.73500 0.30090
C9 C 0.14800 0.19500 0.48440
O4 O 0.30790 0.12440 0.53350
C10 C 0.25150 0.05450 0.59570
O5 O 0.08000 0.05090 0.61250
C11 C 0.43170 -0.01220 0.64220
H1 H 0.40500 0.40200 0.55700
H2 H 0.34500 0.27100 0.30000
H3 H -0.01200 0.44200 0.30000
H4 H -0.00500 0.48600 0.41100
H5 H 0.35800 0.72400 0.31600
H6 H 0.17800 0.75200 0.23000
H7 H 0.18200 0.79600 0.33100
H8 H 0.06200 0.15600 0.43000
H9 H 0.07600 0.22200 0.53100
H10 H 0.41100 -0.06400 0.60100
H11 H 0.42200 -0.04200 0.69500
H12 H 0.55300 -0.00100 0.62200

#END
