
#######################################################################
#
#                 Cambridge Crystallographic Data Centre
#                                CCDC 
#
#######################################################################
#
# If this CIF has been generated from an entry in the Cambridge 
# Structural Database, then it will include bibliographic, chemical, 
# crystal, experimental, refinement or atomic coordinate data resulting 
# from the CCDC's data processing and validation procedures.
#
#######################################################################

data_ACODUS
_symmetry_cell_setting           triclinic
_symmetry_space_group_name_H-M   'P -1'
_symmetry_Int_Tables_number      2
_space_group_name_Hall           '-P 1'
loop_
_symmetry_equiv_pos_site_id
_symmetry_equiv_pos_as_xyz
1 x,y,z
2 -x,-y,-z
_cell_length_a                   11.650(1)
_cell_length_b                   15.897(2)
_cell_length_c                   19.724(2)
_cell_angle_alpha                113.31(1)
_cell_angle_beta                 106.59(1)
_cell_angle_gamma                90.19(1)
_cell_volume                     3186.89
loop_
_atom_site_label
_atom_site_type_symbol
_atom_site_fract_x
_atom_site_fract_y
_atom_site_fract_z
B1 B 0.8726(2) 0.91992(15) 0.99571(12)
O1 O 0.91047(12) 0.84190(9) 0.95182(7)
O2 O 0.79275(12) 0.96394(9) 0.96075(7)
O3 O 0.91757(12) 0.95527(9) 1.07450(7)
C1 C 0.97152(18) 0.78552(13) 0.98536(10)
C2 C 1.09196(19) 0.78202(15) 0.99275(12)
H1 H 1.1330 0.8184 0.9778
C3 C 1.1511(2) 0.72296(17) 1.02305(14)
H2 H 1.2330 0.7203 1.0291
C4 C 1.0903(2) 0.66879(16) 1.04401(13)
H3 H 1.1305 0.6287 1.0634
C5 C 0.9694(2) 0.67326(16) 1.03656(13)
H4 H 0.9283 0.6369 1.0516
C6 C 0.9093(2) 0.73189(15) 1.00662(12)
H5 H 0.8276 0.7349 1.0010
C7 C 0.72719(17) 0.92145(13) 0.88232(10)
C8 C 0.63472(19) 0.85202(15) 0.85693(13)
H6 H 0.6168 0.8321 0.8916
C9 C 0.5683(2) 0.81199(17) 0.77871(14)
H7 H 0.5056 0.7645 0.7607
C10 C 0.5945(2) 0.84211(17) 0.72757(13)
H8 H 0.5500 0.8150 0.6751
C11 C 0.6864(2) 0.91230(18) 0.75464(13)
H9 H 0.7038 0.9329 0.7202
C12 C 0.7533(2) 0.95276(15) 0.83169(12)
H10 H 0.8154 1.0006 0.8496
C13 C 0.86308(18) 1.02174(13) 1.12110(10)
C14 C 0.75058(19) 0.99884(14) 1.12273(12)
H11 H 0.7093 0.9396 1.0916
C15 C 0.6992(2) 1.06522(15) 1.17148(12)
H12 H 0.6226 1.0505 1.1727
C16 C 0.7604(2) 1.15236(15) 1.21790(12)
H13 H 0.7261 1.1965 1.2509
C17 C 0.8731(2) 1.17373(15) 1.21518(12)
H14 H 0.9147 1.2328 1.2464
C18 C 0.92538(19) 1.10869(14) 1.16677(11)
H15 H 1.0015 1.1236 1.1651
B1 B 0.1274(2) 0.08008(15) 0.00429(12)
O1 O 0.08953(12) 0.15810(9) 0.04818(7)
O2 O 0.20725(12) 0.03606(9) 0.03925(7)
O3 O 0.08243(12) 0.04473(9) -0.07450(7)
C1 C 0.02848(18) 0.21448(13) 0.01464(10)
C2 C -0.09196(19) 0.21798(15) 0.00725(12)
H1 H -0.1330 0.1816 0.0222
C3 C -0.1511(2) 0.27704(17) -0.02305(14)
H2 H -0.2330 0.2797 -0.0291
C4 C -0.0903(2) 0.33121(16) -0.04401(13)
H3 H -0.1305 0.3713 -0.0634
C5 C 0.0306(2) 0.32674(16) -0.03656(13)
H4 H 0.0717 0.3631 -0.0516
C6 C 0.0907(2) 0.26811(15) -0.00662(12)
H5 H 0.1724 0.2651 -0.0010
C7 C 0.27281(17) 0.07855(13) 0.11768(10)
C8 C 0.36528(19) 0.14798(15) 0.14307(13)
H6 H 0.3832 0.1679 0.1084
C9 C 0.4317(2) 0.18801(17) 0.22129(14)
H7 H 0.4944 0.2355 0.2393
C10 C 0.4055(2) 0.15789(17) 0.27243(13)
H8 H 0.4500 0.1850 0.3249
C11 C 0.3136(2) 0.08770(18) 0.24536(13)
H9 H 0.2962 0.0671 0.2798
C12 C 0.2467(2) 0.04724(15) 0.16831(12)
H10 H 0.1846 -0.0006 0.1504
C13 C 0.13692(18) -0.02174(13) -0.12110(10)
C14 C 0.24942(19) 0.00116(14) -0.12273(12)
H11 H 0.2907 0.0604 -0.0916
C15 C 0.3008(2) -0.06522(15) -0.17148(12)
H12 H 0.3774 -0.0505 -0.1727
C16 C 0.2396(2) -0.15236(15) -0.21790(12)
H13 H 0.2739 -0.1965 -0.2509
C17 C 0.1269(2) -0.17373(15) -0.21518(12)
H14 H 0.0853 -0.2328 -0.2464
C18 C 0.07462(19) -0.10869(14) -0.16677(11)
H15 H -0.0015 -0.1236 -0.1651
B2 B 0.53920(18) 0.61090(14) 0.08771(12)
O4 O 0.58144(11) 0.65424(9) 0.05086(7)
O5 O 0.61359(11) 0.56641(9) 0.12544(8)
O6 O 0.42094(11) 0.60822(9) 0.08506(7)
C19 C 0.51588(16) 0.71519(13) 0.02543(11)
C20 C 0.4689(2) 0.69169(16) -0.05259(12)
H16 H 0.4786 0.6351 -0.0884
C21 C 0.4070(2) 0.75338(18) -0.07728(14)
H17 H 0.3747 0.7379 -0.1303
C22 C 0.3921(2) 0.83709(17) -0.02523(15)
H18 H 0.3499 0.8780 -0.0426
C23 C 0.4402(2) 0.85989(16) 0.05291(15)
H19 H 0.4307 0.9167 0.0886
C24 C 0.5028(2) 0.79881(15) 0.07903(12)
H20 H 0.5353 0.8142 0.1320
C25 C 0.73870(16) 0.58420(13) 0.14739(10)
C26 C 0.79824(19) 0.66923(14) 0.20343(12)
H21 H 0.7549 0.7161 0.2250
C27 C 0.9224(2) 0.68393(16) 0.22695(12)
H22 H 0.9630 0.7415 0.2639
C28 C 0.98699(19) 0.61436(17) 0.19645(13)
H23 H 1.0710 0.6244 0.2133
C29 C 0.92631(19) 0.52957(16) 0.14066(13)
H24 H 0.9698 0.4825 0.1197
C30 C 0.80170(17) 0.51403(13) 0.11563(11)
H25 H 0.7609 0.4569 0.0778
C31 C 0.38304(15) 0.58402(13) 0.13650(10)
C32 C 0.41792(19) 0.64316(14) 0.21369(12)
H26 H 0.4679 0.6982 0.2316
C33 C 0.3783(2) 0.62045(16) 0.26488(12)
H27 H 0.4025 0.6597 0.3175
C34 C 0.30223(18) 0.53902(16) 0.23732(13)
H28 H 0.2745 0.5236 0.2713
C35 C 0.26806(19) 0.48140(17) 0.16017(13)
H29 H 0.2170 0.4267 0.1418
C36 C 0.30824(17) 0.50322(14) 0.10908(12)
H30 H 0.2848 0.4635 0.0566
B2 B 0.46080(18) 0.38910(14) 0.91229(12)
O4 O 0.41856(11) 0.34576(9) 0.94914(7)
O5 O 0.38641(11) 0.43359(9) 0.87456(8)
O6 O 0.57906(11) 0.39178(9) 0.91494(7)
C19 C 0.48412(16) 0.28481(13) 0.97457(11)
C20 C 0.5311(2) 0.30831(16) 1.05259(12)
H16 H 0.5214 0.3649 1.0884
C21 C 0.5930(2) 0.24662(18) 1.07728(14)
H17 H 0.6253 0.2621 1.1303
C22 C 0.6079(2) 0.16291(17) 1.02523(15)
H18 H 0.6501 0.1220 1.0426
C23 C 0.5598(2) 0.14011(16) 0.94709(15)
H19 H 0.5693 0.0833 0.9114
C24 C 0.4972(2) 0.20119(15) 0.92097(12)
H20 H 0.4647 0.1858 0.8680
C25 C 0.26130(16) 0.41580(13) 0.85261(10)
C26 C 0.20176(19) 0.33077(14) 0.79657(12)
H21 H 0.2451 0.2839 0.7750
C27 C 0.0776(2) 0.31607(16) 0.77305(12)
H22 H 0.0370 0.2585 0.7361
C28 C 0.01301(19) 0.38564(17) 0.80355(13)
H23 H -0.0710 0.3756 0.7867
C29 C 0.07369(19) 0.47043(16) 0.85934(13)
H24 H 0.0302 0.5175 0.8803
C30 C 0.19830(17) 0.48597(13) 0.88437(11)
H25 H 0.2391 0.5431 0.9222
C31 C 0.61696(15) 0.41598(13) 0.86350(10)
C32 C 0.58208(19) 0.35684(14) 0.78631(12)
H26 H 0.5321 0.3018 0.7684
C33 C 0.6217(2) 0.37955(16) 0.73512(12)
H27 H 0.5975 0.3403 0.6825
C34 C 0.69777(18) 0.46098(16) 0.76268(13)
H28 H 0.7255 0.4764 0.7287
C35 C 0.73194(19) 0.51860(17) 0.83983(13)
H29 H 0.7830 0.5733 0.8582
C36 C 0.69176(17) 0.49678(14) 0.89092(12)
H30 H 0.7152 0.5365 0.9434
B3 B 0.9574(2) 0.02751(15) 0.41554(13)
O7 O 0.91455(12) 0.10575(9) 0.45456(8)
O8 O 1.07274(12) 0.03219(9) 0.41335(8)
O9 O 0.88718(12) -0.05583(9) 0.38119(8)
C37 C 0.97846(17) 0.19261(13) 0.47955(12)
C38 C 1.0295(2) 0.24415(15) 0.55745(13)
H31 H 1.0223 0.2215 0.5931
C39 C 1.0921(3) 0.33053(17) 0.58244(16)
H32 H 1.1273 0.3660 0.6354
C40 C 1.1030(2) 0.36428(16) 0.53093(17)
H33 H 1.1459 0.4223 0.5485
C41 C 1.0500(2) 0.31210(17) 0.45246(17)
H34 H 1.0566 0.3351 0.4169
C42 C 0.9869(2) 0.22535(16) 0.42649(14)
H35 H 0.9508 0.1899 0.3736
C43 C 1.11016(16) -0.04059(13) 0.36000(11)
C44 C 1.0765(2) -0.05430(15) 0.28318(13)
H36 H 1.0264 -0.0164 0.2663
C45 C 1.1179(2) -0.12495(16) 0.23138(13)
H37 H 1.0951 -0.1349 0.1793
C46 C 1.19249(19) -0.18035(16) 0.25650(13)
H38 H 1.2204 -0.2277 0.2216
C47 C 1.22574(19) -0.16579(16) 0.33311(13)
H39 H 1.2764 -0.2034 0.3500
C48 C 1.18476(17) -0.09571(14) 0.38573(12)
H40 H 1.2074 -0.0861 0.4377
C49 C 0.76208(17) -0.06398(12) 0.36053(11)
C50 C 0.7028(2) -0.11096(14) 0.38844(12)
H41 H 0.7458 -0.1346 0.4229
C51 C 0.5775(2) -0.12262(16) 0.36434(13)
H42 H 0.5361 -0.1542 0.3830
C52 C 0.5142(2) -0.08797(16) 0.31316(13)
H43 H 0.4301 -0.0966 0.2968
C53 C 0.5750(2) -0.04040(16) 0.28609(13)
H44 H 0.5323 -0.0161 0.2520
C54 C 0.69968(19) -0.02889(15) 0.30966(12)
H45 H 0.7412 0.0026 0.2911
B3 B 0.0426(2) 0.97249(15) 0.58446(13)
O7 O 0.08545(12) 0.89425(9) 0.54544(8)
O8 O -0.07274(12) 0.96781(9) 0.58665(8)
O9 O 0.11282(12) 1.05583(9) 0.61881(8)
C37 C 0.02154(17) 0.80739(13) 0.52045(12)
C38 C -0.0295(2) 0.75585(15) 0.44255(13)
H31 H -0.0223 0.7785 0.4069
C39 C -0.0921(3) 0.66947(17) 0.41756(16)
H32 H -0.1273 0.6340 0.3646
C40 C -0.1030(2) 0.63572(16) 0.46907(17)
H33 H -0.1459 0.5777 0.4515
C41 C -0.0500(2) 0.68790(17) 0.54754(17)
H34 H -0.0566 0.6649 0.5831
C42 C 0.0131(2) 0.77465(16) 0.57351(14)
H35 H 0.0492 0.8101 0.6264
C43 C -0.11016(16) 1.04059(13) 0.64000(11)
C44 C -0.0765(2) 1.05430(15) 0.71682(13)
H36 H -0.0264 1.0164 0.7337
C45 C -0.1179(2) 1.12495(16) 0.76862(13)
H37 H -0.0951 1.1349 0.8207
C46 C -0.19249(19) 1.18035(16) 0.74350(13)
H38 H -0.2204 1.2277 0.7784
C47 C -0.22574(19) 1.16579(16) 0.66689(13)
H39 H -0.2764 1.2034 0.6500
C48 C -0.18476(17) 1.09571(14) 0.61427(12)
H40 H -0.2074 1.0861 0.5623
C49 C 0.23792(17) 1.06398(12) 0.63947(11)
C50 C 0.2972(2) 1.11096(14) 0.61156(12)
H41 H 0.2542 1.1346 0.5771
C51 C 0.4225(2) 1.12262(16) 0.63566(13)
H42 H 0.4639 1.1542 0.6170
C52 C 0.4858(2) 1.08797(16) 0.68684(13)
H43 H 0.5699 1.0966 0.7032
C53 C 0.4250(2) 1.04040(16) 0.71391(13)
H44 H 0.4677 1.0161 0.7480
C54 C 0.30032(19) 1.02889(15) 0.69034(12)
H45 H 0.2588 0.9974 0.7089
B4 B 0.37353(18) 0.56875(14) 0.49798(12)
O10 O 0.40130(12) 0.60612(9) 0.45265(7)
O11 O 0.29905(12) 0.48709(8) 0.46517(7)
O12 O 0.42205(11) 0.61169(9) 0.57666(7)
C55 C 0.46219(17) 0.69562(13) 0.48483(10)
C56 C 0.3977(2) 0.76970(14) 0.50250(11)
H46 H 0.3151 0.7603 0.4944
C57 C 0.4579(2) 0.85839(16) 0.53255(12)
H47 H 0.4155 0.9090 0.5444
C58 C 0.5804(2) 0.87172(17) 0.54482(13)
H48 H 0.6207 0.9312 0.5653
C59 C 0.6430(2) 0.79668(18) 0.52663(13)
H49 H 0.7256 0.8058 0.5348
C60 C 0.58411(19) 0.70828(16) 0.49638(12)
H50 H 0.6264 0.6577 0.4839
C61 C 0.22862(16) 0.44890(12) 0.38777(10)
C62 C 0.25367(18) 0.36701(13) 0.33772(11)
H51 H 0.3194 0.3396 0.3551
C63 C 0.1801(2) 0.32642(15) 0.26168(12)
H52 H 0.1966 0.2713 0.2276
C64 C 0.0825(2) 0.36656(17) 0.23542(12)
H53 H 0.0334 0.3389 0.1839
C65 C 0.05840(18) 0.44831(17) 0.28638(13)
H54 H -0.0073 0.4758 0.2689
C66 C 0.13096(18) 0.48983(14) 0.36316(12)
H55 H 0.1140 0.5445 0.3975
C67 C 0.37417(16) 0.59002(12) 0.62546(10)
C68 C 0.26259(17) 0.61419(13) 0.63085(11)
H56 H 0.2181 0.6422 0.6003
C69 C 0.21761(19) 0.59641(14) 0.68204(13)
H57 H 0.1420 0.6121 0.6856
C70 C 0.2833(2) 0.55579(14) 0.72782(12)
H58 H 0.2527 0.5441 0.7624
C71 C 0.3945(2) 0.53261(16) 0.72189(12)
H59 H 0.4394 0.5052 0.7528
C72 C 0.44069(18) 0.54939(15) 0.67068(11)
H60 H 0.5160 0.5333 0.6669
B4 B 0.62647(18) 0.43125(14) 0.50202(12)
O10 O 0.59870(12) 0.39388(9) 0.54735(7)
O11 O 0.70095(12) 0.51291(8) 0.53483(7)
O12 O 0.57795(11) 0.38831(9) 0.42334(7)
C55 C 0.53781(17) 0.30438(13) 0.51517(10)
C56 C 0.6023(2) 0.23030(14) 0.49750(11)
H46 H 0.6849 0.2397 0.5056
C57 C 0.5421(2) 0.14161(16) 0.46745(12)
H47 H 0.5845 0.0910 0.4556
C58 C 0.4196(2) 0.12828(17) 0.45518(13)
H48 H 0.3793 0.0688 0.4347
C59 C 0.3570(2) 0.20332(18) 0.47337(13)
H49 H 0.2744 0.1942 0.4652
C60 C 0.41589(19) 0.29172(16) 0.50362(12)
H50 H 0.3736 0.3423 0.5161
C61 C 0.77138(16) 0.55110(12) 0.61223(10)
C62 C 0.74633(18) 0.63299(13) 0.66228(11)
H51 H 0.6806 0.6604 0.6449
C63 C 0.8199(2) 0.67358(15) 0.73832(12)
H52 H 0.8034 0.7287 0.7724
C64 C 0.9175(2) 0.63344(17) 0.76458(12)
H53 H 0.9666 0.6611 0.8161
C65 C 0.94160(18) 0.55169(17) 0.71362(13)
H54 H 1.0073 0.5242 0.7311
C66 C 0.86904(18) 0.51017(14) 0.63684(12)
H55 H 0.8860 0.4555 0.6025
C67 C 0.62583(16) 0.40998(12) 0.37454(10)
C68 C 0.73741(17) 0.38581(13) 0.36915(11)
H56 H 0.7819 0.3578 0.3997
C69 C 0.78239(19) 0.40359(14) 0.31796(13)
H57 H 0.8580 0.3879 0.3144
C70 C 0.7167(2) 0.44421(14) 0.27218(12)
H58 H 0.7473 0.4559 0.2376
C71 C 0.6055(2) 0.46739(16) 0.27811(12)
H59 H 0.5606 0.4948 0.2472
C72 C 0.55931(18) 0.45061(15) 0.32932(11)
H60 H 0.4840 0.4667 0.3331

#END
