./ACOGUW_from_xyz.cif_generated_by_CrystalShift
_symmetry_cell_setting triclinic
_symmetry_space_group_name_H-M 'P 1'
loop_
_symmetry_equiv_pos_site_id
_symmetry_equiv_pos_as_xyz
1 x,y,z
_cell_length_a 5.435600
_cell_length_b 7.403400
_cell_length_c 27.665000
_cell_angle_alpha 86.595000
_cell_angle_beta 84.863000
_cell_angle_gamma 89.167000
_cell_volume 1106.816151
loop_
_atom_site_label
_atom_site_type_symbol
_atom_site_fract_x
_atom_site_fract_y
_atom_site_fract_z
C1 C 0.476000 0.346930 0.033630
C2 C 0.645600 0.484220 0.039810
C3 C 0.798600 0.473930 0.079120
H4 H 0.781900 0.374100 0.102400
C5 C 0.967700 0.603090 0.084220
H6 H 1.068300 0.592100 0.110600
C7 C 0.994800 0.753660 0.050480
H8 H 1.114600 0.843000 0.054000
C9 C 0.850200 0.771010 0.012960
H10 H 0.868900 0.874000 -0.009200
C11 C 0.670100 0.638350 0.005820
C12 C 0.460700 0.183230 0.067560
H13 H 0.573100 0.087200 0.060200
C14 C 0.308100 0.158780 0.106410
H15 H 0.198200 0.256500 0.113600
C16 C 0.284800 -0.001500 0.140510
C17 C 0.461000 -0.140140 0.140700
H18 H 0.604500 -0.130000 0.118500
C19 C 0.433200 -0.292010 0.172230
H20 H 0.556900 -0.384000 0.171800
C21 C 0.222500 -0.308990 0.204670
C22 C 0.044500 -0.171330 0.205460
H23 H -0.098800 -0.181600 0.227700
C24 C 0.076300 -0.020520 0.173980
H25 H -0.045900 0.072600 0.175000
C26 C 0.350200 -0.601350 0.235780
H27 H 0.513700 -0.558000 0.243000
H28 H 0.367600 -0.651100 0.203200
C29 C 0.258200 -0.745600 0.273620
H30 H 0.096200 -0.789500 0.265700
H31 H 0.234400 -0.692900 0.305800
C32 C 0.439800 -0.904680 0.276040
H33 H 0.459800 -0.958500 0.244000
H34 H 0.603000 -0.859300 0.282800
C35 C 0.357000 -1.050980 0.314860
H36 H 0.195500 -1.098100 0.307700
H37 H 0.333700 -0.996600 0.346800
C38 C 0.540700 -1.207850 0.317950
H39 H 0.560900 -1.263100 0.286100
H40 H 0.703100 -1.159400 0.324100
C41 C 0.467200 -1.354820 0.357150
H42 H 0.308100 -1.407200 0.350500
H43 H 0.442500 -1.299900 0.389000
C44 C 0.660100 -1.505810 0.359970
H45 H 0.686900 -1.558100 0.327800
H46 H 0.818200 -1.452900 0.367100
C47 C 0.591500 -1.657290 0.398140
H48 H 0.433400 -1.710600 0.391200
H49 H 0.566100 -1.605800 0.430500
C50 C 0.787400 -1.806340 0.399800
H51 H 0.812500 -1.857100 0.367400
H52 H 0.945300 -1.752300 0.406600
C53 C 0.724100 -1.959740 0.437700
H54 H 0.563200 -2.011300 0.431800
H55 H 0.706100 -1.910400 0.470300
C56 C 0.918100 -2.110200 0.437200
H57 H 0.937700 -2.158000 0.404400
H58 H 1.078400 -2.058600 0.443500
C59 C 0.855800 -2.265700 0.474430
H60 H 0.844400 -2.220900 0.507200
H61 H 0.985600 -2.358700 0.471600
H62 H 0.697400 -2.317900 0.468500
O63 O 0.174050 -0.454640 0.236760
C64 C 0.524000 0.653070 -0.033630
C65 C 0.354400 0.515780 -0.039810
C66 C 0.201400 0.526070 -0.079120
H67 H 0.218100 0.625900 -0.102400
C68 C 0.032300 0.396910 -0.084220
H69 H -0.068300 0.407900 -0.110600
C70 C 0.005200 0.246340 -0.050480
H71 H -0.114600 0.157000 -0.054000
C72 C 0.149800 0.228990 -0.012960
H73 H 0.131100 0.126000 0.009200
C74 C 0.329900 0.361650 -0.005820
C75 C 0.539300 0.816770 -0.067560
H76 H 0.426900 0.912800 -0.060200
C77 C 0.691900 0.841220 -0.106410
H78 H 0.801800 0.743500 -0.113600
C79 C 0.715200 1.001500 -0.140510
C80 C 0.539000 1.140140 -0.140700
H81 H 0.395500 1.130000 -0.118500
C82 C 0.566800 1.292010 -0.172230
H83 H 0.443100 1.384000 -0.171800
C84 C 0.777500 1.308990 -0.204670
C85 C 0.955500 1.171330 -0.205460
H86 H 1.098800 1.181600 -0.227700
C87 C 0.923700 1.020520 -0.173980
H88 H 1.045900 0.927400 -0.175000
C89 C 0.649800 1.601350 -0.235780
H90 H 0.486300 1.558000 -0.243000
H91 H 0.632400 1.651100 -0.203200
C92 C 0.741800 1.745600 -0.273620
H93 H 0.903800 1.789500 -0.265700
H94 H 0.765600 1.692900 -0.305800
C95 C 0.560200 1.904680 -0.276040
H96 H 0.540200 1.958500 -0.244000
H97 H 0.397000 1.859300 -0.282800
C98 C 0.643000 2.050980 -0.314860
H99 H 0.804500 2.098100 -0.307700
H100 H 0.666300 1.996600 -0.346800
C101 C 0.459300 2.207850 -0.317950
H102 H 0.439100 2.263100 -0.286100
H103 H 0.296900 2.159400 -0.324100
C104 C 0.532800 2.354820 -0.357150
H105 H 0.691900 2.407200 -0.350500
H106 H 0.557500 2.299900 -0.389000
C107 C 0.339900 2.505810 -0.359970
H108 H 0.313100 2.558100 -0.327800
H109 H 0.181800 2.452900 -0.367100
C110 C 0.408500 2.657290 -0.398140
H111 H 0.566600 2.710600 -0.391200
H112 H 0.433900 2.605800 -0.430500
C113 C 0.212600 2.806340 -0.399800
H114 H 0.187500 2.857100 -0.367400
H115 H 0.054700 2.752300 -0.406600
C116 C 0.275900 2.959740 -0.437700
H117 H 0.436800 3.011300 -0.431800
H118 H 0.293900 2.910400 -0.470300
C119 C 0.081900 3.110200 -0.437200
H120 H 0.062300 3.158000 -0.404400
H121 H -0.078400 3.058600 -0.443500
C122 C 0.144200 3.265700 -0.474430
H123 H 0.155600 3.220900 -0.507200
H124 H 0.014400 3.358700 -0.471600
H125 H 0.302600 3.317900 -0.468500
O126 O 0.825950 1.454640 -0.236760
C127 C 0.476000 0.346930 1.033630
C128 C 0.645600 0.484220 1.039810
C129 C 0.798600 0.473930 1.079120
H130 H 0.781900 0.374100 1.102400
C131 C 0.967700 0.603090 1.084220
H132 H 1.068300 0.592100 1.110600
C133 C 0.994800 0.753660 1.050480
H134 H 1.114600 0.843000 1.054000
C135 C 0.850200 0.771010 1.012960
H136 H 0.868900 0.874000 0.990800
C137 C 0.670100 0.638350 1.005820
C138 C 0.460700 0.183230 1.067560
H139 H 0.573100 0.087200 1.060200
C140 C 0.308100 0.158780 1.106410
H141 H 0.198200 0.256500 1.113600
C142 C 0.284800 -0.001500 1.140510
C143 C 0.461000 -0.140140 1.140700
H144 H 0.604500 -0.130000 1.118500
C145 C 0.433200 -0.292010 1.172230
H146 H 0.556900 -0.384000 1.171800
C147 C 0.222500 -0.308990 1.204670
C148 C 0.044500 -0.171330 1.205460
H149 H -0.098800 -0.181600 1.227700
C150 C 0.076300 -0.020520 1.173980
H151 H -0.045900 0.072600 1.175000
C152 C 0.350200 -0.601350 1.235780
H153 H 0.513700 -0.558000 1.243000
H154 H 0.367600 -0.651100 1.203200
C155 C 0.258200 -0.745600 1.273620
H156 H 0.096200 -0.789500 1.265700
H157 H 0.234400 -0.692900 1.305800
C158 C 0.439800 -0.904680 1.276040
H159 H 0.459800 -0.958500 1.244000
H160 H 0.603000 -0.859300 1.282800
C161 C 0.357000 -1.050980 1.314860
H162 H 0.195500 -1.098100 1.307700
H163 H 0.333700 -0.996600 1.346800
C164 C 0.540700 -1.207850 1.317950
H165 H 0.560900 -1.263100 1.286100
H166 H 0.703100 -1.159400 1.324100
C167 C 0.467200 -1.354820 1.357150
H168 H 0.308100 -1.407200 1.350500
H169 H 0.442500 -1.299900 1.389000
C170 C 0.660100 -1.505810 1.359970
H171 H 0.686900 -1.558100 1.327800
H172 H 0.818200 -1.452900 1.367100
C173 C 0.591500 -1.657290 1.398140
H174 H 0.433400 -1.710600 1.391200
H175 H 0.566100 -1.605800 1.430500
C176 C 0.787400 -1.806340 1.399800
H177 H 0.812500 -1.857100 1.367400
H178 H 0.945300 -1.752300 1.406600
C179 C 0.724100 -1.959740 1.437700
H180 H 0.563200 -2.011300 1.431800
H181 H 0.706100 -1.910400 1.470300
C182 C 0.918100 -2.110200 1.437200
H183 H 0.937700 -2.158000 1.404400
H184 H 1.078400 -2.058600 1.443500
C185 C 0.855800 -2.265700 1.474430
H186 H 0.844400 -2.220900 1.507200
H187 H 0.985600 -2.358700 1.471600
H188 H 0.697400 -2.317900 1.468500
O189 O 0.174050 -0.454640 1.236760
C190 C 0.524000 0.653070 0.966370
C191 C 0.354400 0.515780 0.960190
C192 C 0.201400 0.526070 0.920880
H193 H 0.218100 0.625900 0.897600
C194 C 0.032300 0.396910 0.915780
H195 H -0.068300 0.407900 0.889400
C196 C 0.005200 0.246340 0.949520
H197 H -0.114600 0.157000 0.946000
C198 C 0.149800 0.228990 0.987040
H199 H 0.131100 0.126000 1.009200
C200 C 0.329900 0.361650 0.994180
C201 C 0.539300 0.816770 0.932440
H202 H 0.426900 0.912800 0.939800
C203 C 0.691900 0.841220 0.893590
H204 H 0.801800 0.743500 0.886400
C205 C 0.715200 1.001500 0.859490
C206 C 0.539000 1.140140 0.859300
H207 H 0.395500 1.130000 0.881500
C208 C 0.566800 1.292010 0.827770
H209 H 0.443100 1.384000 0.828200
C210 C 0.777500 1.308990 0.795330
C211 C 0.955500 1.171330 0.794540
H212 H 1.098800 1.181600 0.772300
C213 C 0.923700 1.020520 0.826020
H214 H 1.045900 0.927400 0.825000
C215 C 0.649800 1.601350 0.764220
H216 H 0.486300 1.558000 0.757000
H217 H 0.632400 1.651100 0.796800
C218 C 0.741800 1.745600 0.726380
H219 H 0.903800 1.789500 0.734300
H220 H 0.765600 1.692900 0.694200
C221 C 0.560200 1.904680 0.723960
H222 H 0.540200 1.958500 0.756000
H223 H 0.397000 1.859300 0.717200
C224 C 0.643000 2.050980 0.685140
H225 H 0.804500 2.098100 0.692300
H226 H 0.666300 1.996600 0.653200
C227 C 0.459300 2.207850 0.682050
H228 H 0.439100 2.263100 0.713900
H229 H 0.296900 2.159400 0.675900
C230 C 0.532800 2.354820 0.642850
H231 H 0.691900 2.407200 0.649500
H232 H 0.557500 2.299900 0.611000
C233 C 0.339900 2.505810 0.640030
H234 H 0.313100 2.558100 0.672200
H235 H 0.181800 2.452900 0.632900
C236 C 0.408500 2.657290 0.601860
H237 H 0.566600 2.710600 0.608800
H238 H 0.433900 2.605800 0.569500
C239 C 0.212600 2.806340 0.600200
H240 H 0.187500 2.857100 0.632600
H241 H 0.054700 2.752300 0.593400
C242 C 0.275900 2.959740 0.562300
H243 H 0.436800 3.011300 0.568200
H244 H 0.293900 2.910400 0.529700
C245 C 0.081900 3.110200 0.562800
H246 H 0.062300 3.158000 0.595600
H247 H -0.078400 3.058600 0.556500
C248 C 0.144200 3.265700 0.525570
H249 H 0.155600 3.220900 0.492800
H250 H 0.014400 3.358700 0.528400
H251 H 0.302600 3.317900 0.531500
O252 O 0.825950 1.454640 0.763240

#END
