
#######################################################################
#
#                 Cambridge Crystallographic Data Centre
#                                CCDC 
#
#######################################################################
#
# If this CIF has been generated from an entry in the Cambridge 
# Structural Database, then it will include bibliographic, chemical, 
# crystal, experimental, refinement or atomic coordinate data resulting 
# from the CCDC's data processing and validation procedures.
#
#######################################################################

data_ACOHAD
_symmetry_cell_setting           orthorhombic
_symmetry_space_group_name_H-M   'P 21 21 21'
_symmetry_Int_Tables_number      19
_space_group_name_Hall           'P 2ac 2ab'
loop_
_symmetry_equiv_pos_site_id
_symmetry_equiv_pos_as_xyz
1 x,y,z
2 1/2-x,-y,1/2+z
3 -x,1/2+y,1/2-z
4 1/2+x,1/2-y,-z
_cell_length_a                   7.4766(15)
_cell_length_b                   8.0156(16)
_cell_length_c                   36.105(7)
_cell_angle_alpha                90
_cell_angle_beta                 90
_cell_angle_gamma                90
_cell_volume                     2163.75
loop_
_atom_site_label
_atom_site_type_symbol
_atom_site_fract_x
_atom_site_fract_y
_atom_site_fract_z
S1 S -0.25387(8) 0.00004(7) 0.849465(14)
O1 O -0.4256(2) 0.0387(2) 0.83455(5)
O2 O -0.2245(3) -0.15677(19) 0.86689(5)
O3 O 0.0490(2) 0.03410(18) 0.89987(4)
N1 N -0.2139(3) 0.1521(2) 0.88097(5)
C1 C 0.2957(6) 0.1120(5) 0.72965(10)
H1 H 0.2438 0.1796 0.7098
H2 H 0.3325 0.0035 0.7197
H3 H 0.4001 0.1696 0.7399
C2 C 0.1582(5) 0.0864(4) 0.75975(8)
C3 C -0.0138(5) 0.1470(4) 0.75631(8)
H4 H -0.0463 0.2068 0.7346
C4 C -0.1384(4) 0.1223(4) 0.78357(7)
H5 H -0.2552 0.1675 0.7810
C5 C -0.0939(3) 0.0319(3) 0.81471(6)
C6 C 0.0750(3) -0.0330(3) 0.81847(6)
H6 H 0.1050 -0.0972 0.8397
C7 C 0.2013(3) -0.0046(3) 0.79127(7)
H7 H 0.3188 -0.0477 0.7941
C8 C -0.0585(3) 0.1453(2) 0.90290(6)
C9 C -0.0423(3) 0.2874(3) 0.93044(6)
H8 H -0.1380 0.2707 0.9494
C10 C -0.0785(3) 0.4583(2) 0.91182(6)
H9 H -0.0925 0.5429 0.9320
C11 C -0.2543(3) 0.4459(3) 0.89186(6)
H10 H -0.3245 0.5437 0.8888
C12 C -0.3144(3) 0.3031(3) 0.87840(6)
H11 H -0.4281 0.3008 0.8666
C13 C 0.0731(3) 0.5159(3) 0.88699(6)
C14 C 0.1127(4) 0.4378(3) 0.85348(7)
H12 H 0.0394 0.3487 0.8451
C15 C 0.2568(4) 0.4879(3) 0.83227(7)
H13 H 0.2832 0.4321 0.8097
C16 C 0.3621(3) 0.6187(3) 0.84383(7)
H14 H 0.4615 0.6530 0.8293
C17 C 0.3230(4) 0.6994(3) 0.87640(6)
H15 H 0.3949 0.7904 0.8843
C18 C 0.1800(3) 0.6490(3) 0.89776(6)
H16 H 0.1541 0.7063 0.9202
C19 C 0.1371(3) 0.2763(3) 0.95071(6)
H17 H 0.1501 0.1627 0.9611
H18 H 0.2346 0.2930 0.9325
C20 C 0.1590(3) 0.4021(3) 0.98175(6)
C21 C 0.3058(3) 0.5074(3) 0.98324(6)
H19 H 0.3922 0.5045 0.9640
C22 C 0.3277(4) 0.6174(3) 1.01276(7)
H20 H 0.4285 0.6896 1.0133
C23 C 0.2049(4) 0.6225(3) 1.04100(7)
H21 H 0.2210 0.6968 1.0612
C24 C 0.0580(4) 0.5187(3) 1.03973(7)
H22 H -0.0285 0.5220 1.0590
C25 C 0.0367(4) 0.4094(3) 1.01029(6)
H23 H -0.0646 0.3379 1.0098
S1 S 0.75387(8) 0.99996(7) 0.349465(14)
O1 O 0.9256(2) 0.9613(2) 0.33455(5)
O2 O 0.7245(3) 1.15677(19) 0.36689(5)
O3 O 0.4510(2) 0.96590(18) 0.39987(4)
N1 N 0.7139(3) 0.8479(2) 0.38097(5)
C1 C 0.2043(6) 0.8880(5) 0.22965(10)
H1 H 0.2562 0.8204 0.2098
H2 H 0.1675 0.9965 0.2197
H3 H 0.0999 0.8304 0.2399
C2 C 0.3418(5) 0.9136(4) 0.25975(8)
C3 C 0.5138(5) 0.8530(4) 0.25631(8)
H4 H 0.5463 0.7932 0.2346
C4 C 0.6384(4) 0.8777(4) 0.28357(7)
H5 H 0.7552 0.8325 0.2810
C5 C 0.5939(3) 0.9681(3) 0.31471(6)
C6 C 0.4250(3) 1.0330(3) 0.31847(6)
H6 H 0.3950 1.0972 0.3397
C7 C 0.2987(3) 1.0046(3) 0.29127(7)
H7 H 0.1812 1.0477 0.2941
C8 C 0.5585(3) 0.8547(2) 0.40290(6)
C9 C 0.5423(3) 0.7126(3) 0.43044(6)
H8 H 0.6380 0.7293 0.4494
C10 C 0.5785(3) 0.5417(2) 0.41182(6)
H9 H 0.5925 0.4571 0.4320
C11 C 0.7543(3) 0.5541(3) 0.39186(6)
H10 H 0.8245 0.4563 0.3888
C12 C 0.8144(3) 0.6969(3) 0.37840(6)
H11 H 0.9281 0.6992 0.3666
C13 C 0.4269(3) 0.4841(3) 0.38699(6)
C14 C 0.3873(4) 0.5622(3) 0.35348(7)
H12 H 0.4606 0.6513 0.3451
C15 C 0.2432(4) 0.5121(3) 0.33227(7)
H13 H 0.2168 0.5679 0.3097
C16 C 0.1379(3) 0.3813(3) 0.34383(7)
H14 H 0.0385 0.3470 0.3293
C17 C 0.1770(4) 0.3006(3) 0.37640(6)
H15 H 0.1051 0.2096 0.3843
C18 C 0.3200(3) 0.3510(3) 0.39776(6)
H16 H 0.3459 0.2937 0.4202
C19 C 0.3629(3) 0.7237(3) 0.45071(6)
H17 H 0.3499 0.8373 0.4611
H18 H 0.2654 0.7070 0.4325
C20 C 0.3410(3) 0.5979(3) 0.48175(6)
C21 C 0.1942(3) 0.4926(3) 0.48324(6)
H19 H 0.1078 0.4955 0.4640
C22 C 0.1723(4) 0.3826(3) 0.51276(7)
H20 H 0.0715 0.3104 0.5133
C23 C 0.2951(4) 0.3775(3) 0.54100(7)
H21 H 0.2790 0.3032 0.5612
C24 C 0.4420(4) 0.4813(3) 0.53973(7)
H22 H 0.5285 0.4780 0.5590
C25 C 0.4633(4) 0.5906(3) 0.51029(6)
H23 H 0.5646 0.6621 0.5098
S1 S 1.25387(8) 0.50004(7) 0.650535(14)
O1 O 1.4256(2) 0.5387(2) 0.66545(5)
O2 O 1.2245(3) 0.34323(19) 0.63311(5)
O3 O 0.9510(2) 0.53410(18) 0.60013(4)
N1 N 1.2139(3) 0.6521(2) 0.61903(5)
C1 C 0.7043(6) 0.6120(5) 0.77035(10)
H1 H 0.7562 0.6796 0.7902
H2 H 0.6675 0.5035 0.7803
H3 H 0.5999 0.6696 0.7601
C2 C 0.8418(5) 0.5864(4) 0.74025(8)
C3 C 1.0138(5) 0.6470(4) 0.74369(8)
H4 H 1.0463 0.7068 0.7654
C4 C 1.1384(4) 0.6223(4) 0.71643(7)
H5 H 1.2552 0.6675 0.7190
C5 C 1.0939(3) 0.5319(3) 0.68529(6)
C6 C 0.9250(3) 0.4670(3) 0.68153(6)
H6 H 0.8950 0.4028 0.6603
C7 C 0.7987(3) 0.4954(3) 0.70873(7)
H7 H 0.6812 0.4523 0.7059
C8 C 1.0585(3) 0.6453(2) 0.59710(6)
C9 C 1.0423(3) 0.7874(3) 0.56956(6)
H8 H 1.1380 0.7707 0.5506
C10 C 1.0785(3) 0.9583(2) 0.58818(6)
H9 H 1.0925 1.0429 0.5680
C11 C 1.2543(3) 0.9459(3) 0.60814(6)
H10 H 1.3245 1.0437 0.6112
C12 C 1.3144(3) 0.8031(3) 0.62160(6)
H11 H 1.4281 0.8008 0.6334
C13 C 0.9269(3) 1.0159(3) 0.61301(6)
C14 C 0.8873(4) 0.9378(3) 0.64652(7)
H12 H 0.9606 0.8487 0.6549
C15 C 0.7432(4) 0.9879(3) 0.66773(7)
H13 H 0.7168 0.9321 0.6903
C16 C 0.6379(3) 1.1187(3) 0.65617(7)
H14 H 0.5385 1.1530 0.6707
C17 C 0.6770(4) 1.1994(3) 0.62360(6)
H15 H 0.6051 1.2904 0.6157
C18 C 0.8200(3) 1.1490(3) 0.60224(6)
H16 H 0.8459 1.2063 0.5798
C19 C 0.8629(3) 0.7763(3) 0.54929(6)
H17 H 0.8499 0.6627 0.5389
H18 H 0.7654 0.7930 0.5675
C20 C 0.8410(3) 0.9021(3) 0.51825(6)
C21 C 0.6942(3) 1.0074(3) 0.51676(6)
H19 H 0.6078 1.0045 0.5360
C22 C 0.6723(4) 1.1174(3) 0.48724(7)
H20 H 0.5715 1.1896 0.4867
C23 C 0.7951(4) 1.1225(3) 0.45900(7)
H21 H 0.7790 1.1968 0.4388
C24 C 0.9420(4) 1.0187(3) 0.46027(7)
H22 H 1.0285 1.0220 0.4410
C25 C 0.9633(4) 0.9094(3) 0.48971(6)
H23 H 1.0646 0.8379 0.4902
S1 S 0.24613(8) 0.49996(7) 0.150535(14)
O1 O 0.0744(2) 0.4613(2) 0.16545(5)
O2 O 0.2755(3) 0.65677(19) 0.13311(5)
O3 O 0.5490(2) 0.46590(18) 0.10013(4)
N1 N 0.2861(3) 0.3479(2) 0.11903(5)
C1 C 0.7957(6) 0.3880(5) 0.27035(10)
H1 H 0.7438 0.3204 0.2902
H2 H 0.8325 0.4965 0.2803
H3 H 0.9001 0.3304 0.2601
C2 C 0.6582(5) 0.4136(4) 0.24025(8)
C3 C 0.4862(5) 0.3530(4) 0.24369(8)
H4 H 0.4537 0.2932 0.2654
C4 C 0.3616(4) 0.3777(4) 0.21643(7)
H5 H 0.2448 0.3325 0.2190
C5 C 0.4061(3) 0.4681(3) 0.18529(6)
C6 C 0.5750(3) 0.5330(3) 0.18153(6)
H6 H 0.6050 0.5972 0.1603
C7 C 0.7013(3) 0.5046(3) 0.20873(7)
H7 H 0.8188 0.5477 0.2059
C8 C 0.4415(3) 0.3547(2) 0.09710(6)
C9 C 0.4577(3) 0.2126(3) 0.06956(6)
H8 H 0.3620 0.2293 0.0506
C10 C 0.4215(3) 0.0417(2) 0.08818(6)
H9 H 0.4075 -0.0429 0.0680
C11 C 0.2457(3) 0.0541(3) 0.10814(6)
H10 H 0.1755 -0.0437 0.1112
C12 C 0.1856(3) 0.1969(3) 0.12160(6)
H11 H 0.0719 0.1992 0.1334
C13 C 0.5731(3) -0.0159(3) 0.11301(6)
C14 C 0.6127(4) 0.0622(3) 0.14652(7)
H12 H 0.5394 0.1513 0.1549
C15 C 0.7568(4) 0.0121(3) 0.16773(7)
H13 H 0.7832 0.0679 0.1903
C16 C 0.8621(3) -0.1187(3) 0.15617(7)
H14 H 0.9615 -0.1530 0.1707
C17 C 0.8230(4) -0.1994(3) 0.12360(6)
H15 H 0.8949 -0.2904 0.1157
C18 C 0.6800(3) -0.1490(3) 0.10224(6)
H16 H 0.6541 -0.2063 0.0798
C19 C 0.6371(3) 0.2237(3) 0.04929(6)
H17 H 0.6501 0.3373 0.0389
H18 H 0.7346 0.2070 0.0675
C20 C 0.6590(3) 0.0979(3) 0.01825(6)
C21 C 0.8058(3) -0.0074(3) 0.01676(6)
H19 H 0.8922 -0.0045 0.0360
C22 C 0.8277(4) -0.1174(3) -0.01276(7)
H20 H 0.9285 -0.1896 -0.0133
C23 C 0.7049(4) -0.1225(3) -0.04100(7)
H21 H 0.7210 -0.1968 -0.0612
C24 C 0.5580(4) -0.0187(3) -0.03973(7)
H22 H 0.4715 -0.0220 -0.0590
C25 C 0.5367(4) 0.0906(3) -0.01029(6)
H23 H 0.4354 0.1621 -0.0098

#END
