./ACOJOT_from_xyz.cif_generated_by_CrystalShift
_symmetry_cell_setting triclinic
_symmetry_space_group_name_H-M 'P 1'
loop_
_symmetry_equiv_pos_site_id
_symmetry_equiv_pos_as_xyz
1 x,y,z
_cell_length_a 19.140000
_cell_length_b 6.288000
_cell_length_c 19.810000
_cell_angle_alpha 90.000000
_cell_angle_beta 91.934000
_cell_angle_gamma 90.000000
_cell_volume 2382.821404
loop_
_atom_site_label
_atom_site_type_symbol
_atom_site_fract_x
_atom_site_fract_y
_atom_site_fract_z
F1 F 0.348740 0.753800 0.297250
F2 F 0.275880 0.505900 0.263790
O3 O 0.237110 0.901600 0.440160
O4 O 0.012590 0.668800 0.424590
O5 O 0.408760 0.386200 0.482070
O6 O 0.429350 0.321500 0.227430
N7 N 0.217030 0.571800 0.393280
N8 N 0.125920 0.773000 0.435570
C9 C 0.196370 0.759700 0.423850
C10 C 0.074560 0.631800 0.414240
C11 C 0.098730 0.442800 0.379860
C12 C 0.167990 0.422500 0.371340
C13 C 0.045950 0.281200 0.355710
C14 C 0.291490 0.539800 0.384550
C15 C 0.322660 0.560500 0.314800
C16 C 0.374800 0.383100 0.332200
C17 C 0.324470 0.314100 0.389230
C18 C 0.391030 0.223300 0.278290
C19 C 0.355720 0.244200 0.457090
H20 H 0.112300 0.883200 0.459100
H21 H 0.447800 0.345900 0.468800
H22 H 0.184100 0.299000 0.349100
H23 H 0.456100 0.231900 0.210300
H24 H 0.070100 0.158500 0.336900
H25 H 0.015000 0.344700 0.320800
H26 H 0.018200 0.234800 0.393700
H27 H 0.317900 0.635800 0.416600
H28 H 0.419000 0.444000 0.352400
H29 H 0.290400 0.205300 0.371500
H30 H 0.418500 0.104500 0.298400
H31 H 0.347000 0.164600 0.258500
H32 H 0.318100 0.235800 0.490100
H33 H 0.375900 0.100200 0.452500
F34 F 0.651260 0.753800 0.202750
F35 F 0.724120 0.505900 0.236210
O36 O 0.762890 0.901600 0.059840
O37 O 0.987410 0.668800 0.075410
O38 O 0.591240 0.386200 0.017930
O39 O 0.570650 0.321500 0.272570
N40 N 0.782970 0.571800 0.106720
N41 N 0.874080 0.773000 0.064430
C42 C 0.803630 0.759700 0.076150
C43 C 0.925440 0.631800 0.085760
C44 C 0.901270 0.442800 0.120140
C45 C 0.832010 0.422500 0.128660
C46 C 0.954050 0.281200 0.144290
C47 C 0.708510 0.539800 0.115450
C48 C 0.677340 0.560500 0.185200
C49 C 0.625200 0.383100 0.167800
C50 C 0.675530 0.314100 0.110770
C51 C 0.608970 0.223300 0.221710
C52 C 0.644280 0.244200 0.042910
H53 H 0.887700 0.883200 0.040900
H54 H 0.552200 0.345900 0.031200
H55 H 0.815900 0.299000 0.150900
H56 H 0.543900 0.231900 0.289700
H57 H 0.929900 0.158500 0.163100
H58 H 0.985000 0.344700 0.179200
H59 H 0.981800 0.234800 0.106300
H60 H 0.682100 0.635800 0.083400
H61 H 0.581000 0.444000 0.147600
H62 H 0.709600 0.205300 0.128500
H63 H 0.581500 0.104500 0.201600
H64 H 0.653000 0.164600 0.241500
H65 H 0.681900 0.235800 0.009900
H66 H 0.624100 0.100200 0.047500
F67 F 0.848740 1.253800 0.297250
F68 F 0.775880 1.005900 0.263790
O69 O 0.737110 1.401600 0.440160
O70 O 0.512590 1.168800 0.424590
O71 O 0.908760 0.886200 0.482070
O72 O 0.929350 0.821500 0.227430
N73 N 0.717030 1.071800 0.393280
N74 N 0.625920 1.273000 0.435570
C75 C 0.696370 1.259700 0.423850
C76 C 0.574560 1.131800 0.414240
C77 C 0.598730 0.942800 0.379860
C78 C 0.667990 0.922500 0.371340
C79 C 0.545950 0.781200 0.355710
C80 C 0.791490 1.039800 0.384550
C81 C 0.822660 1.060500 0.314800
C82 C 0.874800 0.883100 0.332200
C83 C 0.824470 0.814100 0.389230
C84 C 0.891030 0.723300 0.278290
C85 C 0.855720 0.744200 0.457090
H86 H 0.612300 1.383200 0.459100
H87 H 0.947800 0.845900 0.468800
H88 H 0.684100 0.799000 0.349100
H89 H 0.956100 0.731900 0.210300
H90 H 0.570100 0.658500 0.336900
H91 H 0.515000 0.844700 0.320800
H92 H 0.518200 0.734800 0.393700
H93 H 0.817900 1.135800 0.416600
H94 H 0.919000 0.944000 0.352400
H95 H 0.790400 0.705300 0.371500
H96 H 0.918500 0.604500 0.298400
H97 H 0.847000 0.664600 0.258500
H98 H 0.818100 0.735800 0.490100
H99 H 0.875900 0.600200 0.452500
F100 F 0.151260 1.253800 0.202750
F101 F 0.224120 1.005900 0.236210
O102 O 0.262890 1.401600 0.059840
O103 O 0.487410 1.168800 0.075410
O104 O 0.091240 0.886200 0.017930
O105 O 0.070650 0.821500 0.272570
N106 N 0.282970 1.071800 0.106720
N107 N 0.374080 1.273000 0.064430
C108 C 0.303630 1.259700 0.076150
C109 C 0.425440 1.131800 0.085760
C110 C 0.401270 0.942800 0.120140
C111 C 0.332010 0.922500 0.128660
C112 C 0.454050 0.781200 0.144290
C113 C 0.208510 1.039800 0.115450
C114 C 0.177340 1.060500 0.185200
C115 C 0.125200 0.883100 0.167800
C116 C 0.175530 0.814100 0.110770
C117 C 0.108970 0.723300 0.221710
C118 C 0.144280 0.744200 0.042910
H119 H 0.387700 1.383200 0.040900
H120 H 0.052200 0.845900 0.031200
H121 H 0.315900 0.799000 0.150900
H122 H 0.043900 0.731900 0.289700
H123 H 0.429900 0.658500 0.163100
H124 H 0.485000 0.844700 0.179200
H125 H 0.481800 0.734800 0.106300
H126 H 0.182100 1.135800 0.083400
H127 H 0.081000 0.944000 0.147600
H128 H 0.209600 0.705300 0.128500
H129 H 0.081500 0.604500 0.201600
H130 H 0.153000 0.664600 0.241500
H131 H 0.181900 0.735800 0.009900
H132 H 0.124100 0.600200 0.047500
F133 F 0.651260 0.246200 0.702750
F134 F 0.724120 0.494100 0.736210
O135 O 0.762890 0.098400 0.559840
O136 O 0.987410 0.331200 0.575410
O137 O 0.591240 0.613800 0.517930
O138 O 0.570650 0.678500 0.772570
N139 N 0.782970 0.428200 0.606720
N140 N 0.874080 0.227000 0.564430
C141 C 0.803630 0.240300 0.576150
C142 C 0.925440 0.368200 0.585760
C143 C 0.901270 0.557200 0.620140
C144 C 0.832010 0.577500 0.628660
C145 C 0.954050 0.718800 0.644290
C146 C 0.708510 0.460200 0.615450
C147 C 0.677340 0.439500 0.685200
C148 C 0.625200 0.616900 0.667800
C149 C 0.675530 0.685900 0.610770
C150 C 0.608970 0.776700 0.721710
C151 C 0.644280 0.755800 0.542910
H152 H 0.887700 0.116800 0.540900
H153 H 0.552200 0.654100 0.531200
H154 H 0.815900 0.701000 0.650900
H155 H 0.543900 0.768100 0.789700
H156 H 0.929900 0.841500 0.663100
H157 H 0.985000 0.655300 0.679200
H158 H 0.981800 0.765200 0.606300
H159 H 0.682100 0.364200 0.583400
H160 H 0.581000 0.556000 0.647600
H161 H 0.709600 0.794700 0.628500
H162 H 0.581500 0.895500 0.701600
H163 H 0.653000 0.835400 0.741500
H164 H 0.681900 0.764200 0.509900
H165 H 0.624100 0.899800 0.547500
F166 F 0.348740 0.246200 0.797250
F167 F 0.275880 0.494100 0.763790
O168 O 0.237110 0.098400 0.940160
O169 O 0.012590 0.331200 0.924590
O170 O 0.408760 0.613800 0.982070
O171 O 0.429350 0.678500 0.727430
N172 N 0.217030 0.428200 0.893280
N173 N 0.125920 0.227000 0.935570
C174 C 0.196370 0.240300 0.923850
C175 C 0.074560 0.368200 0.914240
C176 C 0.098730 0.557200 0.879860
C177 C 0.167990 0.577500 0.871340
C178 C 0.045950 0.718800 0.855710
C179 C 0.291490 0.460200 0.884550
C180 C 0.322660 0.439500 0.814800
C181 C 0.374800 0.616900 0.832200
C182 C 0.324470 0.685900 0.889230
C183 C 0.391030 0.776700 0.778290
C184 C 0.355720 0.755800 0.957090
H185 H 0.112300 0.116800 0.959100
H186 H 0.447800 0.654100 0.968800
H187 H 0.184100 0.701000 0.849100
H188 H 0.456100 0.768100 0.710300
H189 H 0.070100 0.841500 0.836900
H190 H 0.015000 0.655300 0.820800
H191 H 0.018200 0.765200 0.893700
H192 H 0.317900 0.364200 0.916600
H193 H 0.419000 0.556000 0.852400
H194 H 0.290400 0.794700 0.871500
H195 H 0.418500 0.895500 0.798400
H196 H 0.347000 0.835400 0.758500
H197 H 0.318100 0.764200 0.990100
H198 H 0.375900 0.899800 0.952500
F199 F 0.151260 -0.253800 0.702750
F200 F 0.224120 -0.005900 0.736210
O201 O 0.262890 -0.401600 0.559840
O202 O 0.487410 -0.168800 0.575410
O203 O 0.091240 0.113800 0.517930
O204 O 0.070650 0.178500 0.772570
N205 N 0.282970 -0.071800 0.606720
N206 N 0.374080 -0.273000 0.564430
C207 C 0.303630 -0.259700 0.576150
C208 C 0.425440 -0.131800 0.585760
C209 C 0.401270 0.057200 0.620140
C210 C 0.332010 0.077500 0.628660
C211 C 0.454050 0.218800 0.644290
C212 C 0.208510 -0.039800 0.615450
C213 C 0.177340 -0.060500 0.685200
C214 C 0.125200 0.116900 0.667800
C215 C 0.175530 0.185900 0.610770
C216 C 0.108970 0.276700 0.721710
C217 C 0.144280 0.255800 0.542910
H218 H 0.387700 -0.383200 0.540900
H219 H 0.052200 0.154100 0.531200
H220 H 0.315900 0.201000 0.650900
H221 H 0.043900 0.268100 0.789700
H222 H 0.429900 0.341500 0.663100
H223 H 0.485000 0.155300 0.679200
H224 H 0.481800 0.265200 0.606300
H225 H 0.182100 -0.135800 0.583400
H226 H 0.081000 0.056000 0.647600
H227 H 0.209600 0.294700 0.628500
H228 H 0.081500 0.395500 0.701600
H229 H 0.153000 0.335400 0.741500
H230 H 0.181900 0.264200 0.509900
H231 H 0.124100 0.399800 0.547500
F232 F 0.848740 -0.253800 0.797250
F233 F 0.775880 -0.005900 0.763790
O234 O 0.737110 -0.401600 0.940160
O235 O 0.512590 -0.168800 0.924590
O236 O 0.908760 0.113800 0.982070
O237 O 0.929350 0.178500 0.727430
N238 N 0.717030 -0.071800 0.893280
N239 N 0.625920 -0.273000 0.935570
C240 C 0.696370 -0.259700 0.923850
C241 C 0.574560 -0.131800 0.914240
C242 C 0.598730 0.057200 0.879860
C243 C 0.667990 0.077500 0.871340
C244 C 0.545950 0.218800 0.855710
C245 C 0.791490 -0.039800 0.884550
C246 C 0.822660 -0.060500 0.814800
C247 C 0.874800 0.116900 0.832200
C248 C 0.824470 0.185900 0.889230
C249 C 0.891030 0.276700 0.778290
C250 C 0.855720 0.255800 0.957090
H251 H 0.612300 -0.383200 0.959100
H252 H 0.947800 0.154100 0.968800
H253 H 0.684100 0.201000 0.849100
H254 H 0.956100 0.268100 0.710300
H255 H 0.570100 0.341500 0.836900
H256 H 0.515000 0.155300 0.820800
H257 H 0.518200 0.265200 0.893700
H258 H 0.817900 -0.135800 0.916600
H259 H 0.919000 0.056000 0.852400
H260 H 0.790400 0.294700 0.871500
H261 H 0.918500 0.395500 0.798400
H262 H 0.847000 0.335400 0.758500
H263 H 0.818100 0.264200 0.990100
H264 H 0.875900 0.399800 0.952500

#END
