
#######################################################################
#
#                 Cambridge Crystallographic Data Centre
#                                CCDC 
#
#######################################################################
#
# If this CIF has been generated from an entry in the Cambridge 
# Structural Database, then it will include bibliographic, chemical, 
# crystal, experimental, refinement or atomic coordinate data resulting 
# from the CCDC's data processing and validation procedures.
#
#######################################################################

data_ACOKAE
_symmetry_cell_setting           orthorhombic
_symmetry_space_group_name_H-M   'P c a 21'
_symmetry_Int_Tables_number      29
_space_group_name_Hall           'P 2c -2ac'
loop_
_symmetry_equiv_pos_site_id
_symmetry_equiv_pos_as_xyz
1 x,y,z
2 -x,-y,1/2+z
3 1/2-x,y,1/2+z
4 1/2+x,-y,z
_cell_length_a                   11.7854(9)
_cell_length_b                   6.2300(4)
_cell_length_c                   10.0333(4)
_cell_angle_alpha                90
_cell_angle_beta                 90
_cell_angle_gamma                90
_cell_volume                     736.675
loop_
_atom_site_label
_atom_site_type_symbol
_atom_site_fract_x
_atom_site_fract_y
_atom_site_fract_z
Cl1 Cl 0.21652(6) 0.55105(12) 0.37545(9)
C1 C 0.4246(2) 0.1435(4) 0.0994(2)
C2 C 0.3190(2) 0.0763(4) 0.1429(3)
F1 F 0.27819(14) -0.1147(2) 0.1026(2)
C3 C 0.2544(2) 0.2009(4) 0.2265(3)
F2 F 0.15474(13) 0.1273(3) 0.2699(2)
C4 C 0.2944(2) 0.3982(4) 0.2686(2)
C5 C 0.3992(2) 0.4690(4) 0.2255(3)
F3 F 0.43981(13) 0.6569(2) 0.2669(2)
C6 C 0.4632(2) 0.3441(4) 0.1417(2)
F4 F 0.56656(13) 0.4166(3) 0.0985(2)
C7 C 0.4923(3) 0.0093(5) 0.0164(3)
N1 N 0.5473(3) -0.1008(5) -0.0501(3)
Cl1 Cl 0.78348(6) 0.44895(12) 0.87545(9)
C1 C 0.5754(2) 0.8565(4) 0.5994(2)
C2 C 0.6810(2) 0.9237(4) 0.6429(3)
F1 F 0.72181(14) 1.1147(2) 0.6026(2)
C3 C 0.7456(2) 0.7991(4) 0.7265(3)
F2 F 0.84526(13) 0.8727(3) 0.7699(2)
C4 C 0.7056(2) 0.6018(4) 0.7686(2)
C5 C 0.6008(2) 0.5310(4) 0.7255(3)
F3 F 0.56019(13) 0.3431(2) 0.7669(2)
C6 C 0.5368(2) 0.6559(4) 0.6417(2)
F4 F 0.43344(13) 0.5834(3) 0.5985(2)
C7 C 0.5077(3) 0.9907(5) 0.5164(3)
N1 N 0.4527(3) 1.1008(5) 0.4499(3)
Cl1 Cl 0.28348(6) 0.55105(12) 0.87545(9)
C1 C 0.0754(2) 0.1435(4) 0.5994(2)
C2 C 0.1810(2) 0.0763(4) 0.6429(3)
F1 F 0.22181(14) -0.1147(2) 0.6026(2)
C3 C 0.2456(2) 0.2009(4) 0.7265(3)
F2 F 0.34526(13) 0.1273(3) 0.7699(2)
C4 C 0.2056(2) 0.3982(4) 0.7686(2)
C5 C 0.1008(2) 0.4690(4) 0.7255(3)
F3 F 0.06019(13) 0.6569(2) 0.7669(2)
C6 C 0.0368(2) 0.3441(4) 0.6417(2)
F4 F -0.06656(13) 0.4166(3) 0.5985(2)
C7 C 0.0077(3) 0.0093(5) 0.5164(3)
N1 N -0.0473(3) -0.1008(5) 0.4499(3)
Cl1 Cl 0.71652(6) 0.44895(12) 0.37545(9)
C1 C 0.9246(2) 0.8565(4) 0.0994(2)
C2 C 0.8190(2) 0.9237(4) 0.1429(3)
F1 F 0.77819(14) 1.1147(2) 0.1026(2)
C3 C 0.7544(2) 0.7991(4) 0.2265(3)
F2 F 0.65474(13) 0.8727(3) 0.2699(2)
C4 C 0.7944(2) 0.6018(4) 0.2686(2)
C5 C 0.8992(2) 0.5310(4) 0.2255(3)
F3 F 0.93981(13) 0.3431(2) 0.2669(2)
C6 C 0.9632(2) 0.6559(4) 0.1417(2)
F4 F 1.06656(13) 0.5834(3) 0.0985(2)
C7 C 0.9923(3) 0.9907(5) 0.0164(3)
N1 N 1.0473(3) 1.1008(5) -0.0501(3)

#END
