./ACOKAE_from_xyz.cif_generated_by_CrystalShift
_symmetry_cell_setting triclinic
_symmetry_space_group_name_H-M 'P 1'
loop_
_symmetry_equiv_pos_site_id
_symmetry_equiv_pos_as_xyz
1 x,y,z
_cell_length_a 11.785400
_cell_length_b 6.230000
_cell_length_c 10.033300
_cell_angle_alpha 90.000000
_cell_angle_beta 90.000000
_cell_angle_gamma 90.000000
_cell_volume 736.675407
loop_
_atom_site_label
_atom_site_type_symbol
_atom_site_fract_x
_atom_site_fract_y
_atom_site_fract_z
Cl1 Cl 0.216520 0.551050 0.375450
C2 C 0.424600 0.143500 0.099400
C3 C 0.319000 0.076300 0.142900
F4 F 0.278190 -0.114700 0.102600
C5 C 0.254400 0.200900 0.226500
F6 F 0.154740 0.127300 0.269900
C7 C 0.294400 0.398200 0.268600
C8 C 0.399200 0.469000 0.225500
F9 F 0.439810 0.656900 0.266900
C10 C 0.463200 0.344100 0.141700
F11 F 0.566560 0.416600 0.098500
C12 C 0.492300 0.009300 0.016400
N13 N 0.547300 -0.100800 -0.050100
Cl14 Cl 0.783480 0.448950 0.875450
C15 C 0.575400 0.856500 0.599400
C16 C 0.681000 0.923700 0.642900
F17 F 0.721810 1.114700 0.602600
C18 C 0.745600 0.799100 0.726500
F19 F 0.845260 0.872700 0.769900
C20 C 0.705600 0.601800 0.768600
C21 C 0.600800 0.531000 0.725500
F22 F 0.560190 0.343100 0.766900
C23 C 0.536800 0.655900 0.641700
F24 F 0.433440 0.583400 0.598500
C25 C 0.507700 0.990700 0.516400
N26 N 0.452700 1.100800 0.449900
Cl27 Cl 0.283480 0.551050 0.875450
C28 C 0.075400 0.143500 0.599400
C29 C 0.181000 0.076300 0.642900
F30 F 0.221810 -0.114700 0.602600
C31 C 0.245600 0.200900 0.726500
F32 F 0.345260 0.127300 0.769900
C33 C 0.205600 0.398200 0.768600
C34 C 0.100800 0.469000 0.725500
F35 F 0.060190 0.656900 0.766900
C36 C 0.036800 0.344100 0.641700
F37 F -0.066560 0.416600 0.598500
C38 C 0.007700 0.009300 0.516400
N39 N -0.047300 -0.100800 0.449900
Cl40 Cl 0.716520 0.448950 0.375450
C41 C 0.924600 0.856500 0.099400
C42 C 0.819000 0.923700 0.142900
F43 F 0.778190 1.114700 0.102600
C44 C 0.754400 0.799100 0.226500
F45 F 0.654740 0.872700 0.269900
C46 C 0.794400 0.601800 0.268600
C47 C 0.899200 0.531000 0.225500
F48 F 0.939810 0.343100 0.266900
C49 C 0.963200 0.655900 0.141700
F50 F 1.066560 0.583400 0.098500
C51 C 0.992300 0.990700 0.016400
N52 N 1.047300 1.100800 -0.050100

#END
