
#######################################################################
#
#                 Cambridge Crystallographic Data Centre
#                                CCDC 
#
#######################################################################
#
# If this CIF has been generated from an entry in the Cambridge 
# Structural Database, then it will include bibliographic, chemical, 
# crystal, experimental, refinement or atomic coordinate data resulting 
# from the CCDC's data processing and validation procedures.
#
#######################################################################

data_ACOLAH
_symmetry_cell_setting           monoclinic
_symmetry_space_group_name_H-M   'P 21/c'
_symmetry_Int_Tables_number      14
_space_group_name_Hall           '-P 2ybc'
loop_
_symmetry_equiv_pos_site_id
_symmetry_equiv_pos_as_xyz
1 x,y,z
2 -x,1/2+y,1/2-z
3 -x,-y,-z
4 x,1/2-y,1/2+z
_cell_length_a                   11.0766(6)
_cell_length_b                   10.0123(6)
_cell_length_c                   13.7838(7)
_cell_angle_alpha                90
_cell_angle_beta                 108.455(2)
_cell_angle_gamma                90
_cell_volume                     1450.04
loop_
_atom_site_label
_atom_site_type_symbol
_atom_site_fract_x
_atom_site_fract_y
_atom_site_fract_z
Cl1 Cl 0.66836(5) -0.04557(5) 0.27700(3)
N1 N 0.37145(16) 0.38721(18) -0.20146(11)
C1 C 0.42653(18) 0.34467(19) -0.12330(13)
C2 C 0.49299(17) 0.29112(18) -0.02310(12)
C3 C 0.60530(17) 0.34911(19) 0.03828(12)
H1 H 0.6393 0.4252 0.0149
C4 C 0.66728(17) 0.29538(18) 0.13371(12)
H2 H 0.7451 0.3336 0.175
C5 C 0.61664(16) 0.18611(18) 0.16964(12)
C6 C 0.50393(17) 0.12857(19) 0.10679(12)
H3 H 0.4692 0.053 0.1302
C7 C 0.44274(17) 0.18066(19) 0.01104(12)
H4 H 0.3664 0.1409 -0.0313
C8 C 0.68268(17) 0.12840(19) 0.27140(12)
N2 N 0.94013(17) 1.02726(18) 0.62646(12)
C9 C 0.92356(18) 0.9168(2) 0.60469(13)
C10 C 0.90083(16) 0.77933(19) 0.57331(13)
C11 C 0.86775(17) 0.7486(2) 0.46914(12)
H5 H 0.8619 0.8176 0.4206
C12 C 0.84375(16) 0.61866(19) 0.43717(12)
H6 H 0.821 0.599 0.3662
C13 C 0.85194(16) 0.51458(19) 0.50647(12)
C14 C 0.88845(17) 0.54713(19) 0.61118(12)
H7 H 0.8973 0.4778 0.66
C15 C 0.91172(16) 0.6774(2) 0.64439(12)
H8 H 0.935 0.6976 0.7153
C16 C 0.82722(16) 0.37570(19) 0.47466(12)
H9 H 0.8582 0.3096 0.526
C17 C 0.76484(16) 0.33196(19) 0.37965(12)
H10 H 0.7312 0.3944 0.326
C18 C 0.74866(16) 0.19048(19) 0.35880(13)
H11 H 0.7903 0.1334 0.4144
Cl1 Cl 0.33164(5) 0.45443(5) 0.22300(3)
N1 N 0.62855(16) 0.88721(18) 0.70146(11)
C1 C 0.57347(18) 0.84467(19) 0.62330(13)
C2 C 0.50701(17) 0.79112(18) 0.52310(12)
C3 C 0.39470(17) 0.84911(19) 0.46172(12)
H1 H 0.3607 0.9252 0.4851
C4 C 0.33272(17) 0.79538(18) 0.36629(12)
H2 H 0.2549 0.8336 0.325
C5 C 0.38336(16) 0.68611(18) 0.33036(12)
C6 C 0.49607(17) 0.62857(19) 0.39321(12)
H3 H 0.5308 0.553 0.3698
C7 C 0.55726(17) 0.68066(19) 0.48896(12)
H4 H 0.6336 0.6409 0.5313
C8 C 0.31732(17) 0.62840(19) 0.22860(12)
N2 N 0.05987(17) 1.52726(18) -0.12646(12)
C9 C 0.07644(18) 1.4168(2) -0.10469(13)
C10 C 0.09917(16) 1.27933(19) -0.07331(13)
C11 C 0.13225(17) 1.2486(2) 0.03086(12)
H5 H 0.1381 1.3176 0.0794
C12 C 0.15625(16) 1.11866(19) 0.06283(12)
H6 H 0.179 1.099 0.1338
C13 C 0.14806(16) 1.01458(19) -0.00647(12)
C14 C 0.11155(17) 1.04713(19) -0.11118(12)
H7 H 0.1027 0.9778 -0.16
C15 C 0.08828(16) 1.1774(2) -0.14439(12)
H8 H 0.065 1.1976 -0.2153
C16 C 0.17278(16) 0.87570(19) 0.02534(12)
H9 H 0.1418 0.8096 -0.026
C17 C 0.23516(16) 0.83196(19) 0.12035(12)
H10 H 0.2688 0.8944 0.174
C18 C 0.25134(16) 0.69048(19) 0.14120(13)
H11 H 0.2097 0.6334 0.0856
Cl1 Cl 0.33164(5) 1.04557(5) 0.72300(3)
N1 N 0.62855(16) 0.61279(18) 1.20146(11)
C1 C 0.57347(18) 0.65533(19) 1.12330(13)
C2 C 0.50701(17) 0.70888(18) 1.02310(12)
C3 C 0.39470(17) 0.65089(19) 0.96172(12)
H1 H 0.3607 0.5748 0.9851
C4 C 0.33272(17) 0.70462(18) 0.86629(12)
H2 H 0.2549 0.6664 0.825
C5 C 0.38336(16) 0.81389(18) 0.83036(12)
C6 C 0.49607(17) 0.87143(19) 0.89321(12)
H3 H 0.5308 0.947 0.8698
C7 C 0.55726(17) 0.81934(19) 0.98896(12)
H4 H 0.6336 0.8591 1.0313
C8 C 0.31732(17) 0.87160(19) 0.72860(12)
N2 N 0.05987(17) -0.02726(18) 0.37354(12)
C9 C 0.07644(18) 0.0832(2) 0.39531(13)
C10 C 0.09917(16) 0.22067(19) 0.42669(13)
C11 C 0.13225(17) 0.2514(2) 0.53086(12)
H5 H 0.1381 0.1824 0.5794
C12 C 0.15625(16) 0.38134(19) 0.56283(12)
H6 H 0.179 0.401 0.6338
C13 C 0.14806(16) 0.48542(19) 0.49353(12)
C14 C 0.11155(17) 0.45287(19) 0.38882(12)
H7 H 0.1027 0.5222 0.34
C15 C 0.08828(16) 0.3226(2) 0.35561(12)
H8 H 0.065 0.3024 0.2847
C16 C 0.17278(16) 0.62430(19) 0.52534(12)
H9 H 0.1418 0.6904 0.474
C17 C 0.23516(16) 0.66804(19) 0.62035(12)
H10 H 0.2688 0.6056 0.674
C18 C 0.25134(16) 0.80952(19) 0.64120(13)
H11 H 0.2097 0.8666 0.5856
Cl1 Cl 0.66836(5) 0.54557(5) 0.77700(3)
N1 N 0.37145(16) 0.11279(18) 0.29854(11)
C1 C 0.42653(18) 0.15533(19) 0.37670(13)
C2 C 0.49299(17) 0.20888(18) 0.47690(12)
C3 C 0.60530(17) 0.15089(19) 0.53828(12)
H1 H 0.6393 0.0748 0.5149
C4 C 0.66728(17) 0.20462(18) 0.63371(12)
H2 H 0.7451 0.1664 0.675
C5 C 0.61664(16) 0.31389(18) 0.66964(12)
C6 C 0.50393(17) 0.37143(19) 0.60679(12)
H3 H 0.4692 0.447 0.6302
C7 C 0.44274(17) 0.31934(19) 0.51104(12)
H4 H 0.3664 0.3591 0.4687
C8 C 0.68268(17) 0.37160(19) 0.77140(12)
N2 N 0.94013(17) -0.52726(18) 1.12646(12)
C9 C 0.92356(18) -0.4168(2) 1.10469(13)
C10 C 0.90083(16) -0.27933(19) 1.07331(13)
C11 C 0.86775(17) -0.2486(2) 0.96914(12)
H5 H 0.8619 -0.3176 0.9206
C12 C 0.84375(16) -0.11866(19) 0.93717(12)
H6 H 0.821 -0.099 0.8662
C13 C 0.85194(16) -0.01458(19) 1.00647(12)
C14 C 0.88845(17) -0.04713(19) 1.11118(12)
H7 H 0.8973 0.0222 1.16
C15 C 0.91172(16) -0.1774(2) 1.14439(12)
H8 H 0.935 -0.1976 1.2153
C16 C 0.82722(16) 0.12430(19) 0.97466(12)
H9 H 0.8582 0.1904 1.026
C17 C 0.76484(16) 0.16804(19) 0.87965(12)
H10 H 0.7312 0.1056 0.826
C18 C 0.74866(16) 0.30952(19) 0.85880(13)
H11 H 0.7903 0.3666 0.9144

#END
