
#######################################################################
#
#                 Cambridge Crystallographic Data Centre
#                                CCDC 
#
#######################################################################
#
# If this CIF has been generated from an entry in the Cambridge 
# Structural Database, then it will include bibliographic, chemical, 
# crystal, experimental, refinement or atomic coordinate data resulting 
# from the CCDC's data processing and validation procedures.
#
#######################################################################

data_ACOMUC
_symmetry_cell_setting           monoclinic
_symmetry_space_group_name_H-M   'P 21/c'
_symmetry_Int_Tables_number      14
_space_group_name_Hall           '-P 2ybc'
loop_
_symmetry_equiv_pos_site_id
_symmetry_equiv_pos_as_xyz
1 x,y,z
2 -x,1/2+y,1/2-z
3 -x,-y,-z
4 x,1/2-y,1/2+z
_cell_length_a                   16.1822(11)
_cell_length_b                   4.8068(3)
_cell_length_c                   21.7053(15)
_cell_angle_alpha                90
_cell_angle_beta                 102.360(4)
_cell_angle_gamma                90
_cell_volume                     1649.21
loop_
_atom_site_label
_atom_site_type_symbol
_atom_site_fract_x
_atom_site_fract_y
_atom_site_fract_z
C1 C 0.52288(11) 0.5229(4) 0.63242(9)
C2 C 0.50983(12) 0.6715(4) 0.57614(9)
H1 H 0.5448 0.6403 0.5468
C3 C 0.44564(12) 0.8639(4) 0.56366(9)
H2 H 0.4364 0.9603 0.5246
C4 C 0.40903(13) 0.7820(4) 0.65805(9)
H3 H 0.3746 0.8227 0.6873
C5 C 0.47067(12) 0.5809(4) 0.67351(9)
H4 H 0.4772 0.4827 0.7122
C6 C 0.58917(12) 0.3028(4) 0.65012(9)
N1 N 0.64845(11) 0.2785(4) 0.61657(8)
H19 H 0.6892(13) 0.146(5) 0.6294(10)
H20 H 0.6527(13) 0.402(4) 0.5865(10)
N2 N 0.39555(10) 0.9230(3) 0.60337(7)
O1 O 0.58654(8) 0.1476(3) 0.69545(6)
C1 C 0.47712(11) 0.0229(4) 0.86758(9)
C2 C 0.49017(12) 0.1715(4) 0.92386(9)
H1 H 0.4552 0.1403 0.9532
C3 C 0.55436(12) 0.3639(4) 0.93634(9)
H2 H 0.5636 0.4603 0.9754
C4 C 0.59097(13) 0.2820(4) 0.84195(9)
H3 H 0.6254 0.3227 0.8127
C5 C 0.52933(12) 0.0809(4) 0.82649(9)
H4 H 0.5228 -0.0173 0.7878
C6 C 0.41083(12) -0.1972(4) 0.84988(9)
N1 N 0.35155(11) -0.2215(4) 0.88343(8)
H19 H 0.3108(13) -0.354(5) 0.8706(10)
H20 H 0.3473(13) -0.098(4) 0.9135(10)
N2 N 0.60445(10) 0.4230(3) 0.89663(7)
O1 O 0.41346(8) -0.3524(3) 0.80455(6)
C1 C 0.47712(11) 0.4771(4) 0.36758(9)
C2 C 0.49017(12) 0.3285(4) 0.42386(9)
H1 H 0.4552 0.3597 0.4532
C3 C 0.55436(12) 0.1361(4) 0.43634(9)
H2 H 0.5636 0.0397 0.4754
C4 C 0.59097(13) 0.2180(4) 0.34195(9)
H3 H 0.6254 0.1773 0.3127
C5 C 0.52933(12) 0.4191(4) 0.32649(9)
H4 H 0.5228 0.5173 0.2878
C6 C 0.41083(12) 0.6972(4) 0.34988(9)
N1 N 0.35155(11) 0.7215(4) 0.38343(8)
H19 H 0.3108(13) 0.854(5) 0.3706(10)
H20 H 0.3473(13) 0.598(4) 0.4135(10)
N2 N 0.60445(10) 0.0770(3) 0.39663(7)
O1 O 0.41346(8) 0.8524(3) 0.30455(6)
C1 C 0.52288(11) 0.9771(4) 0.13242(9)
C2 C 0.50983(12) 0.8285(4) 0.07614(9)
H1 H 0.5448 0.8597 0.0468
C3 C 0.44564(12) 0.6361(4) 0.06366(9)
H2 H 0.4364 0.5397 0.0246
C4 C 0.40903(13) 0.7180(4) 0.15805(9)
H3 H 0.3746 0.6773 0.1873
C5 C 0.47067(12) 0.9191(4) 0.17351(9)
H4 H 0.4772 1.0173 0.2122
C6 C 0.58917(12) 1.1972(4) 0.15012(9)
N1 N 0.64845(11) 1.2215(4) 0.11657(8)
H19 H 0.6892(13) 1.354(5) 0.1294(10)
H20 H 0.6527(13) 1.098(4) 0.0865(10)
N2 N 0.39555(10) 0.5770(3) 0.10337(7)
O1 O 0.58654(8) 1.3524(3) 0.19545(6)
C7 C 0.20170(13) 0.6234(5) 0.50199(10)
H5 H 0.218 0.8005 0.5257
C8 C 0.11295(14) 0.5359(6) 0.50853(12)
H6 H 0.1038 0.3321 0.507
H7 H 0.0952 0.6188 0.5454
C9 C 0.07681(14) 0.6843(6) 0.44614(11)
H8 H 0.0358 0.571 0.4159
H9 H 0.0537 0.8714 0.4514
C10 C 0.16573(14) 0.6888(6) 0.43249(11)
H10 H 0.1758 0.5406 0.4033
H11 H 0.1828 0.8729 0.419
C11 C 0.27175(12) 0.4173(4) 0.51908(9)
O2 O 0.27497(10) 0.2990(3) 0.57422(6)
H21 H 0.3263(15) 0.158(5) 0.5848(11)
O3 O 0.32142(9) 0.3612(3) 0.48593(7)
C7 C 0.79830(13) 0.1234(5) -0.00199(10)
H5 H 0.782 0.3005 -0.0257
C8 C 0.88705(14) 0.0359(6) -0.00853(12)
H6 H 0.8962 -0.1679 -0.007
H7 H 0.9048 0.1188 -0.0454
C9 C 0.92319(14) 0.1843(6) 0.05386(11)
H8 H 0.9642 0.071 0.0841
H9 H 0.9463 0.3714 0.0486
C10 C 0.83427(14) 0.1888(6) 0.06751(11)
H10 H 0.8242 0.0406 0.0967
H11 H 0.8172 0.3729 0.081
C11 C 0.72825(12) -0.0827(4) -0.01908(9)
O2 O 0.72503(10) -0.2010(3) -0.07422(6)
H21 H 0.6737(15) -0.342(5) -0.0848(11)
O3 O 0.67858(9) -0.1388(3) 0.01407(7)
C7 C 0.79830(13) 0.3766(5) 0.49801(10)
H5 H 0.782 0.1995 0.4743
C8 C 0.88705(14) 0.4641(6) 0.49147(12)
H6 H 0.8962 0.6679 0.493
H7 H 0.9048 0.3812 0.4546
C9 C 0.92319(14) 0.3157(6) 0.55386(11)
H8 H 0.9642 0.429 0.5841
H9 H 0.9463 0.1286 0.5486
C10 C 0.83427(14) 0.3112(6) 0.56751(11)
H10 H 0.8242 0.4594 0.5967
H11 H 0.8172 0.1271 0.581
C11 C 0.72825(12) 0.5827(4) 0.48092(9)
O2 O 0.72503(10) 0.7010(3) 0.42578(6)
H21 H 0.6737(15) 0.842(5) 0.4152(11)
O3 O 0.67858(9) 0.6388(3) 0.51407(7)
C7 C 0.20170(13) 0.8766(5) 1.00199(10)
H5 H 0.218 0.6995 1.0257
C8 C 0.11295(14) 0.9641(6) 1.00853(12)
H6 H 0.1038 1.1679 1.007
H7 H 0.0952 0.8812 1.0454
C9 C 0.07681(14) 0.8157(6) 0.94614(11)
H8 H 0.0358 0.929 0.9159
H9 H 0.0537 0.6286 0.9514
C10 C 0.16573(14) 0.8112(6) 0.93249(11)
H10 H 0.1758 0.9594 0.9033
H11 H 0.1828 0.6271 0.919
C11 C 0.27175(12) 1.0827(4) 1.01908(9)
O2 O 0.27497(10) 1.2010(3) 1.07422(6)
H21 H 0.3263(15) 1.342(5) 1.0848(11)
O3 O 0.32142(9) 1.1388(3) 0.98593(7)
C12 C 0.81096(13) 0.4808(5) 0.75475(10)
H12 H 0.781 0.2996 0.7439
C13 C 0.84551(19) 0.4923(7) 0.82546(13)
H13 H 0.8155 0.3691 0.85
H14 H 0.8507 0.6833 0.843
C14 C 0.92916(16) 0.3713(6) 0.81467(12)
H15 H 0.9801 0.4713 0.8374
H16 H 0.9349 0.168 0.8217
C15 C 0.90082(15) 0.4537(6) 0.74561(12)
H17 H 0.9255 0.6311 0.7349
H18 H 0.9083 0.3048 0.7158
C16 C 0.75608(13) 0.7096(4) 0.72318(10)
O4 O 0.68832(9) 0.7505(3) 0.74703(7)
H22 H 0.6491(15) 0.918(5) 0.7242(11)
O5 O 0.77135(9) 0.8484(3) 0.68010(7)
C12 C 0.18904(13) -0.0192(5) 0.74525(10)
H12 H 0.219 -0.2004 0.7561
C13 C 0.15449(19) -0.0077(7) 0.67454(13)
H13 H 0.1845 -0.1309 0.65
H14 H 0.1493 0.1833 0.657
C14 C 0.07084(16) -0.1287(6) 0.68533(12)
H15 H 0.0199 -0.0287 0.6626
H16 H 0.0651 -0.332 0.6783
C15 C 0.09918(15) -0.0463(6) 0.75439(12)
H17 H 0.0745 0.1311 0.7651
H18 H 0.0917 -0.1952 0.7842
C16 C 0.24392(13) 0.2096(4) 0.77682(10)
O4 O 0.31168(9) 0.2505(3) 0.75297(7)
H22 H 0.3509(15) 0.418(5) 0.7758(11)
O5 O 0.22865(9) 0.3484(3) 0.81990(7)
C12 C 0.18904(13) 0.5192(5) 0.24525(10)
H12 H 0.219 0.7004 0.2561
C13 C 0.15449(19) 0.5077(7) 0.17454(13)
H13 H 0.1845 0.6309 0.15
H14 H 0.1493 0.3167 0.157
C14 C 0.07084(16) 0.6287(6) 0.18533(12)
H15 H 0.0199 0.5287 0.1626
H16 H 0.0651 0.832 0.1783
C15 C 0.09918(15) 0.5463(6) 0.25439(12)
H17 H 0.0745 0.3689 0.2651
H18 H 0.0917 0.6952 0.2842
C16 C 0.24392(13) 0.2904(4) 0.27682(10)
O4 O 0.31168(9) 0.2495(3) 0.25297(7)
H22 H 0.3509(15) 0.082(5) 0.2758(11)
O5 O 0.22865(9) 0.1516(3) 0.31990(7)
C12 C 0.81096(13) 1.0192(5) 0.25475(10)
H12 H 0.781 1.2004 0.2439
C13 C 0.84551(19) 1.0077(7) 0.32546(13)
H13 H 0.8155 1.1309 0.35
H14 H 0.8507 0.8167 0.343
C14 C 0.92916(16) 1.1287(6) 0.31467(12)
H15 H 0.9801 1.0287 0.3374
H16 H 0.9349 1.332 0.3217
C15 C 0.90082(15) 1.0463(6) 0.24561(12)
H17 H 0.9255 0.8689 0.2349
H18 H 0.9083 1.1952 0.2158
C16 C 0.75608(13) 0.7904(4) 0.22318(10)
O4 O 0.68832(9) 0.7495(3) 0.24703(7)
H22 H 0.6491(15) 0.582(5) 0.2242(11)
O5 O 0.77135(9) 0.6516(3) 0.18010(7)

#END
