./ACOMIP_from_xyz.cif_generated_by_CrystalShift
_symmetry_cell_setting triclinic
_symmetry_space_group_name_H-M 'P 1'
loop_
_symmetry_equiv_pos_site_id
_symmetry_equiv_pos_as_xyz
1 x,y,z
_cell_length_a 9.330000
_cell_length_b 17.701000
_cell_length_c 9.931900
_cell_angle_alpha 90.000000
_cell_angle_beta 101.221000
_cell_angle_gamma 90.000000
_cell_volume 1608.901286
loop_
_atom_site_label
_atom_site_type_symbol
_atom_site_fract_x
_atom_site_fract_y
_atom_site_fract_z
Ti1 Ti 0.355270 0.270374 0.585705
Cl2 Cl 0.597490 0.263160 0.611830
Cl3 Cl 0.256460 0.360445 0.438420
Si4 Si 0.471160 0.232970 1.047050
Si5 Si 0.253580 0.245604 0.882440
Si6 Si 0.136030 0.129984 0.803430
Si7 Si 0.178500 0.108297 0.577630
Si8 Si 0.330470 0.003556 0.564090
Si9 Si 0.094940 0.337957 0.942140
Si10 Si -0.035170 0.117370 0.407070
O11 O 0.310920 0.286080 0.746170
O12 O 0.277970 0.182780 0.535220
C13 C 0.572020 0.324660 1.046100
H14 H 0.659700 0.324000 1.118900
H15 H 0.508600 0.366500 1.062100
H16 H 0.600500 0.331400 0.957000
C17 C 0.426790 0.215410 1.218810
H18 H 0.366100 0.170000 1.215100
H19 H 0.373500 0.258800 1.245600
H20 H 0.517400 0.208200 1.286300
C21 C 0.592470 0.158390 1.001300
H22 H 0.689700 0.163100 1.059500
H23 H 0.600200 0.163900 0.904800
H24 H 0.551700 0.108600 1.015300
C25 C 0.210550 0.049960 0.923050
H26 H 0.191400 0.060300 1.014900
H27 H 0.316100 0.045500 0.927800
H28 H 0.162700 0.002600 0.888400
C29 C -0.066510 0.134240 0.801780
H30 H -0.111800 0.086000 0.768600
H31 H -0.110500 0.175100 0.740900
H32 H -0.082400 0.143800 0.895000
C33 C 0.505530 0.017110 0.691750
H34 H 0.574900 -0.022700 0.679500
H35 H 0.485800 0.014500 0.785000
H36 H 0.547200 0.066600 0.677300
C37 C 0.378320 0.000170 0.389890
H38 H 0.446800 -0.041400 0.386200
H39 H 0.423900 0.048000 0.371700
H40 H 0.289400 -0.007900 0.320500
C41 C 0.233200 -0.084520 0.599160
H42 H 0.139400 -0.087900 0.534800
H43 H 0.216000 -0.083200 0.693400
H44 H 0.293200 -0.128600 0.587700
C45 C 0.004330 0.303130 1.082930
H46 H -0.048700 0.344800 1.116100
H47 H 0.078600 0.283800 1.158600
H48 H -0.064300 0.262600 1.047700
C49 C 0.199870 0.425860 1.001700
H50 H 0.259500 0.440300 0.934800
H51 H 0.263500 0.416500 1.091000
H52 H 0.131600 0.466800 1.010500
C53 C -0.042510 0.360830 0.784680
H54 H -0.107800 0.400700 0.805600
H55 H -0.099700 0.315500 0.753200
H56 H 0.007800 0.378300 0.712500
C57 C 0.016690 0.098880 0.236480
H58 H 0.049100 0.046400 0.232900
H59 H 0.096200 0.132900 0.224800
H60 H -0.068100 0.107700 0.162800
C61 C -0.102450 0.217310 0.408700
H62 H -0.184500 0.224900 0.331700
H63 H -0.023200 0.252200 0.400000
H64 H -0.134800 0.227000 0.495200
C65 C -0.181490 0.049870 0.430780
H66 H -0.217400 0.063000 0.514200
H67 H -0.141900 -0.001600 0.439300
H68 H -0.262200 0.052600 0.351400
Ti69 Ti 0.644730 0.770374 0.414295
Cl70 Cl 0.402510 0.763160 0.388170
Cl71 Cl 0.743540 0.860445 0.561580
Si72 Si 0.528840 0.732970 -0.047050
Si73 Si 0.746420 0.745604 0.117560
Si74 Si 0.863970 0.629984 0.196570
Si75 Si 0.821500 0.608297 0.422370
Si76 Si 0.669530 0.503556 0.435910
Si77 Si 0.905060 0.837957 0.057860
Si78 Si 1.035170 0.617370 0.592930
O79 O 0.689080 0.786080 0.253830
O80 O 0.722030 0.682780 0.464780
C81 C 0.427980 0.824660 -0.046100
H82 H 0.340300 0.824000 -0.118900
H83 H 0.491400 0.866500 -0.062100
H84 H 0.399500 0.831400 0.043000
C85 C 0.573210 0.715410 -0.218810
H86 H 0.633900 0.670000 -0.215100
H87 H 0.626500 0.758800 -0.245600
H88 H 0.482600 0.708200 -0.286300
C89 C 0.407530 0.658390 -0.001300
H90 H 0.310300 0.663100 -0.059500
H91 H 0.399800 0.663900 0.095200
H92 H 0.448300 0.608600 -0.015300
C93 C 0.789450 0.549960 0.076950
H94 H 0.808600 0.560300 -0.014900
H95 H 0.683900 0.545500 0.072200
H96 H 0.837300 0.502600 0.111600
C97 C 1.066510 0.634240 0.198220
H98 H 1.111800 0.586000 0.231400
H99 H 1.110500 0.675100 0.259100
H100 H 1.082400 0.643800 0.105000
C101 C 0.494470 0.517110 0.308250
H102 H 0.425100 0.477300 0.320500
H103 H 0.514200 0.514500 0.215000
H104 H 0.452800 0.566600 0.322700
C105 C 0.621680 0.500170 0.610110
H106 H 0.553200 0.458600 0.613800
H107 H 0.576100 0.548000 0.628300
H108 H 0.710600 0.492100 0.679500
C109 C 0.766800 0.415480 0.400840
H110 H 0.860600 0.412100 0.465200
H111 H 0.784000 0.416800 0.306600
H112 H 0.706800 0.371400 0.412300
C113 C 0.995670 0.803130 -0.082930
H114 H 1.048700 0.844800 -0.116100
H115 H 0.921400 0.783800 -0.158600
H116 H 1.064300 0.762600 -0.047700
C117 C 0.800130 0.925860 -0.001700
H118 H 0.740500 0.940300 0.065200
H119 H 0.736500 0.916500 -0.091000
H120 H 0.868400 0.966800 -0.010500
C121 C 1.042510 0.860830 0.215320
H122 H 1.107800 0.900700 0.194400
H123 H 1.099700 0.815500 0.246800
H124 H 0.992200 0.878300 0.287500
C125 C 0.983310 0.598880 0.763520
H126 H 0.950900 0.546400 0.767100
H127 H 0.903800 0.632900 0.775200
H128 H 1.068100 0.607700 0.837200
C129 C 1.102450 0.717310 0.591300
H130 H 1.184500 0.724900 0.668300
H131 H 1.023200 0.752200 0.600000
H132 H 1.134800 0.727000 0.504800
C133 C 1.181490 0.549870 0.569220
H134 H 1.217400 0.563000 0.485800
H135 H 1.141900 0.498400 0.560700
H136 H 1.262200 0.552600 0.648600

#END
