
#######################################################################
#
#                 Cambridge Crystallographic Data Centre
#                                CCDC 
#
#######################################################################
#
# If this CIF has been generated from an entry in the Cambridge 
# Structural Database, then it will include bibliographic, chemical, 
# crystal, experimental, refinement or atomic coordinate data resulting 
# from the CCDC's data processing and validation procedures.
#
#######################################################################

data_ACOMAI
_symmetry_cell_setting           triclinic
_symmetry_space_group_name_H-M   'P -1'
_symmetry_Int_Tables_number      2
_space_group_name_Hall           '-P 1'
loop_
_symmetry_equiv_pos_site_id
_symmetry_equiv_pos_as_xyz
1 x,y,z
2 -x,-y,-z
_cell_length_a                   9.582(4)
_cell_length_b                   10.189(5)
_cell_length_c                   12.743(6)
_cell_angle_alpha                80.315(7)
_cell_angle_beta                 81.682(7)
_cell_angle_gamma                72.174(7)
_cell_volume                     1161.73
loop_
_atom_site_label
_atom_site_type_symbol
_atom_site_fract_x
_atom_site_fract_y
_atom_site_fract_z
Sn1 Sn 0.20372(10) 0.22080(10) 0.30039(7)
Cl1 Cl 0.4192(4) 0.0239(4) 0.2938(4)
O1 O 0.0328(9) 0.4198(10) 0.2510(7)
O2 O 0.2794(10) 0.2886(10) 0.1473(7)
O3 O 0.1768(11) 0.6107(10) -0.0280(7)
C1 C 0.2610(13) 0.3184(14) 0.4168(10)
C2 C 0.3871(15) 0.4297(16) -0.0616(10)
C3 C 0.0393(14) 0.1162(14) 0.3215(9)
C4 C 0.3804(16) 0.2514(15) 0.4739(12)
H1 H 0.4348 0.1607 0.4644
C5 C -0.0086(15) 0.6245(14) 0.1225(11)
C6 C 0.0706(15) 0.4832(14) 0.1657(12)
C7 C 0.2520(15) 0.4823(16) 0.0110(11)
C8 C 0.1810(15) 0.4485(17) 0.4347(11)
H2 H 0.0982 0.4930 0.3983
C9 C 0.2047(14) 0.4142(14) 0.1054(10)
C10 C 0.0476(16) 0.6821(16) 0.0281(12)
C11 C 0.4271(16) 0.5170(16) -0.1492(12)
H3 H 0.3700 0.6090 -0.1621
C12 C 0.0732(16) -0.0251(15) 0.3519(12)
H4 H 0.1703 -0.0768 0.3603
C13 C -0.1379(16) 0.6996(15) 0.1739(12)
H5 H -0.1775 0.6603 0.2381
C14 C -0.1067(14) 0.1895(15) 0.3106(11)
H6 H -0.1335 0.2850 0.2893
C15 C -0.2073(19) 0.8304(19) 0.1313(15)
H7 H -0.2944 0.8813 0.1658
C16 C 0.549(2) 0.468(2) -0.2156(15)
H8 H 0.5769 0.5290 -0.2717
C17 C 0.4733(19) 0.2931(19) -0.0464(12)
H9 H 0.4510 0.2320 0.0119
C18 C 0.2190(18) 0.5168(18) 0.5054(13)
H10 H 0.1646 0.6075 0.5148
C19 C 0.4196(19) 0.320(2) 0.5467(14)
H11 H 0.5015 0.2768 0.5842
C20 C 0.337(2) 0.450(2) 0.5612(13)
H12 H 0.3608 0.4957 0.6106
C21 C -0.2145(18) 0.118(2) 0.3323(13)
H13 H -0.3131 0.1676 0.3280
C22 C -0.178(2) -0.021(2) 0.3591(14)
H14 H -0.2496 -0.0677 0.3697
C23 C -0.019(2) 0.8161(17) -0.0187(14)
H15 H 0.0207 0.8546 -0.0829
C24 C 0.631(2) 0.336(2) -0.2039(15)
H16 H 0.7127 0.3043 -0.2521
C25 C -0.036(2) -0.0904(18) 0.3701(15)
H17 H -0.0103 -0.1860 0.3907
C26 C -0.146(2) 0.8885(19) 0.0345(17)
H18 H -0.1940 0.9787 0.0058
C27 C 0.592(2) 0.250(2) -0.1189(14)
H19 H 0.6485 0.1569 -0.1099
Sn1 Sn 0.79628(10) 0.77920(10) 0.69961(7)
Cl1 Cl 0.5808(4) 0.9761(4) 0.7062(4)
O1 O 0.9672(9) 0.5802(10) 0.7490(7)
O2 O 0.7206(10) 0.7114(10) 0.8527(7)
O3 O 0.8232(11) 0.3893(10) 1.0280(7)
C1 C 0.7390(13) 0.6816(14) 0.5832(10)
C2 C 0.6129(15) 0.5703(16) 1.0616(10)
C3 C 0.9607(14) 0.8838(14) 0.6785(9)
C4 C 0.6196(16) 0.7486(15) 0.5261(12)
H1 H 0.5652 0.8393 0.5356
C5 C 1.0086(15) 0.3755(14) 0.8775(11)
C6 C 0.9294(15) 0.5168(14) 0.8343(12)
C7 C 0.7480(15) 0.5177(16) 0.9890(11)
C8 C 0.8190(15) 0.5515(17) 0.5653(11)
H2 H 0.9018 0.5070 0.6017
C9 C 0.7953(14) 0.5858(14) 0.8946(10)
C10 C 0.9524(16) 0.3179(16) 0.9719(12)
C11 C 0.5729(16) 0.4830(16) 1.1492(12)
H3 H 0.6300 0.3910 1.1621
C12 C 0.9268(16) 1.0251(15) 0.6481(12)
H4 H 0.8297 1.0768 0.6397
C13 C 1.1379(16) 0.3004(15) 0.8261(12)
H5 H 1.1775 0.3397 0.7619
C14 C 1.1067(14) 0.8105(15) 0.6894(11)
H6 H 1.1335 0.7150 0.7107
C15 C 1.2073(19) 0.1696(19) 0.8687(15)
H7 H 1.2944 0.1187 0.8342
C16 C 0.451(2) 0.532(2) 1.2156(15)
H8 H 0.4231 0.4710 1.2717
C17 C 0.5267(19) 0.7069(19) 1.0464(12)
H9 H 0.5490 0.7680 0.9881
C18 C 0.7810(18) 0.4832(18) 0.4946(13)
H10 H 0.8354 0.3925 0.4852
C19 C 0.5804(19) 0.680(2) 0.4533(14)
H11 H 0.4985 0.7232 0.4158
C20 C 0.663(2) 0.550(2) 0.4388(13)
H12 H 0.6392 0.5043 0.3894
C21 C 1.2145(18) 0.882(2) 0.6677(13)
H13 H 1.3131 0.8324 0.6720
C22 C 1.178(2) 1.021(2) 0.6409(14)
H14 H 1.2496 1.0677 0.6303
C23 C 1.019(2) 0.1839(17) 1.0187(14)
H15 H 0.9793 0.1454 1.0829
C24 C 0.369(2) 0.664(2) 1.2039(15)
H16 H 0.2873 0.6957 1.2521
C25 C 1.036(2) 1.0904(18) 0.6299(15)
H17 H 1.0103 1.1860 0.6093
C26 C 1.146(2) 0.1115(19) 0.9655(17)
H18 H 1.1940 0.0213 0.9942
C27 C 0.408(2) 0.750(2) 1.1189(14)
H19 H 0.3515 0.8431 1.1099

#END
