
#######################################################################
#
#                 Cambridge Crystallographic Data Centre
#                                CCDC 
#
#######################################################################
#
# If this CIF has been generated from an entry in the Cambridge 
# Structural Database, then it will include bibliographic, chemical, 
# crystal, experimental, refinement or atomic coordinate data resulting 
# from the CCDC's data processing and validation procedures.
#
#######################################################################

data_ACOPOZ
_symmetry_cell_setting           monoclinic
_symmetry_space_group_name_H-M   'P 21'
_symmetry_Int_Tables_number      4
_space_group_name_Hall           'P 2yb'
loop_
_symmetry_equiv_pos_site_id
_symmetry_equiv_pos_as_xyz
1 x,y,z
2 -x,1/2+y,-z
_cell_length_a                   12.0425(6)
_cell_length_b                   6.0319(3)
_cell_length_c                   12.6615(6)
_cell_angle_alpha                90
_cell_angle_beta                 106.214(5)
_cell_angle_gamma                90
_cell_volume                     883.139
loop_
_atom_site_label
_atom_site_type_symbol
_atom_site_fract_x
_atom_site_fract_y
_atom_site_fract_z
C1 C 0.63234(15) 0.2219(3) 0.67889(13)
C2 C 0.51763(15) 0.2968(3) 0.69469(13)
H1 H 0.5049 0.4506 0.6693
C3 C 0.51969(16) 0.2927(3) 0.81681(14)
H2 H 0.4426 0.3247 0.8223
H3 H 0.5401 0.1445 0.8455
C4 C 0.60401(17) 0.4571(3) 0.88794(14)
H4 H 0.5757 0.6062 0.8680
H5 H 0.6781 0.4432 0.8723
C5 C 0.62188(19) 0.4252(4) 1.01112(15)
H6 H 0.6599 0.5558 1.0494
H7 H 0.5468 0.4136 1.0249
C6 C 0.69289(18) 0.2226(4) 1.05868(16)
H8 H 0.6614 0.0954 1.0133
H9 H 0.6846 0.1953 1.1316
C7 C 0.82129(18) 0.2403(4) 1.06697(18)
H10 H 0.8305 0.3400 1.0099
H11 H 0.8606 0.3065 1.1373
C8 C 0.88008(19) 0.0225(4) 1.05638(17)
H12 H 0.9625 0.0484 1.0715
H13 H 0.8687 -0.0792 1.1118
C9 C 0.83696(19) -0.0867(4) 0.94466(16)
H14 H 0.7540 -0.1064 0.9285
H15 H 0.8713 -0.2330 0.9489
C10 C 0.86195(17) 0.0367(4) 0.84935(15)
H16 H 0.9445 0.0315 0.8577
H17 H 0.8405 0.1910 0.8526
C11 C 0.79848(18) -0.0558(4) 0.73694(16)
H18 H 0.8124 -0.2142 0.7366
H19 H 0.8301 0.0111 0.6820
C12 C 0.66863(16) -0.0151(3) 0.70511(15)
H20 H 0.6326 -0.1057 0.6414
H21 H 0.6391 -0.0645 0.7650
C13 C 0.41842(15) 0.1565(3) 0.62286(12)
H22 H 0.4256 0.0041 0.6507
C14 C 0.30127(14) 0.2475(3) 0.62315(12)
C15 C 0.22864(16) 0.1312(3) 0.67035(13)
H23 H 0.2512 -0.0074 0.7011
C16 C 0.12303(17) 0.2174(4) 0.67268(15)
H24 H 0.0756 0.1348 0.7045
C17 C 0.08619(15) 0.4226(3) 0.62902(13)
C18 C 0.15838(17) 0.5373(3) 0.58041(14)
H25 H 0.1352 0.6751 0.5490
C19 C 0.26438(16) 0.4525(3) 0.57711(14)
H26 H 0.3110 0.5337 0.5438
C20 C -0.02685(17) 0.5214(4) 0.63479(17)
H27 H -0.0625 0.5980 0.5674
H28 H -0.0129 0.6237 0.6951
H29 H -0.0772 0.4053 0.6455
O1 O 0.69149(12) 0.3476(2) 0.64332(12)
O2 O 0.43574(12) 0.1585(2) 0.51615(10)
H30 H 0.392(2) 0.053(5) 0.482(2)
C1 C 0.36766(15) 0.7219(3) 0.32111(13)
C2 C 0.48237(15) 0.7968(3) 0.30531(13)
H1 H 0.4951 0.9506 0.3307
C3 C 0.48031(16) 0.7927(3) 0.18319(14)
H2 H 0.5574 0.8247 0.1777
H3 H 0.4599 0.6445 0.1545
C4 C 0.39599(17) 0.9571(3) 0.11206(14)
H4 H 0.4243 1.1062 0.1320
H5 H 0.3219 0.9432 0.1277
C5 C 0.37812(19) 0.9252(4) -0.01112(15)
H6 H 0.3401 1.0558 -0.0494
H7 H 0.4532 0.9136 -0.0249
C6 C 0.30711(18) 0.7226(4) -0.05868(16)
H8 H 0.3386 0.5954 -0.0133
H9 H 0.3154 0.6953 -0.1316
C7 C 0.17871(18) 0.7403(4) -0.06697(18)
H10 H 0.1695 0.8400 -0.0099
H11 H 0.1394 0.8065 -0.1373
C8 C 0.11992(19) 0.5225(4) -0.05638(17)
H12 H 0.0375 0.5484 -0.0715
H13 H 0.1313 0.4208 -0.1118
C9 C 0.16304(19) 0.4133(4) 0.05534(16)
H14 H 0.2460 0.3936 0.0715
H15 H 0.1287 0.2670 0.0511
C10 C 0.13805(17) 0.5367(4) 0.15065(15)
H16 H 0.0555 0.5315 0.1423
H17 H 0.1595 0.6910 0.1474
C11 C 0.20152(18) 0.4442(4) 0.26306(16)
H18 H 0.1876 0.2858 0.2634
H19 H 0.1699 0.5111 0.3180
C12 C 0.33137(16) 0.4849(3) 0.29489(15)
H20 H 0.3674 0.3943 0.3586
H21 H 0.3609 0.4355 0.2350
C13 C 0.58158(15) 0.6565(3) 0.37714(12)
H22 H 0.5744 0.5041 0.3493
C14 C 0.69873(14) 0.7475(3) 0.37685(12)
C15 C 0.77136(16) 0.6312(3) 0.32965(13)
H23 H 0.7488 0.4926 0.2989
C16 C 0.87697(17) 0.7174(4) 0.32732(15)
H24 H 0.9244 0.6348 0.2955
C17 C 0.91381(15) 0.9226(3) 0.37098(13)
C18 C 0.84162(17) 1.0373(3) 0.41959(14)
H25 H 0.8648 1.1751 0.4510
C19 C 0.73562(16) 0.9525(3) 0.42289(14)
H26 H 0.6890 1.0337 0.4562
C20 C 1.02685(17) 1.0214(4) 0.36521(17)
H27 H 1.0625 1.0980 0.4326
H28 H 1.0129 1.1237 0.3049
H29 H 1.0772 0.9053 0.3545
O1 O 0.30851(12) 0.8476(2) 0.35668(12)
O2 O 0.56426(12) 0.6585(2) 0.48385(10)
H30 H 0.608(2) 0.553(5) 0.518(2)

#END
