
#######################################################################
#
#                 Cambridge Crystallographic Data Centre
#                                CCDC 
#
#######################################################################
#
# If this CIF has been generated from an entry in the Cambridge 
# Structural Database, then it will include bibliographic, chemical, 
# crystal, experimental, refinement or atomic coordinate data resulting 
# from the CCDC's data processing and validation procedures.
#
#######################################################################

data_ACOROA
_symmetry_cell_setting           triclinic
_symmetry_space_group_name_H-M   'P -1'
_symmetry_Int_Tables_number      2
_space_group_name_Hall           '-P 1'
loop_
_symmetry_equiv_pos_site_id
_symmetry_equiv_pos_as_xyz
1 x,y,z
2 -x,-y,-z
_cell_length_a                   10.0779(3)
_cell_length_b                   10.8704(5)
_cell_length_c                   13.9561(4)
_cell_angle_alpha                75.269(6)
_cell_angle_beta                 69.258(2)
_cell_angle_gamma                77.303(4)
_cell_volume                     1368.51
loop_
_atom_site_label
_atom_site_type_symbol
_atom_site_fract_x
_atom_site_fract_y
_atom_site_fract_z
Fe1 Fe 0.62650(7) 0.23239(6) 0.75736(5)
O1 O 0.6474(3) 0.2577(3) 0.8819(2)
O2 O 0.6285(3) 0.2452(3) 1.0776(2)
O3 O 0.4370(3) 0.3224(3) 0.7717(2)
O4 O 0.2211(3) 0.5033(3) 0.7649(3)
N1 N 0.7217(4) 0.3959(4) 0.6798(3)
N2 N 0.6456(4) 0.2339(4) 0.5932(3)
N3 N 0.5313(4) 0.0658(3) 0.8306(3)
N4 N 0.8163(4) 0.0853(4) 0.7437(3)
C1 C 0.6679(4) 0.3602(4) 0.9066(3)
C2 C 0.6553(5) 0.3599(5) 1.0107(3)
C3 C 0.6681(5) 0.4676(5) 1.0395(4)
C4 C 0.7002(5) 0.5789(5) 0.9652(4)
C5 C 0.7182(5) 0.5822(4) 0.8641(4)
C6 C 0.7043(5) 0.4738(4) 0.8323(3)
C7 C 0.7314(5) 0.4821(4) 0.7243(3)
C8 C 0.7566(6) 0.4223(5) 0.5654(4)
C9 C 0.6499(6) 0.3697(5) 0.5407(4)
C10 C 0.6184(6) 0.2380(5) 1.1819(4)
C11 C 0.5313(6) 0.1790(6) 0.5814(4)
C12 C 0.5457(7) 0.1783(7) 0.4698(5)
C13 C 0.3093(5) 0.2909(4) 0.8239(3)
C14 C 0.1876(5) 0.3873(5) 0.8246(4)
C15 C 0.0530(5) 0.3604(5) 0.8830(4)
C16 C 0.0307(5) 0.2365(6) 0.9410(4)
C17 C 0.1438(5) 0.1415(5) 0.9380(4)
C18 C 0.2840(5) 0.1662(4) 0.8802(3)
C19 C 0.3983(5) 0.0613(4) 0.8792(3)
C20 C 0.6322(6) -0.0527(5) 0.8344(4)
C21 C 0.7704(5) -0.0205(5) 0.8317(4)
C22 C 0.1056(6) 0.6020(6) 0.7586(5)
C23 C 0.9436(5) 0.1320(6) 0.7430(4)
C24 C 1.0765(6) 0.0326(7) 0.7338(5)
H1 H 0.6553 0.4656 1.1129
H2 H 0.7106 0.6537 0.9867
H3 H 0.7407 0.6609 0.8124
H4 H 0.7638 0.5604 0.6784
H5 H 0.7546 0.5136 0.5383
H6 H 0.8529 0.3822 0.5337
H7 H 0.5549 0.4172 0.5657
H8 H 0.6716 0.3770 0.4669
H9 H 0.7367 0.1855 0.5619
H10 H 0.5434 0.3014 1.2120
H11 H 0.5995 0.1553 1.2232
H12 H 0.7067 0.2537 1.1860
H13 H 0.4399 0.2256 0.6122
H14 H 0.5305 0.0904 0.6210
H15 H 0.4737 0.1409 0.4647
H16 H 0.6386 0.1278 0.4385
H17 H 0.5480 0.2630 0.4296
H18 H -0.0294 0.4297 0.8847
H19 H -0.0654 0.2187 0.9858
H20 H 0.1263 0.0559 0.9746
H21 H 0.3696 -0.0209 0.9206
H22 H 0.5939 -0.1148 0.8946
H23 H 0.6475 -0.0891 0.7735
H24 H 0.7580 0.0047 0.8961
H25 H 0.8440 -0.0948 0.8259
H26 H 0.8394 0.0553 0.6794
H27 H 0.1372 0.6781 0.7149
H28 H 0.0473 0.6173 0.8259
H29 H 0.0442 0.5744 0.7290
H30 H 0.9195 0.1629 0.8066
H31 H 0.9650 0.2038 0.6859
H32 H 1.1548 0.0683 0.7348
H33 H 1.1043 0.0027 0.6697
H34 H 1.0584 -0.0389 0.7903
Fe1 Fe 0.37350(7) 0.76761(6) 0.24264(5)
O1 O 0.3526(3) 0.7423(3) 0.1181(2)
O2 O 0.3715(3) 0.7548(3) -0.0776(2)
O3 O 0.5630(3) 0.6776(3) 0.2283(2)
O4 O 0.7789(3) 0.4967(3) 0.2351(3)
N1 N 0.2783(4) 0.6041(4) 0.3202(3)
N2 N 0.3544(4) 0.7661(4) 0.4068(3)
N3 N 0.4687(4) 0.9342(3) 0.1694(3)
N4 N 0.1837(4) 0.9147(4) 0.2563(3)
C1 C 0.3321(4) 0.6398(4) 0.0934(3)
C2 C 0.3447(5) 0.6401(5) -0.0107(3)
C3 C 0.3319(5) 0.5324(5) -0.0395(4)
C4 C 0.2998(5) 0.4211(5) 0.0348(4)
C5 C 0.2818(5) 0.4178(4) 0.1359(4)
C6 C 0.2957(5) 0.5262(4) 0.1677(3)
C7 C 0.2686(5) 0.5179(4) 0.2757(3)
C8 C 0.2434(6) 0.5777(5) 0.4346(4)
C9 C 0.3501(6) 0.6303(5) 0.4593(4)
C10 C 0.3816(6) 0.7620(5) -0.1819(4)
C11 C 0.4687(6) 0.8210(6) 0.4186(4)
C12 C 0.4543(7) 0.8217(7) 0.5302(5)
C13 C 0.6907(5) 0.7091(4) 0.1761(3)
C14 C 0.8124(5) 0.6127(5) 0.1754(4)
C15 C 0.9470(5) 0.6396(5) 0.1170(4)
C16 C 0.9693(5) 0.7635(6) 0.0590(4)
C17 C 0.8562(5) 0.8585(5) 0.0620(4)
C18 C 0.7160(5) 0.8338(4) 0.1198(3)
C19 C 0.6017(5) 0.9387(4) 0.1208(3)
C20 C 0.3678(6) 1.0527(5) 0.1656(4)
C21 C 0.2296(5) 1.0205(5) 0.1683(4)
C22 C 0.8944(6) 0.3980(6) 0.2414(5)
C23 C 0.0564(5) 0.8680(6) 0.2570(4)
C24 C -0.0765(6) 0.9674(7) 0.2662(5)
H1 H 0.3447 0.5344 -0.1129
H2 H 0.2894 0.3463 0.0133
H3 H 0.2593 0.3391 0.1876
H4 H 0.2362 0.4396 0.3216
H5 H 0.2454 0.4864 0.4617
H6 H 0.1471 0.6178 0.4663
H7 H 0.4451 0.5828 0.4343
H8 H 0.3284 0.6230 0.5331
H9 H 0.2633 0.8145 0.4381
H10 H 0.4566 0.6986 -0.2120
H11 H 0.4005 0.8447 -0.2232
H12 H 0.2933 0.7463 -0.1860
H13 H 0.5601 0.7744 0.3878
H14 H 0.4695 0.9096 0.3790
H15 H 0.5263 0.8591 0.5353
H16 H 0.3614 0.8722 0.5615
H17 H 0.4520 0.7370 0.5704
H18 H 1.0294 0.5703 0.1153
H19 H 1.0654 0.7813 0.0142
H20 H 0.8737 0.9441 0.0254
H21 H 0.6304 1.0209 0.0794
H22 H 0.4061 1.1148 0.1054
H23 H 0.3525 1.0891 0.2265
H24 H 0.2420 0.9953 0.1039
H25 H 0.1560 1.0948 0.1741
H26 H 0.1606 0.9447 0.3206
H27 H 0.8628 0.3219 0.2851
H28 H 0.9527 0.3827 0.1741
H29 H 0.9558 0.4256 0.2710
H30 H 0.0805 0.8371 0.1934
H31 H 0.0350 0.7962 0.3141
H32 H -0.1548 0.9317 0.2652
H33 H -0.1043 0.9973 0.3303
H34 H -0.0584 1.0389 0.2097
Cl1 Cl 0.8810(2) 0.8324(1) 0.5616(1)
O5 O 0.8908(6) 0.7958(6) 0.6621(4)
O6 O 0.8389(7) 0.7402(6) 0.5285(5)
O7 O 0.7903(5) 0.9482(5) 0.5545(4)
O8 O 1.0206(5) 0.8509(5) 0.4923(4)
Cl1 Cl 0.1190(2) 0.1676(1) 0.4384(1)
O5 O 0.1092(6) 0.2042(6) 0.3379(4)
O6 O 0.1611(7) 0.2598(6) 0.4715(5)
O7 O 0.2097(5) 0.0518(5) 0.4455(4)
O8 O -0.0206(5) 0.1491(5) 0.5077(4)

#END
