./ACOWAQ_from_xyz.cif_generated_by_CrystalShift
_symmetry_cell_setting triclinic
_symmetry_space_group_name_H-M 'P 1'
loop_
_symmetry_equiv_pos_site_id
_symmetry_equiv_pos_as_xyz
1 x,y,z
_cell_length_a 10.822400
_cell_length_b 8.268000
_cell_length_c 15.950000
_cell_angle_alpha 90.000000
_cell_angle_beta 102.780000
_cell_angle_gamma 90.000000
_cell_volume 1391.843148
loop_
_atom_site_label
_atom_site_type_symbol
_atom_site_fract_x
_atom_site_fract_y
_atom_site_fract_z
O1 O 0.713590 0.215810 0.912830
H2 H 0.742300 0.261900 0.958500
O3 O 0.941420 0.716540 0.825780
O4 O 0.513140 0.559430 0.712870
H5 H 0.495000 0.620000 0.749100
C6 C 0.692430 0.451800 0.822510
C7 C 0.802260 0.517000 0.862810
H8 H 0.849400 0.482900 0.915900
C9 C 0.838310 0.647800 0.812870
C10 C 0.728100 0.682000 0.740070
H11 H 0.756100 0.700200 0.687100
H12 H 0.681700 0.776300 0.752200
C13 C 0.645540 0.528200 0.733620
C14 C 0.673040 0.420000 0.662090
H15 H 0.762500 0.393400 0.676400
H16 H 0.657800 0.483000 0.609500
C17 C 0.598580 0.261800 0.643150
H18 H 0.508700 0.290800 0.626500
C19 C 0.613900 0.149700 0.720870
H20 H 0.581100 0.043700 0.701500
H21 H 0.703400 0.137800 0.746600
C22 C 0.546220 0.209900 0.789260
H23 H 0.470900 0.268200 0.760700
H24 H 0.518600 0.116600 0.817200
C25 C 0.623320 0.319100 0.858510
C26 C 0.632800 0.182600 0.565450
C27 C 0.731500 0.081600 0.572290
H28 H 0.750700 0.037200 0.523100
H29 H 0.780700 0.056000 0.626200
C30 C 0.552700 0.226100 0.481370
H31 H 0.556300 0.340900 0.473100
H32 H 0.466700 0.194500 0.479500
H33 H 0.582700 0.171300 0.436700
C34 C 0.537400 0.396300 0.911510
H35 H 0.475500 0.463300 0.875000
H36 H 0.587500 0.461100 0.956400
H37 H 0.495100 0.313000 0.936400
O38 O 0.786410 0.715810 0.087170
H39 H 0.757700 0.761900 0.041500
O40 O 0.558580 1.216540 0.174220
O41 O 0.986860 1.059430 0.287130
H42 H 1.005000 1.120000 0.250900
C43 C 0.807570 0.951800 0.177490
C44 C 0.697740 1.017000 0.137190
H45 H 0.650600 0.982900 0.084100
C46 C 0.661690 1.147800 0.187130
C47 C 0.771900 1.182000 0.259930
H48 H 0.743900 1.200200 0.312900
H49 H 0.818300 1.276300 0.247800
C50 C 0.854460 1.028200 0.266380
C51 C 0.826960 0.920000 0.337910
H52 H 0.737500 0.893400 0.323600
H53 H 0.842200 0.983000 0.390500
C54 C 0.901420 0.761800 0.356850
H55 H 0.991300 0.790800 0.373500
C56 C 0.886100 0.649700 0.279130
H57 H 0.918900 0.543700 0.298500
H58 H 0.796600 0.637800 0.253400
C59 C 0.953780 0.709900 0.210740
H60 H 1.029100 0.768200 0.239300
H61 H 0.981400 0.616600 0.182800
C62 C 0.876680 0.819100 0.141490
C63 C 0.867200 0.682600 0.434550
C64 C 0.768500 0.581600 0.427710
H65 H 0.749300 0.537200 0.476900
H66 H 0.719300 0.556000 0.373800
C67 C 0.947300 0.726100 0.518630
H68 H 0.943700 0.840900 0.526900
H69 H 1.033300 0.694500 0.520500
H70 H 0.917300 0.671300 0.563300
C71 C 0.962600 0.896300 0.088490
H72 H 1.024500 0.963300 0.125000
H73 H 0.912500 0.961100 0.043600
H74 H 1.004900 0.813000 0.063600
O75 O 0.286410 0.784190 0.087170
H76 H 0.257700 0.738100 0.041500
O77 O 0.058580 0.283460 0.174220
O78 O 0.486860 0.440570 0.287130
H79 H 0.505000 0.380000 0.250900
C80 C 0.307570 0.548200 0.177490
C81 C 0.197740 0.483000 0.137190
H82 H 0.150600 0.517100 0.084100
C83 C 0.161690 0.352200 0.187130
C84 C 0.271900 0.318000 0.259930
H85 H 0.243900 0.299800 0.312900
H86 H 0.318300 0.223700 0.247800
C87 C 0.354460 0.471800 0.266380
C88 C 0.326960 0.580000 0.337910
H89 H 0.237500 0.606600 0.323600
H90 H 0.342200 0.517000 0.390500
C91 C 0.401420 0.738200 0.356850
H92 H 0.491300 0.709200 0.373500
C93 C 0.386100 0.850300 0.279130
H94 H 0.418900 0.956300 0.298500
H95 H 0.296600 0.862200 0.253400
C96 C 0.453780 0.790100 0.210740
H97 H 0.529100 0.731800 0.239300
H98 H 0.481400 0.883400 0.182800
C99 C 0.376680 0.680900 0.141490
C100 C 0.367200 0.817400 0.434550
C101 C 0.268500 0.918400 0.427710
H102 H 0.249300 0.962800 0.476900
H103 H 0.219300 0.944000 0.373800
C104 C 0.447300 0.773900 0.518630
H105 H 0.443700 0.659100 0.526900
H106 H 0.533300 0.805500 0.520500
H107 H 0.417300 0.828700 0.563300
C108 C 0.462600 0.603700 0.088490
H109 H 0.524500 0.536700 0.125000
H110 H 0.412500 0.538900 0.043600
H111 H 0.504900 0.687000 0.063600
O112 O 0.213590 0.284190 0.912830
H113 H 0.242300 0.238100 0.958500
O114 O 0.441420 -0.216540 0.825780
O115 O 0.013140 -0.059430 0.712870
H116 H -0.005000 -0.120000 0.749100
C117 C 0.192430 0.048200 0.822510
C118 C 0.302260 -0.017000 0.862810
H119 H 0.349400 0.017100 0.915900
C120 C 0.338310 -0.147800 0.812870
C121 C 0.228100 -0.182000 0.740070
H122 H 0.256100 -0.200200 0.687100
H123 H 0.181700 -0.276300 0.752200
C124 C 0.145540 -0.028200 0.733620
C125 C 0.173040 0.080000 0.662090
H126 H 0.262500 0.106600 0.676400
H127 H 0.157800 0.017000 0.609500
C128 C 0.098580 0.238200 0.643150
H129 H 0.008700 0.209200 0.626500
C130 C 0.113900 0.350300 0.720870
H131 H 0.081100 0.456300 0.701500
H132 H 0.203400 0.362200 0.746600
C133 C 0.046220 0.290100 0.789260
H134 H -0.029100 0.231800 0.760700
H135 H 0.018600 0.383400 0.817200
C136 C 0.123320 0.180900 0.858510
C137 C 0.132800 0.317400 0.565450
C138 C 0.231500 0.418400 0.572290
H139 H 0.250700 0.462800 0.523100
H140 H 0.280700 0.444000 0.626200
C141 C 0.052700 0.273900 0.481370
H142 H 0.056300 0.159100 0.473100
H143 H -0.033300 0.305500 0.479500
H144 H 0.082700 0.328700 0.436700
C145 C 0.037400 0.103700 0.911510
H146 H -0.024500 0.036700 0.875000
H147 H 0.087500 0.038900 0.956400
H148 H -0.004900 0.187000 0.936400
O149 O 0.677870 0.876930 0.933920
H150 H 0.690500 0.989400 0.919600
H151 H 0.600500 0.841200 0.901200
O152 O 0.822130 0.376930 0.066080
H153 H 0.809500 0.489400 0.080400
H154 H 0.899500 0.341200 0.098800
O155 O 0.322130 0.123070 0.066080
H156 H 0.309500 0.010600 0.080400
H157 H 0.399500 0.158800 0.098800
O158 O 0.177870 0.623070 0.933920
H159 H 0.190500 0.510600 0.919600
H160 H 0.100500 0.658800 0.901200

#END
