
#######################################################################
#
#                 Cambridge Crystallographic Data Centre
#                                CCDC 
#
#######################################################################
#
# If this CIF has been generated from an entry in the Cambridge 
# Structural Database, then it will include bibliographic, chemical, 
# crystal, experimental, refinement or atomic coordinate data resulting 
# from the CCDC's data processing and validation procedures.
#
#######################################################################

data_AACMHX10
_symmetry_cell_setting           orthorhombic
_symmetry_space_group_name_H-M   'P b c a'
_symmetry_Int_Tables_number      61
_space_group_name_Hall           '-P 2ac 2ab'
loop_
_symmetry_equiv_pos_site_id
_symmetry_equiv_pos_as_xyz
1 x,y,z
2 1/2-x,-y,1/2+z
3 1/2+x,1/2-y,-z
4 -x,1/2+y,1/2-z
5 -x,-y,-z
6 1/2+x,y,1/2-z
7 1/2-x,1/2+y,z
8 x,1/2-y,1/2+z
_cell_length_a                   24.157(6)
_cell_length_b                   16.758(4)
_cell_length_c                   8.535(2)
_cell_angle_alpha                90
_cell_angle_beta                 90
_cell_angle_gamma                90
_cell_volume                     3455.16
loop_
_atom_site_label
_atom_site_type_symbol
_atom_site_fract_x
_atom_site_fract_y
_atom_site_fract_z
C1 C 0.14550 0.97180 0.25620
C2 C 0.01500 1.11970 0.57890
C3 C 0.03910 1.10520 0.71890
C4 C 0.08950 1.06780 0.72600
C5 C 0.11610 1.04620 0.58980
C6 C 0.14150 0.90510 -0.00840
C7 C 0.16600 0.86360 -0.13230
C8 C 0.13390 0.81740 -0.23270
C9 C 0.07850 0.81070 -0.21440
C10 C 0.05340 0.85000 -0.09480
C11 C 0.08470 0.89810 0.00430
C12 C 0.17380 0.96170 0.09910
C13 C 0.15200 1.15940 0.18580
C14 C 0.13940 1.22110 0.06450
C15 C 0.23390 0.93690 0.12860
C16 C 0.23850 0.86350 0.23060
C17 C 0.20870 0.87460 0.38600
C18 C 0.14830 0.89920 0.35920
C19 C 0.12010 1.03880 0.29730
C20 C 0.09240 1.06030 0.44490
C21 C 0.04150 1.09790 0.44150
H1 H -0.02100 1.15500 0.56500
H2 H 0.02200 1.12100 0.81500
H3 H 0.10700 1.05800 0.82500
H4 H 0.15300 1.01800 0.58900
H5 H 0.20600 0.86900 -0.13700
H6 H 0.15200 0.78900 -0.31500
H7 H 0.05400 0.78000 -0.28700
H8 H 0.01000 0.84300 -0.08400
H9 H 0.06800 0.92200 0.08800
H10 H 0.17300 1.01300 0.04100
H11 H 0.12100 1.20100 -0.01200
H12 H 0.10100 1.24700 0.09700
H13 H 0.16500 1.26000 0.05400
H14 H 0.25200 0.98600 0.18500
H15 H 0.25500 0.93300 0.01900
H16 H 0.27700 0.85600 0.25500
H17 H 0.22200 0.82300 0.17200
H18 H 0.22900 0.92700 0.44700
H19 H 0.20800 0.83300 0.44300
H20 H 0.13100 0.85700 0.30300
H21 H 0.12900 0.90800 0.45800
H22 H 0.02600 1.11200 0.33800
O1 O 0.11430 1.09940 0.18090
O2 O 0.18990 1.16050 0.27360
C1 C 0.35450 0.02820 0.75620
C2 C 0.48500 -0.11970 1.07890
C3 C 0.46090 -0.10520 1.21890
C4 C 0.41050 -0.06780 1.22600
C5 C 0.38390 -0.04620 1.08980
C6 C 0.35850 0.09490 0.49160
C7 C 0.33400 0.13640 0.36770
C8 C 0.36610 0.18260 0.26730
C9 C 0.42150 0.18930 0.28560
C10 C 0.44660 0.15000 0.40520
C11 C 0.41530 0.10190 0.50430
C12 C 0.32620 0.03830 0.59910
C13 C 0.34800 -0.15940 0.68580
C14 C 0.36060 -0.22110 0.56450
C15 C 0.26610 0.06310 0.62860
C16 C 0.26150 0.13650 0.73060
C17 C 0.29130 0.12540 0.88600
C18 C 0.35170 0.10080 0.85920
C19 C 0.37990 -0.03880 0.79730
C20 C 0.40760 -0.06030 0.94490
C21 C 0.45850 -0.09790 0.94150
H1 H 0.52100 -0.15500 1.06500
H2 H 0.47800 -0.12100 1.31500
H3 H 0.39300 -0.05800 1.32500
H4 H 0.34700 -0.01800 1.08900
H5 H 0.29400 0.13100 0.36300
H6 H 0.34800 0.21100 0.18500
H7 H 0.44600 0.22000 0.21300
H8 H 0.49000 0.15700 0.41600
H9 H 0.43200 0.07800 0.58800
H10 H 0.32700 -0.01300 0.54100
H11 H 0.37900 -0.20100 0.48800
H12 H 0.39900 -0.24700 0.59700
H13 H 0.33500 -0.26000 0.55400
H14 H 0.24800 0.01400 0.68500
H15 H 0.24500 0.06700 0.51900
H16 H 0.22300 0.14400 0.75500
H17 H 0.27800 0.17700 0.67200
H18 H 0.27100 0.07300 0.94700
H19 H 0.29200 0.16700 0.94300
H20 H 0.36900 0.14300 0.80300
H21 H 0.37100 0.09200 0.95800
H22 H 0.47400 -0.11200 0.83800
O1 O 0.38570 -0.09940 0.68090
O2 O 0.31010 -0.16050 0.77360
C1 C 0.64550 0.52820 0.74380
C2 C 0.51500 0.38030 0.42110
C3 C 0.53910 0.39480 0.28110
C4 C 0.58950 0.43220 0.27400
C5 C 0.61610 0.45380 0.41020
C6 C 0.64150 0.59490 1.00840
C7 C 0.66600 0.63640 1.13230
C8 C 0.63390 0.68260 1.23270
C9 C 0.57850 0.68930 1.21440
C10 C 0.55340 0.65000 1.09480
C11 C 0.58470 0.60190 0.99570
C12 C 0.67380 0.53830 0.90090
C13 C 0.65200 0.34060 0.81420
C14 C 0.63940 0.27890 0.93550
C15 C 0.73390 0.56310 0.87140
C16 C 0.73850 0.63650 0.76940
C17 C 0.70870 0.62540 0.61400
C18 C 0.64830 0.60080 0.64080
C19 C 0.62010 0.46120 0.70270
C20 C 0.59240 0.43970 0.55510
C21 C 0.54150 0.40210 0.55850
H1 H 0.47900 0.34500 0.43500
H2 H 0.52200 0.37900 0.18500
H3 H 0.60700 0.44200 0.17500
H4 H 0.65300 0.48200 0.41100
H5 H 0.70600 0.63100 1.13700
H6 H 0.65200 0.71100 1.31500
H7 H 0.55400 0.72000 1.28700
H8 H 0.51000 0.65700 1.08400
H9 H 0.56800 0.57800 0.91200
H10 H 0.67300 0.48700 0.95900
H11 H 0.62100 0.29900 1.01200
H12 H 0.60100 0.25300 0.90300
H13 H 0.66500 0.24000 0.94600
H14 H 0.75200 0.51400 0.81500
H15 H 0.75500 0.56700 0.98100
H16 H 0.77700 0.64400 0.74500
H17 H 0.72200 0.67700 0.82800
H18 H 0.72900 0.57300 0.55300
H19 H 0.70800 0.66700 0.55700
H20 H 0.63100 0.64300 0.69700
H21 H 0.62900 0.59200 0.54200
H22 H 0.52600 0.38800 0.66200
O1 O 0.61430 0.40060 0.81910
O2 O 0.68990 0.33950 0.72640
C1 C 0.85450 0.47180 0.24380
C2 C 0.98500 0.61970 -0.07890
C3 C 0.96090 0.60520 -0.21890
C4 C 0.91050 0.56780 -0.22600
C5 C 0.88390 0.54620 -0.08980
C6 C 0.85850 0.40510 0.50840
C7 C 0.83400 0.36360 0.63230
C8 C 0.86610 0.31740 0.73270
C9 C 0.92150 0.31070 0.71440
C10 C 0.94660 0.35000 0.59480
C11 C 0.91530 0.39810 0.49570
C12 C 0.82620 0.46170 0.40090
C13 C 0.84800 0.65940 0.31420
C14 C 0.86060 0.72110 0.43550
C15 C 0.76610 0.43690 0.37140
C16 C 0.76150 0.36350 0.26940
C17 C 0.79130 0.37460 0.11400
C18 C 0.85170 0.39920 0.14080
C19 C 0.87990 0.53880 0.20270
C20 C 0.90760 0.56030 0.05510
C21 C 0.95850 0.59790 0.05850
H1 H 1.02100 0.65500 -0.06500
H2 H 0.97800 0.62100 -0.31500
H3 H 0.89300 0.55800 -0.32500
H4 H 0.84700 0.51800 -0.08900
H5 H 0.79400 0.36900 0.63700
H6 H 0.84800 0.28900 0.81500
H7 H 0.94600 0.28000 0.78700
H8 H 0.99000 0.34300 0.58400
H9 H 0.93200 0.42200 0.41200
H10 H 0.82700 0.51300 0.45900
H11 H 0.87900 0.70100 0.51200
H12 H 0.89900 0.74700 0.40300
H13 H 0.83500 0.76000 0.44600
H14 H 0.74800 0.48600 0.31500
H15 H 0.74500 0.43300 0.48100
H16 H 0.72300 0.35600 0.24500
H17 H 0.77800 0.32300 0.32800
H18 H 0.77100 0.42700 0.05300
H19 H 0.79200 0.33300 0.05700
H20 H 0.86900 0.35700 0.19700
H21 H 0.87100 0.40800 0.04200
H22 H 0.97400 0.61200 0.16200
O1 O 0.88570 0.59940 0.31910
O2 O 0.81010 0.66050 0.22640
C1 C 0.85450 0.02820 0.74380
C2 C 0.98500 -0.11970 0.42110
C3 C 0.96090 -0.10520 0.28110
C4 C 0.91050 -0.06780 0.27400
C5 C 0.88390 -0.04620 0.41020
C6 C 0.85850 0.09490 1.00840
C7 C 0.83400 0.13640 1.13230
C8 C 0.86610 0.18260 1.23270
C9 C 0.92150 0.18930 1.21440
C10 C 0.94660 0.15000 1.09480
C11 C 0.91530 0.10190 0.99570
C12 C 0.82620 0.03830 0.90090
C13 C 0.84800 -0.15940 0.81420
C14 C 0.86060 -0.22110 0.93550
C15 C 0.76610 0.06310 0.87140
C16 C 0.76150 0.13650 0.76940
C17 C 0.79130 0.12540 0.61400
C18 C 0.85170 0.10080 0.64080
C19 C 0.87990 -0.03880 0.70270
C20 C 0.90760 -0.06030 0.55510
C21 C 0.95850 -0.09790 0.55850
H1 H 1.02100 -0.15500 0.43500
H2 H 0.97800 -0.12100 0.18500
H3 H 0.89300 -0.05800 0.17500
H4 H 0.84700 -0.01800 0.41100
H5 H 0.79400 0.13100 1.13700
H6 H 0.84800 0.21100 1.31500
H7 H 0.94600 0.22000 1.28700
H8 H 0.99000 0.15700 1.08400
H9 H 0.93200 0.07800 0.91200
H10 H 0.82700 -0.01300 0.95900
H11 H 0.87900 -0.20100 1.01200
H12 H 0.89900 -0.24700 0.90300
H13 H 0.83500 -0.26000 0.94600
H14 H 0.74800 0.01400 0.81500
H15 H 0.74500 0.06700 0.98100
H16 H 0.72300 0.14400 0.74500
H17 H 0.77800 0.17700 0.82800
H18 H 0.77100 0.07300 0.55300
H19 H 0.79200 0.16700 0.55700
H20 H 0.86900 0.14300 0.69700
H21 H 0.87100 0.09200 0.54200
H22 H 0.97400 -0.11200 0.66200
O1 O 0.88570 -0.09940 0.81910
O2 O 0.81010 -0.16050 0.72640
C1 C 0.64550 0.97180 0.24380
C2 C 0.51500 1.11970 -0.07890
C3 C 0.53910 1.10520 -0.21890
C4 C 0.58950 1.06780 -0.22600
C5 C 0.61610 1.04620 -0.08980
C6 C 0.64150 0.90510 0.50840
C7 C 0.66600 0.86360 0.63230
C8 C 0.63390 0.81740 0.73270
C9 C 0.57850 0.81070 0.71440
C10 C 0.55340 0.85000 0.59480
C11 C 0.58470 0.89810 0.49570
C12 C 0.67380 0.96170 0.40090
C13 C 0.65200 1.15940 0.31420
C14 C 0.63940 1.22110 0.43550
C15 C 0.73390 0.93690 0.37140
C16 C 0.73850 0.86350 0.26940
C17 C 0.70870 0.87460 0.11400
C18 C 0.64830 0.89920 0.14080
C19 C 0.62010 1.03880 0.20270
C20 C 0.59240 1.06030 0.05510
C21 C 0.54150 1.09790 0.05850
H1 H 0.47900 1.15500 -0.06500
H2 H 0.52200 1.12100 -0.31500
H3 H 0.60700 1.05800 -0.32500
H4 H 0.65300 1.01800 -0.08900
H5 H 0.70600 0.86900 0.63700
H6 H 0.65200 0.78900 0.81500
H7 H 0.55400 0.78000 0.78700
H8 H 0.51000 0.84300 0.58400
H9 H 0.56800 0.92200 0.41200
H10 H 0.67300 1.01300 0.45900
H11 H 0.62100 1.20100 0.51200
H12 H 0.60100 1.24700 0.40300
H13 H 0.66500 1.26000 0.44600
H14 H 0.75200 0.98600 0.31500
H15 H 0.75500 0.93300 0.48100
H16 H 0.77700 0.85600 0.24500
H17 H 0.72200 0.82300 0.32800
H18 H 0.72900 0.92700 0.05300
H19 H 0.70800 0.83300 0.05700
H20 H 0.63100 0.85700 0.19700
H21 H 0.62900 0.90800 0.04200
H22 H 0.52600 1.11200 0.16200
O1 O 0.61430 1.09940 0.31910
O2 O 0.68990 1.16050 0.22640
C1 C 0.35450 0.47180 0.25620
C2 C 0.48500 0.61970 0.57890
C3 C 0.46090 0.60520 0.71890
C4 C 0.41050 0.56780 0.72600
C5 C 0.38390 0.54620 0.58980
C6 C 0.35850 0.40510 -0.00840
C7 C 0.33400 0.36360 -0.13230
C8 C 0.36610 0.31740 -0.23270
C9 C 0.42150 0.31070 -0.21440
C10 C 0.44660 0.35000 -0.09480
C11 C 0.41530 0.39810 0.00430
C12 C 0.32620 0.46170 0.09910
C13 C 0.34800 0.65940 0.18580
C14 C 0.36060 0.72110 0.06450
C15 C 0.26610 0.43690 0.12860
C16 C 0.26150 0.36350 0.23060
C17 C 0.29130 0.37460 0.38600
C18 C 0.35170 0.39920 0.35920
C19 C 0.37990 0.53880 0.29730
C20 C 0.40760 0.56030 0.44490
C21 C 0.45850 0.59790 0.44150
H1 H 0.52100 0.65500 0.56500
H2 H 0.47800 0.62100 0.81500
H3 H 0.39300 0.55800 0.82500
H4 H 0.34700 0.51800 0.58900
H5 H 0.29400 0.36900 -0.13700
H6 H 0.34800 0.28900 -0.31500
H7 H 0.44600 0.28000 -0.28700
H8 H 0.49000 0.34300 -0.08400
H9 H 0.43200 0.42200 0.08800
H10 H 0.32700 0.51300 0.04100
H11 H 0.37900 0.70100 -0.01200
H12 H 0.39900 0.74700 0.09700
H13 H 0.33500 0.76000 0.05400
H14 H 0.24800 0.48600 0.18500
H15 H 0.24500 0.43300 0.01900
H16 H 0.22300 0.35600 0.25500
H17 H 0.27800 0.32300 0.17200
H18 H 0.27100 0.42700 0.44700
H19 H 0.29200 0.33300 0.44300
H20 H 0.36900 0.35700 0.30300
H21 H 0.37100 0.40800 0.45800
H22 H 0.47400 0.61200 0.33800
O1 O 0.38570 0.59940 0.18090
O2 O 0.31010 0.66050 0.27360
C1 C 0.14550 0.52820 0.75620
C2 C 0.01500 0.38030 1.07890
C3 C 0.03910 0.39480 1.21890
C4 C 0.08950 0.43220 1.22600
C5 C 0.11610 0.45380 1.08980
C6 C 0.14150 0.59490 0.49160
C7 C 0.16600 0.63640 0.36770
C8 C 0.13390 0.68260 0.26730
C9 C 0.07850 0.68930 0.28560
C10 C 0.05340 0.65000 0.40520
C11 C 0.08470 0.60190 0.50430
C12 C 0.17380 0.53830 0.59910
C13 C 0.15200 0.34060 0.68580
C14 C 0.13940 0.27890 0.56450
C15 C 0.23390 0.56310 0.62860
C16 C 0.23850 0.63650 0.73060
C17 C 0.20870 0.62540 0.88600
C18 C 0.14830 0.60080 0.85920
C19 C 0.12010 0.46120 0.79730
C20 C 0.09240 0.43970 0.94490
C21 C 0.04150 0.40210 0.94150
H1 H -0.02100 0.34500 1.06500
H2 H 0.02200 0.37900 1.31500
H3 H 0.10700 0.44200 1.32500
H4 H 0.15300 0.48200 1.08900
H5 H 0.20600 0.63100 0.36300
H6 H 0.15200 0.71100 0.18500
H7 H 0.05400 0.72000 0.21300
H8 H 0.01000 0.65700 0.41600
H9 H 0.06800 0.57800 0.58800
H10 H 0.17300 0.48700 0.54100
H11 H 0.12100 0.29900 0.48800
H12 H 0.10100 0.25300 0.59700
H13 H 0.16500 0.24000 0.55400
H14 H 0.25200 0.51400 0.68500
H15 H 0.25500 0.56700 0.51900
H16 H 0.27700 0.64400 0.75500
H17 H 0.22200 0.67700 0.67200
H18 H 0.22900 0.57300 0.94700
H19 H 0.20800 0.66700 0.94300
H20 H 0.13100 0.64300 0.80300
H21 H 0.12900 0.59200 0.95800
H22 H 0.02600 0.38800 0.83800
O1 O 0.11430 0.40060 0.68090
O2 O 0.18990 0.33950 0.77360

#END
