./AACRUB01_from_POSCAR.cif_generated_by_CrystalShift
_symmetry_cell_setting triclinic
_symmetry_space_group_name_H-M 'P 1'
loop_
_symmetry_equiv_pos_site_id
_symmetry_equiv_pos_as_xyz
1 x,y,z
_cell_length_a 14.246000
_cell_length_b 6.904000
_cell_length_c 17.687000
_cell_angle_alpha 90.000000
_cell_angle_beta 97.190000
_cell_angle_gamma 90.000000
_cell_volume 1725.914799
loop_
_atom_site_label
_atom_site_type_symbol
_atom_site_fract_x
_atom_site_fract_y
_atom_site_fract_z
B1 B 0.000000 0.403000 0.750000
B2 B 0.500000 0.097000 0.250000
B3 B 1.000000 0.597000 0.250000
B4 B 0.000000 0.597000 0.250000
B5 B 1.000000 0.403000 0.750000
B6 B 0.500000 0.903000 0.750000
C7 C 0.252400 0.472500 -0.119500
C8 C 0.254300 0.603400 -0.187200
C9 C 0.386400 0.456100 0.074900
C10 C 0.462500 0.574400 0.117800
C11 C 0.386400 0.543900 0.574900
C12 C 0.247600 0.027500 0.119500
C13 C 0.113600 0.043900 -0.074900
C14 C 0.252400 0.527500 0.380500
C15 C 0.037500 1.074400 0.382200
C16 C 0.113600 0.956100 0.425100
C17 C 0.245700 1.103400 0.687200
C18 C 0.247600 0.972500 0.619500
C19 C 0.245700 -0.103400 0.187200
C20 C 0.037500 -0.074400 -0.117800
C21 C 0.254300 0.396600 0.312800
C22 C 0.462500 0.425600 0.617800
C23 C 0.754300 -0.103400 0.312800
C24 C 0.886400 0.043900 0.574900
C25 C 0.752400 0.027500 0.380500
C26 C 0.537500 0.574400 0.382200
C27 C 0.252400 0.472500 0.880500
C28 C 0.254300 0.603400 0.812800
C29 C 0.386400 0.456100 1.074900
C30 C 0.462500 0.574400 1.117800
C31 C 0.613600 0.456100 0.425100
C32 C 0.247600 0.027500 1.119500
C33 C 0.113600 0.043900 0.925100
C34 C 0.745700 0.603400 0.687200
C35 C 0.747600 0.472500 0.619500
C36 C 0.537500 0.425600 0.882200
C37 C 0.745700 0.396600 1.187200
C38 C 0.613600 0.543900 0.925100
C39 C 0.245700 -0.103400 1.187200
C40 C 0.037500 -0.074400 0.882200
C41 C 0.747600 0.527500 1.119500
C42 C 0.962500 -0.074400 0.617800
C43 C 0.962500 1.074400 1.117800
C44 C 0.886400 0.956100 1.074900
C45 C 0.754300 1.103400 0.812800
C46 C 0.752400 0.972500 0.880500
C47 C 0.752400 0.972500 -0.119500
C48 C 0.754300 1.103400 -0.187200
C49 C 0.886400 0.956100 0.074900
C50 C 0.962500 1.074400 0.117800
C51 C 0.537500 0.425600 -0.117800
C52 C 0.747600 0.527500 0.119500
C53 C 0.613600 0.543900 -0.074900
C54 C 0.745700 0.396600 0.187200
O55 O 0.800600 1.001600 0.079100
O56 O 0.694500 0.674600 0.112800
O57 O 0.591200 0.686900 -0.035600
O58 O 0.582700 1.045300 0.063900
O59 O 0.698600 1.016600 -0.069700
O60 O 0.305500 0.325400 -0.112800
O61 O 0.408800 0.313100 0.035600
O62 O 0.805500 0.825400 0.887200
O63 O 0.908800 0.813100 1.035600
O64 O 0.801400 0.483400 1.069700
O65 O 0.699400 0.498400 0.920900
O66 O 0.917300 0.454700 0.936100
O67 O 0.917300 0.454700 -0.063900
O68 O 0.699400 0.498400 -0.079100
O69 O 0.801400 0.483400 0.069700
O70 O 0.908800 0.813100 0.035600
O71 O 0.805500 0.825400 -0.112800
O72 O 0.301400 -0.016600 0.069700
O73 O 0.082700 0.545300 1.063900
O74 O 0.698600 1.016600 0.930300
O75 O 0.800600 1.001600 1.079100
O76 O 0.199400 -0.001600 -0.079100
O77 O 0.591200 0.686900 0.964400
O78 O 0.582700 1.045300 1.063900
O79 O 0.091200 0.186900 0.964400
O80 O 0.194500 0.174600 1.112800
O81 O 0.417300 -0.045300 -0.063900
O82 O 0.694500 0.325400 0.612800
O83 O 0.591200 0.313100 0.464400
O84 O 0.698600 -0.016600 0.430300
O85 O 0.800600 -0.001600 0.579100
O86 O 0.582700 -0.045300 0.563900
O87 O 0.300600 0.501600 1.079100
O88 O 0.198600 0.516600 0.930300
O89 O 0.417300 1.045300 0.436100
O90 O 0.417300 -0.045300 0.936100
O91 O 0.408800 0.686900 0.535600
O92 O 0.199400 -0.001600 0.920900
O93 O 0.301400 -0.016600 1.069700
O94 O 0.801400 0.516600 0.569700
O95 O 0.699400 0.501600 0.420900
O96 O 0.805500 0.174600 0.387200
O97 O 0.908800 0.186900 0.535600
O98 O 0.917300 0.545300 0.436100
O99 O 0.408800 0.313100 1.035600
O100 O 0.305500 0.325400 0.887200
O101 O 0.305500 0.674600 0.387200
O102 O 0.194500 0.825400 0.612800
O103 O 0.091200 0.813100 0.464400
O104 O 0.198600 0.483400 0.430300
O105 O 0.300600 0.498400 0.579100
O106 O 0.082700 0.454700 0.563900
O107 O 0.082700 0.545300 0.063900
O108 O 0.091200 0.186900 -0.035600
O109 O 0.194500 0.174600 0.112800
O110 O 0.300600 0.501600 0.079100
O111 O 0.199400 1.001600 0.420900
O112 O 0.198600 0.516600 -0.069700
O113 O 0.301400 1.016600 0.569700
O114 O 0.694500 0.674600 1.112800
F115 F -0.070100 0.294400 0.714600
F116 F -0.035200 0.519300 0.800300
F117 F 1.070100 0.294400 0.785400
F118 F 0.535200 1.019300 0.699700
F119 F 1.035200 0.519300 0.699700
F120 F 0.464800 1.019300 0.800300
F121 F -0.070100 0.705600 0.214600
F122 F -0.035200 0.480700 0.300300
F123 F 0.570100 0.794400 0.785400
F124 F 0.070100 0.705600 0.285400
F125 F 0.035200 0.480700 0.199700
F126 F 0.929900 0.705600 0.214600
F127 F 0.964800 0.480700 0.300300
F128 F 0.929900 0.294400 0.714600
F129 F 1.070100 0.705600 0.285400
F130 F 1.035200 0.480700 0.199700
F131 F 0.429900 0.205600 0.214600
F132 F 0.464800 -0.019300 0.300300
F133 F 0.964800 0.519300 0.800300
F134 F 0.570100 0.205600 0.285400
F135 F 0.535200 -0.019300 0.199700
F136 F 0.070100 0.294400 0.785400
F137 F 0.035200 0.519300 0.699700
F138 F 0.429900 0.794400 0.714600
Ru139 Ru 0.304020 0.847320 0.478370
Ru140 Ru 0.195980 0.652680 0.521630
Ru141 Ru 0.804020 0.347320 0.478370
Ru142 Ru 0.695980 0.152680 0.521630
Ru143 Ru 0.695980 0.847320 1.021630
Ru144 Ru 0.804020 0.652680 0.978370
Ru145 Ru 0.695980 0.847320 0.021630
Ru146 Ru 0.804020 0.652680 -0.021630
Ru147 Ru 0.195980 0.347320 1.021630
Ru148 Ru 0.304020 0.152680 0.978370
Ru149 Ru 0.195980 0.347320 0.021630
Ru150 Ru 0.304020 0.152680 -0.021630

#END
