
#######################################################################
#
#                 Cambridge Crystallographic Data Centre
#                                CCDC 
#
#######################################################################
#
# If this CIF has been generated from an entry in the Cambridge 
# Structural Database, then it will include bibliographic, chemical, 
# crystal, experimental, refinement or atomic coordinate data resulting 
# from the CCDC's data processing and validation procedures.
#
#######################################################################

data_AACRUB01
_symmetry_cell_setting           monoclinic
_symmetry_space_group_name_H-M   'C 2/c'
_symmetry_Int_Tables_number      15
_space_group_name_Hall           '-C 2yn'
loop_
_symmetry_equiv_pos_site_id
_symmetry_equiv_pos_as_xyz
1 x,y,z
2 1/2+x,1/2+y,z
3 -x,y,1/2-z
4 1/2-x,1/2+y,1/2-z
5 -x,-y,-z
6 1/2-x,1/2-y,-z
7 x,-y,1/2+z
8 1/2+x,1/2-y,1/2+z
_cell_length_a                   14.246(2)
_cell_length_b                   6.904(1)
_cell_length_c                   17.687(1)
_cell_angle_alpha                90
_cell_angle_beta                 97.19(1)
_cell_angle_gamma                90
_cell_volume                     1725.91
loop_
_atom_site_label
_atom_site_type_symbol
_atom_site_fract_x
_atom_site_fract_y
_atom_site_fract_z
Ru1 Ru 0.30402 0.15268 -0.02163
O1 O 0.30550 0.32540 -0.11280
O2 O 0.40880 0.31310 0.03560
O3 O 0.30140 -0.01660 0.06970
O4 O 0.19940 -0.00160 -0.07910
O5 O 0.41730 -0.04530 -0.06390
C1 C 0.25240 0.47250 -0.11950
C2 C 0.25430 0.60340 -0.18720
C3 C 0.38640 0.45610 0.07490
C4 C 0.46250 0.57440 0.11780
Ru1E Ru 0.19598 0.34732 0.02163
C1E C 0.24760 0.02750 0.11950
C3E C 0.11360 0.04390 -0.07490
O3E O 0.19860 0.51660 -0.06970
O4E O 0.30060 0.50160 0.07910
O1E O 0.19450 0.17460 0.11280
O2E O 0.09120 0.18690 -0.03560
O5E O 0.08270 0.54530 0.06390
C2E C 0.24570 -0.10340 0.18720
C4E C 0.03750 -0.07440 -0.11780
Ru1 Ru 0.30402 0.15268 0.97837
O1 O 0.30550 0.32540 0.88720
O2 O 0.40880 0.31310 1.03560
O3 O 0.30140 -0.01660 1.06970
O4 O 0.19940 -0.00160 0.92090
O5 O 0.41730 -0.04530 0.93610
C1 C 0.25240 0.47250 0.88050
C2 C 0.25430 0.60340 0.81280
C3 C 0.38640 0.45610 1.07490
C4 C 0.46250 0.57440 1.11780
Ru1E Ru 0.19598 0.34732 1.02163
C1E C 0.24760 0.02750 1.11950
C3E C 0.11360 0.04390 0.92510
O3E O 0.19860 0.51660 0.93030
O4E O 0.30060 0.50160 1.07910
O1E O 0.19450 0.17460 1.11280
O2E O 0.09120 0.18690 0.96440
O5E O 0.08270 0.54530 1.06390
C2E C 0.24570 -0.10340 1.18720
C4E C 0.03750 -0.07440 0.88220
Ru1 Ru 0.80402 0.65268 -0.02163
O1 O 0.80550 0.82540 -0.11280
O2 O 0.90880 0.81310 0.03560
O3 O 0.80140 0.48340 0.06970
O4 O 0.69940 0.49840 -0.07910
O5 O 0.91730 0.45470 -0.06390
C1 C 0.75240 0.97250 -0.11950
C2 C 0.75430 1.10340 -0.18720
C3 C 0.88640 0.95610 0.07490
C4 C 0.96250 1.07440 0.11780
Ru1E Ru 0.69598 0.84732 0.02163
C1E C 0.74760 0.52750 0.11950
C3E C 0.61360 0.54390 -0.07490
O3E O 0.69860 1.01660 -0.06970
O4E O 0.80060 1.00160 0.07910
O1E O 0.69450 0.67460 0.11280
O2E O 0.59120 0.68690 -0.03560
O5E O 0.58270 1.04530 0.06390
C2E C 0.74570 0.39660 0.18720
C4E C 0.53750 0.42560 -0.11780
Ru1 Ru 0.80402 0.65268 0.97837
O1 O 0.80550 0.82540 0.88720
O2 O 0.90880 0.81310 1.03560
O3 O 0.80140 0.48340 1.06970
O4 O 0.69940 0.49840 0.92090
O5 O 0.91730 0.45470 0.93610
C1 C 0.75240 0.97250 0.88050
C2 C 0.75430 1.10340 0.81280
C3 C 0.88640 0.95610 1.07490
C4 C 0.96250 1.07440 1.11780
Ru1E Ru 0.69598 0.84732 1.02163
C1E C 0.74760 0.52750 1.11950
C3E C 0.61360 0.54390 0.92510
O3E O 0.69860 1.01660 0.93030
O4E O 0.80060 1.00160 1.07910
O1E O 0.69450 0.67460 1.11280
O2E O 0.59120 0.68690 0.96440
O5E O 0.58270 1.04530 1.06390
C2E C 0.74570 0.39660 1.18720
C4E C 0.53750 0.42560 0.88220
Ru1 Ru 0.69598 0.15268 0.52163
O1 O 0.69450 0.32540 0.61280
O2 O 0.59120 0.31310 0.46440
O3 O 0.69860 -0.01660 0.43030
O4 O 0.80060 -0.00160 0.57910
O5 O 0.58270 -0.04530 0.56390
C1 C 0.74760 0.47250 0.61950
C2 C 0.74570 0.60340 0.68720
C3 C 0.61360 0.45610 0.42510
C4 C 0.53750 0.57440 0.38220
Ru1E Ru 0.80402 0.34732 0.47837
C1E C 0.75240 0.02750 0.38050
C3E C 0.88640 0.04390 0.57490
O3E O 0.80140 0.51660 0.56970
O4E O 0.69940 0.50160 0.42090
O1E O 0.80550 0.17460 0.38720
O2E O 0.90880 0.18690 0.53560
O5E O 0.91730 0.54530 0.43610
C2E C 0.75430 -0.10340 0.31280
C4E C 0.96250 -0.07440 0.61780
Ru1 Ru 0.19598 0.65268 0.52163
O1 O 0.19450 0.82540 0.61280
O2 O 0.09120 0.81310 0.46440
O3 O 0.19860 0.48340 0.43030
O4 O 0.30060 0.49840 0.57910
O5 O 0.08270 0.45470 0.56390
C1 C 0.24760 0.97250 0.61950
C2 C 0.24570 1.10340 0.68720
C3 C 0.11360 0.95610 0.42510
C4 C 0.03750 1.07440 0.38220
Ru1E Ru 0.30402 0.84732 0.47837
C1E C 0.25240 0.52750 0.38050
C3E C 0.38640 0.54390 0.57490
O3E O 0.30140 1.01660 0.56970
O4E O 0.19940 1.00160 0.42090
O1E O 0.30550 0.67460 0.38720
O2E O 0.40880 0.68690 0.53560
O5E O 0.41730 1.04530 0.43610
C2E C 0.25430 0.39660 0.31280
C4E C 0.46250 0.42560 0.61780
F1 F -0.07010 0.70560 0.21460
F2 F -0.03520 0.48070 0.30030
B1 B 0.00000 0.59700 0.25000
F1B F 0.07010 0.70560 0.28540
F2B F 0.03520 0.48070 0.19970
F1 F 0.92990 0.70560 0.21460
F2 F 0.96480 0.48070 0.30030
B1 B 1.00000 0.59700 0.25000
F1B F 1.07010 0.70560 0.28540
F2B F 1.03520 0.48070 0.19970
F1 F 0.42990 0.20560 0.21460
F2 F 0.46480 -0.01930 0.30030
B1 B 0.50000 0.09700 0.25000
F1B F 0.57010 0.20560 0.28540
F2B F 0.53520 -0.01930 0.19970
F1 F 0.07010 0.29440 0.78540
F2 F 0.03520 0.51930 0.69970
B1 B 0.00000 0.40300 0.75000
F1B F -0.07010 0.29440 0.71460
F2B F -0.03520 0.51930 0.80030
F1 F 1.07010 0.29440 0.78540
F2 F 1.03520 0.51930 0.69970
B1 B 1.00000 0.40300 0.75000
F1B F 0.92990 0.29440 0.71460
F2B F 0.96480 0.51930 0.80030
F1 F 0.57010 0.79440 0.78540
F2 F 0.53520 1.01930 0.69970
B1 B 0.50000 0.90300 0.75000
F1B F 0.42990 0.79440 0.71460
F2B F 0.46480 1.01930 0.80030

#END
