./AADRIB_from_POSCAR.cif_generated_by_CrystalShift
_symmetry_cell_setting triclinic
_symmetry_space_group_name_H-M 'P 1'
loop_
_symmetry_equiv_pos_site_id
_symmetry_equiv_pos_as_xyz
1 x,y,z
_cell_length_a 17.125000
_cell_length_b 11.453000
_cell_length_c 8.590000
_cell_angle_alpha 90.000000
_cell_angle_beta 109.180000
_cell_angle_gamma 90.000000
_cell_volume 1591.259021
loop_
_atom_site_label
_atom_site_type_symbol
_atom_site_fract_x
_atom_site_fract_y
_atom_site_fract_z
H1 H 0.016600 0.577200 -0.048600
H2 H -0.020700 0.629700 -0.206400
H3 H 0.456600 0.572600 0.351900
H4 H 0.388700 0.568500 0.176600
H5 H 0.438200 0.670800 0.208600
H6 H 0.458400 0.830600 0.725600
H7 H 0.408300 0.824400 0.816200
H8 H 0.444700 0.951500 0.811300
H9 H 0.501000 0.965200 0.116400
H10 H 0.563500 1.027600 0.221400
H11 H 0.509000 1.076200 0.057800
H12 H 0.258300 0.886200 -0.041200
H13 H 0.166700 0.951000 -0.105600
H14 H 0.143700 0.900100 0.096200
H15 H 0.228300 0.770500 0.318700
H16 H 0.232200 0.985600 0.365400
H17 H 0.306300 1.092500 0.267900
H18 H 0.983400 0.077200 1.048600
H19 H 0.937700 0.082000 1.170400
H20 H 1.020700 0.129700 1.206400
H21 H 0.543400 0.072600 0.648100
H22 H 0.611300 0.068500 0.823400
H23 H 0.073300 0.192300 0.865200
H24 H 0.222800 0.230700 1.008800
H25 H 0.294600 0.359800 0.933600
H26 H 0.286000 0.184400 0.782600
H27 H 0.188400 0.141000 0.560500
H28 H 0.146300 0.264800 0.555900
H29 H -0.035900 0.463600 0.528800
H30 H -0.112700 0.415700 0.546000
H31 H -0.073500 0.371800 0.424500
H32 H 0.115900 0.504400 1.211900
H33 H 0.193100 0.503300 1.295500
H34 H 0.141500 0.430300 1.376000
H35 H 0.148100 0.637100 0.642900
H36 H 0.212800 0.621300 0.556400
H37 H 0.236400 0.709300 0.727200
H38 H 0.398100 0.304200 0.414000
H39 H 0.450400 0.336400 0.549300
H40 H 0.374000 0.410400 0.484900
H41 H 0.561800 0.170800 0.791400
H42 H 0.541600 0.330600 0.274400
H43 H 0.591700 0.324400 0.183800
H44 H 0.555300 0.451500 0.188700
H45 H 0.499000 0.465200 0.883600
H46 H 0.436500 0.527600 0.778600
H47 H 0.491000 0.576200 0.942200
H48 H 0.741700 0.386200 1.041200
H49 H 0.833300 0.451000 1.105600
H50 H 0.856300 0.400100 0.903800
H51 H 0.771700 0.270500 0.681300
H52 H 0.767800 0.485600 0.634600
H53 H 0.693700 0.592500 0.732100
H54 H 0.626000 0.910400 0.515100
H55 H 0.549600 0.836400 0.450700
H56 H 0.601900 0.804200 0.586000
H57 H 0.763600 1.209300 0.272800
H58 H 0.787200 1.121300 0.443600
H59 H 0.851900 1.137100 0.357100
H60 H 0.858500 0.930300 -0.376000
H61 H 0.806900 1.003300 -0.295500
H62 H 0.884100 1.004400 -0.211900
H63 H 0.926700 0.692300 0.134800
H64 H 0.777200 0.730700 -0.008800
H65 H 0.705400 0.859800 0.066400
H66 H 0.714000 0.684400 0.217400
H67 H 0.811600 0.641000 0.439500
H68 H 0.853700 0.764800 0.444100
H69 H 1.035900 0.963600 0.471200
H70 H 1.112700 0.915700 0.454000
H71 H 1.073500 0.871800 0.575500
H72 H 0.062300 0.582000 -0.170400
C73 C 0.638600 0.758000 0.399500
C74 C 0.795400 1.135500 0.328200
C75 C 0.751000 1.044400 0.217800
C76 C 0.846600 0.956800 -0.271900
C77 C 0.828700 0.854000 -0.183900
C78 C 1.061400 0.898800 0.466800
C79 C 1.022300 0.809000 0.347900
C80 C 0.819600 0.703400 0.379300
C81 C 0.110800 0.236200 0.815500
C82 C 0.187300 0.290500 0.933100
C83 C 0.246000 0.341900 0.850500
C84 C 0.260800 0.251900 0.735600
C85 C 0.180400 0.203400 0.620700
C86 C -0.022300 0.309000 0.652100
C87 C -0.061400 0.398800 0.533200
C88 C 0.171300 0.354000 1.183900
C89 C 0.029900 0.626100 -0.131600
C90 C 0.695500 0.521200 0.783200
C91 C 0.717300 0.435600 0.669900
C92 C 0.753200 0.320100 0.750200
C93 C 0.820000 0.348700 0.908200
C94 C 0.787900 0.420500 1.017600
C95 C 0.574500 0.575800 0.839800
C96 C 0.494700 0.536700 0.851400
C97 C 0.659000 0.403300 0.382100
C98 C 0.580600 0.373800 0.248500
C99 C 0.650400 0.169800 0.682900
C100 C 0.585900 0.114900 0.735300
C101 C 0.937400 0.241300 1.068300
C102 C 0.970100 0.126100 1.131600
C103 C 0.739200 0.751900 0.264400
C104 C 0.754000 0.841900 0.149500
C105 C 0.812700 0.790500 0.066900
C106 C 0.889200 0.736200 0.184500
C107 C 0.062600 0.741300 -0.068300
C108 C 0.414100 0.614900 0.264700
C109 C 0.349600 0.669800 0.317100
C110 C 0.419400 0.873800 0.751500
C111 C 0.341000 0.903300 0.617900
C112 C 0.505300 1.036700 0.148600
C113 C 0.425500 1.075800 0.160200
C114 C 0.212100 0.920500 -0.017600
C115 C 0.180000 0.848700 0.091800
C116 C 0.398100 0.329100 0.500200
C117 C 0.361400 0.258000 0.600500
C118 C 0.204600 0.635500 0.671800
C119 C 0.249000 0.544400 0.782200
C120 C 0.153400 0.456800 1.271900
C121 C 0.246800 0.820100 0.249800
C122 C 0.282700 0.935600 0.330100
C123 C 0.304500 1.021200 0.216800
C124 C 0.601900 0.829100 0.499800
O125 O 0.241100 1.029400 0.064600
O126 O 0.399800 1.175700 0.143300
O127 O 0.274600 0.912400 0.631400
O128 O 0.334100 0.644700 0.439100
O129 O 0.021500 0.828600 -0.082000
O130 O 0.309700 0.754300 0.212000
O131 O 0.354900 0.915800 0.470500
O132 O 0.380800 0.987500 0.194000
O133 O 0.939900 0.827400 0.284900
O134 O 0.832600 0.881100 -0.029600
O135 O 0.791400 0.942200 0.244000
O136 O 0.696600 0.810400 0.359800
O137 O 0.868000 0.654700 0.286100
O138 O 1.055300 0.727900 0.308700
O139 O 0.813700 0.756700 -0.238000
O140 O 0.684400 1.054300 0.116300
O141 O 0.624700 0.658000 0.374200
O142 O 0.978500 0.328600 1.082000
O143 O 0.665900 0.144700 0.560900
O144 O 0.725400 0.412400 0.368600
O145 O 0.600200 0.675700 0.856700
O146 O 0.758900 0.529400 0.935400
O147 O 0.856200 0.240700 0.986700
O148 O 0.690300 0.254300 0.788000
O149 O 0.645100 0.415800 0.529500
O150 O 0.619200 0.487500 0.806000
O151 O 0.375300 0.158000 0.625800
O152 O 0.315600 0.554300 0.883700
O153 O 0.186300 0.256700 1.238000
O154 O -0.055300 0.227900 0.691300
O155 O 0.132000 0.154700 0.713900
O156 O 0.303400 0.310400 0.640200
O157 O 0.208600 0.442200 0.756000
O158 O 0.167400 0.381100 1.029600
O159 O 0.143800 0.740700 0.013300
O160 O 0.060100 0.327400 0.715100

#END
