
#######################################################################
#
#                 Cambridge Crystallographic Data Centre
#                                CCDC 
#
#######################################################################
#
# If this CIF has been generated from an entry in the Cambridge 
# Structural Database, then it will include bibliographic, chemical, 
# crystal, experimental, refinement or atomic coordinate data resulting 
# from the CCDC's data processing and validation procedures.
#
#######################################################################

data_AAMTXP
_symmetry_cell_setting           monoclinic
_symmetry_space_group_name_H-M   'P 21/n'
_symmetry_Int_Tables_number      14
_space_group_name_Hall           '-P 2yn'
loop_
_symmetry_equiv_pos_site_id
_symmetry_equiv_pos_as_xyz
1 x,y,z
2 1/2-x,1/2+y,1/2-z
3 -x,-y,-z
4 1/2+x,1/2-y,1/2+z
_cell_length_a                   14.966(3)
_cell_length_b                   9.887(2)
_cell_length_c                   12.325(3)
_cell_angle_alpha                90
_cell_angle_beta                 113.38(3)
_cell_angle_gamma                90
_cell_volume                     1673.98
loop_
_atom_site_label
_atom_site_type_symbol
_atom_site_fract_x
_atom_site_fract_y
_atom_site_fract_z
P1 P 0.29430 0.82470 0.11560
S1 S 0.26750 0.67370 0.01730
O1 O 0.20990 0.87780 0.15040
O2 O 0.38510 0.81890 0.23620
C1 C 0.19610 0.80400 0.24490
C2 C 0.28960 0.80870 0.35360
C3 C 0.37520 0.75310 0.33450
C4 C 0.10950 0.86600 0.25820
C5 C 0.47000 0.76720 0.43870
P2 P 0.28410 1.02510 -0.06260
S2 S 0.14730 1.03130 -0.14290
O3 O 0.32330 0.95930 0.06590
O4 O 0.33740 1.16460 -0.02760
O5 O 0.34200 0.94610 -0.12280
C6 C 0.35960 1.01740 -0.21800
C7 C 0.41400 1.14610 -0.16630
C8 C 0.36120 1.23830 -0.11670
C9 C 0.41700 0.92020 -0.25770
C10 C 0.41870 1.36100 -0.05450
H1 H 0.18060 0.69760 0.22700
H2 H 0.28020 0.75050 0.42240
H3 H 0.30460 0.91270 0.38140
H4 H 0.36000 0.64640 0.31830
H5 H 0.09400 0.79940 0.31810
H6 H 0.04860 0.86610 0.17350
H7 H 0.12170 0.96720 0.29390
H8 H 0.46050 0.70600 0.50610
H9 H 0.49260 0.86760 0.47280
H10 H 0.52480 0.72200 0.41390
H11 H 0.29790 1.27210 -0.19150
H12 H 0.42680 1.19930 -0.23540
H13 H 0.29440 1.04630 -0.29270
H14 H 0.42300 0.96940 -0.33270
H15 H 0.37710 0.82670 -0.28600
H16 H 0.48890 0.89860 -0.19210
H17 H 0.44090 1.41410 -0.11630
H18 H 0.48220 1.33600 0.02370
H19 H 0.37080 1.42460 -0.03040
H20 H 0.48290 1.11960 -0.09670
P1 P 0.20570 0.32470 0.38440
S1 S 0.23250 0.17370 0.48270
O1 O 0.29010 0.37780 0.34960
O2 O 0.11490 0.31890 0.26380
C1 C 0.30390 0.30400 0.25510
C2 C 0.21040 0.30870 0.14640
C3 C 0.12480 0.25310 0.16550
C4 C 0.39050 0.36600 0.24180
C5 C 0.03000 0.26720 0.06130
P2 P 0.21590 0.52510 0.56260
S2 S 0.35270 0.53130 0.64290
O3 O 0.17670 0.45930 0.43410
O4 O 0.16260 0.66460 0.52760
O5 O 0.15800 0.44610 0.62280
C6 C 0.14040 0.51740 0.71800
C7 C 0.08600 0.64610 0.66630
C8 C 0.13880 0.73830 0.61670
C9 C 0.08300 0.42020 0.75770
C10 C 0.08130 0.86100 0.55450
H1 H 0.31940 0.19760 0.27300
H2 H 0.21980 0.25050 0.07760
H3 H 0.19540 0.41270 0.11860
H4 H 0.14000 0.14640 0.18170
H5 H 0.40600 0.29940 0.18190
H6 H 0.45140 0.36610 0.32650
H7 H 0.37830 0.46720 0.20610
H8 H 0.03950 0.20600 -0.00610
H9 H 0.00740 0.36760 0.02720
H10 H -0.02480 0.22200 0.08610
H11 H 0.20210 0.77210 0.69150
H12 H 0.07320 0.69930 0.73540
H13 H 0.20560 0.54630 0.79270
H14 H 0.07700 0.46940 0.83270
H15 H 0.12290 0.32670 0.78600
H16 H 0.01110 0.39860 0.69210
H17 H 0.05910 0.91410 0.61630
H18 H 0.01780 0.83600 0.47630
H19 H 0.12920 0.92460 0.53040
H20 H 0.01710 0.61960 0.59670
P1 P 0.70570 0.17530 0.88440
S1 S 0.73250 0.32630 0.98270
O1 O 0.79010 0.12220 0.84960
O2 O 0.61490 0.18110 0.76380
C1 C 0.80390 0.19600 0.75510
C2 C 0.71040 0.19130 0.64640
C3 C 0.62480 0.24690 0.66550
C4 C 0.89050 0.13400 0.74180
C5 C 0.53000 0.23280 0.56130
P2 P 0.71590 -0.02510 1.06260
S2 S 0.85270 -0.03130 1.14290
O3 O 0.67670 0.04070 0.93410
O4 O 0.66260 -0.16460 1.02760
O5 O 0.65800 0.05390 1.12280
C6 C 0.64040 -0.01740 1.21800
C7 C 0.58600 -0.14610 1.16630
C8 C 0.63880 -0.23830 1.11670
C9 C 0.58300 0.07980 1.25770
C10 C 0.58130 -0.36100 1.05450
H1 H 0.81940 0.30240 0.77300
H2 H 0.71980 0.24950 0.57760
H3 H 0.69540 0.08730 0.61860
H4 H 0.64000 0.35360 0.68170
H5 H 0.90600 0.20060 0.68190
H6 H 0.95140 0.13390 0.82650
H7 H 0.87830 0.03280 0.70610
H8 H 0.53950 0.29400 0.49390
H9 H 0.50740 0.13240 0.52720
H10 H 0.47520 0.27800 0.58610
H11 H 0.70210 -0.27210 1.19150
H12 H 0.57320 -0.19930 1.23540
H13 H 0.70560 -0.04630 1.29270
H14 H 0.57700 0.03060 1.33270
H15 H 0.62290 0.17330 1.28600
H16 H 0.51110 0.10140 1.19210
H17 H 0.55910 -0.41410 1.11630
H18 H 0.51780 -0.33600 0.97630
H19 H 0.62920 -0.42460 1.03040
H20 H 0.51710 -0.11960 1.09670
P1 P 0.79430 0.67530 0.61560
S1 S 0.76750 0.82630 0.51730
O1 O 0.70990 0.62220 0.65040
O2 O 0.88510 0.68110 0.73620
C1 C 0.69610 0.69600 0.74490
C2 C 0.78960 0.69130 0.85360
C3 C 0.87520 0.74690 0.83450
C4 C 0.60950 0.63400 0.75820
C5 C 0.97000 0.73280 0.93870
P2 P 0.78410 0.47490 0.43740
S2 S 0.64730 0.46870 0.35710
O3 O 0.82330 0.54070 0.56590
O4 O 0.83740 0.33540 0.47240
O5 O 0.84200 0.55390 0.37720
C6 C 0.85960 0.48260 0.28200
C7 C 0.91400 0.35390 0.33370
C8 C 0.86120 0.26170 0.38330
C9 C 0.91700 0.57980 0.24230
C10 C 0.91870 0.13900 0.44550
H1 H 0.68060 0.80240 0.72700
H2 H 0.78020 0.74950 0.92240
H3 H 0.80460 0.58730 0.88140
H4 H 0.86000 0.85360 0.81830
H5 H 0.59400 0.70060 0.81810
H6 H 0.54860 0.63390 0.67350
H7 H 0.62170 0.53280 0.79390
H8 H 0.96050 0.79400 1.00610
H9 H 0.99260 0.63240 0.97280
H10 H 1.02480 0.77800 0.91390
H11 H 0.79790 0.22790 0.30850
H12 H 0.92680 0.30070 0.26460
H13 H 0.79440 0.45370 0.20730
H14 H 0.92300 0.53060 0.16730
H15 H 0.87710 0.67330 0.21400
H16 H 0.98890 0.60140 0.30790
H17 H 0.94090 0.08590 0.38370
H18 H 0.98220 0.16400 0.52370
H19 H 0.87080 0.07540 0.46960
H20 H 0.98290 0.38040 0.40330

#END
