./AAMTXP_from_POSCAR.cif_generated_by_CrystalShift
_symmetry_cell_setting triclinic
_symmetry_space_group_name_H-M 'P 1'
loop_
_symmetry_equiv_pos_site_id
_symmetry_equiv_pos_as_xyz
1 x,y,z
_cell_length_a 14.966000
_cell_length_b 9.887000
_cell_length_c 12.325000
_cell_angle_alpha 90.000000
_cell_angle_beta 113.380000
_cell_angle_gamma 90.000000
_cell_volume 1673.976496
loop_
_atom_site_label
_atom_site_type_symbol
_atom_site_fract_x
_atom_site_fract_y
_atom_site_fract_z
H1 H 0.982900 0.380400 0.403300
H2 H 0.870800 0.075400 0.469600
H3 H 1.024800 0.778000 0.913900
H4 H 0.992600 0.632400 0.972800
H5 H 0.960500 0.794000 1.006100
H6 H 0.621700 0.532800 0.793900
H7 H 0.548600 0.633900 0.673500
H8 H 0.594000 0.700600 0.818100
H9 H 0.860000 0.853600 0.818300
H10 H 0.804600 0.587300 0.881400
H11 H 0.982200 0.164000 0.523700
H12 H 0.780200 0.749500 0.922400
H13 H 0.680600 0.802400 0.727000
H14 H 0.926800 0.300700 0.264600
H15 H 0.794400 0.453700 0.207300
H16 H 0.517100 -0.119600 1.096700
H17 H 0.629200 -0.424600 1.030400
H18 H 0.517800 -0.336000 0.976300
H19 H 0.559100 -0.414100 1.116300
H20 H 0.180600 0.697600 0.227000
H21 H 0.280200 0.750500 0.422400
H22 H 0.304600 0.912700 0.381400
H23 H 0.360000 0.646400 0.318300
H24 H 0.094000 0.799400 0.318100
H25 H 0.048600 0.866100 0.173500
H26 H 0.121700 0.967200 0.293900
H27 H 0.460500 0.706000 0.506100
H28 H 0.492600 0.867600 0.472800
H29 H 0.524800 0.722000 0.413900
H30 H 0.297900 1.272100 -0.191500
H31 H 0.426800 1.199300 -0.235400
H32 H 0.294400 1.046300 -0.292700
H33 H 0.423000 0.969400 -0.332700
H34 H 0.377100 0.826700 -0.286000
H35 H 0.488900 0.898600 -0.192100
H36 H 0.440900 1.414100 -0.116300
H37 H 0.482200 1.336000 0.023700
H38 H 0.370800 1.424600 -0.030400
H39 H 0.482900 1.119600 -0.096700
H40 H 0.511100 0.101400 1.192100
H41 H 0.940900 0.085900 0.383700
H42 H 0.622900 0.173300 1.286000
H43 H 0.577000 0.030600 1.332700
H44 H 0.705600 -0.046300 1.292700
H45 H 0.573200 -0.199300 1.235400
H46 H 0.702100 -0.272100 1.191500
H47 H 0.475200 0.278000 0.586100
H48 H 0.507400 0.132400 0.527200
H49 H 0.539500 0.294000 0.493900
H50 H 0.988900 0.601400 0.307900
H51 H 0.878300 0.032800 0.706100
H52 H 0.951400 0.133900 0.826500
H53 H 0.906000 0.200600 0.681900
H54 H 0.640000 0.353600 0.681700
H55 H 0.695400 0.087300 0.618600
H56 H 0.719800 0.249500 0.577600
H57 H 0.819400 0.302400 0.773000
H58 H 0.923000 0.530600 0.167300
H59 H 0.319400 0.197600 0.273000
H60 H 0.219800 0.250500 0.077600
H61 H 0.195400 0.412700 0.118600
H62 H 0.140000 0.146400 0.181700
H63 H 0.406000 0.299400 0.181900
H64 H 0.451400 0.366100 0.326500
H65 H 0.378300 0.467200 0.206100
H66 H 0.039500 0.206000 -0.006100
H67 H 0.007400 0.367600 0.027200
H68 H -0.024800 0.222000 0.086100
H69 H 0.202100 0.772100 0.691500
H70 H 0.073200 0.699300 0.735400
H71 H 0.205600 0.546300 0.792700
H72 H 0.077000 0.469400 0.832700
H73 H 0.122900 0.326700 0.786000
H74 H 0.011100 0.398600 0.692100
H75 H 0.059100 0.914100 0.616300
H76 H 0.017800 0.836000 0.476300
H77 H 0.129200 0.924600 0.530400
H78 H 0.017100 0.619600 0.596700
H79 H 0.877100 0.673300 0.214000
H80 H 0.797900 0.227900 0.308500
C81 C 0.196100 0.804000 0.244900
C82 C 0.289600 0.808700 0.353600
C83 C 0.803900 0.196000 0.755100
C84 C 0.710400 0.191300 0.646400
C85 C 0.624800 0.246900 0.665500
C86 C 0.890500 0.134000 0.741800
C87 C 0.530000 0.232800 0.561300
C88 C 0.375200 0.753100 0.334500
C89 C 0.081300 0.861000 0.554500
C90 C 0.109500 0.866000 0.258200
C91 C 0.470000 0.767200 0.438700
C92 C 0.918700 0.139000 0.445500
C93 C 0.640400 -0.017400 1.218000
C94 C 0.586000 -0.146100 1.166300
C95 C 0.638800 -0.238300 1.116700
C96 C 0.583000 0.079800 1.257700
C97 C 0.581300 -0.361000 1.054500
C98 C 0.083000 0.420200 0.757700
C99 C 0.138800 0.738300 0.616700
C100 C 0.086000 0.646100 0.666300
C101 C 0.140400 0.517400 0.718000
C102 C 0.917000 0.579800 0.242300
C103 C 0.861200 0.261700 0.383300
C104 C 0.914000 0.353900 0.333700
C105 C 0.859600 0.482600 0.282000
C106 C 0.030000 0.267200 0.061300
C107 C 0.390500 0.366000 0.241800
C108 C 0.124800 0.253100 0.165500
C109 C 0.210400 0.308700 0.146400
C110 C 0.303900 0.304000 0.255100
C111 C 0.970000 0.732800 0.938700
C112 C 0.609500 0.634000 0.758200
C113 C 0.875200 0.746900 0.834500
C114 C 0.418700 1.361000 -0.054500
C115 C 0.417000 0.920200 -0.257700
C116 C 0.361200 1.238300 -0.116700
C117 C 0.414000 1.146100 -0.166300
C118 C 0.789600 0.691300 0.853600
C119 C 0.359600 1.017400 -0.218000
C120 C 0.696100 0.696000 0.744900
O121 O 0.885100 0.681100 0.736200
O122 O 0.709900 0.622200 0.650400
O123 O 0.209900 0.877800 0.150400
O124 O 0.385100 0.818900 0.236200
O125 O 0.290100 0.377800 0.349600
O126 O 0.114900 0.318900 0.263800
O127 O 0.790100 0.122200 0.849600
O128 O 0.342000 0.946100 -0.122800
O129 O 0.823300 0.540700 0.565900
O130 O 0.837400 0.335400 0.472400
O131 O 0.842000 0.553900 0.377200
O132 O 0.614900 0.181100 0.763800
O133 O 0.176700 0.459300 0.434100
O134 O 0.162600 0.664600 0.527600
O135 O 0.158000 0.446100 0.622800
O136 O 0.658000 0.053900 1.122800
O137 O 0.337400 1.164600 -0.027600
O138 O 0.323300 0.959300 0.065900
O139 O 0.676700 0.040700 0.934100
O140 O 0.662600 -0.164600 1.027600
P141 P 0.715900 -0.025100 1.062600
P142 P 0.215900 0.525100 0.562600
P143 P 0.784100 0.474900 0.437400
P144 P 0.205700 0.324700 0.384400
P145 P 0.794300 0.675300 0.615600
P146 P 0.705700 0.175300 0.884400
P147 P 0.284100 1.025100 -0.062600
P148 P 0.294300 0.824700 0.115600
S149 S 0.767500 0.826300 0.517300
S150 S 0.852700 -0.031300 1.142900
S151 S 0.732500 0.326300 0.982700
S152 S 0.352700 0.531300 0.642900
S153 S 0.232500 0.173700 0.482700
S154 S 0.147300 1.031300 -0.142900
S155 S 0.267500 0.673700 0.017300
S156 S 0.647300 0.468700 0.357100

#END
