./AANHOX_from_POSCAR.cif_generated_by_CrystalShift
_symmetry_cell_setting triclinic
_symmetry_space_group_name_H-M 'P 1'
loop_
_symmetry_equiv_pos_site_id
_symmetry_equiv_pos_as_xyz
1 x,y,z
_cell_length_a 7.750000
_cell_length_b 11.572000
_cell_length_c 17.701000
_cell_angle_alpha 90.000000
_cell_angle_beta 90.000000
_cell_angle_gamma 90.000000
_cell_volume 1587.478783
loop_
_atom_site_label
_atom_site_type_symbol
_atom_site_fract_x
_atom_site_fract_y
_atom_site_fract_z
C1 C 0.834000 0.088100 0.525400
C2 C 1.019000 0.187400 0.425600
C3 C 0.896000 0.105400 0.449000
C4 C 0.930000 0.603200 0.512300
C5 C 0.864000 0.534800 0.456000
C6 C 0.876000 0.567500 0.380300
C7 C 0.959000 0.672900 0.362600
C8 C 1.026000 0.738300 0.422300
C9 C 1.009000 0.706200 0.495700
C10 C 0.814000 0.484600 0.610900
C11 C 0.981000 0.724300 0.285700
C12 C 0.832000 0.026400 0.396900
C13 C 0.886000 0.032400 0.319300
C14 C 1.004000 0.112200 0.297600
C15 C 0.570000 0.103200 1.012300
C16 C 0.636000 0.034800 0.956000
C17 C 0.624000 0.067500 0.880300
C18 C 0.541000 0.172900 0.862600
C19 C 0.474000 0.238300 0.922300
C20 C 0.491000 0.206200 0.995700
C21 C 0.686000 -0.015400 1.110900
C22 C 0.519000 0.224300 0.785700
C23 C 1.189000 0.181300 0.199400
C24 C 0.666000 0.588100 1.025400
C25 C 0.429000 0.691400 0.849400
C26 C 0.430000 0.896800 0.512300
C27 C 0.364000 0.965200 0.456000
C28 C 0.376000 0.932500 0.380300
C29 C 0.459000 0.827100 0.362600
C30 C 0.526000 0.761700 0.422300
C31 C 0.509000 0.793800 0.495700
C32 C 0.314000 1.015400 0.610900
C33 C 0.481000 0.775700 0.285700
C34 C 0.481000 0.687400 0.925600
C35 C 0.604000 0.605400 0.949000
C36 C 0.668000 0.526400 0.896900
C37 C 0.070000 0.396800 1.012300
C38 C 0.136000 0.465200 0.956000
C39 C 0.124000 0.432500 0.880300
C40 C 0.041000 0.327100 0.862600
C41 C -0.026000 0.261700 0.922300
C42 C -0.009000 0.293800 0.995700
C43 C 0.186000 0.515400 1.110900
C44 C 0.019000 0.275700 0.785700
C45 C 0.614000 0.532400 0.819300
C46 C 0.496000 0.612200 0.797600
C47 C 0.311000 0.681300 0.699400
C48 C -0.189000 0.818700 0.699400
C49 C -0.004000 0.887800 0.797600
C50 C 0.114000 0.967600 0.819300
C51 C 0.168000 0.973600 0.896900
C52 C 0.104000 0.894600 0.949000
C53 C -0.019000 0.812600 0.925600
C54 C -0.071000 0.808600 0.849400
C55 C 0.166000 0.911900 1.025400
C56 C 0.334000 0.411900 0.525400
C57 C 0.571000 0.308600 0.349400
C58 C 0.519000 0.312600 0.425600
C59 C 0.689000 0.318700 0.199400
C60 C 0.504000 0.387800 0.297600
C61 C 0.386000 0.467600 0.319300
C62 C 0.332000 0.473600 0.396900
C63 C 0.396000 0.394600 0.449000
C64 C 1.071000 0.191400 0.349400
N65 N 0.911000 0.697700 0.223100
N66 N 0.589000 0.197700 0.723100
N67 N 0.877000 0.135700 0.588100
N68 N 0.411000 0.802300 0.223100
N69 N 0.623000 0.635700 1.088100
N70 N 0.123000 0.864300 1.088100
N71 N 0.089000 0.302300 0.723100
N72 N 0.377000 0.364300 0.588100
O73 O -0.012900 0.786500 1.083200
O74 O 0.204900 0.396200 0.724400
O75 O 0.079100 0.423300 1.086500
O76 O 0.487100 0.713500 1.083200
O77 O 0.295100 0.896200 0.224400
O78 O 1.048900 0.112100 0.222700
O79 O 1.012900 0.213500 0.583200
O80 O 0.451100 0.612100 0.722700
O81 O 0.420900 0.923300 0.586500
O82 O 0.548900 0.387900 0.222700
O83 O 0.704900 0.103800 0.724400
O84 O 0.579100 0.076700 1.086500
O85 O 0.512900 0.286500 0.583200
O86 O 0.795100 0.603800 0.224400
O87 O -0.048900 0.887900 0.722700
O88 O 0.920900 0.576700 0.586500

#END
