./ABABUD_from_POSCAR.cif_generated_by_CrystalShift
_symmetry_cell_setting triclinic
_symmetry_space_group_name_H-M 'P 1'
loop_
_symmetry_equiv_pos_site_id
_symmetry_equiv_pos_as_xyz
1 x,y,z
_cell_length_a 11.490000
_cell_length_b 13.214000
_cell_length_c 15.214000
_cell_angle_alpha 90.000000
_cell_angle_beta 95.243000
_cell_angle_gamma 90.000000
_cell_volume 2300.259782
loop_
_atom_site_label
_atom_site_type_symbol
_atom_site_fract_x
_atom_site_fract_y
_atom_site_fract_z
H1 H -0.206500 0.218000 0.031900
H2 H -0.123200 0.362600 0.092000
H3 H 0.046300 0.352600 0.191900
H4 H 0.131100 0.199400 0.226200
H5 H 0.257900 0.593500 0.657200
H6 H -0.210100 0.032200 0.017400
H7 H 0.424500 0.609600 0.757700
H8 H -0.125900 -0.123400 0.046600
H9 H 0.428500 0.524500 0.893800
H10 H 0.043500 -0.136900 0.145900
H11 H 0.081900 0.102100 0.466100
H12 H 0.138700 0.196700 0.419900
H13 H 0.159000 0.182500 0.524700
H14 H 0.411400 -0.121100 0.738000
H15 H 0.394600 0.179600 1.216200
H16 H 0.315400 -0.203000 0.703100
H17 H 0.346700 0.285700 1.330000
H18 H 0.286500 -0.122500 0.776600
H19 H 0.295400 0.451200 1.302700
H20 H 0.112400 -0.055100 0.689300
H21 H 0.131500 -0.145600 0.622200
H22 H 0.351700 0.233800 0.990800
H23 H 0.117700 -0.032000 0.586500
H24 H 0.458900 0.086800 1.108600
H25 H 0.414300 0.068500 1.007100
H26 H 0.322000 0.089300 1.077600
H27 H 0.314700 -0.079700 0.595700
H28 H 0.530900 0.318300 1.000700
H29 H 0.550100 0.204500 0.969200
H30 H 0.587400 0.236300 1.069300
H31 H 0.587400 0.263700 0.569300
H32 H 0.314700 0.579700 1.095700
H33 H 0.550100 0.295500 0.469200
H34 H 0.117700 0.532000 1.086500
H35 H 0.131500 0.645600 1.122200
H36 H 0.112400 0.555100 1.189300
H37 H 0.530900 0.181700 0.500700
H38 H 0.286500 0.622500 1.276600
H39 H 0.315400 0.703000 1.203100
H40 H 0.411400 0.621100 1.238000
H41 H 0.322000 0.410700 0.577600
H42 H 0.159000 0.317500 1.024700
H43 H 0.138700 0.303300 0.919900
H44 H 0.081900 0.397900 0.966100
H45 H 0.414300 0.431500 0.507100
H46 H 0.458900 0.413200 0.608600
H47 H 0.043500 0.636900 0.645900
H48 H 0.351700 0.266200 0.490800
H49 H -0.125900 0.623400 0.546600
H50 H 0.295400 0.048800 0.802700
H51 H -0.210100 0.467800 0.517400
H52 H 0.346700 0.214300 0.830000
H53 H 0.394600 0.320400 0.716200
H54 H 0.428500 -0.024500 0.393800
H55 H 0.131100 0.300600 0.726200
H56 H 0.424500 -0.109600 0.257700
H57 H 0.046300 0.147400 0.691900
H58 H 0.257900 -0.093500 0.157200
H59 H -0.123200 0.137400 0.592000
H60 H 1.206500 0.718000 0.468100
H61 H -0.206500 0.282000 0.531900
H62 H 1.123200 0.862600 0.408000
H63 H 0.953700 0.852600 0.308100
H64 H 0.868900 0.699400 0.273800
H65 H 1.210100 0.532200 0.482600
H66 H 0.742100 1.093500 0.842800
H67 H 1.125900 0.376600 0.453400
H68 H 0.575500 1.109600 0.742300
H69 H 0.956500 0.363100 0.354100
H70 H 0.571500 1.024500 0.606200
H71 H 0.918100 0.602100 0.033900
H72 H 0.861300 0.696700 0.080100
H73 H 0.841000 0.682500 -0.024700
H74 H 0.588600 0.378900 -0.238000
H75 H 0.684600 0.297000 -0.203100
H76 H 0.605400 0.679600 0.283800
H77 H 0.713500 0.377500 -0.276600
H78 H 0.653300 0.785700 0.170000
H79 H 0.887600 0.444900 -0.189300
H80 H 0.704600 0.951200 0.197300
H81 H 0.868500 0.354400 -0.122200
H82 H 0.882300 0.468000 -0.086500
H83 H 0.648300 0.733800 0.509200
H84 H 0.685300 0.420300 -0.095700
H85 H 0.541100 0.586800 0.391400
H86 H 0.585700 0.568500 0.492900
H87 H 0.678000 0.589300 0.422400
H88 H 0.412600 0.763700 -0.069300
H89 H 0.469100 0.818300 0.499300
H90 H 0.449900 0.704500 0.530800
H91 H 0.412600 0.736300 0.430700
H92 H 0.449900 0.795500 0.030800
H93 H 0.685300 1.079700 0.404300
H94 H 0.469100 0.681700 -0.000700
H95 H 0.882300 1.032000 0.413500
H96 H 0.868500 1.145600 0.377800
H97 H 0.887600 1.055100 0.310700
H98 H 0.678000 0.910700 -0.077600
H99 H 0.713500 1.122500 0.223400
H100 H 0.684600 1.203000 0.296900
H101 H 0.588600 1.121100 0.262000
H102 H 0.585700 0.931500 -0.007100
H103 H 0.841000 0.817500 0.475300
H104 H 0.861300 0.803300 0.580100
H105 H 0.918100 0.897900 0.533900
H106 H 0.541100 0.913200 -0.108600
H107 H 0.648300 0.766200 0.009200
H108 H 0.956500 1.136900 0.854100
H109 H 0.704600 0.548800 -0.302700
H110 H 1.125900 1.123400 0.953400
H111 H 0.653300 0.714300 -0.330000
H112 H 1.210100 0.967800 0.982600
H113 H 0.605400 0.820400 -0.216200
H114 H 0.571500 0.475500 0.106200
H115 H 0.575500 0.390400 0.242300
H116 H 0.868900 0.800600 0.773800
H117 H 0.742100 0.406500 0.342800
H118 H 0.953700 0.647400 0.808100
H119 H 1.206500 0.782000 0.968100
H120 H 1.123200 0.637400 0.908000
C121 C 1.138000 0.786900 0.928300
C122 C 1.089200 0.701300 0.892940
C123 C -0.089200 0.298700 0.107060
C124 C 0.169300 0.501300 0.734400
C125 C 0.830700 0.498700 0.265600
C126 C 0.738400 0.440000 0.287390
C127 C 0.987700 0.707400 0.833570
C128 C 0.640000 0.430200 0.228150
C129 C 0.938400 0.798300 0.812730
C130 C 0.638000 0.479900 0.148050
C131 C 0.986800 0.889900 0.847060
C132 C 0.734700 0.536000 0.129940
C133 C 0.742700 0.586000 0.043030
C134 C 0.660200 0.614000 -0.101820
C135 C 0.626800 0.714900 -0.117810
C136 C 0.625800 0.751900 -0.203950
C137 C 1.090200 0.883400 0.907800
C138 C 0.654600 0.688600 -0.271640
C139 C 1.140300 0.972100 0.944240
C140 C 0.684600 0.590300 -0.255350
C141 C 1.091600 1.064400 0.926300
C142 C 0.686600 0.549000 -0.170610
C143 C 0.592300 0.781200 -0.043420
C144 C 0.989800 1.072200 0.867210
C145 C 0.600000 0.894200 -0.060700
C146 C 0.938300 0.987400 0.828360
C147 C 0.850000 0.852900 0.532150
C148 C 0.672300 1.133200 0.276200
C149 C 0.469900 0.753000 -0.018400
C150 C 0.851200 1.074400 0.364100
C151 C 0.719700 1.059900 0.348720
C152 C 0.469900 0.747000 0.481600
C153 C 0.719700 0.440100 -0.151280
C154 C 0.600000 0.605800 0.439300
C155 C 0.851200 0.425600 -0.135900
C156 C 0.592300 0.718800 0.456580
C157 C 0.686600 0.951000 0.329390
C158 C 0.684600 0.909700 0.244650
C159 C 0.672300 0.366800 -0.223800
C160 C 0.654600 0.811400 0.228360
C161 C 0.625800 0.748100 0.296050
C162 C 0.626800 0.785100 0.382190
C163 C 0.850000 0.647100 0.032150
C164 C 0.660200 0.886000 0.398180
C165 C 0.742700 0.914000 0.543030
C166 C 0.734700 0.964000 0.629940
C167 C 0.938300 0.512600 0.328360
C168 C 0.989800 0.427800 0.367210
C169 C 0.638000 1.020100 0.648050
C170 C 1.091600 0.435600 0.426300
C171 C 0.640000 1.069800 0.728150
C172 C 1.140300 0.527900 0.444240
C173 C 0.738400 1.060000 0.787390
C174 C 1.090200 0.616600 0.407800
C175 C 0.986800 0.610100 0.347060
C176 C 0.938400 0.701700 0.312730
C177 C 0.830700 1.001300 0.765600
C178 C 0.987700 0.792600 0.333570
C179 C 0.012300 0.292600 0.166430
C180 C 1.089200 0.798700 0.392940
C181 C 0.261600 0.560000 0.712610
C182 C 1.138000 0.713100 0.428300
C183 C -0.138000 0.286900 0.571700
C184 C 0.061600 0.201700 0.187270
C185 C 0.013200 0.110100 0.152940
C186 C 0.169300 -0.001300 0.234400
C187 C 0.261600 -0.060000 0.212610
C188 C -0.089200 0.201300 0.607060
C189 C 0.360000 -0.069800 0.271850
C190 C 0.012300 0.207400 0.666430
C191 C 0.362000 -0.020100 0.351950
C192 C 0.061600 0.298300 0.687270
C193 C 0.265300 0.036000 0.370060
C194 C 0.257300 0.086000 0.456970
C195 C 0.339800 0.114000 0.601820
C196 C 0.373200 0.214900 0.617810
C197 C 0.374200 0.251900 0.703950
C198 C 0.013200 0.389900 0.652940
C199 C 0.345400 0.188600 0.771640
C200 C -0.090200 0.383400 0.592200
C201 C 0.315400 0.090300 0.755350
C202 C -0.140300 0.472100 0.555760
C203 C 0.313400 0.049000 0.670610
C204 C 0.407700 0.281200 0.543420
C205 C -0.091600 0.564400 0.573700
C206 C 0.400000 0.394200 0.560700
C207 C 0.010200 0.572200 0.632790
C208 C 0.061700 0.487400 0.671640
C209 C 0.150000 0.352900 0.967850
C210 C 0.530100 0.253000 0.518400
C211 C 0.327700 0.633200 1.223800
C212 C 0.148800 0.574400 1.135900
C213 C 0.280300 0.559900 1.151280
C214 C 0.280300 -0.059900 0.651280
C215 C 0.530100 0.247000 1.018400
C216 C 0.148800 -0.074400 0.635900
C217 C 0.400000 0.105800 1.060700
C218 C 0.407700 0.218800 1.043420
C219 C 0.313400 0.451000 1.170610
C220 C 0.327700 -0.133200 0.723800
C221 C 0.315400 0.409700 1.255350
C222 C 0.345400 0.311400 1.271640
C223 C 0.374200 0.248100 1.203950
C224 C 0.150000 0.147100 0.467850
C225 C 0.373200 0.285100 1.117810
C226 C 0.339800 0.386000 1.101820
C227 C 0.257300 0.414000 0.956970
C228 C 0.061700 0.012600 0.171640
C229 C 0.010200 -0.072200 0.132790
C230 C 0.265300 0.464000 0.870060
C231 C -0.091600 -0.064400 0.073700
C232 C 0.362000 0.520100 0.851950
C233 C -0.140300 0.027900 0.055760
C234 C 0.360000 0.569800 0.771850
C235 C -0.090200 0.116600 0.092200
C236 C -0.138000 0.213100 0.071700
N237 N 0.829940 0.954100 0.687580
N238 N 0.657930 0.928700 0.483600
N239 N 0.657930 0.571300 -0.016400
N240 N 0.829940 0.545900 0.187580
N241 N 0.342070 0.428700 1.016400
N242 N 0.170060 0.045900 0.312420
N243 N 0.342070 0.071300 0.516400
N244 N 0.170060 0.454100 0.812420

#END
