./ABADOX_from_POSCAR.cif_generated_by_CrystalShift
_symmetry_cell_setting triclinic
_symmetry_space_group_name_H-M 'P 1'
loop_
_symmetry_equiv_pos_site_id
_symmetry_equiv_pos_as_xyz
1 x,y,z
_cell_length_a 10.046900
_cell_length_b 9.516900
_cell_length_c 10.587700
_cell_angle_alpha 90.000000
_cell_angle_beta 110.317000
_cell_angle_gamma 90.000000
_cell_volume 949.364389
loop_
_atom_site_label
_atom_site_type_symbol
_atom_site_fract_x
_atom_site_fract_y
_atom_site_fract_z
H1 H 0.713000 0.469000 0.659000
H2 H 0.631000 0.728000 0.343000
H3 H 0.497000 0.875000 0.425000
H4 H 0.484000 0.816000 0.639000
H5 H 0.747000 0.724000 1.148000
H6 H 0.667000 0.584000 1.095000
H7 H 0.908000 0.607000 0.926000
H8 H 0.712000 0.783000 0.922000
H9 H 0.213000 1.031000 0.659000
H10 H 0.237000 0.982000 0.454000
H11 H 0.131000 0.772000 0.343000
H12 H -0.003000 0.625000 0.425000
H13 H -0.016000 0.684000 0.639000
H14 H 0.247000 0.776000 1.148000
H15 H 0.788000 0.283000 0.078000
H16 H 0.592000 0.107000 0.074000
H17 H 0.833000 0.084000 -0.095000
H18 H 0.753000 0.224000 -0.148000
H19 H 1.016000 0.316000 0.361000
H20 H 1.003000 0.375000 0.575000
H21 H 0.869000 0.228000 0.657000
H22 H 0.763000 0.018000 0.546000
H23 H 0.787000 -0.031000 0.341000
H24 H 0.167000 0.916000 1.095000
H25 H 0.408000 0.893000 0.926000
H26 H 0.212000 0.717000 0.922000
H27 H 0.287000 0.531000 0.341000
H28 H 0.263000 0.482000 0.546000
H29 H 0.369000 0.272000 0.657000
H30 H 0.503000 0.125000 0.575000
H31 H 0.516000 0.184000 0.361000
H32 H 0.253000 0.276000 -0.148000
H33 H 0.333000 0.416000 -0.095000
H34 H 0.092000 0.393000 0.074000
H35 H 0.288000 0.217000 0.078000
H36 H 0.737000 0.518000 0.454000
C37 C 0.323800 0.451600 0.388010
C38 C 0.376400 0.298100 0.578000
C39 C 0.450900 0.209900 0.523400
C40 C 0.462800 0.241690 0.400600
C41 C 0.399780 0.362800 0.334500
C42 C 0.266000 0.353000 -0.089180
C43 C 0.779400 0.187440 0.055610
C44 C 0.126100 0.416940 -0.096070
C45 C 0.626100 0.083060 -0.096070
C46 C 0.279400 0.312560 0.055610
C47 C 0.766000 0.147000 -0.089180
C48 C 0.676200 0.548400 0.611990
C49 C 0.686900 0.582500 0.489000
C50 C 0.220600 0.812560 0.944390
C51 C 0.623600 0.701900 0.422000
C52 C 0.373900 0.916940 1.096070
C53 C 0.549100 0.790100 0.476600
C54 C 0.234000 0.853000 1.089180
C55 C 0.100220 0.862800 0.665500
C56 C 0.037200 0.741690 0.599400
C57 C 0.049100 0.709900 0.476600
C58 C 0.123600 0.798100 0.422000
C59 C 0.186900 0.917500 0.489000
C60 C 0.176200 0.951600 0.611990
C61 C 0.537200 0.758310 0.599400
C62 C 0.600220 0.637200 0.665500
C63 C 0.734000 0.647000 1.089180
C64 C 0.823800 0.048400 0.388010
C65 C 0.813100 0.082500 0.511000
C66 C 0.876400 0.201900 0.578000
C67 C 0.950900 0.290100 0.523400
C68 C 0.962800 0.258310 0.400600
C69 C 0.899780 0.137200 0.334500
C70 C 0.873900 0.583060 1.096070
C71 C 0.720600 0.687440 0.944390
C72 C 0.313100 0.417500 0.511000
N73 N 0.142710 0.375750 0.029750
N74 N 0.857290 0.624250 0.970250
N75 N 0.357290 0.875750 0.970250
N76 N 0.642710 0.124250 0.029750
O77 O 1.052050 0.154950 0.180150
O78 O 0.397130 0.552560 0.154300
O79 O 0.552050 0.345050 0.180150
O80 O 0.968490 0.518020 1.178930
O81 O 0.897130 -0.052560 0.154300
O82 O -0.052050 0.845050 0.819850
O83 O 0.102870 1.052560 0.845700
O84 O 0.031510 0.481980 -0.178930
O85 O 0.531510 0.018020 -0.178930
O86 O 0.602870 0.447440 0.845700
O87 O 0.468490 0.981980 1.178930
O88 O 0.447950 0.654950 0.819850
S89 S 0.579090 0.594980 0.819600
S90 S 0.420910 0.405020 0.180400
S91 S 0.079090 0.905020 0.819600
S92 S 0.920910 0.094980 0.180400

#END
