./ABADIS_from_POSCAR.cif_generated_by_CrystalShift
_symmetry_cell_setting triclinic
_symmetry_space_group_name_H-M 'P 1'
loop_
_symmetry_equiv_pos_site_id
_symmetry_equiv_pos_as_xyz
1 x,y,z
_cell_length_a 10.435000
_cell_length_b 14.360000
_cell_length_c 8.292200
_cell_angle_alpha 90.000000
_cell_angle_beta 96.925000
_cell_angle_gamma 90.000000
_cell_volume 1233.493302
loop_
_atom_site_label
_atom_site_type_symbol
_atom_site_fract_x
_atom_site_fract_y
_atom_site_fract_z
H1 H 0.782700 0.111000 0.194000
H2 H 1.149700 0.049700 0.810600
H3 H 0.467100 0.086000 0.789800
H4 H 0.963000 0.269100 0.961400
H5 H 1.272900 0.183400 0.516500
H6 H 0.734700 -0.038800 0.733300
H7 H 0.681500 0.010000 0.880600
H8 H 0.769300 0.192500 0.893900
H9 H 0.815600 0.441700 -0.040600
H10 H 0.815600 0.058300 0.459400
H11 H 1.272900 0.316600 1.016500
H12 H 0.769300 0.307500 0.393900
H13 H 0.421400 0.192500 0.245000
H14 H 0.681500 0.490000 0.380600
H15 H 0.734700 0.538800 0.233300
H16 H 0.217300 0.611000 1.306000
H17 H 0.037000 0.769100 0.538600
H18 H 0.411200 0.676500 1.412600
H19 H 0.467100 0.414000 0.289800
H20 H 0.042700 0.472000 0.751600
H21 H 1.149700 0.450300 0.310600
H22 H 0.578600 0.692500 1.255000
H23 H 0.421400 0.307500 -0.255000
H24 H -0.149700 0.549700 0.689400
H25 H 0.957300 0.528000 0.248400
H26 H 0.532900 0.586000 0.710200
H27 H 0.588800 0.323500 -0.412600
H28 H 0.265300 0.461200 0.766700
H29 H 0.963000 0.230900 0.461400
H30 H 0.318500 0.510000 0.619400
H31 H 0.782700 0.389000 -0.306000
H32 H 0.230700 0.692500 0.606100
H33 H 0.184400 0.558300 1.040600
H34 H -0.272900 0.816600 0.483500
H35 H 0.588800 0.176500 0.087400
H36 H -0.272900 0.683400 -0.016500
H37 H 0.957300 -0.028000 0.748400
H38 H 0.217300 0.889000 0.806000
H39 H 0.037000 0.730900 0.038600
H40 H 0.184400 0.941700 0.540600
H41 H 0.411200 0.823500 0.912600
H42 H 0.042700 1.028000 0.251600
H43 H 0.230700 0.807500 0.106100
H44 H 0.578600 0.807500 0.755000
H45 H 0.318500 0.990000 0.119400
H46 H 0.265300 1.038800 0.266700
H47 H -0.149700 0.950300 0.189400
H48 H 0.532900 0.914000 0.210200
C49 C 0.499470 0.904700 0.308000
C50 C -0.205630 0.789950 0.057900
C51 C -0.073100 0.921620 0.170300
C52 C 0.157060 0.925810 0.184000
C53 C 0.500590 0.834160 0.712300
C54 C 0.282670 0.978820 0.220300
C55 C 0.042280 0.968100 0.208800
C56 C 0.153790 0.837030 0.121500
C57 C 0.400600 0.843760 0.805300
C58 C 0.481410 0.865480 0.553300
C59 C 0.037740 0.790790 0.081200
C60 C 0.262420 0.914930 0.582800
C61 C 0.283300 0.883560 0.740500
C62 C -0.076910 0.834150 0.104500
C63 C 1.073100 0.078380 0.829700
C64 C 0.716700 0.116440 0.259500
C65 C 0.599400 0.156240 0.194700
C66 C 0.363450 0.904730 0.490000
C67 C 0.962260 0.209210 0.918800
C68 C 0.363450 0.595270 0.990000
C69 C -0.076910 0.665850 0.604500
C70 C 0.262420 0.585070 1.082800
C71 C 0.500530 0.095300 0.692000
C72 C 0.481410 0.634520 1.053300
C73 C 0.153790 0.662970 0.621500
C74 C 1.205630 0.210050 0.942100
C75 C 0.282670 0.521180 0.720300
C76 C 0.716700 0.383560 -0.240500
C77 C 0.962260 0.290790 0.418800
C78 C 0.157060 0.574190 0.684000
C79 C -0.205630 0.710050 0.557900
C80 C 0.499470 0.595300 0.808000
C81 C 0.599400 0.343760 -0.305300
C82 C -0.073100 0.578380 0.670300
C83 C 0.957720 0.468100 0.291200
C84 C 0.500590 0.665840 1.212300
C85 C 0.499410 0.334160 -0.212300
C86 C 0.042280 0.531900 0.708800
C87 C 1.073100 0.421620 0.329700
C88 C 0.400600 0.656240 1.305300
C89 C 0.500530 0.404700 0.192000
C90 C 0.037740 0.709210 0.581200
C91 C 1.205630 0.289950 0.442100
C92 C 0.283300 0.616440 1.240500
C93 C 0.842940 0.425810 0.316000
C94 C 0.842940 0.074190 0.816000
C95 C 0.636550 0.404730 0.010000
C96 C 0.957720 0.031900 0.791200
C97 C 0.717330 0.478820 0.279700
C98 C 0.846210 0.337030 0.378500
C99 C 0.636550 0.095270 0.510000
C100 C 1.076910 0.165850 0.895500
C101 C 0.737580 0.085070 0.417200
C102 C 0.518590 0.365480 -0.053300
C103 C 0.518590 0.134520 0.446700
C104 C 0.846210 0.162970 0.878500
C105 C 0.737580 0.414930 -0.082800
C106 C 0.717330 0.021180 0.779700
C107 C 1.076910 0.334150 0.395500
C108 C 0.499410 0.165840 0.287700
N109 N 0.377620 0.929130 0.332330
N110 N 0.565380 0.866690 0.435840
N111 N 0.565380 0.633310 0.935840
N112 N 0.377620 0.570870 0.832330
N113 N 0.434620 0.366690 0.064160
N114 N 0.622380 0.070870 0.667670
N115 N 0.434620 0.133310 0.564160
N116 N 0.622380 0.429130 0.167670
O117 O 1.305750 0.168470 0.936470
O118 O -0.199580 0.796300 0.507130
O119 O -0.305750 0.668470 0.563530
O120 O -0.199580 0.703700 0.007130
O121 O -0.305750 0.831530 0.063530
O122 O 1.199580 0.203700 0.492870
O123 O 1.305750 0.331530 0.436470
O124 O 1.199580 0.296300 0.992870

#END
