./ABAFEP_from_POSCAR.cif_generated_by_CrystalShift
_symmetry_cell_setting triclinic
_symmetry_space_group_name_H-M 'P 1'
loop_
_symmetry_equiv_pos_site_id
_symmetry_equiv_pos_as_xyz
1 x,y,z
_cell_length_a 10.469000
_cell_length_b 7.186400
_cell_length_c 13.331800
_cell_angle_alpha 90.000000
_cell_angle_beta 104.142000
_cell_angle_gamma 90.000000
_cell_volume 972.612206
loop_
_atom_site_label
_atom_site_type_symbol
_atom_site_fract_x
_atom_site_fract_y
_atom_site_fract_z
H1 H 0.326800 0.400100 1.047000
H2 H 1.060000 0.492000 0.930000
H3 H 0.166100 -0.034600 0.949600
H4 H 0.912000 0.739000 -0.046000
H5 H 0.293100 -0.122900 0.920900
H6 H 0.851000 0.275200 0.596800
H7 H 0.964900 0.426800 0.605000
H8 H 0.292400 -0.088900 1.039400
H9 H 0.830400 0.367300 0.765700
H10 H 0.973000 0.282300 0.768400
H11 H 0.417500 0.145400 0.984400
H12 H 1.064400 0.578900 0.771000
H13 H 0.375600 -0.144300 0.462800
H14 H 0.902500 0.842500 0.773600
H15 H 0.362700 -0.062200 0.349200
H16 H 0.425800 0.062000 0.448600
H17 H 0.749600 0.995400 0.649600
H18 H 0.627500 0.860000 0.604800
H19 H 0.462100 -0.029700 0.834800
H20 H 0.818400 0.976600 0.496800
H21 H 0.665800 1.032400 0.467400
H22 H 0.472200 0.029200 0.721200
H23 H 0.604600 0.725300 0.417200
H24 H 0.511300 0.174600 0.814600
H25 H 0.881200 0.647000 0.478400
H26 H 0.184400 0.268000 0.839700
H27 H 0.437900 0.436100 0.903900
H28 H 0.841600 0.340800 0.423900
H29 H 0.686500 0.378100 0.388500
H30 H 0.296300 0.536300 0.875800
H31 H 0.878600 0.535500 0.292600
H32 H 0.772800 0.380300 0.242000
H33 H 0.455400 0.463500 0.740500
H34 H 0.323800 0.588900 0.717000
H35 H 0.810100 0.841900 0.326600
H36 H 0.189900 0.341900 0.673400
H37 H 0.676200 1.088900 0.283000
H38 H 0.544600 0.963500 0.259500
H39 H 0.227200 -0.119700 0.758000
H40 H 0.703700 1.036300 0.124200
H41 H 0.562100 0.936100 0.096100
H42 H 0.121400 0.035500 0.707400
H43 H 0.815600 0.768000 0.160300
H44 H 0.313500 -0.121900 0.611500
H45 H 0.488700 0.674600 0.185400
H46 H 0.527800 0.529200 0.278800
H47 H 0.537900 0.470300 0.165200
H48 H 0.158400 -0.159200 0.576100
H49 H 0.574200 0.562000 0.551400
H50 H 0.637300 0.437800 0.650800
H51 H 0.624400 0.355700 0.537200
H52 H 0.118800 0.147000 0.521600
H53 H 0.582500 0.645400 0.015600
H54 H 0.395400 0.225300 0.582800
H55 H 0.707600 0.411100 -0.039400
H56 H 0.706900 0.377100 0.079100
H57 H 0.833900 0.465400 0.050400
H58 H 0.334200 0.532400 0.532600
H59 H 0.700100 0.721300 -0.110400
H60 H 0.673200 0.900100 -0.047000
H61 H 0.181600 0.476600 0.503200
H62 H -0.060000 -0.008000 0.070000
H63 H 0.372500 0.360000 0.395200
H64 H 0.088000 0.239000 1.046000
H65 H 0.250400 0.495400 0.350400
H66 H 0.149000 -0.224800 0.403200
H67 H 0.035100 -0.073200 0.395000
H68 H 0.097500 0.342500 0.226400
H69 H 0.169600 -0.132700 0.234300
H70 H 0.027000 -0.217700 0.231600
H71 H -0.064400 0.078900 0.229000
H72 H 0.299900 0.221300 1.110400
C73 C 0.107800 0.227400 0.262500
C74 C 0.087300 -0.112400 0.256800
C75 C 0.195700 0.220400 0.352700
C76 C 0.279800 0.386200 0.395400
C77 C 0.117300 -0.101800 0.374000
C78 C 0.277200 0.281700 1.041600
C79 C 0.271400 0.431200 0.504800
C80 C 0.882700 0.398200 0.626000
C81 C 0.722800 0.781700 -0.041600
C82 C 0.302000 0.263500 0.576600
C83 C 0.737400 0.459500 0.031100
C84 C 0.210700 0.100300 0.529600
C85 C 0.680700 0.655500 0.036400
C86 C 0.220900 0.045600 0.419400
C87 C 0.225900 -0.064400 0.605100
C88 C 0.641100 0.468200 0.579900
C89 C 0.548500 0.573000 0.214900
C90 C 0.212300 -0.008900 0.712500
C91 C 0.718600 0.743900 0.144200
C92 C 0.650200 0.936500 0.144900
C93 C 0.309000 0.142900 0.760800
C94 C 0.284800 0.308000 0.683400
C95 C 0.638000 0.967500 0.256000
C96 C 0.362000 0.467500 0.744000
C97 C 0.715200 0.808000 0.316600
C98 C 0.691000 0.642900 0.239200
C99 C 0.349800 0.436500 0.855100
C100 C 0.787700 0.491100 0.287500
C101 C 0.774100 0.435600 0.394900
C102 C 0.281400 0.243900 0.855800
C103 C 0.779100 0.545600 0.580600
C104 C 0.451500 0.073000 0.785100
C105 C 0.789300 0.600300 0.470400
C106 C 0.698000 0.763500 0.423400
C107 C 0.728600 0.931200 0.495200
C108 C 0.358900 -0.031800 0.420100
C109 C 0.720200 0.886200 0.604600
C110 C 0.804300 0.720400 0.647300
C111 C 0.892200 0.727400 0.737500
C112 C 0.319300 0.155500 0.963600
C113 C 0.976200 0.568500 0.787000
C114 C 0.262600 -0.040500 0.968900
C115 C 0.912700 0.387600 0.743200
C116 C 0.023800 0.068500 0.213000
O117 O 0.139700 0.321000 1.013600
O118 O 0.860300 0.821000 -0.013600
O119 O 0.007100 0.082900 0.103400
O120 O 0.992900 0.582900 0.896600

#END
