
#######################################################################
#
#                 Cambridge Crystallographic Data Centre
#                                CCDC 
#
#######################################################################
#
# If this CIF has been generated from an entry in the Cambridge 
# Structural Database, then it will include bibliographic, chemical, 
# crystal, experimental, refinement or atomic coordinate data resulting 
# from the CCDC's data processing and validation procedures.
#
#######################################################################

data_ABAFAL
_symmetry_cell_setting           triclinic
_symmetry_space_group_name_H-M   'P 1'
_symmetry_Int_Tables_number      1
_space_group_name_Hall           'P 1'
loop_
_symmetry_equiv_pos_site_id
_symmetry_equiv_pos_as_xyz
1 x,y,z
_cell_length_a                   5.8601(2)
_cell_length_b                   8.1656(5)
_cell_length_c                   16.7153(10)
_cell_angle_alpha                97.332(2)
_cell_angle_beta                 97.876(3)
_cell_angle_gamma                91.229(3)
_cell_volume                     785.207
loop_
_atom_site_label
_atom_site_type_symbol
_atom_site_fract_x
_atom_site_fract_y
_atom_site_fract_z
O1 O 0.9385 0.8599 0.4612
N1 N 0.6666(6) 0.7488(5) 0.5335(3)
O4 O 0.6889(7) 0.6426(5) 0.2791(3)
C1 C 0.5567(7) 0.7042(6) 0.4075(3)
C2 C 0.4641(7) 0.6543(6) 0.4854(3)
C3 C 0.4519(7) 0.4749(5) 0.4949(3)
C4 C 0.7172(7) 0.7949(6) 0.6179(3)
C9 C 0.6036(8) 0.5677(6) 0.3430(3)
C12 C 0.2464(7) 0.3833(6) 0.4664(3)
O5 O 1.0192(8) 0.5157(8) 0.2988(4)
C16 C 0.7592(8) 0.7871(6) 0.4666(3)
C17 C 0.2279(9) 0.2173(7) 0.4731(4)
C19 C 0.5646(9) 0.7506(7) 0.6685(3)
C21 C 0.6185(9) 0.2269(7) 0.5375(4)
C22 C 0.9196(8) 0.8871(7) 0.6512(4)
C23 C 0.6378(7) 0.3929(6) 0.5302(3)
C24 C 0.9069(9) 0.6137(7) 0.2652(3)
C25 C 0.4134(9) 0.1395(7) 0.5094(4)
C31 C 0.9739(19) 0.7058(11) 0.2020(5)
C33 C 0.9594(11) 0.9334(8) 0.7350(4)
C34 C 0.6092(11) 0.7967(9) 0.7515(4)
C36 C 0.8086(12) 0.8885(9) 0.7849(4)
H1 H 0.312(6) 0.713(4) 0.497(2)
H7 H 0.465(9) 0.782(7) 0.382(3)
H8 H 0.743(10) 0.175(7) 0.562(4)
H9 H 0.114(9) 0.432(7) 0.434(3)
H11 H 0.494(14) 0.750(10) 0.787(5)
H12 H 0.085(11) 0.160(8) 0.450(4)
H13 H 0.792(8) 0.463(6) 0.547(3)
H16 H 0.704(8) 0.489(6) 0.366(3)
H17 H 0.392(8) 0.031(7) 0.513(3)
H22 H 0.439(9) 0.677(7) 0.647(3)
H23 H 0.921(13) 0.805(11) 0.194(5)
H25 H 0.836(10) 0.912(7) 0.843(4)
H28 H 0.940(15) 0.612(13) 0.145(6)
H29 H 0.467(9) 0.502(7) 0.318(3)
H32 H 1.120(16) 0.750(12) 0.217(5)
H33 H 1.011(9) 0.918(7) 0.605(4)
H34 H 1.102(13) 1.022(10) 0.760(5)
O2 O 0.5195(7) 0.2434(5) 1.1958(3)
O3 O 0.0176(6) 0.4937(5) 1.0173(3)
N2 N 0.3114(6) 0.3598(5) 0.9546(3)
C5 C 0.3877(7) 0.3773(6) 1.0820(3)
C6 C 0.5069(7) 0.2996(6) 1.0080(3)
C7 C 0.3544(8) 0.0039(6) 0.9602(3)
C8 C 0.2776(7) 0.3616(6) 0.8702(3)
C10 C 0.5327(7) 0.1157(6) 0.9973(3)
C11 C 0.4424(8) 0.2945(7) 0.8236(3)
C13 C 0.1990(7) 0.4244(6) 1.0170(3)
C14 C 0.7753(9) -0.1142(8) 1.0170(4)
C15 C 0.3145(8) 0.2693(7) 1.1408(3)
C18 C 0.7438(8) 0.0531(7) 1.0252(4)
C20 C 0.5974(10) -0.2245(7) 0.9801(4)
C26 C 0.5038(11) 0.1264(7) 1.2434(4)
C27 C 0.3866(9) -0.1631(7) 0.9524(4)
O6 O 0.3297(11) 0.0457(10) 1.2418(5)
C28 C 0.0609(11) 0.4335(8) 0.7487(4)
C29 C 0.0860(9) 0.4320(7) 0.8323(4)
C30 C 0.4116(11) 0.2965(9) 0.7415(4)
C32 C 0.2215(11) 0.3671(9) 0.7028(4)
C35 C 0.7244(15) 0.1113(9) 1.2992(5)
H2 H 0.258(12) -0.244(9) 0.916(4)
H3 H 0.207(9) 0.052(6) 0.938(3)
H4 H 0.469(7) 0.477(5) 1.112(3)
H5 H 0.690(16) 0.141(12) 1.355(7)
H6 H 0.648(7) 0.357(5) 1.003(2)
H10 H 0.252(6) 0.158(5) 1.109(2)
H14 H 0.727(12) -0.024(10) 1.315(5)
H15 H 0.589(10) 0.247(8) 0.855(4)
H18 H 0.181(11) 0.323(8) 1.172(4)
H19 H 0.513(11) 0.262(8) 0.713(4)
H20 H 0.189(10) 0.357(8) 0.644(4)
H21 H -0.013(10) 0.482(7) 0.862(4)
H24 H -0.043(12) 0.493(9) 0.724(5)
H26 H 0.918(9) -0.185(7) 1.036(4)
H27 H 0.610(9) -0.337(8) 0.974(3)
H30 H 0.826(19) 0.219(15) 1.305(7)
H31 H 0.858(10) 0.144(8) 1.052(4)

#END
