./ABAFOZ_from_POSCAR.cif_generated_by_CrystalShift
_symmetry_cell_setting triclinic
_symmetry_space_group_name_H-M 'P 1'
loop_
_symmetry_equiv_pos_site_id
_symmetry_equiv_pos_as_xyz
1 x,y,z
_cell_length_a 10.480400
_cell_length_b 10.480400
_cell_length_c 31.811600
_cell_angle_alpha 90.000000
_cell_angle_beta 90.000000
_cell_angle_gamma 120.000000
_cell_volume 3026.020470
loop_
_atom_site_label
_atom_site_type_symbol
_atom_site_fract_x
_atom_site_fract_y
_atom_site_fract_z
H1 H 0.562000 0.157000 0.872667
H2 H 0.521000 0.433000 0.558333
H3 H 0.853000 0.347000 0.860667
H4 H 0.912000 0.479000 0.891667
H5 H 0.494000 0.147000 0.194000
H6 H 0.567000 0.088000 0.225000
H7 H 0.566000 0.480000 0.679333
H8 H 0.498000 0.349000 0.711333
H9 H 0.914000 0.434000 0.012667
H10 H 0.851000 0.502000 0.044667
H11 H 0.520000 0.086000 0.346000
H12 H 0.651000 0.149000 0.378000
H13 H 0.739000 -0.065000 0.487333
H14 H 0.843000 0.069000 0.515333
H15 H 0.848000 0.086000 0.467333
H16 H 0.573000 -0.038000 0.545333
H17 H 0.362000 -0.043000 0.585333
H18 H 0.185000 0.022000 0.590333
H19 H 0.167000 0.176000 0.541333
H20 H 0.336000 0.270000 0.485333
H21 H 0.739000 0.803000 0.420333
H22 H 0.845000 0.783000 0.390333
H23 H 0.849000 0.757000 0.438333
H24 H 0.570000 0.612000 0.361333
H25 H 0.367000 0.405000 0.318333
H26 H 0.181000 0.163000 0.315333
H27 H 0.169000 -0.009000 0.365333
H28 H 0.336000 0.067000 0.420333
H29 H 0.842000 0.440000 0.367333
H30 H 0.834000 0.623000 0.326333
H31 H 1.042000 0.793000 0.289333
H32 H 1.254000 0.776000 0.289333
H33 H 1.267000 0.600000 0.331333
H34 H 1.142000 0.379000 0.371333
H35 H 0.973000 0.302000 0.381333
H36 H 1.266000 0.667000 0.574333
H37 H 1.258000 0.479000 0.614333
H38 H 1.039000 0.249000 0.617333
H39 H 0.832000 0.211000 0.578333
H40 H 0.843000 0.405000 0.539333
H41 H 0.975000 0.672000 0.524333
H42 H 1.145000 0.764000 0.532333
H43 H 1.134000 0.349000 0.478333
H44 H 1.202000 0.324000 0.437333
H45 H 1.032000 0.231000 0.446333
H46 H 0.202000 0.229000 0.124000
H47 H 0.122000 0.316000 0.137000
H48 H 0.209000 0.351000 0.094000
H49 H 0.409000 0.651000 0.162000
H50 H 0.251000 0.571000 0.142000
H51 H 0.425000 0.747000 0.095000
H52 H 0.351000 0.586000 0.077000
H53 H 0.769000 0.801000 0.113000
H54 H 0.676000 0.878000 0.104000
H55 H 0.651000 0.785000 0.145000
H56 H 0.236000 0.381000 0.199000
H57 H 0.328000 0.303000 0.191000
H58 H 0.595000 0.438000 0.206000
H59 H 0.789000 0.621000 0.245000
H60 H 0.751000 0.790000 0.284000
H61 H 0.521000 0.779000 0.281000
H62 H 0.333000 0.599000 0.241000
H63 H 0.698000 0.671000 0.048000
H64 H 0.621000 0.763000 0.038000
H65 H 0.400000 0.667000 -0.002000
H66 H 0.224000 0.478000 -0.044000
H67 H 0.207000 0.249000 -0.044000
H68 H 0.377000 0.211000 -0.007000
H69 H 0.560000 0.402000 0.034000
H70 H 0.933000 0.269000 0.087000
H71 H 1.009000 0.178000 0.032000
H72 H 0.837000 0.018000 -0.018000
H73 H 0.595000 -0.038000 -0.015000
H74 H 0.388000 -0.042000 0.028000
H75 H 0.243000 0.092000 0.105000
H76 H 0.217000 0.062000 0.057000
H77 H 0.197000 -0.064000 0.087000
H78 H 0.730000 0.066000 0.152000
H79 H 0.824000 -0.009000 0.208000
H80 H 0.978000 0.163000 0.257000
H81 H 1.043000 0.405000 0.252000
H82 H 1.038000 0.611000 0.212000
H83 H 0.914000 0.762000 0.134000
H84 H 0.931000 0.774000 0.182000
H85 H 1.065000 0.804000 0.154000
H86 H 1.235000 0.649000 0.410333
H87 H 1.322000 0.575000 0.428333
H88 H 1.320000 0.749000 0.475333
H89 H 1.242000 0.591000 0.495333
H90 H 1.142000 0.791000 0.427333
H91 H 1.194000 0.878000 0.470333
H92 H 1.027000 0.798000 0.457333
H93 H 0.196000 0.261000 0.820667
H94 H 0.226000 0.157000 0.848667
H95 H 0.238000 0.152000 0.800667
H96 H 0.389000 0.427000 0.878667
H97 H 0.595000 0.638000 0.918667
H98 H 0.837000 0.815000 0.923667
H99 H 1.009000 0.833000 0.874667
H100 H 0.934000 0.664000 0.818667
H101 H 1.064000 0.261000 0.753667
H102 H 0.938000 0.155000 0.723667
H103 H 0.908000 0.151000 0.771667
H104 H 1.042000 0.430000 0.694667
H105 H 1.038000 0.633000 0.651667
H106 H 0.982000 0.819000 0.648667
H107 H 0.822000 0.831000 0.698667
H108 H 0.731000 0.664000 0.753667
H109 H 0.598000 0.158000 0.700667
H110 H 0.789000 0.166000 0.659667
H111 H 0.751000 -0.042000 0.622667
H112 H 0.522000 -0.254000 0.622667
H113 H 0.333000 -0.267000 0.664667
H114 H 0.237000 -0.142000 0.704667
H115 H 0.329000 0.027000 0.714667
H116 H 0.401000 -0.266000 0.907667
H117 H 0.221000 -0.258000 0.947667
H118 H 0.210000 -0.039000 0.950667
H119 H 0.379000 0.168000 0.911667
H120 H 0.653000 0.506000 0.527333
H121 H 0.697000 0.025000 0.857667
H122 H 0.619000 -0.145000 0.865667
H123 H 0.215000 -0.134000 0.811667
H124 H 0.122000 -0.202000 0.770667
H125 H 0.199000 -0.032000 0.779667
H126 H 0.414000 -0.235000 0.743667
H127 H 0.253000 -0.322000 0.761667
H128 H 0.429000 -0.320000 0.808667
H129 H 0.349000 -0.242000 0.828667
H130 H 0.649000 -0.142000 0.760667
H131 H 0.771000 -0.027000 0.790667
H132 H 0.684000 -0.194000 0.803667
C133 C 0.254100 0.214400 0.823930
C134 C 0.414300 0.328000 0.827920
C135 C 0.460600 0.431000 0.859240
C136 C 0.609600 0.537700 0.864770
C137 C 0.662900 0.641200 0.898270
C138 C 0.805400 0.747200 0.901080
C139 C 0.907600 0.758000 0.871440
C140 C 0.863600 0.656400 0.839020
C141 C 0.714300 0.544700 0.834380
C142 C 0.665400 0.437300 0.801340
C143 C 0.519200 0.326900 0.799720
C144 C 0.960200 0.213100 0.748300
C145 C 0.915000 0.327600 0.744230
C146 C 0.970000 0.430800 0.713060
C147 C 0.928000 0.537900 0.707430
C148 C 0.979500 0.642300 0.673290
C149 C 0.941400 0.747000 0.671060
C150 C 0.850400 0.757500 0.700770
C151 C 0.793600 0.656800 0.732820
C152 C 0.830900 0.544700 0.737440
C153 C 0.771200 0.436700 0.770260
C154 C 0.806600 0.325800 0.772610
C155 C 0.582500 0.071800 0.685530
C156 C 0.695000 0.077100 0.660650
C157 C 0.671600 -0.044800 0.638320
C158 C 0.538300 -0.171700 0.639160
C159 C 0.426500 -0.177900 0.664040
C160 C 0.449000 -0.056900 0.687320
C161 C 0.328200 -0.065300 0.715710
C162 C 0.394300 -0.178300 0.908030
C163 C 0.290900 -0.171700 0.932580
C164 C 0.283400 -0.043800 0.934020
C165 C 0.384400 0.079100 0.911260
C166 C 0.488700 0.071400 0.886710
C167 C 0.495000 -0.056300 0.884370
C168 C 0.605400 -0.066200 0.856090
C169 C 0.206800 0.322600 0.123100
C170 C 0.600800 0.525600 0.548330
C171 C 0.349000 0.585400 0.140070
C172 C 1.115800 0.793200 0.456400
C173 C 0.924800 0.399200 0.881670
C174 C 1.236400 0.651000 0.473400
C175 C 1.236200 0.584700 0.431440
C176 C 0.415300 0.651500 0.098110
C177 C 1.118300 0.325600 0.449200
C178 C 0.474400 0.075200 0.215000
C179 C 0.674400 0.792700 0.115900
C180 C 1.066200 0.671600 0.522750
C181 C 1.056300 0.551300 0.551030
C182 C 0.928600 0.417300 0.553370
C183 C 0.920900 0.305300 0.577920
C184 C 1.043800 0.327200 0.600680
C185 C 1.171700 0.462600 0.599240
C186 C 1.178300 0.572600 0.574690
C187 C 1.065300 0.393500 0.382370
C188 C 1.056900 0.505900 0.353980
C189 C 1.177900 0.604400 0.330700
C190 C 1.171700 0.710000 0.305820
C191 C 1.044800 0.716400 0.304980
C192 C 0.922900 0.617900 0.327310
C193 C 0.928200 0.510700 0.352190
C194 C 0.674200 0.480800 0.439270
C195 C 0.563300 0.334500 0.436920
C196 C 0.455300 0.286200 0.404100
C197 C 0.343200 0.136800 0.399480
C198 C 0.242500 0.092900 0.367430
C199 C 0.253000 0.194400 0.337720
C200 C 0.357700 0.337200 0.339950
C201 C 0.462100 0.390100 0.374090
C202 C 0.569200 0.539200 0.379720
C203 C 0.672400 0.587400 0.410890
C204 C 0.786900 0.747100 0.414900
C205 C 0.673100 0.192300 0.466380
C206 C 0.562700 0.228100 0.468000
C207 C 0.455300 0.169600 0.501040
C208 C 0.343600 0.207200 0.505680
C209 C 0.242000 0.149600 0.538100
C210 C 0.252800 0.058200 0.567740
C211 C 0.358800 0.021700 0.564930
C212 C 0.462300 0.071900 0.531430
C213 C 0.569000 0.029600 0.525900
C214 C 0.672000 0.086300 0.494580
C215 C 0.785600 0.039700 0.490590
C216 C 0.207300 -0.118300 0.782600
C217 C 0.475900 0.400600 0.690000
C218 C 0.348500 -0.236200 0.764780
C219 C 0.414600 -0.236400 0.806740
C220 C 0.328400 0.394600 0.189420
C221 C 0.677400 -0.115800 0.789800
C222 C 0.924700 0.524100 0.023400
C223 C 0.960300 0.745900 0.157260
C224 C 0.913700 0.585700 0.161250
C225 C 0.970400 0.539400 0.192570
C226 C 0.928100 0.390400 0.198100
C227 C 0.978300 0.337100 0.231600
C228 C 0.941800 0.194600 0.234410
C229 C 0.850400 0.092400 0.204770
C230 C 0.792800 0.136400 0.172350
C231 C 0.830400 0.285700 0.167710
C232 C 0.771900 0.334600 0.134670
C233 C 0.807700 0.480800 0.133050
C234 C 0.252900 0.039800 0.081600
C235 C 0.412600 0.085000 0.077560
C236 C 0.460800 0.030000 0.046390
C237 C 0.609900 0.072000 0.040760
C238 C 0.662800 0.020500 0.006620
C239 C 0.805600 0.058600 0.004390
C240 C 0.907100 0.149600 0.034100
C241 C 0.863200 0.206400 0.066150
C242 C 0.713800 0.169100 0.070770
C243 C 0.665500 0.228800 0.103590
C244 C 0.519200 0.193400 0.105940
C245 C 0.489300 0.417500 0.018860
C246 C 0.382100 0.305000 -0.006020
C247 C 0.283600 0.328400 -0.028350
C248 C 0.290000 0.461700 -0.027510
C249 C 0.395600 0.573500 -0.002630
C250 C 0.494100 0.551000 0.020650
C251 C 0.606500 0.671800 0.049040
C252 C 0.427400 0.605700 0.241360
C253 C 0.537400 0.709100 0.265910
C254 C 0.672800 0.716600 0.267350
C255 C 0.694700 0.615600 0.244590
C256 C 0.599400 0.075300 0.356700
C257 C 0.448700 0.505000 0.217700
C258 C 0.582700 0.511300 0.220040
N259 N 1.099900 0.440400 0.427490
N260 N 0.340500 0.439400 0.144790
N261 N 0.340500 -0.099900 0.760830
N262 N 1.098900 0.659500 0.478120
N263 N 0.559600 0.659500 0.094160
N264 N 0.560600 -0.098900 0.811460
O265 O 0.743800 0.218500 0.801940
O266 O 0.781500 0.525300 0.468600
O267 O 0.474700 0.256200 0.135270
O268 O 0.782400 0.257000 0.436690
O269 O 0.743000 0.525400 0.103360
O270 O 0.474600 0.217600 0.770030
Cl271 Cl 0.383600 0.280500 0.648860
Cl272 Cl 0.384100 0.103900 0.256640
Cl273 Cl 0.375200 -0.099910 0.192640
Cl274 Cl 0.375190 0.475070 0.712870
Cl275 Cl 0.896900 0.616400 -0.017800
Cl276 Cl 1.099880 0.624810 0.046210
Cl277 Cl 0.896100 0.280200 0.923310
Cl278 Cl 1.099910 0.475110 0.859310
Cl279 Cl 0.524890 0.624800 0.525970
Cl280 Cl 0.524930 -0.099880 0.379540
Cl281 Cl 0.719500 0.103100 0.315530
Cl282 Cl 0.719800 0.615900 0.589970
Pd283 Pd 0.533380 0.066810 0.786070
Pd284 Pd 0.533430 0.466620 0.119400
Pd285 Pd 0.933190 0.466570 0.452730

#END
