./ABAFIT_from_POSCAR.cif_generated_by_CrystalShift
_symmetry_cell_setting triclinic
_symmetry_space_group_name_H-M 'P 1'
loop_
_symmetry_equiv_pos_site_id
_symmetry_equiv_pos_as_xyz
1 x,y,z
_cell_length_a 12.453600
_cell_length_b 16.100100
_cell_length_c 24.773900
_cell_angle_alpha 90.000000
_cell_angle_beta 102.798000
_cell_angle_gamma 90.000000
_cell_volume 4843.869650
loop_
_atom_site_label
_atom_site_type_symbol
_atom_site_fract_x
_atom_site_fract_y
_atom_site_fract_z
H1 H 0.400700 1.005400 0.304800
H2 H 0.425700 0.901800 0.433800
H3 H 0.641000 0.227000 0.756400
H4 H 0.559600 0.864300 0.508600
H5 H 0.360600 1.038200 0.425800
H6 H 0.574300 1.098200 0.566200
H7 H 0.440400 1.135700 0.491400
H8 H 0.639400 -0.038200 0.574200
H9 H 0.425700 -0.098200 0.433800
H10 H 0.559600 -0.135700 0.508600
H11 H 0.360600 0.038200 0.425800
H12 H 0.574300 0.098200 0.566200
H13 H 1.016000 -0.054000 0.711300
H14 H 0.917600 -0.052700 0.656600
H15 H 0.440400 0.135700 0.491400
H16 H 0.794500 -0.063100 0.709200
H17 H 0.893000 -0.064700 0.763900
H18 H 0.639400 0.538200 1.074200
H19 H 0.425700 0.598200 0.933800
H20 H 0.559600 0.635700 1.008600
H21 H 1.076900 0.136800 0.536900
H22 H 0.360600 0.461800 0.925800
H23 H 0.574300 0.401800 1.066200
H24 H 1.297400 0.134500 0.678900
H25 H 0.440400 0.364300 0.991400
H26 H 0.639400 0.538200 0.074200
H27 H 0.888800 0.023400 0.560900
H28 H 0.881200 0.115200 0.535600
H29 H 0.841800 0.097700 0.591900
H30 H 0.425700 0.598200 -0.066200
H31 H 1.329400 0.212000 0.593600
H32 H 1.258400 0.174900 0.536900
H33 H 1.345300 0.117200 0.577400
H34 H 0.559600 0.635700 0.008600
H35 H 1.257600 0.093100 0.763200
H36 H 1.161800 0.025000 0.755900
H37 H 1.137000 0.119400 0.769400
H38 H 0.360600 0.461800 -0.074200
H39 H 0.574300 0.401800 0.066200
H40 H 0.440400 0.364300 -0.008600
H41 H 0.520700 0.076700 0.793300
H42 H 0.588900 0.705800 0.485600
H43 H 0.714000 0.756100 0.562700
H44 H 0.801000 0.098600 0.912500
H45 H 0.810000 0.667000 0.628200
H46 H 0.787000 0.522900 0.616300
H47 H 0.646000 0.081500 0.679100
H48 H 0.529700 0.077800 0.696400
H49 H 0.599300 -0.005400 0.695200
H50 H 0.659600 0.472800 0.539100
H51 H 0.511600 0.117400 0.887800
H52 H 0.621900 0.119800 0.935400
H53 H 0.567600 0.032600 0.913600
H54 H 0.558200 0.565700 0.475300
H55 H 0.978500 0.087900 0.891700
H56 H 0.984600 0.113800 0.830100
H57 H 0.979000 0.017800 0.846000
H58 H 0.588900 0.794200 -0.014400
H59 H 0.714000 0.743900 0.062700
H60 H 0.810000 0.833000 0.128200
H61 H 0.792700 0.447300 0.902700
H62 H 0.711400 0.418200 0.941700
H63 H 0.787000 0.977100 0.116300
H64 H 0.562200 0.437300 0.873000
H65 H 0.641700 0.483300 0.839000
H66 H 0.659600 1.027200 0.039100
H67 H 0.558200 0.934300 -0.024700
H68 H 0.411100 0.294200 0.514400
H69 H 0.810700 0.163700 1.044100
H70 H 0.286000 0.243900 0.437300
H71 H 0.190000 0.333000 0.371800
H72 H 1.064100 0.194800 0.970100
H73 H 0.213000 0.477100 0.383700
H74 H 0.340400 0.527200 0.460900
H75 H 0.634300 0.220500 1.005700
H76 H 0.611200 0.268300 0.947600
H77 H 0.665000 0.316700 1.003500
H78 H 0.441800 0.434300 0.524700
H79 H 1.084600 0.099200 1.043100
H80 H 0.973700 0.048200 1.041500
H81 H 1.012200 0.118100 1.087600
H82 H 0.411100 0.205800 1.014400
H83 H 0.942500 0.288900 0.854400
H84 H 1.058300 0.290300 0.898100
H85 H 0.973400 0.365500 0.896100
H86 H 0.286000 0.256100 0.937300
H87 H 0.190000 0.167000 0.871800
H88 H 0.213000 0.022900 0.883700
H89 H 0.274100 0.298700 0.745600
H90 H 0.340400 -0.027200 0.960900
H91 H 0.441800 0.065700 1.024700
H92 H 0.450700 0.397800 0.645600
H93 H 0.368600 0.957200 0.815100
H94 H 0.307500 0.934300 0.753000
H95 H 0.348700 0.264300 0.836000
H96 H 0.433700 0.333100 0.866300
H97 H 0.478000 0.244900 0.850800
H98 H 0.315600 0.867000 0.801300
H99 H 0.213200 0.408200 0.640200
H100 H 0.192200 0.311600 0.649200
H101 H 0.265800 0.339600 0.607000
H102 H 0.734200 0.839600 0.893000
H103 H 0.684400 0.367000 0.698700
H104 H 0.692500 0.434300 0.747000
H105 H 0.631400 0.457200 0.684900
H106 H 0.807800 0.811600 0.850800
H107 H 0.786800 0.908200 0.859800
H108 H 0.641000 0.273000 0.256400
H109 H 0.522000 0.744900 0.649200
H110 H 0.566300 0.833100 0.633700
H111 H 0.651300 0.764300 0.664000
H112 H 0.549300 0.897800 0.854400
H113 H 0.725900 0.798700 0.754400
H114 H 0.026600 0.865500 0.603900
H115 H -0.058300 0.790300 0.601900
H116 H 0.057500 0.788900 0.645600
H117 H -0.012200 0.618100 0.412400
H118 H 1.016000 0.554000 0.211300
H119 H 0.917600 0.552700 0.156600
H120 H 0.026300 0.548200 0.458500
H121 H 0.794500 0.563100 0.209200
H122 H 0.893000 0.564700 0.263900
H123 H -0.084600 0.599200 0.456900
H124 H 0.335000 0.816700 0.496500
H125 H 0.388800 0.768300 0.552400
H126 H 1.076900 0.363200 0.036900
H127 H 0.365700 0.720500 0.494300
H128 H -0.064100 0.694800 0.529900
H129 H 1.297400 0.365500 0.178900
H130 H 0.189300 0.663700 0.455900
H131 H 0.358300 0.983300 0.661000
H132 H 0.888800 0.476600 0.060900
H133 H 0.881200 0.384800 0.035600
H134 H 0.841800 0.402300 0.091900
H135 H 0.437800 0.937300 0.627000
H136 H 1.329400 0.288000 0.093600
H137 H 1.258400 0.325100 0.036900
H138 H 1.345300 0.382800 0.077400
H139 H 0.288600 0.918200 0.558300
H140 H 1.257600 0.406900 0.263200
H141 H 1.161800 0.475000 0.255900
H142 H 1.137000 0.380600 0.269400
H143 H 0.207300 0.947300 0.597300
H144 H 0.021000 0.517800 0.654000
H145 H 0.015400 0.613800 0.669900
H146 H 0.520700 0.423300 0.293300
H147 H 0.021500 0.587900 0.608300
H148 H 0.432400 0.532600 0.586400
H149 H 0.801000 0.401400 0.412500
H150 H 0.378100 0.619800 0.564600
H151 H 0.488400 0.617400 0.612200
H152 H 0.646000 0.418500 0.179100
H153 H 0.529700 0.422200 0.196400
H154 H 0.599300 0.505400 0.195200
H155 H 0.400700 0.494600 0.804800
H156 H 0.511600 0.382600 0.387800
H157 H 0.621900 0.380200 0.435400
H158 H 0.567600 0.467400 0.413600
H159 H 0.470300 0.577800 0.803600
H160 H 0.978500 0.412100 0.391700
H161 H 0.984600 0.386200 0.330100
H162 H 0.979000 0.482200 0.346000
H163 H 0.354000 0.581500 0.820900
H164 H 0.199000 0.598600 0.587500
H165 H 0.479300 0.576700 0.706700
H166 H 0.792700 0.052700 0.402700
H167 H 0.711400 0.081800 0.441700
H168 H -0.137000 0.619400 0.730600
H169 H 0.562200 0.062700 0.373000
H170 H 0.641700 0.016700 0.339000
H171 H -0.161800 0.525000 0.744100
H172 H -0.257600 0.593100 0.736800
H173 H -0.345300 0.617200 0.922600
H174 H 0.810700 0.336300 0.544100
H175 H -0.258400 0.674900 0.963100
H176 H -0.329400 0.712000 0.906400
H177 H 1.064100 0.305200 0.470100
H178 H 0.158200 0.597700 0.908100
H179 H 0.118800 0.615200 0.964400
H180 H 0.634300 0.279500 0.505700
H181 H 0.611200 0.231700 0.447600
H182 H 0.665000 0.183300 0.503500
H183 H 0.111200 0.523400 0.939100
H184 H 1.084600 0.400800 0.543100
H185 H 0.973700 0.451800 0.541500
H186 H 1.012200 0.381900 0.587600
H187 H -0.297400 0.634500 0.821100
H188 H 0.942500 0.211100 0.354400
H189 H 1.058300 0.209700 0.398100
H190 H 0.973400 0.134500 0.396100
H191 H -0.076900 0.636800 0.963100
H192 H 0.107000 0.435300 0.736100
H193 H 0.205500 0.436900 0.790800
H194 H 0.274100 0.201300 0.245600
H195 H 0.082400 0.447300 0.843400
H196 H -0.016000 0.446000 0.788700
H197 H 0.450700 0.102200 0.145600
H198 H 0.359000 0.727000 0.743600
H199 H 0.368600 0.542800 0.315100
H200 H 0.348700 0.235700 0.336000
H201 H 0.433700 0.166900 0.366300
H202 H 0.478000 0.255100 0.350800
H203 H 0.307500 0.565700 0.253000
H204 H 0.213200 0.091800 0.140200
H205 H 0.192200 0.188400 0.149200
H206 H 0.265800 0.160400 0.107000
H207 H 0.315600 0.633000 0.301300
H208 H 0.684400 0.133000 0.198700
H209 H 0.692500 0.065700 0.247000
H210 H 0.631400 0.042800 0.184900
H211 H 0.734200 0.660400 0.393000
H212 H 0.807800 0.688400 0.350800
H213 H 0.359000 0.773000 0.243600
H214 H 0.786800 0.591800 0.359800
H215 H 0.522000 0.755100 0.149200
H216 H 0.566300 0.666900 0.133700
H217 H 0.651300 0.735700 0.164000
H218 H 0.549300 0.602200 0.354400
H219 H 0.725900 0.701300 0.254400
H220 H 0.026600 0.634500 0.103900
H221 H -0.058300 0.709700 0.101900
H222 H 0.057500 0.711100 0.145600
H223 H -0.016000 1.054000 0.288700
H224 H 0.082400 1.052700 0.343400
H225 H -0.012200 0.881900 -0.087600
H226 H 0.205500 1.063100 0.290800
H227 H 0.107000 1.064700 0.236100
H228 H 0.026300 0.951800 -0.041500
H229 H -0.084600 0.900800 -0.043100
H230 H 0.335000 0.683300 -0.003500
H231 H -0.076900 0.863200 0.463100
H232 H 0.388800 0.731700 0.052400
H233 H 0.365700 0.779500 -0.005700
H234 H -0.297400 0.865500 0.321100
H235 H -0.064100 0.805200 0.029900
H236 H 0.189300 0.836300 -0.044100
H237 H 0.111200 0.976600 0.439100
H238 H 0.118800 0.884800 0.464400
H239 H 0.158200 0.902300 0.408100
H240 H 0.358300 0.516700 0.161000
H241 H -0.329400 0.788000 0.406400
H242 H -0.258400 0.825100 0.463100
H243 H -0.345300 0.882800 0.422600
H244 H 0.437800 0.562700 0.127000
H245 H -0.257600 0.906900 0.236800
H246 H -0.161800 0.975000 0.244100
H247 H -0.137000 0.880600 0.230600
H248 H 0.288600 0.581800 0.058300
H249 H 0.207300 0.552700 0.097300
H250 H 0.021000 0.982200 0.154000
H251 H 0.479300 0.923300 0.206700
H252 H 0.015400 0.886200 0.169900
H253 H 0.021500 0.912100 0.108300
H254 H 0.199000 0.901400 0.087500
H255 H 0.432400 0.967400 0.086400
H256 H 0.378100 0.880200 0.064600
H257 H 0.354000 0.918500 0.320900
H258 H 0.470300 0.922200 0.303600
H259 H 0.639400 0.961800 0.574200
H260 H 0.488400 0.882600 0.112200
C261 C 0.418300 0.910500 0.097100
C262 C 0.396000 0.945800 0.296820
C263 C 0.168200 0.923100 0.163520
C264 C 0.046200 0.926100 0.147600
C265 C 0.233700 0.911100 0.125150
C266 C 0.350400 0.912800 0.140450
C267 C 0.401200 0.922800 0.196160
C268 C 0.194100 0.770400 0.239900
C269 C 0.307300 0.702500 0.156590
C270 C 0.271100 0.588300 0.095200
C271 C 0.339500 0.932300 0.237600
C272 C 0.223600 0.931400 0.220350
C273 C 0.370100 0.568500 0.141440
C274 C -0.178600 0.916800 0.250400
C275 C -0.291900 0.837600 0.424300
C276 C 0.180700 0.726700 0.065480
C277 C 0.226100 0.759800 0.023130
C278 C 0.160500 0.813400 -0.014940
C279 C 0.104500 0.917300 0.430100
C280 C 0.054500 0.833700 -0.011000
C281 C 0.010200 0.794200 0.028560
C282 C -0.147200 0.898400 0.310500
C283 C 0.071100 0.738700 0.066680
C284 C 0.338700 0.736600 0.015960
C285 C -0.223600 0.874800 0.340600
C286 C -0.200200 0.864600 0.393800
C287 C -0.093300 0.873900 0.424400
C288 C -0.009600 0.897600 -0.049120
C289 C -0.007500 0.899700 0.398000
C290 C -0.038800 0.907100 0.340700
C291 C 0.137900 1.034500 0.270920
C292 C 0.019800 0.694700 0.108130
C293 C 0.054500 1.027200 0.306620
C294 C 0.101500 0.892200 0.284000
C295 C 0.455900 0.941900 0.461100
C296 C 0.468900 0.647400 0.224400
C297 C 0.568200 0.678700 0.215600
C298 C 0.658100 0.679700 0.259800
C299 C 0.535100 0.920400 0.504700
C300 C 0.652800 0.650300 0.311600
C301 C 0.554200 0.621200 0.318800
C302 C 0.581800 0.977600 0.543900
C303 C 0.460800 0.618300 0.276300
C304 C 0.577800 0.711900 0.161000
C305 C 0.418200 1.022400 0.456100
C306 C 0.544100 1.058100 0.538900
C307 C 0.464900 1.079600 0.495300
C308 C 0.754300 0.647500 0.357800
C309 C 0.455900 -0.058100 0.461100
C310 C 0.535100 -0.079600 0.504700
C311 C 0.581800 -0.022400 0.543900
C312 C 0.353800 0.587200 0.287400
C313 C 0.646200 0.087200 0.212600
C314 C 0.245700 0.147500 0.142200
C315 C 0.422200 0.211900 0.339000
C316 C 0.898500 0.107800 0.716000
C317 C 0.418200 0.022400 0.456100
C318 C 0.539200 0.118300 0.223700
C319 C 0.945500 -0.027200 0.693380
C320 C 0.544100 0.058100 0.538900
C321 C 0.862100 -0.034500 0.729080
C322 C 0.464900 0.079600 0.495300
C323 C 1.038800 0.092900 0.659300
C324 C 1.007500 0.100300 0.602000
C325 C 0.455900 0.558100 0.961100
C326 C 0.101500 0.607800 0.784000
C327 C 0.054500 0.472800 0.806620
C328 C 0.445800 0.121200 0.181200
C329 C 0.347200 0.150300 0.188400
C330 C 0.137900 0.465500 0.770920
C331 C 0.341900 0.179700 0.240200
C332 C 0.431800 0.178700 0.284400
C333 C -0.038800 0.592900 0.840700
C334 C -0.007500 0.600300 0.898000
C335 C -0.093300 0.626100 0.924400
C336 C 0.531100 0.147400 0.275600
C337 C -0.200200 0.635400 0.893800
C338 C -0.223600 0.625200 0.840600
C339 C 0.980200 0.194700 0.391870
C340 C -0.147200 0.601600 0.810500
C341 C 0.104500 0.582700 0.930100
C342 C 1.009600 0.397600 0.549120
C343 C 0.661300 0.236600 0.484040
C344 C 0.928900 0.238700 0.433320
C345 C -0.291900 0.662400 0.924300
C346 C 0.989800 0.294200 0.471440
C347 C 0.945500 0.333700 0.511000
C348 C 0.839500 0.313400 0.514940
C349 C -0.178600 0.583200 0.750400
C350 C 0.773900 0.259800 0.476870
C351 C 0.819300 0.226700 0.434520
C352 C 0.629900 0.068500 0.358560
C353 C 0.223600 0.568600 0.720350
C354 C 0.339500 0.567700 0.737600
C355 C 0.401200 0.577200 0.696160
C356 C 0.728900 0.088300 0.404800
C357 C 0.350400 0.587200 0.640450
C358 C 0.233700 0.588900 0.625150
C359 C 0.692700 0.202500 0.343410
C360 C 0.168200 0.576900 0.663520
C361 C 0.396000 0.554200 0.796820
C362 C 0.805900 0.270400 0.260100
C363 C 0.953800 0.426100 0.352400
C364 C 0.581700 0.410500 0.402900
C365 C 0.418300 0.589500 0.597100
C366 C 0.604000 0.445800 0.203180
C367 C 0.831800 0.423100 0.336480
C368 C 0.766300 0.411100 0.374850
C369 C 0.046200 0.573900 0.647600
C370 C 0.649600 0.412800 0.359550
C371 C 0.598800 0.422800 0.303840
C372 C 0.660500 0.432300 0.262400
C373 C 0.194100 0.729600 0.739900
C374 C 0.307300 0.797500 0.656590
C375 C 0.271100 0.911700 0.595200
C376 C 0.776400 0.431400 0.279650
C377 C 1.178600 0.416800 0.249600
C378 C 0.370100 0.931500 0.641440
C379 C 1.291900 0.337600 0.075700
C380 C 0.895500 0.417300 0.069900
C381 C 0.180700 0.773300 0.565480
C382 C 0.226100 0.740200 0.523130
C383 C 0.160500 0.686600 0.485060
C384 C 1.147200 0.398400 0.189500
C385 C 0.054500 0.666300 0.489000
C386 C 0.010200 0.705800 0.528560
C387 C 1.223600 0.374800 0.159400
C388 C 0.071100 0.761300 0.566680
C389 C 0.338700 0.763400 0.515960
C390 C 1.200200 0.364600 0.106200
C391 C 1.093300 0.373900 0.075600
C392 C 1.007500 0.399700 0.102000
C393 C -0.009600 0.602400 0.450880
C394 C 1.038800 0.407100 0.159300
C395 C 0.862100 0.534500 0.229080
C396 C 0.945500 0.527200 0.193380
C397 C 0.019800 0.805300 0.608130
C398 C 0.898500 0.392200 0.216000
C399 C 1.093300 0.126100 0.575600
C400 C 0.535100 0.579600 1.004700
C401 C 0.468900 0.852600 0.724400
C402 C 0.568200 0.821300 0.715600
C403 C 0.658100 0.820300 0.759800
C404 C 0.581800 0.522400 1.043900
C405 C 0.652800 0.849700 0.811600
C406 C 0.554200 0.878800 0.818800
C407 C 1.200200 0.135400 0.606200
C408 C 0.460800 0.881700 0.776300
C409 C 0.577800 0.788100 0.661000
C410 C 0.418200 0.477600 0.956100
C411 C 1.223600 0.125200 0.659400
C412 C 0.544100 0.441900 1.038900
C413 C 0.754300 0.852500 0.857800
C414 C 1.147200 0.101600 0.689500
C415 C 0.464900 0.420400 0.995300
C416 C 0.646200 0.412800 0.712600
C417 C 0.353800 0.912800 0.787400
C418 C 0.245700 0.352500 0.642200
C419 C 0.422200 0.288100 0.839000
C420 C 0.539200 0.381700 0.723700
C421 C 0.388800 0.086100 0.993900
C422 C 0.445800 0.378800 0.681200
C423 C 0.329400 0.030900 0.955700
C424 C 0.347200 0.349700 0.688400
C425 C 0.254200 0.060300 0.910100
C426 C 0.341900 0.320300 0.740200
C427 C 0.240000 0.145500 0.903400
C428 C 0.431800 0.321300 0.784400
C429 C 0.297200 0.197900 0.941800
C430 C 0.531100 0.352600 0.775600
C431 C 0.371900 0.168200 0.987600
C432 C 0.980200 0.305300 0.891870
C433 C 0.388800 0.413900 0.493900
C434 C 1.009600 0.102400 1.049120
C435 C 0.329400 0.469100 0.455700
C436 C 0.661300 0.263400 0.984040
C437 C 0.254200 0.439700 0.410100
C438 C 0.928900 0.261300 0.933320
C439 C 0.240000 0.354500 0.403400
C440 C 0.989800 0.205800 0.971440
C441 C 0.297200 0.302100 0.441800
C442 C 0.945500 0.166300 1.011000
C443 C 0.371900 0.331800 0.487600
C444 C 0.839500 0.186600 1.014940
C445 C 0.611200 0.913900 0.006100
C446 C 0.773900 0.240200 0.976870
C447 C 0.670600 0.969100 0.044300
C448 C 0.819300 0.273300 0.934520
C449 C 0.745800 0.939700 0.089900
C450 C 0.629900 0.431500 0.858560
C451 C 0.760000 0.854500 0.096600
C452 C 0.728900 0.411700 0.904800
C453 C 0.702800 0.802100 0.058200
C454 C 0.692700 0.297500 0.843410
C455 C 0.628100 0.831800 0.012400
C456 C 0.805900 0.229600 0.760100
C457 C 0.611200 0.586100 0.506100
C458 C 0.953800 0.073900 0.852400
C459 C 0.670600 0.530900 0.544300
C460 C 0.581700 0.089500 0.902900
C461 C 0.745800 0.560300 0.589900
C462 C 0.604000 0.054200 0.703180
C463 C 0.760000 0.645500 0.596600
C464 C 0.831800 0.076900 0.836480
C465 C 0.702800 0.697900 0.558200
C466 C 0.766300 0.088900 0.874850
C467 C 0.628100 0.668200 0.512400
C468 C 0.649600 0.087200 0.859550
C469 C 0.464900 0.420400 -0.004700
C470 C 0.598800 0.077200 0.803840
C471 C 0.544100 0.441900 0.038900
C472 C 0.660500 0.067700 0.762400
C473 C 0.418200 0.477600 -0.043900
C474 C 0.776400 0.068600 0.779650
C475 C 0.581800 0.522400 0.043900
C476 C 0.535100 0.579600 0.004700
C477 C 1.178600 0.083200 0.749600
C478 C 0.455900 0.558100 -0.038900
C479 C 1.291900 0.162400 0.575700
C480 C 0.895500 0.082700 0.569900
N481 N 0.376600 0.641200 0.178060
N482 N 0.249900 0.676700 0.106850
N483 N 0.839900 0.053660 0.740040
N484 N 0.750100 0.323300 0.893150
N485 N 0.623400 0.358800 0.821940
N486 N 0.959100 0.436500 0.188690
N487 N 0.839900 0.446340 0.240040
N488 N 0.750100 0.176700 0.393150
N489 N 0.623400 0.141200 0.321940
N490 N 0.376600 0.858800 0.678060
N491 N 0.249900 0.823300 0.606850
N492 N 0.160100 0.553660 0.759960
N493 N 0.040900 0.563500 0.811310
N494 N 0.959100 0.063500 0.688690
N495 N 0.040900 0.936500 0.311310
N496 N 0.160100 0.946340 0.259960
Cl497 Cl 0.736610 0.213570 0.635170
Cl498 Cl 0.263390 0.713570 0.864830
Cl499 Cl 0.896550 0.373530 0.679450
Cl500 Cl 0.103450 0.873530 0.820550
Cl501 Cl 1.058870 0.240440 0.271090
Cl502 Cl 0.263390 0.786430 0.364830
Cl503 Cl 0.896550 0.126470 0.179450
Cl504 Cl 0.736610 0.286430 0.135170
Cl505 Cl 0.103450 0.626470 0.320550
Cl506 Cl -0.058870 0.759560 0.728910
Cl507 Cl -0.058870 0.740440 0.228910
Cl508 Cl 1.058870 0.259560 0.771090
Ru509 Ru 0.115300 0.766500 0.287694
Ru510 Ru 0.115300 0.733500 0.787694
Ru511 Ru 0.713040 0.312190 0.303793
Ru512 Ru 0.286960 0.687810 0.696207
Ru513 Ru 0.286960 0.812190 0.196207
Ru514 Ru 0.884700 0.266500 0.212306
Ru515 Ru 0.713040 0.187810 0.803793
Ru516 Ru 0.884700 0.233500 0.712306

#END
