
#######################################################################
#
#                 Cambridge Crystallographic Data Centre
#                                CCDC 
#
#######################################################################
#
# If this CIF has been generated from an entry in the Cambridge 
# Structural Database, then it will include bibliographic, chemical, 
# crystal, experimental, refinement or atomic coordinate data resulting 
# from the CCDC's data processing and validation procedures.
#
#######################################################################

data_ABAGIW
_symmetry_cell_setting           monoclinic
_symmetry_space_group_name_H-M   'P 21/n'
_symmetry_Int_Tables_number      14
_space_group_name_Hall           '-P 2yn'
loop_
_symmetry_equiv_pos_site_id
_symmetry_equiv_pos_as_xyz
1 x,y,z
2 1/2-x,1/2+y,1/2-z
3 -x,-y,-z
4 1/2+x,1/2-y,1/2+z
_cell_length_a                   8.552(8)
_cell_length_b                   5.459(5)
_cell_length_c                   19.337(19)
_cell_angle_alpha                90
_cell_angle_beta                 90.668(11)
_cell_angle_gamma                90
_cell_volume                     902.694
loop_
_atom_site_label
_atom_site_type_symbol
_atom_site_fract_x
_atom_site_fract_y
_atom_site_fract_z
O1 O 0.70294(10) -0.11376(16) 0.10190(5)
O2 O 0.35686(10) 0.40276(16) 0.06384(5)
N1 N 0.64539(12) 0.21220(19) 0.04034(5)
H1 H 0.5905 0.3385 0.0256
C1 C -0.09269(14) 0.2337(2) 0.21941(6)
H2 H -0.1894 0.2341 0.2431
C2 C -0.05947(15) 0.4170(2) 0.17224(6)
H3 H -0.1335 0.5433 0.1635
C3 C 0.08193(14) 0.4164(2) 0.13764(6)
H4 H 0.1040 0.5433 0.1056
C4 C 0.19170(13) 0.2325(2) 0.14926(6)
C5 C 0.34255(13) 0.2413(2) 0.10940(6)
C6 C 0.45823(14) 0.0648(2) 0.12443(6)
H5 H 0.4406 -0.0530 0.1596
C7 C 0.59686(13) 0.0610(2) 0.08859(6)
C8 C 0.79780(13) 0.1499(2) 0.01406(6)
H6 H 0.8749 0.2817 0.0231
H7 H 0.7936 0.1145 -0.0361
C9 C 0.83503(14) -0.0803(2) 0.05628(6)
H8 H 0.8471 -0.2239 0.0255
H9 H 0.9329 -0.0582 0.0834
C10 C 0.01547(14) 0.0501(2) 0.23193(6)
H10 H -0.0068 -0.0752 0.2644
C11 C 0.15649(14) 0.0487(2) 0.19706(6)
H11 H 0.2299 -0.0785 0.2058
O1 O -0.20294(10) 0.38624(16) 0.39810(5)
O2 O 0.14314(10) 0.90276(16) 0.43616(5)
N1 N -0.14539(12) 0.71220(19) 0.45966(5)
H1 H -0.0905 0.8385 0.4744
C1 C 0.59269(14) 0.7337(2) 0.28059(6)
H2 H 0.6894 0.7341 0.2569
C2 C 0.55947(15) 0.9170(2) 0.32776(6)
H3 H 0.6335 1.0433 0.3365
C3 C 0.41807(14) 0.9164(2) 0.36236(6)
H4 H 0.3960 1.0433 0.3944
C4 C 0.30830(13) 0.7325(2) 0.35074(6)
C5 C 0.15745(13) 0.7413(2) 0.39060(6)
C6 C 0.04177(14) 0.5648(2) 0.37557(6)
H5 H 0.0594 0.4470 0.3404
C7 C -0.09686(13) 0.5610(2) 0.41141(6)
C8 C -0.29780(13) 0.6499(2) 0.48594(6)
H6 H -0.3749 0.7817 0.4769
H7 H -0.2936 0.6145 0.5361
C9 C -0.33503(14) 0.4197(2) 0.44372(6)
H8 H -0.3471 0.2761 0.4745
H9 H -0.4329 0.4418 0.4166
C10 C 0.48453(14) 0.5501(2) 0.26807(6)
H10 H 0.5068 0.4248 0.2356
C11 C 0.34351(14) 0.5487(2) 0.30294(6)
H11 H 0.2701 0.4215 0.2942
O1 O 0.29706(10) 1.11376(16) 0.89810(5)
O2 O 0.64314(10) 0.59724(16) 0.93616(5)
N1 N 0.35461(12) 0.78780(19) 0.95966(5)
H1 H 0.4095 0.6615 0.9744
C1 C 1.09269(14) 0.7663(2) 0.78059(6)
H2 H 1.1894 0.7659 0.7569
C2 C 1.05947(15) 0.5830(2) 0.82776(6)
H3 H 1.1335 0.4567 0.8365
C3 C 0.91807(14) 0.5836(2) 0.86236(6)
H4 H 0.8960 0.4567 0.8944
C4 C 0.80830(13) 0.7675(2) 0.85074(6)
C5 C 0.65745(13) 0.7587(2) 0.89060(6)
C6 C 0.54177(14) 0.9352(2) 0.87557(6)
H5 H 0.5594 1.0530 0.8404
C7 C 0.40314(13) 0.9390(2) 0.91141(6)
C8 C 0.20220(13) 0.8501(2) 0.98594(6)
H6 H 0.1251 0.7183 0.9769
H7 H 0.2064 0.8855 1.0361
C9 C 0.16497(14) 1.0803(2) 0.94372(6)
H8 H 0.1529 1.2239 0.9745
H9 H 0.0671 1.0582 0.9166
C10 C 0.98453(14) 0.9499(2) 0.76807(6)
H10 H 1.0068 1.0752 0.7356
C11 C 0.84351(14) 0.9513(2) 0.80294(6)
H11 H 0.7701 1.0785 0.7942
O1 O 1.20294(10) 0.61376(16) 0.60190(5)
O2 O 0.85686(10) 0.09724(16) 0.56384(5)
N1 N 1.14539(12) 0.28780(19) 0.54034(5)
H1 H 1.0905 0.1615 0.5256
C1 C 0.40731(14) 0.2663(2) 0.71941(6)
H2 H 0.3106 0.2659 0.7431
C2 C 0.44053(15) 0.0830(2) 0.67224(6)
H3 H 0.3665 -0.0433 0.6635
C3 C 0.58193(14) 0.0836(2) 0.63764(6)
H4 H 0.6040 -0.0433 0.6056
C4 C 0.69170(13) 0.2675(2) 0.64926(6)
C5 C 0.84255(13) 0.2587(2) 0.60940(6)
C6 C 0.95823(14) 0.4352(2) 0.62443(6)
H5 H 0.9406 0.5530 0.6596
C7 C 1.09686(13) 0.4390(2) 0.58859(6)
C8 C 1.29780(13) 0.3501(2) 0.51406(6)
H6 H 1.3749 0.2183 0.5231
H7 H 1.2936 0.3855 0.4639
C9 C 1.33503(14) 0.5803(2) 0.55628(6)
H8 H 1.3471 0.7239 0.5255
H9 H 1.4329 0.5582 0.5834
C10 C 0.51547(14) 0.4499(2) 0.73193(6)
H10 H 0.4932 0.5752 0.7644
C11 C 0.65649(14) 0.4513(2) 0.69706(6)
H11 H 0.7299 0.5785 0.7058

#END
