./ABAGIV_from_POSCAR.cif_generated_by_CrystalShift
_symmetry_cell_setting triclinic
_symmetry_space_group_name_H-M 'P 1'
loop_
_symmetry_equiv_pos_site_id
_symmetry_equiv_pos_as_xyz
1 x,y,z
_cell_length_a 7.476300
_cell_length_b 25.742000
_cell_length_c 7.656400
_cell_angle_alpha 90.000000
_cell_angle_beta 110.485000
_cell_angle_gamma 90.000000
_cell_volume 1380.332581
loop_
_atom_site_label
_atom_site_type_symbol
_atom_site_fract_x
_atom_site_fract_y
_atom_site_fract_z
H1 H 0.785000 0.502700 1.122000
H2 H 0.640100 0.443300 1.287700
H3 H 0.856300 0.438600 1.311000
H4 H 0.984000 0.568500 1.224200
H5 H 0.779600 0.589800 1.197600
H6 H 0.937600 0.627500 1.181400
H7 H 0.132000 0.128400 0.229000
H8 H 0.666500 0.490300 0.645600
H9 H 0.027500 0.208200 0.103200
H10 H 0.674700 0.555800 0.446100
H11 H -0.049500 0.271600 0.279700
H12 H 0.779100 0.637200 0.558800
H13 H 0.873100 0.653300 0.873100
H14 H 0.077800 0.172200 0.709700
H15 H 0.577800 0.327800 1.209700
H16 H 0.450500 0.228400 0.779700
H17 H 0.527500 0.291800 0.603200
H18 H 0.632000 0.371600 0.729000
H19 H 0.373100 -0.153300 0.373100
H20 H 0.715000 1.002700 0.378000
H21 H 0.279100 -0.137200 0.058800
H22 H 0.757800 0.889100 0.170100
H23 H 0.174700 -0.055800 -0.053900
H24 H 0.859900 0.943300 0.212300
H25 H 0.166500 0.009700 0.145600
H26 H 0.643700 0.938600 0.189000
H27 H 0.516000 1.068500 0.275800
H28 H 0.437600 -0.127500 0.681400
H29 H 0.279600 -0.089800 0.697600
H30 H 0.484000 -0.068500 0.724200
H31 H 0.720400 1.089800 0.302400
H32 H 0.356300 0.061400 0.811000
H33 H 0.140100 0.056700 0.787700
H34 H 0.242200 0.110900 0.829900
H35 H 0.285000 -0.002700 0.622000
H36 H 0.562400 1.127500 0.318600
H37 H 0.833500 0.990300 0.854400
H38 H 0.825300 1.055800 1.053900
H39 H 0.720900 1.137200 0.941200
H40 H 0.626900 1.153300 0.626900
H41 H 0.922200 0.827800 0.290300
H42 H 0.368000 0.628400 0.271000
H43 H 1.049500 0.728400 0.720300
H44 H 0.472500 0.708200 0.396800
H45 H 0.972500 0.791800 0.896800
H46 H 0.549500 0.771600 0.220300
H47 H 0.868000 0.871600 0.771000
H48 H 0.215000 0.497300 -0.122000
H49 H 0.422200 0.672200 -0.209700
H50 H 0.257800 0.610900 -0.329900
H51 H 0.359900 0.556700 -0.287700
H52 H 0.143700 0.561400 -0.311000
H53 H 0.016000 0.431500 -0.224200
H54 H 0.126900 0.346700 0.126900
H55 H 0.220400 0.410200 -0.197600
H56 H 0.220900 0.362800 0.441200
H57 H 0.062400 0.372500 -0.181400
H58 H 0.325300 0.444200 0.553900
H59 H 0.333500 0.509700 0.354400
H60 H 0.742200 0.389100 1.329900
C61 C 0.239600 0.467350 0.117700
C62 C 0.112800 0.407100 -0.157300
C63 C 0.287000 0.437670 0.426600
C64 C 0.225200 0.389200 0.359900
C65 C 0.169300 0.379790 0.171400
C66 C 0.265500 0.578450 -0.265800
C67 C 0.174400 0.418030 0.046200
C68 C 0.320400 0.588320 -0.061500
C69 C 0.385300 0.640590 0.017400
C70 C 0.431600 0.678830 -0.087400
C71 C 0.734500 0.421550 1.265800
C72 C 0.099500 0.153200 0.301100
C73 C 0.887200 0.592900 1.157300
C74 C 0.760400 0.532650 0.882300
C75 C 0.038000 0.201210 0.225500
C76 C 0.900500 0.846800 0.698900
C77 C 0.491400 0.726730 -0.008400
C78 C 0.962000 0.798790 0.774500
C79 C 0.508200 0.738880 0.170700
C80 C 1.008200 0.761120 0.670700
C81 C 0.462000 0.701210 0.274500
C82 C 0.991400 0.773270 0.491600
C83 C 0.931600 0.821170 0.412600
C84 C 0.400500 0.653200 0.198900
C85 C 0.885300 0.859410 0.517400
C86 C 0.820400 0.911680 0.438500
C87 C 0.674400 1.081970 0.546200
C88 C 0.669300 1.120210 0.671400
C89 C 0.706800 0.523310 0.692300
C90 C 0.725200 1.110800 0.859900
C91 C -0.008200 0.238880 0.329300
C92 C 0.787000 1.062330 0.926600
C93 C 0.713000 0.562330 0.573400
C94 C 0.793200 1.023310 0.807700
C95 C 0.008600 0.226730 0.508400
C96 C 0.739600 1.032650 0.617700
C97 C 0.612800 1.092900 0.342700
C98 C 0.774800 0.610800 0.640100
C99 C 0.234500 0.078450 0.765800
C100 C 0.387200 -0.092900 0.657300
C101 C 0.765500 0.921550 0.234200
C102 C 0.260400 -0.032650 0.382300
C103 C 0.206800 -0.023310 0.192300
C104 C 0.213000 -0.062330 0.073400
C105 C 0.274800 -0.110800 0.140100
C106 C 0.068400 0.178830 0.587400
C107 C 0.830700 0.620210 0.828600
C108 C 0.825600 0.581970 0.953800
C109 C 0.679600 0.411680 1.061500
C110 C 0.614700 0.359410 0.982600
C111 C 0.599500 0.346800 0.801100
C112 C 0.330700 -0.120210 0.328600
C113 C 0.538000 0.298790 0.725500
C114 C 0.325600 -0.081970 0.453800
C115 C 0.491800 0.261120 0.829300
C116 C 0.179600 0.088320 0.561500
C117 C 0.508600 0.273270 1.008400
C118 C 0.568400 0.321170 1.087400
C119 C 0.114700 0.140590 0.482600
C120 C 0.293200 0.476690 0.307700
N121 N 0.685700 0.446150 0.942000
N122 N 0.748500 0.494420 1.005700
N123 N 0.248500 0.005580 0.505700
N124 N 0.185700 0.053850 0.442000
N125 N -0.037300 0.266790 0.623200
N126 N 0.751500 0.994420 0.494300
N127 N 0.251500 0.505580 -0.005700
N128 N 0.314300 0.553850 0.058000
N129 N 0.537300 0.766790 -0.123200
N130 N 1.037300 0.733210 0.376800
N131 N 0.814300 0.946150 0.558000
N132 N 0.462700 0.233210 1.123200
O133 O 0.510500 0.757610 -0.285100
O134 O 0.489500 0.242390 1.285100
O135 O 1.010500 0.742390 0.214900
O136 O 0.400200 0.191740 1.049500
O137 O -0.099800 0.308260 0.549500
O138 O 1.099800 0.691740 0.450500
O139 O 0.599800 0.808260 -0.049500
O140 O -0.010500 0.257610 0.785100

#END
