./ABAGER_from_POSCAR.cif_generated_by_CrystalShift
_symmetry_cell_setting triclinic
_symmetry_space_group_name_H-M 'P 1'
loop_
_symmetry_equiv_pos_site_id
_symmetry_equiv_pos_as_xyz
1 x,y,z
_cell_length_a 7.958000
_cell_length_b 31.635000
_cell_length_c 9.185000
_cell_angle_alpha 90.000000
_cell_angle_beta 97.290000
_cell_angle_gamma 90.000000
_cell_volume 2293.644440
loop_
_atom_site_label
_atom_site_type_symbol
_atom_site_fract_x
_atom_site_fract_y
_atom_site_fract_z
H1 H 0.029000 0.338000 0.840700
H2 H 0.851400 0.628000 0.551700
H3 H 0.558400 0.762600 0.432500
H4 H 0.652700 0.830900 0.481300
H5 H 0.767900 0.827900 0.354600
H6 H 0.338900 0.612100 0.975700
H7 H 0.935500 0.559500 0.510000
H8 H 0.281100 0.806600 0.090500
H9 H 0.392800 0.824000 -0.306800
H10 H 0.301400 0.933600 0.030700
H11 H 0.390400 0.565600 1.168400
H12 H 0.486700 0.935500 -0.010100
H13 H 0.265700 0.722900 0.348500
H14 H 0.450700 0.948200 0.148000
H15 H 0.804500 0.975900 0.505400
H16 H 0.804500 0.524100 1.005400
H17 H 0.265700 0.777100 -0.151500
H18 H 0.390400 0.934400 0.668400
H19 H 0.338900 0.887900 0.475700
H20 H 0.801300 0.765800 0.601400
H21 H 0.915200 0.766100 0.474600
H22 H 0.450700 0.551800 0.648000
H23 H 0.486700 0.564500 0.489900
H24 H 0.301400 0.566400 0.530700
H25 H 0.148600 0.128000 -0.051700
H26 H 0.392800 0.676000 0.193200
H27 H 0.064500 0.059500 -0.010000
H28 H 0.281100 0.693400 0.590500
H29 H -0.053800 0.093800 0.382800
H30 H 0.767900 0.672100 0.854600
H31 H 0.652700 0.669100 0.981300
H32 H 0.029000 0.162000 0.340700
H33 H 0.558400 0.737400 0.932500
H34 H 0.668100 0.740500 0.802800
H35 H 0.086500 0.199800 -0.089500
H36 H 0.801300 0.734200 1.101400
H37 H 0.915200 0.733900 0.974600
H38 H 0.281400 0.195900 -0.034200
H39 H 0.718600 0.804100 1.034200
H40 H 0.913500 0.800200 1.089500
H41 H 0.084800 0.266100 0.025400
H42 H 0.198700 0.265800 -0.101400
H43 H 0.971000 0.838000 0.659300
H44 H 0.331900 0.259500 0.197200
H45 H 1.053800 0.906200 0.617200
H46 H 0.441600 0.262600 0.067500
H47 H 0.347300 0.330900 0.018700
H48 H 0.935500 0.940500 1.010000
H49 H 0.232100 0.327900 0.145400
H50 H 0.851400 0.872000 1.051700
H51 H 0.718900 0.306600 0.409500
H52 H 0.607200 0.324000 0.806800
H53 H 0.698600 0.433600 0.469300
H54 H 1.053800 0.593800 0.117200
H55 H 0.513300 0.435500 0.510100
H56 H 0.661100 0.112100 0.524300
H57 H 0.549300 0.448200 0.352000
H58 H 0.971000 0.662000 0.159300
H59 H 0.195500 0.475900 -0.005400
H60 H 0.734300 0.277100 0.651500
H61 H 0.609600 0.065600 0.331600
H62 H 0.609600 0.434400 -0.168400
H63 H 0.734300 0.222900 1.151500
H64 H 0.718600 0.695900 0.534200
H65 H 0.913500 0.699800 0.589500
H66 H 0.195500 0.024100 0.494600
H67 H 0.661100 0.387900 0.024300
H68 H 0.148600 0.372000 0.448300
H69 H 0.064500 0.440500 0.490000
H70 H -0.053800 0.406200 0.882800
H71 H 0.668100 0.759500 0.302800
H72 H 0.549300 0.051800 0.852000
H73 H 0.513300 0.064500 1.010100
H74 H 0.698600 0.066400 0.969300
H75 H 0.086500 0.300200 0.410500
H76 H 0.607200 0.176000 1.306800
H77 H 0.281400 0.304100 0.465800
H78 H 0.718900 0.193400 0.909500
H79 H 0.084800 0.233900 0.525400
H80 H 0.232100 0.172100 0.645400
H81 H 0.347300 0.169100 0.518700
H82 H 0.198700 0.234200 0.398600
H83 H 0.441600 0.237400 0.567500
H84 H 0.331900 0.240500 0.697200
C85 C 0.189000 0.245050 0.496000
C86 C 0.336500 0.228300 0.600900
C87 C 0.337200 0.181740 0.613400
C88 C 0.175400 0.291960 0.487500
C89 C 0.677800 0.181900 0.991200
C90 C 0.615300 0.171620 1.207800
C91 C 0.094900 0.347980 0.639700
C92 C 0.035800 0.358650 0.769500
C93 C 0.581100 0.070500 0.933200
C94 C -0.013300 0.399340 0.795100
C95 C 0.553800 0.114700 0.884700
C96 C -0.002000 0.430060 0.689200
C97 C 0.057300 0.419860 0.560900
C98 C 0.494300 0.127260 0.750100
C99 C 0.107100 0.378740 0.535600
C100 C 0.460100 0.097160 0.626700
C101 C 0.663500 0.771700 0.399100
C102 C 0.964200 0.641350 0.230500
C103 C 0.892900 0.621260 0.464400
C104 C 0.433100 0.594490 0.981400
C105 C 0.566900 0.405510 0.018600
C106 C 0.325200 0.070530 0.612300
C107 C 0.905100 0.652020 0.360300
C108 C 0.289400 0.041830 0.500400
C109 C 0.400700 0.040840 0.397300
C110 C 0.537500 0.433310 -0.096400
C111 C 0.662800 0.818260 0.386600
C112 C 0.942700 0.580140 0.439100
C113 C 0.537500 0.066690 0.403600
C114 C 0.400700 0.459160 -0.102700
C115 C 0.289400 0.458170 0.000400
C116 C 0.322200 0.818100 0.008800
C117 C 0.325200 0.429470 0.112300
C118 C 0.460100 0.402840 0.126700
C119 C 0.494300 0.372740 0.250100
C120 C 0.553800 0.385300 0.384700
C121 C 0.581100 0.429500 0.433200
C122 C 1.013300 0.600660 0.204900
C123 C 0.566900 0.094490 0.518600
C124 C 0.384700 0.828380 -0.207800
C125 C 0.615300 0.328380 0.707800
C126 C 1.002000 0.569940 0.310800
C127 C 0.677800 0.318100 0.491200
C128 C 0.462500 0.566690 1.096400
C129 C 0.337200 0.318260 0.113400
C130 C 0.892900 0.878740 0.964400
C131 C 0.942700 0.919860 0.939100
C132 C 0.336500 0.271700 0.100900
C133 C 1.002000 0.930060 0.810800
C134 C 1.013300 0.899340 0.704900
C135 C 0.189000 0.254950 -0.004000
C136 C 0.964200 0.858650 0.730500
C137 C 0.905100 0.847980 0.860300
C138 C 0.175400 0.208040 -0.012500
C139 C 0.824600 0.791960 1.012500
C140 C 0.811000 0.745050 1.004000
C141 C 0.094900 0.152020 0.139700
C142 C 0.035800 0.141350 0.269500
C143 C 0.663500 0.728300 0.899100
C144 C -0.013300 0.100660 0.295100
C145 C 0.662800 0.681740 0.886600
C146 C -0.002000 0.069940 0.189200
C147 C 0.057300 0.080140 0.060900
C148 C 0.322200 0.681900 0.508800
C149 C 0.107100 0.121260 0.035600
C150 C 0.384700 0.671620 0.292200
C151 C 0.824600 0.708040 0.512500
C152 C 0.418900 0.570500 0.566800
C153 C 0.599300 0.540840 1.102700
C154 C 0.446200 0.614700 0.615300
C155 C 0.433100 0.905510 0.481400
C156 C 0.505700 0.627260 0.749900
C157 C 0.811000 0.754950 0.504000
C158 C 0.418900 0.929500 0.066800
C159 C 0.446200 0.885300 0.115300
C160 C 0.462500 0.933310 0.596400
C161 C 0.539900 0.597160 0.873300
C162 C 0.505700 0.872740 0.249900
C163 C 0.674800 0.570530 0.887700
C164 C 0.599300 0.959160 0.602700
C165 C 0.710600 0.958170 0.499600
C166 C 0.710600 0.541830 0.999600
C167 C 0.674800 0.929470 0.387700
C168 C 0.539900 0.902840 0.373300
N169 N 0.311100 0.800970 -0.124400
N170 N 0.443300 0.861590 -0.136200
N171 N 0.816400 0.299470 0.122300
N172 N 0.402300 0.854280 0.003400
N173 N 0.311100 0.699030 0.375600
N174 N 0.183600 0.700530 0.877700
N175 N 0.597700 0.145720 0.996600
N176 N 0.443300 0.638410 0.363800
N177 N 0.556700 0.138410 1.136200
N178 N 0.688900 0.300970 0.624400
N179 N 0.688900 0.199030 1.124400
N180 N 0.816400 0.200530 0.622300
N181 N 0.597700 0.354280 0.496600
N182 N 0.183600 0.799470 0.377700
N183 N 0.402300 0.645720 0.503400
N184 N 0.556700 0.361590 0.636200
O185 O 0.863100 0.693400 0.373200
O186 O 0.875600 0.334340 0.149000
O187 O 0.520800 0.830750 0.281200
O188 O 0.752400 0.288010 -0.001800
O189 O 0.178100 0.727920 0.774700
O190 O 0.821900 0.272080 0.225300
O191 O 0.136900 0.193400 0.126800
O192 O 0.479200 0.330750 0.218800
O193 O 0.752400 0.211990 0.498200
O194 O 0.136900 0.306600 0.626800
O195 O 0.821900 0.227920 0.725300
O196 O 0.479200 0.169250 0.718800
O197 O 0.124400 0.665660 0.851000
O198 O 0.863100 0.806600 0.873200
O199 O 0.247600 0.711990 1.001800
O200 O 0.520800 0.669250 0.781200
O201 O 0.875600 0.165660 0.649000
O202 O 0.124400 0.834340 0.351000
O203 O 0.247600 0.788010 0.501800
O204 O 0.178100 0.772080 0.274700
F205 F 0.786700 0.927800 0.285800
F206 F 0.628600 0.986900 0.714600
F207 F 0.628600 0.513100 1.214600
F208 F 0.213300 0.427800 0.214200
F209 F 0.371400 0.486900 -0.214600
F210 F 0.786700 0.572200 0.785800
F211 F 0.213300 0.072200 0.714200
F212 F 0.371400 0.013100 0.285400
Cl213 Cl -0.067950 0.018830 0.218710
Cl214 Cl 1.067950 0.518830 0.281290
Cl215 Cl 1.067950 0.981170 0.781290
Cl216 Cl -0.067950 0.481170 0.718710

#END
