./ABAHUI_from_POSCAR.cif_generated_by_CrystalShift
_symmetry_cell_setting triclinic
_symmetry_space_group_name_H-M 'P 1'
loop_
_symmetry_equiv_pos_site_id
_symmetry_equiv_pos_as_xyz
1 x,y,z
_cell_length_a 5.779600
_cell_length_b 7.469100
_cell_length_c 16.984200
_cell_angle_alpha 77.956000
_cell_angle_beta 89.394000
_cell_angle_gamma 72.547000
_cell_volume 682.968066
loop_
_atom_site_label
_atom_site_type_symbol
_atom_site_fract_x
_atom_site_fract_y
_atom_site_fract_z
H1 H 0.483000 0.659000 0.893300
H2 H -0.492000 1.235700 0.638400
H3 H -0.394900 1.373900 0.573400
H4 H 1.268300 0.403700 0.887100
H5 H 1.185300 0.233700 0.869500
H6 H 1.184700 0.268500 0.957400
H7 H 0.745500 0.936200 0.539100
H8 H 0.750500 0.042600 0.292700
H9 H 0.686800 0.756700 0.520800
H10 H 0.901000 0.821200 0.479300
H11 H 1.412900 -0.209300 0.220800
H12 H 1.047500 0.557100 0.585900
H13 H 1.294300 -0.030500 0.091500
H14 H 1.116600 0.735900 0.601400
H15 H 0.910700 0.189000 0.061700
H16 H 0.089300 0.811000 0.938300
H17 H -0.294300 1.030500 0.908500
H18 H -0.412900 1.209300 0.779200
H19 H 0.249500 0.957400 0.707300
H20 H -0.116600 0.264100 0.398600
H21 H -0.047500 0.442900 0.414100
H22 H 0.517000 0.341000 0.106700
H23 H 0.099000 0.178800 0.520700
H24 H 0.313200 0.243300 0.479200
H25 H 0.254500 0.063800 0.460900
H26 H 1.429700 -0.409600 0.338900
H27 H 1.492000 -0.235700 0.361600
H28 H -0.184700 0.731500 0.042600
H29 H -0.185300 0.766300 0.130500
H30 H -0.268300 0.596300 0.112900
H31 H 1.394900 -0.373900 0.426600
H32 H -0.429700 1.409600 0.661100
C33 C -0.158000 0.670300 0.098750
C34 C 0.098400 0.540200 0.114760
C35 C 0.185700 0.189100 0.472260
C36 C -0.384300 1.313100 0.629490
C37 C 1.158000 0.329700 0.901250
C38 C 0.901600 0.459800 0.885240
C39 C 0.860600 0.029300 0.252330
C40 C 1.093100 -0.098100 0.269170
C41 C 1.257800 -0.122500 0.209270
C42 C 0.139400 0.970700 0.747670
C43 C 0.017500 0.313900 0.404680
C44 C -0.093100 1.098100 0.730830
C45 C -0.257800 1.122500 0.790730
C46 C 0.035300 0.426200 0.265100
C47 C -0.185700 1.014800 0.867870
C48 C 0.188800 0.419680 0.194920
C49 C 0.044000 0.883800 0.886270
C50 C 0.795000 0.136070 0.174890
C51 C 0.205000 0.863930 0.825110
C52 C 0.811200 0.580320 0.805080
C53 C 0.964700 0.573800 0.734900
C54 C 0.982500 0.686100 0.595320
C55 C 0.956000 0.116200 0.113730
C56 C 1.185700 -0.014800 0.132130
C57 C 0.814300 0.810900 0.527740
C58 C 1.384300 -0.313100 0.370510
N59 N 0.436800 0.728920 0.844870
N60 N 0.563200 0.271080 0.155130
N61 N 0.408200 0.296460 0.211100
N62 N 0.591800 0.703540 0.788900
O63 O 1.175500 0.481900 0.737390
O64 O -0.175500 0.518100 0.262610
O65 O 0.844400 0.684000 0.666820
O66 O 0.237100 0.534200 0.059380
O67 O 1.142900 -0.195200 0.347500
O68 O 0.762900 0.465800 0.940620
O69 O -0.142900 1.195200 0.652500
O70 O 0.155600 0.316000 0.333180

#END
