./ABAJIY_from_POSCAR.cif_generated_by_CrystalShift
_symmetry_cell_setting triclinic
_symmetry_space_group_name_H-M 'P 1'
loop_
_symmetry_equiv_pos_site_id
_symmetry_equiv_pos_as_xyz
1 x,y,z
_cell_length_a 10.523800
_cell_length_b 12.228900
_cell_length_c 15.050400
_cell_angle_alpha 90.000000
_cell_angle_beta 111.340000
_cell_angle_gamma 90.000000
_cell_volume 1804.104525
loop_
_atom_site_label
_atom_site_type_symbol
_atom_site_fract_x
_atom_site_fract_y
_atom_site_fract_z
H1 H 0.101800 0.609500 0.379500
H2 H 0.239600 0.546700 0.440100
H3 H -0.280000 0.319500 0.411700
H4 H -0.337600 0.327400 0.297700
H5 H -0.299200 0.436400 0.360600
H6 H 0.044100 0.077300 0.341400
H7 H 0.209400 0.259000 0.551900
H8 H 0.196900 0.121100 0.392100
H9 H 0.391600 0.378000 0.594400
H10 H 0.125000 0.125900 0.278400
H11 H 0.728700 0.095400 0.659000
H12 H 0.580400 0.475500 0.717800
H13 H 0.569800 0.105600 0.595500
H14 H 0.707700 0.508100 0.875200
H15 H 0.672900 0.201100 0.593700
H16 H 0.058300 0.383000 0.028100
H17 H 0.480900 0.291500 0.958400
H18 H -0.053300 0.401400 0.075900
H19 H -0.006700 0.280100 0.061800
H20 H -0.086700 0.514600 0.378800
H21 H -0.129200 0.189800 0.338900
H22 H 0.480900 0.208500 0.458400
H23 H -0.129200 0.310200 0.838900
H24 H 0.707700 -0.008100 0.375200
H25 H 0.580400 0.024500 0.217800
H26 H -0.086700 -0.014600 0.878800
H27 H 0.391600 0.122000 0.094400
H28 H 0.209400 0.241000 0.051900
H29 H -0.006700 0.219900 0.561800
H30 H -0.053300 0.098600 0.575900
H31 H 0.058300 0.117000 0.528100
H32 H 0.898200 1.109500 0.120500
H33 H 0.672900 0.298900 1.093700
H34 H 0.569800 0.394400 1.095500
H35 H 0.728700 0.404600 1.159000
H36 H 0.807300 1.054400 0.173500
H37 H 0.125000 0.374100 0.778400
H38 H 0.196900 0.378900 0.892100
H39 H 0.044100 0.422700 0.841400
H40 H 0.760400 1.046700 0.059900
H41 H -0.299200 0.063600 0.860600
H42 H -0.337600 0.172600 0.797700
H43 H -0.280000 0.180500 0.911700
H44 H 1.280000 0.819500 0.088300
H45 H 0.239600 -0.046700 0.940100
H46 H 0.192700 -0.054400 0.826500
H47 H 0.101800 -0.109500 0.879500
H48 H 1.337600 0.827400 0.202300
H49 H 1.299200 0.936400 0.139400
H50 H 0.955900 0.577300 0.158600
H51 H 0.803100 0.621100 0.107900
H52 H 0.875000 0.625900 0.221600
H53 H 0.271300 0.595400 -0.159000
H54 H 0.790600 0.759000 0.948100
H55 H 0.430200 0.605600 -0.095500
H56 H 0.608400 0.878000 0.905600
H57 H 0.327100 0.701100 -0.093700
H58 H 0.941700 0.883000 0.471900
H59 H 0.419600 0.975500 0.782200
H60 H 1.053300 0.901400 0.424100
H61 H 0.292300 1.008100 0.624800
H62 H 1.006700 0.780100 0.438200
H63 H 1.086700 1.014600 0.121200
H64 H 0.519100 0.791500 0.541600
H65 H 1.129200 0.689800 0.161100
H66 H 0.519100 0.708500 0.041600
H67 H 0.292300 0.491900 0.124800
H68 H 0.419600 0.524500 0.282200
H69 H 0.608400 0.622000 0.405600
H70 H 1.129200 0.810200 0.661100
H71 H 0.790600 0.741000 0.448100
H72 H 0.898200 0.390500 0.620500
H73 H 1.086700 0.485400 0.621200
H74 H 0.807300 0.445600 0.673500
H75 H 0.760400 0.453300 0.559900
H76 H 1.006700 0.719900 0.938200
H77 H 1.053300 0.598600 0.924100
H78 H 0.941700 0.617000 0.971900
H79 H 1.280000 0.680500 0.588300
H80 H 0.327100 0.798900 0.406300
H81 H 0.430200 0.894400 0.404500
H82 H 0.271300 0.904600 0.341000
H83 H 1.337600 0.672600 0.702300
H84 H 0.875000 0.874100 0.721600
H85 H 0.803100 0.878900 0.607900
H86 H 0.955900 0.922700 0.658600
H87 H 1.299200 0.563600 0.639400
H88 H 0.192700 0.554400 0.326500
C89 C 0.889690 0.867530 0.661110
C90 C 0.337570 0.878100 0.401590
C91 C 0.839050 0.452550 0.620140
C92 C 0.976330 0.644000 0.923720
C93 C 0.918200 0.557830 0.630010
C94 C 1.050420 0.553970 0.629970
C95 C 0.160950 0.547450 0.379860
C96 C 0.309750 0.228900 0.784440
C97 C 0.232190 0.214170 0.688810
C98 C 0.690250 0.771100 0.215560
C99 C 0.767810 0.785830 0.311190
C100 C 0.736960 0.729620 0.382680
C101 C 1.130860 0.646370 0.642250
C102 C 0.629610 0.658870 0.357170
C103 C 1.075510 0.745890 0.653460
C104 C 0.549320 0.638990 0.260910
C105 C 0.440350 0.562490 0.234080
C106 C 0.943880 0.754780 0.653830
C107 C 0.365580 0.542650 0.141300
C108 C 0.864970 0.659460 0.642840
C109 C 0.396270 0.597270 0.068930
C110 C 0.499860 0.672230 0.091140
C111 C 0.721920 0.664880 0.641210
C112 C 0.578660 0.695830 0.188070
C113 C 0.721920 0.835120 0.141210
C114 C 0.864970 0.840540 0.142840
C115 C 0.943880 0.745220 0.153830
C116 C 1.075510 0.754110 0.153460
C117 C 0.578660 0.804170 0.688070
C118 C 1.130860 0.853630 0.142250
C119 C 1.050420 0.946030 0.129970
C120 C 0.499860 0.827770 0.591140
C121 C 0.918200 0.942170 0.130010
C122 C 0.976330 0.856000 0.423720
C123 C 0.396270 0.902730 0.568930
C124 C 0.365580 0.957350 0.641300
C125 C 0.440350 0.937510 0.734080
C126 C 0.337570 0.621900 -0.098410
C127 C 0.549320 0.861010 0.760910
C128 C 0.629610 0.841130 0.857170
C129 C 0.736960 0.770380 0.882680
C130 C 0.889690 0.632470 0.161110
C131 C 0.767810 0.714170 0.811190
C132 C 0.690250 0.728900 0.715560
C133 C -0.274490 0.359790 0.356860
C134 C 1.274490 0.859790 0.143140
C135 C 0.263040 0.270380 0.617320
C136 C 0.370390 0.341130 0.642830
C137 C 0.160950 -0.047450 0.879860
C138 C 0.839050 1.047450 0.120140
C139 C -0.274490 0.140210 0.856860
C140 C 0.110310 0.367530 0.838890
C141 C 0.662430 0.378100 1.098410
C142 C 0.450680 0.361010 0.739090
C143 C 0.110310 0.132470 0.338890
C144 C 0.559650 0.437510 0.765920
C145 C 0.309750 0.271100 0.284440
C146 C 0.232190 0.285830 0.188810
C147 C 0.263040 0.229620 0.117320
C148 C 0.023670 0.144000 0.576280
C149 C 0.370390 0.158870 0.142830
C150 C 0.081800 0.057830 0.869990
C151 C 0.450680 0.138990 0.239090
C152 C 0.559650 0.062490 0.265920
C153 C -0.050420 0.053970 0.870030
C154 C 0.634420 0.042650 0.358700
C155 C -0.130860 0.146370 0.857750
C156 C 0.603730 0.097270 0.431070
C157 C 0.500140 0.172230 0.408860
C158 C -0.075510 0.245890 0.846540
C159 C 0.421340 0.195830 0.311930
C160 C 0.278080 0.335120 0.358790
C161 C 0.135030 0.340540 0.357160
C162 C 0.056120 0.245220 0.346170
C163 C -0.075510 0.254110 0.346540
C164 C 0.056120 0.254780 0.846170
C165 C -0.130860 0.353630 0.357750
C166 C -0.050420 0.446030 0.370030
C167 C 0.135030 0.159460 0.857160
C168 C 0.081800 0.442170 0.369990
C169 C 0.023670 0.356000 0.076280
C170 C 0.278080 0.164880 0.858790
C171 C 0.421340 0.304170 0.811930
C172 C 0.500140 0.327770 0.908860
C173 C 0.662430 0.121900 0.598410
C174 C 0.603730 0.402730 0.931070
C175 C 0.634420 0.457350 0.858700
C176 C 1.274490 0.640210 0.643140
O177 O 0.128930 0.361010 0.167670
O178 O 0.370230 0.382260 0.421010
O179 O 0.629770 0.617740 0.578990
O180 O 0.871070 0.638990 0.832330
O181 O 0.314490 0.930820 0.478360
O182 O 0.314490 0.569180 -0.021640
O183 O 0.871070 0.861010 0.332330
O184 O 0.685510 0.430820 1.021640
O185 O 0.629770 0.882260 0.078990
O186 O 0.128930 0.138990 0.667670
O187 O 0.685510 0.069180 0.521640
O188 O 0.370230 0.117740 0.921010

#END
