./ABAKEV02_from_POSCAR.cif_generated_by_CrystalShift
_symmetry_cell_setting triclinic
_symmetry_space_group_name_H-M 'P 1'
loop_
_symmetry_equiv_pos_site_id
_symmetry_equiv_pos_as_xyz
1 x,y,z
_cell_length_a 7.175200
_cell_length_b 21.684100
_cell_length_c 10.776400
_cell_angle_alpha 90.000000
_cell_angle_beta 110.035000
_cell_angle_gamma 90.000000
_cell_volume 1575.209349
loop_
_atom_site_label
_atom_site_type_symbol
_atom_site_fract_x
_atom_site_fract_y
_atom_site_fract_z
H1 H 0.239600 0.134200 -0.108900
H2 H 0.400800 0.209200 -0.179200
H3 H 0.352100 0.312000 -0.141500
H4 H 0.969900 -0.057300 0.753100
H5 H 0.142500 0.340200 -0.032900
H6 H -0.000400 0.104400 0.006200
H7 H 0.905600 0.099500 0.639300
H8 H -0.209100 0.135600 0.113600
H9 H 0.718100 0.130700 0.431400
H10 H -0.301200 0.292600 0.180200
H11 H 0.760400 0.634200 0.608900
H12 H 0.599200 0.709200 0.679200
H13 H 0.575900 -0.104800 0.327100
H14 H 0.647900 0.812000 0.641500
H15 H 0.390800 -0.077200 0.116900
H16 H 0.857500 0.840200 0.532900
H17 H 0.343800 0.025000 0.055700
H18 H 1.000400 0.604400 0.493800
H19 H 0.492500 0.101100 0.201900
H20 H 1.209100 0.635600 0.386400
H21 H 1.301200 0.792600 0.319800
H22 H 0.760400 0.865800 1.108900
H23 H 0.030100 0.442700 -0.253100
H24 H 0.599200 0.790800 1.179200
H25 H 0.647900 0.688000 1.141500
H26 H 0.094400 0.599500 -0.139300
H27 H 0.857500 0.659800 1.032900
H28 H 0.281900 0.630700 0.068600
H29 H 1.000400 0.895600 0.993800
H30 H 1.209100 0.864400 0.886400
H31 H 1.301200 0.707400 0.819800
H32 H 0.424100 0.395200 0.172900
H33 H 0.239600 0.365800 0.391100
H34 H 0.609200 0.422800 0.383100
H35 H 0.400800 0.290800 0.320800
H36 H 0.656200 0.525000 0.444300
H37 H 0.352100 0.188000 0.358500
H38 H 0.507500 0.601100 0.298100
H39 H 0.142500 0.159800 0.467100
H40 H -0.000400 0.395600 0.506200
H41 H -0.209100 0.364400 0.613600
H42 H 0.030100 1.057300 0.246900
H43 H -0.301200 0.207400 0.680200
H44 H 0.492500 0.398900 0.701900
H45 H 0.094400 0.900500 0.360700
H46 H 0.343800 0.475000 0.555700
H47 H 0.281900 0.869300 0.568600
H48 H 0.390800 0.577200 0.616900
H49 H 0.575900 0.604800 0.827100
H50 H 0.718100 0.369300 0.931400
H51 H 0.424100 1.104800 0.672900
H52 H 0.905600 0.400500 1.139300
H53 H 0.609200 1.077200 0.883100
H54 H 0.969900 0.557300 1.253100
H55 H 0.656200 0.975000 0.944300
H56 H 0.507500 0.898900 0.798100
C57 C 0.489300 0.939980 0.771700
C58 C 0.314900 0.219870 -0.134800
C59 C 0.966600 -0.014830 0.740000
C60 C 0.966600 0.514830 1.240000
C61 C 0.577000 0.985260 0.858600
C62 C 0.850700 0.492040 1.106690
C63 C 0.838500 0.429300 1.075830
C64 C 0.550100 1.046770 0.821300
C65 C 0.728400 0.410930 0.953200
C66 C 0.439200 1.063400 0.696500
C67 C 0.629600 0.455020 0.858990
C68 C 0.652500 0.517860 0.896610
C69 C 0.560800 0.563400 0.803500
C70 C 0.347500 1.017860 0.603390
C71 C 0.449900 0.546770 0.678700
C72 C 0.370400 0.955020 0.641010
C73 C 0.423000 0.485260 0.641400
C74 C 0.271600 0.910930 0.546800
C75 C 0.510700 0.439980 0.728300
C76 C 0.161500 0.929300 0.424170
C77 C 0.285500 0.281780 -0.112000
C78 C 0.850700 0.007960 0.606690
C79 C -0.289000 0.249870 0.673500
C80 C 0.149300 0.992040 0.393310
C81 C -0.159200 0.272490 0.602900
C82 C -0.138800 0.335550 0.583330
C83 C 0.033400 1.014830 0.260000
C84 C -0.015700 0.353890 0.520060
C85 C 0.160900 0.298680 -0.047200
C86 C 0.089600 0.309600 0.475080
C87 C 0.059700 0.247000 0.498220
C88 C 0.160900 0.201320 0.452800
C89 C 0.059700 0.253000 -0.001780
C90 C 0.285500 0.218220 0.388000
C91 C 0.489300 0.560020 0.271700
C92 C 0.314900 0.280130 0.365200
C93 C 0.577000 0.514740 0.358600
C94 C 0.219400 0.324600 0.407200
C95 C 0.550100 0.453230 0.321300
C96 C 0.089600 0.190400 -0.024920
C97 C 0.838500 0.070700 0.575830
C98 C 1.289000 0.749870 0.826500
C99 C 0.439200 0.436600 0.196500
C100 C 1.159200 0.772490 0.897100
C101 C 1.138800 0.835550 0.916670
C102 C 0.347500 0.482140 0.103390
C103 C 1.015700 0.853890 0.979940
C104 C 0.370400 0.544980 0.141010
C105 C 0.910400 0.809600 1.024920
C106 C 0.940300 0.747000 1.001780
C107 C 0.839100 0.701320 1.047200
C108 C 0.271600 0.589070 0.046800
C109 C 0.714500 0.718220 1.112000
C110 C 0.161500 0.570700 -0.075830
C111 C 0.685100 0.780130 1.134800
C112 C 0.149300 0.507960 -0.106690
C113 C 0.780600 0.824600 1.092800
C114 C 0.033400 0.485170 -0.240000
C115 C -0.015700 0.146110 0.020060
C116 C 0.728400 0.089070 0.453200
C117 C 1.289000 0.750130 0.326500
C118 C -0.138800 0.164450 0.083330
C119 C 1.159200 0.727510 0.397100
C120 C 1.138800 0.664450 0.416670
C121 C -0.159200 0.227510 0.102900
C122 C 1.015700 0.646110 0.479940
C123 C 0.510700 0.060020 0.228300
C124 C 0.910400 0.690400 0.524920
C125 C 0.940300 0.753000 0.501780
C126 C 0.839100 0.798680 0.547200
C127 C 0.423000 0.014740 0.141400
C128 C 0.714500 0.781780 0.612000
C129 C 0.449900 -0.046770 0.178700
C130 C 0.685100 0.719870 0.634800
C131 C 0.560800 -0.063400 0.303500
C132 C 0.780600 0.675400 0.592800
C133 C 0.652500 -0.017860 0.396610
C134 C 0.629600 0.044980 0.358990
C135 C -0.289000 0.250130 0.173500
C136 C 0.219400 0.175400 -0.092800
N137 N 0.763500 -0.035860 0.522050
N138 N 0.763500 0.535860 1.022050
N139 N 0.236500 0.464140 -0.022050
N140 N 1.065700 0.771110 0.437740
N141 N -0.065700 0.228890 0.562260
N142 N 1.065700 0.728890 0.937740
N143 N 0.236500 1.035860 0.477950
N144 N -0.065700 0.271110 0.062260
O145 O 1.379800 0.717930 0.277200
O146 O -0.379800 0.282070 0.722800
O147 O -0.056300 0.516240 -0.332270
O148 O 1.056300 0.483760 1.332270
O149 O -0.379800 0.217930 0.222800
O150 O -0.056300 0.983760 0.167730
O151 O 1.379800 0.782070 0.777200
O152 O 1.056300 0.016240 0.832270

#END
