./ABAKEV_from_POSCAR.cif_generated_by_CrystalShift
_symmetry_cell_setting triclinic
_symmetry_space_group_name_H-M 'P 1'
loop_
_symmetry_equiv_pos_site_id
_symmetry_equiv_pos_as_xyz
1 x,y,z
_cell_length_a 7.063900
_cell_length_b 21.564000
_cell_length_c 10.698000
_cell_angle_alpha 90.000000
_cell_angle_beta 107.884000
_cell_angle_gamma 90.000000
_cell_volume 1550.841777
loop_
_atom_site_label
_atom_site_type_symbol
_atom_site_fract_x
_atom_site_fract_y
_atom_site_fract_z
H1 H 0.012700 0.205900 0.817700
H2 H 0.167700 0.366100 0.882100
H3 H 0.490200 0.398700 0.991300
H4 H 0.850100 0.369000 1.107600
H5 H 0.245800 0.393500 0.326500
H6 H 1.086000 0.292200 1.178600
H7 H 0.220700 0.421100 0.113700
H8 H 0.999000 0.187700 1.143000
H9 H 0.208900 0.525400 0.051800
H10 H 0.675200 0.158900 1.032000
H11 H 0.212600 0.603100 0.201300
H12 H 1.487300 0.705900 0.682300
H13 H 1.332300 0.866100 0.617900
H14 H 0.216900 0.633500 0.431900
H15 H 1.009800 0.898700 0.508700
H16 H 0.234000 0.601700 0.642700
H17 H 0.649900 0.869000 0.392400
H18 H 0.414000 0.792200 0.321400
H19 H 0.283600 0.441300 0.753400
H20 H 0.501000 0.687700 0.357000
H21 H 0.824800 0.658900 0.468000
H22 H 0.987300 0.794100 0.182300
H23 H 0.832300 0.633900 0.117900
H24 H 0.254200 -0.106500 0.173500
H25 H 0.509800 0.601300 0.008700
H26 H 0.279300 -0.078900 0.386300
H27 H 0.149900 0.631000 -0.107600
H28 H 0.291100 0.025400 0.448200
H29 H -0.086000 0.707800 -0.178600
H30 H 0.287400 0.103100 0.298700
H31 H 0.001000 0.812300 -0.143000
H32 H 0.324800 0.841100 -0.032000
H33 H 0.283100 0.133500 0.068100
H34 H -0.487300 0.294100 0.317700
H35 H 0.266000 0.101700 -0.142700
H36 H -0.332300 0.133900 0.382100
H37 H -0.009800 0.101300 0.491300
H38 H 0.216400 -0.058700 -0.253400
H39 H 0.350100 0.131000 0.607600
H40 H 0.586000 0.207800 0.678600
H41 H 0.499000 0.312300 0.643000
H42 H 0.175200 0.341100 0.532000
H43 H 0.754200 0.606500 0.673500
H44 H 0.783600 1.058700 1.253400
H45 H 0.779300 0.578900 0.886300
H46 H 0.734000 0.898300 1.142700
H47 H 0.791100 0.474600 0.948200
H48 H 0.716900 0.866500 0.931900
H49 H 0.787400 0.396900 0.798700
H50 H 0.712600 0.896900 0.701300
H51 H 0.708900 0.974600 0.551800
H52 H 0.783100 0.366500 0.568100
H53 H 0.720700 1.078900 0.613700
H54 H 0.766000 0.398300 0.357300
H55 H 0.745800 1.106500 0.826500
H56 H 0.716400 0.558700 0.246600
C57 C 0.726600 0.515070 0.259550
C58 C 0.234700 0.272670 0.895110
C59 C 0.272000 0.336790 0.913550
C60 C 0.741900 1.017600 0.896560
C61 C 0.738500 1.063980 0.802350
C62 C 0.744300 0.491590 0.392660
C63 C 0.724700 1.047550 0.676770
C64 C 0.762100 0.427840 0.422380
C65 C 0.716200 0.985100 0.639440
C66 C 0.773500 0.409350 0.546110
C67 C 0.718400 0.939100 0.727700
C68 C 0.770800 0.454270 0.641390
C69 C 0.729200 0.954270 0.858610
C70 C 0.726500 0.909350 0.953890
C71 C 0.781600 0.439100 0.772300
C72 C 0.737900 0.927840 1.077620
C73 C 0.783800 0.485100 0.860560
C74 C 0.755700 0.991590 1.107340
C75 C 0.773400 1.015070 1.240450
C76 C 0.775300 0.547550 0.823230
C77 C 0.241900 0.482400 0.396560
C78 C 0.460900 0.355830 0.977420
C79 C 0.060800 0.252500 0.500260
C80 C 0.208600 0.298460 0.546400
C81 C 0.761500 0.563980 0.697650
C82 C 0.400200 0.281330 0.611930
C83 C 0.758100 0.517600 0.603440
C84 C 0.452000 0.218790 0.633690
C85 C 0.613100 0.311050 1.022880
C86 C 0.312900 0.173250 0.591280
C87 C 0.238500 0.436020 0.302350
C88 C 0.113100 0.188950 0.522880
C89 C -0.039100 0.144170 0.477420
C90 C 0.226600 -0.015070 -0.240450
C91 C -0.228000 0.163210 0.413550
C92 C 0.244300 0.008410 -0.107340
C93 C -0.265300 0.227330 0.395110
C94 C -0.468000 0.250530 0.324460
C95 C 0.262100 0.072160 -0.077620
C96 C 0.812900 0.326750 1.091280
C97 C 0.224700 0.452450 0.176770
C98 C 0.439200 0.752500 -0.000260
C99 C 0.291400 0.798460 -0.046400
C100 C 0.273500 0.090650 0.046110
C101 C 0.099800 0.781330 -0.111930
C102 C 0.270800 0.045730 0.141390
C103 C 0.048000 0.718790 -0.133690
C104 C 0.281600 0.060900 0.272300
C105 C 0.187100 0.673250 -0.091280
C106 C 0.283800 0.014900 0.360560
C107 C 0.386900 0.688950 -0.022880
C108 C 0.539100 0.644170 0.022580
C109 C 0.275300 -0.047550 0.323230
C110 C 0.728000 0.663210 0.086450
C111 C 0.261500 -0.063980 0.197650
C112 C 0.765300 0.727330 0.104890
C113 C 0.968000 0.750530 0.175540
C114 C 0.258100 -0.017600 0.103440
C115 C 0.952000 0.281210 1.133690
C116 C 0.216200 0.514900 0.139440
C117 C 0.939200 0.747500 0.499740
C118 C 0.791400 0.701540 0.453600
C119 C 0.900200 0.218670 1.111930
C120 C 0.599800 0.718670 0.388070
C121 C 0.218400 0.560900 0.227700
C122 C 0.548000 0.781210 0.366310
C123 C 0.273400 0.484930 0.740450
C124 C 0.687100 0.826750 0.408720
C125 C 0.255700 0.508410 0.607340
C126 C 0.886900 0.811050 0.477120
C127 C 1.039100 0.855830 0.522580
C128 C 0.237900 0.572160 0.577620
C129 C 1.228000 0.836790 0.586450
C130 C 0.226500 0.590650 0.453890
C131 C 1.265300 0.772670 0.604890
C132 C 1.468000 0.749470 0.675540
C133 C 0.229200 0.545730 0.358610
C134 C 0.708600 0.201540 1.046400
C135 C 0.560800 0.247500 1.000260
C136 C 0.032000 0.249470 0.824460
N137 N 0.256660 0.464180 0.521630
N138 N 0.756660 1.035820 1.021630
N139 N 0.243340 -0.035820 -0.021630
N140 N 1.129500 0.728910 0.563730
N141 N -0.129500 0.271090 0.436270
N142 N 0.629500 0.771090 0.063730
N143 N 0.743340 0.535820 0.478370
N144 N 0.370500 0.228910 0.936270
O145 O 1.609260 0.782080 0.724740
O146 O -0.609260 0.217920 0.275260
O147 O 0.224100 0.016650 -0.333740
O148 O -0.109260 0.282080 0.775260
O149 O 0.775900 0.983350 1.333740
O150 O 0.724100 0.483350 0.166260
O151 O 1.109260 0.717920 0.224740
O152 O 0.275900 0.516650 0.833740

#END
