./ABALAS_from_POSCAR.cif_generated_by_CrystalShift
_symmetry_cell_setting triclinic
_symmetry_space_group_name_H-M 'P 1'
loop_
_symmetry_equiv_pos_site_id
_symmetry_equiv_pos_as_xyz
1 x,y,z
_cell_length_a 6.804800
_cell_length_b 8.607100
_cell_length_c 15.824400
_cell_angle_alpha 90.000000
_cell_angle_beta 99.445000
_cell_angle_gamma 90.000000
_cell_volume 914.264207
loop_
_atom_site_label
_atom_site_type_symbol
_atom_site_fract_x
_atom_site_fract_y
_atom_site_fract_z
H1 H -0.004000 0.093000 1.066000
H2 H 0.579400 0.454200 0.245600
H3 H 0.805000 0.272600 0.310500
H4 H 0.306000 0.526300 0.306500
H5 H 0.750000 0.159000 0.435000
H6 H 0.058200 0.321000 0.699300
H7 H 0.250000 0.234200 0.678100
H8 H -0.004000 0.407000 0.566000
H9 H 1.165000 0.409000 -0.128700
H10 H 0.250000 0.265800 1.178100
H11 H 0.058200 0.179000 1.199300
H12 H 0.420600 0.954200 0.254400
H13 H 0.750000 0.341000 0.935000
H14 H 0.195000 0.772600 0.189500
H15 H 0.306000 -0.026300 0.806500
H16 H 0.694000 1.026300 0.193500
H17 H 0.805000 0.227400 0.810500
H18 H 0.250000 0.659000 0.065000
H19 H 0.579400 0.045800 0.745600
H20 H 0.941800 0.821000 -0.199300
H21 H -0.165000 0.591000 1.128700
H22 H 1.004000 0.593000 0.434000
H23 H 0.750000 0.734200 -0.178100
H24 H 1.004000 0.907000 -0.066000
H25 H 1.165000 1.091000 0.371300
H26 H 0.420600 0.545800 0.754400
H27 H 0.195000 0.727400 0.689500
H28 H 0.694000 0.473700 0.693500
H29 H 0.250000 0.841000 0.565000
H30 H 0.941800 0.679000 0.300700
H31 H 0.750000 0.765800 0.321900
H32 H -0.165000 -0.091000 0.628700
C33 C 0.333800 0.771100 0.589090
C34 C 0.498600 0.728000 0.552590
C35 C 0.605200 0.547300 0.667130
C36 C 1.001700 0.889100 0.354270
C37 C 0.307700 0.700500 0.663900
C38 C 0.634300 0.615900 0.590780
C39 C 0.441200 0.590600 0.703410
C40 C 0.774900 0.666500 0.477610
C41 C 1.094100 1.002900 0.363910
C42 C -0.094100 -0.002900 0.636090
C43 C 0.558800 0.409400 0.296590
C44 C 0.692300 0.299500 0.336100
C45 C 0.394800 0.452700 0.332870
C46 C 0.225100 0.166500 1.022390
C47 C 0.774900 0.833500 -0.022390
C48 C 0.634300 0.884100 0.090780
C49 C 1.001700 0.610900 -0.145730
C50 C 0.498600 0.772000 0.052590
C51 C 0.890500 0.757100 -0.156230
C52 C 0.666200 0.228900 0.410910
C53 C -0.094100 0.502900 1.136090
C54 C 0.333800 0.728900 0.089090
C55 C 0.558800 0.090600 0.796590
C56 C 0.605200 0.952700 0.167130
C57 C 0.692300 0.200500 0.836100
C58 C 0.307700 0.799500 0.163900
C59 C 0.394800 0.047300 0.832870
C60 C 0.441200 0.909400 0.203410
C61 C 0.666200 0.271100 0.910910
C62 C 1.094100 0.497100 -0.136090
C63 C 0.109500 0.242900 1.156230
C64 C 0.501400 0.228000 0.947410
C65 C 0.365700 0.115900 0.909220
C66 C -0.001700 0.389100 1.145730
C67 C 0.109500 0.257100 0.656230
C68 C 0.225100 0.333500 0.522390
C69 C 0.365700 0.384100 0.409220
C70 C -0.001700 0.110900 0.645730
C71 C 0.501400 0.272000 0.447410
C72 C 0.890500 0.742900 0.343770
N73 N 0.208700 0.416010 0.452810
N74 N 0.902900 0.655100 0.421790
N75 N 0.791300 0.583990 0.547190
N76 N 0.902900 0.844900 -0.078210
N77 N 0.791300 0.916010 0.047190
N78 N 0.097100 0.155100 1.078210
N79 N 0.208700 0.083990 0.952810
N80 N 0.097100 0.344900 0.578210
S81 S 0.429810 0.294150 1.041550
S82 S 0.429810 0.205850 0.541550
S83 S 0.570190 0.794150 0.458450
S84 S 0.570190 0.705850 -0.041550

#END
