
#######################################################################
#
#                 Cambridge Crystallographic Data Centre
#                                CCDC 
#
#######################################################################
#
# If this CIF has been generated from an entry in the Cambridge 
# Structural Database, then it will include bibliographic, chemical, 
# crystal, experimental, refinement or atomic coordinate data resulting 
# from the CCDC's data processing and validation procedures.
#
#######################################################################

data_ABALOG
_symmetry_cell_setting           orthorhombic
_symmetry_space_group_name_H-M   'P b c n'
_symmetry_Int_Tables_number      60
_space_group_name_Hall           '-P 2n 2ab'
loop_
_symmetry_equiv_pos_site_id
_symmetry_equiv_pos_as_xyz
1 x,y,z
2 1/2-x,1/2-y,1/2+z
3 -x,y,1/2-z
4 1/2+x,1/2-y,-z
5 -x,-y,-z
6 1/2+x,1/2+y,1/2-z
7 x,-y,1/2+z
8 1/2-x,1/2+y,z
_cell_length_a                   24.2052(6)
_cell_length_b                   9.7594(3)
_cell_length_c                   7.2764(2)
_cell_angle_alpha                90
_cell_angle_beta                 90
_cell_angle_gamma                90
_cell_volume                     1718.89
loop_
_atom_site_label
_atom_site_type_symbol
_atom_site_fract_x
_atom_site_fract_y
_atom_site_fract_z
N1 N 0.39971(3) 0.13082(7) -0.04858(9)
C1 C 0.45090(3) 0.18923(8) 0.03505(12)
H1 H 0.4838 0.1482 -0.0239
H2 H 0.4520 0.1670 0.1678
C2 C 0.45182(4) 0.34373(9) 0.00941(12)
H3 H 0.4543 0.3655 -0.1232
H4 H 0.4848 0.3823 0.0710
C3 C 0.39979(4) 0.40873(9) 0.08969(12)
H5 H 0.3999 0.5084 0.0647
H6 H 0.3993 0.3955 0.2246
C4 C 0.34807(4) 0.34393(8) 0.00500(12)
H7 H 0.3148 0.3837 0.0638
H8 H 0.3467 0.3664 -0.1276
C5 C 0.34710(3) 0.18860(8) 0.02842(10)
H9 H 0.3452 0.1667 0.1625
C6 C 0.29921(4) 0.11725(8) -0.06919(12)
H10 H 0.3011 0.1382 -0.2022
H11 H 0.3033 0.0169 -0.0545
C7 C 0.24270(4) 0.16025(11) 0.00354(15)
H12 H 0.2138 0.1106 -0.0631
H13 H 0.2378 0.2590 -0.0145
H14 H 0.2403 0.1388 0.1349
H15 H 0.4002(5) 0.0410(14) -0.0311(17)
H16 H 0.4007(4) 0.1476(13) -0.170(2)
N1 N 0.10029(3) 0.36918(7) 0.45142(9)
C1 C 0.04910(3) 0.31077(8) 0.53505(12)
H1 H 0.0162 0.3518 0.4761
H2 H 0.0480 0.3330 0.6678
C2 C 0.04818(4) 0.15627(9) 0.50941(12)
H3 H 0.0457 0.1345 0.3768
H4 H 0.0152 0.1177 0.5710
C3 C 0.10021(4) 0.09127(9) 0.58969(12)
H5 H 0.1001 -0.0084 0.5647
H6 H 0.1007 0.1045 0.7246
C4 C 0.15193(4) 0.15607(8) 0.50500(12)
H7 H 0.1852 0.1163 0.5638
H8 H 0.1533 0.1336 0.3724
C5 C 0.15290(3) 0.31140(8) 0.52842(10)
H9 H 0.1548 0.3333 0.6625
C6 C 0.20079(4) 0.38275(8) 0.43081(12)
H10 H 0.1989 0.3618 0.2978
H11 H 0.1967 0.4831 0.4455
C7 C 0.25730(4) 0.33975(11) 0.50354(15)
H12 H 0.2862 0.3894 0.4369
H13 H 0.2622 0.2410 0.4855
H14 H 0.2597 0.3612 0.6349
H15 H 0.0998(5) 0.4590(14) 0.4689(17)
H16 H 0.0993(4) 0.3524(13) 0.330(2)
N1 N 0.60029(3) 0.13082(7) 0.54858(9)
C1 C 0.54910(3) 0.18923(8) 0.46495(12)
H1 H 0.5162 0.1482 0.5239
H2 H 0.5480 0.1670 0.3322
C2 C 0.54818(4) 0.34373(9) 0.49059(12)
H3 H 0.5457 0.3655 0.6232
H4 H 0.5152 0.3823 0.4290
C3 C 0.60021(4) 0.40873(9) 0.41031(12)
H5 H 0.6001 0.5084 0.4353
H6 H 0.6007 0.3955 0.2754
C4 C 0.65193(4) 0.34393(8) 0.49500(12)
H7 H 0.6852 0.3837 0.4362
H8 H 0.6533 0.3664 0.6276
C5 C 0.65290(3) 0.18860(8) 0.47158(10)
H9 H 0.6548 0.1667 0.3375
C6 C 0.70079(4) 0.11725(8) 0.56919(12)
H10 H 0.6989 0.1382 0.7022
H11 H 0.6967 0.0169 0.5545
C7 C 0.75730(4) 0.16025(11) 0.49646(15)
H12 H 0.7862 0.1106 0.5631
H13 H 0.7622 0.2590 0.5145
H14 H 0.7597 0.1388 0.3651
H15 H 0.5998(5) 0.0410(14) 0.5311(17)
H16 H 0.5993(4) 0.1476(13) 0.670(2)
N1 N 0.89971(3) 0.36918(7) 1.04858(9)
C1 C 0.95090(3) 0.31077(8) 0.96495(12)
H1 H 0.9838 0.3518 1.0239
H2 H 0.9520 0.3330 0.8322
C2 C 0.95182(4) 0.15627(9) 0.99059(12)
H3 H 0.9543 0.1345 1.1232
H4 H 0.9848 0.1177 0.9290
C3 C 0.89979(4) 0.09127(9) 0.91031(12)
H5 H 0.8999 -0.0084 0.9353
H6 H 0.8993 0.1045 0.7754
C4 C 0.84807(4) 0.15607(8) 0.99500(12)
H7 H 0.8148 0.1163 0.9362
H8 H 0.8467 0.1336 1.1276
C5 C 0.84710(3) 0.31140(8) 0.97158(10)
H9 H 0.8452 0.3333 0.8375
C6 C 0.79921(4) 0.38275(8) 1.06919(12)
H10 H 0.8011 0.3618 1.2022
H11 H 0.8033 0.4831 1.0545
C7 C 0.74270(4) 0.33975(11) 0.99646(15)
H12 H 0.7138 0.3894 1.0631
H13 H 0.7378 0.2410 1.0145
H14 H 0.7403 0.3612 0.8651
H15 H 0.9002(5) 0.4590(14) 1.0311(17)
H16 H 0.9007(4) 0.3524(13) 1.170(2)
N1 N 0.60029(3) 0.86918(7) 1.04858(9)
C1 C 0.54910(3) 0.81077(8) 0.96495(12)
H1 H 0.5162 0.8518 1.0239
H2 H 0.5480 0.8330 0.8322
C2 C 0.54818(4) 0.65627(9) 0.99059(12)
H3 H 0.5457 0.6345 1.1232
H4 H 0.5152 0.6177 0.9290
C3 C 0.60021(4) 0.59127(9) 0.91031(12)
H5 H 0.6001 0.4916 0.9353
H6 H 0.6007 0.6045 0.7754
C4 C 0.65193(4) 0.65607(8) 0.99500(12)
H7 H 0.6852 0.6163 0.9362
H8 H 0.6533 0.6336 1.1276
C5 C 0.65290(3) 0.81140(8) 0.97158(10)
H9 H 0.6548 0.8333 0.8375
C6 C 0.70079(4) 0.88275(8) 1.06919(12)
H10 H 0.6989 0.8618 1.2022
H11 H 0.6967 0.9831 1.0545
C7 C 0.75730(4) 0.83975(11) 0.99646(15)
H12 H 0.7862 0.8894 1.0631
H13 H 0.7622 0.7410 1.0145
H14 H 0.7597 0.8612 0.8651
H15 H 0.5998(5) 0.9590(14) 1.0311(17)
H16 H 0.5993(4) 0.8524(13) 1.170(2)
N1 N 0.89971(3) 0.63082(7) 0.54858(9)
C1 C 0.95090(3) 0.68923(8) 0.46495(12)
H1 H 0.9838 0.6482 0.5239
H2 H 0.9520 0.6670 0.3322
C2 C 0.95182(4) 0.84373(9) 0.49059(12)
H3 H 0.9543 0.8655 0.6232
H4 H 0.9848 0.8823 0.4290
C3 C 0.89979(4) 0.90873(9) 0.41031(12)
H5 H 0.8999 1.0084 0.4353
H6 H 0.8993 0.8955 0.2754
C4 C 0.84807(4) 0.84393(8) 0.49500(12)
H7 H 0.8148 0.8837 0.4362
H8 H 0.8467 0.8664 0.6276
C5 C 0.84710(3) 0.68860(8) 0.47158(10)
H9 H 0.8452 0.6667 0.3375
C6 C 0.79921(4) 0.61725(8) 0.56919(12)
H10 H 0.8011 0.6382 0.7022
H11 H 0.8033 0.5169 0.5545
C7 C 0.74270(4) 0.66025(11) 0.49646(15)
H12 H 0.7138 0.6106 0.5631
H13 H 0.7378 0.7590 0.5145
H14 H 0.7403 0.6388 0.3651
H15 H 0.9002(5) 0.5410(14) 0.5311(17)
H16 H 0.9007(4) 0.6476(13) 0.670(2)
N1 N 0.39971(3) 0.86918(7) 0.45142(9)
C1 C 0.45090(3) 0.81077(8) 0.53505(12)
H1 H 0.4838 0.8518 0.4761
H2 H 0.4520 0.8330 0.6678
C2 C 0.45182(4) 0.65627(9) 0.50941(12)
H3 H 0.4543 0.6345 0.3768
H4 H 0.4848 0.6177 0.5710
C3 C 0.39979(4) 0.59127(9) 0.58969(12)
H5 H 0.3999 0.4916 0.5647
H6 H 0.3993 0.6045 0.7246
C4 C 0.34807(4) 0.65607(8) 0.50500(12)
H7 H 0.3148 0.6163 0.5638
H8 H 0.3467 0.6336 0.3724
C5 C 0.34710(3) 0.81140(8) 0.52842(10)
H9 H 0.3452 0.8333 0.6625
C6 C 0.29921(4) 0.88275(8) 0.43081(12)
H10 H 0.3011 0.8618 0.2978
H11 H 0.3033 0.9831 0.4455
C7 C 0.24270(4) 0.83975(11) 0.50354(15)
H12 H 0.2138 0.8894 0.4369
H13 H 0.2378 0.7410 0.4855
H14 H 0.2403 0.8612 0.6349
H15 H 0.4002(5) 0.9590(14) 0.4689(17)
H16 H 0.4007(4) 0.8524(13) 0.330(2)
N1 N 0.10029(3) 0.63082(7) -0.04858(9)
C1 C 0.04910(3) 0.68923(8) 0.03505(12)
H1 H 0.0162 0.6482 -0.0239
H2 H 0.0480 0.6670 0.1678
C2 C 0.04818(4) 0.84373(9) 0.00941(12)
H3 H 0.0457 0.8655 -0.1232
H4 H 0.0152 0.8823 0.0710
C3 C 0.10021(4) 0.90873(9) 0.08969(12)
H5 H 0.1001 1.0084 0.0647
H6 H 0.1007 0.8955 0.2246
C4 C 0.15193(4) 0.84393(8) 0.00500(12)
H7 H 0.1852 0.8837 0.0638
H8 H 0.1533 0.8664 -0.1276
C5 C 0.15290(3) 0.68860(8) 0.02842(10)
H9 H 0.1548 0.6667 0.1625
C6 C 0.20079(4) 0.61725(8) -0.06919(12)
H10 H 0.1989 0.6382 -0.2022
H11 H 0.1967 0.5169 -0.0545
C7 C 0.25730(4) 0.66025(11) 0.00354(15)
H12 H 0.2862 0.6106 -0.0631
H13 H 0.2622 0.7590 -0.0145
H14 H 0.2597 0.6388 0.1349
H15 H 0.0998(5) 0.5410(14) -0.0311(17)
H16 H 0.0993(4) 0.6476(13) -0.170(2)
Cl1 Cl 0.401145(8) 0.182057(18) 0.52892(2)
Cl1 Cl 0.098855(8) 0.317943(18) 0.02892(2)
Cl1 Cl 0.598855(8) 0.182057(18) 0.97108(2)
Cl1 Cl 0.901145(8) 0.317943(18) 0.47108(2)
Cl1 Cl 0.598855(8) 0.817943(18) 0.47108(2)
Cl1 Cl 0.901145(8) 0.682057(18) 0.97108(2)
Cl1 Cl 0.401145(8) 0.817943(18) 0.02892(2)
Cl1 Cl 0.098855(8) 0.682057(18) 0.52892(2)

#END
