
#######################################################################
#
#                 Cambridge Crystallographic Data Centre
#                                CCDC 
#
#######################################################################
#
# If this CIF has been generated from an entry in the Cambridge 
# Structural Database, then it will include bibliographic, chemical, 
# crystal, experimental, refinement or atomic coordinate data resulting 
# from the CCDC's data processing and validation procedures.
#
#######################################################################

data_ABALUL
_symmetry_cell_setting           tetragonal
_symmetry_space_group_name_H-M   'I 41/a'
_symmetry_Int_Tables_number      88
_space_group_name_Hall           '-I 4ad'
loop_
_symmetry_equiv_pos_site_id
_symmetry_equiv_pos_as_xyz
1 x,y,z
2 3/4-y,1/4+x,1/4+z
3 1/2+x,1/2+y,1/2+z
4 1/4-y,3/4+x,3/4+z
5 1/4+y,1/4-x,1/4+z
6 1/2+x,y,1/2-z
7 1/4-y,1/4+x,1/4-z
8 x,1/2+y,-z
9 -x,-y,-z
10 1/4+y,3/4-x,3/4-z
11 1/2-x,1/2-y,1/2-z
12 3/4+y,1/4-x,1/4-z
13 3/4-y,3/4+x,3/4-z
14 1/2-x,-y,1/2+z
15 3/4+y,3/4-x,3/4+z
16 -x,1/2-y,z
_cell_length_a                   15.092(2)
_cell_length_b                   15.092(2)
_cell_length_c                   13.016(3)
_cell_angle_alpha                90
_cell_angle_beta                 90
_cell_angle_gamma                90
_cell_volume                     2964.63
loop_
_atom_site_label
_atom_site_type_symbol
_atom_site_fract_x
_atom_site_fract_y
_atom_site_fract_z
S1 S -0.05392(13) 0.36780(12) 0.21146(14)
Cu1 Cu 0.0000 0.2500 0.29361(13)
Cl1 Cl 0.0000 0.2500 0.4643(2)
Cl2 Cl 0.09887(16) 0.55851(14) 0.07147(18)
Cu2 Cu 0.03782(10) 0.42297(8) 0.08972(12)
N1 N -0.1044(6) 0.5624(5) 0.4650(6)
C1 C -0.0376(7) 0.5745(6) 0.4000(8)
H1 H -0.0010 0.6237 0.4076
C2 C -0.1577(7) 0.4937(6) 0.4565(7)
H2 H -0.2045 0.4875 0.5024
C3 C -0.1455(6) 0.4305(6) 0.3805(7)
H3 H -0.1829 0.3818 0.3757
C4 C -0.0752(5) 0.4418(5) 0.3111(5)
C5 C -0.0220(6) 0.5173(6) 0.3238(7)
H4 H 0.0247 0.5275 0.2787
H5 H -0.114(6) 0.589(6) 0.533(8)
S1O S 0.05392(13) 0.13220(12) 0.21146(14)
Cu2O Cu -0.03782(10) 0.07703(8) 0.08972(12)
S1F S -0.11780(12) 0.19608(13) 0.03854(14)
Cu1F Cu 0.0000 0.2500 -0.04361(13)
S1K S 0.11780(12) 0.30392(13) 0.03854(14)
Cu2K Cu 0.17297(8) 0.21218(10) 0.16028(12)
C4O C 0.0752(5) 0.0582(5) 0.3111(5)
C3O C 0.1455(6) 0.0695(6) 0.3805(7)
C2O C 0.1577(7) 0.0063(6) 0.4565(7)
N1O N 0.1044(6) -0.0624(5) 0.4650(6)
C1O C 0.0376(7) -0.0745(6) 0.4000(8)
H1O H 0.0010 -0.1237 0.4076
C5O C 0.0220(6) -0.0173(6) 0.3238(7)
H4O H -0.0247 -0.0275 0.2787
H5O H 0.114(6) -0.089(6) 0.533(8)
H2O H 0.2045 0.0125 0.5024
H3O H 0.1829 0.1182 0.3757
Cl2K Cl 0.30851(14) 0.15113(16) 0.17853(18)
Cu2F Cu -0.17297(8) 0.28782(10) 0.16028(12)
C4F C -0.1918(5) 0.1748(5) -0.0611(5)
C3F C -0.1805(6) 0.1045(6) -0.1305(7)
C2F C -0.2437(6) 0.0923(7) -0.2065(7)
N1F N -0.3124(5) 0.1456(6) -0.2150(6)
C1F C -0.3245(6) 0.2124(7) -0.1500(8)
H1F H -0.3737 0.2490 -0.1576
C5F C -0.2673(6) 0.2280(6) -0.0738(7)
H4F H -0.2775 0.2747 -0.0287
H5F H -0.339(6) 0.136(6) -0.283(8)
H2F H -0.2375 0.0455 -0.2524
H3F H -0.1318 0.0671 -0.1257
Cl2F Cl -0.30851(14) 0.34887(16) 0.17853(18)
C4K C 0.1918(5) 0.3252(5) -0.0611(5)
C3K C 0.1805(6) 0.3955(6) -0.1305(7)
C2K C 0.2437(6) 0.4077(7) -0.2065(7)
N1K N 0.3124(5) 0.3544(6) -0.2150(6)
C1K C 0.3245(6) 0.2876(7) -0.1500(8)
H1K H 0.3737 0.2510 -0.1576
C5K C 0.2673(6) 0.2720(6) -0.0738(7)
H4K H 0.2775 0.2253 -0.0287
H5K H 0.339(6) 0.364(6) -0.283(8)
H2K H 0.2375 0.4545 -0.2524
H3K H 0.1318 0.4329 -0.1257
Cl1F Cl 0.0000 0.2500 -0.2143(2)
Cl2O Cl -0.09887(16) -0.05851(14) 0.07147(18)
S1 S 0.94608(13) 0.36780(12) 0.21146(14)
Cu1 Cu 1.0000 0.2500 0.29361(13)
Cl1 Cl 1.0000 0.2500 0.4643(2)
Cl2 Cl 1.09887(16) 0.55851(14) 0.07147(18)
Cu2 Cu 1.03782(10) 0.42297(8) 0.08972(12)
N1 N 0.8956(6) 0.5624(5) 0.4650(6)
C1 C 0.9624(7) 0.5745(6) 0.4000(8)
H1 H 0.9990 0.6237 0.4076
C2 C 0.8423(7) 0.4937(6) 0.4565(7)
H2 H 0.7955 0.4875 0.5024
C3 C 0.8545(6) 0.4305(6) 0.3805(7)
H3 H 0.8171 0.3818 0.3757
C4 C 0.9248(5) 0.4418(5) 0.3111(5)
C5 C 0.9780(6) 0.5173(6) 0.3238(7)
H4 H 1.0247 0.5275 0.2787
H5 H 0.886(6) 0.589(6) 0.533(8)
S1O S 1.05392(13) 0.13220(12) 0.21146(14)
Cu2O Cu 0.96218(10) 0.07703(8) 0.08972(12)
S1F S 0.88220(12) 0.19608(13) 0.03854(14)
Cu1F Cu 1.0000 0.2500 -0.04361(13)
S1K S 1.11780(12) 0.30392(13) 0.03854(14)
Cu2K Cu 1.17297(8) 0.21218(10) 0.16028(12)
C4O C 1.0752(5) 0.0582(5) 0.3111(5)
C3O C 1.1455(6) 0.0695(6) 0.3805(7)
C2O C 1.1577(7) 0.0063(6) 0.4565(7)
N1O N 1.1044(6) -0.0624(5) 0.4650(6)
C1O C 1.0376(7) -0.0745(6) 0.4000(8)
H1O H 1.0010 -0.1237 0.4076
C5O C 1.0220(6) -0.0173(6) 0.3238(7)
H4O H 0.9753 -0.0275 0.2787
H5O H 1.114(6) -0.089(6) 0.533(8)
H2O H 1.2045 0.0125 0.5024
H3O H 1.1829 0.1182 0.3757
Cl2K Cl 1.30851(14) 0.15113(16) 0.17853(18)
Cu2F Cu 0.82703(8) 0.28782(10) 0.16028(12)
C4F C 0.8082(5) 0.1748(5) -0.0611(5)
C3F C 0.8195(6) 0.1045(6) -0.1305(7)
C2F C 0.7563(6) 0.0923(7) -0.2065(7)
N1F N 0.6876(5) 0.1456(6) -0.2150(6)
C1F C 0.6755(6) 0.2124(7) -0.1500(8)
H1F H 0.6263 0.2490 -0.1576
C5F C 0.7327(6) 0.2280(6) -0.0738(7)
H4F H 0.7225 0.2747 -0.0287
H5F H 0.661(6) 0.136(6) -0.283(8)
H2F H 0.7625 0.0455 -0.2524
H3F H 0.8682 0.0671 -0.1257
Cl2F Cl 0.69149(14) 0.34887(16) 0.17853(18)
C4K C 1.1918(5) 0.3252(5) -0.0611(5)
C3K C 1.1805(6) 0.3955(6) -0.1305(7)
C2K C 1.2437(6) 0.4077(7) -0.2065(7)
N1K N 1.3124(5) 0.3544(6) -0.2150(6)
C1K C 1.3245(6) 0.2876(7) -0.1500(8)
H1K H 1.3737 0.2510 -0.1576
C5K C 1.2673(6) 0.2720(6) -0.0738(7)
H4K H 1.2775 0.2253 -0.0287
H5K H 1.339(6) 0.364(6) -0.283(8)
H2K H 1.2375 0.4545 -0.2524
H3K H 1.1318 0.4329 -0.1257
Cl1F Cl 1.0000 0.2500 -0.2143(2)
Cl2O Cl 0.90113(16) -0.05851(14) 0.07147(18)
S1 S 0.38220(12) 0.19608(13) 0.46146(14)
Cu1 Cu 0.5000 0.2500 0.54361(13)
Cl1 Cl 0.5000 0.2500 0.7143(2)
Cl2 Cl 0.19149(14) 0.34887(16) 0.32147(18)
Cu2 Cu 0.32703(8) 0.28782(10) 0.33972(12)
N1 N 0.1876(5) 0.1456(6) 0.7150(6)
C1 C 0.1755(6) 0.2124(7) 0.6500(8)
H1 H 0.1263 0.2490 0.6576
C2 C 0.2563(6) 0.0923(7) 0.7065(7)
H2 H 0.2625 0.0455 0.7524
C3 C 0.3195(6) 0.1045(6) 0.6305(7)
H3 H 0.3682 0.0671 0.6257
C4 C 0.3082(5) 0.1748(5) 0.5611(5)
C5 C 0.2327(6) 0.2280(6) 0.5738(7)
H4 H 0.2225 0.2747 0.5287
H5 H 0.161(6) 0.136(6) 0.783(8)
S1O S 0.61780(12) 0.30392(13) 0.46146(14)
Cu2O Cu 0.67297(8) 0.21218(10) 0.33972(12)
S1F S 0.55392(13) 0.13220(12) 0.28854(14)
Cu1F Cu 0.5000 0.2500 0.20639(13)
S1K S 0.44608(13) 0.36780(12) 0.28854(14)
Cu2K Cu 0.53782(10) 0.42297(8) 0.41028(12)
C4O C 0.6918(5) 0.3252(5) 0.5611(5)
C3O C 0.6805(6) 0.3955(6) 0.6305(7)
C2O C 0.7437(6) 0.4077(7) 0.7065(7)
N1O N 0.8124(5) 0.3544(6) 0.7150(6)
C1O C 0.8245(6) 0.2876(7) 0.6500(8)
H1O H 0.8737 0.2510 0.6576
C5O C 0.7673(6) 0.2720(6) 0.5738(7)
H4O H 0.7775 0.2253 0.5287
H5O H 0.839(6) 0.364(6) 0.783(8)
H2O H 0.7375 0.4545 0.7524
H3O H 0.6318 0.4329 0.6257
Cl2K Cl 0.59887(16) 0.55851(14) 0.42853(18)
Cu2F Cu 0.46218(10) 0.07703(8) 0.41028(12)
C4F C 0.5752(5) 0.0582(5) 0.1889(5)
C3F C 0.6455(6) 0.0695(6) 0.1195(7)
C2F C 0.6577(7) 0.0063(6) 0.0435(7)
N1F N 0.6044(6) -0.0624(5) 0.0350(6)
C1F C 0.5376(7) -0.0745(6) 0.1000(8)
H1F H 0.5010 -0.1237 0.0924
C5F C 0.5220(6) -0.0173(6) 0.1762(7)
H4F H 0.4753 -0.0275 0.2213
H5F H 0.614(6) -0.089(6) -0.033(8)
H2F H 0.7045 0.0125 -0.0024
H3F H 0.6829 0.1182 0.1243
Cl2F Cl 0.40113(16) -0.05851(14) 0.42853(18)
C4K C 0.4248(5) 0.4418(5) 0.1889(5)
C3K C 0.3545(6) 0.4305(6) 0.1195(7)
C2K C 0.3423(7) 0.4937(6) 0.0435(7)
N1K N 0.3956(6) 0.5624(5) 0.0350(6)
C1K C 0.4624(7) 0.5745(6) 0.1000(8)
H1K H 0.4990 0.6237 0.0924
C5K C 0.4780(6) 0.5173(6) 0.1762(7)
H4K H 0.5247 0.5275 0.2213
H5K H 0.386(6) 0.589(6) -0.033(8)
H2K H 0.2955 0.4875 -0.0024
H3K H 0.3171 0.3818 0.1243
Cl1F Cl 0.5000 0.2500 0.0357(2)
Cl2O Cl 0.80851(14) 0.15113(16) 0.32147(18)
S1 S 0.44608(13) 0.86780(12) 0.71146(14)
Cu1 Cu 0.5000 0.7500 0.79361(13)
Cl1 Cl 0.5000 0.7500 0.9643(2)
Cl2 Cl 0.59887(16) 1.05851(14) 0.57147(18)
Cu2 Cu 0.53782(10) 0.92297(8) 0.58972(12)
N1 N 0.3956(6) 1.0624(5) 0.9650(6)
C1 C 0.4624(7) 1.0745(6) 0.9000(8)
H1 H 0.4990 1.1237 0.9076
C2 C 0.3423(7) 0.9937(6) 0.9565(7)
H2 H 0.2955 0.9875 1.0024
C3 C 0.3545(6) 0.9305(6) 0.8805(7)
H3 H 0.3171 0.8818 0.8757
C4 C 0.4248(5) 0.9418(5) 0.8111(5)
C5 C 0.4780(6) 1.0173(6) 0.8238(7)
H4 H 0.5247 1.0275 0.7787
H5 H 0.386(6) 1.089(6) 1.033(8)
S1O S 0.55392(13) 0.63220(12) 0.71146(14)
Cu2O Cu 0.46218(10) 0.57703(8) 0.58972(12)
S1F S 0.38220(12) 0.69608(13) 0.53854(14)
Cu1F Cu 0.5000 0.7500 0.45639(13)
S1K S 0.61780(12) 0.80392(13) 0.53854(14)
Cu2K Cu 0.67297(8) 0.71218(10) 0.66028(12)
C4O C 0.5752(5) 0.5582(5) 0.8111(5)
C3O C 0.6455(6) 0.5695(6) 0.8805(7)
C2O C 0.6577(7) 0.5063(6) 0.9565(7)
N1O N 0.6044(6) 0.4376(5) 0.9650(6)
C1O C 0.5376(7) 0.4255(6) 0.9000(8)
H1O H 0.5010 0.3763 0.9076
C5O C 0.5220(6) 0.4827(6) 0.8238(7)
H4O H 0.4753 0.4725 0.7787
H5O H 0.614(6) 0.411(6) 1.033(8)
H2O H 0.7045 0.5125 1.0024
H3O H 0.6829 0.6182 0.8757
Cl2K Cl 0.80851(14) 0.65113(16) 0.67853(18)
Cu2F Cu 0.32703(8) 0.78782(10) 0.66028(12)
C4F C 0.3082(5) 0.6748(5) 0.4389(5)
C3F C 0.3195(6) 0.6045(6) 0.3695(7)
C2F C 0.2563(6) 0.5923(7) 0.2935(7)
N1F N 0.1876(5) 0.6456(6) 0.2850(6)
C1F C 0.1755(6) 0.7124(7) 0.3500(8)
H1F H 0.1263 0.7490 0.3424
C5F C 0.2327(6) 0.7280(6) 0.4262(7)
H4F H 0.2225 0.7747 0.4713
H5F H 0.161(6) 0.636(6) 0.217(8)
H2F H 0.2625 0.5455 0.2476
H3F H 0.3682 0.5671 0.3743
Cl2F Cl 0.19149(14) 0.84887(16) 0.67853(18)
C4K C 0.6918(5) 0.8252(5) 0.4389(5)
C3K C 0.6805(6) 0.8955(6) 0.3695(7)
C2K C 0.7437(6) 0.9077(7) 0.2935(7)
N1K N 0.8124(5) 0.8544(6) 0.2850(6)
C1K C 0.8245(6) 0.7876(7) 0.3500(8)
H1K H 0.8737 0.7510 0.3424
C5K C 0.7673(6) 0.7720(6) 0.4262(7)
H4K H 0.7775 0.7253 0.4713
H5K H 0.839(6) 0.864(6) 0.217(8)
H2K H 0.7375 0.9545 0.2476
H3K H 0.6318 0.9329 0.3743
Cl1F Cl 0.5000 0.7500 0.2857(2)
Cl2O Cl 0.40113(16) 0.44149(14) 0.57147(18)
S1 S -0.11780(12) 0.69608(13) 0.96146(14)
Cu1 Cu 0.0000 0.7500 1.04361(13)
Cl1 Cl 0.0000 0.7500 1.2143(2)
Cl2 Cl -0.30851(14) 0.84887(16) 0.82147(18)
Cu2 Cu -0.17297(8) 0.78782(10) 0.83972(12)
N1 N -0.3124(5) 0.6456(6) 1.2150(6)
C1 C -0.3245(6) 0.7124(7) 1.1500(8)
H1 H -0.3737 0.7490 1.1576
C2 C -0.2437(6) 0.5923(7) 1.2065(7)
H2 H -0.2375 0.5455 1.2524
C3 C -0.1805(6) 0.6045(6) 1.1305(7)
H3 H -0.1318 0.5671 1.1257
C4 C -0.1918(5) 0.6748(5) 1.0611(5)
C5 C -0.2673(6) 0.7280(6) 1.0738(7)
H4 H -0.2775 0.7747 1.0287
H5 H -0.339(6) 0.636(6) 1.283(8)
S1O S 0.11780(12) 0.80392(13) 0.96146(14)
Cu2O Cu 0.17297(8) 0.71218(10) 0.83972(12)
S1F S 0.05392(13) 0.63220(12) 0.78854(14)
Cu1F Cu 0.0000 0.7500 0.70639(13)
S1K S -0.05392(13) 0.86780(12) 0.78854(14)
Cu2K Cu 0.03782(10) 0.92297(8) 0.91028(12)
C4O C 0.1918(5) 0.8252(5) 1.0611(5)
C3O C 0.1805(6) 0.8955(6) 1.1305(7)
C2O C 0.2437(6) 0.9077(7) 1.2065(7)
N1O N 0.3124(5) 0.8544(6) 1.2150(6)
C1O C 0.3245(6) 0.7876(7) 1.1500(8)
H1O H 0.3737 0.7510 1.1576
C5O C 0.2673(6) 0.7720(6) 1.0738(7)
H4O H 0.2775 0.7253 1.0287
H5O H 0.339(6) 0.864(6) 1.283(8)
H2O H 0.2375 0.9545 1.2524
H3O H 0.1318 0.9329 1.1257
Cl2K Cl 0.09887(16) 1.05851(14) 0.92853(18)
Cu2F Cu -0.03782(10) 0.57703(8) 0.91028(12)
C4F C 0.0752(5) 0.5582(5) 0.6889(5)
C3F C 0.1455(6) 0.5695(6) 0.6195(7)
C2F C 0.1577(7) 0.5063(6) 0.5435(7)
N1F N 0.1044(6) 0.4376(5) 0.5350(6)
C1F C 0.0376(7) 0.4255(6) 0.6000(8)
H1F H 0.0010 0.3763 0.5924
C5F C 0.0220(6) 0.4827(6) 0.6762(7)
H4F H -0.0247 0.4725 0.7213
H5F H 0.114(6) 0.411(6) 0.467(8)
H2F H 0.2045 0.5125 0.4976
H3F H 0.1829 0.6182 0.6243
Cl2F Cl -0.09887(16) 0.44149(14) 0.92853(18)
C4K C -0.0752(5) 0.9418(5) 0.6889(5)
C3K C -0.1455(6) 0.9305(6) 0.6195(7)
C2K C -0.1577(7) 0.9937(6) 0.5435(7)
N1K N -0.1044(6) 1.0624(5) 0.5350(6)
C1K C -0.0376(7) 1.0745(6) 0.6000(8)
H1K H -0.0010 1.1237 0.5924
C5K C -0.0220(6) 1.0173(6) 0.6762(7)
H4K H 0.0247 1.0275 0.7213
H5K H -0.114(6) 1.089(6) 0.467(8)
H2K H -0.2045 0.9875 0.4976
H3K H -0.1829 0.8818 0.6243
Cl1F Cl 0.0000 0.7500 0.5357(2)
Cl2O Cl 0.30851(14) 0.65113(16) 0.82147(18)
S1 S 0.88220(12) 0.69608(13) 0.96146(14)
Cu1 Cu 1.0000 0.7500 1.04361(13)
Cl1 Cl 1.0000 0.7500 1.2143(2)
Cl2 Cl 0.69149(14) 0.84887(16) 0.82147(18)
Cu2 Cu 0.82703(8) 0.78782(10) 0.83972(12)
N1 N 0.6876(5) 0.6456(6) 1.2150(6)
C1 C 0.6755(6) 0.7124(7) 1.1500(8)
H1 H 0.6263 0.7490 1.1576
C2 C 0.7563(6) 0.5923(7) 1.2065(7)
H2 H 0.7625 0.5455 1.2524
C3 C 0.8195(6) 0.6045(6) 1.1305(7)
H3 H 0.8682 0.5671 1.1257
C4 C 0.8082(5) 0.6748(5) 1.0611(5)
C5 C 0.7327(6) 0.7280(6) 1.0738(7)
H4 H 0.7225 0.7747 1.0287
H5 H 0.661(6) 0.636(6) 1.283(8)
S1O S 1.11780(12) 0.80392(13) 0.96146(14)
Cu2O Cu 1.17297(8) 0.71218(10) 0.83972(12)
S1F S 1.05392(13) 0.63220(12) 0.78854(14)
Cu1F Cu 1.0000 0.7500 0.70639(13)
S1K S 0.94608(13) 0.86780(12) 0.78854(14)
Cu2K Cu 1.03782(10) 0.92297(8) 0.91028(12)
C4O C 1.1918(5) 0.8252(5) 1.0611(5)
C3O C 1.1805(6) 0.8955(6) 1.1305(7)
C2O C 1.2437(6) 0.9077(7) 1.2065(7)
N1O N 1.3124(5) 0.8544(6) 1.2150(6)
C1O C 1.3245(6) 0.7876(7) 1.1500(8)
H1O H 1.3737 0.7510 1.1576
C5O C 1.2673(6) 0.7720(6) 1.0738(7)
H4O H 1.2775 0.7253 1.0287
H5O H 1.339(6) 0.864(6) 1.283(8)
H2O H 1.2375 0.9545 1.2524
H3O H 1.1318 0.9329 1.1257
Cl2K Cl 1.09887(16) 1.05851(14) 0.92853(18)
Cu2F Cu 0.96218(10) 0.57703(8) 0.91028(12)
C4F C 1.0752(5) 0.5582(5) 0.6889(5)
C3F C 1.1455(6) 0.5695(6) 0.6195(7)
C2F C 1.1577(7) 0.5063(6) 0.5435(7)
N1F N 1.1044(6) 0.4376(5) 0.5350(6)
C1F C 1.0376(7) 0.4255(6) 0.6000(8)
H1F H 1.0010 0.3763 0.5924
C5F C 1.0220(6) 0.4827(6) 0.6762(7)
H4F H 0.9753 0.4725 0.7213
H5F H 1.114(6) 0.411(6) 0.467(8)
H2F H 1.2045 0.5125 0.4976
H3F H 1.1829 0.6182 0.6243
Cl2F Cl 0.90113(16) 0.44149(14) 0.92853(18)
C4K C 0.9248(5) 0.9418(5) 0.6889(5)
C3K C 0.8545(6) 0.9305(6) 0.6195(7)
C2K C 0.8423(7) 0.9937(6) 0.5435(7)
N1K N 0.8956(6) 1.0624(5) 0.5350(6)
C1K C 0.9624(7) 1.0745(6) 0.6000(8)
H1K H 0.9990 1.1237 0.5924
C5K C 0.9780(6) 1.0173(6) 0.6762(7)
H4K H 1.0247 1.0275 0.7213
H5K H 0.886(6) 1.089(6) 0.467(8)
H2K H 0.7955 0.9875 0.4976
H3K H 0.8171 0.8818 0.6243
Cl1F Cl 1.0000 0.7500 0.5357(2)
Cl2O Cl 1.30851(14) 0.65113(16) 0.82147(18)

#END
