./ABANIC_from_POSCAR.cif_generated_by_CrystalShift
_symmetry_cell_setting triclinic
_symmetry_space_group_name_H-M 'P 1'
loop_
_symmetry_equiv_pos_site_id
_symmetry_equiv_pos_as_xyz
1 x,y,z
_cell_length_a 10.798800
_cell_length_b 12.050900
_cell_length_c 15.023800
_cell_angle_alpha 90.000000
_cell_angle_beta 104.536000
_cell_angle_gamma 90.000000
_cell_volume 1892.542772
loop_
_atom_site_label
_atom_site_type_symbol
_atom_site_fract_x
_atom_site_fract_y
_atom_site_fract_z
H1 H 0.728000 -0.047400 0.632200
H2 H 0.575300 0.132500 0.548200
H3 H 0.531800 0.036400 0.604400
H4 H 0.581300 0.198100 0.694700
H5 H 0.669200 0.098900 0.739400
H6 H 1.363100 0.133200 0.757300
H7 H 1.287300 0.108300 0.831500
H8 H 1.404200 0.266100 0.878500
H9 H 1.355500 0.321100 0.781200
H10 H 1.208100 0.283700 0.908800
H11 H 1.240200 0.399900 0.873500
H12 H 0.992400 0.217300 0.575000
H13 H 0.998900 0.420900 0.603200
H14 H 0.746400 0.352500 0.542100
H15 H 0.925100 0.602100 0.594200
H16 H 0.857800 0.778300 0.544400
H17 H 0.940900 0.364900 0.763200
H18 H 0.668200 0.801000 0.434500
H19 H 0.988200 0.055200 0.585100
H20 H 0.542700 0.649900 0.377500
H21 H 0.430200 0.379100 0.345600
H22 H 0.482500 0.479900 0.300100
H23 H 0.416600 0.500000 0.380500
H24 H 0.772000 0.452600 0.867800
H25 H 0.811900 0.477500 0.973500
H26 H 0.924700 0.632500 0.951800
H27 H 0.968200 0.536400 0.895600
H28 H -0.083400 0.000000 -0.119500
H29 H -0.017500 0.020100 -0.199900
H30 H -0.069800 0.120900 -0.154400
H31 H 0.042700 -0.149900 -0.122500
H32 H 0.488200 0.444800 0.085100
H33 H 0.168200 -0.301000 -0.065500
H34 H 0.440900 0.135100 0.263200
H35 H 0.357800 -0.278300 0.044400
H36 H 0.425100 -0.102100 0.094200
H37 H 0.246400 0.147500 0.042100
H38 H 0.498900 0.079100 0.103200
H39 H 0.492400 0.282700 0.075000
H40 H 0.740200 0.100100 0.373500
H41 H 0.708100 0.216300 0.408800
H42 H 0.855500 0.178900 0.281200
H43 H 0.904200 0.233900 0.378500
H44 H 0.787300 0.391700 0.331500
H45 H 0.863100 0.366800 0.257300
H46 H 0.169200 0.401100 0.239400
H47 H 0.081300 0.301900 0.194700
H48 H 0.031800 0.463600 0.104400
H49 H 0.075300 0.367500 0.048200
H50 H 0.188100 0.522500 0.026500
H51 H 0.228000 0.547400 0.132200
H52 H 0.918700 0.698100 0.805300
H53 H 0.830800 0.598900 0.760600
H54 H 0.136900 0.633200 0.742700
H55 H 0.212700 0.608300 0.668500
H56 H 0.095800 0.766100 0.621500
H57 H 0.144500 0.821100 0.718800
H58 H 0.291900 0.783700 0.591200
H59 H 0.259800 0.899900 0.626500
H60 H 0.507600 0.717300 0.925000
H61 H 0.501100 0.920900 0.896800
H62 H 0.753600 0.852500 0.957900
H63 H 0.574900 1.102100 0.905800
H64 H 0.642200 1.278300 0.955600
H65 H 0.559100 0.864900 0.736800
H66 H 0.831800 1.301000 1.065500
H67 H 0.511800 0.555200 0.914900
H68 H 0.957300 1.149900 1.122500
H69 H 1.069800 0.879100 1.154400
H70 H 1.017500 0.979900 1.199900
H71 H 1.083400 1.000000 1.119500
H72 H 0.272000 1.047400 0.367800
H73 H 0.311900 1.022500 0.473500
H74 H 0.424700 0.867500 0.451800
H75 H 0.468200 0.963600 0.395600
H76 H 0.418700 0.801900 0.305300
H77 H 0.330800 0.901100 0.260600
H78 H -0.363100 0.866800 0.242700
H79 H 0.583400 0.500000 0.619500
H80 H 0.517500 0.520100 0.699900
H81 H 0.569800 0.620900 0.654400
H82 H 0.457300 0.350100 0.622500
H83 H 0.011800 0.944800 0.414900
H84 H 0.331800 0.199000 0.565500
H85 H 0.059100 0.635100 0.236800
H86 H 0.142200 0.221700 0.455600
H87 H 0.074900 0.397900 0.405800
H88 H 0.253600 0.647500 0.457900
H89 H 0.001100 0.579100 0.396800
H90 H 0.007600 0.782700 0.425000
H91 H -0.240200 0.600100 0.126500
H92 H -0.208100 0.716300 0.091200
H93 H -0.355500 0.678900 0.218800
H94 H -0.404200 0.733900 0.121500
H95 H -0.287300 0.891700 0.168500
H96 H 0.688100 -0.022500 0.526500
C97 C 0.167090 0.924260 0.404610
C98 C 0.287500 0.988470 0.413160
C99 C 0.396510 0.917150 0.399850
C100 C 0.350760 0.850940 0.312720
C101 C 0.234230 0.783320 0.313800
C102 C -0.171650 0.837790 0.289910
C103 C -0.029750 0.049330 -0.143360
C104 C 0.159600 -0.033970 -0.049100
C105 C 0.119980 -0.139770 -0.079010
C106 C 0.194880 -0.230240 -0.044420
C107 C 0.308220 -0.217030 0.020580
C108 C 1.029750 0.950670 1.143360
C109 C 0.840400 1.033970 1.049100
C110 C 0.880020 1.139770 1.079010
C111 C 0.805120 1.230240 1.044420
C112 C 0.691780 1.217030 0.979420
C113 C 0.652080 1.110980 0.949680
C114 C 0.723740 1.017610 0.983340
C115 C 0.686360 0.904590 0.949900
C116 C 0.571140 0.870130 0.906970
C117 C 0.535970 0.751800 0.874480
C118 C 0.418650 0.747120 0.792680
C119 C 0.401220 0.819800 0.718810
C120 C 0.279790 0.823410 0.644500
C121 C 0.168700 0.772970 0.674200
C122 C 0.204660 0.659850 0.716340
C123 C 0.328350 0.662210 0.789910
C124 C 0.734230 0.716680 0.813800
C125 C 0.850760 0.649060 0.812720
C126 C 0.896510 0.582850 0.899850
C127 C 0.787500 0.511530 0.913160
C128 C 0.667090 0.575740 0.904610
C129 C 0.649390 0.682160 0.865480
C130 C -0.295340 0.840150 0.216340
C131 C -0.331300 0.727030 0.174200
C132 C -0.220210 0.676590 0.144500
C133 C -0.098780 0.680200 0.218810
C134 C -0.081350 0.752880 0.292680
C135 C 0.035970 0.748200 0.374480
C136 C 0.071140 0.629870 0.406970
C137 C 0.186360 0.595410 0.449900
C138 C 0.223740 0.482390 0.483340
C139 C 0.152080 0.389020 0.449680
C140 C 0.191780 0.282970 0.479420
C141 C 0.305120 0.269760 0.544420
C142 C 0.380020 0.360230 0.579010
C143 C 0.340400 0.466030 0.549100
C144 C 0.529750 0.549330 0.643360
C145 C 0.347920 -0.110980 0.050320
C146 C 0.276260 -0.017610 0.016660
C147 C 0.313640 0.095410 0.050100
C148 C 0.428860 0.129870 0.093030
C149 C 0.464030 0.248200 0.125520
C150 C 0.350610 0.317840 0.134520
C151 C 0.332910 0.424260 0.095390
C152 C 0.212500 0.488470 0.086840
C153 C 0.103490 0.417150 0.100150
C154 C 0.581350 0.252880 0.207320
C155 C 0.598780 0.180200 0.281190
C156 C 0.720210 0.176590 0.355500
C157 C 0.831300 0.227030 0.325800
C158 C 0.795340 0.340150 0.283660
C159 C 0.470250 0.450670 0.356640
C160 C 0.659600 0.533970 0.450900
C161 C 0.619980 0.639770 0.420990
C162 C 0.694880 0.730240 0.455580
C163 C 0.808220 0.717030 0.520580
C164 C 0.847920 0.610980 0.550320
C165 C 0.776260 0.517610 0.516660
C166 C 0.813640 0.404590 0.550100
C167 C 0.928860 0.370130 0.593030
C168 C 0.964030 0.251800 0.625520
C169 C 1.081350 0.247120 0.707320
C170 C 1.098780 0.319800 0.781190
C171 C 1.220210 0.323410 0.855500
C172 C 1.331300 0.272970 0.825800
C173 C 1.295340 0.159850 0.783660
C174 C 1.171650 0.162210 0.710090
C175 C 0.765770 0.216680 0.686200
C176 C 0.649240 0.149060 0.687280
C177 C 0.603490 0.082850 0.600150
C178 C 0.712500 0.011530 0.586840
C179 C 0.832910 0.075740 0.595390
C180 C 0.850610 0.182160 0.634520
C181 C 0.149240 0.350940 0.187280
C182 C 0.265770 0.283320 0.186200
C183 C 0.671650 0.337790 0.210090
C184 C 0.149390 0.817840 0.365480
O185 O 1.011140 0.387470 0.792050
O186 O 0.918280 0.026330 0.563640
O187 O 0.783130 0.304590 0.735710
O188 O 0.590430 0.440220 0.421330
O189 O 0.409570 0.559780 0.578670
O190 O 0.216870 0.695410 0.264290
O191 O 0.081720 0.973670 0.436360
O192 O -0.011140 0.612530 0.207950
O193 O -0.153680 0.917830 0.347550
O194 O 0.346320 0.582170 0.847550
O195 O 0.488860 0.887470 0.707950
O196 O 0.581720 0.526330 0.936360
O197 O 0.716870 0.804590 0.764290
O198 O 0.909570 0.940220 1.078670
O199 O 0.653680 0.417830 0.152450
O200 O 0.511140 0.112530 0.292050
O201 O 0.418280 0.473670 0.063640
O202 O 0.283130 0.195410 0.235710
O203 O 1.153680 0.082170 0.652450
O204 O 0.090430 0.059780 -0.078670

#END
