
#######################################################################
#
#                 Cambridge Crystallographic Data Centre
#                                CCDC 
#
#######################################################################
#
# If this CIF has been generated from an entry in the Cambridge 
# Structural Database, then it will include bibliographic, chemical, 
# crystal, experimental, refinement or atomic coordinate data resulting 
# from the CCDC's data processing and validation procedures.
#
#######################################################################

data_ABANIC
_symmetry_cell_setting           monoclinic
_symmetry_space_group_name_H-M   'P 21/n'
_symmetry_Int_Tables_number      14
_space_group_name_Hall           '-P 2yn'
loop_
_symmetry_equiv_pos_site_id
_symmetry_equiv_pos_as_xyz
1 x,y,z
2 1/2-x,1/2+y,1/2-z
3 -x,-y,-z
4 1/2+x,1/2-y,1/2+z
_cell_length_a                   10.7988(8)
_cell_length_b                   12.0509(8)
_cell_length_c                   15.0238(10)
_cell_angle_alpha                90
_cell_angle_beta                 104.536(2)
_cell_angle_gamma                90
_cell_volume                     1892.54
loop_
_atom_site_label
_atom_site_type_symbol
_atom_site_fract_x
_atom_site_fract_y
_atom_site_fract_z
O1 O 0.09043(11) 0.05978(9) -0.07867(8)
O2 O 0.28313(11) 0.19541(10) 0.23571(8)
O3 O 0.41828(12) 0.47367(10) 0.06364(9)
O4 O 0.51114(12) 0.11253(10) 0.29205(9)
O5 O 0.65368(11) 0.41783(9) 0.15245(8)
C1 C -0.02975(16) 0.04933(18) -0.14336(13)
C2 C 0.15960(14) -0.03397(12) -0.04910(10)
C3 C 0.11998(17) -0.13977(14) -0.07901(12)
C4 C 0.19488(18) -0.23024(14) -0.04442(14)
C5 C 0.30822(16) -0.21703(13) 0.02058(13)
C6 C 0.34792(15) -0.11098(12) 0.05032(11)
C7 C 0.27626(13) -0.01761(12) 0.01666(10)
C8 C 0.31364(14) 0.09541(12) 0.05010(10)
C9 C 0.42886(14) 0.12987(12) 0.09303(10)
C10 C 0.46403(12) 0.24820(11) 0.12552(10)
C11 C 0.58135(13) 0.25288(11) 0.20732(10)
C12 C 0.59878(15) 0.18020(13) 0.28119(11)
C13 C 0.72021(16) 0.17659(15) 0.35550(12)
C14 C 0.83130(17) 0.22703(16) 0.32580(14)
C15 C 0.79534(15) 0.34015(16) 0.28366(13)
C16 C 0.67165(14) 0.33779(13) 0.21009(11)
C17 C 0.26577(14) 0.28332(13) 0.18620(11)
C18 C 0.14924(15) 0.35094(15) 0.18728(12)
C19 C 0.10349(16) 0.41715(15) 0.10015(13)
C20 C 0.21250(16) 0.48847(15) 0.08684(13)
C21 C 0.33291(15) 0.42426(12) 0.09539(11)
C22 C 0.35061(13) 0.31784(11) 0.13452(10)
H1 H -0.0834 0.0000 -0.1195
H2 H -0.0175 0.0201 -0.1999
H3 H -0.0698 0.1209 -0.1544
H4 H 0.0427 -0.1499 -0.1225
H5 H 0.4882 0.4448 0.0851
H6 H 0.1682 -0.3010 -0.0655
H7 H 0.4409 0.1351 0.2632
H8 H 0.3578 -0.2783 0.0444
H9 H 0.4251 -0.1021 0.0942
H10 H 0.2464(14) 0.1475(12) 0.0421(10)
H11 H 0.4989(16) 0.0791(13) 0.1032(11)
H12 H 0.4924 0.2827 0.0750
H13 H 0.7402 0.1001 0.3735
H14 H 0.7081 0.2163 0.4088
H15 H 0.8555 0.1789 0.2812
H16 H 0.9042 0.2339 0.3785
H17 H 0.7873 0.3917 0.3315
H18 H 0.8631 0.3668 0.2573
H19 H 0.1692 0.4011 0.2394
H20 H 0.0813 0.3019 0.1947
H21 H 0.0318 0.4636 0.1044
H22 H 0.0753 0.3675 0.0482
H23 H 0.1881 0.5225 0.0265
H24 H 0.2280 0.5474 0.1322
O1 O 0.40957(11) 0.55978(9) 0.57867(8)
O2 O 0.21687(11) 0.69541(10) 0.26429(8)
O3 O 0.08172(12) 0.97367(10) 0.43636(9)
O4 O -0.01114(12) 0.61253(10) 0.20795(9)
O5 O -0.15368(11) 0.91783(9) 0.34755(8)
C1 C 0.52975(16) 0.54933(18) 0.64336(13)
C2 C 0.34040(14) 0.46603(12) 0.54910(10)
C3 C 0.38002(17) 0.36023(14) 0.57901(12)
C4 C 0.30512(18) 0.26976(14) 0.54442(14)
C5 C 0.19178(16) 0.28297(13) 0.47942(13)
C6 C 0.15208(15) 0.38902(12) 0.44968(11)
C7 C 0.22374(13) 0.48239(12) 0.48334(10)
C8 C 0.18636(14) 0.59541(12) 0.44990(10)
C9 C 0.07114(14) 0.62987(12) 0.40697(10)
C10 C 0.03597(12) 0.74820(11) 0.37448(10)
C11 C -0.08135(13) 0.75288(11) 0.29268(10)
C12 C -0.09878(15) 0.68020(13) 0.21881(11)
C13 C -0.22021(16) 0.67659(15) 0.14450(12)
C14 C -0.33130(17) 0.72703(16) 0.17420(14)
C15 C -0.29534(15) 0.84015(16) 0.21634(13)
C16 C -0.17165(14) 0.83779(13) 0.28991(11)
C17 C 0.23423(14) 0.78332(13) 0.31380(11)
C18 C 0.35076(15) 0.85094(15) 0.31272(12)
C19 C 0.39651(16) 0.91715(15) 0.39985(13)
C20 C 0.28750(16) 0.98847(15) 0.41316(13)
C21 C 0.16709(15) 0.92426(12) 0.40461(11)
C22 C 0.14939(13) 0.81784(11) 0.36548(10)
H1 H 0.5834 0.5000 0.6195
H2 H 0.5175 0.5201 0.6999
H3 H 0.5698 0.6209 0.6544
H4 H 0.4573 0.3501 0.6225
H5 H 0.0118 0.9448 0.4149
H6 H 0.3318 0.1990 0.5655
H7 H 0.0591 0.6351 0.2368
H8 H 0.1422 0.2217 0.4556
H9 H 0.0749 0.3979 0.4058
H10 H 0.2536(14) 0.6475(12) 0.4579(10)
H11 H 0.0011(16) 0.5791(13) 0.3968(11)
H12 H 0.0076 0.7827 0.4250
H13 H -0.2402 0.6001 0.1265
H14 H -0.2081 0.7163 0.0912
H15 H -0.3555 0.6789 0.2188
H16 H -0.4042 0.7339 0.1215
H17 H -0.2873 0.8917 0.1685
H18 H -0.3631 0.8668 0.2427
H19 H 0.3308 0.9011 0.2606
H20 H 0.4187 0.8019 0.3053
H21 H 0.4682 0.9636 0.3956
H22 H 0.4247 0.8675 0.4518
H23 H 0.3119 1.0225 0.4735
H24 H 0.2720 1.0474 0.3678
O1 O 0.90957(11) 0.94022(9) 1.07867(8)
O2 O 0.71687(11) 0.80459(10) 0.76429(8)
O3 O 0.58172(12) 0.52633(10) 0.93636(9)
O4 O 0.48886(12) 0.88747(10) 0.70795(9)
O5 O 0.34632(11) 0.58217(9) 0.84755(8)
C1 C 1.02975(16) 0.95067(18) 1.14336(13)
C2 C 0.84040(14) 1.03397(12) 1.04910(10)
C3 C 0.88002(17) 1.13977(14) 1.07901(12)
C4 C 0.80512(18) 1.23024(14) 1.04442(14)
C5 C 0.69178(16) 1.21703(13) 0.97942(13)
C6 C 0.65208(15) 1.11098(12) 0.94968(11)
C7 C 0.72374(13) 1.01761(12) 0.98334(10)
C8 C 0.68636(14) 0.90459(12) 0.94990(10)
C9 C 0.57114(14) 0.87013(12) 0.90697(10)
C10 C 0.53597(12) 0.75180(11) 0.87448(10)
C11 C 0.41865(13) 0.74712(11) 0.79268(10)
C12 C 0.40122(15) 0.81980(13) 0.71881(11)
C13 C 0.27979(16) 0.82341(15) 0.64450(12)
C14 C 0.16870(17) 0.77297(16) 0.67420(14)
C15 C 0.20466(15) 0.65985(16) 0.71634(13)
C16 C 0.32835(14) 0.66221(13) 0.78991(11)
C17 C 0.73423(14) 0.71668(13) 0.81380(11)
C18 C 0.85076(15) 0.64906(15) 0.81272(12)
C19 C 0.89651(16) 0.58285(15) 0.89985(13)
C20 C 0.78750(16) 0.51153(15) 0.91316(13)
C21 C 0.66709(15) 0.57574(12) 0.90461(11)
C22 C 0.64939(13) 0.68216(11) 0.86548(10)
H1 H 1.0834 1.0000 1.1195
H2 H 1.0175 0.9799 1.1999
H3 H 1.0698 0.8791 1.1544
H4 H 0.9573 1.1499 1.1225
H5 H 0.5118 0.5552 0.9149
H6 H 0.8318 1.3010 1.0655
H7 H 0.5591 0.8649 0.7368
H8 H 0.6422 1.2783 0.9556
H9 H 0.5749 1.1021 0.9058
H10 H 0.7536(14) 0.8525(12) 0.9579(10)
H11 H 0.5011(16) 0.9209(13) 0.8968(11)
H12 H 0.5076 0.7173 0.9250
H13 H 0.2598 0.8999 0.6265
H14 H 0.2919 0.7837 0.5912
H15 H 0.1445 0.8211 0.7188
H16 H 0.0958 0.7661 0.6215
H17 H 0.2127 0.6083 0.6685
H18 H 0.1369 0.6332 0.7427
H19 H 0.8308 0.5989 0.7606
H20 H 0.9187 0.6981 0.8053
H21 H 0.9682 0.5364 0.8956
H22 H 0.9247 0.6325 0.9518
H23 H 0.8119 0.4775 0.9735
H24 H 0.7720 0.4526 0.8678
O1 O 0.59043(11) 0.44022(9) 0.42133(8)
O2 O 0.78313(11) 0.30459(10) 0.73571(8)
O3 O 0.91828(12) 0.02633(10) 0.56364(9)
O4 O 1.01114(12) 0.38747(10) 0.79205(9)
O5 O 1.15368(11) 0.08217(9) 0.65245(8)
C1 C 0.47025(16) 0.45067(18) 0.35664(13)
C2 C 0.65960(14) 0.53397(12) 0.45090(10)
C3 C 0.61998(17) 0.63977(14) 0.42099(12)
C4 C 0.69488(18) 0.73024(14) 0.45558(14)
C5 C 0.80822(16) 0.71703(13) 0.52058(13)
C6 C 0.84792(15) 0.61098(12) 0.55032(11)
C7 C 0.77626(13) 0.51761(12) 0.51666(10)
C8 C 0.81364(14) 0.40459(12) 0.55010(10)
C9 C 0.92886(14) 0.37013(12) 0.59303(10)
C10 C 0.96403(12) 0.25180(11) 0.62552(10)
C11 C 1.08135(13) 0.24712(11) 0.70732(10)
C12 C 1.09878(15) 0.31980(13) 0.78119(11)
C13 C 1.22021(16) 0.32341(15) 0.85550(12)
C14 C 1.33130(17) 0.27297(16) 0.82580(14)
C15 C 1.29534(15) 0.15985(16) 0.78366(13)
C16 C 1.17165(14) 0.16221(13) 0.71009(11)
C17 C 0.76577(14) 0.21668(13) 0.68620(11)
C18 C 0.64924(15) 0.14906(15) 0.68728(12)
C19 C 0.60349(16) 0.08285(15) 0.60015(13)
C20 C 0.71250(16) 0.01153(15) 0.58684(13)
C21 C 0.83291(15) 0.07574(12) 0.59539(11)
C22 C 0.85061(13) 0.18216(11) 0.63452(10)
H1 H 0.4166 0.5000 0.3805
H2 H 0.4825 0.4799 0.3001
H3 H 0.4302 0.3791 0.3456
H4 H 0.5427 0.6499 0.3775
H5 H 0.9882 0.0552 0.5851
H6 H 0.6682 0.8010 0.4345
H7 H 0.9409 0.3649 0.7632
H8 H 0.8578 0.7783 0.5444
H9 H 0.9251 0.6021 0.5942
H10 H 0.7464(14) 0.3525(12) 0.5421(10)
H11 H 0.9989(16) 0.4209(13) 0.6032(11)
H12 H 0.9924 0.2173 0.5750
H13 H 1.2402 0.3999 0.8735
H14 H 1.2081 0.2837 0.9088
H15 H 1.3555 0.3211 0.7812
H16 H 1.4042 0.2661 0.8785
H17 H 1.2873 0.1083 0.8315
H18 H 1.3631 0.1332 0.7573
H19 H 0.6692 0.0989 0.7394
H20 H 0.5813 0.1981 0.6947
H21 H 0.5318 0.0364 0.6044
H22 H 0.5753 0.1325 0.5482
H23 H 0.6881 -0.0225 0.5265
H24 H 0.7280 -0.0474 0.6322

#END
