./ABAQOL_from_POSCAR.cif_generated_by_CrystalShift
_symmetry_cell_setting triclinic
_symmetry_space_group_name_H-M 'P 1'
loop_
_symmetry_equiv_pos_site_id
_symmetry_equiv_pos_as_xyz
1 x,y,z
_cell_length_a 16.994100
_cell_length_b 5.889500
_cell_length_c 12.093000
_cell_angle_alpha 90.000000
_cell_angle_beta 91.770000
_cell_angle_gamma 90.000000
_cell_volume 1209.771597
loop_
_atom_site_label
_atom_site_type_symbol
_atom_site_fract_x
_atom_site_fract_y
_atom_site_fract_z
H1 H 0.329900 0.642300 0.694000
H2 H 0.055900 -0.173400 0.995200
H3 H 0.249500 -0.023900 0.736900
H4 H 0.162000 -0.323400 0.710300
H5 H 0.944100 0.326600 0.504800
H6 H 0.838000 0.176600 0.789700
H7 H 0.329900 -0.142300 0.194000
H8 H 0.750500 0.476100 0.763100
H9 H 0.402900 -0.062100 0.040000
H10 H 0.605200 0.543400 0.672200
H11 H 0.473600 0.271900 0.031400
H12 H 0.530200 0.468400 0.825000
H13 H 0.469800 0.531600 0.175000
H14 H 0.526400 0.728100 0.968600
H15 H 0.394800 0.456600 0.327800
H16 H 0.597100 1.062100 0.960000
H17 H 0.670100 1.142300 0.806000
H18 H 0.473600 0.228100 0.531400
H19 H 0.469800 -0.031600 0.675000
H20 H 0.944100 1.173400 0.004800
H21 H 0.249500 0.523900 0.236900
H22 H 0.838000 1.323400 0.289700
H23 H 0.162000 0.823400 0.210300
H24 H 0.750500 1.023900 0.263100
H25 H 0.402900 0.562100 0.540000
H26 H 0.055900 0.673400 0.495200
H27 H 0.605200 0.956600 0.172200
H28 H 0.530200 1.031600 0.325000
H29 H 0.526400 0.771900 0.468600
H30 H 0.597100 0.437900 0.460000
H31 H 0.670100 0.357700 0.306000
H32 H 0.394800 0.043400 0.827800
C33 C 0.642290 0.493300 0.309740
C34 C 0.355310 0.351800 0.776730
C35 C 0.598290 0.541000 0.401820
C36 C 0.309520 0.403500 0.875440
C37 C 0.556290 0.741300 0.407220
C38 C 0.094320 -0.142500 0.944190
C39 C 0.558560 0.896900 0.321170
C40 C 0.225870 0.376700 1.007090
C41 C 0.603090 0.851500 0.229430
C42 C 0.146230 0.462900 0.459090
C43 C 0.094320 0.642500 0.444190
C44 C 0.690480 0.596500 0.124560
C45 C 0.774130 0.623300 -0.007090
C46 C 0.795400 0.920200 0.118170
C47 C 0.788920 1.053500 0.211890
C48 C 0.101950 0.774400 0.349980
C49 C 0.841070 1.231700 0.227360
C50 C 0.158930 0.731700 0.272640
C51 C 0.898050 1.274400 0.150020
C52 C 0.905680 1.142500 0.055810
C53 C 0.211080 0.553500 0.288110
C54 C 0.853770 0.962900 0.040910
C55 C 0.396910 0.148500 0.770570
C56 C 0.101950 -0.274400 0.849980
C57 C 0.204600 0.420200 0.381830
C58 C 0.441440 0.103100 0.678830
C59 C 0.225870 0.123300 0.507090
C60 C 0.642290 1.006700 0.809740
C61 C 0.309520 0.096500 0.375440
C62 C 0.598290 0.959000 0.901820
C63 C 0.355310 0.148200 0.276730
C64 C 0.556290 0.758700 0.907220
C65 C 0.396910 0.351500 0.270570
C66 C 0.558560 0.603100 0.821170
C67 C 0.441440 0.396900 0.178830
C68 C 0.603090 0.648500 0.729430
C69 C 0.443710 0.241300 0.092780
C70 C 0.644690 0.851800 0.723270
C71 C 0.690480 0.903500 0.624560
C72 C 0.774130 0.876700 0.492910
C73 C 0.795400 0.579800 0.618170
C74 C 0.788920 0.446500 0.711890
C75 C 0.401710 0.041000 0.098180
C76 C 0.841070 0.268300 0.727360
C77 C 0.357710 -0.006700 0.190260
C78 C 0.898050 0.225600 0.650020
C79 C 0.905680 0.357500 0.555810
C80 C 0.204600 0.079800 0.881830
C81 C 0.853770 0.537100 0.540910
C82 C 0.443710 0.258700 0.592780
C83 C 0.211080 -0.053500 0.788110
C84 C 0.644690 0.648200 0.223270
C85 C 0.401710 0.459000 0.598180
C86 C 0.146230 0.037100 0.959090
C87 C 0.357710 0.506700 0.690260
C88 C 0.158930 -0.231700 0.772640
N89 N 0.319880 0.578100 0.941940
N90 N 0.249620 0.268990 0.913120
N91 N 0.249620 0.231010 0.413120
N92 N 0.734460 1.062130 0.472740
N93 N 0.680120 1.078100 0.558060
N94 N 0.750380 0.768990 0.586880
N95 N 0.319880 -0.078100 0.441940
N96 N 0.734460 0.437870 -0.027260
N97 N 0.680120 0.421900 0.058060
N98 N 0.750380 0.731010 0.086880
N99 N 0.265540 -0.062130 0.527260
N100 N 0.265540 0.562130 1.027260
S101 S 0.147760 0.236760 1.068130
S102 S 0.852240 0.736760 0.431870
S103 S 0.852240 0.763240 -0.068130
S104 S 0.147760 0.263240 0.568130
Cl105 Cl 0.962170 1.500560 0.174420
Cl106 Cl 0.037830 1.000560 0.325580
Cl107 Cl 0.962170 -0.000560 0.674420
Cl108 Cl 0.037830 -0.500560 0.825580

#END
