./ABAVEG_from_POSCAR.cif_generated_by_CrystalShift
_symmetry_cell_setting triclinic
_symmetry_space_group_name_H-M 'P 1'
loop_
_symmetry_equiv_pos_site_id
_symmetry_equiv_pos_as_xyz
1 x,y,z
_cell_length_a 5.976300
_cell_length_b 7.336300
_cell_length_c 13.487200
_cell_angle_alpha 80.545000
_cell_angle_beta 80.030000
_cell_angle_gamma 86.569000
_cell_volume 574.189657
loop_
_atom_site_label
_atom_site_type_symbol
_atom_site_fract_x
_atom_site_fract_y
_atom_site_fract_z
H1 H 0.423000 -0.473000 0.913000
H2 H 0.522600 0.248100 0.556100
H3 H 0.331900 0.355700 0.496800
H4 H 0.346000 0.134500 0.515600
H5 H -0.072400 0.152500 0.594200
H6 H 1.065200 0.911300 0.184600
H7 H -0.057100 0.372900 0.573500
H8 H -0.147900 0.268400 0.685900
H9 H 0.453400 1.013800 0.347400
H10 H 0.144500 0.409900 0.758800
H11 H 0.229700 0.523400 0.648000
H12 H 1.061000 1.306900 -0.011500
H13 H 0.406700 0.398000 0.708200
H14 H -0.061000 -0.306900 1.011500
H15 H 0.546600 -0.013800 0.652600
H16 H 0.593300 0.602000 0.291800
H17 H 0.770300 0.476600 0.352000
H18 H 0.855500 0.590100 0.241200
H19 H -0.065200 0.088700 0.815400
H20 H 1.147900 0.731600 0.314100
H21 H 1.057100 0.627100 0.426500
H22 H 1.072400 0.847500 0.405800
H23 H 0.577000 1.473000 0.087000
H24 H 0.654000 0.865500 0.484400
H25 H 0.668100 0.644300 0.503200
H26 H 0.477400 0.751900 0.443900
H27 H 1.527000 1.111000 -0.064000
H28 H -0.527000 -0.111000 1.064000
C29 C 0.712090 1.260030 0.137090
C30 C 0.910330 1.145960 0.124550
C31 C 0.634500 0.754400 0.455540
C32 C 0.365500 0.245600 0.544460
C33 C 0.287910 -0.260030 0.862910
C34 C 0.089670 -0.145960 0.875450
C35 C 0.931530 0.987380 0.194820
C36 C 0.068470 0.012620 0.805180
C37 C 1.040600 0.739160 0.377220
C38 C 0.234530 0.065920 0.720000
C39 C 0.429080 -0.045800 0.708990
C40 C 0.749800 0.591450 0.305380
C41 C 0.455830 -0.204160 0.778980
C42 C -0.087470 -0.201530 0.963240
C43 C 0.797040 0.756810 0.354170
C44 C 0.765470 0.934080 0.280000
C45 C 0.202960 0.243190 0.645830
C46 C 0.250200 0.408550 0.694620
C47 C 0.570920 1.045800 0.291010
C48 C 1.087470 1.201530 0.036760
C49 C 0.544170 1.204160 0.221020
C50 C -0.040600 0.260840 0.622780
N51 N 1.276310 1.111190 0.023960
N52 N -0.276310 -0.111190 0.976040
N53 N 0.666570 -0.313130 0.761460
N54 N 0.333430 1.313130 0.238540
O55 O 0.299980 -0.412950 0.931910
O56 O 0.187770 1.259010 0.311420
O57 O -0.420170 -0.189860 1.064680
O58 O 0.692450 -0.457840 0.821380
O59 O 0.812230 -0.259010 0.688580
O60 O 0.307550 1.457840 0.178620
O61 O 1.420170 1.189860 -0.064680
O62 O 0.700020 1.412950 0.068090

#END
