./ABAWIK_from_POSCAR.cif_generated_by_CrystalShift
_symmetry_cell_setting triclinic
_symmetry_space_group_name_H-M 'P 1'
loop_
_symmetry_equiv_pos_site_id
_symmetry_equiv_pos_as_xyz
1 x,y,z
_cell_length_a 10.800000
_cell_length_b 4.806000
_cell_length_c 17.078000
_cell_angle_alpha 90.000000
_cell_angle_beta 99.400000
_cell_angle_gamma 90.000000
_cell_volume 874.527333
loop_
_atom_site_label
_atom_site_type_symbol
_atom_site_fract_x
_atom_site_fract_y
_atom_site_fract_z
H1 H 1.069300 0.304400 0.842000
H2 H 0.430700 0.804400 0.658000
H3 H 0.695400 0.053900 0.913100
H4 H -0.069300 0.695600 0.158000
H5 H 0.304600 0.946100 0.086900
H6 H 0.804600 0.553900 0.586900
H7 H 0.569300 0.195600 0.342000
H8 H 0.195400 0.446100 0.413100
C9 C 0.930500 0.571300 0.835500
C10 C 0.524500 0.165200 0.233300
C11 C 0.617500 0.378300 0.216800
C12 C 1.024500 0.334800 0.733300
C13 C 0.430500 -0.071300 0.335500
C14 C 0.362500 1.241300 -0.020600
C15 C 0.252900 1.055300 -0.015500
C16 C 0.317900 0.085800 0.355800
C17 C 0.847800 0.260800 0.933900
C18 C 0.152200 0.739200 0.066100
C19 C 0.182100 0.585800 0.144200
C20 C 0.069500 0.428700 0.164500
C21 C 0.747100 -0.055300 1.015500
C22 C 0.637500 -0.241300 1.020600
C23 C -0.024500 0.665200 0.266700
C24 C -0.117500 0.878300 0.283200
C25 C 0.347800 0.239200 0.433900
C26 C 1.117500 0.121700 0.716800
C27 C 0.862500 0.258700 0.479400
C28 C 0.752900 0.444700 0.484500
C29 C 0.247100 0.555300 0.515500
C30 C 0.817900 0.414200 0.855800
C31 C 0.652200 0.760800 0.566100
C32 C 0.682100 0.914200 0.644200
C33 C 0.569500 1.071300 0.664500
C34 C 0.382500 0.621700 0.783200
C35 C 0.475500 0.834800 0.766700
C36 C 0.137500 0.741300 0.520600
N37 N 0.477400 0.888500 0.690600
N38 N 0.754900 0.583900 0.551800
N39 N 0.245100 0.416100 0.448200
N40 N 0.522600 0.111500 0.309400
N41 N -0.022600 0.611500 0.190600
N42 N 1.022600 0.388500 0.809400
N43 N 0.745100 0.083900 0.948200
N44 N 0.254900 0.916100 0.051800
O45 O 0.455000 0.047400 0.179800
O46 O 0.834600 -0.029400 1.071100
O47 O 0.955000 0.452600 0.679800
O48 O 0.045000 0.547400 0.320200
O49 O 0.665400 0.470600 0.428900
O50 O 0.334600 0.529400 0.571100
O51 O 0.545000 0.952600 0.820200
O52 O 0.165400 1.029400 -0.071100

#END
