
#######################################################################
#
#                 Cambridge Crystallographic Data Centre
#                                CCDC 
#
#######################################################################
#
# If this CIF has been generated from an entry in the Cambridge 
# Structural Database, then it will include bibliographic, chemical, 
# crystal, experimental, refinement or atomic coordinate data resulting 
# from the CCDC's data processing and validation procedures.
#
#######################################################################

data_ABAWUY
_symmetry_cell_setting           monoclinic
_symmetry_space_group_name_H-M   'C 2/c'
_symmetry_Int_Tables_number      15
_space_group_name_Hall           '-C 2yn'
loop_
_symmetry_equiv_pos_site_id
_symmetry_equiv_pos_as_xyz
1 x,y,z
2 -x,y,1/2-z
3 1/2+x,1/2+y,z
4 1/2-x,1/2+y,1/2-z
5 -x,-y,-z
6 x,-y,1/2+z
7 1/2-x,1/2-y,-z
8 1/2+x,1/2-y,1/2+z
_cell_length_a                   18.6636(6)
_cell_length_b                   9.8655(4)
_cell_length_c                   19.5249(7)
_cell_angle_alpha                90
_cell_angle_beta                 107.900(2)
_cell_angle_gamma                90
_cell_volume                     3421.02
loop_
_atom_site_label
_atom_site_type_symbol
_atom_site_fract_x
_atom_site_fract_y
_atom_site_fract_z
C1 C 0.16779(9) 0.06795(18) 0.68712(9)
H1 H 0.1936 0.1497 0.6909
C2 C 0.20615(11) -0.0545(2) 0.69053(10)
H2 H 0.2576 -0.0544 0.6968
C3 C 0.16797(13) -0.1751(2) 0.68470(9)
H3 H 0.1938 -0.2565 0.6871
C4 C 0.09309(13) -0.17663(19) 0.67545(10)
H4 H 0.0676 -0.2587 0.6714
C5 C 0.05466(10) -0.05649(17) 0.67205(9)
H5 H 0.0032 -0.0584 0.6656
C6 C 0.09130(9) 0.06740(15) 0.67804(8)
C7 C 0.04782(9) 0.19684(16) 0.67571(9)
H6 H -0.0055 0.1782 0.6545
H7 H 0.0556 0.2282 0.7245
C8 C 0.09643(8) 0.43096(14) 0.55689(7)
C9 C 0.06498(7) 0.30719(14) 0.56432(7)
C10 C 0.03062(9) 0.19740(16) 0.51338(9)
H8 H 0.0622 0.1185 0.5245
H9 H 0.0254 0.2265 0.4652
H10 H -0.0181 0.1758 0.5174
C11 C 0.10795(7) 0.49727(14) 0.49399(7)
C12 C 0.13340(8) 0.62972(15) 0.49934(7)
H11 H 0.1455 0.6760 0.5429
C13 C 0.14040(7) 0.69137(14) 0.43801(7)
C14 C 0.10361(9) 0.49437(16) 0.37683(8)
C15 C 0.16304(7) 0.83531(15) 0.43711(7)
C16 C 0.17628(9) 0.91730(16) 0.49748(9)
H12 H 0.1721 0.8811 0.5401
C17 C 0.19554(10) 1.05159(17) 0.49519(10)
H13 H 0.2050 1.1048 0.5364
C18 C 0.20086(10) 1.10740(19) 0.43268(11)
H14 H 0.2125 1.1988 0.4310
C19 C 0.18898(11) 1.0278(2) 0.37263(10)
H15 H 0.1933 1.0650 0.3303
C20 C 0.17068(10) 0.89238(18) 0.37469(8)
H16 H 0.1634 0.8390 0.3339
N1 N 0.06954(7) 0.30398(12) 0.63479(6)
N2 N 0.10145(8) 0.41833(13) 0.66940(7)
N3 N 0.11739(8) 0.49515(13) 0.62198(7)
N4 N 0.09255(7) 0.42670(12) 0.43270(6)
N5 N 0.12491(7) 0.62368(13) 0.37565(6)
N6 N 0.09246(11) 0.42346(16) 0.31489(8)
H17 H 0.0991 0.4620 0.2778
H18 H 0.0787 0.3400 0.3127
C1 C 0.83221(9) 0.06795(18) 0.81288(9)
H1 H 0.8064 0.1497 0.8091
C2 C 0.79385(11) -0.0545(2) 0.80947(10)
H2 H 0.7424 -0.0544 0.8032
C3 C 0.83203(13) -0.1751(2) 0.81530(9)
H3 H 0.8062 -0.2565 0.8129
C4 C 0.90691(13) -0.17663(19) 0.82455(10)
H4 H 0.9324 -0.2587 0.8286
C5 C 0.94534(10) -0.05649(17) 0.82795(9)
H5 H 0.9968 -0.0584 0.8344
C6 C 0.90870(9) 0.06740(15) 0.82196(8)
C7 C 0.95218(9) 0.19684(16) 0.82429(9)
H6 H 1.0055 0.1782 0.8455
H7 H 0.9444 0.2282 0.7755
C8 C 0.90357(8) 0.43096(14) 0.94311(7)
C9 C 0.93502(7) 0.30719(14) 0.93568(7)
C10 C 0.96938(9) 0.19740(16) 0.98662(9)
H8 H 0.9378 0.1185 0.9755
H9 H 0.9746 0.2265 1.0348
H10 H 1.0181 0.1758 0.9826
C11 C 0.89205(7) 0.49727(14) 1.00601(7)
C12 C 0.86660(8) 0.62972(15) 1.00066(7)
H11 H 0.8545 0.6760 0.9571
C13 C 0.85960(7) 0.69137(14) 1.06199(7)
C14 C 0.89639(9) 0.49437(16) 1.12317(8)
C15 C 0.83696(7) 0.83531(15) 1.06289(7)
C16 C 0.82372(9) 0.91730(16) 1.00252(9)
H12 H 0.8279 0.8811 0.9599
C17 C 0.80446(10) 1.05159(17) 1.00481(10)
H13 H 0.7950 1.1048 0.9636
C18 C 0.79914(10) 1.10740(19) 1.06732(11)
H14 H 0.7875 1.1988 1.0690
C19 C 0.81102(11) 1.0278(2) 1.12737(10)
H15 H 0.8067 1.0650 1.1697
C20 C 0.82932(10) 0.89238(18) 1.12531(8)
H16 H 0.8366 0.8390 1.1661
N1 N 0.93046(7) 0.30398(12) 0.86521(6)
N2 N 0.89855(8) 0.41833(13) 0.83060(7)
N3 N 0.88261(8) 0.49515(13) 0.87802(7)
N4 N 0.90745(7) 0.42670(12) 1.06730(6)
N5 N 0.87509(7) 0.62368(13) 1.12435(6)
N6 N 0.90754(11) 0.42346(16) 1.18511(8)
H17 H 0.9009 0.4620 1.2222
H18 H 0.9213 0.3400 1.1873
C1 C 0.66779(9) 0.56795(18) 0.68712(9)
H1 H 0.6936 0.6497 0.6909
C2 C 0.70615(11) 0.4455(2) 0.69053(10)
H2 H 0.7576 0.4456 0.6968
C3 C 0.66797(13) 0.3249(2) 0.68470(9)
H3 H 0.6938 0.2435 0.6871
C4 C 0.59309(13) 0.32337(19) 0.67545(10)
H4 H 0.5676 0.2413 0.6714
C5 C 0.55466(10) 0.44351(17) 0.67205(9)
H5 H 0.5032 0.4416 0.6656
C6 C 0.59130(9) 0.56740(15) 0.67804(8)
C7 C 0.54782(9) 0.69684(16) 0.67571(9)
H6 H 0.4945 0.6782 0.6545
H7 H 0.5556 0.7282 0.7245
C8 C 0.59643(8) 0.93096(14) 0.55689(7)
C9 C 0.56498(7) 0.80719(14) 0.56432(7)
C10 C 0.53062(9) 0.69740(16) 0.51338(9)
H8 H 0.5622 0.6185 0.5245
H9 H 0.5254 0.7265 0.4652
H10 H 0.4819 0.6758 0.5174
C11 C 0.60795(7) 0.99727(14) 0.49399(7)
C12 C 0.63340(8) 1.12972(15) 0.49934(7)
H11 H 0.6455 1.1760 0.5429
C13 C 0.64040(7) 1.19137(14) 0.43801(7)
C14 C 0.60361(9) 0.99437(16) 0.37683(8)
C15 C 0.66304(7) 1.33531(15) 0.43711(7)
C16 C 0.67628(9) 1.41730(16) 0.49748(9)
H12 H 0.6721 1.3811 0.5401
C17 C 0.69554(10) 1.55159(17) 0.49519(10)
H13 H 0.7050 1.6048 0.5364
C18 C 0.70086(10) 1.60740(19) 0.43268(11)
H14 H 0.7125 1.6988 0.4310
C19 C 0.68898(11) 1.5278(2) 0.37263(10)
H15 H 0.6933 1.5650 0.3303
C20 C 0.67068(10) 1.39238(18) 0.37469(8)
H16 H 0.6634 1.3390 0.3339
N1 N 0.56954(7) 0.80398(12) 0.63479(6)
N2 N 0.60145(8) 0.91833(13) 0.66940(7)
N3 N 0.61739(8) 0.99515(13) 0.62198(7)
N4 N 0.59255(7) 0.92670(12) 0.43270(6)
N5 N 0.62491(7) 1.12368(13) 0.37565(6)
N6 N 0.59246(11) 0.92346(16) 0.31489(8)
H17 H 0.5991 0.9620 0.2778
H18 H 0.5787 0.8400 0.3127
C1 C 0.33221(9) 0.56795(18) 0.81288(9)
H1 H 0.3064 0.6497 0.8091
C2 C 0.29385(11) 0.4455(2) 0.80947(10)
H2 H 0.2424 0.4456 0.8032
C3 C 0.33203(13) 0.3249(2) 0.81530(9)
H3 H 0.3062 0.2435 0.8129
C4 C 0.40691(13) 0.32337(19) 0.82455(10)
H4 H 0.4324 0.2413 0.8286
C5 C 0.44534(10) 0.44351(17) 0.82795(9)
H5 H 0.4968 0.4416 0.8344
C6 C 0.40870(9) 0.56740(15) 0.82196(8)
C7 C 0.45218(9) 0.69684(16) 0.82429(9)
H6 H 0.5055 0.6782 0.8455
H7 H 0.4444 0.7282 0.7755
C8 C 0.40357(8) 0.93096(14) 0.94311(7)
C9 C 0.43502(7) 0.80719(14) 0.93568(7)
C10 C 0.46938(9) 0.69740(16) 0.98662(9)
H8 H 0.4378 0.6185 0.9755
H9 H 0.4746 0.7265 1.0348
H10 H 0.5181 0.6758 0.9826
C11 C 0.39205(7) 0.99727(14) 1.00601(7)
C12 C 0.36660(8) 1.12972(15) 1.00066(7)
H11 H 0.3545 1.1760 0.9571
C13 C 0.35960(7) 1.19137(14) 1.06199(7)
C14 C 0.39639(9) 0.99437(16) 1.12317(8)
C15 C 0.33696(7) 1.33531(15) 1.06289(7)
C16 C 0.32372(9) 1.41730(16) 1.00252(9)
H12 H 0.3279 1.3811 0.9599
C17 C 0.30446(10) 1.55159(17) 1.00481(10)
H13 H 0.2950 1.6048 0.9636
C18 C 0.29914(10) 1.60740(19) 1.06732(11)
H14 H 0.2875 1.6988 1.0690
C19 C 0.31102(11) 1.5278(2) 1.12737(10)
H15 H 0.3067 1.5650 1.1697
C20 C 0.32932(10) 1.39238(18) 1.12531(8)
H16 H 0.3366 1.3390 1.1661
N1 N 0.43046(7) 0.80398(12) 0.86521(6)
N2 N 0.39855(8) 0.91833(13) 0.83060(7)
N3 N 0.38261(8) 0.99515(13) 0.87802(7)
N4 N 0.40745(7) 0.92670(12) 1.06730(6)
N5 N 0.37509(7) 1.12368(13) 1.12435(6)
N6 N 0.40754(11) 0.92346(16) 1.18511(8)
H17 H 0.4009 0.9620 1.2222
H18 H 0.4213 0.8400 1.1873
C1 C 0.83221(9) 0.93205(18) 0.31288(9)
H1 H 0.8064 0.8503 0.3091
C2 C 0.79385(11) 1.0545(2) 0.30947(10)
H2 H 0.7424 1.0544 0.3032
C3 C 0.83203(13) 1.1751(2) 0.31530(9)
H3 H 0.8062 1.2565 0.3129
C4 C 0.90691(13) 1.17663(19) 0.32455(10)
H4 H 0.9324 1.2587 0.3286
C5 C 0.94534(10) 1.05649(17) 0.32795(9)
H5 H 0.9968 1.0584 0.3344
C6 C 0.90870(9) 0.93260(15) 0.32196(8)
C7 C 0.95218(9) 0.80316(16) 0.32429(9)
H6 H 1.0055 0.8218 0.3455
H7 H 0.9444 0.7718 0.2755
C8 C 0.90357(8) 0.56904(14) 0.44311(7)
C9 C 0.93502(7) 0.69281(14) 0.43568(7)
C10 C 0.96938(9) 0.80260(16) 0.48662(9)
H8 H 0.9378 0.8815 0.4755
H9 H 0.9746 0.7735 0.5348
H10 H 1.0181 0.8242 0.4826
C11 C 0.89205(7) 0.50273(14) 0.50601(7)
C12 C 0.86660(8) 0.37028(15) 0.50066(7)
H11 H 0.8545 0.3240 0.4571
C13 C 0.85960(7) 0.30863(14) 0.56199(7)
C14 C 0.89639(9) 0.50563(16) 0.62317(8)
C15 C 0.83696(7) 0.16469(15) 0.56289(7)
C16 C 0.82372(9) 0.08270(16) 0.50252(9)
H12 H 0.8279 0.1189 0.4599
C17 C 0.80446(10) -0.05159(17) 0.50481(10)
H13 H 0.7950 -0.1048 0.4636
C18 C 0.79914(10) -0.10740(19) 0.56732(11)
H14 H 0.7875 -0.1988 0.5690
C19 C 0.81102(11) -0.0278(2) 0.62737(10)
H15 H 0.8067 -0.0650 0.6697
C20 C 0.82932(10) 0.10762(18) 0.62531(8)
H16 H 0.8366 0.1610 0.6661
N1 N 0.93046(7) 0.69602(12) 0.36521(6)
N2 N 0.89855(8) 0.58167(13) 0.33060(7)
N3 N 0.88261(8) 0.50485(13) 0.37802(7)
N4 N 0.90745(7) 0.57330(12) 0.56730(6)
N5 N 0.87509(7) 0.37632(13) 0.62435(6)
N6 N 0.90754(11) 0.57654(16) 0.68511(8)
H17 H 0.9009 0.5380 0.7222
H18 H 0.9213 0.6600 0.6873
C1 C 0.16779(9) 0.93205(18) 0.18712(9)
H1 H 0.1936 0.8503 0.1909
C2 C 0.20615(11) 1.0545(2) 0.19053(10)
H2 H 0.2576 1.0544 0.1968
C3 C 0.16797(13) 1.1751(2) 0.18470(9)
H3 H 0.1938 1.2565 0.1871
C4 C 0.09309(13) 1.17663(19) 0.17545(10)
H4 H 0.0676 1.2587 0.1714
C5 C 0.05466(10) 1.05649(17) 0.17205(9)
H5 H 0.0032 1.0584 0.1656
C6 C 0.09130(9) 0.93260(15) 0.17804(8)
C7 C 0.04782(9) 0.80316(16) 0.17571(9)
H6 H -0.0055 0.8218 0.1545
H7 H 0.0556 0.7718 0.2245
C8 C 0.09643(8) 0.56904(14) 0.05689(7)
C9 C 0.06498(7) 0.69281(14) 0.06432(7)
C10 C 0.03062(9) 0.80260(16) 0.01338(9)
H8 H 0.0622 0.8815 0.0245
H9 H 0.0254 0.7735 -0.0348
H10 H -0.0181 0.8242 0.0174
C11 C 0.10795(7) 0.50273(14) -0.00601(7)
C12 C 0.13340(8) 0.37028(15) -0.00066(7)
H11 H 0.1455 0.3240 0.0429
C13 C 0.14040(7) 0.30863(14) -0.06199(7)
C14 C 0.10361(9) 0.50563(16) -0.12317(8)
C15 C 0.16304(7) 0.16469(15) -0.06289(7)
C16 C 0.17628(9) 0.08270(16) -0.00252(9)
H12 H 0.1721 0.1189 0.0401
C17 C 0.19554(10) -0.05159(17) -0.00481(10)
H13 H 0.2050 -0.1048 0.0364
C18 C 0.20086(10) -0.10740(19) -0.06732(11)
H14 H 0.2125 -0.1988 -0.0690
C19 C 0.18898(11) -0.0278(2) -0.12737(10)
H15 H 0.1933 -0.0650 -0.1697
C20 C 0.17068(10) 0.10762(18) -0.12531(8)
H16 H 0.1634 0.1610 -0.1661
N1 N 0.06954(7) 0.69602(12) 0.13479(6)
N2 N 0.10145(8) 0.58167(13) 0.16940(7)
N3 N 0.11739(8) 0.50485(13) 0.12198(7)
N4 N 0.09255(7) 0.57330(12) -0.06730(6)
N5 N 0.12491(7) 0.37632(13) -0.12435(6)
N6 N 0.09246(11) 0.57654(16) -0.18511(8)
H17 H 0.0991 0.5380 -0.2222
H18 H 0.0787 0.6600 -0.1873
C1 C 0.33221(9) 0.43205(18) 0.31288(9)
H1 H 0.3064 0.3503 0.3091
C2 C 0.29385(11) 0.5545(2) 0.30947(10)
H2 H 0.2424 0.5544 0.3032
C3 C 0.33203(13) 0.6751(2) 0.31530(9)
H3 H 0.3062 0.7565 0.3129
C4 C 0.40691(13) 0.67663(19) 0.32455(10)
H4 H 0.4324 0.7587 0.3286
C5 C 0.44534(10) 0.55649(17) 0.32795(9)
H5 H 0.4968 0.5584 0.3344
C6 C 0.40870(9) 0.43260(15) 0.32196(8)
C7 C 0.45218(9) 0.30316(16) 0.32429(9)
H6 H 0.5055 0.3218 0.3455
H7 H 0.4444 0.2718 0.2755
C8 C 0.40357(8) 0.06904(14) 0.44311(7)
C9 C 0.43502(7) 0.19281(14) 0.43568(7)
C10 C 0.46938(9) 0.30260(16) 0.48662(9)
H8 H 0.4378 0.3815 0.4755
H9 H 0.4746 0.2735 0.5348
H10 H 0.5181 0.3242 0.4826
C11 C 0.39205(7) 0.00273(14) 0.50601(7)
C12 C 0.36660(8) -0.12972(15) 0.50066(7)
H11 H 0.3545 -0.1760 0.4571
C13 C 0.35960(7) -0.19137(14) 0.56199(7)
C14 C 0.39639(9) 0.00563(16) 0.62317(8)
C15 C 0.33696(7) -0.33531(15) 0.56289(7)
C16 C 0.32372(9) -0.41730(16) 0.50252(9)
H12 H 0.3279 -0.3811 0.4599
C17 C 0.30446(10) -0.55159(17) 0.50481(10)
H13 H 0.2950 -0.6048 0.4636
C18 C 0.29914(10) -0.60740(19) 0.56732(11)
H14 H 0.2875 -0.6988 0.5690
C19 C 0.31102(11) -0.5278(2) 0.62737(10)
H15 H 0.3067 -0.5650 0.6697
C20 C 0.32932(10) -0.39238(18) 0.62531(8)
H16 H 0.3366 -0.3390 0.6661
N1 N 0.43046(7) 0.19602(12) 0.36521(6)
N2 N 0.39855(8) 0.08167(13) 0.33060(7)
N3 N 0.38261(8) 0.00485(13) 0.37802(7)
N4 N 0.40745(7) 0.07330(12) 0.56730(6)
N5 N 0.37509(7) -0.12368(13) 0.62435(6)
N6 N 0.40754(11) 0.07654(16) 0.68511(8)
H17 H 0.4009 0.0380 0.7222
H18 H 0.4213 0.1600 0.6873
C1 C 0.66779(9) 0.43205(18) 0.18712(9)
H1 H 0.6936 0.3503 0.1909
C2 C 0.70615(11) 0.5545(2) 0.19053(10)
H2 H 0.7576 0.5544 0.1968
C3 C 0.66797(13) 0.6751(2) 0.18470(9)
H3 H 0.6938 0.7565 0.1871
C4 C 0.59309(13) 0.67663(19) 0.17545(10)
H4 H 0.5676 0.7587 0.1714
C5 C 0.55466(10) 0.55649(17) 0.17205(9)
H5 H 0.5032 0.5584 0.1656
C6 C 0.59130(9) 0.43260(15) 0.17804(8)
C7 C 0.54782(9) 0.30316(16) 0.17571(9)
H6 H 0.4945 0.3218 0.1545
H7 H 0.5556 0.2718 0.2245
C8 C 0.59643(8) 0.06904(14) 0.05689(7)
C9 C 0.56498(7) 0.19281(14) 0.06432(7)
C10 C 0.53062(9) 0.30260(16) 0.01338(9)
H8 H 0.5622 0.3815 0.0245
H9 H 0.5254 0.2735 -0.0348
H10 H 0.4819 0.3242 0.0174
C11 C 0.60795(7) 0.00273(14) -0.00601(7)
C12 C 0.63340(8) -0.12972(15) -0.00066(7)
H11 H 0.6455 -0.1760 0.0429
C13 C 0.64040(7) -0.19137(14) -0.06199(7)
C14 C 0.60361(9) 0.00563(16) -0.12317(8)
C15 C 0.66304(7) -0.33531(15) -0.06289(7)
C16 C 0.67628(9) -0.41730(16) -0.00252(9)
H12 H 0.6721 -0.3811 0.0401
C17 C 0.69554(10) -0.55159(17) -0.00481(10)
H13 H 0.7050 -0.6048 0.0364
C18 C 0.70086(10) -0.60740(19) -0.06732(11)
H14 H 0.7125 -0.6988 -0.0690
C19 C 0.68898(11) -0.5278(2) -0.12737(10)
H15 H 0.6933 -0.5650 -0.1697
C20 C 0.67068(10) -0.39238(18) -0.12531(8)
H16 H 0.6634 -0.3390 -0.1661
N1 N 0.56954(7) 0.19602(12) 0.13479(6)
N2 N 0.60145(8) 0.08167(13) 0.16940(7)
N3 N 0.61739(8) 0.00485(13) 0.12198(7)
N4 N 0.59255(7) 0.07330(12) -0.06730(6)
N5 N 0.62491(7) -0.12368(13) -0.12435(6)
N6 N 0.59246(11) 0.07654(16) -0.18511(8)
H17 H 0.5991 0.0380 -0.2222
H18 H 0.5787 0.1600 -0.1873

#END
