./ABAWIL_from_POSCAR.cif_generated_by_CrystalShift
_symmetry_cell_setting triclinic
_symmetry_space_group_name_H-M 'P 1'
loop_
_symmetry_equiv_pos_site_id
_symmetry_equiv_pos_as_xyz
1 x,y,z
_cell_length_a 13.251900
_cell_length_b 3.961600
_cell_length_c 14.495400
_cell_angle_alpha 90.000000
_cell_angle_beta 91.832000
_cell_angle_gamma 90.000000
_cell_volume 760.601077
loop_
_atom_site_label
_atom_site_type_symbol
_atom_site_fract_x
_atom_site_fract_y
_atom_site_fract_z
H1 H 0.913000 0.577300 0.222900
H2 H 0.456500 0.646000 0.413000
H3 H 0.906700 0.554000 0.515000
H4 H 0.422000 0.383400 0.273000
H5 H 0.262200 0.183800 0.237600
H6 H 0.543500 1.146000 0.087000
H7 H 1.103000 0.842000 0.604000
H8 H -0.103000 0.158000 0.396000
H9 H 0.737800 0.816200 0.762400
H10 H 0.906700 0.946000 0.015000
H11 H 0.578000 0.616600 0.727000
H12 H 0.093300 0.446000 0.485000
H13 H 0.543500 0.354000 0.587000
H14 H 1.103000 0.658000 0.104000
H15 H 0.087000 0.422700 0.777100
H16 H 0.456500 -0.146000 0.913000
H17 H 0.913000 0.922700 0.722900
H18 H 0.422000 0.116600 0.773000
H19 H 0.578000 0.883400 0.227000
H20 H 0.093300 0.054000 0.985000
H21 H 0.262200 0.316200 0.737600
H22 H -0.103000 0.342000 0.896000
H23 H 0.737800 0.683800 0.262400
H24 H 0.087000 0.077300 0.277100
C25 C 0.275400 0.210800 0.794000
C26 C 0.628800 0.908600 0.184800
C27 C 0.371200 0.091400 0.815200
C28 C 0.219300 0.016900 0.941200
C29 C 0.391900 -0.065300 0.898800
C30 C 0.901800 0.807700 0.667600
C31 C 0.724600 0.789200 0.206000
C32 C 0.316300 -0.100800 0.960800
C33 C 0.098200 0.307700 0.832400
C34 C 0.683700 0.399200 0.539200
C35 C 0.219300 0.483100 0.441200
C36 C 0.608100 1.065300 0.101200
C37 C 0.608100 0.434700 0.601200
C38 C 0.801900 0.824800 0.143700
C39 C 0.198100 0.324800 0.356300
C40 C 0.628800 0.591400 0.684800
C41 C 0.724600 0.710800 0.706000
C42 C 0.275400 0.289200 0.294000
C43 C 0.801900 0.675200 0.643700
C44 C 0.371200 0.408600 0.315200
C45 C 0.683700 1.100800 0.039200
C46 C 0.391900 0.565300 0.398800
C47 C 0.901800 0.692300 0.167600
C48 C 0.780700 0.983100 0.058800
C49 C 0.316300 0.600800 0.460800
C50 C 0.098200 0.192300 0.332400
C51 C 0.198100 0.175200 0.856300
C52 C 0.780700 0.516900 0.558800
N53 N 0.025700 0.265400 0.887600
N54 N 0.974300 0.765400 0.612400
N55 N 0.974300 0.734600 0.112400
N56 N 0.025700 0.234600 0.387600
O57 O -0.065400 0.096600 0.353990
O58 O 0.851640 0.475300 0.494930
O59 O -0.065400 0.403400 0.853990
O60 O 0.851640 1.024700 -0.005070
O61 O 0.148360 -0.024700 1.005070
O62 O 0.148360 0.524700 0.505070
O63 O 1.065400 0.596600 0.146010
O64 O 1.065400 0.903400 0.646010
Br65 Br 0.656730 0.196720 0.422700
Br66 Br 0.343270 -0.303280 1.077300
Br67 Br 0.343270 0.803280 0.577300
Br68 Br 0.656730 1.303280 -0.077300

#END
