./ABAXOR_from_POSCAR.cif_generated_by_CrystalShift
_symmetry_cell_setting triclinic
_symmetry_space_group_name_H-M 'P 1'
loop_
_symmetry_equiv_pos_site_id
_symmetry_equiv_pos_as_xyz
1 x,y,z
_cell_length_a 8.548000
_cell_length_b 10.347000
_cell_length_c 14.667000
_cell_angle_alpha 96.190000
_cell_angle_beta 102.920000
_cell_angle_gamma 110.070000
_cell_volume 1163.234228
loop_
_atom_site_label
_atom_site_type_symbol
_atom_site_fract_x
_atom_site_fract_y
_atom_site_fract_z
H1 H 0.235900 1.002000 0.445800
H2 H -0.105500 0.632800 0.547400
H3 H 0.985100 0.151600 0.513300
H4 H -0.010900 1.259000 0.875700
H5 H 0.098000 1.177900 0.925400
H6 H 0.786200 0.395600 0.194800
H7 H -0.032400 0.914000 0.898800
H8 H -0.222600 0.833700 0.833300
H9 H 1.272600 0.457800 0.201800
H10 H -0.135600 0.897900 0.701100
H11 H 0.764100 -0.002000 0.554200
H12 H -0.240400 1.047800 0.800900
H13 H 1.171900 0.626100 0.251300
H14 H 1.245500 0.623200 0.358800
H15 H -0.193200 1.056600 0.911900
H16 H 0.794500 -0.029300 0.177600
H17 H 0.846100 -0.020200 0.288500
H18 H 0.186800 1.242400 0.793000
H19 H 0.658700 0.295400 0.364100
H20 H -0.003500 1.163400 0.727000
H21 H 1.105500 0.367200 0.452600
H22 H 0.979800 0.440900 0.414100
H23 H 0.153900 1.020200 0.711500
H24 H 1.436100 0.817500 0.322800
H25 H 1.449000 0.724300 0.235200
H26 H 0.205500 1.029300 0.822400
H27 H 1.413500 0.356800 0.307900
H28 H 1.400500 0.450700 0.395000
H29 H -0.609500 0.447700 0.727400
H30 H 0.435000 0.138700 0.401300
H31 H -0.680900 0.450900 0.619600
H32 H 0.562200 0.213800 -0.064200
H33 H 0.469700 0.319000 -0.053200
H34 H -0.400500 0.549300 0.605000
H35 H 1.135600 0.102100 0.298900
H36 H -0.413500 0.643200 0.692100
H37 H 1.695900 0.775400 0.360900
H38 H 1.582500 0.718200 0.429100
H39 H -0.582500 0.281800 0.570900
H40 H 1.003500 -0.163400 0.273000
H41 H 0.813200 -0.242400 0.207000
H42 H -0.695900 0.224600 0.639100
H43 H 1.193200 -0.056600 0.088100
H44 H 1.240400 -0.047800 0.199100
H45 H -0.449000 0.275700 0.764800
H46 H 1.222600 0.166300 0.166700
H47 H 1.032400 0.086000 0.101200
H48 H -0.436100 0.182500 0.677200
H49 H 0.902000 -0.177900 0.074600
H50 H 1.010900 -0.259000 0.124300
H51 H -0.245500 0.376800 0.641200
H52 H 1.680900 0.549100 0.380400
H53 H 1.609500 0.552300 0.272600
H54 H -0.171900 0.373900 0.748700
H55 H 0.597100 0.182100 0.187300
H56 H 0.650700 0.117000 0.103600
H57 H -0.272600 0.542200 0.798200
H58 H 0.899500 0.310100 0.045000
H59 H 0.965000 0.463500 0.103500
H60 H 0.536500 0.707600 0.906300
H61 H 0.402700 0.140800 0.033600
H62 H 0.463500 0.292400 0.093700
H63 H 0.597300 0.859200 0.966400
H64 H 0.710900 0.488500 0.034700
H65 H 0.760800 0.421900 -0.050200
H66 H 0.239200 0.578100 1.050200
H67 H 0.289100 0.511500 0.965300
H68 H 0.035000 0.536500 0.896500
H69 H 0.014900 -0.151600 0.486700
H70 H 0.100500 0.689900 0.955000
H71 H 0.530300 0.681000 1.053200
H72 H 0.341300 -0.295400 0.635900
H73 H 0.437800 0.786200 1.064200
H74 H 0.565000 -0.138700 0.598700
H75 H 0.349300 0.883000 0.896400
H76 H 0.402900 0.817900 0.812700
H77 H 0.213800 0.604400 0.805200
H78 H 0.213800 -0.395600 0.805200
H79 H 0.565000 0.861300 0.598700
H80 H 0.402900 -0.182100 0.812700
H81 H 0.349300 -0.117000 0.896400
H82 H 0.341300 0.704600 0.635900
H83 H 0.014900 0.848400 0.486700
H84 H 0.437800 -0.213800 1.064200
H85 H 0.530300 -0.319000 1.053200
H86 H 0.760800 1.421900 -0.050200
H87 H 0.710900 1.488500 0.034700
H88 H 0.100500 -0.310100 0.955000
H89 H 0.035000 -0.463500 0.896500
H90 H 0.289100 -0.488500 0.965300
H91 H 0.239200 -0.421900 1.050200
H92 H 0.597300 -0.140800 0.966400
H93 H 0.536500 -0.292400 0.906300
H94 H 0.463500 1.292400 0.093700
H95 H -0.272600 -0.457800 0.798200
H96 H 0.402700 1.140800 0.033600
H97 H -0.171900 -0.626100 0.748700
H98 H -0.245500 -0.623200 0.641200
H99 H 0.965000 1.463500 0.103500
H100 H -0.436100 -0.817500 0.677200
H101 H -0.449000 -0.724300 0.764800
H102 H 0.899500 1.310100 0.045000
H103 H -0.695900 -0.775400 0.639100
H104 H -0.582500 -0.718200 0.570900
H105 H 0.650700 1.117000 0.103600
H106 H 0.597100 1.182100 0.187300
H107 H -0.413500 -0.356800 0.692100
H108 H -0.400500 -0.450700 0.605000
H109 H -0.680900 -0.549100 0.619600
H110 H -0.609500 -0.552300 0.727400
H111 H 1.609500 1.552300 0.272600
H112 H 1.680900 1.549100 0.380400
H113 H 0.205500 0.029300 0.822400
H114 H 0.153900 0.020200 0.711500
H115 H 1.010900 0.741000 0.124300
H116 H -0.003500 0.163400 0.727000
H117 H 0.186800 0.242400 0.793000
H118 H 0.902000 0.822100 0.074600
H119 H 1.032400 1.086000 0.101200
H120 H -0.193200 0.056600 0.911900
H121 H -0.240400 0.047800 0.800900
H122 H 1.222600 1.166300 0.166700
H123 H -0.135600 -0.102100 0.701100
H124 H -0.222600 -0.166300 0.833300
H125 H -0.032400 -0.086000 0.898800
H126 H 0.098000 0.177900 0.925400
H127 H -0.010900 0.259000 0.875700
H128 H -0.105500 -0.367200 0.547400
H129 H 0.020200 -0.440900 0.585900
H130 H 0.235900 0.002000 0.445800
H131 H 1.240400 0.952200 0.199100
H132 H 1.193200 0.943400 0.088100
H133 H 0.985100 1.151600 0.513300
H134 H 0.813200 0.757600 0.207000
H135 H 1.003500 0.836600 0.273000
H136 H 0.786200 1.395600 0.194800
H137 H 1.582500 1.718200 0.429100
H138 H 1.695900 1.775400 0.360900
H139 H 1.272600 1.457800 0.201800
H140 H 1.135600 1.102100 0.298900
H141 H 0.764100 0.998000 0.554200
H142 H 0.469700 1.319000 -0.053200
H143 H 1.171900 1.626100 0.251300
H144 H 1.245500 1.623200 0.358800
H145 H 0.562200 1.213800 -0.064200
H146 H 0.794500 0.970700 0.177600
H147 H 0.846100 0.979800 0.288500
H148 H 0.435000 1.138700 0.401300
H149 H 0.658700 1.295400 0.364100
H150 H 1.400500 1.450700 0.395000
H151 H 1.105500 1.367200 0.452600
H152 H 0.979800 1.440900 0.414100
H153 H 1.413500 1.356800 0.307900
H154 H 1.436100 1.817500 0.322800
H155 H 1.449000 1.724300 0.235200
H156 H 0.020200 0.559100 0.585900
C157 C 1.435900 1.726200 0.299300
C158 C 0.995900 1.352300 0.407500
C159 C 0.546600 1.142000 0.426300
C160 C 0.681500 1.235600 0.403500
C161 C 0.557400 1.288000 -0.019700
C162 C 0.885600 0.973200 0.231700
C163 C 1.265100 1.613400 0.296200
C164 C 1.047900 1.101400 0.242700
C165 C 0.740200 1.058800 0.515900
C166 C 1.588300 1.705100 0.363700
C167 C 1.261100 1.467400 0.266900
C168 C 0.573100 1.050200 0.486900
C169 C 0.920000 0.837900 0.216500
C170 C 0.809100 1.319600 0.161500
C171 C 0.851800 1.245600 0.436600
C172 C 1.152000 0.950500 0.144100
C173 C 0.874500 1.152200 0.491500
C174 C 0.874500 0.152200 0.491500
C175 C 1.116000 1.086200 0.158200
C176 C -0.116000 -0.086200 0.841800
C177 C -0.152000 0.049500 0.855900
C178 C 0.988200 0.826600 0.131800
C179 C 0.011800 0.173400 0.868200
C180 C 0.080000 0.162100 0.783500
C181 C 1.588500 1.561600 0.334800
C182 C 0.114400 0.026800 0.768300
C183 C -0.047900 -0.101400 0.757300
C184 C 0.637100 1.200600 0.131400
C185 C -0.413800 -0.448400 0.669100
C186 C -0.588500 -0.561600 0.665200
C187 C 0.864400 1.376400 0.078700
C188 C -0.588300 -0.705100 0.636300
C189 C -0.435900 -0.726200 0.700700
C190 C 0.501900 1.228000 0.060000
C191 C -0.265100 -0.613400 0.703800
C192 C -0.261100 -0.467400 0.733100
C193 C 0.723800 1.404700 0.006800
C194 C 0.135600 -0.376400 0.921300
C195 C 0.276200 -0.404700 0.993200
C196 C 0.426900 0.949800 0.513100
C197 C 0.259800 0.941200 0.484100
C198 C 0.125500 0.847800 0.508500
C199 C 0.442600 -0.288000 1.019700
C200 C 0.148200 0.754400 0.563400
C201 C 0.318500 0.764400 0.596500
C202 C 0.498100 -0.228000 0.940000
C203 C 0.453400 0.858000 0.573700
C204 C 0.362900 -0.200600 0.868600
C205 C 0.004100 0.647700 0.592500
C206 C 0.851800 0.245600 0.436600
C207 C 0.190900 0.680400 0.838500
C208 C 0.190900 -0.319600 0.838500
C209 C 0.362900 0.799400 0.868600
C210 C 0.809100 0.319600 0.161500
C211 C 0.004100 -0.352300 0.592500
C212 C 0.498100 0.772000 0.940000
C213 C 0.442600 0.712000 1.019700
C214 C 0.453400 -0.142000 0.573700
C215 C 0.318500 -0.235600 0.596500
C216 C 0.276200 0.595300 0.993200
C217 C 0.135600 0.623600 0.921300
C218 C 0.148200 -0.245600 0.563400
C219 C 0.125500 -0.152200 0.508500
C220 C 0.259800 -0.058800 0.484100
C221 C 0.426900 -0.050200 0.513100
C222 C 0.723800 0.404700 0.006800
C223 C 0.501900 0.228000 0.060000
C224 C -0.261100 0.532600 0.733100
C225 C 0.864400 0.376400 0.078700
C226 C -0.265100 0.386600 0.703800
C227 C 0.637100 0.200600 0.131400
C228 C 1.588500 0.561600 0.334800
C229 C -0.435900 0.273800 0.700700
C230 C 0.988200 -0.173400 0.131800
C231 C 1.116000 0.086200 0.158200
C232 C -0.588300 0.294900 0.636300
C233 C 1.152000 -0.049500 0.144100
C234 C 0.920000 -0.162100 0.216500
C235 C -0.588500 0.438400 0.665200
C236 C -0.413800 0.551600 0.669100
C237 C 1.588300 0.705100 0.363700
C238 C 1.047900 0.101400 0.242700
C239 C 0.557400 0.288000 -0.019700
C240 C 0.546600 0.142000 0.426300
C241 C -0.047900 0.898600 0.757300
C242 C 0.114400 1.026800 0.768300
C243 C 1.413800 0.448400 0.330900
C244 C 1.435900 0.726200 0.299300
C245 C 0.080000 1.162100 0.783500
C246 C 0.995900 0.352300 0.407500
C247 C 0.681500 0.235600 0.403500
C248 C 0.011800 1.173400 0.868200
C249 C -0.152000 1.049500 0.855900
C250 C 0.885600 -0.026800 0.231700
C251 C 1.265100 0.613400 0.296200
C252 C -0.116000 0.913800 0.841800
C253 C 0.740200 0.058800 0.515900
C254 C 1.261100 0.467400 0.266900
C255 C 0.573100 0.050200 0.486900
C256 C 1.413800 1.448400 0.330900
Sn257 Sn 1.018330 1.302530 0.265550
Sn258 Sn -0.018330 0.697470 0.734450
Sn259 Sn -0.018330 -0.302530 0.734450
Sn260 Sn 1.018330 0.302530 0.265550

#END
