./ABAYUX_from_POSCAR.cif_generated_by_CrystalShift
_symmetry_cell_setting triclinic
_symmetry_space_group_name_H-M 'P 1'
loop_
_symmetry_equiv_pos_site_id
_symmetry_equiv_pos_as_xyz
1 x,y,z
_cell_length_a 10.264000
_cell_length_b 11.013000
_cell_length_c 12.600000
_cell_angle_alpha 109.930000
_cell_angle_beta 108.350000
_cell_angle_gamma 96.600000
_cell_volume 1230.833629
loop_
_atom_site_label
_atom_site_type_symbol
_atom_site_fract_x
_atom_site_fract_y
_atom_site_fract_z
H1 H 0.596900 0.639600 0.966400
H2 H 0.636500 0.735900 0.909300
H3 H 0.143100 0.460500 0.481600
H4 H 0.431300 0.127300 0.519300
H5 H 0.403100 0.360400 0.033600
H6 H 0.363500 0.264100 0.090700
H7 H 0.288500 0.131300 0.538200
H8 H 0.505800 0.037500 0.655000
H9 H 0.343100 -0.028600 0.601300
H10 H 0.467500 0.113800 0.827300
H11 H 0.312100 0.115300 0.758800
H12 H 0.395100 0.327400 0.812000
H13 H 0.550000 0.312000 0.840900
H14 H 0.858200 0.116000 0.718400
H15 H 0.632800 0.554600 0.981600
H16 H 0.570600 0.655400 0.930100
H17 H 0.805300 0.800300 1.114600
H18 H 0.973900 0.664600 1.056600
H19 H 0.950300 0.742700 0.972100
H20 H 0.861400 0.543300 0.823700
H21 H 0.831600 0.478400 0.908800
H22 H 1.018600 0.078000 0.620700
H23 H 0.943300 0.694900 0.675500
H24 H 1.053400 0.907500 0.846500
H25 H 0.909000 1.035200 0.915800
H26 H 0.666500 0.965800 0.815800
H27 H 0.558100 0.771300 0.646800
H28 H 1.033700 0.182300 0.491800
H29 H 0.412600 0.828100 0.785700
H30 H 0.350700 0.901600 0.956300
H31 H 0.210700 0.749400 0.991300
H32 H 0.136000 0.525700 0.860500
H33 H 0.205100 0.449400 0.690500
H34 H 0.587400 0.171900 0.214300
H35 H 0.649300 0.098400 0.043700
H36 H 0.789300 0.250600 0.008700
H37 H 0.864000 0.474300 0.139500
H38 H 0.794900 0.550600 0.309500
H39 H 0.102400 0.666500 0.535900
H40 H -0.033700 0.817700 0.508200
H41 H -0.018600 0.922000 0.379300
H42 H 0.141800 0.884000 0.281600
H43 H 0.279700 0.734600 0.308900
H44 H 0.056700 0.305100 0.324500
H45 H -0.053400 0.092500 0.153500
H46 H 0.091000 -0.035200 0.084200
H47 H 0.333500 0.034200 0.184200
H48 H 0.441900 0.228700 0.353200
H49 H 0.429400 0.344600 0.069900
H50 H 0.367200 0.445400 0.018400
H51 H 0.194700 0.199700 -0.114600
H52 H 0.049700 0.257300 0.027900
H53 H 0.026100 0.335400 -0.056600
H54 H 0.168400 0.521600 0.091200
H55 H 0.138600 0.456700 0.176300
H56 H 0.711500 0.868700 0.461800
H57 H 0.568700 0.872700 0.480700
H58 H 0.656900 1.028600 0.398700
H59 H 0.494200 0.962500 0.345000
H60 H 0.687900 0.884700 0.241200
H61 H 0.532500 0.886200 0.172700
H62 H 0.450000 0.688000 0.159100
H63 H 0.604900 0.672600 0.188000
H64 H 0.856900 0.539500 0.518400
H65 H 0.897600 0.333500 0.464100
H66 H 0.720300 0.265400 0.691100
B67 B 0.565200 0.302700 0.400000
B68 B 0.434800 0.697300 0.600000
B69 B 0.263800 0.508800 0.499800
B70 B 0.736200 0.491200 0.500200
C71 C 0.237500 0.719000 0.922100
C72 C 0.194200 0.586900 0.844900
C73 C 0.235400 0.542000 0.744800
C74 C 0.320300 0.809100 0.901700
C75 C 0.545500 0.724900 0.217900
C76 C 0.592400 0.866300 0.237100
C77 C 0.586100 0.945400 0.356000
C78 C 0.611500 0.855700 0.421100
C79 C 0.357600 0.765000 0.801800
C80 C 0.175800 0.446900 0.113600
C81 C 0.736100 0.715300 0.646600
C82 C 0.887600 0.752600 0.704600
C83 C 0.952200 0.877200 0.806300
C84 C 0.867300 0.952100 0.845800
C85 C 0.723700 0.910600 0.785800
C86 C 0.659300 0.796200 0.688000
C87 C 0.095800 0.320000 0.005600
C88 C 0.209600 0.269500 -0.037900
C89 C 0.349400 0.382200 0.052300
C90 C 0.340700 0.203800 0.312000
C91 C 0.276300 0.089400 0.214200
C92 C 0.317700 0.631800 0.724800
C93 C 0.650600 0.617800 0.947700
C94 C 0.790400 0.730500 1.037900
C95 C 0.904200 0.680000 0.994400
C96 C 0.824200 0.553100 0.886400
C97 C 0.047800 0.122800 0.193700
C98 C 0.112400 0.247400 0.295400
C99 C 0.263900 0.284700 0.353400
C100 C 0.214600 0.751100 0.349600
C101 C 0.133500 0.839100 0.333300
C102 C 0.039700 0.862000 0.391300
C103 C 0.030000 0.799500 0.466200
C104 C 0.110900 0.710800 0.483800
C105 C 0.388500 0.144300 0.578900
C106 C 0.413900 0.054600 0.644000
C107 C 0.407600 0.133700 0.762900
C108 C 0.454500 0.275100 0.782100
C109 C 0.203200 0.685600 0.423700
C110 C 0.764600 0.458000 0.255200
C111 C 0.805800 0.413100 0.155100
C112 C 0.762500 0.281000 0.077900
C113 C 0.679700 0.190900 0.098300
C114 C 0.642400 0.235000 0.198200
C115 C 0.682300 0.368200 0.275200
C116 C 0.667500 0.671600 0.940700
C117 C 0.132700 0.047900 0.154200
C118 C 0.796800 0.314400 0.576300
C119 C 0.889100 0.289200 0.516200
C120 C 0.970000 0.200500 0.533800
C121 C 0.960300 0.138000 0.608700
C122 C 0.866500 0.160900 0.666700
C123 C 0.785400 0.248900 0.650400
C124 C 0.332500 0.328400 0.059300
O125 O 0.449100 0.276900 0.669700
O126 O 0.681300 0.558900 0.843800
O127 O 0.666500 0.598000 0.545700
O128 O 0.364900 0.591700 0.631200
O129 O 0.347700 0.657400 0.474900
O130 O 0.432000 0.337200 0.410100
O131 O 0.635100 0.408300 0.368800
O132 O 0.725700 0.409900 0.572500
O133 O 0.550900 0.723100 0.330300
O134 O 0.318700 0.441100 0.156200
O135 O 0.652300 0.342600 0.525100
O136 O 0.568000 0.662800 0.589900
O137 O 0.333500 0.402000 0.454300
O138 O 0.274300 0.590100 0.427500
Na139 Na 0.463500 0.538400 0.363400
Na140 Na 0.536500 0.461600 0.636600

#END
