./ABAYIN_from_POSCAR.cif_generated_by_CrystalShift
_symmetry_cell_setting triclinic
_symmetry_space_group_name_H-M 'P 1'
loop_
_symmetry_equiv_pos_site_id
_symmetry_equiv_pos_as_xyz
1 x,y,z
_cell_length_a 6.311100
_cell_length_b 11.571900
_cell_length_c 13.495900
_cell_angle_alpha 93.032000
_cell_angle_beta 90.081000
_cell_angle_gamma 103.146000
_cell_volume 958.359960
loop_
_atom_site_label
_atom_site_type_symbol
_atom_site_fract_x
_atom_site_fract_y
_atom_site_fract_z
H1 H 0.488800 0.490400 0.416100
H2 H 0.574300 0.435900 0.491900
H3 H 0.050300 0.920900 0.593400
H4 H -0.049000 0.991700 0.679900
H5 H -0.108400 0.849500 0.673000
H6 H 1.074500 0.470300 0.340700
H7 H 1.141400 0.348400 0.308700
H8 H 0.204800 1.082000 0.798100
H9 H 0.856200 0.429400 0.180900
H10 H 0.497500 1.088400 0.902400
H11 H 1.413700 0.447800 0.146700
H12 H 1.411900 0.520200 0.251300
H13 H 0.679500 0.934900 0.896300
H14 H 1.672100 0.627200 0.148300
H15 H 1.486300 0.698300 0.171000
H16 H 1.487700 0.626300 0.066500
H17 H 0.557900 0.770200 0.787100
H18 H 1.039000 0.378900 0.002500
H19 H 0.800200 0.311500 0.035300
H20 H 0.614300 0.789500 0.539500
H21 H 0.937100 0.190300 -0.081600
H22 H 0.907900 0.128800 0.022500
H23 H 1.144500 0.196400 -0.011500
H24 H 0.539000 0.911600 0.559700
H25 H 0.645400 0.884700 0.455900
H26 H 1.142300 0.380800 0.482400
H27 H 0.386100 0.853900 0.329800
H28 H 1.213300 0.352800 0.648600
H29 H 0.052600 0.764500 0.259100
H30 H 0.947400 0.235500 0.740900
H31 H -0.213300 0.647200 0.351400
H32 H 0.613900 0.146100 0.670200
H33 H -0.142300 0.619200 0.517600
H34 H -0.144500 0.803600 1.011500
H35 H 0.354600 0.115300 0.544100
H36 H 0.461000 0.088400 0.440300
H37 H 0.385700 0.210500 0.460500
H38 H 0.092100 0.871200 0.977500
H39 H 0.062900 0.809700 1.081600
H40 H 0.442100 0.229800 0.212900
H41 H 0.199800 0.688500 0.964700
H42 H 0.320500 0.065100 0.103700
H43 H -0.039000 0.621100 0.997500
H44 H 0.502500 -0.088400 0.097600
H45 H -0.487700 0.373700 0.933500
H46 H 0.795200 -0.082000 0.201900
H47 H -0.486300 0.301700 0.829000
H48 H -0.672100 0.372800 0.851700
H49 H 1.108400 0.150500 0.327000
H50 H 1.049000 0.008300 0.320100
H51 H 0.949700 0.079100 0.406600
H52 H 0.425700 0.564100 0.508100
H53 H 0.511200 0.509600 0.583900
H54 H -0.411900 0.479800 0.748700
H55 H -0.413700 0.552200 0.853300
H56 H 0.143800 0.570600 0.819100
H57 H -0.074500 0.529700 0.659300
H58 H -0.141400 0.651600 0.691300
C59 C -0.006900 0.581200 0.807100
C60 C -0.027700 0.606100 0.698500
C61 C -0.381200 0.479700 0.820600
C62 C 1.027700 0.393900 0.301500
C63 C 0.006200 0.920700 0.663000
C64 C -0.518300 0.373000 0.862200
C65 C 0.993800 0.079300 0.337000
C66 C 0.801300 0.079600 0.271500
C67 C 0.724700 -0.017600 0.204600
C68 C 0.043700 0.690100 0.962800
C69 C 0.550000 -0.021800 0.142900
C70 C 0.442900 0.069100 0.145800
C71 C 0.010700 0.803400 1.012700
C72 C 0.515700 0.166700 0.211000
C73 C 0.695200 0.174400 0.274100
C74 C 0.448700 0.150600 0.490700
C75 C 0.167500 0.720700 0.524200
C76 C -0.033200 0.667400 0.479800
C77 C 0.671300 0.208300 0.532800
C78 C -0.076000 0.683900 0.380800
C79 C 0.720700 0.194000 0.631100
C80 C 0.080800 0.753000 0.326500
C81 C 0.919200 0.247000 0.673500
C82 C 0.279300 0.806000 0.368900
C83 C 1.076000 0.316100 0.619200
C84 C 0.328700 0.791700 0.467200
C85 C 0.551300 0.849400 0.509300
C86 C 1.033200 0.332600 0.520200
C87 C 0.832500 0.279300 0.475800
C88 C 0.989300 0.196600 -0.012700
C89 C 0.304800 0.825600 0.725900
C90 C 0.484300 0.833300 0.789000
C91 C 0.956300 0.309900 0.037200
C92 C 0.557100 0.930900 0.854200
C93 C 1.518300 0.627000 0.137800
C94 C 0.450000 1.021800 0.857100
C95 C 1.381200 0.520300 0.179400
C96 C 0.275300 1.017600 0.795400
C97 C 1.006900 0.418800 0.192900
C98 C 0.198700 0.920400 0.728500
O99 O 0.397900 0.620400 0.654510
O100 O 0.602100 0.379600 0.345490
O101 O 1.155600 0.521300 0.163190
O102 O 0.563600 0.459000 0.551400
O103 O 1.031100 0.315800 0.137750
O104 O -0.031100 0.684200 0.862250
O105 O -0.155600 0.478700 0.836810
O106 O 0.436400 0.541000 0.448600
P107 P 0.774970 0.311140 0.350200
P108 P 0.225030 0.688860 0.649800

#END
