./ABAZUY_from_POSCAR.cif_generated_by_CrystalShift
_symmetry_cell_setting triclinic
_symmetry_space_group_name_H-M 'P 1'
loop_
_symmetry_equiv_pos_site_id
_symmetry_equiv_pos_as_xyz
1 x,y,z
_cell_length_a 5.036000
_cell_length_b 7.333000
_cell_length_c 12.566000
_cell_angle_alpha 90.000000
_cell_angle_beta 90.000000
_cell_angle_gamma 90.000000
_cell_volume 464.049663
loop_
_atom_site_label
_atom_site_type_symbol
_atom_site_fract_x
_atom_site_fract_y
_atom_site_fract_z
C1 C 0.254900 1.065400 0.985200
C2 C 0.245100 -0.065400 0.485200
C3 C 0.754900 0.434600 0.014800
C4 C 0.745100 0.565400 0.514800
N5 N -0.053500 0.989500 0.829200
N6 N 1.053500 0.489500 0.670800
N7 N 0.446500 0.510500 0.170800
N8 N 0.553500 0.010500 0.329200
O9 O -0.464200 0.787700 0.817200
O10 O 0.881400 0.338700 0.070500
O11 O 0.035800 0.712300 0.182800
O12 O 0.964200 0.212300 0.317200
O13 O 1.464200 0.287700 0.682800
O14 O 0.618600 0.661300 0.570500
O15 O 0.381400 1.161300 0.929500
O16 O 0.118600 -0.161300 0.429500
F17 F 0.812900 0.457400 -0.088200
F18 F 0.187100 -0.042600 0.588200
F19 F 0.312900 1.042600 1.088200
F20 F 0.687100 0.542600 0.411800
S21 S -0.023200 0.928700 0.957500
S22 S -0.282500 0.911300 0.763100
S23 S 0.523200 0.071300 0.457500
S24 S 0.217500 0.588700 0.236900
S25 S 0.476800 0.571300 0.042500
S26 S 0.782500 0.088700 0.263100
S27 S 1.282500 0.411300 0.736900
S28 S 1.023200 0.428700 0.542500

#END
