./ABBRCH10_from_POSCAR.cif_generated_by_CrystalShift
_symmetry_cell_setting triclinic
_symmetry_space_group_name_H-M 'P 1'
loop_
_symmetry_equiv_pos_site_id
_symmetry_equiv_pos_as_xyz
1 x,y,z
_cell_length_a 14.990000
_cell_length_b 7.750000
_cell_length_c 11.490000
_cell_angle_alpha 90.000000
_cell_angle_beta 105.280000
_cell_angle_gamma 90.000000
_cell_volume 1287.635357
loop_
_atom_site_label
_atom_site_type_symbol
_atom_site_fract_x
_atom_site_fract_y
_atom_site_fract_z
H1 H 0.671200 0.807200 0.230700
H2 H 0.635000 0.825300 -0.086400
H3 H 0.518600 0.759200 -0.121400
H4 H 0.374500 0.458900 0.458200
H5 H 0.433500 0.425900 0.346100
H6 H 0.355500 0.770200 0.697500
H7 H 0.414400 0.889300 0.609700
H8 H 0.138800 0.864100 0.936700
H9 H 0.212800 0.960900 0.859000
H10 H 0.448600 0.657000 0.021900
H11 H 0.515800 0.565900 0.236600
H12 H 0.347500 0.653400 0.165000
H13 H 0.408600 1.007900 0.416800
H14 H 0.335500 1.130400 0.550000
H15 H 0.264200 0.502100 0.524900
H16 H 0.242300 0.631600 0.713100
H17 H 0.179700 1.250100 0.604300
H18 H 0.133400 1.185500 0.789400
H19 H 0.021700 1.054000 0.897600
H20 H 0.073700 0.563300 0.782500
H21 H 0.247900 0.983700 0.693700
H22 H 0.084200 1.143300 0.515200
H23 H 0.036800 1.270200 0.684900
H24 H -0.020400 0.977700 0.629200
H25 H -0.070200 1.141500 0.784900
H26 H -0.136800 0.850500 0.733100
H27 H 0.646900 0.958300 0.111300
H28 H 0.567400 0.855100 -0.101300
H29 H 0.616600 0.569300 0.085300
H30 H 1.014400 0.145800 0.333700
H31 H 0.859100 0.032200 0.364600
H32 H 0.831100 0.114600 0.561900
H33 H 0.830700 0.424100 0.570900
H34 H 0.761300 0.683100 0.579400
H35 H 0.690500 0.539500 0.706300
H36 H 0.749400 0.271900 0.685600
H37 H 0.584400 0.160900 0.393600
H38 H 0.787600 0.233900 0.123600
H39 H 0.979800 0.225200 0.068200
H40 H 0.544100 0.224300 0.575100
H41 H 0.621700 0.366200 0.791500
H42 H 0.687100 -0.042000 0.695300
H43 H 0.454900 0.280800 0.725900
H44 H 0.520900 0.365300 0.940900
H45 H 0.383400 0.069300 0.914700
H46 H 0.432600 0.355100 1.101300
H47 H 0.353100 0.458300 0.888700
H48 H 1.136800 0.350500 0.266900
H49 H 1.070200 0.641500 0.215100
H50 H 1.020400 0.477700 0.370800
H51 H 0.963200 0.770200 0.315100
H52 H 0.915800 0.643300 0.484800
H53 H 0.752100 0.483700 0.306300
H54 H 0.926300 0.063300 0.217500
H55 H 0.978300 0.554000 0.102400
H56 H 0.866600 0.685500 0.210600
H57 H 0.820300 0.750100 0.395700
H58 H 0.757700 0.131600 0.286900
H59 H 0.735800 0.002100 0.475100
H60 H 0.664500 0.630400 0.450000
H61 H 0.591400 0.507900 0.583200
H62 H 0.652500 0.153400 0.835000
H63 H 0.484200 0.065900 0.763400
H64 H 0.551400 0.157000 0.978100
H65 H 0.787200 0.460900 0.141000
H66 H 0.861200 0.364100 0.063300
H67 H 0.585600 0.389300 0.390300
H68 H 0.644500 0.270200 0.302500
H69 H 0.566500 -0.074100 0.653900
H70 H 0.625500 -0.041100 0.541800
H71 H 0.481400 0.259200 1.121400
H72 H 0.365000 0.325300 1.086400
H73 H 0.265900 0.301700 0.879200
H74 H 0.328800 0.307200 0.769300
H75 H 0.479100 0.865300 0.059100
H76 H 0.545100 0.780800 0.274100
H77 H 0.312900 0.458000 0.304700
H78 H 0.378300 0.866200 0.208500
H79 H 0.455900 0.724300 0.424900
H80 H 0.020200 0.725200 0.931800
H81 H 0.212400 0.733900 0.876400
H82 H 0.415600 0.660900 0.606400
H83 H 0.250600 0.771900 0.314400
H84 H 0.309500 1.039500 0.293700
H85 H 0.238700 1.183100 0.420600
H86 H 0.169300 0.924100 0.429100
H87 H 0.168900 0.614600 0.438100
H88 H 0.140900 0.532200 0.635400
H89 H -0.014400 0.645800 0.666300
H90 H 0.734100 0.801700 0.120800
C91 C 0.397000 0.730500 0.226500
C92 C 0.494800 0.697100 0.212400
C93 C 0.501100 0.732200 0.084700
C94 C 0.594200 0.701000 0.061100
C95 C 0.668300 0.824600 0.137500
C96 C 0.589800 0.721200 -0.075200
C97 C -0.087100 0.868000 0.821000
C98 C -0.025000 1.025200 0.811100
C99 C 0.030300 0.999300 0.717400
C100 C 0.083200 1.160100 0.702000
C101 C 0.133600 1.133800 0.603000
C102 C 0.190500 0.971900 0.615300
C103 C 0.134200 0.809500 0.632900
C104 C 0.390600 0.689300 0.357800
C105 C -0.025600 0.712500 0.844600
C106 C 0.170700 0.850100 0.863500
C107 C 0.375000 0.777300 0.613400
C108 C 0.313100 0.796000 0.387800
C109 C 0.334700 0.991900 0.382800
C110 C 0.285900 1.085700 0.470500
C111 C 0.228800 0.941800 0.506200
C112 C 0.286600 0.777600 0.508600
C113 C 0.225400 0.623600 0.519600
C114 C 0.186800 0.641800 0.633800
C115 C 0.092200 0.834400 0.741300
C116 C 0.030900 0.678000 0.754100
C117 C 0.969100 0.178000 0.245900
C118 C 0.907800 0.334400 0.258700
C119 C 0.865800 0.309500 0.367100
C120 C 0.809500 0.471900 0.384700
C121 C 0.866400 0.633800 0.397000
C122 C 0.916800 0.660100 0.298000
C123 C 0.969700 0.499300 0.282600
C124 C 1.025000 0.525200 0.188900
C125 C 1.087100 0.368000 0.179000
C126 C 0.410200 0.221200 1.075200
C127 C 0.331700 0.324600 0.862500
C128 C 0.405800 0.201000 0.938900
C129 C 0.498900 0.232200 0.915300
C130 C 0.505200 0.197100 0.787600
C131 C 0.603000 0.230500 0.773500
C132 C 0.622800 -0.005800 0.630900
C133 C 0.609400 0.189300 0.642200
C134 C 1.025600 0.212500 0.155400
C135 C 0.829300 0.350100 0.136500
C136 C 0.625000 0.277300 0.386600
C137 C 0.686900 0.296000 0.612200
C138 C 0.665300 0.491900 0.617200
C139 C 0.714100 0.585700 0.529500
C140 C 0.771200 0.441800 0.493800
C141 C 0.713400 0.277600 0.491400
C142 C 0.774600 0.123600 0.480400
C143 C 0.813200 0.141800 0.366200
C144 C 0.377200 0.494200 0.369100
Br145 Br 1.152600 0.408400 0.060300
Br146 Br -0.152600 0.908400 0.939700
Br147 Br -0.103800 0.500000 0.842300
Br148 Br 1.103800 0.000000 0.157700

#END
