./ABCLUA10_from_POSCAR.cif_generated_by_CrystalShift
_symmetry_cell_setting triclinic
_symmetry_space_group_name_H-M 'P 1'
loop_
_symmetry_equiv_pos_site_id
_symmetry_equiv_pos_as_xyz
1 x,y,z
_cell_length_a 11.206000
_cell_length_b 8.248000
_cell_length_c 14.272000
_cell_angle_alpha 90.000000
_cell_angle_beta 107.660000
_cell_angle_gamma 90.000000
_cell_volume 1256.953925
loop_
_atom_site_label
_atom_site_type_symbol
_atom_site_fract_x
_atom_site_fract_y
_atom_site_fract_z
H1 H 1.000000 0.784000 0.502000
H2 H 0.400000 1.310000 0.325000
H3 H 0.841000 1.043000 0.532000
H4 H 0.799000 0.692000 0.525000
H5 H 0.585000 0.686000 0.415000
H6 H 0.373000 0.692000 0.292000
H7 H 0.234000 1.056000 0.312000
H8 H 0.205000 1.201000 0.167000
H9 H 0.359000 1.249000 0.068000
H10 H 0.603000 1.247000 0.202000
H11 H 0.732000 1.003000 0.219000
H12 H 0.032000 1.163000 0.238000
H13 H -0.007000 1.006000 0.188000
H14 H 0.661000 0.931000 0.240000
H15 H 0.532000 0.994000 0.083000
H16 H 0.378000 0.950000 0.163000
H17 H 0.161000 1.035000 0.110000
H18 H 0.009000 0.510000 0.077000
H19 H 0.873000 -0.045000 0.947000
H20 H -0.046000 0.463000 0.492000
H21 H -0.029000 0.385000 0.403000
H22 H 0.062000 0.628000 0.018000
H23 H 0.172000 0.778000 0.316000
H24 H 1.029000 0.885000 0.597000
H25 H 1.046000 0.963000 0.508000
H26 H 0.043000 1.012000 0.301000
H27 H 0.181000 0.931000 -0.168000
H28 H 0.127000 0.455000 0.053000
H29 H 0.244000 1.003000 -0.202000
H30 H 0.481000 1.076000 0.303000
H31 H 0.815000 0.801000 0.604000
H32 H 0.394000 0.916000 0.430000
H33 H 0.000000 0.284000 0.498000
H34 H 0.991000 0.010000 0.923000
H35 H 0.622000 0.941000 0.532000
H36 H 0.268000 0.503000 0.781000
H37 H 0.397000 0.747000 0.798000
H38 H 0.641000 0.749000 0.932000
H39 H 0.795000 0.701000 0.833000
H40 H 0.766000 0.556000 0.688000
H41 H 0.627000 0.192000 0.708000
H42 H 0.415000 0.186000 0.585000
H43 H 0.201000 0.192000 0.475000
H44 H 0.159000 0.543000 0.468000
H45 H 0.600000 0.810000 0.675000
H46 H 0.857000 0.654000 1.227000
H47 H 0.968000 0.663000 0.762000
H48 H 1.007000 0.506000 0.812000
H49 H 0.339000 0.431000 0.760000
H50 H 0.468000 0.494000 0.917000
H51 H 0.622000 0.450000 0.837000
H52 H 0.839000 0.535000 0.890000
H53 H 0.828000 0.278000 0.684000
H54 H 0.606000 0.416000 0.570000
H55 H 0.378000 0.441000 0.468000
H56 H 0.185000 0.301000 0.396000
H57 H 0.519000 0.576000 0.697000
H58 H 0.756000 0.503000 1.202000
H59 H 0.819000 0.431000 1.168000
H60 H 0.957000 0.512000 0.699000
H61 H 0.938000 0.128000 0.982000
H62 H 0.143000 1.154000 -0.227000
C63 C 0.875700 0.099500 0.827900
C64 C 0.740100 1.070800 0.356200
C65 C 0.680400 1.033500 0.249300
C66 C 0.574400 1.147500 0.197700
C67 C 0.515100 1.108400 0.088400
C68 C 0.377500 1.134000 0.070000
C69 C 0.354600 1.063000 0.162800
C70 C 0.222200 1.082500 0.167900
C71 C 0.465100 1.142900 0.243300
C72 C 0.440000 1.310300 0.269100
C73 C 0.188700 1.010500 0.255200
C74 C 0.213200 0.827600 0.271300
C75 C 0.346200 0.777700 0.314700
C76 C 0.425600 0.833500 0.398100
C77 C 0.557000 0.786400 0.436100
C78 C 0.643200 0.862800 0.506600
C79 C 0.778000 0.824700 0.538700
C80 C 0.859800 0.946400 0.507600
C81 C 0.948000 0.548200 0.756000
C82 C 0.004900 0.403100 0.461300
C83 C 0.339300 0.658500 1.002200
C84 C 0.803500 0.546500 1.185500
C85 C 0.761100 0.642400 1.093600
C86 C 0.238900 1.142400 -0.093600
C87 C 0.196500 1.046500 -0.185500
C88 C 0.660700 1.158500 -0.002200
C89 C 0.140200 0.446400 0.492400
C90 C 0.222000 0.324700 0.461300
C91 C 0.995100 0.903100 0.538700
C92 C 0.356800 0.362800 0.493400
C93 C 0.443000 0.286400 0.563900
C94 C 0.574400 0.333500 0.601900
C95 C 0.052000 1.048200 0.244000
C96 C 0.124300 0.599500 0.172100
C97 C 0.076500 0.539000 0.068800
C98 C 0.653800 0.277700 0.685300
C99 C 0.786800 0.327600 0.728700
C100 C 0.811300 0.510500 0.744800
C101 C 0.560000 0.810300 0.730900
C102 C 0.534900 0.642900 0.756700
C103 C 0.777800 0.582500 0.832100
C104 C 0.645400 0.563000 0.837200
C105 C 0.622500 0.634000 0.930000
C106 C 0.484900 0.608400 0.911600
C107 C 0.425600 0.647500 0.802300
C108 C 0.319600 0.533500 0.750700
C109 C 0.923500 0.039000 0.931200
C110 C 0.259900 0.570800 0.643800
O111 O 0.562300 1.209700 0.027900
O112 O 0.212500 1.279900 -0.084900
O113 O 0.306900 1.051500 -0.018100
O114 O 0.127300 0.521600 0.243300
O115 O 0.162800 0.752800 0.174700
O116 O 0.441900 1.428500 0.238700
O117 O 0.816300 0.951200 0.400500
O118 O 0.279600 0.691000 0.603000
O119 O 0.437700 0.709700 0.972100
O120 O 0.787500 0.779900 1.084900
O121 O 0.693100 0.551500 1.018100
O122 O 0.872700 0.021600 0.756700
O123 O 0.837200 0.252800 0.825300
O124 O 0.558100 0.928500 0.761300
O125 O 0.183700 0.451200 0.599500
O126 O 0.720400 1.191000 0.397000

#END
