./ABCLCH_from_POSCAR.cif_generated_by_CrystalShift
_symmetry_cell_setting triclinic
_symmetry_space_group_name_H-M 'P 1'
loop_
_symmetry_equiv_pos_site_id
_symmetry_equiv_pos_as_xyz
1 x,y,z
_cell_length_a 20.990000
_cell_length_b 7.740000
_cell_length_c 11.440000
_cell_angle_alpha 90.000000
_cell_angle_beta 136.770000
_cell_angle_gamma 90.000000
_cell_volume 1272.989401
loop_
_atom_site_label
_atom_site_type_symbol
_atom_site_fract_x
_atom_site_fract_y
_atom_site_fract_z
H1 H 0.069000 0.798000 0.623000
H2 H 0.077000 1.136000 0.599000
H3 H 0.031000 1.259000 0.721000
H4 H -0.027000 0.971000 0.611000
H5 H -0.068000 1.126000 0.741000
H6 H -0.141000 0.850000 0.598000
H7 H 0.650000 0.964000 0.762000
H8 H 0.570000 0.863000 0.468000
H9 H 0.616000 0.582000 0.703000
H10 H 0.478000 0.874000 0.539000
H11 H 0.546000 0.777000 0.821000
H12 H 0.380000 0.874000 0.589000
H13 H 0.309000 0.463000 0.612000
H14 H 0.454000 0.731000 0.878000
H15 H 0.020000 0.699000 0.953000
H16 H 0.211000 0.726000 1.088000
H17 H 0.416000 0.672000 1.024000
H18 H 0.247000 0.780000 0.567000
H19 H 0.298000 1.043000 0.588000
H20 H 0.230000 1.185000 0.656000
H21 H 0.162000 0.923000 0.594000
H22 H 0.164000 0.612000 0.604000
H23 H 0.139000 0.523000 0.775000
H24 H -0.021000 0.639000 0.644000
H25 H 0.931000 0.298000 0.377000
H26 H 0.757000 0.483000 0.062000
H27 H 0.923000 0.636000 0.401000
H28 H 0.969000 0.759000 0.279000
H29 H 1.027000 0.471000 0.389000
H30 H 1.021000 0.139000 0.356000
H31 H 0.861000 0.023000 0.225000
H32 H 0.836000 0.112000 0.396000
H33 H 0.838000 0.423000 0.406000
H34 H 0.770000 0.685000 0.344000
H35 H 0.702000 0.543000 0.412000
H36 H 0.753000 0.280000 0.433000
H37 H 0.584000 0.172000 -0.024000
H38 H 0.789000 0.226000 -0.088000
H39 H 0.980000 0.199000 0.047000
H40 H 0.546000 0.231000 0.122000
H41 H 0.691000 -0.037000 0.388000
H42 H 0.620000 0.374000 0.411000
H43 H 0.454000 0.277000 0.179000
H44 H 0.522000 0.374000 0.461000
H45 H 0.384000 0.082000 0.297000
H46 H 0.430000 0.363000 0.532000
H47 H 0.350000 0.464000 0.238000
H48 H 1.141000 0.350000 0.402000
H49 H 1.068000 0.626000 0.259000
H50 H 0.243000 0.983000 0.938000
C51 C 0.815000 0.471000 0.197000
C52 C 0.873000 0.632000 0.268000
C53 C 0.920000 0.651000 0.210000
C54 C 0.975000 0.490000 0.253000
C55 C 0.973000 0.168000 0.219000
C56 C 0.911000 0.325000 0.165000
C57 C 0.027000 0.668000 0.781000
C58 C 0.089000 0.825000 0.835000
C59 C 0.183000 0.636000 0.818000
C60 C 0.222000 0.621000 0.742000
C61 C 0.286000 0.781000 0.796000
C62 C 0.222000 0.942000 0.730000
C63 C 0.280000 1.089000 0.754000
C64 C 0.329000 1.000000 0.712000
C65 C 0.308000 0.805000 0.694000
C66 C 0.372000 0.782000 0.986000
C67 C 0.167000 0.842000 1.032000
C68 C -0.029000 0.691000 0.820000
C69 C 0.389000 0.698000 0.748000
C70 C 0.373000 0.498000 0.739000
C71 C 0.398000 0.739000 0.628000
C72 C 0.494000 0.705000 0.707000
C73 C 0.500000 0.742000 0.584000
C74 C 0.596000 0.713000 0.658000
C75 C 0.591000 0.733000 0.520000
C76 C 0.669000 0.830000 0.807000
C77 C -0.090000 0.860000 0.737000
C78 C -0.028000 1.010000 0.795000
C79 C 0.025000 0.990000 0.747000
C80 C 0.080000 1.151000 0.790000
C81 C 0.127000 1.132000 0.732000
C82 C 0.185000 0.971000 0.803000
C83 C 0.127000 0.806000 0.759000
C84 C 1.028000 0.510000 0.205000
C85 C 1.090000 0.360000 0.263000
C86 C 0.331000 0.330000 0.193000
C87 C 0.409000 0.233000 0.480000
C88 C 0.404000 0.213000 0.342000
C89 C 0.500000 0.242000 0.416000
C90 C 0.506000 0.205000 0.293000
C91 C 0.602000 0.239000 0.372000
C92 C 0.627000 -0.002000 0.261000
C93 C 0.611000 0.198000 0.252000
C94 C 1.029000 0.191000 0.180000
C95 C 0.833000 0.342000 -0.032000
C96 C 0.628000 0.282000 0.014000
C97 C 0.692000 0.305000 0.306000
C98 C 0.671000 0.500000 0.288000
C99 C 0.720000 0.589000 0.246000
C100 C 0.778000 0.442000 0.270000
C101 C 0.714000 0.281000 0.204000
C102 C 0.778000 0.121000 0.258000
C103 C 0.817000 0.136000 0.182000
C104 C 0.873000 0.306000 0.241000
Cl105 Cl 1.148000 0.380000 0.206000
Cl106 Cl -0.100000 0.500000 0.745000
Cl107 Cl -0.148000 0.880000 0.794000
Cl108 Cl 1.100000 0.000000 0.255000

#END
