./ABCMHP_from_POSCAR.cif_generated_by_CrystalShift
_symmetry_cell_setting triclinic
_symmetry_space_group_name_H-M 'P 1'
loop_
_symmetry_equiv_pos_site_id
_symmetry_equiv_pos_as_xyz
1 x,y,z
_cell_length_a 6.060000
_cell_length_b 13.193000
_cell_length_c 24.688000
_cell_angle_alpha 90.000000
_cell_angle_beta 102.210000
_cell_angle_gamma 90.000000
_cell_volume 1929.146002
loop_
_atom_site_label
_atom_site_type_symbol
_atom_site_fract_x
_atom_site_fract_y
_atom_site_fract_z
C1 C 0.794200 0.095600 0.769000
C2 C 0.948700 0.328900 0.544700
C3 C 0.795800 0.317600 0.587300
C4 C 1.156700 0.200100 0.227200
C5 C 0.911800 0.198900 0.190500
C6 C 0.807700 0.306400 0.186200
C7 C 0.612200 0.314600 0.136100
C8 C 0.692700 0.290800 0.083600
C9 C 0.795800 0.182400 0.087300
C10 C 0.948700 0.171100 0.044700
C11 C 0.619100 0.101000 0.081200
C12 C 0.794200 0.404400 0.269000
C13 C 0.334600 0.447400 0.131600
C14 C 0.505200 0.359300 -0.003700
C15 C 0.673200 0.415300 0.314200
C16 C 0.297100 0.559500 0.138100
C17 C 0.274400 0.360400 -0.044400
C18 C 0.692700 0.209200 0.583600
C19 C 0.612200 0.185400 0.636100
C20 C 0.807700 0.193600 0.686200
C21 C 0.911800 0.301100 0.690500
C22 C 1.156700 0.299900 0.727200
C23 C 0.334600 0.052600 0.631600
C24 C 0.505200 0.140700 0.496300
C25 C 0.673200 0.084700 0.814200
C26 C 0.725600 0.639600 1.044400
C27 C 0.702900 0.440500 0.861900
C28 C 0.326800 0.584700 0.685800
C29 C -0.156700 0.700100 0.272800
C30 C 0.088200 0.698900 0.309500
C31 C 0.192300 0.806400 0.313800
C32 C 0.387800 0.814600 0.363900
C33 C 0.307300 0.790800 0.416400
C34 C 0.204200 0.682400 0.412700
C35 C 0.051300 0.671100 0.455300
C36 C 0.380900 0.601000 0.418800
C37 C 0.205800 0.904400 0.231000
C38 C 0.665400 0.947400 0.368400
C39 C 0.494800 0.859300 0.503700
C40 C 0.326800 0.915300 0.185800
C41 C 0.702900 1.059500 0.361900
C42 C 0.725600 0.860400 0.544400
C43 C 0.494800 0.640700 1.003700
C44 C 0.619100 0.399000 0.581200
C45 C 0.665400 0.552600 0.868400
C46 C 0.205800 0.595600 0.731000
C47 C 0.380900 0.899000 0.918800
C48 C 0.051300 0.828900 0.955300
C49 C 0.204200 0.817600 0.912700
C50 C 0.307300 0.709200 0.916400
C51 C 0.387800 0.685400 0.863900
C52 C 0.274400 0.139600 0.455600
C53 C 0.297100 -0.059500 0.638100
C54 C -0.156700 0.799900 0.772800
C55 C 0.088200 0.801100 0.809500
C56 C 0.192300 0.693600 0.813800
O57 O 0.770000 0.372400 0.705300
O58 O 0.334900 0.908300 0.506500
O59 O 0.811500 0.882800 0.374600
O60 O 0.048500 0.953700 0.240700
O61 O 0.032900 0.675600 0.361800
O62 O 0.502300 0.794700 0.461300
O63 O 0.449500 0.921100 0.366000
O64 O 0.230000 0.627600 0.294700
O65 O 0.715100 0.174500 0.734100
O66 O 0.550500 0.078900 0.634000
O67 O 0.497700 0.205300 0.538700
O68 O 0.230000 0.872400 0.794700
O69 O 0.284900 0.674500 0.765900
O70 O 0.449500 0.578900 0.866000
O71 O 0.502300 0.705300 0.961300
O72 O 0.032900 0.824400 0.861800
O73 O 0.048500 0.546300 0.740700
O74 O 0.811500 0.617200 0.874600
O75 O 0.334900 0.591700 1.006500
O76 O 0.665100 0.408300 -0.006500
O77 O 0.188500 0.382800 0.125400
O78 O 0.951500 0.453700 0.259300
O79 O 0.967100 0.175600 0.138200
O80 O 0.497700 0.294700 0.038700
O81 O 0.550500 0.421100 0.134000
O82 O 0.715100 0.325500 0.234100
O83 O 0.770000 0.127600 0.205300
O84 O 0.967100 0.324400 0.638200
O85 O 0.951500 0.046300 0.759300
O86 O 0.284900 0.825500 0.265900
O87 O 0.665100 0.091700 0.493500
O88 O 0.188500 0.117200 0.625400
Cl89 Cl 0.802000 0.158400 -0.024900
Cl90 Cl 0.198000 0.658400 0.524900
Cl91 Cl 0.198000 0.841600 1.024900
Cl92 Cl 0.802000 0.341600 0.475100
Br93 Br 1.157400 0.290700 0.805100
Br94 Br 0.257600 0.465500 0.411100
Br95 Br -0.157400 0.709300 0.194900
Br96 Br 0.742400 0.534500 0.588900
Br97 Br 0.742400 -0.034500 0.088900
Br98 Br -0.157400 0.790700 0.694900
Br99 Br 0.257600 1.034500 0.911100
Br100 Br 1.157400 0.209300 0.305100

#END
