./ABDZNC20_from_POSCAR.cif_generated_by_CrystalShift
_symmetry_cell_setting triclinic
_symmetry_space_group_name_H-M 'P 1'
loop_
_symmetry_equiv_pos_site_id
_symmetry_equiv_pos_as_xyz
1 x,y,z
_cell_length_a 14.250000
_cell_length_b 15.300000
_cell_length_c 10.650000
_cell_angle_alpha 90.000000
_cell_angle_beta 90.000000
_cell_angle_gamma 90.000000
_cell_volume 2321.966250
loop_
_atom_site_label
_atom_site_type_symbol
_atom_site_fract_x
_atom_site_fract_y
_atom_site_fract_z
H1 H 0.258000 0.828000 0.379000
H2 H 0.074000 0.989000 0.135000
H3 H 0.758000 0.828000 0.879000
H4 H 0.742000 0.672000 0.379000
H5 H 0.958000 0.415000 0.325000
H6 H 0.926000 0.511000 0.135000
H7 H 0.542000 1.085000 0.825000
H8 H 0.574000 0.989000 0.635000
H9 H 0.258000 0.328000 0.621000
H10 H 0.042000 0.585000 0.675000
H11 H 0.074000 0.489000 0.865000
H12 H 0.758000 0.328000 0.121000
H13 H 0.542000 0.585000 0.175000
H14 H 0.574000 0.489000 0.365000
H15 H 0.042000 1.085000 0.325000
H16 H 0.742000 0.172000 0.621000
H17 H 0.958000 -0.085000 0.675000
H18 H 0.242000 0.672000 0.879000
H19 H 0.458000 0.415000 0.825000
H20 H 0.426000 0.511000 0.635000
H21 H 0.926000 0.011000 0.865000
H22 H 0.242000 0.172000 0.121000
H23 H 0.458000 -0.085000 0.175000
H24 H 0.426000 0.011000 0.365000
C25 C 0.368000 0.485000 0.957000
C26 C 0.410000 0.470000 0.835000
C27 C 0.395000 0.523000 0.728000
C28 C 0.334000 0.595000 0.758000
C29 C 0.053000 1.156000 0.538000
C30 C 0.158000 1.056000 0.681000
C31 C 0.334000 0.095000 0.242000
C32 C 0.395000 0.023000 0.272000
C33 C 0.410000 -0.030000 0.165000
C34 C 0.368000 -0.015000 0.043000
C35 C 0.304000 0.056000 0.029000
C36 C 0.288000 0.116000 0.129000
C37 C 0.342000 -0.056000 -0.181000
C38 C 0.447000 -0.156000 -0.038000
C39 C 0.304000 0.556000 0.971000
C40 C 0.288000 0.616000 0.871000
C41 C 0.342000 0.444000 1.181000
C42 C 0.212000 0.884000 0.371000
C43 C 0.196000 0.944000 0.471000
C44 C 0.132000 1.015000 0.457000
C45 C 0.834000 0.095000 0.742000
C46 C 0.895000 0.023000 0.772000
C47 C 0.910000 -0.030000 0.665000
C48 C 0.868000 -0.015000 0.543000
C49 C 0.804000 0.056000 0.529000
C50 C 0.788000 0.116000 0.629000
C51 C 0.842000 -0.056000 0.319000
C52 C 0.947000 -0.156000 0.462000
C53 C 0.447000 0.344000 1.038000
C54 C 0.090000 1.030000 0.335000
C55 C 0.105000 0.977000 0.228000
C56 C 0.166000 0.905000 0.258000
C57 C 0.947000 0.344000 0.538000
C58 C 0.842000 0.444000 0.681000
C59 C 0.666000 0.405000 0.242000
C60 C 0.605000 0.477000 0.272000
C61 C 0.590000 0.530000 0.165000
C62 C 0.632000 0.515000 0.043000
C63 C 0.696000 0.444000 0.029000
C64 C 0.712000 0.384000 0.129000
C65 C 0.658000 0.556000 -0.181000
C66 C 0.553000 0.656000 -0.038000
C67 C 0.834000 0.595000 0.258000
C68 C 0.895000 0.523000 0.228000
C69 C 0.910000 0.470000 0.335000
C70 C 0.553000 1.156000 1.038000
C71 C 0.658000 1.056000 1.181000
C72 C 0.712000 0.884000 0.871000
C73 C 0.166000 0.405000 0.742000
C74 C 0.105000 0.477000 0.772000
C75 C 0.090000 0.530000 0.665000
C76 C 0.132000 0.515000 0.543000
C77 C 0.196000 0.444000 0.529000
C78 C 0.212000 0.384000 0.629000
C79 C 0.158000 0.556000 0.319000
C80 C 0.053000 0.656000 0.462000
C81 C 0.868000 0.485000 0.457000
C82 C 0.804000 0.556000 0.471000
C83 C 0.788000 0.616000 0.371000
C84 C 0.696000 0.944000 0.971000
C85 C 0.632000 1.015000 0.957000
C86 C 0.590000 1.030000 0.835000
C87 C 0.666000 0.905000 0.758000
C88 C 0.605000 0.977000 0.728000
N89 N 0.112000 0.573000 0.446000
N90 N 0.212000 0.299000 0.928000
N91 N 0.189000 0.350000 0.852000
N92 N 0.888000 0.427000 0.554000
N93 N 0.712000 0.299000 0.428000
N94 N 0.689000 0.350000 0.352000
N95 N 0.888000 -0.073000 0.446000
N96 N 0.788000 0.201000 0.928000
N97 N 0.811000 0.650000 0.148000
N98 N 0.689000 0.850000 0.648000
N99 N 0.712000 0.799000 0.572000
N100 N 0.612000 1.073000 1.054000
N101 N 0.388000 0.427000 1.054000
N102 N 0.288000 0.701000 0.572000
N103 N 0.311000 0.650000 0.648000
N104 N 0.388000 -0.073000 -0.054000
N105 N 0.288000 0.201000 0.428000
N106 N 0.311000 0.150000 0.352000
N107 N 0.212000 0.799000 0.072000
N108 N 0.112000 1.073000 0.554000
N109 N 0.788000 0.701000 0.072000
N110 N 0.811000 0.150000 0.852000
N111 N 0.612000 0.573000 -0.054000
N112 N 0.189000 0.850000 0.148000
Cl113 Cl 0.879000 0.704000 0.760000
Cl114 Cl 0.950000 0.863000 1.016000
Cl115 Cl 0.379000 0.204000 0.740000
Cl116 Cl 1.121000 0.796000 0.760000
Cl117 Cl 1.050000 0.637000 1.016000
Cl118 Cl -0.121000 0.704000 0.760000
Cl119 Cl -0.050000 0.863000 1.016000
Cl120 Cl 0.550000 0.137000 0.484000
Cl121 Cl 0.121000 0.796000 0.760000
Cl122 Cl 0.050000 0.637000 1.016000
Cl123 Cl 0.379000 0.704000 0.260000
Cl124 Cl 0.450000 0.863000 0.516000
Cl125 Cl 0.621000 0.296000 0.740000
Cl126 Cl 0.621000 0.796000 0.260000
Cl127 Cl 0.550000 0.637000 0.516000
Cl128 Cl 1.121000 0.296000 0.240000
Cl129 Cl 1.050000 0.137000 -0.016000
Cl130 Cl -0.050000 0.363000 -0.016000
Cl131 Cl 0.879000 0.204000 0.240000
Cl132 Cl 0.950000 0.363000 -0.016000
Cl133 Cl 0.121000 0.296000 0.240000
Cl134 Cl 0.050000 0.137000 -0.016000
Cl135 Cl -0.121000 0.204000 0.240000
Cl136 Cl 0.450000 0.363000 0.484000
Zn137 Zn 0.500000 0.750000 0.388000
Zn138 Zn 0.000000 0.750000 0.888000
Zn139 Zn 0.500000 0.250000 0.612000
Zn140 Zn 1.000000 0.750000 0.888000
Zn141 Zn 1.000000 0.250000 0.112000
Zn142 Zn 0.000000 0.250000 0.112000

#END
