./ABEBEP_from_POSCAR.cif_generated_by_CrystalShift
_symmetry_cell_setting triclinic
_symmetry_space_group_name_H-M 'P 1'
loop_
_symmetry_equiv_pos_site_id
_symmetry_equiv_pos_as_xyz
1 x,y,z
_cell_length_a 5.921000
_cell_length_b 8.057000
_cell_length_c 11.136000
_cell_angle_alpha 70.920000
_cell_angle_beta 87.630000
_cell_angle_gamma 83.820000
_cell_volume 499.134836
loop_
_atom_site_label
_atom_site_type_symbol
_atom_site_fract_x
_atom_site_fract_y
_atom_site_fract_z
H1 H 0.827200 0.482500 0.906900
H2 H 0.776200 0.659200 0.698900
H3 H 0.540900 0.139000 0.693000
H4 H 0.938100 0.994700 0.112100
H5 H 0.486700 0.021100 0.612300
H6 H 0.869600 0.501000 0.411400
H7 H 0.525700 -0.063700 0.759100
H8 H 0.489300 0.620800 0.581200
H9 H 1.073900 1.049500 0.287400
H10 H 0.889800 1.073000 0.387400
H11 H 0.856900 1.182900 0.243300
H12 H 0.586100 0.267400 0.997400
H13 H 0.413900 0.732600 0.002600
H14 H 0.143100 -0.182900 0.756700
H15 H 0.510700 0.379200 0.418800
H16 H 0.110200 -0.073000 0.612600
H17 H -0.073900 -0.049500 0.712600
H18 H 0.130400 0.499000 0.588600
H19 H 0.474300 1.063700 0.240900
H20 H 0.513300 0.978900 0.387700
H21 H 0.459100 0.861000 0.307000
H22 H 0.061900 0.005300 0.887900
H23 H 0.172800 0.517500 0.093100
H24 H 0.223800 0.340800 0.301100
C25 C 0.319500 0.428500 0.264600
C26 C 0.289100 0.533200 0.140800
C27 C 0.884200 0.744300 0.374200
C28 C 0.680500 0.571500 0.735400
C29 C 0.115800 0.255700 0.625800
C30 C 0.240400 0.171700 0.909600
C31 C 0.759600 0.828300 0.090400
C32 C 0.606400 0.691200 0.156900
C33 C 0.535400 0.960300 0.306900
C34 C 0.393600 0.308800 0.843100
C35 C 0.085800 -0.071200 0.697900
C36 C 0.789900 0.924400 0.283180
C37 C 0.634300 0.584500 0.283300
C38 C 0.490500 0.452300 0.335100
C39 C 0.566800 0.337200 0.912800
C40 C 0.433200 0.662800 0.087200
C41 C 0.509500 0.547700 0.664900
C42 C 0.914200 1.071200 0.302100
C43 C 0.365700 0.415500 0.716700
C44 C 0.210100 0.075600 0.716820
C45 C 0.464600 0.039700 0.693100
C46 C 0.710900 0.466800 0.859200
N47 N 0.841700 0.923800 0.153280
N48 N 0.158300 0.076200 0.846720
N49 N 0.805600 0.599600 0.362780
N50 N 0.194400 0.400400 0.637220
O51 O 0.808600 0.851700 -0.023310
O52 O -0.027100 0.268000 0.545910
O53 O 0.191400 0.148300 1.023310
O54 O 1.027100 0.732000 0.454090

#END
