./ABEBUF_from_POSCAR.cif_generated_by_CrystalShift
_symmetry_cell_setting triclinic
_symmetry_space_group_name_H-M 'P 1'
loop_
_symmetry_equiv_pos_site_id
_symmetry_equiv_pos_as_xyz
1 x,y,z
_cell_length_a 10.721700
_cell_length_b 10.899800
_cell_length_c 27.635300
_cell_angle_alpha 90.000000
_cell_angle_beta 90.000000
_cell_angle_gamma 90.000000
_cell_volume 3229.582357
loop_
_atom_site_label
_atom_site_type_symbol
_atom_site_fract_x
_atom_site_fract_y
_atom_site_fract_z
H1 H 0.632000 0.652000 0.875700
H2 H 0.557100 0.836000 0.908800
H3 H 0.343900 0.882000 0.902900
H4 H 0.209000 0.735000 0.863300
H5 H 0.442900 0.164000 0.091200
H6 H 0.656100 0.118000 0.097100
H7 H 0.791000 0.265000 0.136700
H8 H 0.701000 0.449000 0.166500
H9 H 1.132000 0.652000 0.624300
H10 H 1.057100 0.836000 0.591200
H11 H 0.843900 0.882000 0.597100
H12 H 0.709000 0.735000 0.636700
H13 H 0.799000 0.551000 0.666500
H14 H 0.201000 0.051000 0.833500
H15 H 0.632000 0.848000 0.375700
H16 H 0.557100 0.664000 0.408800
H17 H 0.343900 0.618000 0.402900
H18 H 0.209000 0.765000 0.363300
H19 H 1.173000 0.474700 0.149400
H20 H 1.189900 0.091000 0.089000
H21 H 0.923400 0.451000 0.031400
H22 H 0.788000 0.312200 -0.007900
H23 H 0.815400 0.099000 0.002300
H24 H 0.972500 0.023000 0.054900
H25 H 0.975800 0.086000 0.216500
H26 H 0.843500 0.207300 0.265700
H27 H 0.841100 0.421800 0.256800
H28 H 0.967800 0.515800 0.195900
H29 H 0.299000 0.551000 0.833500
H30 H 0.299000 0.949000 0.333500
H31 H 0.291000 0.235000 0.863300
H32 H 1.132000 0.848000 0.124300
H33 H 1.057100 0.664000 0.091200
H34 H 0.843900 0.618000 0.097100
H35 H 0.709000 0.765000 0.136700
H36 H 0.799000 0.949000 0.166500
H37 H 0.156100 0.382000 0.902900
H38 H 0.467800 -0.015800 0.804100
H39 H 0.341100 0.078200 0.743200
H40 H 0.343500 0.292700 0.734300
H41 H 0.475800 0.414000 0.783500
H42 H 0.472500 0.477000 0.945100
H43 H 0.315400 0.401000 0.997700
H44 H 0.288000 0.187800 1.007900
H45 H 0.423400 0.049000 0.968600
H46 H 0.689900 0.409000 0.911000
H47 H 0.673000 0.474700 0.350600
H48 H 0.689900 0.091000 0.411000
H49 H 0.423400 0.451000 0.468600
H50 H 0.288000 0.312200 0.507900
H51 H 0.315400 0.099000 0.497700
H52 H 0.472500 0.023000 0.445100
H53 H 0.475800 0.086000 0.283500
H54 H 0.343500 0.207300 0.234300
H55 H 0.341100 0.421800 0.243200
H56 H 0.467800 0.515800 0.304100
H57 H 0.673000 0.025300 0.850600
H58 H -0.057100 0.336000 0.908800
H59 H -0.132000 0.348000 0.375700
H60 H -0.057100 0.164000 0.408800
H61 H -0.132000 0.152000 0.875700
H62 H 0.032200 1.015800 0.304100
H63 H 0.158900 0.921800 0.243200
H64 H 0.156500 0.707300 0.234300
H65 H 0.024200 0.586000 0.283500
H66 H 0.027500 0.523000 0.445100
H67 H 0.184600 0.599000 0.497700
H68 H 0.212000 0.812200 0.507900
H69 H 0.076600 0.951000 0.468600
H70 H -0.189900 0.591000 0.411000
H71 H -0.173000 0.974700 0.350600
H72 H 0.701000 0.051000 0.666500
H73 H 0.532200 0.484200 0.695900
H74 H 0.658900 0.578200 0.756800
H75 H 1.173000 0.025300 0.649400
H76 H 1.189900 0.409000 0.589000
H77 H 0.923400 0.049000 0.531400
H78 H 0.788000 0.187800 0.492100
H79 H 0.815400 0.401000 0.502300
H80 H 0.972500 0.477000 0.554900
H81 H 0.975800 0.414000 0.716500
H82 H 0.843500 0.292700 0.765700
H83 H 0.841100 0.078200 0.756800
H84 H 0.967800 -0.015800 0.695900
H85 H 0.156100 0.118000 0.402900
H86 H 0.291000 0.265000 0.363300
H87 H 0.201000 0.449000 0.333500
H88 H 0.656500 0.792700 0.765700
H89 H 0.524200 0.914000 0.716500
H90 H 0.527500 0.977000 0.554900
H91 H 0.684600 0.901000 0.502300
H92 H 0.712000 0.687800 0.492100
H93 H 0.576600 0.549000 0.531400
H94 H 0.310100 0.909000 0.589000
H95 H 0.327000 0.525300 0.649400
H96 H 0.791000 0.235000 0.636700
H97 H 0.656100 0.382000 0.597100
H98 H 0.442900 0.336000 0.591200
H99 H 0.368000 0.152000 0.624300
H100 H 0.032200 0.484200 0.804100
H101 H 0.158900 0.578200 0.743200
H102 H 0.156500 0.792700 0.734300
H103 H 0.327000 0.974700 0.149400
H104 H 0.310100 0.591000 0.089000
H105 H 0.576600 0.951000 0.031400
H106 H 0.712000 0.812200 -0.007900
H107 H 0.684600 0.599000 0.002300
H108 H 0.527500 0.523000 0.054900
H109 H 0.524200 0.586000 0.216500
H110 H 0.656500 0.707300 0.265700
H111 H 0.658900 0.921800 0.256800
H112 H 0.532200 1.015800 0.195900
H113 H 0.024200 0.914000 0.783500
H114 H 0.027500 0.977000 0.945100
H115 H 0.184600 0.901000 0.997700
H116 H 0.212000 0.687800 1.007900
H117 H 0.076600 0.549000 0.968600
H118 H -0.189900 0.909000 0.911000
H119 H -0.173000 0.525300 0.850600
H120 H 0.368000 0.348000 0.124300
C121 C 0.131580 0.845310 0.980940
C122 C 0.038380 0.889530 0.950840
C123 C -0.039360 0.808350 0.926580
C124 C -0.140040 0.850730 0.848210
C125 C -0.047120 0.771710 0.822370
C126 C 0.027690 0.825850 0.787030
C127 C 0.104490 0.754720 0.758100
C128 C 0.105590 0.627880 0.763730
C129 C 0.032940 0.573090 0.799160
C130 C -0.042510 0.644900 0.828930
C131 C 0.067660 0.638420 0.964050
C132 C -0.026040 0.682050 0.933510
C133 C -0.115190 0.592400 0.911490
C134 C 0.148320 0.384740 0.349910
C135 C 0.199980 0.277990 0.367240
C136 C 0.123740 0.193100 0.388720
C137 C -0.001890 0.219760 0.392260
C138 C 0.457490 0.855100 0.171070
C139 C 0.532940 0.926910 0.200840
C140 C 0.605590 0.872120 0.236270
C141 C 0.604490 0.745280 0.241900
C142 C 0.527690 0.674150 0.212970
C143 C 0.452880 0.728290 0.177630
C144 C 0.359960 0.649270 0.151790
C145 C 0.384810 0.592400 0.588510
C146 C 0.473960 0.682050 0.566490
C147 C 0.567660 0.638420 0.535950
C148 C 0.646650 0.719810 0.512780
C149 C 0.631580 0.845310 0.519060
C150 C 0.538380 0.889530 0.549160
C151 C 0.460640 0.808350 0.573420
C152 C 0.359960 0.850730 0.651790
C153 C 0.452880 0.771710 0.677630
C154 C 0.527690 0.825850 0.712970
C155 C 0.604490 0.754720 0.741900
C156 C 0.605590 0.627880 0.736270
C157 C 0.532940 0.573090 0.700840
C158 C 0.457490 0.644900 0.671070
C159 C 0.460640 0.691650 0.073420
C160 C 0.538380 0.610470 0.049160
C161 C 0.631580 0.654690 0.019060
C162 C 0.646650 0.780190 0.012780
C163 C 0.567660 0.861580 0.035950
C164 C 0.473960 0.817950 0.066490
C165 C 0.384810 0.907600 0.088510
C166 C -0.043850 0.328080 0.373180
C167 C 1.042510 0.144900 0.671070
C168 C 0.967060 0.073090 0.700840
C169 C 0.894410 0.127880 0.736270
C170 C 0.456150 0.171920 0.626820
C171 C 0.498110 0.280240 0.607740
C172 C 0.623740 0.306900 0.611280
C173 C -0.115190 0.907600 0.411490
C174 C -0.026040 0.817950 0.433510
C175 C 0.067660 0.861580 0.464050
C176 C 0.146650 0.780190 0.487220
C177 C 0.131580 0.654690 0.480940
C178 C 0.038380 0.610470 0.450840
C179 C -0.039360 0.691650 0.426580
C180 C -0.140040 0.649270 0.348210
C181 C -0.047120 0.728290 0.322370
C182 C 0.027690 0.674150 0.287030
C183 C 0.104490 0.745280 0.258100
C184 C 0.105590 0.872120 0.263730
C185 C 0.032940 0.926910 0.299160
C186 C -0.042510 0.855100 0.328930
C187 C 0.895510 0.254720 0.741900
C188 C 0.972310 0.325850 0.712970
C189 C 1.047120 0.271710 0.677630
C190 C 1.140040 0.350730 0.651790
C191 C 1.039360 0.308350 0.573420
C192 C 0.961620 0.389530 0.549160
C193 C 0.868420 0.345310 0.519060
C194 C 0.853350 0.219810 0.512780
C195 C 0.932340 0.138420 0.535950
C196 C 1.026040 0.182050 0.566490
C197 C 0.699980 0.222010 0.632760
C198 C 0.648320 0.115260 0.650090
C199 C 1.115190 0.092400 0.588510
C200 C 0.351680 0.615260 0.849910
C201 C 0.615190 0.092400 0.911490
C202 C 0.526040 0.182050 0.933510
C203 C 0.432340 0.138420 0.964050
C204 C 0.353350 0.219810 0.987220
C205 C 0.368420 0.345310 0.980940
C206 C 0.461620 0.389530 0.950840
C207 C 0.539360 0.308350 0.926580
C208 C 0.640040 0.350730 0.848210
C209 C 0.547120 0.271710 0.822370
C210 C 0.472310 0.325850 0.787030
C211 C 0.395510 0.254720 0.758100
C212 C 0.394410 0.127880 0.763730
C213 C 0.467060 0.073090 0.799160
C214 C 0.542510 0.144900 0.828930
C215 C 0.300020 0.722010 0.867240
C216 C 0.542510 0.355100 0.328930
C217 C 0.467060 0.426910 0.299160
C218 C 0.394410 0.372120 0.263730
C219 C 0.395510 0.245280 0.258100
C220 C 0.472310 0.174150 0.287030
C221 C 0.547120 0.228290 0.322370
C222 C 0.640040 0.149270 0.348210
C223 C 0.539360 0.191650 0.426580
C224 C 0.461620 0.110470 0.450840
C225 C 0.368420 0.154690 0.480940
C226 C 0.851680 0.884740 0.150090
C227 C 0.800020 0.777990 0.132760
C228 C 0.876260 0.693100 0.111280
C229 C 1.001890 0.719760 0.107740
C230 C 1.043850 0.828080 0.126820
C231 C 0.353350 0.280190 0.487220
C232 C 0.432340 0.361580 0.464050
C233 C 0.526040 0.317950 0.433510
C234 C 0.615190 0.407600 0.411490
C235 C 0.376260 0.806900 0.888720
C236 C 0.501890 0.780240 0.892260
C237 C 0.351680 0.884740 0.349910
C238 C 0.300020 0.777990 0.367240
C239 C 0.376260 0.693100 0.388720
C240 C 0.501890 0.719760 0.392260
C241 C 0.543850 0.828080 0.373180
C242 C 0.543850 0.671920 0.873180
C243 C 1.042510 0.355100 0.171070
C244 C 0.967060 0.426910 0.200840
C245 C 0.894410 0.372120 0.236270
C246 C 0.895510 0.245280 0.241900
C247 C 0.972310 0.174150 0.212970
C248 C 0.851680 0.615260 0.650090
C249 C 0.800020 0.722010 0.632760
C250 C 0.876260 0.806900 0.611280
C251 C 1.001890 0.780240 0.607740
C252 C 1.043850 0.671920 0.626820
C253 C 1.047120 0.228290 0.177630
C254 C 1.140040 0.149270 0.151790
C255 C 1.039360 0.191650 0.073420
C256 C 0.961620 0.110470 0.049160
C257 C 0.868420 0.154690 0.019060
C258 C -0.043850 0.171920 0.873180
C259 C 0.648320 0.384740 0.150090
C260 C 0.699980 0.277990 0.132760
C261 C 0.623740 0.193100 0.111280
C262 C 0.498110 0.219760 0.107740
C263 C 0.456150 0.328080 0.126820
C264 C 0.853350 0.280190 0.012780
C265 C 0.932340 0.361580 0.035950
C266 C 1.026040 0.317950 0.066490
C267 C 1.115190 0.407600 0.088510
C268 C 0.146650 0.719810 0.987220
C269 C -0.001890 0.280240 0.892260
C270 C 0.148320 0.115260 0.849910
C271 C 0.199980 0.222010 0.867240
C272 C 0.123740 0.306900 0.888720
N273 N 0.028080 0.088850 0.852360
N274 N 0.528080 0.411150 0.147640
N275 N 0.971920 0.588850 0.647640
N276 N 0.471920 0.911150 0.352360
N277 N 0.971920 0.911150 0.147640
N278 N 0.637740 0.355060 0.897030
N279 N 0.621460 0.084270 0.862980
N280 N 0.528080 0.088850 0.647640
N281 N 1.121460 0.415730 0.137020
N282 N 1.137740 0.144940 0.102970
N283 N -0.137740 0.644940 0.397030
N284 N -0.121460 0.915730 0.362980
N285 N 0.621460 0.415730 0.362980
N286 N 0.637740 0.144940 0.397030
N287 N 0.362260 0.855060 0.602970
N288 N 0.378540 0.584270 0.637020
N289 N 0.471920 0.588850 0.852360
N290 N 1.121460 0.084270 0.637020
N291 N 0.028080 0.411150 0.352360
N292 N -0.137740 0.855060 0.897030
N293 N -0.121460 0.584270 0.862980
N294 N 1.137740 0.355060 0.602970
N295 N 0.378540 0.915730 0.137020
N296 N 0.362260 0.644940 0.102970
O297 O -0.179890 0.525900 0.937730
O298 O 0.282120 0.591550 0.175440
O299 O 0.320110 0.974100 0.062270
O300 O -0.217880 0.908450 0.824560
O301 O 0.320110 0.525900 0.562270
O302 O 0.282120 0.908450 0.675440
O303 O 1.217880 0.408450 0.675440
O304 O 1.179890 0.025900 0.562270
O305 O -0.179890 0.974100 0.437730
O306 O -0.217880 0.591550 0.324560
O307 O 0.717880 0.091550 0.324560
O308 O 0.679890 0.474100 0.437730
O309 O 0.679890 0.025900 0.937730
O310 O 0.717880 0.408450 0.824560
O311 O 1.217880 0.091550 0.175440
O312 O 1.179890 0.474100 0.062270

#END
