./ABECAL_from_POSCAR.cif_generated_by_CrystalShift
_symmetry_cell_setting triclinic
_symmetry_space_group_name_H-M 'P 1'
loop_
_symmetry_equiv_pos_site_id
_symmetry_equiv_pos_as_xyz
1 x,y,z
_cell_length_a 10.060000
_cell_length_b 7.841000
_cell_length_c 22.693000
_cell_angle_alpha 90.000000
_cell_angle_beta 93.740000
_cell_angle_gamma 90.000000
_cell_volume 1786.222084
loop_
_atom_site_label
_atom_site_type_symbol
_atom_site_fract_x
_atom_site_fract_y
_atom_site_fract_z
H1 H 0.912200 0.210800 0.778500
H2 H 1.143100 0.050800 0.926000
H3 H 0.957700 -0.104000 0.956900
H4 H 0.749200 -0.107000 0.902000
H5 H 0.539200 0.199500 0.673700
H6 H 0.742800 0.192600 0.726400
H7 H 0.572200 -0.083200 0.856000
H8 H 0.368600 -0.080000 0.802200
H9 H 0.345600 0.211400 0.618300
H10 H 0.168300 -0.073800 0.748500
H11 H -0.089100 -0.085800 0.690100
H12 H -0.297200 -0.093600 0.629700
H13 H -0.431400 -0.021100 0.541600
H14 H -0.336400 0.134500 0.465100
H15 H -0.142900 0.280500 0.424000
H16 H 0.080700 0.374900 0.437700
H17 H 0.219700 0.306000 0.524800
H18 H -0.412200 0.710800 0.721500
H19 H -0.616000 0.706900 0.664800
H20 H -0.643100 0.550800 0.574000
H21 H -0.457700 0.396000 0.543100
H22 H -0.249200 0.393000 0.598000
H23 H -0.039200 0.699500 0.826300
H24 H -0.242800 0.692600 0.773600
H25 H -0.072200 0.416800 0.644000
H26 H 0.131400 0.420000 0.697800
H27 H 0.154400 0.711400 0.881700
H28 H 0.331700 0.426200 0.751500
H29 H 0.719700 0.194000 0.024800
H30 H 0.580700 0.125100 -0.062300
H31 H 0.357100 0.219500 -0.076000
H32 H 0.163600 0.365500 -0.034900
H33 H 0.068600 0.521100 0.041600
H34 H 0.202800 0.593600 0.129700
H35 H 0.410900 0.585800 0.190100
H36 H 0.668300 0.573800 0.248500
H37 H 0.845600 0.288600 0.118300
H38 H 0.868600 0.580000 0.302200
H39 H 1.072200 0.583200 0.356000
H40 H 1.242800 0.307400 0.226400
H41 H 1.039200 0.300500 0.173700
H42 H 1.249200 0.607000 0.402000
H43 H 1.457700 0.604000 0.456900
H44 H 1.643100 0.449200 0.426000
H45 H 1.616000 0.293100 0.335200
H46 H 1.412200 0.289200 0.278500
H47 H 0.589100 0.414200 0.809900
H48 H 0.797200 0.406400 0.870300
H49 H 0.931400 0.478900 0.958400
H50 H 0.836400 0.634500 1.034900
H51 H 0.642900 0.780500 1.076000
H52 H 0.419300 0.874900 1.062300
H53 H 0.280300 0.806000 0.975200
H54 H 0.087800 0.789200 0.221500
H55 H -0.116000 0.793100 0.164800
H56 H -0.143100 0.949200 0.074000
H57 H 0.042300 1.104000 0.043100
H58 H 0.250800 1.107000 0.098000
H59 H 0.460800 0.800500 0.326300
H60 H 0.257200 0.807400 0.273600
H61 H 0.427800 1.083200 0.144000
H62 H 0.631400 1.080000 0.197800
H63 H 0.654400 0.788600 0.381700
H64 H 0.831700 1.073800 0.251500
H65 H 1.089100 1.085800 0.309900
H66 H 1.297200 1.093600 0.370300
H67 H 1.431400 1.021100 0.458400
H68 H 1.336400 0.865500 0.534900
H69 H 1.142900 0.719500 0.576000
H70 H 0.919300 0.625100 0.562300
H71 H 0.780300 0.694000 0.475200
H72 H 1.116000 0.206900 0.835200
C73 C -0.040700 0.857800 0.150200
C74 C 0.079500 0.858700 0.183800
C75 C 0.053600 1.038000 0.079200
C76 C 0.173800 1.038700 0.112800
C77 C 0.190100 0.948700 0.165900
C78 C 0.457200 0.860700 0.288600
C79 C 0.335700 0.865400 0.256300
C80 C 0.319900 0.947000 0.201600
C81 C 0.433600 1.025600 0.181700
C82 C 0.554600 1.021300 0.214000
C83 C 0.570100 0.938500 0.268600
C84 C 0.854500 0.873600 0.379600
C85 C 1.068500 0.873600 0.439000
C86 C 0.723500 0.852300 0.360800
C87 C 0.699300 0.934700 0.302900
C88 C 0.816200 1.006000 0.287600
C89 C 0.916800 0.972500 0.334000
C90 C 1.047600 1.016100 0.340900
C91 C 1.127000 0.969700 0.393500
C92 C 1.259100 1.020200 0.401700
C93 C 0.380300 0.769500 0.978400
C94 C 0.432200 0.677900 0.932900
C95 C 0.458500 0.809100 1.030000
C96 C 0.588900 0.758600 1.036900
C97 C 0.647500 0.666200 0.991700
C98 C 0.781900 0.609900 0.997700
C99 C 0.835100 0.518400 0.953500
C100 C 0.759100 0.479800 0.901700
C101 C 0.627000 0.530300 0.893500
C102 C 0.547600 0.483900 0.840900
C103 C 0.416800 0.527500 0.834000
C104 C 0.316200 0.494000 0.787600
C105 C 0.199300 0.565300 0.802900
C106 C 0.223500 0.647700 0.860800
C107 C 0.568500 0.626400 0.939000
C108 C 0.354500 0.626400 0.879600
C109 C 0.070100 0.561500 0.768600
C110 C 0.054600 0.478700 0.714000
C111 C -0.066400 0.474400 0.681700
C112 C -0.180100 0.553000 0.701600
C113 C -0.164300 0.634600 0.756300
C114 C -0.042800 0.639300 0.788600
C115 C -0.309900 0.551300 0.665900
C116 C -0.326200 0.461300 0.612800
C117 C -0.446400 0.462000 0.579200
C118 C -0.553700 0.552700 0.597800
C119 C -0.540700 0.642200 0.650200
C120 C -0.420500 0.641300 0.683800
C121 C 1.335100 0.981600 0.453500
C122 C 1.281900 0.890100 0.497700
C123 C 1.147500 0.833800 0.491700
C124 C 1.088900 0.741400 0.536900
C125 C 0.958500 0.690900 0.530000
C126 C 0.932200 0.822100 0.432900
C127 C 0.880300 0.730500 0.478400
C128 C 1.420500 0.358700 0.316200
C129 C 1.540700 0.357800 0.349800
C130 C 1.553700 0.447300 0.402200
C131 C 1.446400 0.538000 0.420800
C132 C 1.326200 0.538700 0.387200
C133 C 1.309900 0.448700 0.334100
C134 C 1.042800 0.360700 0.211400
C135 C 1.164300 0.365400 0.243700
C136 C 1.180100 0.447000 0.298400
C137 C 1.066400 0.525600 0.318300
C138 C 0.945400 0.521300 0.286000
C139 C 0.119700 0.269500 0.521600
C140 C 0.067800 0.177900 0.567100
C141 C 0.041500 0.309100 0.470000
C142 C -0.088900 0.258600 0.463100
C143 C -0.147500 0.166200 0.508300
C144 C -0.281900 0.109900 0.502300
C145 C -0.335100 0.018400 0.546500
C146 C -0.259100 -0.020200 0.598300
C147 C -0.127000 0.030300 0.606500
C148 C -0.047600 -0.016100 0.659100
C149 C 0.083200 0.027500 0.666000
C150 C 0.183800 -0.006000 0.712400
C151 C 0.300700 0.065300 0.697100
C152 C 0.276500 0.147700 0.639200
C153 C -0.068500 0.126400 0.561000
C154 C 0.145500 0.126400 0.620400
C155 C 0.429900 0.061500 0.731400
C156 C 0.445400 -0.021300 0.786000
C157 C 0.566400 -0.025600 0.818300
C158 C 0.680100 0.053000 0.798400
C159 C 0.664300 0.134600 0.743700
C160 C 0.542800 0.139300 0.711400
C161 C 0.809900 0.051300 0.834100
C162 C 0.826200 -0.038700 0.887200
C163 C 0.946400 -0.038000 0.920800
C164 C 1.053700 0.052700 0.902200
C165 C 1.040700 0.142200 0.849800
C166 C 0.920500 0.141300 0.816200
C167 C 0.929900 0.438500 0.231400
C168 C 0.645500 0.373600 0.120400
C169 C 0.431500 0.373600 0.061000
C170 C 0.776500 0.352300 0.139200
C171 C 0.800700 0.434700 0.197100
C172 C 0.683800 0.506000 0.212400
C173 C 0.583200 0.472500 0.166000
C174 C 0.452400 0.516100 0.159100
C175 C 0.373000 0.469700 0.106500
C176 C 0.240900 0.520200 0.098300
C177 C 0.164900 0.481600 0.046500
C178 C 0.218100 0.390100 0.002300
C179 C 0.352500 0.333800 0.008300
C180 C 0.411100 0.241400 -0.036900
C181 C 0.541500 0.190900 -0.030000
C182 C 0.567800 0.322100 0.067100
C183 C -0.053700 0.947300 0.097800
C184 C 0.619700 0.230500 0.021600

#END
