./KACHAA_from_POSCAR.cif_generated_by_CrystalShift
_symmetry_cell_setting triclinic
_symmetry_space_group_name_H-M 'P 1'
loop_
_symmetry_equiv_pos_site_id
_symmetry_equiv_pos_as_xyz
1 x,y,z
_cell_length_a 8.502300
_cell_length_b 9.131400
_cell_length_c 10.647700
_cell_angle_alpha 71.512100
_cell_angle_beta 83.355700
_cell_angle_gamma 72.179200
_cell_volume 746.224371
loop_
_atom_site_label
_atom_site_type_symbol
_atom_site_fract_x
_atom_site_fract_y
_atom_site_fract_z
H1 H 1.326500 0.516100 0.281900
H2 H 0.100000 -0.210600 0.631000
H3 H 0.726000 0.956600 -0.277100
H4 H 0.223100 0.005100 0.883400
H5 H 0.520200 1.145300 -0.411800
H6 H 0.122300 0.150500 1.079700
H7 H 0.349600 1.357200 -0.344700
H8 H 0.409800 -0.192400 1.005300
H9 H 0.385800 1.378600 -0.140600
H10 H 0.614200 -0.378600 1.140600
H11 H 0.590200 1.192400 -0.005300
H12 H 0.650400 -0.357200 1.344700
H13 H 0.877700 0.849500 -0.079700
H14 H 0.479800 -0.145300 1.411800
H15 H 0.776900 0.994900 0.116600
H16 H 0.274000 0.043400 1.277100
H17 H 0.300700 -0.282400 0.789700
H18 H 0.377200 -0.328900 0.661600
H19 H 0.397900 -0.175300 0.685900
H20 H 0.900000 1.210600 0.369000
H21 H 0.805400 1.094800 0.466000
H22 H -0.239000 0.610500 0.629600
H23 H 0.699300 1.282400 0.210300
H24 H 0.622800 1.328900 0.338400
H25 H 0.602100 1.175300 0.314100
H26 H -0.326500 0.483900 0.718100
H27 H 0.194600 -0.094800 0.534000
H28 H 1.239000 0.389500 0.370400
C29 C 1.220000 0.495700 0.306300
C30 C 1.115200 0.619000 0.371700
C31 C 0.675000 1.240900 0.302900
C32 C -0.220000 0.504300 0.693700
C33 C -0.115200 0.381000 0.628300
C34 C 0.830300 1.142500 0.373500
C35 C 0.891100 0.872600 0.365600
C36 C 0.990700 0.757400 0.292900
C37 C 0.318400 -0.053000 1.126100
C38 C 0.342400 -0.041800 1.249000
C39 C 0.968100 0.786100 0.162700
C40 C 0.465500 -0.154700 1.329700
C41 C 0.841400 0.915100 0.080500
C42 C 0.567100 -0.280500 1.289900
C43 C 0.810400 0.928000 -0.043300
C44 C 0.545000 -0.293100 1.168000
C45 C 0.576900 1.182000 -0.087200
C46 C 0.423100 -0.182000 1.087200
C47 C 0.455000 1.293100 -0.168000
C48 C 0.189600 0.072000 1.043300
C49 C 0.432900 1.280500 -0.289900
C50 C 0.158600 0.084900 0.919500
C51 C 0.534500 1.154700 -0.329700
C52 C 0.031900 0.213900 0.837300
C53 C 0.009300 0.242600 0.707100
C54 C 0.108900 0.127400 0.634400
C55 C 0.169700 -0.142500 0.626500
C56 C 0.657600 1.041800 -0.249000
C57 C 0.681600 1.053000 -0.126100
C58 C 0.325000 -0.240900 0.697100
O59 O -0.068700 0.315870 0.906790
O60 O 0.996600 0.434000 0.202300
O61 O 1.258400 0.435600 0.079900
O62 O 1.141400 0.601500 0.485100
O63 O 0.917700 1.015510 0.314060
O64 O 0.803900 0.838800 0.460130
O65 O 1.068700 0.684130 0.093210
O66 O -0.258400 0.564400 0.920100
O67 O 0.196100 0.161200 0.539870
O68 O 0.082300 -0.015510 0.685940
O69 O -0.141400 0.398500 0.514900
O70 O 0.003400 0.566000 0.797700
S71 S 1.134320 0.494510 0.165970
S72 S -0.134320 0.505490 0.834030

#END
