
#######################################################################
#
#                 Cambridge Crystallographic Data Centre
#                                CCDC 
#
#######################################################################
#
# If this CIF has been generated from an entry in the Cambridge 
# Structural Database, then it will include bibliographic, chemical, 
# crystal, experimental, refinement or atomic coordinate data resulting 
# from the CCDC's data processing and validation procedures.
#
#######################################################################

data_KACHUU
_symmetry_cell_setting           monoclinic
_symmetry_space_group_name_H-M   'P 21/c'
_symmetry_Int_Tables_number      14
_space_group_name_Hall           '-P 2ybc'
loop_
_symmetry_equiv_pos_site_id
_symmetry_equiv_pos_as_xyz
1 x,y,z
2 -x,1/2+y,1/2-z
3 -x,-y,-z
4 x,1/2-y,1/2+z
_cell_length_a                   14.7336(8)
_cell_length_b                   18.2084(11)
_cell_length_c                   9.4057(6)
_cell_angle_alpha                90
_cell_angle_beta                 94.715(3)
_cell_angle_gamma                90
_cell_volume                     2514.78
loop_
_atom_site_label
_atom_site_type_symbol
_atom_site_fract_x
_atom_site_fract_y
_atom_site_fract_z
C1 C 0.3054(2) 1.08967(15) 0.3510(3)
C2 C 0.3625(2) 1.12901(16) 0.4414(4)
H1 H 0.3437 1.1667 0.5024
C3 C 0.4536(2) 1.10677(16) 0.4334(3)
H2 H 0.5035 1.1281 0.4891
C4 C 0.4630(2) 1.05098(15) 0.3365(3)
C5 C 0.5468(2) 1.01843(15) 0.2954(3)
C6 C 0.5558(2) 0.96383(15) 0.1949(3)
C7 C 0.6482(2) 0.94641(15) 0.1724(3)
C8 C 0.7096(2) 0.98961(15) 0.2507(3)
C9 C 0.8078(2) 1.00147(16) 0.2442(4)
C10 C 0.8822(2) 0.97463(18) 0.3374(4)
H3 H 0.8767 0.9444 0.4186
C11 C 0.9654(2) 1.0004(2) 0.2892(4)
H4 H 1.0230 0.9897 0.3376
C12 C 0.9561(3) 1.0407(2) 0.1706(5)
H5 H 1.0061 1.0602 0.1254
C13 C 0.7549(2) 0.85776(17) 0.0711(4)
H6 H 0.8006 0.8976 0.0714
H7 H 0.7570 0.8297 -0.0187
C14 C 0.7776(2) 0.80750(18) 0.1968(4)
H8 H 0.7780 0.8358 0.2855
H9 H 0.8378 0.7856 0.1893
H10 H 0.7317 0.7685 0.1973
C15 C 0.5904(2) 0.85628(15) 0.0047(3)
C16 C 0.5004(2) 0.88352(14) 0.0273(3)
C17 C 0.4212(2) 0.84995(15) -0.0570(3)
C18 C 0.5334(2) 0.76812(15) -0.1561(3)
C19 C 0.3680(2) 0.75926(17) -0.2346(3)
H11 H 0.3924 0.7373 -0.3198
H12 H 0.3235 0.7976 -0.2679
C20 C 0.3195(2) 0.70083(19) -0.1576(4)
H13 H 0.3001 0.7212 -0.0673
H14 H 0.3619 0.6596 -0.1336
C21 C 0.2362(2) 0.6723(2) -0.2483(4)
H15 H 0.2011 0.7149 -0.2883
H16 H 0.2574 0.6441 -0.3294
C22 C 0.1740(3) 0.6246(2) -0.1716(5)
H17 H 0.2105 0.5851 -0.1225
H18 H 0.1303 0.6010 -0.2431
C23 C 0.1196(3) 0.6640(2) -0.0609(4)
H19 H 0.0923 0.6268 -0.0006
H20 H 0.1617 0.6944 0.0018
C24 C 0.0448(4) 0.7125(3) -0.1291(6)
H21 H 0.0726 0.7497 -0.1888
H22 H 0.0036 0.6819 -0.1931
C25 C -0.0106(4) 0.7511(3) -0.0265(6)
H23 H -0.0328 0.7154 0.0406
H24 H -0.0625 0.7753 -0.0788
H25 H 0.0271 0.7879 0.0263
Br1 Br 0.17918(2) 1.101833(18) 0.31586(4)
N1 N 0.48248(17) 0.93331(12) 0.1198(3)
N2 N 0.66308(17) 0.88984(12) 0.0779(3)
N3 N 0.60531(17) 0.80094(13) -0.0791(3)
N4 N 0.44330(17) 0.79411(13) -0.1465(3)
O1 O 0.34378(15) 0.87035(12) -0.0482(2)
O2 O 0.54465(16) 0.71564(11) -0.2326(3)
S1 S 0.35802(5) 1.02415(4) 0.25545(8)
S2 S 0.65241(5) 1.04751(4) 0.36007(8)
S3 S 0.84625(7) 1.05361(7) 0.10834(13)
C1 C 0.6946(2) 0.58967(15) 0.1490(3)
C2 C 0.6375(2) 0.62901(16) 0.0586(4)
H1 H 0.6563 0.6667 -0.0024
C3 C 0.5464(2) 0.60677(16) 0.0666(3)
H2 H 0.4965 0.6281 0.0109
C4 C 0.5370(2) 0.55098(15) 0.1635(3)
C5 C 0.4532(2) 0.51843(15) 0.2046(3)
C6 C 0.4442(2) 0.46383(15) 0.3051(3)
C7 C 0.3518(2) 0.44641(15) 0.3276(3)
C8 C 0.2904(2) 0.48961(15) 0.2493(3)
C9 C 0.1922(2) 0.50147(16) 0.2558(4)
C10 C 0.1178(2) 0.47463(18) 0.1626(4)
H3 H 0.1233 0.4444 0.0814
C11 C 0.0346(2) 0.5004(2) 0.2108(4)
H4 H -0.0230 0.4897 0.1624
C12 C 0.0439(3) 0.5407(2) 0.3294(5)
H5 H -0.0061 0.5602 0.3746
C13 C 0.2451(2) 0.35776(17) 0.4289(4)
H6 H 0.1994 0.3976 0.4286
H7 H 0.2430 0.3297 0.5187
C14 C 0.2224(2) 0.30750(18) 0.3032(4)
H8 H 0.2220 0.3358 0.2145
H9 H 0.1622 0.2856 0.3107
H10 H 0.2683 0.2685 0.3027
C15 C 0.4096(2) 0.35628(15) 0.4953(3)
C16 C 0.4996(2) 0.38352(14) 0.4727(3)
C17 C 0.5788(2) 0.34995(15) 0.5570(3)
C18 C 0.4666(2) 0.26812(15) 0.6561(3)
C19 C 0.6320(2) 0.25926(17) 0.7346(3)
H11 H 0.6076 0.2373 0.8198
H12 H 0.6765 0.2976 0.7679
C20 C 0.6805(2) 0.20083(19) 0.6576(4)
H13 H 0.6999 0.2212 0.5673
H14 H 0.6381 0.1596 0.6336
C21 C 0.7638(2) 0.1723(2) 0.7483(4)
H15 H 0.7989 0.2149 0.7883
H16 H 0.7426 0.1441 0.8294
C22 C 0.8260(3) 0.1246(2) 0.6716(5)
H17 H 0.7895 0.0851 0.6225
H18 H 0.8697 0.1010 0.7431
C23 C 0.8804(3) 0.1640(2) 0.5609(4)
H19 H 0.9077 0.1268 0.5006
H20 H 0.8383 0.1944 0.4982
C24 C 0.9552(4) 0.2125(3) 0.6291(6)
H21 H 0.9274 0.2497 0.6888
H22 H 0.9964 0.1819 0.6931
C25 C 1.0106(4) 0.2511(3) 0.5265(6)
H23 H 1.0328 0.2154 0.4594
H24 H 1.0625 0.2753 0.5788
H25 H 0.9729 0.2879 0.4737
Br1 Br 0.82082(2) 0.601833(18) 0.18414(4)
N1 N 0.51752(17) 0.43331(12) 0.3802(3)
N2 N 0.33692(17) 0.38984(12) 0.4221(3)
N3 N 0.39469(17) 0.30094(13) 0.5791(3)
N4 N 0.55670(17) 0.29411(13) 0.6465(3)
O1 O 0.65622(15) 0.37035(12) 0.5482(2)
O2 O 0.45535(16) 0.21564(11) 0.7326(3)
S1 S 0.64198(5) 0.52415(4) 0.24455(8)
S2 S 0.34759(5) 0.54751(4) 0.13993(8)
S3 S 0.15375(7) 0.55361(7) 0.39166(13)
C1 C 0.6946(2) -0.08967(15) 0.6490(3)
C2 C 0.6375(2) -0.12901(16) 0.5586(4)
H1 H 0.6563 -0.1667 0.4976
C3 C 0.5464(2) -0.10677(16) 0.5666(3)
H2 H 0.4965 -0.1281 0.5109
C4 C 0.5370(2) -0.05098(15) 0.6635(3)
C5 C 0.4532(2) -0.01843(15) 0.7046(3)
C6 C 0.4442(2) 0.03617(15) 0.8051(3)
C7 C 0.3518(2) 0.05359(15) 0.8276(3)
C8 C 0.2904(2) 0.01039(15) 0.7493(3)
C9 C 0.1922(2) -0.00147(16) 0.7558(4)
C10 C 0.1178(2) 0.02537(18) 0.6626(4)
H3 H 0.1233 0.0556 0.5814
C11 C 0.0346(2) -0.0004(2) 0.7108(4)
H4 H -0.0230 0.0103 0.6624
C12 C 0.0439(3) -0.0407(2) 0.8294(5)
H5 H -0.0061 -0.0602 0.8746
C13 C 0.2451(2) 0.14224(17) 0.9289(4)
H6 H 0.1994 0.1024 0.9286
H7 H 0.2430 0.1703 1.0187
C14 C 0.2224(2) 0.19250(18) 0.8032(4)
H8 H 0.2220 0.1642 0.7145
H9 H 0.1622 0.2144 0.8107
H10 H 0.2683 0.2315 0.8027
C15 C 0.4096(2) 0.14372(15) 0.9953(3)
C16 C 0.4996(2) 0.11648(14) 0.9727(3)
C17 C 0.5788(2) 0.15005(15) 1.0570(3)
C18 C 0.4666(2) 0.23188(15) 1.1561(3)
C19 C 0.6320(2) 0.24074(17) 1.2346(3)
H11 H 0.6076 0.2627 1.3198
H12 H 0.6765 0.2024 1.2679
C20 C 0.6805(2) 0.29917(19) 1.1576(4)
H13 H 0.6999 0.2788 1.0673
H14 H 0.6381 0.3404 1.1336
C21 C 0.7638(2) 0.3277(2) 1.2483(4)
H15 H 0.7989 0.2851 1.2883
H16 H 0.7426 0.3559 1.3294
C22 C 0.8260(3) 0.3754(2) 1.1716(5)
H17 H 0.7895 0.4149 1.1225
H18 H 0.8697 0.3990 1.2431
C23 C 0.8804(3) 0.3360(2) 1.0609(4)
H19 H 0.9077 0.3732 1.0006
H20 H 0.8383 0.3056 0.9982
C24 C 0.9552(4) 0.2875(3) 1.1291(6)
H21 H 0.9274 0.2503 1.1888
H22 H 0.9964 0.3181 1.1931
C25 C 1.0106(4) 0.2489(3) 1.0265(6)
H23 H 1.0328 0.2846 0.9594
H24 H 1.0625 0.2247 1.0788
H25 H 0.9729 0.2121 0.9737
Br1 Br 0.82082(2) -0.101833(18) 0.68414(4)
N1 N 0.51752(17) 0.06669(12) 0.8802(3)
N2 N 0.33692(17) 0.11016(12) 0.9221(3)
N3 N 0.39469(17) 0.19906(13) 1.0791(3)
N4 N 0.55670(17) 0.20589(13) 1.1465(3)
O1 O 0.65622(15) 0.12965(12) 1.0482(2)
O2 O 0.45535(16) 0.28436(11) 1.2326(3)
S1 S 0.64198(5) -0.02415(4) 0.74455(8)
S2 S 0.34759(5) -0.04751(4) 0.63993(8)
S3 S 0.15375(7) -0.05361(7) 0.89166(13)
C1 C 0.3054(2) 0.41033(15) 0.8510(3)
C2 C 0.3625(2) 0.37099(16) 0.9414(4)
H1 H 0.3437 0.3333 1.0024
C3 C 0.4536(2) 0.39323(16) 0.9334(3)
H2 H 0.5035 0.3719 0.9891
C4 C 0.4630(2) 0.44902(15) 0.8365(3)
C5 C 0.5468(2) 0.48157(15) 0.7954(3)
C6 C 0.5558(2) 0.53617(15) 0.6949(3)
C7 C 0.6482(2) 0.55359(15) 0.6724(3)
C8 C 0.7096(2) 0.51039(15) 0.7507(3)
C9 C 0.8078(2) 0.49853(16) 0.7442(4)
C10 C 0.8822(2) 0.52537(18) 0.8374(4)
H3 H 0.8767 0.5556 0.9186
C11 C 0.9654(2) 0.4996(2) 0.7892(4)
H4 H 1.0230 0.5103 0.8376
C12 C 0.9561(3) 0.4593(2) 0.6706(5)
H5 H 1.0061 0.4398 0.6254
C13 C 0.7549(2) 0.64224(17) 0.5711(4)
H6 H 0.8006 0.6024 0.5714
H7 H 0.7570 0.6703 0.4813
C14 C 0.7776(2) 0.69250(18) 0.6968(4)
H8 H 0.7780 0.6642 0.7855
H9 H 0.8378 0.7144 0.6893
H10 H 0.7317 0.7315 0.6973
C15 C 0.5904(2) 0.64372(15) 0.5047(3)
C16 C 0.5004(2) 0.61648(14) 0.5273(3)
C17 C 0.4212(2) 0.65005(15) 0.4430(3)
C18 C 0.5334(2) 0.73188(15) 0.3439(3)
C19 C 0.3680(2) 0.74074(17) 0.2654(3)
H11 H 0.3924 0.7627 0.1802
H12 H 0.3235 0.7024 0.2321
C20 C 0.3195(2) 0.79917(19) 0.3424(4)
H13 H 0.3001 0.7788 0.4327
H14 H 0.3619 0.8404 0.3664
C21 C 0.2362(2) 0.8277(2) 0.2517(4)
H15 H 0.2011 0.7851 0.2117
H16 H 0.2574 0.8559 0.1706
C22 C 0.1740(3) 0.8754(2) 0.3284(5)
H17 H 0.2105 0.9149 0.3775
H18 H 0.1303 0.8990 0.2569
C23 C 0.1196(3) 0.8360(2) 0.4391(4)
H19 H 0.0923 0.8732 0.4994
H20 H 0.1617 0.8056 0.5018
C24 C 0.0448(4) 0.7875(3) 0.3709(6)
H21 H 0.0726 0.7503 0.3112
H22 H 0.0036 0.8181 0.3069
C25 C -0.0106(4) 0.7489(3) 0.4735(6)
H23 H -0.0328 0.7846 0.5406
H24 H -0.0625 0.7247 0.4212
H25 H 0.0271 0.7121 0.5263
Br1 Br 0.17918(2) 0.398167(18) 0.81586(4)
N1 N 0.48248(17) 0.56669(12) 0.6198(3)
N2 N 0.66308(17) 0.61016(12) 0.5779(3)
N3 N 0.60531(17) 0.69906(13) 0.4209(3)
N4 N 0.44330(17) 0.70589(13) 0.3535(3)
O1 O 0.34378(15) 0.62965(12) 0.4518(2)
O2 O 0.54465(16) 0.78436(11) 0.2674(3)
S1 S 0.35802(5) 0.47585(4) 0.75545(8)
S2 S 0.65241(5) 0.45249(4) 0.86007(8)
S3 S 0.84625(7) 0.44639(7) 0.60834(13)

#END
