
#######################################################################
#
#                 Cambridge Crystallographic Data Centre
#                                CCDC 
#
#######################################################################
#
# If this CIF has been generated from an entry in the Cambridge 
# Structural Database, then it will include bibliographic, chemical, 
# crystal, experimental, refinement or atomic coordinate data resulting 
# from the CCDC's data processing and validation procedures.
#
#######################################################################

data_KACHAX
_symmetry_cell_setting           orthorhombic
_symmetry_space_group_name_H-M   'P b c a'
_symmetry_Int_Tables_number      61
_space_group_name_Hall           '-P 2ac 2ab'
loop_
_symmetry_equiv_pos_site_id
_symmetry_equiv_pos_as_xyz
1 x,y,z
2 1/2-x,1/2+y,z
3 x,1/2-y,1/2+z
4 1/2-x,-y,1/2+z
5 -x,-y,-z
6 1/2+x,1/2-y,-z
7 -x,1/2+y,1/2-z
8 1/2+x,y,1/2-z
_cell_length_a                   8.368(5)
_cell_length_b                   17.11(1)
_cell_length_c                   23.02(2)
_cell_angle_alpha                90
_cell_angle_beta                 90
_cell_angle_gamma                90
_cell_volume                     3295.92
loop_
_atom_site_label
_atom_site_type_symbol
_atom_site_fract_x
_atom_site_fract_y
_atom_site_fract_z
O1 O 0.92938(28) 0.03856(12) 0.69918(9)
O2 O 0.55563(28) 0.00284(14) 0.64225(10)
O3 O 0.80272(47) -0.15464(15) 0.68132(12)
N1 N 0.74665(35) 0.10136(15) 0.64657(11)
C1 C 0.86182(52) -0.06664(23) 0.55983(16)
H1 H 0.75820 -0.03310 0.54690
H2 H 0.95650 -0.07770 0.52900
H3 H 0.83930 -0.11550 0.57050
C2 C 0.94609(45) -0.03009(20) 0.61241(14)
H4 H 1.04059 -0.07060 0.62080
C3 C 0.99763(43) 0.05573(21) 0.60250(14)
H5 H 0.95320 0.07610 0.56280
C4 C 1.17611(46) 0.07824(24) 0.60792(17)
H6 H 1.20869 0.10760 0.57040
H7 H 1.24730 0.03060 0.61850
C5 C 1.18734(45) 0.13646(22) 0.65915(16)
H8 H 1.24170 0.10700 0.69910
H9 H 1.27559 0.17350 0.65750
C6 C 1.01730(43) 0.16861(20) 0.66864(15)
H10 H 0.99520 0.21120 0.63230
C7 C 0.98706(48) 0.20265(22) 0.72888(15)
H11 H 0.87790 0.23340 0.73310
H12 H 1.07520 0.23120 0.74570
H13 H 1.01450 0.16020 0.75540
C8 C 0.92036(41) 0.09732(19) 0.65436(14)
C9 C 0.84071(43) -0.02016(19) 0.66755(14)
C10 C 0.68973(43) 0.02723(20) 0.65108(14)
C11 C 0.80549(47) -0.09150(21) 0.70380(15)
C12 C 0.77066(52) -0.07921(22) 0.76649(15)
H14 H 0.69410 -0.03980 0.77040
H15 H 0.85740 -0.05030 0.78740
H16 H 0.72150 -0.12030 0.78370
C13 C 0.65686(44) 0.16506(20) 0.61859(15)
H17 H 0.71520 0.21500 0.63470
H18 H 0.54560 0.15500 0.63500
C14 C 0.58681(26) 0.11448(12) 0.51949(10)
C15 C 0.60329(26) 0.11525(12) 0.45919(10)
C16 C 0.70805(26) 0.16790(12) 0.43289(10)
C17 C 0.79632(26) 0.21978(12) 0.46690(10)
C18 C 0.77984(26) 0.21902(12) 0.52720(10)
C19 C 0.67508(26) 0.16637(12) 0.55350(10)
H19 H 0.50780 0.07870 0.54020
H20 H 0.53750 0.07410 0.43850
H21 H 0.71960 0.16110 0.38760
H22 H 0.85730 0.25370 0.44160
H23 H 0.84190 0.25940 0.55370
O1 O 0.57062(28) 0.53856(12) 0.69918(9)
O2 O 0.94437(28) 0.50284(14) 0.64225(10)
O3 O 0.69728(47) 0.34536(15) 0.68132(12)
N1 N 0.75335(35) 0.60136(15) 0.64657(11)
C1 C 0.63818(52) 0.43336(23) 0.55983(16)
H1 H 0.74180 0.46690 0.54690
H2 H 0.54350 0.42230 0.52900
H3 H 0.66070 0.38450 0.57050
C2 C 0.55391(45) 0.46991(20) 0.61241(14)
H4 H 0.45941 0.42940 0.62080
C3 C 0.50237(43) 0.55573(21) 0.60250(14)
H5 H 0.54680 0.57610 0.56280
C4 C 0.32389(46) 0.57824(24) 0.60792(17)
H6 H 0.29131 0.60760 0.57040
H7 H 0.25270 0.53060 0.61850
C5 C 0.31266(45) 0.63646(22) 0.65915(16)
H8 H 0.25830 0.60700 0.69910
H9 H 0.22441 0.67350 0.65750
C6 C 0.48270(43) 0.66861(20) 0.66864(15)
H10 H 0.50480 0.71120 0.63230
C7 C 0.51294(48) 0.70265(22) 0.72888(15)
H11 H 0.62210 0.73340 0.73310
H12 H 0.42480 0.73120 0.74570
H13 H 0.48550 0.66020 0.75540
C8 C 0.57964(41) 0.59732(19) 0.65436(14)
C9 C 0.65929(43) 0.47984(19) 0.66755(14)
C10 C 0.81027(43) 0.52723(20) 0.65108(14)
C11 C 0.69451(47) 0.40850(21) 0.70380(15)
C12 C 0.72934(52) 0.42079(22) 0.76649(15)
H14 H 0.80590 0.46020 0.77040
H15 H 0.64260 0.44970 0.78740
H16 H 0.77850 0.37970 0.78370
C13 C 0.84314(44) 0.66506(20) 0.61859(15)
H17 H 0.78480 0.71500 0.63470
H18 H 0.95440 0.65500 0.63500
C14 C 0.91319(26) 0.61448(12) 0.51949(10)
C15 C 0.89671(26) 0.61525(12) 0.45919(10)
C16 C 0.79195(26) 0.66790(12) 0.43289(10)
C17 C 0.70368(26) 0.71978(12) 0.46690(10)
C18 C 0.72016(26) 0.71902(12) 0.52720(10)
C19 C 0.82492(26) 0.66637(12) 0.55350(10)
H19 H 0.99220 0.57870 0.54020
H20 H 0.96250 0.57410 0.43850
H21 H 0.78040 0.66110 0.38760
H22 H 0.64270 0.75370 0.44160
H23 H 0.65810 0.75940 0.55370
O1 O 0.92938(28) 0.46144(12) 0.19918(9)
O2 O 0.55563(28) 0.49716(14) 0.14225(10)
O3 O 0.80272(47) 0.65464(15) 0.18132(12)
N1 N 0.74665(35) 0.39864(15) 0.14657(11)
C1 C 0.86182(52) 0.56664(23) 0.05983(16)
H1 H 0.75820 0.53310 0.04690
H2 H 0.95650 0.57770 0.02900
H3 H 0.83930 0.61550 0.07050
C2 C 0.94609(45) 0.53009(20) 0.11241(14)
H4 H 1.04059 0.57060 0.12080
C3 C 0.99763(43) 0.44427(21) 0.10250(14)
H5 H 0.95320 0.42390 0.06280
C4 C 1.17611(46) 0.42176(24) 0.10792(17)
H6 H 1.20869 0.39240 0.07040
H7 H 1.24730 0.46940 0.11850
C5 C 1.18734(45) 0.36354(22) 0.15915(16)
H8 H 1.24170 0.39300 0.19910
H9 H 1.27559 0.32650 0.15750
C6 C 1.01730(43) 0.33139(20) 0.16864(15)
H10 H 0.99520 0.28880 0.13230
C7 C 0.98706(48) 0.29735(22) 0.22888(15)
H11 H 0.87790 0.26660 0.23310
H12 H 1.07520 0.26880 0.24570
H13 H 1.01450 0.33980 0.25540
C8 C 0.92036(41) 0.40268(19) 0.15436(14)
C9 C 0.84071(43) 0.52016(19) 0.16755(14)
C10 C 0.68973(43) 0.47277(20) 0.15108(14)
C11 C 0.80549(47) 0.59150(21) 0.20380(15)
C12 C 0.77066(52) 0.57921(22) 0.26649(15)
H14 H 0.69410 0.53980 0.27040
H15 H 0.85740 0.55030 0.28740
H16 H 0.72150 0.62030 0.28370
C13 C 0.65686(44) 0.33494(20) 0.11859(15)
H17 H 0.71520 0.28500 0.13470
H18 H 0.54560 0.34500 0.13500
C14 C 0.58681(26) 0.38552(12) 0.01949(10)
C15 C 0.60329(26) 0.38475(12) -0.04081(10)
C16 C 0.70805(26) 0.33210(12) -0.06711(10)
C17 C 0.79632(26) 0.28022(12) -0.03310(10)
C18 C 0.77984(26) 0.28098(12) 0.02720(10)
C19 C 0.67508(26) 0.33363(12) 0.05350(10)
H19 H 0.50780 0.42130 0.04020
H20 H 0.53750 0.42590 -0.06150
H21 H 0.71960 0.33890 -0.11240
H22 H 0.85730 0.24630 -0.05840
H23 H 0.84190 0.24060 0.05370
O1 O 0.57062(28) 0.96144(12) 0.19918(9)
O2 O 0.94437(28) 0.99716(14) 0.14225(10)
O3 O 0.69728(47) 1.15464(15) 0.18132(12)
N1 N 0.75335(35) 0.89864(15) 0.14657(11)
C1 C 0.63818(52) 1.06664(23) 0.05983(16)
H1 H 0.74180 1.03310 0.04690
H2 H 0.54350 1.07770 0.02900
H3 H 0.66070 1.11550 0.07050
C2 C 0.55391(45) 1.03009(20) 0.11241(14)
H4 H 0.45941 1.07060 0.12080
C3 C 0.50237(43) 0.94427(21) 0.10250(14)
H5 H 0.54680 0.92390 0.06280
C4 C 0.32389(46) 0.92176(24) 0.10792(17)
H6 H 0.29131 0.89240 0.07040
H7 H 0.25270 0.96940 0.11850
C5 C 0.31266(45) 0.86354(22) 0.15915(16)
H8 H 0.25830 0.89300 0.19910
H9 H 0.22441 0.82650 0.15750
C6 C 0.48270(43) 0.83139(20) 0.16864(15)
H10 H 0.50480 0.78880 0.13230
C7 C 0.51294(48) 0.79735(22) 0.22888(15)
H11 H 0.62210 0.76660 0.23310
H12 H 0.42480 0.76880 0.24570
H13 H 0.48550 0.83980 0.25540
C8 C 0.57964(41) 0.90268(19) 0.15436(14)
C9 C 0.65929(43) 1.02016(19) 0.16755(14)
C10 C 0.81027(43) 0.97277(20) 0.15108(14)
C11 C 0.69451(47) 1.09150(21) 0.20380(15)
C12 C 0.72934(52) 1.07921(22) 0.26649(15)
H14 H 0.80590 1.03980 0.27040
H15 H 0.64260 1.05030 0.28740
H16 H 0.77850 1.12030 0.28370
C13 C 0.84314(44) 0.83494(20) 0.11859(15)
H17 H 0.78480 0.78500 0.13470
H18 H 0.95440 0.84500 0.13500
C14 C 0.91319(26) 0.88552(12) 0.01949(10)
C15 C 0.89671(26) 0.88475(12) -0.04081(10)
C16 C 0.79195(26) 0.83210(12) -0.06711(10)
C17 C 0.70368(26) 0.78022(12) -0.03310(10)
C18 C 0.72016(26) 0.78098(12) 0.02720(10)
C19 C 0.82492(26) 0.83363(12) 0.05350(10)
H19 H 0.99220 0.92130 0.04020
H20 H 0.96250 0.92590 -0.06150
H21 H 0.78040 0.83890 -0.11240
H22 H 0.64270 0.74630 -0.05840
H23 H 0.65810 0.74060 0.05370
O1 O 0.07062(28) 0.96144(12) 0.30082(9)
O2 O 0.44437(28) 0.99716(14) 0.35775(10)
O3 O 0.19728(47) 1.15464(15) 0.31868(12)
N1 N 0.25335(35) 0.89864(15) 0.35343(11)
C1 C 0.13818(52) 1.06664(23) 0.44017(16)
H1 H 0.24180 1.03310 0.45310
H2 H 0.04350 1.07770 0.47100
H3 H 0.16070 1.11550 0.42950
C2 C 0.05391(45) 1.03009(20) 0.38759(14)
H4 H -0.04059 1.07060 0.37920
C3 C 0.00237(43) 0.94427(21) 0.39750(14)
H5 H 0.04680 0.92390 0.43720
C4 C -0.17611(46) 0.92176(24) 0.39208(17)
H6 H -0.20869 0.89240 0.42960
H7 H -0.24730 0.96940 0.38150
C5 C -0.18734(45) 0.86354(22) 0.34085(16)
H8 H -0.24170 0.89300 0.30090
H9 H -0.27559 0.82650 0.34250
C6 C -0.01730(43) 0.83139(20) 0.33136(15)
H10 H 0.00480 0.78880 0.36770
C7 C 0.01294(48) 0.79735(22) 0.27112(15)
H11 H 0.12210 0.76660 0.26690
H12 H -0.07520 0.76880 0.25430
H13 H -0.01450 0.83980 0.24460
C8 C 0.07964(41) 0.90268(19) 0.34564(14)
C9 C 0.15929(43) 1.02016(19) 0.33245(14)
C10 C 0.31027(43) 0.97277(20) 0.34892(14)
C11 C 0.19451(47) 1.09150(21) 0.29620(15)
C12 C 0.22934(52) 1.07921(22) 0.23351(15)
H14 H 0.30590 1.03980 0.22960
H15 H 0.14260 1.05030 0.21260
H16 H 0.27850 1.12030 0.21630
C13 C 0.34314(44) 0.83494(20) 0.38141(15)
H17 H 0.28480 0.78500 0.36530
H18 H 0.45440 0.84500 0.36500
C14 C 0.41319(26) 0.88552(12) 0.48051(10)
C15 C 0.39671(26) 0.88475(12) 0.54081(10)
C16 C 0.29195(26) 0.83210(12) 0.56711(10)
C17 C 0.20368(26) 0.78022(12) 0.53310(10)
C18 C 0.22016(26) 0.78098(12) 0.47280(10)
C19 C 0.32492(26) 0.83363(12) 0.44650(10)
H19 H 0.49220 0.92130 0.45980
H20 H 0.46250 0.92590 0.56150
H21 H 0.28040 0.83890 0.61240
H22 H 0.14270 0.74630 0.55840
H23 H 0.15810 0.74060 0.44630
O1 O 0.42938(28) 0.46144(12) 0.30082(9)
O2 O 0.05563(28) 0.49716(14) 0.35775(10)
O3 O 0.30272(47) 0.65464(15) 0.31868(12)
N1 N 0.24665(35) 0.39864(15) 0.35343(11)
C1 C 0.36182(52) 0.56664(23) 0.44017(16)
H1 H 0.25820 0.53310 0.45310
H2 H 0.45650 0.57770 0.47100
H3 H 0.33930 0.61550 0.42950
C2 C 0.44609(45) 0.53009(20) 0.38759(14)
H4 H 0.54059 0.57060 0.37920
C3 C 0.49763(43) 0.44427(21) 0.39750(14)
H5 H 0.45320 0.42390 0.43720
C4 C 0.67611(46) 0.42176(24) 0.39208(17)
H6 H 0.70869 0.39240 0.42960
H7 H 0.74730 0.46940 0.38150
C5 C 0.68734(45) 0.36354(22) 0.34085(16)
H8 H 0.74170 0.39300 0.30090
H9 H 0.77559 0.32650 0.34250
C6 C 0.51730(43) 0.33139(20) 0.33136(15)
H10 H 0.49520 0.28880 0.36770
C7 C 0.48706(48) 0.29735(22) 0.27112(15)
H11 H 0.37790 0.26660 0.26690
H12 H 0.57520 0.26880 0.25430
H13 H 0.51450 0.33980 0.24460
C8 C 0.42036(41) 0.40268(19) 0.34564(14)
C9 C 0.34071(43) 0.52016(19) 0.33245(14)
C10 C 0.18973(43) 0.47277(20) 0.34892(14)
C11 C 0.30549(47) 0.59150(21) 0.29620(15)
C12 C 0.27066(52) 0.57921(22) 0.23351(15)
H14 H 0.19410 0.53980 0.22960
H15 H 0.35740 0.55030 0.21260
H16 H 0.22150 0.62030 0.21630
C13 C 0.15686(44) 0.33494(20) 0.38141(15)
H17 H 0.21520 0.28500 0.36530
H18 H 0.04560 0.34500 0.36500
C14 C 0.08681(26) 0.38552(12) 0.48051(10)
C15 C 0.10329(26) 0.38475(12) 0.54081(10)
C16 C 0.20805(26) 0.33210(12) 0.56711(10)
C17 C 0.29632(26) 0.28022(12) 0.53310(10)
C18 C 0.27984(26) 0.28098(12) 0.47280(10)
C19 C 0.17508(26) 0.33363(12) 0.44650(10)
H19 H 0.00780 0.42130 0.45980
H20 H 0.03750 0.42590 0.56150
H21 H 0.21960 0.33890 0.61240
H22 H 0.35730 0.24630 0.55840
H23 H 0.34190 0.24060 0.44630
O1 O 0.07062(28) 0.53856(12) 0.80082(9)
O2 O 0.44437(28) 0.50284(14) 0.85775(10)
O3 O 0.19728(47) 0.34536(15) 0.81868(12)
N1 N 0.25335(35) 0.60136(15) 0.85343(11)
C1 C 0.13818(52) 0.43336(23) 0.94017(16)
H1 H 0.24180 0.46690 0.95310
H2 H 0.04350 0.42230 0.97100
H3 H 0.16070 0.38450 0.92950
C2 C 0.05391(45) 0.46991(20) 0.88759(14)
H4 H -0.04059 0.42940 0.87920
C3 C 0.00237(43) 0.55573(21) 0.89750(14)
H5 H 0.04680 0.57610 0.93720
C4 C -0.17611(46) 0.57824(24) 0.89208(17)
H6 H -0.20869 0.60760 0.92960
H7 H -0.24730 0.53060 0.88150
C5 C -0.18734(45) 0.63646(22) 0.84085(16)
H8 H -0.24170 0.60700 0.80090
H9 H -0.27559 0.67350 0.84250
C6 C -0.01730(43) 0.66861(20) 0.83136(15)
H10 H 0.00480 0.71120 0.86770
C7 C 0.01294(48) 0.70265(22) 0.77112(15)
H11 H 0.12210 0.73340 0.76690
H12 H -0.07520 0.73120 0.75430
H13 H -0.01450 0.66020 0.74460
C8 C 0.07964(41) 0.59732(19) 0.84564(14)
C9 C 0.15929(43) 0.47984(19) 0.83245(14)
C10 C 0.31027(43) 0.52723(20) 0.84892(14)
C11 C 0.19451(47) 0.40850(21) 0.79620(15)
C12 C 0.22934(52) 0.42079(22) 0.73351(15)
H14 H 0.30590 0.46020 0.72960
H15 H 0.14260 0.44970 0.71260
H16 H 0.27850 0.37970 0.71630
C13 C 0.34314(44) 0.66506(20) 0.88141(15)
H17 H 0.28480 0.71500 0.86530
H18 H 0.45440 0.65500 0.86500
C14 C 0.41319(26) 0.61448(12) 0.98051(10)
C15 C 0.39671(26) 0.61525(12) 1.04081(10)
C16 C 0.29195(26) 0.66790(12) 1.06711(10)
C17 C 0.20368(26) 0.71978(12) 1.03310(10)
C18 C 0.22016(26) 0.71902(12) 0.97280(10)
C19 C 0.32492(26) 0.66637(12) 0.94650(10)
H19 H 0.49220 0.57870 0.95980
H20 H 0.46250 0.57410 1.06150
H21 H 0.28040 0.66110 1.11240
H22 H 0.14270 0.75370 1.05840
H23 H 0.15810 0.75940 0.94630
O1 O 0.42938(28) 0.03856(12) 0.80082(9)
O2 O 0.05563(28) 0.00284(14) 0.85775(10)
O3 O 0.30272(47) -0.15464(15) 0.81868(12)
N1 N 0.24665(35) 0.10136(15) 0.85343(11)
C1 C 0.36182(52) -0.06664(23) 0.94017(16)
H1 H 0.25820 -0.03310 0.95310
H2 H 0.45650 -0.07770 0.97100
H3 H 0.33930 -0.11550 0.92950
C2 C 0.44609(45) -0.03009(20) 0.88759(14)
H4 H 0.54059 -0.07060 0.87920
C3 C 0.49763(43) 0.05573(21) 0.89750(14)
H5 H 0.45320 0.07610 0.93720
C4 C 0.67611(46) 0.07824(24) 0.89208(17)
H6 H 0.70869 0.10760 0.92960
H7 H 0.74730 0.03060 0.88150
C5 C 0.68734(45) 0.13646(22) 0.84085(16)
H8 H 0.74170 0.10700 0.80090
H9 H 0.77559 0.17350 0.84250
C6 C 0.51730(43) 0.16861(20) 0.83136(15)
H10 H 0.49520 0.21120 0.86770
C7 C 0.48706(48) 0.20265(22) 0.77112(15)
H11 H 0.37790 0.23340 0.76690
H12 H 0.57520 0.23120 0.75430
H13 H 0.51450 0.16020 0.74460
C8 C 0.42036(41) 0.09732(19) 0.84564(14)
C9 C 0.34071(43) -0.02016(19) 0.83245(14)
C10 C 0.18973(43) 0.02723(20) 0.84892(14)
C11 C 0.30549(47) -0.09150(21) 0.79620(15)
C12 C 0.27066(52) -0.07921(22) 0.73351(15)
H14 H 0.19410 -0.03980 0.72960
H15 H 0.35740 -0.05030 0.71260
H16 H 0.22150 -0.12030 0.71630
C13 C 0.15686(44) 0.16506(20) 0.88141(15)
H17 H 0.21520 0.21500 0.86530
H18 H 0.04560 0.15500 0.86500
C14 C 0.08681(26) 0.11448(12) 0.98051(10)
C15 C 0.10329(26) 0.11525(12) 1.04081(10)
C16 C 0.20805(26) 0.16790(12) 1.06711(10)
C17 C 0.29632(26) 0.21978(12) 1.03310(10)
C18 C 0.27984(26) 0.21902(12) 0.97280(10)
C19 C 0.17508(26) 0.16637(12) 0.94650(10)
H19 H 0.00780 0.07870 0.95980
H20 H 0.03750 0.07410 1.06150
H21 H 0.21960 0.16110 1.11240
H22 H 0.35730 0.25370 1.05840
H23 H 0.34190 0.25940 0.94630

#END
