
#######################################################################
#
#                 Cambridge Crystallographic Data Centre
#                                CCDC 
#
#######################################################################
#
# If this CIF has been generated from an entry in the Cambridge 
# Structural Database, then it will include bibliographic, chemical, 
# crystal, experimental, refinement or atomic coordinate data resulting 
# from the CCDC's data processing and validation procedures.
#
#######################################################################

data_KACKUW
_symmetry_cell_setting           orthorhombic
_symmetry_space_group_name_H-M   'P 21 21 21'
_symmetry_Int_Tables_number      19
_space_group_name_Hall           'P 2ac 2ab'
loop_
_symmetry_equiv_pos_site_id
_symmetry_equiv_pos_as_xyz
1 x,y,z
2 1/2-x,-y,1/2+z
3 1/2+x,1/2-y,-z
4 -x,1/2+y,1/2-z
_cell_length_a                   7.1021(6)
_cell_length_b                   13.1358(8)
_cell_length_c                   13.7482(4)
_cell_angle_alpha                90
_cell_angle_beta                 90
_cell_angle_gamma                90
_cell_volume                     1282.59
loop_
_atom_site_label
_atom_site_type_symbol
_atom_site_fract_x
_atom_site_fract_y
_atom_site_fract_z
N1 N 0.7078(3) 0.16488(17) 1.08620(16)
N2 N 0.6314(3) 0.32888(18) 1.09143(16)
C1 C 0.6714(4) 0.2508(2) 1.03390(19)
C2 C 0.7219(5) 0.3694(2) 0.7891(2)
H1 H 0.7560 0.4347 0.7632
C3 C 0.6753(4) 0.2599(2) 0.92827(19)
C4 C 0.6283(5) 0.1964(2) 0.7655(2)
H2 H 0.5931 0.1419 0.7226
C5 C 0.7216(4) 0.3542(2) 0.8882(2)
H3 H 0.7508 0.4094 0.9313
C6 C 0.6280(4) 0.1821(2) 0.8645(2)
H4 H 0.5949 0.1164 0.8897
C7 C 0.6754(4) 0.2912(2) 0.7250(2)
C8 C 0.6398(4) 0.2909(2) 1.1831(2)
N3 N 0.6785(5) 0.3067(2) 0.62619(18)
C9 C 0.6056(5) 0.3507(2) 1.2680(2)
C10 C 0.6872(4) 0.1902(2) 1.1819(2)
N4 N 0.5803(5) 0.3968(2) 1.3370(2)
N5 N 0.7332(5) 0.0699(2) 1.3258(2)
C11 C 0.7137(5) 0.1216(2) 1.2605(2)
C12 C 0.7181(6) 0.4062(3) 0.5867(2)
H5 H 0.7085 0.4039 0.5171
H6 H 0.8431 0.4264 0.6048
H7 H 0.6290 0.4544 0.6119
C13 C 0.7681(5) 0.0647(2) 1.0518(2)
H8 H 0.8381 0.0310 1.1021
H9 H 0.8462 0.0726 0.9953
H10 H 0.6595 0.0247 1.0354
C14 C 0.6150(8) 0.2287(3) 0.5607(2)
H11 H 0.6121 0.2551 0.4956
H12 H 0.4909 0.2071 0.5791
H13 H 0.6995 0.1717 0.5636
N1 N 0.7922(3) 0.83512(17) 0.58620(16)
N2 N 0.8686(3) 0.67112(18) 0.59143(16)
C1 C 0.8286(4) 0.7492(2) 0.53390(19)
C2 C 0.7781(5) 0.6306(2) 0.2891(2)
H1 H 0.7440 0.5653 0.2632
C3 C 0.8247(4) 0.7401(2) 0.42827(19)
C4 C 0.8717(5) 0.8036(2) 0.2655(2)
H2 H 0.9069 0.8581 0.2226
C5 C 0.7784(4) 0.6458(2) 0.3882(2)
H3 H 0.7492 0.5906 0.4313
C6 C 0.8720(4) 0.8179(2) 0.3645(2)
H4 H 0.9051 0.8836 0.3897
C7 C 0.8246(4) 0.7088(2) 0.2250(2)
C8 C 0.8602(4) 0.7091(2) 0.6831(2)
N3 N 0.8215(5) 0.6933(2) 0.12619(18)
C9 C 0.8944(5) 0.6493(2) 0.7680(2)
C10 C 0.8128(4) 0.8098(2) 0.6819(2)
N4 N 0.9197(5) 0.6032(2) 0.8370(2)
N5 N 0.7668(5) 0.9301(2) 0.8258(2)
C11 C 0.7863(5) 0.8784(2) 0.7605(2)
C12 C 0.7819(6) 0.5938(3) 0.0867(2)
H5 H 0.7915 0.5961 0.0171
H6 H 0.6569 0.5736 0.1048
H7 H 0.8710 0.5456 0.1119
C13 C 0.7319(5) 0.9353(2) 0.5518(2)
H8 H 0.6619 0.9690 0.6021
H9 H 0.6538 0.9274 0.4953
H10 H 0.8405 0.9753 0.5354
C14 C 0.8850(8) 0.7713(3) 0.0607(2)
H11 H 0.8879 0.7449 -0.0044
H12 H 1.0091 0.7929 0.0791
H13 H 0.8005 0.8283 0.0636
N1 N 0.2078(3) 0.33512(17) -0.08620(16)
N2 N 0.1314(3) 0.17112(18) -0.09143(16)
C1 C 0.1714(4) 0.2492(2) -0.03390(19)
C2 C 0.2219(5) 0.1306(2) 0.2109(2)
H1 H 0.2560 0.0653 0.2368
C3 C 0.1753(4) 0.2401(2) 0.07173(19)
C4 C 0.1283(5) 0.3036(2) 0.2345(2)
H2 H 0.0931 0.3581 0.2774
C5 C 0.2216(4) 0.1458(2) 0.1118(2)
H3 H 0.2508 0.0906 0.0687
C6 C 0.1280(4) 0.3179(2) 0.1355(2)
H4 H 0.0949 0.3836 0.1103
C7 C 0.1754(4) 0.2088(2) 0.2750(2)
C8 C 0.1398(4) 0.2091(2) -0.1831(2)
N3 N 0.1785(5) 0.1933(2) 0.37381(18)
C9 C 0.1056(5) 0.1493(2) -0.2680(2)
C10 C 0.1872(4) 0.3098(2) -0.1819(2)
N4 N 0.0803(5) 0.1032(2) -0.3370(2)
N5 N 0.2332(5) 0.4301(2) -0.3258(2)
C11 C 0.2137(5) 0.3784(2) -0.2605(2)
C12 C 0.2181(6) 0.0938(3) 0.4133(2)
H5 H 0.2085 0.0961 0.4829
H6 H 0.3431 0.0736 0.3952
H7 H 0.1290 0.0456 0.3881
C13 C 0.2681(5) 0.4353(2) -0.0518(2)
H8 H 0.3381 0.4690 -0.1021
H9 H 0.3462 0.4274 0.0047
H10 H 0.1595 0.4753 -0.0354
C14 C 0.1150(8) 0.2713(3) 0.4393(2)
H11 H 0.1121 0.2449 0.5044
H12 H -0.0091 0.2929 0.4209
H13 H 0.1995 0.3283 0.4364
N1 N 0.2922(3) 0.66488(17) 0.41380(16)
N2 N 0.3686(3) 0.82888(18) 0.40857(16)
C1 C 0.3286(4) 0.7508(2) 0.46610(19)
C2 C 0.2781(5) 0.8694(2) 0.7109(2)
H1 H 0.2440 0.9347 0.7368
C3 C 0.3247(4) 0.7599(2) 0.57173(19)
C4 C 0.3717(5) 0.6964(2) 0.7345(2)
H2 H 0.4069 0.6419 0.7774
C5 C 0.2784(4) 0.8542(2) 0.6118(2)
H3 H 0.2492 0.9094 0.5687
C6 C 0.3720(4) 0.6821(2) 0.6355(2)
H4 H 0.4051 0.6164 0.6103
C7 C 0.3246(4) 0.7912(2) 0.7750(2)
C8 C 0.3602(4) 0.7909(2) 0.3169(2)
N3 N 0.3215(5) 0.8067(2) 0.87381(18)
C9 C 0.3944(5) 0.8507(2) 0.2320(2)
C10 C 0.3128(4) 0.6902(2) 0.3181(2)
N4 N 0.4197(5) 0.8968(2) 0.1630(2)
N5 N 0.2668(5) 0.5699(2) 0.1742(2)
C11 C 0.2863(5) 0.6216(2) 0.2395(2)
C12 C 0.2819(6) 0.9062(3) 0.9133(2)
H5 H 0.2915 0.9039 0.9829
H6 H 0.1569 0.9264 0.8952
H7 H 0.3710 0.9544 0.8881
C13 C 0.2319(5) 0.5647(2) 0.4482(2)
H8 H 0.1619 0.5310 0.3979
H9 H 0.1538 0.5726 0.5047
H10 H 0.3405 0.5247 0.4646
C14 C 0.3850(8) 0.7287(3) 0.9393(2)
H11 H 0.3879 0.7551 1.0044
H12 H 0.5091 0.7071 0.9209
H13 H 0.3005 0.6717 0.9364

#END
