
#######################################################################
#
#                 Cambridge Crystallographic Data Centre
#                                CCDC 
#
#######################################################################
#
# If this CIF has been generated from an entry in the Cambridge 
# Structural Database, then it will include bibliographic, chemical, 
# crystal, experimental, refinement or atomic coordinate data resulting 
# from the CCDC's data processing and validation procedures.
#
#######################################################################

data_KACKAD
_symmetry_cell_setting           orthorhombic
_symmetry_space_group_name_H-M   'P 21 21 21'
_symmetry_Int_Tables_number      19
_space_group_name_Hall           'P 2ac 2ab'
loop_
_symmetry_equiv_pos_site_id
_symmetry_equiv_pos_as_xyz
1 x,y,z
2 1/2-x,-y,1/2+z
3 1/2+x,1/2-y,-z
4 -x,1/2+y,1/2-z
_cell_length_a                   8.0462(5)
_cell_length_b                   9.2337(6)
_cell_length_c                   26.6656(13)
_cell_angle_alpha                90
_cell_angle_beta                 90
_cell_angle_gamma                90
_cell_volume                     1981.15
loop_
_atom_site_label
_atom_site_type_symbol
_atom_site_fract_x
_atom_site_fract_y
_atom_site_fract_z
Cl1 Cl 0.37213(18) 0.35295(15) 0.99291(3)
O1 O 0.4342(3) 0.3672(2) 0.60467(6)
O2 O -0.1046(2) 0.1588(2) 0.83099(6)
N1 N 0.4963(2) 0.38340(19) 0.77509(6)
N2 N 0.2232(2) 0.2705(2) 0.65115(6)
C1 C 0.4157(3) 0.4985(3) 0.85364(9)
H1 H 0.3965 0.5842 0.8363
C2 C 0.3866(4) 0.4916(4) 0.90455(10)
H2 H 0.3479 0.5724 0.9218
C3 C 0.4156(4) 0.3640(4) 0.92928(9)
C4 C 0.4769(4) 0.2435(3) 0.90470(10)
H3 H 0.4973 0.1582 0.9221
C5 C 0.5072(3) 0.2519(3) 0.85410(9)
H4 H 0.5505 0.1726 0.8371
C6 C 0.4732(3) 0.3782(2) 0.82867(8)
C7 C 0.6390(3) 0.4332(3) 0.75201(10)
H5 H 0.7328 0.4677 0.7685
C8 C 0.6209(3) 0.4238(3) 0.70167(9)
H6 H 0.6988 0.4499 0.6775
C9 C 0.3770(3) 0.3377(3) 0.64612(8)
C10 C 0.4604(3) 0.3667(2) 0.69293(8)
C11 C 0.3855(3) 0.3412(2) 0.73861(7)
C12 C 0.2215(2) 0.2805(2) 0.74316(7)
C13 C 0.1451(2) 0.2421(2) 0.69731(7)
C14 C -0.0089(3) 0.1722(2) 0.69909(7)
H7 H -0.0589 0.1430 0.6693
C15 C -0.0877(3) 0.1456(3) 0.74362(8)
H8 H -0.1902 0.0989 0.7439
C16 C -0.0147(3) 0.1882(2) 0.78817(8)
C17 C 0.1376(3) 0.2544(2) 0.78813(7)
H9 H 0.1856 0.2824 0.8183
C18 C -0.0497(4) 0.2236(5) 0.87593(9)
H10 H -0.0438 0.3266 0.8716
H11 H 0.0583 0.1869 0.8844
H12 H -0.1264 0.2013 0.9024
C19 C 0.1345(3) 0.2375(3) 0.60545(7)
C20 C 0.0178(6) 0.3321(4) 0.58865(14)
H13 H -0.0037 0.4170 0.6063
C21 C -0.0687(7) 0.3011(6) 0.54507(17)
H14 H -0.1493 0.3649 0.5334
C22 C -0.0356(7) 0.1762(7) 0.51919(11)
H15 H -0.0915 0.1565 0.4894
C23 C 0.0772(6) 0.0827(6) 0.53675(13)
H16 H 0.0966 -0.0032 0.5195
C24 C 0.1663(4) 0.1118(4) 0.58054(10)
H17 H 0.2454 0.0468 0.5924
Cl1 Cl 0.12787(18) 0.64705(15) 0.49291(3)
O1 O 0.0658(3) 0.6328(2) 0.10467(6)
O2 O 0.6046(2) 0.8412(2) 0.33099(6)
N1 N 0.0037(2) 0.61660(19) 0.27509(6)
N2 N 0.2768(2) 0.7295(2) 0.15115(6)
C1 C 0.0843(3) 0.5015(3) 0.35364(9)
H1 H 0.1035 0.4158 0.3363
C2 C 0.1134(4) 0.5084(4) 0.40455(10)
H2 H 0.1521 0.4276 0.4218
C3 C 0.0844(4) 0.6360(4) 0.42928(9)
C4 C 0.0231(4) 0.7565(3) 0.40470(10)
H3 H 0.0027 0.8418 0.4221
C5 C -0.0072(3) 0.7481(3) 0.35410(9)
H4 H -0.0505 0.8274 0.3371
C6 C 0.0268(3) 0.6218(2) 0.32867(8)
C7 C -0.1390(3) 0.5668(3) 0.25201(10)
H5 H -0.2328 0.5323 0.2685
C8 C -0.1209(3) 0.5762(3) 0.20167(9)
H6 H -0.1988 0.5501 0.1775
C9 C 0.1230(3) 0.6623(3) 0.14612(8)
C10 C 0.0396(3) 0.6333(2) 0.19293(8)
C11 C 0.1145(3) 0.6588(2) 0.23861(7)
C12 C 0.2785(2) 0.7195(2) 0.24316(7)
C13 C 0.3549(2) 0.7579(2) 0.19731(7)
C14 C 0.5089(3) 0.8278(2) 0.19909(7)
H7 H 0.5589 0.8570 0.1693
C15 C 0.5877(3) 0.8544(3) 0.24362(8)
H8 H 0.6902 0.9011 0.2439
C16 C 0.5147(3) 0.8118(2) 0.28817(8)
C17 C 0.3624(3) 0.7456(2) 0.28813(7)
H9 H 0.3144 0.7176 0.3183
C18 C 0.5497(4) 0.7764(5) 0.37593(9)
H10 H 0.5438 0.6734 0.3716
H11 H 0.4417 0.8131 0.3844
H12 H 0.6264 0.7987 0.4024
C19 C 0.3655(3) 0.7625(3) 0.10545(7)
C20 C 0.4822(6) 0.6679(4) 0.08865(14)
H13 H 0.5037 0.5830 0.1063
C21 C 0.5687(7) 0.6989(6) 0.04507(17)
H14 H 0.6493 0.6351 0.0334
C22 C 0.5356(7) 0.8238(7) 0.01919(11)
H15 H 0.5915 0.8435 -0.0106
C23 C 0.4228(6) 0.9173(6) 0.03675(13)
H16 H 0.4034 1.0032 0.0195
C24 C 0.3337(4) 0.8882(4) 0.08054(10)
H17 H 0.2546 0.9532 0.0924
Cl1 Cl 0.87213(18) 0.14705(15) 0.00709(3)
O1 O 0.9342(3) 0.1328(2) 0.39533(6)
O2 O 0.3954(2) 0.3412(2) 0.16901(6)
N1 N 0.9963(2) 0.11660(19) 0.22491(6)
N2 N 0.7232(2) 0.2295(2) 0.34885(6)
C1 C 0.9157(3) 0.0015(3) 0.14636(9)
H1 H 0.8965 -0.0842 0.1637
C2 C 0.8866(4) 0.0084(4) 0.09545(10)
H2 H 0.8479 -0.0724 0.0782
C3 C 0.9156(4) 0.1360(4) 0.07072(9)
C4 C 0.9769(4) 0.2565(3) 0.09530(10)
H3 H 0.9973 0.3418 0.0779
C5 C 1.0072(3) 0.2481(3) 0.14590(9)
H4 H 1.0505 0.3274 0.1629
C6 C 0.9732(3) 0.1218(2) 0.17133(8)
C7 C 1.1390(3) 0.0668(3) 0.24799(10)
H5 H 1.2328 0.0323 0.2315
C8 C 1.1209(3) 0.0762(3) 0.29833(9)
H6 H 1.1988 0.0501 0.3225
C9 C 0.8770(3) 0.1623(3) 0.35388(8)
C10 C 0.9604(3) 0.1333(2) 0.30707(8)
C11 C 0.8855(3) 0.1588(2) 0.26139(7)
C12 C 0.7215(2) 0.2195(2) 0.25684(7)
C13 C 0.6451(2) 0.2579(2) 0.30269(7)
C14 C 0.4911(3) 0.3278(2) 0.30091(7)
H7 H 0.4411 0.3570 0.3307
C15 C 0.4123(3) 0.3544(3) 0.25638(8)
H8 H 0.3098 0.4011 0.2561
C16 C 0.4853(3) 0.3118(2) 0.21183(8)
C17 C 0.6376(3) 0.2456(2) 0.21187(7)
H9 H 0.6856 0.2176 0.1817
C18 C 0.4503(4) 0.2764(5) 0.12407(9)
H10 H 0.4562 0.1734 0.1284
H11 H 0.5583 0.3131 0.1156
H12 H 0.3736 0.2987 0.0976
C19 C 0.6345(3) 0.2625(3) 0.39455(7)
C20 C 0.5178(6) 0.1679(4) 0.41135(14)
H13 H 0.4963 0.0830 0.3937
C21 C 0.4313(7) 0.1989(6) 0.45493(17)
H14 H 0.3507 0.1351 0.4666
C22 C 0.4644(7) 0.3238(7) 0.48081(11)
H15 H 0.4085 0.3435 0.5106
C23 C 0.5772(6) 0.4173(6) 0.46325(13)
H16 H 0.5966 0.5032 0.4805
C24 C 0.6663(4) 0.3882(4) 0.41946(10)
H17 H 0.7454 0.4532 0.4076
Cl1 Cl 0.62787(18) 0.85295(15) 0.50709(3)
O1 O 0.5658(3) 0.8672(2) 0.89533(6)
O2 O 1.1046(2) 0.6588(2) 0.66901(6)
N1 N 0.5037(2) 0.88340(19) 0.72491(6)
N2 N 0.7768(2) 0.7705(2) 0.84885(6)
C1 C 0.5843(3) 0.9985(3) 0.64636(9)
H1 H 0.6035 1.0842 0.6637
C2 C 0.6134(4) 0.9916(4) 0.59545(10)
H2 H 0.6521 1.0724 0.5782
C3 C 0.5844(4) 0.8640(4) 0.57072(9)
C4 C 0.5231(4) 0.7435(3) 0.59530(10)
H3 H 0.5027 0.6582 0.5779
C5 C 0.4928(3) 0.7519(3) 0.64590(9)
H4 H 0.4495 0.6726 0.6629
C6 C 0.5268(3) 0.8782(2) 0.67133(8)
C7 C 0.3610(3) 0.9332(3) 0.74799(10)
H5 H 0.2672 0.9677 0.7315
C8 C 0.3791(3) 0.9238(3) 0.79833(9)
H6 H 0.3012 0.9499 0.8225
C9 C 0.6230(3) 0.8377(3) 0.85388(8)
C10 C 0.5396(3) 0.8667(2) 0.80707(8)
C11 C 0.6145(3) 0.8412(2) 0.76139(7)
C12 C 0.7785(2) 0.7805(2) 0.75684(7)
C13 C 0.8549(2) 0.7421(2) 0.80269(7)
C14 C 1.0089(3) 0.6722(2) 0.80091(7)
H7 H 1.0589 0.6430 0.8307
C15 C 1.0877(3) 0.6456(3) 0.75638(8)
H8 H 1.1902 0.5989 0.7561
C16 C 1.0147(3) 0.6882(2) 0.71183(8)
C17 C 0.8624(3) 0.7544(2) 0.71187(7)
H9 H 0.8144 0.7824 0.6817
C18 C 1.0497(4) 0.7236(5) 0.62407(9)
H10 H 1.0438 0.8266 0.6284
H11 H 0.9417 0.6869 0.6156
H12 H 1.1264 0.7013 0.5976
C19 C 0.8655(3) 0.7375(3) 0.89455(7)
C20 C 0.9822(6) 0.8321(4) 0.91135(14)
H13 H 1.0037 0.9170 0.8937
C21 C 1.0687(7) 0.8011(6) 0.95493(17)
H14 H 1.1493 0.8649 0.9666
C22 C 1.0356(7) 0.6762(7) 0.98081(11)
H15 H 1.0915 0.6565 1.0106
C23 C 0.9228(6) 0.5827(6) 0.96325(13)
H16 H 0.9034 0.4968 0.9805
C24 C 0.8337(4) 0.6118(4) 0.91946(10)
H17 H 0.7546 0.5468 0.9076

#END
