./KACLEH_from_POSCAR.cif_generated_by_CrystalShift
_symmetry_cell_setting triclinic
_symmetry_space_group_name_H-M 'P 1'
loop_
_symmetry_equiv_pos_site_id
_symmetry_equiv_pos_as_xyz
1 x,y,z
_cell_length_a 9.198800
_cell_length_b 13.681200
_cell_length_c 14.384100
_cell_angle_alpha 90.000000
_cell_angle_beta 90.000000
_cell_angle_gamma 90.000000
_cell_volume 1810.247940
loop_
_atom_site_label
_atom_site_type_symbol
_atom_site_fract_x
_atom_site_fract_y
_atom_site_fract_z
H1 H 0.844600 0.149200 0.245700
H2 H 0.688200 0.194400 0.240400
H3 H 0.604400 0.042100 0.416200
H4 H 0.698700 0.005000 0.332600
H5 H 0.566100 0.074500 0.314600
H6 H 0.644800 0.063000 0.547800
H7 H 0.658600 0.175100 0.568600
H8 H 0.730400 0.098700 0.635700
H9 H 0.655400 0.850800 0.745700
H10 H 0.685200 0.746900 0.787400
H11 H 0.811800 0.805600 0.740400
H12 H 0.730400 0.401300 1.135700
H13 H 0.658600 0.324900 1.068600
H14 H 0.644800 0.437000 1.047800
H15 H 0.895600 0.957900 0.916200
H16 H 0.566100 0.425500 0.814600
H17 H 0.698700 0.495000 0.832600
H18 H 0.604400 0.457900 0.916200
H19 H 0.801300 0.995000 0.832600
H20 H 0.688200 0.305600 0.740400
H21 H 0.814800 0.246900 0.787400
H22 H 0.844600 0.350800 0.745700
H23 H 0.933900 0.925500 0.814600
H24 H 0.855200 0.937000 1.047800
H25 H 0.841400 0.824900 1.068600
H26 H 0.769600 0.901300 1.135700
H27 H 0.344600 0.350800 0.754300
H28 H 0.314800 0.246900 0.712600
H29 H 0.188200 0.305600 0.759600
H30 H 0.104400 0.457900 0.583800
H31 H 0.198700 0.495000 0.667400
H32 H 0.066100 0.425500 0.685400
H33 H 0.144800 0.437000 0.452200
H34 H 0.769600 0.598700 0.635700
H35 H 0.841400 0.675100 0.568600
H36 H 0.855200 0.563000 0.547800
H37 H 0.158600 0.324900 0.431400
H38 H 0.933900 0.574500 0.314600
H39 H 0.801300 0.505000 0.332600
H40 H 0.895600 0.542100 0.416200
H41 H 0.230400 0.401300 0.364300
H42 H 0.811800 0.694400 0.240400
H43 H 0.685200 0.753100 0.287400
H44 H 0.655400 0.649200 0.245700
H45 H 0.155400 0.649200 0.254300
H46 H 0.185200 0.753100 0.212600
H47 H 0.311800 0.694400 0.259600
H48 H 0.395600 0.542100 0.083800
H49 H 0.301300 0.505000 0.167400
H50 H 0.433900 0.574500 0.185400
H51 H 0.355200 0.563000 -0.047800
H52 H 0.341400 0.675100 -0.068600
H53 H 0.269600 0.598700 -0.135700
H54 H 0.155400 0.850800 0.754300
H55 H 0.185200 0.746900 0.712600
H56 H 0.230400 0.098700 -0.135700
H57 H 0.158600 0.175100 -0.068600
H58 H 0.144800 0.063000 -0.047800
H59 H 0.311800 0.805600 0.759600
H60 H 0.066100 0.074500 0.185400
H61 H 0.198700 0.005000 0.167400
H62 H 0.104400 0.042100 0.083800
H63 H 0.395600 0.957900 0.583800
H64 H 0.188200 0.194400 0.259600
H65 H 0.314800 0.253100 0.212600
H66 H 0.344600 0.149200 0.254300
H67 H 0.301300 0.995000 0.667400
H68 H 0.433900 0.925500 0.685400
H69 H 0.355200 0.937000 0.452200
H70 H 0.341400 0.824900 0.431400
H71 H 0.269600 0.901300 0.364300
H72 H 0.814800 0.253100 0.287400
C73 C 0.774700 0.189200 0.277500
C74 C -0.225200 0.855100 0.515470
C75 C 1.070400 0.363550 0.981110
C76 C 0.020400 0.882260 0.445740
C77 C 0.292700 0.886900 0.428000
C78 C -0.010600 0.894900 0.349870
C79 C 1.010600 0.394900 1.150130
C80 C -0.070400 0.863550 0.518890
C81 C 0.356100 0.940800 0.643400
C82 C 0.643900 0.059200 0.356600
C83 C 0.856900 0.365690 0.924890
C84 C 0.274700 0.189200 0.222500
C85 C 0.225300 0.810800 0.722500
C86 C 0.143900 0.059200 0.143400
C87 C 0.207300 0.113100 -0.072000
C88 C 0.479600 0.117740 -0.054260
C89 C 1.225200 0.355100 0.984530
C90 C 0.707300 0.113100 0.572000
C91 C -0.070400 0.636450 0.018890
C92 C 0.979600 0.117740 0.554260
C93 C -0.010600 0.605100 -0.150130
C94 C 0.143100 0.634310 0.075110
C95 C 1.225200 0.144900 0.484530
C96 C -0.225200 0.644900 0.015470
C97 C 0.856900 0.134310 0.424890
C98 C 0.020400 0.617740 -0.054260
C99 C 0.292700 0.613100 -0.072000
C100 C 1.010600 0.105100 0.650130
C101 C 0.725200 0.144900 0.015470
C102 C 1.070400 0.136450 0.481110
C103 C 0.356100 0.559200 0.143400
C104 C 0.356900 0.134310 0.075110
C105 C 0.510600 0.105100 -0.150130
C106 C 0.979600 0.382260 1.054260
C107 C 0.225300 0.689200 0.222500
C108 C 0.570400 0.136450 0.018890
C109 C 0.707300 0.386900 1.072000
C110 C 0.725300 0.810800 0.777500
C111 C 0.643900 0.440800 0.856600
C112 C 0.774700 0.310800 0.777500
C113 C 0.570400 0.363550 0.518890
C114 C 0.856100 0.940800 0.856600
C115 C 0.510600 0.394900 0.349870
C116 C 0.356900 0.365690 0.575110
C117 C 0.429600 0.636450 0.481110
C118 C 0.725200 0.355100 0.515470
C119 C 0.792700 0.886900 1.072000
C120 C 0.479600 0.382260 0.445740
C121 C 0.207300 0.386900 0.428000
C122 C 0.725300 0.689200 0.277500
C123 C 0.856100 0.559200 0.356600
C124 C 0.792700 0.613100 0.572000
C125 C 0.143900 0.440800 0.643400
C126 C 0.520400 0.617740 0.554260
C127 C 0.520400 0.882260 1.054260
C128 C 0.274800 0.644900 0.484530
C129 C 0.274700 0.310800 0.722500
C130 C 0.274800 0.855100 0.984530
C131 C 0.643100 0.634310 0.424890
C132 C 0.489400 0.605100 0.650130
C133 C 0.643100 0.865690 0.924890
C134 C 0.489400 0.894900 1.150130
C135 C 0.429600 0.863550 0.981110
C136 C 0.143100 0.865690 0.575110
N137 N 0.658800 0.883540 1.017670
N138 N 0.505100 0.853900 0.900100
N139 N 0.461500 0.903200 1.227250
N140 N 0.461500 0.596800 0.727250
N141 N 0.151000 0.848520 0.986960
N142 N 0.151000 0.651480 0.486960
N143 N 0.849000 0.348520 0.513040
N144 N 0.760600 0.644630 0.366810
N145 N 0.538500 0.403200 0.272750
N146 N 0.658800 0.616460 0.517670
N147 N 0.239400 0.355370 0.633190
N148 N 0.505100 0.646100 0.400100
N149 N 0.341200 0.383540 0.482330
N150 N 0.494900 0.353900 0.599900
N151 N 0.494900 0.146100 0.099900
N152 N 0.341200 0.116460 -0.017670
N153 N 0.239400 0.144630 0.133190
N154 N 1.349000 0.348520 0.986960
N155 N 0.994900 0.146100 0.400100
N156 N 0.841200 0.116460 0.517670
N157 N 0.538500 0.096800 -0.227250
N158 N 0.739400 0.144630 0.366810
N159 N 0.849000 0.151480 0.013040
N160 N -0.349000 0.651480 0.013040
N161 N 1.038500 0.096800 0.727250
N162 N -0.038500 0.596800 -0.227250
N163 N 1.349000 0.151480 0.486960
N164 N 0.260600 0.644630 0.133190
N165 N 0.158800 0.616460 -0.017670
N166 N 0.005100 0.646100 0.099900
N167 N 1.038500 0.403200 1.227250
N168 N 0.005100 0.853900 0.599900
N169 N 0.158800 0.883540 0.482330
N170 N 0.260600 0.855370 0.633190
N171 N 0.739400 0.355370 0.866810
N172 N -0.349000 0.848520 0.513040
N173 N -0.038500 0.903200 0.272750
N174 N 0.841200 0.383540 1.017670
N175 N 0.760600 0.855370 0.866810
N176 N 0.994900 0.353900 0.900100

#END
