./KACNEJ_from_POSCAR.cif_generated_by_CrystalShift
_symmetry_cell_setting triclinic
_symmetry_space_group_name_H-M 'P 1'
loop_
_symmetry_equiv_pos_site_id
_symmetry_equiv_pos_as_xyz
1 x,y,z
_cell_length_a 8.701800
_cell_length_b 10.917800
_cell_length_c 13.178700
_cell_angle_alpha 90.000000
_cell_angle_beta 92.257000
_cell_angle_gamma 90.000000
_cell_volume 1251.064674
loop_
_atom_site_label
_atom_site_type_symbol
_atom_site_fract_x
_atom_site_fract_y
_atom_site_fract_z
H1 H 1.303200 0.671800 -0.021900
H2 H 1.465200 0.729200 0.004000
H3 H 0.988800 0.422900 0.148600
H4 H 1.180200 0.521000 0.064100
H5 H 1.224100 0.772600 0.287400
H6 H 0.809200 0.442000 0.338600
H7 H 0.552000 0.473100 0.645200
H8 H 0.757400 0.703000 1.196100
H9 H 0.687100 0.449700 0.498800
H10 H 0.894800 0.726600 1.050300
H11 H 0.894800 0.773400 0.550300
H12 H 0.757400 0.797000 0.696100
H13 H 0.687100 1.050300 0.998800
H14 H -0.303200 0.171800 0.521900
H15 H 0.552000 1.026900 1.145200
H16 H -0.429100 0.095000 0.461900
H17 H -0.465200 0.229200 0.496000
H18 H 0.809200 1.058000 0.838600
H19 H 0.011200 -0.077100 0.351400
H20 H -0.180200 0.021000 0.435900
H21 H -0.224100 0.272600 0.212600
H22 H 1.224100 0.727400 0.787400
H23 H 0.190800 -0.058000 0.161400
H24 H 0.448000 -0.026900 -0.145200
H25 H 1.180200 0.979000 0.564100
H26 H 0.312900 -0.050300 0.001200
H27 H 0.988800 1.077100 0.648600
H28 H 0.105200 0.273400 -0.050300
H29 H 1.465200 0.770800 0.504000
H30 H 1.429100 0.905000 0.538100
H31 H 1.303200 0.828200 0.478100
H32 H 0.242600 0.297000 -0.196100
H33 H -0.303200 0.328200 1.021900
H34 H -0.429100 0.405000 0.961900
H35 H -0.465200 0.270800 0.996000
H36 H 0.011200 0.577100 0.851400
H37 H -0.180200 0.479000 0.935900
H38 H -0.224100 0.227400 0.712600
H39 H 0.242600 0.203000 0.303900
H40 H 0.190800 0.558000 0.661400
H41 H 0.105200 0.226600 0.449700
H42 H 0.448000 0.526900 0.354800
H43 H 0.312900 0.550300 0.501200
H44 H 1.429100 0.595000 0.038100
C45 C 0.379050 0.467040 0.374350
C46 C 0.194910 0.391020 0.491160
C47 C 0.111430 0.408450 0.583640
C48 C 0.123100 0.492080 0.658010
C49 C 0.174120 0.286920 0.431040
C50 C 0.012070 0.461240 0.731230
C51 C -0.061190 0.356540 0.693640
C52 C -0.176820 0.296410 0.741030
C53 C 0.255470 0.272810 0.343790
C54 C -0.219580 0.343600 0.833140
C55 C -0.149300 0.448500 0.874080
C56 C 0.355460 0.363330 0.316960
C57 C -0.034800 0.507150 0.823780
C58 C 1.386900 0.675480 0.027690
C59 C -0.386900 0.324520 0.972310
C60 C 1.034800 0.492850 0.176220
C61 C 1.149300 0.551500 0.125920
C62 C 1.219580 0.656400 0.166860
C63 C 1.176820 0.703590 0.258970
C64 C 1.061190 0.643460 0.306360
C65 C 0.987930 0.538760 0.268770
C66 C 0.644540 0.863330 1.183040
C67 C 0.876900 0.507920 0.341990
C68 C 0.355460 0.136670 -0.183040
C69 C 0.255470 0.227190 -0.156210
C70 C 0.888570 0.591550 0.416360
C71 C 0.174120 0.213080 -0.068960
C72 C 1.386900 0.824520 0.527690
C73 C 0.194910 0.108980 -0.008840
C74 C 0.298250 0.019510 -0.038460
C75 C 1.034800 1.007150 0.676220
C76 C 0.379050 0.032960 -0.125650
C77 C 1.149300 0.948500 0.625920
C78 C 0.111430 0.091550 0.083640
C79 C 0.123100 0.007920 0.158010
C80 C 1.219580 0.843600 0.666860
C81 C 0.012070 0.038760 0.231230
C82 C -0.061190 0.143460 0.193640
C83 C -0.176820 0.203590 0.241030
C84 C 1.176820 0.796410 0.758970
C85 C -0.219580 0.156400 0.333140
C86 C -0.149300 0.051500 0.374080
C87 C 1.061190 0.856540 0.806360
C88 C -0.034800 -0.007150 0.323780
C89 C 0.987930 0.961240 0.768770
C90 C -0.386900 0.175480 0.472310
C91 C 0.876900 0.992080 0.841990
C92 C 0.888570 0.908450 0.916360
C93 C 0.620950 0.967040 1.125650
C94 C 0.744530 0.772810 1.156210
C95 C 0.620950 0.532960 0.625650
C96 C 0.825880 0.786920 1.068960
C97 C 0.701750 0.519510 0.538460
C98 C 0.805090 0.608980 0.508840
C99 C 0.644540 0.636670 0.683040
C100 C 0.744530 0.727190 0.656210
C101 C 0.701750 0.980490 1.038460
C102 C 0.825880 0.713080 0.568960
C103 C 0.805090 0.891020 1.008840
C104 C 0.298250 0.480490 0.461540
N105 N 0.440210 0.348280 0.223860
N106 N 0.559790 0.848280 1.276140
N107 N 0.559790 0.651720 0.776140
N108 N 0.440210 0.151720 -0.276140
O109 O 0.532910 0.427410 0.202200
O110 O 0.467090 0.572590 0.797800
O111 O -0.332620 0.220690 0.379180
O112 O -0.001890 0.177280 0.102700
O113 O 0.415670 0.243190 -0.327430
O114 O 0.584330 0.743190 0.827430
O115 O 1.001890 0.677280 0.397300
O116 O 0.415670 0.256810 0.172570
O117 O -0.001890 0.322720 0.602700
O118 O 1.332620 0.779310 0.620820
O119 O -0.332620 0.279310 0.879180
O120 O 1.001890 0.822720 0.897300
O121 O 1.332620 0.720690 0.120820
O122 O 0.584330 0.756810 1.327430
O123 O 0.532910 0.072590 -0.297800
O124 O 0.467090 0.927410 1.297800

#END
