
#######################################################################
#
#                 Cambridge Crystallographic Data Centre
#                                CCDC 
#
#######################################################################
#
# If this CIF has been generated from an entry in the Cambridge 
# Structural Database, then it will include bibliographic, chemical, 
# crystal, experimental, refinement or atomic coordinate data resulting 
# from the CCDC's data processing and validation procedures.
#
#######################################################################

data_KACQUB02
_symmetry_cell_setting           orthorhombic
_symmetry_space_group_name_H-M   'P 21 21 21'
_symmetry_Int_Tables_number      19
_space_group_name_Hall           'P 2ac 2ab'
loop_
_symmetry_equiv_pos_site_id
_symmetry_equiv_pos_as_xyz
1 x,y,z
2 1/2-x,-y,1/2+z
3 -x,1/2+y,1/2-z
4 1/2+x,1/2-y,-z
_cell_length_a                   6.1822(9)
_cell_length_b                   14.3236(12)
_cell_length_c                   15.1700(13)
_cell_angle_alpha                90
_cell_angle_beta                 90
_cell_angle_gamma                90
_cell_volume                     1343.32
loop_
_atom_site_label
_atom_site_type_symbol
_atom_site_fract_x
_atom_site_fract_y
_atom_site_fract_z
Si1 Si 0.39705(8) 0.44594(3) 0.37787(3)
C1 C 0.4790(3) 0.57441(11) 0.38374(13)
H1 H 0.3445 0.6131 0.3868
C2 C 0.6443(3) 0.37131(13) 0.37555(17)
H2 H 0.7281 0.3814 0.4296
H3 H 0.7327 0.3879 0.3243
H4 H 0.6019 0.3055 0.3716
C3 C 0.2312(4) 0.42854(13) 0.27677(14)
H5 H 0.1026 0.4684 0.2796
H6 H 0.1868 0.3630 0.2728
H7 H 0.3170 0.4451 0.2247
C4 C 0.2287(4) 0.41558(14) 0.47605(14)
H8 H 0.0988 0.4548 0.4769
H9 H 0.3126 0.4263 0.5299
H10 H 0.1864 0.3497 0.4729
C5 C 0.6125(4) 0.60783(11) 0.30642(11)
C6 C 0.8126(3) 0.64279(11) 0.33585(12)
C7 C 0.9658(3) 0.67645(12) 0.27637(13)
H11 H 1.1007 0.6999 0.2965
C8 C 0.9170(4) 0.67500(12) 0.18723(13)
H12 H 1.0205 0.6967 0.1457
C9 C 0.7186(4) 0.64218(13) 0.15806(13)
H13 H 0.6874 0.6424 0.0967
C10 C 0.5647(4) 0.60900(13) 0.21680(13)
H14 H 0.4286 0.5874 0.1961
C11 C 0.6209(4) 0.59933(11) 0.46137(11)
C12 C 0.8167(3) 0.63851(11) 0.43248(12)
C13 C 0.9702(3) 0.66990(11) 0.49262(13)
H15 H 1.1011 0.6975 0.4728
C14 C 0.9290(4) 0.66017(12) 0.58188(13)
H16 H 1.0326 0.6810 0.6237
C15 C 0.7363(4) 0.61991(12) 0.61067(13)
H17 H 0.7111 0.6128 0.6721
C16 C 0.5808(4) 0.59004(12) 0.55119(12)
H18 H 0.4489 0.5636 0.5714
Si1 Si 1.10295(8) 0.55406(3) 0.87787(3)
C1 C 1.0210(3) 0.42559(11) 0.88374(13)
H1 H 1.1555 0.3869 0.8868
C2 C 0.8557(3) 0.62869(13) 0.87555(17)
H2 H 0.7719 0.6186 0.9296
H3 H 0.7673 0.6121 0.8243
H4 H 0.8981 0.6945 0.8716
C3 C 1.2688(4) 0.57146(13) 0.77677(14)
H5 H 1.3974 0.5316 0.7796
H6 H 1.3132 0.6370 0.7728
H7 H 1.1830 0.5549 0.7247
C4 C 1.2713(4) 0.58442(14) 0.97605(14)
H8 H 1.4012 0.5452 0.9769
H9 H 1.1874 0.5737 1.0299
H10 H 1.3136 0.6503 0.9729
C5 C 0.8875(4) 0.39217(11) 0.80642(11)
C6 C 0.6874(3) 0.35721(11) 0.83585(12)
C7 C 0.5342(3) 0.32355(12) 0.77637(13)
H11 H 0.3993 0.3001 0.7965
C8 C 0.5830(4) 0.32500(12) 0.68723(13)
H12 H 0.4795 0.3033 0.6457
C9 C 0.7814(4) 0.35782(13) 0.65806(13)
H13 H 0.8126 0.3576 0.5967
C10 C 0.9353(4) 0.39100(13) 0.71680(13)
H14 H 1.0714 0.4126 0.6961
C11 C 0.8791(4) 0.40067(11) 0.96137(11)
C12 C 0.6833(3) 0.36149(11) 0.93248(12)
C13 C 0.5298(3) 0.33010(11) 0.99262(13)
H15 H 0.3989 0.3025 0.9728
C14 C 0.5710(4) 0.33983(12) 1.08188(13)
H16 H 0.4674 0.3190 1.1237
C15 C 0.7637(4) 0.38009(12) 1.11067(13)
H17 H 0.7889 0.3872 1.1721
C16 C 0.9192(4) 0.40996(12) 1.05119(12)
H18 H 1.0511 0.4364 1.0714
Si1 Si 0.60295(8) -0.05406(3) 0.12213(3)
C1 C 0.5210(3) 0.07441(11) 0.11626(13)
H1 H 0.6555 0.1131 0.1132
C2 C 0.3557(3) -0.12869(13) 0.12445(17)
H2 H 0.2719 -0.1186 0.0704
H3 H 0.2673 -0.1121 0.1757
H4 H 0.3981 -0.1945 0.1284
C3 C 0.7688(4) -0.07146(13) 0.22323(14)
H5 H 0.8974 -0.0316 0.2204
H6 H 0.8132 -0.1370 0.2272
H7 H 0.6830 -0.0549 0.2753
C4 C 0.7713(4) -0.08442(14) 0.02395(14)
H8 H 0.9012 -0.0452 0.0231
H9 H 0.6874 -0.0737 -0.0299
H10 H 0.8136 -0.1503 0.0271
C5 C 0.3875(4) 0.10783(11) 0.19358(11)
C6 C 0.1874(3) 0.14279(11) 0.16415(12)
C7 C 0.0342(3) 0.17645(12) 0.22363(13)
H11 H -0.1007 0.1999 0.2035
C8 C 0.0830(4) 0.17500(12) 0.31277(13)
H12 H -0.0205 0.1967 0.3543
C9 C 0.2814(4) 0.14218(13) 0.34194(13)
H13 H 0.3126 0.1424 0.4033
C10 C 0.4353(4) 0.10900(13) 0.28320(13)
H14 H 0.5714 0.0874 0.3039
C11 C 0.3791(4) 0.09933(11) 0.03863(11)
C12 C 0.1833(3) 0.13851(11) 0.06752(12)
C13 C 0.0298(3) 0.16990(11) 0.00738(13)
H15 H -0.1011 0.1975 0.0272
C14 C 0.0710(4) 0.16017(12) -0.08188(13)
H16 H -0.0326 0.1810 -0.1237
C15 C 0.2637(4) 0.11991(12) -0.11067(13)
H17 H 0.2889 0.1128 -0.1721
C16 C 0.4192(4) 0.09004(12) -0.05119(12)
H18 H 0.5511 0.0636 -0.0714
Si1 Si -0.10295(8) 1.05406(3) 0.62213(3)
C1 C -0.0210(3) 0.92559(11) 0.61626(13)
H1 H -0.1555 0.8869 0.6132
C2 C 0.1443(3) 1.12869(13) 0.62445(17)
H2 H 0.2281 1.1186 0.5704
H3 H 0.2327 1.1121 0.6757
H4 H 0.1019 1.1945 0.6284
C3 C -0.2688(4) 1.07146(13) 0.72323(14)
H5 H -0.3974 1.0316 0.7204
H6 H -0.3132 1.1370 0.7272
H7 H -0.1830 1.0549 0.7753
C4 C -0.2713(4) 1.08442(14) 0.52395(14)
H8 H -0.4012 1.0452 0.5231
H9 H -0.1874 1.0737 0.4701
H10 H -0.3136 1.1503 0.5271
C5 C 0.1125(4) 0.89217(11) 0.69358(11)
C6 C 0.3126(3) 0.85721(11) 0.66415(12)
C7 C 0.4658(3) 0.82355(12) 0.72363(13)
H11 H 0.6007 0.8001 0.7035
C8 C 0.4170(4) 0.82500(12) 0.81277(13)
H12 H 0.5205 0.8033 0.8543
C9 C 0.2186(4) 0.85782(13) 0.84194(13)
H13 H 0.1874 0.8576 0.9033
C10 C 0.0647(4) 0.89100(13) 0.78320(13)
H14 H -0.0714 0.9126 0.8039
C11 C 0.1209(4) 0.90067(11) 0.53863(11)
C12 C 0.3167(3) 0.86149(11) 0.56752(12)
C13 C 0.4702(3) 0.83010(11) 0.50738(13)
H15 H 0.6011 0.8025 0.5272
C14 C 0.4290(4) 0.83983(12) 0.41812(13)
H16 H 0.5326 0.8190 0.3763
C15 C 0.2363(4) 0.88009(12) 0.38933(13)
H17 H 0.2111 0.8872 0.3279
C16 C 0.0808(4) 0.90996(12) 0.44881(12)
H18 H -0.0511 0.9364 0.4286

#END
