./KACQUB02_from_POSCAR.cif_generated_by_CrystalShift
_symmetry_cell_setting triclinic
_symmetry_space_group_name_H-M 'P 1'
loop_
_symmetry_equiv_pos_site_id
_symmetry_equiv_pos_as_xyz
1 x,y,z
_cell_length_a 6.182200
_cell_length_b 14.323600
_cell_length_c 15.170000
_cell_angle_alpha 90.000000
_cell_angle_beta 90.000000
_cell_angle_gamma 90.000000
_cell_volume 1343.324130
loop_
_atom_site_label
_atom_site_type_symbol
_atom_site_fract_x
_atom_site_fract_y
_atom_site_fract_z
H1 H -0.051100 0.936400 0.428600
H2 H 0.211100 0.887200 0.327900
H3 H 0.344500 0.613100 0.386800
H4 H 0.532600 0.819000 0.376300
H5 H 0.728100 0.381400 0.429600
H6 H 0.732700 0.387900 0.324300
H7 H 0.601900 0.305500 0.371600
H8 H 0.601100 0.802500 0.527200
H9 H 0.102600 0.468400 0.279600
H10 H 0.186800 0.363000 0.272800
H11 H 0.317000 0.445100 0.224700
H12 H -0.071400 0.912600 0.803900
H13 H 0.098800 0.454800 0.476900
H14 H 0.312600 0.426300 0.529900
H15 H 0.186400 0.349700 0.472900
H16 H 0.187400 0.857600 0.903300
H17 H 0.520500 0.803300 0.854300
H18 H 0.600700 0.800100 0.703500
H19 H 1.100700 0.699900 0.296500
H20 H -0.313600 1.150300 0.527100
H21 H 1.020500 0.696700 0.145700
H22 H -0.187400 1.073700 0.470100
H23 H 0.687400 0.642400 0.096700
H24 H -0.401200 1.045200 0.523100
H25 H 0.428600 0.587400 0.196100
H26 H -0.183000 1.054900 0.775300
H27 H -0.313200 1.137000 0.727200
H28 H -0.397400 1.031600 0.720400
H29 H 1.101100 0.697500 0.472800
H30 H 0.101900 1.194500 0.628400
H31 H 1.032600 0.681000 0.623700
H32 H 0.232700 1.112100 0.675700
H33 H 0.711100 0.612800 0.672100
H34 H 0.228100 1.118600 0.570400
H35 H 0.448900 0.563600 0.571400
H36 H -0.155500 0.886900 0.613200
H37 H 0.551100 0.063600 -0.071400
H38 H 1.155500 0.386900 0.886800
H39 H 0.288900 0.112800 -0.172100
H40 H 0.771900 0.618600 0.929600
H41 H 0.767300 0.612100 0.824300
H42 H 0.898100 0.694500 0.871600
H43 H -0.032600 0.181000 -0.123700
H44 H 1.397400 0.531600 0.779600
H45 H 1.313200 0.637000 0.772800
H46 H 1.183000 0.554900 0.724700
H47 H -0.101100 0.197500 0.027200
H48 H 1.401200 0.545200 0.976900
H49 H 1.187400 0.573700 1.029900
H50 H 1.313600 0.650300 0.972900
H51 H 0.571400 0.087400 0.303900
H52 H 0.312600 0.142400 0.403300
H53 H -0.020500 0.196700 0.354300
H54 H 0.399300 0.300100 0.796500
H55 H -0.100700 0.199900 0.203500
H56 H 0.479500 0.303300 0.645700
H57 H 0.813600 -0.150300 0.027100
H58 H 0.812600 0.357600 0.596700
H59 H 0.687400 -0.073700 -0.029900
H60 H 1.071400 0.412600 0.696100
H61 H 0.901200 -0.045200 0.023100
H62 H 0.683000 -0.054900 0.275300
H63 H 0.813200 -0.137000 0.227200
H64 H 0.398900 0.302500 0.972800
H65 H 0.897400 -0.031600 0.220400
H66 H 0.467400 0.319000 1.123700
H67 H 0.398100 -0.194500 0.128400
H68 H 0.788900 0.387200 1.172100
H69 H 0.267300 -0.112100 0.175700
H70 H 1.051100 0.436400 1.071400
H71 H 0.271900 -0.118600 0.070400
H72 H 0.655500 0.113100 0.113200
C73 C 0.521000 0.074410 0.116260
C74 C 0.355700 -0.128690 0.124450
C75 C 0.479000 0.574410 0.383740
C76 C 0.919200 0.409960 1.051190
C77 C 0.763700 0.380090 1.110670
C78 C 0.768800 -0.071460 0.223230
C79 C 0.571000 0.339830 1.081880
C80 C 0.529800 0.330100 0.992620
C81 C 0.683300 0.361490 0.932480
C82 C 0.771300 -0.084420 0.023950
C83 C 0.879100 0.400670 0.961370
C84 C 0.935300 0.391000 0.716800
C85 C 0.781400 0.357820 0.658060
C86 C 0.387500 0.107830 0.193580
C87 C 0.187400 0.142790 0.164150
C88 C 0.034200 0.176450 0.223630
C89 C 0.583000 0.325000 0.687230
C90 C 0.083000 0.175000 0.312770
C91 C 0.534200 0.323550 0.776370
C92 C 0.281400 0.142180 0.341940
C93 C 0.687400 0.357210 0.835850
C94 C 0.435300 0.109000 0.283200
C95 C 0.887500 0.392170 0.806420
C96 C 0.379100 0.099330 0.038630
C97 C 0.183300 0.138510 0.067520
C98 C 0.029800 0.169900 0.007380
C99 C 1.271300 0.584420 0.976050
C100 C 0.071000 0.160170 -0.081880
C101 C 1.268800 0.571460 0.776770
C102 C 0.263700 0.119910 -0.110670
C103 C 0.855700 0.628690 0.875550
C104 C 0.419200 0.090040 -0.051190
C105 C 1.021000 0.425590 0.883740
C106 C 0.080800 0.909960 0.448810
C107 C -0.021000 0.925590 0.616260
C108 C 0.236300 0.880090 0.389330
C109 C 0.144300 1.128690 0.624450
C110 C 0.580800 0.590040 0.551190
C111 C 0.736300 0.619910 0.610670
C112 C 0.929000 0.660170 0.581880
C113 C -0.268800 1.071460 0.723230
C114 C 0.970200 0.669900 0.492620
C115 C 0.816700 0.638510 0.432480
C116 C 0.620900 0.599330 0.461370
C117 C -0.271300 1.084420 0.523950
C118 C 0.564700 0.609000 0.216800
C119 C 0.718600 0.642180 0.158060
C120 C 0.917000 0.675000 0.187230
C121 C 0.112500 0.892170 0.693580
C122 C 0.312600 0.857210 0.664150
C123 C 0.465800 0.823550 0.723630
C124 C 0.965800 0.676450 0.276370
C125 C 0.417000 0.825000 0.812770
C126 C 0.812600 0.642790 0.335850
C127 C 0.218600 0.857820 0.841940
C128 C 0.612500 0.607830 0.306420
C129 C 0.064700 0.891000 0.783200
C130 C 0.228700 0.415580 0.476050
C131 C 0.120900 0.900670 0.538630
C132 C 0.316700 0.861490 0.567520
C133 C 0.470200 0.830100 0.507380
C134 C 0.231200 0.428540 0.276770
C135 C 0.429000 0.839830 0.418120
C136 C 0.644300 0.371310 0.375550
Si137 Si 0.602950 -0.054060 0.122130
Si138 Si -0.102950 1.054060 0.622130
Si139 Si 1.102950 0.554060 0.877870
Si140 Si 0.397050 0.445940 0.377870

#END
