./KACQUB_from_POSCAR.cif_generated_by_CrystalShift
_symmetry_cell_setting triclinic
_symmetry_space_group_name_H-M 'P 1'
loop_
_symmetry_equiv_pos_site_id
_symmetry_equiv_pos_as_xyz
1 x,y,z
_cell_length_a 6.268100
_cell_length_b 14.329000
_cell_length_c 15.231000
_cell_angle_alpha 90.000000
_cell_angle_beta 90.000000
_cell_angle_gamma 90.000000
_cell_volume 1367.981478
loop_
_atom_site_label
_atom_site_type_symbol
_atom_site_fract_x
_atom_site_fract_y
_atom_site_fract_z
H1 H 0.680900 0.445300 0.772700
H2 H -0.153900 0.387300 0.111700
H3 H 0.104900 -0.047300 0.977300
H4 H 0.194500 -0.150600 0.974000
H5 H -0.051000 0.435900 -0.072000
H6 H 0.728100 -0.111400 0.824900
H7 H 0.203900 0.385800 -0.170500
H8 H 0.728100 -0.115800 0.928800
H9 H 0.523700 0.319700 -0.123200
H10 H 0.605000 -0.192700 0.873900
H11 H 0.588400 0.304600 0.026500
H12 H 0.429900 0.086800 0.698100
H13 H 0.684400 0.141600 0.600800
H14 H 1.013000 0.193300 0.647700
H15 H 0.587000 0.301600 0.201700
H16 H 1.087000 0.198400 0.798300
H17 H 0.513000 0.306700 0.352300
H18 H 1.088400 0.195400 0.973500
H19 H 0.184400 0.358400 0.399200
H20 H 1.023700 0.180300 1.123200
H21 H -0.070100 0.413200 0.301900
H22 H 0.703900 0.114200 1.170500
H23 H 0.449000 0.064100 1.072000
H24 H 0.105000 0.692700 0.126100
H25 H 0.228100 0.615800 0.071200
H26 H 0.228100 0.611400 0.175100
H27 H 0.346100 0.112700 0.888300
H28 H -0.305500 0.650600 0.026000
H29 H -0.395100 0.547300 0.022700
H30 H -0.185700 0.573500 -0.030000
H31 H 0.194200 -0.136800 0.774200
H32 H -0.305800 0.636800 0.225800
H33 H -0.180900 0.554700 0.272700
H34 H -0.390800 0.533000 0.218500
H35 H 0.109200 -0.033000 0.781500
H36 H 1.390800 1.033000 0.281500
H37 H 0.653900 0.612700 0.611700
H38 H 1.180900 1.054700 0.227300
H39 H 1.305800 1.136800 0.274200
H40 H 0.551000 0.564100 0.428000
H41 H 1.185700 1.073500 0.530000
H42 H 0.296100 0.614200 0.329500
H43 H 1.395100 1.047300 0.477300
H44 H -0.023700 0.680300 0.376800
H45 H 1.305500 1.150600 0.474000
H46 H -0.088400 0.695400 0.526500
H47 H 0.771900 1.111400 0.324900
H48 H 0.771900 1.115800 0.428800
H49 H 0.895000 1.192700 0.373900
H50 H -0.087000 0.698400 0.701700
H51 H 1.070100 0.913200 0.198100
H52 H -0.013000 0.693300 0.852300
H53 H 0.815600 0.858400 0.100800
H54 H 0.315600 0.641600 0.899200
H55 H 0.487000 0.806700 0.147700
H56 H 0.570100 0.586800 0.801900
H57 H 0.413000 0.801600 0.298300
H58 H 0.411600 0.804600 0.473500
H59 H 0.395000 0.307300 0.626100
H60 H 0.271900 0.384200 0.571200
H61 H 0.271900 0.388600 0.675100
H62 H 0.476300 0.819700 0.623200
H63 H 0.805500 0.349400 0.526000
H64 H 0.895100 0.452700 0.522700
H65 H 0.685700 0.426500 0.470000
H66 H 0.796100 0.885800 0.670500
H67 H 0.805800 0.363200 0.725800
H68 H 0.314300 -0.073500 1.030000
H69 H 0.890800 0.467000 0.718500
H70 H 0.319100 -0.054700 0.727300
H71 H 1.051000 0.935900 0.572000
H72 H 1.153900 0.887300 0.388300
C73 C 0.884600 0.900300 0.461000
C74 C 0.922900 0.909600 0.551600
C75 C 1.022200 0.925300 0.385300
C76 C 0.770300 0.879600 0.610000
C77 C 0.764200 0.428200 0.721500
C78 C 0.577900 0.840100 0.582100
C79 C 0.766800 0.414900 0.523200
C80 C 0.539500 0.831600 0.493300
C81 C 0.355600 0.372700 0.623600
C82 C 0.688400 0.862600 0.433500
C83 C 0.693300 0.858800 0.337100
C84 C 0.544000 0.825300 0.278100
C85 C 0.391600 0.607500 0.691500
C86 C 0.588900 0.827000 0.188700
C87 C 0.437600 0.608200 0.781100
C88 C 0.784600 0.858900 0.161200
C89 C 0.284600 0.641100 0.838800
C90 C 0.937600 0.891800 0.218900
C91 C 0.088900 0.673000 0.811300
C92 C 0.891600 0.892500 0.308500
C93 C 0.855600 1.127300 0.376400
C94 C 0.044000 0.674700 0.721900
C95 C 0.193300 0.641200 0.662900
C96 C 0.188400 0.637400 0.566500
C97 C 1.266800 1.085100 0.476800
C98 C 0.039500 0.668400 0.506700
C99 C 0.077900 0.659900 0.417900
C100 C 0.270300 0.620400 0.390000
C101 C 1.264200 1.071800 0.278500
C102 C 0.422900 0.590400 0.448400
C103 C 0.384600 0.599700 0.539000
C104 C 0.522200 0.574700 0.614700
C105 C -0.264200 0.571800 0.221500
C106 C 0.477800 0.074700 0.885300
C107 C -0.266800 0.585100 0.023200
C108 C 0.615400 0.099700 0.961000
C109 C 0.577100 0.090400 1.051600
C110 C 0.144400 0.627300 0.123600
C111 C 0.729700 0.120400 1.110000
C112 C 0.108400 0.392500 0.191500
C113 C 0.922100 0.159900 1.082100
C114 C 0.062400 0.391800 0.281100
C115 C 0.960500 0.168400 0.993300
C116 C 0.215400 0.358900 0.338800
C117 C 0.811600 0.137400 0.933500
C118 C 0.806700 0.141200 0.837100
C119 C 0.956000 0.174700 0.778100
C120 C 0.411100 0.327000 0.311300
C121 C 0.911100 0.173000 0.688700
C122 C 0.456000 0.325300 0.221900
C123 C 0.715400 0.141100 0.661200
C124 C 0.306700 0.358800 0.162900
C125 C 0.562400 0.108200 0.718900
C126 C 0.311600 0.362600 0.066500
C127 C 0.608400 0.107500 0.808500
C128 C 0.644400 -0.127300 0.876400
C129 C 0.460500 0.331600 0.006700
C130 C 0.422100 0.340100 -0.082100
C131 C 0.229700 0.379600 -0.110000
C132 C 0.233200 -0.085100 0.976800
C133 C 0.077100 0.409600 -0.051600
C134 C 0.115400 0.400300 0.039000
C135 C -0.022200 0.425300 0.114700
C136 C 0.235800 -0.071800 0.778500
Si137 Si 0.601300 0.445820 0.620890
Si138 Si -0.101300 0.554180 0.120890
Si139 Si 0.398700 -0.054180 0.879110
Si140 Si 1.101300 1.054180 0.379110

#END
