./KACRUB01_from_POSCAR.cif_generated_by_CrystalShift
_symmetry_cell_setting triclinic
_symmetry_space_group_name_H-M 'P 1'
loop_
_symmetry_equiv_pos_site_id
_symmetry_equiv_pos_as_xyz
1 x,y,z
_cell_length_a 11.239000
_cell_length_b 6.830000
_cell_length_c 16.052000
_cell_angle_alpha 90.000000
_cell_angle_beta 105.200000
_cell_angle_gamma 90.000000
_cell_volume 1189.083253
loop_
_atom_site_label
_atom_site_type_symbol
_atom_site_fract_x
_atom_site_fract_y
_atom_site_fract_z
H1 H 0.802000 0.289000 0.263000
H2 H 0.605000 0.502000 0.563000
H3 H 0.506000 0.182000 0.590000
H4 H 0.881000 0.709000 1.364000
H5 H 0.479000 0.149000 0.736000
H6 H 0.630000 0.750000 1.104000
H7 H 0.658000 0.916000 0.798000
H8 H 0.282000 0.294000 0.759000
H9 H 0.135000 0.406000 0.868000
H10 H 0.227000 0.536000 0.832000
H11 H 0.180000 0.157000 0.971000
H12 H 0.255000 0.031000 0.900000
H13 H 0.322000 -0.062000 1.072000
H14 H 0.435000 0.007000 1.039000
H15 H 0.342000 0.084000 1.202000
H16 H 0.331000 0.249000 1.336000
H17 H 0.395000 0.498000 1.437000
H18 H 0.494000 0.818000 1.410000
H19 H 0.130000 -0.250000 0.604000
H20 H -0.021000 0.351000 0.236000
H21 H 0.381000 -0.209000 0.864000
H22 H 0.006000 0.318000 0.090000
H23 H 0.105000 -0.002000 0.063000
H24 H 0.169000 -0.251000 0.164000
H25 H 0.158000 -0.416000 0.298000
H26 H 0.065000 -0.493000 0.461000
H27 H 0.178000 -0.562000 0.428000
H28 H 0.245000 -0.469000 0.600000
H29 H 0.320000 -0.343000 0.529000
H30 H 0.273000 0.036000 0.668000
H31 H 0.365000 -0.094000 0.632000
H32 H 0.218000 -0.206000 0.741000
H33 H 0.698000 0.789000 0.237000
H34 H 0.119000 0.291000 0.636000
H35 H 0.521000 0.851000 1.264000
H36 H 0.370000 0.250000 0.896000
H37 H 0.565000 0.993000 0.961000
H38 H 0.718000 0.706000 0.241000
H39 H 0.865000 0.594000 0.132000
H40 H 0.773000 0.464000 0.168000
H41 H 0.820000 0.843000 0.029000
H42 H 0.745000 0.969000 0.100000
H43 H 0.678000 1.062000 -0.072000
H44 H 0.565000 0.993000 -0.039000
H45 H 0.658000 0.916000 -0.202000
H46 H 0.669000 0.751000 -0.336000
H47 H 0.605000 0.502000 -0.437000
H48 H 0.506000 0.182000 -0.410000
H49 H 0.881000 0.709000 0.364000
H50 H 0.479000 0.149000 -0.264000
H51 H -0.130000 0.250000 0.396000
H52 H 0.021000 -0.351000 0.764000
H53 H -0.381000 0.209000 0.136000
H54 H -0.006000 -0.318000 0.910000
H55 H -0.105000 0.002000 0.937000
H56 H -0.169000 0.251000 0.836000
H57 H -0.158000 0.416000 0.702000
H58 H -0.065000 0.493000 0.539000
H59 H -0.178000 0.562000 0.572000
H60 H -0.245000 0.469000 0.400000
H61 H -0.320000 0.343000 0.471000
H62 H -0.273000 -0.036000 0.332000
H63 H -0.365000 0.094000 0.368000
H64 H -0.218000 0.206000 0.259000
H65 H 0.198000 0.711000 0.737000
H66 H 0.630000 0.750000 0.104000
H67 H 0.678000 1.062000 0.928000
H68 H 0.282000 0.294000 -0.241000
H69 H 0.135000 0.406000 -0.132000
H70 H 0.227000 0.536000 -0.168000
H71 H 0.180000 0.157000 -0.029000
H72 H 0.255000 0.031000 -0.100000
H73 H 0.322000 -0.062000 0.072000
H74 H 0.435000 0.007000 0.039000
H75 H 0.342000 0.084000 0.202000
H76 H 0.331000 0.249000 0.336000
H77 H 0.395000 0.498000 0.437000
H78 H 0.494000 0.818000 0.410000
H79 H 0.119000 0.291000 -0.364000
H80 H 0.521000 0.851000 0.264000
H81 H 0.370000 0.250000 -0.104000
H82 H 0.745000 0.969000 1.100000
H83 H 0.130000 0.750000 0.604000
H84 H -0.021000 1.351000 0.236000
H85 H 0.381000 0.791000 0.864000
H86 H 0.006000 1.318000 0.090000
H87 H 0.105000 0.998000 0.063000
H88 H 0.169000 0.749000 0.164000
H89 H 0.158000 0.584000 0.298000
H90 H 0.065000 0.507000 0.461000
H91 H 0.178000 0.438000 0.428000
H92 H 0.245000 0.531000 0.600000
H93 H 0.320000 0.657000 0.529000
H94 H 0.273000 1.036000 0.668000
H95 H 0.365000 0.906000 0.632000
H96 H 0.218000 0.794000 0.741000
H97 H 0.302000 0.211000 0.763000
H98 H 0.782000 1.206000 0.259000
H99 H 0.635000 1.094000 0.368000
H100 H 0.727000 0.964000 0.332000
H101 H 0.680000 1.343000 0.471000
H102 H 0.755000 1.469000 0.400000
H103 H 0.822000 1.562000 0.572000
H104 H 0.935000 1.493000 0.539000
H105 H 0.842000 1.416000 0.702000
H106 H 0.831000 1.251000 0.836000
H107 H 0.895000 1.002000 0.937000
H108 H 0.994000 0.682000 0.910000
H109 H 0.619000 1.209000 0.136000
H110 H 1.021000 0.649000 0.764000
H111 H 0.870000 1.250000 0.396000
H112 H 0.820000 0.843000 1.029000
H113 H 1.218000 0.794000 0.741000
H114 H 1.365000 0.906000 0.632000
H115 H -0.130000 1.250000 0.396000
H116 H 0.021000 0.649000 0.764000
H117 H -0.381000 1.209000 0.136000
H118 H -0.006000 0.682000 0.910000
H119 H -0.105000 1.002000 0.937000
H120 H -0.169000 1.251000 0.836000
H121 H -0.158000 1.416000 0.702000
H122 H -0.065000 1.493000 0.539000
H123 H -0.178000 1.562000 0.572000
H124 H -0.245000 1.469000 0.400000
H125 H -0.320000 1.343000 0.471000
H126 H -0.273000 0.964000 0.332000
H127 H -0.365000 1.094000 0.368000
H128 H -0.218000 1.206000 0.259000
H129 H 0.718000 0.706000 1.241000
H130 H 1.273000 1.036000 0.668000
H131 H 1.320000 0.657000 0.529000
H132 H 1.245000 0.531000 0.600000
H133 H 1.178000 0.438000 0.428000
H134 H 1.065000 0.507000 0.461000
H135 H 1.158000 0.584000 0.298000
H136 H 1.169000 0.749000 0.164000
H137 H 1.105000 0.998000 0.063000
H138 H 1.006000 1.318000 0.090000
H139 H 1.381000 0.791000 0.864000
H140 H 0.979000 1.351000 0.236000
H141 H 1.130000 0.750000 0.604000
H142 H 0.773000 0.464000 1.168000
H143 H 0.782000 0.206000 0.259000
H144 H 0.635000 0.094000 0.368000
H145 H 0.727000 -0.036000 0.332000
H146 H 0.680000 0.343000 0.471000
H147 H 1.130000 -0.250000 0.604000
H148 H 0.979000 0.351000 0.236000
H149 H 1.381000 -0.209000 0.864000
H150 H 1.006000 0.318000 0.090000
H151 H 1.105000 -0.002000 0.063000
H152 H 1.169000 -0.251000 0.164000
H153 H 1.158000 -0.416000 0.298000
H154 H 1.065000 -0.493000 0.461000
H155 H 1.178000 -0.562000 0.428000
H156 H 1.245000 -0.469000 0.600000
H157 H 1.320000 -0.343000 0.529000
H158 H 1.273000 0.036000 0.668000
H159 H 1.365000 -0.094000 0.632000
H160 H 1.218000 -0.206000 0.741000
H161 H 0.865000 0.594000 1.132000
H162 H 0.755000 0.469000 0.400000
H163 H 0.822000 0.562000 0.572000
H164 H 0.935000 0.493000 0.539000
H165 H 0.842000 0.416000 0.702000
H166 H 0.831000 0.251000 0.836000
H167 H 0.895000 0.002000 0.937000
H168 H 0.994000 -0.318000 0.910000
H169 H 0.619000 0.209000 0.136000
H170 H 1.021000 -0.351000 0.764000
H171 H 0.870000 0.250000 0.396000
H172 H 0.669000 0.751000 0.664000
C173 C 0.891100 0.102000 0.736100
C174 C 0.862800 0.264000 0.674800
C175 C 0.845300 0.428000 0.544900
C176 C 0.762400 0.379000 0.455600
C177 C 0.717400 0.112000 0.350500
C178 C 0.701500 0.234000 0.270900
C179 C 0.918900 -0.007000 0.882600
C180 C 0.964800 -0.185000 0.860800
C181 C 0.975500 -0.220000 0.779600
C182 C 0.938600 -0.076000 0.715100
C183 C 0.798500 0.734000 1.229100
C184 C 0.782600 0.612000 1.149500
C185 C 0.737600 0.879000 1.044400
C186 C 0.654700 0.928000 0.955100
C187 C 0.637200 0.764000 0.825200
C188 C 0.608900 0.602000 0.763900
C189 C 1.298500 -0.234000 0.729100
C190 C 1.282600 -0.112000 0.649500
C191 C 1.237600 -0.379000 0.544400
C192 C 1.154700 -0.428000 0.455100
C193 C 1.137200 -0.264000 0.325200
C194 C 0.616800 0.636000 0.679900
C195 C 0.581100 0.493000 0.617400
C196 C 0.535200 0.315000 0.639200
C197 C 0.524500 0.280000 0.720400
C198 C 0.561400 0.424000 0.784900
C199 C 0.061400 0.076000 0.284900
C200 C 1.061400 1.076000 0.284900
C201 C 1.024500 1.220000 0.220400
C202 C 1.035200 1.185000 0.139200
C203 C 1.081100 1.007000 0.117400
C204 C 1.116800 0.864000 0.179900
C205 C 1.108900 0.898000 0.263900
C206 C 1.137200 0.736000 0.325200
C207 C 1.154700 0.572000 0.455100
C208 C 1.237600 0.621000 0.544400
C209 C 1.282600 0.888000 0.649500
C210 C 1.298500 0.766000 0.729100
C211 C 1.108900 -0.102000 0.263900
C212 C 1.116800 -0.136000 0.179900
C213 C 1.081100 0.007000 0.117400
C214 C 1.035200 0.185000 0.139200
C215 C 1.024500 0.220000 0.220400
C216 C 1.061400 0.076000 0.284900
C217 C 0.024500 0.220000 0.220400
C218 C 0.035200 0.185000 0.139200
C219 C 0.081100 0.007000 0.117400
C220 C 0.116800 -0.136000 0.179900
C221 C 0.108900 -0.102000 0.263900
C222 C 0.137200 -0.264000 0.325200
C223 C -0.298500 1.234000 0.270900
C224 C -0.282600 1.112000 0.350500
C225 C -0.237600 1.379000 0.455600
C226 C 0.154700 -0.428000 0.455100
C227 C 0.237600 -0.379000 0.544400
C228 C 0.282600 -0.112000 0.649500
C229 C 0.298500 -0.234000 0.729100
C230 C 0.201500 0.266000 0.770900
C231 C 0.217400 0.388000 0.850500
C232 C 0.938600 0.924000 0.715100
C233 C 0.975500 0.780000 0.779600
C234 C 0.964800 0.815000 0.860800
C235 C 0.918900 0.993000 0.882600
C236 C 0.883200 1.136000 0.820100
C237 C 0.891100 1.102000 0.736100
C238 C 0.862800 1.264000 0.674800
C239 C 0.845300 1.428000 0.544900
C240 C 0.762400 1.379000 0.455600
C241 C 0.717400 1.112000 0.350500
C242 C 0.701500 1.234000 0.270900
C243 C -0.154700 1.428000 0.544900
C244 C -0.137200 1.264000 0.674800
C245 C -0.108900 1.102000 0.736100
C246 C -0.116800 1.136000 0.820100
C247 C -0.081100 0.993000 0.882600
C248 C -0.035200 0.815000 0.860800
C249 C -0.024500 0.780000 0.779600
C250 C -0.061400 0.924000 0.715100
C251 C 0.262400 0.121000 0.955600
C252 C 0.345300 0.072000 1.044900
C253 C 0.362800 0.236000 1.174800
C254 C 0.391100 0.398000 1.236100
C255 C 0.383200 0.364000 1.320100
C256 C 0.418900 0.507000 1.382600
C257 C 0.298500 0.766000 0.729100
C258 C 0.464800 0.685000 1.360800
C259 C 0.475500 0.720000 1.279600
C260 C 0.438600 0.576000 1.215100
C261 C -0.061400 -0.076000 0.715100
C262 C -0.024500 -0.220000 0.779600
C263 C -0.035200 -0.185000 0.860800
C264 C 0.438600 0.576000 0.215100
C265 C 0.475500 0.720000 0.279600
C266 C 0.464800 0.685000 0.360800
C267 C 0.418900 0.507000 0.382600
C268 C 0.383200 0.364000 0.320100
C269 C 0.391100 0.398000 0.236100
C270 C 0.362800 0.236000 0.174800
C271 C 0.345300 0.072000 0.044900
C272 C 0.262400 0.121000 -0.044400
C273 C 0.217400 0.388000 -0.149500
C274 C 0.201500 0.266000 -0.229100
C275 C 0.282600 0.888000 0.649500
C276 C 0.237600 0.621000 0.544400
C277 C 0.154700 0.572000 0.455100
C278 C 0.137200 0.736000 0.325200
C279 C 0.108900 0.898000 0.263900
C280 C 0.116800 0.864000 0.179900
C281 C 0.081100 1.007000 0.117400
C282 C 0.035200 1.185000 0.139200
C283 C 0.024500 1.220000 0.220400
C284 C 0.061400 1.076000 0.284900
C285 C -0.081100 -0.007000 0.882600
C286 C -0.116800 0.136000 0.820100
C287 C -0.108900 0.102000 0.736100
C288 C -0.137200 0.264000 0.674800
C289 C -0.154700 0.428000 0.544900
C290 C -0.237600 0.379000 0.455600
C291 C -0.282600 0.112000 0.350500
C292 C -0.298500 0.234000 0.270900
C293 C 0.798500 0.734000 0.229100
C294 C 0.782600 0.612000 0.149500
C295 C 0.737600 0.879000 0.044400
C296 C 0.561400 0.424000 -0.215100
C297 C 0.524500 0.280000 -0.279600
C298 C 0.535200 0.315000 -0.360800
C299 C 0.581100 0.493000 -0.382600
C300 C 0.616800 0.636000 -0.320100
C301 C 0.608900 0.602000 -0.236100
C302 C 0.637200 0.764000 -0.174800
C303 C 0.654700 0.928000 -0.044900
C304 C 0.883200 0.136000 0.820100
N305 N 0.640200 0.748000 -0.096100
N306 N 0.140200 -0.248000 0.403900
N307 N 0.809100 0.196000 0.425800
N308 N 0.859800 0.248000 0.596100
N309 N 1.140200 0.752000 0.403900
N310 N 0.690900 0.696000 1.074200
N311 N 0.640200 0.748000 0.903900
N312 N 0.190900 -0.196000 0.574200
N313 N 1.190900 0.804000 0.574200
N314 N 0.140200 0.752000 0.403900
N315 N 0.190900 0.804000 0.574200
N316 N 0.309100 0.304000 -0.074200
N317 N 0.359800 0.252000 0.096100
N318 N 1.190900 -0.196000 0.574200
N319 N -0.190900 0.196000 0.425800
N320 N -0.140200 0.248000 0.596100
N321 N 1.140200 -0.248000 0.403900
N322 N 0.690900 0.696000 0.074200
N323 N 0.859800 1.248000 0.596100
N324 N 0.809100 1.196000 0.425800
N325 N -0.190900 1.196000 0.425800
N326 N 0.359800 0.252000 1.096100
N327 N 0.309100 0.304000 0.925800
N328 N -0.140200 1.248000 0.596100
O329 O 0.125900 0.376000 -0.301400
O330 O 0.457500 0.613100 0.138400
O331 O -0.042500 0.886900 0.638400
O332 O -0.374100 1.124000 0.198600
O333 O -0.266100 0.902000 0.520000
O334 O -0.067100 0.847300 0.463900
O335 O 0.233900 0.598000 0.020000
O336 O 0.432900 0.652700 0.963900
O337 O 0.233900 0.598000 1.020000
O338 O 0.125900 0.376000 0.698600
O339 O -0.266100 -0.098000 0.520000
O340 O 0.457500 0.613100 1.138400
O341 O -0.042500 -0.113100 0.638400
O342 O 0.932900 0.847300 0.463900
O343 O 0.733900 0.902000 0.520000
O344 O 0.625900 1.124000 0.198600
O345 O 0.957500 0.886900 0.638400
O346 O 1.042500 0.113100 0.361600
O347 O 1.374100 -0.124000 0.801400
O348 O 1.266100 0.098000 0.480000
O349 O 1.067100 0.152700 0.536100
O350 O -0.067100 -0.152700 0.463900
O351 O 0.432900 0.652700 -0.036100
O352 O 0.067100 1.152700 0.536100
O353 O 0.266100 1.098000 0.480000
O354 O 0.542500 0.386900 0.861600
O355 O 0.874100 0.624000 1.301400
O356 O 0.766100 0.402000 0.980000
O357 O 0.567100 0.347300 1.036100
O358 O 0.374100 0.876000 0.801400
O359 O 0.542500 0.386900 -0.138400
O360 O 0.874100 0.624000 0.301400
O361 O 1.067100 1.152700 0.536100
O362 O 1.266100 1.098000 0.480000
O363 O 1.374100 0.876000 0.801400
O364 O 1.042500 1.113100 0.361600
O365 O 0.957500 -0.113100 0.638400
O366 O 0.625900 0.124000 0.198600
O367 O 0.733900 -0.098000 0.520000
O368 O 0.932900 -0.152700 0.463900
O369 O 0.766100 0.402000 -0.020000
O370 O 0.042500 1.113100 0.361600
O371 O 0.567100 0.347300 0.036100
O372 O 0.067100 0.152700 0.536100
O373 O 0.266100 0.098000 0.480000
O374 O 0.374100 -0.124000 0.801400
O375 O 0.042500 0.113100 0.361600
O376 O -0.374100 0.124000 0.198600
V377 V 0.629200 0.484300 0.973000
V378 V 0.370800 0.515700 1.027000
V379 V 0.629200 0.484300 -0.027000
V380 V 0.370800 0.515700 0.027000
V381 V 0.870800 0.984300 0.527000
V382 V 1.129200 1.015700 0.473000
V383 V 0.870800 -0.015700 0.527000
V384 V 1.129200 0.015700 0.473000
V385 V -0.129200 0.984300 0.527000
V386 V 0.129200 1.015700 0.473000
V387 V -0.129200 -0.015700 0.527000
V388 V 0.129200 0.015700 0.473000

#END
