
#######################################################################
#
#                 Cambridge Crystallographic Data Centre
#                                CCDC 
#
#######################################################################
#
# If this CIF has been generated from an entry in the Cambridge 
# Structural Database, then it will include bibliographic, chemical, 
# crystal, experimental, refinement or atomic coordinate data resulting 
# from the CCDC's data processing and validation procedures.
#
#######################################################################

data_ACSKAT
_symmetry_cell_setting           monoclinic
_symmetry_space_group_name_H-M   'P 21/a'
_symmetry_Int_Tables_number      14
_space_group_name_Hall           '-P 2yab'
loop_
_symmetry_equiv_pos_site_id
_symmetry_equiv_pos_as_xyz
1 x,y,z
2 1/2-x,1/2+y,-z
3 -x,-y,-z
4 1/2+x,1/2-y,z
_cell_length_a                   8.502(4)
_cell_length_b                   15.935(6)
_cell_length_c                   7.318(4)
_cell_angle_alpha                90
_cell_angle_beta                 110.40(5)
_cell_angle_gamma                90
_cell_volume                     929.257
loop_
_atom_site_label
_atom_site_type_symbol
_atom_site_fract_x
_atom_site_fract_y
_atom_site_fract_z
N1 N 0.48460 -0.05120 0.78700
C1 C 0.65720 -0.03540 0.83710
C2 C 0.68310 0.04290 0.78760
C3 C 0.52060 0.08090 0.69860
C4 C 0.47110 0.16040 0.61690
C5 C 0.30100 0.17800 0.53960
C6 C 0.18140 0.11970 0.54580
C7 C 0.22740 0.04010 0.62690
C8 C 0.39850 0.02240 0.69990
C9 C 0.84810 0.08510 0.81630
C10 C 0.41070 -0.12720 0.80410
C11 C 0.52890 -0.19830 0.89820
O1 O 0.26020 -0.13580 0.74640
H1 H 0.73710 -0.07520 0.90170
H2 H 0.55490 0.19730 0.61410
H3 H 0.27270 0.23170 0.47510
H4 H 0.06540 0.13580 0.49190
H5 H 0.13690 0.00350 0.62790
H6 H 0.93830 0.04660 0.85840
H7 H 0.85770 0.09880 0.69590
H8 H 0.87320 0.11010 0.93080
H9 H 0.59800 -0.21970 0.82700
H10 H 0.46820 -0.24140 0.92970
H11 H 0.61800 -0.18220 1.01610
N1 N 1.01540 0.44880 0.21300
C1 C 0.84280 0.46460 0.16290
C2 C 0.81690 0.54290 0.21240
C3 C 0.97940 0.58090 0.30140
C4 C 1.02890 0.66040 0.38310
C5 C 1.19900 0.67800 0.46040
C6 C 1.31860 0.61970 0.45420
C7 C 1.27260 0.54010 0.37310
C8 C 1.10150 0.52240 0.30010
C9 C 0.65190 0.58510 0.18370
C10 C 1.08930 0.37280 0.19590
C11 C 0.97110 0.30170 0.10180
O1 O 1.23980 0.36420 0.25360
H1 H 0.76290 0.42480 0.09830
H2 H 0.94510 0.69730 0.38590
H3 H 1.22730 0.73170 0.52490
H4 H 1.43460 0.63580 0.50810
H5 H 1.36310 0.50350 0.37210
H6 H 0.56170 0.54660 0.14160
H7 H 0.64230 0.59880 0.30410
H8 H 0.62680 0.61010 0.06920
H9 H 0.90200 0.28030 0.17300
H10 H 1.03180 0.25860 0.07030
H11 H 0.88200 0.31780 -0.01610
N1 N 0.51540 1.05120 0.21300
C1 C 0.34280 1.03540 0.16290
C2 C 0.31690 0.95710 0.21240
C3 C 0.47940 0.91910 0.30140
C4 C 0.52890 0.83960 0.38310
C5 C 0.69900 0.82200 0.46040
C6 C 0.81860 0.88030 0.45420
C7 C 0.77260 0.95990 0.37310
C8 C 0.60150 0.97760 0.30010
C9 C 0.15190 0.91490 0.18370
C10 C 0.58930 1.12720 0.19590
C11 C 0.47110 1.19830 0.10180
O1 O 0.73980 1.13580 0.25360
H1 H 0.26290 1.07520 0.09830
H2 H 0.44510 0.80270 0.38590
H3 H 0.72730 0.76830 0.52490
H4 H 0.93460 0.86420 0.50810
H5 H 0.86310 0.99650 0.37210
H6 H 0.06170 0.95340 0.14160
H7 H 0.14230 0.90120 0.30410
H8 H 0.12680 0.88990 0.06920
H9 H 0.40200 1.21970 0.17300
H10 H 0.53180 1.24140 0.07030
H11 H 0.38200 1.18220 -0.01610
N1 N -0.01540 0.55120 0.78700
C1 C 0.15720 0.53540 0.83710
C2 C 0.18310 0.45710 0.78760
C3 C 0.02060 0.41910 0.69860
C4 C -0.02890 0.33960 0.61690
C5 C -0.19900 0.32200 0.53960
C6 C -0.31860 0.38030 0.54580
C7 C -0.27260 0.45990 0.62690
C8 C -0.10150 0.47760 0.69990
C9 C 0.34810 0.41490 0.81630
C10 C -0.08930 0.62720 0.80410
C11 C 0.02890 0.69830 0.89820
O1 O -0.23980 0.63580 0.74640
H1 H 0.23710 0.57520 0.90170
H2 H 0.05490 0.30270 0.61410
H3 H -0.22730 0.26830 0.47510
H4 H -0.43460 0.36420 0.49190
H5 H -0.36310 0.49650 0.62790
H6 H 0.43830 0.45340 0.85840
H7 H 0.35770 0.40120 0.69590
H8 H 0.37320 0.38990 0.93080
H9 H 0.09800 0.71970 0.82700
H10 H -0.03180 0.74140 0.92970
H11 H 0.11800 0.68220 1.01610

#END
