./ACSLCA10_from_xyz.cif_generated_by_CrystalShift
_symmetry_cell_setting triclinic
_symmetry_space_group_name_H-M 'P 1'
loop_
_symmetry_equiv_pos_site_id
_symmetry_equiv_pos_as_xyz
1 x,y,z
_cell_length_a 8.155000
_cell_length_b 8.571000
_cell_length_c 13.092000
_cell_angle_alpha 90.000000
_cell_angle_beta 99.540000
_cell_angle_gamma 90.000000
_cell_volume 902.429512
loop_
_atom_site_label
_atom_site_type_symbol
_atom_site_fract_x
_atom_site_fract_y
_atom_site_fract_z
O1 O 0.211100 -0.012700 0.463900
O2 O 0.060000 0.237300 0.201100
O3 O 0.092400 -0.011600 0.159000
N4 N 0.005900 0.157500 0.405200
C5 C 0.273500 0.183900 0.350400
C6 C 0.225700 0.245300 0.251000
C7 C 0.337700 0.322600 0.200300
C8 C 0.500500 0.341700 0.248700
C9 C 0.550600 0.282000 0.346500
C10 C 0.439700 0.201900 0.396500
C11 C 0.160100 0.100600 0.410600
C12 C 0.004700 0.099500 0.157900
C13 C -0.175600 0.107100 0.112900
H14 H -0.071300 0.117200 0.448800
H15 H -0.006600 0.275100 0.364700
H16 H 0.309200 0.358700 0.129000
H17 H 0.601500 0.392600 0.208200
H18 H 0.667600 0.288800 0.376900
H19 H 0.476000 0.152500 0.461400
H20 H -0.216100 0.205500 0.097400
H21 H -0.247500 0.086100 0.175000
H22 H -0.214600 0.058400 0.046700
O23 O 0.788900 0.487300 0.036100
O24 O 0.940000 0.737300 0.298900
O25 O 0.907600 0.488400 0.341000
N26 N 0.994100 0.657500 0.094800
C27 C 0.726500 0.683900 0.149600
C28 C 0.774300 0.745300 0.249000
C29 C 0.662300 0.822600 0.299700
C30 C 0.499500 0.841700 0.251300
C31 C 0.449400 0.782000 0.153500
C32 C 0.560300 0.701900 0.103500
C33 C 0.839900 0.600600 0.089400
C34 C 0.995300 0.599500 0.342100
C35 C 1.175600 0.607100 0.387100
H36 H 1.071300 0.617200 0.051200
H37 H 1.006600 0.775100 0.135300
H38 H 0.690800 0.858700 0.371000
H39 H 0.398500 0.892600 0.291800
H40 H 0.332400 0.788800 0.123100
H41 H 0.524000 0.652500 0.038600
H42 H 1.216100 0.705500 0.402600
H43 H 1.247500 0.586100 0.325000
H44 H 1.214600 0.558400 0.453300
O45 O 0.788900 1.012700 0.536100
O46 O 0.940000 0.762700 0.798900
O47 O 0.907600 1.011600 0.841000
N48 N 0.994100 0.842500 0.594800
C49 C 0.726500 0.816100 0.649600
C50 C 0.774300 0.754700 0.749000
C51 C 0.662300 0.677400 0.799700
C52 C 0.499500 0.658300 0.751300
C53 C 0.449400 0.718000 0.653500
C54 C 0.560300 0.798100 0.603500
C55 C 0.839900 0.899400 0.589400
C56 C 0.995300 0.900500 0.842100
C57 C 1.175600 0.892900 0.887100
H58 H 1.071300 0.882800 0.551200
H59 H 1.006600 0.724900 0.635300
H60 H 0.690800 0.641300 0.871000
H61 H 0.398500 0.607400 0.791800
H62 H 0.332400 0.711200 0.623100
H63 H 0.524000 0.847500 0.538600
H64 H 1.216100 0.794500 0.902600
H65 H 1.247500 0.913900 0.825000
H66 H 1.214600 0.941600 0.953300
O67 O 0.211100 0.512700 0.963900
O68 O 0.060000 0.262700 0.701100
O69 O 0.092400 0.511600 0.659000
N70 N 0.005900 0.342500 0.905200
C71 C 0.273500 0.316100 0.850400
C72 C 0.225700 0.254700 0.751000
C73 C 0.337700 0.177400 0.700300
C74 C 0.500500 0.158300 0.748700
C75 C 0.550600 0.218000 0.846500
C76 C 0.439700 0.298100 0.896500
C77 C 0.160100 0.399400 0.910600
C78 C 0.004700 0.400500 0.657900
C79 C -0.175600 0.392900 0.612900
H80 H -0.071300 0.382800 0.948800
H81 H -0.006600 0.224900 0.864700
H82 H 0.309200 0.141300 0.629000
H83 H 0.601500 0.107400 0.708200
H84 H 0.667600 0.211200 0.876900
H85 H 0.476000 0.347500 0.961400
H86 H -0.216100 0.294500 0.597400
H87 H -0.247500 0.413900 0.675000
H88 H -0.214600 0.441600 0.546700

#END
