
#######################################################################
#
#                 Cambridge Crystallographic Data Centre
#                                CCDC 
#
#######################################################################
#
# If this CIF has been generated from an entry in the Cambridge 
# Structural Database, then it will include bibliographic, chemical, 
# crystal, experimental, refinement or atomic coordinate data resulting 
# from the CCDC's data processing and validation procedures.
#
#######################################################################

data_ACUDUX
_symmetry_cell_setting           trigonal
_symmetry_space_group_name_H-M   'P 31'
_symmetry_Int_Tables_number      144
_space_group_name_Hall           'P 31'
loop_
_symmetry_equiv_pos_site_id
_symmetry_equiv_pos_as_xyz
1 x,y,z
2 -y,x-y,1/3+z
3 -x+y,-x,2/3+z
_cell_length_a                   12.5356(15)
_cell_length_b                   12.5356(15)
_cell_length_c                   13.273(2)
_cell_angle_alpha                90
_cell_angle_beta                 90
_cell_angle_gamma                120
_cell_volume                     1806.3
loop_
_atom_site_label
_atom_site_type_symbol
_atom_site_fract_x
_atom_site_fract_y
_atom_site_fract_z
Cr1 Cr 1.0858(3) 0.3399(3) 0.8209(9)
C1 C 0.8726(17) 0.2422(16) 0.8288(15)
C2 C 0.9312(20) 0.3085(18) 0.9191(19)
C3 C 1.0166(18) 0.4329(17) 0.9139(17)
H1 H 1.0502(18) 0.4771(17) 0.9730(17)
C4 C 1.0535(17) 0.4940(17) 0.8196(18)
H2 H 1.1111(17) 0.5776(17) 0.8175(18)
C5 C 1.0055(19) 0.4314(18) 0.7325(18)
H3 H 1.0293(19) 0.4717(18) 0.6708(18)
C6 C 0.9198(19) 0.3053(20) 0.7368(16)
H4 H 0.8928(19) 0.2613(20) 0.6768(16)
O1 O 0.7829(11) 0.1229(12) 0.8356(12)
C7 C 0.7240(19) 0.0560(21) 0.7437(16)
H5 H 0.6528(19) -0.0226(21) 0.7609(16)
H6 H 0.6958(19) 0.1026(21) 0.7047(16)
O2 O 0.8027(15) 0.0371(14) 0.6881(14)
C8 C 0.8304(27) -0.0511(24) 0.7260(20)
H7 H 0.8870(27) -0.0579(24) 0.6814(20)
H8 H 0.7561(27) -0.1294(24) 0.7309(20)
H9 H 0.8670(27) -0.0261(24) 0.7915(20)
C9 C 0.8854(16) 0.2417(20) 1.0233(16)
O3 O 0.8776(12) 0.1221(12) 1.0200
H10 H 0.862(20) 0.082(16) 0.9608(76)
C10 C 0.7572(15) 0.2231(16) 1.0477(15)
C11 C 0.7076(19) 0.2861(19) 1.0081(18)
H11 H 0.7525(19) 0.3451(19) 0.9594(18)
C12 C 0.5906(16) 0.2686(19) 1.0358(18)
H12 H 0.5616(16) 0.3174(19) 1.0078(18)
C13 C 0.5240(22) 0.1827(22) 1.1012(19)
C14 C 0.5680(19) 0.1147(23) 1.1466(17)
H13 H 0.5209(19) 0.0562(23) 1.1949(17)
C15 C 0.6854(23) 0.1335(21) 1.1199(17)
H14 H 0.7152(23) 0.0867(21) 1.1501(17)
O4 O 0.4089(14) 0.1506(20) 1.1355(15)
C16 C 0.3428(24) 0.1949(26) 1.0813(25)
H15 H 0.2731(24) 0.1845(26) 1.1194(25)
H16 H 0.3150(24) 0.1495(26) 1.0195(25)
H17 H 0.3959(24) 0.2807(26) 1.0666(25)
C17 C 0.9742(17) 0.3046(16) 1.1038(16)
C18 C 0.9739(20) 0.3988(18) 1.1675(16)
H18 H 0.9117(20) 0.4181(18) 1.1596(16)
C19 C 1.0620(16) 0.4590(18) 1.2380(16)
H19 H 1.0552(16) 0.5142(18) 1.2806(16)
C20 C 1.1631(19) 0.4411(18) 1.2492(18)
C21 C 1.1671(17) 0.3538(19) 1.1910(15)
H20 H 1.2298(17) 0.3355(19) 1.1996(15)
C22 C 1.0764(15) 0.2923(15) 1.1183(16)
H21 H 1.0856(15) 0.2383(15) 1.0760(16)
O5 O 1.2560(14) 0.4985(14) 1.3166(14)
C23 C 1.2559(25) 0.5823(26) 1.3854(22)
H22 H 1.2672(25) 0.6551(26) 1.3519(22)
H23 H 1.3220(25) 0.6040(26) 1.4322(22)
H24 H 1.1789(25) 0.5443(26) 1.4210(22)
C24 C 1.0846(17) 0.1978(17) 0.8582(15)
O6 O 1.0867(16) 0.1100(14) 0.8835(14)
C25 C 1.2326(18) 0.4250(18) 0.8887(15)
O7 O 1.3246(14) 0.4740(17) 0.9331(16)
C26 C 1.1729(20) 0.3481(24) 0.7092(17)
O8 O 1.2186(16) 0.3454(15) 0.6324(15)
Cr1 Cr 0.6601(3) 0.7459(4) 0.1542(9)
C1 C 0.7578(16) 0.6304(23) 0.1621(15)
C2 C 0.6915(18) 0.6227(27) 0.2524(19)
C3 C 0.5671(17) 0.5837(25) 0.2472(17)
H1 H 0.5229(17) 0.5731(25) 0.3063(17)
C4 C 0.5060(17) 0.5595(24) 0.1529(18)
H2 H 0.4224(17) 0.5335(24) 0.1508(18)
C5 C 0.5686(18) 0.5741(26) 0.0658(18)
H3 H 0.5283(18) 0.5576(26) 0.0041(18)
C6 C 0.6947(20) 0.6145(28) 0.0701(16)
H4 H 0.7387(20) 0.6315(28) 0.0101(16)
O1 O 0.8771(12) 0.6600(16) 0.1689(12)
C7 C 0.9440(21) 0.6680(28) 0.0770(16)
H5 H 1.0226(21) 0.6754(28) 0.0942(16)
H6 H 0.8974(21) 0.5932(28) 0.0380(16)
O2 O 0.9629(14) 0.7656(21) 0.0214(14)
C8 C 1.0511(24) 0.8815(36) 0.0593(20)
H7 H 1.0579(24) 0.9449(36) 0.0147(20)
H8 H 1.1294(24) 0.8855(36) 0.0642(20)
H9 H 1.0261(24) 0.8931(36) 0.1248(20)
C9 C 0.7583(20) 0.6437(26) 0.3566(16)
O3 O 0.8779(12) 0.7555(17) 0.3533
H10 H 0.918(16) 0.780(26) 0.2941(76)
C10 C 0.7769(16) 0.5341(22) 0.3810(15)
C11 C 0.7139(19) 0.4215(27) 0.3414(18)
H11 H 0.6549(19) 0.4074(27) 0.2927(18)
C12 C 0.7314(19) 0.3220(25) 0.3691(18)
H12 H 0.6826(19) 0.2442(25) 0.3411(18)
C13 C 0.8173(22) 0.3413(31) 0.4345(19)
C14 C 0.8853(23) 0.4533(30) 0.4799(17)
H13 H 0.9438(23) 0.4647(30) 0.5282(17)
C15 C 0.8665(21) 0.5519(31) 0.4532(17)
H14 H 0.9133(21) 0.6285(31) 0.4834(17)
O4 O 0.8494(20) 0.2583(24) 0.4688(15)
C16 C 0.8051(26) 0.1479(35) 0.4146(25)
H15 H 0.8155(26) 0.0886(35) 0.4527(25)
H16 H 0.8505(26) 0.1655(35) 0.3528(25)
H17 H 0.7193(26) 0.1152(35) 0.3999(25)
C17 C 0.6954(16) 0.6696(23) 0.4371(16)
C18 C 0.6012(18) 0.5751(27) 0.5008(16)
H18 H 0.5819(18) 0.4936(27) 0.4929(16)
C19 C 0.5410(18) 0.6030(24) 0.5713(16)
H19 H 0.4858(18) 0.5410(24) 0.6139(16)
C20 C 0.5589(18) 0.7220(26) 0.5825(18)
C21 C 0.6462(19) 0.8133(25) 0.5243(15)
H20 H 0.6645(19) 0.8943(25) 0.5329(15)
C22 C 0.7077(15) 0.7841(21) 0.4516(16)
H21 H 0.7617(15) 0.8473(21) 0.4093(16)
O5 O 0.5015(14) 0.7575(20) 0.6499(14)
C23 C 0.4177(26) 0.6736(36) 0.7187(22)
H22 H 0.3449(26) 0.6121(36) 0.6852(22)
H23 H 0.3960(26) 0.7180(36) 0.7655(22)
H24 H 0.4557(26) 0.6346(36) 0.7543(22)
C24 C 0.8022(17) 0.8868(24) 0.1915(15)
O6 O 0.8900(14) 0.9767(21) 0.2168(14)
C25 C 0.5750(18) 0.8076(25) 0.2220(15)
O7 O 0.5260(17) 0.8506(22) 0.2664(16)
C26 C 0.6519(24) 0.8248(31) 0.0425(17)
O8 O 0.6546(15) 0.8732(22) -0.0343(15)
Cr1 Cr 0.2541(4) -0.0858(3) 0.4876(9)
C1 C 0.3696(23) 0.1274(17) 0.4955(15)
C2 C 0.3773(27) 0.0688(20) 0.5858(19)
C3 C 0.4163(25) -0.0166(18) 0.5806(17)
H1 H 0.4269(25) -0.0502(18) 0.6397(17)
C4 C 0.4405(24) -0.0535(17) 0.4863(18)
H2 H 0.4665(24) -0.1111(17) 0.4842(18)
C5 C 0.4259(26) -0.0055(19) 0.3992(18)
H3 H 0.4424(26) -0.0293(19) 0.3375(18)
C6 C 0.3855(28) 0.0802(19) 0.4035(16)
H4 H 0.3685(28) 0.1072(19) 0.3435(16)
O1 O 0.3400(16) 0.2171(11) 0.5023(12)
C7 C 0.3320(28) 0.2760(19) 0.4104(16)
H5 H 0.3246(28) 0.3472(19) 0.4276(16)
H6 H 0.4068(28) 0.3042(19) 0.3714(16)
O2 O 0.2344(21) 0.1973(15) 0.3548(14)
C8 C 0.1185(36) 0.1696(27) 0.3927(20)
H7 H 0.0551(36) 0.1130(27) 0.3481(20)
H8 H 0.1145(36) 0.2439(27) 0.3976(20)
H9 H 0.1069(36) 0.1330(27) 0.4582(20)
C9 C 0.3563(26) 0.1146(16) 0.6900(16)
O3 O 0.2445(17) 0.1224(12) 0.6867
H10 H 0.220(26) 0.138(20) 0.6275(76)
C10 C 0.4659(22) 0.2428(15) 0.7144(15)
C11 C 0.5785(27) 0.2924(19) 0.6748(18)
H11 H 0.5926(27) 0.2475(19) 0.6261(18)
C12 C 0.6780(25) 0.4094(16) 0.7025(18)
H12 H 0.7558(25) 0.4384(16) 0.6745(18)
C13 C 0.6587(31) 0.4760(22) 0.7679(19)
C14 C 0.5467(30) 0.4320(19) 0.8133(17)
H13 H 0.5353(30) 0.4791(19) 0.8616(17)
C15 C 0.4481(31) 0.3146(23) 0.7866(17)
H14 H 0.3715(31) 0.2848(23) 0.8168(17)
O4 O 0.7417(24) 0.5911(14) 0.8022(15)
C16 C 0.8521(35) 0.6572(24) 0.7480(25)
H15 H 0.9114(35) 0.7269(24) 0.7861(25)
H16 H 0.8345(35) 0.6850(24) 0.6862(25)
H17 H 0.8848(35) 0.6041(24) 0.7333(25)
C17 C 0.3304(23) 0.0258(17) 0.7705(16)
C18 C 0.4249(27) 0.0261(20) 0.8342(16)
H18 H 0.5064(27) 0.0883(20) 0.8263(16)
C19 C 0.3970(24) -0.0620(16) 0.9047(16)
H19 H 0.4590(24) -0.0552(16) 0.9473(16)
C20 C 0.2780(26) -0.1631(19) 0.9159(18)
C21 C 0.1867(25) -0.1671(17) 0.8577(15)
H20 H 0.1057(25) -0.2298(17) 0.8663(15)
C22 C 0.2159(21) -0.0764(15) 0.7850(16)
H21 H 0.1527(21) -0.0856(15) 0.7427(16)
O5 O 0.2425(20) -0.2560(14) 0.9833(14)
C23 C 0.3264(36) -0.2559(25) 1.0521(22)
H22 H 0.3879(36) -0.2672(25) 1.0186(22)
H23 H 0.2820(36) -0.3220(25) 1.0989(22)
H24 H 0.3654(36) -0.1789(25) 1.0877(22)
C24 C 0.1132(24) -0.0846(17) 0.5249(15)
O6 O 0.0233(21) -0.0867(16) 0.5502(14)
C25 C 0.1924(25) -0.2326(18) 0.5554(15)
O7 O 0.1494(22) -0.3246(14) 0.5998(16)
C26 C 0.1752(31) -0.1729(20) 0.3759(17)
O8 O 0.1268(22) -0.2186(16) 0.2991(15)

#END
