
#######################################################################
#
#                 Cambridge Crystallographic Data Centre
#                                CCDC 
#
#######################################################################
#
# If this CIF has been generated from an entry in the Cambridge 
# Structural Database, then it will include bibliographic, chemical, 
# crystal, experimental, refinement or atomic coordinate data resulting 
# from the CCDC's data processing and validation procedures.
#
#######################################################################

data_ACUPUL
_symmetry_cell_setting           orthorhombic
_symmetry_space_group_name_H-M   'P 21 21 21'
_symmetry_Int_Tables_number      19
_space_group_name_Hall           'P 2ac 2ab'
loop_
_symmetry_equiv_pos_site_id
_symmetry_equiv_pos_as_xyz
1 x,y,z
2 1/2-x,-y,1/2+z
3 -x,1/2+y,1/2-z
4 1/2+x,1/2-y,-z
_cell_length_a                   8.8776(2)
_cell_length_b                   9.1630(2)
_cell_length_c                   22.9904(5)
_cell_angle_alpha                90
_cell_angle_beta                 90
_cell_angle_gamma                90
_cell_volume                     1870.16
loop_
_atom_site_label
_atom_site_type_symbol
_atom_site_fract_x
_atom_site_fract_y
_atom_site_fract_z
O1 O 0.5384(2) 0.5090(2) 0.78636(9)
O2 O 0.64933(13) 0.68008(14) 0.83903(6)
O3 O 0.90191(14) 0.84728(13) 0.74127(6)
H1 H 0.9490 0.7714 0.7464
O4 O 0.95586(12) 0.59801(12) 0.78697(5)
H2 H 0.9982 0.5209 0.7792
C1 C 0.61031(19) 0.6192(2) 0.78808(9)
C2 C 0.6654(2) 0.7086(2) 0.73859(9)
H3 H 0.5813 0.7464 0.7163
H4 H 0.7283 0.6504 0.7131
C3 C 0.75555(17) 0.83280(17) 0.76487(8)
H5 H 0.7012 0.9235 0.7565
C4 C 0.74699(16) 0.80699(18) 0.83197(8)
C5 C 0.89437(17) 0.77318(18) 0.86540(7)
H6 H 0.9591 0.8596 0.8629
C6 C 0.98944(17) 0.63842(17) 0.84581(7)
C7 C 0.9435(2) 0.5181(2) 0.88814(8)
H7 H 0.8474 0.4759 0.8772
H8 H 1.0188 0.4414 0.8894
C8 C 0.9323(2) 0.5958(3) 0.94655(8)
H9 H 1.0346 0.6127 0.9612
C9 C 0.8621(2) 0.7436(3) 0.93109(8)
H10 H 0.7528 0.7332 0.9353
C10 C 0.6629(2) 0.9368(2) 0.85893(11)
H11 H 0.5656 0.9461 0.8401
H12 H 0.6448 0.9162 0.8997
C11 C 0.7462(3) 1.0823(3) 0.85402(16)
H13 H 0.6871 1.1579 0.8718
H14 H 0.7622 1.1052 0.8137
H15 H 0.8416 1.0752 0.8735
C12 C 1.1596(2) 0.6709(2) 0.85133(10)
H16 H 1.1801 0.6986 0.8913
H17 H 1.2143 0.5813 0.8438
C13 C 1.2225(2) 0.7889(3) 0.81181(14)
H18 H 1.3284 0.8001 0.8190
H19 H 1.1719 0.8794 0.8195
H20 H 1.2069 0.7616 0.7719
C14 C 0.9114(5) 0.8649(4) 0.97206(13)
H21 H 0.8879 0.8381 1.0114
H22 H 0.8593 0.9534 0.9622
H23 H 1.0180 0.8799 0.9684
C15 C 0.8437(4) 0.5152(4) 0.99305(11)
H24 H 0.7433 0.4955 0.9783
H25 H 0.8335 0.5782 1.0267
C16 C 0.9142(5) 0.3726(4) 1.01213(11)
H26 H 0.9095 0.3032 0.9803
H27 H 1.0195 0.3888 1.0214
C17 C 0.8352(7) 0.3087(5) 1.06483(15)
H28 H 0.8459 0.3762 1.0971
H29 H 0.7286 0.3002 1.0562
C18 C 0.8903(8) 0.1684(5) 1.08273(19)
H30 H 0.8356 0.1363 1.1164
H31 H 0.9954 0.1756 1.0920
H32 H 0.8765 0.0995 1.0517
O1 O 0.9616(2) 0.4910(2) 0.28636(9)
O2 O 0.85067(13) 0.31992(14) 0.33903(6)
O3 O 0.59809(14) 0.15272(13) 0.24127(6)
H1 H 0.5510 0.2286 0.2464
O4 O 0.54414(12) 0.40199(12) 0.28697(5)
H2 H 0.5018 0.4791 0.2792
C1 C 0.88969(19) 0.3808(2) 0.28808(9)
C2 C 0.8346(2) 0.2914(2) 0.23859(9)
H3 H 0.9187 0.2536 0.2163
H4 H 0.7717 0.3496 0.2131
C3 C 0.74445(17) 0.16720(17) 0.26487(8)
H5 H 0.7988 0.0765 0.2565
C4 C 0.75301(16) 0.19301(18) 0.33197(8)
C5 C 0.60563(17) 0.22682(18) 0.36540(7)
H6 H 0.5409 0.1404 0.3629
C6 C 0.51056(17) 0.36158(17) 0.34581(7)
C7 C 0.5565(2) 0.4819(2) 0.38814(8)
H7 H 0.6526 0.5241 0.3772
H8 H 0.4812 0.5586 0.3894
C8 C 0.5677(2) 0.4042(3) 0.44655(8)
H9 H 0.4654 0.3873 0.4612
C9 C 0.6379(2) 0.2564(3) 0.43109(8)
H10 H 0.7472 0.2668 0.4353
C10 C 0.8371(2) 0.0632(2) 0.35893(11)
H11 H 0.9344 0.0539 0.3401
H12 H 0.8552 0.0838 0.3997
C11 C 0.7538(3) -0.0823(3) 0.35402(16)
H13 H 0.8129 -0.1579 0.3718
H14 H 0.7378 -0.1052 0.3137
H15 H 0.6584 -0.0752 0.3735
C12 C 0.3404(2) 0.3291(2) 0.35133(10)
H16 H 0.3199 0.3014 0.3913
H17 H 0.2857 0.4187 0.3438
C13 C 0.2775(2) 0.2111(3) 0.31181(14)
H18 H 0.1716 0.1999 0.3190
H19 H 0.3281 0.1206 0.3195
H20 H 0.2931 0.2384 0.2719
C14 C 0.5886(5) 0.1351(4) 0.47206(13)
H21 H 0.6121 0.1619 0.5114
H22 H 0.6407 0.0466 0.4622
H23 H 0.4820 0.1201 0.4684
C15 C 0.6563(4) 0.4848(4) 0.49305(11)
H24 H 0.7567 0.5045 0.4783
H25 H 0.6665 0.4218 0.5267
C16 C 0.5858(5) 0.6274(4) 0.51213(11)
H26 H 0.5905 0.6968 0.4803
H27 H 0.4805 0.6112 0.5214
C17 C 0.6648(7) 0.6913(5) 0.56483(15)
H28 H 0.6541 0.6238 0.5971
H29 H 0.7714 0.6998 0.5562
C18 C 0.6097(8) 0.8316(5) 0.58273(19)
H30 H 0.6644 0.8637 0.6164
H31 H 0.5046 0.8244 0.5920
H32 H 0.6235 0.9005 0.5517
O1 O 0.4616(2) 0.0090(2) 0.71364(9)
O2 O 0.35067(13) 0.18008(14) 0.66097(6)
O3 O 0.09809(14) 0.34728(13) 0.75873(6)
H1 H 0.0510 0.2714 0.7536
O4 O 0.04414(12) 0.09801(12) 0.71303(5)
H2 H 0.0018 0.0209 0.7208
C1 C 0.38969(19) 0.1192(2) 0.71192(9)
C2 C 0.3346(2) 0.2086(2) 0.76141(9)
H3 H 0.4187 0.2464 0.7837
H4 H 0.2717 0.1504 0.7869
C3 C 0.24445(17) 0.33280(17) 0.73513(8)
H5 H 0.2988 0.4235 0.7435
C4 C 0.25301(16) 0.30699(18) 0.66803(8)
C5 C 0.10563(17) 0.27318(18) 0.63460(7)
H6 H 0.0409 0.3596 0.6371
C6 C 0.01056(17) 0.13842(17) 0.65419(7)
C7 C 0.0565(2) 0.0181(2) 0.61186(8)
H7 H 0.1526 -0.0241 0.6228
H8 H -0.0188 -0.0586 0.6106
C8 C 0.0677(2) 0.0958(3) 0.55345(8)
H9 H -0.0346 0.1127 0.5388
C9 C 0.1379(2) 0.2436(3) 0.56891(8)
H10 H 0.2472 0.2332 0.5647
C10 C 0.3371(2) 0.4368(2) 0.64107(11)
H11 H 0.4344 0.4461 0.6599
H12 H 0.3552 0.4162 0.6003
C11 C 0.2538(3) 0.5823(3) 0.64598(16)
H13 H 0.3129 0.6579 0.6282
H14 H 0.2378 0.6052 0.6863
H15 H 0.1584 0.5752 0.6265
C12 C -0.1596(2) 0.1709(2) 0.64867(10)
H16 H -0.1801 0.1986 0.6087
H17 H -0.2143 0.0813 0.6562
C13 C -0.2225(2) 0.2889(3) 0.68819(14)
H18 H -0.3284 0.3001 0.6810
H19 H -0.1719 0.3794 0.6805
H20 H -0.2069 0.2616 0.7281
C14 C 0.0886(5) 0.3649(4) 0.52794(13)
H21 H 0.1121 0.3381 0.4886
H22 H 0.1407 0.4534 0.5378
H23 H -0.0180 0.3799 0.5316
C15 C 0.1563(4) 0.0152(4) 0.50695(11)
H24 H 0.2567 -0.0045 0.5217
H25 H 0.1665 0.0782 0.4733
C16 C 0.0858(5) -0.1274(4) 0.48787(11)
H26 H 0.0905 -0.1968 0.5197
H27 H -0.0195 -0.1112 0.4786
C17 C 0.1648(7) -0.1913(5) 0.43517(15)
H28 H 0.1541 -0.1238 0.4029
H29 H 0.2714 -0.1998 0.4438
C18 C 0.1097(8) -0.3316(5) 0.41727(19)
H30 H 0.1644 -0.3637 0.3836
H31 H 0.0046 -0.3244 0.4080
H32 H 0.1235 -0.4005 0.4483
O1 O 0.0384(2) 0.9910(2) 0.21364(9)
O2 O 0.14933(13) 0.81992(14) 0.16097(6)
O3 O 0.40191(14) 0.65272(13) 0.25873(6)
H1 H 0.4490 0.7286 0.2536
O4 O 0.45586(12) 0.90199(12) 0.21303(5)
H2 H 0.4982 0.9791 0.2208
C1 C 0.11031(19) 0.8808(2) 0.21192(9)
C2 C 0.1654(2) 0.7914(2) 0.26141(9)
H3 H 0.0813 0.7536 0.2837
H4 H 0.2283 0.8496 0.2869
C3 C 0.25555(17) 0.66720(17) 0.23513(8)
H5 H 0.2012 0.5765 0.2435
C4 C 0.24699(16) 0.69301(18) 0.16803(8)
C5 C 0.39437(17) 0.72682(18) 0.13460(7)
H6 H 0.4591 0.6404 0.1371
C6 C 0.48944(17) 0.86158(17) 0.15419(7)
C7 C 0.4435(2) 0.9819(2) 0.11186(8)
H7 H 0.3474 1.0241 0.1228
H8 H 0.5188 1.0586 0.1106
C8 C 0.4323(2) 0.9042(3) 0.05345(8)
H9 H 0.5346 0.8873 0.0388
C9 C 0.3621(2) 0.7564(3) 0.06891(8)
H10 H 0.2528 0.7668 0.0647
C10 C 0.1629(2) 0.5632(2) 0.14107(11)
H11 H 0.0656 0.5539 0.1599
H12 H 0.1448 0.5838 0.1003
C11 C 0.2462(3) 0.4177(3) 0.14598(16)
H13 H 0.1871 0.3421 0.1282
H14 H 0.2622 0.3948 0.1863
H15 H 0.3416 0.4248 0.1265
C12 C 0.6596(2) 0.8291(2) 0.14867(10)
H16 H 0.6801 0.8014 0.1087
H17 H 0.7143 0.9187 0.1562
C13 C 0.7225(2) 0.7111(3) 0.18819(14)
H18 H 0.8284 0.6999 0.1810
H19 H 0.6719 0.6206 0.1805
H20 H 0.7069 0.7384 0.2281
C14 C 0.4114(5) 0.6351(4) 0.02794(13)
H21 H 0.3879 0.6619 -0.0114
H22 H 0.3593 0.5466 0.0378
H23 H 0.5180 0.6201 0.0316
C15 C 0.3437(4) 0.9848(4) 0.00695(11)
H24 H 0.2433 1.0045 0.0217
H25 H 0.3335 0.9218 -0.0267
C16 C 0.4142(5) 1.1274(4) -0.01213(11)
H26 H 0.4095 1.1968 0.0197
H27 H 0.5195 1.1112 -0.0214
C17 C 0.3352(7) 1.1913(5) -0.06483(15)
H28 H 0.3459 1.1238 -0.0971
H29 H 0.2286 1.1998 -0.0562
C18 C 0.3903(8) 1.3316(5) -0.08273(19)
H30 H 0.3356 1.3637 -0.1164
H31 H 0.4954 1.3244 -0.0920
H32 H 0.3765 1.4005 -0.0517

#END
