./ACUTAV_from_xyz.cif_generated_by_CrystalShift
_symmetry_cell_setting triclinic
_symmetry_space_group_name_H-M 'P 1'
loop_
_symmetry_equiv_pos_site_id
_symmetry_equiv_pos_as_xyz
1 x,y,z
_cell_length_a 10.582200
_cell_length_b 11.438700
_cell_length_c 12.809100
_cell_angle_alpha 90.000000
_cell_angle_beta 90.000000
_cell_angle_gamma 90.000000
_cell_volume 1550.498147
loop_
_atom_site_label
_atom_site_type_symbol
_atom_site_fract_x
_atom_site_fract_y
_atom_site_fract_z
I1 I 0.649180 0.503420 0.504950
C2 C 0.519500 0.646300 0.476700
C3 C 0.477100 0.639100 0.362900
N4 N 0.368900 0.727400 0.359600
C5 C 0.440200 0.838100 0.360400
C6 C 0.482600 0.860200 0.472400
C7 C 0.571400 0.763000 0.513400
O8 O 0.697700 0.785400 0.477700
C9 C 0.536500 0.981000 0.490900
O10 O 0.554700 1.001800 0.591200
C11 C 0.588100 1.120000 0.625200
C12 C 0.717600 1.154200 0.582700
C13 C 0.593100 1.109200 0.742400
C14 C 0.486100 1.204000 0.592200
O15 O 0.553700 1.045800 0.419500
C16 C 0.546700 0.821400 0.279700
C17 C 0.573900 0.688400 0.283800
C18 C 0.296600 0.712800 0.262600
H19 H 0.443900 0.630200 0.518800
H20 H 0.448000 0.561200 0.342900
H21 H 0.385800 0.902700 0.338800
H22 H 0.405900 0.856200 0.514500
H23 H 0.571000 0.765800 0.589900
H24 H 0.746600 1.226100 0.619100
H25 H 0.775100 1.088700 0.597000
H26 H 0.711900 1.167800 0.506400
H27 H 0.610900 1.184800 0.772000
H28 H 0.659100 1.055100 0.760200
H29 H 0.513600 1.081300 0.767100
H30 H 0.492800 1.272800 0.634600
H31 H 0.405800 1.166300 0.603400
H32 H 0.496500 1.223100 0.519700
H33 H 0.620600 0.865200 0.302800
H34 H 0.523000 0.846600 0.210100
H35 H 0.659400 0.673900 0.308500
H36 H 0.563500 0.653900 0.214900
H37 H 0.246900 0.781900 0.250500
H38 H 0.353400 0.700400 0.204800
H39 H 0.242100 0.646400 0.270500
H40 H 0.701300 0.785800 0.541000
I41 I 0.149180 0.996580 0.495050
C42 C 0.019500 0.853700 0.523300
C43 C -0.022900 0.860900 0.637100
N44 N -0.131100 0.772600 0.640400
C45 C -0.059800 0.661900 0.639600
C46 C -0.017400 0.639800 0.527600
C47 C 0.071400 0.737000 0.486600
O48 O 0.197700 0.714600 0.522300
C49 C 0.036500 0.519000 0.509100
O50 O 0.054700 0.498200 0.408800
C51 C 0.088100 0.380000 0.374800
C52 C 0.217600 0.345800 0.417300
C53 C 0.093100 0.390800 0.257600
C54 C -0.013900 0.296000 0.407800
O55 O 0.053700 0.454200 0.580500
C56 C 0.046700 0.678600 0.720300
C57 C 0.073900 0.811600 0.716200
C58 C -0.203400 0.787200 0.737400
H59 H -0.056100 0.869800 0.481200
H60 H -0.052000 0.938800 0.657100
H61 H -0.114200 0.597300 0.661200
H62 H -0.094100 0.643800 0.485500
H63 H 0.071000 0.734200 0.410100
H64 H 0.246600 0.273900 0.380900
H65 H 0.275100 0.411300 0.403000
H66 H 0.211900 0.332200 0.493600
H67 H 0.110900 0.315200 0.228000
H68 H 0.159100 0.444900 0.239800
H69 H 0.013600 0.418700 0.232900
H70 H -0.007200 0.227200 0.365400
H71 H -0.094200 0.333700 0.396600
H72 H -0.003500 0.276900 0.480300
H73 H 0.120600 0.634800 0.697200
H74 H 0.023000 0.653400 0.789900
H75 H 0.159400 0.826100 0.691500
H76 H 0.063500 0.846100 0.785100
H77 H -0.253100 0.718100 0.749500
H78 H -0.146600 0.799600 0.795200
H79 H -0.257900 0.853600 0.729500
H80 H 0.201300 0.714200 0.459000
I81 I 0.350820 0.003420 -0.004950
C82 C 0.480500 0.146300 0.023300
C83 C 0.522900 0.139100 0.137100
N84 N 0.631100 0.227400 0.140400
C85 C 0.559800 0.338100 0.139600
C86 C 0.517400 0.360200 0.027600
C87 C 0.428600 0.263000 -0.013400
O88 O 0.302300 0.285400 0.022300
C89 C 0.463500 0.481000 0.009100
O90 O 0.445300 0.501800 -0.091200
C91 C 0.411900 0.620000 -0.125200
C92 C 0.282400 0.654200 -0.082700
C93 C 0.406900 0.609200 -0.242400
C94 C 0.513900 0.704000 -0.092200
O95 O 0.446300 0.545800 0.080500
C96 C 0.453300 0.321400 0.220300
C97 C 0.426100 0.188400 0.216200
C98 C 0.703400 0.212800 0.237400
H99 H 0.556100 0.130200 -0.018800
H100 H 0.552000 0.061200 0.157100
H101 H 0.614200 0.402700 0.161200
H102 H 0.594100 0.356200 -0.014500
H103 H 0.429000 0.265800 -0.089900
H104 H 0.253400 0.726100 -0.119100
H105 H 0.224900 0.588700 -0.097000
H106 H 0.288100 0.667800 -0.006400
H107 H 0.389100 0.684800 -0.272000
H108 H 0.340900 0.555100 -0.260200
H109 H 0.486400 0.581300 -0.267100
H110 H 0.507200 0.772800 -0.134600
H111 H 0.594200 0.666300 -0.103400
H112 H 0.503500 0.723100 -0.019700
H113 H 0.379400 0.365200 0.197200
H114 H 0.477000 0.346600 0.289900
H115 H 0.340600 0.173900 0.191500
H116 H 0.436500 0.153900 0.285100
H117 H 0.753100 0.281900 0.249500
H118 H 0.646600 0.200400 0.295200
H119 H 0.757900 0.146400 0.229500
H120 H 0.298700 0.285800 -0.041000
I121 I 0.850820 0.496580 1.004950
C122 C 0.980500 0.353700 0.976700
C123 C 1.022900 0.360900 0.862900
N124 N 1.131100 0.272600 0.859600
C125 C 1.059800 0.161900 0.860400
C126 C 1.017400 0.139800 0.972400
C127 C 0.928600 0.237000 1.013400
O128 O 0.802300 0.214600 0.977700
C129 C 0.963500 0.019000 0.990900
O130 O 0.945300 -0.001800 1.091200
C131 C 0.911900 -0.120000 1.125200
C132 C 0.782400 -0.154200 1.082700
C133 C 0.906900 -0.109200 1.242400
C134 C 1.013900 -0.204000 1.092200
O135 O 0.946300 -0.045800 0.919500
C136 C 0.953300 0.178600 0.779700
C137 C 0.926100 0.311600 0.783800
C138 C 1.203400 0.287200 0.762600
H139 H 1.056100 0.369800 1.018800
H140 H 1.052000 0.438800 0.842900
H141 H 1.114200 0.097300 0.838800
H142 H 1.094100 0.143800 1.014500
H143 H 0.929000 0.234200 1.089900
H144 H 0.753400 -0.226100 1.119100
H145 H 0.724900 -0.088700 1.097000
H146 H 0.788100 -0.167800 1.006400
H147 H 0.889100 -0.184800 1.272000
H148 H 0.840900 -0.055100 1.260200
H149 H 0.986400 -0.081300 1.267100
H150 H 1.007200 -0.272800 1.134600
H151 H 1.094200 -0.166300 1.103400
H152 H 1.003500 -0.223100 1.019700
H153 H 0.879400 0.134800 0.802800
H154 H 0.977000 0.153400 0.710100
H155 H 0.840600 0.326100 0.808500
H156 H 0.936500 0.346100 0.714900
H157 H 1.253100 0.218100 0.750500
H158 H 1.146600 0.299600 0.704800
H159 H 1.257900 0.353600 0.770500
H160 H 0.798700 0.214200 1.041000

#END
