./ACUYII_from_xyz.cif_generated_by_CrystalShift
_symmetry_cell_setting triclinic
_symmetry_space_group_name_H-M 'P 1'
loop_
_symmetry_equiv_pos_site_id
_symmetry_equiv_pos_as_xyz
1 x,y,z
_cell_length_a 11.435000
_cell_length_b 6.330000
_cell_length_c 12.887000
_cell_angle_alpha 90.000000
_cell_angle_beta 105.373000
_cell_angle_gamma 90.000000
_cell_volume 899.431405
loop_
_atom_site_label
_atom_site_type_symbol
_atom_site_fract_x
_atom_site_fract_y
_atom_site_fract_z
N1 N 0.513400 0.025700 0.817900
N2 N 0.330700 0.933300 0.543000
O3 O 0.788000 0.410400 0.741200
C4 C 0.635600 0.137000 0.703500
H5 H 0.609100 0.053900 0.637200
C6 C 0.635200 -0.014400 0.802000
H7 H 0.639700 -0.161500 0.779600
C8 C 0.465300 0.215000 0.772900
C9 C 0.535500 0.296600 0.705000
C10 C 0.500200 0.479500 0.646600
H11 H 0.545800 0.531200 0.602100
C12 C 0.394500 0.588300 0.654500
C13 C 0.326600 0.508100 0.723400
H14 H 0.257600 0.579700 0.729000
C15 C 0.361800 0.324100 0.782700
H16 H 0.317200 0.274000 0.828300
C17 C 0.357500 0.780300 0.593700
C18 C 0.761400 0.229400 0.708000
C19 C 0.851600 0.089600 0.672700
C20 C 0.969000 0.165700 0.681800
H21 H 0.990300 0.299500 0.710400
C22 C 1.054000 0.045000 0.648900
H23 H 1.131900 0.097000 0.656300
C24 C 1.021900 -0.156200 0.604400
H25 H 1.078100 -0.236500 0.581000
C26 C 0.907500 -0.234500 0.595300
H27 H 0.886800 -0.368200 0.566200
C28 C 0.822000 -0.114900 0.629300
H29 H 0.745100 -0.169900 0.623400
C30 C 0.736000 0.025700 0.905300
C31 C 0.820500 -0.132800 0.947700
H32 H 0.816800 -0.261100 0.911800
C33 C 0.910500 -0.099900 1.043600
H34 H 0.966700 -0.205900 1.070600
C35 C 0.916700 0.090300 1.098900
H36 H 0.975800 0.110500 1.163300
C37 C 0.833800 0.250700 1.057300
H38 H 0.838400 0.379100 1.093300
C39 C 0.743700 0.218100 0.961400
H40 H 0.688100 0.324900 0.934400
C41 C 0.474200 -0.083700 0.903100
H42 H 0.388300 -0.066400 0.891500
H43 H 0.515600 -0.025100 0.971700
H44 H 0.493000 -0.231400 0.901900
N45 N 0.486600 0.525700 0.182100
N46 N 0.669300 1.433300 0.457000
O47 O 0.212000 0.910400 0.258800
C48 C 0.364400 0.637000 0.296500
H49 H 0.390900 0.553900 0.362800
C50 C 0.364800 0.485600 0.198000
H51 H 0.360300 0.338500 0.220400
C52 C 0.534700 0.715000 0.227100
C53 C 0.464500 0.796600 0.295000
C54 C 0.499800 0.979500 0.353400
H55 H 0.454200 1.031200 0.397900
C56 C 0.605500 1.088300 0.345500
C57 C 0.673400 1.008100 0.276600
H58 H 0.742400 1.079700 0.271000
C59 C 0.638200 0.824100 0.217300
H60 H 0.682800 0.774000 0.171700
C61 C 0.642500 1.280300 0.406300
C62 C 0.238600 0.729400 0.292000
C63 C 0.148400 0.589600 0.327300
C64 C 0.031000 0.665700 0.318200
H65 H 0.009700 0.799500 0.289600
C66 C -0.054000 0.545000 0.351100
H67 H -0.131900 0.597000 0.343700
C68 C -0.021900 0.343800 0.395600
H69 H -0.078100 0.263500 0.419000
C70 C 0.092500 0.265500 0.404700
H71 H 0.113200 0.131800 0.433800
C72 C 0.178000 0.385100 0.370700
H73 H 0.254900 0.330100 0.376600
C74 C 0.264000 0.525700 0.094700
C75 C 0.179500 0.367200 0.052300
H76 H 0.183200 0.238900 0.088200
C77 C 0.089500 0.400100 -0.043600
H78 H 0.033300 0.294100 -0.070600
C79 C 0.083300 0.590300 -0.098900
H80 H 0.024200 0.610500 -0.163300
C81 C 0.166200 0.750700 -0.057300
H82 H 0.161600 0.879100 -0.093300
C83 C 0.256300 0.718100 0.038600
H84 H 0.311900 0.824900 0.065600
C85 C 0.525800 0.416300 0.096900
H86 H 0.611700 0.433600 0.108500
H87 H 0.484400 0.474900 0.028300
H88 H 0.507000 0.268600 0.098100

#END
