
#######################################################################
#
#                 Cambridge Crystallographic Data Centre
#                                CCDC 
#
#######################################################################
#
# If this CIF has been generated from an entry in the Cambridge 
# Structural Database, then it will include bibliographic, chemical, 
# crystal, experimental, refinement or atomic coordinate data resulting 
# from the CCDC's data processing and validation procedures.
#
#######################################################################

data_ADAMDS10
_symmetry_cell_setting           monoclinic
_symmetry_space_group_name_H-M   'P 21/c'
_symmetry_Int_Tables_number      14
_space_group_name_Hall           '-P 2ybc'
loop_
_symmetry_equiv_pos_site_id
_symmetry_equiv_pos_as_xyz
1 x,y,z
2 -x,1/2+y,1/2-z
3 -x,-y,-z
4 x,1/2-y,1/2+z
_cell_length_a                   12.015(3)
_cell_length_b                   11.556(3)
_cell_length_c                   12.959(3)
_cell_angle_alpha                90
_cell_angle_beta                 90.42(2)
_cell_angle_gamma                90
_cell_volume                     1799.25
loop_
_atom_site_label
_atom_site_type_symbol
_atom_site_fract_x
_atom_site_fract_y
_atom_site_fract_z
S1 S 0.39900 0.86200 0.43700
S2 S 0.35500 0.87400 0.28500
C1 C 0.53200 0.78300 0.44400
C2 C 0.56800 0.79600 0.55900
C3 C 0.62100 0.84300 0.37900
C4 C 0.52400 0.65700 0.41700
C5 C 0.68100 0.74100 0.57600
C6 C 0.73400 0.78700 0.39400
C7 C 0.63600 0.59900 0.43300
C8 C 0.76600 0.79700 0.50700
C9 C 0.72400 0.65800 0.36800
C10 C 0.67300 0.61200 0.54900
C11 C 0.23300 0.78000 0.26700
C12 C 0.14300 0.81100 0.34500
C13 C 0.26400 0.65000 0.27900
C14 C 0.19200 0.80100 0.15700
C15 C 0.04100 0.73700 0.32500
C16 C 0.16200 0.57400 0.25900
C17 C 0.08800 0.72800 0.13800
C18 C 0.07000 0.60700 0.33500
C19 C 0.11900 0.60000 0.14800
C20 C -0.00300 0.75300 0.21300
H1 H 0.50900 0.75300 0.60700
H2 H 0.57200 0.88700 0.58000
H3 H 0.62700 0.93300 0.40100
H4 H 0.59800 0.83700 0.29900
H5 H 0.46300 0.61700 0.46600
H6 H 0.49900 0.64900 0.33700
H7 H 0.70700 0.75400 0.65600
H8 H 0.79500 0.82800 0.34600
H9 H 0.62900 0.50800 0.41200
H10 H 0.77300 0.88800 0.52700
H11 H 0.84500 0.75500 0.52000
H12 H 0.80300 0.61600 0.38100
H13 H 0.70000 0.65000 0.28800
H14 H 0.75300 0.57200 0.56100
H15 H 0.61200 0.57100 0.59800
H16 H 0.17400 0.79400 0.42200
H17 H 0.12200 0.90100 0.33800
H18 H 0.32900 0.62900 0.22500
H19 H 0.29400 0.63500 0.35700
H20 H 0.17100 0.89100 0.14800
H21 H 0.25600 0.77900 0.10300
H22 H -0.02100 0.76200 0.38000
H23 H 0.18400 0.48400 0.26700
H24 H 0.05900 0.74700 0.06100
H25 H -0.00400 0.55600 0.32000
H26 H 0.09900 0.59000 0.41300
H27 H 0.18200 0.57700 0.09400
H28 H 0.04500 0.54900 0.13500
H29 H -0.02900 0.84200 0.20400
H30 H -0.07300 0.69600 0.19900
S1 S 0.60100 0.36200 0.06300
S2 S 0.64500 0.37400 0.21500
C1 C 0.46800 0.28300 0.05600
C2 C 0.43200 0.29600 -0.05900
C3 C 0.37900 0.34300 0.12100
C4 C 0.47600 0.15700 0.08300
C5 C 0.31900 0.24100 -0.07600
C6 C 0.26600 0.28700 0.10600
C7 C 0.36400 0.09900 0.06700
C8 C 0.23400 0.29700 -0.00700
C9 C 0.27600 0.15800 0.13200
C10 C 0.32700 0.11200 -0.04900
C11 C 0.76700 0.28000 0.23300
C12 C 0.85700 0.31100 0.15500
C13 C 0.73600 0.15000 0.22100
C14 C 0.80800 0.30100 0.34300
C15 C 0.95900 0.23700 0.17500
C16 C 0.83800 0.07400 0.24100
C17 C 0.91200 0.22800 0.36200
C18 C 0.93000 0.10700 0.16500
C19 C 0.88100 0.10000 0.35200
C20 C 1.00300 0.25300 0.28700
H1 H 0.49100 0.25300 -0.10700
H2 H 0.42800 0.38700 -0.08000
H3 H 0.37300 0.43300 0.09900
H4 H 0.40200 0.33700 0.20100
H5 H 0.53700 0.11700 0.03400
H6 H 0.50100 0.14900 0.16300
H7 H 0.29300 0.25400 -0.15600
H8 H 0.20500 0.32800 0.15400
H9 H 0.37100 0.00800 0.08800
H10 H 0.22700 0.38800 -0.02700
H11 H 0.15500 0.25500 -0.02000
H12 H 0.19700 0.11600 0.11900
H13 H 0.30000 0.15000 0.21200
H14 H 0.24700 0.07200 -0.06100
H15 H 0.38800 0.07100 -0.09800
H16 H 0.82600 0.29400 0.07800
H17 H 0.87800 0.40100 0.16200
H18 H 0.67100 0.12900 0.27500
H19 H 0.70600 0.13500 0.14300
H20 H 0.82900 0.39100 0.35200
H21 H 0.74400 0.27900 0.39700
H22 H 1.02100 0.26200 0.12000
H23 H 0.81600 -0.01600 0.23300
H24 H 0.94100 0.24700 0.43900
H25 H 1.00400 0.05600 0.18000
H26 H 0.90100 0.09000 0.08700
H27 H 0.81800 0.07700 0.40600
H28 H 0.95500 0.04900 0.36500
H29 H 1.02900 0.34200 0.29600
H30 H 1.07300 0.19600 0.30100
S1 S 0.60100 0.13800 0.56300
S2 S 0.64500 0.12600 0.71500
C1 C 0.46800 0.21700 0.55600
C2 C 0.43200 0.20400 0.44100
C3 C 0.37900 0.15700 0.62100
C4 C 0.47600 0.34300 0.58300
C5 C 0.31900 0.25900 0.42400
C6 C 0.26600 0.21300 0.60600
C7 C 0.36400 0.40100 0.56700
C8 C 0.23400 0.20300 0.49300
C9 C 0.27600 0.34200 0.63200
C10 C 0.32700 0.38800 0.45100
C11 C 0.76700 0.22000 0.73300
C12 C 0.85700 0.18900 0.65500
C13 C 0.73600 0.35000 0.72100
C14 C 0.80800 0.19900 0.84300
C15 C 0.95900 0.26300 0.67500
C16 C 0.83800 0.42600 0.74100
C17 C 0.91200 0.27200 0.86200
C18 C 0.93000 0.39300 0.66500
C19 C 0.88100 0.40000 0.85200
C20 C 1.00300 0.24700 0.78700
H1 H 0.49100 0.24700 0.39300
H2 H 0.42800 0.11300 0.42000
H3 H 0.37300 0.06700 0.59900
H4 H 0.40200 0.16300 0.70100
H5 H 0.53700 0.38300 0.53400
H6 H 0.50100 0.35100 0.66300
H7 H 0.29300 0.24600 0.34400
H8 H 0.20500 0.17200 0.65400
H9 H 0.37100 0.49200 0.58800
H10 H 0.22700 0.11200 0.47300
H11 H 0.15500 0.24500 0.48000
H12 H 0.19700 0.38400 0.61900
H13 H 0.30000 0.35000 0.71200
H14 H 0.24700 0.42800 0.43900
H15 H 0.38800 0.42900 0.40200
H16 H 0.82600 0.20600 0.57800
H17 H 0.87800 0.09900 0.66200
H18 H 0.67100 0.37100 0.77500
H19 H 0.70600 0.36500 0.64300
H20 H 0.82900 0.10900 0.85200
H21 H 0.74400 0.22100 0.89700
H22 H 1.02100 0.23800 0.62000
H23 H 0.81600 0.51600 0.73300
H24 H 0.94100 0.25300 0.93900
H25 H 1.00400 0.44400 0.68000
H26 H 0.90100 0.41000 0.58700
H27 H 0.81800 0.42300 0.90600
H28 H 0.95500 0.45100 0.86500
H29 H 1.02900 0.15800 0.79600
H30 H 1.07300 0.30400 0.80100
S1 S 0.39900 0.63800 0.93700
S2 S 0.35500 0.62600 0.78500
C1 C 0.53200 0.71700 0.94400
C2 C 0.56800 0.70400 1.05900
C3 C 0.62100 0.65700 0.87900
C4 C 0.52400 0.84300 0.91700
C5 C 0.68100 0.75900 1.07600
C6 C 0.73400 0.71300 0.89400
C7 C 0.63600 0.90100 0.93300
C8 C 0.76600 0.70300 1.00700
C9 C 0.72400 0.84200 0.86800
C10 C 0.67300 0.88800 1.04900
C11 C 0.23300 0.72000 0.76700
C12 C 0.14300 0.68900 0.84500
C13 C 0.26400 0.85000 0.77900
C14 C 0.19200 0.69900 0.65700
C15 C 0.04100 0.76300 0.82500
C16 C 0.16200 0.92600 0.75900
C17 C 0.08800 0.77200 0.63800
C18 C 0.07000 0.89300 0.83500
C19 C 0.11900 0.90000 0.64800
C20 C -0.00300 0.74700 0.71300
H1 H 0.50900 0.74700 1.10700
H2 H 0.57200 0.61300 1.08000
H3 H 0.62700 0.56700 0.90100
H4 H 0.59800 0.66300 0.79900
H5 H 0.46300 0.88300 0.96600
H6 H 0.49900 0.85100 0.83700
H7 H 0.70700 0.74600 1.15600
H8 H 0.79500 0.67200 0.84600
H9 H 0.62900 0.99200 0.91200
H10 H 0.77300 0.61200 1.02700
H11 H 0.84500 0.74500 1.02000
H12 H 0.80300 0.88400 0.88100
H13 H 0.70000 0.85000 0.78800
H14 H 0.75300 0.92800 1.06100
H15 H 0.61200 0.92900 1.09800
H16 H 0.17400 0.70600 0.92200
H17 H 0.12200 0.59900 0.83800
H18 H 0.32900 0.87100 0.72500
H19 H 0.29400 0.86500 0.85700
H20 H 0.17100 0.60900 0.64800
H21 H 0.25600 0.72100 0.60300
H22 H -0.02100 0.73800 0.88000
H23 H 0.18400 1.01600 0.76700
H24 H 0.05900 0.75300 0.56100
H25 H -0.00400 0.94400 0.82000
H26 H 0.09900 0.91000 0.91300
H27 H 0.18200 0.92300 0.59400
H28 H 0.04500 0.95100 0.63500
H29 H -0.02900 0.65800 0.70400
H30 H -0.07300 0.80400 0.69900

#END
