
#######################################################################
#
#                 Cambridge Crystallographic Data Centre
#                                CCDC 
#
#######################################################################
#
# If this CIF has been generated from an entry in the Cambridge 
# Structural Database, then it will include bibliographic, chemical, 
# crystal, experimental, refinement or atomic coordinate data resulting 
# from the CCDC's data processing and validation procedures.
#
#######################################################################

data_ADEHXL10
_symmetry_cell_setting           orthorhombic
_symmetry_space_group_name_H-M   'P 21 21 21'
_symmetry_Int_Tables_number      19
_space_group_name_Hall           'P 2ac 2ab'
loop_
_symmetry_equiv_pos_site_id
_symmetry_equiv_pos_as_xyz
1 x,y,z
2 1/2+x,1/2-y,-z
3 -x,1/2+y,1/2-z
4 1/2-x,-y,1/2+z
_cell_length_a                   4.904(1)
_cell_length_b                   7.670(1)
_cell_length_c                   24.148(3)
_cell_angle_alpha                90
_cell_angle_beta                 90
_cell_angle_gamma                90
_cell_volume                     908.295
loop_
_atom_site_label
_atom_site_type_symbol
_atom_site_fract_x
_atom_site_fract_y
_atom_site_fract_z
C1 C 0.92270 0.32000 0.06060
C2 C 0.96670 0.16110 0.09360
C3 C 0.81490 0.16730 0.13900
C4 C 0.66510 0.33680 0.13890
C5 C 0.73490 0.46380 0.18520
C6 C 0.67920 0.39450 0.24220
C7 C 1.18230 -0.12440 0.09210
C8 C 1.39210 -0.23120 0.06180
O1 O 1.02650 0.36470 0.01780
O2 O 0.73500 0.41770 0.08700
O3 O 1.01890 0.50550 0.18240
O4 O 0.41040 0.32810 0.24810
O5 O 1.05210 -0.17690 0.13190
N1 N 1.14840 0.03890 0.07200
H1 H 0.81200 0.08500 0.17000
H2 H 0.47500 0.31500 0.14000
H3 H 0.65100 0.57300 0.17800
H4 H 0.70000 0.49000 0.27000
H5 H 0.79000 0.28000 0.25500
H6 H 1.32000 -0.33500 0.04400
H7 H 1.42000 -0.15600 0.02400
H8 H 1.52000 -0.23500 0.09000
H9 H 1.19000 0.06000 0.03800
H10 H 1.03000 0.62500 0.16500
H11 H 0.32500 0.39000 0.22000
C1 C 0.42270 0.18000 0.93940
C2 C 0.46670 0.33890 0.90640
C3 C 0.31490 0.33270 0.86100
C4 C 0.16510 0.16320 0.86110
C5 C 0.23490 0.03620 0.81480
C6 C 0.17920 0.10550 0.75780
C7 C 0.68230 0.62440 0.90790
C8 C 0.89210 0.73120 0.93820
O1 O 0.52650 0.13530 0.98220
O2 O 0.23500 0.08230 0.91300
O3 O 0.51890 -0.00550 0.81760
O4 O -0.08960 0.17190 0.75190
O5 O 0.55210 0.67690 0.86810
N1 N 0.64840 0.46110 0.92800
H1 H 0.31200 0.41500 0.83000
H2 H -0.02500 0.18500 0.86000
H3 H 0.15100 -0.07300 0.82200
H4 H 0.20000 0.01000 0.73000
H5 H 0.29000 0.22000 0.74500
H6 H 0.82000 0.83500 0.95600
H7 H 0.92000 0.65600 0.97600
H8 H 1.02000 0.73500 0.91000
H9 H 0.69000 0.44000 0.96200
H10 H 0.53000 -0.12500 0.83500
H11 H -0.17500 0.11000 0.78000
C1 C 0.07730 0.82000 0.43940
C2 C 0.03330 0.66110 0.40640
C3 C 0.18510 0.66730 0.36100
C4 C 0.33490 0.83680 0.36110
C5 C 0.26510 0.96380 0.31480
C6 C 0.32080 0.89450 0.25780
C7 C -0.18230 0.37560 0.40790
C8 C -0.39210 0.26880 0.43820
O1 O -0.02650 0.86470 0.48220
O2 O 0.26500 0.91770 0.41300
O3 O -0.01890 1.00550 0.31760
O4 O 0.58960 0.82810 0.25190
O5 O -0.05210 0.32310 0.36810
N1 N -0.14840 0.53890 0.42800
H1 H 0.18800 0.58500 0.33000
H2 H 0.52500 0.81500 0.36000
H3 H 0.34900 1.07300 0.32200
H4 H 0.30000 0.99000 0.23000
H5 H 0.21000 0.78000 0.24500
H6 H -0.32000 0.16500 0.45600
H7 H -0.42000 0.34400 0.47600
H8 H -0.52000 0.26500 0.41000
H9 H -0.19000 0.56000 0.46200
H10 H -0.03000 1.12500 0.33500
H11 H 0.67500 0.89000 0.28000
C1 C 0.57730 0.68000 0.56060
C2 C 0.53330 0.83890 0.59360
C3 C 0.68510 0.83270 0.63900
C4 C 0.83490 0.66320 0.63890
C5 C 0.76510 0.53620 0.68520
C6 C 0.82080 0.60550 0.74220
C7 C 0.31770 1.12440 0.59210
C8 C 0.10790 1.23120 0.56180
O1 O 0.47350 0.63530 0.51780
O2 O 0.76500 0.58230 0.58700
O3 O 0.48110 0.49450 0.68240
O4 O 1.08960 0.67190 0.74810
O5 O 0.44790 1.17690 0.63190
N1 N 0.35160 0.96110 0.57200
H1 H 0.68800 0.91500 0.67000
H2 H 1.02500 0.68500 0.64000
H3 H 0.84900 0.42700 0.67800
H4 H 0.80000 0.51000 0.77000
H5 H 0.71000 0.72000 0.75500
H6 H 0.18000 1.33500 0.54400
H7 H 0.08000 1.15600 0.52400
H8 H -0.02000 1.23500 0.59000
H9 H 0.31000 0.94000 0.53800
H10 H 0.47000 0.37500 0.66500
H11 H 1.17500 0.61000 0.72000

#END
