./ADEKAW_from_xyz.cif_generated_by_CrystalShift
_symmetry_cell_setting triclinic
_symmetry_space_group_name_H-M 'P 1'
loop_
_symmetry_equiv_pos_site_id
_symmetry_equiv_pos_as_xyz
1 x,y,z
_cell_length_a 7.629900
_cell_length_b 11.338800
_cell_length_c 14.418900
_cell_angle_alpha 90.000000
_cell_angle_beta 102.979000
_cell_angle_gamma 90.000000
_cell_volume 1215.566463
loop_
_atom_site_label
_atom_site_type_symbol
_atom_site_fract_x
_atom_site_fract_y
_atom_site_fract_z
Cl1 Cl 0.003100 1.103880 0.115270
O2 O 0.012300 0.715700 0.461770
N3 N 0.163100 0.526200 0.782080
C4 C 0.247100 1.098600 0.389800
N5 N 0.182300 0.859500 0.545820
H6 H 0.240800 0.885200 0.600100
C7 C 0.140400 1.068700 0.301300
H8 H 0.072600 0.999800 0.293800
N9 N 0.170100 0.924900 0.464150
C10 C 0.136600 1.142500 0.225200
C11 C 0.234000 1.246700 0.233900
H12 H 0.229900 1.295700 0.181700
C13 C 0.336600 1.275200 0.321800
H14 H 0.402100 1.345100 0.329000
C15 C 0.345600 1.203200 0.400000
H16 H 0.416700 1.224300 0.458800
C17 C 0.255400 1.022700 0.472600
H18 H 0.323100 1.045700 0.531700
C19 C 0.098400 0.753000 0.537600
C20 C 0.119400 0.681100 0.626600
C21 C 0.028500 0.574400 0.620400
H22 H -0.049600 0.552500 0.563800
C23 C 0.054100 0.501500 0.697900
H24 H -0.008100 0.430400 0.691700
C25 C 0.246700 0.629600 0.788200
H26 H 0.321500 0.650000 0.846300
C27 C 0.229700 0.708900 0.714000
H28 H 0.291600 0.780200 0.722600
Cl29 Cl 0.496900 0.603880 0.384730
O30 O 0.487700 0.215700 0.038230
N31 N 0.336900 0.026200 -0.282080
C32 C 0.252900 0.598600 0.110200
N33 N 0.317700 0.359500 -0.045820
H34 H 0.259200 0.385200 -0.100100
C35 C 0.359600 0.568700 0.198700
H36 H 0.427400 0.499800 0.206200
N37 N 0.329900 0.424900 0.035850
C38 C 0.363400 0.642500 0.274800
C39 C 0.266000 0.746700 0.266100
H40 H 0.270100 0.795700 0.318300
C41 C 0.163400 0.775200 0.178200
H42 H 0.097900 0.845100 0.171000
C43 C 0.154400 0.703200 0.100000
H44 H 0.083300 0.724300 0.041200
C45 C 0.244600 0.522700 0.027400
H46 H 0.176900 0.545700 -0.031700
C47 C 0.401600 0.253000 -0.037600
C48 C 0.380600 0.181100 -0.126600
C49 C 0.471500 0.074400 -0.120400
H50 H 0.549600 0.052500 -0.063800
C51 C 0.445900 0.001500 -0.197900
H52 H 0.508100 -0.069600 -0.191700
C53 C 0.253300 0.129600 -0.288200
H54 H 0.178500 0.150000 -0.346300
C55 C 0.270300 0.208900 -0.214000
H56 H 0.208400 0.280200 -0.222600
Cl57 Cl 0.996900 -0.103880 0.884730
O58 O 0.987700 0.284300 0.538230
N59 N 0.836900 0.473800 0.217920
C60 C 0.752900 -0.098600 0.610200
N61 N 0.817700 0.140500 0.454180
H62 H 0.759200 0.114800 0.399900
C63 C 0.859600 -0.068700 0.698700
H64 H 0.927400 0.000200 0.706200
N65 N 0.829900 0.075100 0.535850
C66 C 0.863400 -0.142500 0.774800
C67 C 0.766000 -0.246700 0.766100
H68 H 0.770100 -0.295700 0.818300
C69 C 0.663400 -0.275200 0.678200
H70 H 0.597900 -0.345100 0.671000
C71 C 0.654400 -0.203200 0.600000
H72 H 0.583300 -0.224300 0.541200
C73 C 0.744600 -0.022700 0.527400
H74 H 0.676900 -0.045700 0.468300
C75 C 0.901600 0.247000 0.462400
C76 C 0.880600 0.318900 0.373400
C77 C 0.971500 0.425600 0.379600
H78 H 1.049600 0.447500 0.436200
C79 C 0.945900 0.498500 0.302100
H80 H 1.008100 0.569600 0.308300
C81 C 0.753300 0.370400 0.211800
H82 H 0.678500 0.350000 0.153700
C83 C 0.770300 0.291100 0.286000
H84 H 0.708400 0.219800 0.277400
Cl85 Cl 0.503100 0.396120 0.615270
O86 O 0.512300 0.784300 0.961770
N87 N 0.663100 0.973800 1.282080
C88 C 0.747100 0.401400 0.889800
N89 N 0.682300 0.640500 1.045820
H90 H 0.740800 0.614800 1.100100
C91 C 0.640400 0.431300 0.801300
H92 H 0.572600 0.500200 0.793800
N93 N 0.670100 0.575100 0.964150
C94 C 0.636600 0.357500 0.725200
C95 C 0.734000 0.253300 0.733900
H96 H 0.729900 0.204300 0.681700
C97 C 0.836600 0.224800 0.821800
H98 H 0.902100 0.154900 0.829000
C99 C 0.845600 0.296800 0.900000
H100 H 0.916700 0.275700 0.958800
C101 C 0.755400 0.477300 0.972600
H102 H 0.823100 0.454300 1.031700
C103 C 0.598400 0.747000 1.037600
C104 C 0.619400 0.818900 1.126600
C105 C 0.528500 0.925600 1.120400
H106 H 0.450400 0.947500 1.063800
C107 C 0.554100 0.998500 1.197900
H108 H 0.491900 1.069600 1.191700
C109 C 0.746700 0.870400 1.288200
H110 H 0.821500 0.850000 1.346300
C111 C 0.729700 0.791100 1.214000
H112 H 0.791600 0.719800 1.222600

#END
