
#######################################################################
#
#                 Cambridge Crystallographic Data Centre
#                                CCDC 
#
#######################################################################
#
# If this CIF has been generated from an entry in the Cambridge 
# Structural Database, then it will include bibliographic, chemical, 
# crystal, experimental, refinement or atomic coordinate data resulting 
# from the CCDC's data processing and validation procedures.
#
#######################################################################

data_ADIKOP
_symmetry_cell_setting           triclinic
_symmetry_space_group_name_H-M   'P -1'
_symmetry_Int_Tables_number      2
_space_group_name_Hall           '-P 1'
loop_
_symmetry_equiv_pos_site_id
_symmetry_equiv_pos_as_xyz
1 x,y,z
2 -x,-y,-z
_cell_length_a                   11.063(3)
_cell_length_b                   11.841(3)
_cell_length_c                   15.632(4)
_cell_angle_alpha                106.815(13)
_cell_angle_beta                 100.455(13)
_cell_angle_gamma                97.499(12)
_cell_volume                     1890.87
loop_
_atom_site_label
_atom_site_type_symbol
_atom_site_fract_x
_atom_site_fract_y
_atom_site_fract_z
C1 C 0.7592(3) 0.3144(2) 0.27886(19)
C2 C 0.8738(2) 0.3522(2) 0.25567(19)
C3 C 0.7356(3) 0.1149(2) 0.1673(2)
C4 C 0.6919(3) 0.1949(2) 0.23539(19)
C5 C 0.8467(3) 0.1554(2) 0.14059(19)
C6 C 0.8959(3) 0.5505(2) 0.36489(19)
C7 C 0.7145(3) 0.4014(2) 0.34371(19)
H1 H 0.6392 0.3791 0.3585
C8 C 0.7800(3) 0.5160(2) 0.38416(19)
C9 C 0.9150(3) 0.2730(2) 0.1858(2)
C10 C 0.5738(3) 0.1540(2) 0.2602(2)
C11 C 0.9414(3) 0.4718(2) 0.3026(2)
H2 H 1.0179 0.4964 0.2904
C12 C 0.9600(3) 0.7553(2) 0.3543(2)
C13 C 1.0300(3) 0.3164(3) 0.1576(2)
C14 C 0.7425(3) 0.6196(2) 0.4511(2)
C15 C 0.9549(3) 0.6811(2) 0.4182(2)
C16 C 0.6320(3) 0.6598(2) 0.4035(2)
C17 C 0.8739(3) 0.8306(2) 0.3605(2)
C18 C 0.6721(3) -0.0069(3) 0.1216(2)
H3 H 0.6018 -0.0358 0.1396
C19 C 0.7108(3) -0.0814(3) 0.0533(2)
H4 H 0.6672 -0.1601 0.0247
C20 C 0.8016(3) 0.8251(2) 0.4330(2)
C21 C 0.8170(3) -0.0400(3) 0.0255(2)
H5 H 0.8425 -0.0909 -0.0225
C22 C 0.8826(3) 0.0734(3) 0.0679(2)
H6 H 0.9534 0.0986 0.0489
C23 C 1.1462(3) 0.2979(3) 0.1934(2)
H7 H 1.1541 0.2559 0.2353
C24 C 0.8652(3) 0.9040(3) 0.3053(2)
H8 H 0.8075 0.9547 0.3091
C25 C 0.5739(3) 0.1487(3) 0.3475(2)
H9 H 0.6485 0.1731 0.3921
C26 C 0.6639(3) 0.7705(3) 0.3933(2)
C27 C 0.4611(3) 0.1189(3) 0.1958(2)
H10 H 0.4584 0.1237 0.1371
C28 C 0.5729(3) 0.8221(3) 0.3538(3)
H11 H 0.5944 0.8972 0.3472
C29 C 1.0373(3) 0.7529(3) 0.2937(2)
H12 H 1.0950 0.7021 0.2896
C30 C 1.0863(3) 0.6888(3) 0.4749(2)
H13 H 1.1392 0.6601 0.4343
H14 H 1.0807 0.6401 0.5142
H15 H 1.1213 0.7708 0.5117
C31 C 0.9417(4) 0.9014(3) 0.2452(3)
H16 H 0.9355 0.9503 0.2082
C32 C 0.5085(3) 0.5983(3) 0.3727(3)
H17 H 0.4867 0.5229 0.3787
C33 C 0.3539(3) 0.0703(3) 0.3030(3)
H18 H 0.2804 0.0406 0.3169
C34 C 0.7131(4) 0.5823(3) 0.5321(2)
H19 H 0.6470 0.5125 0.5098
H20 H 0.6871 0.6470 0.5732
H21 H 0.7866 0.5640 0.5643
C35 C 0.4641(4) 0.1076(3) 0.3693(3)
H22 H 0.4649 0.1052 0.4283
C36 C 0.3518(3) 0.0766(3) 0.2179(3)
H23 H 0.2766 0.0525 0.1738
C37 C 0.8560(3) 0.7292(2) 0.47441(19)
C38 C 0.8152(3) 0.9523(3) 0.4998(2)
H24 H 0.9020 0.9841 0.5296
H25 H 0.7680 0.9491 0.5452
H26 H 0.7842 1.0031 0.4666
C39 C 1.2512(3) 0.3413(3) 0.1674(3)
H27 H 1.3293 0.3292 0.1928
C40 C 0.9132(3) 0.7834(3) 0.5783(2)
H28 H 0.9452 0.7233 0.6009
H29 H 0.8499 0.8108 0.6093
H30 H 0.9802 0.8500 0.5896
C41 C 1.0283(4) 0.8264(3) 0.2394(3)
H31 H 1.0804 0.8255 0.1988
C42 C 0.4185(4) 0.6498(4) 0.3332(3)
H32 H 0.3357 0.6090 0.3124
C43 C 1.0226(4) 0.3791(4) 0.0964(3)
H33 H 0.9455 0.3943 0.0723
C44 C 0.4505(4) 0.7613(4) 0.3243(3)
H34 H 0.3890 0.7959 0.2983
C45 C 1.2413(4) 0.4012(4) 0.1056(3)
H35 H 1.3121 0.4291 0.0878
C46 C 1.1279(4) 0.4203(5) 0.0698(4)
H36 H 1.1208 0.4612 0.0271
C1 C 0.2408(3) 0.6856(2) 0.72114(19)
C2 C 0.1262(2) 0.6478(2) 0.74433(19)
C3 C 0.2644(3) 0.8851(2) 0.8327(2)
C4 C 0.3081(3) 0.8051(2) 0.76461(19)
C5 C 0.1533(3) 0.8446(2) 0.85941(19)
C6 C 0.1041(3) 0.4495(2) 0.63511(19)
C7 C 0.2855(3) 0.5986(2) 0.65629(19)
H1 H 0.3608 0.6209 0.6415
C8 C 0.2200(3) 0.4840(2) 0.61584(19)
C9 C 0.0850(3) 0.7270(2) 0.8142(2)
C10 C 0.4262(3) 0.8460(2) 0.7398(2)
C11 C 0.0586(3) 0.5282(2) 0.6974(2)
H2 H -0.0179 0.5036 0.7096
C12 C 0.0400(3) 0.2447(2) 0.6457(2)
C13 C -0.0300(3) 0.6836(3) 0.8424(2)
C14 C 0.2575(3) 0.3804(2) 0.5489(2)
C15 C 0.0451(3) 0.3189(2) 0.5818(2)
C16 C 0.3680(3) 0.3402(2) 0.5965(2)
C17 C 0.1261(3) 0.1694(2) 0.6395(2)
C18 C 0.3279(3) 1.0069(3) 0.8784(2)
H3 H 0.3982 1.0358 0.8604
C19 C 0.2892(3) 1.0814(3) 0.9467(2)
H4 H 0.3328 1.1601 0.9753
C20 C 0.1984(3) 0.1749(2) 0.5670(2)
C21 C 0.1830(3) 1.0400(3) 0.9745(2)
H5 H 0.1575 1.0909 1.0225
C22 C 0.1174(3) 0.9266(3) 0.9321(2)
H6 H 0.0466 0.9014 0.9511
C23 C -0.1462(3) 0.7021(3) 0.8066(2)
H7 H -0.1541 0.7441 0.7647
C24 C 0.1348(3) 0.0960(3) 0.6947(2)
H8 H 0.1925 0.0453 0.6909
C25 C 0.4261(3) 0.8513(3) 0.6525(2)
H9 H 0.3515 0.8269 0.6079
C26 C 0.3361(3) 0.2295(3) 0.6067(2)
C27 C 0.5389(3) 0.8811(3) 0.8042(2)
H10 H 0.5416 0.8763 0.8629
C28 C 0.4271(3) 0.1779(3) 0.6462(3)
H11 H 0.4056 0.1028 0.6528
C29 C -0.0373(3) 0.2471(3) 0.7063(2)
H12 H -0.0950 0.2979 0.7104
C30 C -0.0863(3) 0.3112(3) 0.5251(2)
H13 H -0.1392 0.3399 0.5657
H14 H -0.0807 0.3599 0.4858
H15 H -0.1213 0.2292 0.4883
C31 C 0.0583(4) 0.0986(3) 0.7548(3)
H16 H 0.0645 0.0497 0.7918
C32 C 0.4915(3) 0.4017(3) 0.6273(3)
H17 H 0.5133 0.4771 0.6213
C33 C 0.6461(3) 0.9297(3) 0.6970(3)
H18 H 0.7196 0.9594 0.6831
C34 C 0.2869(4) 0.4177(3) 0.4679(2)
H19 H 0.3530 0.4875 0.4902
H20 H 0.3129 0.3530 0.4268
H21 H 0.2134 0.4360 0.4357
C35 C 0.5359(4) 0.8924(3) 0.6307(3)
H22 H 0.5351 0.8948 0.5717
C36 C 0.6482(3) 0.9234(3) 0.7821(3)
H23 H 0.7234 0.9475 0.8262
C37 C 0.1440(3) 0.2708(2) 0.52559(19)
C38 C 0.1848(3) 0.0477(3) 0.5002(2)
H24 H 0.0980 0.0159 0.4704
H25 H 0.2320 0.0509 0.4548
H26 H 0.2158 -0.0031 0.5334
C39 C -0.2512(3) 0.6587(3) 0.8326(3)
H27 H -0.3293 0.6708 0.8072
C40 C 0.0868(3) 0.2166(3) 0.4217(2)
H28 H 0.0548 0.2767 0.3991
H29 H 0.1501 0.1892 0.3907
H30 H 0.0198 0.1500 0.4104
C41 C -0.0283(4) 0.1736(3) 0.7606(3)
H31 H -0.0804 0.1745 0.8012
C42 C 0.5815(4) 0.3502(4) 0.6668(3)
H32 H 0.6643 0.3910 0.6876
C43 C -0.0226(4) 0.6209(4) 0.9036(3)
H33 H 0.0545 0.6057 0.9277
C44 C 0.5495(4) 0.2387(4) 0.6757(3)
H34 H 0.6110 0.2041 0.7017
C45 C -0.2413(4) 0.5988(4) 0.8944(3)
H35 H -0.3121 0.5709 0.9122
C46 C -0.1279(4) 0.5797(5) 0.9302(4)
H36 H -0.1208 0.5388 0.9729
O1 O 0.6938(3) 0.4187(4) 0.0482(3)
C47 C 0.6636(12) 0.2504(8) -0.0590(7)
H37 H 0.7527 0.2713 -0.0507
H38 H 0.6223 0.2684 -0.1117
H39 H 0.6399 0.1661 -0.0681
C48 C 0.6606(12) 0.6099(9) 0.1339(6)
H40 H 0.7452 0.6490 0.1412
H41 H 0.6301 0.6478 0.1866
H42 H 0.6088 0.6160 0.0797
C49 C 0.6274(7) 0.3186(14) 0.0212(11)
C50 C 0.6579(11) 0.5028(12) 0.1264(9)
H43 H 0.5730 0.4689 0.1260
H44 H 0.7112 0.5007 0.1822
O2 O 0.5344(5) 0.3288(7) 0.0745(5)
O1 O 0.3062(3) 0.5813(4) 0.9518(3)
C47 C 0.3364(12) 0.7496(8) 1.0590(7)
H37 H 0.2473 0.7287 1.0507
H38 H 0.3777 0.7316 1.1117
H39 H 0.3601 0.8339 1.0681
C48 C 0.3394(12) 0.3901(9) 0.8661(6)
H40 H 0.2548 0.3510 0.8588
H41 H 0.3699 0.3522 0.8134
H42 H 0.3912 0.3840 0.9203
C49 C 0.3726(7) 0.6814(14) 0.9788(11)
C50 C 0.3421(11) 0.4972(12) 0.8736(9)
H43 H 0.4270 0.5311 0.8740
H44 H 0.2888 0.4993 0.8178
O2 O 0.4656(5) 0.6712(7) 0.9255(5)

#END
