./ADIMOQ_from_xyz.cif_generated_by_CrystalShift
_symmetry_cell_setting triclinic
_symmetry_space_group_name_H-M 'P 1'
loop_
_symmetry_equiv_pos_site_id
_symmetry_equiv_pos_as_xyz
1 x,y,z
_cell_length_a 9.884000
_cell_length_b 11.711000
_cell_length_c 16.091000
_cell_angle_alpha 90.000000
_cell_angle_beta 90.000000
_cell_angle_gamma 90.000000
_cell_volume 1862.557773
loop_
_atom_site_label
_atom_site_type_symbol
_atom_site_fract_x
_atom_site_fract_y
_atom_site_fract_z
N1 N 0.314940 1.203130 0.467400
C2 C 1.134330 0.698180 0.493140
H3 H 1.225300 0.732600 0.499000
H4 H 1.146200 0.618300 0.474300
C5 C 1.055070 0.764060 0.427610
H6 H 0.963900 0.730100 0.421100
H7 H 1.102300 0.759400 0.373500
C8 C 1.063940 0.698160 0.578210
C9 C 1.169550 0.661810 0.643580
H10 H 1.123600 0.642800 0.695700
H11 H 1.233100 0.724700 0.653100
H12 H 1.219100 0.594800 0.623400
C13 C 0.948960 0.609550 0.578580
H14 H 0.984900 0.534800 0.562400
H15 H 0.878700 0.632800 0.539100
H16 H 0.910100 0.604600 0.634500
C17 C 1.042360 0.888360 0.454110
H18 H 1.130500 0.926800 0.445800
H19 H 0.975200 0.926700 0.418000
C20 C 1.005770 0.816440 0.599050
C21 C 0.999910 0.902590 0.543610
C22 C 0.953470 1.022110 0.563680
H23 H 1.018400 1.077300 0.541100
H24 H 0.947600 1.031400 0.624100
H25 H 0.864300 1.035400 0.538800
C26 C 0.953480 0.827470 0.684790
H27 H 1.012900 0.808700 0.729100
C28 C 0.827640 0.862250 0.704460
H29 H 0.770600 0.887900 0.660800
C30 C 0.773540 0.862970 0.788870
C31 C 0.863430 0.818390 0.857000
H32 H 0.813500 0.818100 0.909600
H33 H 0.943200 0.867600 0.862200
H34 H 0.892100 0.740400 0.843600
C35 C 0.645820 0.897140 0.807700
H36 H 0.620500 0.888100 0.864300
C37 C 0.541570 0.945710 0.753900
C38 C 0.566390 1.023600 0.693130
H39 H 0.655400 1.053400 0.687800
C40 C 0.398690 0.906380 0.771550
H41 H 0.386000 0.899700 0.832400
H42 H 0.385100 0.829700 0.747000
C43 C 0.462950 1.063240 0.635960
C44 C 0.292970 0.987830 0.736650
H45 H 0.293600 1.059800 0.769000
H46 H 0.202000 0.953100 0.741700
C47 C 0.322730 1.013590 0.645390
H48 H 0.315700 0.942400 0.612400
H49 H 0.255100 1.068400 0.623800
C50 C 0.493540 1.139190 0.575110
H51 H 0.582700 1.169200 0.571800
C52 C 0.394470 1.175130 0.515720
N53 N 1.185060 -0.203130 -0.032600
C54 C 0.365670 0.301820 -0.006860
H55 H 0.274700 0.267400 -0.001000
H56 H 0.353800 0.381700 -0.025700
C57 C 0.444930 0.235940 -0.072390
H58 H 0.536100 0.269900 -0.078900
H59 H 0.397700 0.240600 -0.126500
C60 C 0.436060 0.301840 0.078210
C61 C 0.330450 0.338190 0.143580
H62 H 0.376400 0.357200 0.195700
H63 H 0.266900 0.275300 0.153100
H64 H 0.280900 0.405200 0.123400
C65 C 0.551040 0.390450 0.078580
H66 H 0.515100 0.465200 0.062400
H67 H 0.621300 0.367200 0.039100
H68 H 0.589900 0.395400 0.134500
C69 C 0.457640 0.111640 -0.045890
H70 H 0.369500 0.073200 -0.054200
H71 H 0.524800 0.073300 -0.082000
C72 C 0.494230 0.183560 0.099050
C73 C 0.500090 0.097410 0.043610
C74 C 0.546530 -0.022110 0.063680
H75 H 0.481600 -0.077300 0.041100
H76 H 0.552400 -0.031400 0.124100
H77 H 0.635700 -0.035400 0.038800
C78 C 0.546520 0.172530 0.184790
H79 H 0.487100 0.191300 0.229100
C80 C 0.672360 0.137750 0.204460
H81 H 0.729400 0.112100 0.160800
C82 C 0.726460 0.137030 0.288870
C83 C 0.636570 0.181610 0.357000
H84 H 0.686500 0.181900 0.409600
H85 H 0.556800 0.132400 0.362200
H86 H 0.607900 0.259600 0.343600
C87 C 0.854180 0.102860 0.307700
H88 H 0.879500 0.111900 0.364300
C89 C 0.958430 0.054290 0.253900
C90 C 0.933610 -0.023600 0.193130
H91 H 0.844600 -0.053400 0.187800
C92 C 1.101310 0.093620 0.271550
H93 H 1.114000 0.100300 0.332400
H94 H 1.114900 0.170300 0.247000
C95 C 1.037050 -0.063240 0.135960
C96 C 1.207030 0.012170 0.236650
H97 H 1.206400 -0.059800 0.269000
H98 H 1.298000 0.046900 0.241700
C99 C 1.177270 -0.013590 0.145390
H100 H 1.184300 0.057600 0.112400
H101 H 1.244900 -0.068400 0.123800
C102 C 1.006460 -0.139190 0.075110
H103 H 0.917300 -0.169200 0.071800
C104 C 1.105530 -0.175130 0.015720
N105 N -0.185060 0.296870 0.532600
C106 C 0.634330 0.801820 0.506860
H107 H 0.725300 0.767400 0.501000
H108 H 0.646200 0.881700 0.525700
C109 C 0.555070 0.735940 0.572390
H110 H 0.463900 0.769900 0.578900
H111 H 0.602300 0.740600 0.626500
C112 C 0.563940 0.801840 0.421790
C113 C 0.669550 0.838190 0.356420
H114 H 0.623600 0.857200 0.304300
H115 H 0.733100 0.775300 0.346900
H116 H 0.719100 0.905200 0.376600
C117 C 0.448960 0.890450 0.421420
H118 H 0.484900 0.965200 0.437600
H119 H 0.378700 0.867200 0.460900
H120 H 0.410100 0.895400 0.365500
C121 C 0.542360 0.611640 0.545890
H122 H 0.630500 0.573200 0.554200
H123 H 0.475200 0.573300 0.582000
C124 C 0.505770 0.683560 0.400950
C125 C 0.499910 0.597410 0.456390
C126 C 0.453470 0.477890 0.436320
H127 H 0.518400 0.422700 0.458900
H128 H 0.447600 0.468600 0.375900
H129 H 0.364300 0.464600 0.461200
C130 C 0.453480 0.672530 0.315210
H131 H 0.512900 0.691300 0.270900
C132 C 0.327640 0.637750 0.295540
H133 H 0.270600 0.612100 0.339200
C134 C 0.273540 0.637030 0.211130
C135 C 0.363430 0.681610 0.143000
H136 H 0.313500 0.681900 0.090400
H137 H 0.443200 0.632400 0.137800
H138 H 0.392100 0.759600 0.156400
C139 C 0.145820 0.602860 0.192300
H140 H 0.120500 0.611900 0.135700
C141 C 0.041570 0.554290 0.246100
C142 C 0.066390 0.476400 0.306870
H143 H 0.155400 0.446600 0.312200
C144 C -0.101310 0.593620 0.228450
H145 H -0.114000 0.600300 0.167600
H146 H -0.114900 0.670300 0.253000
C147 C -0.037050 0.436760 0.364040
C148 C -0.207030 0.512170 0.263350
H149 H -0.206400 0.440200 0.231000
H150 H -0.298000 0.546900 0.258300
C151 C -0.177270 0.486410 0.354610
H152 H -0.184300 0.557600 0.387600
H153 H -0.244900 0.431600 0.376200
C154 C -0.006460 0.360810 0.424890
H155 H 0.082700 0.330800 0.428200
C156 C -0.105530 0.324870 0.484280
N157 N 0.685060 0.703130 1.032600
C158 C -0.134330 0.198180 1.006860
H159 H -0.225300 0.232600 1.001000
H160 H -0.146200 0.118300 1.025700
C161 C -0.055070 0.264060 1.072390
H162 H 0.036100 0.230100 1.078900
H163 H -0.102300 0.259400 1.126500
C164 C -0.063940 0.198160 0.921790
C165 C -0.169550 0.161810 0.856420
H166 H -0.123600 0.142800 0.804300
H167 H -0.233100 0.224700 0.846900
H168 H -0.219100 0.094800 0.876600
C169 C 0.051040 0.109550 0.921420
H170 H 0.015100 0.034800 0.937600
H171 H 0.121300 0.132800 0.960900
H172 H 0.089900 0.104600 0.865500
C173 C -0.042360 0.388360 1.045890
H174 H -0.130500 0.426800 1.054200
H175 H 0.024800 0.426700 1.082000
C176 C -0.005770 0.316440 0.900950
C177 C 0.000090 0.402590 0.956390
C178 C 0.046530 0.522110 0.936320
H179 H -0.018400 0.577300 0.958900
H180 H 0.052400 0.531400 0.875900
H181 H 0.135700 0.535400 0.961200
C182 C 0.046520 0.327470 0.815210
H183 H -0.012900 0.308700 0.770900
C184 C 0.172360 0.362250 0.795540
H185 H 0.229400 0.387900 0.839200
C186 C 0.226460 0.362970 0.711130
C187 C 0.136570 0.318390 0.643000
H188 H 0.186500 0.318100 0.590400
H189 H 0.056800 0.367600 0.637800
H190 H 0.107900 0.240400 0.656400
C191 C 0.354180 0.397140 0.692300
H192 H 0.379500 0.388100 0.635700
C193 C 0.458430 0.445710 0.746100
C194 C 0.433610 0.523600 0.806870
H195 H 0.344600 0.553400 0.812200
C196 C 0.601310 0.406380 0.728450
H197 H 0.614000 0.399700 0.667600
H198 H 0.614900 0.329700 0.753000
C199 C 0.537050 0.563240 0.864040
C200 C 0.707030 0.487830 0.763350
H201 H 0.706400 0.559800 0.731000
H202 H 0.798000 0.453100 0.758300
C203 C 0.677270 0.513590 0.854610
H204 H 0.684300 0.442400 0.887600
H205 H 0.744900 0.568400 0.876200
C206 C 0.506460 0.639190 0.924890
H207 H 0.417300 0.669200 0.928200
C208 C 0.605530 0.675130 0.984280

#END
