
#######################################################################
#
#                 Cambridge Crystallographic Data Centre
#                                CCDC 
#
#######################################################################
#
# If this CIF has been generated from an entry in the Cambridge 
# Structural Database, then it will include bibliographic, chemical, 
# crystal, experimental, refinement or atomic coordinate data resulting 
# from the CCDC's data processing and validation procedures.
#
#######################################################################

data_ADIPAC06
_symmetry_cell_setting           monoclinic
_symmetry_space_group_name_H-M   'P 21/c'
_symmetry_Int_Tables_number      14
_space_group_name_Hall           '-P 2ybc'
loop_
_symmetry_equiv_pos_site_id
_symmetry_equiv_pos_as_xyz
1 x,y,z
2 -x,1/2+y,1/2-z
3 -x,-y,-z
4 x,1/2-y,1/2+z
_cell_length_a                   7.1842(10)
_cell_length_b                   5.1575(7)
_cell_length_c                   9.9948(14)
_cell_angle_alpha                90
_cell_angle_beta                 110.875(3)
_cell_angle_gamma                90
_cell_volume                     346.024
loop_
_atom_site_label
_atom_site_type_symbol
_atom_site_fract_x
_atom_site_fract_y
_atom_site_fract_z
O1 O -0.29373(15) -0.0984(2) 0.13009(12)
O2 O -0.4784(2) 0.2510(2) 0.12982(12)
H1 H -0.5489(27) 0.1922(30) 0.0493(14)
C1 C -0.3296(2) 0.0904(2) 0.19163(14)
C2 C -0.2081(2) 0.1637(2) 0.34282(14)
H2 H -0.2988(2) 0.1887(2) 0.39662(14)
H3 H -0.1418(2) 0.3316(2) 0.34191(14)
C3 C -0.0505(2) -0.0344(2) 0.42131(13)
H4 H 0.0510(2) -0.0436(2) 0.37563(13)
H5 H -0.1132(2) -0.2074(2) 0.41322(13)
O1B O 0.29373(15) 0.0984(2) 0.86991(12)
O2B O 0.4784(2) -0.2510(2) 0.87018(12)
H1B H 0.5489(27) -0.1922(30) 0.9507(14)
C1B C 0.3296(2) -0.0904(2) 0.80837(14)
C2B C 0.2081(2) -0.1637(2) 0.65718(14)
H2B H 0.2988(2) -0.1887(2) 0.60338(14)
H3B H 0.1418(2) -0.3316(2) 0.65809(14)
C3B C 0.0505(2) 0.0344(2) 0.57869(13)
H4B H -0.0510(2) 0.0436(2) 0.62437(13)
H5B H 0.1132(2) 0.2074(2) 0.58678(13)
O1 O -0.29373(15) 0.9016(2) 0.13009(12)
O2 O -0.4784(2) 1.2510(2) 0.12982(12)
H1 H -0.5489(27) 1.1922(30) 0.0493(14)
C1 C -0.3296(2) 1.0904(2) 0.19163(14)
C2 C -0.2081(2) 1.1637(2) 0.34282(14)
H2 H -0.2988(2) 1.1887(2) 0.39662(14)
H3 H -0.1418(2) 1.3316(2) 0.34191(14)
C3 C -0.0505(2) 0.9656(2) 0.42131(13)
H4 H 0.0510(2) 0.9564(2) 0.37563(13)
H5 H -0.1132(2) 0.7926(2) 0.41322(13)
O1B O 0.29373(15) 1.0984(2) 0.86991(12)
O2B O 0.4784(2) 0.7490(2) 0.87018(12)
H1B H 0.5489(27) 0.8078(30) 0.9507(14)
C1B C 0.3296(2) 0.9096(2) 0.80837(14)
C2B C 0.2081(2) 0.8363(2) 0.65718(14)
H2B H 0.2988(2) 0.8113(2) 0.60338(14)
H3B H 0.1418(2) 0.6684(2) 0.65809(14)
C3B C 0.0505(2) 1.0344(2) 0.57869(13)
H4B H -0.0510(2) 1.0436(2) 0.62437(13)
H5B H 0.1132(2) 1.2074(2) 0.58678(13)
O1 O 0.70627(15) -0.0984(2) 0.13009(12)
O2 O 0.5216(2) 0.2510(2) 0.12982(12)
H1 H 0.4511(27) 0.1922(30) 0.0493(14)
C1 C 0.6704(2) 0.0904(2) 0.19163(14)
C2 C 0.7919(2) 0.1637(2) 0.34282(14)
H2 H 0.7012(2) 0.1887(2) 0.39662(14)
H3 H 0.8582(2) 0.3316(2) 0.34191(14)
C3 C 0.9495(2) -0.0344(2) 0.42131(13)
H4 H 1.0510(2) -0.0436(2) 0.37563(13)
H5 H 0.8868(2) -0.2074(2) 0.41322(13)
O1B O 1.29373(15) 0.0984(2) 0.86991(12)
O2B O 1.4784(2) -0.2510(2) 0.87018(12)
H1B H 1.5489(27) -0.1922(30) 0.9507(14)
C1B C 1.3296(2) -0.0904(2) 0.80837(14)
C2B C 1.2081(2) -0.1637(2) 0.65718(14)
H2B H 1.2988(2) -0.1887(2) 0.60338(14)
H3B H 1.1418(2) -0.3316(2) 0.65809(14)
C3B C 1.0505(2) 0.0344(2) 0.57869(13)
H4B H 0.9490(2) 0.0436(2) 0.62437(13)
H5B H 1.1132(2) 0.2074(2) 0.58678(13)
O1 O 0.70627(15) 0.9016(2) 0.13009(12)
O2 O 0.5216(2) 1.2510(2) 0.12982(12)
H1 H 0.4511(27) 1.1922(30) 0.0493(14)
C1 C 0.6704(2) 1.0904(2) 0.19163(14)
C2 C 0.7919(2) 1.1637(2) 0.34282(14)
H2 H 0.7012(2) 1.1887(2) 0.39662(14)
H3 H 0.8582(2) 1.3316(2) 0.34191(14)
C3 C 0.9495(2) 0.9656(2) 0.42131(13)
H4 H 1.0510(2) 0.9564(2) 0.37563(13)
H5 H 0.8868(2) 0.7926(2) 0.41322(13)
O1B O 1.29373(15) 1.0984(2) 0.86991(12)
O2B O 1.4784(2) 0.7490(2) 0.87018(12)
H1B H 1.5489(27) 0.8078(30) 0.9507(14)
C1B C 1.3296(2) 0.9096(2) 0.80837(14)
C2B C 1.2081(2) 0.8363(2) 0.65718(14)
H2B H 1.2988(2) 0.8113(2) 0.60338(14)
H3B H 1.1418(2) 0.6684(2) 0.65809(14)
C3B C 1.0505(2) 1.0344(2) 0.57869(13)
H4B H 0.9490(2) 1.0436(2) 0.62437(13)
H5B H 1.1132(2) 1.2074(2) 0.58678(13)
O1 O 0.29373(15) 0.4016(2) 0.36991(12)
O2 O 0.4784(2) 0.7510(2) 0.37018(12)
H1 H 0.5489(27) 0.6922(30) 0.4507(14)
C1 C 0.3296(2) 0.5904(2) 0.30837(14)
C2 C 0.2081(2) 0.6637(2) 0.15718(14)
H2 H 0.2988(2) 0.6887(2) 0.10338(14)
H3 H 0.1418(2) 0.8316(2) 0.15809(14)
C3 C 0.0505(2) 0.4656(2) 0.07869(13)
H4 H -0.0510(2) 0.4564(2) 0.12437(13)
H5 H 0.1132(2) 0.2926(2) 0.08678(13)
O1B O -0.29373(15) 0.5984(2) -0.36991(12)
O2B O -0.4784(2) 0.2490(2) -0.37018(12)
H1B H -0.5489(27) 0.3078(30) -0.4507(14)
C1B C -0.3296(2) 0.4096(2) -0.30837(14)
C2B C -0.2081(2) 0.3363(2) -0.15718(14)
H2B H -0.2988(2) 0.3113(2) -0.10338(14)
H3B H -0.1418(2) 0.1684(2) -0.15809(14)
C3B C -0.0505(2) 0.5344(2) -0.07869(13)
H4B H 0.0510(2) 0.5436(2) -0.12437(13)
H5B H -0.1132(2) 0.7074(2) -0.08678(13)
O1 O 0.29373(15) 0.4016(2) 1.36991(12)
O2 O 0.4784(2) 0.7510(2) 1.37018(12)
H1 H 0.5489(27) 0.6922(30) 1.4507(14)
C1 C 0.3296(2) 0.5904(2) 1.30837(14)
C2 C 0.2081(2) 0.6637(2) 1.15718(14)
H2 H 0.2988(2) 0.6887(2) 1.10338(14)
H3 H 0.1418(2) 0.8316(2) 1.15809(14)
C3 C 0.0505(2) 0.4656(2) 1.07869(13)
H4 H -0.0510(2) 0.4564(2) 1.12437(13)
H5 H 0.1132(2) 0.2926(2) 1.08678(13)
O1B O -0.29373(15) 0.5984(2) 0.63009(12)
O2B O -0.4784(2) 0.2490(2) 0.62982(12)
H1B H -0.5489(27) 0.3078(30) 0.5493(14)
C1B C -0.3296(2) 0.4096(2) 0.69163(14)
C2B C -0.2081(2) 0.3363(2) 0.84282(14)
H2B H -0.2988(2) 0.3113(2) 0.89662(14)
H3B H -0.1418(2) 0.1684(2) 0.84191(14)
C3B C -0.0505(2) 0.5344(2) 0.92131(13)
H4B H 0.0510(2) 0.5436(2) 0.87563(13)
H5B H -0.1132(2) 0.7074(2) 0.91322(13)
O1 O 1.29373(15) 0.4016(2) 0.36991(12)
O2 O 1.4784(2) 0.7510(2) 0.37018(12)
H1 H 1.5489(27) 0.6922(30) 0.4507(14)
C1 C 1.3296(2) 0.5904(2) 0.30837(14)
C2 C 1.2081(2) 0.6637(2) 0.15718(14)
H2 H 1.2988(2) 0.6887(2) 0.10338(14)
H3 H 1.1418(2) 0.8316(2) 0.15809(14)
C3 C 1.0505(2) 0.4656(2) 0.07869(13)
H4 H 0.9490(2) 0.4564(2) 0.12437(13)
H5 H 1.1132(2) 0.2926(2) 0.08678(13)
O1B O 0.70627(15) 0.5984(2) -0.36991(12)
O2B O 0.5216(2) 0.2490(2) -0.37018(12)
H1B H 0.4511(27) 0.3078(30) -0.4507(14)
C1B C 0.6704(2) 0.4096(2) -0.30837(14)
C2B C 0.7919(2) 0.3363(2) -0.15718(14)
H2B H 0.7012(2) 0.3113(2) -0.10338(14)
H3B H 0.8582(2) 0.1684(2) -0.15809(14)
C3B C 0.9495(2) 0.5344(2) -0.07869(13)
H4B H 1.0510(2) 0.5436(2) -0.12437(13)
H5B H 0.8868(2) 0.7074(2) -0.08678(13)
O1 O 1.29373(15) 0.4016(2) 1.36991(12)
O2 O 1.4784(2) 0.7510(2) 1.37018(12)
H1 H 1.5489(27) 0.6922(30) 1.4507(14)
C1 C 1.3296(2) 0.5904(2) 1.30837(14)
C2 C 1.2081(2) 0.6637(2) 1.15718(14)
H2 H 1.2988(2) 0.6887(2) 1.10338(14)
H3 H 1.1418(2) 0.8316(2) 1.15809(14)
C3 C 1.0505(2) 0.4656(2) 1.07869(13)
H4 H 0.9490(2) 0.4564(2) 1.12437(13)
H5 H 1.1132(2) 0.2926(2) 1.08678(13)
O1B O 0.70627(15) 0.5984(2) 0.63009(12)
O2B O 0.5216(2) 0.2490(2) 0.62982(12)
H1B H 0.4511(27) 0.3078(30) 0.5493(14)
C1B C 0.6704(2) 0.4096(2) 0.69163(14)
C2B C 0.7919(2) 0.3363(2) 0.84282(14)
H2B H 0.7012(2) 0.3113(2) 0.89662(14)
H3B H 0.8582(2) 0.1684(2) 0.84191(14)
C3B C 0.9495(2) 0.5344(2) 0.92131(13)
H4B H 1.0510(2) 0.5436(2) 0.87563(13)
H5B H 0.8868(2) 0.7074(2) 0.91322(13)

#END
