
#######################################################################
#
#                 Cambridge Crystallographic Data Centre
#                                CCDC 
#
#######################################################################
#
# If this CIF has been generated from an entry in the Cambridge 
# Structural Database, then it will include bibliographic, chemical, 
# crystal, experimental, refinement or atomic coordinate data resulting 
# from the CCDC's data processing and validation procedures.
#
#######################################################################

data_ACRLAC
_symmetry_cell_setting           orthorhombic
_symmetry_space_group_name_H-M   'I b a m'
_symmetry_Int_Tables_number      72
_space_group_name_Hall           '-I 2 2c'
loop_
_symmetry_equiv_pos_site_id
_symmetry_equiv_pos_as_xyz
1 x,y,z
2 1/2+x,1/2+y,1/2+z
3 -x,-y,z
4 1/2-x,1/2-y,1/2+z
5 1/2+x,1/2-y,-z
6 x,-y,1/2-z
7 1/2-x,1/2+y,-z
8 -x,y,1/2-z
9 -x,-y,-z
10 1/2-x,1/2-y,1/2-z
11 x,y,-z
12 1/2+x,1/2+y,1/2-z
13 1/2-x,1/2+y,z
14 -x,y,1/2+z
15 1/2+x,1/2-y,z
16 x,-y,1/2+z
_cell_length_a                   9.966
_cell_length_b                   11.744
_cell_length_c                   6.306
_cell_angle_alpha                90
_cell_angle_beta                 90
_cell_angle_gamma                90
_cell_volume                     738.059
loop_
_atom_site_label
_atom_site_type_symbol
_atom_site_fract_x
_atom_site_fract_y
_atom_site_fract_z
C1 C 0.08540 0.14870 0.00000
C2 C 0.14920 0.26150 0.00000
C3 C 0.07650 0.35380 0.00000
H1 H 0.11300 -0.00400 0.00000
H2 H 0.25600 0.25800 0.00000
H3 H 0.13000 0.44200 0.00000
H4 H -0.01400 0.34700 0.00000
O1 O 0.16550 0.06350 0.00000
O2 O -0.04020 0.13620 0.00000
C1 C 0.08540 0.14870 1.00000
C2 C 0.14920 0.26150 1.00000
C3 C 0.07650 0.35380 1.00000
H1 H 0.11300 -0.00400 1.00000
H2 H 0.25600 0.25800 1.00000
H3 H 0.13000 0.44200 1.00000
H4 H -0.01400 0.34700 1.00000
O1 O 0.16550 0.06350 1.00000
O2 O -0.04020 0.13620 1.00000
C1 C 0.58540 0.64870 0.50000
C2 C 0.64920 0.76150 0.50000
C3 C 0.57650 0.85380 0.50000
H1 H 0.61300 0.49600 0.50000
H2 H 0.75600 0.75800 0.50000
H3 H 0.63000 0.94200 0.50000
H4 H 0.48600 0.84700 0.50000
O1 O 0.66550 0.56350 0.50000
O2 O 0.45980 0.63620 0.50000
C1 C 0.91460 0.85130 0.00000
C2 C 0.85080 0.73850 0.00000
C3 C 0.92350 0.64620 0.00000
H1 H 0.88700 1.00400 0.00000
H2 H 0.74400 0.74200 0.00000
H3 H 0.87000 0.55800 0.00000
H4 H 1.01400 0.65300 0.00000
O1 O 0.83450 0.93650 0.00000
O2 O 1.04020 0.86380 0.00000
C1 C 0.91460 0.85130 1.00000
C2 C 0.85080 0.73850 1.00000
C3 C 0.92350 0.64620 1.00000
H1 H 0.88700 1.00400 1.00000
H2 H 0.74400 0.74200 1.00000
H3 H 0.87000 0.55800 1.00000
H4 H 1.01400 0.65300 1.00000
O1 O 0.83450 0.93650 1.00000
O2 O 1.04020 0.86380 1.00000
C1 C 0.41460 0.35130 0.50000
C2 C 0.35080 0.23850 0.50000
C3 C 0.42350 0.14620 0.50000
H1 H 0.38700 0.50400 0.50000
H2 H 0.24400 0.24200 0.50000
H3 H 0.37000 0.05800 0.50000
H4 H 0.51400 0.15300 0.50000
O1 O 0.33450 0.43650 0.50000
O2 O 0.54020 0.36380 0.50000
C1 C 0.58540 0.35130 0.00000
C2 C 0.64920 0.23850 0.00000
C3 C 0.57650 0.14620 0.00000
H1 H 0.61300 0.50400 0.00000
H2 H 0.75600 0.24200 0.00000
H3 H 0.63000 0.05800 0.00000
H4 H 0.48600 0.15300 0.00000
O1 O 0.66550 0.43650 0.00000
O2 O 0.45980 0.36380 0.00000
C1 C 0.58540 0.35130 1.00000
C2 C 0.64920 0.23850 1.00000
C3 C 0.57650 0.14620 1.00000
H1 H 0.61300 0.50400 1.00000
H2 H 0.75600 0.24200 1.00000
H3 H 0.63000 0.05800 1.00000
H4 H 0.48600 0.15300 1.00000
O1 O 0.66550 0.43650 1.00000
O2 O 0.45980 0.36380 1.00000
C1 C 0.08540 0.85130 0.50000
C2 C 0.14920 0.73850 0.50000
C3 C 0.07650 0.64620 0.50000
H1 H 0.11300 1.00400 0.50000
H2 H 0.25600 0.74200 0.50000
H3 H 0.13000 0.55800 0.50000
H4 H -0.01400 0.65300 0.50000
O1 O 0.16550 0.93650 0.50000
O2 O -0.04020 0.86380 0.50000
C1 C 0.41460 0.64870 0.00000
C2 C 0.35080 0.76150 0.00000
C3 C 0.42350 0.85380 0.00000
H1 H 0.38700 0.49600 0.00000
H2 H 0.24400 0.75800 0.00000
H3 H 0.37000 0.94200 0.00000
H4 H 0.51400 0.84700 0.00000
O1 O 0.33450 0.56350 0.00000
O2 O 0.54020 0.63620 0.00000
C1 C 0.41460 0.64870 1.00000
C2 C 0.35080 0.76150 1.00000
C3 C 0.42350 0.85380 1.00000
H1 H 0.38700 0.49600 1.00000
H2 H 0.24400 0.75800 1.00000
H3 H 0.37000 0.94200 1.00000
H4 H 0.51400 0.84700 1.00000
O1 O 0.33450 0.56350 1.00000
O2 O 0.54020 0.63620 1.00000
C1 C 0.91460 0.14870 0.50000
C2 C 0.85080 0.26150 0.50000
C3 C 0.92350 0.35380 0.50000
H1 H 0.88700 -0.00400 0.50000
H2 H 0.74400 0.25800 0.50000
H3 H 0.87000 0.44200 0.50000
H4 H 1.01400 0.34700 0.50000
O1 O 0.83450 0.06350 0.50000
O2 O 1.04020 0.13620 0.50000

#END
