./ACRLAC04_from_POSCAR.cif_generated_by_CrystalShift
_symmetry_cell_setting triclinic
_symmetry_space_group_name_H-M 'P 1'
loop_
_symmetry_equiv_pos_site_id
_symmetry_equiv_pos_as_xyz
1 x,y,z
_cell_length_a 5.135200
_cell_length_b 9.802000
_cell_length_c 6.850000
_cell_angle_alpha 90.000000
_cell_angle_beta 97.280000
_cell_angle_gamma 90.000000
_cell_volume 342.016834
loop_
_atom_site_label
_atom_site_type_symbol
_atom_site_fract_x
_atom_site_fract_y
_atom_site_fract_z
H1 H 0.520700 0.123600 0.466000
H2 H 1.367300 0.125300 0.919600
H3 H 1.062800 0.244400 0.724700
H4 H 0.479300 0.623600 1.034000
H5 H -0.196100 0.490900 0.626900
H6 H 1.062800 0.255600 0.224700
H7 H 1.367300 0.374700 0.419600
H8 H 1.196100 0.509100 0.373100
H9 H 0.520700 0.376400 -0.034000
H10 H -0.367300 0.625300 0.580400
H11 H -0.062800 0.744400 0.775300
H12 H 0.479300 0.876400 0.534000
H13 H -0.196100 1.009100 0.126900
H14 H -0.367300 0.874700 0.080400
H15 H -0.062800 0.755600 0.275300
H16 H 1.196100 -0.009100 0.873100
C17 C -0.040300 0.848500 0.257700
C18 C 0.804700 0.414200 0.139800
C19 C 1.216700 0.083200 0.855100
C20 C 0.195300 0.585800 0.860200
C21 C 1.040300 0.151500 0.742300
C22 C -0.040300 0.651500 0.757700
C23 C -0.216700 0.583200 0.644900
C24 C 0.195300 0.914200 0.360200
C25 C 0.804700 0.085800 0.639800
C26 C 1.216700 0.416800 0.355100
C27 C 1.040300 0.348500 0.242300
C28 C -0.216700 0.916800 0.144900
O29 O 0.658100 0.165800 0.520400
O30 O 0.341900 0.665800 0.979600
O31 O 0.248100 0.465400 0.835800
O32 O 0.658100 0.334200 0.020400
O33 O 0.341900 0.834200 0.479600
O34 O 0.248100 1.034600 0.335800
O35 O 0.751900 -0.034600 0.664200
O36 O 0.751900 0.534600 0.164200

#END
