./ACROLD_from_POSCAR.cif_generated_by_CrystalShift
_symmetry_cell_setting triclinic
_symmetry_space_group_name_H-M 'P 1'
loop_
_symmetry_equiv_pos_site_id
_symmetry_equiv_pos_as_xyz
1 x,y,z
_cell_length_a 12.896000
_cell_length_b 12.896000
_cell_length_c 13.773000
_cell_angle_alpha 90.000000
_cell_angle_beta 90.000000
_cell_angle_gamma 90.000000
_cell_volume 2290.543777
loop_
_atom_site_label
_atom_site_type_symbol
_atom_site_fract_x
_atom_site_fract_y
_atom_site_fract_z
H1 H 0.784000 0.578000 0.418000
H2 H 0.658000 0.569000 0.406000
H3 H 0.572000 0.583000 0.552000
H4 H 0.626000 0.531000 0.656000
H5 H 0.659000 0.528000 0.969000
H6 H 0.684000 0.641000 1.016000
H7 H 0.573000 0.621000 0.962000
H8 H 0.930000 -0.101000 0.818000
H9 H 0.942000 -0.069000 0.932000
H10 H 0.827000 -0.083000 0.885000
H11 H 0.996000 0.284000 0.598000
H12 H 1.094000 0.324000 0.533000
H13 H 1.080000 0.200000 0.555000
H14 H 0.936000 0.479000 0.966000
H15 H 0.859000 0.397000 1.020000
H16 H 0.985000 0.382000 1.027000
H17 H 0.803000 0.637000 0.717000
H18 H 0.866000 0.725000 0.778000
H19 H 0.799000 0.298000 0.809000
H20 H 0.792000 0.416000 0.852000
H21 H 0.908000 0.347000 0.687000
H22 H 1.213000 0.418000 0.726000
H23 H 1.126000 0.131000 0.718000
H24 H 1.164000 0.209000 0.804000
H25 H 0.950000 0.211000 0.746000
H26 H 1.047000 0.257000 0.934000
H27 H 1.252000 0.207000 0.621000
H28 H 0.578000 0.216000 -0.332000
H29 H 0.465000 0.270000 -0.354000
H30 H 0.569000 0.342000 -0.344000
H31 H 0.583000 0.428000 -0.198000
H32 H 0.531000 0.374000 -0.094000
H33 H 0.793000 1.252000 0.371000
H34 H 0.743000 1.047000 0.684000
H35 H 0.789000 0.950000 0.496000
H36 H 0.791000 1.164000 0.554000
H37 H 0.869000 1.126000 0.468000
H38 H 0.582000 1.213000 0.476000
H39 H 0.653000 0.908000 0.437000
H40 H 0.584000 0.792000 0.602000
H41 H 0.702000 0.799000 0.559000
H42 H 0.275000 0.866000 0.528000
H43 H 0.363000 0.803000 0.467000
H44 H 0.618000 0.985000 0.777000
H45 H 0.603000 0.859000 0.770000
H46 H 0.521000 0.936000 0.716000
H47 H 0.800000 1.080000 0.305000
H48 H 0.676000 1.094000 0.283000
H49 H 0.716000 0.996000 0.348000
H50 H 1.083000 0.827000 0.635000
H51 H 1.069000 0.942000 0.682000
H52 H 1.101000 0.930000 0.568000
H53 H 0.379000 0.573000 0.712000
H54 H 0.359000 0.684000 0.766000
H55 H 0.472000 0.659000 0.719000
H56 H 0.469000 0.626000 0.406000
H57 H 0.417000 0.572000 0.302000
H58 H 0.431000 0.658000 0.156000
H59 H 0.535000 0.730000 0.146000
H60 H 0.422000 0.784000 0.168000
H61 H 0.528000 0.341000 0.219000
H62 H 0.641000 0.316000 0.266000
H63 H 0.621000 0.427000 0.212000
H64 H -0.101000 0.070000 0.068000
H65 H -0.069000 0.058000 0.182000
H66 H -0.083000 0.173000 0.135000
H67 H 0.284000 0.004000 -0.152000
H68 H 0.324000 -0.094000 -0.217000
H69 H 0.200000 -0.080000 -0.195000
H70 H 0.479000 0.064000 0.216000
H71 H 0.397000 0.141000 0.270000
H72 H 0.382000 0.015000 0.277000
H73 H 0.637000 0.197000 -0.033000
H74 H 0.725000 0.134000 0.028000
H75 H 0.298000 0.201000 0.059000
H76 H 0.416000 0.208000 0.102000
H77 H 0.347000 0.092000 -0.063000
H78 H 0.418000 -0.213000 -0.024000
H79 H 0.131000 -0.126000 -0.032000
H80 H 0.209000 -0.164000 0.054000
H81 H 0.211000 0.050000 -0.004000
H82 H 0.257000 -0.047000 0.184000
H83 H 0.207000 -0.252000 -0.129000
H84 H 0.216000 0.422000 -0.082000
H85 H 0.270000 0.535000 -0.104000
H86 H 0.342000 0.431000 -0.094000
H87 H 0.428000 0.417000 0.052000
H88 H 0.374000 0.469000 0.156000
H89 H 0.341000 0.472000 0.469000
H90 H 0.316000 0.359000 0.516000
H91 H 0.427000 0.379000 0.462000
H92 H 0.070000 1.101000 0.318000
H93 H -0.252000 0.793000 0.121000
H94 H -0.047000 0.743000 0.434000
H95 H 0.050000 0.789000 0.246000
H96 H -0.164000 0.791000 0.304000
H97 H -0.126000 0.869000 0.218000
H98 H -0.213000 0.582000 0.226000
H99 H 0.092000 0.653000 0.187000
H100 H 0.208000 0.584000 0.352000
H101 H 0.201000 0.702000 0.309000
H102 H 0.134000 0.275000 0.278000
H103 H 0.197000 0.363000 0.217000
H104 H 0.015000 0.618000 0.527000
H105 H 0.141000 0.603000 0.520000
H106 H 0.064000 0.521000 0.466000
H107 H -0.080000 0.800000 0.055000
H108 H -0.094000 0.676000 0.033000
H109 H 0.004000 0.716000 0.098000
H110 H 0.173000 1.083000 0.385000
H111 H 0.058000 1.069000 0.432000
H112 H 0.730000 0.465000 0.396000
C113 C 0.370900 0.455200 0.085500
C114 C 0.288100 0.485200 0.034500
C115 C 0.199600 0.538100 0.080400
C116 C 0.350500 0.395700 0.461500
C117 C 0.305400 0.362800 0.368700
C118 C 0.101500 1.059800 0.372400
C119 C 0.101200 0.948000 0.346300
C120 C -0.071600 0.728600 0.082800
C121 C 0.734900 0.994600 0.631200
C122 C 0.805000 1.004900 0.546000
C123 C 0.801000 1.112900 0.500300
C124 C 0.716400 1.136400 0.425500
C125 C 0.606500 1.139300 0.463600
C126 C 0.531500 1.072300 0.484900
C127 C 0.512600 0.961400 0.490100
C128 C 0.594700 0.880000 0.476600
C129 C 0.637200 0.839400 0.572600
C130 C 0.265100 0.005400 0.131200
C131 C 0.195000 -0.004900 0.046000
C132 C 0.199000 -0.112900 0.000300
C133 C 0.283600 -0.136400 -0.074500
C134 C 0.393500 -0.139300 -0.036400
C135 C 0.468500 -0.072300 -0.015100
C136 C 0.487400 0.038600 -0.009900
C137 C 0.405300 0.120000 -0.023400
C138 C 0.362800 0.160600 0.072600
C139 C 0.339000 0.075900 0.145100
C140 C 0.587400 0.054000 0.014600
C141 C 0.634800 -0.047100 0.031700
C142 C 0.650200 0.150500 0.025300
C143 C 0.403800 0.074100 0.235200
C144 C 0.271400 -0.071600 -0.167200
C145 C 0.052000 0.101200 0.096300
C146 C -0.059800 0.101500 0.122400
C147 C 0.637200 0.305400 0.118700
C148 C 0.604300 0.350500 0.211500
C149 C 0.461900 0.199600 -0.169600
C150 C 0.514800 0.288100 -0.215500
C151 C 0.544800 0.370900 -0.164500
C152 C 0.537100 0.277100 -0.318200
C153 C 0.074100 0.596200 0.485200
C154 C 0.150500 0.349800 0.275300
C155 C -0.047100 0.365200 0.281700
C156 C 0.054000 0.412600 0.264600
C157 C 0.075900 0.661000 0.395100
C158 C 0.160600 0.637200 0.322600
C159 C 0.120000 0.594700 0.226600
C160 C 0.038600 0.512600 0.240100
C161 C -0.072300 0.531500 0.234900
C162 C -0.139300 0.606500 0.213600
C163 C -0.136400 0.716400 0.175500
C164 C -0.112900 0.801000 0.250300
C165 C -0.004900 0.805000 0.296000
C166 C 0.005400 0.734900 0.381200
C167 C 0.661000 0.924100 0.645100
C168 C 0.412600 0.946000 0.514600
C169 C 0.365200 1.047100 0.531700
C170 C 0.349800 0.849500 0.525300
C171 C 0.596200 0.925900 0.735200
C172 C 0.728600 1.071600 0.332800
C173 C 0.948000 0.898800 0.596300
C174 C 1.059800 0.898500 0.622400
C175 C 0.362800 0.694600 0.618700
C176 C 0.462900 0.722900 0.181800
C177 C 0.455200 0.629100 0.335500
C178 C 0.485200 0.711900 0.284500
C179 C 0.538100 0.800400 0.330400
C180 C 0.395700 0.649500 0.711500
C181 C 0.722900 0.537100 0.431800
C182 C 0.629100 0.544800 0.585500
C183 C 0.711900 0.514800 0.534500
C184 C 0.800400 0.461900 0.580400
C185 C 0.649500 0.604300 0.961500
C186 C 0.694600 0.637200 0.868700
C187 C 0.898500 -0.059800 0.872400
C188 C 0.898800 0.052000 0.846300
C189 C 1.071600 0.271400 0.582800
C190 C 0.994600 0.265100 0.881200
C191 C 1.004900 0.195000 0.796000
C192 C 1.112900 0.199000 0.750300
C193 C 1.136400 0.283600 0.675500
C194 C 1.139300 0.393500 0.713600
C195 C 1.072300 0.468500 0.734900
C196 C 0.961400 0.487400 0.740100
C197 C 0.880000 0.405300 0.726600
C198 C 0.839400 0.362800 0.822600
C199 C 0.924100 0.339000 0.895100
C200 C 0.946000 0.587400 0.764600
C201 C 1.047100 0.634800 0.781700
C202 C 0.849500 0.650200 0.775300
C203 C 0.925900 0.403800 0.985200
C204 C 0.277100 0.462900 -0.068200
O205 O 0.790400 0.449100 0.676900
O206 O 0.649100 0.675300 0.802800
O207 O 0.796200 0.617600 0.862200
O208 O 1.069100 0.721100 0.808300
O209 O 1.120500 0.563200 0.762900
O210 O 1.243700 0.268600 0.649300
O211 O 0.823400 0.105500 0.839700
O212 O 0.995900 0.086400 0.828400
O213 O 0.004100 0.913600 0.328400
O214 O 0.176600 0.894500 0.339700
O215 O -0.243700 0.731400 0.149300
O216 O -0.120500 0.436800 0.262900
O217 O -0.069100 0.278900 0.308300
O218 O 0.203800 0.382400 0.362200
O219 O 0.350900 0.324700 0.302800
O220 O 0.209600 0.550900 0.176900
O221 O 0.123300 0.563800 0.036900
O222 O 0.436200 0.123300 -0.213100
O223 O 0.449100 0.209600 -0.073100
O224 O 0.675300 0.350900 0.052800
O225 O 0.617600 0.203800 0.112200
O226 O 0.721100 -0.069100 0.058300
O227 O 0.563200 -0.120500 0.012900
O228 O 0.268600 -0.243700 -0.100700
O229 O 0.105500 0.176600 0.089700
O230 O 0.086400 0.004100 0.078400
O231 O 0.563800 0.876700 0.286900
O232 O 0.550900 0.790400 0.426900
O233 O 0.324700 0.649100 0.552800
O234 O 0.382400 0.796200 0.612200
O235 O 0.278900 1.069100 0.558300
O236 O 0.436800 1.120500 0.512900
O237 O 0.731400 1.243700 0.399300
O238 O 0.894500 0.823400 0.589700
O239 O 0.876700 0.436200 0.536900
O240 O 0.913600 0.995900 0.578400

#END
