
#######################################################################
#
#                 Cambridge Crystallographic Data Centre
#                                CCDC 
#
#######################################################################
#
# If this CIF has been generated from an entry in the Cambridge 
# Structural Database, then it will include bibliographic, chemical, 
# crystal, experimental, refinement or atomic coordinate data resulting 
# from the CCDC's data processing and validation procedures.
#
#######################################################################

data_ACROLD
_symmetry_cell_setting           tetragonal
_symmetry_space_group_name_H-M   'P 43'
_symmetry_Int_Tables_number      78
_space_group_name_Hall           'P 4cw'
loop_
_symmetry_equiv_pos_site_id
_symmetry_equiv_pos_as_xyz
1 x,y,z
2 -y,x,3/4+z
3 -x,-y,1/2+z
4 y,-x,1/4+z
_cell_length_a                   12.896(1)
_cell_length_b                   12.896(1)
_cell_length_c                   13.773(3)
_cell_angle_alpha                90
_cell_angle_beta                 90
_cell_angle_gamma                90
_cell_volume                     2290.54
loop_
_atom_site_label
_atom_site_type_symbol
_atom_site_fract_x
_atom_site_fract_y
_atom_site_fract_z
O1 O 0.91360 0.99590 0.57840
O2 O 0.89450 0.82340 0.58970
O3 O 0.73140 1.24370 0.39930
O4 O 0.43680 1.12050 0.51290
O5 O 0.27890 1.06910 0.55830
O6 O 0.38240 0.79620 0.61220
O7 O 0.32470 0.64910 0.55280
O8 O 0.55090 0.79040 0.42690
O9 O 0.56380 0.87670 0.28690
C1 C 0.73490 0.99460 0.63120
C2 C 0.80500 1.00490 0.54600
C3 C 0.80100 1.11290 0.50030
C4 C 0.71640 1.13640 0.42550
C5 C 0.60650 1.13930 0.46360
C6 C 0.53150 1.07230 0.48490
C7 C 0.51260 0.96140 0.49010
C8 C 0.59470 0.88000 0.47660
C9 C 0.63720 0.83940 0.57260
C10 C 0.66100 0.92410 0.64510
C11 C 0.41260 0.94600 0.51460
C12 C 0.36520 1.04710 0.53170
C13 C 0.34980 0.84950 0.52530
C14 C 0.59620 0.92590 0.73520
C15 C 0.72860 1.07160 0.33280
C16 C 0.94800 0.89880 0.59630
C17 C 1.05980 0.89850 0.62240
C18 C 0.36280 0.69460 0.61870
C19 C 0.39570 0.64950 0.71150
C20 C 0.53810 0.80040 0.33040
C21 C 0.48520 0.71190 0.28450
C22 C 0.45520 0.62910 0.33550
C23 C 0.46290 0.72290 0.18180
H1 H 0.79300 1.25200 0.37100
H2 H 0.74300 1.04700 0.68400
H3 H 0.78900 0.95000 0.49600
H4 H 0.79100 1.16400 0.55400
H5 H 0.86900 1.12600 0.46800
H6 H 0.58200 1.21300 0.47600
H7 H 0.65300 0.90800 0.43700
H8 H 0.58400 0.79200 0.60200
H9 H 0.70200 0.79900 0.55900
H10 H 0.27500 0.86600 0.52800
H11 H 0.36300 0.80300 0.46700
H12 H 0.61800 0.98500 0.77700
H13 H 0.60300 0.85900 0.77000
H14 H 0.52100 0.93600 0.71600
H15 H 0.80000 1.08000 0.30500
H16 H 0.67600 1.09400 0.28300
H17 H 0.71600 0.99600 0.34800
H18 H 1.08300 0.82700 0.63500
H19 H 1.06900 0.94200 0.68200
H20 H 1.10100 0.93000 0.56800
H21 H 0.37900 0.57300 0.71200
H22 H 0.35900 0.68400 0.76600
H23 H 0.47200 0.65900 0.71900
H24 H 0.46900 0.62600 0.40600
H25 H 0.41700 0.57200 0.30200
H26 H 0.43100 0.65800 0.15600
H27 H 0.53500 0.73000 0.14600
H28 H 0.42200 0.78400 0.16800
O1 O 0.00410 0.91360 0.32840
O2 O 0.17660 0.89450 0.33970
O3 O -0.24370 0.73140 0.14930
O4 O -0.12050 0.43680 0.26290
O5 O -0.06910 0.27890 0.30830
O6 O 0.20380 0.38240 0.36220
O7 O 0.35090 0.32470 0.30280
O8 O 0.20960 0.55090 0.17690
O9 O 0.12330 0.56380 0.03690
C1 C 0.00540 0.73490 0.38120
C2 C -0.00490 0.80500 0.29600
C3 C -0.11290 0.80100 0.25030
C4 C -0.13640 0.71640 0.17550
C5 C -0.13930 0.60650 0.21360
C6 C -0.07230 0.53150 0.23490
C7 C 0.03860 0.51260 0.24010
C8 C 0.12000 0.59470 0.22660
C9 C 0.16060 0.63720 0.32260
C10 C 0.07590 0.66100 0.39510
C11 C 0.05400 0.41260 0.26460
C12 C -0.04710 0.36520 0.28170
C13 C 0.15050 0.34980 0.27530
C14 C 0.07410 0.59620 0.48520
C15 C -0.07160 0.72860 0.08280
C16 C 0.10120 0.94800 0.34630
C17 C 0.10150 1.05980 0.37240
C18 C 0.30540 0.36280 0.36870
C19 C 0.35050 0.39570 0.46150
C20 C 0.19960 0.53810 0.08040
C21 C 0.28810 0.48520 0.03450
C22 C 0.37090 0.45520 0.08550
C23 C 0.27710 0.46290 -0.06820
H1 H -0.25200 0.79300 0.12100
H2 H -0.04700 0.74300 0.43400
H3 H 0.05000 0.78900 0.24600
H4 H -0.16400 0.79100 0.30400
H5 H -0.12600 0.86900 0.21800
H6 H -0.21300 0.58200 0.22600
H7 H 0.09200 0.65300 0.18700
H8 H 0.20800 0.58400 0.35200
H9 H 0.20100 0.70200 0.30900
H10 H 0.13400 0.27500 0.27800
H11 H 0.19700 0.36300 0.21700
H12 H 0.01500 0.61800 0.52700
H13 H 0.14100 0.60300 0.52000
H14 H 0.06400 0.52100 0.46600
H15 H -0.08000 0.80000 0.05500
H16 H -0.09400 0.67600 0.03300
H17 H 0.00400 0.71600 0.09800
H18 H 0.17300 1.08300 0.38500
H19 H 0.05800 1.06900 0.43200
H20 H 0.07000 1.10100 0.31800
H21 H 0.42700 0.37900 0.46200
H22 H 0.31600 0.35900 0.51600
H23 H 0.34100 0.47200 0.46900
H24 H 0.37400 0.46900 0.15600
H25 H 0.42800 0.41700 0.05200
H26 H 0.34200 0.43100 -0.09400
H27 H 0.27000 0.53500 -0.10400
H28 H 0.21600 0.42200 -0.08200
O1 O 0.08640 0.00410 0.07840
O2 O 0.10550 0.17660 0.08970
O3 O 0.26860 -0.24370 -0.10070
O4 O 0.56320 -0.12050 0.01290
O5 O 0.72110 -0.06910 0.05830
O6 O 0.61760 0.20380 0.11220
O7 O 0.67530 0.35090 0.05280
O8 O 0.44910 0.20960 -0.07310
O9 O 0.43620 0.12330 -0.21310
C1 C 0.26510 0.00540 0.13120
C2 C 0.19500 -0.00490 0.04600
C3 C 0.19900 -0.11290 0.00030
C4 C 0.28360 -0.13640 -0.07450
C5 C 0.39350 -0.13930 -0.03640
C6 C 0.46850 -0.07230 -0.01510
C7 C 0.48740 0.03860 -0.00990
C8 C 0.40530 0.12000 -0.02340
C9 C 0.36280 0.16060 0.07260
C10 C 0.33900 0.07590 0.14510
C11 C 0.58740 0.05400 0.01460
C12 C 0.63480 -0.04710 0.03170
C13 C 0.65020 0.15050 0.02530
C14 C 0.40380 0.07410 0.23520
C15 C 0.27140 -0.07160 -0.16720
C16 C 0.05200 0.10120 0.09630
C17 C -0.05980 0.10150 0.12240
C18 C 0.63720 0.30540 0.11870
C19 C 0.60430 0.35050 0.21150
C20 C 0.46190 0.19960 -0.16960
C21 C 0.51480 0.28810 -0.21550
C22 C 0.54480 0.37090 -0.16450
C23 C 0.53710 0.27710 -0.31820
H1 H 0.20700 -0.25200 -0.12900
H2 H 0.25700 -0.04700 0.18400
H3 H 0.21100 0.05000 -0.00400
H4 H 0.20900 -0.16400 0.05400
H5 H 0.13100 -0.12600 -0.03200
H6 H 0.41800 -0.21300 -0.02400
H7 H 0.34700 0.09200 -0.06300
H8 H 0.41600 0.20800 0.10200
H9 H 0.29800 0.20100 0.05900
H10 H 0.72500 0.13400 0.02800
H11 H 0.63700 0.19700 -0.03300
H12 H 0.38200 0.01500 0.27700
H13 H 0.39700 0.14100 0.27000
H14 H 0.47900 0.06400 0.21600
H15 H 0.20000 -0.08000 -0.19500
H16 H 0.32400 -0.09400 -0.21700
H17 H 0.28400 0.00400 -0.15200
H18 H -0.08300 0.17300 0.13500
H19 H -0.06900 0.05800 0.18200
H20 H -0.10100 0.07000 0.06800
H21 H 0.62100 0.42700 0.21200
H22 H 0.64100 0.31600 0.26600
H23 H 0.52800 0.34100 0.21900
H24 H 0.53100 0.37400 -0.09400
H25 H 0.58300 0.42800 -0.19800
H26 H 0.56900 0.34200 -0.34400
H27 H 0.46500 0.27000 -0.35400
H28 H 0.57800 0.21600 -0.33200
O1 O 0.99590 0.08640 0.82840
O2 O 0.82340 0.10550 0.83970
O3 O 1.24370 0.26860 0.64930
O4 O 1.12050 0.56320 0.76290
O5 O 1.06910 0.72110 0.80830
O6 O 0.79620 0.61760 0.86220
O7 O 0.64910 0.67530 0.80280
O8 O 0.79040 0.44910 0.67690
O9 O 0.87670 0.43620 0.53690
C1 C 0.99460 0.26510 0.88120
C2 C 1.00490 0.19500 0.79600
C3 C 1.11290 0.19900 0.75030
C4 C 1.13640 0.28360 0.67550
C5 C 1.13930 0.39350 0.71360
C6 C 1.07230 0.46850 0.73490
C7 C 0.96140 0.48740 0.74010
C8 C 0.88000 0.40530 0.72660
C9 C 0.83940 0.36280 0.82260
C10 C 0.92410 0.33900 0.89510
C11 C 0.94600 0.58740 0.76460
C12 C 1.04710 0.63480 0.78170
C13 C 0.84950 0.65020 0.77530
C14 C 0.92590 0.40380 0.98520
C15 C 1.07160 0.27140 0.58280
C16 C 0.89880 0.05200 0.84630
C17 C 0.89850 -0.05980 0.87240
C18 C 0.69460 0.63720 0.86870
C19 C 0.64950 0.60430 0.96150
C20 C 0.80040 0.46190 0.58040
C21 C 0.71190 0.51480 0.53450
C22 C 0.62910 0.54480 0.58550
C23 C 0.72290 0.53710 0.43180
H1 H 1.25200 0.20700 0.62100
H2 H 1.04700 0.25700 0.93400
H3 H 0.95000 0.21100 0.74600
H4 H 1.16400 0.20900 0.80400
H5 H 1.12600 0.13100 0.71800
H6 H 1.21300 0.41800 0.72600
H7 H 0.90800 0.34700 0.68700
H8 H 0.79200 0.41600 0.85200
H9 H 0.79900 0.29800 0.80900
H10 H 0.86600 0.72500 0.77800
H11 H 0.80300 0.63700 0.71700
H12 H 0.98500 0.38200 1.02700
H13 H 0.85900 0.39700 1.02000
H14 H 0.93600 0.47900 0.96600
H15 H 1.08000 0.20000 0.55500
H16 H 1.09400 0.32400 0.53300
H17 H 0.99600 0.28400 0.59800
H18 H 0.82700 -0.08300 0.88500
H19 H 0.94200 -0.06900 0.93200
H20 H 0.93000 -0.10100 0.81800
H21 H 0.57300 0.62100 0.96200
H22 H 0.68400 0.64100 1.01600
H23 H 0.65900 0.52800 0.96900
H24 H 0.62600 0.53100 0.65600
H25 H 0.57200 0.58300 0.55200
H26 H 0.65800 0.56900 0.40600
H27 H 0.73000 0.46500 0.39600
H28 H 0.78400 0.57800 0.41800

#END
