./ACRTMA_from_POSCAR.cif_generated_by_CrystalShift
_symmetry_cell_setting triclinic
_symmetry_space_group_name_H-M 'P 1'
loop_
_symmetry_equiv_pos_site_id
_symmetry_equiv_pos_as_xyz
1 x,y,z
_cell_length_a 7.334000
_cell_length_b 18.620000
_cell_length_c 8.426000
_cell_angle_alpha 90.000000
_cell_angle_beta 125.770000
_cell_angle_gamma 90.000000
_cell_volume 933.600290
loop_
_atom_site_label
_atom_site_type_symbol
_atom_site_fract_x
_atom_site_fract_y
_atom_site_fract_z
H1 H 0.024000 0.843000 0.247000
H2 H 1.234000 0.260000 0.504000
H3 H 1.445000 0.298000 0.857000
H4 H 1.388000 0.418000 0.943000
H5 H 1.024000 0.657000 0.747000
H6 H 0.766000 0.740000 0.496000
H7 H 0.555000 0.702000 0.143000
H8 H 0.612000 0.582000 0.057000
H9 H 0.723000 -0.033000 0.358000
H10 H -0.024000 0.343000 0.253000
H11 H 0.234000 0.260000 0.504000
H12 H 0.445000 0.298000 0.857000
H13 H 0.388000 0.418000 0.943000
H14 H 0.024000 0.657000 0.747000
H15 H -0.234000 0.740000 0.496000
H16 H -0.445000 0.702000 0.143000
H17 H -0.388000 0.582000 0.057000
H18 H 0.277000 0.033000 -0.358000
H19 H 1.024000 0.843000 1.247000
H20 H 0.766000 0.760000 0.996000
H21 H 0.555000 0.798000 0.643000
H22 H 0.612000 0.918000 0.557000
H23 H 0.976000 1.157000 0.753000
H24 H 1.234000 1.240000 1.004000
H25 H 1.445000 1.202000 1.357000
H26 H 1.388000 1.082000 1.443000
H27 H 0.723000 -0.033000 1.358000
H28 H 1.024000 0.843000 0.247000
H29 H 0.766000 0.760000 -0.004000
H30 H 0.555000 0.798000 -0.357000
H31 H 0.612000 0.918000 -0.443000
H32 H 0.976000 1.157000 -0.247000
H33 H 1.234000 1.240000 0.004000
H34 H 1.445000 1.202000 0.357000
H35 H 1.388000 1.082000 0.443000
H36 H 0.277000 0.033000 0.642000
H37 H 1.024000 -0.157000 1.247000
H38 H 0.766000 -0.240000 0.996000
H39 H 0.555000 -0.202000 0.643000
H40 H 0.612000 -0.082000 0.557000
H41 H 0.976000 0.157000 0.753000
H42 H 1.234000 0.240000 1.004000
H43 H 1.445000 0.202000 1.357000
H44 H 1.388000 0.082000 1.443000
H45 H 0.723000 0.967000 0.358000
H46 H 1.024000 -0.157000 0.247000
H47 H 0.766000 -0.240000 -0.004000
H48 H 0.555000 -0.202000 -0.357000
H49 H 0.612000 -0.082000 -0.443000
H50 H 0.976000 0.157000 -0.247000
H51 H 1.234000 0.240000 0.004000
H52 H 1.445000 0.202000 0.357000
H53 H 1.388000 0.082000 0.443000
H54 H 0.277000 1.033000 -0.358000
H55 H 0.024000 0.843000 1.247000
H56 H -0.234000 0.760000 0.996000
H57 H -0.445000 0.798000 0.643000
H58 H -0.388000 0.918000 0.557000
H59 H -0.024000 1.157000 0.753000
H60 H 0.234000 1.240000 1.004000
H61 H 0.445000 1.202000 1.357000
H62 H 0.388000 1.082000 1.443000
H63 H 0.723000 0.967000 1.358000
H64 H 0.976000 0.343000 0.253000
H65 H -0.234000 0.760000 -0.004000
H66 H -0.445000 0.798000 -0.357000
H67 H -0.388000 0.918000 -0.443000
H68 H -0.024000 1.157000 -0.247000
H69 H 0.234000 1.240000 0.004000
H70 H 0.445000 1.202000 0.357000
H71 H 0.388000 1.082000 0.443000
H72 H 0.277000 1.033000 0.642000
H73 H 0.024000 -0.157000 1.247000
H74 H -0.234000 -0.240000 0.996000
H75 H -0.445000 -0.202000 0.643000
H76 H -0.388000 -0.082000 0.557000
H77 H -0.024000 0.157000 0.753000
H78 H 0.234000 0.240000 1.004000
H79 H 0.445000 0.202000 1.357000
H80 H 0.388000 0.082000 1.443000
H81 H 0.277000 0.467000 0.142000
H82 H 0.024000 -0.157000 0.247000
H83 H -0.234000 -0.240000 -0.004000
H84 H -0.445000 -0.202000 -0.357000
H85 H -0.388000 -0.082000 -0.443000
H86 H -0.024000 0.157000 -0.247000
H87 H 0.234000 0.240000 0.004000
H88 H 0.445000 0.202000 0.357000
H89 H 0.388000 0.082000 0.443000
H90 H 0.723000 0.533000 0.858000
C91 C 0.130100 -0.018100 0.203200
C92 C 0.148800 0.047100 0.143600
C93 C 0.301200 0.098200 0.289500
C94 C 0.321200 0.164500 0.232500
C95 C 0.190800 0.184700 0.030600
C96 C 0.045700 0.136900 -0.111200
C97 C -0.020300 -0.067000 0.056800
C98 C 0.630200 -0.015900 0.204900
C99 C 0.642500 0.049900 0.135800
C100 C 0.515300 0.434700 0.436500
C101 C 0.556000 0.361100 0.393600
C102 C -0.130100 0.018100 -0.203200
C103 C -0.148800 -0.047100 -0.143600
C104 C -0.301200 -0.098200 -0.289500
C105 C -0.321200 -0.164500 -0.232500
C106 C -0.190800 -0.184700 -0.030600
C107 C -0.045700 -0.136900 0.111200
C108 C 0.020300 0.067000 -0.056800
C109 C 0.787700 0.389800 0.762500
C110 C 0.642500 0.450100 0.635800
C111 C 0.630200 0.515900 0.704900
C112 C 0.787700 0.110200 0.262500
C113 C 0.130100 -0.018100 1.203200
C114 C 0.148800 0.047100 1.143600
C115 C 0.301200 0.098200 1.289500
C116 C 0.321200 0.164500 1.232500
C117 C 0.190800 0.184700 1.030600
C118 C 0.045700 0.136900 0.888800
C119 C -0.020300 -0.067000 1.056800
C120 C 0.979700 0.567000 0.556800
C121 C 1.045700 0.363100 0.388800
C122 C 0.484700 0.565300 0.563500
C123 C 0.444000 0.638900 0.606400
C124 C -0.130100 0.018100 0.796800
C125 C -0.148800 -0.047100 0.856400
C126 C -0.301200 -0.098200 0.710500
C127 C -0.321200 -0.164500 0.767500
C128 C -0.190800 -0.184700 0.969400
C129 C -0.045700 -0.136900 1.111200
C130 C 0.020300 0.067000 0.943200
C131 C 0.212300 0.610200 0.237500
C132 C 0.357500 0.549900 0.364200
C133 C 0.369800 0.484100 0.295100
C134 C 1.190800 0.315300 0.530600
C135 C 0.130100 0.981900 0.203200
C136 C 0.148800 1.047100 0.143600
C137 C 0.301200 1.098200 0.289500
C138 C 0.321200 1.164500 0.232500
C139 C 0.190800 1.184700 0.030600
C140 C 0.045700 1.136900 -0.111200
C141 C -0.020300 0.933000 0.056800
C142 C 1.321200 0.335500 0.732500
C143 C 1.301200 0.401800 0.789500
C144 C 0.484700 0.934700 1.063500
C145 C 0.444000 0.861100 1.106400
C146 C -0.130100 1.018100 -0.203200
C147 C -0.148800 0.952900 -0.143600
C148 C -0.301200 0.901800 -0.289500
C149 C -0.321200 0.835500 -0.232500
C150 C -0.190800 0.815300 -0.030600
C151 C -0.045700 0.863100 0.111200
C152 C 0.020300 1.067000 -0.056800
C153 C 0.212300 0.889800 0.737500
C154 C 0.357500 0.950100 0.864200
C155 C 0.369800 1.015900 0.795100
C156 C 1.148800 0.452900 0.643600
C157 C 0.130100 0.981900 1.203200
C158 C 0.148800 1.047100 1.143600
C159 C 0.301200 1.098200 1.289500
C160 C 0.321200 1.164500 1.232500
C161 C 0.190800 1.184700 1.030600
C162 C 0.045700 1.136900 0.888800
C163 C -0.020300 0.933000 1.056800
C164 C 1.130100 0.518100 0.703200
C165 C 0.556000 0.138900 -0.106400
C166 C 0.515300 1.065300 0.936500
C167 C 0.556000 1.138900 0.893600
C168 C -0.130100 1.018100 0.796800
C169 C -0.148800 0.952900 0.856400
C170 C -0.301200 0.901800 0.710500
C171 C -0.321200 0.835500 0.767500
C172 C -0.190800 0.815300 0.969400
C173 C -0.045700 0.863100 1.111200
C174 C 0.020300 1.067000 0.943200
C175 C 0.787700 1.110200 1.262500
C176 C 0.642500 1.049900 1.135800
C177 C 0.630200 0.984100 1.204900
C178 C 0.515300 0.065300 -0.063500
C179 C 1.130100 -0.018100 0.203200
C180 C 1.148800 0.047100 0.143600
C181 C 1.301200 0.098200 0.289500
C182 C 1.321200 0.164500 0.232500
C183 C 1.190800 0.184700 0.030600
C184 C 1.045700 0.136900 -0.111200
C185 C 0.979700 -0.067000 0.056800
C186 C 1.020300 0.433000 0.443200
C187 C 0.954300 0.636900 0.611200
C188 C 0.484700 0.934700 0.063500
C189 C 0.444000 0.861100 0.106400
C190 C 0.869900 0.018100 -0.203200
C191 C 0.851200 -0.047100 -0.143600
C192 C 0.698800 -0.098200 -0.289500
C193 C 0.678800 -0.164500 -0.232500
C194 C 0.809200 -0.184700 -0.030600
C195 C 0.954300 -0.136900 0.111200
C196 C 1.020300 0.067000 -0.056800
C197 C 0.212300 0.889800 -0.262500
C198 C 0.357500 0.950100 -0.135800
C199 C 0.369800 1.015900 -0.204900
C200 C 0.809200 0.684700 0.469400
C201 C 1.130100 -0.018100 1.203200
C202 C 1.148800 0.047100 1.143600
C203 C 1.301200 0.098200 1.289500
C204 C 1.321200 0.164500 1.232500
C205 C 1.190800 0.184700 1.030600
C206 C 1.045700 0.136900 0.888800
C207 C 0.979700 -0.067000 1.056800
C208 C 0.678800 0.664500 0.267500
C209 C 0.698800 0.598200 0.210500
C210 C 0.515300 1.065300 -0.063500
C211 C 0.556000 1.138900 -0.106400
C212 C 0.869900 0.018100 0.796800
C213 C 0.851200 -0.047100 0.856400
C214 C 0.698800 -0.098200 0.710500
C215 C 0.678800 -0.164500 0.767500
C216 C 0.809200 -0.184700 0.969400
C217 C 0.954300 -0.136900 1.111200
C218 C 1.020300 0.067000 0.943200
C219 C 0.787700 1.110200 0.262500
C220 C 0.642500 1.049900 0.135800
C221 C 0.630200 0.984100 0.204900
C222 C 0.851200 0.547100 0.356400
C223 C 1.130100 0.981900 0.203200
C224 C 1.148800 1.047100 0.143600
C225 C 1.301200 1.098200 0.289500
C226 C 1.321200 1.164500 0.232500
C227 C 1.190800 1.184700 0.030600
C228 C 1.045700 1.136900 -0.111200
C229 C 0.979700 0.933000 0.056800
C230 C 0.869900 0.481900 0.296800
C231 C 0.369800 0.015900 -0.204900
C232 C 0.484700 -0.065300 1.063500
C233 C 0.444000 -0.138900 1.106400
C234 C 0.869900 1.018100 -0.203200
C235 C 0.851200 0.952900 -0.143600
C236 C 0.698800 0.901800 -0.289500
C237 C 0.678800 0.835500 -0.232500
C238 C 0.809200 0.815300 -0.030600
C239 C 0.954300 0.863100 0.111200
C240 C 1.020300 1.067000 -0.056800
C241 C 0.212300 -0.110200 0.737500
C242 C 0.357500 -0.049900 0.864200
C243 C 0.369800 0.015900 0.795100
C244 C 0.357500 -0.049900 -0.135800
C245 C 1.130100 0.981900 1.203200
C246 C 1.148800 1.047100 1.143600
C247 C 1.301200 1.098200 1.289500
C248 C 1.321200 1.164500 1.232500
C249 C 1.190800 1.184700 1.030600
C250 C 1.045700 1.136900 0.888800
C251 C 0.979700 0.933000 1.056800
C252 C 0.212300 -0.110200 -0.262500
C253 C -0.020300 0.567000 0.556800
C254 C 0.515300 0.065300 0.936500
C255 C 0.556000 0.138900 0.893600
C256 C 0.869900 1.018100 0.796800
C257 C 0.851200 0.952900 0.856400
C258 C 0.698800 0.901800 0.710500
C259 C 0.678800 0.835500 0.767500
C260 C 0.809200 0.815300 0.969400
C261 C 0.954300 0.863100 1.111200
C262 C 1.020300 1.067000 0.943200
C263 C 0.787700 0.110200 1.262500
C264 C 0.642500 0.049900 1.135800
C265 C 0.630200 -0.015900 1.204900
C266 C 0.045700 0.363100 0.388800
C267 C -0.130100 0.481900 0.296800
C268 C -0.148800 0.547100 0.356400
C269 C -0.301200 0.598200 0.210500
C270 C -0.321200 0.664500 0.267500
C271 C -0.190800 0.684700 0.469400
C272 C -0.045700 0.636900 0.611200
C273 C 0.020300 0.433000 0.443200
C274 C 0.190800 0.315300 0.530600
C275 C 0.321200 0.335500 0.732500
C276 C 0.484700 -0.065300 0.063500
C277 C 0.444000 -0.138900 0.106400
C278 C 0.130100 0.518100 0.703200
C279 C 0.148800 0.452900 0.643600
C280 C 0.301200 0.401800 0.789500
O281 O 0.085000 -0.109600 -0.437200
O282 O 0.526400 -0.163600 0.268200
O283 O 0.473600 0.336400 0.231800
O284 O 0.915000 0.109600 1.437200
O285 O 0.473600 0.163600 0.731800
O286 O 0.915000 0.390400 0.937200
O287 O 0.085000 -0.109600 0.562800
O288 O 0.526400 0.663600 0.768200
O289 O 0.526400 -0.163600 1.268200
O290 O 0.085000 0.609600 0.062800
O291 O 0.915000 1.109600 0.437200
O292 O 0.473600 1.163600 -0.268200
O293 O 0.526400 0.836400 1.268200
O294 O 0.085000 0.890400 -0.437200
O295 O 0.526400 0.836400 0.268200
O296 O 0.473600 0.163600 -0.268200
O297 O 0.915000 0.109600 0.437200
O298 O 0.085000 0.890400 0.562800
O299 O 0.915000 1.109600 1.437200
O300 O 0.473600 1.163600 0.731800
S301 S 0.247800 0.814100 0.884800
S302 S 0.752200 1.185900 1.115200
S303 S 0.247800 0.814100 -0.115200
S304 S 0.247800 0.685900 0.384800
S305 S 0.752200 1.185900 0.115200
S306 S 0.247800 -0.185900 -0.115200
S307 S 0.752200 0.314100 0.615200
S308 S 0.247800 -0.185900 0.884800
S309 S 0.752200 0.185900 1.115200
S310 S 0.752200 0.185900 0.115200

#END
