./ACTOLD02_from_POSCAR.cif_generated_by_CrystalShift
_symmetry_cell_setting triclinic
_symmetry_space_group_name_H-M 'P 1'
loop_
_symmetry_equiv_pos_site_id
_symmetry_equiv_pos_as_xyz
1 x,y,z
_cell_length_a 9.899000
_cell_length_b 12.956000
_cell_length_c 6.541000
_cell_angle_alpha 90.000000
_cell_angle_beta 90.000000
_cell_angle_gamma 90.000000
_cell_volume 838.892695
loop_
_atom_site_label
_atom_site_type_symbol
_atom_site_fract_x
_atom_site_fract_y
_atom_site_fract_z
H1 H 0.726000 0.408000 0.255000
H2 H 0.640000 0.494000 0.174000
H3 H 0.676000 0.868000 1.271000
H4 H 0.847000 0.822000 1.303000
H5 H 0.721000 0.786000 1.427000
H6 H 0.877000 0.721000 1.005000
H7 H 0.966000 0.649000 0.740000
H8 H 0.956000 0.560000 0.444000
H9 H 0.549000 0.548000 0.472000
H10 H 0.557000 0.644000 0.791000
H11 H 0.774000 -0.092000 -0.245000
H12 H 0.443000 0.356000 0.291000
H13 H 0.451000 0.452000 -0.028000
H14 H 0.044000 0.440000 -0.056000
H15 H 0.034000 0.351000 0.240000
H16 H 0.123000 0.279000 0.505000
H17 H 0.279000 0.214000 0.927000
H18 H 0.153000 0.178000 0.803000
H19 H 0.324000 0.132000 0.771000
H20 H 0.360000 0.506000 -0.326000
H21 H 0.168000 0.515000 -0.322000
H22 H 0.274000 0.592000 -0.245000
H23 H 0.668000 -0.015000 -0.322000
H24 H 0.860000 -0.006000 -0.326000
H25 H 0.824000 0.368000 0.771000
H26 H 0.653000 0.322000 0.803000
H27 H 0.779000 0.286000 0.927000
H28 H 0.623000 0.221000 0.505000
H29 H 0.534000 0.149000 0.240000
H30 H 0.544000 0.060000 -0.056000
H31 H 0.951000 0.048000 -0.028000
H32 H 0.943000 0.144000 0.291000
H33 H 0.226000 1.092000 0.255000
H34 H 0.057000 0.856000 0.791000
H35 H 0.049000 0.952000 0.472000
H36 H 0.456000 0.940000 0.444000
H37 H 0.466000 0.851000 0.740000
H38 H 0.377000 0.779000 1.005000
H39 H 0.221000 0.714000 1.427000
H40 H 0.347000 0.678000 1.303000
H41 H 0.176000 0.632000 1.271000
H42 H 0.140000 1.006000 0.174000
H43 H 0.332000 1.015000 0.178000
H44 H 0.832000 0.485000 0.178000
C45 C 0.232900 0.343600 0.287800
C46 C 0.357200 0.374300 0.210500
C47 C 0.732900 0.156400 0.287800
C48 C 0.857200 0.125700 0.210500
C49 C 0.863600 0.070300 0.029900
C50 C 0.749400 0.041200 -0.076300
C51 C 0.625000 0.072200 0.002400
C52 C 0.616800 0.127100 0.182500
C53 C 0.808200 0.258100 0.589800
C54 C 0.754100 0.315800 0.771400
C55 C 0.759900 -0.021300 -0.272400
C56 C 0.245900 0.684200 1.271400
C57 C 0.191800 0.741900 1.089800
C58 C 0.383200 0.872900 0.682500
C59 C 0.375000 0.927800 0.502400
C60 C 0.250600 0.958800 0.423700
C61 C 0.136400 0.929700 0.529900
C62 C 0.142800 0.874300 0.710500
C63 C 0.267100 0.843600 0.787800
C64 C 0.363600 0.429700 0.029900
C65 C 0.249400 0.458800 -0.076300
C66 C 0.259900 0.521300 -0.272400
C67 C 0.125000 0.427800 0.002400
C68 C 0.116800 0.372900 0.182500
C69 C 0.767100 0.656400 0.787800
C70 C 0.642800 0.625700 0.710500
C71 C 0.636400 0.570300 0.529900
C72 C 0.750600 0.541200 0.423700
C73 C 0.875000 0.572200 0.502400
C74 C 0.883200 0.627100 0.682500
C75 C 0.691800 0.758100 1.089800
C76 C 0.745900 0.815800 1.271400
C77 C 0.740100 0.478700 0.227600
C78 C 0.254100 0.184200 0.771400
C79 C 0.308200 0.241900 0.589800
C80 C 0.240100 1.021300 0.227600
N81 N 0.214000 0.287000 0.469600
N82 N 0.286000 0.787000 0.969600
N83 N 0.714000 0.213000 0.469600
N84 N 0.786000 0.713000 0.969600
O85 O 0.930400 0.251700 0.558500
O86 O 0.069600 0.748300 1.058500
O87 O 0.569600 0.751700 1.058500
O88 O 0.430400 0.248300 0.558500

#END
