./ACUBIK_from_POSCAR.cif_generated_by_CrystalShift
_symmetry_cell_setting triclinic
_symmetry_space_group_name_H-M 'P 1'
loop_
_symmetry_equiv_pos_site_id
_symmetry_equiv_pos_as_xyz
1 x,y,z
_cell_length_a 9.439700
_cell_length_b 7.966900
_cell_length_c 15.202100
_cell_angle_alpha 90.000000
_cell_angle_beta 95.358600
_cell_angle_gamma 90.000000
_cell_volume 1138.279694
loop_
_atom_site_label
_atom_site_type_symbol
_atom_site_fract_x
_atom_site_fract_y
_atom_site_fract_z
H1 H 1.379000 1.289000 0.649000
H2 H 1.282900 1.128000 0.481600
H3 H 1.225000 0.803000 0.637800
H4 H 1.148000 0.733000 0.550200
H5 H 0.006000 0.744000 0.186200
H6 H -0.066000 0.719000 0.088900
H7 H 0.934000 0.781000 0.588900
H8 H 0.148000 0.767000 0.050200
H9 H 0.225000 0.697000 0.137800
H10 H 1.006000 0.756000 0.686200
H11 H 0.621000 0.711000 0.351000
H12 H 0.282900 0.372000 -0.018400
H13 H 0.371000 0.515000 0.034500
H14 H 0.442000 0.700000 0.234100
H15 H 0.362000 0.607000 -0.105300
H16 H 0.246000 0.704000 -0.068300
H17 H 0.465000 0.840000 0.101100
H18 H -0.167100 0.356700 0.207100
H19 H -0.211900 0.544100 0.193700
H20 H 0.675000 0.994000 0.083900
H21 H 0.854600 1.013000 0.198500
H22 H 0.145400 0.513000 0.301500
H23 H 1.211900 1.044100 0.306300
H24 H 0.325000 0.494000 0.416100
H25 H 1.167100 0.856700 0.292900
H26 H 0.535000 0.340000 0.398900
H27 H 0.754000 1.204000 0.568300
H28 H 0.558000 0.200000 0.265900
H29 H 0.638000 1.107000 0.605300
H30 H 0.379000 0.211000 0.149000
H31 H 0.629000 1.015000 0.465500
H32 H 1.558000 1.300000 0.765900
H33 H 0.717100 0.872000 0.518400
H34 H 0.775000 1.197000 0.362200
H35 H -0.006000 0.256000 -0.186200
H36 H 0.066000 0.281000 -0.088900
H37 H 0.852000 1.267000 0.449800
H38 H -0.148000 0.233000 -0.050200
H39 H -0.225000 0.303000 -0.137800
H40 H 1.066000 1.219000 0.411100
H41 H 0.994000 1.244000 0.313800
H42 H -0.282900 0.628000 0.018400
H43 H -0.371000 0.485000 -0.034500
H44 H 1.362000 0.893000 0.394700
H45 H -0.362000 0.393000 0.105300
H46 H -0.246000 0.296000 0.068300
H47 H 1.379000 0.289000 0.649000
H48 H 0.167100 0.643300 -0.207100
H49 H 0.211900 0.455900 -0.193700
H50 H 1.558000 0.300000 0.765900
H51 H 1.535000 0.160000 0.898900
H52 H -0.145400 0.487000 -0.301500
H53 H 1.325000 0.006000 0.916100
H54 H -0.325000 0.506000 -0.416100
H55 H 1.145400 -0.013000 0.801500
H56 H -0.535000 0.660000 -0.398900
H57 H 0.788100 -0.044100 0.693700
H58 H -0.558000 0.800000 -0.265900
H59 H 0.832900 0.143300 0.707100
H60 H -0.379000 0.789000 -0.149000
H61 H 1.246000 -0.204000 0.431700
H62 H 1.362000 -0.107000 0.394700
H63 H 1.371000 -0.015000 0.534500
H64 H 1.282900 0.128000 0.481600
H65 H 0.006000 0.744000 1.186200
H66 H -0.066000 0.719000 1.088900
H67 H 1.225000 -0.197000 0.637800
H68 H 0.148000 0.767000 1.050200
H69 H 0.225000 0.697000 1.137800
H70 H 1.148000 -0.267000 0.550200
H71 H 0.934000 -0.219000 0.588900
H72 H 0.282900 0.372000 0.981600
H73 H 0.371000 0.515000 1.034500
H74 H 1.006000 -0.244000 0.686200
H75 H 0.362000 0.607000 0.894700
H76 H 0.246000 0.704000 0.931700
H77 H 1.246000 0.796000 0.431700
H78 H -0.167100 0.356700 1.207100
H79 H -0.211900 0.544100 1.193700
H80 H 0.621000 -0.289000 0.351000
H81 H 0.442000 -0.300000 0.234100
H82 H 0.145400 0.513000 1.301500
H83 H 0.465000 -0.160000 0.101100
H84 H 0.325000 0.494000 1.416100
H85 H 0.675000 -0.006000 0.083900
H86 H 0.535000 0.340000 1.398900
H87 H 0.854600 0.013000 0.198500
H88 H 0.558000 0.200000 1.265900
H89 H 1.211900 0.044100 0.306300
H90 H 0.379000 0.211000 1.149000
H91 H 1.167100 -0.143300 0.292900
H92 H 1.535000 1.160000 0.898900
H93 H 0.754000 0.204000 0.568300
H94 H 0.638000 0.107000 0.605300
H95 H -0.006000 0.256000 0.813800
H96 H 0.066000 0.281000 0.911100
H97 H 0.629000 0.015000 0.465500
H98 H -0.148000 0.233000 0.949800
H99 H -0.225000 0.303000 0.862200
H100 H 0.717100 -0.128000 0.518400
H101 H 0.775000 0.197000 0.362200
H102 H -0.282900 0.628000 1.018400
H103 H -0.371000 0.485000 0.965500
H104 H 0.852000 0.267000 0.449800
H105 H -0.362000 0.393000 1.105300
H106 H -0.246000 0.296000 1.068300
H107 H 1.066000 0.219000 0.411100
H108 H 0.167100 0.643300 0.792900
H109 H 0.211900 0.455900 0.806300
H110 H 0.994000 0.244000 0.313800
H111 H 0.379000 1.289000 0.649000
H112 H -0.145400 0.487000 0.698500
H113 H 0.558000 1.300000 0.765900
H114 H -0.325000 0.506000 0.583900
H115 H 0.535000 1.160000 0.898900
H116 H -0.535000 0.660000 0.601100
H117 H 0.325000 1.006000 0.916100
H118 H -0.558000 0.800000 0.734100
H119 H 0.145400 0.987000 0.801500
H120 H -0.379000 0.789000 0.851000
H121 H -0.211900 0.955900 0.693700
H122 H -0.167100 1.143300 0.707100
H123 H 0.246000 0.796000 0.431700
H124 H 0.362000 0.893000 0.394700
H125 H 1.006000 0.744000 0.186200
H126 H 0.934000 0.719000 0.088900
H127 H 0.371000 0.985000 0.534500
H128 H 1.148000 0.767000 0.050200
H129 H 1.225000 0.697000 0.137800
H130 H 0.282900 1.128000 0.481600
H131 H 0.225000 0.803000 0.637800
H132 H 1.282900 0.372000 -0.018400
H133 H 1.371000 0.515000 0.034500
H134 H 0.148000 0.733000 0.550200
H135 H 1.362000 0.607000 -0.105300
H136 H 1.246000 0.704000 -0.068300
H137 H -0.066000 0.781000 0.588900
H138 H 0.832900 0.356700 0.207100
H139 H 0.788100 0.544100 0.193700
H140 H 0.006000 0.756000 0.686200
H141 H 0.832900 1.143300 0.707100
H142 H 1.145400 0.513000 0.301500
H143 H -0.379000 0.711000 0.351000
H144 H 1.325000 0.494000 0.416100
H145 H -0.558000 0.700000 0.234100
H146 H 1.535000 0.340000 0.398900
H147 H -0.535000 0.840000 0.101100
H148 H 1.558000 0.200000 0.265900
H149 H -0.325000 0.994000 0.083900
H150 H 1.379000 0.211000 0.149000
H151 H -0.145400 1.013000 0.198500
H152 H 1.325000 1.006000 0.916100
H153 H 0.211900 1.044100 0.306300
H154 H 0.167100 0.856700 0.292900
H155 H 0.994000 0.256000 -0.186200
H156 H 1.066000 0.281000 -0.088900
H157 H -0.246000 1.204000 0.568300
H158 H 0.852000 0.233000 -0.050200
H159 H 0.775000 0.303000 -0.137800
H160 H -0.362000 1.107000 0.605300
H161 H -0.371000 1.015000 0.465500
H162 H 0.717100 0.628000 0.018400
H163 H 0.629000 0.485000 -0.034500
H164 H -0.282900 0.872000 0.518400
H165 H 0.638000 0.393000 0.105300
H166 H 0.754000 0.296000 0.068300
H167 H -0.225000 1.197000 0.362200
H168 H 1.167100 0.643300 -0.207100
H169 H 1.211900 0.455900 -0.193700
H170 H -0.148000 1.267000 0.449800
H171 H 0.066000 1.219000 0.411100
H172 H 0.854600 0.487000 -0.301500
H173 H -0.006000 1.244000 0.313800
H174 H 0.675000 0.506000 -0.416100
H175 H 0.788100 0.955900 0.693700
H176 H 0.465000 0.660000 -0.398900
H177 H 0.379000 0.289000 0.649000
H178 H 0.442000 0.800000 -0.265900
H179 H 0.558000 0.300000 0.765900
H180 H 0.621000 0.789000 -0.149000
H181 H 0.535000 0.160000 0.898900
H182 H 0.325000 0.006000 0.916100
H183 H 0.145400 -0.013000 0.801500
H184 H -0.211900 -0.044100 0.693700
H185 H 1.006000 0.744000 1.186200
H186 H 0.934000 0.719000 1.088900
H187 H -0.167100 0.143300 0.707100
H188 H 1.148000 0.767000 1.050200
H189 H 1.225000 0.697000 1.137800
H190 H 0.246000 -0.204000 0.431700
H191 H 0.362000 -0.107000 0.394700
H192 H 1.282900 0.372000 0.981600
H193 H 1.371000 0.515000 1.034500
H194 H 0.371000 -0.015000 0.534500
H195 H 1.362000 0.607000 0.894700
H196 H 1.246000 0.704000 0.931700
H197 H 0.282900 0.128000 0.481600
H198 H 0.832900 0.356700 1.207100
H199 H 0.788100 0.544100 1.193700
H200 H 0.225000 -0.197000 0.637800
H201 H 0.148000 -0.267000 0.550200
H202 H 1.145400 0.513000 1.301500
H203 H -0.066000 -0.219000 0.588900
H204 H 1.325000 0.494000 1.416100
H205 H 0.006000 -0.244000 0.686200
H206 H 1.535000 0.340000 1.398900
H207 H -0.379000 -0.289000 0.351000
H208 H 1.558000 0.200000 1.265900
H209 H -0.558000 -0.300000 0.234100
H210 H 1.379000 0.211000 1.149000
H211 H -0.535000 -0.160000 0.101100
H212 H 1.145400 0.987000 0.801500
H213 H -0.325000 -0.006000 0.083900
H214 H -0.145400 0.013000 0.198500
H215 H 0.994000 0.256000 0.813800
H216 H 1.066000 0.281000 0.911100
H217 H 0.211900 0.044100 0.306300
H218 H 0.852000 0.233000 0.949800
H219 H 0.775000 0.303000 0.862200
H220 H 0.167100 -0.143300 0.292900
H221 H -0.246000 0.204000 0.568300
H222 H 0.717100 0.628000 1.018400
H223 H 0.629000 0.485000 0.965500
H224 H -0.362000 0.107000 0.605300
H225 H 0.638000 0.393000 1.105300
H226 H 0.754000 0.296000 1.068300
H227 H -0.371000 0.015000 0.465500
H228 H 1.167100 0.643300 0.792900
H229 H 1.211900 0.455900 0.806300
H230 H -0.282900 -0.128000 0.518400
H231 H -0.225000 0.197000 0.362200
H232 H 0.854600 0.487000 0.698500
H233 H -0.148000 0.267000 0.449800
H234 H 0.675000 0.506000 0.583900
H235 H 0.066000 0.219000 0.411100
H236 H 0.465000 0.660000 0.601100
H237 H -0.006000 0.244000 0.313800
H238 H 0.442000 0.800000 0.734100
H239 H 0.621000 0.789000 0.851000
H240 H 1.371000 0.985000 0.534500
C241 C 1.369100 1.225800 0.705100
C242 C 1.232500 1.048500 0.793510
C243 C 1.281190 1.012100 0.498040
C244 C -0.005600 0.171400 0.367000
C245 C 0.523500 0.734600 0.726520
C246 C 0.537600 0.651400 0.647600
C247 C -0.148100 0.177100 0.406950
C248 C 0.660000 0.559900 0.637160
C249 C 0.767500 0.548500 0.706490
C250 C 0.005600 0.671400 0.133000
C251 C -0.281190 -0.012100 0.501960
C252 C 0.754930 0.632800 0.785520
C253 C 1.169570 0.550500 0.834310
C254 C -0.270500 0.100000 0.584560
C255 C 0.729500 0.400000 1.084560
C256 C 0.718810 0.512100 1.001960
C257 C 0.169570 -0.050500 0.334310
C258 C 1.148100 0.822900 0.593050
C259 C 0.851900 0.322900 0.906950
C260 C -0.245070 -0.132800 0.285520
C261 C -0.232500 -0.048500 0.206490
C262 C 0.994400 0.328600 0.867000
C263 C -0.340000 -0.059900 0.137160
C264 C 0.148100 0.677100 0.093050
C265 C -0.462400 -0.151400 0.147600
C266 C 1.005600 0.828600 0.633000
C267 C -0.476500 -0.234600 0.226520
C268 C 1.369100 0.274200 1.205100
C269 C -0.369100 -0.225800 0.294900
C270 C 1.476500 0.265400 1.273480
C271 C 1.270500 0.900000 0.415440
C272 C 1.245070 1.132800 0.714480
C273 C 0.281190 0.487900 -0.001960
C274 C 0.005600 -0.171400 0.633000
C275 C 1.462400 0.348600 1.352400
C276 C 1.340000 0.440100 1.362840
C277 C 0.148100 -0.177100 0.593050
C278 C 1.232500 0.451500 1.293510
C279 C 1.245070 0.367200 1.214480
C280 C 0.630900 0.774200 0.294900
C281 C 0.281190 0.012100 0.498040
C282 C 0.830430 0.449500 1.165690
C283 C 1.270500 0.600000 0.915440
C284 C 0.270500 -0.100000 0.415440
C285 C 1.281190 0.487900 0.998040
C286 C 0.270500 0.600000 -0.084560
C287 C -0.169570 0.050500 0.665690
C288 C 1.148100 0.677100 1.093050
C289 C 1.005600 0.671400 1.133000
C290 C 0.245070 0.132800 0.714480
C291 C 0.232500 0.048500 0.793510
C292 C 0.523500 0.765400 0.226520
C293 C 0.340000 0.059900 0.862840
C294 C 1.340000 1.059900 0.862840
C295 C 0.462400 0.151400 0.852400
C296 C -0.169570 0.449500 0.165690
C297 C 0.476500 0.234600 0.773480
C298 C 0.630900 0.725800 -0.205100
C299 C 0.369100 0.225800 0.705100
C300 C 0.523500 0.734600 -0.273480
C301 C 0.537600 0.848600 0.147600
C302 C 0.537600 0.651400 -0.352400
C303 C 0.245070 0.367200 0.214480
C304 C -0.005600 1.171400 0.367000
C305 C 0.660000 0.559900 -0.362840
C306 C 0.767500 0.548500 -0.293510
C307 C -0.148100 1.177100 0.406950
C308 C 0.754930 0.632800 -0.214480
C309 C 1.169570 0.550500 -0.165690
C310 C 0.660000 0.940100 0.137160
C311 C -0.281190 0.987900 0.501960
C312 C 0.729500 0.400000 0.084560
C313 C 0.718810 0.512100 0.001960
C314 C -0.270500 1.100000 0.584560
C315 C 0.232500 0.451500 0.293510
C316 C 0.851900 0.322900 -0.093050
C317 C 0.169570 0.949500 0.334310
C318 C 0.994400 0.328600 -0.133000
C319 C 0.767500 0.951500 0.206490
C320 C -0.245070 0.867200 0.285520
C321 C -0.232500 0.951500 0.206490
C322 C 0.754930 0.867200 0.285520
C323 C -0.340000 0.940100 0.137160
C324 C 1.369100 0.274200 0.205100
C325 C -0.462400 0.848600 0.147600
C326 C 1.476500 0.265400 0.273480
C327 C -0.476500 0.765400 0.226520
C328 C 1.462400 0.348600 0.352400
C329 C -0.369100 0.774200 0.294900
C330 C 1.340000 0.440100 0.362840
C331 C 0.340000 0.440100 0.362840
C332 C 1.232500 0.451500 0.293510
C333 C 0.462400 0.348600 0.352400
C334 C 0.005600 0.828600 0.633000
C335 C 1.245070 0.367200 0.214480
C336 C 0.830430 0.449500 0.165690
C337 C 0.148100 0.822900 0.593050
C338 C 1.270500 0.600000 -0.084560
C339 C 1.281190 0.487900 -0.001960
C340 C 1.169570 0.949500 0.334310
C341 C 0.281190 1.012100 0.498040
C342 C 0.476500 0.265400 0.273480
C343 C 1.148100 0.677100 0.093050
C344 C 0.270500 0.900000 0.415440
C345 C 1.005600 0.671400 0.133000
C346 C 0.369100 0.274200 0.205100
C347 C -0.169570 1.050500 0.665690
C348 C 1.462400 1.151400 0.852400
C349 C 0.729500 1.100000 0.584560
C350 C 0.245070 1.132800 0.714480
C351 C 0.232500 1.048500 0.793510
C352 C -0.369100 0.725800 0.794900
C353 C 0.340000 1.059900 0.862840
C354 C -0.476500 0.734600 0.726520
C355 C 0.462400 1.151400 0.852400
C356 C -0.462400 0.651400 0.647600
C357 C 0.476500 1.234600 0.773480
C358 C -0.340000 0.559900 0.637160
C359 C 0.369100 1.225800 0.705100
C360 C -0.232500 0.548500 0.706490
C361 C 0.718810 0.987900 0.501960
C362 C 0.830430 1.050500 0.665690
C363 C -0.005600 0.328600 -0.133000
C364 C 0.994400 0.171400 0.367000
C365 C -0.245070 0.632800 0.785520
C366 C 0.169570 0.550500 0.834310
C367 C 0.851900 0.177100 0.406950
C368 C -0.270500 0.400000 1.084560
C369 C -0.281190 0.512100 1.001960
C370 C -0.148100 0.322900 -0.093050
C371 C 0.718810 -0.012100 0.501960
C372 C 0.851900 1.177100 0.406950
C373 C -0.148100 0.322900 0.906950
C374 C 0.729500 0.100000 0.584560
C375 C -0.005600 0.328600 0.867000
C376 C -0.281190 0.512100 0.001960
C377 C 1.169570 -0.050500 0.334310
C378 C 0.994400 1.171400 0.367000
C379 C 0.369100 0.274200 1.205100
C380 C 0.754930 -0.132800 0.285520
C381 C 0.767500 -0.048500 0.206490
C382 C 0.476500 0.265400 1.273480
C383 C 0.660000 -0.059900 0.137160
C384 C 0.462400 0.348600 1.352400
C385 C 0.537600 -0.151400 0.147600
C386 C 0.340000 0.440100 1.362840
C387 C 0.523500 -0.234600 0.226520
C388 C 0.232500 0.451500 1.293510
C389 C 0.630900 -0.225800 0.294900
C390 C 0.245070 0.367200 1.214480
C391 C -0.270500 0.400000 0.084560
C392 C -0.169570 0.449500 1.165690
C393 C 0.169570 0.550500 -0.165690
C394 C 1.005600 -0.171400 0.633000
C395 C 0.270500 0.600000 0.915440
C396 C 0.281190 0.487900 0.998040
C397 C 1.148100 -0.177100 0.593050
C398 C 1.369100 0.225800 0.705100
C399 C 0.148100 0.677100 1.093050
C400 C -0.245070 0.632800 -0.214480
C401 C 1.281190 0.012100 0.498040
C402 C 0.005600 0.671400 1.133000
C403 C 1.476500 0.234600 0.773480
C404 C 1.270500 -0.100000 0.415440
C405 C 1.476500 1.234600 0.773480
C406 C -0.232500 0.548500 -0.293510
C407 C 0.830430 0.050500 0.665690
C408 C -0.369100 0.725800 -0.205100
C409 C -0.476500 0.734600 -0.273480
C410 C 1.245070 0.132800 0.714480
C411 C 1.232500 0.048500 0.793510
C412 C -0.462400 0.651400 -0.352400
C413 C 1.340000 0.059900 0.862840
C414 C -0.340000 0.559900 -0.362840
C415 C 1.462400 0.151400 0.852400
C416 C 0.630900 0.725800 0.794900
N417 N -0.021570 0.494340 1.153620
N418 N 1.160410 -0.012260 0.550280
N419 N 0.160410 0.512260 1.050280
N420 N 0.978430 0.005660 0.653620
N421 N 1.160410 0.987740 0.550280
N422 N -0.021570 0.494340 0.153620
N423 N 1.021570 0.994340 0.346380
N424 N -0.160410 0.012260 0.449720
N425 N 0.021570 0.505660 0.846380
N426 N -0.160410 0.487740 -0.050280
N427 N -0.160410 0.487740 0.949720
N428 N 0.839590 0.012260 0.449720
N429 N 1.021570 -0.005660 0.346380
N430 N 0.839590 1.012260 0.449720
N431 N 0.839590 0.487740 0.949720
N432 N 0.021570 0.505660 -0.153620
N433 N 1.021570 0.505660 0.846380
N434 N 0.160410 0.512260 0.050280
N435 N 0.978430 0.494340 0.153620
N436 N 1.160410 0.512260 0.050280
N437 N 0.160410 0.987740 0.550280
N438 N -0.021570 1.005660 0.653620
N439 N 0.021570 -0.005660 0.346380
N440 N 0.978430 1.005660 0.653620
N441 N 1.021570 0.505660 -0.153620
N442 N 0.839590 0.487740 -0.050280
N443 N -0.160410 1.012260 0.449720
N444 N 0.021570 0.994340 0.346380
N445 N -0.021570 0.005660 0.653620
N446 N 0.160410 -0.012260 0.550280
N447 N 0.978430 0.494340 1.153620
N448 N 1.160410 0.512260 1.050280
P449 P 1.106510 0.372960 1.122800
P450 P -0.106510 0.872960 0.377200
P451 P 1.106510 1.127040 0.622800
P452 P 0.106510 0.127040 0.622800
P453 P 0.893490 0.627040 -0.122800
P454 P 0.893490 0.627040 0.877200
P455 P 1.106510 0.372960 0.122800
P456 P -0.106510 0.627040 -0.122800
P457 P 0.893490 -0.127040 0.377200
P458 P -0.106510 0.627040 0.877200
P459 P 1.106510 0.127040 0.622800
P460 P 0.893490 0.872960 0.377200
P461 P 0.106510 1.127040 0.622800
P462 P -0.106510 -0.127040 0.377200
P463 P 0.106510 0.372960 1.122800
P464 P 0.106510 0.372960 0.122800
S465 S 0.935660 0.645560 0.416570
S466 S 1.064340 0.354440 0.583430
S467 S 0.935660 -0.354440 0.416570
S468 S 0.064340 1.354440 0.583430
S469 S -0.064340 0.645560 0.416570
S470 S 0.064340 0.354440 0.583430
S471 S -0.064340 -0.354440 0.416570
S472 S 0.935660 0.854440 0.916570
S473 S 1.064340 0.145560 1.083430
S474 S 0.935660 0.854440 -0.083430
S475 S 1.064340 0.145560 0.083430
S476 S -0.064340 0.854440 0.916570
S477 S 0.064340 0.145560 1.083430
S478 S -0.064340 0.854440 -0.083430
S479 S 0.064340 0.145560 0.083430
S480 S 1.064340 1.354440 0.583430

#END
