
#######################################################################
#
#                 Cambridge Crystallographic Data Centre
#                                CCDC 
#
#######################################################################
#
# If this CIF has been generated from an entry in the Cambridge 
# Structural Database, then it will include bibliographic, chemical, 
# crystal, experimental, refinement or atomic coordinate data resulting 
# from the CCDC's data processing and validation procedures.
#
#######################################################################

data_ACUBIK
_symmetry_cell_setting           monoclinic
_symmetry_space_group_name_H-M   'P 21/c'
_symmetry_Int_Tables_number      14
_space_group_name_Hall           '-P 2ybc'
loop_
_symmetry_equiv_pos_site_id
_symmetry_equiv_pos_as_xyz
1 x,y,z
2 -x,1/2+y,1/2-z
3 -x,-y,-z
4 x,1/2-y,1/2+z
_cell_length_a                   9.4397(3)
_cell_length_b                   7.9669(2)
_cell_length_c                   15.2021(6)
_cell_angle_alpha                90
_cell_angle_beta                 95.3586(14)
_cell_angle_gamma                90
_cell_volume                     1138.28
loop_
_atom_site_label
_atom_site_type_symbol
_atom_site_fract_x
_atom_site_fract_y
_atom_site_fract_z
P1 P 0.10651(5) 0.37296(6) 0.12280(3)
S1 S 0.06434(5) 0.14556(6) 0.08343(3)
N1 N -0.02157(15) 0.49434(18) 0.15362(10)
C1 C 0.0056(2) 0.6714(2) 0.13300(13)
H1 H 0.006(2) 0.744(2) 0.1862(13)
H2 H -0.066(2) 0.719(2) 0.0889(13)
C2 C 0.1481(2) 0.6771(2) 0.09305(13)
H3 H 0.148(2) 0.767(3) 0.0502(13)
H4 H 0.225(2) 0.697(2) 0.1378(13)
N2 N 0.16041(15) 0.51226(18) 0.05028(9)
C3 C 0.28119(19) 0.4879(2) -0.00196(12)
H5 H 0.2829(19) 0.372(2) -0.0184(12)
H6 H 0.371(2) 0.515(2) 0.0345(12)
C4 C 0.2705(2) 0.6000(3) -0.08456(13)
H7 H 0.362(2) 0.607(2) -0.1053(14)
H8 H 0.246(2) 0.704(3) -0.0683(13)
C5 C -0.16957(19) 0.4495(3) 0.16569(12)
H9 H -0.1671 0.3567 0.2071
H10 H -0.2119 0.5441 0.1937
C6 C 0.24507(19) 0.3672(2) 0.21448(12)
C7 C 0.2325(2) 0.4515(2) 0.29351(12)
H11 H 0.1454(19) 0.513(2) 0.3015(11)
C8 C 0.3400(2) 0.4401(2) 0.36284(13)
H12 H 0.325(2) 0.494(3) 0.4161(14)
C9 C 0.4624(2) 0.3486(3) 0.35240(14)
H13 H 0.535(2) 0.340(3) 0.3989(14)
C10 C 0.4765(2) 0.2654(3) 0.27348(13)
H14 H 0.558(2) 0.200(3) 0.2659(15)
C11 C 0.3691(2) 0.2742(2) 0.20510(13)
H15 H 0.379(2) 0.211(3) 0.1490(13)
P1B P -0.10651(5) 0.62704(6) -0.12280(3)
S1B S -0.06434(5) 0.85444(6) -0.08343(3)
N1B N 0.02157(15) 0.50566(18) -0.15362(10)
C1B C -0.0056(2) 0.3286(2) -0.13300(13)
H1B H -0.006(2) 0.256(2) -0.1862(13)
H2B H 0.066(2) 0.281(2) -0.0889(13)
C2B C -0.1481(2) 0.3229(2) -0.09305(13)
H3B H -0.148(2) 0.233(3) -0.0502(13)
H4B H -0.225(2) 0.303(2) -0.1378(13)
N2B N -0.16041(15) 0.48774(18) -0.05028(9)
C3B C -0.28119(19) 0.5121(2) 0.00196(12)
H5B H -0.2829(19) 0.628(2) 0.0184(12)
H6B H -0.371(2) 0.485(2) -0.0345(12)
C4B C -0.2705(2) 0.4000(3) 0.08456(13)
H7B H -0.362(2) 0.393(2) 0.1053(14)
H8B H -0.246(2) 0.296(3) 0.0683(13)
C5B C 0.16957(19) 0.5505(3) -0.16569(12)
H9B H 0.1671 0.6433 -0.2071
H10B H 0.2119 0.4559 -0.1937
C6B C -0.24507(19) 0.6328(2) -0.21448(12)
C7B C -0.2325(2) 0.5485(2) -0.29351(12)
H11B H -0.1454(19) 0.487(2) -0.3015(11)
C8B C -0.3400(2) 0.5599(2) -0.36284(13)
H12B H -0.325(2) 0.506(3) -0.4161(14)
C9B C -0.4624(2) 0.6514(3) -0.35240(14)
H13B H -0.535(2) 0.660(3) -0.3989(14)
C10B C -0.4765(2) 0.7346(3) -0.27348(13)
H14B H -0.558(2) 0.800(3) -0.2659(15)
C11B C -0.3691(2) 0.7258(2) -0.20510(13)
H15B H -0.379(2) 0.789(3) -0.1490(13)
P1 P 0.10651(5) 0.37296(6) 1.12280(3)
S1 S 0.06434(5) 0.14556(6) 1.08343(3)
N1 N -0.02157(15) 0.49434(18) 1.15362(10)
C1 C 0.0056(2) 0.6714(2) 1.13300(13)
H1 H 0.006(2) 0.744(2) 1.1862(13)
H2 H -0.066(2) 0.719(2) 1.0889(13)
C2 C 0.1481(2) 0.6771(2) 1.09305(13)
H3 H 0.148(2) 0.767(3) 1.0502(13)
H4 H 0.225(2) 0.697(2) 1.1378(13)
N2 N 0.16041(15) 0.51226(18) 1.05028(9)
C3 C 0.28119(19) 0.4879(2) 0.99804(12)
H5 H 0.2829(19) 0.372(2) 0.9816(12)
H6 H 0.371(2) 0.515(2) 1.0345(12)
C4 C 0.2705(2) 0.6000(3) 0.91544(13)
H7 H 0.362(2) 0.607(2) 0.8947(14)
H8 H 0.246(2) 0.704(3) 0.9317(13)
C5 C -0.16957(19) 0.4495(3) 1.16569(12)
H9 H -0.1671 0.3567 1.2071
H10 H -0.2119 0.5441 1.1937
C6 C 0.24507(19) 0.3672(2) 1.21448(12)
C7 C 0.2325(2) 0.4515(2) 1.29351(12)
H11 H 0.1454(19) 0.513(2) 1.3015(11)
C8 C 0.3400(2) 0.4401(2) 1.36284(13)
H12 H 0.325(2) 0.494(3) 1.4161(14)
C9 C 0.4624(2) 0.3486(3) 1.35240(14)
H13 H 0.535(2) 0.340(3) 1.3989(14)
C10 C 0.4765(2) 0.2654(3) 1.27348(13)
H14 H 0.558(2) 0.200(3) 1.2659(15)
C11 C 0.3691(2) 0.2742(2) 1.20510(13)
H15 H 0.379(2) 0.211(3) 1.1490(13)
P1B P -0.10651(5) 0.62704(6) 0.87720(3)
S1B S -0.06434(5) 0.85444(6) 0.91657(3)
N1B N 0.02157(15) 0.50566(18) 0.84638(10)
C1B C -0.0056(2) 0.3286(2) 0.86700(13)
H1B H -0.006(2) 0.256(2) 0.8138(13)
H2B H 0.066(2) 0.281(2) 0.9111(13)
C2B C -0.1481(2) 0.3229(2) 0.90695(13)
H3B H -0.148(2) 0.233(3) 0.9498(13)
H4B H -0.225(2) 0.303(2) 0.8622(13)
N2B N -0.16041(15) 0.48774(18) 0.94972(9)
C3B C -0.28119(19) 0.5121(2) 1.00196(12)
H5B H -0.2829(19) 0.628(2) 1.0184(12)
H6B H -0.371(2) 0.485(2) 0.9655(12)
C4B C -0.2705(2) 0.4000(3) 1.08456(13)
H7B H -0.362(2) 0.393(2) 1.1053(14)
H8B H -0.246(2) 0.296(3) 1.0683(13)
C5B C 0.16957(19) 0.5505(3) 0.83431(12)
H9B H 0.1671 0.6433 0.7929
H10B H 0.2119 0.4559 0.8063
C6B C -0.24507(19) 0.6328(2) 0.78552(12)
C7B C -0.2325(2) 0.5485(2) 0.70649(12)
H11B H -0.1454(19) 0.487(2) 0.6985(11)
C8B C -0.3400(2) 0.5599(2) 0.63716(13)
H12B H -0.325(2) 0.506(3) 0.5839(14)
C9B C -0.4624(2) 0.6514(3) 0.64760(14)
H13B H -0.535(2) 0.660(3) 0.6011(14)
C10B C -0.4765(2) 0.7346(3) 0.72652(13)
H14B H -0.558(2) 0.800(3) 0.7341(15)
C11B C -0.3691(2) 0.7258(2) 0.79490(13)
H15B H -0.379(2) 0.789(3) 0.8510(13)
P1 P 1.10651(5) 0.37296(6) 0.12280(3)
S1 S 1.06434(5) 0.14556(6) 0.08343(3)
N1 N 0.97843(15) 0.49434(18) 0.15362(10)
C1 C 1.0056(2) 0.6714(2) 0.13300(13)
H1 H 1.006(2) 0.744(2) 0.1862(13)
H2 H 0.934(2) 0.719(2) 0.0889(13)
C2 C 1.1481(2) 0.6771(2) 0.09305(13)
H3 H 1.148(2) 0.767(3) 0.0502(13)
H4 H 1.225(2) 0.697(2) 0.1378(13)
N2 N 1.16041(15) 0.51226(18) 0.05028(9)
C3 C 1.28119(19) 0.4879(2) -0.00196(12)
H5 H 1.2829(19) 0.372(2) -0.0184(12)
H6 H 1.371(2) 0.515(2) 0.0345(12)
C4 C 1.2705(2) 0.6000(3) -0.08456(13)
H7 H 1.362(2) 0.607(2) -0.1053(14)
H8 H 1.246(2) 0.704(3) -0.0683(13)
C5 C 0.83043(19) 0.4495(3) 0.16569(12)
H9 H 0.8329 0.3567 0.2071
H10 H 0.7881 0.5441 0.1937
C6 C 1.24507(19) 0.3672(2) 0.21448(12)
C7 C 1.2325(2) 0.4515(2) 0.29351(12)
H11 H 1.1454(19) 0.513(2) 0.3015(11)
C8 C 1.3400(2) 0.4401(2) 0.36284(13)
H12 H 1.325(2) 0.494(3) 0.4161(14)
C9 C 1.4624(2) 0.3486(3) 0.35240(14)
H13 H 1.535(2) 0.340(3) 0.3989(14)
C10 C 1.4765(2) 0.2654(3) 0.27348(13)
H14 H 1.558(2) 0.200(3) 0.2659(15)
C11 C 1.3691(2) 0.2742(2) 0.20510(13)
H15 H 1.379(2) 0.211(3) 0.1490(13)
P1B P 0.89349(5) 0.62704(6) -0.12280(3)
S1B S 0.93566(5) 0.85444(6) -0.08343(3)
N1B N 1.02157(15) 0.50566(18) -0.15362(10)
C1B C 0.9944(2) 0.3286(2) -0.13300(13)
H1B H 0.994(2) 0.256(2) -0.1862(13)
H2B H 1.066(2) 0.281(2) -0.0889(13)
C2B C 0.8519(2) 0.3229(2) -0.09305(13)
H3B H 0.852(2) 0.233(3) -0.0502(13)
H4B H 0.775(2) 0.303(2) -0.1378(13)
N2B N 0.83959(15) 0.48774(18) -0.05028(9)
C3B C 0.71881(19) 0.5121(2) 0.00196(12)
H5B H 0.7171(19) 0.628(2) 0.0184(12)
H6B H 0.629(2) 0.485(2) -0.0345(12)
C4B C 0.7295(2) 0.4000(3) 0.08456(13)
H7B H 0.638(2) 0.393(2) 0.1053(14)
H8B H 0.754(2) 0.296(3) 0.0683(13)
C5B C 1.16957(19) 0.5505(3) -0.16569(12)
H9B H 1.1671 0.6433 -0.2071
H10B H 1.2119 0.4559 -0.1937
C6B C 0.75493(19) 0.6328(2) -0.21448(12)
C7B C 0.7675(2) 0.5485(2) -0.29351(12)
H11B H 0.8546(19) 0.487(2) -0.3015(11)
C8B C 0.6600(2) 0.5599(2) -0.36284(13)
H12B H 0.675(2) 0.506(3) -0.4161(14)
C9B C 0.5376(2) 0.6514(3) -0.35240(14)
H13B H 0.465(2) 0.660(3) -0.3989(14)
C10B C 0.5235(2) 0.7346(3) -0.27348(13)
H14B H 0.442(2) 0.800(3) -0.2659(15)
C11B C 0.6309(2) 0.7258(2) -0.20510(13)
H15B H 0.621(2) 0.789(3) -0.1490(13)
P1 P 1.10651(5) 0.37296(6) 1.12280(3)
S1 S 1.06434(5) 0.14556(6) 1.08343(3)
N1 N 0.97843(15) 0.49434(18) 1.15362(10)
C1 C 1.0056(2) 0.6714(2) 1.13300(13)
H1 H 1.006(2) 0.744(2) 1.1862(13)
H2 H 0.934(2) 0.719(2) 1.0889(13)
C2 C 1.1481(2) 0.6771(2) 1.09305(13)
H3 H 1.148(2) 0.767(3) 1.0502(13)
H4 H 1.225(2) 0.697(2) 1.1378(13)
N2 N 1.16041(15) 0.51226(18) 1.05028(9)
C3 C 1.28119(19) 0.4879(2) 0.99804(12)
H5 H 1.2829(19) 0.372(2) 0.9816(12)
H6 H 1.371(2) 0.515(2) 1.0345(12)
C4 C 1.2705(2) 0.6000(3) 0.91544(13)
H7 H 1.362(2) 0.607(2) 0.8947(14)
H8 H 1.246(2) 0.704(3) 0.9317(13)
C5 C 0.83043(19) 0.4495(3) 1.16569(12)
H9 H 0.8329 0.3567 1.2071
H10 H 0.7881 0.5441 1.1937
C6 C 1.24507(19) 0.3672(2) 1.21448(12)
C7 C 1.2325(2) 0.4515(2) 1.29351(12)
H11 H 1.1454(19) 0.513(2) 1.3015(11)
C8 C 1.3400(2) 0.4401(2) 1.36284(13)
H12 H 1.325(2) 0.494(3) 1.4161(14)
C9 C 1.4624(2) 0.3486(3) 1.35240(14)
H13 H 1.535(2) 0.340(3) 1.3989(14)
C10 C 1.4765(2) 0.2654(3) 1.27348(13)
H14 H 1.558(2) 0.200(3) 1.2659(15)
C11 C 1.3691(2) 0.2742(2) 1.20510(13)
H15 H 1.379(2) 0.211(3) 1.1490(13)
P1B P 0.89349(5) 0.62704(6) 0.87720(3)
S1B S 0.93566(5) 0.85444(6) 0.91657(3)
N1B N 1.02157(15) 0.50566(18) 0.84638(10)
C1B C 0.9944(2) 0.3286(2) 0.86700(13)
H1B H 0.994(2) 0.256(2) 0.8138(13)
H2B H 1.066(2) 0.281(2) 0.9111(13)
C2B C 0.8519(2) 0.3229(2) 0.90695(13)
H3B H 0.852(2) 0.233(3) 0.9498(13)
H4B H 0.775(2) 0.303(2) 0.8622(13)
N2B N 0.83959(15) 0.48774(18) 0.94972(9)
C3B C 0.71881(19) 0.5121(2) 1.00196(12)
H5B H 0.7171(19) 0.628(2) 1.0184(12)
H6B H 0.629(2) 0.485(2) 0.9655(12)
C4B C 0.7295(2) 0.4000(3) 1.08456(13)
H7B H 0.638(2) 0.393(2) 1.1053(14)
H8B H 0.754(2) 0.296(3) 1.0683(13)
C5B C 1.16957(19) 0.5505(3) 0.83431(12)
H9B H 1.1671 0.6433 0.7929
H10B H 1.2119 0.4559 0.8063
C6B C 0.75493(19) 0.6328(2) 0.78552(12)
C7B C 0.7675(2) 0.5485(2) 0.70649(12)
H11B H 0.8546(19) 0.487(2) 0.6985(11)
C8B C 0.6600(2) 0.5599(2) 0.63716(13)
H12B H 0.675(2) 0.506(3) 0.5839(14)
C9B C 0.5376(2) 0.6514(3) 0.64760(14)
H13B H 0.465(2) 0.660(3) 0.6011(14)
C10B C 0.5235(2) 0.7346(3) 0.72652(13)
H14B H 0.442(2) 0.800(3) 0.7341(15)
C11B C 0.6309(2) 0.7258(2) 0.79490(13)
H15B H 0.621(2) 0.789(3) 0.8510(13)
P1 P -0.10651(5) -0.12704(6) 0.37720(3)
S1 S -0.06434(5) -0.35444(6) 0.41657(3)
N1 N 0.02157(15) -0.00566(18) 0.34638(10)
C1 C -0.0056(2) 0.1714(2) 0.36700(13)
H1 H -0.006(2) 0.244(2) 0.3138(13)
H2 H 0.066(2) 0.219(2) 0.4111(13)
C2 C -0.1481(2) 0.1771(2) 0.40695(13)
H3 H -0.148(2) 0.267(3) 0.4498(13)
H4 H -0.225(2) 0.197(2) 0.3622(13)
N2 N -0.16041(15) 0.01226(18) 0.44972(9)
C3 C -0.28119(19) -0.0121(2) 0.50196(12)
H5 H -0.2829(19) -0.128(2) 0.5184(12)
H6 H -0.371(2) 0.015(2) 0.4655(12)
C4 C -0.2705(2) 0.1000(3) 0.58456(13)
H7 H -0.362(2) 0.107(2) 0.6053(14)
H8 H -0.246(2) 0.204(3) 0.5683(13)
C5 C 0.16957(19) -0.0505(3) 0.33431(12)
H9 H 0.1671 -0.1433 0.2929
H10 H 0.2119 0.0441 0.3063
C6 C -0.24507(19) -0.1328(2) 0.28552(12)
C7 C -0.2325(2) -0.0485(2) 0.20649(12)
H11 H -0.1454(19) 0.013(2) 0.1985(11)
C8 C -0.3400(2) -0.0599(2) 0.13716(13)
H12 H -0.325(2) -0.006(3) 0.0839(14)
C9 C -0.4624(2) -0.1514(3) 0.14760(14)
H13 H -0.535(2) -0.160(3) 0.1011(14)
C10 C -0.4765(2) -0.2346(3) 0.22652(13)
H14 H -0.558(2) -0.300(3) 0.2341(15)
C11 C -0.3691(2) -0.2258(2) 0.29490(13)
H15 H -0.379(2) -0.289(3) 0.3510(13)
P1B P 0.10651(5) 0.12704(6) 0.62280(3)
S1B S 0.06434(5) 0.35444(6) 0.58343(3)
N1B N -0.02157(15) 0.00566(18) 0.65362(10)
C1B C 0.0056(2) -0.1714(2) 0.63300(13)
H1B H 0.006(2) -0.244(2) 0.6862(13)
H2B H -0.066(2) -0.219(2) 0.5889(13)
C2B C 0.1481(2) -0.1771(2) 0.59305(13)
H3B H 0.148(2) -0.267(3) 0.5502(13)
H4B H 0.225(2) -0.197(2) 0.6378(13)
N2B N 0.16041(15) -0.01226(18) 0.55028(9)
C3B C 0.28119(19) 0.0121(2) 0.49804(12)
H5B H 0.2829(19) 0.128(2) 0.4816(12)
H6B H 0.371(2) -0.015(2) 0.5345(12)
C4B C 0.2705(2) -0.1000(3) 0.41544(13)
H7B H 0.362(2) -0.107(2) 0.3947(14)
H8B H 0.246(2) -0.204(3) 0.4317(13)
C5B C -0.16957(19) 0.0505(3) 0.66569(12)
H9B H -0.1671 0.1433 0.7071
H10B H -0.2119 -0.0441 0.6937
C6B C 0.24507(19) 0.1328(2) 0.71448(12)
C7B C 0.2325(2) 0.0485(2) 0.79351(12)
H11B H 0.1454(19) -0.013(2) 0.8015(11)
C8B C 0.3400(2) 0.0599(2) 0.86284(13)
H12B H 0.325(2) 0.006(3) 0.9161(14)
C9B C 0.4624(2) 0.1514(3) 0.85240(14)
H13B H 0.535(2) 0.160(3) 0.8989(14)
C10B C 0.4765(2) 0.2346(3) 0.77348(13)
H14B H 0.558(2) 0.300(3) 0.7659(15)
C11B C 0.3691(2) 0.2258(2) 0.70510(13)
H15B H 0.379(2) 0.289(3) 0.6490(13)
P1 P -0.10651(5) 0.87296(6) 0.37720(3)
S1 S -0.06434(5) 0.64556(6) 0.41657(3)
N1 N 0.02157(15) 0.99434(18) 0.34638(10)
C1 C -0.0056(2) 1.1714(2) 0.36700(13)
H1 H -0.006(2) 1.244(2) 0.3138(13)
H2 H 0.066(2) 1.219(2) 0.4111(13)
C2 C -0.1481(2) 1.1771(2) 0.40695(13)
H3 H -0.148(2) 1.267(3) 0.4498(13)
H4 H -0.225(2) 1.197(2) 0.3622(13)
N2 N -0.16041(15) 1.01226(18) 0.44972(9)
C3 C -0.28119(19) 0.9879(2) 0.50196(12)
H5 H -0.2829(19) 0.872(2) 0.5184(12)
H6 H -0.371(2) 1.015(2) 0.4655(12)
C4 C -0.2705(2) 1.1000(3) 0.58456(13)
H7 H -0.362(2) 1.107(2) 0.6053(14)
H8 H -0.246(2) 1.204(3) 0.5683(13)
C5 C 0.16957(19) 0.9495(3) 0.33431(12)
H9 H 0.1671 0.8567 0.2929
H10 H 0.2119 1.0441 0.3063
C6 C -0.24507(19) 0.8672(2) 0.28552(12)
C7 C -0.2325(2) 0.9515(2) 0.20649(12)
H11 H -0.1454(19) 1.013(2) 0.1985(11)
C8 C -0.3400(2) 0.9401(2) 0.13716(13)
H12 H -0.325(2) 0.994(3) 0.0839(14)
C9 C -0.4624(2) 0.8486(3) 0.14760(14)
H13 H -0.535(2) 0.840(3) 0.1011(14)
C10 C -0.4765(2) 0.7654(3) 0.22652(13)
H14 H -0.558(2) 0.700(3) 0.2341(15)
C11 C -0.3691(2) 0.7742(2) 0.29490(13)
H15 H -0.379(2) 0.711(3) 0.3510(13)
P1B P 0.10651(5) 1.12704(6) 0.62280(3)
S1B S 0.06434(5) 1.35444(6) 0.58343(3)
N1B N -0.02157(15) 1.00566(18) 0.65362(10)
C1B C 0.0056(2) 0.8286(2) 0.63300(13)
H1B H 0.006(2) 0.756(2) 0.6862(13)
H2B H -0.066(2) 0.781(2) 0.5889(13)
C2B C 0.1481(2) 0.8229(2) 0.59305(13)
H3B H 0.148(2) 0.733(3) 0.5502(13)
H4B H 0.225(2) 0.803(2) 0.6378(13)
N2B N 0.16041(15) 0.98774(18) 0.55028(9)
C3B C 0.28119(19) 1.0121(2) 0.49804(12)
H5B H 0.2829(19) 1.128(2) 0.4816(12)
H6B H 0.371(2) 0.985(2) 0.5345(12)
C4B C 0.2705(2) 0.9000(3) 0.41544(13)
H7B H 0.362(2) 0.893(2) 0.3947(14)
H8B H 0.246(2) 0.796(3) 0.4317(13)
C5B C -0.16957(19) 1.0505(3) 0.66569(12)
H9B H -0.1671 1.1433 0.7071
H10B H -0.2119 0.9559 0.6937
C6B C 0.24507(19) 1.1328(2) 0.71448(12)
C7B C 0.2325(2) 1.0485(2) 0.79351(12)
H11B H 0.1454(19) 0.987(2) 0.8015(11)
C8B C 0.3400(2) 1.0599(2) 0.86284(13)
H12B H 0.325(2) 1.006(3) 0.9161(14)
C9B C 0.4624(2) 1.1514(3) 0.85240(14)
H13B H 0.535(2) 1.160(3) 0.8989(14)
C10B C 0.4765(2) 1.2346(3) 0.77348(13)
H14B H 0.558(2) 1.300(3) 0.7659(15)
C11B C 0.3691(2) 1.2258(2) 0.70510(13)
H15B H 0.379(2) 1.289(3) 0.6490(13)
P1 P 0.89349(5) -0.12704(6) 0.37720(3)
S1 S 0.93566(5) -0.35444(6) 0.41657(3)
N1 N 1.02157(15) -0.00566(18) 0.34638(10)
C1 C 0.9944(2) 0.1714(2) 0.36700(13)
H1 H 0.994(2) 0.244(2) 0.3138(13)
H2 H 1.066(2) 0.219(2) 0.4111(13)
C2 C 0.8519(2) 0.1771(2) 0.40695(13)
H3 H 0.852(2) 0.267(3) 0.4498(13)
H4 H 0.775(2) 0.197(2) 0.3622(13)
N2 N 0.83959(15) 0.01226(18) 0.44972(9)
C3 C 0.71881(19) -0.0121(2) 0.50196(12)
H5 H 0.7171(19) -0.128(2) 0.5184(12)
H6 H 0.629(2) 0.015(2) 0.4655(12)
C4 C 0.7295(2) 0.1000(3) 0.58456(13)
H7 H 0.638(2) 0.107(2) 0.6053(14)
H8 H 0.754(2) 0.204(3) 0.5683(13)
C5 C 1.16957(19) -0.0505(3) 0.33431(12)
H9 H 1.1671 -0.1433 0.2929
H10 H 1.2119 0.0441 0.3063
C6 C 0.75493(19) -0.1328(2) 0.28552(12)
C7 C 0.7675(2) -0.0485(2) 0.20649(12)
H11 H 0.8546(19) 0.013(2) 0.1985(11)
C8 C 0.6600(2) -0.0599(2) 0.13716(13)
H12 H 0.675(2) -0.006(3) 0.0839(14)
C9 C 0.5376(2) -0.1514(3) 0.14760(14)
H13 H 0.465(2) -0.160(3) 0.1011(14)
C10 C 0.5235(2) -0.2346(3) 0.22652(13)
H14 H 0.442(2) -0.300(3) 0.2341(15)
C11 C 0.6309(2) -0.2258(2) 0.29490(13)
H15 H 0.621(2) -0.289(3) 0.3510(13)
P1B P 1.10651(5) 0.12704(6) 0.62280(3)
S1B S 1.06434(5) 0.35444(6) 0.58343(3)
N1B N 0.97843(15) 0.00566(18) 0.65362(10)
C1B C 1.0056(2) -0.1714(2) 0.63300(13)
H1B H 1.006(2) -0.244(2) 0.6862(13)
H2B H 0.934(2) -0.219(2) 0.5889(13)
C2B C 1.1481(2) -0.1771(2) 0.59305(13)
H3B H 1.148(2) -0.267(3) 0.5502(13)
H4B H 1.225(2) -0.197(2) 0.6378(13)
N2B N 1.16041(15) -0.01226(18) 0.55028(9)
C3B C 1.28119(19) 0.0121(2) 0.49804(12)
H5B H 1.2829(19) 0.128(2) 0.4816(12)
H6B H 1.371(2) -0.015(2) 0.5345(12)
C4B C 1.2705(2) -0.1000(3) 0.41544(13)
H7B H 1.362(2) -0.107(2) 0.3947(14)
H8B H 1.246(2) -0.204(3) 0.4317(13)
C5B C 0.83043(19) 0.0505(3) 0.66569(12)
H9B H 0.8329 0.1433 0.7071
H10B H 0.7881 -0.0441 0.6937
C6B C 1.24507(19) 0.1328(2) 0.71448(12)
C7B C 1.2325(2) 0.0485(2) 0.79351(12)
H11B H 1.1454(19) -0.013(2) 0.8015(11)
C8B C 1.3400(2) 0.0599(2) 0.86284(13)
H12B H 1.325(2) 0.006(3) 0.9161(14)
C9B C 1.4624(2) 0.1514(3) 0.85240(14)
H13B H 1.535(2) 0.160(3) 0.8989(14)
C10B C 1.4765(2) 0.2346(3) 0.77348(13)
H14B H 1.558(2) 0.300(3) 0.7659(15)
C11B C 1.3691(2) 0.2258(2) 0.70510(13)
H15B H 1.379(2) 0.289(3) 0.6490(13)
P1 P 0.89349(5) 0.87296(6) 0.37720(3)
S1 S 0.93566(5) 0.64556(6) 0.41657(3)
N1 N 1.02157(15) 0.99434(18) 0.34638(10)
C1 C 0.9944(2) 1.1714(2) 0.36700(13)
H1 H 0.994(2) 1.244(2) 0.3138(13)
H2 H 1.066(2) 1.219(2) 0.4111(13)
C2 C 0.8519(2) 1.1771(2) 0.40695(13)
H3 H 0.852(2) 1.267(3) 0.4498(13)
H4 H 0.775(2) 1.197(2) 0.3622(13)
N2 N 0.83959(15) 1.01226(18) 0.44972(9)
C3 C 0.71881(19) 0.9879(2) 0.50196(12)
H5 H 0.7171(19) 0.872(2) 0.5184(12)
H6 H 0.629(2) 1.015(2) 0.4655(12)
C4 C 0.7295(2) 1.1000(3) 0.58456(13)
H7 H 0.638(2) 1.107(2) 0.6053(14)
H8 H 0.754(2) 1.204(3) 0.5683(13)
C5 C 1.16957(19) 0.9495(3) 0.33431(12)
H9 H 1.1671 0.8567 0.2929
H10 H 1.2119 1.0441 0.3063
C6 C 0.75493(19) 0.8672(2) 0.28552(12)
C7 C 0.7675(2) 0.9515(2) 0.20649(12)
H11 H 0.8546(19) 1.013(2) 0.1985(11)
C8 C 0.6600(2) 0.9401(2) 0.13716(13)
H12 H 0.675(2) 0.994(3) 0.0839(14)
C9 C 0.5376(2) 0.8486(3) 0.14760(14)
H13 H 0.465(2) 0.840(3) 0.1011(14)
C10 C 0.5235(2) 0.7654(3) 0.22652(13)
H14 H 0.442(2) 0.700(3) 0.2341(15)
C11 C 0.6309(2) 0.7742(2) 0.29490(13)
H15 H 0.621(2) 0.711(3) 0.3510(13)
P1B P 1.10651(5) 1.12704(6) 0.62280(3)
S1B S 1.06434(5) 1.35444(6) 0.58343(3)
N1B N 0.97843(15) 1.00566(18) 0.65362(10)
C1B C 1.0056(2) 0.8286(2) 0.63300(13)
H1B H 1.006(2) 0.756(2) 0.6862(13)
H2B H 0.934(2) 0.781(2) 0.5889(13)
C2B C 1.1481(2) 0.8229(2) 0.59305(13)
H3B H 1.148(2) 0.733(3) 0.5502(13)
H4B H 1.225(2) 0.803(2) 0.6378(13)
N2B N 1.16041(15) 0.98774(18) 0.55028(9)
C3B C 1.28119(19) 1.0121(2) 0.49804(12)
H5B H 1.2829(19) 1.128(2) 0.4816(12)
H6B H 1.371(2) 0.985(2) 0.5345(12)
C4B C 1.2705(2) 0.9000(3) 0.41544(13)
H7B H 1.362(2) 0.893(2) 0.3947(14)
H8B H 1.246(2) 0.796(3) 0.4317(13)
C5B C 0.83043(19) 1.0505(3) 0.66569(12)
H9B H 0.8329 1.1433 0.7071
H10B H 0.7881 0.9559 0.6937
C6B C 1.24507(19) 1.1328(2) 0.71448(12)
C7B C 1.2325(2) 1.0485(2) 0.79351(12)
H11B H 1.1454(19) 0.987(2) 0.8015(11)
C8B C 1.3400(2) 1.0599(2) 0.86284(13)
H12B H 1.325(2) 1.006(3) 0.9161(14)
C9B C 1.4624(2) 1.1514(3) 0.85240(14)
H13B H 1.535(2) 1.160(3) 0.8989(14)
C10B C 1.4765(2) 1.2346(3) 0.77348(13)
H14B H 1.558(2) 1.300(3) 0.7659(15)
C11B C 1.3691(2) 1.2258(2) 0.70510(13)
H15B H 1.379(2) 1.289(3) 0.6490(13)

#END
