./ACUGUA_from_POSCAR.cif_generated_by_CrystalShift
_symmetry_cell_setting triclinic
_symmetry_space_group_name_H-M 'P 1'
loop_
_symmetry_equiv_pos_site_id
_symmetry_equiv_pos_as_xyz
1 x,y,z
_cell_length_a 8.954000
_cell_length_b 19.678000
_cell_length_c 8.877000
_cell_angle_alpha 90.000000
_cell_angle_beta 117.930000
_cell_angle_gamma 90.000000
_cell_volume 1381.913621
loop_
_atom_site_label
_atom_site_type_symbol
_atom_site_fract_x
_atom_site_fract_y
_atom_site_fract_z
H1 H 0.365400 0.917000 1.079900
H2 H 0.596100 0.732100 0.672100
H3 H 0.935600 0.813900 0.557600
H4 H 0.894400 1.059600 1.517300
H5 H 0.272500 0.672300 0.369500
H6 H 1.093400 1.009700 1.761000
H7 H 0.365400 0.583000 0.579900
H8 H 1.140300 1.049100 2.022000
H9 H 0.990400 1.140900 2.039400
H10 H 0.789800 1.192800 1.794600
H11 H 0.596100 0.767900 0.172100
H12 H 0.499900 1.090600 1.572200
H13 H 0.857200 0.770400 0.182100
H14 H 0.238700 1.094600 1.564300
H15 H 0.935600 0.686100 0.057600
H16 H 0.064400 1.186100 1.442400
H17 H 0.761300 0.594600 -0.064300
H18 H 0.142800 1.270400 1.317900
H19 H 0.500100 0.590600 -0.072200
H20 H 0.403900 1.267900 1.327900
H21 H 0.634600 1.083000 0.920100
H22 H 0.210200 0.692800 -0.294600
H23 H 0.727500 1.172300 1.130500
H24 H 0.009600 0.640900 -0.539400
H25 H 0.761300 0.905400 0.435700
H26 H -0.140300 0.549100 -0.522000
H27 H 0.365400 0.917000 0.079900
H28 H -0.093400 0.509700 -0.261000
H29 H 0.272500 0.827700 -0.130500
H30 H 0.105600 0.559600 -0.017300
H31 H 0.105600 0.940400 -0.517300
H32 H 0.272500 0.827700 0.869500
H33 H -0.093400 0.990300 -0.761000
H34 H -0.140300 0.950900 -1.022000
H35 H 0.009600 0.859100 -1.039400
H36 H 0.210200 0.807200 -0.794600
H37 H 0.403900 0.232100 0.827900
H38 H 0.500100 0.909400 -0.572200
H39 H 0.142800 0.229600 0.817900
H40 H 0.761300 0.905400 -0.564300
H41 H 0.064400 0.313900 0.942400
H42 H 0.935600 0.813900 -0.442400
H43 H 0.238700 0.405400 1.064300
H44 H 0.857200 0.729600 -0.317900
H45 H 0.499900 0.409400 1.072200
H46 H 0.596100 0.732100 -0.327900
H47 H 0.500100 0.909400 0.427800
H48 H 0.789800 0.307200 1.294600
H49 H 0.894400 1.059600 0.517300
H50 H 0.990400 0.359100 1.539400
H51 H 1.093400 1.009700 0.761000
H52 H 1.140300 0.450900 1.522000
H53 H 1.140300 1.049100 1.022000
H54 H 1.093400 0.490300 1.261000
H55 H 0.990400 1.140900 1.039400
H56 H 0.894400 0.440400 1.017300
H57 H 0.789800 1.192800 0.794600
H58 H 0.727500 0.327700 0.630500
H59 H 0.499900 1.090600 0.572200
H60 H 0.634600 0.417000 0.420100
H61 H 0.105600 0.940400 0.482700
H62 H 0.238700 1.094600 0.564300
H63 H 0.064400 1.186100 0.442400
H64 H 0.142800 1.270400 0.317900
H65 H 0.727500 0.172300 0.130500
H66 H 0.403900 1.267900 0.327900
H67 H 0.634600 0.083000 -0.079900
H68 H 0.634600 1.083000 -0.079900
H69 H 0.727500 1.172300 0.130500
H70 H 0.210200 0.807200 0.205400
H71 H 0.403900 0.267900 0.327900
H72 H 0.365400 -0.083000 1.079900
H73 H 0.142800 0.270400 0.317900
H74 H 0.272500 -0.172300 0.869500
H75 H 0.064400 0.186100 0.442400
H76 H 0.105600 -0.059600 0.482700
H77 H 0.238700 0.094600 0.564300
H78 H -0.093400 -0.009700 0.239000
H79 H 0.499900 0.090600 0.572200
H80 H -0.140300 -0.049100 -0.022000
H81 H 0.009600 -0.140900 -0.039400
H82 H 0.789800 0.192800 0.794600
H83 H 0.210200 -0.192800 0.205400
H84 H 0.990400 0.140900 1.039400
H85 H 0.500100 -0.090600 0.427800
H86 H 1.140300 0.049100 1.022000
H87 H 0.761300 -0.094600 0.435700
H88 H 1.093400 0.009700 0.761000
H89 H 0.935600 -0.186100 0.557600
H90 H 0.894400 0.059600 0.517300
H91 H 0.857200 -0.270400 0.682100
H92 H -0.093400 0.990300 0.239000
H93 H 0.596100 -0.267900 0.672100
H94 H 0.009600 0.859100 -0.039400
H95 H 0.894400 0.059600 1.517300
H96 H 1.093400 0.009700 1.761000
H97 H 0.596100 -0.267900 -0.327900
H98 H 1.140300 0.049100 2.022000
H99 H 0.857200 -0.270400 -0.317900
H100 H 0.990400 0.140900 2.039400
H101 H 0.935600 -0.186100 -0.442400
H102 H 0.789800 0.192800 1.794600
H103 H 0.761300 -0.094600 -0.564300
H104 H 0.857200 0.729600 0.682100
H105 H 0.500100 -0.090600 -0.572200
H106 H 0.499900 0.090600 1.572200
H107 H 0.238700 0.094600 1.564300
H108 H 0.210200 -0.192800 -0.794600
H109 H 0.064400 0.186100 1.442400
H110 H 0.009600 -0.140900 -1.039400
H111 H 0.142800 0.270400 1.317900
H112 H -0.140300 -0.049100 -1.022000
H113 H 0.403900 0.267900 1.327900
H114 H -0.093400 -0.009700 -0.761000
H115 H 0.634600 0.083000 0.920100
H116 H 0.105600 -0.059600 -0.517300
H117 H 0.727500 0.172300 1.130500
H118 H 0.272500 -0.172300 -0.130500
H119 H -0.140300 0.950900 -0.022000
H120 H 0.365400 -0.083000 0.079900
C121 C 0.383300 -0.082090 -0.015100
C122 C -0.060100 0.930000 0.076900
C123 C 0.633200 0.122650 1.266500
C124 C 0.670800 0.133760 1.137200
C125 C 0.329200 -0.133760 -0.137200
C126 C 0.616700 0.082090 1.015100
C127 C 0.087400 -0.076400 -0.622400
C128 C 0.536100 0.030860 1.047700
C129 C 0.478900 0.178600 1.450500
C130 C 0.371100 0.232600 1.375500
C131 C -0.031600 -0.046400 -0.768000
C132 C 0.215800 0.234400 1.370900
C133 C -0.060100 -0.070000 -0.923100
C134 C 0.168500 0.183900 1.443100
C135 C 0.029700 -0.124600 -0.933200
C136 C 0.272600 0.129700 1.517000
C137 C 0.150200 -0.155600 -0.786600
C138 C 0.428500 0.127280 1.521100
C139 C 0.181500 -0.131270 -0.627400
C140 C 0.571500 -0.127280 -0.521100
C141 C 0.849800 0.155600 1.786600
C142 C 0.727400 -0.129700 -0.517000
C143 C 0.970300 0.124600 1.933200
C144 C 0.831500 -0.183900 -0.443100
C145 C 1.060100 0.070000 1.923100
C146 C 0.784200 -0.234400 -0.370900
C147 C 1.031600 0.046400 1.768000
C148 C 0.628900 -0.232600 -0.375500
C149 C 0.912600 0.076400 1.622400
C150 C 0.521100 -0.178600 -0.450500
C151 C 0.463900 -0.030860 0.952300
C152 C -0.031600 0.953600 0.232000
C153 C 0.366800 -0.122650 0.733500
C154 C 0.029700 0.875400 0.066800
C155 C 0.521100 -0.178600 0.549500
C156 C 0.628900 -0.232600 0.624500
C157 C 0.366800 -0.122650 -0.266500
C158 C 0.784200 -0.234400 0.629100
C159 C 0.463900 -0.030860 -0.047700
C160 C 0.831500 -0.183900 0.556900
C161 C 0.912600 0.076400 0.622400
C162 C 0.727400 -0.129700 0.483000
C163 C 1.031600 0.046400 0.768000
C164 C 0.571500 -0.127280 0.478900
C165 C 1.060100 0.070000 0.923100
C166 C 0.181500 -0.131270 0.372600
C167 C 0.150200 -0.155600 0.213400
C168 C 0.970300 0.124600 0.933200
C169 C 0.029700 -0.124600 0.066800
C170 C 0.849800 0.155600 0.786600
C171 C -0.060100 -0.070000 0.076900
C172 C 0.818500 0.131270 0.627400
C173 C -0.031600 -0.046400 0.232000
C174 C 0.428500 0.127280 0.521100
C175 C 0.087400 -0.076400 0.377600
C176 C 0.272600 0.129700 0.517000
C177 C 0.329200 -0.133760 0.862800
C178 C 0.168500 0.183900 0.443100
C179 C 0.383300 -0.082090 0.984900
C180 C 0.215800 0.234400 0.370900
C181 C 0.371100 0.232600 0.375500
C182 C 0.150200 0.844400 0.213400
C183 C 0.633200 1.122650 0.266500
C184 C 0.670800 1.133760 0.137200
C185 C 0.478900 0.178600 0.450500
C186 C 0.616700 1.082090 0.015100
C187 C 0.536100 0.030860 0.047700
C188 C 0.536100 1.030860 0.047700
C189 C 0.478900 1.178600 0.450500
C190 C 0.371100 1.232600 0.375500
C191 C 0.616700 0.082090 0.015100
C192 C 0.215800 1.234400 0.370900
C193 C 0.670800 0.133760 0.137200
C194 C 0.168500 1.183900 0.443100
C195 C 0.633200 0.122650 0.266500
C196 C 0.272600 1.129700 0.517000
C197 C 0.087400 0.923600 0.377600
C198 C 0.428500 1.127280 0.521100
C199 C 0.616700 0.417910 0.515100
C200 C 0.818500 1.131270 0.627400
C201 C 0.849800 1.155600 0.786600
C202 C 0.670800 0.366240 0.637200
C203 C 0.970300 1.124600 0.933200
C204 C 0.912600 0.423600 1.122400
C205 C 1.060100 1.070000 0.923100
C206 C 1.031600 0.453600 1.268000
C207 C 1.031600 1.046400 0.768000
C208 C 1.060100 0.430000 1.423100
C209 C 0.912600 1.076400 0.622400
C210 C 0.970300 0.375400 1.433200
C211 C 0.463900 0.969140 -0.047700
C212 C 0.181500 0.868730 0.372600
C213 C 0.366800 0.877350 -0.266500
C214 C 0.849800 0.344400 1.286600
C215 C 0.521100 0.821400 -0.450500
C216 C 0.628900 0.767400 -0.375500
C217 C 0.818500 0.368730 1.127400
C218 C 0.784200 0.765600 -0.370900
C219 C 0.428500 0.372720 1.021100
C220 C 0.831500 0.816100 -0.443100
C221 C 0.272600 0.370300 1.017000
C222 C 0.727400 0.870300 -0.517000
C223 C 0.168500 0.316100 0.943100
C224 C 0.571500 0.872720 -0.521100
C225 C 0.215800 0.265600 0.870900
C226 C 0.181500 0.868730 -0.627400
C227 C 0.150200 0.844400 -0.786600
C228 C 0.371100 0.267400 0.875500
C229 C 0.029700 0.875400 -0.933200
C230 C 0.478900 0.321400 0.950500
C231 C -0.060100 0.930000 -0.923100
C232 C 0.329200 0.866240 0.862800
C233 C -0.031600 0.953600 -0.768000
C234 C 0.633200 0.377350 0.766500
C235 C 0.087400 0.923600 -0.622400
C236 C 0.536100 0.469140 0.547700
C237 C 0.329200 0.866240 -0.137200
C238 C 0.087400 0.576400 -0.122400
C239 C 0.383300 0.917910 -0.015100
C240 C -0.031600 0.546400 -0.268000
C241 C 0.571500 0.872720 0.478900
C242 C -0.060100 0.570000 -0.423100
C243 C 0.633200 1.122650 1.266500
C244 C 0.670800 1.133760 1.137200
C245 C 0.029700 0.624600 -0.433200
C246 C 0.616700 1.082090 1.015100
C247 C 0.150200 0.655600 -0.286600
C248 C 0.536100 1.030860 1.047700
C249 C 0.478900 1.178600 1.450500
C250 C 0.371100 1.232600 1.375500
C251 C 0.181500 0.631270 -0.127400
C252 C 0.215800 1.234400 1.370900
C253 C 0.571500 0.627280 -0.021100
C254 C 0.168500 1.183900 1.443100
C255 C 0.727400 0.629700 -0.017000
C256 C 0.272600 1.129700 1.517000
C257 C 0.831500 0.683900 0.056900
C258 C 0.428500 1.127280 1.521100
C259 C 0.784200 0.734400 0.129100
C260 C 0.818500 1.131270 1.627400
C261 C 0.849800 1.155600 1.786600
C262 C 0.628900 0.732600 0.124500
C263 C 0.970300 1.124600 1.933200
C264 C 0.521100 0.678600 0.049500
C265 C 1.060100 1.070000 1.923100
C266 C 0.463900 0.530860 0.452300
C267 C 1.031600 1.046400 1.768000
C268 C 0.383300 0.582090 0.484900
C269 C 0.912600 1.076400 1.622400
C270 C 0.329200 0.633760 0.362800
C271 C 0.463900 0.969140 0.952300
C272 C 0.727400 0.870300 0.483000
C273 C 0.366800 0.877350 0.733500
C274 C 0.366800 0.622650 0.233500
C275 C 0.521100 0.821400 0.549500
C276 C 0.628900 0.767400 0.624500
C277 C 0.383300 0.917910 0.984900
C278 C 0.784200 0.765600 0.629100
C279 C 0.818500 0.131270 1.627400
C280 C 0.831500 0.816100 0.556900
P281 P 0.321810 0.820030 0.559370
P282 P 0.678190 0.320030 0.940630
P283 P 0.678190 0.179970 0.440630
P284 P 0.678190 1.179970 1.440630
P285 P 0.321810 0.820030 -0.440630
P286 P 0.321810 -0.179970 -0.440630
P287 P 0.678190 0.179970 1.440630
P288 P 0.678190 1.179970 0.440630
P289 P 0.321810 -0.179970 0.559370
P290 P 0.321810 0.679970 0.059370
S291 S 0.472070 -0.046400 0.765840
S292 S 0.527930 1.046400 0.234160
S293 S 0.472070 0.953600 -0.234160
S294 S 0.472070 -0.046400 -0.234160
S295 S 0.527930 0.046400 0.234160
S296 S 0.527930 1.046400 1.234160
S297 S 0.472070 0.953600 0.765840
S298 S 0.527930 0.453600 0.734160
S299 S 0.472070 0.546400 0.265840
S300 S 0.527930 0.046400 1.234160

#END
