
#######################################################################
#
#                 Cambridge Crystallographic Data Centre
#                                CCDC 
#
#######################################################################
#
# If this CIF has been generated from an entry in the Cambridge 
# Structural Database, then it will include bibliographic, chemical, 
# crystal, experimental, refinement or atomic coordinate data resulting 
# from the CCDC's data processing and validation procedures.
#
#######################################################################

data_ACUGOW
_symmetry_cell_setting           orthorhombic
_symmetry_space_group_name_H-M   'P b c a'
_symmetry_Int_Tables_number      61
_space_group_name_Hall           '-P 2ac 2ab'
loop_
_symmetry_equiv_pos_site_id
_symmetry_equiv_pos_as_xyz
1 x,y,z
2 1/2+x,1/2-y,-z
3 -x,1/2+y,1/2-z
4 1/2-x,-y,1/2+z
5 -x,-y,-z
6 1/2-x,1/2+y,z
7 x,1/2-y,1/2+z
8 1/2+x,y,1/2-z
_cell_length_a                   11.981(5)
_cell_length_b                   13.226(5)
_cell_length_c                   25.946(10)
_cell_angle_alpha                90
_cell_angle_beta                 90
_cell_angle_gamma                90
_cell_volume                     4111.42
loop_
_atom_site_label
_atom_site_type_symbol
_atom_site_fract_x
_atom_site_fract_y
_atom_site_fract_z
Co1 Co 0.05270(5) 0.21711(5) 0.12639(2)
Cl1 Cl -0.02174(14) 0.34750(11) 0.08048(6)
Cl2 Cl -0.06848(12) 0.08799(10) 0.12358(5)
Cl3 Cl 0.08198(12) 0.25981(12) 0.21063(5)
Cl4 Cl 0.21929(11) 0.17851(12) 0.09060(5)
Co1 Co 0.55270(5) 0.28289(5) 0.87361(2)
Cl1 Cl 0.47826(14) 0.15250(11) 0.91952(6)
Cl2 Cl 0.43152(12) 0.41201(10) 0.87642(5)
Cl3 Cl 0.58198(12) 0.24019(12) 0.78937(5)
Cl4 Cl 0.71929(11) 0.32149(12) 0.90940(5)
Co1 Co 0.94730(5) 0.71711(5) 0.37361(2)
Cl1 Cl 1.02174(14) 0.84750(11) 0.41952(6)
Cl2 Cl 1.06848(12) 0.58799(10) 0.37642(5)
Cl3 Cl 0.91802(12) 0.75981(12) 0.28937(5)
Cl4 Cl 0.78071(11) 0.67851(12) 0.40940(5)
Co1 Co 0.44730(5) 0.78289(5) 0.62639(2)
Cl1 Cl 0.52174(14) 0.65250(11) 0.58048(6)
Cl2 Cl 0.56848(12) 0.91201(10) 0.62358(5)
Cl3 Cl 0.41802(12) 0.74019(12) 0.71063(5)
Cl4 Cl 0.28071(11) 0.82149(12) 0.59060(5)
Co1 Co 0.94730(5) 0.78289(5) 0.87361(2)
Cl1 Cl 1.02174(14) 0.65250(11) 0.91952(6)
Cl2 Cl 1.06848(12) 0.91201(10) 0.87642(5)
Cl3 Cl 0.91802(12) 0.74019(12) 0.78937(5)
Cl4 Cl 0.78071(11) 0.82149(12) 0.90940(5)
Co1 Co 0.44730(5) 0.71711(5) 0.12639(2)
Cl1 Cl 0.52174(14) 0.84750(11) 0.08048(6)
Cl2 Cl 0.56848(12) 0.58799(10) 0.12358(5)
Cl3 Cl 0.41802(12) 0.75981(12) 0.21063(5)
Cl4 Cl 0.28071(11) 0.67851(12) 0.09060(5)
Co1 Co 0.05270(5) 0.28289(5) 0.62639(2)
Cl1 Cl -0.02174(14) 0.15250(11) 0.58048(6)
Cl2 Cl -0.06848(12) 0.41201(10) 0.62358(5)
Cl3 Cl 0.08198(12) 0.24019(12) 0.71063(5)
Cl4 Cl 0.21929(11) 0.32149(12) 0.59060(5)
Co1 Co 0.55270(5) 0.21711(5) 0.37361(2)
Cl1 Cl 0.47826(14) 0.34750(11) 0.41952(6)
Cl2 Cl 0.43152(12) 0.08799(10) 0.37642(5)
Cl3 Cl 0.58198(12) 0.25981(12) 0.28937(5)
Cl4 Cl 0.71929(11) 0.17851(12) 0.40940(5)
N1 N 0.2550(4) 0.4391(4) 0.23571(17)
C1 C 0.3882(5) 0.3716(5) 0.1714(2)
H1 H 0.4369 0.3915 0.1438
H2 H 0.3332 0.3252 0.1585
H3 H 0.4310 0.3393 0.1980
C2 C 0.3327(6) 0.4609(5) 0.1925(2)
H4 H 0.2913 0.4938 0.1651
H5 H 0.3891 0.5080 0.2044
C3 C 0.3132(5) 0.4070(6) 0.2830(2)
H6 H 0.3725 0.3609 0.2734
H7 H 0.3478 0.4660 0.2985
C4 C 0.2438(5) 0.3579(5) 0.3221(2)
H8 H 0.2892 0.3396 0.3511
H9 H 0.2104 0.2982 0.3078
H10 H 0.1862 0.4036 0.3331
C5 C 0.1254(8) 0.5774(8) 0.2169(4)
H11 H 0.0886 0.6314 0.2349
H12 H 0.0705 0.5342 0.2013
H13 H 0.1727 0.6051 0.1906
C6 C 0.1830(8) 0.5274(7) 0.2479(4)
H14 H 0.1314 0.5041 0.2742
H15 H 0.2315 0.5760 0.2647
H16 H 0.212(4) 0.394(4) 0.2253(18)
N1 N 0.7550(4) 0.0609(4) 0.76429(17)
C1 C 0.8882(5) 0.1284(5) 0.8286(2)
H1 H 0.9369 0.1085 0.8562
H2 H 0.8332 0.1748 0.8415
H3 H 0.9310 0.1607 0.8020
C2 C 0.8327(6) 0.0391(5) 0.8075(2)
H4 H 0.7913 0.0062 0.8349
H5 H 0.8891 -0.0080 0.7956
C3 C 0.8132(5) 0.0930(6) 0.7170(2)
H6 H 0.8725 0.1391 0.7266
H7 H 0.8478 0.0340 0.7015
C4 C 0.7438(5) 0.1421(5) 0.6779(2)
H8 H 0.7892 0.1604 0.6489
H9 H 0.7104 0.2018 0.6922
H10 H 0.6862 0.0964 0.6669
C5 C 0.6254(8) -0.0774(8) 0.7831(4)
H11 H 0.5886 -0.1314 0.7651
H12 H 0.5705 -0.0342 0.7987
H13 H 0.6727 -0.1051 0.8094
C6 C 0.6830(8) -0.0274(7) 0.7521(4)
H14 H 0.6314 -0.0041 0.7258
H15 H 0.7315 -0.0760 0.7353
H16 H 0.712(4) 0.106(4) 0.7747(18)
N1 N 0.7450(4) 0.9391(4) 0.26429(17)
C1 C 0.6118(5) 0.8716(5) 0.3286(2)
H1 H 0.5631 0.8915 0.3562
H2 H 0.6668 0.8252 0.3415
H3 H 0.5690 0.8393 0.3020
C2 C 0.6673(6) 0.9609(5) 0.3075(2)
H4 H 0.7087 0.9938 0.3349
H5 H 0.6109 1.0080 0.2956
C3 C 0.6868(5) 0.9070(6) 0.2170(2)
H6 H 0.6275 0.8609 0.2266
H7 H 0.6522 0.9660 0.2015
C4 C 0.7562(5) 0.8579(5) 0.1779(2)
H8 H 0.7108 0.8396 0.1489
H9 H 0.7896 0.7982 0.1922
H10 H 0.8138 0.9036 0.1669
C5 C 0.8746(8) 1.0774(8) 0.2831(4)
H11 H 0.9114 1.1314 0.2651
H12 H 0.9295 1.0342 0.2987
H13 H 0.8273 1.1051 0.3094
C6 C 0.8170(8) 1.0274(7) 0.2521(4)
H14 H 0.8686 1.0041 0.2258
H15 H 0.7685 1.0760 0.2353
H16 H 0.788(4) 0.894(4) 0.2747(18)
N1 N 0.2450(4) 0.5609(4) 0.73571(17)
C1 C 0.1118(5) 0.6284(5) 0.6714(2)
H1 H 0.0631 0.6085 0.6438
H2 H 0.1668 0.6748 0.6585
H3 H 0.0690 0.6607 0.6980
C2 C 0.1673(6) 0.5391(5) 0.6925(2)
H4 H 0.2087 0.5062 0.6651
H5 H 0.1109 0.4920 0.7044
C3 C 0.1868(5) 0.5930(6) 0.7830(2)
H6 H 0.1275 0.6391 0.7734
H7 H 0.1522 0.5340 0.7985
C4 C 0.2562(5) 0.6421(5) 0.8221(2)
H8 H 0.2108 0.6604 0.8511
H9 H 0.2896 0.7018 0.8078
H10 H 0.3138 0.5964 0.8331
C5 C 0.3746(8) 0.4226(8) 0.7169(4)
H11 H 0.4114 0.3686 0.7349
H12 H 0.4295 0.4658 0.7013
H13 H 0.3273 0.3949 0.6906
C6 C 0.3170(8) 0.4726(7) 0.7479(4)
H14 H 0.3686 0.4959 0.7742
H15 H 0.2685 0.4240 0.7647
H16 H 0.288(4) 0.606(4) 0.7253(18)
N1 N 0.7450(4) 0.5609(4) 0.76429(17)
C1 C 0.6118(5) 0.6284(5) 0.8286(2)
H1 H 0.5631 0.6085 0.8562
H2 H 0.6668 0.6748 0.8415
H3 H 0.5690 0.6607 0.8020
C2 C 0.6673(6) 0.5391(5) 0.8075(2)
H4 H 0.7087 0.5062 0.8349
H5 H 0.6109 0.4920 0.7956
C3 C 0.6868(5) 0.5930(6) 0.7170(2)
H6 H 0.6275 0.6391 0.7266
H7 H 0.6522 0.5340 0.7015
C4 C 0.7562(5) 0.6421(5) 0.6779(2)
H8 H 0.7108 0.6604 0.6489
H9 H 0.7896 0.7018 0.6922
H10 H 0.8138 0.5964 0.6669
C5 C 0.8746(8) 0.4226(8) 0.7831(4)
H11 H 0.9114 0.3686 0.7651
H12 H 0.9295 0.4658 0.7987
H13 H 0.8273 0.3949 0.8094
C6 C 0.8170(8) 0.4726(7) 0.7521(4)
H14 H 0.8686 0.4959 0.7258
H15 H 0.7685 0.4240 0.7353
H16 H 0.788(4) 0.606(4) 0.7747(18)
N1 N 0.2450(4) 0.9391(4) 0.23571(17)
C1 C 0.1118(5) 0.8716(5) 0.1714(2)
H1 H 0.0631 0.8915 0.1438
H2 H 0.1668 0.8252 0.1585
H3 H 0.0690 0.8393 0.1980
C2 C 0.1673(6) 0.9609(5) 0.1925(2)
H4 H 0.2087 0.9938 0.1651
H5 H 0.1109 1.0080 0.2044
C3 C 0.1868(5) 0.9070(6) 0.2830(2)
H6 H 0.1275 0.8609 0.2734
H7 H 0.1522 0.9660 0.2985
C4 C 0.2562(5) 0.8579(5) 0.3221(2)
H8 H 0.2108 0.8396 0.3511
H9 H 0.2896 0.7982 0.3078
H10 H 0.3138 0.9036 0.3331
C5 C 0.3746(8) 1.0774(8) 0.2169(4)
H11 H 0.4114 1.1314 0.2349
H12 H 0.4295 1.0342 0.2013
H13 H 0.3273 1.1051 0.1906
C6 C 0.3170(8) 1.0274(7) 0.2479(4)
H14 H 0.3686 1.0041 0.2742
H15 H 0.2685 1.0760 0.2647
H16 H 0.288(4) 0.894(4) 0.2253(18)
N1 N 0.2550(4) 0.0609(4) 0.73571(17)
C1 C 0.3882(5) 0.1284(5) 0.6714(2)
H1 H 0.4369 0.1085 0.6438
H2 H 0.3332 0.1748 0.6585
H3 H 0.4310 0.1607 0.6980
C2 C 0.3327(6) 0.0391(5) 0.6925(2)
H4 H 0.2913 0.0062 0.6651
H5 H 0.3891 -0.0080 0.7044
C3 C 0.3132(5) 0.0930(6) 0.7830(2)
H6 H 0.3725 0.1391 0.7734
H7 H 0.3478 0.0340 0.7985
C4 C 0.2438(5) 0.1421(5) 0.8221(2)
H8 H 0.2892 0.1604 0.8511
H9 H 0.2104 0.2018 0.8078
H10 H 0.1862 0.0964 0.8331
C5 C 0.1254(8) -0.0774(8) 0.7169(4)
H11 H 0.0886 -0.1314 0.7349
H12 H 0.0705 -0.0342 0.7013
H13 H 0.1727 -0.1051 0.6906
C6 C 0.1830(8) -0.0274(7) 0.7479(4)
H14 H 0.1314 -0.0041 0.7742
H15 H 0.2315 -0.0760 0.7647
H16 H 0.212(4) 0.106(4) 0.7253(18)
N1 N 0.7550(4) 0.4391(4) 0.26429(17)
C1 C 0.8882(5) 0.3716(5) 0.3286(2)
H1 H 0.9369 0.3915 0.3562
H2 H 0.8332 0.3252 0.3415
H3 H 0.9310 0.3393 0.3020
C2 C 0.8327(6) 0.4609(5) 0.3075(2)
H4 H 0.7913 0.4938 0.3349
H5 H 0.8891 0.5080 0.2956
C3 C 0.8132(5) 0.4070(6) 0.2170(2)
H6 H 0.8725 0.3609 0.2266
H7 H 0.8478 0.4660 0.2015
C4 C 0.7438(5) 0.3579(5) 0.1779(2)
H8 H 0.7892 0.3396 0.1489
H9 H 0.7104 0.2982 0.1922
H10 H 0.6862 0.4036 0.1669
C5 C 0.6254(8) 0.5774(8) 0.2831(4)
H11 H 0.5886 0.6314 0.2651
H12 H 0.5705 0.5342 0.2987
H13 H 0.6727 0.6051 0.3094
C6 C 0.6830(8) 0.5274(7) 0.2521(4)
H14 H 0.6314 0.5041 0.2258
H15 H 0.7315 0.5760 0.2353
H16 H 0.712(4) 0.394(4) 0.2747(18)
N2 N 0.1187(4) 0.3092(3) 0.97674(17)
C7 C 0.2315(6) 0.4566(4) 1.0047(3)
H17 H 0.3066 0.4816 1.0066
H18 H 0.2003 0.4532 1.0387
H19 H 0.1874 0.5013 0.9839
C8 C 0.2319(5) 0.3537(5) 0.9812(2)
H20 H 0.2651 0.3575 0.9472
H21 H 0.2780 0.3093 1.0020
C9 C 0.1263(5) 0.2003(4) 0.9598(2)
H22 H 0.1468 0.1980 0.9236
H23 H 0.1847 0.1669 0.9793
C10 C 0.0190(5) 0.1446(4) 0.9673(2)
H24 H 0.0279 0.0758 0.9563
H25 H -0.0386 0.1763 0.9473
H26 H -0.0011 0.1460 1.0031
C11 C 0.0734(7) 0.3786(5) 0.8894(2)
H27 H 0.0194 0.4182 0.8709
H28 H 0.0776 0.3122 0.8746
H29 H 0.1451 0.4107 0.8872
C12 C 0.0390(5) 0.3705(4) 0.9450(2)
H30 H 0.0336 0.4379 0.9595
H31 H -0.0344 0.3398 0.9468
H32 H 0.089(3) 0.310(3) 1.0084(17)
N2 N 0.6187(4) 0.1908(3) 0.02326(17)
C7 C 0.7315(6) 0.0434(4) -0.0047(3)
H17 H 0.8066 0.0184 -0.0066
H18 H 0.7003 0.0468 -0.0387
H19 H 0.6874 -0.0013 0.0161
C8 C 0.7319(5) 0.1463(5) 0.0188(2)
H20 H 0.7651 0.1425 0.0528
H21 H 0.7780 0.1907 -0.0020
C9 C 0.6263(5) 0.2997(4) 0.0402(2)
H22 H 0.6468 0.3020 0.0764
H23 H 0.6847 0.3331 0.0207
C10 C 0.5190(5) 0.3554(4) 0.0327(2)
H24 H 0.5279 0.4242 0.0437
H25 H 0.4614 0.3237 0.0527
H26 H 0.4989 0.3540 -0.0031
C11 C 0.5734(7) 0.1214(5) 0.1106(2)
H27 H 0.5194 0.0818 0.1291
H28 H 0.5776 0.1878 0.1254
H29 H 0.6451 0.0893 0.1128
C12 C 0.5390(5) 0.1295(4) 0.0550(2)
H30 H 0.5336 0.0621 0.0405
H31 H 0.4656 0.1602 0.0532
H32 H 0.589(3) 0.190(3) -0.0084(17)
N2 N 0.8813(4) 0.8092(3) 0.52326(17)
C7 C 0.7685(6) 0.9566(4) 0.4953(3)
H17 H 0.6934 0.9816 0.4934
H18 H 0.7997 0.9532 0.4613
H19 H 0.8126 1.0013 0.5161
C8 C 0.7681(5) 0.8537(5) 0.5188(2)
H20 H 0.7349 0.8575 0.5528
H21 H 0.7220 0.8093 0.4980
C9 C 0.8737(5) 0.7003(4) 0.5402(2)
H22 H 0.8532 0.6980 0.5764
H23 H 0.8153 0.6669 0.5207
C10 C 0.9810(5) 0.6446(4) 0.5327(2)
H24 H 0.9721 0.5758 0.5437
H25 H 1.0386 0.6763 0.5527
H26 H 1.0011 0.6460 0.4969
C11 C 0.9266(7) 0.8786(5) 0.6106(2)
H27 H 0.9806 0.9182 0.6291
H28 H 0.9224 0.8122 0.6254
H29 H 0.8549 0.9107 0.6128
C12 C 0.9610(5) 0.8705(4) 0.5550(2)
H30 H 0.9664 0.9379 0.5405
H31 H 1.0344 0.8398 0.5532
H32 H 0.911(3) 0.810(3) 0.4916(17)
N2 N 0.3813(4) 0.6908(3) 0.47674(17)
C7 C 0.2685(6) 0.5434(4) 0.5047(3)
H17 H 0.1934 0.5184 0.5066
H18 H 0.2997 0.5468 0.5387
H19 H 0.3126 0.4987 0.4839
C8 C 0.2681(5) 0.6463(5) 0.4812(2)
H20 H 0.2349 0.6425 0.4472
H21 H 0.2220 0.6907 0.5020
C9 C 0.3737(5) 0.7997(4) 0.4598(2)
H22 H 0.3532 0.8020 0.4236
H23 H 0.3153 0.8331 0.4793
C10 C 0.4810(5) 0.8554(4) 0.4673(2)
H24 H 0.4721 0.9242 0.4563
H25 H 0.5386 0.8237 0.4473
H26 H 0.5011 0.8540 0.5031
C11 C 0.4266(7) 0.6214(5) 0.3894(2)
H27 H 0.4806 0.5818 0.3709
H28 H 0.4224 0.6878 0.3746
H29 H 0.3549 0.5893 0.3872
C12 C 0.4610(5) 0.6295(4) 0.4450(2)
H30 H 0.4664 0.5621 0.4595
H31 H 0.5344 0.6602 0.4468
H32 H 0.411(3) 0.690(3) 0.5084(17)
N2 N 0.8813(4) 0.6908(3) 0.02326(17)
C7 C 0.7685(6) 0.5434(4) -0.0047(3)
H17 H 0.6934 0.5184 -0.0066
H18 H 0.7997 0.5468 -0.0387
H19 H 0.8126 0.4987 0.0161
C8 C 0.7681(5) 0.6463(5) 0.0188(2)
H20 H 0.7349 0.6425 0.0528
H21 H 0.7220 0.6907 -0.0020
C9 C 0.8737(5) 0.7997(4) 0.0402(2)
H22 H 0.8532 0.8020 0.0764
H23 H 0.8153 0.8331 0.0207
C10 C 0.9810(5) 0.8554(4) 0.0327(2)
H24 H 0.9721 0.9242 0.0437
H25 H 1.0386 0.8237 0.0527
H26 H 1.0011 0.8540 -0.0031
C11 C 0.9266(7) 0.6214(5) 0.1106(2)
H27 H 0.9806 0.5818 0.1291
H28 H 0.9224 0.6878 0.1254
H29 H 0.8549 0.5893 0.1128
C12 C 0.9610(5) 0.6295(4) 0.0550(2)
H30 H 0.9664 0.5621 0.0405
H31 H 1.0344 0.6602 0.0532
H32 H 0.911(3) 0.690(3) -0.0084(17)
N2 N 0.3813(4) 0.8092(3) 0.97674(17)
C7 C 0.2685(6) 0.9566(4) 1.0047(3)
H17 H 0.1934 0.9816 1.0066
H18 H 0.2997 0.9532 1.0387
H19 H 0.3126 1.0013 0.9839
C8 C 0.2681(5) 0.8537(5) 0.9812(2)
H20 H 0.2349 0.8575 0.9472
H21 H 0.2220 0.8093 1.0020
C9 C 0.3737(5) 0.7003(4) 0.9598(2)
H22 H 0.3532 0.6980 0.9236
H23 H 0.3153 0.6669 0.9793
C10 C 0.4810(5) 0.6446(4) 0.9673(2)
H24 H 0.4721 0.5758 0.9563
H25 H 0.5386 0.6763 0.9473
H26 H 0.5011 0.6460 1.0031
C11 C 0.4266(7) 0.8786(5) 0.8894(2)
H27 H 0.4806 0.9182 0.8709
H28 H 0.4224 0.8122 0.8746
H29 H 0.3549 0.9107 0.8872
C12 C 0.4610(5) 0.8705(4) 0.9450(2)
H30 H 0.4664 0.9379 0.9595
H31 H 0.5344 0.8398 0.9468
H32 H 0.411(3) 0.810(3) 1.0084(17)
N2 N 0.1187(4) 0.1908(3) 0.47674(17)
C7 C 0.2315(6) 0.0434(4) 0.5047(3)
H17 H 0.3066 0.0184 0.5066
H18 H 0.2003 0.0468 0.5387
H19 H 0.1874 -0.0013 0.4839
C8 C 0.2319(5) 0.1463(5) 0.4812(2)
H20 H 0.2651 0.1425 0.4472
H21 H 0.2780 0.1907 0.5020
C9 C 0.1263(5) 0.2997(4) 0.4598(2)
H22 H 0.1468 0.3020 0.4236
H23 H 0.1847 0.3331 0.4793
C10 C 0.0190(5) 0.3554(4) 0.4673(2)
H24 H 0.0279 0.4242 0.4563
H25 H -0.0386 0.3237 0.4473
H26 H -0.0011 0.3540 0.5031
C11 C 0.0734(7) 0.1214(5) 0.3894(2)
H27 H 0.0194 0.0818 0.3709
H28 H 0.0776 0.1878 0.3746
H29 H 0.1451 0.0893 0.3872
C12 C 0.0390(5) 0.1295(4) 0.4450(2)
H30 H 0.0336 0.0621 0.4595
H31 H -0.0344 0.1602 0.4468
H32 H 0.089(3) 0.190(3) 0.5084(17)
N2 N 0.6187(4) 0.3092(3) 0.52326(17)
C7 C 0.7315(6) 0.4566(4) 0.4953(3)
H17 H 0.8066 0.4816 0.4934
H18 H 0.7003 0.4532 0.4613
H19 H 0.6874 0.5013 0.5161
C8 C 0.7319(5) 0.3537(5) 0.5188(2)
H20 H 0.7651 0.3575 0.5528
H21 H 0.7780 0.3093 0.4980
C9 C 0.6263(5) 0.2003(4) 0.5402(2)
H22 H 0.6468 0.1980 0.5764
H23 H 0.6847 0.1669 0.5207
C10 C 0.5190(5) 0.1446(4) 0.5327(2)
H24 H 0.5279 0.0758 0.5437
H25 H 0.4614 0.1763 0.5527
H26 H 0.4989 0.1460 0.4969
C11 C 0.5734(7) 0.3786(5) 0.6106(2)
H27 H 0.5194 0.4182 0.6291
H28 H 0.5776 0.3122 0.6254
H29 H 0.6451 0.4107 0.6128
C12 C 0.5390(5) 0.3705(4) 0.5550(2)
H30 H 0.5336 0.4379 0.5405
H31 H 0.4656 0.3398 0.5532
H32 H 0.589(3) 0.310(3) 0.4916(17)

#END
