./ACUGOW_from_POSCAR.cif_generated_by_CrystalShift
_symmetry_cell_setting triclinic
_symmetry_space_group_name_H-M 'P 1'
loop_
_symmetry_equiv_pos_site_id
_symmetry_equiv_pos_as_xyz
1 x,y,z
_cell_length_a 11.981000
_cell_length_b 13.226000
_cell_length_c 25.946000
_cell_angle_alpha 90.000000
_cell_angle_beta 90.000000
_cell_angle_gamma 90.000000
_cell_volume 4111.421478
loop_
_atom_site_label
_atom_site_type_symbol
_atom_site_fract_x
_atom_site_fract_y
_atom_site_fract_z
H1 H 0.833200 0.325200 0.341500
H2 H 0.465600 0.339800 0.553200
H3 H 0.533600 0.437900 0.540500
H4 H 0.645100 0.410700 0.612800
H5 H 0.577600 0.312200 0.625400
H6 H 0.519400 0.418200 0.629100
H7 H 0.498900 0.146000 0.496900
H8 H 0.461400 0.176300 0.552700
H9 H 0.527900 0.075800 0.543700
H10 H 0.684700 0.166900 0.520700
H11 H 0.646800 0.198000 0.576400
H12 H 0.778000 0.309300 0.498000
H13 H 0.765100 0.357500 0.552800
H14 H 0.687400 0.501300 0.516100
H15 H 0.700300 0.453200 0.461300
H16 H 0.806600 0.481600 0.493400
H17 H 0.089000 0.190000 0.508400
H18 H -0.034400 0.160200 0.446800
H19 H 0.033600 0.062100 0.459500
H20 H 0.145100 0.089300 0.387200
H21 H 0.077600 0.187800 0.374600
H22 H 0.019400 0.081800 0.370900
H23 H -0.001100 0.354000 0.503100
H24 H -0.038600 0.323700 0.447300
H25 H 0.027900 0.424200 0.456300
H26 H 0.184700 0.333100 0.479300
H27 H 0.146800 0.302000 0.423600
H28 H 0.278000 0.190700 0.502000
H29 H 0.265100 0.142500 0.447200
H30 H 0.187400 -0.001300 0.483900
H31 H 0.200300 0.046800 0.538700
H32 H 0.306600 0.018400 0.506600
H33 H 0.411000 0.810000 1.008400
H34 H 0.534400 0.839800 0.946800
H35 H 0.466400 0.937900 0.959500
H36 H 0.354900 0.910700 0.887200
H37 H 0.422400 0.812200 0.874600
H38 H 0.480600 0.918200 0.870900
H39 H 0.501100 0.646000 1.003100
H40 H 0.538600 0.676300 0.947300
H41 H 0.472100 0.575800 0.956300
H42 H 0.315300 0.666900 0.979300
H43 H 0.436900 0.391500 0.143800
H44 H 0.333200 0.325200 0.158500
H45 H 0.431000 0.339300 0.198000
H46 H 0.353200 0.698000 0.923600
H47 H 0.291300 0.493800 0.165100
H48 H 0.389100 0.508000 0.204400
H49 H 0.222000 0.809300 1.002000
H50 H 0.372500 0.360900 0.273400
H51 H 0.347800 0.466000 0.298500
H52 H 0.234900 0.857500 0.947200
H53 H 0.289200 0.339600 0.351100
H54 H 0.210400 0.298200 0.307800
H55 H 0.186200 0.403600 0.333100
H56 H 0.312600 1.001300 0.983900
H57 H 0.088600 0.631400 0.234900
H58 H 0.070500 0.534200 0.201300
H59 H 0.172700 0.605100 0.190600
H60 H 0.299700 0.953200 1.038700
H61 H 0.131400 0.504100 0.274200
H62 H 0.231500 0.576000 0.264700
H63 H 0.212000 0.394000 0.225300
H64 H 0.193400 0.981600 1.006600
H65 H 0.911000 0.690000 -0.008400
H66 H 0.936900 0.108500 0.856200
H67 H 0.833200 0.174800 0.841500
H68 H 0.931000 0.160700 0.802000
H69 H 1.034400 0.660200 0.053200
H70 H 0.791300 0.006200 0.834900
H71 H 0.889100 -0.008000 0.795600
H72 H 0.966400 0.562100 0.040500
H73 H 0.872500 0.139100 0.726600
H74 H 0.847800 0.034000 0.701500
H75 H 0.854900 0.589300 0.112800
H76 H 0.789200 0.160400 0.648900
H77 H 0.710400 0.201800 0.692200
H78 H 0.686200 0.096400 0.666900
H79 H 0.922400 0.687800 0.125400
H80 H 0.588600 -0.131400 0.765100
H81 H 0.570500 -0.034200 0.798700
H82 H 0.672700 -0.105100 0.809400
H83 H 0.980600 0.581800 0.129100
H84 H 0.631400 -0.004100 0.725800
H85 H 0.731500 -0.076000 0.735300
H86 H 0.712000 0.106000 0.774700
H87 H 1.001100 0.854000 -0.003100
H88 H 1.038600 0.823700 0.052700
H89 H 0.563100 0.891500 0.356200
H90 H 0.666800 0.825200 0.341500
H91 H 0.569000 0.839300 0.302000
H92 H 0.972100 0.924200 0.043700
H93 H 0.708700 0.993800 0.334900
H94 H 0.610900 1.008000 0.295600
H95 H 0.815300 0.833100 0.020700
H96 H 0.627500 0.860900 0.226600
H97 H 0.652200 0.966000 0.201500
H98 H 0.853200 0.802000 0.076400
H99 H 0.710800 0.839600 0.148900
H100 H 0.789600 0.798200 0.192200
H101 H 0.813800 0.903600 0.166900
H102 H 0.722000 0.690700 -0.002000
H103 H 0.911400 1.131400 0.265100
H104 H 0.929500 1.034200 0.298700
H105 H 0.827300 1.105100 0.309400
H106 H 0.734900 0.642500 0.052800
H107 H 0.868600 1.004100 0.225800
H108 H 0.768500 1.076000 0.235300
H109 H 0.788000 0.894000 0.274700
H110 H 0.812600 0.498700 0.016100
H111 H 0.799700 0.546800 -0.038700
H112 H 0.063100 0.608500 0.643800
H113 H 0.166800 0.674800 0.658500
H114 H 0.069000 0.660700 0.698000
H115 H 0.693400 0.518400 -0.006600
H116 H 0.208700 0.506200 0.665100
H117 H 0.110900 0.492000 0.704400
H118 H 0.411000 0.690000 0.508400
H119 H 0.127500 0.639100 0.773400
H120 H 0.152200 0.534000 0.798500
H121 H 0.534400 0.660200 0.446800
H122 H 0.210800 0.660400 0.851100
H123 H 0.289600 0.701800 0.807800
H124 H 0.313800 0.596400 0.833100
H125 H 0.466400 0.562100 0.459500
H126 H 0.411400 0.368600 0.734900
H127 H 0.429500 0.465800 0.701300
H128 H 0.327300 0.394900 0.690600
H129 H 0.354900 0.589300 0.387200
H130 H 0.368600 0.495900 0.774200
H131 H 0.268500 0.424000 0.764700
H132 H 0.288000 0.606000 0.725300
H133 H 0.422400 0.687800 0.374600
H134 H 0.480600 0.581800 0.370900
H135 H 0.563100 0.608500 0.856200
H136 H 0.666800 0.674800 0.841500
H137 H 0.569000 0.660700 0.802000
H138 H 0.501100 0.854000 0.503100
H139 H 0.708700 0.506200 0.834900
H140 H 0.610900 0.492000 0.795600
H141 H 0.538600 0.823700 0.447300
H142 H 0.627500 0.639100 0.726600
H143 H 0.652200 0.534000 0.701500
H144 H 0.472100 0.924200 0.456300
H145 H 0.710800 0.660400 0.648900
H146 H 0.789600 0.701800 0.692200
H147 H 0.813800 0.596400 0.666900
H148 H 0.315300 0.833100 0.479300
H149 H 0.911400 0.368600 0.765100
H150 H 0.929500 0.465800 0.798700
H151 H 0.827300 0.394900 0.809400
H152 H 0.353200 0.802000 0.423600
H153 H 0.868600 0.495900 0.725800
H154 H 0.768500 0.424000 0.735300
H155 H 0.788000 0.606000 0.774700
H156 H 0.222000 0.690700 0.502000
H157 H 0.234900 0.642500 0.447200
H158 H 0.063100 0.891500 0.143800
H159 H 0.166800 0.825200 0.158500
H160 H 0.069000 0.839300 0.198000
H161 H 0.312600 0.498700 0.483900
H162 H 0.208700 0.993800 0.165100
H163 H 0.110900 1.008000 0.204400
H164 H 0.299700 0.546800 0.538700
H165 H 0.127500 0.860900 0.273400
H166 H 0.152200 0.966000 0.298500
H167 H 0.193400 0.518400 0.506600
H168 H 0.210800 0.839600 0.351100
H169 H 0.289600 0.798200 0.307800
H170 H 0.313800 0.903600 0.333100
H171 H 0.911000 0.810000 0.491600
H172 H 0.411400 1.131400 0.234900
H173 H 0.429500 1.034200 0.201300
H174 H 0.327300 1.105100 0.190600
H175 H 1.034400 0.839800 0.553200
H176 H 0.368600 1.004100 0.274200
H177 H 0.268500 1.076000 0.264700
H178 H 0.288000 0.894000 0.225300
H179 H 0.966400 0.937900 0.540500
H180 H 0.854900 0.910700 0.612800
H181 H 0.436900 0.108500 0.643800
H182 H 0.333200 0.174800 0.658500
H183 H 0.431000 0.160700 0.698000
H184 H 0.922400 0.812200 0.625400
H185 H 0.291300 0.006200 0.665100
H186 H 0.389100 -0.008000 0.704400
H187 H 0.980600 0.918200 0.629100
H188 H 0.372500 0.139100 0.773400
H189 H 0.347800 0.034000 0.798500
H190 H 1.001100 0.646000 0.496900
H191 H 0.289200 0.160400 0.851100
H192 H 0.210400 0.201800 0.807800
H193 H 0.186200 0.096400 0.833100
H194 H 1.038600 0.676300 0.552700
H195 H 0.088600 -0.131400 0.734900
H196 H 0.070500 -0.034200 0.701300
H197 H 0.172700 -0.105100 0.690600
H198 H 0.972100 0.575800 0.543700
H199 H 0.131400 -0.004100 0.774200
H200 H 0.231500 -0.076000 0.764700
H201 H 0.212000 0.106000 0.725300
H202 H 0.815300 0.666900 0.520700
H203 H 0.853200 0.698000 0.576400
H204 H 0.936900 0.391500 0.356200
H205 H 0.589000 0.310000 0.491600
H206 H 0.931000 0.339300 0.302000
H207 H 0.722000 0.809300 0.498000
H208 H 0.791300 0.493800 0.334900
H209 H 0.889100 0.508000 0.295600
H210 H 0.734900 0.857500 0.552800
H211 H 0.872500 0.360900 0.226600
H212 H 0.847800 0.466000 0.201500
H213 H 0.812600 1.001300 0.516100
H214 H 0.789200 0.339600 0.148900
H215 H 0.710400 0.298200 0.192200
H216 H 0.686200 0.403600 0.166900
H217 H 0.799700 0.953200 0.461300
H218 H 0.588600 0.631400 0.265100
H219 H 0.570500 0.534200 0.298700
H220 H 0.672700 0.605100 0.309400
H221 H 0.693400 0.981600 0.493400
H222 H 0.631400 0.504100 0.225800
H223 H 0.731500 0.576000 0.235300
H224 H 0.712000 0.394000 0.274700
H225 H 0.589000 0.190000 -0.008400
H226 H 0.465600 0.160200 0.053200
H227 H 0.306600 0.481600 1.006600
H228 H 0.200300 0.453200 1.038700
H229 H 0.187400 0.501300 0.983900
H230 H 0.533600 0.062100 0.040500
H231 H 0.265100 0.357500 0.947200
H232 H 0.278000 0.309300 1.002000
H233 H 0.645100 0.089300 0.112800
H234 H 0.146800 0.198000 0.923600
H235 H 0.184700 0.166900 0.979300
H236 H 0.577600 0.187800 0.125400
H237 H 0.027900 0.075800 0.956300
H238 H -0.038600 0.176300 0.947300
H239 H -0.001100 0.146000 1.003100
H240 H 0.519400 0.081800 0.129100
H241 H 0.019400 0.418200 0.870900
H242 H 0.077600 0.312200 0.874600
H243 H 0.145100 0.410700 0.887200
H244 H 0.498900 0.354000 -0.003100
H245 H 0.033600 0.437900 0.959500
H246 H -0.034400 0.339800 0.946800
H247 H 0.089000 0.310000 1.008400
H248 H 0.461400 0.323700 0.052700
H249 H 0.527900 0.424200 0.043700
H250 H 0.806600 0.018400 -0.006600
H251 H 0.700300 0.046800 -0.038700
H252 H 0.687400 -0.001300 0.016100
H253 H 0.684700 0.333100 0.020700
H254 H 0.765100 0.142500 0.052800
H255 H 0.778000 0.190700 -0.002000
H256 H 0.646800 0.302000 0.076400
C257 C 0.626300 0.299700 0.040200
C258 C 0.731900 0.146300 0.018800
C259 C 0.519000 0.355400 0.032700
C260 C 0.731500 0.043400 -0.004700
C261 C 0.539000 0.370500 0.555000
C262 C 0.039000 0.370500 0.945000
C263 C 0.573400 0.121400 0.110600
C264 C 0.073400 0.378600 0.889400
C265 C 0.019000 0.144600 0.967300
C266 C 0.126300 0.200300 0.959800
C267 C 0.539000 0.129500 0.055000
C268 C 0.231900 0.353700 0.981200
C269 C 0.231500 0.456600 1.004700
C270 C 0.573400 0.378600 0.610600
C271 C 0.519000 0.144600 0.532700
C272 C 0.768500 0.956600 0.495300
C273 C 0.683000 0.527400 0.252100
C274 C 0.625400 0.577400 0.283100
C275 C 0.743800 0.357900 0.177900
C276 C 0.768100 0.853700 0.518800
C277 C 0.813200 0.407000 0.217000
C278 C 0.832700 0.460900 0.307500
C279 C 0.873700 0.700300 0.540200
C280 C 0.888200 0.371600 0.328600
C281 C 0.626300 0.200300 0.540200
C282 C 0.981000 0.644600 0.532700
C283 C 0.183000 -0.027400 0.747900
C284 C 0.125400 -0.077400 0.716900
C285 C 0.243800 0.142100 0.822100
C286 C 0.926600 0.878600 0.610600
C287 C 0.313200 0.093000 0.783000
C288 C 0.332700 0.039100 0.692500
C289 C 0.388200 0.128400 0.671400
C290 C 0.961000 0.870500 0.555000
C291 C 0.731900 0.353700 0.518800
C292 C 0.317000 1.027400 0.247900
C293 C 0.374600 1.077400 0.216900
C294 C 0.731500 0.456600 0.495300
C295 C 0.268500 0.543400 0.504700
C296 C 0.256200 0.857900 0.322100
C297 C 0.186800 0.907000 0.283000
C298 C 0.167300 0.960900 0.192500
C299 C 0.268100 0.646300 0.481200
C300 C 0.111800 0.871600 0.171400
C301 C 0.039000 0.129500 0.445000
C302 C 0.373700 0.799700 0.459800
C303 C 0.817000 0.472600 0.752100
C304 C 0.874600 0.422600 0.783100
C305 C 0.481000 0.855400 0.467300
C306 C 0.756200 0.642100 0.677900
C307 C 0.686800 0.593000 0.717000
C308 C 0.667300 0.539100 0.807500
C309 C 0.426600 0.621400 0.389400
C310 C 0.611800 0.628400 0.828600
C311 C 0.073400 0.121400 0.389400
C312 C 0.317000 0.472600 0.747900
C313 C 0.461000 0.629500 0.445000
C314 C 0.374600 0.422600 0.716900
C315 C 0.256200 0.642100 0.822100
C316 C 0.186800 0.593000 0.783000
C317 C 0.019000 0.355400 0.467300
C318 C 0.768500 0.543400 -0.004700
C319 C 0.167300 0.539100 0.692500
C320 C 0.111800 0.628400 0.671400
C321 C 0.126300 0.299700 0.459800
C322 C 0.768100 0.646300 0.018800
C323 C 0.817000 1.027400 0.252100
C324 C 0.874600 1.077400 0.283100
C325 C 0.873700 0.799700 0.040200
C326 C 0.756200 0.857900 0.177900
C327 C 0.686800 0.907000 0.217000
C328 C 0.981000 0.855400 0.032700
C329 C 0.667300 0.960900 0.307500
C330 C 0.611800 0.871600 0.328600
C331 C 0.231900 0.146300 0.481200
C332 C 0.926600 0.621400 0.110600
C333 C 0.683000 -0.027400 0.752100
C334 C 0.625400 -0.077400 0.783100
C335 C 0.743800 0.142100 0.677900
C336 C 0.961000 0.629500 0.055000
C337 C 0.813200 0.093000 0.717000
C338 C 0.832700 0.039100 0.807500
C339 C 0.888200 0.128400 0.828600
C340 C 0.231500 0.043400 0.504700
C341 C 0.268500 0.956600 1.004700
C342 C 0.461000 0.870500 0.945000
C343 C 0.183000 0.527400 0.247900
C344 C 0.125400 0.577400 0.216900
C345 C 0.268100 0.853700 0.981200
C346 C 0.243800 0.357900 0.322100
C347 C 0.313200 0.407000 0.283000
C348 C 0.373700 0.700300 0.959800
C349 C 0.332700 0.460900 0.192500
C350 C 0.388200 0.371600 0.171400
C351 C 0.481000 0.644600 0.967300
C352 C 0.426600 0.878600 0.889400
N353 N 0.881300 0.809200 0.523260
N354 N 0.755000 0.439100 0.264290
N355 N 0.255000 0.439100 0.235710
N356 N 0.255000 0.060900 0.735710
N357 N 0.381300 0.690800 0.476740
N358 N 0.618700 0.309200 0.523260
N359 N 0.755000 0.060900 0.764290
N360 N 0.245000 0.939100 0.235710
N361 N 0.745000 0.560900 0.764290
N362 N 0.881300 0.690800 0.023260
N363 N 0.118700 0.190800 0.476740
N364 N 0.381300 0.809200 0.976740
N365 N 0.618700 0.190800 0.023260
N366 N 0.245000 0.560900 0.735710
N367 N 0.745000 0.939100 0.264290
N368 N 0.118700 0.309200 0.976740
Cl369 Cl 0.418020 0.759810 0.210630
Cl370 Cl 0.568480 0.587990 0.123580
Cl371 Cl -0.068480 0.087990 0.123580
Cl372 Cl 0.521740 0.847500 0.080480
Cl373 Cl -0.021740 0.152500 0.580480
Cl374 Cl -0.068480 0.412010 0.623580
Cl375 Cl 0.780710 0.821490 0.909400
Cl376 Cl 0.918020 0.740190 0.789370
Cl377 Cl 1.068480 0.912010 0.876420
Cl378 Cl 0.081980 0.240190 0.710630
Cl379 Cl 1.021740 0.652500 0.919520
Cl380 Cl 0.081980 0.259810 0.210630
Cl381 Cl 0.280710 0.821490 0.590600
Cl382 Cl 0.219290 0.321490 0.590600
Cl383 Cl 0.418020 0.740190 0.710630
Cl384 Cl 0.568480 0.912010 0.623580
Cl385 Cl 0.521740 0.652500 0.580480
Cl386 Cl -0.021740 0.347500 0.080480
Cl387 Cl 0.478260 0.347500 0.419520
Cl388 Cl 0.219290 0.178510 0.090600
Cl389 Cl 0.780710 0.678510 0.409400
Cl390 Cl 0.918020 0.759810 0.289370
Cl391 Cl 0.431520 0.087990 0.376420
Cl392 Cl 1.068480 0.587990 0.376420
Cl393 Cl 1.021740 0.847500 0.419520
Cl394 Cl 0.581980 0.259810 0.289370
Cl395 Cl 0.280710 0.678510 0.090600
Cl396 Cl 0.719290 0.321490 0.909400
Cl397 Cl 0.719290 0.178510 0.409400
Cl398 Cl 0.581980 0.240190 0.789370
Cl399 Cl 0.431520 0.412010 0.876420
Cl400 Cl 0.478260 0.152500 0.919520
Co401 Co 0.552700 0.282890 0.873610
Co402 Co 0.447300 0.782890 0.626390
Co403 Co 0.947300 0.782890 0.873610
Co404 Co 0.447300 0.717110 0.126390
Co405 Co 0.052700 0.282890 0.626390
Co406 Co 0.552700 0.217110 0.373610
Co407 Co 0.052700 0.217110 0.126390
Co408 Co 0.947300 0.717110 0.373610

#END
