
#######################################################################
#
#                 Cambridge Crystallographic Data Centre
#                                CCDC 
#
#######################################################################
#
# If this CIF has been generated from an entry in the Cambridge 
# Structural Database, then it will include bibliographic, chemical, 
# crystal, experimental, refinement or atomic coordinate data resulting 
# from the CCDC's data processing and validation procedures.
#
#######################################################################

data_ACUGUA
_symmetry_cell_setting           monoclinic
_symmetry_space_group_name_H-M   'P 21/c'
_symmetry_Int_Tables_number      14
_space_group_name_Hall           '-P 2ybc'
loop_
_symmetry_equiv_pos_site_id
_symmetry_equiv_pos_as_xyz
1 x,y,z
2 -x,1/2+y,1/2-z
3 -x,-y,-z
4 x,1/2-y,1/2+z
_cell_length_a                   8.954(2)
_cell_length_b                   19.678(3)
_cell_length_c                   8.877(2)
_cell_angle_alpha                90
_cell_angle_beta                 117.93(2)
_cell_angle_gamma                90
_cell_volume                     1381.91
loop_
_atom_site_label
_atom_site_type_symbol
_atom_site_fract_x
_atom_site_fract_y
_atom_site_fract_z
P1 P 0.32181(10) 0.67997(4) 0.05937(10)
S1 S 0.47207(11) 0.54640(4) 0.26584(10)
C1 C 0.3668(4) 0.62265(14) 0.2335(4)
C2 C 0.3292(4) 0.63376(16) 0.3628(4)
H1 H 0.2725 0.6723 0.3695
C3 C 0.3833(4) 0.58209(17) 0.4849(4)
H2 H 0.3654 0.5830 0.5799
C4 C 0.4639(3) 0.53086(14) 0.4523(3)
C5 C 0.5211(4) 0.67860(15) 0.0495(4)
C6 C 0.6289(5) 0.7326(2) 0.1245(5)
H3 H 0.5961 0.7679 0.1721
C7 C 0.7842(5) 0.7344(3) 0.1291(6)
H4 H 0.8572 0.7704 0.1821
C8 C 0.8315(5) 0.6839(3) 0.0569(6)
H5 H 0.9356 0.6861 0.0576
C9 C 0.7274(5) 0.6297(2) -0.0170(5)
H6 H 0.7613 0.5946 -0.0643
C10 C 0.5715(4) 0.62728(18) -0.0211(5)
H7 H 0.5001 0.5906 -0.0722
C11 C 0.1815(3) 0.63127(16) -0.1274(4)
C12 C 0.1502(4) 0.6556(2) -0.2866(4)
H8 H 0.2102 0.6928 -0.2946
C13 C 0.0297(5) 0.6246(2) -0.4332(5)
H9 H 0.0096 0.6409 -0.5394
C14 C -0.0601(5) 0.5700(3) -0.4231(6)
H10 H -0.1403 0.5491 -0.5220
C15 C -0.0316(6) 0.5464(3) -0.2680(6)
H11 H -0.0934 0.5097 -0.2610
C16 C 0.0874(5) 0.5764(2) -0.1224(5)
H12 H 0.1056 0.5596 -0.0173
C4B C 0.5361(3) 0.46914(14) 0.5477(3)
S1B S 0.52793(11) 0.45360(4) 0.73416(10)
C1B C 0.6332(4) 0.37735(14) 0.7665(4)
P1B P 0.67819(10) 0.32003(4) 0.94063(10)
C5B C 0.4789(4) 0.32140(15) 0.9505(4)
C6B C 0.3711(5) 0.2674(2) 0.8755(5)
H3B H 0.4039 0.2321 0.8279
C7B C 0.2158(5) 0.2656(3) 0.8709(6)
H4B H 0.1428 0.2296 0.8179
C8B C 0.1685(5) 0.3161(3) 0.9431(6)
H5B H 0.0644 0.3139 0.9424
C9B C 0.2726(5) 0.3703(2) 1.0170(5)
H6B H 0.2387 0.4054 1.0643
C10B C 0.4285(4) 0.37272(18) 1.0211(5)
H7B H 0.4999 0.4094 1.0722
C11B C 0.8185(3) 0.36873(16) 1.1274(4)
C12B C 0.8498(4) 0.3444(2) 1.2866(4)
H8B H 0.7898 0.3072 1.2946
C13B C 0.9703(5) 0.3754(2) 1.4332(5)
H9B H 0.9904 0.3591 1.5394
C14B C 1.0601(5) 0.4300(3) 1.4231(6)
H10B H 1.1403 0.4509 1.5220
C15B C 1.0316(6) 0.4536(3) 1.2680(6)
H11B H 1.0934 0.4903 1.2610
C16B C 0.9126(5) 0.4236(2) 1.1224(5)
H12B H 0.8944 0.4404 1.0173
C2B C 0.6708(4) 0.36624(16) 0.6372(4)
H1B H 0.7275 0.3277 0.6305
C3B C 0.6167(4) 0.41791(17) 0.5151(4)
H2B H 0.6346 0.4170 0.4201
P1 P 0.67819(10) 0.17997(4) 0.44063(10)
S1 S 0.52793(11) 0.04640(4) 0.23416(10)
C1 C 0.6332(4) 0.12265(14) 0.2665(4)
C2 C 0.6708(4) 0.13376(16) 0.1372(4)
H1 H 0.7275 0.1723 0.1305
C3 C 0.6167(4) 0.08209(17) 0.0151(4)
H2 H 0.6346 0.0830 -0.0799
C4 C 0.5361(3) 0.03086(14) 0.0477(3)
C5 C 0.4789(4) 0.17860(15) 0.4505(4)
C6 C 0.3711(5) 0.2326(2) 0.3755(5)
H3 H 0.4039 0.2679 0.3279
C7 C 0.2158(5) 0.2344(3) 0.3709(6)
H4 H 0.1428 0.2704 0.3179
C8 C 0.1685(5) 0.1839(3) 0.4431(6)
H5 H 0.0644 0.1861 0.4424
C9 C 0.2726(5) 0.1297(2) 0.5170(5)
H6 H 0.2387 0.0946 0.5643
C10 C 0.4285(4) 0.12728(18) 0.5211(5)
H7 H 0.4999 0.0906 0.5722
C11 C 0.8185(3) 0.13127(16) 0.6274(4)
C12 C 0.8498(4) 0.1556(2) 0.7866(4)
H8 H 0.7898 0.1928 0.7946
C13 C 0.9703(5) 0.1246(2) 0.9332(5)
H9 H 0.9904 0.1409 1.0394
C14 C 1.0601(5) 0.0700(3) 0.9231(6)
H10 H 1.1403 0.0491 1.0220
C15 C 1.0316(6) 0.0464(3) 0.7680(6)
H11 H 1.0934 0.0097 0.7610
C16 C 0.9126(5) 0.0764(2) 0.6224(5)
H12 H 0.8944 0.0596 0.5173
C4B C 0.4639(3) -0.03086(14) -0.0477(3)
S1B S 0.47207(11) -0.04640(4) -0.23416(10)
C1B C 0.3668(4) -0.12265(14) -0.2665(4)
P1B P 0.32181(10) -0.17997(4) -0.44063(10)
C5B C 0.5211(4) -0.17860(15) -0.4505(4)
C6B C 0.6289(5) -0.2326(2) -0.3755(5)
H3B H 0.5961 -0.2679 -0.3279
C7B C 0.7842(5) -0.2344(3) -0.3709(6)
H4B H 0.8572 -0.2704 -0.3179
C8B C 0.8315(5) -0.1839(3) -0.4431(6)
H5B H 0.9356 -0.1861 -0.4424
C9B C 0.7274(5) -0.1297(2) -0.5170(5)
H6B H 0.7613 -0.0946 -0.5643
C10B C 0.5715(4) -0.12728(18) -0.5211(5)
H7B H 0.5001 -0.0906 -0.5722
C11B C 0.1815(3) -0.13127(16) -0.6274(4)
C12B C 0.1502(4) -0.1556(2) -0.7866(4)
H8B H 0.2102 -0.1928 -0.7946
C13B C 0.0297(5) -0.1246(2) -0.9332(5)
H9B H 0.0096 -0.1409 -1.0394
C14B C -0.0601(5) -0.0700(3) -0.9231(6)
H10B H -0.1403 -0.0491 -1.0220
C15B C -0.0316(6) -0.0464(3) -0.7680(6)
H11B H -0.0934 -0.0097 -0.7610
C16B C 0.0874(5) -0.0764(2) -0.6224(5)
H12B H 0.1056 -0.0596 -0.5173
C2B C 0.3292(4) -0.13376(16) -0.1372(4)
H1B H 0.2725 -0.1723 -0.1305
C3B C 0.3833(4) -0.08209(17) -0.0151(4)
H2B H 0.3654 -0.0830 0.0799
P1 P 0.67819(10) 0.17997(4) 1.44063(10)
S1 S 0.52793(11) 0.04640(4) 1.23416(10)
C1 C 0.6332(4) 0.12265(14) 1.2665(4)
C2 C 0.6708(4) 0.13376(16) 1.1372(4)
H1 H 0.7275 0.1723 1.1305
C3 C 0.6167(4) 0.08209(17) 1.0151(4)
H2 H 0.6346 0.0830 0.9201
C4 C 0.5361(3) 0.03086(14) 1.0477(3)
C5 C 0.4789(4) 0.17860(15) 1.4505(4)
C6 C 0.3711(5) 0.2326(2) 1.3755(5)
H3 H 0.4039 0.2679 1.3279
C7 C 0.2158(5) 0.2344(3) 1.3709(6)
H4 H 0.1428 0.2704 1.3179
C8 C 0.1685(5) 0.1839(3) 1.4431(6)
H5 H 0.0644 0.1861 1.4424
C9 C 0.2726(5) 0.1297(2) 1.5170(5)
H6 H 0.2387 0.0946 1.5643
C10 C 0.4285(4) 0.12728(18) 1.5211(5)
H7 H 0.4999 0.0906 1.5722
C11 C 0.8185(3) 0.13127(16) 1.6274(4)
C12 C 0.8498(4) 0.1556(2) 1.7866(4)
H8 H 0.7898 0.1928 1.7946
C13 C 0.9703(5) 0.1246(2) 1.9332(5)
H9 H 0.9904 0.1409 2.0394
C14 C 1.0601(5) 0.0700(3) 1.9231(6)
H10 H 1.1403 0.0491 2.0220
C15 C 1.0316(6) 0.0464(3) 1.7680(6)
H11 H 1.0934 0.0097 1.7610
C16 C 0.9126(5) 0.0764(2) 1.6224(5)
H12 H 0.8944 0.0596 1.5173
C4B C 0.4639(3) -0.03086(14) 0.9523(3)
S1B S 0.47207(11) -0.04640(4) 0.76584(10)
C1B C 0.3668(4) -0.12265(14) 0.7335(4)
P1B P 0.32181(10) -0.17997(4) 0.55937(10)
C5B C 0.5211(4) -0.17860(15) 0.5495(4)
C6B C 0.6289(5) -0.2326(2) 0.6245(5)
H3B H 0.5961 -0.2679 0.6721
C7B C 0.7842(5) -0.2344(3) 0.6291(6)
H4B H 0.8572 -0.2704 0.6821
C8B C 0.8315(5) -0.1839(3) 0.5569(6)
H5B H 0.9356 -0.1861 0.5576
C9B C 0.7274(5) -0.1297(2) 0.4830(5)
H6B H 0.7613 -0.0946 0.4357
C10B C 0.5715(4) -0.12728(18) 0.4789(5)
H7B H 0.5001 -0.0906 0.4278
C11B C 0.1815(3) -0.13127(16) 0.3726(4)
C12B C 0.1502(4) -0.1556(2) 0.2134(4)
H8B H 0.2102 -0.1928 0.2054
C13B C 0.0297(5) -0.1246(2) 0.0668(5)
H9B H 0.0096 -0.1409 -0.0394
C14B C -0.0601(5) -0.0700(3) 0.0769(6)
H10B H -0.1403 -0.0491 -0.0220
C15B C -0.0316(6) -0.0464(3) 0.2320(6)
H11B H -0.0934 -0.0097 0.2390
C16B C 0.0874(5) -0.0764(2) 0.3776(5)
H12B H 0.1056 -0.0596 0.4827
C2B C 0.3292(4) -0.13376(16) 0.8628(4)
H1B H 0.2725 -0.1723 0.8695
C3B C 0.3833(4) -0.08209(17) 0.9849(4)
H2B H 0.3654 -0.0830 1.0799
P1 P 0.67819(10) 1.17997(4) 0.44063(10)
S1 S 0.52793(11) 1.04640(4) 0.23416(10)
C1 C 0.6332(4) 1.12265(14) 0.2665(4)
C2 C 0.6708(4) 1.13376(16) 0.1372(4)
H1 H 0.7275 1.1723 0.1305
C3 C 0.6167(4) 1.08209(17) 0.0151(4)
H2 H 0.6346 1.0830 -0.0799
C4 C 0.5361(3) 1.03086(14) 0.0477(3)
C5 C 0.4789(4) 1.17860(15) 0.4505(4)
C6 C 0.3711(5) 1.2326(2) 0.3755(5)
H3 H 0.4039 1.2679 0.3279
C7 C 0.2158(5) 1.2344(3) 0.3709(6)
H4 H 0.1428 1.2704 0.3179
C8 C 0.1685(5) 1.1839(3) 0.4431(6)
H5 H 0.0644 1.1861 0.4424
C9 C 0.2726(5) 1.1297(2) 0.5170(5)
H6 H 0.2387 1.0946 0.5643
C10 C 0.4285(4) 1.12728(18) 0.5211(5)
H7 H 0.4999 1.0906 0.5722
C11 C 0.8185(3) 1.13127(16) 0.6274(4)
C12 C 0.8498(4) 1.1556(2) 0.7866(4)
H8 H 0.7898 1.1928 0.7946
C13 C 0.9703(5) 1.1246(2) 0.9332(5)
H9 H 0.9904 1.1409 1.0394
C14 C 1.0601(5) 1.0700(3) 0.9231(6)
H10 H 1.1403 1.0491 1.0220
C15 C 1.0316(6) 1.0464(3) 0.7680(6)
H11 H 1.0934 1.0097 0.7610
C16 C 0.9126(5) 1.0764(2) 0.6224(5)
H12 H 0.8944 1.0596 0.5173
C4B C 0.4639(3) 0.96914(14) -0.0477(3)
S1B S 0.47207(11) 0.95360(4) -0.23416(10)
C1B C 0.3668(4) 0.87735(14) -0.2665(4)
P1B P 0.32181(10) 0.82003(4) -0.44063(10)
C5B C 0.5211(4) 0.82140(15) -0.4505(4)
C6B C 0.6289(5) 0.7674(2) -0.3755(5)
H3B H 0.5961 0.7321 -0.3279
C7B C 0.7842(5) 0.7656(3) -0.3709(6)
H4B H 0.8572 0.7296 -0.3179
C8B C 0.8315(5) 0.8161(3) -0.4431(6)
H5B H 0.9356 0.8139 -0.4424
C9B C 0.7274(5) 0.8703(2) -0.5170(5)
H6B H 0.7613 0.9054 -0.5643
C10B C 0.5715(4) 0.87272(18) -0.5211(5)
H7B H 0.5001 0.9094 -0.5722
C11B C 0.1815(3) 0.86873(16) -0.6274(4)
C12B C 0.1502(4) 0.8444(2) -0.7866(4)
H8B H 0.2102 0.8072 -0.7946
C13B C 0.0297(5) 0.8754(2) -0.9332(5)
H9B H 0.0096 0.8591 -1.0394
C14B C -0.0601(5) 0.9300(3) -0.9231(6)
H10B H -0.1403 0.9509 -1.0220
C15B C -0.0316(6) 0.9536(3) -0.7680(6)
H11B H -0.0934 0.9903 -0.7610
C16B C 0.0874(5) 0.9236(2) -0.6224(5)
H12B H 0.1056 0.9404 -0.5173
C2B C 0.3292(4) 0.86624(16) -0.1372(4)
H1B H 0.2725 0.8277 -0.1305
C3B C 0.3833(4) 0.91791(17) -0.0151(4)
H2B H 0.3654 0.9170 0.0799
P1 P 0.67819(10) 1.17997(4) 1.44063(10)
S1 S 0.52793(11) 1.04640(4) 1.23416(10)
C1 C 0.6332(4) 1.12265(14) 1.2665(4)
C2 C 0.6708(4) 1.13376(16) 1.1372(4)
H1 H 0.7275 1.1723 1.1305
C3 C 0.6167(4) 1.08209(17) 1.0151(4)
H2 H 0.6346 1.0830 0.9201
C4 C 0.5361(3) 1.03086(14) 1.0477(3)
C5 C 0.4789(4) 1.17860(15) 1.4505(4)
C6 C 0.3711(5) 1.2326(2) 1.3755(5)
H3 H 0.4039 1.2679 1.3279
C7 C 0.2158(5) 1.2344(3) 1.3709(6)
H4 H 0.1428 1.2704 1.3179
C8 C 0.1685(5) 1.1839(3) 1.4431(6)
H5 H 0.0644 1.1861 1.4424
C9 C 0.2726(5) 1.1297(2) 1.5170(5)
H6 H 0.2387 1.0946 1.5643
C10 C 0.4285(4) 1.12728(18) 1.5211(5)
H7 H 0.4999 1.0906 1.5722
C11 C 0.8185(3) 1.13127(16) 1.6274(4)
C12 C 0.8498(4) 1.1556(2) 1.7866(4)
H8 H 0.7898 1.1928 1.7946
C13 C 0.9703(5) 1.1246(2) 1.9332(5)
H9 H 0.9904 1.1409 2.0394
C14 C 1.0601(5) 1.0700(3) 1.9231(6)
H10 H 1.1403 1.0491 2.0220
C15 C 1.0316(6) 1.0464(3) 1.7680(6)
H11 H 1.0934 1.0097 1.7610
C16 C 0.9126(5) 1.0764(2) 1.6224(5)
H12 H 0.8944 1.0596 1.5173
C4B C 0.4639(3) 0.96914(14) 0.9523(3)
S1B S 0.47207(11) 0.95360(4) 0.76584(10)
C1B C 0.3668(4) 0.87735(14) 0.7335(4)
P1B P 0.32181(10) 0.82003(4) 0.55937(10)
C5B C 0.5211(4) 0.82140(15) 0.5495(4)
C6B C 0.6289(5) 0.7674(2) 0.6245(5)
H3B H 0.5961 0.7321 0.6721
C7B C 0.7842(5) 0.7656(3) 0.6291(6)
H4B H 0.8572 0.7296 0.6821
C8B C 0.8315(5) 0.8161(3) 0.5569(6)
H5B H 0.9356 0.8139 0.5576
C9B C 0.7274(5) 0.8703(2) 0.4830(5)
H6B H 0.7613 0.9054 0.4357
C10B C 0.5715(4) 0.87272(18) 0.4789(5)
H7B H 0.5001 0.9094 0.4278
C11B C 0.1815(3) 0.86873(16) 0.3726(4)
C12B C 0.1502(4) 0.8444(2) 0.2134(4)
H8B H 0.2102 0.8072 0.2054
C13B C 0.0297(5) 0.8754(2) 0.0668(5)
H9B H 0.0096 0.8591 -0.0394
C14B C -0.0601(5) 0.9300(3) 0.0769(6)
H10B H -0.1403 0.9509 -0.0220
C15B C -0.0316(6) 0.9536(3) 0.2320(6)
H11B H -0.0934 0.9903 0.2390
C16B C 0.0874(5) 0.9236(2) 0.3776(5)
H12B H 0.1056 0.9404 0.4827
C2B C 0.3292(4) 0.86624(16) 0.8628(4)
H1B H 0.2725 0.8277 0.8695
C3B C 0.3833(4) 0.91791(17) 0.9849(4)
H2B H 0.3654 0.9170 1.0799

#END
