
#######################################################################
#
#                 Cambridge Crystallographic Data Centre
#                                CCDC 
#
#######################################################################
#
# If this CIF has been generated from an entry in the Cambridge 
# Structural Database, then it will include bibliographic, chemical, 
# crystal, experimental, refinement or atomic coordinate data resulting 
# from the CCDC's data processing and validation procedures.
#
#######################################################################

data_ACUKIS
_symmetry_cell_setting           monoclinic
_symmetry_space_group_name_H-M   'C c'
_symmetry_Int_Tables_number      9
_space_group_name_Hall           'C -2yc'
loop_
_symmetry_equiv_pos_site_id
_symmetry_equiv_pos_as_xyz
1 x,y,z
2 x,-y,1/2+z
3 1/2+x,1/2+y,z
4 1/2+x,1/2-y,1/2+z
_cell_length_a                   9.692(5)
_cell_length_b                   67.57(4)
_cell_length_c                   9.795(5)
_cell_angle_alpha                90
_cell_angle_beta                 119.63(3)
_cell_angle_gamma                90
_cell_volume                     5575.83
loop_
_atom_site_label
_atom_site_type_symbol
_atom_site_fract_x
_atom_site_fract_y
_atom_site_fract_z
Sn1 Sn 0.927(2) 0.18383(1) 0.154(2)
O1 O 0.895(2) 0.20208(10) 0.384(2)
O2 O 0.772(2) 0.1946(1) 0.520(2)
C1 C 0.737(2) 0.1732(2) 0.164(2)
C2 C 0.773(2) 0.1481(2) 0.201(2)
C3 C 0.619(2) 0.1380(2) 0.159(2)
C4 C 0.572(2) 0.1437(2) 0.255(2)
C5 C 0.695(2) 0.1583(2) 0.372(2)
C6 C 0.683(2) 0.1777(1) 0.278(2)
C7 C 0.839(2) 0.1501(2) 0.381(2)
C8 C 0.801(2) 0.1930(1) 0.407(2)
C9 C 0.871(3) 0.2082(2) 0.639(2)
C10 C 0.516(2) 0.1862(2) 0.196(2)
C11 C 0.475(2) 0.2051(2) 0.110(2)
C12 C 0.522(2) 0.2232(2) 0.188(2)
C13 C 0.489(2) 0.2403(2) 0.101(2)
C14 C 0.408(2) 0.2406(2) -0.058(3)
C15 C 0.352(2) 0.2230(2) -0.131(2)
C16 C 0.391(2) 0.2052(2) -0.053(2)
C17 C 0.919(2) 0.2132(1) 0.070(2)
C18 C 0.778(2) 0.2240(2) 0.001(2)
C19 C 0.768(2) 0.2417(2) -0.065(3)
C20 C 0.895(2) 0.2496(2) -0.066(2)
C21 C 1.041(2) 0.2397(2) 0.001(2)
C22 C 1.044(2) 0.2210(2) 0.062(2)
C23 C 1.172(2) 0.1804(2) 0.365(2)
C24 C 1.245(2) 0.1975(2) 0.443(2)
C25 C 1.400(2) 0.1959(2) 0.571(2)
C26 C 1.477(2) 0.1779(2) 0.605(2)
C27 C 1.398(2) 0.1608(2) 0.519(2)
C28 C 1.243(2) 0.1621(2) 0.395(2)
C29 C 0.953(2) 0.1652(2) -0.011(2)
C30 C 1.086(2) 0.1645(2) -0.024(2)
C31 C 1.114(2) 0.1533(2) -0.122(2)
C32 C 0.995(2) 0.1400(2) -0.223(2)
C33 C 0.860(2) 0.1397(2) -0.213(2)
C34 C 0.840(2) 0.1516(2) -0.114(2)
H1 H 0.6510 0.1746 0.0636
H2 H 0.8420 0.1418 0.1691
H3 H 0.5669 0.1288 0.0776
H4 H 0.4803 0.1396 0.2555
H5 H 0.6994 0.1600 0.4714
H6 H 0.8717 0.1377 0.4359
H7 H 0.9302 0.1589 0.4310
H8 H 0.9812 0.2039 0.6882
H9 H 0.8639 0.2210 0.5975
H10 H 0.8429 0.2087 0.7199
H11 H 0.4535 0.1765 0.1242
H12 H 0.4894 0.1877 0.2766
H13 H 0.5801 0.2237 0.3000
H14 H 0.5284 0.2524 0.1569
H15 H 0.3944 0.2525 -0.1136
H16 H 0.2838 0.2230 -0.2384
H17 H 0.3653 0.1931 -0.1084
H18 H 0.6904 0.2188 0.0050
H19 H 0.6733 0.2488 -0.1112
H20 H 0.8885 0.2622 -0.1108
H21 H 1.1351 0.2454 0.0059
H22 H 1.1408 0.2133 0.1016
H23 H 1.1958 0.2100 0.4138
H24 H 1.4543 0.2072 0.6360
H25 H 1.5868 0.1771 0.6890
H26 H 1.4538 0.1483 0.5482
H27 H 1.1910 0.1508 0.3346
H28 H 1.1741 0.1729 0.0480
H29 H 1.2142 0.1543 -0.1210
H30 H 1.0111 0.1318 -0.2928
H31 H 0.7802 0.1308 -0.2750
H32 H 0.7454 0.1509 -0.1125
Sn1 Sn 0.927(2) 0.81617(1) 0.654(2)
O1 O 0.895(2) 0.79792(10) 0.884(2)
O2 O 0.772(2) 0.8054(1) 1.020(2)
C1 C 0.737(2) 0.8268(2) 0.664(2)
C2 C 0.773(2) 0.8519(2) 0.701(2)
C3 C 0.619(2) 0.8620(2) 0.659(2)
C4 C 0.572(2) 0.8563(2) 0.755(2)
C5 C 0.695(2) 0.8417(2) 0.872(2)
C6 C 0.683(2) 0.8223(1) 0.778(2)
C7 C 0.839(2) 0.8499(2) 0.881(2)
C8 C 0.801(2) 0.8070(1) 0.907(2)
C9 C 0.871(3) 0.7918(2) 1.139(2)
C10 C 0.516(2) 0.8138(2) 0.696(2)
C11 C 0.475(2) 0.7949(2) 0.610(2)
C12 C 0.522(2) 0.7768(2) 0.688(2)
C13 C 0.489(2) 0.7597(2) 0.601(2)
C14 C 0.408(2) 0.7594(2) 0.442(3)
C15 C 0.352(2) 0.7770(2) 0.369(2)
C16 C 0.391(2) 0.7948(2) 0.447(2)
C17 C 0.919(2) 0.7868(1) 0.570(2)
C18 C 0.778(2) 0.7760(2) 0.501(2)
C19 C 0.768(2) 0.7583(2) 0.435(3)
C20 C 0.895(2) 0.7504(2) 0.434(2)
C21 C 1.041(2) 0.7603(2) 0.501(2)
C22 C 1.044(2) 0.7790(2) 0.562(2)
C23 C 1.172(2) 0.8196(2) 0.865(2)
C24 C 1.245(2) 0.8025(2) 0.943(2)
C25 C 1.400(2) 0.8041(2) 1.071(2)
C26 C 1.477(2) 0.8221(2) 1.105(2)
C27 C 1.398(2) 0.8392(2) 1.019(2)
C28 C 1.243(2) 0.8379(2) 0.895(2)
C29 C 0.953(2) 0.8348(2) 0.489(2)
C30 C 1.086(2) 0.8355(2) 0.476(2)
C31 C 1.114(2) 0.8467(2) 0.378(2)
C32 C 0.995(2) 0.8600(2) 0.277(2)
C33 C 0.860(2) 0.8603(2) 0.287(2)
C34 C 0.840(2) 0.8484(2) 0.386(2)
H1 H 0.6510 0.8254 0.5636
H2 H 0.8420 0.8582 0.6691
H3 H 0.5669 0.8712 0.5776
H4 H 0.4803 0.8604 0.7555
H5 H 0.6994 0.8400 0.9714
H6 H 0.8717 0.8623 0.9359
H7 H 0.9302 0.8411 0.9310
H8 H 0.9812 0.7961 1.1882
H9 H 0.8639 0.7790 1.0975
H10 H 0.8429 0.7913 1.2199
H11 H 0.4535 0.8235 0.6242
H12 H 0.4894 0.8123 0.7766
H13 H 0.5801 0.7763 0.8000
H14 H 0.5284 0.7476 0.6569
H15 H 0.3944 0.7475 0.3864
H16 H 0.2838 0.7770 0.2616
H17 H 0.3653 0.8069 0.3916
H18 H 0.6904 0.7812 0.5050
H19 H 0.6733 0.7512 0.3888
H20 H 0.8885 0.7378 0.3892
H21 H 1.1351 0.7546 0.5059
H22 H 1.1408 0.7867 0.6016
H23 H 1.1958 0.7900 0.9138
H24 H 1.4543 0.7928 1.1360
H25 H 1.5868 0.8229 1.1890
H26 H 1.4538 0.8517 1.0482
H27 H 1.1910 0.8492 0.8346
H28 H 1.1741 0.8271 0.5480
H29 H 1.2142 0.8457 0.3790
H30 H 1.0111 0.8682 0.2072
H31 H 0.7802 0.8692 0.2250
H32 H 0.7454 0.8491 0.3875
Sn1 Sn 0.427(2) 0.68383(1) 0.154(2)
O1 O 0.395(2) 0.70208(10) 0.384(2)
O2 O 0.272(2) 0.6946(1) 0.520(2)
C1 C 0.237(2) 0.6732(2) 0.164(2)
C2 C 0.273(2) 0.6481(2) 0.201(2)
C3 C 0.119(2) 0.6380(2) 0.159(2)
C4 C 0.072(2) 0.6437(2) 0.255(2)
C5 C 0.195(2) 0.6583(2) 0.372(2)
C6 C 0.183(2) 0.6777(1) 0.278(2)
C7 C 0.339(2) 0.6501(2) 0.381(2)
C8 C 0.301(2) 0.6930(1) 0.407(2)
C9 C 0.371(3) 0.7082(2) 0.639(2)
C10 C 0.016(2) 0.6862(2) 0.196(2)
C11 C -0.025(2) 0.7051(2) 0.110(2)
C12 C 0.022(2) 0.7232(2) 0.188(2)
C13 C -0.011(2) 0.7403(2) 0.101(2)
C14 C -0.092(2) 0.7406(2) -0.058(3)
C15 C -0.148(2) 0.7230(2) -0.131(2)
C16 C -0.109(2) 0.7052(2) -0.053(2)
C17 C 0.419(2) 0.7132(1) 0.070(2)
C18 C 0.278(2) 0.7240(2) 0.001(2)
C19 C 0.268(2) 0.7417(2) -0.065(3)
C20 C 0.395(2) 0.7496(2) -0.066(2)
C21 C 0.541(2) 0.7397(2) 0.001(2)
C22 C 0.544(2) 0.7210(2) 0.062(2)
C23 C 0.672(2) 0.6804(2) 0.365(2)
C24 C 0.745(2) 0.6975(2) 0.443(2)
C25 C 0.900(2) 0.6959(2) 0.571(2)
C26 C 0.977(2) 0.6779(2) 0.605(2)
C27 C 0.898(2) 0.6608(2) 0.519(2)
C28 C 0.743(2) 0.6621(2) 0.395(2)
C29 C 0.453(2) 0.6652(2) -0.011(2)
C30 C 0.586(2) 0.6645(2) -0.024(2)
C31 C 0.614(2) 0.6533(2) -0.122(2)
C32 C 0.495(2) 0.6400(2) -0.223(2)
C33 C 0.360(2) 0.6397(2) -0.213(2)
C34 C 0.340(2) 0.6516(2) -0.114(2)
H1 H 0.1510 0.6746 0.0636
H2 H 0.3420 0.6418 0.1691
H3 H 0.0669 0.6288 0.0776
H4 H -0.0197 0.6396 0.2555
H5 H 0.1994 0.6600 0.4714
H6 H 0.3717 0.6377 0.4359
H7 H 0.4302 0.6589 0.4310
H8 H 0.4812 0.7039 0.6882
H9 H 0.3639 0.7210 0.5975
H10 H 0.3429 0.7087 0.7199
H11 H -0.0465 0.6765 0.1242
H12 H -0.0106 0.6877 0.2766
H13 H 0.0801 0.7237 0.3000
H14 H 0.0284 0.7524 0.1569
H15 H -0.1056 0.7525 -0.1136
H16 H -0.2162 0.7230 -0.2384
H17 H -0.1347 0.6931 -0.1084
H18 H 0.1904 0.7188 0.0050
H19 H 0.1733 0.7488 -0.1112
H20 H 0.3885 0.7622 -0.1108
H21 H 0.6351 0.7454 0.0059
H22 H 0.6408 0.7133 0.1016
H23 H 0.6958 0.7100 0.4138
H24 H 0.9543 0.7072 0.6360
H25 H 1.0868 0.6771 0.6890
H26 H 0.9538 0.6483 0.5482
H27 H 0.6910 0.6508 0.3346
H28 H 0.6741 0.6729 0.0480
H29 H 0.7142 0.6543 -0.1210
H30 H 0.5111 0.6318 -0.2928
H31 H 0.2802 0.6308 -0.2750
H32 H 0.2454 0.6509 -0.1125
Sn1 Sn 0.427(2) 0.31617(1) 0.654(2)
O1 O 0.395(2) 0.29792(10) 0.884(2)
O2 O 0.272(2) 0.3054(1) 1.020(2)
C1 C 0.237(2) 0.3268(2) 0.664(2)
C2 C 0.273(2) 0.3519(2) 0.701(2)
C3 C 0.119(2) 0.3620(2) 0.659(2)
C4 C 0.072(2) 0.3563(2) 0.755(2)
C5 C 0.195(2) 0.3417(2) 0.872(2)
C6 C 0.183(2) 0.3223(1) 0.778(2)
C7 C 0.339(2) 0.3499(2) 0.881(2)
C8 C 0.301(2) 0.3070(1) 0.907(2)
C9 C 0.371(3) 0.2918(2) 1.139(2)
C10 C 0.016(2) 0.3138(2) 0.696(2)
C11 C -0.025(2) 0.2949(2) 0.610(2)
C12 C 0.022(2) 0.2768(2) 0.688(2)
C13 C -0.011(2) 0.2597(2) 0.601(2)
C14 C -0.092(2) 0.2594(2) 0.442(3)
C15 C -0.148(2) 0.2770(2) 0.369(2)
C16 C -0.109(2) 0.2948(2) 0.447(2)
C17 C 0.419(2) 0.2868(1) 0.570(2)
C18 C 0.278(2) 0.2760(2) 0.501(2)
C19 C 0.268(2) 0.2583(2) 0.435(3)
C20 C 0.395(2) 0.2504(2) 0.434(2)
C21 C 0.541(2) 0.2603(2) 0.501(2)
C22 C 0.544(2) 0.2790(2) 0.562(2)
C23 C 0.672(2) 0.3196(2) 0.865(2)
C24 C 0.745(2) 0.3025(2) 0.943(2)
C25 C 0.900(2) 0.3041(2) 1.071(2)
C26 C 0.977(2) 0.3221(2) 1.105(2)
C27 C 0.898(2) 0.3392(2) 1.019(2)
C28 C 0.743(2) 0.3379(2) 0.895(2)
C29 C 0.453(2) 0.3348(2) 0.489(2)
C30 C 0.586(2) 0.3355(2) 0.476(2)
C31 C 0.614(2) 0.3467(2) 0.378(2)
C32 C 0.495(2) 0.3600(2) 0.277(2)
C33 C 0.360(2) 0.3603(2) 0.287(2)
C34 C 0.340(2) 0.3484(2) 0.386(2)
H1 H 0.1510 0.3254 0.5636
H2 H 0.3420 0.3582 0.6691
H3 H 0.0669 0.3712 0.5776
H4 H -0.0197 0.3604 0.7555
H5 H 0.1994 0.3400 0.9714
H6 H 0.3717 0.3623 0.9359
H7 H 0.4302 0.3411 0.9310
H8 H 0.4812 0.2961 1.1882
H9 H 0.3639 0.2790 1.0975
H10 H 0.3429 0.2913 1.2199
H11 H -0.0465 0.3235 0.6242
H12 H -0.0106 0.3123 0.7766
H13 H 0.0801 0.2763 0.8000
H14 H 0.0284 0.2476 0.6569
H15 H -0.1056 0.2475 0.3864
H16 H -0.2162 0.2770 0.2616
H17 H -0.1347 0.3069 0.3916
H18 H 0.1904 0.2812 0.5050
H19 H 0.1733 0.2512 0.3888
H20 H 0.3885 0.2378 0.3892
H21 H 0.6351 0.2546 0.5059
H22 H 0.6408 0.2867 0.6016
H23 H 0.6958 0.2900 0.9138
H24 H 0.9543 0.2928 1.1360
H25 H 1.0868 0.3229 1.1890
H26 H 0.9538 0.3517 1.0482
H27 H 0.6910 0.3492 0.8346
H28 H 0.6741 0.3271 0.5480
H29 H 0.7142 0.3457 0.3790
H30 H 0.5111 0.3682 0.2072
H31 H 0.2802 0.3692 0.2250
H32 H 0.2454 0.3491 0.3875
Sn2 Sn 0.783(2) 0.06616(1) 0.154(2)
O3 O 1.064(2) 0.0474(1) 0.387(2)
O4 O 1.318(2) 0.0553(1) 0.519(2)
C35 C 0.996(2) 0.0800(1) 0.156(2)
C36 C 1.002(2) 0.1019(1) 0.205(2)
C37 C 1.114(2) 0.1114(2) 0.157(2)
C38 C 1.257(2) 0.1055(1) 0.254(2)
C39 C 1.250(2) 0.0923(2) 0.377(2)
C40 C 1.175(2) 0.0726(1) 0.285(2)
C41 C 1.108(2) 0.1010(1) 0.384(2)
C42 C 1.174(2) 0.0572(2) 0.393(2)
C43 C 1.340(2) 0.0423(2) 0.644(2)
C44 C 1.255(2) 0.0639(2) 0.188(2)
C45 C 1.202(2) 0.0451(2) 0.113(2)
C46 C 1.134(2) 0.0456(2) -0.050(2)
C47 C 1.085(2) 0.0287(2) -0.133(2)
C48 C 1.103(2) 0.0103(2) -0.059(3)
C49 C 1.176(2) 0.0099(2) 0.103(3)
C50 C 1.221(2) 0.0267(2) 0.182(2)
C51 C 0.714(2) 0.0364(1) 0.072(2)
C52 C 0.785(2) 0.0270(2) -0.005(2)
C53 C 0.727(2) 0.0075(2) -0.073(2)
C54 C 0.603(2) 0.0000(2) -0.067(2)
C55 C 0.532(2) 0.0100(2) -0.004(2)
C56 C 0.588(2) 0.0286(1) 0.065(2)
C57 C 0.765(2) 0.0694(2) 0.345(2)
C58 C 0.772(2) 0.0532(2) 0.448(2)
C59 C 0.740(2) 0.0543(2) 0.565(2)
C60 C 0.702(2) 0.0716(3) 0.608(2)
C61 C 0.698(3) 0.0877(2) 0.526(2)
C62 C 0.721(2) 0.0871(2) 0.398(2)
C63 C 0.600(2) 0.0860(1) -0.008(2)
C64 C 0.455(2) 0.0853(2) -0.007(3)
C65 C 0.335(2) 0.0987(2) -0.114(2)
C66 C 0.356(2) 0.1098(2) -0.212(2)
C67 C 0.495(2) 0.1104(2) -0.218(2)
C68 C 0.623(2) 0.0982(2) -0.112(2)
H33 H 0.9867 0.0794 0.0551
H34 H 0.9051 0.1082 0.1701
H35 H 1.0875 0.1202 0.0732
H36 H 1.3528 0.1087 0.2514
H37 H 1.3483 0.0911 0.4765
H38 H 1.1323 0.1137 0.4334
H39 H 1.0712 0.0926 0.4350
H40 H 1.2766 0.0466 0.6877
H41 H 1.3153 0.0292 0.6086
H42 H 1.4505 0.0428 0.7283
H43 H 1.2393 0.0732 0.1102
H44 H 1.3681 0.0628 0.2608
H45 H 1.1249 0.0578 -0.1002
H46 H 1.0392 0.0292 -0.2426
H47 H 1.0704 -0.0016 -0.1172
H48 H 1.1962 -0.0023 0.1589
H49 H 1.2734 0.0261 0.2952
H50 H 0.8727 0.0331 -0.0100
H51 H 0.7786 0.0003 -0.1197
H52 H 0.5685 -0.0128 -0.1062
H53 H 0.4443 0.0045 -0.0030
H54 H 0.5360 0.0356 0.1089
H55 H 0.8052 0.0406 0.4302
H56 H 0.7479 0.0426 0.6218
H57 H 0.6814 0.0724 0.6930
H58 H 0.6817 0.1002 0.5602
H59 H 0.7098 0.0989 0.3431
H60 H 0.4412 0.0765 0.0593
H61 H 0.2407 0.0997 -0.1091
H62 H 0.2731 0.1177 -0.2814
H63 H 0.5079 0.1188 -0.2896
H64 H 0.7246 0.0981 -0.1102
Sn2 Sn 0.783(2) 0.93384(1) 0.654(2)
O3 O 1.064(2) 0.9526(1) 0.887(2)
O4 O 1.318(2) 0.9447(1) 1.019(2)
C35 C 0.996(2) 0.9200(1) 0.656(2)
C36 C 1.002(2) 0.8981(1) 0.705(2)
C37 C 1.114(2) 0.8886(2) 0.657(2)
C38 C 1.257(2) 0.8945(1) 0.754(2)
C39 C 1.250(2) 0.9077(2) 0.877(2)
C40 C 1.175(2) 0.9274(1) 0.785(2)
C41 C 1.108(2) 0.8990(1) 0.884(2)
C42 C 1.174(2) 0.9428(2) 0.893(2)
C43 C 1.340(2) 0.9577(2) 1.144(2)
C44 C 1.255(2) 0.9361(2) 0.688(2)
C45 C 1.202(2) 0.9549(2) 0.613(2)
C46 C 1.134(2) 0.9544(2) 0.450(2)
C47 C 1.085(2) 0.9713(2) 0.367(2)
C48 C 1.103(2) 0.9897(2) 0.441(3)
C49 C 1.176(2) 0.9901(2) 0.603(3)
C50 C 1.221(2) 0.9733(2) 0.682(2)
C51 C 0.714(2) 0.9636(1) 0.572(2)
C52 C 0.785(2) 0.9730(2) 0.495(2)
C53 C 0.727(2) 0.9925(2) 0.427(2)
C54 C 0.603(2) 1.0000(2) 0.433(2)
C55 C 0.532(2) 0.9900(2) 0.496(2)
C56 C 0.588(2) 0.9714(1) 0.565(2)
C57 C 0.765(2) 0.9306(2) 0.845(2)
C58 C 0.772(2) 0.9468(2) 0.948(2)
C59 C 0.740(2) 0.9457(2) 1.065(2)
C60 C 0.702(2) 0.9284(3) 1.108(2)
C61 C 0.698(3) 0.9123(2) 1.026(2)
C62 C 0.721(2) 0.9129(2) 0.898(2)
C63 C 0.600(2) 0.9140(1) 0.492(2)
C64 C 0.455(2) 0.9147(2) 0.493(3)
C65 C 0.335(2) 0.9013(2) 0.386(2)
C66 C 0.356(2) 0.8902(2) 0.288(2)
C67 C 0.495(2) 0.8896(2) 0.282(2)
C68 C 0.623(2) 0.9018(2) 0.388(2)
H33 H 0.9867 0.9206 0.5551
H34 H 0.9051 0.8918 0.6701
H35 H 1.0875 0.8798 0.5732
H36 H 1.3528 0.8913 0.7514
H37 H 1.3483 0.9089 0.9765
H38 H 1.1323 0.8863 0.9334
H39 H 1.0712 0.9074 0.9350
H40 H 1.2766 0.9534 1.1877
H41 H 1.3153 0.9708 1.1086
H42 H 1.4505 0.9572 1.2283
H43 H 1.2393 0.9268 0.6102
H44 H 1.3681 0.9372 0.7608
H45 H 1.1249 0.9422 0.3998
H46 H 1.0392 0.9708 0.2574
H47 H 1.0704 1.0016 0.3828
H48 H 1.1962 1.0023 0.6589
H49 H 1.2734 0.9739 0.7952
H50 H 0.8727 0.9669 0.4900
H51 H 0.7786 0.9997 0.3803
H52 H 0.5685 1.0128 0.3938
H53 H 0.4443 0.9955 0.4970
H54 H 0.5360 0.9644 0.6089
H55 H 0.8052 0.9594 0.9302
H56 H 0.7479 0.9574 1.1218
H57 H 0.6814 0.9276 1.1930
H58 H 0.6817 0.8998 1.0602
H59 H 0.7098 0.9011 0.8431
H60 H 0.4412 0.9235 0.5593
H61 H 0.2407 0.9003 0.3909
H62 H 0.2731 0.8823 0.2186
H63 H 0.5079 0.8812 0.2104
H64 H 0.7246 0.9019 0.3898
Sn2 Sn 0.283(2) 0.56616(1) 0.154(2)
O3 O 0.564(2) 0.5474(1) 0.387(2)
O4 O 0.818(2) 0.5553(1) 0.519(2)
C35 C 0.496(2) 0.5800(1) 0.156(2)
C36 C 0.502(2) 0.6019(1) 0.205(2)
C37 C 0.614(2) 0.6114(2) 0.157(2)
C38 C 0.757(2) 0.6055(1) 0.254(2)
C39 C 0.750(2) 0.5923(2) 0.377(2)
C40 C 0.675(2) 0.5726(1) 0.285(2)
C41 C 0.608(2) 0.6010(1) 0.384(2)
C42 C 0.674(2) 0.5572(2) 0.393(2)
C43 C 0.840(2) 0.5423(2) 0.644(2)
C44 C 0.755(2) 0.5639(2) 0.188(2)
C45 C 0.702(2) 0.5451(2) 0.113(2)
C46 C 0.634(2) 0.5456(2) -0.050(2)
C47 C 0.585(2) 0.5287(2) -0.133(2)
C48 C 0.603(2) 0.5103(2) -0.059(3)
C49 C 0.676(2) 0.5099(2) 0.103(3)
C50 C 0.721(2) 0.5267(2) 0.182(2)
C51 C 0.214(2) 0.5364(1) 0.072(2)
C52 C 0.285(2) 0.5270(2) -0.005(2)
C53 C 0.227(2) 0.5075(2) -0.073(2)
C54 C 0.103(2) 0.5000(2) -0.067(2)
C55 C 0.032(2) 0.5100(2) -0.004(2)
C56 C 0.088(2) 0.5286(1) 0.065(2)
C57 C 0.265(2) 0.5694(2) 0.345(2)
C58 C 0.272(2) 0.5532(2) 0.448(2)
C59 C 0.240(2) 0.5543(2) 0.565(2)
C60 C 0.202(2) 0.5716(3) 0.608(2)
C61 C 0.198(3) 0.5877(2) 0.526(2)
C62 C 0.221(2) 0.5871(2) 0.398(2)
C63 C 0.100(2) 0.5860(1) -0.008(2)
C64 C -0.045(2) 0.5853(2) -0.007(3)
C65 C -0.165(2) 0.5987(2) -0.114(2)
C66 C -0.144(2) 0.6098(2) -0.212(2)
C67 C -0.005(2) 0.6104(2) -0.218(2)
C68 C 0.123(2) 0.5982(2) -0.112(2)
H33 H 0.4867 0.5794 0.0551
H34 H 0.4051 0.6082 0.1701
H35 H 0.5875 0.6202 0.0732
H36 H 0.8528 0.6087 0.2514
H37 H 0.8483 0.5911 0.4765
H38 H 0.6323 0.6137 0.4334
H39 H 0.5712 0.5926 0.4350
H40 H 0.7766 0.5466 0.6877
H41 H 0.8153 0.5292 0.6086
H42 H 0.9505 0.5428 0.7283
H43 H 0.7393 0.5732 0.1102
H44 H 0.8681 0.5628 0.2608
H45 H 0.6249 0.5578 -0.1002
H46 H 0.5392 0.5292 -0.2426
H47 H 0.5704 0.4984 -0.1172
H48 H 0.6962 0.4977 0.1589
H49 H 0.7734 0.5261 0.2952
H50 H 0.3727 0.5331 -0.0100
H51 H 0.2786 0.5003 -0.1197
H52 H 0.0685 0.4872 -0.1062
H53 H -0.0557 0.5045 -0.0030
H54 H 0.0360 0.5356 0.1089
H55 H 0.3052 0.5406 0.4302
H56 H 0.2479 0.5426 0.6218
H57 H 0.1814 0.5724 0.6930
H58 H 0.1817 0.6002 0.5602
H59 H 0.2098 0.5989 0.3431
H60 H -0.0588 0.5765 0.0593
H61 H -0.2593 0.5997 -0.1091
H62 H -0.2269 0.6177 -0.2814
H63 H 0.0079 0.6188 -0.2896
H64 H 0.2246 0.5981 -0.1102
Sn2 Sn 0.283(2) 0.43384(1) 0.654(2)
O3 O 0.564(2) 0.4526(1) 0.887(2)
O4 O 0.818(2) 0.4447(1) 1.019(2)
C35 C 0.496(2) 0.4200(1) 0.656(2)
C36 C 0.502(2) 0.3981(1) 0.705(2)
C37 C 0.614(2) 0.3886(2) 0.657(2)
C38 C 0.757(2) 0.3945(1) 0.754(2)
C39 C 0.750(2) 0.4077(2) 0.877(2)
C40 C 0.675(2) 0.4274(1) 0.785(2)
C41 C 0.608(2) 0.3990(1) 0.884(2)
C42 C 0.674(2) 0.4428(2) 0.893(2)
C43 C 0.840(2) 0.4577(2) 1.144(2)
C44 C 0.755(2) 0.4361(2) 0.688(2)
C45 C 0.702(2) 0.4549(2) 0.613(2)
C46 C 0.634(2) 0.4544(2) 0.450(2)
C47 C 0.585(2) 0.4713(2) 0.367(2)
C48 C 0.603(2) 0.4897(2) 0.441(3)
C49 C 0.676(2) 0.4901(2) 0.603(3)
C50 C 0.721(2) 0.4733(2) 0.682(2)
C51 C 0.214(2) 0.4636(1) 0.572(2)
C52 C 0.285(2) 0.4730(2) 0.495(2)
C53 C 0.227(2) 0.4925(2) 0.427(2)
C54 C 0.103(2) 0.5000(2) 0.433(2)
C55 C 0.032(2) 0.4900(2) 0.496(2)
C56 C 0.088(2) 0.4714(1) 0.565(2)
C57 C 0.265(2) 0.4306(2) 0.845(2)
C58 C 0.272(2) 0.4468(2) 0.948(2)
C59 C 0.240(2) 0.4457(2) 1.065(2)
C60 C 0.202(2) 0.4284(3) 1.108(2)
C61 C 0.198(3) 0.4123(2) 1.026(2)
C62 C 0.221(2) 0.4129(2) 0.898(2)
C63 C 0.100(2) 0.4140(1) 0.492(2)
C64 C -0.045(2) 0.4147(2) 0.493(3)
C65 C -0.165(2) 0.4013(2) 0.386(2)
C66 C -0.144(2) 0.3902(2) 0.288(2)
C67 C -0.005(2) 0.3896(2) 0.282(2)
C68 C 0.123(2) 0.4018(2) 0.388(2)
H33 H 0.4867 0.4206 0.5551
H34 H 0.4051 0.3918 0.6701
H35 H 0.5875 0.3798 0.5732
H36 H 0.8528 0.3913 0.7514
H37 H 0.8483 0.4089 0.9765
H38 H 0.6323 0.3863 0.9334
H39 H 0.5712 0.4074 0.9350
H40 H 0.7766 0.4534 1.1877
H41 H 0.8153 0.4708 1.1086
H42 H 0.9505 0.4572 1.2283
H43 H 0.7393 0.4268 0.6102
H44 H 0.8681 0.4372 0.7608
H45 H 0.6249 0.4422 0.3998
H46 H 0.5392 0.4708 0.2574
H47 H 0.5704 0.5016 0.3828
H48 H 0.6962 0.5023 0.6589
H49 H 0.7734 0.4739 0.7952
H50 H 0.3727 0.4669 0.4900
H51 H 0.2786 0.4997 0.3803
H52 H 0.0685 0.5128 0.3938
H53 H -0.0557 0.4955 0.4970
H54 H 0.0360 0.4644 0.6089
H55 H 0.3052 0.4594 0.9302
H56 H 0.2479 0.4574 1.1218
H57 H 0.1814 0.4276 1.1930
H58 H 0.1817 0.3998 1.0602
H59 H 0.2098 0.4011 0.8431
H60 H -0.0588 0.4235 0.5593
H61 H -0.2593 0.4003 0.3909
H62 H -0.2269 0.3823 0.2186
H63 H 0.0079 0.3812 0.2104
H64 H 0.2246 0.4019 0.3898

#END
