
#######################################################################
#
#                 Cambridge Crystallographic Data Centre
#                                CCDC 
#
#######################################################################
#
# If this CIF has been generated from an entry in the Cambridge 
# Structural Database, then it will include bibliographic, chemical, 
# crystal, experimental, refinement or atomic coordinate data resulting 
# from the CCDC's data processing and validation procedures.
#
#######################################################################

data_ACUKUE
_symmetry_cell_setting           monoclinic
_symmetry_space_group_name_H-M   'P 21'
_symmetry_Int_Tables_number      4
_space_group_name_Hall           'P 2yb'
loop_
_symmetry_equiv_pos_site_id
_symmetry_equiv_pos_as_xyz
1 x,y,z
2 -x,1/2+y,-z
_cell_length_a                   9.128(2)
_cell_length_b                   30.712(6)
_cell_length_c                   9.907(2)
_cell_angle_alpha                90
_cell_angle_beta                 114.39(1)
_cell_angle_gamma                90
_cell_volume                     2529.46
loop_
_atom_site_label
_atom_site_type_symbol
_atom_site_fract_x
_atom_site_fract_y
_atom_site_fract_z
Sn1 Sn 1.03036(9) 0.7546(6) 0.85242(8)
Cl1 Cl 1.2659(4) 0.7955(6) 0.8637(4)
O1 O 0.709(1) 0.6849(7) 0.871(1)
N1 N 0.779(1) 0.7263(7) 0.873(1)
C1 C 0.919(1) 0.8096(8) 0.903(1)
C2 C 0.754(2) 0.8040(7) 0.909(2)
C3 C 0.784(2) 0.8198(8) 1.066(2)
C4 C 0.815(2) 0.8684(8) 1.069(2)
C5 C 0.958(2) 0.8725(7) 1.068(2)
C6 C 1.026(2) 0.8278(7) 1.066(1)
C7 C 0.953(2) 0.8032(8) 1.157(1)
C8 C 0.615(1) 0.8303(8) 0.785(1)
C9 C 0.568(1) 0.8152(7) 0.627(1)
C10 C 0.452(2) 0.7844(8) 0.561(2)
C11 C 0.407(2) 0.7724(8) 0.412(2)
C12 C 0.477(3) 0.7942(9) 0.334(2)
C13 C 0.595(2) 0.8265(9) 0.396(2)
C14 C 0.636(2) 0.8356(8) 0.542(2)
C15 C 0.702(1) 0.7581(8) 0.895(1)
C16 C 0.781(2) 0.6510(8) 0.825(2)
C17 C 1.170(2) 0.7051(7) 1.003(1)
C18 C 1.303(2) 0.6886(8) 0.977(2)
C19 C 1.388(2) 0.6533(10) 1.063(3)
C20 C 1.360(2) 0.6377(8) 1.175(2)
C21 C 1.237(2) 0.6534(8) 1.204(2)
C22 C 1.146(2) 0.6877(8) 1.114(1)
C23 C 0.954(2) 0.7320(7) 0.625(1)
C24 C 1.064(2) 0.7277(9) 0.566(2)
C25 C 1.014(3) 0.7125(10) 0.427(2)
C26 C 0.865(3) 0.7043(9) 0.337(2)
C27 C 0.754(2) 0.7087(9) 0.393(2)
C28 C 0.795(2) 0.7236(9) 0.539(2)
H1 H 0.9113 0.8318 0.8344
H2 H 0.7056 0.8111 1.1018
H3 H 0.7446 0.8911 1.0728
H4 H 1.0110 0.8996 1.0686
H5 H 1.1406 0.8259 1.0989
H6 H 0.9633 0.7725 1.1513
H7 H 0.9966 0.8120 1.2575
H8 H 0.6503 0.8598 0.7915
H9 H 0.5231 0.8292 0.8070
H10 H 0.4011 0.7707 0.6133
H11 H 0.3323 0.7493 0.3672
H12 H 0.4455 0.7861 0.2341
H13 H 0.6423 0.8409 0.3365
H14 H 0.7136 0.8574 0.5854
H15 H 0.6056 0.7509 0.9046
H16 H 0.7759 0.6575 0.7321
H17 H 0.7283 0.6250 0.8270
H18 H 0.8917 0.6493 0.8962
H19 H 1.3335 0.7015 0.9061
H20 H 1.4713 0.6419 1.0390
H21 H 1.4317 0.6158 1.2312
H22 H 1.2167 0.6412 1.2806
H23 H 1.0607 0.6990 1.1352
H24 H 1.1726 0.7351 0.6230
H25 H 1.0927 0.7067 0.3891
H26 H 0.8319 0.6960 0.2359
H27 H 0.6442 0.7021 0.3321
H28 H 0.7130 0.7264 0.5758
Sn1 Sn -0.03036(9) 0.2546(6) 0.14758(8)
Cl1 Cl -0.2659(4) 0.2955(6) 0.1363(4)
O1 O 0.291(1) 0.1849(7) 0.129(1)
N1 N 0.221(1) 0.2263(7) 0.127(1)
C1 C 0.081(1) 0.3096(8) 0.097(1)
C2 C 0.246(2) 0.3040(7) 0.091(2)
C3 C 0.216(2) 0.3198(8) -0.066(2)
C4 C 0.185(2) 0.3684(8) -0.069(2)
C5 C 0.042(2) 0.3725(7) -0.068(2)
C6 C -0.026(2) 0.3278(7) -0.066(1)
C7 C 0.047(2) 0.3032(8) -0.157(1)
C8 C 0.385(1) 0.3303(8) 0.215(1)
C9 C 0.432(1) 0.3152(7) 0.373(1)
C10 C 0.548(2) 0.2844(8) 0.439(2)
C11 C 0.593(2) 0.2724(8) 0.588(2)
C12 C 0.523(3) 0.2942(9) 0.666(2)
C13 C 0.405(2) 0.3265(9) 0.604(2)
C14 C 0.364(2) 0.3356(8) 0.458(2)
C15 C 0.298(1) 0.2581(8) 0.105(1)
C16 C 0.219(2) 0.1510(8) 0.175(2)
C17 C -0.170(2) 0.2051(7) -0.003(1)
C18 C -0.303(2) 0.1886(8) 0.023(2)
C19 C -0.388(2) 0.1533(10) -0.063(3)
C20 C -0.360(2) 0.1377(8) -0.175(2)
C21 C -0.237(2) 0.1534(8) -0.204(2)
C22 C -0.146(2) 0.1877(8) -0.114(1)
C23 C 0.046(2) 0.2320(7) 0.375(1)
C24 C -0.064(2) 0.2277(9) 0.434(2)
C25 C -0.014(3) 0.2125(10) 0.573(2)
C26 C 0.135(3) 0.2043(9) 0.663(2)
C27 C 0.246(2) 0.2087(9) 0.607(2)
C28 C 0.205(2) 0.2236(9) 0.461(2)
H1 H 0.0887 0.3318 0.1656
H2 H 0.2944 0.3111 -0.1018
H3 H 0.2554 0.3911 -0.0728
H4 H -0.0110 0.3996 -0.0686
H5 H -0.1406 0.3259 -0.0989
H6 H 0.0367 0.2725 -0.1513
H7 H 0.0034 0.3120 -0.2575
H8 H 0.3497 0.3598 0.2085
H9 H 0.4769 0.3292 0.1930
H10 H 0.5989 0.2707 0.3867
H11 H 0.6677 0.2493 0.6328
H12 H 0.5545 0.2861 0.7659
H13 H 0.3577 0.3409 0.6635
H14 H 0.2864 0.3574 0.4146
H15 H 0.3944 0.2509 0.0954
H16 H 0.2241 0.1575 0.2679
H17 H 0.2717 0.1250 0.1730
H18 H 0.1083 0.1493 0.1038
H19 H -0.3335 0.2015 0.0939
H20 H -0.4713 0.1419 -0.0390
H21 H -0.4317 0.1158 -0.2312
H22 H -0.2167 0.1412 -0.2806
H23 H -0.0607 0.1990 -0.1352
H24 H -0.1726 0.2351 0.3770
H25 H -0.0927 0.2067 0.6109
H26 H 0.1681 0.1960 0.7641
H27 H 0.3558 0.2021 0.6679
H28 H 0.2870 0.2264 0.4242
Sn2 Sn -0.05946(9) 0.9948(6) 0.72621(8)
Cl2 Cl -0.3025(4) 0.9543(6) 0.7002(4)
O2 O 0.276(1) 1.0644(7) 0.754(1)
N2 N 0.199(1) 1.0222(7) 0.738(1)
C29 C 0.055(1) 0.9388(7) 0.679(1)
C30 C 0.230(1) 0.9474(7) 0.683(1)
C31 C 0.200(2) 0.9348(8) 0.519(2)
C32 C 0.169(2) 0.8852(8) 0.508(2)
C33 C 0.026(2) 0.8774(8) 0.509(2)
C34 C -0.044(2) 0.9211(8) 0.519(1)
C35 C 0.024(2) 0.9487(8) 0.432(2)
C36 C 0.364(1) 0.9194(8) 0.796(1)
C37 C 0.415(2) 0.9310(7) 0.961(1)
C38 C 0.526(2) 0.9644(8) 1.029(2)
C39 C 0.573(2) 0.9731(8) 1.175(2)
C40 C 0.512(2) 0.9502(9) 1.262(2)
C41 C 0.403(2) 0.9179(9) 1.195(2)
C42 C 0.357(2) 0.9088(7) 1.052(2)
C43 C 0.272(1) 0.9950(8) 0.704(1)
C44 C 0.228(3) 1.0918(8) 0.844(2)
C45 C -0.003(2) 1.0173(7) 0.946(1)
C46 C -0.109(2) 1.0386(9) 0.984(2)
C47 C -0.072(2) 1.0530(9) 1.125(2)
C48 C 0.075(3) 1.0488(8) 1.233(2)
C49 C 0.179(2) 1.0243(8) 1.202(2)
C50 C 0.152(2) 1.0074(8) 1.064(1)
C51 C -0.182(2) 1.0451(8) 0.568(1)
C52 C -0.117(2) 1.0705(8) 0.496(2)
C53 C -0.193(2) 1.1056(8) 0.408(2)
C54 C -0.352(3) 1.1114(9) 0.380(2)
C55 C -0.426(2) 1.0866(8) 0.443(2)
C56 C -0.347(2) 1.0526(7) 0.532(1)
H29 H 0.0639 0.9164 0.7482
H30 H 0.2757 0.9453 0.4851
H31 H 0.2406 0.8639 0.5021
H32 H -0.0217 0.8499 0.5039
H33 H -0.1566 0.9221 0.4867
H34 H 0.0085 0.9788 0.4396
H35 H -0.0159 0.9403 0.3311
H36 H 0.4569 0.9223 0.7764
H37 H 0.3295 0.8901 0.7839
H38 H 0.5684 0.9810 0.9703
H39 H 0.6525 0.9954 1.2184
H40 H 0.5421 0.9570 1.3629
H41 H 0.3595 0.9018 1.2503
H42 H 0.2812 0.8858 1.0082
H43 H 0.3654 1.0039 0.6912
H44 H 0.2602 1.0789 0.9388
H45 H 0.1163 1.0957 0.7992
H46 H 0.2810 1.1193 0.8547
H47 H -0.2156 1.0437 0.9095
H48 H -0.1576 1.0668 1.1424
H49 H 0.0992 1.0629 1.3262
H50 H 0.2771 1.0182 1.2813
H51 H 0.2309 0.9915 1.0456
H52 H -0.0101 1.0640 0.5083
H53 H -0.1362 1.1243 0.3679
H54 H -0.4066 1.1345 0.3108
H55 H -0.5331 1.0934 0.4245
H56 H -0.4021 1.0331 0.5658
Sn2 Sn 1.05946(9) 0.4948(6) 0.27379(8)
Cl2 Cl 1.3025(4) 0.4543(6) 0.2998(4)
O2 O 0.724(1) 0.5644(7) 0.246(1)
N2 N 0.801(1) 0.5222(7) 0.262(1)
C29 C 0.945(1) 0.4388(7) 0.321(1)
C30 C 0.770(1) 0.4474(7) 0.317(1)
C31 C 0.800(2) 0.4348(8) 0.481(2)
C32 C 0.831(2) 0.3852(8) 0.492(2)
C33 C 0.974(2) 0.3774(8) 0.491(2)
C34 C 1.044(2) 0.4211(8) 0.481(1)
C35 C 0.976(2) 0.4487(8) 0.568(2)
C36 C 0.636(1) 0.4194(8) 0.204(1)
C37 C 0.585(2) 0.4310(7) 0.039(1)
C38 C 0.474(2) 0.4644(8) -0.029(2)
C39 C 0.427(2) 0.4731(8) -0.175(2)
C40 C 0.488(2) 0.4502(9) -0.262(2)
C41 C 0.597(2) 0.4179(9) -0.195(2)
C42 C 0.643(2) 0.4088(7) -0.052(2)
C43 C 0.728(1) 0.4950(8) 0.296(1)
C44 C 0.772(3) 0.5918(8) 0.156(2)
C45 C 1.003(2) 0.5173(7) 0.054(1)
C46 C 1.109(2) 0.5386(9) 0.016(2)
C47 C 1.072(2) 0.5530(9) -0.125(2)
C48 C 0.925(3) 0.5488(8) -0.233(2)
C49 C 0.821(2) 0.5243(8) -0.202(2)
C50 C 0.848(2) 0.5074(8) -0.064(1)
C51 C 1.182(2) 0.5451(8) 0.432(1)
C52 C 1.117(2) 0.5705(8) 0.504(2)
C53 C 1.193(2) 0.6056(8) 0.592(2)
C54 C 1.352(3) 0.6114(9) 0.620(2)
C55 C 1.426(2) 0.5866(8) 0.557(2)
C56 C 1.347(2) 0.5526(7) 0.468(1)
H29 H 0.9361 0.4164 0.2518
H30 H 0.7243 0.4453 0.5149
H31 H 0.7594 0.3639 0.4979
H32 H 1.0217 0.3499 0.4961
H33 H 1.1566 0.4221 0.5133
H34 H 0.9915 0.4788 0.5604
H35 H 1.0159 0.4403 0.6689
H36 H 0.5431 0.4223 0.2236
H37 H 0.6705 0.3901 0.2161
H38 H 0.4316 0.4810 0.0297
H39 H 0.3475 0.4954 -0.2184
H40 H 0.4579 0.4570 -0.3629
H41 H 0.6405 0.4018 -0.2503
H42 H 0.7188 0.3858 -0.0082
H43 H 0.6346 0.5039 0.3088
H44 H 0.7398 0.5789 0.0612
H45 H 0.8837 0.5957 0.2008
H46 H 0.7190 0.6193 0.1453
H47 H 1.2156 0.5437 0.0905
H48 H 1.1576 0.5668 -0.1424
H49 H 0.9008 0.5629 -0.3262
H50 H 0.7229 0.5182 -0.2813
H51 H 0.7691 0.4915 -0.0456
H52 H 1.0101 0.5640 0.4917
H53 H 1.1362 0.6243 0.6321
H54 H 1.4066 0.6345 0.6892
H55 H 1.5331 0.5934 0.5755
H56 H 1.4021 0.5331 0.4342

#END
