
#######################################################################
#
#                 Cambridge Crystallographic Data Centre
#                                CCDC 
#
#######################################################################
#
# If this CIF has been generated from an entry in the Cambridge 
# Structural Database, then it will include bibliographic, chemical, 
# crystal, experimental, refinement or atomic coordinate data resulting 
# from the CCDC's data processing and validation procedures.
#
#######################################################################

data_ACUMAN
_symmetry_cell_setting           monoclinic
_symmetry_space_group_name_H-M   'C 2/c'
_symmetry_Int_Tables_number      15
_space_group_name_Hall           '-C 2yn'
loop_
_symmetry_equiv_pos_site_id
_symmetry_equiv_pos_as_xyz
1 x,y,z
2 1/2+x,1/2+y,z
3 -x,y,1/2-z
4 1/2-x,1/2+y,1/2-z
5 -x,-y,-z
6 1/2-x,1/2-y,-z
7 x,-y,1/2+z
8 1/2+x,1/2-y,1/2+z
_cell_length_a                   24.044(3)
_cell_length_b                   6.3355(8)
_cell_length_c                   25.451(3)
_cell_angle_alpha                90
_cell_angle_beta                 115.060(3)
_cell_angle_gamma                90
_cell_volume                     3512.01
loop_
_atom_site_label
_atom_site_type_symbol
_atom_site_fract_x
_atom_site_fract_y
_atom_site_fract_z
O1 O 0.47077(9) 0.3809(3) 0.15018(10)
N1 N 0.60433(13) -0.3190(5) 0.32487(13)
C1 C 0.64195(14) -0.1664(5) 0.35928(14)
C2 C 0.67869(17) -0.1681(6) 0.41755(16)
H1 H 0.6803 -0.2843 0.4404
C3 C 0.71253(18) 0.0065(8) 0.44035(16)
H2 H 0.7380 0.0089 0.4799
C4 C 0.71084(15) 0.1814(6) 0.40741(16)
H3 H 0.7350 0.2986 0.4247
C5 C 0.67399(13) 0.1817(5) 0.34998(14)
H4 H 0.6725 0.2989 0.3274
C6 C 0.63841(12) 0.0061(4) 0.32507(12)
C7 C 0.59571(11) -0.0455(4) 0.26806(11)
C8 C 0.57672(13) -0.2435(4) 0.27003(13)
H5 H 0.5487 -0.3178 0.2384
C9 C 0.57483(11) 0.1031(4) 0.21834(11)
H6 H 0.5654 0.2353 0.2328
C10 C 0.62527(11) 0.1565(4) 0.19988(10)
C11 C 0.62808(14) 0.3531(5) 0.17893(13)
H7 H 0.5991 0.4546 0.1764
C12 C 0.67333(19) 0.4014(6) 0.16169(15)
H8 H 0.6743 0.5349 0.1469
C13 C 0.71631(17) 0.2588(7) 0.16587(15)
H9 H 0.7469 0.2936 0.1541
C14 C 0.71503(14) 0.0636(6) 0.18728(14)
H10 H 0.7446 -0.0359 0.1902
C15 C 0.66955(12) 0.0138(5) 0.20463(12)
H11 H 0.6691 -0.1193 0.2198
C16 C 0.51480(11) 0.0338(4) 0.16867(11)
H12 H 0.4902 -0.0299 0.1869
C17 C 0.51760(12) -0.1293(4) 0.12615(12)
H13 H 0.5580 -0.1327 0.1264
H14 H 0.5078 -0.2689 0.1355
C18 C 0.47091(13) -0.0574(5) 0.06935(13)
C19 C 0.44932(12) 0.1404(5) 0.07289(13)
C20 C 0.47723(12) 0.2100(5) 0.13217(14)
C21 C 0.44918(17) -0.1569(6) 0.01719(17)
H15 H 0.4634 -0.2904 0.0138
C22 C 0.4067(2) -0.0592(9) -0.0296(2)
H16 H 0.3912 -0.1287 -0.0651
C23 C 0.38550(18) 0.1386(9) -0.02669(19)
H17 H 0.3570 0.2030 -0.0601
C24 C 0.40622(16) 0.2412(6) 0.02511(19)
H18 H 0.3918 0.3747 0.0281
H19 H 0.5930(14) -0.426(5) 0.3360(13)
O1 O -0.02923(9) 0.8809(3) 0.15018(10)
N1 N 0.10433(13) 0.1810(5) 0.32487(13)
C1 C 0.14195(14) 0.3336(5) 0.35928(14)
C2 C 0.17869(17) 0.3319(6) 0.41755(16)
H1 H 0.1803 0.2157 0.4404
C3 C 0.21253(18) 0.5065(8) 0.44035(16)
H2 H 0.2380 0.5089 0.4799
C4 C 0.21084(15) 0.6814(6) 0.40741(16)
H3 H 0.2350 0.7986 0.4247
C5 C 0.17399(13) 0.6817(5) 0.34998(14)
H4 H 0.1725 0.7989 0.3274
C6 C 0.13841(12) 0.5061(4) 0.32507(12)
C7 C 0.09571(11) 0.4545(4) 0.26806(11)
C8 C 0.07672(13) 0.2565(4) 0.27003(13)
H5 H 0.0487 0.1822 0.2384
C9 C 0.07483(11) 0.6031(4) 0.21834(11)
H6 H 0.0654 0.7353 0.2328
C10 C 0.12527(11) 0.6565(4) 0.19988(10)
C11 C 0.12808(14) 0.8531(5) 0.17893(13)
H7 H 0.0991 0.9546 0.1764
C12 C 0.17333(19) 0.9014(6) 0.16169(15)
H8 H 0.1743 1.0349 0.1469
C13 C 0.21631(17) 0.7588(7) 0.16587(15)
H9 H 0.2469 0.7936 0.1541
C14 C 0.21503(14) 0.5636(6) 0.18728(14)
H10 H 0.2446 0.4641 0.1902
C15 C 0.16955(12) 0.5138(5) 0.20463(12)
H11 H 0.1691 0.3807 0.2198
C16 C 0.01480(11) 0.5338(4) 0.16867(11)
H12 H -0.0098 0.4701 0.1869
C17 C 0.01760(12) 0.3707(4) 0.12615(12)
H13 H 0.0580 0.3673 0.1264
H14 H 0.0078 0.2311 0.1355
C18 C -0.02909(13) 0.4426(5) 0.06935(13)
C19 C -0.05068(12) 0.6404(5) 0.07289(13)
C20 C -0.02277(12) 0.7100(5) 0.13217(14)
C21 C -0.05082(17) 0.3431(6) 0.01719(17)
H15 H -0.0366 0.2096 0.0138
C22 C -0.0933(2) 0.4408(9) -0.0296(2)
H16 H -0.1088 0.3713 -0.0651
C23 C -0.11450(18) 0.6386(9) -0.02669(19)
H17 H -0.1430 0.7030 -0.0601
C24 C -0.09378(16) 0.7412(6) 0.02511(19)
H18 H -0.1082 0.8747 0.0281
H19 H 0.0930(14) 0.074(5) 0.3360(13)
O1 O 0.52923(9) 0.3809(3) 0.34982(10)
N1 N 0.39567(13) -0.3190(5) 0.17513(13)
C1 C 0.35805(14) -0.1664(5) 0.14072(14)
C2 C 0.32131(17) -0.1681(6) 0.08245(16)
H1 H 0.3197 -0.2843 0.0596
C3 C 0.28747(18) 0.0065(8) 0.05965(16)
H2 H 0.2620 0.0089 0.0201
C4 C 0.28916(15) 0.1814(6) 0.09259(16)
H3 H 0.2650 0.2986 0.0753
C5 C 0.32601(13) 0.1817(5) 0.15002(14)
H4 H 0.3275 0.2989 0.1726
C6 C 0.36159(12) 0.0061(4) 0.17493(12)
C7 C 0.40429(11) -0.0455(4) 0.23194(11)
C8 C 0.42328(13) -0.2435(4) 0.22997(13)
H5 H 0.4513 -0.3178 0.2616
C9 C 0.42517(11) 0.1031(4) 0.28166(11)
H6 H 0.4346 0.2353 0.2672
C10 C 0.37473(11) 0.1565(4) 0.30012(10)
C11 C 0.37192(14) 0.3531(5) 0.32107(13)
H7 H 0.4009 0.4546 0.3236
C12 C 0.32667(19) 0.4014(6) 0.33831(15)
H8 H 0.3257 0.5349 0.3531
C13 C 0.28369(17) 0.2588(7) 0.33413(15)
H9 H 0.2531 0.2936 0.3459
C14 C 0.28497(14) 0.0636(6) 0.31272(14)
H10 H 0.2554 -0.0359 0.3098
C15 C 0.33045(12) 0.0138(5) 0.29537(12)
H11 H 0.3309 -0.1193 0.2802
C16 C 0.48520(11) 0.0338(4) 0.33133(11)
H12 H 0.5098 -0.0299 0.3131
C17 C 0.48240(12) -0.1293(4) 0.37385(12)
H13 H 0.4420 -0.1327 0.3736
H14 H 0.4922 -0.2689 0.3645
C18 C 0.52909(13) -0.0574(5) 0.43065(13)
C19 C 0.55068(12) 0.1404(5) 0.42711(13)
C20 C 0.52277(12) 0.2100(5) 0.36783(14)
C21 C 0.55082(17) -0.1569(6) 0.48281(17)
H15 H 0.5366 -0.2904 0.4862
C22 C 0.5933(2) -0.0592(9) 0.5296(2)
H16 H 0.6088 -0.1287 0.5651
C23 C 0.61450(18) 0.1386(9) 0.52669(19)
H17 H 0.6430 0.2030 0.5601
C24 C 0.59378(16) 0.2412(6) 0.47489(19)
H18 H 0.6082 0.3747 0.4719
H19 H 0.4070(14) -0.426(5) 0.1640(13)
O1 O 1.02923(9) 0.8809(3) 0.34982(10)
N1 N 0.89567(13) 0.1810(5) 0.17513(13)
C1 C 0.85805(14) 0.3336(5) 0.14072(14)
C2 C 0.82131(17) 0.3319(6) 0.08245(16)
H1 H 0.8197 0.2157 0.0596
C3 C 0.78747(18) 0.5065(8) 0.05965(16)
H2 H 0.7620 0.5089 0.0201
C4 C 0.78916(15) 0.6814(6) 0.09259(16)
H3 H 0.7650 0.7986 0.0753
C5 C 0.82601(13) 0.6817(5) 0.15002(14)
H4 H 0.8275 0.7989 0.1726
C6 C 0.86159(12) 0.5061(4) 0.17493(12)
C7 C 0.90429(11) 0.4545(4) 0.23194(11)
C8 C 0.92328(13) 0.2565(4) 0.22997(13)
H5 H 0.9513 0.1822 0.2616
C9 C 0.92517(11) 0.6031(4) 0.28166(11)
H6 H 0.9346 0.7353 0.2672
C10 C 0.87473(11) 0.6565(4) 0.30012(10)
C11 C 0.87192(14) 0.8531(5) 0.32107(13)
H7 H 0.9009 0.9546 0.3236
C12 C 0.82667(19) 0.9014(6) 0.33831(15)
H8 H 0.8257 1.0349 0.3531
C13 C 0.78369(17) 0.7588(7) 0.33413(15)
H9 H 0.7531 0.7936 0.3459
C14 C 0.78497(14) 0.5636(6) 0.31272(14)
H10 H 0.7554 0.4641 0.3098
C15 C 0.83045(12) 0.5138(5) 0.29537(12)
H11 H 0.8309 0.3807 0.2802
C16 C 0.98520(11) 0.5338(4) 0.33133(11)
H12 H 1.0098 0.4701 0.3131
C17 C 0.98240(12) 0.3707(4) 0.37385(12)
H13 H 0.9420 0.3673 0.3736
H14 H 0.9922 0.2311 0.3645
C18 C 1.02909(13) 0.4426(5) 0.43065(13)
C19 C 1.05068(12) 0.6404(5) 0.42711(13)
C20 C 1.02277(12) 0.7100(5) 0.36783(14)
C21 C 1.05082(17) 0.3431(6) 0.48281(17)
H15 H 1.0366 0.2096 0.4862
C22 C 1.0933(2) 0.4408(9) 0.5296(2)
H16 H 1.1088 0.3713 0.5651
C23 C 1.11450(18) 0.6386(9) 0.52669(19)
H17 H 1.1430 0.7030 0.5601
C24 C 1.09378(16) 0.7412(6) 0.47489(19)
H18 H 1.1082 0.8747 0.4719
H19 H 0.9070(14) 0.074(5) 0.1640(13)
O1 O 0.52923(9) 0.6191(3) 0.84982(10)
N1 N 0.39567(13) 1.3190(5) 0.67513(13)
C1 C 0.35805(14) 1.1664(5) 0.64072(14)
C2 C 0.32131(17) 1.1681(6) 0.58245(16)
H1 H 0.3197 1.2843 0.5596
C3 C 0.28747(18) 0.9935(8) 0.55965(16)
H2 H 0.2620 0.9911 0.5201
C4 C 0.28916(15) 0.8186(6) 0.59259(16)
H3 H 0.2650 0.7014 0.5753
C5 C 0.32601(13) 0.8183(5) 0.65002(14)
H4 H 0.3275 0.7011 0.6726
C6 C 0.36159(12) 0.9939(4) 0.67493(12)
C7 C 0.40429(11) 1.0455(4) 0.73194(11)
C8 C 0.42328(13) 1.2435(4) 0.72997(13)
H5 H 0.4513 1.3178 0.7616
C9 C 0.42517(11) 0.8969(4) 0.78166(11)
H6 H 0.4346 0.7647 0.7672
C10 C 0.37473(11) 0.8435(4) 0.80012(10)
C11 C 0.37192(14) 0.6469(5) 0.82107(13)
H7 H 0.4009 0.5454 0.8236
C12 C 0.32667(19) 0.5986(6) 0.83831(15)
H8 H 0.3257 0.4651 0.8531
C13 C 0.28369(17) 0.7412(7) 0.83413(15)
H9 H 0.2531 0.7064 0.8459
C14 C 0.28497(14) 0.9364(6) 0.81272(14)
H10 H 0.2554 1.0359 0.8098
C15 C 0.33045(12) 0.9862(5) 0.79537(12)
H11 H 0.3309 1.1193 0.7802
C16 C 0.48520(11) 0.9662(4) 0.83133(11)
H12 H 0.5098 1.0299 0.8131
C17 C 0.48240(12) 1.1293(4) 0.87385(12)
H13 H 0.4420 1.1327 0.8736
H14 H 0.4922 1.2689 0.8645
C18 C 0.52909(13) 1.0574(5) 0.93065(13)
C19 C 0.55068(12) 0.8596(5) 0.92711(13)
C20 C 0.52277(12) 0.7900(5) 0.86783(14)
C21 C 0.55082(17) 1.1569(6) 0.98281(17)
H15 H 0.5366 1.2904 0.9862
C22 C 0.5933(2) 1.0592(9) 1.0296(2)
H16 H 0.6088 1.1287 1.0651
C23 C 0.61450(18) 0.8614(9) 1.02669(19)
H17 H 0.6430 0.7970 1.0601
C24 C 0.59378(16) 0.7588(6) 0.97489(19)
H18 H 0.6082 0.6253 0.9719
H19 H 0.4070(14) 1.426(5) 0.6640(13)
O1 O 1.02923(9) 0.1191(3) 0.84982(10)
N1 N 0.89567(13) 0.8190(5) 0.67513(13)
C1 C 0.85805(14) 0.6664(5) 0.64072(14)
C2 C 0.82131(17) 0.6681(6) 0.58245(16)
H1 H 0.8197 0.7843 0.5596
C3 C 0.78747(18) 0.4935(8) 0.55965(16)
H2 H 0.7620 0.4911 0.5201
C4 C 0.78916(15) 0.3186(6) 0.59259(16)
H3 H 0.7650 0.2014 0.5753
C5 C 0.82601(13) 0.3183(5) 0.65002(14)
H4 H 0.8275 0.2011 0.6726
C6 C 0.86159(12) 0.4939(4) 0.67493(12)
C7 C 0.90429(11) 0.5455(4) 0.73194(11)
C8 C 0.92328(13) 0.7435(4) 0.72997(13)
H5 H 0.9513 0.8178 0.7616
C9 C 0.92517(11) 0.3969(4) 0.78166(11)
H6 H 0.9346 0.2647 0.7672
C10 C 0.87473(11) 0.3435(4) 0.80012(10)
C11 C 0.87192(14) 0.1469(5) 0.82107(13)
H7 H 0.9009 0.0454 0.8236
C12 C 0.82667(19) 0.0986(6) 0.83831(15)
H8 H 0.8257 -0.0349 0.8531
C13 C 0.78369(17) 0.2412(7) 0.83413(15)
H9 H 0.7531 0.2064 0.8459
C14 C 0.78497(14) 0.4364(6) 0.81272(14)
H10 H 0.7554 0.5359 0.8098
C15 C 0.83045(12) 0.4862(5) 0.79537(12)
H11 H 0.8309 0.6193 0.7802
C16 C 0.98520(11) 0.4662(4) 0.83133(11)
H12 H 1.0098 0.5299 0.8131
C17 C 0.98240(12) 0.6293(4) 0.87385(12)
H13 H 0.9420 0.6327 0.8736
H14 H 0.9922 0.7689 0.8645
C18 C 1.02909(13) 0.5574(5) 0.93065(13)
C19 C 1.05068(12) 0.3596(5) 0.92711(13)
C20 C 1.02277(12) 0.2900(5) 0.86783(14)
C21 C 1.05082(17) 0.6569(6) 0.98281(17)
H15 H 1.0366 0.7904 0.9862
C22 C 1.0933(2) 0.5592(9) 1.0296(2)
H16 H 1.1088 0.6287 1.0651
C23 C 1.11450(18) 0.3614(9) 1.02669(19)
H17 H 1.1430 0.2970 1.0601
C24 C 1.09378(16) 0.2588(6) 0.97489(19)
H18 H 1.1082 0.1253 0.9719
H19 H 0.9070(14) 0.926(5) 0.6640(13)
O1 O 0.47077(9) 0.6191(3) 0.65018(10)
N1 N 0.60433(13) 1.3190(5) 0.82487(13)
C1 C 0.64195(14) 1.1664(5) 0.85928(14)
C2 C 0.67869(17) 1.1681(6) 0.91755(16)
H1 H 0.6803 1.2843 0.9404
C3 C 0.71253(18) 0.9935(8) 0.94035(16)
H2 H 0.7380 0.9911 0.9799
C4 C 0.71084(15) 0.8186(6) 0.90741(16)
H3 H 0.7350 0.7014 0.9247
C5 C 0.67399(13) 0.8183(5) 0.84998(14)
H4 H 0.6725 0.7011 0.8274
C6 C 0.63841(12) 0.9939(4) 0.82507(12)
C7 C 0.59571(11) 1.0455(4) 0.76806(11)
C8 C 0.57672(13) 1.2435(4) 0.77003(13)
H5 H 0.5487 1.3178 0.7384
C9 C 0.57483(11) 0.8969(4) 0.71834(11)
H6 H 0.5654 0.7647 0.7328
C10 C 0.62527(11) 0.8435(4) 0.69988(10)
C11 C 0.62808(14) 0.6469(5) 0.67893(13)
H7 H 0.5991 0.5454 0.6764
C12 C 0.67333(19) 0.5986(6) 0.66169(15)
H8 H 0.6743 0.4651 0.6469
C13 C 0.71631(17) 0.7412(7) 0.66587(15)
H9 H 0.7469 0.7064 0.6541
C14 C 0.71503(14) 0.9364(6) 0.68728(14)
H10 H 0.7446 1.0359 0.6902
C15 C 0.66955(12) 0.9862(5) 0.70463(12)
H11 H 0.6691 1.1193 0.7198
C16 C 0.51480(11) 0.9662(4) 0.66867(11)
H12 H 0.4902 1.0299 0.6869
C17 C 0.51760(12) 1.1293(4) 0.62615(12)
H13 H 0.5580 1.1327 0.6264
H14 H 0.5078 1.2689 0.6355
C18 C 0.47091(13) 1.0574(5) 0.56935(13)
C19 C 0.44932(12) 0.8596(5) 0.57289(13)
C20 C 0.47723(12) 0.7900(5) 0.63217(14)
C21 C 0.44918(17) 1.1569(6) 0.51719(17)
H15 H 0.4634 1.2904 0.5138
C22 C 0.4067(2) 1.0592(9) 0.4704(2)
H16 H 0.3912 1.1287 0.4349
C23 C 0.38550(18) 0.8614(9) 0.47331(19)
H17 H 0.3570 0.7970 0.4399
C24 C 0.40622(16) 0.7588(6) 0.52511(19)
H18 H 0.3918 0.6253 0.5281
H19 H 0.5930(14) 1.426(5) 0.8360(13)
O1 O -0.02923(9) 0.1191(3) 0.65018(10)
N1 N 0.10433(13) 0.8190(5) 0.82487(13)
C1 C 0.14195(14) 0.6664(5) 0.85928(14)
C2 C 0.17869(17) 0.6681(6) 0.91755(16)
H1 H 0.1803 0.7843 0.9404
C3 C 0.21253(18) 0.4935(8) 0.94035(16)
H2 H 0.2380 0.4911 0.9799
C4 C 0.21084(15) 0.3186(6) 0.90741(16)
H3 H 0.2350 0.2014 0.9247
C5 C 0.17399(13) 0.3183(5) 0.84998(14)
H4 H 0.1725 0.2011 0.8274
C6 C 0.13841(12) 0.4939(4) 0.82507(12)
C7 C 0.09571(11) 0.5455(4) 0.76806(11)
C8 C 0.07672(13) 0.7435(4) 0.77003(13)
H5 H 0.0487 0.8178 0.7384
C9 C 0.07483(11) 0.3969(4) 0.71834(11)
H6 H 0.0654 0.2647 0.7328
C10 C 0.12527(11) 0.3435(4) 0.69988(10)
C11 C 0.12808(14) 0.1469(5) 0.67893(13)
H7 H 0.0991 0.0454 0.6764
C12 C 0.17333(19) 0.0986(6) 0.66169(15)
H8 H 0.1743 -0.0349 0.6469
C13 C 0.21631(17) 0.2412(7) 0.66587(15)
H9 H 0.2469 0.2064 0.6541
C14 C 0.21503(14) 0.4364(6) 0.68728(14)
H10 H 0.2446 0.5359 0.6902
C15 C 0.16955(12) 0.4862(5) 0.70463(12)
H11 H 0.1691 0.6193 0.7198
C16 C 0.01480(11) 0.4662(4) 0.66867(11)
H12 H -0.0098 0.5299 0.6869
C17 C 0.01760(12) 0.6293(4) 0.62615(12)
H13 H 0.0580 0.6327 0.6264
H14 H 0.0078 0.7689 0.6355
C18 C -0.02909(13) 0.5574(5) 0.56935(13)
C19 C -0.05068(12) 0.3596(5) 0.57289(13)
C20 C -0.02277(12) 0.2900(5) 0.63217(14)
C21 C -0.05082(17) 0.6569(6) 0.51719(17)
H15 H -0.0366 0.7904 0.5138
C22 C -0.0933(2) 0.5592(9) 0.4704(2)
H16 H -0.1088 0.6287 0.4349
C23 C -0.11450(18) 0.3614(9) 0.47331(19)
H17 H -0.1430 0.2970 0.4399
C24 C -0.09378(16) 0.2588(6) 0.52511(19)
H18 H -0.1082 0.1253 0.5281
H19 H 0.0930(14) 0.926(5) 0.8360(13)

#END
