
#######################################################################
#
#                 Cambridge Crystallographic Data Centre
#                                CCDC 
#
#######################################################################
#
# If this CIF has been generated from an entry in the Cambridge 
# Structural Database, then it will include bibliographic, chemical, 
# crystal, experimental, refinement or atomic coordinate data resulting 
# from the CCDC's data processing and validation procedures.
#
#######################################################################

data_ACUNAP
_symmetry_cell_setting           orthorhombic
_symmetry_space_group_name_H-M   'P 21 21 21'
_symmetry_Int_Tables_number      19
_space_group_name_Hall           'P 2ac 2ab'
loop_
_symmetry_equiv_pos_site_id
_symmetry_equiv_pos_as_xyz
1 x,y,z
2 1/2-x,-y,1/2+z
3 -x,1/2+y,1/2-z
4 1/2+x,1/2-y,-z
_cell_length_a                   8.82277(16)
_cell_length_b                   12.7556(2)
_cell_length_c                   18.3611(3)
_cell_angle_alpha                90
_cell_angle_beta                 90
_cell_angle_gamma                90
_cell_volume                     2066.35
loop_
_atom_site_label
_atom_site_type_symbol
_atom_site_fract_x
_atom_site_fract_y
_atom_site_fract_z
Br1 Br 0.31245(6) 0.53295(3) 0.56469(2)
F1 F 0.2381(2) 0.23110(14) 0.11902(10)
F2 F 0.3794(2) 0.10514(15) 0.15704(11)
F3 F 0.1807(2) 0.06979(14) 0.09449(10)
O1 O 0.0071(3) 0.35471(17) 0.23604(13)
O2 O 0.1745(2) 0.02742(16) 0.24633(12)
O3 O -0.1221(3) 0.08352(17) 0.23393(14)
O4 O -0.0622(2) 0.18916(18) 0.14023(13)
N1 N 0.2635(3) 0.3847(2) 0.24955(14)
C1 C 0.1815(4) 0.2131(2) 0.27311(16)
C2 C 0.1369(4) 0.3252(2) 0.24883(18)
C3 C 0.3922(4) 0.3286(2) 0.27218(18)
C4 C 0.5365(4) 0.3645(2) 0.2824(2)
C5 C 0.6421(4) 0.2931(2) 0.3085(2)
C6 C 0.6050(4) 0.1896(2) 0.3233(2)
C7 C 0.4571(4) 0.1547(2) 0.31184(18)
C8 C 0.3504(3) 0.2242(2) 0.28582(17)
C9 C 0.0983(4) 0.1935(2) 0.34692(17)
C10 C 0.1425(4) 0.2735(2) 0.40418(18)
C11 C 0.0633(4) 0.3672(2) 0.41175(18)
C12 C 0.1119(4) 0.4435(2) 0.46027(18)
C13 C 0.2406(4) 0.4265(2) 0.50105(18)
C14 C 0.3181(5) 0.3333(2) 0.49629(18)
C15 C 0.2682(4) 0.2568(2) 0.44811(18)
C16 C 0.1391(4) 0.1259(2) 0.21605(18)
C17 C 0.2342(4) 0.1336(2) 0.14690(19)
C18 C -0.0304(4) 0.1313(2) 0.19730(19)
C19 C -0.2226(4) 0.2063(3) 0.1244(2)
C20 C -0.2326(5) 0.2964(3) 0.0723(2)
H1 H 0.5634 0.4350 0.2721
H2 H 0.2653 0.4513 0.2372
H3 H 0.7432 0.3159 0.3165
H4 H 0.0944 -0.0068 0.2529
H5 H 0.6799 0.1428 0.3412
H6 H 0.4303 0.0840 0.3218
H7 H -0.0126 0.1966 0.3389
H8 H 0.1235 0.1224 0.3648
H9 H -0.0251 0.3791 0.3834
H10 H 0.0568 0.5071 0.4653
H11 H 0.4050 0.3213 0.5257
H12 H 0.3210 0.1920 0.4452
H13 H -0.2785 0.2226 0.1697
H14 H -0.2675 0.1426 0.1023
H15 H -0.1879 0.3589 0.0947
H16 H -0.3392 0.3102 0.0607
H17 H -0.1774 0.2793 0.0276
Br1 Br 0.18755(6) 0.46705(3) 1.06469(2)
F1 F 0.2619(2) 0.76890(14) 0.61902(10)
F2 F 0.1206(2) 0.89486(15) 0.65704(11)
F3 F 0.3193(2) 0.93021(14) 0.59449(10)
O1 O 0.4929(3) 0.64529(17) 0.73604(13)
O2 O 0.3255(2) 0.97258(16) 0.74633(12)
O3 O 0.6221(3) 0.91648(17) 0.73393(14)
O4 O 0.5622(2) 0.81084(18) 0.64023(13)
N1 N 0.2365(3) 0.6153(2) 0.74955(14)
C1 C 0.3185(4) 0.7869(2) 0.77311(16)
C2 C 0.3631(4) 0.6748(2) 0.74883(18)
C3 C 0.1078(4) 0.6714(2) 0.77218(18)
C4 C -0.0365(4) 0.6355(2) 0.7824(2)
C5 C -0.1421(4) 0.7069(2) 0.8085(2)
C6 C -0.1050(4) 0.8104(2) 0.8233(2)
C7 C 0.0429(4) 0.8453(2) 0.81184(18)
C8 C 0.1496(3) 0.7758(2) 0.78582(17)
C9 C 0.4017(4) 0.8065(2) 0.84692(17)
C10 C 0.3575(4) 0.7265(2) 0.90418(18)
C11 C 0.4367(4) 0.6328(2) 0.91175(18)
C12 C 0.3881(4) 0.5565(2) 0.96027(18)
C13 C 0.2594(4) 0.5735(2) 1.00105(18)
C14 C 0.1819(5) 0.6667(2) 0.99629(18)
C15 C 0.2318(4) 0.7432(2) 0.94811(18)
C16 C 0.3609(4) 0.8741(2) 0.71605(18)
C17 C 0.2658(4) 0.8664(2) 0.64690(19)
C18 C 0.5304(4) 0.8687(2) 0.69730(19)
C19 C 0.7226(4) 0.7937(3) 0.6244(2)
C20 C 0.7326(5) 0.7036(3) 0.5723(2)
H1 H -0.0634 0.5650 0.7721
H2 H 0.2347 0.5487 0.7372
H3 H -0.2432 0.6841 0.8165
H4 H 0.4056 1.0068 0.7529
H5 H -0.1799 0.8572 0.8412
H6 H 0.0697 0.9160 0.8218
H7 H 0.5126 0.8034 0.8389
H8 H 0.3765 0.8776 0.8648
H9 H 0.5251 0.6209 0.8834
H10 H 0.4432 0.4929 0.9653
H11 H 0.0950 0.6787 1.0257
H12 H 0.1790 0.8080 0.9452
H13 H 0.7785 0.7774 0.6697
H14 H 0.7675 0.8574 0.6023
H15 H 0.6879 0.6411 0.5947
H16 H 0.8392 0.6898 0.5607
H17 H 0.6774 0.7207 0.5276
Br1 Br 0.68755(6) 1.03295(3) -0.06469(2)
F1 F 0.7619(2) 0.73110(14) 0.38098(10)
F2 F 0.6206(2) 0.60514(15) 0.34296(11)
F3 F 0.8193(2) 0.56979(14) 0.40551(10)
O1 O 0.9929(3) 0.85471(17) 0.26396(13)
O2 O 0.8255(2) 0.52742(16) 0.25367(12)
O3 O 1.1221(3) 0.58352(17) 0.26607(14)
O4 O 1.0622(2) 0.68916(18) 0.35977(13)
N1 N 0.7365(3) 0.8847(2) 0.25045(14)
C1 C 0.8185(4) 0.7131(2) 0.22689(16)
C2 C 0.8631(4) 0.8252(2) 0.25117(18)
C3 C 0.6078(4) 0.8286(2) 0.22782(18)
C4 C 0.4635(4) 0.8645(2) 0.2176(2)
C5 C 0.3579(4) 0.7931(2) 0.1915(2)
C6 C 0.3950(4) 0.6896(2) 0.1767(2)
C7 C 0.5429(4) 0.6547(2) 0.18816(18)
C8 C 0.6496(3) 0.7242(2) 0.21418(17)
C9 C 0.9017(4) 0.6935(2) 0.15308(17)
C10 C 0.8575(4) 0.7735(2) 0.09582(18)
C11 C 0.9367(4) 0.8672(2) 0.08825(18)
C12 C 0.8881(4) 0.9435(2) 0.03973(18)
C13 C 0.7594(4) 0.9265(2) -0.00105(18)
C14 C 0.6819(5) 0.8333(2) 0.00371(18)
C15 C 0.7318(4) 0.7568(2) 0.05189(18)
C16 C 0.8609(4) 0.6259(2) 0.28395(18)
C17 C 0.7658(4) 0.6336(2) 0.35310(19)
C18 C 1.0304(4) 0.6313(2) 0.30270(19)
C19 C 1.2226(4) 0.7063(3) 0.3756(2)
C20 C 1.2326(5) 0.7964(3) 0.4277(2)
H1 H 0.4366 0.9350 0.2279
H2 H 0.7347 0.9513 0.2628
H3 H 0.2568 0.8159 0.1835
H4 H 0.9056 0.4932 0.2471
H5 H 0.3201 0.6428 0.1588
H6 H 0.5697 0.5840 0.1782
H7 H 1.0126 0.6966 0.1611
H8 H 0.8765 0.6224 0.1352
H9 H 1.0251 0.8791 0.1166
H10 H 0.9432 1.0071 0.0347
H11 H 0.5950 0.8213 -0.0257
H12 H 0.6790 0.6920 0.0548
H13 H 1.2785 0.7226 0.3303
H14 H 1.2675 0.6426 0.3977
H15 H 1.1879 0.8589 0.4053
H16 H 1.3392 0.8102 0.4393
H17 H 1.1774 0.7793 0.4724
Br1 Br 0.81245(6) -0.03295(3) 0.43531(2)
F1 F 0.7381(2) 0.26890(14) 0.88098(10)
F2 F 0.8794(2) 0.39486(15) 0.84296(11)
F3 F 0.6807(2) 0.43021(14) 0.90551(10)
O1 O 0.5071(3) 0.14529(17) 0.76396(13)
O2 O 0.6745(2) 0.47258(16) 0.75367(12)
O3 O 0.3779(3) 0.41648(17) 0.76607(14)
O4 O 0.4378(2) 0.31084(18) 0.85977(13)
N1 N 0.7635(3) 0.1153(2) 0.75045(14)
C1 C 0.6815(4) 0.2869(2) 0.72689(16)
C2 C 0.6369(4) 0.1748(2) 0.75117(18)
C3 C 0.8922(4) 0.1714(2) 0.72782(18)
C4 C 1.0365(4) 0.1355(2) 0.7176(2)
C5 C 1.1421(4) 0.2069(2) 0.6915(2)
C6 C 1.1050(4) 0.3104(2) 0.6767(2)
C7 C 0.9571(4) 0.3453(2) 0.68816(18)
C8 C 0.8504(3) 0.2758(2) 0.71418(17)
C9 C 0.5983(4) 0.3065(2) 0.65308(17)
C10 C 0.6425(4) 0.2265(2) 0.59582(18)
C11 C 0.5633(4) 0.1328(2) 0.58825(18)
C12 C 0.6119(4) 0.0565(2) 0.53973(18)
C13 C 0.7406(4) 0.0735(2) 0.49895(18)
C14 C 0.8181(5) 0.1667(2) 0.50371(18)
C15 C 0.7682(4) 0.2432(2) 0.55189(18)
C16 C 0.6391(4) 0.3741(2) 0.78395(18)
C17 C 0.7342(4) 0.3664(2) 0.85310(19)
C18 C 0.4696(4) 0.3687(2) 0.80270(19)
C19 C 0.2774(4) 0.2937(3) 0.8756(2)
C20 C 0.2674(5) 0.2036(3) 0.9277(2)
H1 H 1.0634 0.0650 0.7279
H2 H 0.7653 0.0487 0.7628
H3 H 1.2432 0.1841 0.6835
H4 H 0.5944 0.5068 0.7471
H5 H 1.1799 0.3572 0.6588
H6 H 0.9303 0.4160 0.6782
H7 H 0.4874 0.3034 0.6611
H8 H 0.6235 0.3776 0.6352
H9 H 0.4749 0.1209 0.6166
H10 H 0.5568 -0.0071 0.5347
H11 H 0.9050 0.1787 0.4743
H12 H 0.8210 0.3080 0.5548
H13 H 0.2215 0.2774 0.8303
H14 H 0.2325 0.3574 0.8977
H15 H 0.3121 0.1411 0.9053
H16 H 0.1608 0.1898 0.9393
H17 H 0.3226 0.2207 0.9724

#END
