./ACUPUL_from_POSCAR.cif_generated_by_CrystalShift
_symmetry_cell_setting triclinic
_symmetry_space_group_name_H-M 'P 1'
loop_
_symmetry_equiv_pos_site_id
_symmetry_equiv_pos_as_xyz
1 x,y,z
_cell_length_a 8.877600
_cell_length_b 9.163000
_cell_length_c 22.990400
_cell_angle_alpha 90.000000
_cell_angle_beta 90.000000
_cell_angle_gamma 90.000000
_cell_volume 1870.164406
loop_
_atom_site_label
_atom_site_type_symbol
_atom_site_fract_x
_atom_site_fract_y
_atom_site_fract_z
H1 H 0.376500 1.400500 -0.051700
H2 H 0.335600 1.363700 -0.116400
H3 H 0.228600 1.199800 -0.056200
H4 H 0.949000 0.771400 0.746400
H5 H 0.345900 1.123800 -0.097100
H6 H 0.998200 0.520900 0.779200
H7 H 0.519500 1.111200 -0.021400
H8 H 0.409500 1.196800 0.019700
H9 H 0.581300 0.746400 0.716300
H10 H 0.728300 0.650400 0.713100
H11 H 0.333500 0.921800 -0.026700
H12 H 0.701200 0.923500 0.756500
H13 H 0.243300 1.004500 0.021700
H14 H 0.518000 0.620100 0.031600
H15 H 0.959100 0.859600 0.862900
H16 H 0.359300 0.546600 0.037800
H17 H 0.387900 0.661900 -0.011400
H18 H 0.847400 0.475900 0.877200
H19 H 1.018800 0.441400 0.889400
H20 H 0.706900 0.738400 0.228100
H21 H 1.034600 0.612700 0.961200
H22 H 0.671900 0.620600 0.180500
H23 H 0.752800 0.733200 0.935300
H24 H 0.828400 0.699900 0.181000
H25 H 0.565600 0.946100 0.840100
H26 H 0.644800 0.916200 0.899700
H27 H 0.714300 0.918700 0.156200
H28 H 0.687100 1.157900 0.871800
H29 H 0.762200 1.105200 0.813700
H30 H 0.841600 1.075200 0.873500
H31 H 0.680100 0.801400 0.108700
H32 H 1.180100 0.698600 0.891300
H33 H 1.214300 0.581300 0.843800
H34 H 0.341600 0.424800 0.126500
H35 H 1.328400 0.800100 0.819000
H36 H 1.171900 0.879400 0.819500
H37 H 1.206900 0.761600 0.771900
H38 H 0.262200 0.394800 0.186300
H39 H 0.887900 0.838100 1.011400
H40 H 0.859300 0.953400 0.962200
H41 H 1.018000 0.879900 0.968400
H42 H 0.187100 0.342100 0.128200
H43 H 0.743300 0.495500 0.978300
H44 H 0.833500 0.578200 1.026700
H45 H 0.144800 0.583800 0.100300
H46 H 0.909500 0.303200 0.980300
H47 H 1.019500 0.388800 1.021400
H48 H 0.065600 0.553900 0.159900
H49 H 0.845900 0.376200 1.097100
H50 H 0.728600 0.300200 1.056200
H51 H 0.252800 0.766800 0.064700
H52 H 0.835600 0.136300 1.116400
H53 H 0.995400 0.175600 1.092000
H54 H 0.876500 0.099500 1.051700
H55 H 0.534600 0.887300 0.038800
H56 H 0.518800 1.058600 0.110600
H57 H 0.347400 1.024100 0.122800
H58 H 0.551000 0.228600 0.246400
H59 H 0.459100 0.640400 0.137100
H60 H 0.501800 0.479100 0.279200
H61 H 0.201200 0.576500 0.243500
H62 H 0.228300 0.849600 0.286900
H63 H 0.918700 0.253600 0.216300
H64 H 0.771700 0.349600 0.213100
H65 H 0.081300 0.753600 0.283700
H66 H 0.798800 0.076500 0.256500
H67 H 0.498200 0.979100 0.220800
H68 H 0.449000 0.728600 0.253600
H69 H 0.540900 0.140400 0.362900
H70 H 0.123500 -0.400500 0.448300
H71 H 0.004600 -0.324400 0.408000
H72 H 0.652600 0.524100 0.377200
H73 H 0.481200 0.558600 0.389400
H74 H 0.164400 -0.363700 0.383600
H75 H 0.465400 0.387300 0.461200
H76 H 0.271400 -0.199800 0.443800
H77 H 0.747200 0.266800 0.435300
H78 H 0.154100 -0.123800 0.402900
H79 H 0.934400 0.053900 0.340100
H80 H 0.855200 0.083800 0.399700
H81 H -0.019500 -0.111200 0.478600
H82 H 0.812900 -0.157900 0.371800
H83 H 0.737800 -0.105200 0.313700
H84 H 0.658400 -0.075200 0.373500
H85 H 0.090500 -0.196800 0.519700
H86 H 0.319900 0.301400 0.391300
H87 H 0.285700 0.418700 0.343800
H88 H 0.166500 0.078200 0.473300
H89 H 0.171600 0.199900 0.319000
H90 H 0.328100 0.120600 0.319500
H91 H 0.293100 0.238400 0.271900
H92 H 0.256700 -0.004500 0.521700
H93 H 0.612100 0.161900 0.511400
H94 H 0.640700 0.046600 0.462200
H95 H 0.482000 0.120100 0.468400
H96 H -0.018000 0.379900 0.531600
H97 H 0.756700 0.504500 0.478300
H98 H 0.666500 0.421800 0.526700
H99 H 0.140700 0.453400 0.537800
H100 H 0.590500 0.696800 0.480300
H101 H 0.480500 0.611200 0.521400
H102 H 0.112100 0.338100 0.488600
H103 H 0.654100 0.623800 0.597100
H104 H 0.771400 0.699800 0.556200
H105 H -0.206900 0.261600 0.728100
H106 H 0.664400 0.863700 0.616400
H107 H 0.504600 0.824400 0.592000
H108 H 0.623500 0.900500 0.551700
H109 H -0.171900 0.379400 0.680500
H110 H -0.328400 0.300100 0.681000
H111 H -0.214300 0.081300 0.656200
H112 H 0.051000 0.271400 0.753600
H113 H -0.180100 0.198600 0.608700
H114 H 0.001800 0.020900 0.720800
H115 H 0.158400 0.575200 0.626500
H116 H 0.237800 0.605200 0.686300
H117 H 0.418700 0.246400 0.783700
H118 H 0.271700 0.150400 0.786900
H119 H 0.312900 0.657900 0.628200
H120 H 0.298800 0.423500 0.743500
H121 H 0.355200 0.416200 0.600300
H122 H 0.434400 0.446100 0.659900
H123 H 0.040900 0.359600 0.637100
H124 H 0.247200 0.233200 0.564700
H125 H -0.034600 0.112700 0.538800
H126 H 0.152600 -0.024100 0.622800
H127 H -0.018800 -0.058600 0.610600
H128 H 0.495400 1.324400 -0.092000
C129 C 0.056500 0.018100 0.611860
C130 C 0.137900 0.243600 0.568910
C131 C 0.010560 0.138420 0.654190
C132 C 0.337100 0.436800 0.641070
C133 C 0.105630 0.273180 0.634600
C134 C 0.253010 0.306990 0.668030
C135 C 0.253800 0.582300 0.645980
C136 C 0.244450 0.332800 0.735130
C137 C 0.334600 0.208600 0.761410
C138 C 0.389690 0.119200 0.711920
C139 C -0.159600 0.170900 0.648670
C140 C 0.390300 1.331600 -0.082730
C141 C 0.335200 1.191300 -0.064830
C142 C -0.222500 0.288900 0.688190
C143 C 0.610310 0.619200 0.788080
C144 C 0.665400 0.708600 0.738590
C145 C 0.609700 0.831600 0.582730
C146 C 0.088600 0.364900 0.527940
C147 C 0.664800 0.691300 0.564830
C148 C 0.585800 0.627400 0.512130
C149 C 0.656300 0.484800 0.493050
C150 C 0.156300 0.015200 0.506950
C151 C 0.588600 0.135100 0.472060
C152 C 0.277500 0.211100 0.311810
C153 C 0.085800 -0.127400 0.487870
C154 C 0.340400 0.329100 0.351330
C155 C 0.753800 -0.082300 0.354020
C156 C 0.164800 -0.191300 0.435170
C157 C 0.837100 0.063200 0.358930
C158 C 0.637900 0.256400 0.431090
C159 C 0.109700 -0.331600 0.417270
C160 C 0.567700 0.404200 0.446550
C161 C 0.556500 0.481900 0.388140
C162 C 0.510560 0.361580 0.345810
C163 C 0.414200 1.127400 -0.012130
C164 C 0.755550 0.832800 0.764870
C165 C 0.746990 0.806990 0.831970
C166 C 0.605630 0.226820 0.365400
C167 C 0.343700 0.984800 0.006950
C168 C 0.753010 0.193010 0.331970
C169 C 0.110310 0.880800 0.211920
C170 C 0.165400 0.791400 0.261410
C171 C 0.744450 0.167200 0.264870
C172 C 0.834600 0.291400 0.238590
C173 C 0.255550 0.667200 0.235130
C174 C 0.889690 0.380800 0.288080
C175 C 0.246990 0.693010 0.168030
C176 C 0.394370 0.726820 0.134600
C177 C 0.894370 0.773180 0.865400
C178 C 0.489440 0.861580 0.154190
C179 C 0.443500 0.981900 0.111860
C180 C 0.989440 0.638420 0.845810
C181 C 0.943500 0.518100 0.888140
C182 C 0.432300 0.904200 0.053450
C183 C 0.411400 0.635100 0.027940
C184 C 0.362100 0.756400 0.068910
C185 C 0.890300 0.168400 1.082730
C186 C 0.162900 0.563200 0.141070
C187 C 0.835200 0.308700 1.064830
C188 C 0.914200 0.372600 1.012130
C189 C 0.246200 0.417700 0.145980
C190 C 0.843700 0.515200 0.993050
C191 C 0.911400 0.864900 0.972060
C192 C 1.222500 0.788900 0.811810
C193 C 0.659600 0.829100 0.148670
C194 C 1.159600 0.670900 0.851330
C195 C 0.746200 1.082300 0.854020
C196 C 0.722500 0.711100 0.188190
C197 C 0.662900 0.936800 0.858930
C198 C 0.862100 0.743600 0.931090
C199 C 0.932300 0.595800 0.946550
C200 C 0.067700 0.095800 0.553450
O201 O 0.850670 0.319920 0.339030
O202 O 0.598090 0.152720 0.241270
O203 O 0.544140 0.401990 0.286970
O204 O 0.455860 0.901990 0.213030
O205 O 0.401910 0.652720 0.258730
O206 O 0.149330 0.819920 0.160970
O207 O 0.038400 0.991000 0.213640
O208 O 0.461600 0.009000 0.713640
O209 O 0.350670 0.180080 0.660970
O210 O 0.098090 0.347280 0.758730
O211 O 0.955860 0.598010 0.786970
O212 O 0.901910 0.847280 0.741270
O213 O 0.044140 0.098010 0.713030
O214 O 0.649330 0.680080 0.839030
O215 O 0.961600 0.491000 0.286360
O216 O 0.538400 0.509000 0.786360

#END
