./ACUPEV_from_POSCAR.cif_generated_by_CrystalShift
_symmetry_cell_setting triclinic
_symmetry_space_group_name_H-M 'P 1'
loop_
_symmetry_equiv_pos_site_id
_symmetry_equiv_pos_as_xyz
1 x,y,z
_cell_length_a 6.016500
_cell_length_b 8.109100
_cell_length_c 35.409100
_cell_angle_alpha 90.000000
_cell_angle_beta 90.000000
_cell_angle_gamma 90.000000
_cell_volume 1727.553340
loop_
_atom_site_label
_atom_site_type_symbol
_atom_site_fract_x
_atom_site_fract_y
_atom_site_fract_z
H1 H 0.322100 0.291600 0.169900
H2 H 1.070800 0.615300 0.302500
H3 H 1.188300 0.490500 0.331300
H4 H 0.963300 0.685800 0.140900
H5 H 1.279900 0.849000 0.136000
H6 H 1.159200 0.910300 0.024200
H7 H 0.839000 0.746700 0.029500
H8 H 0.385500 0.229600 0.232500
H9 H 0.591100 0.239600 0.287600
H10 H 1.040100 0.537200 0.237000
H11 H 0.832600 0.526000 0.181400
H12 H 0.269500 0.471400 0.010000
H13 H -0.047600 0.309700 0.016700
H14 H -0.144500 0.202000 0.075500
H15 H 0.081700 0.253400 0.128000
H16 H -0.177900 1.208400 0.830100
H17 H 0.738000 1.022400 0.713000
H18 H 0.570800 0.884700 0.697500
H19 H 0.688300 1.009500 0.668700
H20 H 0.463300 0.814200 0.859100
H21 H 0.779900 0.651000 0.864000
H22 H 0.659200 0.589700 0.975800
H23 H 0.339000 0.753300 0.970500
H24 H -0.114500 1.270400 0.767500
H25 H 0.091100 1.260400 0.712400
H26 H 0.540100 0.962800 0.763000
H27 H 0.332600 0.974000 0.818600
H28 H -0.230500 1.028600 0.990000
H29 H 1.418300 0.746600 0.628000
H30 H 1.644500 0.798000 0.575500
H31 H 1.547600 0.690300 0.516700
H32 H 1.230500 0.528600 0.510000
H33 H 0.667400 0.474000 0.681400
H34 H 0.459900 0.462800 0.737000
H35 H 0.908900 0.760400 0.787600
H36 H 1.114500 0.770400 0.732500
H37 H 0.661000 0.253300 0.529500
H38 H 0.340800 0.089700 0.524200
H39 H 0.220100 0.151000 0.636000
H40 H 0.536700 0.314200 0.640900
H41 H 0.311700 0.509500 0.831300
H42 H 0.429200 0.384700 0.802500
H43 H 0.262000 0.522400 0.787000
H44 H 1.177900 0.708400 0.669900
H45 H -0.547600 1.190300 0.983300
H46 H -0.644500 1.298000 0.924500
H47 H -0.418300 1.246600 0.872000
H48 H 0.677900 -0.208400 0.330100
H49 H -0.238000 -0.022400 0.213000
H50 H -0.070800 0.115300 0.197500
H51 H -0.188300 -0.009500 0.168700
H52 H 0.036700 0.185800 0.359100
H53 H -0.279900 0.349000 0.364000
H54 H -0.159200 0.410300 0.475800
H55 H 0.161000 0.246700 0.470500
H56 H 0.614500 -0.270400 0.267500
H57 H 0.408900 -0.260400 0.212400
H58 H -0.040100 0.037200 0.263000
H59 H 0.167400 0.026000 0.318600
H60 H 0.730500 -0.028600 0.490000
H61 H 1.047600 -0.190300 0.483300
H62 H 1.144500 -0.298000 0.424500
H63 H 0.918300 -0.246600 0.372000
H64 H 1.238000 0.477600 0.287000
C65 C 0.481800 -0.207100 0.266890
C66 C 0.128000 0.197200 0.413900
C67 C 0.070400 0.266500 0.449000
C68 C -0.118300 0.363500 0.452240
C69 C -0.245100 0.390400 0.420390
C70 C -0.190700 0.326900 0.385590
C71 C -0.003300 0.230600 0.382910
C72 C -0.124200 0.002100 0.193990
C73 C 0.165500 -0.109600 0.232250
C74 C 0.093400 -0.025200 0.263860
C75 C 0.218100 -0.032200 0.297010
C76 C 0.416300 -0.122700 0.299350
C77 C 0.552500 -0.138600 0.333300
C78 C 0.633200 -0.041500 0.434960
C79 C 0.767900 -0.072900 0.465950
C80 C 0.956500 -0.168600 0.461920
C81 C 1.013900 -0.233200 0.427090
C82 C 0.879300 -0.202700 0.395960
C83 C 0.687000 -0.107900 0.399780
C84 C 0.536200 -0.074500 0.368010
C85 C 0.327000 0.091500 0.411540
C86 C 0.827000 0.408500 0.588460
C87 C 1.036200 0.574500 0.631990
C88 C 1.187000 0.607900 0.600220
C89 C 1.379300 0.702700 0.604040
C90 C 1.513900 0.733200 0.572910
C91 C 1.456500 0.668600 0.538080
C92 C 1.267900 0.572900 0.534050
C93 C 1.133200 0.541500 0.565040
C94 C 1.052500 0.638600 0.666700
C95 C 0.173000 0.908500 0.911540
C96 C -0.036200 1.074500 0.868010
C97 C -0.187000 1.107900 0.899780
C98 C -0.379300 1.202700 0.895960
C99 C -0.513900 1.233200 0.927090
C100 C -0.456500 1.168600 0.961920
C101 C -0.267900 1.072900 0.965950
C102 C -0.133200 1.041500 0.934960
C103 C -0.052500 1.138600 0.833300
C104 C 0.083700 1.122700 0.799350
C105 C 0.281900 1.032200 0.797010
C106 C 0.406600 1.025200 0.763860
C107 C 0.334500 1.109600 0.732250
C108 C 0.140300 1.201200 0.734020
C109 C 0.018200 1.207100 0.766890
C110 C 0.372000 0.802800 0.913900
C111 C 0.429600 0.733500 0.949000
C112 C 0.618300 0.636500 0.952240
C113 C 0.745100 0.609600 0.920390
C114 C 0.690700 0.673100 0.885590
C115 C 0.503300 0.769400 0.882910
C116 C 0.624200 0.997900 0.693990
C117 C 1.124200 0.502100 0.306010
C118 C 1.003300 0.730600 0.117090
C119 C 1.190700 0.826900 0.114410
C120 C 0.375800 0.497900 0.806010
C121 C 0.496700 0.269400 0.617090
C122 C 0.309300 0.173100 0.614410
C123 C 0.254900 0.109600 0.579610
C124 C 0.381700 0.136500 0.547760
C125 C 0.570400 0.233500 0.551000
C126 C 0.628000 0.302800 0.586100
C127 C 0.981800 0.707100 0.733110
C128 C 0.859700 0.701200 0.765980
C129 C 0.665500 0.609600 0.767750
C130 C 0.593400 0.525200 0.736140
C131 C 0.718100 0.532200 0.702990
C132 C 0.916300 0.622700 0.700650
C133 C 1.245100 0.890400 0.079610
C134 C 1.118300 0.863500 0.047760
C135 C 0.929600 0.766500 0.051000
C136 C 0.872000 0.697200 0.086100
C137 C 0.518200 0.292900 0.233110
C138 C 0.640300 0.298800 0.265980
C139 C 0.673000 0.591500 0.088460
C140 C 0.463800 0.425500 0.131990
C141 C 0.313000 0.392100 0.100220
C142 C 0.120700 0.297300 0.104040
C143 C -0.013900 0.266800 0.072910
C144 C 0.043500 0.331400 0.038080
C145 C 0.232100 0.427100 0.034050
C146 C 0.366800 0.458500 0.065040
C147 C 0.447500 0.361400 0.166700
C148 C 0.583700 0.377300 0.200650
C149 C 0.781900 0.467800 0.202990
C150 C 0.906600 0.474800 0.236140
C151 C 0.834500 0.390400 0.267750
C152 C 0.359700 -0.201200 0.234020
N153 N 0.554400 0.559500 0.059760
N154 N 0.945600 0.440500 0.559760
N155 N 0.051600 0.010100 0.576700
N156 N -0.448400 0.489900 0.423300
N157 N 0.445600 0.059500 0.440240
N158 N 1.448400 0.989900 0.076700
N159 N 0.054400 0.940500 0.940240
N160 N 0.948400 0.510100 0.923300
O161 O 0.057200 -0.110200 0.198160
O162 O -0.556800 0.514200 0.394450
O163 O 0.137900 0.966000 0.875510
O164 O -0.501000 0.542100 0.454490
O165 O 1.056800 0.485800 0.894450
O166 O 1.001000 0.457900 0.954490
O167 O 0.362100 0.034000 0.375510
O168 O 1.501000 1.042100 0.045510
O169 O 1.556800 1.014200 0.105550
O170 O 0.942800 0.389800 0.301840
O171 O 0.637900 0.534000 0.124490
O172 O 0.862100 0.466000 0.624490
O173 O 0.557200 0.610200 0.801840
O174 O -0.056800 -0.014200 0.605550
O175 O 0.442800 1.110200 0.698160
O176 O -0.001000 -0.042100 0.545510

#END
