
#######################################################################
#
#                 Cambridge Crystallographic Data Centre
#                                CCDC 
#
#######################################################################
#
# If this CIF has been generated from an entry in the Cambridge 
# Structural Database, then it will include bibliographic, chemical, 
# crystal, experimental, refinement or atomic coordinate data resulting 
# from the CCDC's data processing and validation procedures.
#
#######################################################################

data_ACUSAT
_symmetry_cell_setting           triclinic
_symmetry_space_group_name_H-M   'P -1'
_symmetry_Int_Tables_number      2
_space_group_name_Hall           '-P 1'
loop_
_symmetry_equiv_pos_site_id
_symmetry_equiv_pos_as_xyz
1 x,y,z
2 -x,-y,-z
_cell_length_a                   10.380(2)
_cell_length_b                   10.971(2)
_cell_length_c                   11.236(2)
_cell_angle_alpha                93.73(3)
_cell_angle_beta                 95.36(3)
_cell_angle_gamma                105.83(3)
_cell_volume                     1220.15
loop_
_atom_site_label
_atom_site_type_symbol
_atom_site_fract_x
_atom_site_fract_y
_atom_site_fract_z
Re1 Re 0.303019(19) 0.209607(18) 0.263755(18)
N1 N 0.4322(4) 0.0823(4) 0.2575(4)
N2 N 0.4299(4) 0.2551(4) 0.4364(4)
C1 C 0.1504(6) 0.0947(5) 0.3192(6)
O1 O 0.0560(4) 0.0307(4) 0.3496(5)
C2 C 0.2046(5) 0.3346(5) 0.2779(5)
O2 O 0.1429(5) 0.4058(4) 0.2855(4)
C3 C 0.2151(6) 0.1595(5) 0.1030(6)
O3 O 0.1593(5) 0.1232(4) 0.0080(4)
C4 C 0.5180(5) 0.3530(5) 0.1154(4)
O4 O 0.4834(3) 0.3415(3) 0.2206(3)
O5 O 0.4489(4) 0.2972(5) 0.0239(4)
C5 C 0.6582(5) 0.4435(5) 0.1061(4)
H1 H 0.6438 0.5063 0.0519
C6 C 0.4311(6) -0.0052(5) 0.1687(5)
H2 H 0.3634 -0.0216 0.1046
C7 C 0.5250(8) -0.0721(6) 0.1676(6)
H3 H 0.5201 -0.1325 0.1041
C8 C 0.6261(7) -0.0495(6) 0.2605(6)
H4 H 0.6909 -0.0937 0.2600
C9 C 0.6315(5) 0.0406(5) 0.3564(5)
C10 C 0.7311(6) 0.0698(6) 0.4578(6)
H5 H 0.7986 0.0287 0.4615
C11 C 0.7298(6) 0.1556(6) 0.5482(6)
H6 H 0.7964 0.1728 0.6133
C12 C 0.6278(5) 0.2209(5) 0.5464(4)
C13 C 0.6218(6) 0.3122(5) 0.6370(5)
H7 H 0.6853 0.3322 0.7045
C14 C 0.5227(6) 0.3716(5) 0.6261(5)
H8 H 0.5184 0.4322 0.6862
C15 C 0.4286(5) 0.3417(5) 0.5257(5)
H9 H 0.3616 0.3834 0.5198
C16 C 0.5309(5) 0.1035(4) 0.3513(4)
C17 C 0.5292(4) 0.1956(4) 0.4471(4)
C18 C 0.7356(5) 0.5180(4) 0.2197(5)
C19 C 0.7811(6) 0.6500(5) 0.2240(6)
H10 H 0.7562 0.6914 0.1598
C20 C 0.8646(6) 0.7209(6) 0.3248(7)
H11 H 0.8956 0.8090 0.3268
C21 C 0.9009(6) 0.6601(7) 0.4211(6)
H12 H 0.9575 0.7069 0.4872
C22 C 0.8529(6) 0.5306(6) 0.4184(6)
H13 H 0.8747 0.4896 0.4840
C23 C 0.7731(5) 0.4610(5) 0.3197(5)
H14 H 0.7429 0.3730 0.3192
C24 C 0.7437(5) 0.3705(5) 0.0445(4)
C25 C 0.8116(5) 0.4213(6) -0.0498(5)
H15 H 0.8001 0.4961 -0.0776
C26 C 0.8960(6) 0.3618(8) -0.1025(6)
H16 H 0.9418 0.3972 -0.1649
C27 C 0.9124(7) 0.2516(8) -0.0638(6)
H17 H 0.9679 0.2108 -0.1007
C28 C 0.8466(7) 0.2004(6) 0.0301(7)
H18 H 0.8594 0.1259 0.0577
C29 C 0.7617(6) 0.2589(5) 0.0835(6)
H19 H 0.7165 0.2231 0.1460
Re1 Re 0.696981(19) 0.790393(18) 0.736245(18)
N1 N 0.5678(4) 0.9177(4) 0.7425(4)
N2 N 0.5701(4) 0.7449(4) 0.5636(4)
C1 C 0.8496(6) 0.9053(5) 0.6808(6)
O1 O 0.9440(4) 0.9693(4) 0.6504(5)
C2 C 0.7954(5) 0.6654(5) 0.7221(5)
O2 O 0.8571(5) 0.5942(4) 0.7145(4)
C3 C 0.7849(6) 0.8405(5) 0.8970(6)
O3 O 0.8407(5) 0.8768(4) 0.9920(4)
C4 C 0.4820(5) 0.6470(5) 0.8846(4)
O4 O 0.5166(3) 0.6585(3) 0.7794(3)
O5 O 0.5511(4) 0.7028(5) 0.9761(4)
C5 C 0.3418(5) 0.5565(5) 0.8939(4)
H1 H 0.3562 0.4937 0.9481
C6 C 0.5689(6) 1.0052(5) 0.8313(5)
H2 H 0.6366 1.0216 0.8954
C7 C 0.4750(8) 1.0721(6) 0.8324(6)
H3 H 0.4799 1.1325 0.8959
C8 C 0.3739(7) 1.0495(6) 0.7395(6)
H4 H 0.3091 1.0937 0.7400
C9 C 0.3685(5) 0.9594(5) 0.6436(5)
C10 C 0.2689(6) 0.9302(6) 0.5422(6)
H5 H 0.2014 0.9713 0.5385
C11 C 0.2702(6) 0.8444(6) 0.4518(6)
H6 H 0.2036 0.8272 0.3867
C12 C 0.3722(5) 0.7791(5) 0.4536(4)
C13 C 0.3782(6) 0.6878(5) 0.3630(5)
H7 H 0.3147 0.6678 0.2955
C14 C 0.4773(6) 0.6284(5) 0.3739(5)
H8 H 0.4816 0.5678 0.3138
C15 C 0.5714(5) 0.6583(5) 0.4743(5)
H9 H 0.6384 0.6166 0.4802
C16 C 0.4691(5) 0.8965(4) 0.6487(4)
C17 C 0.4708(4) 0.8044(4) 0.5529(4)
C18 C 0.2644(5) 0.4820(4) 0.7803(5)
C19 C 0.2189(6) 0.3500(5) 0.7760(6)
H10 H 0.2438 0.3086 0.8402
C20 C 0.1354(6) 0.2791(6) 0.6752(7)
H11 H 0.1044 0.1910 0.6732
C21 C 0.0991(6) 0.3399(7) 0.5789(6)
H12 H 0.0425 0.2931 0.5128
C22 C 0.1471(6) 0.4694(6) 0.5816(6)
H13 H 0.1253 0.5104 0.5160
C23 C 0.2269(5) 0.5390(5) 0.6803(5)
H14 H 0.2571 0.6270 0.6808
C24 C 0.2563(5) 0.6295(5) 0.9555(4)
C25 C 0.1884(5) 0.5787(6) 1.0498(5)
H15 H 0.1999 0.5039 1.0776
C26 C 0.1040(6) 0.6382(8) 1.1025(6)
H16 H 0.0582 0.6028 1.1649
C27 C 0.0876(7) 0.7484(8) 1.0638(6)
H17 H 0.0321 0.7892 1.1007
C28 C 0.1534(7) 0.7996(6) 0.9699(7)
H18 H 0.1406 0.8741 0.9423
C29 C 0.2383(6) 0.7411(5) 0.9165(6)
H19 H 0.2835 0.7769 0.8540

#END
