
#######################################################################
#
#                 Cambridge Crystallographic Data Centre
#                                CCDC 
#
#######################################################################
#
# If this CIF has been generated from an entry in the Cambridge 
# Structural Database, then it will include bibliographic, chemical, 
# crystal, experimental, refinement or atomic coordinate data resulting 
# from the CCDC's data processing and validation procedures.
#
#######################################################################

data_ACUTAV
_symmetry_cell_setting           orthorhombic
_symmetry_space_group_name_H-M   'P 21 21 21'
_symmetry_Int_Tables_number      19
_space_group_name_Hall           'P 2ac 2ab'
loop_
_symmetry_equiv_pos_site_id
_symmetry_equiv_pos_as_xyz
1 x,y,z
2 1/2+x,1/2-y,-z
3 -x,1/2+y,1/2-z
4 1/2-x,-y,1/2+z
_cell_length_a                   10.5822(4)
_cell_length_b                   11.4387(6)
_cell_length_c                   12.8091(8)
_cell_angle_alpha                90
_cell_angle_beta                 90
_cell_angle_gamma                90
_cell_volume                     1550.5
loop_
_atom_site_label
_atom_site_type_symbol
_atom_site_fract_x
_atom_site_fract_y
_atom_site_fract_z
I1 I 0.64918(8) 0.50342(11) 0.50495(12)
C1 C 0.5195(12) 0.6463(11) 0.4767(11)
C2 C 0.4771(13) 0.6391(13) 0.3629(12)
N1 N 0.3689(9) 0.7274(10) 0.3596(8)
C3 C 0.4402(12) 0.8381(12) 0.3604(11)
C4 C 0.4826(11) 0.8602(10) 0.4724(10)
C5 C 0.5714(10) 0.7630(10) 0.5134(13)
O1 O 0.6977(7) 0.7854(8) 0.4777(7)
C6 C 0.5365(10) 0.9810(9) 0.4909(14)
O2 O 0.5547(9) 1.0018(11) 0.5912(8)
C7 C 0.5881(14) 1.1200(13) 0.6252(12)
C8 C 0.7176(14) 1.1542(13) 0.5827(13)
C9 C 0.5931(16) 1.1092(13) 0.7424(13)
C10 C 0.4861(14) 1.2040(14) 0.5922(14)
O3 O 0.5537(10) 1.0458(9) 0.4195(8)
C11 C 0.5467(15) 0.8214(13) 0.2797(13)
C12 C 0.5739(15) 0.6884(14) 0.2838(13)
C13 C 0.2966(13) 0.7128(15) 0.2626(11)
H1 H 0.4439 0.6302 0.5188
H2 H 0.4480 0.5612 0.3429
H3 H 0.3858 0.9027 0.3388
H4 H 0.4059 0.8562 0.5145
H5 H 0.5710 0.7658 0.5899
H6 H 0.7466 1.2261 0.6191
H7 H 0.7751 1.0887 0.5970
H8 H 0.7119 1.1678 0.5064
H9 H 0.6109 1.1848 0.7720
H10 H 0.6591 1.0551 0.7602
H11 H 0.5136 1.0813 0.7671
H12 H 0.4928 1.2728 0.6346
H13 H 0.4058 1.1663 0.6034
H14 H 0.4965 1.2231 0.5197
H15 H 0.6206 0.8652 0.3028
H16 H 0.5230 0.8466 0.2101
H17 H 0.6594 0.6739 0.3085
H18 H 0.5635 0.6539 0.2149
H19 H 0.2469 0.7819 0.2505
H20 H 0.3534 0.7004 0.2048
H21 H 0.2421 0.6464 0.2705
H22 H 0.7013 0.7858 0.5410
I1 I 0.14918(8) 0.99658(11) 0.49505(12)
C1 C 0.0195(12) 0.8537(11) 0.5233(11)
C2 C -0.0229(13) 0.8609(13) 0.6371(12)
N1 N -0.1311(9) 0.7726(10) 0.6404(8)
C3 C -0.0598(12) 0.6619(12) 0.6396(11)
C4 C -0.0174(11) 0.6398(10) 0.5276(10)
C5 C 0.0714(10) 0.7370(10) 0.4866(13)
O1 O 0.1977(7) 0.7146(8) 0.5223(7)
C6 C 0.0365(10) 0.5190(9) 0.5091(14)
O2 O 0.0547(9) 0.4982(11) 0.4088(8)
C7 C 0.0881(14) 0.3800(13) 0.3748(12)
C8 C 0.2176(14) 0.3458(13) 0.4173(13)
C9 C 0.0931(16) 0.3908(13) 0.2576(13)
C10 C -0.0139(14) 0.2960(14) 0.4078(14)
O3 O 0.0537(10) 0.4542(9) 0.5805(8)
C11 C 0.0467(15) 0.6786(13) 0.7203(13)
C12 C 0.0739(15) 0.8116(14) 0.7162(13)
C13 C -0.2034(13) 0.7872(15) 0.7374(11)
H1 H -0.0561 0.8698 0.4812
H2 H -0.0520 0.9388 0.6571
H3 H -0.1142 0.5973 0.6612
H4 H -0.0941 0.6438 0.4855
H5 H 0.0710 0.7342 0.4101
H6 H 0.2466 0.2739 0.3809
H7 H 0.2751 0.4113 0.4030
H8 H 0.2119 0.3322 0.4936
H9 H 0.1109 0.3152 0.2280
H10 H 0.1591 0.4449 0.2398
H11 H 0.0136 0.4187 0.2329
H12 H -0.0072 0.2272 0.3654
H13 H -0.0942 0.3337 0.3966
H14 H -0.0035 0.2769 0.4803
H15 H 0.1206 0.6348 0.6972
H16 H 0.0230 0.6534 0.7899
H17 H 0.1594 0.8261 0.6915
H18 H 0.0635 0.8461 0.7851
H19 H -0.2531 0.7181 0.7495
H20 H -0.1466 0.7996 0.7952
H21 H -0.2579 0.8536 0.7295
H22 H 0.2013 0.7142 0.4590
I1 I 0.35082(8) 0.00342(11) -0.00495(12)
C1 C 0.4805(12) 0.1463(11) 0.0233(11)
C2 C 0.5229(13) 0.1391(13) 0.1371(12)
N1 N 0.6311(9) 0.2274(10) 0.1404(8)
C3 C 0.5598(12) 0.3381(12) 0.1396(11)
C4 C 0.5174(11) 0.3602(10) 0.0276(10)
C5 C 0.4286(10) 0.2630(10) -0.0134(13)
O1 O 0.3023(7) 0.2854(8) 0.0223(7)
C6 C 0.4635(10) 0.4810(9) 0.0091(14)
O2 O 0.4453(9) 0.5018(11) -0.0912(8)
C7 C 0.4119(14) 0.6200(13) -0.1252(12)
C8 C 0.2824(14) 0.6542(13) -0.0827(13)
C9 C 0.4069(16) 0.6092(13) -0.2424(13)
C10 C 0.5139(14) 0.7040(14) -0.0922(14)
O3 O 0.4463(10) 0.5458(9) 0.0805(8)
C11 C 0.4533(15) 0.3214(13) 0.2203(13)
C12 C 0.4261(15) 0.1884(14) 0.2162(13)
C13 C 0.7034(13) 0.2128(15) 0.2374(11)
H1 H 0.5561 0.1302 -0.0188
H2 H 0.5520 0.0612 0.1571
H3 H 0.6142 0.4027 0.1612
H4 H 0.5941 0.3562 -0.0145
H5 H 0.4290 0.2658 -0.0899
H6 H 0.2534 0.7261 -0.1191
H7 H 0.2249 0.5887 -0.0970
H8 H 0.2881 0.6678 -0.0064
H9 H 0.3891 0.6848 -0.2720
H10 H 0.3409 0.5551 -0.2602
H11 H 0.4864 0.5813 -0.2671
H12 H 0.5072 0.7728 -0.1346
H13 H 0.5942 0.6663 -0.1034
H14 H 0.5035 0.7231 -0.0197
H15 H 0.3794 0.3652 0.1972
H16 H 0.4770 0.3466 0.2899
H17 H 0.3406 0.1739 0.1915
H18 H 0.4365 0.1539 0.2851
H19 H 0.7531 0.2819 0.2495
H20 H 0.6466 0.2004 0.2952
H21 H 0.7579 0.1464 0.2295
H22 H 0.2987 0.2858 -0.0410
I1 I 0.85082(8) 0.49658(11) 1.00495(12)
C1 C 0.9805(12) 0.3537(11) 0.9767(11)
C2 C 1.0229(13) 0.3609(13) 0.8629(12)
N1 N 1.1311(9) 0.2726(10) 0.8596(8)
C3 C 1.0598(12) 0.1619(12) 0.8604(11)
C4 C 1.0174(11) 0.1398(10) 0.9724(10)
C5 C 0.9286(10) 0.2370(10) 1.0134(13)
O1 O 0.8023(7) 0.2146(8) 0.9777(7)
C6 C 0.9635(10) 0.0190(9) 0.9909(14)
O2 O 0.9453(9) -0.0018(11) 1.0912(8)
C7 C 0.9119(14) -0.1200(13) 1.1252(12)
C8 C 0.7824(14) -0.1542(13) 1.0827(13)
C9 C 0.9069(16) -0.1092(13) 1.2424(13)
C10 C 1.0139(14) -0.2040(14) 1.0922(14)
O3 O 0.9463(10) -0.0458(9) 0.9195(8)
C11 C 0.9533(15) 0.1786(13) 0.7797(13)
C12 C 0.9261(15) 0.3116(14) 0.7838(13)
C13 C 1.2034(13) 0.2872(15) 0.7626(11)
H1 H 1.0561 0.3698 1.0188
H2 H 1.0520 0.4388 0.8429
H3 H 1.1142 0.0973 0.8388
H4 H 1.0941 0.1438 1.0145
H5 H 0.9290 0.2342 1.0899
H6 H 0.7534 -0.2261 1.1191
H7 H 0.7249 -0.0887 1.0970
H8 H 0.7881 -0.1678 1.0064
H9 H 0.8891 -0.1848 1.2720
H10 H 0.8409 -0.0551 1.2602
H11 H 0.9864 -0.0813 1.2671
H12 H 1.0072 -0.2728 1.1346
H13 H 1.0942 -0.1663 1.1034
H14 H 1.0035 -0.2231 1.0197
H15 H 0.8794 0.1348 0.8028
H16 H 0.9770 0.1534 0.7101
H17 H 0.8406 0.3261 0.8085
H18 H 0.9365 0.3461 0.7149
H19 H 1.2531 0.2181 0.7505
H20 H 1.1466 0.2996 0.7048
H21 H 1.2579 0.3536 0.7705
H22 H 0.7987 0.2142 1.0410

#END
