
#######################################################################
#
#                 Cambridge Crystallographic Data Centre
#                                CCDC 
#
#######################################################################
#
# If this CIF has been generated from an entry in the Cambridge 
# Structural Database, then it will include bibliographic, chemical, 
# crystal, experimental, refinement or atomic coordinate data resulting 
# from the CCDC's data processing and validation procedures.
#
#######################################################################

data_ACUYUU
_symmetry_cell_setting           monoclinic
_symmetry_space_group_name_H-M   'P 21/n'
_symmetry_Int_Tables_number      14
_space_group_name_Hall           '-P 2yn'
loop_
_symmetry_equiv_pos_site_id
_symmetry_equiv_pos_as_xyz
1 x,y,z
2 1/2-x,1/2+y,1/2-z
3 -x,-y,-z
4 1/2+x,1/2-y,1/2+z
_cell_length_a                   15.423(4)
_cell_length_b                   9.935(2)
_cell_length_c                   17.829(5)
_cell_angle_alpha                90
_cell_angle_beta                 105.284(3)
_cell_angle_gamma                90
_cell_volume                     2635.27
loop_
_atom_site_label
_atom_site_type_symbol
_atom_site_fract_x
_atom_site_fract_y
_atom_site_fract_z
Cu1 Cu 0.26460(2) 0.02474(3) 0.526766(19)
Cl1 Cl 0.25742(5) -0.16025(7) 0.58256(4)
N1 N 0.29724(14) 0.2443(2) 0.42425(12)
N2 N 0.27960(15) 0.3739(2) 0.40524(12)
N3 N 0.23188(15) 0.4119(2) 0.45328(12)
C1 C 0.26315(17) 0.1970(3) 0.48238(14)
C2 C 0.21885(18) 0.3104(3) 0.50040(14)
C3 C 0.1983(2) 0.5502(3) 0.44934(17)
C4 C 0.15983(17) 0.3169(3) 0.55358(14)
C5 C 0.19653(18) 0.3469(3) 0.63292(15)
C6 C 0.1411(2) 0.3314(3) 0.68277(15)
C7 C 0.0532(2) 0.2871(3) 0.65492(16)
C8 C 0.01745(19) 0.2619(3) 0.57627(15)
C9 C 0.06976(18) 0.2778(3) 0.52399(14)
C10 C 0.29411(19) 0.3889(3) 0.66235(15)
C11 C 0.3073(3) 0.5074(4) 0.71892(18)
C12 C 0.3518(3) 0.2691(4) 0.6984(2)
C13 C 0.02930(18) 0.2576(3) 0.43715(15)
C14 C -0.0499(2) 0.3527(3) 0.40656(16)
C15 C 0.0027(2) 0.1109(3) 0.41695(16)
C16 C 0.34628(18) 0.1695(3) 0.37922(14)
C17 C 0.29739(18) 0.0825(3) 0.32164(15)
C18 C 0.34607(19) 0.0144(3) 0.27784(15)
C19 C 0.43765(19) 0.0321(3) 0.29103(15)
C20 C 0.48421(19) 0.1178(3) 0.34923(15)
C21 C 0.43902(18) 0.1886(3) 0.39531(15)
C22 C 0.19643(19) 0.0622(3) 0.30608(16)
C23 C 0.1733(3) -0.0862(4) 0.3161(2)
C24 C 0.1468(2) 0.1131(4) 0.22510(17)
C25 C 0.49032(19) 0.2783(3) 0.46151(16)
C26 C 0.5488(3) 0.1930(4) 0.52678(17)
C27 C 0.5464(2) 0.3845(3) 0.43345(19)
H1 H 0.1332 0.5491 0.4427
H2 H 0.2116 0.5966 0.4051
H3 H 0.2277 0.5976 0.4975
H4 H 0.1638 0.3515 0.7365
H5 H 0.0171 0.2739 0.6900
H6 H -0.0433 0.2335 0.5579
H7 H 0.3148 0.4185 0.6163
H8 H 0.3708 0.5336 0.7339
H9 H 0.2889 0.4809 0.7654
H10 H 0.2707 0.5837 0.6938
H11 H 0.3315 0.2352 0.7425
H12 H 0.4148 0.2974 0.7164
H13 H 0.3462 0.1978 0.6594
H14 H 0.0766 0.2815 0.4104
H15 H -0.0639 0.3571 0.3497
H16 H -0.0343 0.4428 0.4283
H17 H -0.1025 0.3194 0.4220
H18 H 0.0555 0.0530 0.4351
H19 H -0.0206 0.1018 0.3605
H20 H -0.0438 0.0842 0.4423
H21 H 0.3156 -0.0454 0.2380
H22 H 0.4691 -0.0150 0.2600
H23 H 0.5473 0.1285 0.3579
H24 H 0.1754 0.1163 0.3452
H25 H 0.2094 -0.1192 0.3664
H26 H 0.1864 -0.1399 0.2743
H27 H 0.1093 -0.0940 0.3139
H28 H 0.0818 0.1060 0.2183
H29 H 0.1640 0.0584 0.1855
H30 H 0.1629 0.2073 0.2196
H31 H 0.4452 0.3265 0.4830
H32 H 0.5106 0.1317 0.5470
H33 H 0.5819 0.2520 0.5687
H34 H 0.5915 0.1406 0.5065
H35 H 0.5944 0.3402 0.4160
H36 H 0.5729 0.4462 0.4762
H37 H 0.5078 0.4351 0.3902
Cu1 Cu 0.23540(2) 0.52474(3) -0.026766(19)
Cl1 Cl 0.24258(5) 0.33975(7) -0.08256(4)
N1 N 0.20276(14) 0.7443(2) 0.07575(12)
N2 N 0.22040(15) 0.8739(2) 0.09476(12)
N3 N 0.26812(15) 0.9119(2) 0.04672(12)
C1 C 0.23685(17) 0.6970(3) 0.01762(14)
C2 C 0.28115(18) 0.8104(3) -0.00040(14)
C3 C 0.3017(2) 1.0502(3) 0.05066(17)
C4 C 0.34017(17) 0.8169(3) -0.05358(14)
C5 C 0.30347(18) 0.8469(3) -0.13292(15)
C6 C 0.3589(2) 0.8314(3) -0.18277(15)
C7 C 0.4468(2) 0.7871(3) -0.15492(16)
C8 C 0.48255(19) 0.7619(3) -0.07627(15)
C9 C 0.43024(18) 0.7778(3) -0.02399(14)
C10 C 0.20589(19) 0.8889(3) -0.16235(15)
C11 C 0.1927(3) 1.0074(4) -0.21892(18)
C12 C 0.1482(3) 0.7691(4) -0.1984(2)
C13 C 0.47070(18) 0.7576(3) 0.06285(15)
C14 C 0.5499(2) 0.8527(3) 0.09344(16)
C15 C 0.4973(2) 0.6109(3) 0.08305(16)
C16 C 0.15372(18) 0.6695(3) 0.12078(14)
C17 C 0.20261(18) 0.5825(3) 0.17836(15)
C18 C 0.15393(19) 0.5144(3) 0.22216(15)
C19 C 0.06235(19) 0.5321(3) 0.20897(15)
C20 C 0.01579(19) 0.6178(3) 0.15077(15)
C21 C 0.06098(18) 0.6886(3) 0.10469(15)
C22 C 0.30357(19) 0.5622(3) 0.19392(16)
C23 C 0.3267(3) 0.4138(4) 0.1839(2)
C24 C 0.3532(2) 0.6131(4) 0.27490(17)
C25 C 0.00968(19) 0.7783(3) 0.03849(16)
C26 C -0.0488(3) 0.6930(4) -0.02678(17)
C27 C -0.0464(2) 0.8845(3) 0.06655(19)
H1 H 0.3668 1.0491 0.0573
H2 H 0.2884 1.0966 0.0949
H3 H 0.2723 1.0976 0.0025
H4 H 0.3362 0.8515 -0.2365
H5 H 0.4829 0.7739 -0.1900
H6 H 0.5433 0.7335 -0.0579
H7 H 0.1852 0.9185 -0.1163
H8 H 0.1292 1.0336 -0.2339
H9 H 0.2111 0.9809 -0.2654
H10 H 0.2293 1.0837 -0.1938
H11 H 0.1685 0.7352 -0.2425
H12 H 0.0852 0.7974 -0.2164
H13 H 0.1538 0.6978 -0.1594
H14 H 0.4234 0.7815 0.0896
H15 H 0.5639 0.8571 0.1503
H16 H 0.5343 0.9428 0.0717
H17 H 0.6025 0.8194 0.0780
H18 H 0.4445 0.5530 0.0649
H19 H 0.5206 0.6018 0.1395
H20 H 0.5438 0.5842 0.0577
H21 H 0.1844 0.4546 0.2620
H22 H 0.0309 0.4850 0.2400
H23 H -0.0473 0.6285 0.1421
H24 H 0.3246 0.6163 0.1548
H25 H 0.2906 0.3808 0.1336
H26 H 0.3136 0.3601 0.2257
H27 H 0.3907 0.4060 0.1861
H28 H 0.4182 0.6060 0.2817
H29 H 0.3360 0.5584 0.3145
H30 H 0.3371 0.7073 0.2804
H31 H 0.0548 0.8265 0.0170
H32 H -0.0106 0.6317 -0.0470
H33 H -0.0819 0.7520 -0.0687
H34 H -0.0915 0.6406 -0.0065
H35 H -0.0944 0.8402 0.0840
H36 H -0.0729 0.9462 0.0238
H37 H -0.0078 0.9351 0.1098
Cu1 Cu 0.73540(2) 0.97526(3) 0.473234(19)
Cl1 Cl 0.74258(5) 1.16025(7) 0.41744(4)
N1 N 0.70276(14) 0.7557(2) 0.57575(12)
N2 N 0.72040(15) 0.6261(2) 0.59476(12)
N3 N 0.76812(15) 0.5881(2) 0.54672(12)
C1 C 0.73685(17) 0.8030(3) 0.51762(14)
C2 C 0.78115(18) 0.6896(3) 0.49960(14)
C3 C 0.8017(2) 0.4498(3) 0.55066(17)
C4 C 0.84017(17) 0.6831(3) 0.44642(14)
C5 C 0.80347(18) 0.6531(3) 0.36708(15)
C6 C 0.8589(2) 0.6686(3) 0.31723(15)
C7 C 0.9468(2) 0.7129(3) 0.34508(16)
C8 C 0.98255(19) 0.7381(3) 0.42373(15)
C9 C 0.93024(18) 0.7222(3) 0.47601(14)
C10 C 0.70589(19) 0.6111(3) 0.33765(15)
C11 C 0.6927(3) 0.4926(4) 0.28108(18)
C12 C 0.6482(3) 0.7309(4) 0.3016(2)
C13 C 0.97070(18) 0.7424(3) 0.56285(15)
C14 C 1.0499(2) 0.6473(3) 0.59344(16)
C15 C 0.9973(2) 0.8891(3) 0.58305(16)
C16 C 0.65372(18) 0.8305(3) 0.62078(14)
C17 C 0.70261(18) 0.9175(3) 0.67836(15)
C18 C 0.65393(19) 0.9856(3) 0.72216(15)
C19 C 0.56235(19) 0.9679(3) 0.70897(15)
C20 C 0.51579(19) 0.8822(3) 0.65077(15)
C21 C 0.56098(18) 0.8114(3) 0.60469(15)
C22 C 0.80357(19) 0.9378(3) 0.69392(16)
C23 C 0.8267(3) 1.0862(4) 0.6839(2)
C24 C 0.8532(2) 0.8869(4) 0.77490(17)
C25 C 0.50968(19) 0.7217(3) 0.53849(16)
C26 C 0.4512(3) 0.8070(4) 0.47322(17)
C27 C 0.4536(2) 0.6155(3) 0.56655(19)
H1 H 0.8668 0.4509 0.5573
H2 H 0.7884 0.4034 0.5949
H3 H 0.7723 0.4024 0.5025
H4 H 0.8362 0.6485 0.2635
H5 H 0.9829 0.7261 0.3100
H6 H 1.0433 0.7665 0.4421
H7 H 0.6852 0.5815 0.3837
H8 H 0.6292 0.4664 0.2661
H9 H 0.7111 0.5191 0.2346
H10 H 0.7293 0.4163 0.3062
H11 H 0.6685 0.7648 0.2575
H12 H 0.5852 0.7026 0.2836
H13 H 0.6538 0.8022 0.3406
H14 H 0.9234 0.7185 0.5896
H15 H 1.0639 0.6429 0.6503
H16 H 1.0343 0.5572 0.5717
H17 H 1.1025 0.6806 0.5780
H18 H 0.9445 0.9470 0.5649
H19 H 1.0206 0.8982 0.6395
H20 H 1.0438 0.9158 0.5577
H21 H 0.6844 1.0454 0.7620
H22 H 0.5309 1.0150 0.7400
H23 H 0.4527 0.8715 0.6421
H24 H 0.8246 0.8837 0.6548
H25 H 0.7906 1.1192 0.6336
H26 H 0.8136 1.1399 0.7257
H27 H 0.8907 1.0940 0.6861
H28 H 0.9182 0.8940 0.7817
H29 H 0.8360 0.9416 0.8145
H30 H 0.8371 0.7927 0.7804
H31 H 0.5548 0.6735 0.5170
H32 H 0.4894 0.8683 0.4530
H33 H 0.4181 0.7480 0.4313
H34 H 0.4085 0.8594 0.4935
H35 H 0.4056 0.6598 0.5840
H36 H 0.4271 0.5538 0.5238
H37 H 0.4922 0.5649 0.6098
Cu1 Cu 0.76460(2) 0.47526(3) 1.026766(19)
Cl1 Cl 0.75742(5) 0.66025(7) 1.08256(4)
N1 N 0.79724(14) 0.2557(2) 0.92425(12)
N2 N 0.77960(15) 0.1261(2) 0.90524(12)
N3 N 0.73188(15) 0.0881(2) 0.95328(12)
C1 C 0.76315(17) 0.3030(3) 0.98238(14)
C2 C 0.71885(18) 0.1896(3) 1.00040(14)
C3 C 0.6983(2) -0.0502(3) 0.94934(17)
C4 C 0.65983(17) 0.1831(3) 1.05358(14)
C5 C 0.69653(18) 0.1531(3) 1.13292(15)
C6 C 0.6411(2) 0.1686(3) 1.18277(15)
C7 C 0.5532(2) 0.2129(3) 1.15492(16)
C8 C 0.51745(19) 0.2381(3) 1.07627(15)
C9 C 0.56976(18) 0.2222(3) 1.02399(14)
C10 C 0.79411(19) 0.1111(3) 1.16235(15)
C11 C 0.8073(3) -0.0074(4) 1.21892(18)
C12 C 0.8518(3) 0.2309(4) 1.1984(2)
C13 C 0.52930(18) 0.2424(3) 0.93715(15)
C14 C 0.4501(2) 0.1473(3) 0.90656(16)
C15 C 0.5027(2) 0.3891(3) 0.91695(16)
C16 C 0.84628(18) 0.3305(3) 0.87922(14)
C17 C 0.79739(18) 0.4175(3) 0.82164(15)
C18 C 0.84607(19) 0.4856(3) 0.77784(15)
C19 C 0.93765(19) 0.4679(3) 0.79103(15)
C20 C 0.98421(19) 0.3822(3) 0.84923(15)
C21 C 0.93902(18) 0.3114(3) 0.89531(15)
C22 C 0.69643(19) 0.4378(3) 0.80608(16)
C23 C 0.6733(3) 0.5862(4) 0.8161(2)
C24 C 0.6468(2) 0.3869(4) 0.72510(17)
C25 C 0.99032(19) 0.2217(3) 0.96151(16)
C26 C 1.0488(3) 0.3070(4) 1.02678(17)
C27 C 1.0464(2) 0.1155(3) 0.93345(19)
H1 H 0.6332 -0.0491 0.9427
H2 H 0.7116 -0.0966 0.9051
H3 H 0.7277 -0.0976 0.9975
H4 H 0.6638 0.1485 1.2365
H5 H 0.5171 0.2261 1.1900
H6 H 0.4567 0.2665 1.0579
H7 H 0.8148 0.0815 1.1163
H8 H 0.8708 -0.0336 1.2339
H9 H 0.7889 0.0191 1.2654
H10 H 0.7707 -0.0837 1.1938
H11 H 0.8315 0.2648 1.2425
H12 H 0.9148 0.2026 1.2164
H13 H 0.8462 0.3022 1.1594
H14 H 0.5766 0.2185 0.9104
H15 H 0.4361 0.1429 0.8497
H16 H 0.4657 0.0572 0.9283
H17 H 0.3975 0.1806 0.9220
H18 H 0.5555 0.4470 0.9351
H19 H 0.4794 0.3982 0.8605
H20 H 0.4562 0.4158 0.9423
H21 H 0.8156 0.5454 0.7380
H22 H 0.9691 0.5150 0.7600
H23 H 1.0473 0.3715 0.8579
H24 H 0.6754 0.3837 0.8452
H25 H 0.7094 0.6192 0.8664
H26 H 0.6864 0.6399 0.7743
H27 H 0.6093 0.5940 0.8139
H28 H 0.5818 0.3940 0.7183
H29 H 0.6640 0.4416 0.6855
H30 H 0.6629 0.2927 0.7196
H31 H 0.9452 0.1735 0.9830
H32 H 1.0106 0.3683 1.0470
H33 H 1.0819 0.2480 1.0687
H34 H 1.0915 0.3594 1.0065
H35 H 1.0944 0.1598 0.9160
H36 H 1.0729 0.0538 0.9762
H37 H 1.0078 0.0649 0.8902

#END
