
#######################################################################
#
#                 Cambridge Crystallographic Data Centre
#                                CCDC 
#
#######################################################################
#
# If this CIF has been generated from an entry in the Cambridge 
# Structural Database, then it will include bibliographic, chemical, 
# crystal, experimental, refinement or atomic coordinate data resulting 
# from the CCDC's data processing and validation procedures.
#
#######################################################################

data_ACUZED
_symmetry_cell_setting           monoclinic
_symmetry_space_group_name_H-M   'P 21/n'
_symmetry_Int_Tables_number      14
_space_group_name_Hall           '-P 2yn'
loop_
_symmetry_equiv_pos_site_id
_symmetry_equiv_pos_as_xyz
1 x,y,z
2 1/2+x,1/2-y,1/2+z
3 -x,-y,-z
4 1/2-x,1/2+y,1/2-z
_cell_length_a                   15.1010(10)
_cell_length_b                   13.3030(10)
_cell_length_c                   15.8420(10)
_cell_angle_alpha                90
_cell_angle_beta                 97.290(10)
_cell_angle_gamma                90
_cell_volume                     3156.75
loop_
_atom_site_label
_atom_site_type_symbol
_atom_site_fract_x
_atom_site_fract_y
_atom_site_fract_z
Sb1 Sb 0.281423(18) 1.02310(2) 0.139643(16)
Sb2 Sb 0.432121(17) 0.84563(2) 0.080359(16)
Sb3 Sb 0.247438(18) 0.76697(2) 0.181256(16)
N1 N 0.3077(2) 0.8748(2) 0.1149(2)
C1 C 0.2989(3) 1.0794(3) 0.0156(2)
C2 C 0.3092(3) 1.1829(3) 0.0045(3)
H1 H 0.3186 1.2258 0.0528
C3 C 0.3058(3) 1.2234(4) -0.0769(3)
H2 H 0.3130 1.2937 -0.0839
C4 C 0.2921(3) 1.1616(4) -0.1476(3)
H3 H 0.2891 1.1895 -0.2031
C5 C 0.2827(3) 1.0601(4) -0.1372(3)
H4 H 0.2738 1.0176 -0.1857
C6 C 0.2861(3) 1.0191(4) -0.0564(3)
H5 H 0.2795 0.9485 -0.0502
C7 C 0.4123(3) 1.0623(3) 0.2023(2)
C8 C 0.4291(3) 1.0456(3) 0.2904(3)
H6 H 0.3821 1.0230 0.3203
C9 C 0.5127(3) 1.0617(4) 0.3340(3)
H7 H 0.5236 1.0479 0.3932
C10 C 0.5808(3) 1.0975(3) 0.2919(3)
H8 H 0.6383 1.1088 0.3223
C11 C 0.5655(3) 1.1171(3) 0.2059(3)
H9 H 0.6122 1.1432 0.1774
C12 C 0.4826(3) 1.0989(3) 0.1610(3)
H10 H 0.4730 1.1112 0.1014
C13 C 0.4842(3) 0.7513(3) 0.1861(2)
C14 C 0.5341(3) 0.7963(4) 0.2555(3)
H11 H 0.5430 0.8670 0.2557
C15 C 0.5714(3) 0.7395(4) 0.3250(3)
H12 H 0.6043 0.7715 0.3726
C16 C 0.5604(3) 0.6373(4) 0.3243(3)
H13 H 0.5876 0.5980 0.3706
C17 C 0.5098(3) 0.5911(3) 0.2566(3)
H14 H 0.5014 0.5204 0.2568
C18 C 0.4715(3) 0.6477(3) 0.1883(3)
H15 H 0.4361 0.6155 0.1423
C19 C 0.3940(3) 0.7217(3) -0.0052(2)
C20 C 0.3071(3) 0.7037(3) -0.0420(3)
H16 H 0.2596 0.7442 -0.0270
C21 C 0.2894(3) 0.6263(4) -0.1010(3)
H17 H 0.2297 0.6143 -0.1257
C22 C 0.3566(4) 0.5674(4) -0.1238(3)
H18 H 0.3439 0.5146 -0.1639
C23 C 0.4431(4) 0.5854(4) -0.0880(3)
H19 H 0.4902 0.5447 -0.1034
C24 C 0.4621(3) 0.6625(4) -0.0294(3)
H20 H 0.5222 0.6749 -0.0059
C25 C 0.2652(3) 0.8346(3) 0.3062(2)
C26 C 0.3385(3) 0.8018(3) 0.3630(3)
H21 H 0.3748 0.7487 0.3468
C27 C 0.3586(3) 0.8457(3) 0.4423(3)
H22 H 0.4082 0.8225 0.4802
C28 C 0.3068(3) 0.9229(4) 0.4660(3)
H23 H 0.3216 0.9537 0.5200
C29 C 0.2333(3) 0.9565(4) 0.4125(3)
H24 H 0.1969 1.0087 0.4300
C30 C 0.2137(3) 0.9124(3) 0.3324(3)
H25 H 0.1639 0.9360 0.2950
C31 C 0.1138(3) 0.8208(3) 0.1440(2)
C32 C 0.0479(3) 0.8111(3) 0.1985(3)
H26 H 0.0637 0.7879 0.2551
C33 C -0.0404(3) 0.8355(3) 0.1700(3)
H27 H -0.0845 0.8291 0.2074
C34 C -0.0643(3) 0.8688(4) 0.0881(3)
H28 H -0.1244 0.8870 0.0694
C35 C -0.0008(3) 0.8755(4) 0.0334(3)
H29 H -0.0175 0.8958 -0.0239
C36 C 0.0881(3) 0.8525(3) 0.0621(3)
H30 H 0.1318 0.8589 0.0242
Sb1 Sb 0.781423(18) 0.47690(2) 0.639643(16)
Sb2 Sb 0.932121(17) 0.65437(2) 0.580359(16)
Sb3 Sb 0.747438(18) 0.73303(2) 0.681256(16)
N1 N 0.8077(2) 0.6252(2) 0.6149(2)
C1 C 0.7989(3) 0.4206(3) 0.5156(2)
C2 C 0.8092(3) 0.3171(3) 0.5045(3)
H1 H 0.8186 0.2742 0.5528
C3 C 0.8058(3) 0.2766(4) 0.4231(3)
H2 H 0.8130 0.2063 0.4161
C4 C 0.7921(3) 0.3384(4) 0.3524(3)
H3 H 0.7891 0.3105 0.2969
C5 C 0.7827(3) 0.4399(4) 0.3628(3)
H4 H 0.7738 0.4824 0.3143
C6 C 0.7861(3) 0.4809(4) 0.4436(3)
H5 H 0.7795 0.5515 0.4498
C7 C 0.9123(3) 0.4377(3) 0.7023(2)
C8 C 0.9291(3) 0.4544(3) 0.7904(3)
H6 H 0.8821 0.4770 0.8203
C9 C 1.0127(3) 0.4383(4) 0.8340(3)
H7 H 1.0236 0.4521 0.8932
C10 C 1.0808(3) 0.4025(3) 0.7919(3)
H8 H 1.1383 0.3912 0.8223
C11 C 1.0655(3) 0.3829(3) 0.7059(3)
H9 H 1.1122 0.3568 0.6774
C12 C 0.9826(3) 0.4011(3) 0.6610(3)
H10 H 0.9730 0.3888 0.6014
C13 C 0.9842(3) 0.7487(3) 0.6861(2)
C14 C 1.0341(3) 0.7037(4) 0.7555(3)
H11 H 1.0430 0.6330 0.7557
C15 C 1.0714(3) 0.7605(4) 0.8250(3)
H12 H 1.1043 0.7285 0.8726
C16 C 1.0604(3) 0.8627(4) 0.8243(3)
H13 H 1.0876 0.9020 0.8706
C17 C 1.0098(3) 0.9089(3) 0.7566(3)
H14 H 1.0014 0.9796 0.7568
C18 C 0.9715(3) 0.8523(3) 0.6883(3)
H15 H 0.9361 0.8845 0.6423
C19 C 0.8940(3) 0.7783(3) 0.4948(2)
C20 C 0.8071(3) 0.7963(3) 0.4580(3)
H16 H 0.7596 0.7558 0.4730
C21 C 0.7894(3) 0.8737(4) 0.3990(3)
H17 H 0.7297 0.8857 0.3743
C22 C 0.8566(4) 0.9326(4) 0.3762(3)
H18 H 0.8439 0.9854 0.3361
C23 C 0.9431(4) 0.9146(4) 0.4120(3)
H19 H 0.9902 0.9553 0.3966
C24 C 0.9621(3) 0.8375(4) 0.4706(3)
H20 H 1.0222 0.8251 0.4941
C25 C 0.7652(3) 0.6654(3) 0.8062(2)
C26 C 0.8385(3) 0.6982(3) 0.8630(3)
H21 H 0.8748 0.7513 0.8468
C27 C 0.8586(3) 0.6543(3) 0.9423(3)
H22 H 0.9082 0.6775 0.9802
C28 C 0.8068(3) 0.5771(4) 0.9660(3)
H23 H 0.8216 0.5463 1.0200
C29 C 0.7333(3) 0.5435(4) 0.9125(3)
H24 H 0.6969 0.4913 0.9300
C30 C 0.7137(3) 0.5876(3) 0.8324(3)
H25 H 0.6639 0.5640 0.7950
C31 C 0.6138(3) 0.6792(3) 0.6440(2)
C32 C 0.5479(3) 0.6889(3) 0.6985(3)
H26 H 0.5637 0.7121 0.7551
C33 C 0.4596(3) 0.6645(3) 0.6700(3)
H27 H 0.4155 0.6709 0.7074
C34 C 0.4357(3) 0.6312(4) 0.5881(3)
H28 H 0.3756 0.6130 0.5694
C35 C 0.4992(3) 0.6245(4) 0.5334(3)
H29 H 0.4825 0.6042 0.4761
C36 C 0.5881(3) 0.6475(3) 0.5621(3)
H30 H 0.6318 0.6411 0.5242
Sb1 Sb 0.718577(18) -0.02310(2) 0.860357(16)
Sb2 Sb 0.567879(17) 0.15437(2) 0.919641(16)
Sb3 Sb 0.752562(18) 0.23303(2) 0.818744(16)
N1 N 0.6923(2) 0.1252(2) 0.8851(2)
C1 C 0.7011(3) -0.0794(3) 0.9844(2)
C2 C 0.6908(3) -0.1829(3) 0.9955(3)
H1 H 0.6814 -0.2258 0.9472
C3 C 0.6942(3) -0.2234(4) 1.0769(3)
H2 H 0.6870 -0.2937 1.0839
C4 C 0.7079(3) -0.1616(4) 1.1476(3)
H3 H 0.7109 -0.1895 1.2031
C5 C 0.7173(3) -0.0601(4) 1.1372(3)
H4 H 0.7262 -0.0176 1.1857
C6 C 0.7139(3) -0.0191(4) 1.0564(3)
H5 H 0.7205 0.0515 1.0502
C7 C 0.5877(3) -0.0623(3) 0.7977(2)
C8 C 0.5709(3) -0.0456(3) 0.7096(3)
H6 H 0.6179 -0.0230 0.6797
C9 C 0.4873(3) -0.0617(4) 0.6660(3)
H7 H 0.4764 -0.0479 0.6068
C10 C 0.4192(3) -0.0975(3) 0.7081(3)
H8 H 0.3617 -0.1088 0.6777
C11 C 0.4345(3) -0.1171(3) 0.7941(3)
H9 H 0.3878 -0.1432 0.8226
C12 C 0.5174(3) -0.0989(3) 0.8390(3)
H10 H 0.5270 -0.1112 0.8986
C13 C 0.5158(3) 0.2487(3) 0.8139(2)
C14 C 0.4659(3) 0.2037(4) 0.7445(3)
H11 H 0.4570 0.1330 0.7443
C15 C 0.4286(3) 0.2605(4) 0.6750(3)
H12 H 0.3957 0.2285 0.6274
C16 C 0.4396(3) 0.3627(4) 0.6757(3)
H13 H 0.4124 0.4020 0.6294
C17 C 0.4902(3) 0.4089(3) 0.7434(3)
H14 H 0.4986 0.4796 0.7432
C18 C 0.5285(3) 0.3523(3) 0.8117(3)
H15 H 0.5639 0.3845 0.8577
C19 C 0.6060(3) 0.2783(3) 1.0052(2)
C20 C 0.6929(3) 0.2963(3) 1.0420(3)
H16 H 0.7404 0.2558 1.0270
C21 C 0.7106(3) 0.3737(4) 1.1010(3)
H17 H 0.7703 0.3857 1.1257
C22 C 0.6434(4) 0.4326(4) 1.1238(3)
H18 H 0.6561 0.4854 1.1639
C23 C 0.5569(4) 0.4146(4) 1.0880(3)
H19 H 0.5098 0.4553 1.1034
C24 C 0.5379(3) 0.3375(4) 1.0294(3)
H20 H 0.4778 0.3251 1.0059
C25 C 0.7348(3) 0.1654(3) 0.6938(2)
C26 C 0.6615(3) 0.1982(3) 0.6370(3)
H21 H 0.6252 0.2513 0.6532
C27 C 0.6414(3) 0.1543(3) 0.5577(3)
H22 H 0.5918 0.1775 0.5198
C28 C 0.6932(3) 0.0771(4) 0.5340(3)
H23 H 0.6784 0.0463 0.4800
C29 C 0.7667(3) 0.0435(4) 0.5875(3)
H24 H 0.8031 -0.0087 0.5700
C30 C 0.7863(3) 0.0876(3) 0.6676(3)
H25 H 0.8361 0.0640 0.7050
C31 C 0.8862(3) 0.1792(3) 0.8560(2)
C32 C 0.9521(3) 0.1889(3) 0.8015(3)
H26 H 0.9363 0.2121 0.7449
C33 C 1.0404(3) 0.1645(3) 0.8300(3)
H27 H 1.0845 0.1709 0.7926
C34 C 1.0643(3) 0.1312(4) 0.9119(3)
H28 H 1.1244 0.1130 0.9306
C35 C 1.0008(3) 0.1245(4) 0.9666(3)
H29 H 1.0175 0.1042 1.0239
C36 C 0.9119(3) 0.1475(3) 0.9379(3)
H30 H 0.8682 0.1411 0.9758
Sb1 Sb 0.218577(18) 0.52310(2) 0.360357(16)
Sb2 Sb 0.067879(17) 0.34563(2) 0.419641(16)
Sb3 Sb 0.252562(18) 0.26697(2) 0.318744(16)
N1 N 0.1923(2) 0.3748(2) 0.3851(2)
C1 C 0.2011(3) 0.5794(3) 0.4844(2)
C2 C 0.1908(3) 0.6829(3) 0.4955(3)
H1 H 0.1814 0.7258 0.4472
C3 C 0.1942(3) 0.7234(4) 0.5769(3)
H2 H 0.1870 0.7937 0.5839
C4 C 0.2079(3) 0.6616(4) 0.6476(3)
H3 H 0.2109 0.6895 0.7031
C5 C 0.2173(3) 0.5601(4) 0.6372(3)
H4 H 0.2262 0.5176 0.6857
C6 C 0.2139(3) 0.5191(4) 0.5564(3)
H5 H 0.2205 0.4485 0.5502
C7 C 0.0877(3) 0.5623(3) 0.2977(2)
C8 C 0.0709(3) 0.5456(3) 0.2096(3)
H6 H 0.1179 0.5230 0.1797
C9 C -0.0127(3) 0.5617(4) 0.1660(3)
H7 H -0.0236 0.5479 0.1068
C10 C -0.0808(3) 0.5975(3) 0.2081(3)
H8 H -0.1383 0.6088 0.1777
C11 C -0.0655(3) 0.6171(3) 0.2941(3)
H9 H -0.1122 0.6432 0.3226
C12 C 0.0174(3) 0.5989(3) 0.3390(3)
H10 H 0.0270 0.6112 0.3986
C13 C 0.0158(3) 0.2513(3) 0.3139(2)
C14 C -0.0341(3) 0.2963(4) 0.2445(3)
H11 H -0.0430 0.3670 0.2443
C15 C -0.0714(3) 0.2395(4) 0.1750(3)
H12 H -0.1043 0.2715 0.1274
C16 C -0.0604(3) 0.1373(4) 0.1757(3)
H13 H -0.0876 0.0980 0.1294
C17 C -0.0098(3) 0.0911(3) 0.2434(3)
H14 H -0.0014 0.0204 0.2432
C18 C 0.0285(3) 0.1477(3) 0.3117(3)
H15 H 0.0639 0.1155 0.3577
C19 C 0.1060(3) 0.2217(3) 0.5052(2)
C20 C 0.1929(3) 0.2037(3) 0.5420(3)
H16 H 0.2404 0.2442 0.5270
C21 C 0.2106(3) 0.1263(4) 0.6010(3)
H17 H 0.2703 0.1143 0.6257
C22 C 0.1434(4) 0.0674(4) 0.6238(3)
H18 H 0.1561 0.0146 0.6639
C23 C 0.0569(4) 0.0854(4) 0.5880(3)
H19 H 0.0098 0.0447 0.6034
C24 C 0.0379(3) 0.1625(4) 0.5294(3)
H20 H -0.0222 0.1749 0.5059
C25 C 0.2348(3) 0.3346(3) 0.1938(2)
C26 C 0.1615(3) 0.3018(3) 0.1370(3)
H21 H 0.1252 0.2487 0.1532
C27 C 0.1414(3) 0.3457(3) 0.0577(3)
H22 H 0.0918 0.3225 0.0198
C28 C 0.1932(3) 0.4229(4) 0.0340(3)
H23 H 0.1784 0.4537 -0.0200
C29 C 0.2667(3) 0.4565(4) 0.0875(3)
H24 H 0.3031 0.5087 0.0700
C30 C 0.2863(3) 0.4124(3) 0.1676(3)
H25 H 0.3361 0.4360 0.2050
C31 C 0.3862(3) 0.3208(3) 0.3560(2)
C32 C 0.4521(3) 0.3111(3) 0.3015(3)
H26 H 0.4363 0.2879 0.2449
C33 C 0.5404(3) 0.3355(3) 0.3300(3)
H27 H 0.5845 0.3291 0.2926
C34 C 0.5643(3) 0.3688(4) 0.4119(3)
H28 H 0.6244 0.3870 0.4306
C35 C 0.5008(3) 0.3755(4) 0.4666(3)
H29 H 0.5175 0.3958 0.5239
C36 C 0.4119(3) 0.3525(3) 0.4379(3)
H30 H 0.3682 0.3589 0.4758

#END
