./ACUZAB_from_POSCAR.cif_generated_by_CrystalShift
_symmetry_cell_setting triclinic
_symmetry_space_group_name_H-M 'P 1'
loop_
_symmetry_equiv_pos_site_id
_symmetry_equiv_pos_as_xyz
1 x,y,z
_cell_length_a 13.593000
_cell_length_b 14.451000
_cell_length_c 15.435000
_cell_angle_alpha 105.313000
_cell_angle_beta 91.450000
_cell_angle_gamma 91.371000
_cell_volume 2921.883727
loop_
_atom_site_label
_atom_site_type_symbol
_atom_site_fract_x
_atom_site_fract_y
_atom_site_fract_z
H1 H 0.701900 0.466500 1.021700
H2 H 0.708800 0.448300 0.915200
H3 H 0.890400 0.443000 0.922500
H4 H 0.943600 0.376400 0.976200
H5 H 0.197600 0.096100 0.356300
H6 H 0.885300 0.467800 1.029700
H7 H 0.839500 0.267400 1.044200
H8 H 0.722900 0.279900 1.045600
H9 H 0.794800 0.365400 1.101200
H10 H 0.802400 0.903900 0.643700
H11 H 0.815500 0.238700 0.660100
H12 H 0.833400 0.355300 0.795700
H13 H 0.743600 0.162700 0.927200
H14 H 0.726700 0.045300 0.791200
H15 H 0.071500 0.425500 0.313900
H16 H 0.362000 0.666400 0.809000
H17 H 0.335600 0.553800 0.776000
H18 H 0.351800 0.614100 0.703900
H19 H 0.531100 0.727500 0.783600
H20 H 0.928500 0.574500 0.686100
H21 H 0.519500 0.672500 0.679100
H22 H 0.612100 0.653300 0.737400
H23 H 0.585300 0.573300 0.860800
H24 H 0.480400 0.524600 0.869800
H25 H 0.208600 0.662000 0.543000
H26 H 0.495400 0.638900 0.900800
H27 H 0.428400 0.361300 0.492700
H28 H 0.400700 0.504700 0.599100
H29 H 0.610900 0.446100 0.760400
H30 H 0.791400 0.338000 0.457000
H31 H 0.640800 0.303400 0.654700
H32 H 0.642100 0.377900 0.955500
H33 H 0.298100 0.533500 -0.021700
H34 H 0.357900 0.622100 0.044500
H35 H 0.291200 0.551700 0.084800
H36 H 0.109600 0.557000 0.077500
H37 H 0.056400 0.623600 0.023800
H38 H 0.114700 0.532200 -0.029700
H39 H 0.160500 0.732600 -0.044200
H40 H 0.277100 0.720100 -0.045600
H41 H 0.205200 0.634600 -0.101200
H42 H 0.184500 0.761300 0.339900
H43 H 0.359200 0.696600 0.345300
H44 H 0.166600 0.644700 0.204300
H45 H 0.389100 0.553900 0.239600
H46 H 0.256400 0.837300 0.072800
H47 H 0.273300 0.954700 0.208800
H48 H 0.599300 0.495300 0.400900
H49 H 0.638000 0.333600 0.191000
H50 H 0.571600 0.638700 0.507300
H51 H 0.664400 0.446200 0.224000
H52 H 0.648200 0.385900 0.296100
H53 H 0.504600 0.361100 0.099200
H54 H 0.519600 0.475400 0.130200
H55 H 0.414700 0.426700 0.139200
H56 H 0.468900 0.272500 0.216400
H57 H 0.387900 0.346700 0.262600
H58 H 0.480500 0.327500 0.320900
C59 C 0.458200 0.333000 0.261600
C60 C 0.626800 0.393100 0.237200
C61 C 0.486100 0.419900 0.143100
C62 C 0.516500 0.414600 0.238100
C63 C 0.533900 0.622700 0.452400
C64 C 0.235400 0.868900 0.288600
C65 C 0.253500 0.891100 0.208400
C66 C 0.550400 0.536300 0.388400
C67 C 0.242800 0.820700 0.127000
C68 C 0.498100 0.509100 0.308100
C69 C 0.212700 0.726900 0.122700
C70 C 0.190000 0.707200 0.204600
C71 C 0.427200 0.570700 0.294200
C72 C 0.200800 0.776700 0.285800
C73 C 0.409500 0.656700 0.357200
C74 C 0.208200 0.646800 0.035200
C75 C 0.213200 0.687100 -0.046200
C76 C 0.464700 0.684700 0.437600
C77 C 0.297900 0.923900 0.434400
C78 C 0.333800 0.988500 0.519900
C79 C 0.113700 0.584300 0.025900
C80 C 0.399800 0.935900 0.559900
C81 C 0.403000 0.839200 0.500100
C82 C 0.501000 -0.125000 0.250700
C83 C 0.296900 0.582700 0.035800
C84 C 0.523700 -0.217900 0.205600
C85 C 0.591100 -0.271500 0.247400
C86 C 0.651900 -0.327700 0.178600
C87 C 0.318000 1.086500 0.560500
C88 C 0.229900 1.147000 0.584100
C89 C 0.134500 1.117100 0.593800
C90 C 0.093200 1.015600 0.572300
C91 C 0.034600 1.010200 0.653300
C92 C 0.038100 0.940700 0.698500
C93 C 0.102000 0.853700 0.676900
C94 C 0.149200 0.853000 0.767300
C95 C 0.246700 0.842000 0.785100
C96 C 0.327800 0.828700 0.718600
C97 C 0.410200 0.897400 0.765400
C98 C 0.466300 0.959500 0.730100
C99 C 0.750000 -0.338600 0.198100
C100 C 0.460300 1.082500 0.658700
C101 C 0.395000 1.133600 0.619300
C102 C 0.367900 1.228800 0.667800
C103 C 0.265500 1.237900 0.646500
C104 C 0.207400 1.292900 0.712600
C105 C 0.109800 1.259800 0.722200
C106 C 0.075800 1.172300 0.666100
C107 C 0.016600 1.107200 0.701700
C108 C -0.003800 1.132000 0.793100
C109 C 0.000800 1.058500 0.840400
C110 C 0.024800 0.967000 0.794300
C111 C 0.092500 0.913900 0.836100
C112 C 0.131500 0.954700 0.921400
C113 C 0.233700 0.942900 0.940400
C114 C 0.290200 0.890600 0.871200
C115 C 0.388700 0.923600 0.860000
C116 C 0.427100 1.006800 0.919100
C117 C 0.485200 1.072500 0.885200
C118 C 0.502600 1.049500 0.793100
C119 C 0.499000 1.125000 0.749300
C120 C 0.476300 1.217900 0.794400
C121 C 0.408900 1.271500 0.752600
C122 C 0.348100 1.327700 0.821400
C123 C 0.250000 1.338600 0.801900
C124 C 0.088900 1.284300 0.817600
C125 C 0.033500 1.221300 0.851500
C126 C 0.062000 1.202900 0.936500
C127 C 0.041900 1.102500 0.929600
C128 C 0.106200 1.051700 0.969900
C129 C 0.192700 1.098700 1.018200
C130 C 0.497400 -0.049500 0.206900
C131 C 0.146500 1.248800 0.983400
C132 C 0.204700 1.314800 0.947700
C133 C 0.176200 1.332300 0.866200
C134 C 0.378300 1.308500 0.906100
C135 C 0.457300 1.241100 0.888700
C136 C 0.462200 1.170000 0.933200
C137 C 0.388800 1.163300 0.998200
C138 C 0.312600 1.228300 1.015100
C139 C 0.307000 1.302100 0.967400
C140 C 0.367300 1.062400 0.990400
C141 C 0.272900 1.031500 1.000500
C142 C 0.514800 -0.072500 0.114800
C143 C 0.572900 -0.006800 0.080900
C144 C 0.611300 0.076400 0.140000
C145 C 0.709800 0.109400 0.128800
C146 C 0.766300 0.057100 0.059600
C147 C 0.868500 0.045300 0.078600
C148 C 0.597000 0.160800 0.499900
C149 C 0.600200 0.064100 0.440100
C150 C 0.666200 0.011500 0.480100
C151 C 0.702100 0.076100 0.565600
C152 C 0.535300 0.315300 0.562400
C153 C 0.590500 0.343300 0.642800
C154 C 0.911100 -0.284300 0.182400
C155 C 0.572800 0.429300 0.705800
C156 C 0.821800 0.403600 0.482300
C157 C 0.501900 0.490900 0.691900
C158 C 0.449600 0.463700 0.611600
C159 C 0.966500 -0.221300 0.148500
C160 C 0.466100 0.377300 0.547600
C161 C 0.938000 -0.202900 0.063500
C162 C 0.483500 0.585400 0.761900
C163 C 0.513900 0.580100 0.856900
C164 C 0.958100 -0.102500 0.070400
C165 C 0.178200 0.596400 0.517700
C166 C 0.893800 -0.051700 0.030100
C167 C 0.541800 0.667000 0.738400
C168 C 0.807300 -0.098700 -0.018200
C169 C 0.786800 -0.195400 -0.025200
C170 C 0.933800 0.581500 0.752200
C171 C 0.373200 0.606900 0.762800
C172 C 0.853500 -0.248800 0.016600
C173 C 0.795300 -0.314800 0.052300
C174 C 0.823800 -0.332300 0.133800
C175 C 0.764600 0.131100 0.711400
C176 C 0.746500 0.108900 0.791600
C177 C 0.066200 0.418500 0.247800
C178 C 0.757200 0.179300 0.873000
C179 C 0.621700 -0.308500 0.093900
C180 C 0.787300 0.273100 0.877300
C181 C 0.810000 0.292800 0.795400
C182 C 0.542700 -0.241100 0.111300
C183 C 0.799200 0.223300 0.714200
C184 C 0.537800 -0.170000 0.066800
C185 C 0.791800 0.353200 0.964800
C186 C 0.786800 0.312900 1.046200
C187 C 0.780400 0.840100 0.651400
C188 C 0.611200 -0.163300 0.001800
C189 C 0.687400 -0.228300 -0.015100
C190 C 0.886300 0.415700 0.974100
C191 C 0.693000 -0.302100 0.032600
C192 C 0.219600 0.159900 0.348600
C193 C 0.632700 -0.062400 0.009600
C194 C 0.703100 0.417300 0.964200
C195 C 0.727100 -0.031500 -0.000500
C196 C 0.450500 0.981100 0.641600
C197 C 0.213200 1.195400 1.025200
C198 C 0.682000 -0.086500 0.439500
C199 C 0.770100 -0.147000 0.415900
C200 C 0.865500 -0.117100 0.406200
C201 C 0.906800 -0.015600 0.427700
C202 C 0.965400 -0.010200 0.346700
C203 C 0.961900 0.059300 0.301500
C204 C 0.898000 0.146300 0.323100
C205 C 0.850800 0.147000 0.232700
C206 C 0.753300 0.158000 0.214900
C207 C 0.672200 0.171300 0.281400
C208 C 0.589800 0.102600 0.234600
C209 C 0.533700 0.040500 0.269900
C210 C 0.549500 0.018900 0.358400
C211 C 0.539700 -0.082500 0.341300
C212 C 0.605000 -0.133600 0.380700
C213 C 0.632100 -0.228800 0.332200
C214 C 0.734500 -0.237900 0.353500
C215 C 0.792600 -0.292900 0.287400
C216 C 0.890200 -0.259800 0.277800
C217 C 0.924200 -0.172300 0.333900
C218 C 0.983400 -0.107200 0.298300
C219 C 1.003800 -0.132000 0.206900
C220 C 0.999200 -0.058500 0.159600
C221 C 0.975200 0.033000 0.205700
C222 C 0.907500 0.086100 0.163900
N223 N 0.747700 0.056700 0.630470
N224 N 0.539900 0.227100 0.495790
N225 N 0.252300 0.943300 0.369530
N226 N 0.460100 0.772900 0.504210
O227 O 0.663670 0.165510 0.571060
O228 O 0.250300 0.089300 0.793800
O229 O 0.892000 0.049500 0.492400
O230 O 0.675900 0.220400 0.357650
O231 O 0.881900 0.198300 0.395300
O232 O 0.108000 0.950500 0.507600
O233 O 0.118100 0.801700 0.604700
O234 O 0.324100 0.779600 0.642350
O235 O 0.336330 0.834490 0.428940
O236 O 0.749700 0.910700 0.206200
Cl237 Cl 0.856000 0.424900 0.384200
Cl238 Cl 0.913200 0.382500 0.556000
Cl239 Cl 0.745590 0.487020 0.545390
Cl240 Cl 0.144000 0.575100 0.615800
Cl241 Cl 0.086800 0.617500 0.444000
Cl242 Cl 1.005320 0.488330 0.771350
Cl243 Cl 0.990480 0.693300 0.804720
Cl244 Cl 0.814880 0.575600 0.792760
Cl245 Cl -0.005320 0.511670 0.228650
Cl246 Cl 0.009520 0.306700 0.195280
Cl247 Cl 0.185120 0.424400 0.207240
Cl248 Cl 0.859810 0.752300 0.592220
Cl249 Cl 0.787870 0.845090 0.766710
Cl250 Cl 0.658770 0.816360 0.610370
Cl251 Cl 0.140190 0.247700 0.407780
Cl252 Cl 0.212130 0.154910 0.233290
Cl253 Cl 0.341230 0.183640 0.389630
Cl254 Cl 0.254410 0.512980 0.454610
Cl255 Cl 0.150500 0.528900 0.600400
Cl256 Cl 0.054200 0.593000 0.475600
Cl257 Cl 0.849500 0.471100 0.399600
Cl258 Cl 0.945800 0.407000 0.524400

#END
