
#######################################################################
#
#                 Cambridge Crystallographic Data Centre
#                                CCDC 
#
#######################################################################
#
# If this CIF has been generated from an entry in the Cambridge 
# Structural Database, then it will include bibliographic, chemical, 
# crystal, experimental, refinement or atomic coordinate data resulting 
# from the CCDC's data processing and validation procedures.
#
#######################################################################

data_ACYHXA
_symmetry_cell_setting           monoclinic
_symmetry_space_group_name_H-M   'P 21/c'
_symmetry_Int_Tables_number      14
_space_group_name_Hall           '-P 2ybc'
loop_
_symmetry_equiv_pos_site_id
_symmetry_equiv_pos_as_xyz
1 x,y,z
2 -x,1/2+y,1/2-z
3 -x,-y,-z
4 x,1/2-y,1/2+z
_cell_length_a                   10.88(2)
_cell_length_b                   6.54(1)
_cell_length_c                   11.07(2)
_cell_angle_alpha                90
_cell_angle_beta                 95.8(2)
_cell_angle_gamma                90
_cell_volume                     783.656
loop_
_atom_site_label
_atom_site_type_symbol
_atom_site_fract_x
_atom_site_fract_y
_atom_site_fract_z
C1 C 0.65700 0.21470 0.09540
C2 C 0.74920 0.39150 0.11050
C3 C 0.87470 0.32640 0.07330
C4 C 0.92620 0.13980 0.14550
C5 C 0.83540 -0.03830 0.12810
C6 C 0.70720 0.02280 0.16020
C7 C 0.61410 0.18080 -0.04180
H1 H 0.46100 0.20300 0.15800
H2 H 0.87200 -0.16400 0.17800
H3 H 0.83300 -0.08900 0.03900
H4 H 0.65600 -0.09700 0.13300
H5 H 0.71700 0.06900 0.26100
H6 H 0.56100 0.29400 0.21900
H7 H 0.50000 0.43300 0.11900
H8 H 0.72200 0.50600 0.06900
H9 H 0.75800 0.43100 0.21100
H10 H 0.87200 0.28900 -0.01900
H11 H 0.91100 0.44400 0.08600
H12 H 1.01100 0.09700 0.11100
H13 H 0.96100 0.15600 0.23900
N1 N 0.54080 0.28120 0.14990
O1 O 0.55510 0.32440 -0.09520
O2 O 0.63970 0.01460 -0.09060
C1 C 0.34300 0.71470 0.40460
C2 C 0.25080 0.89150 0.38950
C3 C 0.12530 0.82640 0.42670
C4 C 0.07380 0.63980 0.35450
C5 C 0.16460 0.46170 0.37190
C6 C 0.29280 0.52280 0.33980
C7 C 0.38590 0.68080 0.54180
H1 H 0.53900 0.70300 0.34200
H2 H 0.12800 0.33600 0.32200
H3 H 0.16700 0.41100 0.46100
H4 H 0.34400 0.40300 0.36700
H5 H 0.28300 0.56900 0.23900
H6 H 0.43900 0.79400 0.28100
H7 H 0.50000 0.93300 0.38100
H8 H 0.27800 1.00600 0.43100
H9 H 0.24200 0.93100 0.28900
H10 H 0.12800 0.78900 0.51900
H11 H 0.08900 0.94400 0.41400
H12 H -0.01100 0.59700 0.38900
H13 H 0.03900 0.65600 0.26100
N1 N 0.45920 0.78120 0.35010
O1 O 0.44490 0.82440 0.59520
O2 O 0.36030 0.51460 0.59060
C1 C 0.34300 0.78530 0.90460
C2 C 0.25080 0.60850 0.88950
C3 C 0.12530 0.67360 0.92670
C4 C 0.07380 0.86020 0.85450
C5 C 0.16460 1.03830 0.87190
C6 C 0.29280 0.97720 0.83980
C7 C 0.38590 0.81920 1.04180
H1 H 0.53900 0.79700 0.84200
H2 H 0.12800 1.16400 0.82200
H3 H 0.16700 1.08900 0.96100
H4 H 0.34400 1.09700 0.86700
H5 H 0.28300 0.93100 0.73900
H6 H 0.43900 0.70600 0.78100
H7 H 0.50000 0.56700 0.88100
H8 H 0.27800 0.49400 0.93100
H9 H 0.24200 0.56900 0.78900
H10 H 0.12800 0.71100 1.01900
H11 H 0.08900 0.55600 0.91400
H12 H -0.01100 0.90300 0.88900
H13 H 0.03900 0.84400 0.76100
N1 N 0.45920 0.71880 0.85010
O1 O 0.44490 0.67560 1.09520
O2 O 0.36030 0.98540 1.09060
C1 C 0.65700 0.28530 0.59540
C2 C 0.74920 0.10850 0.61050
C3 C 0.87470 0.17360 0.57330
C4 C 0.92620 0.36020 0.64550
C5 C 0.83540 0.53830 0.62810
C6 C 0.70720 0.47720 0.66020
C7 C 0.61410 0.31920 0.45820
H1 H 0.46100 0.29700 0.65800
H2 H 0.87200 0.66400 0.67800
H3 H 0.83300 0.58900 0.53900
H4 H 0.65600 0.59700 0.63300
H5 H 0.71700 0.43100 0.76100
H6 H 0.56100 0.20600 0.71900
H7 H 0.50000 0.06700 0.61900
H8 H 0.72200 -0.00600 0.56900
H9 H 0.75800 0.06900 0.71100
H10 H 0.87200 0.21100 0.48100
H11 H 0.91100 0.05600 0.58600
H12 H 1.01100 0.40300 0.61100
H13 H 0.96100 0.34400 0.73900
N1 N 0.54080 0.21880 0.64990
O1 O 0.55510 0.17560 0.40480
O2 O 0.63970 0.48540 0.40940

#END
