./ADABEN_from_POSCAR.cif_generated_by_CrystalShift
_symmetry_cell_setting triclinic
_symmetry_space_group_name_H-M 'P 1'
loop_
_symmetry_equiv_pos_site_id
_symmetry_equiv_pos_as_xyz
1 x,y,z
_cell_length_a 7.152000
_cell_length_b 12.154000
_cell_length_c 11.240000
_cell_angle_alpha 90.000000
_cell_angle_beta 91.959000
_cell_angle_gamma 90.000000
_cell_volume 976.470549
loop_
_atom_site_label
_atom_site_type_symbol
_atom_site_fract_x
_atom_site_fract_y
_atom_site_fract_z
H1 H 1.062100 -0.095400 0.268800
H2 H 0.908800 0.521400 1.069100
H3 H 0.834500 0.444800 1.169300
H4 H 0.812400 0.572800 1.179300
H5 H 0.472400 0.131900 0.156200
H6 H 0.266600 0.304500 0.652500
H7 H 0.766600 0.195500 0.152500
H8 H -0.027600 0.368100 0.656200
H9 H -0.059400 0.357600 0.517500
H10 H 0.812400 0.572800 0.179300
H11 H 0.312400 -0.072800 0.679300
H12 H 0.334500 0.055200 0.669300
H13 H 0.408800 -0.021400 0.569100
H14 H 0.834500 0.444800 0.169300
H15 H 0.420400 0.404300 0.506100
H16 H 0.270500 0.477800 0.566500
H17 H 0.227900 0.427400 0.440000
H18 H 0.727900 0.072600 0.940000
H19 H -0.094400 0.213500 0.782700
H20 H 0.103700 0.179700 0.739700
H21 H -0.062100 0.095400 0.731200
H22 H 0.908800 0.521400 0.069100
H23 H -0.332600 0.251400 0.659500
H24 H -0.330600 0.141300 0.587000
H25 H -0.320800 0.254500 0.520600
H26 H 0.820800 0.754500 -0.020600
H27 H 0.440600 0.142400 1.017500
H28 H 0.179200 0.245500 1.020600
H29 H 0.472400 0.131900 1.156200
H30 H 0.830600 0.641300 -0.087000
H31 H 0.766600 0.195500 1.152500
H32 H 0.832600 0.751400 -0.159500
H33 H -0.266600 -0.304500 0.347500
H34 H 0.562100 0.595400 -0.231200
H35 H 0.027600 -0.368100 0.343800
H36 H 0.059400 -0.357600 0.482500
H37 H 0.396300 0.679700 -0.239700
H38 H -0.312400 0.072800 0.320700
H39 H -0.334500 -0.055200 0.330700
H40 H -0.408800 0.021400 0.430900
H41 H 0.594400 0.713500 -0.282700
H42 H -0.420400 -0.404300 0.493900
H43 H -0.270500 -0.477800 0.433500
H44 H -0.227900 -0.427400 0.560000
H45 H 0.272100 0.927400 0.060000
H46 H 0.094400 -0.213500 0.217300
H47 H -0.103700 -0.179700 0.260300
H48 H 0.062100 -0.095400 0.268800
H49 H 0.229500 0.977800 -0.066500
H50 H 0.332600 -0.251400 0.340500
H51 H 0.330600 -0.141300 0.413000
H52 H 0.320800 -0.254500 0.479400
H53 H 0.079600 0.904300 -0.006100
H54 H 0.920400 0.095700 1.006100
H55 H 0.169400 0.358700 1.087000
H56 H 0.820800 0.754500 0.979400
H57 H 0.830600 0.641300 0.913000
H58 H 0.832600 0.751400 0.840500
H59 H 0.091200 0.478600 -0.069100
H60 H 0.266600 1.304500 0.652500
H61 H 0.165500 0.555200 -0.169300
H62 H -0.027600 1.368100 0.656200
H63 H -0.059400 1.357600 0.517500
H64 H 0.187600 0.427200 -0.179300
H65 H 0.312400 0.927200 0.679300
H66 H 0.334500 1.055200 0.669300
H67 H 0.408800 0.978600 0.569100
H68 H 0.559400 0.857600 -0.017500
H69 H 0.420400 1.404300 0.506100
H70 H 0.270500 1.477800 0.566500
H71 H 0.227900 1.427400 0.440000
H72 H 0.527600 0.868100 -0.156200
H73 H -0.094400 1.213500 0.782700
H74 H 0.103700 1.179700 0.739700
H75 H -0.062100 1.095400 0.731200
H76 H 0.233400 0.804500 -0.152500
H77 H -0.332600 1.251400 0.659500
H78 H -0.330600 1.141300 0.587000
H79 H -0.320800 1.254500 0.520600
H80 H 0.920400 0.095700 0.006100
H81 H 0.562100 0.595400 0.768800
H82 H 0.167400 0.248600 1.159500
H83 H 0.396300 0.679700 0.760300
H84 H 0.594400 0.713500 0.717300
H85 H 0.770500 0.022200 0.066500
H86 H 0.727900 0.072600 -0.060000
H87 H -0.266600 0.695500 0.347500
H88 H 0.405600 0.286500 0.282700
H89 H 0.027600 0.631900 0.343800
H90 H 0.059400 0.642400 0.482500
H91 H 1.320800 0.745500 0.479400
H92 H -0.312400 1.072800 0.320700
H93 H -0.334500 0.944800 0.330700
H94 H -0.408800 1.021400 0.430900
H95 H 1.330600 0.858700 0.413000
H96 H -0.420400 0.595700 0.493900
H97 H -0.270500 0.522200 0.433500
H98 H -0.227900 0.572600 0.560000
H99 H 1.332600 0.748600 0.340500
H100 H 0.094400 0.786500 0.217300
H101 H -0.103700 0.820300 0.260300
H102 H 0.062100 0.904600 0.268800
H103 H 1.062100 0.904600 0.268800
H104 H 0.332600 0.748600 0.340500
H105 H 0.330600 0.858700 0.413000
H106 H 0.320800 0.745500 0.479400
H107 H 0.272100 0.927400 1.060000
H108 H 0.229500 0.977800 0.933500
H109 H 0.896300 0.820300 0.260300
H110 H 0.079600 0.904300 0.993900
H111 H 1.094400 0.786500 0.217300
H112 H 0.091200 0.478600 0.930900
H113 H 0.772100 0.572600 0.560000
H114 H 1.266600 0.304500 0.652500
H115 H 0.729500 0.522200 0.433500
H116 H 0.972400 0.368100 0.656200
H117 H 0.940600 0.357600 0.517500
H118 H 0.579600 0.595700 0.493900
H119 H 1.312400 -0.072800 0.679300
H120 H 1.334500 0.055200 0.669300
H121 H 1.408800 -0.021400 0.569100
H122 H 0.591200 1.021400 0.430900
H123 H 1.420400 0.404300 0.506100
H124 H 1.270500 0.477800 0.566500
H125 H 1.227900 0.427400 0.440000
H126 H 0.665500 0.944800 0.330700
H127 H 0.905600 0.213500 0.782700
H128 H 1.103700 0.179700 0.739700
H129 H 0.937900 0.095400 0.731200
H130 H 0.687600 1.072800 0.320700
H131 H 0.667400 0.251400 0.659500
H132 H 0.669400 0.141300 0.587000
H133 H 0.679200 0.254500 0.520600
H134 H 0.165500 0.555200 0.830700
H135 H 0.187600 0.427200 0.820700
H136 H 0.437900 0.404600 1.231200
H137 H 1.059400 0.642400 0.482500
H138 H 0.559400 0.857600 0.982500
H139 H 0.527600 0.868100 0.843800
H140 H 1.027600 0.631900 0.343800
H141 H 0.733400 -0.304500 0.347500
H142 H 0.733400 0.695500 0.347500
H143 H 1.027600 -0.368100 0.343800
H144 H 1.059400 -0.357600 0.482500
H145 H 0.603700 0.320300 0.239700
H146 H 0.687600 0.072800 0.320700
H147 H 0.665500 -0.055200 0.330700
H148 H 0.591200 0.021400 0.430900
H149 H 0.437900 0.404600 0.231200
H150 H 0.579600 -0.404300 0.493900
H151 H 0.729500 -0.477800 0.433500
H152 H 0.772100 -0.427400 0.560000
H153 H 0.405600 0.286500 1.282700
H154 H 1.094400 -0.213500 0.217300
H155 H 0.896300 -0.179700 0.260300
H156 H 0.167400 0.248600 0.159500
H157 H 0.169400 0.358700 0.087000
H158 H 1.332600 -0.251400 0.340500
H159 H 1.330600 -0.141300 0.413000
H160 H 1.320800 -0.254500 0.479400
H161 H 0.679200 1.254500 0.520600
H162 H 0.233400 0.804500 0.847500
H163 H 0.603700 0.320300 1.239700
H164 H 0.669400 1.141300 0.587000
H165 H 0.770500 0.022200 1.066500
H166 H 0.179200 0.245500 0.020600
H167 H 0.667400 1.251400 0.659500
H168 H 1.266600 1.304500 0.652500
H169 H 0.937900 1.095400 0.731200
H170 H 0.972400 1.368100 0.656200
H171 H 0.940600 1.357600 0.517500
H172 H 1.103700 1.179700 0.739700
H173 H 1.312400 0.927200 0.679300
H174 H 1.334500 1.055200 0.669300
H175 H 1.408800 0.978600 0.569100
H176 H 0.905600 1.213500 0.782700
H177 H 1.420400 1.404300 0.506100
H178 H 1.270500 1.477800 0.566500
H179 H 1.227900 1.427400 0.440000
H180 H 0.440600 0.142400 0.017500
C181 C 1.288900 1.415100 0.516200
C182 C 1.312100 0.988400 0.625400
C183 C 0.998100 1.323000 0.587400
C184 C 0.716700 1.215200 0.591500
C185 C 1.206900 1.313700 0.573300
C186 C 0.293100 0.813700 0.926700
C187 C 0.501900 0.823000 0.912600
C188 C 1.283300 -0.215200 0.408500
C189 C 0.788900 0.084900 1.016200
C190 C 1.028600 -0.171700 0.275000
C191 C 0.216700 0.284800 0.091500
C192 C 0.711100 -0.415100 0.483800
C193 C 0.687900 0.011600 0.374600
C194 C 0.793100 0.686300 0.426700
C195 C 1.001900 -0.323000 0.412600
C196 C 1.001900 0.677000 0.412600
C197 C 0.793100 -0.313700 0.426700
C198 C 0.187900 0.488400 0.874600
C199 C 0.687900 1.011600 0.374600
C200 C 0.716700 0.215200 0.591500
C201 C 0.971400 0.171700 0.725000
C202 C 1.288900 0.415100 0.516200
C203 C 0.711100 0.584900 0.483800
C204 C 1.312100 -0.011600 0.625400
C205 C 0.998100 0.323000 0.587400
C206 C 1.206900 0.313700 0.573300
C207 C 1.028600 0.828300 0.275000
C208 C 0.211100 0.915100 0.983800
C209 C 0.216700 0.284800 1.091500
C210 C 0.283300 0.784800 0.408500
C211 C 1.283300 0.784800 0.408500
C212 C 0.028600 0.828300 0.275000
C213 C -0.288900 0.584900 0.483800
C214 C -0.312100 1.011600 0.374600
C215 C 0.001900 0.677000 0.412600
C216 C 0.471400 0.328300 0.225000
C217 C 0.471400 0.328300 1.225000
C218 C -0.206900 0.686300 0.426700
C219 C 0.528600 0.671700 0.775000
C220 C 0.783300 0.715200 0.908500
C221 C 0.293100 0.813700 -0.073300
C222 C -0.283300 1.215200 0.591500
C223 C 0.501900 0.823000 -0.087400
C224 C -0.028600 1.171700 0.725000
C225 C 0.288900 1.415100 0.516200
C226 C 0.187900 0.488400 -0.125400
C227 C 0.312100 0.988400 0.625400
C228 C -0.001900 1.323000 0.587400
C229 C 0.206900 1.313700 0.573300
C230 C 0.211100 0.915100 -0.016200
C231 C 0.706900 0.186300 1.073300
C232 C 0.283300 -0.215200 0.408500
C233 C 0.028600 -0.171700 0.275000
C234 C 0.528600 0.671700 -0.225000
C235 C -0.288900 -0.415100 0.483800
C236 C -0.312100 0.011600 0.374600
C237 C 0.001900 -0.323000 0.412600
C238 C 0.783300 0.715200 -0.091500
C239 C -0.206900 -0.313700 0.426700
C240 C 0.498100 0.177000 1.087400
C241 C 0.812100 0.511600 1.125400
C242 C 0.788900 0.084900 0.016200
C243 C -0.283300 0.215200 0.591500
C244 C -0.028600 0.171700 0.725000
C245 C 0.288900 0.415100 0.516200
C246 C 0.312100 -0.011600 0.625400
C247 C 0.812100 0.511600 0.125400
C248 C 0.706900 0.186300 0.073300
C249 C -0.001900 0.323000 0.587400
C250 C 0.498100 0.177000 0.087400
C251 C 0.206900 0.313700 0.573300
C252 C 0.971400 1.171700 0.725000
N253 N 0.420100 0.287500 0.102800
N254 N 0.079900 -0.212500 0.397200
N255 N 0.420100 0.287500 1.102800
N256 N -0.079900 1.212500 0.602800
N257 N 0.079900 0.787500 0.397200
N258 N 0.579900 0.712500 -0.102800
N259 N 0.920100 0.212500 0.602800
N260 N -0.079900 0.212500 0.602800
N261 N 1.079900 -0.212500 0.397200
N262 N 0.579900 0.712500 0.897200
N263 N 1.079900 0.787500 0.397200
N264 N 0.920100 1.212500 0.602800
O265 O 0.751900 0.779600 0.495500
O266 O 0.930200 1.206600 0.349700
O267 O 1.217900 1.067700 0.333900
O268 O 0.866200 1.005000 0.436900
O269 O 0.717900 0.432300 -0.166100
O270 O 0.430200 0.293400 -0.150300
O271 O 1.133800 0.995000 0.563100
O272 O 0.251900 0.720400 0.995500
O273 O 0.366200 0.495000 0.936900
O274 O 0.782100 0.932300 0.666100
O275 O 1.248100 1.220400 0.504500
O276 O 1.069800 -0.206600 0.650300
O277 O 0.782100 -0.067700 0.666100
O278 O 1.069800 0.793400 0.650300
O279 O 0.866200 0.005000 0.436900
O280 O 0.751900 -0.220400 0.495500
O281 O 0.251900 0.720400 -0.004500
O282 O 1.217900 0.067700 0.333900
O283 O 0.366200 0.495000 -0.063100
O284 O 1.133800 -0.005000 0.563100
O285 O 1.248100 0.220400 0.504500
O286 O 0.069800 0.793400 0.650300
O287 O -0.217900 0.932300 0.666100
O288 O 0.282100 0.567700 0.166100
O289 O -0.133800 1.005000 0.436900
O290 O -0.248100 0.779600 0.495500
O291 O -0.069800 1.206600 0.349700
O292 O 0.217900 1.067700 0.333900
O293 O 0.569800 0.706600 0.150300
O294 O 0.133800 0.995000 0.563100
O295 O 0.248100 1.220400 0.504500
O296 O 0.282100 0.567700 1.166100
O297 O 0.569800 0.706600 1.150300
O298 O 0.069800 -0.206600 0.650300
O299 O 0.748100 0.279600 1.004500
O300 O 0.633800 0.505000 1.063100
O301 O 0.748100 0.279600 0.004500
O302 O -0.217900 -0.067700 0.666100
O303 O 0.633800 0.505000 0.063100
O304 O -0.133800 0.005000 0.436900
O305 O -0.248100 -0.220400 0.495500
O306 O -0.069800 0.206600 0.349700
O307 O 0.217900 0.067700 0.333900
O308 O 0.930200 0.206600 0.349700
O309 O 0.133800 -0.005000 0.563100
O310 O 0.248100 0.220400 0.504500
O311 O 0.430200 0.293400 0.849700
O312 O 0.717900 0.432300 0.833900
Mo313 Mo 0.428550 0.622840 1.067680
Mo314 Mo 0.571450 0.377160 -0.067680
Mo315 Mo 0.428550 0.622840 0.067680
Mo316 Mo 0.928550 0.877160 0.567680
Mo317 Mo 1.071450 1.122840 0.432320
Mo318 Mo 0.928550 -0.122840 0.567680
Mo319 Mo 1.071450 0.122840 0.432320
Mo320 Mo -0.071450 0.877160 0.567680
Mo321 Mo 0.071450 1.122840 0.432320
Mo322 Mo -0.071450 -0.122840 0.567680
Mo323 Mo 0.571450 0.377160 0.932320
Mo324 Mo 0.071450 0.122840 0.432320

#END
