
#######################################################################
#
#                 Cambridge Crystallographic Data Centre
#                                CCDC 
#
#######################################################################
#
# If this CIF has been generated from an entry in the Cambridge 
# Structural Database, then it will include bibliographic, chemical, 
# crystal, experimental, refinement or atomic coordinate data resulting 
# from the CCDC's data processing and validation procedures.
#
#######################################################################

data_ADABIR
_symmetry_cell_setting           monoclinic
_symmetry_space_group_name_H-M   'P 21'
_symmetry_Int_Tables_number      4
_space_group_name_Hall           'P 2yb'
loop_
_symmetry_equiv_pos_site_id
_symmetry_equiv_pos_as_xyz
1 x,y,z
2 -x,1/2+y,-z
_cell_length_a                   8.4658(4)
_cell_length_b                   9.0001(4)
_cell_length_c                   11.9914(6)
_cell_angle_alpha                90
_cell_angle_beta                 103.192(2)
_cell_angle_gamma                90
_cell_volume                     889.55
loop_
_atom_site_label
_atom_site_type_symbol
_atom_site_fract_x
_atom_site_fract_y
_atom_site_fract_z
F1 F 0.79132(10) 0.43110(10) 0.94099(7)
C1 C 0.66874(17) 0.43848(17) 0.84564(11)
C2 C 0.59303(18) 0.30875(17) 0.80032(13)
H1 H 0.6250 0.2156 0.8356
C3 C 0.46970(17) 0.31748(17) 0.70259(12)
H2 H 0.4170 0.2294 0.6697
C4 C 0.42224(16) 0.45493(16) 0.65202(11)
C5 C 0.49707(18) 0.58402(17) 0.70033(12)
H3 H 0.4626 0.6779 0.6674
C6 C 0.62350(18) 0.57477(17) 0.79778(12)
H4 H 0.6778 0.6621 0.8307
O1 O 0.30021(12) 0.45034(11) 0.55354(8)
C7 C 0.25803(17) 0.58867(16) 0.49687(12)
H5 H 0.3543 0.6336 0.4763
H6 H 0.2173 0.6584 0.5477
C8 C 0.12585(17) 0.55826(16) 0.38855(11)
O2 O 0.09014(12) 0.70878(10) 0.34759(8)
C9 C -0.26028(17) 0.84413(17) 0.06476(11)
C10 C -0.14431(16) 0.94190(17) 0.12806(11)
C11 C -0.03172(18) 0.89107(15) 0.22210(12)
H7 H 0.0450 0.9581 0.2656
C12 C -0.02966(17) 0.74152(16) 0.25393(11)
C13 C -0.14491(18) 0.64387(16) 0.19275(12)
H8 H -0.1453 0.5425 0.2149
C14 C -0.25941(18) 0.69626(17) 0.09895(12)
H9 H -0.3386 0.6299 0.0573
C15 C -0.37882(17) 0.89336(16) -0.03503(12)
N1 N -0.47073(15) 0.93130(15) -0.11597(11)
C16 C -0.14026(17) 1.10176(17) 0.09086(12)
F2 F -0.11321(11) 1.11156(10) -0.01481(8)
F3 F -0.28149(12) 1.17088(10) 0.08758(9)
F4 F -0.02366(13) 1.17958(11) 0.15984(8)
C17 C -0.02166(17) 0.48669(15) 0.42339(11)
N2 N -0.10918(14) 0.57831(14) 0.47263(10)
H10 H -0.0776 0.6709 0.4868
C18 C -0.25650(18) 0.52624(18) 0.50317(13)
H11 H -0.3352 0.4955 0.4338
H12 H -0.3028 0.6066 0.5408
H13 H -0.2307 0.4416 0.5556
O3 O -0.05231(12) 0.35468(11) 0.40597(8)
C19 C 0.18999(18) 0.46337(17) 0.30395(12)
H14 H 0.1051 0.4510 0.2338
H15 H 0.2219 0.3657 0.3379
H16 H 0.2844 0.5121 0.2855
F1 F 0.20868(10) -0.06890(10) 0.05901(7)
C1 C 0.33126(17) -0.06152(17) 0.15436(11)
C2 C 0.40697(18) -0.19125(17) 0.19968(13)
H1 H 0.3750 -0.2844 0.1644
C3 C 0.53030(17) -0.18252(17) 0.29741(12)
H2 H 0.5830 -0.2706 0.3303
C4 C 0.57776(16) -0.04507(16) 0.34798(11)
C5 C 0.50293(18) 0.08402(17) 0.29967(12)
H3 H 0.5374 0.1779 0.3326
C6 C 0.37650(18) 0.07477(17) 0.20222(12)
H4 H 0.3222 0.1621 0.1693
O1 O 0.69979(12) -0.04966(11) 0.44646(8)
C7 C 0.74197(17) 0.08867(16) 0.50313(12)
H5 H 0.6457 0.1336 0.5237
H6 H 0.7827 0.1584 0.4523
C8 C 0.87415(17) 0.05826(16) 0.61145(11)
O2 O 0.90986(12) 0.20878(10) 0.65241(8)
C9 C 1.26028(17) 0.34413(17) 0.93524(11)
C10 C 1.14431(16) 0.44190(17) 0.87194(11)
C11 C 1.03172(18) 0.39107(15) 0.77790(12)
H7 H 0.9550 0.4581 0.7344
C12 C 1.02966(17) 0.24152(16) 0.74607(11)
C13 C 1.14491(18) 0.14387(16) 0.80725(12)
H8 H 1.1453 0.0425 0.7851
C14 C 1.25941(18) 0.19626(17) 0.90105(12)
H9 H 1.3386 0.1299 0.9427
C15 C 1.37882(17) 0.39336(16) 1.03503(12)
N1 N 1.47073(15) 0.43130(15) 1.11597(11)
C16 C 1.14026(17) 0.60176(17) 0.90914(12)
F2 F 1.11321(11) 0.61156(10) 1.01481(8)
F3 F 1.28149(12) 0.67088(10) 0.91242(9)
F4 F 1.02366(13) 0.67958(11) 0.84016(8)
C17 C 1.02166(17) -0.01331(15) 0.57661(11)
N2 N 1.10918(14) 0.07831(14) 0.52737(10)
H10 H 1.0776 0.1709 0.5132
C18 C 1.25650(18) 0.02624(18) 0.49683(13)
H11 H 1.3352 -0.0045 0.5662
H12 H 1.3028 0.1066 0.4592
H13 H 1.2307 -0.0584 0.4444
O3 O 1.05231(12) -0.14532(11) 0.59403(8)
C19 C 0.81001(18) -0.03663(17) 0.69605(12)
H14 H 0.8949 -0.0490 0.7662
H15 H 0.7781 -0.1343 0.6621
H16 H 0.7156 0.0121 0.7145

#END
