
#######################################################################
#
#                 Cambridge Crystallographic Data Centre
#                                CCDC 
#
#######################################################################
#
# If this CIF has been generated from an entry in the Cambridge 
# Structural Database, then it will include bibliographic, chemical, 
# crystal, experimental, refinement or atomic coordinate data resulting 
# from the CCDC's data processing and validation procedures.
#
#######################################################################

data_ADAFUG
_symmetry_cell_setting           monoclinic
_symmetry_space_group_name_H-M   'P 21'
_symmetry_Int_Tables_number      4
_space_group_name_Hall           'P 2yb'
loop_
_symmetry_equiv_pos_site_id
_symmetry_equiv_pos_as_xyz
1 x,y,z
2 -x,1/2+y,-z
_cell_length_a                   8.9084(18)
_cell_length_b                   15.503(3)
_cell_length_c                   12.717(3)
_cell_angle_alpha                90.00
_cell_angle_beta                 97.79(3)
_cell_angle_gamma                90.00
_cell_volume                     1740.1
loop_
_atom_site_label
_atom_site_type_symbol
_atom_site_fract_x
_atom_site_fract_y
_atom_site_fract_z
Sn1 Sn 0.472767(15) 0.041131(13) 0.359632(14)
Fe1 Fe 0.62129(4) 0.09972(3) 0.09931(3)
Fe2 Fe 0.27815(4) -0.03920(3) 0.59315(3)
Cl1 Cl 0.59796(7) 0.14094(5) 0.48943(6)
Cl2 Cl 0.68011(7) -0.06167(5) 0.37423(6)
Cl3 Cl -0.11429(11) -0.23663(7) 0.24357(11)
Cl4 Cl 0.07878(11) 0.32181(7) 0.04757(8)
N1 N 0.33515(19) -0.03769(15) 0.20200(16)
N2 N 0.23637(19) 0.12669(14) 0.36578(16)
C1 C 0.6858(4) -0.0130(3) 0.0340(4)
H1 H 0.6225 -0.0634 0.0125
C2 C 0.7127(3) 0.0580(3) -0.0278(3)
H2 H 0.6687 0.0668 -0.1019
C3 C 0.8115(3) 0.1114(4) 0.0285(3)
H3 H 0.8524 0.1650 0.0029
C4 C 0.8443(3) 0.0770(5) 0.1293(3)
H4 H 0.9139 0.1019 0.1878
C5 C 0.7691(4) 0.0030(4) 0.1325(3)
H5 H 0.7739 -0.0351 0.1943
C6 C 0.4167(3) 0.1539(2) 0.0461(2)
H6 H 0.3656 0.1546 -0.0271
C7 C 0.5163(3) 0.2167(2) 0.0952(3)
H7 H 0.5493 0.2683 0.0602
C8 C 0.5635(3) 0.1939(2) 0.2010(3)
H8 H 0.6346 0.2266 0.2516
C9 C 0.4946(3) 0.11422(18) 0.2220(2)
C10 C 0.4033(2) 0.08977(18) 0.1245(2)
C11 C 0.3264(3) 0.00611(19) 0.1158(2)
C12 C 0.2436(3) -0.0216(2) 0.0104(2)
H9 H 0.1994 -0.0774 0.0174
H10 H 0.3133 -0.0243 -0.0408
H11 H 0.1651 0.0194 -0.0126
C13 C 0.2754(3) -0.12260(18) 0.2080(2)
C14 C 0.3755(3) -0.1916(2) 0.2184(3)
H12 H 0.4774 -0.1828 0.2129
C15 C 0.3230(4) -0.2737(2) 0.2372(3)
H13 H 0.3911 -0.3194 0.2453
C16 C 0.1735(4) -0.2889(2) 0.2441(3)
H14 H 0.1388 -0.3440 0.2568
C17 C 0.0769(3) -0.2198(2) 0.2315(3)
C18 C 0.1237(3) -0.1362(2) 0.2143(2)
H15 H 0.0549 -0.0907 0.2072
C19 C 0.2041(3) 0.0166(2) 0.7222(2)
H16 H 0.1009 0.0365 0.7273
C20 C 0.2631(3) -0.0677(2) 0.7472(2)
H17 H 0.2075 -0.1162 0.7726
C21 C 0.4155(3) -0.0681(2) 0.7312(2)
H18 H 0.4842 -0.1176 0.7422
C22 C 0.4528(3) 0.01329(17) 0.6956(2)
H19 H 0.5518 0.0305 0.6772
C23 C 0.3232(3) 0.06605(19) 0.6890(2)
H20 H 0.3167 0.1265 0.6662
C24 C 0.0941(3) -0.06905(19) 0.4878(2)
H21 H -0.0118 -0.0648 0.5003
C25 C 0.1873(3) -0.1427(2) 0.5052(2)
H22 H 0.1583 -0.1982 0.5334
C26 C 0.3311(3) -0.12158(18) 0.4772(2)
H23 H 0.4190 -0.1602 0.4837
C27 C 0.3294(2) -0.03531(17) 0.44098(19)
C28 C 0.1813(2) -0.00177(18) 0.4471(2)
C29 C 0.1395(3) 0.08659(19) 0.4155(2)
C30 C -0.0078(3) 0.1249(2) 0.4378(2)
H24 H -0.0160 0.1831 0.4117
H25 H -0.0111 0.1249 0.5130
H26 H -0.0905 0.0913 0.4031
C31 C 0.2107(3) 0.21352(18) 0.3283(2)
C32 C 0.1631(3) 0.2262(2) 0.2217(2)
H27 H 0.1456 0.1791 0.1763
C33 C 0.1413(3) 0.3089(2) 0.1822(3)
C34 C 0.1716(3) 0.3782(2) 0.2452(3)
H28 H 0.1591 0.4336 0.2174
C35 C 0.2219(3) 0.3656(2) 0.3525(3)
H29 H 0.2422 0.4131 0.3968
C36 C 0.2420(3) 0.28415(19) 0.3937(3)
H30 H 0.2766 0.2765 0.4654
Sn1 Sn 0.527233(15) 0.541131(13) 0.640368(14)
Fe1 Fe 0.37871(4) 0.59972(3) 0.90069(3)
Fe2 Fe 0.72185(4) 0.46080(3) 0.40685(3)
Cl1 Cl 0.40204(7) 0.64094(5) 0.51057(6)
Cl2 Cl 0.31989(7) 0.43833(5) 0.62577(6)
Cl3 Cl 1.11429(11) 0.26337(7) 0.75643(11)
Cl4 Cl 0.92122(11) 0.82181(7) 0.95243(8)
N1 N 0.66485(19) 0.46231(15) 0.79800(16)
N2 N 0.76363(19) 0.62669(14) 0.63422(16)
C1 C 0.3142(4) 0.4870(3) 0.9660(4)
H1 H 0.3775 0.4366 0.9875
C2 C 0.2873(3) 0.5580(3) 1.0278(3)
H2 H 0.3313 0.5668 1.1019
C3 C 0.1885(3) 0.6114(4) 0.9715(3)
H3 H 0.1476 0.6650 0.9971
C4 C 0.1557(3) 0.5770(5) 0.8707(3)
H4 H 0.0861 0.6019 0.8122
C5 C 0.2309(4) 0.5030(4) 0.8675(3)
H5 H 0.2261 0.4649 0.8057
C6 C 0.5833(3) 0.6539(2) 0.9539(2)
H6 H 0.6344 0.6546 1.0271
C7 C 0.4837(3) 0.7167(2) 0.9048(3)
H7 H 0.4507 0.7683 0.9398
C8 C 0.4365(3) 0.6939(2) 0.7990(3)
H8 H 0.3654 0.7266 0.7484
C9 C 0.5054(3) 0.61422(18) 0.7780(2)
C10 C 0.5967(2) 0.58977(18) 0.8755(2)
C11 C 0.6736(3) 0.50611(19) 0.8842(2)
C12 C 0.7564(3) 0.4784(2) 0.9896(2)
H9 H 0.8006 0.4226 0.9826
H10 H 0.6867 0.4757 1.0408
H11 H 0.8349 0.5194 1.0126
C13 C 0.7246(3) 0.37740(18) 0.7920(2)
C14 C 0.6245(3) 0.3084(2) 0.7816(3)
H12 H 0.5226 0.3172 0.7871
C15 C 0.6770(4) 0.2263(2) 0.7628(3)
H13 H 0.6089 0.1806 0.7547
C16 C 0.8265(4) 0.2111(2) 0.7559(3)
H14 H 0.8612 0.1560 0.7432
C17 C 0.9231(3) 0.2802(2) 0.7685(3)
C18 C 0.8763(3) 0.3638(2) 0.7857(2)
H15 H 0.9451 0.4093 0.7928
C19 C 0.7959(3) 0.5166(2) 0.2778(2)
H16 H 0.8991 0.5365 0.2727
C20 C 0.7369(3) 0.4323(2) 0.2528(2)
H17 H 0.7925 0.3838 0.2274
C21 C 0.5845(3) 0.4319(2) 0.2688(2)
H18 H 0.5158 0.3824 0.2578
C22 C 0.5472(3) 0.51329(17) 0.3044(2)
H19 H 0.4482 0.5305 0.3228
C23 C 0.6768(3) 0.56605(19) 0.3110(2)
H20 H 0.6833 0.6265 0.3338
C24 C 0.9059(3) 0.43095(19) 0.5122(2)
H21 H 1.0118 0.4352 0.4997
C25 C 0.8127(3) 0.3573(2) 0.4948(2)
H22 H 0.8417 0.3018 0.4666
C26 C 0.6689(3) 0.37842(18) 0.5228(2)
H23 H 0.5810 0.3398 0.5163
C27 C 0.6706(2) 0.46469(17) 0.55902(19)
C28 C 0.8187(2) 0.49823(18) 0.5529(2)
C29 C 0.8605(3) 0.58659(19) 0.5845(2)
C30 C 1.0078(3) 0.6249(2) 0.5622(2)
H24 H 1.0160 0.6831 0.5883
H25 H 1.0111 0.6249 0.4870
H26 H 1.0905 0.5913 0.5969
C31 C 0.7893(3) 0.71352(18) 0.6717(2)
C32 C 0.8369(3) 0.7262(2) 0.7783(2)
H27 H 0.8544 0.6791 0.8237
C33 C 0.8587(3) 0.8089(2) 0.8178(3)
C34 C 0.8284(3) 0.8782(2) 0.7548(3)
H28 H 0.8409 0.9336 0.7826
C35 C 0.7781(3) 0.8656(2) 0.6475(3)
H29 H 0.7578 0.9131 0.6032
C36 C 0.7580(3) 0.78415(19) 0.6063(3)
H30 H 0.7234 0.7765 0.5346

#END
