./ADAHOD_from_POSCAR.cif_generated_by_CrystalShift
_symmetry_cell_setting triclinic
_symmetry_space_group_name_H-M 'P 1'
loop_
_symmetry_equiv_pos_site_id
_symmetry_equiv_pos_as_xyz
1 x,y,z
_cell_length_a 7.205000
_cell_length_b 13.857000
_cell_length_c 13.978000
_cell_angle_alpha 90.000000
_cell_angle_beta 90.740000
_cell_angle_gamma 90.000000
_cell_volume 1395.442723
loop_
_atom_site_label
_atom_site_type_symbol
_atom_site_fract_x
_atom_site_fract_y
_atom_site_fract_z
H1 H 0.231300 0.808100 0.629100
H2 H 0.348600 0.820900 -0.022800
H3 H 0.327200 0.933400 -0.026900
H4 H 0.960900 0.112900 0.177200
H5 H 0.213200 0.873400 0.047100
H6 H 0.832200 -0.138300 0.273900
H7 H 0.573200 0.879200 0.055300
H8 H 0.927400 -0.054300 0.131300
H9 H 0.786800 0.373400 0.452900
H10 H 0.348600 0.679100 0.477200
H11 H 0.768700 0.191900 0.370900
H12 H 0.953000 0.218400 0.318600
H13 H 0.960900 0.164500 0.417200
H14 H 0.327200 0.566600 0.473100
H15 H 0.213200 0.626600 0.547100
H16 H 0.557200 0.017500 0.816800
H17 H 0.573200 0.620800 0.555300
H18 H 0.536600 -0.157000 0.805400
H19 H 0.672800 0.433400 0.526900
H20 H 0.621300 -0.195000 0.643100
H21 H 0.651400 0.179100 1.022800
H22 H 0.672800 0.066600 1.026900
H23 H 0.579500 0.145800 0.615700
H24 H 0.788600 0.137300 0.647000
H25 H 0.637400 0.161100 0.723200
H26 H 0.786800 0.126600 0.952900
H27 H 0.426800 0.120800 0.944700
H28 H 0.651400 0.320900 0.522800
H29 H 0.039100 0.612900 0.322800
H30 H 0.637400 0.338900 1.223200
H31 H 0.167800 0.361700 0.226100
H32 H 0.788600 0.362700 1.147000
H33 H 0.072600 0.445700 0.368700
H34 H 0.579500 0.354200 1.115700
H35 H 0.621300 0.695000 1.143100
H36 H 0.231300 0.691900 0.129100
H37 H 0.047000 0.718400 0.181400
H38 H 0.039100 0.664500 0.082800
H39 H 0.536600 0.657000 1.305400
H40 H 0.557200 0.482500 1.316800
H41 H 0.442800 0.517500 -0.316800
H42 H 0.960900 0.335500 0.917200
H43 H 0.463400 0.343000 -0.305400
H44 H 0.953000 0.281600 0.818600
H45 H 0.378700 0.305000 -0.143100
H46 H 0.768700 0.308100 0.870900
H47 H 0.927400 0.554300 0.631300
H48 H 0.420500 0.645800 -0.115700
H49 H 0.211400 0.637300 -0.147000
H50 H 0.362600 0.661100 -0.223200
H51 H 0.832200 0.638300 0.773900
H52 H 0.960900 0.387100 0.677200
H53 H 0.362600 0.838900 0.276800
H54 H 0.039100 0.887100 0.822800
H55 H 0.211400 0.862700 0.353000
H56 H 0.167800 1.138300 0.726100
H57 H 0.420500 0.854200 0.384300
H58 H 0.072600 1.054300 0.868700
H59 H 0.378700 1.195000 0.356900
H60 H 0.463400 1.157000 0.194600
H61 H 0.426800 0.379200 0.444700
H62 H 0.047000 0.781600 0.681400
H63 H 0.039100 0.835500 0.582800
H64 H 0.442800 0.982500 0.183200
C65 C 0.362700 0.979400 0.315900
C66 C 0.856100 -0.072500 0.269400
C67 C 0.429700 1.113400 0.241800
C68 C 0.106900 0.828700 0.642000
C69 C 0.382900 1.133300 0.330800
C70 C 0.112100 0.922700 0.692300
C71 C 0.329400 0.878100 0.014500
C72 C 0.337000 0.874500 0.334100
C73 C 0.091900 1.027000 0.808800
C74 C 0.143900 1.072500 0.730600
C75 C 0.908100 -0.027000 0.191200
C76 C 0.887900 0.077300 0.307700
C77 C 0.893100 0.171300 0.358000
C78 C 0.329400 0.621900 0.514500
C79 C 0.570300 -0.113400 0.758200
C80 C 0.856100 0.572500 0.769400
C81 C 0.617100 -0.133300 0.669200
C82 C 0.908100 0.527000 0.691200
C83 C 0.337000 0.625500 -0.165900
C84 C 0.887900 0.422700 0.807700
C85 C 0.893100 0.328700 0.858000
C86 C 0.362700 0.520600 -0.184100
C87 C 0.382900 0.366700 -0.169200
C88 C 0.429700 0.386600 -0.258200
C89 C 0.637300 0.020600 0.684100
C90 C 0.663000 0.125500 0.665900
C91 C 0.670600 0.121900 0.985500
C92 C 0.570300 0.613400 1.258200
C93 C 0.143900 0.427500 0.230600
C94 C 0.617100 0.633300 1.169200
C95 C 0.106900 0.671300 0.142000
C96 C 0.637300 0.479400 1.184100
C97 C 0.663000 0.374500 1.165900
C98 C 0.112100 0.577300 0.192300
C99 C 0.091900 0.473000 0.308800
C100 C 0.670600 0.378100 0.485500
N101 N 0.071900 0.567300 0.284900
N102 N 0.157200 0.492300 0.157200
N103 N 0.418100 0.484700 -0.266400
N104 N 0.169700 0.293600 0.554500
N105 N 0.581900 0.515300 1.266400
N106 N 0.658800 0.549400 1.120500
N107 N 0.169700 0.206400 0.054500
N108 N 0.157200 1.007700 0.657200
N109 N 0.928100 0.432700 0.715100
N110 N 0.581900 -0.015300 0.766400
N111 N 0.658800 -0.049400 0.620500
N112 N 0.842800 0.507700 0.842800
N113 N 0.830300 0.706400 0.445500
N114 N 0.071900 0.932700 0.784900
N115 N 0.830300 0.793600 0.945500
N116 N 0.341200 1.049400 0.379500
N117 N 0.928100 0.067300 0.215100
N118 N 0.842800 -0.007700 0.342800
N119 N 0.341200 0.450600 -0.120500
N120 N 0.418100 1.015300 0.233600
O121 O 0.526500 0.387900 0.418400
O122 O 0.473500 0.887900 0.081600
O123 O 0.473500 0.612100 0.581600
O124 O 0.526500 0.112100 0.918400
O125 O 0.818800 0.622500 0.471800
O126 O 0.959800 0.732000 0.395500
O127 O 0.705400 0.764400 0.464600
O128 O 0.705400 0.735600 0.964600
O129 O 0.181200 0.122500 0.028200
O130 O 0.040200 0.232000 0.104500
O131 O 0.294600 0.264400 0.035400
O132 O 0.959800 0.768000 0.895500
O133 O 0.181200 0.377500 0.528200
O134 O 0.040200 0.268000 0.604500
O135 O 0.294600 0.235600 0.535400
O136 O 0.818800 0.877500 0.971800
Ag137 Ag 0.246310 1.035320 0.518570
Ag138 Ag 0.753690 0.535320 0.981430
Ag139 Ag 0.753690 -0.035320 0.481430
Ag140 Ag 0.246310 0.464680 0.018570

#END
