
#######################################################################
#
#                 Cambridge Crystallographic Data Centre
#                                CCDC 
#
#######################################################################
#
# If this CIF has been generated from an entry in the Cambridge 
# Structural Database, then it will include bibliographic, chemical, 
# crystal, experimental, refinement or atomic coordinate data resulting 
# from the CCDC's data processing and validation procedures.
#
#######################################################################

data_ADAHOD
_symmetry_cell_setting           monoclinic
_symmetry_space_group_name_H-M   'P 21/c'
_symmetry_Int_Tables_number      14
_space_group_name_Hall           '-P 2ybc'
loop_
_symmetry_equiv_pos_site_id
_symmetry_equiv_pos_as_xyz
1 x,y,z
2 -x,1/2+y,1/2-z
3 -x,-y,-z
4 x,1/2-y,1/2+z
_cell_length_a                   7.205(5)
_cell_length_b                   13.857(3)
_cell_length_c                   13.978(4)
_cell_angle_alpha                90
_cell_angle_beta                 90.74(4)
_cell_angle_gamma                90
_cell_volume                     1395.44
loop_
_atom_site_label
_atom_site_type_symbol
_atom_site_fract_x
_atom_site_fract_y
_atom_site_fract_z
Ag1 Ag 0.75369(7) -0.03532(4) 0.48143(3)
N1 N 0.8428(6) -0.0077(4) 0.3428(4)
N2 N 0.9281(7) 0.0673(4) 0.2151(4)
H1 H 0.9609 0.1129 0.1772
C1 C 0.8561(9) -0.0725(5) 0.2694(5)
H2 H 0.8322 -0.1383 0.2739
C2 C 0.9081(8) -0.0270(5) 0.1912(5)
H3 H 0.9274 -0.0543 0.1313
C3 C 0.8879(8) 0.0773(5) 0.3077(5)
C4 C 0.8931(9) 0.1713(5) 0.3580(5)
H4 H 0.7687 0.1919 0.3709
H5 H 0.9530 0.2184 0.3186
H6 H 0.9609 0.1645 0.4172
N3 N 0.6588(6) -0.0494(3) 0.6205(3)
N4 N 0.5819(7) -0.0153(4) 0.7664(4)
H7 H 0.5572 0.0175 0.8168
C5 C 0.5703(8) -0.1134(5) 0.7582(4)
H8 H 0.5366 -0.1570 0.8054
C6 C 0.6171(8) -0.1333(5) 0.6692(4)
H9 H 0.6213 -0.1950 0.6431
C7 C 0.6373(7) 0.0206(4) 0.6841(4)
C8 C 0.6630(9) 0.1255(5) 0.6659(5)
H10 H 0.5795 0.1458 0.6157
H11 H 0.7886 0.1373 0.6470
H12 H 0.6374 0.1611 0.7232
Ag1 Ag 0.24631(7) 0.46468(4) 0.01857(3)
N1 N 0.1572(6) 0.4923(4) 0.1572(4)
N2 N 0.0719(7) 0.5673(4) 0.2849(4)
H1 H 0.0391 0.6129 0.3228
C1 C 0.1439(9) 0.4275(5) 0.2306(5)
H2 H 0.1678 0.3617 0.2261
C2 C 0.0919(8) 0.4730(5) 0.3088(5)
H3 H 0.0726 0.4457 0.3687
C3 C 0.1121(8) 0.5773(5) 0.1923(5)
C4 C 0.1069(9) 0.6713(5) 0.1420(5)
H4 H 0.2313 0.6919 0.1291
H5 H 0.0470 0.7184 0.1814
H6 H 0.0391 0.6645 0.0828
N3 N 0.3412(6) 0.4506(3) -0.1205(3)
N4 N 0.4181(7) 0.4847(4) -0.2664(4)
H7 H 0.4428 0.5175 -0.3168
C5 C 0.4297(8) 0.3866(5) -0.2582(4)
H8 H 0.4634 0.3430 -0.3054
C6 C 0.3829(8) 0.3667(5) -0.1692(4)
H9 H 0.3787 0.3050 -0.1431
C7 C 0.3627(7) 0.5206(4) -0.1841(4)
C8 C 0.3370(9) 0.6255(5) -0.1659(5)
H10 H 0.4205 0.6458 -0.1157
H11 H 0.2114 0.6373 -0.1470
H12 H 0.3626 0.6611 -0.2232
Ag1 Ag 0.24631(7) 1.03532(4) 0.51857(3)
N1 N 0.1572(6) 1.0077(4) 0.6572(4)
N2 N 0.0719(7) 0.9327(4) 0.7849(4)
H1 H 0.0391 0.8871 0.8228
C1 C 0.1439(9) 1.0725(5) 0.7306(5)
H2 H 0.1678 1.1383 0.7261
C2 C 0.0919(8) 1.0270(5) 0.8088(5)
H3 H 0.0726 1.0543 0.8687
C3 C 0.1121(8) 0.9227(5) 0.6923(5)
C4 C 0.1069(9) 0.8287(5) 0.6420(5)
H4 H 0.2313 0.8081 0.6291
H5 H 0.0470 0.7816 0.6814
H6 H 0.0391 0.8355 0.5828
N3 N 0.3412(6) 1.0494(3) 0.3795(3)
N4 N 0.4181(7) 1.0153(4) 0.2336(4)
H7 H 0.4428 0.9825 0.1832
C5 C 0.4297(8) 1.1134(5) 0.2418(4)
H8 H 0.4634 1.1570 0.1946
C6 C 0.3829(8) 1.1333(5) 0.3308(4)
H9 H 0.3787 1.1950 0.3569
C7 C 0.3627(7) 0.9794(4) 0.3159(4)
C8 C 0.3370(9) 0.8745(5) 0.3341(5)
H10 H 0.4205 0.8542 0.3843
H11 H 0.2114 0.8627 0.3530
H12 H 0.3626 0.8389 0.2768
Ag1 Ag 0.75369(7) 0.53532(4) 0.98143(3)
N1 N 0.8428(6) 0.5077(4) 0.8428(4)
N2 N 0.9281(7) 0.4327(4) 0.7151(4)
H1 H 0.9609 0.3871 0.6772
C1 C 0.8561(9) 0.5725(5) 0.7694(5)
H2 H 0.8322 0.6383 0.7739
C2 C 0.9081(8) 0.5270(5) 0.6912(5)
H3 H 0.9274 0.5543 0.6313
C3 C 0.8879(8) 0.4227(5) 0.8077(5)
C4 C 0.8931(9) 0.3287(5) 0.8580(5)
H4 H 0.7687 0.3081 0.8709
H5 H 0.9530 0.2816 0.8186
H6 H 0.9609 0.3355 0.9172
N3 N 0.6588(6) 0.5494(3) 1.1205(3)
N4 N 0.5819(7) 0.5153(4) 1.2664(4)
H7 H 0.5572 0.4825 1.3168
C5 C 0.5703(8) 0.6134(5) 1.2582(4)
H8 H 0.5366 0.6570 1.3054
C6 C 0.6171(8) 0.6333(5) 1.1692(4)
H9 H 0.6213 0.6950 1.1431
C7 C 0.6373(7) 0.4794(4) 1.1841(4)
C8 C 0.6630(9) 0.3745(5) 1.1659(5)
H10 H 0.5795 0.3542 1.1157
H11 H 0.7886 0.3627 1.1470
H12 H 0.6374 0.3389 1.2232
O1 O 0.5265(7) 0.1121(4) 0.9184(3)
H13 H 0.4268 0.1208 0.9447
C9 C 0.6706(10) 0.1219(6) 0.9855(5)
H14 H 0.7868 0.1266 0.9529
H15 H 0.6728 0.0666 1.0269
H16 H 0.6514 0.1791 1.0228
O1 O 0.4735(7) 0.6121(4) 0.5816(3)
H13 H 0.5732 0.6208 0.5553
C9 C 0.3294(10) 0.6219(6) 0.5145(5)
H14 H 0.2132 0.6266 0.5471
H15 H 0.3272 0.5666 0.4731
H16 H 0.3486 0.6791 0.4772
O1 O 0.4735(7) 0.8879(4) 0.0816(3)
H13 H 0.5732 0.8792 0.0553
C9 C 0.3294(10) 0.8781(6) 0.0145(5)
H14 H 0.2132 0.8734 0.0471
H15 H 0.3272 0.9334 -0.0269
H16 H 0.3486 0.8209 -0.0228
O1 O 0.5265(7) 0.3879(4) 0.4184(3)
H13 H 0.4268 0.3792 0.4447
C9 C 0.6706(10) 0.3781(6) 0.4855(5)
H14 H 0.7868 0.3734 0.4529
H15 H 0.6728 0.4334 0.5269
H16 H 0.6514 0.3209 0.5228
O2 O 0.8188(7) 0.6225(4) 0.4718(4)
O3 O 0.9598(7) 0.7320(3) 0.3955(3)
O4 O 0.7054(7) 0.7644(4) 0.4646(4)
N5 N 0.8303(7) 0.7064(4) 0.4455(4)
O2 O 0.1812(7) 0.1225(4) 0.0282(4)
O3 O 0.0402(7) 0.2320(3) 0.1045(3)
O4 O 0.2946(7) 0.2644(4) 0.0354(4)
N5 N 0.1697(7) 0.2064(4) 0.0545(4)
O2 O 0.1812(7) 0.3775(4) 0.5282(4)
O3 O 0.0402(7) 0.2680(3) 0.6045(3)
O4 O 0.2946(7) 0.2356(4) 0.5354(4)
N5 N 0.1697(7) 0.2936(4) 0.5545(4)
O2 O 0.8188(7) 0.8775(4) 0.9718(4)
O3 O 0.9598(7) 0.7680(3) 0.8955(3)
O4 O 0.7054(7) 0.7356(4) 0.9646(4)
N5 N 0.8303(7) 0.7936(4) 0.9455(4)

#END
