./ADAJEV_from_POSCAR.cif_generated_by_CrystalShift
_symmetry_cell_setting triclinic
_symmetry_space_group_name_H-M 'P 1'
loop_
_symmetry_equiv_pos_site_id
_symmetry_equiv_pos_as_xyz
1 x,y,z
_cell_length_a 29.875000
_cell_length_b 6.027000
_cell_length_c 7.256000
_cell_angle_alpha 90.000000
_cell_angle_beta 90.000000
_cell_angle_gamma 90.000000
_cell_volume 1306.490871
loop_
_atom_site_label
_atom_site_type_symbol
_atom_site_fract_x
_atom_site_fract_y
_atom_site_fract_z
H1 H 0.711500 0.201600 0.489800
H2 H 0.733700 0.365800 0.630400
H3 H 0.586400 0.595200 0.621900
H4 H 0.575400 -0.109100 0.372300
H5 H 0.144700 0.470400 -0.047200
H6 H 0.644700 0.029600 0.452800
H7 H 0.075400 0.609100 -0.127700
H8 H 0.500000 0.626400 0.452500
H9 H 0.500000 0.582600 0.665600
H10 H 0.288500 0.201600 0.489800
H11 H 0.086400 -0.095200 0.121900
H12 H 0.297000 0.173000 0.701700
H13 H 0.266300 0.365800 0.630400
H14 H 0.233700 0.134200 0.130400
H15 H 0.203000 0.327000 0.201700
H16 H 0.211500 0.298400 -0.010200
H17 H 0.413600 0.595200 0.621900
H18 H 0.000000 -0.082600 0.165600
H19 H 0.000000 -0.126400 -0.047500
H20 H 0.424600 -0.109100 0.372300
H21 H 0.355300 0.029600 0.452800
H22 H 0.288500 0.798400 -0.010200
H23 H -0.144700 0.470400 -0.047200
H24 H 0.297000 0.827000 0.201700
H25 H -0.075400 0.609100 -0.127700
H26 H 0.266300 0.634200 0.130400
H27 H 0.413600 0.404800 0.121900
H28 H 0.424600 1.109100 -0.127700
H29 H -0.086400 -0.095200 0.121900
H30 H 0.355300 0.970400 -0.047200
H31 H 0.500000 0.373600 -0.047500
H32 H -0.233700 0.134200 0.130400
H33 H -0.203000 0.327000 0.201700
H34 H -0.211500 0.298400 -0.010200
H35 H 0.500000 0.417400 0.165600
H36 H 0.711500 0.798400 -0.010200
H37 H 0.703000 0.827000 0.201700
H38 H 0.733700 0.634200 0.130400
H39 H 1.144700 0.470400 -0.047200
H40 H 0.586400 0.404800 0.121900
H41 H 1.075400 0.609100 -0.127700
H42 H 0.575400 1.109100 -0.127700
H43 H 0.644700 0.970400 -0.047200
H44 H 1.211500 0.701600 0.489800
H45 H 1.086400 -0.095200 0.121900
H46 H 1.203000 0.673000 0.701700
H47 H 1.233700 0.865800 0.630400
H48 H 1.233700 0.134200 0.130400
H49 H 1.203000 0.327000 0.201700
H50 H 1.211500 0.298400 -0.010200
H51 H 1.086400 1.095200 0.621900
H52 H 1.000000 -0.082600 0.165600
H53 H 1.000000 -0.126400 -0.047500
H54 H 1.075400 0.390900 0.372300
H55 H 1.144700 0.529600 0.452800
H56 H 1.000000 1.126400 0.452500
H57 H 0.855300 0.470400 -0.047200
H58 H 1.000000 1.082600 0.665600
H59 H 0.924600 0.609100 -0.127700
H60 H 0.788500 0.701600 0.489800
H61 H 0.797000 0.673000 0.701700
H62 H 0.766300 0.865800 0.630400
H63 H 0.913600 -0.095200 0.121900
H64 H 0.913600 1.095200 0.621900
H65 H 0.924600 0.390900 0.372300
H66 H 0.766300 0.134200 0.130400
H67 H 0.797000 0.327000 0.201700
H68 H 0.788500 0.298400 -0.010200
H69 H 0.855300 0.529600 0.452800
H70 H 0.211500 0.701600 0.489800
H71 H 0.203000 0.673000 0.701700
H72 H 0.233700 0.865800 0.630400
H73 H -0.144700 0.529600 0.452800
H74 H 0.086400 1.095200 0.621900
H75 H -0.075400 0.390900 0.372300
H76 H 0.075400 0.390900 0.372300
H77 H 0.144700 0.529600 0.452800
H78 H 0.000000 1.126400 0.452500
H79 H -0.086400 1.095200 0.621900
H80 H 0.000000 1.082600 0.665600
H81 H -0.211500 0.701600 0.489800
H82 H -0.233700 0.865800 0.630400
H83 H -0.203000 0.673000 0.701700
H84 H 0.703000 0.173000 0.701700
C85 C 0.000000 1.011100 0.545800
C86 C -0.167320 0.928500 0.591100
C87 C -0.083960 0.953500 0.572100
C88 C 0.707510 0.278600 0.604500
C89 C 0.123080 0.827100 0.545600
C90 C 0.119220 0.615500 0.470800
C91 C -0.041970 0.872800 0.526200
C92 C 0.077760 0.532000 0.423200
C93 C -0.039870 0.658700 0.451300
C94 C 0.039870 0.658700 0.451300
C95 C 0.041970 0.872800 0.526200
C96 C 0.083960 0.953500 0.572100
C97 C -0.077760 0.532000 0.423200
C98 C 0.167320 0.928500 0.591100
C99 C 0.207510 0.778600 0.604500
C100 C -0.119220 0.615500 0.470800
C101 C -0.123080 0.827100 0.545600
C102 C 0.667320 0.428500 0.591100
C103 C 0.123080 0.172900 0.045600
C104 C 0.583960 0.453500 0.572100
C105 C 0.876920 0.827100 0.545600
C106 C 0.880780 0.615500 0.470800
C107 C 0.541970 0.372800 0.526200
C108 C 0.922240 0.532000 0.423200
C109 C 0.792490 0.221400 0.104500
C110 C 0.960130 0.658700 0.451300
C111 C 0.958030 0.872800 0.526200
C112 C 0.916040 0.953500 0.572100
C113 C 0.832680 0.071500 0.091100
C114 C 0.832680 0.928500 0.591100
C115 C 0.792490 0.778600 0.604500
C116 C 0.916040 0.046500 0.072100
C117 C 0.958030 0.127200 0.026200
C118 C 0.960130 0.341300 -0.048700
C119 C 1.000000 1.011100 0.545800
C120 C 0.922240 0.468000 -0.076800
C121 C 0.880780 0.384500 -0.029200
C122 C 0.539870 0.158700 0.451300
C123 C 1.123080 0.827100 0.545600
C124 C 1.119220 0.615500 0.470800
C125 C 0.876920 0.172900 0.045600
C126 C 1.077760 0.532000 0.423200
C127 C 0.119220 0.384500 -0.029200
C128 C 1.039870 0.658700 0.451300
C129 C 1.041970 0.872800 0.526200
C130 C 1.083960 0.953500 0.572100
C131 C 1.000000 -0.011100 0.045800
C132 C 1.167320 0.928500 0.591100
C133 C 1.207510 0.778600 0.604500
C134 C 1.207510 0.221400 0.104500
C135 C 1.167320 0.071500 0.091100
C136 C 1.083960 0.046500 0.072100
C137 C 0.577760 0.032000 0.423200
C138 C 0.077760 0.468000 -0.076800
C139 C 0.623080 0.672900 0.045600
C140 C 0.619220 0.884500 -0.029200
C141 C 1.041970 0.127200 0.026200
C142 C 0.577760 0.968000 -0.076800
C143 C 1.039870 0.341300 -0.048700
C144 C 0.539870 0.841300 -0.048700
C145 C 0.541970 0.627200 0.026200
C146 C 0.583960 0.546500 0.072100
C147 C 1.077760 0.468000 -0.076800
C148 C 0.667320 0.571500 0.091100
C149 C 0.707510 0.721400 0.104500
C150 C 1.119220 0.384500 -0.029200
C151 C 1.123080 0.172900 0.045600
C152 C 0.619220 0.115500 0.470800
C153 C 0.500000 0.488900 0.045800
C154 C 0.623080 0.327100 0.545600
C155 C -0.207510 0.221400 0.104500
C156 C 0.039870 0.341300 -0.048700
C157 C 0.376920 0.672900 0.045600
C158 C 0.380780 0.884500 -0.029200
C159 C -0.167320 0.071500 0.091100
C160 C 0.422240 0.968000 -0.076800
C161 C -0.083960 0.046500 0.072100
C162 C 0.460130 0.841300 -0.048700
C163 C 0.458030 0.627200 0.026200
C164 C 0.416040 0.546500 0.072100
C165 C -0.041970 0.127200 0.026200
C166 C 0.332680 0.571500 0.091100
C167 C 0.292490 0.721400 0.104500
C168 C -0.039870 0.341300 -0.048700
C169 C -0.077760 0.468000 -0.076800
C170 C -0.119220 0.384500 -0.029200
C171 C 0.041970 0.127200 0.026200
C172 C 0.500000 0.511100 0.545800
C173 C 0.376920 0.327100 0.545600
C174 C 0.380780 0.115500 0.470800
C175 C -0.123080 0.172900 0.045600
C176 C 0.422240 0.032000 0.423200
C177 C 0.083960 0.046500 0.072100
C178 C 0.460130 0.158700 0.451300
C179 C 0.458030 0.372800 0.526200
C180 C 0.416040 0.453500 0.572100
C181 C 0.000000 -0.011100 0.045800
C182 C 0.332680 0.428500 0.591100
C183 C 0.292490 0.278600 0.604500
C184 C 0.207510 0.221400 0.104500
C185 C 0.167320 0.071500 0.091100
C186 C -0.207510 0.778600 0.604500
O187 O 0.500000 0.061000 0.397500
O188 O 0.328860 0.626600 0.616000
O189 O 0.328860 0.373400 0.116000
O190 O 0.671140 0.626600 0.616000
O191 O 1.171140 -0.126600 0.116000
O192 O 1.000000 0.439000 -0.102500
O193 O 0.500000 0.939000 -0.102500
O194 O 0.671140 0.373400 0.116000
O195 O 0.828860 -0.126600 0.116000
O196 O 1.171140 1.126600 0.616000
O197 O -0.171140 1.126600 0.616000
O198 O 1.000000 0.561000 0.397500
O199 O 0.828860 1.126600 0.616000
O200 O 0.000000 0.561000 0.397500
O201 O 0.171140 1.126600 0.616000
O202 O 0.000000 0.439000 -0.102500
O203 O -0.171140 -0.126600 0.116000
O204 O 0.171140 -0.126600 0.116000

#END
