
#######################################################################
#
#                 Cambridge Crystallographic Data Centre
#                                CCDC 
#
#######################################################################
#
# If this CIF has been generated from an entry in the Cambridge 
# Structural Database, then it will include bibliographic, chemical, 
# crystal, experimental, refinement or atomic coordinate data resulting 
# from the CCDC's data processing and validation procedures.
#
#######################################################################

data_ADAJUK01
_symmetry_cell_setting           triclinic
_symmetry_space_group_name_H-M   'P -1'
_symmetry_Int_Tables_number      2
_space_group_name_Hall           '-P 1'
loop_
_symmetry_equiv_pos_site_id
_symmetry_equiv_pos_as_xyz
1 x,y,z
2 -x,-y,-z
_cell_length_a                   9.345(3)
_cell_length_b                   10.092(2)
_cell_length_c                   12.695(2)
_cell_angle_alpha                88.11(2)
_cell_angle_beta                 69.93(2)
_cell_angle_gamma                83.13(3)
_cell_volume                     1116.44
loop_
_atom_site_label
_atom_site_type_symbol
_atom_site_fract_x
_atom_site_fract_y
_atom_site_fract_z
P1 P 0.20657(6) 0.05455(5) 0.39924(5)
O1 O 0.29816(15) 0.15550(14) 0.43343(11)
O2 O 0.29921(16) 0.01923(13) 0.27379(11)
O3 O 0.19149(17) -0.06480(15) 0.47263(13)
O4 O 0.05674(18) 0.13179(16) 0.40121(14)
C1 C 0.4533(2) 0.3336(2) 0.36145(17)
C2 C 0.5684(2) 0.1001(2) 0.33788(16)
C3 C 0.4428(2) 0.1964(2) 0.37413(16)
C4 C 0.7122(2) 0.1432(2) 0.28812(17)
H1 H 0.7980 0.0802 0.2634
C5 C 0.7309(2) 0.2771(2) 0.27449(17)
C6 C 0.5552(2) -0.0474(2) 0.35407(18)
H2 H 0.4683 -0.0593 0.4211
H3 H 0.6465 -0.0899 0.3668
C7 C 0.6485(3) -0.2177(2) 0.19832(19)
H4 H 0.7353 -0.2386 0.2184
C8 C 0.4078(2) -0.0900(2) 0.22450(17)
C9 C 0.5358(2) -0.1182(2) 0.25726(17)
C10 C 0.6014(2) 0.3687(2) 0.31048(18)
H5 H 0.6136 0.4589 0.3001
C11 C 0.3129(3) 0.4396(2) 0.3976(2)
C12 C 0.3836(3) -0.1591(2) 0.13975(19)
C13 C 0.5019(3) -0.2564(2) 0.0847(2)
H6 H 0.4913 -0.3045 0.0270
C14 C 0.8886(3) 0.3213(3) 0.2232(2)
H7 H 0.9253 0.3055 0.1437
H8 H 0.9573 0.2718 0.2556
H9 H 0.8837 0.4148 0.2377
C15 C 0.6344(3) -0.2862(2) 0.1105(2)
C16 C 0.3611(3) 0.5813(2) 0.3893(3)
H10 H 0.4201 0.5887 0.4372
H11 H 0.2713 0.6453 0.4123
H12 H 0.4221 0.5981 0.3132
C17 C 0.2375(3) -0.1315(3) 0.1089(2)
C18 C 0.2226(3) 0.4315(3) 0.3179(3)
H13 H 0.2883 0.4433 0.2422
H14 H 0.1373 0.5003 0.3370
H15 H 0.1855 0.3458 0.3247
C19 C 0.2114(3) 0.4221(3) 0.5196(2)
H16 H 0.1564 0.3463 0.5249
H17 H 0.1398 0.5007 0.5447
H18 H 0.2744 0.4084 0.5658
C20 C 0.2404(5) -0.2259(4) 0.0161(4)
H19 H 0.1495 -0.2040 -0.0030
H20 H 0.2441 -0.3163 0.0420
H21 H 0.3292 -0.2167 -0.0488
C21 C 0.2216(4) 0.0106(3) 0.0665(3)
H22 H 0.1332 0.0245 0.0436
H23 H 0.3117 0.0242 0.0039
H24 H 0.2099 0.0726 0.1255
C22 C 0.7607(4) -0.3909(3) 0.0451(3)
H25 H 0.7289 -0.4780 0.0652
H26 H 0.8518 -0.3836 0.0623
H27 H 0.7815 -0.3776 -0.0338
C23 C 0.0963(4) -0.1548(3) 0.2107(3)
H28 H 0.0846 -0.0917 0.2689
H29 H 0.1092 -0.2438 0.2377
H30 H 0.0066 -0.1433 0.1891
H31 H -0.039(4) 0.107(3) 0.446(3)
P1 P 0.79343(6) 0.94545(5) 0.60076(5)
O1 O 0.70184(15) 0.84450(14) 0.56657(11)
O2 O 0.70079(16) 0.98077(13) 0.72621(11)
O3 O 0.80851(17) 1.06480(15) 0.52737(13)
O4 O 0.94326(18) 0.86821(16) 0.59879(14)
C1 C 0.5467(2) 0.6664(2) 0.63855(17)
C2 C 0.4316(2) 0.8999(2) 0.66212(16)
C3 C 0.5572(2) 0.8036(2) 0.62587(16)
C4 C 0.2878(2) 0.8568(2) 0.71188(17)
H1 H 0.2020 0.9198 0.7366
C5 C 0.2691(2) 0.7229(2) 0.72551(17)
C6 C 0.4448(2) 1.0474(2) 0.64593(18)
H2 H 0.5317 1.0593 0.5789
H3 H 0.3535 1.0899 0.6332
C7 C 0.3515(3) 1.2177(2) 0.80168(19)
H4 H 0.2647 1.2386 0.7816
C8 C 0.5922(2) 1.0900(2) 0.77550(17)
C9 C 0.4642(2) 1.1182(2) 0.74274(17)
C10 C 0.3986(2) 0.6313(2) 0.68952(18)
H5 H 0.3864 0.5411 0.6999
C11 C 0.6871(3) 0.5604(2) 0.6024(2)
C12 C 0.6164(3) 1.1591(2) 0.86025(19)
C13 C 0.4981(3) 1.2564(2) 0.9153(2)
H6 H 0.5087 1.3045 0.9730
C14 C 0.1114(3) 0.6787(3) 0.7768(2)
H7 H 0.0747 0.6945 0.8563
H8 H 0.0427 0.7282 0.7444
H9 H 0.1163 0.5852 0.7623
C15 C 0.3656(3) 1.2862(2) 0.8895(2)
C16 C 0.6389(3) 0.4187(2) 0.6107(3)
H10 H 0.5799 0.4113 0.5628
H11 H 0.7287 0.3547 0.5877
H12 H 0.5779 0.4019 0.6868
C17 C 0.7625(3) 1.1315(3) 0.8911(2)
C18 C 0.7774(3) 0.5685(3) 0.6821(3)
H13 H 0.7117 0.5567 0.7578
H14 H 0.8627 0.4997 0.6630
H15 H 0.8145 0.6542 0.6753
C19 C 0.7886(3) 0.5779(3) 0.4804(2)
H16 H 0.8436 0.6537 0.4751
H17 H 0.8602 0.4993 0.4553
H18 H 0.7256 0.5916 0.4342
C20 C 0.7596(5) 1.2259(4) 0.9839(4)
H19 H 0.8505 1.2040 1.0030
H20 H 0.7559 1.3163 0.9580
H21 H 0.6708 1.2167 1.0488
C21 C 0.7784(4) 0.9894(3) 0.9335(3)
H22 H 0.8668 0.9755 0.9564
H23 H 0.6883 0.9758 0.9961
H24 H 0.7901 0.9274 0.8745
C22 C 0.2393(4) 1.3909(3) 0.9549(3)
H25 H 0.2711 1.4780 0.9348
H26 H 0.1482 1.3836 0.9377
H27 H 0.2185 1.3776 1.0338
C23 C 0.9037(4) 1.1548(3) 0.7893(3)
H28 H 0.9154 1.0917 0.7311
H29 H 0.8908 1.2438 0.7623
H30 H 0.9934 1.1433 0.8109
H31 H 1.039(4) 0.893(3) 0.554(3)

#END
