
#######################################################################
#
#                 Cambridge Crystallographic Data Centre
#                                CCDC 
#
#######################################################################
#
# If this CIF has been generated from an entry in the Cambridge 
# Structural Database, then it will include bibliographic, chemical, 
# crystal, experimental, refinement or atomic coordinate data resulting 
# from the CCDC's data processing and validation procedures.
#
#######################################################################

data_ADAJUK
_symmetry_cell_setting           monoclinic
_symmetry_space_group_name_H-M   'P 21/c'
_symmetry_Int_Tables_number      14
_space_group_name_Hall           '-P 2ybc'
loop_
_symmetry_equiv_pos_site_id
_symmetry_equiv_pos_as_xyz
1 x,y,z
2 x,1/2-y,1/2+z
3 -x,-y,-z
4 -x,1/2+y,1/2-z
_cell_length_a                   15.271(3)
_cell_length_b                   9.390(2)
_cell_length_c                   17.055(3)
_cell_angle_alpha                90
_cell_angle_beta                 112.80(2)
_cell_angle_gamma                90
_cell_volume                     2254.51
loop_
_atom_site_label
_atom_site_type_symbol
_atom_site_fract_x
_atom_site_fract_y
_atom_site_fract_z
P1 P 0.13900(7) 1.01826(12) 0.51485(7)
O1 O 0.17590(17) 0.9210(3) 0.45991(15)
O2 O 0.06143(18) 1.1148(3) 0.46469(17)
O3 O 0.11321(19) 0.9180(3) 0.57351(16)
O4 O 0.22968(17) 1.0990(3) 0.57627(16)
C1 C 0.4001(3) 1.0726(4) 0.6375(3)
C2 C 0.1814(3) 0.9681(5) 0.2192(3)
C3 C 0.2317(3) 1.1962(4) 0.4148(3)
H1 H 0.2435 1.2768 0.3847
H2 H 0.1801 1.2218 0.4319
C4 C 0.3185(3) 1.1119(4) 0.5681(3)
C5 C 0.1448(3) 0.8238(5) 0.3222(3)
C6 C 0.2018(3) 1.0696(5) 0.3553(3)
C7 C 0.4081(3) 1.1909(5) 0.4896(3)
H3 H 0.4106 1.2299 0.4404
C8 C 0.3199(3) 1.1666(4) 0.4933(3)
C9 C 0.3505(3) 0.8531(5) 0.6930(3)
H4 H 0.2872 0.8658 0.6512
H5 H 0.3478 0.8077 0.7424
H6 H 0.3861 0.7947 0.6697
C10 C 0.2048(3) 1.0799(5) 0.2749(3)
H7 H 0.2234 1.1655 0.2586
C11 C 0.3989(3) 0.9986(5) 0.7178(3)
C12 C 0.4918(3) 1.1587(5) 0.5565(3)
C13 C 0.3467(4) 1.0909(6) 0.7598(3)
H8 H 0.3760 1.1831 0.7725
H9 H 0.3498 1.0463 0.8115
H10 H 0.2815 1.1012 0.7218
C14 C 0.1114(3) 0.6826(5) 0.3466(3)
C15 C 0.4863(3) 1.0972(5) 0.6285(3)
H11 H 0.5424 1.0712 0.6729
C16 C 0.1721(2) 0.9419(5) 0.3765(2)
C17 C 0.1933(3) 0.6118(5) 0.4208(3)
H12 H 0.2428 0.5850 0.4021
H13 H 0.1700 0.5286 0.4392
H14 H 0.2181 0.6778 0.4672
C18 C 0.4995(3) 0.9726(6) 0.7848(3)
H15 H 0.5328 0.9088 0.7621
H16 H 0.4953 0.9313 0.8347
H17 H 0.5330 1.0615 0.7993
C19 C 0.1509(3) 0.8418(5) 0.2435(3)
H18 H 0.1339 0.7661 0.2053
C20 C 0.0786(4) 0.5756(6) 0.2725(3)
H19 H 0.1303 0.5560 0.2552
H20 H 0.0264 0.6153 0.2255
H21 H 0.0588 0.4889 0.2905
C21 C 0.5874(3) 1.1898(6) 0.5531(3)
H22 H 0.5832 1.2750 0.5207
H23 H 0.6058 1.1115 0.5266
H24 H 0.6339 1.2026 0.6098
C22 C 0.1881(4) 0.9814(6) 0.1335(3)
H25 H 0.1759 1.0782 0.1142
H26 H 0.1420 0.9200 0.0934
H27 H 0.2506 0.9545 0.1383
C23 C 0.0259(3) 0.7076(6) 0.3724(3)
H28 H 0.0015 0.6175 0.3813
H29 H -0.0229 0.7586 0.3280
H30 H 0.0462 0.7622 0.4240
H31 H 0.031(5) 0.892(8) 0.555(4)
P1 P 0.13900(7) 0.48174(12) 1.01485(7)
O1 O 0.17590(17) 0.5790(3) 0.95991(15)
O2 O 0.06143(18) 0.3852(3) 0.96469(17)
O3 O 0.11321(19) 0.5820(3) 1.07351(16)
O4 O 0.22968(17) 0.4010(3) 1.07627(16)
C1 C 0.4001(3) 0.4274(4) 1.1375(3)
C2 C 0.1814(3) 0.5319(5) 0.7192(3)
C3 C 0.2317(3) 0.3038(4) 0.9148(3)
H1 H 0.2435 0.2232 0.8847
H2 H 0.1801 0.2782 0.9319
C4 C 0.3185(3) 0.3881(4) 1.0681(3)
C5 C 0.1448(3) 0.6762(5) 0.8222(3)
C6 C 0.2018(3) 0.4304(5) 0.8553(3)
C7 C 0.4081(3) 0.3091(5) 0.9896(3)
H3 H 0.4106 0.2701 0.9404
C8 C 0.3199(3) 0.3334(4) 0.9933(3)
C9 C 0.3505(3) 0.6469(5) 1.1930(3)
H4 H 0.2872 0.6342 1.1512
H5 H 0.3478 0.6923 1.2424
H6 H 0.3861 0.7053 1.1697
C10 C 0.2048(3) 0.4201(5) 0.7749(3)
H7 H 0.2234 0.3345 0.7586
C11 C 0.3989(3) 0.5014(5) 1.2178(3)
C12 C 0.4918(3) 0.3413(5) 1.0565(3)
C13 C 0.3467(4) 0.4091(6) 1.2598(3)
H8 H 0.3760 0.3169 1.2725
H9 H 0.3498 0.4537 1.3115
H10 H 0.2815 0.3988 1.2218
C14 C 0.1114(3) 0.8174(5) 0.8466(3)
C15 C 0.4863(3) 0.4028(5) 1.1285(3)
H11 H 0.5424 0.4288 1.1729
C16 C 0.1721(2) 0.5581(5) 0.8765(2)
C17 C 0.1933(3) 0.8882(5) 0.9208(3)
H12 H 0.2428 0.9150 0.9021
H13 H 0.1700 0.9714 0.9392
H14 H 0.2181 0.8222 0.9672
C18 C 0.4995(3) 0.5274(6) 1.2848(3)
H15 H 0.5328 0.5912 1.2621
H16 H 0.4953 0.5687 1.3347
H17 H 0.5330 0.4385 1.2993
C19 C 0.1509(3) 0.6582(5) 0.7435(3)
H18 H 0.1339 0.7339 0.7053
C20 C 0.0786(4) 0.9244(6) 0.7725(3)
H19 H 0.1303 0.9440 0.7552
H20 H 0.0264 0.8847 0.7255
H21 H 0.0588 1.0111 0.7905
C21 C 0.5874(3) 0.3102(6) 1.0531(3)
H22 H 0.5832 0.2250 1.0207
H23 H 0.6058 0.3885 1.0266
H24 H 0.6339 0.2974 1.1098
C22 C 0.1881(4) 0.5186(6) 0.6335(3)
H25 H 0.1759 0.4218 0.6142
H26 H 0.1420 0.5800 0.5934
H27 H 0.2506 0.5455 0.6383
C23 C 0.0259(3) 0.7924(6) 0.8724(3)
H28 H 0.0015 0.8825 0.8813
H29 H -0.0229 0.7414 0.8280
H30 H 0.0462 0.7378 0.9240
H31 H 0.031(5) 0.608(8) 1.055(4)
P1 P 0.86100(7) -0.01826(12) 0.48515(7)
O1 O 0.82410(17) 0.0790(3) 0.54009(15)
O2 O 0.93857(18) -0.1148(3) 0.53531(17)
O3 O 0.88679(19) 0.0820(3) 0.42649(16)
O4 O 0.77032(17) -0.0990(3) 0.42373(16)
C1 C 0.5999(3) -0.0726(4) 0.3625(3)
C2 C 0.8186(3) 0.0319(5) 0.7808(3)
C3 C 0.7683(3) -0.1962(4) 0.5852(3)
H1 H 0.7565 -0.2768 0.6153
H2 H 0.8199 -0.2218 0.5681
C4 C 0.6815(3) -0.1119(4) 0.4319(3)
C5 C 0.8552(3) 0.1762(5) 0.6778(3)
C6 C 0.7982(3) -0.0696(5) 0.6447(3)
C7 C 0.5919(3) -0.1909(5) 0.5104(3)
H3 H 0.5894 -0.2299 0.5596
C8 C 0.6801(3) -0.1666(4) 0.5067(3)
C9 C 0.6495(3) 0.1469(5) 0.3070(3)
H4 H 0.7128 0.1342 0.3488
H5 H 0.6522 0.1923 0.2576
H6 H 0.6139 0.2053 0.3303
C10 C 0.7952(3) -0.0799(5) 0.7251(3)
H7 H 0.7766 -0.1655 0.7414
C11 C 0.6011(3) 0.0014(5) 0.2822(3)
C12 C 0.5082(3) -0.1587(5) 0.4435(3)
C13 C 0.6533(4) -0.0909(6) 0.2402(3)
H8 H 0.6240 -0.1831 0.2275
H9 H 0.6502 -0.0463 0.1885
H10 H 0.7185 -0.1012 0.2782
C14 C 0.8886(3) 0.3174(5) 0.6534(3)
C15 C 0.5137(3) -0.0972(5) 0.3715(3)
H11 H 0.4576 -0.0712 0.3271
C16 C 0.8279(2) 0.0581(5) 0.6235(2)
C17 C 0.8067(3) 0.3882(5) 0.5792(3)
H12 H 0.7572 0.4150 0.5979
H13 H 0.8300 0.4714 0.5608
H14 H 0.7819 0.3222 0.5328
C18 C 0.5005(3) 0.0274(6) 0.2152(3)
H15 H 0.4672 0.0912 0.2379
H16 H 0.5047 0.0687 0.1653
H17 H 0.4670 -0.0615 0.2007
C19 C 0.8491(3) 0.1582(5) 0.7565(3)
H18 H 0.8661 0.2339 0.7947
C20 C 0.9214(4) 0.4244(6) 0.7275(3)
H19 H 0.8697 0.4440 0.7448
H20 H 0.9736 0.3847 0.7745
H21 H 0.9412 0.5111 0.7095
C21 C 0.4126(3) -0.1898(6) 0.4469(3)
H22 H 0.4168 -0.2750 0.4793
H23 H 0.3942 -0.1115 0.4734
H24 H 0.3661 -0.2026 0.3902
C22 C 0.8119(4) 0.0186(6) 0.8665(3)
H25 H 0.8241 -0.0782 0.8858
H26 H 0.8580 0.0800 0.9066
H27 H 0.7494 0.0455 0.8617
C23 C 0.9741(3) 0.2924(6) 0.6276(3)
H28 H 0.9985 0.3825 0.6187
H29 H 1.0229 0.2414 0.6720
H30 H 0.9538 0.2378 0.5760
H31 H 0.969(5) 0.108(8) 0.445(4)
P1 P 0.86100(7) 0.51826(12) -0.01485(7)
O1 O 0.82410(17) 0.4210(3) 0.04009(15)
O2 O 0.93857(18) 0.6148(3) 0.03531(17)
O3 O 0.88679(19) 0.4180(3) -0.07351(16)
O4 O 0.77032(17) 0.5990(3) -0.07627(16)
C1 C 0.5999(3) 0.5726(4) -0.1375(3)
C2 C 0.8186(3) 0.4681(5) 0.2808(3)
C3 C 0.7683(3) 0.6962(4) 0.0852(3)
H1 H 0.7565 0.7768 0.1153
H2 H 0.8199 0.7218 0.0681
C4 C 0.6815(3) 0.6119(4) -0.0681(3)
C5 C 0.8552(3) 0.3238(5) 0.1778(3)
C6 C 0.7982(3) 0.5696(5) 0.1447(3)
C7 C 0.5919(3) 0.6909(5) 0.0104(3)
H3 H 0.5894 0.7299 0.0596
C8 C 0.6801(3) 0.6666(4) 0.0067(3)
C9 C 0.6495(3) 0.3531(5) -0.1930(3)
H4 H 0.7128 0.3658 -0.1512
H5 H 0.6522 0.3077 -0.2424
H6 H 0.6139 0.2947 -0.1697
C10 C 0.7952(3) 0.5799(5) 0.2251(3)
H7 H 0.7766 0.6655 0.2414
C11 C 0.6011(3) 0.4986(5) -0.2178(3)
C12 C 0.5082(3) 0.6587(5) -0.0565(3)
C13 C 0.6533(4) 0.5909(6) -0.2598(3)
H8 H 0.6240 0.6831 -0.2725
H9 H 0.6502 0.5463 -0.3115
H10 H 0.7185 0.6012 -0.2218
C14 C 0.8886(3) 0.1826(5) 0.1534(3)
C15 C 0.5137(3) 0.5972(5) -0.1285(3)
H11 H 0.4576 0.5712 -0.1729
C16 C 0.8279(2) 0.4419(5) 0.1235(2)
C17 C 0.8067(3) 0.1118(5) 0.0792(3)
H12 H 0.7572 0.0850 0.0979
H13 H 0.8300 0.0286 0.0608
H14 H 0.7819 0.1778 0.0328
C18 C 0.5005(3) 0.4726(6) -0.2848(3)
H15 H 0.4672 0.4088 -0.2621
H16 H 0.5047 0.4313 -0.3347
H17 H 0.4670 0.5615 -0.2993
C19 C 0.8491(3) 0.3418(5) 0.2565(3)
H18 H 0.8661 0.2661 0.2947
C20 C 0.9214(4) 0.0756(6) 0.2275(3)
H19 H 0.8697 0.0560 0.2448
H20 H 0.9736 0.1153 0.2745
H21 H 0.9412 -0.0111 0.2095
C21 C 0.4126(3) 0.6898(6) -0.0531(3)
H22 H 0.4168 0.7750 -0.0207
H23 H 0.3942 0.6115 -0.0266
H24 H 0.3661 0.7026 -0.1098
C22 C 0.8119(4) 0.4814(6) 0.3665(3)
H25 H 0.8241 0.5782 0.3858
H26 H 0.8580 0.4200 0.4066
H27 H 0.7494 0.4545 0.3617
C23 C 0.9741(3) 0.2076(6) 0.1276(3)
H28 H 0.9985 0.1175 0.1187
H29 H 1.0229 0.2586 0.1720
H30 H 0.9538 0.2622 0.0760
H31 H 0.969(5) 0.392(8) -0.055(4)

#END
