
#######################################################################
#
#                 Cambridge Crystallographic Data Centre
#                                CCDC 
#
#######################################################################
#
# If this CIF has been generated from an entry in the Cambridge 
# Structural Database, then it will include bibliographic, chemical, 
# crystal, experimental, refinement or atomic coordinate data resulting 
# from the CCDC's data processing and validation procedures.
#
#######################################################################

data_ADAMAN02
_symmetry_cell_setting           tetragonal
_symmetry_space_group_name_H-M   'P -4 21 c'
_symmetry_Int_Tables_number      114
_space_group_name_Hall           'P -4 2n'
loop_
_symmetry_equiv_pos_site_id
_symmetry_equiv_pos_as_xyz
1 x,y,z
2 -y,x,-z
3 -x,-y,z
4 y,-x,-z
5 1/2-x,1/2+y,1/2-z
6 1/2+y,1/2+x,1/2+z
7 1/2+x,1/2-y,1/2-z
8 1/2-y,1/2-x,1/2+z
_cell_length_a                   6.600
_cell_length_b                   6.600
_cell_length_c                   8.810
_cell_angle_alpha                90
_cell_angle_beta                 90
_cell_angle_gamma                90
_cell_volume                     383.764
loop_
_atom_site_label
_atom_site_type_symbol
_atom_site_fract_x
_atom_site_fract_y
_atom_site_fract_z
C1 C -0.02960 0.18700 0.09900
C2 C 0.15800 0.21870 -0.00090
C3 C 0.00000 0.00000 0.20060
H1 H -0.05400 0.31700 0.16400
H2 H 0.14100 0.01700 0.26700
H3 H 0.29000 0.23700 0.07000
H4 H 0.12900 0.35400 -0.06400
C1A C -0.18700 -0.02960 -0.09900
C1B C 0.02960 -0.18700 0.09900
C1C C 0.18700 0.02960 -0.09900
C2A C -0.21870 0.15800 0.00090
C2B C -0.15800 -0.21870 -0.00090
C2C C 0.21870 -0.15800 0.00090
C3A C 0.00000 0.00000 -0.20060
H1A H -0.31700 -0.05400 -0.16400
H1B H 0.05400 -0.31700 0.16400
H1C H 0.31700 0.05400 -0.16400
H2A H -0.01700 0.14100 -0.26700
H2B H -0.14100 -0.01700 0.26700
H2C H 0.01700 -0.14100 -0.26700
H3A H -0.23700 0.29000 -0.07000
H3B H -0.29000 -0.23700 0.07000
H3C H 0.23700 -0.29000 -0.07000
H4A H -0.35400 0.12900 0.06400
H4B H -0.12900 -0.35400 -0.06400
H4C H 0.35400 -0.12900 0.06400
C1 C -0.02960 0.18700 1.09900
C2 C 0.15800 0.21870 0.99910
C3 C 0.00000 0.00000 1.20060
H1 H -0.05400 0.31700 1.16400
H2 H 0.14100 0.01700 1.26700
H3 H 0.29000 0.23700 1.07000
H4 H 0.12900 0.35400 0.93600
C1A C -0.18700 -0.02960 0.90100
C1B C 0.02960 -0.18700 1.09900
C1C C 0.18700 0.02960 0.90100
C2A C -0.21870 0.15800 1.00090
C2B C -0.15800 -0.21870 0.99910
C2C C 0.21870 -0.15800 1.00090
C3A C 0.00000 0.00000 0.79940
H1A H -0.31700 -0.05400 0.83600
H1B H 0.05400 -0.31700 1.16400
H1C H 0.31700 0.05400 0.83600
H2A H -0.01700 0.14100 0.73300
H2B H -0.14100 -0.01700 1.26700
H2C H 0.01700 -0.14100 0.73300
H3A H -0.23700 0.29000 0.93000
H3B H -0.29000 -0.23700 1.07000
H3C H 0.23700 -0.29000 0.93000
H4A H -0.35400 0.12900 1.06400
H4B H -0.12900 -0.35400 0.93600
H4C H 0.35400 -0.12900 1.06400
C1 C -0.02960 1.18700 0.09900
C2 C 0.15800 1.21870 -0.00090
C3 C 0.00000 1.00000 0.20060
H1 H -0.05400 1.31700 0.16400
H2 H 0.14100 1.01700 0.26700
H3 H 0.29000 1.23700 0.07000
H4 H 0.12900 1.35400 -0.06400
C1A C -0.18700 0.97040 -0.09900
C1B C 0.02960 0.81300 0.09900
C1C C 0.18700 1.02960 -0.09900
C2A C -0.21870 1.15800 0.00090
C2B C -0.15800 0.78130 -0.00090
C2C C 0.21870 0.84200 0.00090
C3A C 0.00000 1.00000 -0.20060
H1A H -0.31700 0.94600 -0.16400
H1B H 0.05400 0.68300 0.16400
H1C H 0.31700 1.05400 -0.16400
H2A H -0.01700 1.14100 -0.26700
H2B H -0.14100 0.98300 0.26700
H2C H 0.01700 0.85900 -0.26700
H3A H -0.23700 1.29000 -0.07000
H3B H -0.29000 0.76300 0.07000
H3C H 0.23700 0.71000 -0.07000
H4A H -0.35400 1.12900 0.06400
H4B H -0.12900 0.64600 -0.06400
H4C H 0.35400 0.87100 0.06400
C1 C -0.02960 1.18700 1.09900
C2 C 0.15800 1.21870 0.99910
C3 C 0.00000 1.00000 1.20060
H1 H -0.05400 1.31700 1.16400
H2 H 0.14100 1.01700 1.26700
H3 H 0.29000 1.23700 1.07000
H4 H 0.12900 1.35400 0.93600
C1A C -0.18700 0.97040 0.90100
C1B C 0.02960 0.81300 1.09900
C1C C 0.18700 1.02960 0.90100
C2A C -0.21870 1.15800 1.00090
C2B C -0.15800 0.78130 0.99910
C2C C 0.21870 0.84200 1.00090
C3A C 0.00000 1.00000 0.79940
H1A H -0.31700 0.94600 0.83600
H1B H 0.05400 0.68300 1.16400
H1C H 0.31700 1.05400 0.83600
H2A H -0.01700 1.14100 0.73300
H2B H -0.14100 0.98300 1.26700
H2C H 0.01700 0.85900 0.73300
H3A H -0.23700 1.29000 0.93000
H3B H -0.29000 0.76300 1.07000
H3C H 0.23700 0.71000 0.93000
H4A H -0.35400 1.12900 1.06400
H4B H -0.12900 0.64600 0.93600
H4C H 0.35400 0.87100 1.06400
C1 C 0.97040 0.18700 0.09900
C2 C 1.15800 0.21870 -0.00090
C3 C 1.00000 0.00000 0.20060
H1 H 0.94600 0.31700 0.16400
H2 H 1.14100 0.01700 0.26700
H3 H 1.29000 0.23700 0.07000
H4 H 1.12900 0.35400 -0.06400
C1A C 0.81300 -0.02960 -0.09900
C1B C 1.02960 -0.18700 0.09900
C1C C 1.18700 0.02960 -0.09900
C2A C 0.78130 0.15800 0.00090
C2B C 0.84200 -0.21870 -0.00090
C2C C 1.21870 -0.15800 0.00090
C3A C 1.00000 0.00000 -0.20060
H1A H 0.68300 -0.05400 -0.16400
H1B H 1.05400 -0.31700 0.16400
H1C H 1.31700 0.05400 -0.16400
H2A H 0.98300 0.14100 -0.26700
H2B H 0.85900 -0.01700 0.26700
H2C H 1.01700 -0.14100 -0.26700
H3A H 0.76300 0.29000 -0.07000
H3B H 0.71000 -0.23700 0.07000
H3C H 1.23700 -0.29000 -0.07000
H4A H 0.64600 0.12900 0.06400
H4B H 0.87100 -0.35400 -0.06400
H4C H 1.35400 -0.12900 0.06400
C1 C 0.97040 0.18700 1.09900
C2 C 1.15800 0.21870 0.99910
C3 C 1.00000 0.00000 1.20060
H1 H 0.94600 0.31700 1.16400
H2 H 1.14100 0.01700 1.26700
H3 H 1.29000 0.23700 1.07000
H4 H 1.12900 0.35400 0.93600
C1A C 0.81300 -0.02960 0.90100
C1B C 1.02960 -0.18700 1.09900
C1C C 1.18700 0.02960 0.90100
C2A C 0.78130 0.15800 1.00090
C2B C 0.84200 -0.21870 0.99910
C2C C 1.21870 -0.15800 1.00090
C3A C 1.00000 0.00000 0.79940
H1A H 0.68300 -0.05400 0.83600
H1B H 1.05400 -0.31700 1.16400
H1C H 1.31700 0.05400 0.83600
H2A H 0.98300 0.14100 0.73300
H2B H 0.85900 -0.01700 1.26700
H2C H 1.01700 -0.14100 0.73300
H3A H 0.76300 0.29000 0.93000
H3B H 0.71000 -0.23700 1.07000
H3C H 1.23700 -0.29000 0.93000
H4A H 0.64600 0.12900 1.06400
H4B H 0.87100 -0.35400 0.93600
H4C H 1.35400 -0.12900 1.06400
C1 C 0.97040 1.18700 0.09900
C2 C 1.15800 1.21870 -0.00090
C3 C 1.00000 1.00000 0.20060
H1 H 0.94600 1.31700 0.16400
H2 H 1.14100 1.01700 0.26700
H3 H 1.29000 1.23700 0.07000
H4 H 1.12900 1.35400 -0.06400
C1A C 0.81300 0.97040 -0.09900
C1B C 1.02960 0.81300 0.09900
C1C C 1.18700 1.02960 -0.09900
C2A C 0.78130 1.15800 0.00090
C2B C 0.84200 0.78130 -0.00090
C2C C 1.21870 0.84200 0.00090
C3A C 1.00000 1.00000 -0.20060
H1A H 0.68300 0.94600 -0.16400
H1B H 1.05400 0.68300 0.16400
H1C H 1.31700 1.05400 -0.16400
H2A H 0.98300 1.14100 -0.26700
H2B H 0.85900 0.98300 0.26700
H2C H 1.01700 0.85900 -0.26700
H3A H 0.76300 1.29000 -0.07000
H3B H 0.71000 0.76300 0.07000
H3C H 1.23700 0.71000 -0.07000
H4A H 0.64600 1.12900 0.06400
H4B H 0.87100 0.64600 -0.06400
H4C H 1.35400 0.87100 0.06400
C1 C 0.97040 1.18700 1.09900
C2 C 1.15800 1.21870 0.99910
C3 C 1.00000 1.00000 1.20060
H1 H 0.94600 1.31700 1.16400
H2 H 1.14100 1.01700 1.26700
H3 H 1.29000 1.23700 1.07000
H4 H 1.12900 1.35400 0.93600
C1A C 0.81300 0.97040 0.90100
C1B C 1.02960 0.81300 1.09900
C1C C 1.18700 1.02960 0.90100
C2A C 0.78130 1.15800 1.00090
C2B C 0.84200 0.78130 0.99910
C2C C 1.21870 0.84200 1.00090
C3A C 1.00000 1.00000 0.79940
H1A H 0.68300 0.94600 0.83600
H1B H 1.05400 0.68300 1.16400
H1C H 1.31700 1.05400 0.83600
H2A H 0.98300 1.14100 0.73300
H2B H 0.85900 0.98300 1.26700
H2C H 1.01700 0.85900 0.73300
H3A H 0.76300 1.29000 0.93000
H3B H 0.71000 0.76300 1.07000
H3C H 1.23700 0.71000 0.93000
H4A H 0.64600 1.12900 1.06400
H4B H 0.87100 0.64600 0.93600
H4C H 1.35400 0.87100 1.06400
C1 C 0.52960 0.68700 0.40100
C2 C 0.34200 0.71870 0.50090
C3 C 0.50000 0.50000 0.29940
H1 H 0.55400 0.81700 0.33600
H2 H 0.35900 0.51700 0.23300
H3 H 0.21000 0.73700 0.43000
H4 H 0.37100 0.85400 0.56400
C1A C 0.68700 0.47040 0.59900
C1B C 0.47040 0.31300 0.40100
C1C C 0.31300 0.52960 0.59900
C2A C 0.71870 0.65800 0.49910
C2B C 0.65800 0.28130 0.50090
C2C C 0.28130 0.34200 0.49910
C3A C 0.50000 0.50000 0.70060
H1A H 0.81700 0.44600 0.66400
H1B H 0.44600 0.18300 0.33600
H1C H 0.18300 0.55400 0.66400
H2A H 0.51700 0.64100 0.76700
H2B H 0.64100 0.48300 0.23300
H2C H 0.48300 0.35900 0.76700
H3A H 0.73700 0.79000 0.57000
H3B H 0.79000 0.26300 0.43000
H3C H 0.26300 0.21000 0.57000
H4A H 0.85400 0.62900 0.43600
H4B H 0.62900 0.14600 0.56400
H4C H 0.14600 0.37100 0.43600

#END
