./ADBPCU_from_POSCAR.cif_generated_by_CrystalShift
_symmetry_cell_setting triclinic
_symmetry_space_group_name_H-M 'P 1'
loop_
_symmetry_equiv_pos_site_id
_symmetry_equiv_pos_as_xyz
1 x,y,z
_cell_length_a 9.281000
_cell_length_b 11.050000
_cell_length_c 18.199000
_cell_angle_alpha 90.000000
_cell_angle_beta 105.520000
_cell_angle_gamma 90.000000
_cell_volume 1798.345042
loop_
_atom_site_label
_atom_site_type_symbol
_atom_site_fract_x
_atom_site_fract_y
_atom_site_fract_z
H1 H 0.794000 0.052000 0.505000
H2 H 0.775000 0.332000 0.368000
H3 H 0.206000 0.552000 -0.005000
H4 H 0.109000 0.388000 0.068000
H5 H 0.891000 -0.112000 0.432000
H6 H 0.823000 -0.094000 0.305000
H7 H 0.625000 0.050000 0.229000
H8 H 0.177000 0.406000 0.195000
H9 H 0.493000 0.195000 0.307000
H10 H 0.375000 0.550000 0.271000
H11 H 0.507000 0.695000 0.193000
H12 H 0.561000 0.942000 0.095000
H13 H 0.851000 0.971000 0.146000
H14 H 1.011000 0.771000 0.156000
H15 H 0.895000 0.584000 0.126000
H16 H 0.622000 0.555000 0.062000
H17 H 0.137000 1.046000 0.058000
H18 H 0.266000 1.081000 0.062000
H19 H 0.391000 0.896000 0.155000
H20 H 0.225000 0.832000 0.132000
H21 H 0.395000 0.914000 0.012000
H22 H 0.609000 0.396000 0.345000
H23 H 0.605000 0.086000 0.988000
H24 H 0.775000 0.168000 0.868000
H25 H 0.609000 0.104000 0.845000
H26 H 0.734000 -0.081000 0.938000
H27 H 0.863000 -0.046000 0.942000
H28 H 0.378000 0.445000 0.938000
H29 H 0.105000 0.416000 0.874000
H30 H -0.011000 0.229000 0.844000
H31 H 0.149000 0.029000 0.854000
H32 H 0.439000 0.058000 0.905000
H33 H 0.493000 0.305000 0.807000
H34 H 0.625000 0.450000 0.729000
H35 H 0.823000 0.594000 0.805000
H36 H 0.891000 0.612000 0.932000
H37 H 0.794000 0.448000 1.005000
H38 H 0.734000 0.581000 0.438000
H39 H 0.863000 0.546000 0.442000
H40 H 0.378000 0.055000 0.438000
H41 H 0.206000 0.948000 0.495000
H42 H 0.439000 0.442000 0.405000
H43 H 0.149000 0.471000 0.354000
H44 H -0.011000 0.271000 0.344000
H45 H 0.109000 1.112000 0.568000
H46 H 0.105000 0.084000 0.374000
H47 H 0.177000 1.094000 0.695000
H48 H 0.375000 0.950000 0.771000
H49 H 0.507000 0.805000 0.693000
H50 H 0.561000 0.558000 0.595000
H51 H 0.851000 0.529000 0.646000
H52 H 1.011000 0.729000 0.656000
H53 H 0.895000 0.916000 0.626000
H54 H 0.622000 0.945000 0.562000
H55 H 0.137000 0.454000 0.558000
H56 H 0.266000 0.419000 0.562000
H57 H 0.391000 0.604000 0.655000
H58 H 0.225000 0.668000 0.632000
H59 H 0.605000 0.414000 0.488000
H60 H 0.395000 0.586000 0.512000
C61 C 0.188800 1.032800 0.594800
C62 C 0.238100 1.033300 0.673700
C63 C 0.344100 0.950700 0.710300
C64 C 0.405000 0.869700 0.669300
C65 C 0.354900 0.866900 0.589800
C66 C 0.642600 0.632800 0.601200
C67 C 0.794600 0.619100 0.631100
C68 C 0.888400 0.717600 0.640600
C69 C 0.829000 0.830900 0.617600
C70 C 0.674500 0.845100 0.587800
C71 C 0.582200 0.745800 0.579500
C72 C 0.391400 0.834800 0.340300
C73 C 0.427600 0.760000 0.412800
C74 C 0.220900 0.483900 0.600200
C75 C 0.414100 0.729800 0.045500
C76 C 0.318900 0.847700 0.037100
C77 C 0.293300 0.892700 0.111700
C78 C 0.220900 1.016100 0.100200
C79 C 0.293300 0.607300 0.611700
C80 C 0.318900 0.652300 0.537100
C81 C 0.414100 0.770200 0.545500
C82 C 0.427600 0.740000 -0.087200
C83 C 0.753400 0.449300 0.946800
C84 C 0.391400 0.665200 -0.159700
C85 C 0.582200 0.754200 0.079500
C86 C 0.674500 0.654900 0.087800
C87 C 0.829000 0.669100 0.117600
C88 C 0.888400 0.782400 0.140600
C89 C 0.794600 0.880900 0.131100
C90 C 0.642600 0.867200 0.101200
C91 C 0.354900 0.633100 0.089800
C92 C 0.405000 0.630300 0.169300
C93 C 0.344100 0.549300 0.210300
C94 C 0.238100 0.466700 0.173700
C95 C 0.188800 0.467200 0.094800
C96 C 0.246600 0.550700 0.053200
C97 C 0.811200 0.532800 0.905200
C98 C 0.761900 0.533300 0.826300
C99 C 0.655900 0.450700 0.789700
C100 C 0.595000 0.369700 0.830700
C101 C 0.645100 0.366900 0.910200
C102 C 0.357400 0.132800 0.898800
C103 C 0.205400 0.119100 0.868900
C104 C 0.111600 0.217600 0.859400
C105 C 0.171000 0.330900 0.882400
C106 C 0.325500 0.345100 0.912200
C107 C 0.417800 0.245800 0.920500
C108 C 0.608600 0.334800 1.159700
C109 C 0.572400 0.260000 1.087200
C110 C 0.779100 -0.016100 0.899800
C111 C 0.706700 0.107300 0.888300
C112 C 0.585900 0.229800 0.454500
C113 C 0.681100 0.347700 0.462900
C114 C 0.706700 0.392700 0.388300
C115 C 0.779100 0.516100 0.399800
C116 C 0.681100 0.152300 0.962900
C117 C 0.246600 0.949300 0.553200
C118 C 0.753400 0.050700 0.446800
C119 C 0.572400 0.240000 0.587200
C120 C 0.811200 -0.032800 0.405200
C121 C 0.608600 0.165200 0.659700
C122 C 0.417800 0.254200 0.420500
C123 C 0.325500 0.154900 0.412200
C124 C 0.171000 0.169100 0.382400
C125 C 0.111600 0.282400 0.359400
C126 C 0.205400 0.380900 0.368900
C127 C 0.357400 0.367200 0.398800
C128 C 0.645100 0.133100 0.410200
C129 C 0.595000 0.130300 0.330700
C130 C 0.655900 0.049300 0.289700
C131 C 0.761900 -0.033300 0.326300
C132 C 0.585900 0.270200 0.954500
O133 O 0.603500 0.174600 0.530200
O134 O 0.603500 0.325400 1.030200
O135 O 0.524800 0.159400 1.080200
O136 O 0.475200 0.840600 -0.080200
O137 O 0.396500 0.674600 -0.030200
O138 O 0.396500 0.825400 0.469800
O139 O 0.475200 0.659400 0.419800
O140 O 0.524800 0.340600 0.580200
Br141 Br 0.199900 1.082550 0.195700
Br142 Br 0.199900 0.417450 0.695700
Br143 Br 0.121900 0.682440 0.464840
Br144 Br 0.878100 0.317560 0.535160
Br145 Br 0.800100 0.582550 0.304300
Br146 Br 0.800100 -0.082550 0.804300
Br147 Br 0.878100 0.182440 1.035160
Br148 Br 0.121900 0.817560 -0.035160

#END
