
#######################################################################
#
#                 Cambridge Crystallographic Data Centre
#                                CCDC 
#
#######################################################################
#
# If this CIF has been generated from an entry in the Cambridge 
# Structural Database, then it will include bibliographic, chemical, 
# crystal, experimental, refinement or atomic coordinate data resulting 
# from the CCDC's data processing and validation procedures.
#
#######################################################################

data_ADBPCU
_symmetry_cell_setting           monoclinic
_symmetry_space_group_name_H-M   'P 21/c'
_symmetry_Int_Tables_number      14
_space_group_name_Hall           '-P 2ybc'
loop_
_symmetry_equiv_pos_site_id
_symmetry_equiv_pos_as_xyz
1 x,y,z
2 -x,1/2+y,1/2-z
3 -x,-y,-z
4 x,1/2-y,1/2+z
_cell_length_a                   9.281(2)
_cell_length_b                   11.050(4)
_cell_length_c                   18.199(6)
_cell_angle_alpha                90
_cell_angle_beta                 105.52(2)
_cell_angle_gamma                90
_cell_volume                     1798.35
loop_
_atom_site_label
_atom_site_type_symbol
_atom_site_fract_x
_atom_site_fract_y
_atom_site_fract_z
C1 C 0.58590 0.27020 0.95450
C2 C 0.68110 0.15230 0.96290
C3 C 0.70670 0.10730 0.88830
C4 C 0.77910 -0.01610 0.89980
Br1 Br 0.87810 0.18244 1.03516
Br2 Br 0.80010 -0.08255 0.80430
O1 O 0.60350 0.32540 1.03020
C5 C 0.57240 0.26000 1.08720
O2 O 0.52480 0.15940 1.08020
C6 C 0.60860 0.33480 1.15970
C7 C 0.41780 0.24580 0.92050
C8 C 0.32550 0.34510 0.91220
C9 C 0.17100 0.33090 0.88240
C10 C 0.11160 0.21760 0.85940
C11 C 0.20540 0.11910 0.86890
C12 C 0.35740 0.13280 0.89880
C13 C 0.64510 0.36690 0.91020
C14 C 0.59500 0.36970 0.83070
C15 C 0.65590 0.45070 0.78970
C16 C 0.76190 0.53330 0.82630
C17 C 0.81120 0.53280 0.90520
C18 C 0.75340 0.44930 0.94680
H1 H 0.60500 0.08600 0.98800
H2 H 0.77500 0.16800 0.86800
H3 H 0.60900 0.10400 0.84500
H4 H 0.73400 -0.08100 0.93800
H5 H 0.86300 -0.04600 0.94200
H6 H 0.37800 0.44500 0.93800
H7 H 0.10500 0.41600 0.87400
H8 H -0.01100 0.22900 0.84400
H9 H 0.14900 0.02900 0.85400
H10 H 0.43900 0.05800 0.90500
H11 H 0.49300 0.30500 0.80700
H12 H 0.62500 0.45000 0.72900
H13 H 0.82300 0.59400 0.80500
H14 H 0.89100 0.61200 0.93200
H15 H 0.79400 0.44800 1.00500
C1 C 0.41410 0.77020 0.54550
C2 C 0.31890 0.65230 0.53710
C3 C 0.29330 0.60730 0.61170
C4 C 0.22090 0.48390 0.60020
Br1 Br 0.12190 0.68244 0.46484
Br2 Br 0.19990 0.41745 0.69570
O1 O 0.39650 0.82540 0.46980
C5 C 0.42760 0.76000 0.41280
O2 O 0.47520 0.65940 0.41980
C6 C 0.39140 0.83480 0.34030
C7 C 0.58220 0.74580 0.57950
C8 C 0.67450 0.84510 0.58780
C9 C 0.82900 0.83090 0.61760
C10 C 0.88840 0.71760 0.64060
C11 C 0.79460 0.61910 0.63110
C12 C 0.64260 0.63280 0.60120
C13 C 0.35490 0.86690 0.58980
C14 C 0.40500 0.86970 0.66930
C15 C 0.34410 0.95070 0.71030
C16 C 0.23810 1.03330 0.67370
C17 C 0.18880 1.03280 0.59480
C18 C 0.24660 0.94930 0.55320
H1 H 0.39500 0.58600 0.51200
H2 H 0.22500 0.66800 0.63200
H3 H 0.39100 0.60400 0.65500
H4 H 0.26600 0.41900 0.56200
H5 H 0.13700 0.45400 0.55800
H6 H 0.62200 0.94500 0.56200
H7 H 0.89500 0.91600 0.62600
H8 H 1.01100 0.72900 0.65600
H9 H 0.85100 0.52900 0.64600
H10 H 0.56100 0.55800 0.59500
H11 H 0.50700 0.80500 0.69300
H12 H 0.37500 0.95000 0.77100
H13 H 0.17700 1.09400 0.69500
H14 H 0.10900 1.11200 0.56800
H15 H 0.20600 0.94800 0.49500
C1 C 0.41410 0.72980 0.04550
C2 C 0.31890 0.84770 0.03710
C3 C 0.29330 0.89270 0.11170
C4 C 0.22090 1.01610 0.10020
Br1 Br 0.12190 0.81756 -0.03516
Br2 Br 0.19990 1.08255 0.19570
O1 O 0.39650 0.67460 -0.03020
C5 C 0.42760 0.74000 -0.08720
O2 O 0.47520 0.84060 -0.08020
C6 C 0.39140 0.66520 -0.15970
C7 C 0.58220 0.75420 0.07950
C8 C 0.67450 0.65490 0.08780
C9 C 0.82900 0.66910 0.11760
C10 C 0.88840 0.78240 0.14060
C11 C 0.79460 0.88090 0.13110
C12 C 0.64260 0.86720 0.10120
C13 C 0.35490 0.63310 0.08980
C14 C 0.40500 0.63030 0.16930
C15 C 0.34410 0.54930 0.21030
C16 C 0.23810 0.46670 0.17370
C17 C 0.18880 0.46720 0.09480
C18 C 0.24660 0.55070 0.05320
H1 H 0.39500 0.91400 0.01200
H2 H 0.22500 0.83200 0.13200
H3 H 0.39100 0.89600 0.15500
H4 H 0.26600 1.08100 0.06200
H5 H 0.13700 1.04600 0.05800
H6 H 0.62200 0.55500 0.06200
H7 H 0.89500 0.58400 0.12600
H8 H 1.01100 0.77100 0.15600
H9 H 0.85100 0.97100 0.14600
H10 H 0.56100 0.94200 0.09500
H11 H 0.50700 0.69500 0.19300
H12 H 0.37500 0.55000 0.27100
H13 H 0.17700 0.40600 0.19500
H14 H 0.10900 0.38800 0.06800
H15 H 0.20600 0.55200 -0.00500
C1 C 0.58590 0.22980 0.45450
C2 C 0.68110 0.34770 0.46290
C3 C 0.70670 0.39270 0.38830
C4 C 0.77910 0.51610 0.39980
Br1 Br 0.87810 0.31756 0.53516
Br2 Br 0.80010 0.58255 0.30430
O1 O 0.60350 0.17460 0.53020
C5 C 0.57240 0.24000 0.58720
O2 O 0.52480 0.34060 0.58020
C6 C 0.60860 0.16520 0.65970
C7 C 0.41780 0.25420 0.42050
C8 C 0.32550 0.15490 0.41220
C9 C 0.17100 0.16910 0.38240
C10 C 0.11160 0.28240 0.35940
C11 C 0.20540 0.38090 0.36890
C12 C 0.35740 0.36720 0.39880
C13 C 0.64510 0.13310 0.41020
C14 C 0.59500 0.13030 0.33070
C15 C 0.65590 0.04930 0.28970
C16 C 0.76190 -0.03330 0.32630
C17 C 0.81120 -0.03280 0.40520
C18 C 0.75340 0.05070 0.44680
H1 H 0.60500 0.41400 0.48800
H2 H 0.77500 0.33200 0.36800
H3 H 0.60900 0.39600 0.34500
H4 H 0.73400 0.58100 0.43800
H5 H 0.86300 0.54600 0.44200
H6 H 0.37800 0.05500 0.43800
H7 H 0.10500 0.08400 0.37400
H8 H -0.01100 0.27100 0.34400
H9 H 0.14900 0.47100 0.35400
H10 H 0.43900 0.44200 0.40500
H11 H 0.49300 0.19500 0.30700
H12 H 0.62500 0.05000 0.22900
H13 H 0.82300 -0.09400 0.30500
H14 H 0.89100 -0.11200 0.43200
H15 H 0.79400 0.05200 0.50500

#END
