
#######################################################################
#
#                 Cambridge Crystallographic Data Centre
#                                CCDC 
#
#######################################################################
#
# If this CIF has been generated from an entry in the Cambridge 
# Structural Database, then it will include bibliographic, chemical, 
# crystal, experimental, refinement or atomic coordinate data resulting 
# from the CCDC's data processing and validation procedures.
#
#######################################################################

data_ADEFEV
_symmetry_cell_setting           triclinic
_symmetry_space_group_name_H-M   'P -1'
_symmetry_Int_Tables_number      2
_space_group_name_Hall           '-P 1'
loop_
_symmetry_equiv_pos_site_id
_symmetry_equiv_pos_as_xyz
1 x,y,z
2 -x,-y,-z
_cell_length_a                   7.895(3)
_cell_length_b                   10.704(4)
_cell_length_c                   14.046(4)
_cell_angle_alpha                105.881(5)
_cell_angle_beta                 100.025(4)
_cell_angle_gamma                99.190(4)
_cell_volume                     1096.99
loop_
_atom_site_label
_atom_site_type_symbol
_atom_site_fract_x
_atom_site_fract_y
_atom_site_fract_z
S1 S 0.22167(9) 0.20574(8) 0.32756(5)
Cl1 Cl 0.68534(18) 0.04613(9) 0.21142(8)
Cl2 Cl 0.64826(14) 0.33280(12) -0.04525(7)
O1 O 0.2399(3) 0.0731(2) 0.31977(19)
O2 O 0.0985(3) 0.2613(3) 0.37993(17)
O3 O 0.6266(3) 0.4364(2) 0.60047(14)
N1 N 0.4104(3) 0.3030(2) 0.38478(16)
H1 H 0.407(4) 0.379(3) 0.399(2)
N2 N 0.7407(3) 0.2568(2) 0.58579(16)
C1 C 0.6478(4) 0.1914(3) 0.1878(2)
C2 C 0.6632(4) 0.2046(3) 0.0942(2)
H2 H 0.6925 0.1376 0.0462
C3 C 0.6347(4) 0.3176(3) 0.0738(2)
C4 C 0.5972(4) 0.4180(3) 0.1444(2)
H3 H 0.5820 0.4961 0.1304
C5 C 0.5817(4) 0.4028(3) 0.2373(2)
H4 H 0.5552 0.4714 0.2853
C6 C 0.6044(3) 0.2887(2) 0.26111(19)
C7 C 0.5763(3) 0.2725(2) 0.36215(18)
H5 H 0.5747 0.1798 0.3591
C8 C 0.1713(3) 0.2170(3) 0.2031(2)
C9 C 0.1961(4) 0.1215(3) 0.1225(2)
H6 H 0.2300 0.0454 0.1316
C10 C 0.1706(5) 0.1388(4) 0.0278(3)
H7 H 0.1877 0.0735 -0.0267
C11 C 0.1207(4) 0.2494(4) 0.0116(2)
C12 C 0.0938(4) 0.3432(4) 0.0932(3)
H8 H 0.0585 0.4186 0.0838
C13 C 0.1179(4) 0.3281(3) 0.1885(2)
H9 H 0.0982 0.3924 0.2427
C14 C 0.0963(6) 0.2666(5) -0.0930(3)
H10 H 0.2065 0.3102 -0.1011
H11 H 0.0106 0.3195 -0.1005
H12 H 0.0563 0.1808 -0.1437
C15 C 0.7288(3) 0.3619(3) 0.44990(19)
H13 H 0.8377 0.3346 0.4404
H14 H 0.7413 0.4533 0.4491
C16 C 0.6979(3) 0.3545(3) 0.55141(18)
C17 C 0.8383(4) 0.1608(3) 0.5393(2)
H15 H 0.8286 0.1568 0.4686
H16 H 0.7853 0.0732 0.5406
C18 C 1.0297(5) 0.1954(5) 0.5923(3)
H17 H 1.0809 0.2845 0.5956
H18 H 1.0900 0.1345 0.5553
H19 H 1.0406 0.1893 0.6600
C19 C 0.6905(4) 0.2458(3) 0.6794(2)
H20 H 0.7125 0.3340 0.7279
H21 H 0.7631 0.1949 0.7090
C20 C 0.5017(5) 0.1802(5) 0.6603(3)
H22 H 0.4292 0.2312 0.6320
H23 H 0.4739 0.1751 0.7232
H24 H 0.4799 0.0922 0.6134
S1 S 0.77833(9) 0.79426(8) 0.67244(5)
Cl1 Cl 0.31466(18) 0.95387(9) 0.78858(8)
Cl2 Cl 0.35174(14) 0.66720(12) 1.04525(7)
O1 O 0.7601(3) 0.9269(2) 0.68023(19)
O2 O 0.9015(3) 0.7387(3) 0.62007(17)
O3 O 0.3734(3) 0.5636(2) 0.39953(14)
N1 N 0.5896(3) 0.6970(2) 0.61522(16)
H1 H 0.593(4) 0.621(3) 0.601(2)
N2 N 0.2593(3) 0.7432(2) 0.41421(16)
C1 C 0.3522(4) 0.8086(3) 0.8122(2)
C2 C 0.3368(4) 0.7954(3) 0.9058(2)
H2 H 0.3075 0.8624 0.9538
C3 C 0.3653(4) 0.6824(3) 0.9262(2)
C4 C 0.4028(4) 0.5820(3) 0.8556(2)
H3 H 0.4180 0.5039 0.8696
C5 C 0.4183(4) 0.5972(3) 0.7627(2)
H4 H 0.4448 0.5286 0.7147
C6 C 0.3956(3) 0.7113(2) 0.73889(19)
C7 C 0.4237(3) 0.7275(2) 0.63785(18)
H5 H 0.4253 0.8202 0.6409
C8 C 0.8287(3) 0.7830(3) 0.7969(2)
C9 C 0.8039(4) 0.8785(3) 0.8775(2)
H6 H 0.7700 0.9546 0.8684
C10 C 0.8294(5) 0.8612(4) 0.9722(3)
H7 H 0.8123 0.9265 1.0267
C11 C 0.8793(4) 0.7506(4) 0.9884(2)
C12 C 0.9062(4) 0.6568(4) 0.9068(3)
H8 H 0.9415 0.5814 0.9162
C13 C 0.8821(4) 0.6719(3) 0.8115(2)
H9 H 0.9018 0.6076 0.7573
C14 C 0.9037(6) 0.7334(5) 1.0930(3)
H10 H 0.7935 0.6898 1.1011
H11 H 0.9894 0.6805 1.1005
H12 H 0.9437 0.8192 1.1437
C15 C 0.2712(3) 0.6381(3) 0.55010(19)
H13 H 0.1623 0.6654 0.5596
H14 H 0.2587 0.5467 0.5509
C16 C 0.3021(3) 0.6455(3) 0.44859(18)
C17 C 0.1617(4) 0.8392(3) 0.4607(2)
H15 H 0.1714 0.8432 0.5314
H16 H 0.2147 0.9268 0.4594
C18 C -0.0297(5) 0.8046(5) 0.4077(3)
H17 H -0.0809 0.7155 0.4044
H18 H -0.0900 0.8655 0.4447
H19 H -0.0406 0.8107 0.3400
C19 C 0.3095(4) 0.7542(3) 0.3206(2)
H20 H 0.2875 0.6660 0.2721
H21 H 0.2369 0.8051 0.2910
C20 C 0.4983(5) 0.8198(5) 0.3397(3)
H22 H 0.5708 0.7688 0.3680
H23 H 0.5261 0.8249 0.2768
H24 H 0.5201 0.9078 0.3866

#END
