./ADEHXL10_from_POSCAR.cif_generated_by_CrystalShift
_symmetry_cell_setting triclinic
_symmetry_space_group_name_H-M 'P 1'
loop_
_symmetry_equiv_pos_site_id
_symmetry_equiv_pos_as_xyz
1 x,y,z
_cell_length_a 4.904000
_cell_length_b 7.670000
_cell_length_c 24.148000
_cell_angle_alpha 90.000000
_cell_angle_beta 90.000000
_cell_angle_gamma 90.000000
_cell_volume 908.295145
loop_
_atom_site_label
_atom_site_type_symbol
_atom_site_fract_x
_atom_site_fract_y
_atom_site_fract_z
H1 H 1.175000 0.610000 0.720000
H2 H -0.030000 1.125000 0.335000
H3 H -0.190000 0.560000 0.462000
H4 H -0.520000 0.265000 0.410000
H5 H -0.420000 0.344000 0.476000
H6 H -0.320000 0.165000 0.456000
H7 H 0.210000 0.780000 0.245000
H8 H 0.300000 0.990000 0.230000
H9 H 0.470000 0.375000 0.665000
H10 H 0.310000 0.940000 0.538000
H11 H -0.020000 1.235000 0.590000
H12 H 0.080000 1.156000 0.524000
H13 H 0.180000 1.335000 0.544000
H14 H 0.710000 0.720000 0.755000
H15 H 0.812000 0.085000 0.170000
H16 H 0.475000 0.315000 0.140000
H17 H 0.651000 0.573000 0.178000
H18 H 0.700000 0.490000 0.270000
H19 H 0.790000 0.280000 0.255000
H20 H 1.320000 -0.335000 0.044000
H21 H 1.420000 -0.156000 0.024000
H22 H 1.520000 -0.235000 0.090000
H23 H 1.190000 0.060000 0.038000
H24 H 1.030000 0.625000 0.165000
H25 H 0.325000 0.390000 0.220000
H26 H 0.349000 1.073000 0.322000
H27 H 0.525000 0.815000 0.360000
H28 H 0.188000 0.585000 0.330000
H29 H -0.175000 0.110000 0.780000
H30 H 0.530000 -0.125000 0.835000
H31 H 0.690000 0.440000 0.962000
H32 H 1.020000 0.735000 0.910000
H33 H 0.920000 0.656000 0.976000
H34 H 0.800000 0.510000 0.770000
H35 H 0.849000 0.427000 0.678000
H36 H 1.025000 0.685000 0.640000
H37 H 0.688000 0.915000 0.670000
H38 H 0.675000 0.890000 0.280000
H39 H 0.820000 0.835000 0.956000
H40 H 0.312000 0.415000 0.830000
H41 H -0.025000 0.185000 0.860000
H42 H 0.151000 -0.073000 0.822000
H43 H 0.200000 0.010000 0.730000
H44 H 0.290000 0.220000 0.745000
C45 C 0.317700 1.124400 0.592100
C46 C 0.892100 0.731200 0.938200
C47 C 0.682300 0.624400 0.907900
C48 C 0.179200 0.105500 0.757800
C49 C 0.234900 0.036200 0.814800
C50 C 0.165100 0.163200 0.861100
C51 C 0.077300 0.820000 0.439400
C52 C 0.033300 0.661100 0.406400
C53 C 0.185100 0.667300 0.361000
C54 C 0.334900 0.836800 0.361100
C55 C 0.265100 0.963800 0.314800
C56 C 0.320800 0.894500 0.257800
C57 C -0.182300 0.375600 0.407900
C58 C -0.392100 0.268800 0.438200
C59 C 0.820800 0.605500 0.742200
C60 C 0.765100 0.536200 0.685200
C61 C 0.834900 0.663200 0.638900
C62 C 0.685100 0.832700 0.639000
C63 C 0.533300 0.838900 0.593600
C64 C 0.577300 0.680000 0.560600
C65 C 0.314900 0.332700 0.861000
C66 C 0.466700 0.338900 0.906400
C67 C 0.422700 0.180000 0.939400
C68 C 1.392100 -0.231200 0.061800
C69 C 1.182300 -0.124400 0.092100
C70 C 0.679200 0.394500 0.242200
C71 C 0.734900 0.463800 0.185200
C72 C 0.665100 0.336800 0.138900
C73 C 0.814900 0.167300 0.139000
C74 C 0.966700 0.161100 0.093600
C75 C 0.107900 1.231200 0.561800
C76 C 0.922700 0.320000 0.060600
N77 N 1.148400 0.038900 0.072000
N78 N 0.351600 0.961100 0.572000
N79 N -0.148400 0.538900 0.428000
N80 N 0.648400 0.461100 0.928000
O81 O -0.026500 0.864700 0.482200
O82 O 0.265000 0.917700 0.413000
O83 O 0.552100 0.676900 0.868100
O84 O 0.473500 0.635300 0.517800
O85 O 0.765000 0.582300 0.587000
O86 O 0.481100 0.494500 0.682400
O87 O 1.089600 0.671900 0.748100
O88 O -0.018900 1.005500 0.317600
O89 O 0.589600 0.828100 0.251900
O90 O -0.089600 0.171900 0.751900
O91 O 0.518900 -0.005500 0.817600
O92 O 0.235000 0.082300 0.913000
O93 O 0.526500 0.135300 0.982200
O94 O -0.052100 0.323100 0.368100
O95 O 1.052100 -0.176900 0.131900
O96 O 0.410400 0.328100 0.248100
O97 O 1.018900 0.505500 0.182400
O98 O 0.735000 0.417700 0.087000
O99 O 1.026500 0.364700 0.017800
O100 O 0.447900 1.176900 0.631900

#END
