./ADEKUQ_from_POSCAR.cif_generated_by_CrystalShift
_symmetry_cell_setting triclinic
_symmetry_space_group_name_H-M 'P 1'
loop_
_symmetry_equiv_pos_site_id
_symmetry_equiv_pos_as_xyz
1 x,y,z
_cell_length_a 11.249000
_cell_length_b 10.506000
_cell_length_c 10.376000
_cell_angle_alpha 90.000000
_cell_angle_beta 90.000000
_cell_angle_gamma 90.000000
_cell_volume 1226.256370
loop_
_atom_site_label
_atom_site_type_symbol
_atom_site_fract_x
_atom_site_fract_y
_atom_site_fract_z
H1 H 0.465000 0.900000 0.582000
H2 H 0.745500 0.739300 0.551300
H3 H 0.640600 0.687000 0.466900
H4 H 0.666200 1.192100 0.740400
H5 H 0.199900 0.457600 0.767600
H6 H 0.644400 1.246200 0.601500
H7 H -0.020200 0.622900 0.932100
H8 H 0.541600 1.248100 0.703500
H9 H -0.217400 0.625700 0.864500
H10 H 0.951300 0.862400 0.839100
H11 H -0.280000 0.496900 0.700400
H12 H 1.146300 0.862500 0.900900
H13 H -0.146300 0.362500 0.599100
H14 H 1.280000 0.996900 0.799600
H15 H 0.048700 0.362400 0.660900
H16 H 1.217400 1.125700 0.635500
H17 H 1.020200 1.122900 0.567900
H18 H 0.800100 0.957600 0.732400
H19 H 1.035000 0.100000 0.082000
H20 H 0.774000 0.208600 -0.088700
H21 H 0.458400 0.748100 0.796500
H22 H 0.355600 0.746200 0.898500
H23 H 0.333800 0.692100 0.759600
H24 H 0.754500 0.260700 0.051300
H25 H 0.859400 0.313000 -0.033100
H26 H 0.359400 0.187000 1.033100
H27 H 0.254500 0.239300 0.948700
H28 H 0.274000 0.291400 1.088700
H29 H 0.535000 0.400000 0.918000
H30 H 0.833800 -0.192100 0.240400
H31 H 0.855600 -0.246200 0.101500
H32 H 0.958400 -0.248100 0.203500
H33 H 0.548700 0.137600 0.339100
H34 H 0.300100 0.542400 0.267600
H35 H 0.353700 0.137500 0.400900
H36 H 0.520200 0.377100 0.432100
H37 H 0.220000 0.003100 0.299600
H38 H 0.717400 0.374300 0.364500
H39 H 0.282600 -0.125700 0.135500
H40 H 0.780000 0.503100 0.200400
H41 H 0.479800 -0.122900 0.067900
H42 H 0.646300 0.637500 0.099100
H43 H 0.699900 0.042400 0.232400
H44 H 0.451300 0.637600 0.160900
H45 H -0.035000 0.600000 0.418000
H46 H 0.226000 0.708600 0.588700
H47 H 0.245500 0.760700 0.448700
H48 H 0.140600 0.813000 0.533100
H49 H 0.166200 0.307900 0.259600
H50 H 0.041600 0.251900 0.296500
H51 H 0.144400 0.253800 0.398500
H52 H 0.726000 0.791400 0.411300
C53 C 0.107000 0.636900 0.460300
C54 C 0.187000 0.739000 0.512400
C55 C 0.069900 0.426900 0.371600
C56 C 0.150000 0.517700 0.422100
C57 C 0.278670 0.485100 0.435500
C58 C 0.465500 0.507300 0.303100
C59 C 0.687000 0.761000 0.487600
C60 C 0.607000 0.863100 0.539700
C61 C -0.044900 0.571100 0.864500
C62 C -0.163300 0.572000 0.824000
C63 C 0.505100 0.584700 0.202900
C64 C 0.455100 -0.071100 0.135500
C65 C 0.621000 0.584400 0.165300
C66 C 0.336700 -0.072000 0.176000
C67 C 0.700800 0.504600 0.226200
C68 C 0.299200 0.004600 0.273800
C69 C 0.663300 0.428000 0.324000
C70 C 0.379000 0.084400 0.334700
C71 C 0.544900 0.428900 0.364500
C72 C 0.494900 0.084700 0.297100
C73 C 0.609000 1.201200 0.672400
C74 C 0.534500 0.007300 0.196900
C75 C 0.721330 -0.014900 0.064500
C76 C 0.850000 0.017700 0.077900
C77 C 0.930100 -0.073100 0.128400
C78 C 0.891000 -0.201200 0.172400
C79 C 0.569900 1.073100 0.628400
C80 C 0.650000 0.982300 0.577900
C81 C 0.778670 1.014900 0.564500
C82 C 0.893000 0.136900 0.039700
C83 C 0.813000 0.239000 -0.012400
C84 C 0.313000 0.261000 1.012400
C85 C 0.393000 0.363100 0.960300
C86 C 0.391000 0.701200 0.827600
C87 C 0.430100 0.573100 0.871600
C88 C 0.965500 0.992700 0.696900
C89 C -0.200800 0.495400 0.726200
C90 C 1.005100 0.915300 0.797100
C91 C -0.121000 0.415600 0.665300
C92 C 0.350000 0.482300 0.922100
C93 C 1.044900 1.071100 0.635500
C94 C 0.221330 0.514900 0.935500
C95 C 1.163300 1.072000 0.676000
C96 C 0.034500 0.492700 0.803100
C97 C 1.200800 0.995400 0.773800
C98 C -0.005100 0.415300 0.702900
C99 C 1.121000 0.915600 0.834700
C100 C 0.109000 0.298800 0.327600
N101 N 0.157840 0.485900 0.830580
N102 N 0.657840 0.014100 0.169420
N103 N 0.342160 0.514100 0.330580
N104 N 0.842160 0.985900 0.669420
O105 O -0.040990 0.452200 0.361900
O106 O -0.002500 0.664800 0.454100
O107 O 0.540990 0.547800 0.861900
O108 O 0.459010 1.047800 0.638100
O109 O 1.002500 0.164800 0.045900
O110 O 0.497500 0.835200 0.545900
O111 O 1.040990 -0.047800 0.138100
O112 O 0.502500 0.335200 0.954100
S113 S 0.830450 1.081560 0.430600
S114 S 0.330450 0.418440 0.569400
S115 S 0.669550 -0.081560 -0.069400
S116 S 0.169550 0.581560 1.069400

#END
