
#######################################################################
#
#                 Cambridge Crystallographic Data Centre
#                                CCDC 
#
#######################################################################
#
# If this CIF has been generated from an entry in the Cambridge 
# Structural Database, then it will include bibliographic, chemical, 
# crystal, experimental, refinement or atomic coordinate data resulting 
# from the CCDC's data processing and validation procedures.
#
#######################################################################

data_ADEKAW
_symmetry_cell_setting           monoclinic
_symmetry_space_group_name_H-M   'P 21/n'
_symmetry_Int_Tables_number      14
_space_group_name_Hall           '-P 2yn'
loop_
_symmetry_equiv_pos_site_id
_symmetry_equiv_pos_as_xyz
1 x,y,z
2 1/2-x,1/2+y,1/2-z
3 -x,-y,-z
4 1/2+x,1/2-y,1/2+z
_cell_length_a                   7.6299(3)
_cell_length_b                   11.3388(5)
_cell_length_c                   14.4189(6)
_cell_angle_alpha                90
_cell_angle_beta                 102.979(2)
_cell_angle_gamma                90
_cell_volume                     1215.57
loop_
_atom_site_label
_atom_site_type_symbol
_atom_site_fract_x
_atom_site_fract_y
_atom_site_fract_z
Cl1 Cl 0.00310(19) 1.10388(10) 0.11527(7)
O1 O 0.0123(4) 0.7157(2) 0.46177(15)
N1 N 0.1631(4) 0.5262(2) 0.78208(17)
C1 C 0.2471(4) 1.0986(2) 0.3898(2)
N2 N 0.1823(3) 0.8595(2) 0.54582(16)
H1 H 0.2408 0.8852 0.6001
C2 C 0.1404(5) 1.0687(3) 0.3013(2)
H2 H 0.0726 0.9998 0.2938
N3 N 0.1701(3) 0.9249(2) 0.46415(17)
C3 C 0.1366(5) 1.1425(3) 0.2252(2)
C4 C 0.2340(6) 1.2467(3) 0.2339(3)
H3 H 0.2299 1.2957 0.1817
C5 C 0.3366(5) 1.2752(3) 0.3218(3)
H4 H 0.4021 1.3451 0.3290
C6 C 0.3456(5) 1.2032(3) 0.4000(3)
H5 H 0.4167 1.2243 0.4588
C7 C 0.2554(4) 1.0227(3) 0.4726(2)
H6 H 0.3231 1.0457 0.5317
C8 C 0.0984(4) 0.7530(3) 0.5376(2)
C9 C 0.1194(4) 0.6811(2) 0.62660(19)
C10 C 0.0285(4) 0.5744(3) 0.6204(2)
H7 H -0.0496 0.5525 0.5638
C11 C 0.0541(4) 0.5015(3) 0.6979(2)
H8 H -0.0081 0.4304 0.6917
C12 C 0.2467(5) 0.6296(3) 0.7882(2)
H9 H 0.3215 0.6500 0.8463
C13 C 0.2297(4) 0.7089(3) 0.7140(2)
H10 H 0.2916 0.7802 0.7226
Cl1 Cl 0.49690(19) 0.60388(10) 0.38473(7)
O1 O 0.4877(4) 0.2157(2) 0.03823(15)
N1 N 0.3369(4) 0.0262(2) -0.28208(17)
C1 C 0.2529(4) 0.5986(2) 0.1102(2)
N2 N 0.3177(3) 0.3595(2) -0.04582(16)
H1 H 0.2592 0.3852 -0.1001
C2 C 0.3596(5) 0.5687(3) 0.1987(2)
H2 H 0.4274 0.4998 0.2062
N3 N 0.3299(3) 0.4249(2) 0.03585(17)
C3 C 0.3634(5) 0.6425(3) 0.2748(2)
C4 C 0.2660(6) 0.7467(3) 0.2661(3)
H3 H 0.2701 0.7957 0.3183
C5 C 0.1634(5) 0.7752(3) 0.1782(3)
H4 H 0.0979 0.8451 0.1710
C6 C 0.1544(5) 0.7032(3) 0.1000(3)
H5 H 0.0833 0.7243 0.0412
C7 C 0.2446(4) 0.5227(3) 0.0274(2)
H6 H 0.1769 0.5457 -0.0317
C8 C 0.4016(4) 0.2530(3) -0.0376(2)
C9 C 0.3806(4) 0.1811(2) -0.12660(19)
C10 C 0.4715(4) 0.0744(3) -0.1204(2)
H7 H 0.5496 0.0525 -0.0638
C11 C 0.4459(4) 0.0015(3) -0.1979(2)
H8 H 0.5081 -0.0696 -0.1917
C12 C 0.2533(5) 0.1296(3) -0.2882(2)
H9 H 0.1785 0.1500 -0.3463
C13 C 0.2703(4) 0.2089(3) -0.2140(2)
H10 H 0.2084 0.2802 -0.2226
Cl1 Cl 0.99690(19) -0.10388(10) 0.88473(7)
O1 O 0.9877(4) 0.2843(2) 0.53823(15)
N1 N 0.8369(4) 0.4738(2) 0.21792(17)
C1 C 0.7529(4) -0.0986(2) 0.6102(2)
N2 N 0.8177(3) 0.1405(2) 0.45418(16)
H1 H 0.7592 0.1148 0.3999
C2 C 0.8596(5) -0.0687(3) 0.6987(2)
H2 H 0.9274 0.0002 0.7062
N3 N 0.8299(3) 0.0751(2) 0.53585(17)
C3 C 0.8634(5) -0.1425(3) 0.7748(2)
C4 C 0.7660(6) -0.2467(3) 0.7661(3)
H3 H 0.7701 -0.2957 0.8183
C5 C 0.6634(5) -0.2752(3) 0.6782(3)
H4 H 0.5979 -0.3451 0.6710
C6 C 0.6544(5) -0.2032(3) 0.6000(3)
H5 H 0.5833 -0.2243 0.5412
C7 C 0.7446(4) -0.0227(3) 0.5274(2)
H6 H 0.6769 -0.0457 0.4683
C8 C 0.9016(4) 0.2470(3) 0.4624(2)
C9 C 0.8806(4) 0.3189(2) 0.37340(19)
C10 C 0.9715(4) 0.4256(3) 0.3796(2)
H7 H 1.0496 0.4475 0.4362
C11 C 0.9459(4) 0.4985(3) 0.3021(2)
H8 H 1.0081 0.5696 0.3083
C12 C 0.7533(5) 0.3704(3) 0.2118(2)
H9 H 0.6785 0.3500 0.1537
C13 C 0.7703(4) 0.2911(3) 0.2860(2)
H10 H 0.7084 0.2198 0.2774
Cl1 Cl 0.50310(19) 0.39612(10) 0.61527(7)
O1 O 0.5123(4) 0.7843(2) 0.96177(15)
N1 N 0.6631(4) 0.9738(2) 1.28208(17)
C1 C 0.7471(4) 0.4014(2) 0.8898(2)
N2 N 0.6823(3) 0.6405(2) 1.04582(16)
H1 H 0.7408 0.6148 1.1001
C2 C 0.6404(5) 0.4313(3) 0.8013(2)
H2 H 0.5726 0.5002 0.7938
N3 N 0.6701(3) 0.5751(2) 0.96415(17)
C3 C 0.6366(5) 0.3575(3) 0.7252(2)
C4 C 0.7340(6) 0.2533(3) 0.7339(3)
H3 H 0.7299 0.2043 0.6817
C5 C 0.8366(5) 0.2248(3) 0.8218(3)
H4 H 0.9021 0.1549 0.8290
C6 C 0.8456(5) 0.2968(3) 0.9000(3)
H5 H 0.9167 0.2757 0.9588
C7 C 0.7554(4) 0.4773(3) 0.9726(2)
H6 H 0.8231 0.4543 1.0317
C8 C 0.5984(4) 0.7470(3) 1.0376(2)
C9 C 0.6194(4) 0.8189(2) 1.12660(19)
C10 C 0.5285(4) 0.9256(3) 1.1204(2)
H7 H 0.4504 0.9475 1.0638
C11 C 0.5541(4) 0.9985(3) 1.1979(2)
H8 H 0.4919 1.0696 1.1917
C12 C 0.7467(5) 0.8704(3) 1.2882(2)
H9 H 0.8215 0.8500 1.3463
C13 C 0.7297(4) 0.7911(3) 1.2140(2)
H10 H 0.7916 0.7198 1.2226

#END
