
#######################################################################
#
#                 Cambridge Crystallographic Data Centre
#                                CCDC 
#
#######################################################################
#
# If this CIF has been generated from an entry in the Cambridge 
# Structural Database, then it will include bibliographic, chemical, 
# crystal, experimental, refinement or atomic coordinate data resulting 
# from the CCDC's data processing and validation procedures.
#
#######################################################################

data_ADEMOM
_symmetry_cell_setting           monoclinic
_symmetry_space_group_name_H-M   'P 21/c'
_symmetry_Int_Tables_number      14
_space_group_name_Hall           '-P 2ybc'
loop_
_symmetry_equiv_pos_site_id
_symmetry_equiv_pos_as_xyz
1 x,y,z
2 -x,1/2+y,1/2-z
3 -x,-y,-z
4 x,1/2-y,1/2+z
_cell_length_a                   11.587(2)
_cell_length_b                   13.756(3)
_cell_length_c                   8.433(2)
_cell_angle_alpha                90
_cell_angle_beta                 95.97(3)
_cell_angle_gamma                90
_cell_volume                     1336.85
loop_
_atom_site_label
_atom_site_type_symbol
_atom_site_fract_x
_atom_site_fract_y
_atom_site_fract_z
Br1 Br 0.34778(3) 0.00196(2) 0.10974(4)
N1 N 0.32306(17) 0.22386(15) 0.1190(2)
H1 H 0.3094 0.1955 0.0281
O1 O 0.26233(15) 0.34368(13) 0.2751(2)
C1 C 0.0309(3) 0.1654(2) 0.0568(4)
H2 H 0.0875 0.1310 0.0099
C2 C -0.0638(3) 0.1158(3) 0.1042(4)
H3 H -0.0701 0.0489 0.0891
C3 C -0.1474(3) 0.1650(4) 0.1728(4)
H4 H -0.2117 0.1322 0.2035
C4 C -0.1366(3) 0.2616(3) 0.1959(4)
H5 H -0.1934 0.2950 0.2440
C5 C -0.0420(3) 0.3122(2) 0.1491(4)
H6 H -0.0362 0.3788 0.1663
C6 C 0.0435(2) 0.2642(2) 0.0773(3)
C7 C 0.1494(2) 0.31407(19) 0.0251(3)
H7 H 0.1679 0.2827 -0.0735
C8 C 0.1364(3) 0.4225(2) -0.0079(4)
H8 H 0.0683 0.4338 -0.0805
H9 H 0.2035 0.4458 -0.0541
H10 H 0.1294 0.4563 0.0902
C9 C 0.2510(2) 0.29679(18) 0.1515(3)
C10 C 0.4910(2) 0.2538(2) 0.3119(3)
H11 H 0.4762 0.3202 0.3061
C11 C 0.5845(2) 0.2201(2) 0.4102(3)
H12 H 0.6314 0.2635 0.4719
C12 C 0.6084(3) 0.1230(3) 0.4172(4)
H13 H 0.6713 0.1003 0.4847
C13 C 0.5404(3) 0.0589(2) 0.3257(4)
H14 H 0.5585 -0.0070 0.3277
C14 C 0.4447(2) 0.0925(2) 0.2300(3)
C15 C 0.4186(2) 0.19026(18) 0.2212(3)
Br1 Br 0.65222(3) 0.50196(2) 0.39026(4)
N1 N 0.67694(17) 0.72386(15) 0.3810(2)
H1 H 0.6906 0.6955 0.4719
O1 O 0.73767(15) 0.84368(13) 0.2249(2)
C1 C 0.9691(3) 0.6654(2) 0.4432(4)
H2 H 0.9125 0.6310 0.4901
C2 C 1.0638(3) 0.6158(3) 0.3958(4)
H3 H 1.0701 0.5489 0.4109
C3 C 1.1474(3) 0.6650(4) 0.3272(4)
H4 H 1.2117 0.6322 0.2965
C4 C 1.1366(3) 0.7616(3) 0.3041(4)
H5 H 1.1934 0.7950 0.2560
C5 C 1.0420(3) 0.8122(2) 0.3509(4)
H6 H 1.0362 0.8788 0.3337
C6 C 0.9565(2) 0.7642(2) 0.4227(3)
C7 C 0.8506(2) 0.81407(19) 0.4749(3)
H7 H 0.8321 0.7827 0.5735
C8 C 0.8636(3) 0.9225(2) 0.5079(4)
H8 H 0.9317 0.9338 0.5805
H9 H 0.7965 0.9458 0.5541
H10 H 0.8706 0.9563 0.4098
C9 C 0.7490(2) 0.79679(18) 0.3485(3)
C10 C 0.5090(2) 0.7538(2) 0.1881(3)
H11 H 0.5238 0.8202 0.1939
C11 C 0.4155(2) 0.7201(2) 0.0898(3)
H12 H 0.3686 0.7635 0.0281
C12 C 0.3916(3) 0.6230(3) 0.0828(4)
H13 H 0.3287 0.6003 0.0153
C13 C 0.4596(3) 0.5589(2) 0.1743(4)
H14 H 0.4415 0.4930 0.1723
C14 C 0.5553(2) 0.5925(2) 0.2700(3)
C15 C 0.5814(2) 0.69026(18) 0.2788(3)
Br1 Br 0.65222(3) 0.99804(2) 0.89026(4)
N1 N 0.67694(17) 0.77614(15) 0.8810(2)
H1 H 0.6906 0.8045 0.9719
O1 O 0.73767(15) 0.65632(13) 0.7249(2)
C1 C 0.9691(3) 0.8346(2) 0.9432(4)
H2 H 0.9125 0.8690 0.9901
C2 C 1.0638(3) 0.8842(3) 0.8958(4)
H3 H 1.0701 0.9511 0.9109
C3 C 1.1474(3) 0.8350(4) 0.8272(4)
H4 H 1.2117 0.8678 0.7965
C4 C 1.1366(3) 0.7384(3) 0.8041(4)
H5 H 1.1934 0.7050 0.7560
C5 C 1.0420(3) 0.6878(2) 0.8509(4)
H6 H 1.0362 0.6212 0.8337
C6 C 0.9565(2) 0.7358(2) 0.9227(3)
C7 C 0.8506(2) 0.68593(19) 0.9749(3)
H7 H 0.8321 0.7173 1.0735
C8 C 0.8636(3) 0.5775(2) 1.0079(4)
H8 H 0.9317 0.5662 1.0805
H9 H 0.7965 0.5542 1.0541
H10 H 0.8706 0.5437 0.9098
C9 C 0.7490(2) 0.70321(18) 0.8485(3)
C10 C 0.5090(2) 0.7462(2) 0.6881(3)
H11 H 0.5238 0.6798 0.6939
C11 C 0.4155(2) 0.7799(2) 0.5898(3)
H12 H 0.3686 0.7365 0.5281
C12 C 0.3916(3) 0.8770(3) 0.5828(4)
H13 H 0.3287 0.8997 0.5153
C13 C 0.4596(3) 0.9411(2) 0.6743(4)
H14 H 0.4415 1.0070 0.6723
C14 C 0.5553(2) 0.9075(2) 0.7700(3)
C15 C 0.5814(2) 0.80974(18) 0.7788(3)
Br1 Br 0.34778(3) 0.49804(2) 0.60974(4)
N1 N 0.32306(17) 0.27614(15) 0.6190(2)
H1 H 0.3094 0.3045 0.5281
O1 O 0.26233(15) 0.15632(13) 0.7751(2)
C1 C 0.0309(3) 0.3346(2) 0.5568(4)
H2 H 0.0875 0.3690 0.5099
C2 C -0.0638(3) 0.3842(3) 0.6042(4)
H3 H -0.0701 0.4511 0.5891
C3 C -0.1474(3) 0.3350(4) 0.6728(4)
H4 H -0.2117 0.3678 0.7035
C4 C -0.1366(3) 0.2384(3) 0.6959(4)
H5 H -0.1934 0.2050 0.7440
C5 C -0.0420(3) 0.1878(2) 0.6491(4)
H6 H -0.0362 0.1212 0.6663
C6 C 0.0435(2) 0.2358(2) 0.5773(3)
C7 C 0.1494(2) 0.18593(19) 0.5251(3)
H7 H 0.1679 0.2173 0.4265
C8 C 0.1364(3) 0.0775(2) 0.4921(4)
H8 H 0.0683 0.0662 0.4195
H9 H 0.2035 0.0542 0.4459
H10 H 0.1294 0.0437 0.5902
C9 C 0.2510(2) 0.20321(18) 0.6515(3)
C10 C 0.4910(2) 0.2462(2) 0.8119(3)
H11 H 0.4762 0.1798 0.8061
C11 C 0.5845(2) 0.2799(2) 0.9102(3)
H12 H 0.6314 0.2365 0.9719
C12 C 0.6084(3) 0.3770(3) 0.9172(4)
H13 H 0.6713 0.3997 0.9847
C13 C 0.5404(3) 0.4411(2) 0.8257(4)
H14 H 0.5585 0.5070 0.8277
C14 C 0.4447(2) 0.4075(2) 0.7300(3)
C15 C 0.4186(2) 0.30974(18) 0.7212(3)

#END
