./ADEMOM_from_POSCAR.cif_generated_by_CrystalShift
_symmetry_cell_setting triclinic
_symmetry_space_group_name_H-M 'P 1'
loop_
_symmetry_equiv_pos_site_id
_symmetry_equiv_pos_as_xyz
1 x,y,z
_cell_length_a 11.587000
_cell_length_b 13.756000
_cell_length_c 8.433000
_cell_angle_alpha 90.000000
_cell_angle_beta 95.970000
_cell_angle_gamma 90.000000
_cell_volume 1336.852411
loop_
_atom_site_label
_atom_site_type_symbol
_atom_site_fract_x
_atom_site_fract_y
_atom_site_fract_z
H1 H 0.368600 0.763500 0.028100
H2 H 0.558500 0.507000 0.827700
H3 H 0.309400 0.195500 0.028100
H4 H 0.167900 0.217300 0.426500
H5 H -0.036200 0.121200 0.666300
H6 H 0.087500 0.131000 0.009900
H7 H -0.193400 0.205000 0.744000
H8 H -0.070100 0.048900 0.089100
H9 H -0.211700 0.367800 0.703500
H10 H -0.211700 0.132200 0.203500
H11 H -0.070100 0.451100 0.589100
H12 H -0.193400 0.295000 0.244000
H13 H 0.087500 0.369000 0.509900
H14 H -0.036200 0.378800 0.166300
H15 H 0.203500 0.054200 0.445900
H16 H 0.309400 0.304500 0.528100
H17 H 0.167900 0.282700 -0.073500
H18 H 0.129400 0.043700 0.590200
H19 H 0.068300 0.433800 -0.080500
H20 H 0.203500 0.445800 -0.054100
H21 H 0.129400 0.456300 0.090200
H22 H 0.441500 1.007000 0.672300
H23 H 0.328700 0.899700 0.515300
H24 H 0.476200 0.320200 0.306100
H25 H 0.368600 0.736500 0.528100
H26 H 0.631400 0.263500 0.471900
H27 H 0.523800 0.679800 0.693900
H28 H 0.671300 0.100300 0.484700
H29 H 0.870600 0.543700 0.909800
H30 H 0.558500 -0.007000 0.327700
H31 H 0.796500 0.554200 1.054100
H32 H 0.931700 0.566200 1.080500
H33 H 0.671300 0.399700 0.984700
H34 H 0.832100 0.717300 1.073500
H35 H 0.690600 0.695500 0.471900
H36 H 0.631400 0.236500 0.971900
H37 H 1.036200 0.621200 0.833700
H38 H 0.912500 0.631000 0.490100
H39 H 1.193400 0.705000 0.756000
H40 H 1.070100 0.548900 0.410900
H41 H 1.211700 0.867800 0.796500
H42 H 1.211700 0.632200 0.296500
H43 H 1.070100 0.951100 0.910900
H44 H 1.193400 0.795000 0.256000
H45 H 0.912500 0.869000 0.990100
H46 H 1.036200 0.878800 0.333700
H47 H 0.690600 0.804500 0.971900
H48 H 0.476200 0.179800 0.806100
H49 H 0.832100 0.782700 0.573500
H50 H 0.441500 0.493000 0.172300
H51 H 0.931700 0.933800 0.580500
H52 H 0.796500 0.945800 0.554100
H53 H 0.870600 0.956300 0.409800
H54 H 0.328700 0.600300 0.015300
H55 H 0.068300 0.066200 0.419500
H56 H 0.523800 0.820200 0.193900
C57 C 0.415500 0.720100 0.089800
C58 C 0.509000 0.753800 0.188100
C59 C 0.391600 0.623000 0.082800
C60 C 0.749000 0.796790 0.348500
C61 C 0.459600 0.558900 0.174300
C62 C 0.863600 0.922500 0.507900
C63 C 0.555300 0.592500 0.270000
C64 C 0.581400 0.690260 0.278800
C65 C 0.584500 0.279900 0.910200
C66 C 0.850600 0.814070 0.474900
C67 C 0.956500 0.764200 0.422700
C68 C 0.491000 0.246200 0.811900
C69 C 0.969100 0.834600 0.943200
C70 C 1.042000 0.812200 0.350900
C71 C 1.063800 0.884200 0.895800
C72 C 1.136600 0.761600 0.304100
C73 C 1.147400 0.835000 0.827200
C74 C 1.147400 0.665000 0.327200
C75 C 1.136600 0.738400 0.804100
C76 C 1.063800 0.615800 0.395800
C77 C 1.042000 0.687800 0.850900
C78 C 0.969100 0.665400 0.443200
C79 C 0.956500 0.735800 0.922700
C80 C 0.850600 0.685930 0.974900
C81 C 0.608400 0.377000 0.917200
C82 C 0.863600 0.577500 1.007900
C83 C 0.418600 0.190260 0.221200
C84 C 0.444700 0.092500 0.230000
C85 C 0.540400 0.058900 0.325700
C86 C 0.749000 0.703210 0.848500
C87 C 0.509000 0.746200 0.688100
C88 C 0.608400 0.123000 0.417200
C89 C 0.415500 0.779900 0.589800
C90 C 0.584500 0.220100 0.410200
C91 C 0.391600 0.877000 0.582800
C92 C 0.491000 0.253800 0.311900
C93 C 0.459600 0.941100 0.674300
C94 C 0.251000 0.296790 0.151500
C95 C 0.555300 0.907500 0.770000
C96 C 0.581400 0.809740 0.778800
C97 C 0.251000 0.203210 0.651500
C98 C 0.136400 0.422500 -0.007900
C99 C 0.149400 0.314070 0.025100
C100 C 0.043500 0.264200 0.077300
C101 C 0.030900 0.334600 0.556800
C102 C -0.042000 0.312200 0.149100
C103 C -0.063800 0.384200 0.604200
C104 C -0.136600 0.261600 0.195900
C105 C -0.147400 0.335000 0.672800
C106 C -0.147400 0.165000 0.172800
C107 C -0.136600 0.238400 0.695900
C108 C -0.063800 0.115800 0.104200
C109 C -0.042000 0.187800 0.649100
C110 C 0.030900 0.165400 0.056800
C111 C 0.043500 0.235800 0.577300
C112 C 0.149400 0.185930 0.525100
C113 C 0.540400 0.441100 0.825700
C114 C 0.136400 0.077500 0.492100
C115 C 0.418600 0.309740 0.721200
C116 C 0.444700 0.407500 0.730000
N117 N 0.323060 0.223860 0.119000
N118 N 0.676940 0.723860 0.381000
N119 N 0.676940 0.776140 0.881000
N120 N 0.323060 0.276140 0.619000
O121 O 0.737670 0.843680 0.224900
O122 O 0.262330 0.343680 0.275100
O123 O 0.737670 0.656320 0.724900
O124 O 0.262330 0.156320 0.775100
Br125 Br 0.347780 0.498040 0.609740
Br126 Br 0.652220 0.998040 0.890260
Br127 Br 0.652220 0.501960 0.390260
Br128 Br 0.347780 0.001960 0.109740

#END
