
#######################################################################
#
#                 Cambridge Crystallographic Data Centre
#                                CCDC 
#
#######################################################################
#
# If this CIF has been generated from an entry in the Cambridge 
# Structural Database, then it will include bibliographic, chemical, 
# crystal, experimental, refinement or atomic coordinate data resulting 
# from the CCDC's data processing and validation procedures.
#
#######################################################################

data_ADERUW01
_symmetry_cell_setting           triclinic
_symmetry_space_group_name_H-M   'P -1'
_symmetry_Int_Tables_number      2
_space_group_name_Hall           '-P 1'
loop_
_symmetry_equiv_pos_site_id
_symmetry_equiv_pos_as_xyz
1 x,y,z
2 -x,-y,-z
_cell_length_a                   10.288(2)
_cell_length_b                   10.716(2)
_cell_length_c                   12.243(2)
_cell_angle_alpha                89.19(1)
_cell_angle_beta                 75.39(1)
_cell_angle_gamma                64.18(1)
_cell_volume                     1168.59
loop_
_atom_site_label
_atom_site_type_symbol
_atom_site_fract_x
_atom_site_fract_y
_atom_site_fract_z
Zn1 Zn 0.0341(1) 0.4457(1) 0.7072(1)
O1 O 0.1965(1) 0.4323(1) 0.5776(1)
C1 C 0.1825(2) 0.5308(1) 0.5147(1)
C2 C 0.3243(1) 0.5130(1) 0.4293(1)
C3 C 0.4544(2) 0.3904(2) 0.4207(1)
C4 C 0.5901(2) 0.3727(2) 0.3482(1)
C5 C 0.5976(2) 0.4770(2) 0.2833(1)
C6 C 0.4688(2) 0.5988(2) 0.2902(2)
C7 C 0.3327(2) 0.6167(2) 0.3631(1)
C8 C 0.0480(2) 0.6510(2) 0.5215(1)
C9 C -0.0894(2) 0.6903(1) 0.6032(1)
O2 O -0.1162(1) 0.6205(1) 0.6841(1)
C10 C -0.2206(2) 0.8260(1) 0.6010(1)
C11 C -0.2084(2) 0.9286(2) 0.5349(2)
C12 C -0.3337(2) 1.0554(2) 0.5409(2)
C13 C -0.4722(2) 1.0798(2) 0.6111(2)
C14 C -0.4854(2) 0.9780(2) 0.6761(2)
C15 C -0.3612(2) 0.8527(2) 0.6721(1)
O3 O -0.0013(1) 0.2846(1) 0.7415(1)
C16 C 0.0578(1) 0.2006(1) 0.8100(1)
C17 C 0.0234(2) 0.0780(2) 0.8224(1)
C18 C -0.1076(2) 0.0902(2) 0.8000(2)
C19 C -0.1450(3) -0.0202(2) 0.8116(2)
C20 C -0.0503(2) -0.1445(2) 0.8427(2)
C21 C 0.0783(2) -0.1565(2) 0.8657(2)
C22 C 0.1156(2) -0.0462(2) 0.8562(1)
C23 C 0.1451(2) 0.2169(2) 0.8743(1)
C24 C 0.1725(1) 0.3338(1) 0.8829(1)
O4 O 0.1173(1) 0.4445(1) 0.8359(1)
C25 C 0.2708(2) 0.3326(2) 0.9547(1)
C26 C 0.3930(2) 0.2106(2) 0.9631(1)
C27 C 0.4881(2) 0.2142(2) 1.0247(2)
C28 C 0.4599(2) 0.3383(2) 1.0798(2)
C29 C 0.3379(2) 0.4597(2) 1.0729(2)
C30 C 0.2445(2) 0.4578(2) 1.0095(1)
H1 H 0.4503(18) 0.3245(18) 0.4633(16)
H2 H 0.6800(2) 0.2892(19) 0.3429(15)
H3 H 0.6851(19) 0.4669(18) 0.2337(16)
H4 H 0.4722(19) 0.6700(2) 0.2474(17)
H5 H 0.2470(2) 0.7000(2) 0.3677(16)
H6 H 0.0498(17) 0.7122(17) 0.4665(15)
H7 H -0.1170(2) 0.9140(2) 0.4818(17)
H8 H -0.3220(2) 1.1220(2) 0.5025(19)
H9 H -0.5570(2) 1.1670(2) 0.6149(18)
H10 H -0.5840(2) 0.9913(19) 0.7207(17)
H11 H -0.3680(18) 0.7835(19) 0.7170(16)
H12 H -0.1680(2) 0.1750(2) 0.7788(17)
H13 H -0.2300(2) -0.0120(2) 0.7962(19)
H14 H -0.0740(2) -0.2220(2) 0.8475(19)
H15 H 0.1430(2) -0.2350(2) 0.8869(18)
H16 H 0.2060(2) -0.0606(19) 0.8705(16)
H17 H 0.1803(17) 0.1506(17) 0.9235(15)
H18 H 0.4211(19) 0.1240(2) 0.9204(16)
H19 H 0.5730(2) 0.1350(2) 1.0269(18)
H20 H 0.5280(2) 0.3380(2) 1.1253(18)
H21 H 0.3200(2) 0.5420(2) 1.1087(17)
H22 H 0.1561(19) 0.5453(18) 1.0045(15)
Zn1 Zn 0.9659(1) 0.5543(1) 0.2928(1)
O1 O 0.8035(1) 0.5677(1) 0.4224(1)
C1 C 0.8175(2) 0.4692(1) 0.4853(1)
C2 C 0.6757(1) 0.4870(1) 0.5707(1)
C3 C 0.5456(2) 0.6096(2) 0.5793(1)
C4 C 0.4099(2) 0.6273(2) 0.6518(1)
C5 C 0.4024(2) 0.5230(2) 0.7167(1)
C6 C 0.5312(2) 0.4012(2) 0.7098(2)
C7 C 0.6673(2) 0.3833(2) 0.6369(1)
C8 C 0.9520(2) 0.3490(2) 0.4785(1)
C9 C 1.0894(2) 0.3097(1) 0.3968(1)
O2 O 1.1162(1) 0.3795(1) 0.3159(1)
C10 C 1.2206(2) 0.1740(1) 0.3990(1)
C11 C 1.2084(2) 0.0714(2) 0.4651(2)
C12 C 1.3337(2) -0.0554(2) 0.4591(2)
C13 C 1.4722(2) -0.0798(2) 0.3889(2)
C14 C 1.4854(2) 0.0220(2) 0.3239(2)
C15 C 1.3612(2) 0.1473(2) 0.3279(1)
O3 O 1.0013(1) 0.7154(1) 0.2585(1)
C16 C 0.9422(1) 0.7994(1) 0.1900(1)
C17 C 0.9766(2) 0.9220(2) 0.1776(1)
C18 C 1.1076(2) 0.9098(2) 0.2000(2)
C19 C 1.1450(3) 1.0202(2) 0.1884(2)
C20 C 1.0503(2) 1.1445(2) 0.1573(2)
C21 C 0.9217(2) 1.1565(2) 0.1343(2)
C22 C 0.8844(2) 1.0462(2) 0.1438(1)
C23 C 0.8549(2) 0.7831(2) 0.1257(1)
C24 C 0.8275(1) 0.6662(1) 0.1171(1)
O4 O 0.8827(1) 0.5555(1) 0.1641(1)
C25 C 0.7292(2) 0.6674(2) 0.0453(1)
C26 C 0.6070(2) 0.7894(2) 0.0369(1)
C27 C 0.5119(2) 0.7858(2) -0.0247(2)
C28 C 0.5401(2) 0.6617(2) -0.0798(2)
C29 C 0.6621(2) 0.5403(2) -0.0729(2)
C30 C 0.7555(2) 0.5422(2) -0.0095(1)
H1 H 0.5497(18) 0.6755(18) 0.5367(16)
H2 H 0.3200(2) 0.7108(19) 0.6571(15)
H3 H 0.3149(19) 0.5331(18) 0.7663(16)
H4 H 0.5278(19) 0.3300(2) 0.7526(17)
H5 H 0.7530(2) 0.3000(2) 0.6323(16)
H6 H 0.9502(17) 0.2878(17) 0.5335(15)
H7 H 1.1170(2) 0.0860(2) 0.5182(17)
H8 H 1.3220(2) -0.1220(2) 0.4975(19)
H9 H 1.5570(2) -0.1670(2) 0.3851(18)
H10 H 1.5840(2) 0.0087(19) 0.2793(17)
H11 H 1.3680(18) 0.2165(19) 0.2830(16)
H12 H 1.1680(2) 0.8250(2) 0.2212(17)
H13 H 1.2300(2) 1.0120(2) 0.2038(19)
H14 H 1.0740(2) 1.2220(2) 0.1525(19)
H15 H 0.8570(2) 1.2350(2) 0.1131(18)
H16 H 0.7940(2) 1.0606(19) 0.1295(16)
H17 H 0.8197(17) 0.8494(17) 0.0765(15)
H18 H 0.5789(19) 0.8760(2) 0.0796(16)
H19 H 0.4270(2) 0.8650(2) -0.0269(18)
H20 H 0.4720(2) 0.6620(2) -0.1253(18)
H21 H 0.6800(2) 0.4580(2) -0.1087(17)
H22 H 0.8439(19) 0.4547(18) -0.0045(15)

#END
