
#######################################################################
#
#                 Cambridge Crystallographic Data Centre
#                                CCDC 
#
#######################################################################
#
# If this CIF has been generated from an entry in the Cambridge 
# Structural Database, then it will include bibliographic, chemical, 
# crystal, experimental, refinement or atomic coordinate data resulting 
# from the CCDC's data processing and validation procedures.
#
#######################################################################

data_ADICOF
_symmetry_cell_setting           triclinic
_symmetry_space_group_name_H-M   'P -1'
_symmetry_Int_Tables_number      2
_space_group_name_Hall           '-P 1'
loop_
_symmetry_equiv_pos_site_id
_symmetry_equiv_pos_as_xyz
1 x,y,z
2 -x,-y,-z
_cell_length_a                   11.3960(10)
_cell_length_b                   11.4900(10)
_cell_length_c                   20.141(2)
_cell_angle_alpha                78.490(5)
_cell_angle_beta                 89.590(5)
_cell_angle_gamma                88.000(5)
_cell_volume                     2582.65
loop_
_atom_site_label
_atom_site_type_symbol
_atom_site_fract_x
_atom_site_fract_y
_atom_site_fract_z
S1 S 0.21721(17) 0.17225(15) 0.25740(9)
S2 S 0.35312(14) 0.49633(15) -0.01287(8)
S3 S -0.12840(14) 0.73067(14) 0.03355(9)
S4 S 0.01936(17) 0.52051(16) 0.32925(8)
S5 S 0.50584(14) 0.56550(15) 0.18885(9)
S6 S 0.23707(17) 0.98259(15) 0.00865(9)
C1 C 0.0844(6) 0.2497(6) 0.2447(3)
H1 H 0.019(4) 0.232(6) 0.272(3)
C2 C 0.0825(5) 0.3405(5) 0.1924(3)
H2 H 0.014(3) 0.386(4) 0.178(3)
C3 C 0.1926(5) 0.3542(5) 0.1575(3)
C4 C 0.2749(6) 0.2626(5) 0.1862(3)
C5 C 0.3849(6) 0.2466(6) 0.1573(4)
H3 H 0.432(5) 0.182(4) 0.177(3)
C6 C 0.4131(6) 0.3172(6) 0.0975(4)
H4 H 0.486(3) 0.307(6) 0.078(3)
C7 C 0.3351(5) 0.4095(5) 0.0673(3)
C8 C 0.2299(5) 0.4356(5) 0.0983(3)
C9 C 0.1682(5) 0.5390(5) 0.0566(3)
C10 C 0.2195(5) 0.5707(5) -0.0076(3)
C11 C 0.1684(7) 0.6505(6) -0.0613(3)
H5 H 0.213(5) 0.669(5) -0.1016(19)
C12 C 0.0581(6) 0.6995(6) -0.0516(3)
H6 H 0.023(5) 0.755(4) -0.087(2)
C13 C 0.0094(5) 0.6775(5) 0.0126(3)
C14 C 0.0673(5) 0.6088(5) 0.0694(3)
C15 C 0.0089(5) 0.6217(4) 0.1322(3)
C16 C -0.1046(5) 0.6733(5) 0.1190(3)
C17 C -0.1855(6) 0.6752(6) 0.1717(4)
H7 H -0.255(3) 0.716(5) 0.156(3)
C18 C -0.1548(6) 0.6267(6) 0.2359(4)
H8 H -0.203(5) 0.615(6) 0.274(2)
C19 C -0.0384(6) 0.5885(5) 0.2505(3)
C20 C 0.0493(5) 0.5994(5) 0.2002(3)
C21 C 0.1652(5) 0.5765(5) 0.2280(3)
C22 C 0.1617(6) 0.5186(5) 0.2964(3)
C23 C 0.2605(7) 0.4626(6) 0.3315(3)
H9 H 0.253(6) 0.411(5) 0.3733(18)
C24 C 0.3665(6) 0.4692(6) 0.2986(3)
H10 H 0.438(3) 0.433(5) 0.316(3)
C25 C 0.3757(5) 0.5405(5) 0.2341(3)
C26 C 0.2786(5) 0.6032(5) 0.1990(3)
C27 C 0.3152(5) 0.6861(5) 0.1400(3)
C28 C 0.4359(5) 0.6705(5) 0.1259(3)
C29 C 0.4935(5) 0.7396(5) 0.0722(3)
H11 H 0.573(2) 0.726(5) 0.065(3)
C30 C 0.4342(6) 0.8320(6) 0.0304(3)
H12 H 0.469(5) 0.881(5) -0.007(2)
C31 C 0.3167(6) 0.8566(5) 0.0462(3)
C32 C 0.2568(5) 0.7893(5) 0.1013(3)
C33 C 0.1469(5) 0.8480(5) 0.1129(3)
H13 H 0.102(4) 0.818(5) 0.1509(19)
C34 C 0.1260(6) 0.9491(6) 0.0676(3)
H14 H 0.063(4) 1.003(4) 0.066(3)
S1 S 0.78279(17) 0.82775(15) 0.74260(9)
S2 S 0.64688(14) 0.50367(15) 1.01287(8)
S3 S 1.12840(14) 0.26933(14) 0.96645(9)
S4 S 0.98064(17) 0.47949(16) 0.67075(8)
S5 S 0.49416(14) 0.43450(15) 0.81115(9)
S6 S 0.76293(17) 0.01741(15) 0.99135(9)
C1 C 0.9156(6) 0.7503(6) 0.7553(3)
H1 H 0.981(4) 0.768(6) 0.728(3)
C2 C 0.9175(5) 0.6595(5) 0.8076(3)
H2 H 0.986(3) 0.614(4) 0.822(3)
C3 C 0.8074(5) 0.6458(5) 0.8425(3)
C4 C 0.7251(6) 0.7374(5) 0.8138(3)
C5 C 0.6151(6) 0.7534(6) 0.8427(4)
H3 H 0.568(5) 0.818(4) 0.823(3)
C6 C 0.5869(6) 0.6828(6) 0.9025(4)
H4 H 0.514(3) 0.693(6) 0.922(3)
C7 C 0.6649(5) 0.5905(5) 0.9327(3)
C8 C 0.7701(5) 0.5644(5) 0.9017(3)
C9 C 0.8318(5) 0.4610(5) 0.9434(3)
C10 C 0.7805(5) 0.4293(5) 1.0076(3)
C11 C 0.8316(7) 0.3495(6) 1.0613(3)
H5 H 0.787(5) 0.331(5) 1.1016(19)
C12 C 0.9419(6) 0.3005(6) 1.0516(3)
H6 H 0.977(5) 0.245(4) 1.087(2)
C13 C 0.9906(5) 0.3225(5) 0.9874(3)
C14 C 0.9327(5) 0.3912(5) 0.9306(3)
C15 C 0.9911(5) 0.3783(4) 0.8678(3)
C16 C 1.1046(5) 0.3267(5) 0.8810(3)
C17 C 1.1855(6) 0.3248(6) 0.8283(4)
H7 H 1.255(3) 0.284(5) 0.844(3)
C18 C 1.1548(6) 0.3733(6) 0.7641(4)
H8 H 1.203(5) 0.385(6) 0.726(2)
C19 C 1.0384(6) 0.4115(5) 0.7495(3)
C20 C 0.9507(5) 0.4006(5) 0.7998(3)
C21 C 0.8348(5) 0.4235(5) 0.7720(3)
C22 C 0.8383(6) 0.4814(5) 0.7036(3)
C23 C 0.7395(7) 0.5374(6) 0.6685(3)
H9 H 0.747(6) 0.589(5) 0.6267(18)
C24 C 0.6335(6) 0.5308(6) 0.7014(3)
H10 H 0.562(3) 0.567(5) 0.684(3)
C25 C 0.6243(5) 0.4595(5) 0.7659(3)
C26 C 0.7214(5) 0.3968(5) 0.8010(3)
C27 C 0.6848(5) 0.3139(5) 0.8600(3)
C28 C 0.5641(5) 0.3295(5) 0.8741(3)
C29 C 0.5065(5) 0.2604(5) 0.9278(3)
H11 H 0.427(2) 0.274(5) 0.935(3)
C30 C 0.5658(6) 0.1680(6) 0.9696(3)
H12 H 0.531(5) 0.119(5) 1.007(2)
C31 C 0.6833(6) 0.1434(5) 0.9538(3)
C32 C 0.7432(5) 0.2107(5) 0.8987(3)
C33 C 0.8531(5) 0.1520(5) 0.8871(3)
H13 H 0.898(4) 0.182(5) 0.8491(19)
C34 C 0.8740(6) 0.0509(6) 0.9324(3)
H14 H 0.937(4) -0.003(4) 0.934(3)
S7 S 0.76445(17) 1.32009(15) 0.28353(9)
S8 S 0.78073(15) 0.92683(14) 0.54049(7)
S9 S 0.33285(14) 0.78813(14) 0.40693(8)
S10 S 0.61200(15) 0.99808(15) 0.14959(7)
S11 S 1.02549(14) 0.87586(16) 0.35070(9)
S12 S 0.68388(19) 0.49526(15) 0.48337(9)
C35 C 0.6340(6) 1.2601(5) 0.2684(3)
H15 H 0.590(5) 1.301(5) 0.231(2)
C36 C 0.6116(5) 1.1575(5) 0.3113(3)
H16 H 0.545(3) 1.114(4) 0.307(3)
C37 C 0.7038(5) 1.1205(5) 0.3602(3)
C38 C 0.7943(5) 1.2049(5) 0.3523(3)
C39 C 0.8852(6) 1.1992(6) 0.3975(3)
H17 H 0.952(3) 1.243(5) 0.398(3)
C40 C 0.8873(6) 1.1113(6) 0.4541(3)
H18 H 0.945(4) 1.099(5) 0.488(2)
C41 C 0.7996(5) 1.0264(5) 0.4654(3)
C42 C 0.7116(5) 1.0239(4) 0.4170(3)
C43 C 0.6323(5) 0.9277(4) 0.4410(3)
C44 C 0.6517(5) 0.8797(5) 0.5098(3)
C45 C 0.5736(6) 0.8037(5) 0.5495(3)
H19 H 0.593(5) 0.785(5) 0.5956(13)
C46 C 0.4715(6) 0.7788(5) 0.5212(3)
H20 H 0.414(4) 0.739(5) 0.548(3)
C47 C 0.4545(5) 0.8166(5) 0.4515(3)
C48 C 0.5394(5) 0.8809(4) 0.4089(3)
C49 C 0.5127(5) 0.8863(4) 0.3383(3)
C50 C 0.3963(5) 0.8520(5) 0.3303(3)
C51 C 0.3405(5) 0.8686(6) 0.2676(3)
H21 H 0.263(2) 0.849(5) 0.262(3)
C52 C 0.4031(6) 0.9182(6) 0.2112(3)
H22 H 0.367(5) 0.938(5) 0.1688(17)
C53 C 0.5218(5) 0.9372(5) 0.2167(3)
C54 C 0.5833(5) 0.9097(4) 0.2787(3)
C55 C 0.7092(5) 0.9173(5) 0.2682(3)
C56 C 0.7351(5) 0.9780(5) 0.2017(3)
C57 C 0.8463(6) 1.0159(6) 0.1809(3)
H23 H 0.853(5) 1.059(5) 0.1369(15)
C58 C 0.9348(6) 0.9929(6) 0.2268(4)
H24 H 1.007(3) 1.024(5) 0.214(3)
C59 C 0.9162(5) 0.9215(5) 0.2912(3)
C60 C 0.8069(5) 0.8730(5) 0.3108(3)
C61 C 0.8178(5) 0.7798(5) 0.3712(3)
C62 C 0.9315(5) 0.7780(5) 0.4001(3)
C63 C 0.9661(6) 0.6969(6) 0.4593(3)
H25 H 1.042(3) 0.696(6) 0.477(3)
C64 C 0.8896(6) 0.6136(6) 0.4891(3)
H26 H 0.907(5) 0.559(4) 0.5296(19)
C65 C 0.7820(6) 0.6072(5) 0.4579(3)
C66 C 0.7451(6) 0.6858(5) 0.3987(3)
C67 C 0.6386(6) 0.6465(5) 0.3732(3)
H27 H 0.604(5) 0.687(5) 0.3331(18)
C68 C 0.5991(6) 0.5490(6) 0.4127(4)
H28 H 0.528(3) 0.514(5) 0.407(3)
S7 S 0.23555(17) -0.32009(15) 0.71647(9)
S8 S 0.21927(15) 0.07317(14) 0.45951(7)
S9 S 0.66715(14) 0.21187(14) 0.59307(8)
S10 S 0.38800(15) 0.00192(15) 0.85041(7)
S11 S -0.02549(14) 0.12414(16) 0.64930(9)
S12 S 0.31612(19) 0.50474(15) 0.51663(9)
C35 C 0.3660(6) -0.2601(5) 0.7316(3)
H15 H 0.410(5) -0.301(5) 0.769(2)
C36 C 0.3884(5) -0.1575(5) 0.6887(3)
H16 H 0.455(3) -0.114(4) 0.693(3)
C37 C 0.2962(5) -0.1205(5) 0.6398(3)
C38 C 0.2057(5) -0.2049(5) 0.6477(3)
C39 C 0.1148(6) -0.1992(6) 0.6025(3)
H17 H 0.048(3) -0.243(5) 0.602(3)
C40 C 0.1127(6) -0.1113(6) 0.5459(3)
H18 H 0.055(4) -0.099(5) 0.512(2)
C41 C 0.2004(5) -0.0264(5) 0.5346(3)
C42 C 0.2884(5) -0.0239(4) 0.5830(3)
C43 C 0.3677(5) 0.0723(4) 0.5590(3)
C44 C 0.3483(5) 0.1203(5) 0.4902(3)
C45 C 0.4264(6) 0.1963(5) 0.4505(3)
H19 H 0.407(5) 0.215(5) 0.4044(13)
C46 C 0.5285(6) 0.2212(5) 0.4788(3)
H20 H 0.586(4) 0.261(5) 0.452(3)
C47 C 0.5455(5) 0.1834(5) 0.5485(3)
C48 C 0.4606(5) 0.1191(4) 0.5911(3)
C49 C 0.4873(5) 0.1137(4) 0.6617(3)
C50 C 0.6037(5) 0.1480(5) 0.6697(3)
C51 C 0.6595(5) 0.1314(6) 0.7324(3)
H21 H 0.737(2) 0.151(5) 0.738(3)
C52 C 0.5969(6) 0.0818(6) 0.7888(3)
H22 H 0.633(5) 0.062(5) 0.8312(17)
C53 C 0.4782(5) 0.0628(5) 0.7833(3)
C54 C 0.4167(5) 0.0903(4) 0.7213(3)
C55 C 0.2908(5) 0.0827(5) 0.7318(3)
C56 C 0.2649(5) 0.0220(5) 0.7983(3)
C57 C 0.1537(6) -0.0159(6) 0.8191(3)
H23 H 0.147(5) -0.059(5) 0.8631(15)
C58 C 0.0652(6) 0.0071(6) 0.7732(4)
H24 H -0.007(3) -0.024(5) 0.786(3)
C59 C 0.0838(5) 0.0785(5) 0.7088(3)
C60 C 0.1931(5) 0.1270(5) 0.6892(3)
C61 C 0.1822(5) 0.2202(5) 0.6288(3)
C62 C 0.0685(5) 0.2220(5) 0.5999(3)
C63 C 0.0339(6) 0.3031(6) 0.5407(3)
H25 H -0.042(3) 0.304(6) 0.523(3)
C64 C 0.1104(6) 0.3864(6) 0.5109(3)
H26 H 0.093(5) 0.441(4) 0.4704(19)
C65 C 0.2180(6) 0.3928(5) 0.5421(3)
C66 C 0.2549(6) 0.3142(5) 0.6013(3)
C67 C 0.3614(6) 0.3535(5) 0.6268(3)
H27 H 0.396(5) 0.313(5) 0.6669(18)
C68 C 0.4009(6) 0.4510(6) 0.5873(4)
H28 H 0.472(3) 0.486(5) 0.593(3)

#END
