
#######################################################################
#
#                 Cambridge Crystallographic Data Centre
#                                CCDC 
#
#######################################################################
#
# If this CIF has been generated from an entry in the Cambridge 
# Structural Database, then it will include bibliographic, chemical, 
# crystal, experimental, refinement or atomic coordinate data resulting 
# from the CCDC's data processing and validation procedures.
#
#######################################################################

data_ADICIB
_symmetry_cell_setting           monoclinic
_symmetry_space_group_name_H-M   'P 21'
_symmetry_Int_Tables_number      4
_space_group_name_Hall           'P 2yb'
loop_
_symmetry_equiv_pos_site_id
_symmetry_equiv_pos_as_xyz
1 x,y,z
2 -x,1/2+y,-z
_cell_length_a                   8.3746(10)
_cell_length_b                   5.6910(7)
_cell_length_c                   15.6697(18)
_cell_angle_alpha                90
_cell_angle_beta                 101.539(3)
_cell_angle_gamma                90
_cell_volume                     731.721
loop_
_atom_site_label
_atom_site_type_symbol
_atom_site_fract_x
_atom_site_fract_y
_atom_site_fract_z
Br1 Br 0.81922(3) 0.74450(5) 0.790245(15)
O1 O 0.4641(2) 1.1674(3) 0.64384(12)
O2 O 0.4584(3) 1.4168(4) 0.53657(13)
C1 C 0.6945(4) 0.9160(5) 0.69110(18)
H1 H 0.6412 0.8004 0.6463
C2 C 0.5626(3) 1.0591(5) 0.72167(17)
H2 H 0.6160 1.1863 0.7613
C3 C 0.5405(3) 1.2930(4) 0.59048(16)
C4 C 0.7201(3) 1.2682(6) 0.60227(15)
C5 C 0.8074(4) 1.4295(5) 0.56331(17)
H3 H 0.7528 1.5567 0.5305
C6 C 0.9745(4) 1.4044(6) 0.57246(18)
H4 H 1.0354 1.5170 0.5476
C7 C 1.0525(3) 1.2146(7) 0.61794(16)
H5 H 1.1667 1.1957 0.6228
C8 C 0.9658(4) 1.0512(5) 0.65664(17)
H6 H 1.0208 0.9211 0.6873
C9 C 0.7994(4) 1.0778(5) 0.65056(17)
C10 C 0.4510(3) 0.9249(5) 0.76692(18)
C11 C 0.3725(3) 0.7173(6) 0.73006(16)
H7 H 0.3822 0.6705 0.6731
C12 C 0.2825(4) 0.5835(5) 0.77597(18)
H8 H 0.2319 0.4435 0.7509
C13 C 0.2641(4) 0.6527(5) 0.86117(19)
C14 C 0.1737(4) 0.5158(5) 0.91052(19)
H9 H 0.1242 0.3736 0.8870
C15 C 0.1572(4) 0.5863(6) 0.9912(2)
H10 H 0.0973 0.4927 1.0240
C16 C 0.2290(4) 0.7984(5) 1.02616(18)
H11 H 0.2156 0.8476 1.0822
C17 C 0.3176(4) 0.9345(5) 0.98066(19)
H12 H 0.3661 1.0761 1.0055
C18 C 0.3373(4) 0.8646(5) 0.89660(18)
C19 C 0.4314(4) 0.9964(5) 0.84768(18)
H13 H 0.4820 1.1377 0.8715
Br1 Br 0.18078(3) 0.24450(5) 0.209755(15)
O1 O 0.5359(2) 0.6674(3) 0.35616(12)
O2 O 0.5416(3) 0.9168(4) 0.46343(13)
C1 C 0.3055(4) 0.4160(5) 0.30890(18)
H1 H 0.3588 0.3004 0.3537
C2 C 0.4374(3) 0.5591(5) 0.27833(17)
H2 H 0.3840 0.6863 0.2387
C3 C 0.4595(3) 0.7930(4) 0.40952(16)
C4 C 0.2799(3) 0.7682(6) 0.39773(15)
C5 C 0.1926(4) 0.9295(5) 0.43669(17)
H3 H 0.2472 1.0567 0.4695
C6 C 0.0255(4) 0.9044(6) 0.42754(18)
H4 H -0.0354 1.0170 0.4524
C7 C -0.0525(3) 0.7146(7) 0.38206(16)
H5 H -0.1667 0.6957 0.3772
C8 C 0.0342(4) 0.5512(5) 0.34336(17)
H6 H -0.0208 0.4211 0.3127
C9 C 0.2006(4) 0.5778(5) 0.34944(17)
C10 C 0.5490(3) 0.4249(5) 0.23308(18)
C11 C 0.6275(3) 0.2173(6) 0.26994(16)
H7 H 0.6178 0.1705 0.3269
C12 C 0.7175(4) 0.0835(5) 0.22403(18)
H8 H 0.7681 -0.0565 0.2491
C13 C 0.7359(4) 0.1527(5) 0.13883(19)
C14 C 0.8263(4) 0.0158(5) 0.08948(19)
H9 H 0.8758 -0.1264 0.1130
C15 C 0.8428(4) 0.0863(6) 0.0088(2)
H10 H 0.9027 -0.0073 -0.0240
C16 C 0.7710(4) 0.2984(5) -0.02616(18)
H11 H 0.7844 0.3476 -0.0822
C17 C 0.6824(4) 0.4345(5) 0.01934(19)
H12 H 0.6339 0.5761 -0.0055
C18 C 0.6627(4) 0.3646(5) 0.10340(18)
C19 C 0.5686(4) 0.4964(5) 0.15232(18)
H13 H 0.5180 0.6377 0.1285

#END
