
#######################################################################
#
#                 Cambridge Crystallographic Data Centre
#                                CCDC 
#
#######################################################################
#
# If this CIF has been generated from an entry in the Cambridge 
# Structural Database, then it will include bibliographic, chemical, 
# crystal, experimental, refinement or atomic coordinate data resulting 
# from the CCDC's data processing and validation procedures.
#
#######################################################################

data_ADIFEA
_symmetry_cell_setting           monoclinic
_symmetry_space_group_name_H-M   'P 21/c'
_symmetry_Int_Tables_number      14
_space_group_name_Hall           '-P 2ybc'
loop_
_symmetry_equiv_pos_site_id
_symmetry_equiv_pos_as_xyz
1 x,y,z
2 -x,1/2+y,1/2-z
3 -x,-y,-z
4 x,1/2-y,1/2+z
_cell_length_a                   9.3017(7)
_cell_length_b                   9.7642(7)
_cell_length_c                   21.9140(16)
_cell_angle_alpha                90
_cell_angle_beta                 92.5030(10)
_cell_angle_gamma                90
_cell_volume                     1988.41
loop_
_atom_site_label
_atom_site_type_symbol
_atom_site_fract_x
_atom_site_fract_y
_atom_site_fract_z
O1 O 0.12191(18) 0.92115(15) -0.09501(6)
O2 O 0.23326(12) 0.73918(11) -0.06412(5)
O3 O 0.40871(10) 0.43099(10) 0.09393(5)
O4 O 0.49092(9) 0.64331(9) 0.07822(5)
N1 N 0.20036(14) 0.85947(13) -0.05851(5)
N2 N 0.04797(11) 0.73725(11) 0.05451(5)
N3 N 0.00496(11) 0.61086(11) 0.06473(5)
N4 N 0.12148(11) 0.53409(10) 0.07692(4)
C1 C 0.26850(13) 0.87307(12) 0.05166(5)
C2 C 0.26171(14) 0.93504(13) -0.00562(6)
C3 C 0.31590(16) 1.06367(14) -0.01727(6)
C4 C 0.38479(16) 1.13365(14) 0.03014(7)
C5 C 0.39469(14) 1.07557(14) 0.08779(6)
C6 C 0.33611(12) 0.94690(13) 0.10000(5)
C7 C 0.34389(13) 0.89630(13) 0.16398(5)
C8 C 0.47391(15) 0.90094(17) 0.19781(6)
C9 C 0.48196(16) 0.86210(19) 0.25852(7)
C10 C 0.35965(16) 0.81830(15) 0.28662(6)
C11 C 0.22954(15) 0.81383(13) 0.25375(6)
C12 C 0.22153(13) 0.85241(13) 0.19276(6)
C13 C 0.19404(13) 0.74098(12) 0.06093(5)
C14 C 0.24319(13) 0.61140(12) 0.07508(5)
C15 C 0.38742(13) 0.55034(12) 0.08380(5)
C16 C 0.63642(15) 0.59018(17) 0.08664(9)
C17 C 0.10089(15) 0.39030(13) 0.09391(6)
C18 C 0.12339(13) 0.36606(12) 0.16179(6)
C19 C 0.11893(14) 0.47164(13) 0.20408(6)
C20 C 0.13384(14) 0.44434(15) 0.26612(6)
C21 C 0.15294(14) 0.31133(15) 0.28650(6)
C22 C 0.15887(15) 0.20527(15) 0.24459(7)
C23 C 0.14366(14) 0.23246(13) 0.18263(6)
H1 H 0.3086(18) 1.1008(17) -0.0579(8)
H2 H 0.4249(17) 1.2204(17) 0.0247(7)
H3 H 0.4396(16) 1.1278(16) 0.1209(7)
H4 H 0.5607(18) 0.9311(17) 0.1777(7)
H5 H 0.5721(19) 0.8647(18) 0.2806(8)
H6 H 0.3640(17) 0.7904(16) 0.3287(8)
H7 H 0.1424(17) 0.7864(16) 0.2733(7)
H8 H 0.1321(16) 0.8536(14) 0.1708(7)
H9 H 0.654(2) 0.562(2) 0.1299(9)
H10 H 0.700(2) 0.663(2) 0.0763(8)
H11 H 0.647(2) 0.511(2) 0.0619(9)
H12 H 0.0036(17) 0.3703(16) 0.0812(7)
H13 H 0.1673(17) 0.3318(16) 0.0703(7)
H14 H 0.1055(16) 0.5662(17) 0.1905(7)
H15 H 0.1283(17) 0.5192(17) 0.2943(7)
H16 H 0.1614(16) 0.2937(16) 0.3301(7)
H17 H 0.1725(17) 0.1144(17) 0.2577(7)
H18 H 0.1440(17) 0.1594(17) 0.1540(7)
O1 O 0.87809(18) 0.42115(15) 0.59501(6)
O2 O 0.76674(12) 0.23918(11) 0.56412(5)
O3 O 0.59129(10) -0.06901(10) 0.40607(5)
O4 O 0.50908(9) 0.14331(9) 0.42178(5)
N1 N 0.79964(14) 0.35947(13) 0.55851(5)
N2 N 0.95203(11) 0.23725(11) 0.44549(5)
N3 N 0.99504(11) 0.11086(11) 0.43527(5)
N4 N 0.87852(11) 0.03409(10) 0.42308(4)
C1 C 0.73150(13) 0.37307(12) 0.44834(5)
C2 C 0.73829(14) 0.43504(13) 0.50562(6)
C3 C 0.68410(16) 0.56367(14) 0.51727(6)
C4 C 0.61521(16) 0.63365(14) 0.46986(7)
C5 C 0.60531(14) 0.57557(14) 0.41221(6)
C6 C 0.66389(12) 0.44690(13) 0.40000(5)
C7 C 0.65611(13) 0.39630(13) 0.33602(5)
C8 C 0.52609(15) 0.40094(17) 0.30219(6)
C9 C 0.51804(16) 0.36210(19) 0.24148(7)
C10 C 0.64035(16) 0.31830(15) 0.21338(6)
C11 C 0.77046(15) 0.31383(13) 0.24625(6)
C12 C 0.77847(13) 0.35241(13) 0.30724(6)
C13 C 0.80596(13) 0.24098(12) 0.43907(5)
C14 C 0.75681(13) 0.11140(12) 0.42492(5)
C15 C 0.61258(13) 0.05034(12) 0.41620(5)
C16 C 0.36358(15) 0.09018(17) 0.41336(9)
C17 C 0.89911(15) -0.10970(13) 0.40609(6)
C18 C 0.87661(13) -0.13394(12) 0.33821(6)
C19 C 0.88107(14) -0.02836(13) 0.29592(6)
C20 C 0.86616(14) -0.05566(15) 0.23388(6)
C21 C 0.84706(14) -0.18867(15) 0.21350(6)
C22 C 0.84113(15) -0.29473(15) 0.25541(7)
C23 C 0.85634(14) -0.26754(13) 0.31737(6)
H1 H 0.6914(18) 0.6008(17) 0.5579(8)
H2 H 0.5751(17) 0.7204(17) 0.4753(7)
H3 H 0.5604(16) 0.6278(16) 0.3791(7)
H4 H 0.4393(18) 0.4311(17) 0.3223(7)
H5 H 0.4279(19) 0.3647(18) 0.2194(8)
H6 H 0.6360(17) 0.2904(16) 0.1713(8)
H7 H 0.8576(17) 0.2864(16) 0.2267(7)
H8 H 0.8679(16) 0.3536(14) 0.3292(7)
H9 H 0.346(2) 0.062(2) 0.3701(9)
H10 H 0.300(2) 0.163(2) 0.4237(8)
H11 H 0.353(2) 0.011(2) 0.4381(9)
H12 H 0.9964(17) -0.1297(16) 0.4188(7)
H13 H 0.8327(17) -0.1682(16) 0.4297(7)
H14 H 0.8945(16) 0.0662(17) 0.3095(7)
H15 H 0.8717(17) 0.0192(17) 0.2057(7)
H16 H 0.8386(16) -0.2063(16) 0.1699(7)
H17 H 0.8275(17) -0.3856(17) 0.2423(7)
H18 H 0.8560(17) -0.3406(17) 0.3460(7)
O1 O 0.87809(18) 0.07885(15) 1.09501(6)
O2 O 0.76674(12) 0.26082(11) 1.06412(5)
O3 O 0.59129(10) 0.56901(10) 0.90607(5)
O4 O 0.50908(9) 0.35669(9) 0.92178(5)
N1 N 0.79964(14) 0.14053(13) 1.05851(5)
N2 N 0.95203(11) 0.26275(11) 0.94549(5)
N3 N 0.99504(11) 0.38914(11) 0.93527(5)
N4 N 0.87852(11) 0.46591(10) 0.92308(4)
C1 C 0.73150(13) 0.12693(12) 0.94834(5)
C2 C 0.73829(14) 0.06496(13) 1.00562(6)
C3 C 0.68410(16) -0.06367(14) 1.01727(6)
C4 C 0.61521(16) -0.13365(14) 0.96986(7)
C5 C 0.60531(14) -0.07557(14) 0.91221(6)
C6 C 0.66389(12) 0.05310(13) 0.90000(5)
C7 C 0.65611(13) 0.10370(13) 0.83602(5)
C8 C 0.52609(15) 0.09906(17) 0.80219(6)
C9 C 0.51804(16) 0.13790(19) 0.74148(7)
C10 C 0.64035(16) 0.18170(15) 0.71338(6)
C11 C 0.77046(15) 0.18617(13) 0.74625(6)
C12 C 0.77847(13) 0.14759(13) 0.80724(6)
C13 C 0.80596(13) 0.25902(12) 0.93907(5)
C14 C 0.75681(13) 0.38860(12) 0.92492(5)
C15 C 0.61258(13) 0.44966(12) 0.91620(5)
C16 C 0.36358(15) 0.40982(17) 0.91336(9)
C17 C 0.89911(15) 0.60970(13) 0.90609(6)
C18 C 0.87661(13) 0.63394(12) 0.83821(6)
C19 C 0.88107(14) 0.52836(13) 0.79592(6)
C20 C 0.86616(14) 0.55566(15) 0.73388(6)
C21 C 0.84706(14) 0.68867(15) 0.71350(6)
C22 C 0.84113(15) 0.79473(15) 0.75541(7)
C23 C 0.85634(14) 0.76754(13) 0.81737(6)
H1 H 0.6914(18) -0.1008(17) 1.0579(8)
H2 H 0.5751(17) -0.2204(17) 0.9753(7)
H3 H 0.5604(16) -0.1278(16) 0.8791(7)
H4 H 0.4393(18) 0.0689(17) 0.8223(7)
H5 H 0.4279(19) 0.1353(18) 0.7194(8)
H6 H 0.6360(17) 0.2096(16) 0.6713(8)
H7 H 0.8576(17) 0.2136(16) 0.7267(7)
H8 H 0.8679(16) 0.1464(14) 0.8292(7)
H9 H 0.346(2) 0.438(2) 0.8701(9)
H10 H 0.300(2) 0.337(2) 0.9237(8)
H11 H 0.353(2) 0.489(2) 0.9381(9)
H12 H 0.9964(17) 0.6297(16) 0.9188(7)
H13 H 0.8327(17) 0.6682(16) 0.9297(7)
H14 H 0.8945(16) 0.4338(17) 0.8095(7)
H15 H 0.8717(17) 0.4808(17) 0.7057(7)
H16 H 0.8386(16) 0.7063(16) 0.6699(7)
H17 H 0.8275(17) 0.8856(17) 0.7423(7)
H18 H 0.8560(17) 0.8406(17) 0.8460(7)
O1 O 0.12191(18) 0.57885(15) 0.40499(6)
O2 O 0.23326(12) 0.76082(11) 0.43588(5)
O3 O 0.40871(10) 1.06901(10) 0.59393(5)
O4 O 0.49092(9) 0.85669(9) 0.57822(5)
N1 N 0.20036(14) 0.64053(13) 0.44149(5)
N2 N 0.04797(11) 0.76275(11) 0.55451(5)
N3 N 0.00496(11) 0.88914(11) 0.56473(5)
N4 N 0.12148(11) 0.96591(10) 0.57692(4)
C1 C 0.26850(13) 0.62693(12) 0.55166(5)
C2 C 0.26171(14) 0.56496(13) 0.49438(6)
C3 C 0.31590(16) 0.43633(14) 0.48273(6)
C4 C 0.38479(16) 0.36635(14) 0.53014(7)
C5 C 0.39469(14) 0.42443(14) 0.58779(6)
C6 C 0.33611(12) 0.55310(13) 0.60000(5)
C7 C 0.34389(13) 0.60370(13) 0.66398(5)
C8 C 0.47391(15) 0.59906(17) 0.69781(6)
C9 C 0.48196(16) 0.63790(19) 0.75852(7)
C10 C 0.35965(16) 0.68170(15) 0.78662(6)
C11 C 0.22954(15) 0.68617(13) 0.75375(6)
C12 C 0.22153(13) 0.64759(13) 0.69276(6)
C13 C 0.19404(13) 0.75902(12) 0.56093(5)
C14 C 0.24319(13) 0.88860(12) 0.57508(5)
C15 C 0.38742(13) 0.94966(12) 0.58380(5)
C16 C 0.63642(15) 0.90982(17) 0.58664(9)
C17 C 0.10089(15) 1.10970(13) 0.59391(6)
C18 C 0.12339(13) 1.13394(12) 0.66179(6)
C19 C 0.11893(14) 1.02836(13) 0.70408(6)
C20 C 0.13384(14) 1.05566(15) 0.76612(6)
C21 C 0.15294(14) 1.18867(15) 0.78650(6)
C22 C 0.15887(15) 1.29473(15) 0.74459(7)
C23 C 0.14366(14) 1.26754(13) 0.68263(6)
H1 H 0.3086(18) 0.3992(17) 0.4421(8)
H2 H 0.4249(17) 0.2796(17) 0.5247(7)
H3 H 0.4396(16) 0.3722(16) 0.6209(7)
H4 H 0.5607(18) 0.5689(17) 0.6777(7)
H5 H 0.5721(19) 0.6353(18) 0.7806(8)
H6 H 0.3640(17) 0.7096(16) 0.8287(8)
H7 H 0.1424(17) 0.7136(16) 0.7733(7)
H8 H 0.1321(16) 0.6464(14) 0.6708(7)
H9 H 0.654(2) 0.938(2) 0.6299(9)
H10 H 0.700(2) 0.837(2) 0.5763(8)
H11 H 0.647(2) 0.989(2) 0.5619(9)
H12 H 0.0036(17) 1.1297(16) 0.5812(7)
H13 H 0.1673(17) 1.1682(16) 0.5703(7)
H14 H 0.1055(16) 0.9338(17) 0.6905(7)
H15 H 0.1283(17) 0.9808(17) 0.7943(7)
H16 H 0.1614(16) 1.2063(16) 0.8301(7)
H17 H 0.1725(17) 1.3856(17) 0.7577(7)
H18 H 0.1440(17) 1.3406(17) 0.6540(7)

#END
