./ADIJEE_from_POSCAR.cif_generated_by_CrystalShift
_symmetry_cell_setting triclinic
_symmetry_space_group_name_H-M 'P 1'
loop_
_symmetry_equiv_pos_site_id
_symmetry_equiv_pos_as_xyz
1 x,y,z
_cell_length_a 9.589800
_cell_length_b 15.653000
_cell_length_c 11.054100
_cell_angle_alpha 90.000000
_cell_angle_beta 115.637000
_cell_angle_gamma 90.000000
_cell_volume 1495.966734
loop_
_atom_site_label
_atom_site_type_symbol
_atom_site_fract_x
_atom_site_fract_y
_atom_site_fract_z
H1 H -0.066100 0.099100 0.028900
H2 H 0.444000 0.592300 1.533600
H3 H -0.033600 0.017200 0.373000
H4 H 0.553200 0.674500 1.563600
H5 H 0.302300 0.706700 1.398600
H6 H 0.874300 0.486700 -0.095300
H7 H 0.425900 0.715200 1.337100
H8 H 0.374300 0.013300 0.404700
H9 H 1.071800 0.353900 0.282500
H10 H 0.533600 0.517200 1.127000
H11 H 1.172900 0.305900 0.504100
H12 H -0.284800 0.683200 0.260100
H13 H -0.212200 0.732800 0.174200
H14 H 0.832000 0.432200 0.555000
H15 H -0.177600 0.765200 0.321800
H16 H 0.729700 0.478400 0.333700
H17 H 0.784800 0.183200 1.239900
H18 H 0.270300 0.521600 0.666300
H19 H 1.177600 0.234800 0.678200
H20 H 1.212200 0.267200 0.825800
H21 H 1.284800 0.316800 0.739900
H22 H 0.712200 0.232800 1.325800
H23 H 0.466400 0.482800 -0.127000
H24 H 0.168000 0.567800 0.445000
H25 H 0.056000 0.092300 -0.033600
H26 H -0.053200 0.174500 -0.063600
H27 H -0.172900 0.694100 0.495900
H28 H -0.071800 0.646100 0.717500
H29 H 0.677600 0.265200 1.178200
H30 H 0.125700 0.513300 1.095300
H31 H 0.571800 0.146100 0.782500
H32 H 0.574100 0.284800 -0.337100
H33 H 0.697700 0.293300 -0.398600
H34 H 1.066100 0.900900 0.971100
H35 H 0.446800 0.325500 -0.563600
H36 H 0.556000 0.407700 -0.533600
H37 H 0.433900 0.400900 -0.471100
H38 H 0.229700 0.021600 0.833700
H39 H 0.944000 0.907700 1.033600
H40 H 1.053200 0.825500 1.063600
H41 H 0.802300 0.793300 0.898600
H42 H 0.925900 0.784800 0.837100
H43 H 0.625700 0.986700 0.595300
H44 H 0.672900 0.194100 1.004100
H45 H 0.074100 0.215200 0.162900
H46 H 0.428200 0.853900 0.217500
H47 H 0.197700 0.206700 0.101400
H48 H 0.327100 0.805900 -0.004100
H49 H 1.033600 0.982800 0.627000
H50 H 0.215200 0.816800 -0.239900
H51 H 0.668000 0.932200 -0.055000
H52 H 0.287800 0.767200 -0.325800
H53 H 0.770300 0.978400 0.166300
H54 H 0.332000 0.067800 1.055000
H55 H 0.322400 0.734800 -0.178200
H56 H 0.566100 0.599100 1.471100
C57 C 0.680490 0.943380 0.131830
C58 C 0.620200 0.915880 0.000830
C59 C 0.379800 0.084120 0.999170
C60 C 0.488580 0.863840 -0.050390
C61 C 0.806270 1.095170 0.578770
C62 C 0.416980 0.840850 0.030580
C63 C 0.477540 0.869250 0.162420
C64 C 0.124200 0.174630 0.125290
C65 C 0.742400 0.869920 0.648540
C66 C 0.511420 0.136160 1.050390
C67 C 0.609850 0.919980 0.214830
C68 C 0.875800 0.825370 0.874710
C69 C 0.686280 0.949330 0.562020
C70 C 0.822650 0.999910 0.556060
C71 C 0.995000 0.868590 0.996270
C72 C 0.319510 0.056620 0.868170
C73 C 0.675620 0.946770 0.354720
C74 C 0.505000 0.368590 -0.496270
C75 C 0.583020 0.159150 0.969420
C76 C 0.175620 0.553230 0.854720
C77 C 0.624200 0.325370 -0.374710
C78 C 0.322650 0.500090 1.056060
C79 C 0.186280 0.550670 1.062020
C80 C 0.694390 0.214750 1.235390
C81 C 0.109850 0.580020 0.714830
C82 C -0.022460 0.630750 0.662420
C83 C 0.757600 0.369920 -0.148540
C84 C -0.083020 0.659150 0.530580
C85 C 0.005000 0.131410 0.003730
C86 C -0.011420 0.636160 0.449610
C87 C 0.120200 0.584120 0.500830
C88 C 0.693730 0.595170 -0.078770
C89 C 0.180490 0.556620 0.631830
C90 C 1.194390 0.285250 0.735390
C91 C 0.522460 0.130750 0.837580
C92 C -0.194390 0.714750 0.264610
C93 C 0.819510 0.443380 0.368170
C94 C 0.879800 0.415880 0.499170
C95 C 1.011420 0.363840 0.550390
C96 C 0.390150 0.080020 0.785170
C97 C 1.083020 0.340850 0.469420
C98 C 0.306270 0.404830 1.078770
C99 C 1.022460 0.369250 0.337580
C100 C 0.313720 0.050670 0.437980
C101 C 0.257600 0.130080 0.351460
C102 C 0.242400 0.630080 1.148540
C103 C 0.177350 0.000090 0.443940
C104 C 0.324380 0.053230 0.645280
C105 C 0.375800 0.674630 1.374710
C106 C 0.890150 0.419980 0.285170
C107 C 0.813720 0.449330 -0.062020
C108 C 0.495000 0.631410 1.496270
C109 C 0.677350 0.499910 -0.056060
C110 C 0.824380 0.446770 0.145280
C111 C 0.305610 0.785250 -0.235390
C112 C 0.193730 -0.095170 0.421230
N113 N 0.802350 0.987960 0.418610
N114 N 0.197650 0.012040 0.581390
N115 N 0.697650 0.487960 0.081390
N116 N 0.302350 0.512040 0.918610
O117 O 0.205520 0.108370 0.223170
O118 O 0.463990 0.529790 1.150890
O119 O -0.060540 0.660730 0.319880
O120 O 0.260150 0.200490 0.395110
O121 O 0.094070 0.574820 0.924950
O122 O 0.794480 0.891630 0.776830
O123 O 0.239850 0.700490 1.104890
O124 O 0.963990 0.970210 0.650890
O125 O 0.439460 0.839270 -0.180120
O126 O 0.294480 0.608370 1.276830
O127 O 0.594070 0.925180 0.424950
O128 O 0.560540 0.160730 1.180120
O129 O 0.705520 0.391630 -0.276830
O130 O 0.760150 0.299510 -0.104890
O131 O 0.536010 0.470210 -0.150890
O132 O 1.060540 0.339270 0.680120
O133 O 0.036010 0.029790 0.349110
O134 O 0.739850 0.799510 0.604890
O135 O 0.405930 0.074820 0.575050
O136 O 0.905930 0.425180 0.075050
F137 F 0.085140 -0.141720 0.435190
F138 F 0.332030 -0.125110 0.509450
F139 F 0.167970 0.374890 0.990550
F140 F 0.414860 0.358280 1.064810
F141 F 0.315730 0.390080 1.201090
F142 F 0.667970 1.125110 0.490550
F143 F 0.914860 1.141720 0.564810
F144 F 0.815730 1.109920 0.701090
F145 F 0.832030 0.625110 0.009450
F146 F 0.585140 0.641720 -0.064810
F147 F 0.684270 0.609920 -0.201090
F148 F 0.184270 -0.109920 0.298910

#END
