./ADIKOP_from_POSCAR.cif_generated_by_CrystalShift
_symmetry_cell_setting triclinic
_symmetry_space_group_name_H-M 'P 1'
loop_
_symmetry_equiv_pos_site_id
_symmetry_equiv_pos_as_xyz
1 x,y,z
_cell_length_a 11.063000
_cell_length_b 11.841000
_cell_length_c 15.632000
_cell_angle_alpha 106.815000
_cell_angle_beta 100.455000
_cell_angle_gamma 97.499000
_cell_volume 1890.870681
loop_
_atom_site_label
_atom_site_type_symbol
_atom_site_fract_x
_atom_site_fract_y
_atom_site_fract_z
H1 H 0.391200 0.384000 0.920300
H2 H 0.254800 0.351000 0.858800
H3 H 0.360100 0.833900 1.068100
H4 H 0.377700 0.731600 1.111700
H5 H 0.247300 0.728700 1.050700
H6 H 0.427000 0.531100 0.874000
H7 H 0.711200 0.500700 0.182200
H8 H 0.639200 0.379100 0.358500
H9 H 0.573000 0.468900 0.126000
H10 H 0.608800 0.616000 0.079700
H11 H 0.630100 0.647800 0.186600
H12 H 0.745200 0.649000 0.141200
H13 H 1.017900 0.496400 0.290400
H14 H 0.639900 0.166100 -0.068100
H15 H 0.622300 0.268400 -0.111700
H16 H 0.752700 0.271300 -0.050700
H17 H 0.288800 0.499300 0.817800
H18 H -0.120800 0.538800 0.972900
H19 H -0.312100 0.570900 0.912200
H20 H 0.611000 0.204100 0.701700
H21 H 0.601800 -0.035800 0.139600
H22 H 0.054500 0.605700 0.927700
H23 H 0.667200 -0.160100 0.024700
H24 H 0.664300 0.391000 0.687600
H25 H -0.080400 0.174500 0.801200
H26 H 0.842500 -0.090900 -0.022500
H27 H 0.019800 0.150000 0.410400
H28 H 0.953400 0.098600 0.048900
H29 H 0.150100 0.189200 0.390700
H30 H 1.154100 0.255900 0.235300
H31 H 0.054800 0.276700 0.399100
H32 H 0.807500 0.954700 0.309100
H33 H -0.329300 0.670800 0.807200
H34 H 0.648500 0.173100 0.392100
H35 H 0.215800 -0.003100 0.533400
H36 H 0.232000 0.050900 0.454800
H37 H 0.458400 0.123700 0.137100
H38 H 0.098000 0.015900 0.470400
H39 H 0.594400 0.897200 0.347200
H40 H 0.723400 0.947500 0.826200
H41 H 1.095000 0.702100 0.289600
H42 H 0.535100 0.894800 0.571700
H43 H 1.139200 0.660100 0.434300
H44 H 1.080700 0.640100 0.514200
H45 H 1.121300 0.770800 0.511700
H46 H 0.213400 0.436000 0.435700
H47 H 0.935500 0.950300 0.208200
H48 H 0.312900 0.353000 0.426800
H49 H 0.486700 0.522900 0.378700
H50 H 0.353000 0.487500 0.490200
H51 H 0.280400 0.040600 0.316900
H52 H 0.719600 0.959400 0.683100
H53 H 0.647000 0.512500 0.509800
H54 H 0.687100 0.647000 0.573200
H55 H 0.786600 0.564000 0.564300
H56 H 0.513300 0.477100 0.621300
H57 H 0.464900 0.105200 0.428300
H58 H 0.064500 0.049700 0.791800
H59 H 0.276600 0.052500 0.173800
H60 H -0.121300 0.229200 0.488300
H61 H -0.080700 0.359900 0.485800
H62 H 0.902000 0.984100 0.529600
H63 H 0.768000 0.949100 0.545200
H64 H 0.784200 1.003100 0.466600
H65 H -0.139200 0.339900 0.565700
H66 H 1.329300 0.329200 0.192800
H67 H -0.095000 0.297900 0.710400
H68 H 0.945200 0.723300 0.600900
H69 H 0.849900 0.810800 0.609300
H70 H 0.980200 0.850000 0.589600
H71 H 0.405600 0.102800 0.652800
H72 H 1.080400 0.825500 0.198800
H73 H 0.541600 0.876300 0.862900
H74 H 0.335700 0.609000 0.312400
H75 H 0.351500 0.826900 0.607900
H76 H 0.945500 0.394300 0.072300
H77 H 0.192500 0.045300 0.690900
H78 H 0.389000 0.795900 0.298300
H79 H -0.154100 0.744100 0.764700
H80 H 1.312100 0.429100 0.087800
H81 H 0.046600 0.901400 0.951100
H82 H 1.120800 0.461200 0.027100
H83 H 0.157500 1.090900 1.022500
H84 H 0.332800 1.160100 0.975300
H85 H 0.398200 1.035800 0.860400
H86 H -0.017900 0.503600 0.709600
H87 H 0.369900 0.352200 0.813400
H88 H 0.360800 0.620900 0.641500
C89 C 0.285500 0.598600 0.656290
C90 C 0.104100 0.449500 0.635110
C91 C 0.220000 0.484000 0.615840
C92 C 0.085000 0.727000 0.814200
C93 C 0.426200 0.846000 0.739800
C94 C 0.153300 0.844600 0.859410
C95 C 0.308100 0.805100 0.764610
C96 C 0.040000 0.244700 0.645700
C97 C -0.030000 0.683600 0.842400
C98 C 0.257500 0.380400 0.548900
C99 C 0.045100 0.318900 0.581800
C100 C 0.368000 0.340200 0.596500
C101 C 0.126100 0.169400 0.639500
C102 C 0.327900 1.006900 0.878400
C103 C 0.264400 0.885100 0.832700
C104 C 0.289200 1.081400 0.946700
C105 C 0.126200 0.647800 0.744330
C106 C 0.198400 0.174900 0.567000
C107 C 0.183000 1.040000 0.974500
C108 C 0.240800 0.685600 0.721140
C109 C 0.117400 0.926600 0.932100
C110 C 1.127900 0.420300 0.069800
C111 C -0.146200 0.702100 0.806600
C112 C 1.241300 0.401200 0.105600
C113 C 0.134800 0.096000 0.694700
C114 C 0.450500 0.761300 0.324300
C115 C 0.426100 0.851300 0.652500
C116 C 1.022600 0.379100 0.096400
C117 C 0.336100 0.229500 0.606700
C118 C 0.538900 0.881100 0.804200
C119 C 0.418500 0.649800 0.333200
C120 C 0.427100 0.177900 0.646200
C121 C 1.028300 0.826400 0.239400
C122 C -0.037300 0.247100 0.706300
C123 C 0.913200 0.783400 0.578300
C124 C -0.086300 0.311200 0.525100
C125 C 1.251200 0.341300 0.167400
C126 C 0.815200 0.952300 0.499800
C127 C 0.856000 0.729200 0.474410
C128 C 0.058300 0.098600 0.754800
C129 C 0.351800 0.076600 0.217900
C130 C 0.491500 0.401700 0.627300
C131 C 0.464100 0.107600 0.369300
C132 C 0.646100 0.929700 0.697000
C133 C 0.713100 0.582300 0.532100
C134 C 0.286900 0.417700 0.467900
C135 C 0.353900 0.070300 0.303000
C136 C 0.508500 0.598300 0.372700
C137 C 0.941700 0.901400 0.245200
C138 C 0.535900 0.892400 0.630700
C139 C 1.086300 0.688800 0.474900
C140 C 0.648200 0.923400 0.782100
C141 C 1.037300 0.752900 0.293700
C142 C 0.144000 0.270800 0.525590
C143 C 0.184800 0.047700 0.500200
C144 C 0.572900 0.822100 0.353800
C145 C 0.461100 0.118900 0.195800
C146 C 0.663900 0.770500 0.393300
C147 C -0.251200 0.658700 0.832600
C148 C 0.573900 0.148700 0.347500
C149 C 0.086800 0.216600 0.421700
C150 C 0.865200 0.904000 0.305300
C151 C 1.146200 0.297900 0.193400
C152 C 0.882600 0.073400 0.067900
C153 C -0.028300 0.173600 0.760600
C154 C 0.817000 -0.040000 0.025500
C155 C 0.581500 0.350200 0.666800
C156 C 0.801600 0.825100 0.433000
C157 C -0.022600 0.620900 0.903600
C158 C 0.710800 -0.081400 0.053300
C159 C 0.549500 0.238700 0.675700
C160 C 0.672100 -0.006900 0.121600
C161 C -0.241300 0.598800 0.894400
C162 C 0.873900 0.830600 0.360500
C163 C -0.127900 0.579700 0.930200
C164 C 0.632000 0.659800 0.403500
C165 C 0.954900 0.681100 0.418200
C166 C 0.663600 0.250400 -0.059000
C167 C 0.742500 0.619600 0.451100
C168 C 1.030000 0.316400 0.157600
C169 C 0.960000 0.755300 0.354300
C170 C 0.660600 0.609900 0.133900
C171 C 0.941400 0.471800 0.302600
C172 C 0.573800 0.154000 0.260200
C173 C 0.915000 0.273000 0.185800
C174 C 0.627400 0.318600 0.021200
C175 C 0.657900 0.502800 0.126400
C176 C 0.780000 0.516000 0.384160
C177 C 0.714500 0.401400 0.343710
C178 C 0.895900 0.550500 0.364890
C179 C 0.342100 0.497200 0.873600
C180 C 0.336400 0.749600 1.059000
C181 C 0.846700 0.155400 0.140590
C182 C 0.691900 0.194900 0.235390
C183 C 0.735600 0.114900 0.167300
C184 C 0.339400 0.390100 0.866100
C185 C 0.873800 0.352200 0.255670
C186 C 0.058600 0.528200 0.697400
C187 C 0.759200 0.314400 0.278860
C188 C 0.372600 0.681400 0.978800
O189 O 0.534400 0.328800 0.074500
O190 O 0.693800 0.418700 0.048200
O191 O 0.465600 0.671200 0.925500
O192 O 0.306200 0.581300 0.951800

#END
