
#######################################################################
#
#                 Cambridge Crystallographic Data Centre
#                                CCDC 
#
#######################################################################
#
# If this CIF has been generated from an entry in the Cambridge 
# Structural Database, then it will include bibliographic, chemical, 
# crystal, experimental, refinement or atomic coordinate data resulting 
# from the CCDC's data processing and validation procedures.
#
#######################################################################

data_ADIMOQ
_symmetry_cell_setting           orthorhombic
_symmetry_space_group_name_H-M   'P 21 21 21'
_symmetry_Int_Tables_number      19
_space_group_name_Hall           'P 2ac 2ab'
loop_
_symmetry_equiv_pos_site_id
_symmetry_equiv_pos_as_xyz
1 x,y,z
2 1/2-x,-y,1/2+z
3 1/2+x,1/2-y,-z
4 -x,1/2+y,1/2-z
_cell_length_a                   9.8840(16)
_cell_length_b                   11.7110(11)
_cell_length_c                   16.091(2)
_cell_angle_alpha                90
_cell_angle_beta                 90
_cell_angle_gamma                90
_cell_volume                     1862.56
loop_
_atom_site_label
_atom_site_type_symbol
_atom_site_fract_x
_atom_site_fract_y
_atom_site_fract_z
N1 N 0.31494(13) 1.20313(11) 0.46740(8)
C1 C 1.13433(11) 0.69818(9) 0.49314(7)
H1 H 1.2253 0.7326 0.4990
H2 H 1.1462 0.6183 0.4743
C2 C 1.05507(12) 0.76406(10) 0.42761(7)
H3 H 0.9639 0.7301 0.4211
H4 H 1.1023 0.7594 0.3735
C3 C 1.06394(10) 0.69816(8) 0.57821(6)
C4 C 1.16955(12) 0.66181(10) 0.64358(8)
H5 H 1.1236 0.6428 0.6957
H6 H 1.2331 0.7247 0.6531
H7 H 1.2191 0.5948 0.6234
C5 C 0.94896(12) 0.60955(9) 0.57858(8)
H8 H 0.9849 0.5348 0.5624
H9 H 0.8787 0.6328 0.5391
H10 H 0.9101 0.6046 0.6345
C6 C 1.04236(11) 0.88836(9) 0.45411(7)
H11 H 1.1305 0.9268 0.4458
H12 H 0.9752 0.9267 0.4180
C7 C 1.00577(9) 0.81644(8) 0.59905(6)
C8 C 0.99991(10) 0.90259(8) 0.54361(6)
C9 C 0.95347(13) 1.02211(9) 0.56368(8)
H13 H 1.0184 1.0773 0.5411
H14 H 0.9476 1.0314 0.6241
H15 H 0.8643 1.0354 0.5388
C10 C 0.95348(10) 0.82747(8) 0.68479(6)
H16 H 1.0129 0.8087 0.7291
C11 C 0.82764(10) 0.86225(9) 0.70446(6)
H17 H 0.7706 0.8879 0.6608
C12 C 0.77354(11) 0.86297(9) 0.78887(6)
C13 C 0.86343(13) 0.81839(11) 0.85700(7)
H18 H 0.8135 0.8181 0.9096
H19 H 0.9432 0.8676 0.8622
H20 H 0.8921 0.7404 0.8436
C14 C 0.64582(12) 0.89714(9) 0.80770(6)
H21 H 0.6205 0.8881 0.8643
C15 C 0.54157(11) 0.94571(9) 0.75390(6)
C16 C 0.56639(11) 1.02360(9) 0.69313(7)
H22 H 0.6554 1.0534 0.6878
C17 C 0.39869(12) 0.90638(11) 0.77155(7)
H23 H 0.3860 0.8997 0.8324
H24 H 0.3851 0.8297 0.7470
C18 C 0.46295(11) 1.06324(9) 0.63596(7)
C19 C 0.29297(12) 0.98783(12) 0.73665(9)
H25 H 0.2936 1.0598 0.7690
H26 H 0.2020 0.9531 0.7417
C20 C 0.32273(11) 1.01359(11) 0.64539(8)
H27 H 0.3157 0.9424 0.6124
H28 H 0.2551 1.0684 0.6238
C21 C 0.49354(12) 1.13919(10) 0.57511(7)
H29 H 0.5827 1.1692 0.5718
C22 C 0.39447(13) 1.17513(11) 0.51572(8)
N1 N 1.18506(13) -0.20313(11) -0.03260(8)
C1 C 0.36567(11) 0.30182(9) -0.00686(7)
H1 H 0.2747 0.2674 -0.0010
H2 H 0.3538 0.3817 -0.0257
C2 C 0.44493(12) 0.23594(10) -0.07239(7)
H3 H 0.5361 0.2699 -0.0789
H4 H 0.3977 0.2406 -0.1265
C3 C 0.43606(10) 0.30184(8) 0.07821(6)
C4 C 0.33045(12) 0.33819(10) 0.14358(8)
H5 H 0.3764 0.3572 0.1957
H6 H 0.2669 0.2753 0.1531
H7 H 0.2809 0.4052 0.1234
C5 C 0.55104(12) 0.39045(9) 0.07858(8)
H8 H 0.5151 0.4652 0.0624
H9 H 0.6213 0.3672 0.0391
H10 H 0.5899 0.3954 0.1345
C6 C 0.45764(11) 0.11164(9) -0.04589(7)
H11 H 0.3695 0.0732 -0.0542
H12 H 0.5248 0.0733 -0.0820
C7 C 0.49423(9) 0.18356(8) 0.09905(6)
C8 C 0.50009(10) 0.09741(8) 0.04361(6)
C9 C 0.54653(13) -0.02211(9) 0.06368(8)
H13 H 0.4816 -0.0773 0.0411
H14 H 0.5524 -0.0314 0.1241
H15 H 0.6357 -0.0354 0.0388
C10 C 0.54652(10) 0.17253(8) 0.18479(6)
H16 H 0.4871 0.1913 0.2291
C11 C 0.67236(10) 0.13775(9) 0.20446(6)
H17 H 0.7294 0.1121 0.1608
C12 C 0.72646(11) 0.13703(9) 0.28887(6)
C13 C 0.63657(13) 0.18161(11) 0.35700(7)
H18 H 0.6865 0.1819 0.4096
H19 H 0.5568 0.1324 0.3622
H20 H 0.6079 0.2596 0.3436
C14 C 0.85418(12) 0.10286(9) 0.30770(6)
H21 H 0.8795 0.1119 0.3643
C15 C 0.95843(11) 0.05429(9) 0.25390(6)
C16 C 0.93361(11) -0.02360(9) 0.19313(7)
H22 H 0.8446 -0.0534 0.1878
C17 C 1.10131(12) 0.09362(11) 0.27155(7)
H23 H 1.1140 0.1003 0.3324
H24 H 1.1149 0.1703 0.2470
C18 C 1.03705(11) -0.06324(9) 0.13596(7)
C19 C 1.20703(12) 0.01217(12) 0.23665(9)
H25 H 1.2064 -0.0598 0.2690
H26 H 1.2980 0.0469 0.2417
C20 C 1.17727(11) -0.01359(11) 0.14539(8)
H27 H 1.1843 0.0576 0.1124
H28 H 1.2449 -0.0684 0.1238
C21 C 1.00646(12) -0.13919(10) 0.07511(7)
H29 H 0.9173 -0.1692 0.0718
C22 C 1.10553(13) -0.17513(11) 0.01572(8)
N1 N -0.18506(13) 0.29687(11) 0.53260(8)
C1 C 0.63433(11) 0.80182(9) 0.50686(7)
H1 H 0.7253 0.7674 0.5010
H2 H 0.6462 0.8817 0.5257
C2 C 0.55507(12) 0.73594(10) 0.57239(7)
H3 H 0.4639 0.7699 0.5789
H4 H 0.6023 0.7406 0.6265
C3 C 0.56394(10) 0.80184(8) 0.42179(6)
C4 C 0.66955(12) 0.83819(10) 0.35642(8)
H5 H 0.6236 0.8572 0.3043
H6 H 0.7331 0.7753 0.3469
H7 H 0.7191 0.9052 0.3766
C5 C 0.44896(12) 0.89045(9) 0.42142(8)
H8 H 0.4849 0.9652 0.4376
H9 H 0.3787 0.8672 0.4609
H10 H 0.4101 0.8954 0.3655
C6 C 0.54236(11) 0.61164(9) 0.54589(7)
H11 H 0.6305 0.5732 0.5542
H12 H 0.4752 0.5733 0.5820
C7 C 0.50577(9) 0.68356(8) 0.40095(6)
C8 C 0.49991(10) 0.59741(8) 0.45639(6)
C9 C 0.45347(13) 0.47789(9) 0.43632(8)
H13 H 0.5184 0.4227 0.4589
H14 H 0.4476 0.4686 0.3759
H15 H 0.3643 0.4646 0.4612
C10 C 0.45348(10) 0.67253(8) 0.31521(6)
H16 H 0.5129 0.6913 0.2709
C11 C 0.32764(10) 0.63775(9) 0.29554(6)
H17 H 0.2706 0.6121 0.3392
C12 C 0.27354(11) 0.63703(9) 0.21113(6)
C13 C 0.36343(13) 0.68161(11) 0.14300(7)
H18 H 0.3135 0.6819 0.0904
H19 H 0.4432 0.6324 0.1378
H20 H 0.3921 0.7596 0.1564
C14 C 0.14582(12) 0.60286(9) 0.19230(6)
H21 H 0.1205 0.6119 0.1357
C15 C 0.04157(11) 0.55429(9) 0.24610(6)
C16 C 0.06639(11) 0.47640(9) 0.30687(7)
H22 H 0.1554 0.4466 0.3122
C17 C -0.10131(12) 0.59362(11) 0.22845(7)
H23 H -0.1140 0.6003 0.1676
H24 H -0.1149 0.6703 0.2530
C18 C -0.03705(11) 0.43676(9) 0.36404(7)
C19 C -0.20703(12) 0.51217(12) 0.26335(9)
H25 H -0.2064 0.4402 0.2310
H26 H -0.2980 0.5469 0.2583
C20 C -0.17727(11) 0.48641(11) 0.35461(8)
H27 H -0.1843 0.5576 0.3876
H28 H -0.2449 0.4316 0.3762
C21 C -0.00646(12) 0.36081(10) 0.42489(7)
H29 H 0.0827 0.3308 0.4282
C22 C -0.10553(13) 0.32487(11) 0.48428(8)
N1 N 0.68506(13) 0.70313(11) 1.03260(8)
C1 C -0.13433(11) 0.19818(9) 1.00686(7)
H1 H -0.2253 0.2326 1.0010
H2 H -0.1462 0.1183 1.0257
C2 C -0.05507(12) 0.26406(10) 1.07239(7)
H3 H 0.0361 0.2301 1.0789
H4 H -0.1023 0.2594 1.1265
C3 C -0.06394(10) 0.19816(8) 0.92179(6)
C4 C -0.16955(12) 0.16181(10) 0.85642(8)
H5 H -0.1236 0.1428 0.8043
H6 H -0.2331 0.2247 0.8469
H7 H -0.2191 0.0948 0.8766
C5 C 0.05104(12) 0.10955(9) 0.92142(8)
H8 H 0.0151 0.0348 0.9376
H9 H 0.1213 0.1328 0.9609
H10 H 0.0899 0.1046 0.8655
C6 C -0.04236(11) 0.38836(9) 1.04589(7)
H11 H -0.1305 0.4268 1.0542
H12 H 0.0248 0.4267 1.0820
C7 C -0.00577(9) 0.31644(8) 0.90095(6)
C8 C 0.00009(10) 0.40259(8) 0.95639(6)
C9 C 0.04653(13) 0.52211(9) 0.93632(8)
H13 H -0.0184 0.5773 0.9589
H14 H 0.0524 0.5314 0.8759
H15 H 0.1357 0.5354 0.9612
C10 C 0.04652(10) 0.32747(8) 0.81521(6)
H16 H -0.0129 0.3087 0.7709
C11 C 0.17236(10) 0.36225(9) 0.79554(6)
H17 H 0.2294 0.3879 0.8392
C12 C 0.22646(11) 0.36297(9) 0.71113(6)
C13 C 0.13657(13) 0.31839(11) 0.64300(7)
H18 H 0.1865 0.3181 0.5904
H19 H 0.0568 0.3676 0.6378
H20 H 0.1079 0.2404 0.6564
C14 C 0.35418(12) 0.39714(9) 0.69230(6)
H21 H 0.3795 0.3881 0.6357
C15 C 0.45843(11) 0.44571(9) 0.74610(6)
C16 C 0.43361(11) 0.52360(9) 0.80687(7)
H22 H 0.3446 0.5534 0.8122
C17 C 0.60131(12) 0.40638(11) 0.72845(7)
H23 H 0.6140 0.3997 0.6676
H24 H 0.6149 0.3297 0.7530
C18 C 0.53705(11) 0.56324(9) 0.86404(7)
C19 C 0.70703(12) 0.48783(12) 0.76335(9)
H25 H 0.7064 0.5598 0.7310
H26 H 0.7980 0.4531 0.7583
C20 C 0.67727(11) 0.51359(11) 0.85461(8)
H27 H 0.6843 0.4424 0.8876
H28 H 0.7449 0.5684 0.8762
C21 C 0.50646(12) 0.63919(10) 0.92489(7)
H29 H 0.4173 0.6692 0.9282
C22 C 0.60553(13) 0.67513(11) 0.98428(8)

#END
