./ADINOQ_from_POSCAR.cif_generated_by_CrystalShift
_symmetry_cell_setting triclinic
_symmetry_space_group_name_H-M 'P 1'
loop_
_symmetry_equiv_pos_site_id
_symmetry_equiv_pos_as_xyz
1 x,y,z
_cell_length_a 12.417800
_cell_length_b 12.882800
_cell_length_c 15.708000
_cell_angle_alpha 103.931000
_cell_angle_beta 110.192000
_cell_angle_gamma 100.010000
_cell_volume 2196.161507
loop_
_atom_site_label
_atom_site_type_symbol
_atom_site_fract_x
_atom_site_fract_y
_atom_site_fract_z
H1 H 1.129400 0.249600 0.432400
H2 H 1.196000 0.419500 0.411300
H3 H 0.864900 0.428500 0.289800
H4 H 0.796000 0.255200 0.300400
H5 H 0.326300 -0.358900 0.247800
H6 H 0.121000 -0.411500 0.158200
H7 H 0.168700 -0.178300 0.034000
H8 H 0.375400 -0.133600 0.127600
H9 H 0.503700 0.045100 0.295500
H10 H 0.431200 0.086300 0.159700
H11 H 0.440200 0.228300 0.075700
H12 H 0.498800 0.411700 0.081200
H13 H 0.621400 0.549200 0.226800
H14 H 0.737600 0.605100 0.396700
H15 H 0.793500 0.566300 0.535400
H16 H 0.793400 0.422600 0.618300
H17 H 0.139000 1.032300 0.538000
H18 H 0.734000 0.241400 0.616100
H19 H 0.136500 0.978100 0.387500
H20 H 0.585600 0.061900 0.534900
H21 H 0.261500 0.870000 0.348100
H22 H 0.517100 0.019800 0.422800
H23 H 0.728600 -0.019300 0.591400
H24 H 0.228400 1.005600 0.713000
H25 H 0.691200 -0.067500 0.124300
H26 H 0.295600 0.962700 0.850200
H27 H 0.432600 0.990500 0.876300
H28 H 0.630700 0.071200 0.060800
H29 H 0.692100 0.244000 0.031700
H30 H 0.541600 0.864000 0.915700
H31 H 0.831600 0.393900 0.042400
H32 H 0.553300 0.704200 0.952200
H33 H 1.032400 0.407700 0.093500
H34 H 1.197000 0.341400 0.147700
H35 H 0.453700 0.522800 0.961500
H36 H 1.259400 0.196200 0.196200
H37 H 0.299100 0.411900 0.969000
H38 H 1.196200 0.011600 0.218400
H39 H 1.055300 -0.127500 0.216300
H40 H 0.082300 0.353400 0.919800
H41 H 0.832700 -0.263200 0.142500
H42 H -0.110000 0.378700 0.850600
H43 H 0.729700 -0.204600 0.117500
H44 H -0.123100 0.530300 0.794500
H45 H 0.923600 -0.263300 0.295300
H46 H 0.891500 -0.122700 0.651600
H47 H -0.028100 0.708600 0.779800
H48 H 1.000700 -0.233800 0.617600
H49 H 0.136100 0.841300 0.806100
H50 H 1.007400 -0.271700 0.465600
H51 H 0.019200 0.507300 0.573700
H52 H -0.050500 0.336500 0.588700
H53 H 0.292300 0.339000 0.732400
H54 H 0.415000 0.765800 0.410500
H55 H 0.359100 0.503400 0.705600
H56 H 0.625700 0.732800 0.563500
H57 H 0.537000 0.686400 0.455100
H58 H 0.827400 1.133600 0.778300
H59 H 1.034300 1.153400 0.840300
H60 H 0.423600 0.511000 0.384600
H61 H 0.986700 0.922300 0.958400
H62 H 0.367700 0.328300 0.376200
H63 H 0.781900 0.883700 0.888800
H64 H 0.645200 0.707300 0.709900
H65 H 0.357300 0.181700 0.452900
H66 H 0.690700 0.658500 0.843400
H67 H 0.423500 0.139800 0.588900
H68 H 0.693000 0.512100 0.922700
H69 H 0.631800 0.324100 0.910100
H70 H 0.522600 0.190600 0.761200
C71 C 0.611100 0.345000 0.855200
C72 C 0.543200 0.265500 0.766200
C73 C 0.649100 0.458300 0.862700
C74 C 0.506300 0.295200 0.686300
C75 C 0.621100 0.489000 0.780900
C76 C 0.649400 0.603000 0.784000
C77 C 0.440800 0.214500 0.593000
C78 C 0.619100 0.633000 0.704900
C79 C 0.402500 0.237800 0.511300
C80 C 0.546400 0.551200 0.612400
C81 C 0.511600 0.437600 0.606700
C82 C 0.541300 0.407700 0.692200
C83 C 0.647800 0.969700 0.758300
C84 C 0.777800 0.995400 0.816000
C85 C 0.829800 0.937800 0.877200
C86 C 0.434100 0.354600 0.516800
C87 C 0.951800 0.962000 0.919600
C88 C 0.409600 0.383300 0.435800
C89 C 1.023300 1.044500 0.905200
C90 C 0.982600 1.102100 0.851400
C91 C 0.446000 0.492800 0.440800
C92 C 0.857900 1.085900 0.809800
C93 C 0.515000 0.575700 0.527200
C94 C 0.239800 0.625300 0.628900
C95 C 0.195300 0.515400 0.639400
C96 C 0.277900 0.469300 0.684300
C97 C 0.543600 0.692800 0.519700
C98 C 0.239000 0.371300 0.697600
C99 C 0.406800 0.786600 0.468300
C100 C 0.114500 0.320700 0.656500
C101 C 0.031000 0.370600 0.611800
C102 C 0.166700 0.580800 0.875700
C103 C 0.071500 0.470400 0.602900
C104 C 0.263200 0.658200 0.882600
C105 C 1.114300 0.386800 0.389300
C106 C 1.037600 0.438100 0.347300
C107 C 0.919100 0.391600 0.316400
C108 C 0.878100 0.287400 0.324600
C109 C 0.954400 0.230000 0.367100
C110 C 0.911000 0.118300 0.379500
C111 C 0.293600 -0.324900 0.202900
C112 C 0.171700 -0.354000 0.152400
C113 C 0.128000 -0.294700 0.093200
C114 C 0.199400 -0.214600 0.077400
C115 C 0.322600 -0.191100 0.131600
C116 C 0.365100 -0.248000 0.187600
C117 C 0.502000 -0.210200 0.251800
C118 C 0.593800 0.338800 0.306000
C119 C 0.884200 -0.191500 0.415400
C120 C 0.958300 -0.230700 0.481400
C121 C 0.262200 0.756000 0.855900
C122 C 0.956300 -0.206200 0.571900
C123 C 0.144000 0.776200 0.820200
C124 C 0.890800 -0.143800 0.590400
C125 C 0.046300 0.697500 0.808300
C126 C 0.819100 -0.107600 0.520000
C127 C 0.881700 -0.217300 0.316600
C128 C 0.048000 0.600100 0.835500
C129 C 0.810000 -0.196100 0.162200
C130 C -0.047800 0.522000 0.824700
C131 C -0.041800 0.428100 0.856100
C132 C 0.907000 -0.083900 0.168100
C133 C 1.028700 -0.070600 0.196400
C134 C 0.073500 0.412700 0.896400
C135 C 1.117700 0.015500 0.199700
C136 C 0.168900 0.483600 0.900700
C137 C 1.089700 0.104300 0.175600
C138 C 1.179500 0.195900 0.176000
C139 C 0.288500 0.469500 0.943700
C140 C 1.144700 0.279500 0.146700
C141 C 0.382000 0.541500 0.945800
C142 C 1.015200 0.261800 0.113000
C143 C 0.978800 0.345100 0.090000
C144 C 0.382400 0.644800 0.926100
C145 C 0.858000 0.336000 0.060300
C146 C 0.479400 0.718800 0.931600
C147 C 0.772200 0.244900 0.055500
C148 C 0.472500 0.814000 0.908000
C149 C 0.801100 0.159300 0.083900
C150 C 0.710300 0.070500 0.083200
C151 C 0.362600 0.836300 0.872600
C152 C 0.741500 -0.012900 0.114900
C153 C 0.357200 0.933400 0.837200
C154 C 0.870300 -0.003600 0.132800
C155 C 0.962100 0.089400 0.143400
C156 C 0.930900 0.180600 0.122200
C157 C 0.737400 -0.038700 0.533700
C158 C 0.269600 0.961400 0.688700
C159 C 0.594700 0.057600 0.475400
C160 C 0.326100 0.854500 0.482500
C161 C 0.259200 0.888300 0.408300
C162 C 0.637100 0.172300 0.473800
C163 C 0.708600 0.257500 0.559000
C164 C 0.185700 0.954800 0.434300
C165 C 0.743000 0.367400 0.560400
C166 C 0.183900 0.985700 0.523200
C167 C 0.704600 0.395500 0.479300
C168 C 0.743800 0.509700 0.478200
C169 C 0.253700 0.943400 0.591900
C170 C 0.708800 0.533100 0.395800
C171 C 0.636300 0.311200 0.391700
C172 C 0.628100 0.450100 0.306700
C173 C 0.595700 0.476000 0.224700
C174 C 0.599200 0.199400 0.389900
C175 C 0.523900 0.393400 0.137300
C176 C 0.525700 0.119100 0.298400
C177 C 0.489800 0.283000 0.134100
C178 C 0.485700 0.141700 0.216000
C179 C 0.528500 0.253600 0.216100
C180 C 1.073700 0.282300 0.401100
N181 N 0.325000 0.881800 0.570900
N182 N 0.466200 0.756900 0.541100
N183 N 0.336000 0.920900 0.743000
N184 N 1.154800 1.063700 0.953400
N185 N 0.076100 0.212600 0.676400
N186 N 1.085400 0.540000 0.336700
N187 N -0.005600 -0.323200 0.044200
N188 N 0.681500 -0.008000 0.466600
N189 N 0.817800 -0.171500 0.264500
N190 N 0.818400 -0.126500 0.439100
O191 O 0.141600 0.162200 0.706600
O192 O 0.169700 0.669700 0.580100
O193 O 1.191800 0.578100 0.360100
O194 O -0.034100 0.182900 0.650200
O195 O 0.357500 0.673200 0.668600
O196 O 0.980800 0.080100 0.422800
O197 O 1.217400 1.140800 0.940800
O198 O 0.799600 0.079500 0.334800
O199 O -0.064900 -0.395600 0.055600
O200 O -0.040300 -0.260400 0.000100
O201 O 1.201400 1.016900 1.008000
O202 O 0.541400 -0.267200 0.303000
O203 O 0.607100 1.007100 0.694500
O204 O 0.561700 -0.130100 0.238800
O205 O 0.583200 0.883200 0.765100
O206 O 1.010600 0.584700 0.302100
Zn207 Zn 0.727880 -0.067750 0.336410
Zn208 Zn 0.421640 0.814330 0.665870

#END
