./ADIPAC06_from_POSCAR.cif_generated_by_CrystalShift
_symmetry_cell_setting triclinic
_symmetry_space_group_name_H-M 'P 1'
loop_
_symmetry_equiv_pos_site_id
_symmetry_equiv_pos_as_xyz
1 x,y,z
_cell_length_a 7.184200
_cell_length_b 5.157500
_cell_length_c 9.994800
_cell_angle_alpha 90.000000
_cell_angle_beta 110.875000
_cell_angle_gamma 90.000000
_cell_volume 346.023836
loop_
_atom_site_label
_atom_site_type_symbol
_atom_site_fract_x
_atom_site_fract_y
_atom_site_fract_z
H1 H 0.886800 0.707400 0.913220
H2 H 0.858200 0.168400 0.841910
H3 H -0.548900 0.192200 0.049300
H4 H 0.701200 0.311300 0.896620
H5 H 0.451100 0.307800 0.549300
H6 H -0.298800 0.188700 0.396620
H7 H -0.141800 0.331600 0.341910
H8 H 1.113200 0.292600 1.086780
H9 H 0.051000 -0.043600 0.375630
H10 H -0.113200 -0.207400 0.413220
H11 H 0.949000 0.456400 1.124370
H12 H 1.141800 0.831600 1.158090
H13 H 0.548900 -0.192200 0.950700
H14 H 1.298800 0.688700 1.103380
H15 H 1.548900 0.692200 1.450700
H16 H 0.298800 -0.188700 0.603380
H17 H 0.141800 -0.331600 0.658090
H18 H 0.886800 0.707400 -0.086780
H19 H -0.051000 0.043600 0.624370
H20 H 0.113200 0.207400 0.586780
H21 H 1.051000 0.543600 -0.124370
H22 H 0.858200 0.168400 -0.158090
H23 H -0.548900 1.192200 0.049300
H24 H 0.701200 0.311300 -0.103380
H25 H 0.451100 0.307800 -0.450700
H26 H -0.298800 1.188700 0.396620
H27 H -0.141800 1.331600 0.341910
H28 H 1.113200 0.292600 0.086780
H29 H 0.051000 0.956400 0.375630
H30 H -0.113200 0.792600 0.413220
H31 H 0.949000 0.456400 0.124370
H32 H 1.141800 0.831600 0.158090
H33 H 0.548900 0.807800 0.950700
H34 H 1.298800 0.688700 0.103380
H35 H 1.548900 0.692200 0.450700
H36 H 0.298800 0.811300 0.603380
H37 H 0.141800 0.668400 0.658090
H38 H -0.113200 0.707400 0.913220
H39 H -0.051000 1.043600 0.624370
H40 H 0.113200 1.207400 0.586780
H41 H 0.051000 0.543600 0.875630
H42 H -0.141800 0.168400 0.841910
H43 H 0.451100 0.192200 0.049300
H44 H -0.298800 0.311300 0.896620
H45 H -0.548900 0.307800 0.549300
H46 H 0.701200 0.188700 0.396620
H47 H 0.858200 0.331600 0.341910
H48 H 0.113200 0.292600 1.086780
H49 H 1.051000 -0.043600 0.375630
H50 H 0.886800 -0.207400 0.413220
H51 H -0.051000 0.456400 1.124370
H52 H 0.141800 0.831600 1.158090
H53 H 1.548900 -0.192200 0.950700
H54 H 0.298800 0.688700 1.103380
H55 H 0.548900 0.692200 1.450700
H56 H 1.298800 -0.188700 0.603380
H57 H 1.141800 -0.331600 0.658090
H58 H -0.113200 0.707400 -0.086780
H59 H 0.949000 0.043600 0.624370
H60 H 1.113200 0.207400 0.586780
H61 H 0.051000 0.543600 -0.124370
H62 H -0.141800 0.168400 -0.158090
H63 H 0.451100 1.192200 0.049300
H64 H -0.298800 0.311300 -0.103380
H65 H -0.548900 0.307800 -0.450700
H66 H 0.701200 1.188700 0.396620
H67 H 0.858200 1.331600 0.341910
H68 H 0.113200 0.292600 0.086780
H69 H 1.051000 0.956400 0.375630
H70 H 0.886800 0.792600 0.413220
H71 H -0.051000 0.456400 0.124370
H72 H 0.141800 0.831600 0.158090
H73 H 1.548900 0.807800 0.950700
H74 H 0.298800 0.688700 0.103380
H75 H 0.548900 0.692200 0.450700
H76 H 1.298800 0.811300 0.603380
H77 H 1.141800 0.668400 0.658090
H78 H 1.113200 1.207400 0.586780
H79 H 0.949000 1.043600 0.624370
H80 H 1.051000 0.543600 0.875630
C81 C 0.949500 0.534400 0.921310
C82 C -0.329600 0.090400 0.191630
C83 C 1.208100 0.836300 0.657180
C84 C 0.329600 0.590400 0.308370
C85 C 0.208100 0.663700 0.157180
C86 C 1.329600 0.909600 0.808370
C87 C 0.791900 0.336300 0.842820
C88 C 0.050500 0.465600 0.078690
C89 C 0.670400 0.409600 0.691630
C90 C 0.949500 0.965600 0.421310
C91 C -0.208100 0.163700 0.342820
C92 C -0.050500 -0.034400 0.421310
C93 C 0.791900 1.163700 0.342820
C94 C -0.329600 0.409600 -0.308370
C95 C -0.208100 0.336300 -0.157180
C96 C 0.670400 1.090400 0.191630
C97 C 1.050500 0.465600 1.078690
C98 C -0.050500 0.534400 -0.078690
C99 C 0.329600 -0.090400 0.808370
C100 C 1.050500 0.034400 0.578690
C101 C 1.208100 0.663700 1.157180
C102 C 1.329600 0.590400 1.308370
C103 C 1.208100 -0.163700 0.657180
C104 C 0.329600 0.590400 1.308370
C105 C 0.208100 0.663700 1.157180
C106 C 1.329600 -0.090400 0.808370
C107 C 0.208100 -0.163700 0.657180
C108 C 0.050500 0.465600 1.078690
C109 C 0.050500 0.034400 0.578690
C110 C 0.949500 -0.034400 0.421310
C111 C 0.949500 0.534400 -0.078690
C112 C -0.329600 1.090400 0.191630
C113 C 0.791900 0.163700 0.342820
C114 C -0.329600 0.409600 0.691630
C115 C -0.208100 0.336300 0.842820
C116 C 0.670400 0.090400 0.191630
C117 C 0.791900 0.336300 -0.157180
C118 C -0.050500 0.534400 0.921310
C119 C 0.670400 0.409600 -0.308370
C120 C 0.050500 1.034400 0.578690
C121 C -0.208100 1.163700 0.342820
C122 C -0.050500 0.965600 0.421310
C123 C 0.208100 0.836300 0.657180
C124 C 1.329600 0.590400 0.308370
C125 C 1.208100 0.663700 0.157180
C126 C 0.329600 0.909600 0.808370
C127 C 1.050500 0.465600 0.078690
C128 C 1.050500 1.034400 0.578690
O129 O 0.293730 1.098400 0.869910
O130 O 1.478400 0.751000 0.370180
O131 O 0.706270 0.598400 -0.369910
O132 O 0.521600 0.249000 -0.370180
O133 O 1.293730 0.401600 0.369910
O134 O 0.706270 -0.098400 0.130090
O135 O 0.521600 0.251000 0.129820
O136 O -0.478400 0.249000 0.629820
O137 O -0.478400 1.251000 0.129820
O138 O -0.293730 0.598400 0.630090
O139 O -0.293730 0.901600 0.130090
O140 O 1.293730 0.098400 0.869910
O141 O 1.293730 0.401600 1.369910
O142 O 1.478400 0.751000 1.370180
O143 O 1.478400 -0.251000 0.870180
O144 O 0.478400 0.751000 1.370180
O145 O 0.293730 0.401600 1.369910
O146 O 0.706270 0.901600 0.130090
O147 O 0.478400 -0.251000 0.870180
O148 O 0.521600 1.251000 0.129820
O149 O 0.293730 0.098400 0.869910
O150 O -0.478400 0.249000 -0.370180
O151 O 0.706270 0.598400 0.630090
O152 O 0.521600 0.249000 0.629820
O153 O -0.293730 0.598400 -0.369910
O154 O 1.293730 1.098400 0.869910
O155 O 1.478400 0.749000 0.870180
O156 O 0.478400 0.751000 0.370180
O157 O -0.478400 0.251000 0.129820
O158 O 0.293730 0.401600 0.369910
O159 O 0.478400 0.749000 0.870180
O160 O -0.293730 -0.098400 0.130090

#END
