
#######################################################################
#
#                 Cambridge Crystallographic Data Centre
#                                CCDC 
#
#######################################################################
#
# If this CIF has been generated from an entry in the Cambridge 
# Structural Database, then it will include bibliographic, chemical, 
# crystal, experimental, refinement or atomic coordinate data resulting 
# from the CCDC's data processing and validation procedures.
#
#######################################################################

data_ADIVOY
_symmetry_cell_setting           triclinic
_symmetry_space_group_name_H-M   'P -1'
_symmetry_Int_Tables_number      2
_space_group_name_Hall           '-P 1'
loop_
_symmetry_equiv_pos_site_id
_symmetry_equiv_pos_as_xyz
1 x,y,z
2 -x,-y,-z
_cell_length_a                   8.871(3)
_cell_length_b                   10.901(3)
_cell_length_c                   17.446(5)
_cell_angle_alpha                92.066(5)
_cell_angle_beta                 98.906(6)
_cell_angle_gamma                105.792(6)
_cell_volume                     1598.39
loop_
_atom_site_label
_atom_site_type_symbol
_atom_site_fract_x
_atom_site_fract_y
_atom_site_fract_z
Mo1 Mo 0.81601(7) 0.78489(7) 0.17803(5)
Mo2 Mo 0.97218(8) 0.70213(7) 0.32321(4)
Fe1 Fe 1.05415(12) 0.78339(11) 0.09008(7)
Fe2 Fe 1.11544(12) 0.86254(11) 0.23521(7)
Fe3 Fe 1.28355(13) 0.87257(12) 0.37273(7)
Se1 Se 0.93129(9) 0.91695(8) 0.30464(5)
Se2 Se 1.00086(9) 0.97120(8) 0.13515(5)
C1 C 0.9737(8) 0.6864(7) 0.1873(5)
C2 C 1.0060(8) 0.5734(7) 0.2218(5)
C3 C 0.9062(8) 0.4437(7) 0.1929(5)
C4 C 0.8094(8) 0.4251(8) 0.1204(5)
H1 H 0.8095(8) 0.4942(8) 0.0907(5)
C5 C 0.7116(9) 0.3029(8) 0.0916(5)
H2 H 0.6488(9) 0.2918(8) 0.0426(5)
C6 C 0.7071(10) 0.1997(8) 0.1346(5)
H3 H 0.6395(10) 0.1194(8) 0.1161(5)
C7 C 0.8041(10) 0.2176(8) 0.2052(6)
H4 H 0.8031(10) 0.1474(8) 0.2340(6)
C8 C 0.9043(9) 0.3361(8) 0.2357(5)
H5 H 0.9696(9) 0.3446(8) 0.2838(5)
C9 C 1.2115(8) 0.7435(8) 0.2940(5)
C10 C 1.1556(8) 0.6088(7) 0.2751(4)
C11 C 1.2433(8) 0.5134(8) 0.3026(5)
C12 C 1.2975(8) 0.4985(8) 0.3811(5)
H6 H 1.2823(8) 0.5504(8) 0.4209(5)
C13 C 1.3728(9) 0.4063(8) 0.3974(6)
H7 H 1.4079(9) 0.3959(8) 0.4492(6)
C14 C 1.3989(9) 0.3276(8) 0.3396(6)
H8 H 1.4504(9) 0.2656(8) 0.3527(6)
C15 C 1.3478(8) 0.3421(8) 0.2628(5)
H9 H 1.3634(8) 0.2896(8) 0.2233(5)
C16 C 1.2719(8) 0.4371(7) 0.2449(5)
H10 H 1.2401(8) 0.4490(7) 0.1930(5)
C17 C 0.6063(8) 0.6616(9) 0.0844(6)
H11 H 0.6164(8) 0.6068(9) 0.0408(6)
C18 C 0.6028(9) 0.7912(9) 0.0816(6)
H12 H 0.6087(9) 0.8413(9) 0.0361(6)
C19 C 0.5680(9) 0.8264(9) 0.1523(7)
H13 H 0.5492(9) 0.9085(9) 0.1654(7)
C20 C 0.5531(8) 0.7242(9) 0.2015(6)
H14 H 0.5188(8) 0.7216(9) 0.2523(6)
C21 C 0.5752(8) 0.6218(9) 0.1577(6)
H15 H 0.5612(8) 0.5347(9) 0.1737(6)
C22 C 0.9485(17) 0.6693(18) 0.4516(7)
H16 H 1.0250(17) 0.7129(18) 0.4977(7)
C23 C 0.8130(21) 0.7028(12) 0.4182(9)
H17 H 0.7804(21) 0.7765(12) 0.4359(9)
C24 C 0.7257(14) 0.6092(14) 0.3618(8)
H18 H 0.6199(14) 0.6028(14) 0.3324(8)
C25 C 0.8056(15) 0.5207(10) 0.3613(7)
H19 H 0.7660(15) 0.4383(10) 0.3301(7)
C26 C 0.9446(14) 0.5570(14) 0.4133(8)
H20 H 1.0157(14) 0.5039(14) 0.4281(8)
C27 C 1.1259(9) 0.6459(8) 0.0785(4)
O1 O 1.1787(6) 0.5632(6) 0.0698(4)
C28 C 0.9162(10) 0.7518(8) 0.0014(6)
O2 O 0.8277(8) 0.7323(6) -0.0586(4)
C29 C 1.2238(10) 0.8913(9) 0.0603(5)
O3 O 1.3312(7) 0.9611(6) 0.0422(4)
C30 C 1.2998(9) 0.9847(8) 0.2370(5)
O4 O 1.4109(7) 1.0625(6) 0.2276(4)
C31 C 1.3144(11) 0.7950(9) 0.4569(6)
O5 O 1.3428(10) 0.7495(7) 0.5159(4)
C32 C 1.2465(10) 1.0074(10) 0.4220(6)
O6 O 1.2259(9) 1.0903(7) 0.4568(4)
C33 C 1.4910(12) 0.9438(10) 0.3714(6)
O7 O 1.6221(8) 0.9829(7) 0.3722(4)
Mo1 Mo 0.18399(7) 0.21511(7) 0.82197(5)
Mo2 Mo 0.02782(8) 0.29787(7) 0.67679(4)
Fe1 Fe -0.05415(12) 0.21661(11) 0.90992(7)
Fe2 Fe -0.11544(12) 0.13746(11) 0.76479(7)
Fe3 Fe -0.28355(13) 0.12743(12) 0.62727(7)
Se1 Se 0.06871(9) 0.08305(8) 0.69536(5)
Se2 Se -0.00086(9) 0.02880(8) 0.86485(5)
C1 C 0.0263(8) 0.3136(7) 0.8127(5)
C2 C -0.0060(8) 0.4266(7) 0.7782(5)
C3 C 0.0938(8) 0.5563(7) 0.8071(5)
C4 C 0.1906(8) 0.5749(8) 0.8796(5)
H1 H 0.1905(8) 0.5058(8) 0.9093(5)
C5 C 0.2884(9) 0.6971(8) 0.9084(5)
H2 H 0.3512(9) 0.7082(8) 0.9574(5)
C6 C 0.2929(10) 0.8003(8) 0.8654(5)
H3 H 0.3605(10) 0.8806(8) 0.8839(5)
C7 C 0.1959(10) 0.7824(8) 0.7948(6)
H4 H 0.1969(10) 0.8526(8) 0.7660(6)
C8 C 0.0957(9) 0.6639(8) 0.7643(5)
H5 H 0.0304(9) 0.6554(8) 0.7162(5)
C9 C -0.2115(8) 0.2565(8) 0.7060(5)
C10 C -0.1556(8) 0.3912(7) 0.7249(4)
C11 C -0.2433(8) 0.4866(8) 0.6974(5)
C12 C -0.2975(8) 0.5015(8) 0.6189(5)
H6 H -0.2823(8) 0.4496(8) 0.5791(5)
C13 C -0.3728(9) 0.5937(8) 0.6026(6)
H7 H -0.4079(9) 0.6041(8) 0.5508(6)
C14 C -0.3989(9) 0.6724(8) 0.6604(6)
H8 H -0.4504(9) 0.7344(8) 0.6473(6)
C15 C -0.3478(8) 0.6579(8) 0.7372(5)
H9 H -0.3634(8) 0.7104(8) 0.7767(5)
C16 C -0.2719(8) 0.5629(7) 0.7551(5)
H10 H -0.2401(8) 0.5510(7) 0.8070(5)
C17 C 0.3937(8) 0.3384(9) 0.9156(6)
H11 H 0.3836(8) 0.3932(9) 0.9592(6)
C18 C 0.3972(9) 0.2088(9) 0.9184(6)
H12 H 0.3913(9) 0.1587(9) 0.9639(6)
C19 C 0.4320(9) 0.1736(9) 0.8477(7)
H13 H 0.4508(9) 0.0915(9) 0.8346(7)
C20 C 0.4469(8) 0.2758(9) 0.7985(6)
H14 H 0.4812(8) 0.2784(9) 0.7477(6)
C21 C 0.4248(8) 0.3782(9) 0.8423(6)
H15 H 0.4388(8) 0.4653(9) 0.8263(6)
C22 C 0.0515(17) 0.3307(18) 0.5484(7)
H16 H -0.0250(17) 0.2871(18) 0.5023(7)
C23 C 0.1870(21) 0.2972(12) 0.5818(9)
H17 H 0.2196(21) 0.2235(12) 0.5641(9)
C24 C 0.2743(14) 0.3908(14) 0.6382(8)
H18 H 0.3801(14) 0.3972(14) 0.6676(8)
C25 C 0.1944(15) 0.4793(10) 0.6387(7)
H19 H 0.2340(15) 0.5617(10) 0.6699(7)
C26 C 0.0554(14) 0.4430(14) 0.5867(8)
H20 H -0.0157(14) 0.4961(14) 0.5719(8)
C27 C -0.1259(9) 0.3541(8) 0.9215(4)
O1 O -0.1787(6) 0.4368(6) 0.9302(4)
C28 C 0.0838(10) 0.2482(8) 0.9986(6)
O2 O 0.1723(8) 0.2677(6) 1.0586(4)
C29 C -0.2238(10) 0.1087(9) 0.9397(5)
O3 O -0.3312(7) 0.0389(6) 0.9578(4)
C30 C -0.2998(9) 0.0153(8) 0.7630(5)
O4 O -0.4109(7) -0.0625(6) 0.7724(4)
C31 C -0.3144(11) 0.2050(9) 0.5431(6)
O5 O -0.3428(10) 0.2505(7) 0.4841(4)
C32 C -0.2465(10) -0.0074(10) 0.5780(6)
O6 O -0.2259(9) -0.0903(7) 0.5432(4)
C33 C -0.4910(12) 0.0562(10) 0.6286(6)
O7 O -0.6221(8) 0.0171(7) 0.6278(4)

#END
