
#######################################################################
#
#                 Cambridge Crystallographic Data Centre
#                                CCDC 
#
#######################################################################
#
# If this CIF has been generated from an entry in the Cambridge 
# Structural Database, then it will include bibliographic, chemical, 
# crystal, experimental, refinement or atomic coordinate data resulting 
# from the CCDC's data processing and validation procedures.
#
#######################################################################

data_ADIWOB
_symmetry_cell_setting           monoclinic
_symmetry_space_group_name_H-M   'P 21/n'
_symmetry_Int_Tables_number      14
_space_group_name_Hall           '-P 2yn'
loop_
_symmetry_equiv_pos_site_id
_symmetry_equiv_pos_as_xyz
1 x,y,z
2 1/2-x,1/2+y,1/2-z
3 -x,-y,-z
4 1/2+x,1/2-y,1/2+z
_cell_length_a                   11.9685(2)
_cell_length_b                   14.8500(3)
_cell_length_c                   23.3388(4)
_cell_angle_alpha                90
_cell_angle_beta                 96.174(2)
_cell_angle_gamma                90
_cell_volume                     4124
loop_
_atom_site_label
_atom_site_type_symbol
_atom_site_fract_x
_atom_site_fract_y
_atom_site_fract_z
Zn1 Zn 0.08774(3) 0.19080(2) 0.030688(14)
Cl1 Cl 0.25166(5) 0.25259(5) 0.06942(3)
O1 O 0.3267(2) -0.10831(15) 0.22739(10)
O2 O 0.37289(19) -0.00919(15) 0.29922(9)
N1 N 0.11853(18) 0.10653(15) -0.03940(9)
N2 N -0.01902(18) 0.26427(16) -0.02234(9)
N3 N -0.01896(19) 0.20903(15) 0.09633(9)
N4 N 0.2463(2) 0.03466(16) 0.15563(10)
C1 C 0.1801(2) 0.02704(19) -0.04189(11)
C2 C 0.1870(2) 0.00242(19) -0.10111(11)
H1 H 0.2232 -0.0492 -0.1145
C3 C 0.1324(2) 0.06645(19) -0.13377(11)
H2 H 0.1227 0.0683 -0.1747
C4 C 0.0909(2) 0.13194(18) -0.09540(11)
C5 C 0.0299(2) 0.20998(19) -0.11560(11)
C6 C -0.0205(2) 0.27057(19) -0.08107(11)
C7 C -0.0884(2) 0.34776(19) -0.10143(12)
H3 H -0.1014 0.3684 -0.1401
C8 C -0.1293(2) 0.38454(19) -0.05532(12)
H4 H -0.1763 0.4361 -0.0553
C9 C -0.0877(2) 0.33023(19) -0.00533(12)
C10 C -0.1242(2) 0.33827(19) 0.04940(12)
C11 C -0.0971(2) 0.27628(19) 0.09485(11)
C12 C -0.1446(2) 0.2807(2) 0.14950(12)
H5 H -0.2020 0.3204 0.1590
C13 C -0.0915(2) 0.21748(19) 0.18428(12)
H6 H -0.1051 0.2043 0.2228
C14 C -0.0104(2) 0.17374(18) 0.15200(11)
C15 C 0.0666(2) 0.11001(18) 0.17533(11)
C16 C 0.1342(2) 0.06123(18) 0.13974(11)
C17 C 0.1095(2) 0.03782(18) 0.08180(11)
H7 H 0.040(3) 0.038(2) 0.0619(14)
C18 C 0.2068(2) -0.00010(18) 0.06260(12)
C19 C 0.2883(2) -0.00077(18) 0.11057(11)
H8 H 0.3626 -0.0233 0.1107
C20 C 0.2301(2) -0.02107(18) 0.00522(11)
C21 C 0.0138(2) 0.22500(18) -0.17983(12)
C22 C 0.1034(3) 0.2464(2) -0.21011(13)
H9 H 0.1764 0.2526 -0.1902
C23 C 0.0875(3) 0.2589(2) -0.26967(14)
H10 H 0.1498 0.2731 -0.2900
C24 C -0.0182(3) 0.2507(2) -0.29914(13)
H11 H -0.0289 0.2591 -0.3397
C25 C -0.1083(3) 0.2304(2) -0.26935(13)
H12 H -0.1813 0.2249 -0.2895
C26 C -0.0931(3) 0.2177(2) -0.20964(12)
H13 H -0.1557 0.2041 -0.1894
C27 C -0.2007(2) 0.4158(2) 0.05855(11)
C28 C -0.1639(3) 0.5041(2) 0.05268(13)
H14 H -0.0885 0.5149 0.0453
C29 C -0.2359(3) 0.5767(2) 0.05745(15)
H15 H -0.2099 0.6365 0.0534
C30 C -0.3459(3) 0.5611(3) 0.06819(17)
H16 H -0.3957 0.6103 0.0711
C31 C -0.3830(3) 0.4741(3) 0.07470(16)
H17 H -0.4583 0.4638 0.0825
C32 C -0.3115(3) 0.4018(2) 0.06995(13)
H18 H -0.3381 0.3423 0.0745
C33 C 0.0818(2) 0.09602(19) 0.23868(11)
C34 C 0.1027(2) 0.1690(2) 0.27619(12)
H19 H 0.1044 0.2284 0.2613
C35 C 0.1212(2) 0.1545(2) 0.33531(12)
H20 H 0.1365 0.2041 0.3606
C36 C 0.1175(2) 0.0687(2) 0.35733(12)
H21 H 0.1288 0.0594 0.3978
C37 C 0.0974(2) -0.0042(2) 0.32062(12)
H22 H 0.0949 -0.0633 0.3359
C38 C 0.0808(2) 0.00944(19) 0.26127(12)
H23 H 0.0688 -0.0407 0.2361
C39 C 0.3156(2) -0.09079(19) -0.00162(11)
C40 C 0.3123(2) -0.1727(2) 0.02812(12)
H24 H 0.2533 -0.1843 0.0513
C41 C 0.3952(3) -0.2369(2) 0.02373(13)
H25 H 0.3914 -0.2929 0.0432
C42 C 0.4836(3) -0.2204(2) -0.00876(13)
H26 H 0.5409 -0.2642 -0.0108
C43 C 0.4876(2) -0.1394(2) -0.03819(13)
H27 H 0.5478 -0.1278 -0.0606
C44 C 0.4044(2) -0.0755(2) -0.03506(12)
H28 H 0.4075 -0.0207 -0.0558
C45 C 0.3186(2) 0.0518(2) 0.20889(13)
H29 H 0.2837 0.0986 0.2314
H30 H 0.3919 0.0751 0.1994
C46 C 0.3377(2) -0.0322(2) 0.24520(13)
C47 C 0.3961(3) -0.0832(2) 0.33871(15)
H31 H 0.4211 -0.0597 0.3772
H32 H 0.4553 -0.1211 0.3255
H33 H 0.3278 -0.1190 0.3402
Zn1 Zn 0.41226(3) 0.69080(2) 0.469312(14)
Cl1 Cl 0.24834(5) 0.75259(5) 0.43058(3)
O1 O 0.1733(2) 0.39169(15) 0.27261(10)
O2 O 0.12711(19) 0.49081(15) 0.20078(9)
N1 N 0.38147(18) 0.60653(15) 0.53940(9)
N2 N 0.51902(18) 0.76427(16) 0.52234(9)
N3 N 0.51896(19) 0.70903(15) 0.40367(9)
N4 N 0.2537(2) 0.53466(16) 0.34437(10)
C1 C 0.3199(2) 0.52704(19) 0.54189(11)
C2 C 0.3130(2) 0.50242(19) 0.60111(11)
H1 H 0.2768 0.4508 0.6145
C3 C 0.3676(2) 0.56645(19) 0.63377(11)
H2 H 0.3773 0.5683 0.6747
C4 C 0.4091(2) 0.63194(18) 0.59540(11)
C5 C 0.4701(2) 0.70998(19) 0.61560(11)
C6 C 0.5205(2) 0.77057(19) 0.58107(11)
C7 C 0.5884(2) 0.84776(19) 0.60143(12)
H3 H 0.6014 0.8684 0.6401
C8 C 0.6293(2) 0.88454(19) 0.55532(12)
H4 H 0.6763 0.9361 0.5553
C9 C 0.5877(2) 0.83023(19) 0.50533(12)
C10 C 0.6242(2) 0.83827(19) 0.45060(12)
C11 C 0.5971(2) 0.77628(19) 0.40515(11)
C12 C 0.6446(2) 0.7807(2) 0.35050(12)
H5 H 0.7020 0.8204 0.3410
C13 C 0.5915(2) 0.71748(19) 0.31572(12)
H6 H 0.6051 0.7043 0.2772
C14 C 0.5104(2) 0.67374(18) 0.34800(11)
C15 C 0.4334(2) 0.61001(18) 0.32467(11)
C16 C 0.3658(2) 0.56123(18) 0.36026(11)
C17 C 0.3905(2) 0.53782(18) 0.41820(11)
H7 H 0.460(3) 0.538(2) 0.4381(14)
C18 C 0.2932(2) 0.49990(18) 0.43740(12)
C19 C 0.2117(2) 0.49923(18) 0.38943(11)
H8 H 0.1374 0.4767 0.3893
C20 C 0.2699(2) 0.47893(18) 0.49478(11)
C21 C 0.4862(2) 0.72500(18) 0.67983(12)
C22 C 0.3966(3) 0.7464(2) 0.71011(13)
H9 H 0.3236 0.7526 0.6902
C23 C 0.4125(3) 0.7589(2) 0.76967(14)
H10 H 0.3502 0.7731 0.7900
C24 C 0.5182(3) 0.7507(2) 0.79914(13)
H11 H 0.5289 0.7591 0.8397
C25 C 0.6083(3) 0.7304(2) 0.76935(13)
H12 H 0.6813 0.7249 0.7895
C26 C 0.5931(3) 0.7177(2) 0.70964(12)
H13 H 0.6557 0.7041 0.6894
C27 C 0.7007(2) 0.9158(2) 0.44145(11)
C28 C 0.6639(3) 1.0041(2) 0.44732(13)
H14 H 0.5885 1.0149 0.4547
C29 C 0.7359(3) 1.0767(2) 0.44255(15)
H15 H 0.7099 1.1365 0.4466
C30 C 0.8459(3) 1.0611(3) 0.43181(17)
H16 H 0.8957 1.1103 0.4289
C31 C 0.8830(3) 0.9741(3) 0.42530(16)
H17 H 0.9583 0.9638 0.4175
C32 C 0.8115(3) 0.9018(2) 0.43005(13)
H18 H 0.8381 0.8423 0.4255
C33 C 0.4182(2) 0.59602(19) 0.26132(11)
C34 C 0.3973(2) 0.6690(2) 0.22381(12)
H19 H 0.3956 0.7284 0.2387
C35 C 0.3788(2) 0.6545(2) 0.16469(12)
H20 H 0.3635 0.7041 0.1394
C36 C 0.3825(2) 0.5687(2) 0.14267(12)
H21 H 0.3712 0.5594 0.1022
C37 C 0.4026(2) 0.4958(2) 0.17938(12)
H22 H 0.4051 0.4367 0.1641
C38 C 0.4192(2) 0.50944(19) 0.23873(12)
H23 H 0.4312 0.4593 0.2639
C39 C 0.1844(2) 0.40921(19) 0.50162(11)
C40 C 0.1877(2) 0.3273(2) 0.47188(12)
H24 H 0.2467 0.3157 0.4487
C41 C 0.1048(3) 0.2631(2) 0.47627(13)
H25 H 0.1086 0.2071 0.4568
C42 C 0.0164(3) 0.2796(2) 0.50876(13)
H26 H -0.0409 0.2358 0.5108
C43 C 0.0124(2) 0.3606(2) 0.53819(13)
H27 H -0.0478 0.3722 0.5606
C44 C 0.0956(2) 0.4245(2) 0.53506(12)
H28 H 0.0925 0.4793 0.5558
C45 C 0.1814(2) 0.5518(2) 0.29111(13)
H29 H 0.2163 0.5986 0.2686
H30 H 0.1081 0.5751 0.3006
C46 C 0.1623(2) 0.4678(2) 0.25480(13)
C47 C 0.1039(3) 0.4168(2) 0.16129(15)
H31 H 0.0789 0.4403 0.1228
H32 H 0.0447 0.3789 0.1745
H33 H 0.1722 0.3810 0.1598
Zn1 Zn 0.91226(3) 0.80920(2) 0.969312(14)
Cl1 Cl 0.74834(5) 0.74741(5) 0.93058(3)
O1 O 0.6733(2) 1.10831(15) 0.77261(10)
O2 O 0.62711(19) 1.00919(15) 0.70078(9)
N1 N 0.88147(18) 0.89347(15) 1.03940(9)
N2 N 1.01902(18) 0.73573(16) 1.02234(9)
N3 N 1.01896(19) 0.79097(15) 0.90367(9)
N4 N 0.7537(2) 0.96534(16) 0.84437(10)
C1 C 0.8199(2) 0.97296(19) 1.04189(11)
C2 C 0.8130(2) 0.99758(19) 1.10111(11)
H1 H 0.7768 1.0492 1.1145
C3 C 0.8676(2) 0.93355(19) 1.13377(11)
H2 H 0.8773 0.9317 1.1747
C4 C 0.9091(2) 0.86806(18) 1.09540(11)
C5 C 0.9701(2) 0.79002(19) 1.11560(11)
C6 C 1.0205(2) 0.72943(19) 1.08107(11)
C7 C 1.0884(2) 0.65224(19) 1.10143(12)
H3 H 1.1014 0.6316 1.1401
C8 C 1.1293(2) 0.61546(19) 1.05532(12)
H4 H 1.1763 0.5639 1.0553
C9 C 1.0877(2) 0.66977(19) 1.00533(12)
C10 C 1.1242(2) 0.66173(19) 0.95060(12)
C11 C 1.0971(2) 0.72372(19) 0.90515(11)
C12 C 1.1446(2) 0.7193(2) 0.85050(12)
H5 H 1.2020 0.6796 0.8410
C13 C 1.0915(2) 0.78252(19) 0.81572(12)
H6 H 1.1051 0.7957 0.7772
C14 C 1.0104(2) 0.82626(18) 0.84800(11)
C15 C 0.9334(2) 0.88999(18) 0.82467(11)
C16 C 0.8658(2) 0.93877(18) 0.86026(11)
C17 C 0.8905(2) 0.96218(18) 0.91820(11)
H7 H 0.960(3) 0.962(2) 0.9381(14)
C18 C 0.7932(2) 1.00010(18) 0.93740(12)
C19 C 0.7117(2) 1.00077(18) 0.88943(11)
H8 H 0.6374 1.0233 0.8893
C20 C 0.7699(2) 1.02107(18) 0.99478(11)
C21 C 0.9862(2) 0.77500(18) 1.17983(12)
C22 C 0.8966(3) 0.7536(2) 1.21011(13)
H9 H 0.8236 0.7474 1.1902
C23 C 0.9125(3) 0.7411(2) 1.26967(14)
H10 H 0.8502 0.7269 1.2900
C24 C 1.0182(3) 0.7493(2) 1.29914(13)
H11 H 1.0289 0.7409 1.3397
C25 C 1.1083(3) 0.7696(2) 1.26935(13)
H12 H 1.1813 0.7751 1.2895
C26 C 1.0931(3) 0.7823(2) 1.20964(12)
H13 H 1.1557 0.7959 1.1894
C27 C 1.2007(2) 0.5842(2) 0.94145(11)
C28 C 1.1639(3) 0.4959(2) 0.94732(13)
H14 H 1.0885 0.4851 0.9547
C29 C 1.2359(3) 0.4233(2) 0.94255(15)
H15 H 1.2099 0.3635 0.9466
C30 C 1.3459(3) 0.4389(3) 0.93181(17)
H16 H 1.3957 0.3897 0.9289
C31 C 1.3830(3) 0.5259(3) 0.92530(16)
H17 H 1.4583 0.5362 0.9175
C32 C 1.3115(3) 0.5982(2) 0.93005(13)
H18 H 1.3381 0.6577 0.9255
C33 C 0.9182(2) 0.90398(19) 0.76132(11)
C34 C 0.8973(2) 0.8310(2) 0.72381(12)
H19 H 0.8956 0.7716 0.7387
C35 C 0.8788(2) 0.8455(2) 0.66469(12)
H20 H 0.8635 0.7959 0.6394
C36 C 0.8825(2) 0.9313(2) 0.64267(12)
H21 H 0.8712 0.9406 0.6022
C37 C 0.9026(2) 1.0042(2) 0.67938(12)
H22 H 0.9051 1.0633 0.6641
C38 C 0.9192(2) 0.99056(19) 0.73873(12)
H23 H 0.9312 1.0407 0.7639
C39 C 0.6844(2) 1.09079(19) 1.00162(11)
C40 C 0.6877(2) 1.1727(2) 0.97188(12)
H24 H 0.7467 1.1843 0.9487
C41 C 0.6048(3) 1.2369(2) 0.97627(13)
H25 H 0.6086 1.2929 0.9568
C42 C 0.5164(3) 1.2204(2) 1.00876(13)
H26 H 0.4591 1.2642 1.0108
C43 C 0.5124(2) 1.1394(2) 1.03819(13)
H27 H 0.4522 1.1278 1.0606
C44 C 0.5956(2) 1.0755(2) 1.03506(12)
H28 H 0.5925 1.0207 1.0558
C45 C 0.6814(2) 0.9482(2) 0.79111(13)
H29 H 0.7163 0.9014 0.7686
H30 H 0.6081 0.9249 0.8006
C46 C 0.6623(2) 1.0322(2) 0.75480(13)
C47 C 0.6039(3) 1.0832(2) 0.66129(15)
H31 H 0.5789 1.0597 0.6228
H32 H 0.5447 1.1211 0.6745
H33 H 0.6722 1.1190 0.6598
Zn1 Zn 0.58774(3) 0.30920(2) 0.530688(14)
Cl1 Cl 0.75166(5) 0.24741(5) 0.56942(3)
O1 O 0.8267(2) 0.60831(15) 0.72739(10)
O2 O 0.87289(19) 0.50919(15) 0.79922(9)
N1 N 0.61853(18) 0.39347(15) 0.46060(9)
N2 N 0.48098(18) 0.23573(16) 0.47766(9)
N3 N 0.48104(19) 0.29097(15) 0.59633(9)
N4 N 0.7463(2) 0.46534(16) 0.65563(10)
C1 C 0.6801(2) 0.47296(19) 0.45811(11)
C2 C 0.6870(2) 0.49758(19) 0.39889(11)
H1 H 0.7232 0.5492 0.3855
C3 C 0.6324(2) 0.43355(19) 0.36623(11)
H2 H 0.6227 0.4317 0.3253
C4 C 0.5909(2) 0.36806(18) 0.40460(11)
C5 C 0.5299(2) 0.29002(19) 0.38440(11)
C6 C 0.4795(2) 0.22943(19) 0.41893(11)
C7 C 0.4116(2) 0.15224(19) 0.39857(12)
H3 H 0.3986 0.1316 0.3599
C8 C 0.3707(2) 0.11546(19) 0.44468(12)
H4 H 0.3237 0.0639 0.4447
C9 C 0.4123(2) 0.16977(19) 0.49467(12)
C10 C 0.3758(2) 0.16173(19) 0.54940(12)
C11 C 0.4029(2) 0.22372(19) 0.59485(11)
C12 C 0.3554(2) 0.2193(2) 0.64950(12)
H5 H 0.2980 0.1796 0.6590
C13 C 0.4085(2) 0.28252(19) 0.68428(12)
H6 H 0.3949 0.2957 0.7228
C14 C 0.4896(2) 0.32626(18) 0.65200(11)
C15 C 0.5666(2) 0.38999(18) 0.67533(11)
C16 C 0.6342(2) 0.43877(18) 0.63974(11)
C17 C 0.6095(2) 0.46218(18) 0.58180(11)
H7 H 0.540(3) 0.462(2) 0.5619(14)
C18 C 0.7068(2) 0.50010(18) 0.56260(12)
C19 C 0.7883(2) 0.50077(18) 0.61057(11)
H8 H 0.8626 0.5233 0.6107
C20 C 0.7301(2) 0.52107(18) 0.50522(11)
C21 C 0.5138(2) 0.27500(18) 0.32017(12)
C22 C 0.6034(3) 0.2536(2) 0.28989(13)
H9 H 0.6764 0.2474 0.3098
C23 C 0.5875(3) 0.2411(2) 0.23033(14)
H10 H 0.6498 0.2269 0.2100
C24 C 0.4818(3) 0.2493(2) 0.20086(13)
H11 H 0.4711 0.2409 0.1603
C25 C 0.3917(3) 0.2696(2) 0.23065(13)
H12 H 0.3187 0.2751 0.2105
C26 C 0.4069(3) 0.2823(2) 0.29036(12)
H13 H 0.3443 0.2959 0.3106
C27 C 0.2993(2) 0.0842(2) 0.55855(11)
C28 C 0.3361(3) -0.0041(2) 0.55268(13)
H14 H 0.4115 -0.0149 0.5453
C29 C 0.2641(3) -0.0767(2) 0.55745(15)
H15 H 0.2901 -0.1365 0.5534
C30 C 0.1541(3) -0.0611(3) 0.56819(17)
H16 H 0.1043 -0.1103 0.5711
C31 C 0.1170(3) 0.0259(3) 0.57470(16)
H17 H 0.0417 0.0362 0.5825
C32 C 0.1885(3) 0.0982(2) 0.56995(13)
H18 H 0.1619 0.1577 0.5745
C33 C 0.5818(2) 0.40398(19) 0.73868(11)
C34 C 0.6027(2) 0.3310(2) 0.77619(12)
H19 H 0.6044 0.2716 0.7613
C35 C 0.6212(2) 0.3455(2) 0.83531(12)
H20 H 0.6365 0.2959 0.8606
C36 C 0.6175(2) 0.4313(2) 0.85733(12)
H21 H 0.6288 0.4406 0.8978
C37 C 0.5974(2) 0.5042(2) 0.82062(12)
H22 H 0.5949 0.5633 0.8359
C38 C 0.5808(2) 0.49056(19) 0.76127(12)
H23 H 0.5688 0.5407 0.7361
C39 C 0.8156(2) 0.59079(19) 0.49838(11)
C40 C 0.8123(2) 0.6727(2) 0.52812(12)
H24 H 0.7533 0.6843 0.5513
C41 C 0.8952(3) 0.7369(2) 0.52373(13)
H25 H 0.8914 0.7929 0.5432
C42 C 0.9836(3) 0.7204(2) 0.49124(13)
H26 H 1.0409 0.7642 0.4892
C43 C 0.9876(2) 0.6394(2) 0.46181(13)
H27 H 1.0478 0.6278 0.4394
C44 C 0.9044(2) 0.5755(2) 0.46494(12)
H28 H 0.9075 0.5207 0.4442
C45 C 0.8186(2) 0.4482(2) 0.70889(13)
H29 H 0.7837 0.4014 0.7314
H30 H 0.8919 0.4249 0.6994
C46 C 0.8377(2) 0.5322(2) 0.74520(13)
C47 C 0.8961(3) 0.5832(2) 0.83871(15)
H31 H 0.9211 0.5597 0.8772
H32 H 0.9553 0.6211 0.8255
H33 H 0.8278 0.6190 0.8402

#END
