./ADMHEP_from_POSCAR.cif_generated_by_CrystalShift
_symmetry_cell_setting triclinic
_symmetry_space_group_name_H-M 'P 1'
loop_
_symmetry_equiv_pos_site_id
_symmetry_equiv_pos_as_xyz
1 x,y,z
_cell_length_a 6.626000
_cell_length_b 7.049000
_cell_length_c 9.499000
_cell_angle_alpha 90.000000
_cell_angle_beta 102.210000
_cell_angle_gamma 90.000000
_cell_volume 433.630510
loop_
_atom_site_label
_atom_site_type_symbol
_atom_site_fract_x
_atom_site_fract_y
_atom_site_fract_z
H1 H -0.227000 1.237000 0.695000
H2 H 0.779000 0.871000 0.696000
H3 H 0.410000 0.523000 0.688000
H4 H 0.239000 0.949000 1.016000
H5 H 0.034000 0.707000 1.055000
H6 H 0.067000 1.311000 0.593000
H7 H -0.060000 1.130000 0.552000
H8 H 0.256000 1.160000 0.811000
H9 H 0.300000 0.978000 0.548000
H10 H 0.597000 0.992000 0.817000
H11 H 0.524000 0.665000 0.865000
H12 H 0.206000 0.527000 0.940000
H13 H 0.033000 0.573000 0.799000
H14 H 1.227000 0.737000 0.305000
H15 H 0.967000 0.073000 0.201000
H16 H 0.794000 0.027000 0.060000
H17 H 0.476000 0.165000 0.135000
H18 H 0.403000 0.492000 0.183000
H19 H 0.700000 0.478000 0.452000
H20 H 0.744000 0.660000 0.189000
H21 H 1.060000 0.630000 0.448000
H22 H 0.933000 0.811000 0.407000
H23 H 0.966000 0.207000 -0.055000
H24 H 0.761000 0.449000 -0.016000
H25 H 0.590000 0.023000 0.312000
H26 H 0.221000 0.371000 0.304000
H27 H 0.574000 0.745000 0.467000
H28 H 0.426000 1.245000 0.533000
C29 C 0.885300 0.126300 0.112200
C30 C 0.759100 0.297400 0.140000
C31 C 0.576600 0.240100 0.208300
C32 C 0.476000 0.412800 0.262000
C33 C 0.637100 0.541100 0.357200
C34 C 0.807900 0.589900 0.277200
C35 C 0.016700 1.203400 0.635700
C36 C 0.114700 0.626300 0.887800
C37 C 0.240900 0.797400 0.860000
C38 C 0.423400 0.740100 0.791700
C39 C 0.524000 0.912800 0.738000
C40 C 0.362900 1.041100 0.642800
C41 C 0.192100 1.089900 0.722800
C42 C 0.983300 0.703400 0.364300
O43 O 0.100500 0.917200 0.762900
O44 O 0.464200 1.214200 0.615100
O45 O 0.671700 0.851200 0.656600
O46 O 0.346000 0.617100 0.672600
O47 O 0.326500 0.894300 0.989300
O48 O -0.034300 0.674600 0.972000
O49 O 1.118600 0.761400 0.272800
O50 O 0.899500 0.417200 0.237100
O51 O 0.535800 0.714200 0.384900
O52 O 0.328300 0.351200 0.343400
O53 O 0.654000 0.117100 0.327400
O54 O 0.673500 0.394300 0.010700
O55 O -0.118600 1.261400 0.727200
O56 O 1.034300 0.174600 0.028000

#END
