./ADOJEK_from_POSCAR.cif_generated_by_CrystalShift
_symmetry_cell_setting triclinic
_symmetry_space_group_name_H-M 'P 1'
loop_
_symmetry_equiv_pos_site_id
_symmetry_equiv_pos_as_xyz
1 x,y,z
_cell_length_a 16.696700
_cell_length_b 4.278700
_cell_length_c 13.126200
_cell_angle_alpha 90.000000
_cell_angle_beta 90.000000
_cell_angle_gamma 90.000000
_cell_volume 937.737963
loop_
_atom_site_label
_atom_site_type_symbol
_atom_site_fract_x
_atom_site_fract_y
_atom_site_fract_z
H1 H 0.053000 1.357000 1.188000
H2 H 0.956400 0.121400 0.497700
H3 H 0.189900 0.232000 0.227300
H4 H 0.936000 1.025000 0.110000
H5 H 0.310100 0.732000 0.727300
H6 H 0.412500 0.109700 0.345700
H7 H 0.779900 0.623300 0.140800
H8 H 0.477000 -0.264000 0.268000
H9 H 0.254500 0.693100 0.484900
H10 H 0.624200 -0.284800 0.420300
H11 H 0.124200 0.784800 0.420300
H12 H 0.043600 0.878600 0.997700
H13 H 0.754500 -0.193100 0.484900
H14 H -0.023000 0.764000 0.268000
H15 H 0.912500 0.390300 0.345700
H16 H 0.279900 -0.123300 0.140800
H17 H 0.064000 -0.025000 0.610000
H18 H 0.220100 0.376700 0.640800
H19 H 0.436000 -0.525000 0.110000
H20 H 0.689900 0.268000 0.227300
H21 H 0.456400 0.378600 0.497700
H22 H 0.553000 0.143000 1.188000
H23 H 0.523000 1.264000 0.768000
H24 H 0.447000 0.857000 0.688000
H25 H 0.087500 0.609700 0.845700
H26 H 0.543600 0.621400 0.997700
H27 H 0.810100 0.768000 0.727300
H28 H 0.564000 1.525000 0.610000
H29 H 0.245500 1.193100 0.984900
H30 H 0.587500 0.890300 0.845700
H31 H 0.720100 1.123300 0.640800
H32 H 1.023000 0.236000 0.768000
H33 H 0.745500 0.306900 0.984900
H34 H 0.375800 1.284800 0.920300
H35 H 0.875800 0.215200 0.920300
H36 H 0.947000 -0.357000 0.688000
C37 C 0.366880 1.150600 0.863790
C38 C 0.732900 0.447600 0.931300
C39 C 0.679780 1.085100 0.690320
C40 C 0.656750 0.587300 0.927090
C41 C 0.638920 0.795200 0.848560
C42 C 0.232900 1.052400 0.931300
C43 C 0.696010 0.865400 0.773710
C44 C 0.593480 0.515400 1.001460
C45 C 0.771260 0.723200 0.778160
C46 C 0.156750 0.912700 0.927090
C47 C 0.789880 0.515000 0.857130
C48 C 0.179780 0.414900 0.690320
C49 C 0.710120 0.015000 0.357130
C50 C 0.728740 0.223200 0.278160
C51 C 0.406520 0.484600 0.501460
C52 C 0.803990 0.365400 0.273710
C53 C 0.861080 0.295200 0.348560
C54 C 0.320220 -0.085100 0.190320
C55 C 0.843250 0.087300 0.427090
C56 C 0.767100 -0.052400 0.431300
C57 C 0.093480 0.984600 1.001460
C58 C 0.633120 -0.150600 0.363790
C59 C 0.133120 0.650600 0.363790
C60 C 0.138920 0.704800 0.848560
C61 C 0.196010 0.634600 0.773710
C62 C 0.267100 0.552400 0.431300
C63 C 0.820220 0.585100 0.190320
C64 C 0.343250 0.412700 0.427090
C65 C 0.361080 0.204800 0.348560
C66 C 0.271260 0.776800 0.778160
C67 C 0.303990 0.134600 0.273710
C68 C 0.906520 0.015400 0.501460
C69 C 0.228740 0.276800 0.278160
C70 C 0.289880 0.985000 0.857130
C71 C 0.866880 0.349400 0.863790
C72 C 0.210120 0.485000 0.357130
N73 N 0.894880 -0.188200 0.570910
N74 N 0.105120 1.188200 1.070910
N75 N 0.887630 0.726600 0.182770
N76 N 0.077670 0.622900 0.297310
N77 N 0.577670 -0.122900 0.297310
N78 N 0.387630 -0.226600 0.182770
N79 N 0.605120 0.311800 1.070910
N80 N 0.112370 0.273400 0.682770
N81 N 0.612370 1.226600 0.682770
N82 N 0.394880 0.688200 0.570910
N83 N 0.922330 0.377100 0.797310
N84 N 0.422330 1.122900 0.797310
O85 O 0.487560 1.313100 0.822950
O86 O 0.464360 0.730000 0.630270
O87 O 0.987560 0.186900 0.822950
O88 O 0.389040 -0.428200 0.098400
O89 O 0.610960 1.428200 0.598400
O90 O 0.110960 0.071800 0.598400
O91 O 0.535640 0.270000 1.130270
O92 O 0.012440 0.813100 0.322950
O93 O 0.512440 -0.313100 0.322950
O94 O 0.889040 0.928200 0.098400
O95 O 0.035640 1.230000 1.130270
O96 O 0.964360 -0.230000 0.630270

#END
