
#######################################################################
#
#                 Cambridge Crystallographic Data Centre
#                                CCDC 
#
#######################################################################
#
# If this CIF has been generated from an entry in the Cambridge 
# Structural Database, then it will include bibliographic, chemical, 
# crystal, experimental, refinement or atomic coordinate data resulting 
# from the CCDC's data processing and validation procedures.
#
#######################################################################

data_ADOLIP
_symmetry_cell_setting           orthorhombic
_symmetry_space_group_name_H-M   'P 21 21 21'
_symmetry_Int_Tables_number      19
_space_group_name_Hall           'P 2ac 2ab'
loop_
_symmetry_equiv_pos_site_id
_symmetry_equiv_pos_as_xyz
1 x,y,z
2 1/2-x,-y,1/2+z
3 -x,1/2+y,1/2-z
4 1/2+x,1/2-y,-z
_cell_length_a                   4.2290(8)
_cell_length_b                   14.112(3)
_cell_length_c                   23.312(5)
_cell_angle_alpha                90
_cell_angle_beta                 90
_cell_angle_gamma                90
_cell_volume                     1391.25
loop_
_atom_site_label
_atom_site_type_symbol
_atom_site_fract_x
_atom_site_fract_y
_atom_site_fract_z
I1 I -0.05474(10) 0.81398(3) 0.646706(19)
I2 I -0.67455(10) 0.55973(3) 0.82249(2)
F1 F -0.3891(10) 0.7226(3) 0.90078(16)
F2 F -0.4465(10) 0.6464(3) 0.70549(16)
F3 F 0.1380(9) 0.9121(3) 0.76497(17)
C1 C 0.2685(18) 1.0077(5) 0.9365(3)
C2 C 0.180(2) 0.9826(6) 0.9920(3)
H1 H 0.0629 0.9262 0.9984
C3 C 0.2623(18) 1.0394(5) 1.0372(3)
H2 H 0.1928 1.0210 1.0744
N1 N 0.4336(16) 1.1192(4) 1.0330(3)
C4 C 0.5260(19) 1.1412(5) 0.9802(3)
H3 H 0.6529 1.1961 0.9754
C5 C 0.450(2) 1.0892(5) 0.9318(3)
H4 H 0.5216 1.1095 0.8952
C6 C 0.1790(17) 0.9532(5) 0.8844(3)
H5 H 0.2685 0.9720 0.8488
C7 C -0.0166(18) 0.8804(5) 0.8844(3)
H6 H -0.0997 0.8632 0.9208
C8 C -0.1253(14) 0.8215(5) 0.8351(3)
C9 C -0.3151(17) 0.7433(5) 0.8458(3)
C10 C -0.4261(16) 0.6829(5) 0.8034(3)
C11 C -0.3436(17) 0.7050(4) 0.7475(3)
C12 C -0.1578(17) 0.7825(5) 0.7326(3)
C13 C -0.0523(17) 0.8378(4) 0.7774(3)
I1 I 0.55474(10) 0.18602(3) 0.146706(19)
I2 I 1.17455(10) 0.44027(3) 0.32249(2)
F1 F 0.8891(10) 0.2774(3) 0.40078(16)
F2 F 0.9465(10) 0.3536(3) 0.20549(16)
F3 F 0.3620(9) 0.0879(3) 0.26497(17)
C1 C 0.2315(18) -0.0077(5) 0.4365(3)
C2 C 0.320(2) 0.0174(6) 0.4920(3)
H1 H 0.4371 0.0738 0.4984
C3 C 0.2377(18) -0.0394(5) 0.5372(3)
H2 H 0.3072 -0.0210 0.5744
N1 N 0.0664(16) -0.1192(4) 0.5330(3)
C4 C -0.0260(19) -0.1412(5) 0.4802(3)
H3 H -0.1529 -0.1961 0.4754
C5 C 0.050(2) -0.0892(5) 0.4318(3)
H4 H -0.0216 -0.1095 0.3952
C6 C 0.3210(17) 0.0468(5) 0.3844(3)
H5 H 0.2315 0.0280 0.3488
C7 C 0.5166(18) 0.1196(5) 0.3844(3)
H6 H 0.5997 0.1368 0.4208
C8 C 0.6253(14) 0.1785(5) 0.3351(3)
C9 C 0.8151(17) 0.2567(5) 0.3458(3)
C10 C 0.9261(16) 0.3171(5) 0.3034(3)
C11 C 0.8436(17) 0.2950(4) 0.2475(3)
C12 C 0.6578(17) 0.2175(5) 0.2326(3)
C13 C 0.5523(17) 0.1622(4) 0.2774(3)
I1 I 1.05474(10) 0.31398(3) 0.853294(19)
I2 I 1.67455(10) 0.05973(3) 0.67751(2)
F1 F 1.3891(10) 0.2226(3) 0.59922(16)
F2 F 1.4465(10) 0.1464(3) 0.79451(16)
F3 F 0.8620(9) 0.4121(3) 0.73503(17)
C1 C 0.7315(18) 0.5077(5) 0.5635(3)
C2 C 0.820(2) 0.4826(6) 0.5080(3)
H1 H 0.9371 0.4262 0.5016
C3 C 0.7377(18) 0.5394(5) 0.4628(3)
H2 H 0.8072 0.5210 0.4256
N1 N 0.5664(16) 0.6192(4) 0.4670(3)
C4 C 0.4740(19) 0.6412(5) 0.5198(3)
H3 H 0.3471 0.6961 0.5246
C5 C 0.550(2) 0.5892(5) 0.5682(3)
H4 H 0.4784 0.6095 0.6048
C6 C 0.8210(17) 0.4532(5) 0.6156(3)
H5 H 0.7315 0.4720 0.6512
C7 C 1.0166(18) 0.3804(5) 0.6156(3)
H6 H 1.0997 0.3632 0.5792
C8 C 1.1253(14) 0.3215(5) 0.6649(3)
C9 C 1.3151(17) 0.2433(5) 0.6542(3)
C10 C 1.4261(16) 0.1829(5) 0.6966(3)
C11 C 1.3436(17) 0.2050(4) 0.7525(3)
C12 C 1.1578(17) 0.2825(5) 0.7674(3)
C13 C 1.0523(17) 0.3378(4) 0.7226(3)
I1 I 0.44526(10) 0.68602(3) 0.353294(19)
I2 I -0.17455(10) 0.94027(3) 0.17751(2)
F1 F 0.1109(10) 0.7774(3) 0.09922(16)
F2 F 0.0535(10) 0.8536(3) 0.29451(16)
F3 F 0.6380(9) 0.5879(3) 0.23503(17)
C1 C 0.7685(18) 0.4923(5) 0.0635(3)
C2 C 0.680(2) 0.5174(6) 0.0080(3)
H1 H 0.5629 0.5738 0.0016
C3 C 0.7623(18) 0.4606(5) -0.0372(3)
H2 H 0.6928 0.4790 -0.0744
N1 N 0.9336(16) 0.3808(4) -0.0330(3)
C4 C 1.0260(19) 0.3588(5) 0.0198(3)
H3 H 1.1529 0.3039 0.0246
C5 C 0.950(2) 0.4108(5) 0.0682(3)
H4 H 1.0216 0.3905 0.1048
C6 C 0.6790(17) 0.5468(5) 0.1156(3)
H5 H 0.7685 0.5280 0.1512
C7 C 0.4834(18) 0.6196(5) 0.1156(3)
H6 H 0.4003 0.6368 0.0792
C8 C 0.3747(14) 0.6785(5) 0.1649(3)
C9 C 0.1849(17) 0.7567(5) 0.1542(3)
C10 C 0.0739(16) 0.8171(5) 0.1966(3)
C11 C 0.1564(17) 0.7950(4) 0.2525(3)
C12 C 0.3422(17) 0.7175(5) 0.2674(3)
C13 C 0.4477(17) 0.6622(4) 0.2226(3)

#END
