
#######################################################################
#
#                 Cambridge Crystallographic Data Centre
#                                CCDC 
#
#######################################################################
#
# If this CIF has been generated from an entry in the Cambridge 
# Structural Database, then it will include bibliographic, chemical, 
# crystal, experimental, refinement or atomic coordinate data resulting 
# from the CCDC's data processing and validation procedures.
#
#######################################################################

data_ADOVEU
_symmetry_cell_setting           tetragonal
_symmetry_space_group_name_H-M   'P 41'
_symmetry_Int_Tables_number      76
_space_group_name_Hall           'P 4w'
loop_
_symmetry_equiv_pos_site_id
_symmetry_equiv_pos_as_xyz
1 x,y,z
2 -y,x,1/4+z
3 -x,-y,1/2+z
4 y,-x,3/4+z
_cell_length_a                   9.299(1)
_cell_length_b                   9.299(1)
_cell_length_c                   40.500(12)
_cell_angle_alpha                90
_cell_angle_beta                 90
_cell_angle_gamma                90
_cell_volume                     3502.09
loop_
_atom_site_label
_atom_site_type_symbol
_atom_site_fract_x
_atom_site_fract_y
_atom_site_fract_z
Br1 Br 0.81041(7) -0.35711(9) 0.13335
C1 C 0.50368(39) 0.10072(41) 0.29542(10)
C2 C 0.58454(42) 0.05082(48) 0.32642(11)
H1 H 0.68519(42) 0.07089(48) 0.32385(11)
H2 H 0.57325(42) -0.05122(48) 0.32893(11)
C3 C 0.52915(49) 0.12661(50) 0.35696(11)
H3 H 0.57397(49) 0.08685(50) 0.37626(11)
H4 H 0.42724(49) 0.11216(50) 0.35878(11)
C4 C 0.55870(59) 0.28551(52) 0.35447(11)
H5 H 0.65985(59) 0.30035(52) 0.35776(11)
H6 H 0.50848(59) 0.33467(52) 0.37183(11)
C5 C 0.50464(58) 0.49856(51) 0.31894(14)
H7 H 0.51405(58) 0.55751(51) 0.33828(14)
C6 C 0.47782(54) 0.56397(51) 0.28895(16)
H8 H 0.46638(54) 0.66643(51) 0.28772(16)
C7 C 0.46774(57) 0.48159(57) 0.26118(16)
H9 H 0.45609(57) 0.52726(57) 0.24009(16)
C8 C 0.47728(49) 0.33301(49) 0.26306(12)
H10 H 0.46546(49) 0.27530(49) 0.24359(12)
C9 C 0.51764(44) 0.35039(46) 0.32172(12)
C10 C 0.50165(39) 0.26472(44) 0.29331(11)
N1 N 0.57432(34) 0.03372(38) 0.26710(9)
H11 H 0.66851(34) 0.01253(38) 0.26868(9)
C11 C 0.50384(43) 0.00092(46) 0.23895(11)
O1 O 0.38094(31) 0.03974(36) 0.23312(8)
C12 C 0.58418(42) -0.08663(46) 0.21436(11)
C13 C 0.56080(53) -0.05812(52) 0.18136(12)
H12 H 0.49478(53) 0.01689(52) 0.17540(12)
C14 C 0.62974(61) -0.13691(59) 0.15719(13)
H13 H 0.61618(61) -0.11532(59) 0.13422(13)
C15 C 0.71742(50) -0.24809(60) 0.16647(13)
C16 C 0.73871(51) -0.28257(57) 0.19900(14)
H14 H 0.79558(51) -0.36537(57) 0.20447(14)
C17 C 0.67494(47) -0.20005(54) 0.22347(13)
H15 H 0.69270(47) -0.21955(54) 0.24639(13)
C18 C 0.35057(39) 0.03318(43) 0.29806(10)
N2 N 0.24052(32) 0.12732(35) 0.30094(9)
H16 H 0.25859(32) 0.22215(35) 0.29934(9)
C19 C 0.09416(40) 0.07962(46) 0.30540(10)
H17 H 0.09821(40) -0.01354(46) 0.31557(10)
C20 C 0.01134(41) 0.06280(42) 0.27267(11)
N3 N 0.08346(34) 0.08976(38) 0.24491(9)
H18 H 0.17787(34) 0.11051(38) 0.24604(9)
C21 C 0.01423(43) 0.08476(46) 0.21270(11)
H19 H -0.07371(43) 0.03164(46) 0.21502(11)
C22 C 0.11075(45) 0.00420(53) 0.18768(11)
N4 N 0.13377(40) -0.13531(41) 0.19304(10)
C23 C 0.21934(56) -0.21968(58) 0.16945(13)
H20 H 0.30088(56) -0.16571(58) 0.16185(13)
H21 H 0.16165(56) -0.24742(58) 0.15085(13)
C24 C 0.26299(63) -0.34992(62) 0.18875(14)
H22 H 0.35055(63) -0.33106(62) 0.20054(14)
H23 H 0.27629(63) -0.43274(62) 0.17493(14)
C25 C 0.13708(59) -0.37123(58) 0.21280(15)
H24 H 0.16440(59) -0.42854(58) 0.23149(15)
H25 H 0.05655(59) -0.41529(58) 0.20195(15)
C26 C 0.10364(54) -0.21757(52) 0.22301(12)
H26 H 0.00500(54) -0.20733(52) 0.22960(12)
H27 H 0.16476(54) -0.18659(52) 0.24074(12)
O2 O 0.33451(30) -0.09508(30) 0.29930(9)
O3 O -0.11501(30) 0.02686(38) 0.27364(9)
C27 C 0.01296(43) 0.18214(48) 0.32897(11)
H28 H 0.06029(43) 0.18179(48) 0.35004(11)
H29 H -0.08302(43) 0.14678(48) 0.33218(11)
C28 C 0.00389(43) 0.33524(49) 0.31665(11)
C29 C -0.11166(50) 0.38014(60) 0.29729(13)
H30 H -0.18561(50) 0.31278(60) 0.29143(13)
C30 C -0.12067(67) 0.52001(64) 0.28690(15)
H31 H -0.20033(67) 0.54821(64) 0.27328(15)
C31 C -0.01829(71) 0.61911(63) 0.29462(16)
H32 H -0.02650(71) 0.71663(63) 0.28707(16)
C32 C 0.09856(63) 0.57715(61) 0.31368(15)
H33 H 0.17218(63) 0.64520(61) 0.31934(15)
C33 C 0.10837(53) 0.43570(52) 0.32489(13)
H34 H 0.18680(53) 0.40763(52) 0.33889(13)
C34 C -0.02405(53) 0.23588(51) 0.20060(12)
H35 H 0.05928(53) 0.27664(51) 0.19020(12)
H36 H -0.04677(53) 0.29423(51) 0.21945(12)
C35 C -0.14729(50) 0.24164(54) 0.17666(13)
C36 C -0.27965(63) 0.29041(65) 0.18681(17)
H37 H -0.29185(63) 0.32233(65) 0.20918(17)
C37 C -0.39667(66) 0.29718(86) 0.16496(26)
H38 H -0.48973(66) 0.32911(86) 0.17214(26)
C38 C -0.37784(77) 0.25000(81) 0.13244(25)
H39 H -0.45601(77) 0.25334(81) 0.11698(25)
C39 C -0.24691(73) 0.20135(66) 0.12238(15)
H40 H -0.23362(73) 0.16954(66) 0.10004(15)
C40 C -0.13143(58) 0.19829(54) 0.14382(12)
H41 H -0.03906(58) 0.16590(54) 0.13628(12)
O4 O 0.15896(39) 0.06692(42) 0.16326(9)
Br1 Br 1.35711(9) 0.81041(7) 0.38335
C1 C 0.89928(41) 0.50368(39) 0.54542(10)
C2 C 0.94918(48) 0.58454(42) 0.57642(11)
H1 H 0.92911(48) 0.68519(42) 0.57385(11)
H2 H 1.05122(48) 0.57325(42) 0.57893(11)
C3 C 0.87339(50) 0.52915(49) 0.60696(11)
H3 H 0.91315(50) 0.57397(49) 0.62626(11)
H4 H 0.88784(50) 0.42724(49) 0.60878(11)
C4 C 0.71449(52) 0.55870(59) 0.60447(11)
H5 H 0.69965(52) 0.65985(59) 0.60776(11)
H6 H 0.66533(52) 0.50848(59) 0.62183(11)
C5 C 0.50144(51) 0.50464(58) 0.56894(14)
H7 H 0.44249(51) 0.51405(58) 0.58828(14)
C6 C 0.43603(51) 0.47782(54) 0.53895(16)
H8 H 0.33357(51) 0.46638(54) 0.53772(16)
C7 C 0.51841(57) 0.46774(57) 0.51118(16)
H9 H 0.47274(57) 0.45609(57) 0.49009(16)
C8 C 0.66699(49) 0.47728(49) 0.51306(12)
H10 H 0.72470(49) 0.46546(49) 0.49359(12)
C9 C 0.64961(46) 0.51764(44) 0.57172(12)
C10 C 0.73528(44) 0.50165(39) 0.54331(11)
N1 N 0.96628(38) 0.57432(34) 0.51710(9)
H11 H 0.98747(38) 0.66851(34) 0.51868(9)
C11 C 0.99908(46) 0.50384(43) 0.48895(11)
O1 O 0.96026(36) 0.38094(31) 0.48312(8)
C12 C 1.08663(46) 0.58418(42) 0.46436(11)
C13 C 1.05812(52) 0.56080(53) 0.43136(12)
H12 H 0.98311(52) 0.49478(53) 0.42540(12)
C14 C 1.13691(59) 0.62974(61) 0.40719(13)
H13 H 1.11532(59) 0.61618(61) 0.38422(13)
C15 C 1.24809(60) 0.71742(50) 0.41647(13)
C16 C 1.28257(57) 0.73871(51) 0.44900(14)
H14 H 1.36537(57) 0.79558(51) 0.45447(14)
C17 C 1.20005(54) 0.67494(47) 0.47347(13)
H15 H 1.21955(54) 0.69270(47) 0.49639(13)
C18 C 0.96682(43) 0.35057(39) 0.54806(10)
N2 N 0.87268(35) 0.24052(32) 0.55094(9)
H16 H 0.77785(35) 0.25859(32) 0.54934(9)
C19 C 0.92038(46) 0.09416(40) 0.55540(10)
H17 H 1.01354(46) 0.09821(40) 0.56557(10)
C20 C 0.93720(42) 0.01134(41) 0.52267(11)
N3 N 0.91024(38) 0.08346(34) 0.49491(9)
H18 H 0.88949(38) 0.17787(34) 0.49604(9)
C21 C 0.91524(46) 0.01423(43) 0.46270(11)
H19 H 0.96836(46) -0.07371(43) 0.46502(11)
C22 C 0.99580(53) 0.11075(45) 0.43768(11)
N4 N 1.13531(41) 0.13377(40) 0.44304(10)
C23 C 1.21968(58) 0.21934(56) 0.41945(13)
H20 H 1.16571(58) 0.30088(56) 0.41185(13)
H21 H 1.24742(58) 0.16165(56) 0.40085(13)
C24 C 1.34992(62) 0.26299(63) 0.43875(14)
H22 H 1.33106(62) 0.35055(63) 0.45054(14)
H23 H 1.43274(62) 0.27629(63) 0.42493(14)
C25 C 1.37123(58) 0.13708(59) 0.46280(15)
H24 H 1.42854(58) 0.16440(59) 0.48149(15)
H25 H 1.41529(58) 0.05655(59) 0.45195(15)
C26 C 1.21757(52) 0.10364(54) 0.47301(12)
H26 H 1.20733(52) 0.00500(54) 0.47960(12)
H27 H 1.18659(52) 0.16476(54) 0.49074(12)
O2 O 1.09508(30) 0.33451(30) 0.54930(9)
O3 O 0.97314(38) -0.11501(30) 0.52364(9)
C27 C 0.81786(48) 0.01296(43) 0.57897(11)
H28 H 0.81821(48) 0.06029(43) 0.60004(11)
H29 H 0.85322(48) -0.08302(43) 0.58218(11)
C28 C 0.66476(49) 0.00389(43) 0.56665(11)
C29 C 0.61986(60) -0.11166(50) 0.54729(13)
H30 H 0.68722(60) -0.18561(50) 0.54143(13)
C30 C 0.47999(64) -0.12067(67) 0.53690(15)
H31 H 0.45179(64) -0.20033(67) 0.52328(15)
C31 C 0.38089(63) -0.01829(71) 0.54462(16)
H32 H 0.28337(63) -0.02650(71) 0.53707(16)
C32 C 0.42285(61) 0.09856(63) 0.56368(15)
H33 H 0.35480(61) 0.17218(63) 0.56934(15)
C33 C 0.56430(52) 0.10837(53) 0.57489(13)
H34 H 0.59237(52) 0.18680(53) 0.58889(13)
C34 C 0.76412(51) -0.02405(53) 0.45060(12)
H35 H 0.72336(51) 0.05928(53) 0.44020(12)
H36 H 0.70577(51) -0.04677(53) 0.46945(12)
C35 C 0.75836(54) -0.14729(50) 0.42666(13)
C36 C 0.70959(65) -0.27965(63) 0.43681(17)
H37 H 0.67767(65) -0.29185(63) 0.45918(17)
C37 C 0.70282(86) -0.39667(66) 0.41496(26)
H38 H 0.67089(86) -0.48973(66) 0.42214(26)
C38 C 0.75000(81) -0.37784(77) 0.38244(25)
H39 H 0.74666(81) -0.45601(77) 0.36698(25)
C39 C 0.79865(66) -0.24691(73) 0.37238(15)
H40 H 0.83046(66) -0.23362(73) 0.35004(15)
C40 C 0.80171(54) -0.13143(58) 0.39382(12)
H41 H 0.83410(54) -0.03906(58) 0.38628(12)
O4 O 0.93308(42) 0.15896(39) 0.41326(9)
Br1 Br 0.18959(7) 1.35711(9) 0.63335
C1 C 0.49632(39) 0.89928(41) 0.79542(10)
C2 C 0.41546(42) 0.94918(48) 0.82642(11)
H1 H 0.31481(42) 0.92911(48) 0.82385(11)
H2 H 0.42675(42) 1.05122(48) 0.82893(11)
C3 C 0.47085(49) 0.87339(50) 0.85696(11)
H3 H 0.42603(49) 0.91315(50) 0.87626(11)
H4 H 0.57276(49) 0.88784(50) 0.85878(11)
C4 C 0.44130(59) 0.71449(52) 0.85447(11)
H5 H 0.34015(59) 0.69965(52) 0.85776(11)
H6 H 0.49152(59) 0.66533(52) 0.87183(11)
C5 C 0.49536(58) 0.50144(51) 0.81894(14)
H7 H 0.48595(58) 0.44249(51) 0.83828(14)
C6 C 0.52218(54) 0.43603(51) 0.78895(16)
H8 H 0.53362(54) 0.33357(51) 0.78772(16)
C7 C 0.53226(57) 0.51841(57) 0.76118(16)
H9 H 0.54391(57) 0.47274(57) 0.74009(16)
C8 C 0.52272(49) 0.66699(49) 0.76306(12)
H10 H 0.53454(49) 0.72470(49) 0.74359(12)
C9 C 0.48236(44) 0.64961(46) 0.82172(12)
C10 C 0.49835(39) 0.73528(44) 0.79331(11)
N1 N 0.42568(34) 0.96628(38) 0.76710(9)
H11 H 0.33149(34) 0.98747(38) 0.76868(9)
C11 C 0.49616(43) 0.99908(46) 0.73895(11)
O1 O 0.61906(31) 0.96026(36) 0.73312(8)
C12 C 0.41582(42) 1.08663(46) 0.71436(11)
C13 C 0.43920(53) 1.05812(52) 0.68136(12)
H12 H 0.50522(53) 0.98311(52) 0.67540(12)
C14 C 0.37026(61) 1.13691(59) 0.65719(13)
H13 H 0.38382(61) 1.11532(59) 0.63422(13)
C15 C 0.28258(50) 1.24809(60) 0.66647(13)
C16 C 0.26129(51) 1.28257(57) 0.69900(14)
H14 H 0.20442(51) 1.36537(57) 0.70447(14)
C17 C 0.32506(47) 1.20005(54) 0.72347(13)
H15 H 0.30730(47) 1.21955(54) 0.74639(13)
C18 C 0.64943(39) 0.96682(43) 0.79806(10)
N2 N 0.75948(32) 0.87268(35) 0.80094(9)
H16 H 0.74141(32) 0.77785(35) 0.79934(9)
C19 C 0.90584(40) 0.92038(46) 0.80540(10)
H17 H 0.90179(40) 1.01354(46) 0.81557(10)
C20 C 0.98866(41) 0.93720(42) 0.77267(11)
N3 N 0.91654(34) 0.91024(38) 0.74491(9)
H18 H 0.82213(34) 0.88949(38) 0.74604(9)
C21 C 0.98577(43) 0.91524(46) 0.71270(11)
H19 H 1.07371(43) 0.96836(46) 0.71502(11)
C22 C 0.88925(45) 0.99580(53) 0.68768(11)
N4 N 0.86623(40) 1.13531(41) 0.69304(10)
C23 C 0.78066(56) 1.21968(58) 0.66945(13)
H20 H 0.69912(56) 1.16571(58) 0.66185(13)
H21 H 0.83835(56) 1.24742(58) 0.65085(13)
C24 C 0.73701(63) 1.34992(62) 0.68875(14)
H22 H 0.64945(63) 1.33106(62) 0.70054(14)
H23 H 0.72371(63) 1.43274(62) 0.67493(14)
C25 C 0.86292(59) 1.37123(58) 0.71280(15)
H24 H 0.83560(59) 1.42854(58) 0.73149(15)
H25 H 0.94345(59) 1.41529(58) 0.70195(15)
C26 C 0.89636(54) 1.21757(52) 0.72301(12)
H26 H 0.99500(54) 1.20733(52) 0.72960(12)
H27 H 0.83524(54) 1.18659(52) 0.74074(12)
O2 O 0.66549(30) 1.09508(30) 0.79930(9)
O3 O 1.11501(30) 0.97314(38) 0.77364(9)
C27 C 0.98704(43) 0.81786(48) 0.82897(11)
H28 H 0.93971(43) 0.81821(48) 0.85004(11)
H29 H 1.08302(43) 0.85322(48) 0.83218(11)
C28 C 0.99611(43) 0.66476(49) 0.81665(11)
C29 C 1.11166(50) 0.61986(60) 0.79729(13)
H30 H 1.18561(50) 0.68722(60) 0.79143(13)
C30 C 1.12067(67) 0.47999(64) 0.78690(15)
H31 H 1.20033(67) 0.45179(64) 0.77328(15)
C31 C 1.01829(71) 0.38089(63) 0.79462(16)
H32 H 1.02650(71) 0.28337(63) 0.78707(16)
C32 C 0.90144(63) 0.42285(61) 0.81368(15)
H33 H 0.82782(63) 0.35480(61) 0.81934(15)
C33 C 0.89163(53) 0.56430(52) 0.82489(13)
H34 H 0.81320(53) 0.59237(52) 0.83889(13)
C34 C 1.02405(53) 0.76412(51) 0.70060(12)
H35 H 0.94072(53) 0.72336(51) 0.69020(12)
H36 H 1.04677(53) 0.70577(51) 0.71945(12)
C35 C 1.14729(50) 0.75836(54) 0.67666(13)
C36 C 1.27965(63) 0.70959(65) 0.68681(17)
H37 H 1.29185(63) 0.67767(65) 0.70918(17)
C37 C 1.39667(66) 0.70282(86) 0.66496(26)
H38 H 1.48973(66) 0.67089(86) 0.67214(26)
C38 C 1.37784(77) 0.75000(81) 0.63244(25)
H39 H 1.45601(77) 0.74666(81) 0.61698(25)
C39 C 1.24691(73) 0.79865(66) 0.62238(15)
H40 H 1.23362(73) 0.83046(66) 0.60004(15)
C40 C 1.13143(58) 0.80171(54) 0.64382(12)
H41 H 1.03906(58) 0.83410(54) 0.63628(12)
O4 O 0.84104(39) 0.93308(42) 0.66326(9)
Br1 Br -0.35711(9) 0.18959(7) 0.88335
C1 C 0.10072(41) 0.49632(39) 1.04542(10)
C2 C 0.05082(48) 0.41546(42) 1.07642(11)
H1 H 0.07089(48) 0.31481(42) 1.07385(11)
H2 H -0.05122(48) 0.42675(42) 1.07893(11)
C3 C 0.12661(50) 0.47085(49) 1.10696(11)
H3 H 0.08685(50) 0.42603(49) 1.12626(11)
H4 H 0.11216(50) 0.57276(49) 1.10878(11)
C4 C 0.28551(52) 0.44130(59) 1.10447(11)
H5 H 0.30035(52) 0.34015(59) 1.10776(11)
H6 H 0.33467(52) 0.49152(59) 1.12183(11)
C5 C 0.49856(51) 0.49536(58) 1.06894(14)
H7 H 0.55751(51) 0.48595(58) 1.08828(14)
C6 C 0.56397(51) 0.52218(54) 1.03895(16)
H8 H 0.66643(51) 0.53362(54) 1.03772(16)
C7 C 0.48159(57) 0.53226(57) 1.01118(16)
H9 H 0.52726(57) 0.54391(57) 0.99009(16)
C8 C 0.33301(49) 0.52272(49) 1.01306(12)
H10 H 0.27530(49) 0.53454(49) 0.99359(12)
C9 C 0.35039(46) 0.48236(44) 1.07172(12)
C10 C 0.26472(44) 0.49835(39) 1.04331(11)
N1 N 0.03372(38) 0.42568(34) 1.01710(9)
H11 H 0.01253(38) 0.33149(34) 1.01868(9)
C11 C 0.00092(46) 0.49616(43) 0.98895(11)
O1 O 0.03974(36) 0.61906(31) 0.98312(8)
C12 C -0.08663(46) 0.41582(42) 0.96436(11)
C13 C -0.05812(52) 0.43920(53) 0.93136(12)
H12 H 0.01689(52) 0.50522(53) 0.92540(12)
C14 C -0.13691(59) 0.37026(61) 0.90719(13)
H13 H -0.11532(59) 0.38382(61) 0.88422(13)
C15 C -0.24809(60) 0.28258(50) 0.91647(13)
C16 C -0.28257(57) 0.26129(51) 0.94900(14)
H14 H -0.36537(57) 0.20442(51) 0.95447(14)
C17 C -0.20005(54) 0.32506(47) 0.97347(13)
H15 H -0.21955(54) 0.30730(47) 0.99639(13)
C18 C 0.03318(43) 0.64943(39) 1.04806(10)
N2 N 0.12732(35) 0.75948(32) 1.05094(9)
H16 H 0.22215(35) 0.74141(32) 1.04934(9)
C19 C 0.07962(46) 0.90584(40) 1.05540(10)
H17 H -0.01354(46) 0.90179(40) 1.06557(10)
C20 C 0.06280(42) 0.98866(41) 1.02267(11)
N3 N 0.08976(38) 0.91654(34) 0.99491(9)
H18 H 0.11051(38) 0.82213(34) 0.99604(9)
C21 C 0.08476(46) 0.98577(43) 0.96270(11)
H19 H 0.03164(46) 1.07371(43) 0.96502(11)
C22 C 0.00420(53) 0.88925(45) 0.93768(11)
N4 N -0.13531(41) 0.86623(40) 0.94304(10)
C23 C -0.21968(58) 0.78066(56) 0.91945(13)
H20 H -0.16571(58) 0.69912(56) 0.91185(13)
H21 H -0.24742(58) 0.83835(56) 0.90085(13)
C24 C -0.34992(62) 0.73701(63) 0.93875(14)
H22 H -0.33106(62) 0.64945(63) 0.95054(14)
H23 H -0.43274(62) 0.72371(63) 0.92493(14)
C25 C -0.37123(58) 0.86292(59) 0.96280(15)
H24 H -0.42854(58) 0.83560(59) 0.98149(15)
H25 H -0.41529(58) 0.94345(59) 0.95195(15)
C26 C -0.21757(52) 0.89636(54) 0.97301(12)
H26 H -0.20733(52) 0.99500(54) 0.97960(12)
H27 H -0.18659(52) 0.83524(54) 0.99074(12)
O2 O -0.09508(30) 0.66549(30) 1.04930(9)
O3 O 0.02686(38) 1.11501(30) 1.02364(9)
C27 C 0.18214(48) 0.98704(43) 1.07897(11)
H28 H 0.18179(48) 0.93971(43) 1.10004(11)
H29 H 0.14678(48) 1.08302(43) 1.08218(11)
C28 C 0.33524(49) 0.99611(43) 1.06665(11)
C29 C 0.38014(60) 1.11166(50) 1.04729(13)
H30 H 0.31278(60) 1.18561(50) 1.04143(13)
C30 C 0.52001(64) 1.12067(67) 1.03690(15)
H31 H 0.54821(64) 1.20033(67) 1.02328(15)
C31 C 0.61911(63) 1.01829(71) 1.04462(16)
H32 H 0.71663(63) 1.02650(71) 1.03707(16)
C32 C 0.57715(61) 0.90144(63) 1.06368(15)
H33 H 0.64520(61) 0.82782(63) 1.06934(15)
C33 C 0.43570(52) 0.89163(53) 1.07489(13)
H34 H 0.40763(52) 0.81320(53) 1.08889(13)
C34 C 0.23588(51) 1.02405(53) 0.95060(12)
H35 H 0.27664(51) 0.94072(53) 0.94020(12)
H36 H 0.29423(51) 1.04677(53) 0.96945(12)
C35 C 0.24164(54) 1.14729(50) 0.92666(13)
C36 C 0.29041(65) 1.27965(63) 0.93681(17)
H37 H 0.32233(65) 1.29185(63) 0.95918(17)
C37 C 0.29718(86) 1.39667(66) 0.91496(26)
H38 H 0.32911(86) 1.48973(66) 0.92214(26)
C38 C 0.25000(81) 1.37784(77) 0.88244(25)
H39 H 0.25334(81) 1.45601(77) 0.86698(25)
C39 C 0.20135(66) 1.24691(73) 0.87238(15)
H40 H 0.16954(66) 1.23362(73) 0.85004(15)
C40 C 0.19829(54) 1.13143(58) 0.89382(12)
H41 H 0.16590(54) 1.03906(58) 0.88628(12)
O4 O 0.06692(42) 0.84104(39) 0.91326(9)

#END
