./ADOXOG_from_POSCAR.cif_generated_by_CrystalShift
_symmetry_cell_setting triclinic
_symmetry_space_group_name_H-M 'P 1'
loop_
_symmetry_equiv_pos_site_id
_symmetry_equiv_pos_as_xyz
1 x,y,z
_cell_length_a 9.058000
_cell_length_b 14.522000
_cell_length_c 15.355000
_cell_angle_alpha 90.000000
_cell_angle_beta 90.000000
_cell_angle_gamma 90.000000
_cell_volume 2019.800938
loop_
_atom_site_label
_atom_site_type_symbol
_atom_site_fract_x
_atom_site_fract_y
_atom_site_fract_z
H1 H -0.252280 0.785330 0.874540
H2 H 1.122340 0.542280 1.092830
H3 H 0.062590 0.875960 1.041210
H4 H 0.996860 0.641660 0.997490
H5 H 0.242680 0.848760 0.935320
H6 H 1.116440 0.381910 1.068530
H7 H -0.071690 0.756730 0.769960
H8 H 0.875120 0.582630 0.874730
H9 H 0.158990 0.503420 0.784210
H10 H 1.000020 0.324170 0.943900
H11 H 0.325570 0.511710 0.757640
H12 H 0.282600 0.494030 0.855110
H13 H 0.917580 0.586340 0.614540
H14 H 0.832420 0.289160 0.858860
H15 H 0.167580 0.789160 0.641140
H16 H 0.386340 0.867810 0.805290
H17 H 0.788850 0.546770 0.557470
H18 H -0.000020 0.824170 0.556100
H19 H 0.717400 -0.005970 0.644890
H20 H 0.674430 0.011710 0.742360
H21 H 0.841010 0.003420 0.715790
H22 H 0.934560 0.581210 0.513060
H23 H 0.124880 1.082630 0.625270
H24 H -0.116440 0.881910 0.431470
H25 H 0.757320 0.348760 0.564680
H26 H 0.003140 1.141660 0.502510
H27 H 0.937410 0.375960 0.458790
H28 H -0.122340 1.042280 0.407170
H29 H 1.186360 0.349160 0.489030
H30 H 0.399010 0.773680 0.852490
H31 H 1.252280 0.285330 0.625460
H32 H -0.417580 0.413660 0.114540
H33 H 1.071690 0.256730 0.730040
H34 H -0.288850 0.453230 0.057470
H35 H 0.613660 0.367810 0.694710
H36 H 0.600990 0.273680 0.647510
H37 H -0.434560 0.418790 0.013060
H38 H -0.046350 0.347040 0.296680
H39 H 0.523840 0.378420 0.851270
H40 H -0.226380 0.398780 0.200390
H41 H 0.342420 0.329050 0.948470
H42 H -0.157580 0.170950 0.051530
H43 H 0.023840 0.121580 0.148730
H44 H 0.273620 0.101220 0.799610
H45 H 0.100990 0.226320 0.352490
H46 H 0.453650 0.152960 0.703320
H47 H 0.113660 0.132190 0.305290
H48 H 0.571690 0.243270 0.269960
H49 H 0.065440 0.081210 0.986940
H50 H 0.211150 0.046770 0.942530
H51 H 0.082420 0.086340 0.885460
H52 H 0.546350 0.652960 0.796680
H53 H 0.752280 0.214670 0.374540
H54 H 0.377660 0.457720 0.592830
H55 H 0.686360 0.150840 0.510970
H56 H 0.503140 0.358340 0.497490
H57 H 0.437410 0.124040 0.541210
H58 H 0.383560 0.618090 0.568530
H59 H 0.257320 0.151240 0.435320
H60 H 0.624880 0.417370 0.374730
H61 H 0.341010 0.496580 0.284210
H62 H 0.499980 0.675830 0.443900
H63 H 0.174430 0.488290 0.257640
H64 H 0.217400 0.505970 0.355110
H65 H 0.476160 0.878420 0.648730
H66 H 0.667580 0.710840 0.358860
H67 H 0.332420 0.210840 0.141140
H68 H 0.500020 0.175830 0.056100
H69 H 0.726380 0.601220 0.700390
H70 H 0.375120 -0.082630 0.125270
H71 H 0.782600 1.005970 0.144890
H72 H 0.825570 0.988290 0.242360
H73 H 0.658990 0.996580 0.215790
H74 H 0.616440 0.118090 -0.068530
H75 H 0.496860 -0.141660 0.002510
H76 H 0.622340 -0.042280 -0.092830
H77 H 0.742680 0.651240 0.064680
H78 H 0.657580 0.829050 0.551530
H79 H 0.562590 0.624040 -0.041210
H80 H 1.417580 0.913660 0.385460
H81 H 0.313640 0.650840 -0.010970
H82 H 1.288850 0.953230 0.442530
H83 H 0.247720 0.714670 0.125460
H84 H 1.434560 0.918790 0.486940
H85 H 0.428310 0.743270 0.230040
H86 H 1.046350 0.847040 0.203320
H87 H 0.886340 0.632190 0.194710
H88 H 0.899010 0.726320 0.147510
H89 H 1.226380 0.898780 0.299610
H90 H 1.157580 0.670950 0.448470
H91 H 0.976160 0.621580 0.351270
H92 H -0.186360 0.849160 1.010970
C93 C 1.027650 0.678220 0.340470
C94 C 1.206440 0.791250 0.385300
C95 C 1.174920 0.842210 0.310790
C96 C 0.992600 0.728810 0.266840
C97 C 1.068800 0.810950 0.254000
C98 C 0.878170 0.697590 0.202460
C99 C 0.706440 0.708750 0.614700
C100 C 1.366550 0.908350 0.440030
C101 C 0.455840 0.718760 0.174290
C102 C 0.349060 0.700990 0.112520
C103 C 0.387740 0.664860 0.031720
C104 C 0.533120 0.647250 0.014690
C105 C 0.569500 -0.017890 -0.043780
C106 C 0.640980 0.664480 0.077030
C107 C 0.497890 -0.076600 0.013550
C108 C 0.603190 0.700880 0.157410
C109 C 0.569480 0.076760 -0.028360
C110 C 0.674920 0.657790 0.689210
C111 C 0.425110 -0.042010 0.085730
C112 C 0.754470 0.975210 0.197680
C113 C 0.498290 0.110850 0.044670
C114 C 0.711870 0.825120 0.250490
C115 C 0.425500 0.052590 0.101290
C116 C 0.354610 0.085260 0.183990
C117 C 0.632490 0.791690 0.600940
C118 C 0.716610 0.721650 0.228880
C119 C 0.283390 0.221650 0.271120
C120 C 0.288130 0.325120 0.249510
C121 C 0.568800 0.689050 0.746000
C122 C 0.245530 0.475210 0.302320
C123 C 0.645390 0.585260 0.316010
C124 C 0.574500 0.552590 0.398710
C125 C 0.501710 0.610850 0.455330
C126 C 0.527650 0.821780 0.659530
C127 C 0.396810 0.200880 0.342590
C128 C 0.359020 0.164480 0.422970
C129 C 0.574890 0.457990 0.414270
C130 C 0.466880 0.147250 0.485310
C131 C 0.430520 0.576760 0.528360
C132 C 0.612260 0.164860 0.468280
C133 C 0.502110 0.423400 0.486450
C134 C 0.650940 0.200990 0.387480
C135 C 0.430500 0.482110 0.543780
C136 C 0.544160 0.218760 0.325710
C137 C 0.133450 0.091650 0.940030
C138 C 0.121830 0.197590 0.297540
C139 C 0.866550 0.591650 0.559970
C140 C 0.431200 0.189050 0.754000
C141 C 0.007400 0.228810 0.233160
C142 C -0.027650 0.178220 0.159530
C143 C 0.325080 0.157790 0.810790
C144 C -0.132490 0.208310 0.100940
C145 C 0.293560 0.208750 0.885300
C146 C -0.206440 0.291250 0.114700
C147 C -0.174920 0.342210 0.189210
C148 C 0.367510 0.291690 0.899060
C149 C -0.068800 0.310950 0.246000
C150 C 0.472350 0.321780 0.840470
C151 C 0.492600 0.771190 0.733160
C152 C -0.366550 0.408350 0.059970
C153 C 0.507400 0.271190 0.766840
C154 C 0.621830 0.302410 0.702460
C155 C 1.044160 0.281240 0.674290
C156 C 1.150940 0.299010 0.612520
C157 C -0.069500 1.017890 0.456220
C158 C 1.112260 0.335140 0.531720
C159 C 0.002110 1.076600 0.513550
C160 C 0.966880 0.352750 0.514690
C161 C -0.069480 0.923240 0.471640
C162 C 0.859020 0.335520 0.577030
C163 C 0.074890 1.042010 0.585730
C164 C 0.896810 0.299120 0.657410
C165 C 0.001710 0.889150 0.544670
C166 C 0.745530 0.024790 0.697680
C167 C 0.074500 0.947410 0.601290
C168 C 0.145390 0.914740 0.683990
C169 C 0.788130 0.174880 0.750490
C170 C 0.783390 0.278350 0.728880
C171 C 0.216610 0.778350 0.771120
C172 C 0.211870 0.674880 0.749510
C173 C 0.378170 0.802410 0.797540
C174 C 0.254470 0.524790 0.802320
C175 C 0.854610 0.414740 0.816010
C176 C 0.925500 0.447410 0.898710
C177 C 0.998290 0.389150 0.955330
C178 C 0.925110 0.542010 0.914270
C179 C 0.103190 0.799120 0.842590
C180 C 0.140980 0.835520 0.922970
C181 C 1.069480 0.423240 1.028360
C182 C 0.033120 0.852750 0.985310
C183 C 0.997890 0.576600 0.986450
C184 C -0.112260 0.835140 0.968280
C185 C 1.132490 0.708310 0.399060
C186 C -0.150940 0.799010 0.887480
C187 C 1.069500 0.517890 1.043780
C188 C -0.044160 0.781240 0.825710
N189 N 0.826160 0.323670 0.810320
N190 N 0.326160 0.176330 0.189680
N191 N 0.173840 0.823670 0.689680
N192 N 0.673840 0.676330 0.310320
O193 O -0.306760 0.316550 0.052470
O194 O 0.327140 0.031510 0.244400
O195 O 0.319900 0.355780 0.179820
O196 O 0.248560 0.624430 0.817740
O197 O 0.680100 0.855780 0.320180
O198 O 1.306760 0.816550 0.447530
O199 O 0.672860 0.531510 0.255600
O200 O 0.748560 0.875570 0.182260
O201 O 0.251440 0.375570 0.317740
O202 O 0.819900 0.144220 0.820180
O203 O 0.806760 0.683450 0.552470
O204 O 0.193240 0.183450 0.947530
O205 O 0.827140 0.468490 0.755600
O206 O 0.751440 0.124430 0.682260
O207 O 0.172860 0.968490 0.744400
O208 O 0.180100 0.644220 0.679820

#END
