
#######################################################################
#
#                 Cambridge Crystallographic Data Centre
#                                CCDC 
#
#######################################################################
#
# If this CIF has been generated from an entry in the Cambridge 
# Structural Database, then it will include bibliographic, chemical, 
# crystal, experimental, refinement or atomic coordinate data resulting 
# from the CCDC's data processing and validation procedures.
#
#######################################################################

data_ADOYAT
_symmetry_cell_setting           orthorhombic
_symmetry_space_group_name_H-M   'P 21 21 21'
_symmetry_Int_Tables_number      19
_space_group_name_Hall           'P 2ac 2ab'
loop_
_symmetry_equiv_pos_site_id
_symmetry_equiv_pos_as_xyz
1 x,y,z
2 1/2-x,-y,1/2+z
3 1/2+x,1/2-y,-z
4 -x,1/2+y,1/2-z
_cell_length_a                   9.166(3)
_cell_length_b                   9.860(4)
_cell_length_c                   16.987(5)
_cell_angle_alpha                90
_cell_angle_beta                 90
_cell_angle_gamma                90
_cell_volume                     1535.23
loop_
_atom_site_label
_atom_site_type_symbol
_atom_site_fract_x
_atom_site_fract_y
_atom_site_fract_z
O1 O 0.38089(20) 0.91197(18) 0.24983(12)
C1 C 0.34149(29) 1.05076(24) 0.26607(16)
H1 H 0.28910(29) 1.08808(24) 0.22219(16)
H2 H 0.42883(29) 1.10309(24) 0.27317(16)
C2 C 0.25051(27) 1.06301(22) 0.33942(13)
N1 N 0.16313(21) 0.96954(18) 0.36103(11)
C3 C 0.14666(27) 0.85132(22) 0.30897(14)
C4 C 0.29003(28) 0.81104(26) 0.27033(17)
O2 O 0.32704(22) 0.69681(19) 0.25662(15)
C5 C 0.03652(26) 0.88507(25) 0.24267(15)
H3 H 0.01939(26) 0.80618(25) 0.21087(15)
H4 H 0.07587(26) 0.95497(25) 0.20955(15)
C6 C -0.10588(27) 0.93319(26) 0.27845(16)
H5 H -0.17664(27) 0.94596(26) 0.23745(16)
H6 H -0.09029(27) 1.01929(26) 0.30346(16)
C7 C -0.16471(28) 0.83540(25) 0.33915(14)
C8 C -0.07397(28) 0.74206(25) 0.37580(13)
C9 C 0.08736(27) 0.73212(23) 0.35692(14)
H7 H 0.14137(27) 0.72525(23) 0.40518(14)
H8 H 0.10357(27) 0.65033(23) 0.32754(14)
C10 C -0.31369(32) 0.83904(32) 0.35807(18)
H9 H -0.37642(32) 0.90320(32) 0.33235(18)
C11 C -0.37145(35) 0.74878(37) 0.41205(18)
H10 H -0.47298(35) 0.75293(37) 0.42572(18)
C12 C -0.28154(40) 0.65443(38) 0.44760(16)
H11 H -0.32152(40) 0.59022(38) 0.48420(16)
C13 C -0.13437(36) 0.65164(28) 0.42985(15)
H12 H -0.07192(36) 0.58730(28) 0.45561(15)
C14 C 0.25994(29) 1.19058(23) 0.38596(14)
C15 C 0.36180(31) 1.28980(24) 0.36900(16)
H13 H 0.42894(31) 1.27498(24) 0.32649(16)
C16 C 0.36804(35) 1.40894(27) 0.41268(17)
H14 H 0.43896(35) 1.47683(27) 0.39939(17)
C17 C 0.27411(39) 1.42795(28) 0.47436(19)
H15 H 0.27998(39) 1.50964(28) 0.50495(19)
C18 C 0.17103(46) 1.33135(33) 0.49134(21)
H16 H 0.10464(46) 1.34557(33) 0.53426(21)
C19 C 0.16310(38) 1.21306(29) 0.44721(19)
H17 H 0.08885(38) 1.14687(29) 0.45782(19)
O1 O 0.11911(20) 0.08803(18) 0.74983(12)
C1 C 0.15851(29) -0.05076(24) 0.76607(16)
H1 H 0.21090(29) -0.08808(24) 0.72219(16)
H2 H 0.07117(29) -0.10309(24) 0.77317(16)
C2 C 0.24949(27) -0.06301(22) 0.83942(13)
N1 N 0.33687(21) 0.03046(18) 0.86103(11)
C3 C 0.35334(27) 0.14868(22) 0.80897(14)
C4 C 0.20997(28) 0.18896(26) 0.77033(17)
O2 O 0.17296(22) 0.30319(19) 0.75662(15)
C5 C 0.46348(26) 0.11493(25) 0.74267(15)
H3 H 0.48061(26) 0.19382(25) 0.71087(15)
H4 H 0.42413(26) 0.04503(25) 0.70955(15)
C6 C 0.60588(27) 0.06681(26) 0.77845(16)
H5 H 0.67664(27) 0.05404(26) 0.73745(16)
H6 H 0.59029(27) -0.01929(26) 0.80346(16)
C7 C 0.66471(28) 0.16460(25) 0.83915(14)
C8 C 0.57397(28) 0.25794(25) 0.87580(13)
C9 C 0.41264(27) 0.26788(23) 0.85692(14)
H7 H 0.35863(27) 0.27475(23) 0.90518(14)
H8 H 0.39643(27) 0.34967(23) 0.82754(14)
C10 C 0.81369(32) 0.16096(32) 0.85807(18)
H9 H 0.87642(32) 0.09680(32) 0.83235(18)
C11 C 0.87145(35) 0.25122(37) 0.91205(18)
H10 H 0.97298(35) 0.24707(37) 0.92572(18)
C12 C 0.78154(40) 0.34557(38) 0.94760(16)
H11 H 0.82152(40) 0.40978(38) 0.98420(16)
C13 C 0.63437(36) 0.34836(28) 0.92985(15)
H12 H 0.57192(36) 0.41270(28) 0.95561(15)
C14 C 0.24006(29) -0.19058(23) 0.88596(14)
C15 C 0.13820(31) -0.28980(24) 0.86900(16)
H13 H 0.07106(31) -0.27498(24) 0.82649(16)
C16 C 0.13196(35) -0.40894(27) 0.91268(17)
H14 H 0.06104(35) -0.47683(27) 0.89939(17)
C17 C 0.22589(39) -0.42795(28) 0.97436(19)
H15 H 0.22002(39) -0.50964(28) 1.00495(19)
C18 C 0.32897(46) -0.33135(33) 0.99134(21)
H16 H 0.39536(46) -0.34557(33) 1.03426(21)
C19 C 0.33690(38) -0.21306(29) 0.94721(19)
H17 H 0.41115(38) -0.14687(29) 0.95782(19)
O1 O 0.88089(20) 0.58803(18) 0.75017(12)
C1 C 0.84149(29) 0.44924(24) 0.73393(16)
H1 H 0.78910(29) 0.41192(24) 0.77781(16)
H2 H 0.92883(29) 0.39691(24) 0.72683(16)
C2 C 0.75051(27) 0.43699(22) 0.66058(13)
N1 N 0.66313(21) 0.53046(18) 0.63897(11)
C3 C 0.64666(27) 0.64868(22) 0.69103(14)
C4 C 0.79003(28) 0.68896(26) 0.72967(17)
O2 O 0.82704(22) 0.80319(19) 0.74338(15)
C5 C 0.53652(26) 0.61493(25) 0.75733(15)
H3 H 0.51939(26) 0.69382(25) 0.78913(15)
H4 H 0.57587(26) 0.54503(25) 0.79045(15)
C6 C 0.39412(27) 0.56681(26) 0.72155(16)
H5 H 0.32336(27) 0.55404(26) 0.76255(16)
H6 H 0.40971(27) 0.48071(26) 0.69654(16)
C7 C 0.33529(28) 0.66460(25) 0.66085(14)
C8 C 0.42603(28) 0.75794(25) 0.62420(13)
C9 C 0.58736(27) 0.76788(23) 0.64308(14)
H7 H 0.64137(27) 0.77475(23) 0.59482(14)
H8 H 0.60357(27) 0.84967(23) 0.67246(14)
C10 C 0.18631(32) 0.66096(32) 0.64193(18)
H9 H 0.12358(32) 0.59680(32) 0.66765(18)
C11 C 0.12855(35) 0.75122(37) 0.58795(18)
H10 H 0.02702(35) 0.74707(37) 0.57428(18)
C12 C 0.21846(40) 0.84557(38) 0.55240(16)
H11 H 0.17848(40) 0.90978(38) 0.51580(16)
C13 C 0.36563(36) 0.84836(28) 0.57015(15)
H12 H 0.42808(36) 0.91270(28) 0.54439(15)
C14 C 0.75994(29) 0.30942(23) 0.61404(14)
C15 C 0.86180(31) 0.21020(24) 0.63100(16)
H13 H 0.92894(31) 0.22502(24) 0.67351(16)
C16 C 0.86804(35) 0.09106(27) 0.58732(17)
H14 H 0.93896(35) 0.02317(27) 0.60061(17)
C17 C 0.77411(39) 0.07205(28) 0.52564(19)
H15 H 0.77998(39) -0.00964(28) 0.49505(19)
C18 C 0.67103(46) 0.16865(33) 0.50866(21)
H16 H 0.60464(46) 0.15443(33) 0.46574(21)
C19 C 0.66310(38) 0.28694(29) 0.55279(19)
H17 H 0.58885(38) 0.35313(29) 0.54218(19)
O1 O 0.61911(20) 0.41197(18) 0.25017(12)
C1 C 0.65851(29) 0.55076(24) 0.23393(16)
H1 H 0.71090(29) 0.58808(24) 0.27781(16)
H2 H 0.57117(29) 0.60309(24) 0.22683(16)
C2 C 0.74949(27) 0.56301(22) 0.16058(13)
N1 N 0.83687(21) 0.46954(18) 0.13897(11)
C3 C 0.85334(27) 0.35132(22) 0.19103(14)
C4 C 0.70997(28) 0.31104(26) 0.22967(17)
O2 O 0.67296(22) 0.19681(19) 0.24338(15)
C5 C 0.96348(26) 0.38507(25) 0.25733(15)
H3 H 0.98061(26) 0.30618(25) 0.28913(15)
H4 H 0.92413(26) 0.45497(25) 0.29045(15)
C6 C 1.10588(27) 0.43319(26) 0.22155(16)
H5 H 1.17664(27) 0.44596(26) 0.26255(16)
H6 H 1.09029(27) 0.51929(26) 0.19654(16)
C7 C 1.16471(28) 0.33540(25) 0.16085(14)
C8 C 1.07397(28) 0.24206(25) 0.12420(13)
C9 C 0.91264(27) 0.23212(23) 0.14308(14)
H7 H 0.85863(27) 0.22525(23) 0.09482(14)
H8 H 0.89643(27) 0.15033(23) 0.17246(14)
C10 C 1.31369(32) 0.33904(32) 0.14193(18)
H9 H 1.37642(32) 0.40320(32) 0.16765(18)
C11 C 1.37145(35) 0.24878(37) 0.08795(18)
H10 H 1.47298(35) 0.25293(37) 0.07428(18)
C12 C 1.28154(40) 0.15443(38) 0.05240(16)
H11 H 1.32152(40) 0.09022(38) 0.01580(16)
C13 C 1.13437(36) 0.15164(28) 0.07015(15)
H12 H 1.07192(36) 0.08730(28) 0.04439(15)
C14 C 0.74006(29) 0.69058(23) 0.11404(14)
C15 C 0.63820(31) 0.78980(24) 0.13100(16)
H13 H 0.57106(31) 0.77498(24) 0.17351(16)
C16 C 0.63196(35) 0.90894(27) 0.08732(17)
H14 H 0.56104(35) 0.97683(27) 0.10061(17)
C17 C 0.72589(39) 0.92795(28) 0.02564(19)
H15 H 0.72002(39) 1.00964(28) -0.00495(19)
C18 C 0.82897(46) 0.83135(33) 0.00866(21)
H16 H 0.89536(46) 0.84557(33) -0.03426(21)
C19 C 0.83690(38) 0.71306(29) 0.05279(19)
H17 H 0.91115(38) 0.64687(29) 0.04218(19)

#END
