
#######################################################################
#
#                 Cambridge Crystallographic Data Centre
#                                CCDC 
#
#######################################################################
#
# If this CIF has been generated from an entry in the Cambridge 
# Structural Database, then it will include bibliographic, chemical, 
# crystal, experimental, refinement or atomic coordinate data resulting 
# from the CCDC's data processing and validation procedures.
#
#######################################################################

data_ADUGOX
_symmetry_cell_setting           monoclinic
_symmetry_space_group_name_H-M   'P 21/c'
_symmetry_Int_Tables_number      14
_space_group_name_Hall           '-P 2ybc'
loop_
_symmetry_equiv_pos_site_id
_symmetry_equiv_pos_as_xyz
1 x,y,z
2 -x,1/2+y,1/2-z
3 -x,-y,-z
4 x,1/2-y,1/2+z
_cell_length_a                   7.5470(10)
_cell_length_b                   10.9670(10)
_cell_length_c                   15.050(2)
_cell_angle_alpha                90
_cell_angle_beta                 101.150(10)
_cell_angle_gamma                90
_cell_volume                     1222.14
loop_
_atom_site_label
_atom_site_type_symbol
_atom_site_fract_x
_atom_site_fract_y
_atom_site_fract_z
P1 P 0.85021(5) 0.25134(3) 0.11148(2)
F1 F 0.78159(13) 0.39220(9) 0.11937(7)
F2 F 0.96727(14) 0.25783(9) 0.21445(7)
F3 F 0.74564(14) 0.24944(9) 0.00528(7)
F4 F 0.93016(13) 0.11537(9) 0.10052(7)
N1 N 1.15263(19) 0.41167(14) 0.10810(10)
N2 N 1.1227(2) 0.27555(14) 0.00096(10)
C1 C 1.0568(2) 0.31699(14) 0.07106(10)
C2 C 1.1377(3) 0.48567(18) 0.18654(13)
H1 H 1.0341 0.4603 0.2100
H2 H 1.1248 0.5699 0.1690
H3 H 1.2445 0.4757 0.2323
C3 C 1.3051(2) 0.43865(17) 0.06345(12)
H4 H 1.4197 0.4271 0.1046
H5 H 1.2986 0.5214 0.0404
C4 C 1.2803(2) 0.34635(17) -0.01317(12)
H6 H 1.2569 0.3865 -0.0717
H7 H 1.3860 0.2948 -0.0090
C5 C 1.0655(3) 0.17398(18) -0.05999(12)
H8 H 0.9621 0.1354 -0.0437
H9 H 1.1621 0.1160 -0.0554
H10 H 1.0346 0.2035 -0.1211
C6 C 0.65062(19) 0.19049(16) 0.15045(11)
C7 C 0.5576(2) 0.08987(18) 0.10865(13)
H11 H 0.5960 0.0535 0.0599
C8 C 0.4078(3) 0.0426(2) 0.13857(15)
H12 H 0.3471 -0.0248 0.1099
C9 C 0.3497(3) 0.0966(2) 0.21148(16)
H13 H 0.2500 0.0656 0.2318
C10 C 0.4408(3) 0.1966(2) 0.25348(16)
H14 H 0.4018 0.2331 0.3021
C11 C 0.5907(3) 0.24311(17) 0.22364(14)
H15 H 0.6515 0.3101 0.2528
P1 P 0.14979(5) 0.75134(3) 0.38852(2)
F1 F 0.21841(13) 0.89220(9) 0.38063(7)
F2 F 0.03273(14) 0.75783(9) 0.28555(7)
F3 F 0.25436(14) 0.74944(9) 0.49472(7)
F4 F 0.06984(13) 0.61537(9) 0.39948(7)
N1 N -0.15263(19) 0.91167(14) 0.39190(10)
N2 N -0.1227(2) 0.77555(14) 0.49904(10)
C1 C -0.0568(2) 0.81699(14) 0.42894(10)
C2 C -0.1377(3) 0.98567(18) 0.31346(13)
H1 H -0.0341 0.9603 0.2900
H2 H -0.1248 1.0699 0.3310
H3 H -0.2445 0.9757 0.2677
C3 C -0.3051(2) 0.93865(17) 0.43655(12)
H4 H -0.4197 0.9271 0.3954
H5 H -0.2986 1.0214 0.4596
C4 C -0.2803(2) 0.84635(17) 0.51317(12)
H6 H -0.2569 0.8865 0.5717
H7 H -0.3860 0.7948 0.5090
C5 C -0.0655(3) 0.67398(18) 0.55999(12)
H8 H 0.0379 0.6354 0.5437
H9 H -0.1621 0.6160 0.5554
H10 H -0.0346 0.7035 0.6211
C6 C 0.34938(19) 0.69049(16) 0.34955(11)
C7 C 0.4424(2) 0.58987(18) 0.39135(13)
H11 H 0.4040 0.5535 0.4401
C8 C 0.5922(3) 0.5426(2) 0.36143(15)
H12 H 0.6529 0.4752 0.3901
C9 C 0.6503(3) 0.5966(2) 0.28852(16)
H13 H 0.7500 0.5656 0.2682
C10 C 0.5592(3) 0.6966(2) 0.24652(16)
H14 H 0.5982 0.7331 0.1979
C11 C 0.4093(3) 0.74311(17) 0.27636(14)
H15 H 0.3485 0.8101 0.2472
P1 P 0.14979(5) 0.74866(3) 0.88852(2)
F1 F 0.21841(13) 0.60780(9) 0.88063(7)
F2 F 0.03273(14) 0.74217(9) 0.78555(7)
F3 F 0.25436(14) 0.75056(9) 0.99472(7)
F4 F 0.06984(13) 0.88463(9) 0.89948(7)
N1 N -0.15263(19) 0.58833(14) 0.89190(10)
N2 N -0.1227(2) 0.72445(14) 0.99904(10)
C1 C -0.0568(2) 0.68301(14) 0.92894(10)
C2 C -0.1377(3) 0.51433(18) 0.81346(13)
H1 H -0.0341 0.5397 0.7900
H2 H -0.1248 0.4301 0.8310
H3 H -0.2445 0.5243 0.7677
C3 C -0.3051(2) 0.56135(17) 0.93655(12)
H4 H -0.4197 0.5729 0.8954
H5 H -0.2986 0.4786 0.9596
C4 C -0.2803(2) 0.65365(17) 1.01317(12)
H6 H -0.2569 0.6135 1.0717
H7 H -0.3860 0.7052 1.0090
C5 C -0.0655(3) 0.82602(18) 1.05999(12)
H8 H 0.0379 0.8646 1.0437
H9 H -0.1621 0.8840 1.0554
H10 H -0.0346 0.7965 1.1211
C6 C 0.34938(19) 0.80951(16) 0.84955(11)
C7 C 0.4424(2) 0.91013(18) 0.89135(13)
H11 H 0.4040 0.9465 0.9401
C8 C 0.5922(3) 0.9574(2) 0.86143(15)
H12 H 0.6529 1.0248 0.8901
C9 C 0.6503(3) 0.9034(2) 0.78852(16)
H13 H 0.7500 0.9344 0.7682
C10 C 0.5592(3) 0.8034(2) 0.74652(16)
H14 H 0.5982 0.7669 0.6979
C11 C 0.4093(3) 0.75689(17) 0.77636(14)
H15 H 0.3485 0.6899 0.7472
P1 P 0.85021(5) 0.24866(3) 0.61148(2)
F1 F 0.78159(13) 0.10780(9) 0.61937(7)
F2 F 0.96727(14) 0.24217(9) 0.71445(7)
F3 F 0.74564(14) 0.25056(9) 0.50528(7)
F4 F 0.93016(13) 0.38463(9) 0.60052(7)
N1 N 1.15263(19) 0.08833(14) 0.60810(10)
N2 N 1.1227(2) 0.22445(14) 0.50096(10)
C1 C 1.0568(2) 0.18301(14) 0.57106(10)
C2 C 1.1377(3) 0.01433(18) 0.68654(13)
H1 H 1.0341 0.0397 0.7100
H2 H 1.1248 -0.0699 0.6690
H3 H 1.2445 0.0243 0.7323
C3 C 1.3051(2) 0.06135(17) 0.56345(12)
H4 H 1.4197 0.0729 0.6046
H5 H 1.2986 -0.0214 0.5404
C4 C 1.2803(2) 0.15365(17) 0.48683(12)
H6 H 1.2569 0.1135 0.4283
H7 H 1.3860 0.2052 0.4910
C5 C 1.0655(3) 0.32602(18) 0.44001(12)
H8 H 0.9621 0.3646 0.4563
H9 H 1.1621 0.3840 0.4446
H10 H 1.0346 0.2965 0.3789
C6 C 0.65062(19) 0.30951(16) 0.65045(11)
C7 C 0.5576(2) 0.41013(18) 0.60865(13)
H11 H 0.5960 0.4465 0.5599
C8 C 0.4078(3) 0.4574(2) 0.63857(15)
H12 H 0.3471 0.5248 0.6099
C9 C 0.3497(3) 0.4034(2) 0.71148(16)
H13 H 0.2500 0.4344 0.7318
C10 C 0.4408(3) 0.3034(2) 0.75348(16)
H14 H 0.4018 0.2669 0.8021
C11 C 0.5907(3) 0.25689(17) 0.72364(14)
H15 H 0.6515 0.1899 0.7528

#END
