
#######################################################################
#
#                 Cambridge Crystallographic Data Centre
#                                CCDC 
#
#######################################################################
#
# If this CIF has been generated from an entry in the Cambridge 
# Structural Database, then it will include bibliographic, chemical, 
# crystal, experimental, refinement or atomic coordinate data resulting 
# from the CCDC's data processing and validation procedures.
#
#######################################################################

data_ADUPIY
_symmetry_cell_setting           monoclinic
_symmetry_space_group_name_H-M   'P 21'
_symmetry_Int_Tables_number      4
_space_group_name_Hall           'P 2yb'
loop_
_symmetry_equiv_pos_site_id
_symmetry_equiv_pos_as_xyz
1 x,y,z
2 -x,1/2+y,-z
_cell_length_a                   10.9159(10)
_cell_length_b                   7.2222(4)
_cell_length_c                   11.2619(10)
_cell_angle_alpha                90
_cell_angle_beta                 117.252(10)
_cell_angle_gamma                90
_cell_volume                     789.302
loop_
_atom_site_label
_atom_site_type_symbol
_atom_site_fract_x
_atom_site_fract_y
_atom_site_fract_z
C1 C 0.02628(13) 0.83326(19) 0.16889(14)
H1 H -0.0590 0.8986 0.1070
C2 C 0.05927(15) 0.8781(2) 0.31258(14)
H2 H 0.1201 0.9860 0.3454
H3 H -0.0250 0.9024 0.3205
C3 C 0.13073(13) 0.7050(2) 0.38842(13)
H4 H 0.1096 0.6816 0.4637
C4 C 0.07367(14) 0.5506(2) 0.28379(13)
H5 H 0.1513 0.4764 0.2867
C5 C 0.21165(13) 0.75192(19) 0.10369(13)
H6 H 0.1917 0.6264 0.1087
C6 C 0.30739(14) 0.7960(2) 0.06419(15)
H7 H 0.3543 0.7039 0.0419
C7 C 0.33459(13) 0.9868(2) 0.05756(13)
C8 C 0.15943(13) 1.07104(19) 0.12875(12)
C9 C 0.39290(15) 1.2571(2) 0.03768(17)
H8 H 0.4391 1.3542 0.0194
C10 C 0.35907(17) 0.5974(2) 0.51589(15)
C11 C 0.50794(18) 0.6454(3) 0.5715(2)
H9 H 0.5328 0.7317 0.6449
H10 H 0.5250 0.7019 0.5023
H11 H 0.5630 0.5339 0.6035
C12 C -0.02771(15) 0.4240(2) 0.29778(16)
H12 H -0.0711 0.3432 0.2194
H13 H 0.0192 0.3461 0.3773
C13 C -0.24469(16) 0.4484(2) 0.29620(14)
C14 C -0.34330(18) 0.5782(3) 0.30873(18)
H14 H -0.4329 0.5195 0.2751
H15 H -0.3509 0.6893 0.2574
H16 H -0.3107 0.6108 0.4019
N1 N 0.14199(11) 0.88448(16) 0.13698(10)
N2 N 0.26266(11) 1.11226(16) 0.09261(11)
N3 N 0.41880(12) 1.07623(19) 0.02257(13)
N4 N 0.30019(12) 1.28885(16) 0.07903(12)
O1 O 0.00449(10) 0.64282(13) 0.15529(9)
O2 O 0.09384(10) 1.18949(14) 0.15087(10)
O3 O 0.27742(9) 0.73155(14) 0.43534(9)
O4 O 0.31331(14) 0.45756(18) 0.53713(13)
O5 O -0.13071(11) 0.53711(16) 0.30950(11)
O6 O -0.26020(12) 0.28596(17) 0.27876(13)
C1 C 0.97372(13) 0.33326(19) 0.83111(14)
H1 H 1.0590 0.3986 0.8930
C2 C 0.94073(15) 0.3781(2) 0.68742(14)
H2 H 0.8799 0.4860 0.6546
H3 H 1.0250 0.4024 0.6795
C3 C 0.86927(13) 0.2050(2) 0.61158(13)
H4 H 0.8904 0.1816 0.5363
C4 C 0.92633(14) 0.0506(2) 0.71621(13)
H5 H 0.8487 -0.0236 0.7133
C5 C 0.78835(13) 0.25192(19) 0.89631(13)
H6 H 0.8083 0.1264 0.8913
C6 C 0.69261(14) 0.2960(2) 0.93581(15)
H7 H 0.6457 0.2039 0.9581
C7 C 0.66541(13) 0.4868(2) 0.94244(13)
C8 C 0.84057(13) 0.57104(19) 0.87125(12)
C9 C 0.60710(15) 0.7571(2) 0.96232(17)
H8 H 0.5609 0.8542 0.9806
C10 C 0.64093(17) 0.0974(2) 0.48411(15)
C11 C 0.49206(18) 0.1454(3) 0.4285(2)
H9 H 0.4672 0.2317 0.3551
H10 H 0.4750 0.2019 0.4977
H11 H 0.4370 0.0339 0.3965
C12 C 1.02771(15) -0.0760(2) 0.70222(16)
H12 H 1.0711 -0.1568 0.7806
H13 H 0.9808 -0.1539 0.6227
C13 C 1.24469(16) -0.0516(2) 0.70380(14)
C14 C 1.34330(18) 0.0782(3) 0.69127(18)
H14 H 1.4329 0.0195 0.7249
H15 H 1.3509 0.1893 0.7426
H16 H 1.3107 0.1108 0.5981
N1 N 0.85801(11) 0.38448(16) 0.86302(10)
N2 N 0.73734(11) 0.61226(16) 0.90739(11)
N3 N 0.58120(12) 0.57623(19) 0.97743(13)
N4 N 0.69981(12) 0.78885(16) 0.92097(12)
O1 O 0.99551(10) 0.14282(13) 0.84471(9)
O2 O 0.90616(10) 0.68949(14) 0.84913(10)
O3 O 0.72258(9) 0.23155(14) 0.56466(9)
O4 O 0.68669(14) -0.04244(18) 0.46287(13)
O5 O 1.13071(11) 0.03711(16) 0.69050(11)
O6 O 1.26020(12) -0.21404(17) 0.72124(13)

#END
