
#######################################################################
#
#                 Cambridge Crystallographic Data Centre
#                                CCDC 
#
#######################################################################
#
# If this CIF has been generated from an entry in the Cambridge 
# Structural Database, then it will include bibliographic, chemical, 
# crystal, experimental, refinement or atomic coordinate data resulting 
# from the CCDC's data processing and validation procedures.
#
#######################################################################

data_ADUQOF
_symmetry_cell_setting           orthorhombic
_symmetry_space_group_name_H-M   'P 21 21 21'
_symmetry_Int_Tables_number      19
_space_group_name_Hall           'P 2ac 2ab'
loop_
_symmetry_equiv_pos_site_id
_symmetry_equiv_pos_as_xyz
1 x,y,z
2 1/2+x,1/2-y,-z
3 -x,1/2+y,1/2-z
4 1/2-x,-y,1/2+z
_cell_length_a                   7.980(2)
_cell_length_b                   7.219(2)
_cell_length_c                   12.818(3)
_cell_angle_alpha                90
_cell_angle_beta                 90
_cell_angle_gamma                90
_cell_volume                     738.414
loop_
_atom_site_label
_atom_site_type_symbol
_atom_site_fract_x
_atom_site_fract_y
_atom_site_fract_z
C1 C 0.5803(4) 0.1295(4) 0.7974(2)
C2 C 0.7511(4) 0.2419(4) 0.9240(2)
C3 C 0.7683(4) 0.0299(4) 0.9240(2)
C4 C 0.7107(5) -0.0514(6) 1.0261(3)
C5 C 0.9489(5) -0.0246(5) 0.9009(3)
C6 C 1.0265(6) 0.0645(7) 0.8081(4)
N1 N 0.6566(3) -0.0166(3) 0.8377(2)
N2 N 0.6409(3) 0.2858(3) 0.8467(2)
O1 O 0.4762(3) 0.1317(3) 0.72754(16)
O2 O 0.8213(3) 0.3477(3) 0.98118(19)
H1 H 0.6254 -0.1417 0.8253
H2 H 0.5900 0.4033 0.8435
H3 H 0.7213 -0.1888 1.0257
H4 H 0.7773 0.0016 1.0850
H5 H 0.5883 -0.0182 1.0374
H6 H 1.0197 0.0138 0.9629
H7 H 0.9562 -0.1612 0.8925
H8 H 1.1447 0.0225 0.7969
H9 H 1.0235 0.2027 0.8125
H10 H 0.9599 0.0276 0.7422
C1 C 0.0803(4) 0.3705(4) 0.2026(2)
C2 C 0.2511(4) 0.2581(4) 0.0760(2)
C3 C 0.2683(4) 0.4701(4) 0.0760(2)
C4 C 0.2107(5) 0.5514(6) -0.0261(3)
C5 C 0.4489(5) 0.5246(5) 0.0991(3)
C6 C 0.5265(6) 0.4355(7) 0.1919(4)
N1 N 0.1566(3) 0.5166(3) 0.1623(2)
N2 N 0.1409(3) 0.2142(3) 0.1533(2)
O1 O -0.0238(3) 0.3683(3) 0.27246(16)
O2 O 0.3213(3) 0.1523(3) 0.01882(19)
H1 H 0.1254 0.6417 0.1747
H2 H 0.0900 0.0967 0.1565
H3 H 0.2213 0.6888 -0.0257
H4 H 0.2773 0.4984 -0.0850
H5 H 0.0883 0.5182 -0.0374
H6 H 0.5197 0.4862 0.0371
H7 H 0.4562 0.6612 0.1075
H8 H 0.6447 0.4775 0.2031
H9 H 0.5235 0.2973 0.1875
H10 H 0.4599 0.4724 0.2578
C1 C 0.4197(4) 0.6295(4) 0.7026(2)
C2 C 0.2489(4) 0.7419(4) 0.5760(2)
C3 C 0.2317(4) 0.5299(4) 0.5760(2)
C4 C 0.2893(5) 0.4486(6) 0.4739(3)
C5 C 0.0511(5) 0.4754(5) 0.5991(3)
C6 C -0.0265(6) 0.5645(7) 0.6919(4)
N1 N 0.3434(3) 0.4834(3) 0.6623(2)
N2 N 0.3591(3) 0.7858(3) 0.6533(2)
O1 O 0.5238(3) 0.6317(3) 0.77246(16)
O2 O 0.1787(3) 0.8477(3) 0.51882(19)
H1 H 0.3746 0.3583 0.6747
H2 H 0.4100 0.9033 0.6565
H3 H 0.2787 0.3112 0.4743
H4 H 0.2227 0.5016 0.4150
H5 H 0.4117 0.4818 0.4626
H6 H -0.0197 0.5138 0.5371
H7 H 0.0438 0.3388 0.6075
H8 H -0.1447 0.5225 0.7031
H9 H -0.0235 0.7027 0.6875
H10 H 0.0401 0.5276 0.7578
C1 C 0.9197(4) 0.8705(4) 0.2974(2)
C2 C 0.7489(4) 0.7581(4) 0.4240(2)
C3 C 0.7317(4) 0.9701(4) 0.4240(2)
C4 C 0.7893(5) 1.0514(6) 0.5261(3)
C5 C 0.5511(5) 1.0246(5) 0.4009(3)
C6 C 0.4735(6) 0.9355(7) 0.3081(4)
N1 N 0.8434(3) 1.0166(3) 0.3377(2)
N2 N 0.8591(3) 0.7142(3) 0.3467(2)
O1 O 1.0238(3) 0.8683(3) 0.22754(16)
O2 O 0.6787(3) 0.6523(3) 0.48118(19)
H1 H 0.8746 1.1417 0.3253
H2 H 0.9100 0.5967 0.3435
H3 H 0.7787 1.1888 0.5257
H4 H 0.7227 0.9984 0.5850
H5 H 0.9117 1.0182 0.5374
H6 H 0.4803 0.9862 0.4629
H7 H 0.5438 1.1612 0.3925
H8 H 0.3553 0.9775 0.2969
H9 H 0.4765 0.7973 0.3125
H10 H 0.5401 0.9724 0.2422

#END
