
#######################################################################
#
#                 Cambridge Crystallographic Data Centre
#                                CCDC 
#
#######################################################################
#
# If this CIF has been generated from an entry in the Cambridge 
# Structural Database, then it will include bibliographic, chemical, 
# crystal, experimental, refinement or atomic coordinate data resulting 
# from the CCDC's data processing and validation procedures.
#
#######################################################################

data_ADUQOG
_symmetry_cell_setting           monoclinic
_symmetry_space_group_name_H-M   'P 2/n'
_symmetry_Int_Tables_number      13
_space_group_name_Hall           '-P 2yac'
loop_
_symmetry_equiv_pos_site_id
_symmetry_equiv_pos_as_xyz
1 x,y,z
2 1/2-x,y,1/2-z
3 -x,-y,-z
4 1/2+x,-y,1/2+z
_cell_length_a                   13.717(2)
_cell_length_b                   5.1567(9)
_cell_length_c                   18.788(3)
_cell_angle_alpha                90
_cell_angle_beta                 104.187(6)
_cell_angle_gamma                90
_cell_volume                     1288.43
loop_
_atom_site_label
_atom_site_type_symbol
_atom_site_fract_x
_atom_site_fract_y
_atom_site_fract_z
O1 O -0.1367(3) 1.2577(9) 0.2942(2)
O2 O -0.1115(3) 1.1013(9) 0.4127(2)
O3 O 0.2935(3) 0.1244(8) 0.3360(2)
N1 N 0.1272(3) 0.4572(10) 0.3621(3)
C1 C 0.0457(4) 0.7538(12) 0.2797(3)
C2 C 0.1608(4) 0.4300(12) 0.2980(4)
C3 C 0.3057(4) 0.6642(12) 0.4524(4)
H1 H 0.2763 0.7312 0.4049
C4 C 0.2621(4) 0.4526(11) 0.4788(3)
C5 C -0.0562(4) 0.9560(12) 0.3742(4)
C6 C -0.0223(4) 0.9600(12) 0.2537(4)
H2 H -0.0327 1.0285 0.2055
C7 C 0.4356(4) 0.6753(12) 0.5628(4)
H3 H 0.4961 0.7489 0.5913
C8 C -0.1791(5) 1.2510(14) 0.3571(4)
H4 H -0.2465 1.1694 0.344
H5 H -0.1859 1.4291 0.375
C9 C -0.0717(4) 1.0525(12) 0.3038(3)
C10 C 0.2405(4) 0.2610(13) 0.2883(3)
C11 C 0.3925(4) 0.7782(13) 0.4956(4)
H6 H 0.4212 0.9258 0.4784
C12 C 0.0592(4) 0.6563(12) 0.3521(3)
C13 C 0.3058(4) 0.3533(12) 0.5457(3)
H7 H 0.2771 0.2052 0.5627
C14 C 0.0082(4) 0.7576(12) 0.4021(4)
H8 H 0.0175 0.6944 0.4508
C15 C 0.1680(4) 0.3229(12) 0.4307(3)
H9 H 0.185 0.1429 0.4198
H10 H 0.1156 0.3139 0.4587
C16 C 0.1097(4) 0.6070(12) 0.2459(4)
H11 H 0.1164 0.6259 0.1971
C17 C 0.3930(5) 0.4650(13) 0.5907(4)
H12 H 0.4219 0.3992 0.6384
O1A O 0.6367(3) 1.2577(9) 0.2058(2)
O2A O 0.6115(3) 1.1013(9) 0.0873(2)
O3A O 0.2065(3) 0.1244(8) 0.1640(2)
N1A N 0.3728(3) 0.4572(10) 0.1379(3)
C1A C 0.4543(4) 0.7538(12) 0.2203(3)
C2A C 0.3392(4) 0.4300(12) 0.2020(4)
C3A C 0.1943(4) 0.6642(12) 0.0476(4)
H1A H 0.2237 0.7312 0.0951
C4A C 0.2379(4) 0.4526(11) 0.0212(3)
C5A C 0.5562(4) 0.9560(12) 0.1258(4)
C6A C 0.5223(4) 0.9600(12) 0.2463(4)
H2A H 0.5327 1.0285 0.2945
C7A C 0.0644(4) 0.6753(12) -0.0628(4)
H3A H 0.0039 0.7489 -0.0913
C8A C 0.6791(5) 1.2510(14) 0.1429(4)
H4A H 0.7465 1.1694 0.156
H5A H 0.6859 1.4291 0.125
C9A C 0.5717(4) 1.0525(12) 0.1962(3)
C10A C 0.2595(4) 0.2610(13) 0.2117(3)
C11A C 0.1075(4) 0.7782(13) 0.0044(4)
H6A H 0.0788 0.9258 0.0216
C12A C 0.4408(4) 0.6563(12) 0.1479(3)
C13A C 0.1942(4) 0.3533(12) -0.0457(3)
H7A H 0.2229 0.2052 -0.0627
C14A C 0.4918(4) 0.7576(12) 0.0979(4)
H8A H 0.4825 0.6944 0.0492
C15A C 0.3320(4) 0.3229(12) 0.0693(3)
H9A H 0.315 0.1429 0.0802
H10A H 0.3844 0.3139 0.0413
C16A C 0.3903(4) 0.6070(12) 0.2541(4)
H11A H 0.3836 0.6259 0.3029
C17A C 0.1070(5) 0.4650(13) -0.0907(4)
H12A H 0.0781 0.3992 -0.1384
O1 O 1.1367(3) -0.2577(9) 0.7058(2)
O2 O 1.1115(3) -0.1013(9) 0.5873(2)
O3 O 0.7065(3) 0.8756(8) 0.6640(2)
N1 N 0.8728(3) 0.5428(10) 0.6379(3)
C1 C 0.9543(4) 0.2462(12) 0.7203(3)
C2 C 0.8392(4) 0.5700(12) 0.7020(4)
C3 C 0.6943(4) 0.3358(12) 0.5476(4)
H1 H 0.7237 0.2688 0.5951
C4 C 0.7379(4) 0.5474(11) 0.5212(3)
C5 C 1.0562(4) 0.0440(12) 0.6258(4)
C6 C 1.0223(4) 0.0400(12) 0.7463(4)
H2 H 1.0327 -0.0285 0.7945
C7 C 0.5644(4) 0.3247(12) 0.4372(4)
H3 H 0.5039 0.2511 0.4087
C8 C 1.1791(5) -0.2510(14) 0.6429(4)
H4 H 1.2465 -0.1694 0.656
H5 H 1.1859 -0.4291 0.625
C9 C 1.0717(4) -0.0525(12) 0.6962(3)
C10 C 0.7595(4) 0.7390(13) 0.7117(3)
C11 C 0.6075(4) 0.2218(13) 0.5044(4)
H6 H 0.5788 0.0742 0.5216
C12 C 0.9408(4) 0.3437(12) 0.6479(3)
C13 C 0.6942(4) 0.6467(12) 0.4543(3)
H7 H 0.7229 0.7948 0.4373
C14 C 0.9918(4) 0.2424(12) 0.5979(4)
H8 H 0.9825 0.3056 0.5492
C15 C 0.8320(4) 0.6771(12) 0.5693(3)
H9 H 0.815 0.8571 0.5802
H10 H 0.8844 0.6861 0.5413
C16 C 0.8903(4) 0.3930(12) 0.7541(4)
H11 H 0.8836 0.3741 0.8029
C17 C 0.6070(5) 0.5350(13) 0.4093(4)
H12 H 0.5781 0.6008 0.3616
O1A O 0.3633(3) -0.2577(9) 0.7942(2)
O2A O 0.3885(3) -0.1013(9) 0.9127(2)
O3A O 0.7935(3) 0.8756(8) 0.8360(2)
N1A N 0.6272(3) 0.5428(10) 0.8621(3)
C1A C 0.5457(4) 0.2462(12) 0.7797(3)
C2A C 0.6608(4) 0.5700(12) 0.7980(4)
C3A C 0.8057(4) 0.3358(12) 0.9524(4)
H1A H 0.7763 0.2688 0.9049
C4A C 0.7621(4) 0.5474(11) 0.9788(3)
C5A C 0.4438(4) 0.0440(12) 0.8742(4)
C6A C 0.4777(4) 0.0400(12) 0.7537(4)
H2A H 0.4673 -0.0285 0.7055
C7A C 0.9356(4) 0.3247(12) 1.0628(4)
H3A H 0.9961 0.2511 1.0913
C8A C 0.3209(5) -0.2510(14) 0.8571(4)
H4A H 0.2535 -0.1694 0.844
H5A H 0.3141 -0.4291 0.875
C9A C 0.4283(4) -0.0525(12) 0.8038(3)
C10A C 0.7405(4) 0.7390(13) 0.7883(3)
C11A C 0.8925(4) 0.2218(13) 0.9956(4)
H6A H 0.9212 0.0742 0.9784
C12A C 0.5592(4) 0.3437(12) 0.8521(3)
C13A C 0.8058(4) 0.6467(12) 1.0457(3)
H7A H 0.7771 0.7948 1.0627
C14A C 0.5082(4) 0.2424(12) 0.9021(4)
H8A H 0.5175 0.3056 0.9508
C15A C 0.6680(4) 0.6771(12) 0.9307(3)
H9A H 0.685 0.8571 0.9198
H10A H 0.6156 0.6861 0.9587
C16A C 0.6097(4) 0.3930(12) 0.7459(4)
H11A H 0.6164 0.3741 0.6971
C17A C 0.8930(5) 0.5350(13) 1.0907(4)
H12A H 0.9219 0.6008 1.1384

#END
