./ABORUH_from_POSCAR.cif_generated_by_CrystalShift
_symmetry_cell_setting triclinic
_symmetry_space_group_name_H-M 'P 1'
loop_
_symmetry_equiv_pos_site_id
_symmetry_equiv_pos_as_xyz
1 x,y,z
_cell_length_a 10.099000
_cell_length_b 10.332300
_cell_length_c 11.538000
_cell_angle_alpha 88.849000
_cell_angle_beta 71.718000
_cell_angle_gamma 86.243000
_cell_volume 1140.715929
loop_
_atom_site_label
_atom_site_type_symbol
_atom_site_fract_x
_atom_site_fract_y
_atom_site_fract_z
H1 H 0.794600 0.332700 0.937100
H2 H 0.719300 0.474600 0.942500
H3 H 1.010600 0.792600 0.759100
H4 H 1.177100 0.783400 0.725900
H5 H 1.084400 0.884100 0.827400
H6 H 1.539000 0.664100 0.874800
H7 H 1.397100 0.694100 0.842500
H8 H 1.519800 0.791900 0.799600
H9 H 1.485900 0.763500 0.592500
H10 H 1.389300 0.643100 0.629900
H11 H 1.534100 0.628600 0.521300
H12 H -0.023000 0.280000 0.055000
H13 H 1.765900 0.630400 0.695800
H14 H 1.718300 0.753200 0.628400
H15 H 1.757100 0.615800 0.560600
H16 H 1.907300 0.280200 0.500400
H17 H -0.519700 0.883000 0.254700
H18 H 1.995100 0.160800 0.537100
H19 H 1.937200 0.280700 0.628600
H20 H -0.753700 0.576900 0.369700
H21 H 1.882200 0.007300 0.695800
H22 H 1.718200 0.023500 0.766800
H23 H 1.821400 0.122400 0.792300
H24 H 1.669500 0.026800 0.569600
H25 H 1.832600 0.014800 0.494800
H26 H 1.734900 0.132000 0.467500
H27 H -0.734900 0.868000 0.532500
H28 H -0.832600 0.985200 0.505200
H29 H -0.669500 0.973200 0.430400
H30 H 1.753700 0.423100 0.630300
H31 H -0.821400 0.877600 0.207700
H32 H -0.718200 0.976500 0.233200
H33 H -0.882200 0.992700 0.304200
H34 H 1.519700 0.117000 0.745300
H35 H -0.937200 0.719300 0.371400
H36 H -0.995100 0.839200 0.462900
H37 H -0.907300 0.719800 0.499600
H38 H 1.023000 0.720000 0.945000
H39 H 1.205400 0.667300 1.062900
H40 H -0.757100 0.384200 0.439400
H41 H -0.718300 0.246800 0.371600
H42 H -0.765900 0.369600 0.304200
H43 H 1.160800 0.573500 1.178900
H44 H -0.534100 0.371400 0.478700
H45 H -0.389300 0.356900 0.370100
H46 H -0.485900 0.236500 0.407500
H47 H 1.280700 0.525400 1.057500
H48 H -0.519800 0.208100 0.200400
H49 H -0.397100 0.305900 0.157500
H50 H -0.539000 0.335900 0.125200
H51 H 0.989400 0.207400 1.240900
H52 H -0.084400 0.115900 0.172600
H53 H -0.177100 0.216600 0.274100
H54 H -0.010600 0.207400 0.240900
H55 H 0.822900 0.216600 1.274100
H56 H 0.280700 0.525400 0.057500
H57 H 0.160800 0.573500 0.178900
H58 H 0.205400 0.667300 0.062900
H59 H 0.915600 0.115900 1.172600
H60 H 0.461000 0.335900 1.125200
H61 H 0.602900 0.305900 1.157500
H62 H 0.480200 0.208100 1.200400
H63 H 0.514100 0.236500 1.407500
H64 H 0.610700 0.356900 1.370100
H65 H 0.465900 0.371400 1.478700
H66 H 0.234100 0.369600 1.304200
H67 H 0.281700 0.246800 1.371600
H68 H 0.242900 0.384200 1.439400
H69 H 0.092700 0.719800 1.499600
H70 H 0.023000 0.720000 -0.055000
H71 H 0.004900 0.839200 1.462900
H72 H 0.062800 0.719300 1.371400
H73 H 0.117800 0.992700 1.304200
H74 H 0.281800 0.976500 1.233200
H75 H 0.519700 0.117000 -0.254700
H76 H 0.178600 0.877600 1.207700
H77 H 0.330500 0.973200 1.430400
H78 H 0.753700 0.423100 -0.369700
H79 H 0.167400 0.985200 1.505200
H80 H 0.265100 0.868000 1.532500
H81 H 0.246300 0.576900 1.369700
H82 H 0.480300 0.883000 1.254700
H83 H 0.977000 0.280000 1.055000
H84 H 0.794600 0.332700 -0.062900
H85 H 0.734900 0.132000 -0.532500
H86 H 0.832600 0.014800 -0.505200
H87 H 0.669500 0.026800 -0.430400
H88 H 0.839200 0.426500 -0.178900
H89 H 0.821400 0.122400 -0.207700
H90 H 0.718200 0.023500 -0.233200
H91 H 0.882200 0.007300 -0.304200
H92 H 0.719300 0.474600 -0.057500
H93 H 0.937200 0.280700 -0.371400
H94 H 0.995100 0.160800 -0.462900
H95 H 0.907300 0.280200 -0.499600
H96 H 1.010600 0.792600 -0.240900
H97 H 1.177100 0.783400 -0.274100
H98 H 0.757100 0.615800 -0.439400
H99 H 0.718300 0.753200 -0.371600
H100 H 0.765900 0.630400 -0.304200
H101 H 1.084400 0.884100 -0.172600
H102 H 0.534100 0.628600 -0.478700
H103 H 0.389300 0.643100 -0.370100
H104 H 0.485900 0.763500 -0.407500
H105 H 1.539000 0.664100 -0.125200
H106 H 0.519800 0.791900 -0.200400
H107 H 0.397100 0.694100 -0.157500
H108 H 0.539000 0.664100 -0.125200
H109 H 1.397100 0.694100 -0.157500
H110 H 0.084400 0.884100 -0.172600
H111 H 0.177100 0.783400 -0.274100
H112 H 0.010600 0.792600 -0.240900
H113 H 1.519800 0.791900 -0.200400
H114 H -0.280700 0.474600 -0.057500
H115 H -0.160800 0.426500 -0.178900
H116 H -0.205400 0.332700 -0.062900
H117 H 1.485900 0.763500 -0.407500
H118 H 1.389300 0.643100 -0.370100
H119 H 1.534100 0.628600 -0.478700
H120 H 1.765900 0.630400 -0.304200
H121 H 1.718300 0.753200 -0.371600
H122 H 1.757100 0.615800 -0.439400
H123 H 1.907300 0.280200 -0.499600
H124 H 1.995100 0.160800 -0.462900
H125 H 1.937200 0.280700 -0.371400
H126 H 1.882200 0.007300 -0.304200
H127 H 1.718200 0.023500 -0.233200
H128 H -0.023000 0.280000 1.055000
H129 H 1.821400 0.122400 -0.207700
H130 H 1.669500 0.026800 -0.430400
H131 H 1.832600 0.014800 -0.505200
H132 H 1.734900 0.132000 -0.532500
H133 H -0.519700 0.883000 1.254700
H134 H 1.753700 0.423100 -0.369700
H135 H 1.519700 0.117000 -0.254700
H136 H -0.753700 0.576900 1.369700
H137 H 1.023000 0.720000 -0.055000
H138 H 1.205400 0.667300 0.062900
H139 H 1.160800 0.573500 0.178900
H140 H 1.280700 0.525400 0.057500
H141 H 0.989400 0.207400 0.240900
H142 H 0.822900 0.216600 0.274100
H143 H -0.734900 0.868000 1.532500
H144 H -0.832600 0.985200 1.505200
H145 H -0.669500 0.973200 1.430400
H146 H 0.915600 0.115900 0.172600
H147 H -0.821400 0.877600 1.207700
H148 H -0.718200 0.976500 1.233200
H149 H -0.882200 0.992700 1.304200
H150 H 0.461000 0.335900 0.125200
H151 H -0.937200 0.719300 1.371400
H152 H -0.995100 0.839200 1.462900
H153 H -0.907300 0.719800 1.499600
H154 H 0.602900 0.305900 0.157500
H155 H 0.480200 0.208100 0.200400
H156 H -0.757100 0.384200 1.439400
H157 H -0.718300 0.246800 1.371600
H158 H -0.765900 0.369600 1.304200
H159 H 0.514100 0.236500 0.407500
H160 H -0.534100 0.371400 1.478700
H161 H -0.389300 0.356900 1.370100
H162 H -0.485900 0.236500 1.407500
H163 H 0.610700 0.356900 0.370100
H164 H -0.519800 0.208100 1.200400
H165 H -0.397100 0.305900 1.157500
H166 H -0.539000 0.335900 1.125200
H167 H 0.465900 0.371400 0.478700
H168 H -0.084400 0.115900 1.172600
H169 H -0.177100 0.216600 1.274100
H170 H -0.010600 0.207400 1.240900
H171 H 0.234100 0.369600 0.304200
H172 H 0.280700 0.525400 1.057500
H173 H 0.160800 0.573500 1.178900
H174 H 0.205400 0.667300 1.062900
H175 H 0.281700 0.246800 0.371600
H176 H 0.242900 0.384200 0.439400
H177 H 0.092700 0.719800 0.499600
H178 H 0.004900 0.839200 0.462900
H179 H 0.062800 0.719300 0.371400
H180 H 0.117800 0.992700 0.304200
H181 H 0.281800 0.976500 0.233200
H182 H 0.178600 0.877600 0.207700
H183 H 0.330500 0.973200 0.430400
H184 H 0.167400 0.985200 0.505200
H185 H 0.265100 0.868000 0.532500
H186 H 0.023000 0.720000 0.945000
H187 H 0.246300 0.576900 0.369700
H188 H 0.480300 0.883000 0.254700
H189 H 0.977000 0.280000 0.055000
H190 H -0.205400 0.332700 0.937100
H191 H 0.519700 0.117000 0.745300
H192 H -0.160800 0.426500 0.821100
H193 H -0.280700 0.474600 0.942500
H194 H 0.753700 0.423100 0.630300
H195 H 0.010600 0.792600 0.759100
H196 H 0.177100 0.783400 0.725900
H197 H 0.084400 0.884100 0.827400
H198 H 0.539000 0.664100 0.874800
H199 H 0.397100 0.694100 0.842500
H200 H 0.519800 0.791900 0.799600
H201 H 0.734900 0.132000 0.467500
H202 H 0.832600 0.014800 0.494800
H203 H 0.669500 0.026800 0.569600
H204 H 0.485900 0.763500 0.592500
H205 H 0.821400 0.122400 0.792300
H206 H 0.718200 0.023500 0.766800
H207 H 0.882200 0.007300 0.695800
H208 H 0.389300 0.643100 0.629900
H209 H 0.937200 0.280700 0.628600
H210 H 0.995100 0.160800 0.537100
H211 H 0.907300 0.280200 0.500400
H212 H 0.534100 0.628600 0.521300
H213 H 0.765900 0.630400 0.695800
H214 H 0.757100 0.615800 0.560600
H215 H 0.718300 0.753200 0.628400
H216 H 0.839200 0.426500 0.821100
C217 C 0.485840 0.668960 0.600800
C218 C 0.561530 0.624470 0.692830
C219 C 0.917690 0.226160 0.568130
C220 C 0.802910 0.069940 0.729900
C221 C 0.498640 0.700600 0.813460
C222 C 0.752100 0.075510 0.531190
C223 C 0.782340 0.158490 0.627970
C224 C 0.236840 0.145710 0.737760
C225 C 0.088600 0.797900 0.791900
C226 C 0.265080 0.145800 0.950000
C227 C 0.265930 0.229400 0.836950
C228 C 0.548990 0.477450 0.713340
C229 C -0.192120 0.422900 0.910490
C230 C 0.665170 0.389670 0.669310
C231 C 0.656930 0.255830 0.680050
C232 C 0.527060 0.208160 0.737040
C233 C 0.807880 0.422900 0.910490
C234 C 1.088600 0.797900 0.791900
C235 C 1.498640 0.700600 0.813460
C236 C 1.485840 0.668960 0.600800
C237 C -0.419780 0.575550 0.229550
C238 C -0.407140 0.709910 0.217520
C239 C 1.714570 0.659090 0.639590
C240 C 1.561530 0.624470 0.692830
C241 C -0.527060 0.791840 0.262960
C242 C -0.656930 0.744170 0.319950
C243 C -0.665170 0.610330 0.330690
C244 C 0.407140 0.290090 0.782480
C245 C 1.917690 0.226160 0.568130
C246 C 0.580220 0.575550 0.229550
C247 C 0.592860 0.709910 0.217520
C248 C 0.472940 0.791840 0.262960
C249 C 0.419780 0.424450 0.770450
C250 C 0.343070 0.744170 0.319950
C251 C 0.334830 0.610330 0.330690
C252 C -0.548990 0.522550 0.286660
C253 C 0.451010 0.522550 0.286660
C254 C 0.734070 0.770600 0.163050
C255 C 0.734920 0.854200 0.050000
C256 C 0.763160 0.854290 0.262240
C257 C 0.217660 0.841510 0.372030
C258 C 0.247900 0.924490 0.468810
C259 C -0.265930 0.770600 0.163050
C260 C -0.265080 0.854200 0.050000
C261 C 1.802910 0.069940 0.729900
C262 C 0.197090 0.930060 0.270100
C263 C -0.236840 0.854290 0.262240
C264 C -0.782340 0.841510 0.372030
C265 C -0.752100 0.924490 0.468810
C266 C 0.082310 0.773840 0.431870
C267 C 1.752100 0.075510 0.531190
C268 C 1.782340 0.158490 0.627970
C269 C 1.236840 0.145710 0.737760
C270 C 0.438470 0.375530 0.307170
C271 C 0.285430 0.340910 0.360410
C272 C 1.265080 0.145800 0.950000
C273 C 1.265930 0.229400 0.836950
C274 C 0.192120 0.577100 1.089510
C275 C 0.514160 0.331040 0.399200
C276 C -0.088600 0.202100 1.208100
C277 C -0.498640 0.299400 1.186540
C278 C -0.485840 0.331040 1.399200
C279 C 0.501360 0.299400 0.186540
C280 C -0.714570 0.340910 1.360410
C281 C -0.561530 0.375530 1.307170
C282 C -0.917690 0.773840 1.431870
C283 C 0.911400 0.202100 0.208100
C284 C -0.802910 0.930060 1.270100
C285 C -0.752100 0.924490 1.468810
C286 C -0.782340 0.841510 1.372030
C287 C 1.192120 0.577100 0.089510
C288 C -0.236840 0.854290 1.262240
C289 C -0.265080 0.854200 1.050000
C290 C -0.265930 0.770600 1.163050
C291 C 1.548990 0.477450 0.713340
C292 C -0.802910 0.930060 0.270100
C293 C 1.665170 0.389670 0.669310
C294 C 1.656930 0.255830 0.680050
C295 C -0.917690 0.773840 0.431870
C296 C 1.527060 0.208160 0.737040
C297 C 1.407140 0.290090 0.782480
C298 C 1.419780 0.424450 0.770450
C299 C -0.561530 0.375530 0.307170
C300 C -0.714570 0.340910 0.360410
C301 C -0.485840 0.331040 0.399200
C302 C -0.548990 0.522550 1.286660
C303 C -0.498640 0.299400 0.186540
C304 C 1.419780 0.424450 -0.229550
C305 C 1.407140 0.290090 -0.217520
C306 C 1.527060 0.208160 -0.262960
C307 C -0.665170 0.610330 1.330690
C308 C 1.656930 0.255830 -0.319950
C309 C 1.665170 0.389670 -0.330690
C310 C -0.656930 0.744170 1.319950
C311 C 1.548990 0.477450 -0.286660
C312 C 1.265930 0.229400 -0.163050
C313 C 1.265080 0.145800 -0.050000
C314 C 1.236840 0.145710 -0.262240
C315 C 1.782340 0.158490 -0.372030
C316 C 1.752100 0.075510 -0.468810
C317 C -0.527060 0.791840 1.262960
C318 C -0.407140 0.709910 1.217520
C319 C -0.419780 0.575550 1.229550
C320 C 1.802910 0.069940 -0.270100
C321 C 1.192120 0.577100 1.089510
C322 C -0.088600 0.202100 0.208100
C323 C 0.192120 0.577100 0.089510
C324 C 1.917690 0.226160 -0.431870
C325 C 0.911400 0.202100 1.208100
C326 C 0.501360 0.299400 1.186540
C327 C 0.514160 0.331040 1.399200
C328 C 1.561530 0.624470 -0.307170
C329 C 1.714570 0.659090 -0.360410
C330 C 0.285430 0.340910 1.360410
C331 C 0.438470 0.375530 1.307170
C332 C 0.419780 0.424450 -0.229550
C333 C 1.485840 0.668960 -0.399200
C334 C 0.082310 0.773840 1.431870
C335 C 0.407140 0.290090 -0.217520
C336 C 0.527060 0.208160 -0.262960
C337 C 1.498640 0.700600 -0.186540
C338 C -0.192120 0.422900 -0.089510
C339 C 0.088600 0.797900 -0.208100
C340 C 0.498640 0.700600 -0.186540
C341 C 1.088600 0.797900 -0.208100
C342 C 0.485840 0.668960 -0.399200
C343 C 0.714570 0.659090 -0.360410
C344 C 0.561530 0.624470 -0.307170
C345 C 0.807880 0.422900 -0.089510
C346 C 0.917690 0.226160 -0.431870
C347 C 0.802910 0.069940 -0.270100
C348 C 0.752100 0.075510 -0.468810
C349 C 0.656930 0.255830 -0.319950
C350 C 0.197090 0.930060 1.270100
C351 C 0.665170 0.389670 -0.330690
C352 C 0.548990 0.477450 -0.286660
C353 C 0.265930 0.229400 -0.163050
C354 C 0.247900 0.924490 1.468810
C355 C 0.217660 0.841510 1.372030
C356 C 0.763160 0.854290 1.262240
C357 C 0.734920 0.854200 1.050000
C358 C 0.734070 0.770600 1.163050
C359 C 0.451010 0.522550 1.286660
C360 C 0.782340 0.158490 -0.372030
C361 C 0.265080 0.145800 -0.050000
C362 C 0.580220 0.575550 1.229550
C363 C 0.592860 0.709910 1.217520
C364 C 0.472940 0.791840 1.262960
C365 C 0.236840 0.145710 -0.262240
C366 C 0.343070 0.744170 1.319950
C367 C 0.334830 0.610330 1.330690
C368 C 0.714570 0.659090 0.639590
O369 O 0.920700 0.299220 1.115540
O370 O 0.851630 0.684960 1.121680
O371 O 0.696950 0.494030 1.187460
O372 O -0.303050 0.494030 0.187460
O373 O -0.148370 0.684960 0.121680
O374 O -0.079300 0.299220 0.115540
O375 O 0.089150 0.526090 0.044680
O376 O 0.696950 0.494030 0.187460
O377 O 0.851630 0.684960 0.121680
O378 O 0.920700 0.299220 0.115540
O379 O 1.089150 0.526090 0.044680
O380 O -0.089150 0.473910 0.955320
O381 O 0.079300 0.700780 0.884460
O382 O 0.148370 0.315040 0.878320
O383 O 0.303050 0.505970 0.812540
O384 O -0.089150 0.473910 -0.044680
O385 O 0.079300 0.700780 -0.115540
O386 O 0.910850 0.473910 0.955320
O387 O 1.303050 0.505970 -0.187460
O388 O 0.148370 0.315040 -0.121680
O389 O 0.303050 0.505970 -0.187460
O390 O 1.079300 0.700780 0.884460
O391 O 1.148370 0.315040 0.878320
O392 O 1.303050 0.505970 0.812540
O393 O 1.148370 0.315040 -0.121680
O394 O 1.079300 0.700780 -0.115540
O395 O 0.910850 0.473910 -0.044680
O396 O 0.089150 0.526090 1.044680
O397 O -0.079300 0.299220 1.115540
O398 O -0.148370 0.684960 1.121680
O399 O -0.303050 0.494030 1.187460
O400 O 1.089150 0.526090 1.044680
F401 F -0.272720 0.778110 -0.039080
F402 F 0.272720 0.221890 0.039080
F403 F 0.144940 0.086060 -0.006660
F404 F -0.318000 0.964790 1.286580
F405 F 0.367710 0.053480 -0.068560
F406 F 0.258090 0.211420 -0.365370
F407 F -0.144940 0.913940 0.006660
F408 F -0.367710 0.946520 0.068560
F409 F 1.272720 0.221890 1.039080
F410 F 1.144940 0.086060 0.993340
F411 F 1.367710 0.053480 0.931440
F412 F 1.258090 0.211420 0.634630
F413 F 1.104630 0.112060 0.772260
F414 F 1.318000 0.035210 0.713420
F415 F 0.104630 0.112060 -0.227740
F416 F -0.104630 0.887940 1.227740
F417 F 0.318000 0.035210 -0.286580
F418 F -0.258090 0.788580 1.365370
F419 F -0.367710 0.946520 1.068560
F420 F 1.318000 0.035210 -0.286580
F421 F 1.104630 0.112060 -0.227740
F422 F 1.258090 0.211420 -0.365370
F423 F 1.367710 0.053480 -0.068560
F424 F 1.144940 0.086060 -0.006660
F425 F 1.272720 0.221890 0.039080
F426 F -0.258090 0.788580 0.365370
F427 F -0.104630 0.887940 0.227740
F428 F -0.318000 0.964790 0.286580
F429 F 0.727280 0.778110 -0.039080
F430 F 0.272720 0.221890 1.039080
F431 F 0.144940 0.086060 0.993340
F432 F 0.367710 0.053480 0.931440
F433 F 0.258090 0.211420 0.634630
F434 F 0.104630 0.112060 0.772260
F435 F 0.318000 0.035210 0.713420
F436 F -0.144940 0.913940 1.006660
F437 F -0.272720 0.778110 0.960920
F438 F 0.682000 0.964790 1.286580
F439 F 0.895370 0.887940 1.227740
F440 F 0.741910 0.788580 1.365370
F441 F 0.855060 0.913940 0.006660
F442 F 0.727280 0.778110 0.960920
F443 F 0.855060 0.913940 1.006660
F444 F 0.682000 0.964790 0.286580
F445 F 0.895370 0.887940 0.227740
F446 F 0.741910 0.788580 0.365370
F447 F 0.632290 0.946520 0.068560
F448 F 0.632290 0.946520 1.068560
Cl449 Cl 0.920610 0.488550 1.317020
Cl450 Cl -0.079390 0.488550 0.317020
Cl451 Cl 0.079390 0.511450 -0.317020
Cl452 Cl -0.079390 0.488550 1.317020
Cl453 Cl 0.079390 0.511450 0.682980
Cl454 Cl 1.079390 0.511450 0.682980
Cl455 Cl 0.920610 0.488550 0.317020
Cl456 Cl 1.079390 0.511450 -0.317020
Ti457 Ti 0.117160 0.494690 0.869300
Ti458 Ti 1.117160 0.494690 0.869300
Ti459 Ti -0.117160 0.505310 1.130700
Ti460 Ti 0.882840 0.505310 0.130700
Ti461 Ti 0.882840 0.505310 1.130700
Ti462 Ti 0.117160 0.494690 -0.130700
Ti463 Ti 1.117160 0.494690 -0.130700
Ti464 Ti -0.117160 0.505310 0.130700

#END
