./ABOSEP_from_POSCAR.cif_generated_by_CrystalShift
_symmetry_cell_setting triclinic
_symmetry_space_group_name_H-M 'P 1'
loop_
_symmetry_equiv_pos_site_id
_symmetry_equiv_pos_as_xyz
1 x,y,z
_cell_length_a 8.435000
_cell_length_b 9.005000
_cell_length_c 42.123000
_cell_angle_alpha 90.000000
_cell_angle_beta 95.400000
_cell_angle_gamma 90.000000
_cell_volume 3185.344393
loop_
_atom_site_label
_atom_site_type_symbol
_atom_site_fract_x
_atom_site_fract_y
_atom_site_fract_z
H1 H -0.308000 0.318900 0.186100
H2 H -0.186900 0.240900 0.380160
H3 H -0.036500 0.211200 0.361650
H4 H -0.071000 0.028300 0.402540
H5 H 0.098800 0.101400 0.405620
H6 H -0.291000 0.404400 0.154100
H7 H -0.138300 0.358000 0.175900
H8 H -0.150700 0.198700 0.441370
H9 H -0.174200 0.590900 0.183470
H10 H -0.013400 0.093800 0.455580
H11 H -0.494000 0.374800 -0.280200
H12 H -0.551000 0.292000 -0.250500
H13 H -0.387400 0.251000 -0.263100
H14 H 0.171700 0.278000 0.456610
H15 H -0.288500 0.485600 -0.248380
H16 H -0.451700 0.524400 -0.235040
H17 H 0.022500 0.357300 0.468540
H18 H 0.187300 0.850400 0.418940
H19 H 0.305000 1.004700 0.458560
H20 H -0.093600 0.547400 -0.133410
H21 H 0.385400 0.906300 0.508190
H22 H 0.013500 0.418800 -0.088830
H23 H 0.148100 0.372400 0.526060
H24 H 0.298200 0.330700 0.508520
H25 H -0.130800 0.033000 -0.129760
H26 H 0.399000 0.181600 0.548920
H27 H -0.234700 0.161900 -0.174570
H28 H 0.216800 0.143900 0.545800
H29 H 0.180600 0.298700 0.589190
H30 H 0.117400 -0.079000 -0.117780
H31 H -0.013900 -0.167500 -0.101580
H32 H 0.303500 0.172600 0.599260
H33 H 0.196500 -0.327400 -0.099260
H34 H 0.319400 -0.201300 -0.089190
H35 H 0.513900 0.332500 0.601580
H36 H 0.283200 -0.356100 -0.045800
H37 H 0.101000 -0.318400 -0.048920
H38 H 0.382600 0.421000 0.617780
H39 H 0.201800 -0.169300 -0.008520
H40 H 0.351900 -0.127600 -0.026060
H41 H 0.734700 0.661900 0.674570
H42 H 0.630800 0.533000 0.629760
H43 H 0.486500 0.918800 0.588830
H44 H 0.593600 1.047400 0.633410
H45 H 0.114600 0.406300 -0.008190
H46 H 0.951700 1.024400 0.735040
H47 H 0.195000 0.504700 0.041440
H48 H 0.788500 0.985600 0.748380
H49 H 0.312700 0.350400 0.081060
H50 H 0.887400 0.751000 0.763100
H51 H 1.051000 0.792000 0.750500
H52 H 0.994000 0.874800 0.780200
H53 H 0.165400 0.669100 0.335690
H54 H 0.477500 -0.142700 0.031460
H55 H 0.328300 -0.222000 0.043390
H56 H 0.112600 0.704000 0.281350
H57 H 0.513400 -0.406200 0.044420
H58 H 0.650700 -0.301300 0.058630
H59 H 0.192000 1.181100 0.686100
H60 H 0.401200 -0.398600 0.094380
H61 H 0.571000 -0.471700 0.097460
H62 H 0.209000 1.095600 0.654100
H63 H 0.536500 -0.288800 0.138350
H64 H 0.686900 -0.259100 0.119840
H65 H 0.361700 1.142000 0.675900
H66 H 0.325800 0.909100 0.683470
H67 H 0.144700 0.933600 0.687730
H68 H 0.334600 0.169100 0.164310
H69 H 0.285700 1.103500 0.835210
H70 H 0.387400 0.204000 0.218650
H71 H 0.245400 1.080200 0.779880
H72 H 0.612600 0.796000 0.781350
H73 H 0.754600 -0.080200 0.220120
H74 H 0.665400 0.830900 0.835690
H75 H 0.714300 -0.103500 0.164790
H76 H 0.313100 1.259100 0.880160
H77 H 0.463500 1.288800 0.861650
H78 H 0.855300 0.066400 0.312270
H79 H 0.674200 0.090900 0.316530
H80 H 0.429000 1.471700 0.902540
H81 H 0.638300 -0.142000 0.324100
H82 H 0.791000 -0.095600 0.345900
H83 H 0.808000 -0.181100 0.313900
H84 H 0.598800 1.398600 0.905620
H85 H 0.349300 1.301300 0.941370
H86 H 0.486600 1.406200 0.955580
H87 H 0.671700 1.222000 0.956610
H88 H 0.522500 1.142700 0.968540
H89 H -0.355300 0.566400 0.187730
H90 H 0.687300 0.649600 0.918940
H91 H 0.805000 0.495300 0.958560
H92 H -0.214300 0.396500 0.335210
H93 H 0.885400 0.593700 1.008190
H94 H 0.006000 0.125200 0.219800
H95 H -0.051000 0.208000 0.249500
H96 H 0.112600 0.249000 0.236900
H97 H 0.648100 1.127600 1.026060
H98 H 0.211500 0.014400 0.251620
H99 H 0.048300 -0.024400 0.264960
H100 H 0.798200 1.169300 1.008520
H101 H 0.899000 1.318400 1.048920
H102 H 0.716800 1.356100 1.045800
H103 H 0.406400 -0.047400 0.366590
H104 H 0.680600 1.201300 1.089190
H105 H 0.513500 0.081200 0.411170
H106 H 0.803500 1.327400 1.099260
H107 H 1.013900 1.167500 1.101580
H108 H 0.369200 0.467000 0.370240
H109 H 0.882600 1.079000 1.117780
H110 H 0.265300 0.338100 0.325430
H111 H 1.234700 0.838100 1.174570
H112 H 1.130800 0.967000 1.129760
H113 H 0.617400 0.579000 0.382220
H114 H 0.486100 0.667500 0.398420
H115 H 0.986500 0.581200 1.088830
H116 H 0.696500 0.827400 0.400740
H117 H 0.819400 0.701300 0.410810
H118 H 1.093600 0.452600 1.133410
H119 H 0.783200 0.856100 0.454200
H120 H 0.601000 0.818400 0.451080
H121 H 1.451700 0.475600 1.235040
H122 H 0.701800 0.669300 0.491480
H123 H 0.851900 0.627600 0.473940
H124 H 1.288500 0.514400 1.248380
H125 H 1.387400 0.749000 1.263100
H126 H 1.551000 0.708000 1.250500
H127 H 1.494000 0.625200 1.280200
H128 H 0.614600 0.093700 0.491810
H129 H -0.254600 0.419800 0.279880
H130 H 0.695000 -0.004700 0.541440
H131 H 1.308000 0.681100 0.813900
H132 H 0.812700 0.149600 0.581060
H133 H 1.291000 0.595600 0.845900
H134 H 1.138300 0.642000 0.824100
H135 H 1.174200 0.409100 0.816530
H136 H 1.355300 0.433600 0.812270
H137 H 0.977500 0.642700 0.531460
H138 H 0.828300 0.722000 0.543390
H139 H 1.214300 0.603500 0.664790
H140 H 1.013400 0.906200 0.544420
H141 H 1.150700 0.801300 0.558630
H142 H 1.254600 0.580200 0.720120
H143 H 0.901200 0.898600 0.594380
H144 H 1.071000 0.971700 0.597460
H145 H 0.887400 0.296000 0.718650
H146 H 1.036500 0.788800 0.638350
H147 H 1.186900 0.759100 0.619840
H148 H 0.834600 0.330900 0.664310
C149 C 1.016900 0.473200 0.659280
C150 C 0.919800 0.379700 0.675410
C151 C 1.003600 0.614700 0.606910
C152 C 0.950700 0.359700 0.707900
C153 C 1.071500 0.763300 0.617760
C154 C 1.076800 0.435000 0.724640
C155 C 1.172500 0.528300 0.708760
C156 C 1.013500 0.879600 0.593040
C157 C 1.146300 0.545200 0.675700
C158 C 1.039300 0.826300 0.559470
C159 C 1.103400 0.406800 0.759800
C160 C 1.250000 0.477200 0.808470
C161 C 0.936700 0.690400 0.549670
C162 C 0.937200 0.581500 0.576640
C163 C 1.246500 0.608600 0.824200
C164 C 0.877300 0.436200 0.578860
C165 C 0.797700 0.337600 0.554080
C166 C 0.778900 0.187200 0.561000
C167 C -0.003600 0.385300 0.393090
C168 C -0.071500 0.236700 0.382240
C169 C -0.013500 0.120400 0.406960
C170 C -0.246500 0.391400 0.175800
C171 C -0.460000 0.330500 -0.260030
C172 C -0.146300 0.454800 0.324300
C173 C 0.709100 0.095800 0.537440
C174 C -0.172500 0.471700 0.291240
C175 C -0.076800 0.565000 0.275360
C176 C 1.460000 0.669500 1.260030
C177 C 0.660700 0.154100 0.508050
C178 C 0.681700 0.306000 0.502890
C179 C 0.627500 0.368700 0.471240
C180 C 1.378600 0.555700 1.238690
C181 C 0.654700 0.510900 0.457490
C182 C 0.738200 0.646300 0.470870
C183 C 1.237700 0.546400 1.187240
C184 C 1.175700 0.631900 1.158660
C185 C 1.100800 0.555600 1.132820
C186 C 0.705800 0.778800 0.448370
C187 C 1.036500 0.632800 1.106090
C188 C 0.713800 0.738700 0.413670
C189 C 1.046700 0.786900 1.105000
C190 C 1.122300 0.864200 1.130520
C191 C 0.590200 0.621600 0.402160
C192 C 1.185300 0.786300 1.157280
C193 C 0.585800 0.501700 0.426750
C194 C 0.914200 1.001700 1.073250
C195 C 0.909800 1.121600 1.097840
C196 C 0.314700 0.286300 0.342720
C197 C 0.377700 0.364200 0.369480
C198 C 0.786200 1.238700 1.086330
C199 C 0.453300 0.286900 0.395000
C200 C 0.463500 0.132800 0.393910
C201 C 0.794200 1.278800 1.051630
C202 C 0.399200 0.055600 0.367180
C203 C 0.324300 0.131900 0.341340
C204 C 0.761800 1.146300 1.029130
C205 C 0.262300 0.046400 0.312760
C206 C 0.121400 0.055700 0.261310
C207 C 0.845300 1.010900 1.042510
C208 C 0.872500 0.868700 1.028760
C209 C 0.818300 0.806000 0.997110
C210 C 0.839300 0.654100 0.991950
C211 C 0.040000 0.169500 0.239970
C212 C 0.790900 0.595800 0.962560
C213 C -0.103400 0.593200 0.240200
C214 C 0.721100 0.687200 0.939000
C215 C -0.250000 0.522800 0.191530
C216 C 0.702300 0.837600 0.945920
C217 C 0.622700 0.936200 0.921140
C218 C 0.562800 1.081500 0.923360
C219 C 0.563300 1.190400 0.950330
C220 C -0.039300 0.173700 0.440530
C221 C -0.378600 0.444300 -0.238690
C222 C 0.460700 1.326300 0.940530
C223 C -0.237700 0.453600 -0.187240
C224 C 0.063300 0.309600 0.450330
C225 C 0.486500 1.379600 0.906960
C226 C 0.062800 0.418500 0.423360
C227 C 0.746500 -0.108600 0.324200
C228 C 0.428500 1.263300 0.882240
C229 C 0.750000 0.022800 0.308470
C230 C 0.603400 0.093200 0.259800
C231 C 0.496400 1.114700 0.893090
C232 C 0.483100 0.973200 0.840720
C233 C 0.580200 0.879700 0.824590
C234 C 0.646300 -0.045200 0.175700
C235 C 0.549300 0.859700 0.792100
C236 C 0.672500 -0.028300 0.208760
C237 C 0.423200 0.935000 0.775360
C238 C 0.327500 1.028300 0.791240
C239 C 0.576800 0.065000 0.224640
C240 C 0.353700 1.045200 0.824300
C241 C 0.450700 0.140300 0.207900
C242 C 0.396600 0.906800 0.740200
C243 C 0.250000 0.977200 0.691530
C244 C 0.419800 0.120300 0.175410
C245 C 0.516900 0.026800 0.159280
C246 C 0.253500 1.108600 0.675800
C247 C 0.503600 -0.114700 0.106910
C248 C 0.571500 -0.263300 0.117760
C249 C 0.513500 -0.379600 0.093040
C250 C 0.122700 0.563800 0.421140
C251 C 0.202300 0.662400 0.445920
C252 C -0.175700 0.368100 -0.158660
C253 C 0.221100 0.812800 0.439000
C254 C -0.100800 0.444400 -0.132820
C255 C 0.539300 -0.326300 0.059470
C256 C 0.049300 0.640300 0.292100
C257 C 0.436700 -0.190400 0.049670
C258 C 0.080200 0.620300 0.324590
C259 C 0.960000 0.830500 0.760030
C260 C 0.437200 -0.081500 0.076640
C261 C 0.377300 0.063800 0.078860
C262 C 0.297700 0.162400 0.054080
C263 C 0.878600 0.944300 0.738690
C264 C 0.278900 0.312800 0.061000
C265 C 0.209100 0.404200 0.037440
C266 C 0.737700 0.953600 0.687240
C267 C 0.675700 0.868100 0.658660
C268 C 0.600800 0.944400 0.632820
C269 C 0.160700 0.345900 0.008050
C270 C 0.536500 0.867200 0.606090
C271 C 0.181700 0.194000 0.002890
C272 C 0.546700 0.713100 0.605000
C273 C 0.622300 0.635800 0.630520
C274 C 0.127500 0.131300 -0.028760
C275 C 0.685300 0.713700 0.657280
C276 C 0.154700 -0.010900 -0.042510
C277 C 0.414200 0.498300 0.573250
C278 C 0.409800 0.378400 0.597840
C279 C 0.238200 -0.146300 -0.029130
C280 C 0.205800 -0.278800 -0.051630
C281 C 0.286200 0.261300 0.586330
C282 C 0.213800 -0.238700 -0.086330
C283 C 0.090200 -0.121600 -0.097840
C284 C 0.294200 0.221200 0.551630
C285 C 0.085800 -0.001700 -0.073250
C286 C -0.185300 0.213700 -0.157280
C287 C 0.261800 0.353700 0.529130
C288 C -0.122300 0.135800 -0.130520
C289 C -0.046700 0.213100 -0.105000
C290 C 0.345300 0.489100 0.542510
C291 C 0.372500 0.631300 0.528760
C292 C 0.318300 0.694000 0.497110
C293 C 0.339300 0.845900 0.491950
C294 C -0.036500 0.367200 -0.106090
C295 C 0.290900 0.904200 0.462560
C296 C -0.016900 0.526800 0.340720
N297 N 0.098100 0.618100 0.391380
N298 N 0.248400 0.602200 0.474700
N299 N 0.453200 0.721000 0.549860
N300 N 0.478700 0.639200 0.577060
N301 N 0.521300 0.360800 0.422940
N302 N 0.546800 0.279000 0.450140
N303 N 0.751600 0.397800 0.525300
N304 N 0.901900 0.381900 0.608620
N305 N 0.982300 0.492900 0.625780
N306 N 0.517700 0.992900 0.874220
N307 N 0.598100 0.881900 0.891380
N308 N 0.748400 0.897800 0.974700
N309 N 0.482300 0.007100 0.125780
N310 N 0.401900 0.118100 0.108620
N311 N 0.953200 0.779000 1.049860
N312 N 0.251600 0.102200 0.025300
N313 N 0.046800 0.221000 -0.049860
N314 N 0.978700 0.860800 1.077060
N315 N 0.017700 0.507100 0.374220
N316 N 0.021300 0.139200 -0.077060
O317 O -0.036200 0.688800 0.226500
O318 O 0.710800 1.084800 0.690870
O319 O 0.824900 0.872300 0.708670
O320 O 0.288900 0.998400 0.725650
O321 O 0.463800 0.811200 0.726500
O322 O 1.210800 0.415200 1.190870
O323 O 1.324900 0.627700 1.208670
O324 O 1.211100 0.498400 0.774350
O325 O 1.036200 0.311200 0.773500
O326 O 0.289200 -0.084800 0.309130
O327 O 0.175100 0.127700 0.291330
O328 O 0.711100 0.001600 0.274350
O329 O 0.536200 0.188800 0.273500
O330 O -0.210800 0.584800 -0.190870
O331 O -0.324900 0.372300 -0.208670
O332 O -0.211100 0.501600 0.225650

#END
