
#######################################################################
#
#                 Cambridge Crystallographic Data Centre
#                                CCDC 
#
#######################################################################
#
# If this CIF has been generated from an entry in the Cambridge 
# Structural Database, then it will include bibliographic, chemical, 
# crystal, experimental, refinement or atomic coordinate data resulting 
# from the CCDC's data processing and validation procedures.
#
#######################################################################

data_ABOSOZ
_symmetry_cell_setting           triclinic
_symmetry_space_group_name_H-M   'P -1'
_symmetry_Int_Tables_number      2
_space_group_name_Hall           '-P 1'
loop_
_symmetry_equiv_pos_site_id
_symmetry_equiv_pos_as_xyz
1 x,y,z
2 -x,-y,-z
_cell_length_a                   14.4007(9)
_cell_length_b                   17.276(2)
_cell_length_c                   14.170(1)
_cell_angle_alpha                104.715(3)
_cell_angle_beta                 104.128(1)
_cell_angle_gamma                87.445(4)
_cell_volume                     3305.98
loop_
_atom_site_label
_atom_site_type_symbol
_atom_site_fract_x
_atom_site_fract_y
_atom_site_fract_z
Ag1 Ag 0.91911(1) 0.607231(9) 0.46602(1)
N1 N 0.8491(1) 0.5310(1) 0.5204(1)
N2 N 0.9849(1) 0.6894(1) 0.4162(1)
N3 N 0.8020(1) 0.5971(1) 0.3425(1)
N4 N 1.0324(1) 0.6224(1) 0.5935(1)
C2 C 0.9755(2) 0.5278(1) 0.6711(2)
C3 C 1.1078(2) 0.6198(2) 0.9194(2)
C5 C 0.8861(2) 0.5051(1) 0.6049(2)
C6 C 0.7584(1) 0.4990(1) 0.4784(2)
C7 C 1.0415(2) 0.5835(1) 0.6682(2)
C10 C 1.1283(1) 0.6123(1) 0.7449(2)
C11 C 0.6432(2) 0.4069(1) 0.5227(2)
C13 C 0.8663(2) 0.6817(1) 0.2568(2)
C16 C 1.1223(2) 0.7266(1) 0.5618(2)
C17 C 0.7038(2) 0.6099(1) 0.1941(2)
C18 C 0.7366(2) 0.4501(1) 0.5405(2)
C20 C 0.8158(2) 0.4530(1) 0.6179(2)
C22 C 0.9525(2) 0.7100(1) 0.3267(2)
C23 C 1.1618(2) 0.5835(1) 0.8395(2)
C26 C 0.6748(2) 0.6292(1) 0.0934(2)
C28 C 0.8310(2) 0.4128(1) 0.7028(2)
C30 C 1.0873(2) 0.7851(1) 0.4090(2)
C34 C 0.7961(2) 0.6312(1) 0.2641(2)
C37 C 0.7181(2) 0.5567(1) 0.3272(2)
C38 C 0.5813(2) 0.4495(2) 0.5926(2)
C40 C 1.0183(2) 0.7690(1) 0.3207(2)
C41 C 0.8201(2) 0.4689(1) 0.8023(2)
C42 C 1.2561(2) 0.7202(1) 0.7714(2)
C45 C 0.5552(2) 0.5318(1) 0.1910(2)
C46 C 0.6984(2) 0.5124(1) 0.3907(2)
C50 C 1.0668(2) 0.7331(1) 0.4683(2)
C52 C 0.6547(2) 0.5656(1) 0.2336(2)
C55 C 1.0097(2) 0.8040(1) 0.2317(2)
C57 C 1.1685(2) 0.8450(1) 0.4419(2)
C63 C 1.1686(2) 0.6695(1) 0.7158(2)
C65 C 1.1077(1) 0.6754(1) 0.6191(2)
C66 C 0.7166(2) 0.5707(2) 0.0142(2)
C81 C 0.5505(2) 0.4440(2) 0.1338(2)
C86 C 1.2353(2) 0.7960(2) 0.8444(2)
C91 C 1.2594(2) 0.8133(2) 0.4117(2)
C100 C 1.0527(2) 0.7500(2) 0.1509(2)
H13 H 0.9934 0.5020 0.7245
H14 H 0.8547 0.6983 0.1958
H15 H 1.1769 0.7615 0.5894
H16 H 0.6357 0.4886 0.3715
H17 H 0.6086 0.4027 0.4552
H18 H 0.6563 0.3549 0.5329
H19 H 1.2279 0.5971 0.8669
H20 H 1.1537 0.5270 0.8227
H21 H 0.6070 0.6268 0.0716
H22 H 0.6970 0.6818 0.1004
H23 H 0.7856 0.3701 0.6844
H24 H 0.8939 0.3920 0.7129
H25 H 1.3004 0.6897 0.8082
H26 H 1.2838 0.7348 0.7239
H27 H 0.5249 0.5368 0.2447
H28 H 0.5214 0.5618 0.1463
H29 H 0.9437 0.8110 0.2036
H30 H 1.0420 0.8545 0.2539
H31 H 1.1482 0.8887 0.4132
H32 H 1.1827 0.8630 0.5131
H33 H 0.6153 0.4546 0.6604
H34 H 0.5662 0.5012 0.5818
H35 H 0.5239 0.4194 0.5790
H36 H 0.8315 0.4401 0.8528
H37 H 0.8652 0.5120 0.8218
H38 H 0.7572 0.4893 0.7939
H39 H 0.6940 0.5182 0.0060
H40 H 0.6969 0.5854 -0.0479
H41 H 0.7844 0.5729 0.0354
H42 H 0.4856 0.4265 0.1083
H43 H 0.5805 0.4378 0.0795
H44 H 0.5831 0.4128 0.1777
H45 H 1.2934 0.8253 0.8783
H46 H 1.1925 0.8280 0.8085
H47 H 1.2070 0.7824 0.8921
H48 H 1.2813 0.7697 0.4405
H49 H 1.2470 0.7958 0.3408
H50 H 1.3070 0.8547 0.4356
H51 H 1.0199 0.6998 0.1272
H52 H 1.0468 0.7744 0.0967
H53 H 1.1185 0.7424 0.1785
H54 H 1.1163 0.6766 0.9385
H55 H 1.0413 0.6071 0.8935
H56 H 1.1311 0.5994 0.9769
Ag1 Ag 0.08089(1) 0.392769(9) 0.53398(1)
N1 N 0.1509(1) 0.4690(1) 0.4796(1)
N2 N 0.0151(1) 0.3106(1) 0.5838(1)
N3 N 0.1980(1) 0.4029(1) 0.6575(1)
N4 N -0.0324(1) 0.3776(1) 0.4065(1)
C2 C 0.0245(2) 0.4722(1) 0.3289(2)
C3 C -0.1078(2) 0.3802(2) 0.0806(2)
C5 C 0.1139(2) 0.4949(1) 0.3951(2)
C6 C 0.2416(1) 0.5010(1) 0.5216(2)
C7 C -0.0415(2) 0.4165(1) 0.3318(2)
C10 C -0.1283(1) 0.3877(1) 0.2551(2)
C11 C 0.3568(2) 0.5931(1) 0.4773(2)
C13 C 0.1337(2) 0.3183(1) 0.7432(2)
C16 C -0.1223(2) 0.2734(1) 0.4382(2)
C17 C 0.2962(2) 0.3901(1) 0.8059(2)
C18 C 0.2634(2) 0.5499(1) 0.4595(2)
C20 C 0.1842(2) 0.5470(1) 0.3821(2)
C22 C 0.0475(2) 0.2900(1) 0.6733(2)
C23 C -0.1618(2) 0.4165(1) 0.1605(2)
C26 C 0.3252(2) 0.3708(1) 0.9066(2)
C28 C 0.1690(2) 0.5872(1) 0.2972(2)
C30 C -0.0873(2) 0.2149(1) 0.5910(2)
C34 C 0.2039(2) 0.3688(1) 0.7359(2)
C37 C 0.2819(2) 0.4433(1) 0.6728(2)
C38 C 0.4187(2) 0.5505(2) 0.4074(2)
C40 C -0.0183(2) 0.2310(1) 0.6793(2)
C41 C 0.1799(2) 0.5311(1) 0.1977(2)
C42 C -0.2561(2) 0.2798(1) 0.2286(2)
C45 C 0.4448(2) 0.4682(1) 0.8090(2)
C46 C 0.3016(2) 0.4876(1) 0.6093(2)
C50 C -0.0668(2) 0.2669(1) 0.5317(2)
C52 C 0.3453(2) 0.4344(1) 0.7664(2)
C55 C -0.0097(2) 0.1960(1) 0.7683(2)
C57 C -0.1685(2) 0.1550(1) 0.5581(2)
C63 C -0.1686(2) 0.3305(1) 0.2842(2)
C65 C -0.1077(1) 0.3246(1) 0.3809(2)
C66 C 0.2834(2) 0.4293(2) 0.9858(2)
C81 C 0.4495(2) 0.5560(2) 0.8662(2)
C86 C -0.2353(2) 0.2040(2) 0.1556(2)
C91 C -0.2594(2) 0.1867(2) 0.5883(2)
C100 C -0.0527(2) 0.2500(2) 0.8491(2)
H13 H 0.0066 0.4980 0.2755
H14 H 0.1453 0.3017 0.8042
H15 H -0.1769 0.2385 0.4106
H16 H 0.3643 0.5114 0.6285
H17 H 0.3914 0.5973 0.5448
H18 H 0.3437 0.6451 0.4671
H19 H -0.2279 0.4029 0.1331
H20 H -0.1537 0.4730 0.1773
H21 H 0.3930 0.3732 0.9284
H22 H 0.3030 0.3182 0.8996
H23 H 0.2144 0.6299 0.3156
H24 H 0.1061 0.6080 0.2871
H25 H -0.3004 0.3103 0.1918
H26 H -0.2838 0.2652 0.2761
H27 H 0.4751 0.4632 0.7553
H28 H 0.4786 0.4382 0.8537
H29 H 0.0563 0.1890 0.7964
H30 H -0.0420 0.1455 0.7461
H31 H -0.1482 0.1113 0.5868
H32 H -0.1827 0.1370 0.4869
H33 H 0.3847 0.5454 0.3396
H34 H 0.4338 0.4988 0.4182
H35 H 0.4761 0.5806 0.4210
H36 H 0.1685 0.5599 0.1472
H37 H 0.1348 0.4880 0.1782
H38 H 0.2428 0.5107 0.2061
H39 H 0.3060 0.4818 0.9940
H40 H 0.3031 0.4146 1.0479
H41 H 0.2156 0.4271 0.9646
H42 H 0.5144 0.5735 0.8917
H43 H 0.4195 0.5622 0.9205
H44 H 0.4169 0.5872 0.8223
H45 H -0.2934 0.1747 0.1217
H46 H -0.1925 0.1720 0.1915
H47 H -0.2070 0.2176 0.1079
H48 H -0.2813 0.2303 0.5595
H49 H -0.2470 0.2042 0.6592
H50 H -0.3070 0.1453 0.5644
H51 H -0.0199 0.3002 0.8728
H52 H -0.0468 0.2256 0.9033
H53 H -0.1185 0.2576 0.8215
H54 H -0.1163 0.3234 0.0615
H55 H -0.0413 0.3929 0.1065
H56 H -0.1311 0.4006 0.0231
C1 C 0.7788(2) 0.7570(2) 0.9549(2)
C4 C 0.7329(2) 0.8641(2) 0.5254(2)
C8 C 0.6744(2) 0.8591(2) 1.0048(2)
C9 C 0.5230(2) 0.7805(2) 0.8447(2)
C12 C 0.7798(2) 1.0442(1) 0.7354(2)
C14 C 0.5950(2) 0.9020(2) 0.9702(2)
C19 C 0.5729(2) 0.8914(2) 0.5304(2)
C21 C 0.7224(2) 0.6627(1) 0.7899(2)
C24 C 0.5855(2) 0.6804(1) 0.6159(2)
C27 C 0.5579(2) 0.6876(1) 0.7055(2)
C29 C 0.4780(2) 0.9322(2) 0.6568(2)
C31 C 0.7095(2) 0.7072(1) 0.5475(2)
C32 C 0.8846(2) 0.9424(2) 0.6851(2)
C35 C 0.7996(2) 0.7027(1) 0.8730(2)
C44 C 0.8901(2) 0.8614(2) 0.6415(2)
C47 C 0.6056(2) 0.7360(1) 0.8802(2)
C48 C 0.6380(2) 0.8283(2) 0.5004(2)
C49 C 0.6279(2) 0.6785(1) 0.7943(2)
C51 C 0.7511(2) 0.6543(1) 0.6976(2)
C53 C 0.4877(2) 0.7952(2) 0.5833(2)
C54 C 0.8012(2) 0.9870(1) 0.6492(2)
C56 C 0.9298(2) 0.7905(2) 0.8719(2)
C58 C 0.7269(2) 0.9486(2) 0.5706(2)
C59 C 0.8008(2) 0.7412(1) 0.5707(2)
C60 C 0.6846(2) 0.6631(1) 0.6118(2)
C61 C 0.5313(2) 1.0033(2) 0.6991(2)
C64 C 0.9552(2) 0.8351(2) 0.8073(2)
C67 C 0.5176(2) 0.8617(2) 0.8879(2)
C68 C 0.4528(2) 0.8879(2) 0.7225(2)
C69 C 0.8465(2) 0.6900(1) 0.7219(2)
C70 C 0.6806(2) 0.7743(2) 0.9585(2)
C71 C 0.8580(2) 0.9877(2) 0.9758(2)
C72 C 0.6852(2) 1.0607(1) 0.7392(2)
C73 C 0.9148(2) 0.9722(2) 0.7935(2)
C74 C 0.6563(2) 1.0685(1) 0.8324(2)
C75 C 0.8766(2) 0.7194(2) 0.8297(2)
C76 C 0.6285(2) 0.9658(2) 0.5744(2)
C77 C 0.8342(2) 0.8315(2) 0.9991(2)
C78 C 0.8710(2) 0.7324(1) 0.6600(2)
C79 C 0.4934(2) 0.7507(1) 0.7364(2)
C80 C 0.6066(2) 0.9819(2) 0.9585(2)
C82 C 0.9079(2) 0.8475(2) 0.9577(2)
C83 C 0.5503(2) 0.7350(2) 0.5535(2)
C84 C 0.4590(2) 0.8032(2) 0.6756(2)
C85 C 0.8221(2) 1.0431(2) 0.9141(2)
C87 C 0.6271(2) 0.7517(2) 0.5111(2)
C88 C 0.8498(2) 1.0352(2) 0.8245(2)
C89 C 0.4816(2) 0.9164(2) 0.8260(2)
C92 C 0.9492(2) 0.9194(2) 0.8532(2)
C93 C 0.7812(2) 0.9709(2) 1.0183(2)
C94 C 0.8122(2) 0.8212(1) 0.5596(2)
C95 C 0.6981(2) 1.0154(2) 0.9826(2)
C97 C 0.7239(2) 1.0596(1) 0.9181(2)
C98 C 0.6080(2) 1.0205(2) 0.6569(2)
C99 C 0.5614(2) 1.0332(1) 0.8074(2)
C102 C 0.9196(2) 0.9271(2) 0.9466(2)
C103 C 0.7698(2) 0.8942(2) 1.0291(2)
C105 C 0.4995(2) 0.8753(2) 0.5714(2)
C106 C 0.9266(2) 0.8065(2) 0.7038(2)
C107 C 0.5365(2) 0.9908(2) 0.8691(2)
C1 C 0.2212(2) 0.2430(2) 0.0451(2)
C4 C 0.2671(2) 0.1359(2) 0.4746(2)
C8 C 0.3256(2) 0.1409(2) -0.0048(2)
C9 C 0.4770(2) 0.2195(2) 0.1553(2)
C12 C 0.2202(2) -0.0442(1) 0.2646(2)
C14 C 0.4050(2) 0.0980(2) 0.0298(2)
C19 C 0.4271(2) 0.1086(2) 0.4696(2)
C21 C 0.2776(2) 0.3373(1) 0.2101(2)
C24 C 0.4145(2) 0.3196(1) 0.3841(2)
C27 C 0.4421(2) 0.3124(1) 0.2945(2)
C29 C 0.5220(2) 0.0678(2) 0.3432(2)
C31 C 0.2905(2) 0.2928(1) 0.4525(2)
C32 C 0.1154(2) 0.0576(2) 0.3149(2)
C35 C 0.2004(2) 0.2973(1) 0.1270(2)
C44 C 0.1099(2) 0.1386(2) 0.3585(2)
C47 C 0.3944(2) 0.2640(1) 0.1198(2)
C48 C 0.3620(2) 0.1717(2) 0.4996(2)
C49 C 0.3721(2) 0.3215(1) 0.2057(2)
C51 C 0.2489(2) 0.3457(1) 0.3024(2)
C53 C 0.5123(2) 0.2048(2) 0.4167(2)
C54 C 0.1988(2) 0.0130(1) 0.3508(2)
C56 C 0.0702(2) 0.2095(2) 0.1281(2)
C58 C 0.2731(2) 0.0514(2) 0.4294(2)
C59 C 0.1992(2) 0.2588(1) 0.4293(2)
C60 C 0.3154(2) 0.3369(1) 0.3882(2)
C61 C 0.4687(2) -0.0033(2) 0.3009(2)
C64 C 0.0448(2) 0.1649(2) 0.1927(2)
C67 C 0.4824(2) 0.1383(2) 0.1121(2)
C68 C 0.5472(2) 0.1121(2) 0.2775(2)
C69 C 0.1535(2) 0.3100(1) 0.2781(2)
C70 C 0.3194(2) 0.2257(2) 0.0415(2)
C71 C 0.1420(2) 0.0123(2) 0.0242(2)
C72 C 0.3148(2) -0.0607(1) 0.2608(2)
C73 C 0.0852(2) 0.0278(2) 0.2065(2)
C74 C 0.3437(2) -0.0685(1) 0.1676(2)
C75 C 0.1234(2) 0.2806(2) 0.1703(2)
C76 C 0.3715(2) 0.0342(2) 0.4256(2)
C77 C 0.1658(2) 0.1685(2) 0.0009(2)
C78 C 0.1290(2) 0.2676(1) 0.3400(2)
C79 C 0.5066(2) 0.2493(1) 0.2636(2)
C80 C 0.3934(2) 0.0181(2) 0.0415(2)
C82 C 0.0921(2) 0.1525(2) 0.0423(2)
C83 C 0.4497(2) 0.2650(2) 0.4465(2)
C84 C 0.5410(2) 0.1968(2) 0.3244(2)
C85 C 0.1779(2) -0.0431(2) 0.0859(2)
C87 C 0.3729(2) 0.2483(2) 0.4889(2)
C88 C 0.1502(2) -0.0352(2) 0.1755(2)
C89 C 0.5184(2) 0.0836(2) 0.1740(2)
C92 C 0.0508(2) 0.0806(2) 0.1468(2)
C93 C 0.2188(2) 0.0291(2) -0.0183(2)
C94 C 0.1878(2) 0.1788(1) 0.4404(2)
C95 C 0.3019(2) -0.0154(2) 0.0174(2)
C97 C 0.2761(2) -0.0596(1) 0.0819(2)
C98 C 0.3920(2) -0.0205(2) 0.3431(2)
C99 C 0.4386(2) -0.0332(1) 0.1926(2)
C102 C 0.0804(2) 0.0729(2) 0.0534(2)
C103 C 0.2302(2) 0.1058(2) -0.0291(2)
C105 C 0.5005(2) 0.1247(2) 0.4286(2)
C106 C 0.0734(2) 0.1935(2) 0.2962(2)
C107 C 0.4635(2) 0.0092(2) 0.1309(2)
C15 C 0.2743(2) 0.0459(2) 0.7323(2)
C36 C 0.2255(2) 0.0969(2) 0.6781(2)
C39 C 0.1332(2) -0.0388(2) 0.6847(2)
C62 C 0.1310(2) 0.0799(2) 0.6251(2)
C96 C 0.0848(2) 0.0126(2) 0.6290(2)
C101 C 0.2292(2) -0.0226(2) 0.7353(2)
H1 H 0.3402 0.0570 0.7686
H4 H 0.2565 0.1446 0.6770
H5 H 0.1020 -0.0854 0.6878
H7 H 0.0972 0.1153 0.5860
H9 H 0.0193 0.0011 0.5929
H10 H 0.2631 -0.0587 0.7726
C15 C 0.7257(2) 0.9541(2) 0.2677(2)
C36 C 0.7745(2) 0.9031(2) 0.3219(2)
C39 C 0.8668(2) 1.0388(2) 0.3153(2)
C62 C 0.8690(2) 0.9201(2) 0.3749(2)
C96 C 0.9152(2) 0.9874(2) 0.3710(2)
C101 C 0.7708(2) 1.0226(2) 0.2647(2)
H1 H 0.6598 0.9430 0.2314
H4 H 0.7435 0.8554 0.3230
H5 H 0.8980 1.0854 0.3122
H7 H 0.9028 0.8847 0.4140
H9 H 0.9807 0.9989 0.4071
H10 H 0.7369 1.0587 0.2274
C25 C 0.6375(2) 0.2975(2) 0.8119(2)
C33 C 0.6464(2) 0.2940(2) 0.9101(2)
C43 C 0.5752(2) 0.2575(2) 0.9350(2)
C90 C 0.4859(2) 0.2291(2) 0.7640(2)
C104 C 0.5569(2) 0.2651(2) 0.7391(2)
C108 C 0.4955(2) 0.2252(2) 0.8619(2)
H2 H 0.6866 0.3226 0.7943
H3 H 0.7028 0.3161 0.9612
H6 H 0.5822 0.2557 1.0037
H8 H 0.4299 0.2067 0.7134
H11 H 0.5515 0.2665 0.6703
H12 H 0.4463 0.1997 0.8796
C25 C 0.3625(2) 0.7025(2) 0.1881(2)
C33 C 0.3536(2) 0.7060(2) 0.0899(2)
C43 C 0.4248(2) 0.7425(2) 0.0650(2)
C90 C 0.5141(2) 0.7709(2) 0.2360(2)
C104 C 0.4431(2) 0.7349(2) 0.2609(2)
C108 C 0.5045(2) 0.7748(2) 0.1381(2)
H2 H 0.3134 0.6774 0.2057
H3 H 0.2972 0.6839 0.0388
H6 H 0.4178 0.7443 -0.0037
H8 H 0.5701 0.7933 0.2866
H11 H 0.4485 0.7335 0.3297
H12 H 0.5537 0.8003 0.1204

#END
