
#######################################################################
#
#                 Cambridge Crystallographic Data Centre
#                                CCDC 
#
#######################################################################
#
# If this CIF has been generated from an entry in the Cambridge 
# Structural Database, then it will include bibliographic, chemical, 
# crystal, experimental, refinement or atomic coordinate data resulting 
# from the CCDC's data processing and validation procedures.
#
#######################################################################

data_ABOSOA
_symmetry_cell_setting           monoclinic
_symmetry_space_group_name_H-M   'P 21'
_symmetry_Int_Tables_number      4
_space_group_name_Hall           'P 2yb'
loop_
_symmetry_equiv_pos_site_id
_symmetry_equiv_pos_as_xyz
1 x,y,z
2 -x,1/2+y,-z
_cell_length_a                   6.5233(5)
_cell_length_b                   11.5837(8)
_cell_length_c                   17.0095(10)
_cell_angle_alpha                90
_cell_angle_beta                 95.957(10)
_cell_angle_gamma                90
_cell_volume                     1278.36
loop_
_atom_site_label
_atom_site_type_symbol
_atom_site_fract_x
_atom_site_fract_y
_atom_site_fract_z
N1 N 0.4713(3) -0.03540(16) 0.70021(12)
C1 C 0.3791(3) 0.0662(2) 0.70962(12)
C2 C 0.5030(3) 0.18022(19) 0.71161(13)
C3 C 0.6844(4) 0.1843(2) 0.66013(14)
H1 H 0.6958 0.2624 0.6404
H2 H 0.8106 0.1674 0.6935
C4 C 0.6686(4) 0.1015(3) 0.58978(15)
H3 H 0.5256 0.0955 0.5680
H4 H 0.7465 0.1326 0.5490
C5 C 0.7484(4) -0.0166(3) 0.61234(19)
H5 H 0.8973 -0.0165 0.6132
H6 H 0.6938 -0.0713 0.5724
C6 C 0.6918(4) -0.0561(2) 0.69191(18)
H7 H 0.7771 -0.0155 0.7340
C7 C 0.7115(5) -0.1857(3) 0.7046(3)
H8 H 0.7459 -0.2038 0.7601
H9 H 0.8165 -0.2179 0.6745
C8 C 0.4992(5) -0.2319(3) 0.6748(2)
H10 H 0.4759 -0.3074 0.6969
H11 H 0.4820 -0.2371 0.6176
C9 C 0.3550(4) -0.1420(2) 0.70432(16)
H12 H 0.2298 -0.1374 0.6672
C10 C 0.2960(5) -0.1710(2) 0.78556(18)
O1 O 0.1741(5) -0.2451(3) 0.79434(17)
O2 O 0.3967(3) -0.11055(17) 0.84225(11)
C11 C 0.3530(6) -0.1198(3) 0.92482(19)
C12 C 0.4946(12) -0.0329(5) 0.9658(3)
H13 H 0.6348 -0.0543 0.9608
H14 H 0.4729 -0.0299 1.0208
H15 H 0.4672 0.0416 0.9423
C13 C 0.1357(10) -0.0914(9) 0.9310(3)
H16 H 0.1062 -0.0159 0.9096
H17 H 0.1098 -0.0927 0.9856
H18 H 0.0491 -0.1472 0.9020
C14 C 0.4092(12) -0.2363(4) 0.9560(3)
H19 H 0.5521 -0.2508 0.9508
H20 H 0.3261 -0.2932 0.9266
H21 H 0.3858 -0.2404 1.0107
O3 O 0.1963(2) 0.06892(16) 0.72038(11)
N2 N 0.3612(3) 0.27480(16) 0.68898(11)
H22 H 0.243(5) 0.275(3) 0.7179(16)
C15 C 0.2775(4) 0.2791(2) 0.60615(14)
H23 H 0.2119 0.2060 0.5912
H24 H 0.3887 0.2910 0.5733
C16 C 0.1234(4) 0.3748(2) 0.59234(14)
C17 C -0.0385(4) 0.3654(3) 0.53429(16)
H25 H -0.0513 0.2993 0.5031
C18 C -0.1817(5) 0.4521(3) 0.52149(19)
H26 H -0.2913 0.4438 0.4824
C19 C -0.1637(7) 0.5506(4) 0.5661(2)
H27 H -0.2604 0.6094 0.5578
C20 C -0.0012(9) 0.5608(4) 0.6230(3)
H28 H 0.0137 0.6277 0.6533
C21 C 0.1398(7) 0.4741(3) 0.6360(2)
H29 H 0.2490 0.4827 0.6753
C22 C 0.5797(4) 0.1984(2) 0.79972(13)
H30 H 0.4608 0.2095 0.8287
H31 H 0.6487 0.1285 0.8196
C23 C 0.7249(4) 0.2988(2) 0.81731(14)
C24 C 0.6583(6) 0.4115(3) 0.81133(19)
H32 H 0.5201 0.4274 0.7963
C25 C 0.7964(9) 0.5012(3) 0.8276(2)
H33 H 0.7505 0.5771 0.8226
C26 C 0.9991(8) 0.4793(5) 0.8509(3)
H34 H 1.0912 0.5401 0.8613
C27 C 1.0658(6) 0.3683(5) 0.8588(2)
H35 H 1.2031 0.3528 0.8758
C28 C 0.9295(5) 0.2788(3) 0.84144(19)
H36 H 0.9770 0.2031 0.8462
N1 N 0.5287(3) 0.46460(16) 0.29979(12)
C1 C 0.6209(3) 0.5662(2) 0.29038(12)
C2 C 0.4970(3) 0.68022(19) 0.28839(13)
C3 C 0.3156(4) 0.6843(2) 0.33987(14)
H1 H 0.3042 0.7624 0.3596
H2 H 0.1894 0.6674 0.3065
C4 C 0.3314(4) 0.6015(3) 0.41022(15)
H3 H 0.4744 0.5955 0.4320
H4 H 0.2535 0.6326 0.4510
C5 C 0.2516(4) 0.4834(3) 0.38766(19)
H5 H 0.1027 0.4835 0.3868
H6 H 0.3062 0.4287 0.4276
C6 C 0.3082(4) 0.4439(2) 0.30809(18)
H7 H 0.2229 0.4845 0.2660
C7 C 0.2885(5) 0.3143(3) 0.2954(3)
H8 H 0.2541 0.2962 0.2399
H9 H 0.1835 0.2821 0.3255
C8 C 0.5008(5) 0.2681(3) 0.3252(2)
H10 H 0.5241 0.1926 0.3031
H11 H 0.5180 0.2629 0.3824
C9 C 0.6450(4) 0.3580(2) 0.29568(16)
H12 H 0.7702 0.3626 0.3328
C10 C 0.7040(5) 0.3290(2) 0.21444(18)
O1 O 0.8259(5) 0.2549(3) 0.20566(17)
O2 O 0.6033(3) 0.38945(17) 0.15775(11)
C11 C 0.6470(6) 0.3802(3) 0.07518(19)
C12 C 0.5054(12) 0.4671(5) 0.0342(3)
H13 H 0.3652 0.4457 0.0392
H14 H 0.5271 0.4701 -0.0208
H15 H 0.5328 0.5416 0.0577
C13 C 0.8643(10) 0.4086(9) 0.0690(3)
H16 H 0.8938 0.4841 0.0904
H17 H 0.8902 0.4073 0.0144
H18 H 0.9509 0.3528 0.0980
C14 C 0.5908(12) 0.2637(4) 0.0440(3)
H19 H 0.4479 0.2492 0.0492
H20 H 0.6739 0.2068 0.0734
H21 H 0.6142 0.2596 -0.0107
O3 O 0.8037(2) 0.56892(16) 0.27962(11)
N2 N 0.6388(3) 0.77480(16) 0.31102(11)
H22 H 0.757(5) 0.775(3) 0.2821(16)
C15 C 0.7225(4) 0.7791(2) 0.39385(14)
H23 H 0.7881 0.7060 0.4088
H24 H 0.6113 0.7910 0.4267
C16 C 0.8766(4) 0.8748(2) 0.40766(14)
C17 C 1.0385(4) 0.8654(3) 0.46571(16)
H25 H 1.0513 0.7993 0.4969
C18 C 1.1817(5) 0.9521(3) 0.47851(19)
H26 H 1.2913 0.9438 0.5176
C19 C 1.1637(7) 1.0506(4) 0.4339(2)
H27 H 1.2604 1.1094 0.4422
C20 C 1.0012(9) 1.0608(4) 0.3770(3)
H28 H 0.9863 1.1277 0.3467
C21 C 0.8602(7) 0.9741(3) 0.3640(2)
H29 H 0.7510 0.9827 0.3247
C22 C 0.4203(4) 0.6984(2) 0.20028(13)
H30 H 0.5392 0.7095 0.1713
H31 H 0.3513 0.6285 0.1804
C23 C 0.2751(4) 0.7988(2) 0.18269(14)
C24 C 0.3417(6) 0.9115(3) 0.18867(19)
H32 H 0.4799 0.9274 0.2037
C25 C 0.2036(9) 1.0012(3) 0.1724(2)
H33 H 0.2495 1.0771 0.1774
C26 C 0.0009(8) 0.9793(5) 0.1491(3)
H34 H -0.0912 1.0401 0.1387
C27 C -0.0658(6) 0.8683(5) 0.1412(2)
H35 H -0.2031 0.8528 0.1242
C28 C 0.0705(5) 0.7788(3) 0.15856(19)
H36 H 0.0230 0.7031 0.1538

#END
