./ABOSAN_from_POSCAR.cif_generated_by_CrystalShift
_symmetry_cell_setting triclinic
_symmetry_space_group_name_H-M 'P 1'
loop_
_symmetry_equiv_pos_site_id
_symmetry_equiv_pos_as_xyz
1 x,y,z
_cell_length_a 6.444700
_cell_length_b 8.084400
_cell_length_c 15.850600
_cell_angle_alpha 94.318900
_cell_angle_beta 99.216900
_cell_angle_gamma 92.059100
_cell_volume 811.896524
loop_
_atom_site_label
_atom_site_type_symbol
_atom_site_fract_x
_atom_site_fract_y
_atom_site_fract_z
H1 H 0.336700 0.836400 0.206300
H2 H 0.579100 0.697200 -0.245000
H3 H 0.784100 0.621000 0.003400
H4 H 0.103200 0.938100 -0.067400
H5 H 1.009600 0.670600 0.412500
H6 H 0.663300 0.163600 0.793700
H7 H 0.896800 0.061900 1.067400
H8 H 0.402800 0.606900 0.567100
H9 H 0.391000 0.890900 0.564400
H10 H 0.597200 0.393100 0.432900
H11 H 0.609000 0.109100 0.435600
H12 H 0.906200 -0.027000 0.402500
H13 H 1.186900 0.129300 0.366800
H14 H 0.093800 1.027000 0.597500
H15 H 1.171500 0.413600 0.363200
H16 H -0.186900 0.870700 0.633200
H17 H -0.171500 0.586400 0.636800
H18 H 0.223100 0.335300 0.571500
H19 H -0.009600 0.329400 0.587500
H20 H 0.215900 0.379000 0.996600
H21 H 0.420900 0.302800 1.245000
H22 H 0.709000 0.164300 1.207300
H23 H 0.776900 0.664700 0.428500
H24 H 0.291000 0.835700 -0.207300
C25 C 0.274300 0.830900 0.577840
C26 C 0.100500 0.910000 0.597550
C27 C -0.066500 0.819200 0.619590
C28 C -0.057400 0.648500 0.622170
C29 C 0.118800 0.568500 0.602820
C30 C 0.128100 0.383900 0.606620
C31 C 0.461500 0.259200 0.714260
C32 C 0.312100 0.335800 1.038030
C33 C 0.292900 0.351400 1.124080
C34 C 0.436900 0.287600 1.186980
C35 C 0.609300 0.204800 1.165210
C36 C 0.515600 0.746400 -0.016830
C37 C 0.442900 0.781500 0.064490
C38 C 0.242000 0.870500 0.044740
C39 C 0.630200 0.189600 1.079710
C40 C 0.369800 0.810400 -0.079710
C41 C 0.390700 0.795200 -0.165210
C42 C 0.563100 0.712400 -0.186980
C43 C 0.707100 0.648600 -0.124080
C44 C 0.687900 0.664200 -0.038030
C45 C 0.758000 0.129500 0.955260
C46 C 0.557100 0.218500 0.935510
C47 C 0.284500 0.661100 0.580650
C48 C 0.715500 0.338900 0.419350
C49 C 0.538500 0.740800 0.285740
C50 C 0.725700 0.169100 0.422160
C51 C 0.871900 0.616100 0.393380
C52 C 0.881200 0.431500 0.397180
C53 C 1.057400 0.351500 0.377830
C54 C 1.066500 0.180800 0.380410
C55 C 0.899500 0.090000 0.402450
C56 C 0.484400 0.253600 1.016830
N57 N 0.445000 0.780990 0.206850
N58 N 0.461500 0.255910 0.862040
N59 N 0.538500 0.744090 0.137960
N60 N 0.555000 0.219010 0.793150
N61 N 0.791100 0.116450 1.040940
N62 N 0.208900 0.883550 -0.040940
O63 O 0.132250 0.920500 0.097500
O64 O 0.867750 0.079500 0.902500
S65 S 0.413630 0.767190 0.368040
S66 S 0.209880 0.331550 0.716310
S67 S 0.586370 0.232810 0.631960
S68 S 0.790120 0.668450 0.283690
Cl69 Cl 0.918120 0.542670 -0.154220
Cl70 Cl 0.081880 0.457330 1.154220

#END
