./ABOTOA_from_POSCAR.cif_generated_by_CrystalShift
_symmetry_cell_setting triclinic
_symmetry_space_group_name_H-M 'P 1'
loop_
_symmetry_equiv_pos_site_id
_symmetry_equiv_pos_as_xyz
1 x,y,z
_cell_length_a 9.641100
_cell_length_b 9.641100
_cell_length_c 46.197000
_cell_angle_alpha 90.000000
_cell_angle_beta 90.000000
_cell_angle_gamma 90.000000
_cell_volume 4294.048533
loop_
_atom_site_label
_atom_site_type_symbol
_atom_site_fract_x
_atom_site_fract_y
_atom_site_fract_z
H1 H 0.555300 -0.339600 0.218400
H2 H 0.455000 -0.293200 0.243300
H3 H -0.056500 0.471800 0.033400
H4 H -0.069000 0.530900 0.082200
H5 H 0.199200 0.459600 0.876400
H6 H 0.396600 -0.373700 0.216500
H7 H 0.034800 0.375900 0.115100
H8 H 0.419200 0.256000 0.823300
H9 H 0.212600 0.073600 0.096900
H10 H 0.132200 0.146100 0.122400
H11 H 0.408400 0.549400 0.828900
H12 H 0.785500 0.301000 0.145400
H13 H 0.452000 0.327800 0.871300
H14 H 0.860100 0.156900 0.143300
H15 H 0.273900 0.201500 0.894700
H16 H 0.325100 0.120400 0.867300
H17 H 0.185500 0.203700 0.866200
H18 H 0.778700 0.215400 0.116600
H19 H 0.648000 0.044300 0.139700
H20 H 0.369300 0.841600 0.891300
H21 H 0.435100 0.755100 0.916700
H22 H 0.429300 0.073700 0.182600
H23 H 0.081100 0.296600 0.017500
H24 H 0.365100 0.797300 0.964400
H25 H 0.725100 0.071000 0.188800
H26 H 0.231500 0.934900 0.998600
H27 H 0.526500 0.300000 0.138100
H28 H 0.041700 1.054400 0.982200
H29 H 0.198400 0.170500 0.048400
H30 H -0.007800 1.059100 0.935500
H31 H 0.444700 1.339600 0.718400
H32 H 0.123000 0.946200 0.901900
H33 H 0.545000 1.293200 0.743300
H34 H 0.148700 0.520100 0.770000
H35 H 0.296700 0.576900 0.762700
H36 H 0.603400 1.373700 0.716500
H37 H 0.634300 1.155400 0.693300
H38 H 0.118700 0.617600 0.828900
H39 H 0.414200 1.065800 0.727100
H40 H 0.055200 0.825000 0.849300
H41 H 0.638900 0.597800 0.684700
H42 H 0.099000 1.036800 0.826000
H43 H 0.839900 0.551300 0.660300
H44 H 0.204200 1.025000 0.779900
H45 H 1.050200 0.588900 0.685600
H46 H 0.270700 0.818900 0.760100
H47 H 1.049800 0.724500 0.725900
H48 H 0.571600 0.409700 0.786300
H49 H 0.847900 0.785300 0.747100
H50 H 0.640400 0.607400 0.821200
H51 H 0.601300 0.801300 0.748800
H52 H 0.844300 0.635400 0.808500
H53 H 0.804700 0.585500 0.777300
H54 H 0.852700 0.477500 0.800600
H55 H 0.544100 0.653000 0.741400
H56 H 0.365700 -0.155400 0.193300
H57 H 0.801600 0.829500 0.548400
H58 H 0.918900 0.703400 0.517500
H59 H 0.800800 0.540400 0.376400
H60 H 1.056500 0.528200 0.533400
H61 H 1.069000 0.469100 0.582200
H62 H 0.580800 0.744000 0.323300
H63 H 0.585800 -0.065800 0.227100
H64 H 0.965200 0.624100 0.615100
H65 H 0.591600 0.450600 0.328900
H66 H 0.787400 0.926400 0.596900
H67 H 0.548000 0.672200 0.371300
H68 H 0.867800 0.853900 0.622400
H69 H 0.726100 0.798500 0.394700
H70 H 0.674900 0.879600 0.367300
H71 H 0.814500 0.796300 0.366200
H72 H 0.214500 0.699000 0.645400
H73 H 0.139900 0.843100 0.643300
H74 H 0.630700 0.158400 0.391300
H75 H 0.564900 0.244900 0.416700
H76 H 0.221300 0.784600 0.616600
H77 H 0.352000 0.955700 0.639700
H78 H 0.634900 0.202700 0.464400
H79 H 0.570700 0.926300 0.682600
H80 H 0.768500 0.065100 0.498600
H81 H 0.274900 0.929000 0.688800
H82 H 0.958300 -0.054400 0.482200
H83 H 0.455900 0.347000 0.241400
H84 H 1.007800 -0.059100 0.435500
H85 H 0.473500 0.700000 0.638100
H86 H 0.877000 0.053800 0.401900
H87 H 0.398700 0.198700 0.248800
H88 H 0.851300 0.479900 0.270000
H89 H 0.703300 0.423100 0.262700
H90 H -0.339600 0.444700 0.468400
H91 H -0.293200 0.545000 0.493300
H92 H 0.881300 0.382400 0.328900
H93 H -0.373700 0.603400 0.466500
H94 H 0.944800 0.175000 0.349300
H95 H -0.155400 0.634300 0.443300
H96 H 0.901000 -0.036800 0.326000
H97 H -0.065800 0.414200 0.477100
H98 H 0.795800 -0.025000 0.279900
H99 H 0.402200 0.638900 0.434700
H100 H 0.729300 0.181100 0.260100
H101 H 0.448700 0.839900 0.410300
H102 H 0.428400 0.590300 0.286300
H103 H 0.411100 1.050200 0.435600
H104 H 0.359600 0.392600 0.321200
H105 H 0.275500 1.049800 0.475900
H106 H 0.155700 0.364600 0.308500
H107 H 0.195300 0.414500 0.277300
H108 H 0.147300 0.522500 0.300600
H109 H 0.214700 0.847900 0.497100
H110 H 0.198700 0.601300 0.498800
H111 H 0.347000 0.544100 0.491400
H112 H 0.170500 0.801600 0.298400
H113 H 0.540400 0.199200 0.626400
H114 H 0.361100 0.402200 0.184700
H115 H 0.296600 0.918900 0.267500
H116 H 0.744000 0.419200 0.573300
H117 H 0.471800 1.056500 0.283400
H118 H 0.530900 1.069000 0.332200
H119 H 0.450600 0.408400 0.578900
H120 H 0.375900 0.965200 0.365100
H121 H 0.672200 0.452000 0.621300
H122 H 0.073600 0.787400 0.346900
H123 H 0.798500 0.273900 0.644700
H124 H 0.879600 0.325100 0.617300
H125 H 0.796300 0.185500 0.616200
H126 H 0.146100 0.867800 0.372400
H127 H 0.301000 0.214500 0.395400
H128 H 0.158400 0.369300 0.641300
H129 H 0.244900 0.435100 0.666700
H130 H 0.156900 0.139900 0.393300
H131 H 0.215400 0.221300 0.366600
H132 H 0.202700 0.365100 0.714400
H133 H 0.044300 0.352000 0.389700
H134 H 0.065100 0.231500 0.748600
H135 H 0.073700 0.570700 0.432600
H136 H -0.054400 0.041700 0.732200
H137 H 0.071000 0.274900 0.438800
H138 H -0.059100 -0.007800 0.685500
H139 H 0.300000 0.473500 0.388100
H140 H 0.053800 0.123000 0.651900
H141 H 0.152100 0.214700 0.247100
H142 H 0.479900 0.148700 0.520000
H143 H 0.423100 0.296700 0.512700
H144 H 1.339600 0.555300 0.968400
H145 H 1.293200 0.455000 0.993300
H146 H 0.382400 0.118700 0.578900
H147 H 1.373700 0.396600 0.966500
H148 H 0.175000 0.055200 0.599300
H149 H 1.155400 0.365700 0.943300
H150 H -0.036800 0.099000 0.576000
H151 H 1.065800 0.585800 0.977100
H152 H -0.025000 0.204200 0.529900
H153 H 0.597800 0.361100 0.934700
H154 H 0.181100 0.270700 0.510100
H155 H 0.551300 0.160100 0.910300
H156 H 0.590300 0.571600 0.536300
H157 H 0.588900 -0.050200 0.935600
H158 H 0.392600 0.640400 0.571200
H159 H 0.724500 -0.049800 0.975900
H160 H 0.364600 0.844300 0.558500
H161 H 0.414500 0.804700 0.527300
H162 H 0.522500 0.852700 0.550600
H163 H 0.785300 0.152100 0.997100
H164 H 0.160100 0.448700 0.160300
H165 H 0.801300 0.398700 0.998800
H166 H 0.653000 0.455900 0.991400
H167 H 0.459600 0.800800 0.126400
H168 H 0.829500 0.198400 0.798400
H169 H 0.703400 0.081100 0.767500
H170 H 0.256000 0.580800 0.073300
H171 H -0.050200 0.411100 0.185600
H172 H 0.528200 -0.056500 0.783400
H173 H 0.549400 0.591600 0.078900
H174 H 0.469100 -0.069000 0.832200
H175 H 0.327800 0.548000 0.121300
H176 H 0.624100 0.034800 0.865100
H177 H 0.201500 0.726100 0.144700
H178 H 0.120400 0.674900 0.117300
H179 H 0.203700 0.814500 0.116200
H180 H 0.926400 0.212600 0.846900
H181 H 0.853900 0.132200 0.872400
H182 H 0.841600 0.630700 0.141300
H183 H 0.755100 0.564900 0.166700
H184 H 0.699000 0.785500 0.895400
H185 H 0.843100 0.860100 0.893300
H186 H 0.797300 0.634900 0.214400
H187 H 0.784600 0.778700 0.866600
H188 H 0.934900 0.768500 0.248600
H189 H 0.955700 0.648000 0.889700
H190 H 1.054400 0.958300 0.232200
H191 H 0.926300 0.429300 0.932600
H192 H 1.059100 1.007800 0.185500
H193 H 0.929000 0.725100 0.938800
H194 H 0.946200 0.877000 0.151900
H195 H -0.049800 0.275500 0.225900
H196 H 0.520100 0.851300 0.020000
H197 H 0.576900 0.703300 0.012700
H198 H 0.700000 0.526500 0.888100
H199 H 0.477500 0.147300 0.050600
H200 H 0.617600 0.881300 0.078900
H201 H 0.585500 0.195300 0.027300
H202 H 0.825000 0.944800 0.099300
H203 H 0.635400 0.155700 0.058500
H204 H 1.036800 0.901000 0.076000
H205 H 0.607400 0.359600 0.071200
H206 H 1.025000 0.795800 0.029900
H207 H 0.409700 0.428400 0.036300
H208 H 0.818900 0.729300 0.010100
C209 C 0.473100 0.440100 0.051300
C210 C 0.819800 0.775200 0.027800
C211 C 0.544300 0.338700 0.056600
C212 C 0.943600 0.813000 0.040100
C213 C 0.562200 0.197600 0.047500
C214 C 0.952500 0.877100 0.067600
C215 C 0.825200 0.902000 0.081300
C216 C 0.699800 0.865400 0.068900
C217 C 0.240900 0.353000 0.812300
C218 C 0.033300 0.378100 0.193000
C219 C 0.742400 0.624900 0.949900
C220 C -0.007500 0.419700 0.046900
C221 C 0.695700 0.805200 0.041700
C222 C 0.560200 0.768200 0.028300
C223 C 0.875400 0.645700 0.931700
C224 C 0.939100 0.853100 0.171300
C225 C 0.033800 0.302000 0.217600
C226 C 0.926400 0.507800 0.946000
C227 C 1.008400 0.931200 0.191700
C228 C 0.861900 0.649700 0.897900
C229 C 1.006100 0.902500 0.219200
C230 C 0.790600 0.780500 0.887400
C231 C 0.933700 0.791700 0.229100
C232 C 0.852300 0.708100 0.208100
C233 C 0.859600 0.740300 0.179200
C234 C 0.862000 0.417400 0.876500
C235 C 0.837700 0.193200 0.856000
C236 C 0.782000 0.651700 0.157600
C237 C 0.562300 0.638800 0.136000
C238 C 0.745800 0.125100 0.835200
C239 C 0.637200 0.045200 0.845300
C240 C 0.202200 0.722100 0.123900
C241 C 0.546800 -0.020200 0.826000
C242 C 0.332200 0.642700 0.113600
C243 C 0.580300 -0.007500 0.796900
C244 C 0.471400 0.583200 0.065400
C245 C 0.686100 0.073500 0.787200
C246 C 0.335300 0.635000 0.080300
C247 C 0.761400 0.138900 0.805400
C248 C 0.158900 0.407700 0.178500
C249 C 0.736900 0.417100 0.983100
C250 C -0.020200 0.453200 0.076000
C251 C 0.353000 0.759100 0.062300
C252 C 0.701200 0.278100 0.967400
C253 C 0.735400 0.153300 0.979900
C254 C 0.365000 0.335300 0.830300
C255 C 0.698000 0.033800 0.967600
C256 C 0.437800 0.802400 0.547500
C257 C 0.621900 0.033300 0.943000
C258 C 0.455700 0.661300 0.556600
C259 C 0.592300 0.158900 0.928500
C260 C 0.526900 0.559900 0.551300
C261 C 0.626500 0.277000 0.942500
C262 C 0.180200 0.224800 0.527800
C263 C 1.057900 0.519800 0.962500
C264 C 0.056400 0.187000 0.540100
C265 C 1.164200 0.437500 0.956700
C266 C 0.047500 0.122900 0.567600
C267 C 1.306700 0.463700 0.972800
C268 C 0.174800 0.098000 0.581300
C269 C 0.300200 0.134600 0.568900
C270 C 0.304300 0.194800 0.541700
C271 C 0.045200 0.362800 0.095300
C272 C 0.439800 0.231800 0.528300
C273 C 0.257600 0.375100 0.449900
C274 C 0.125100 0.254200 0.085200
C275 C 0.060900 0.146900 0.671300
C276 C 0.153300 0.264600 0.229900
C277 C 0.124600 0.354300 0.431700
C278 C -0.008400 0.068800 0.691700
C279 C 0.278100 0.298800 0.217400
C280 C 0.073600 0.492200 0.446000
C281 C -0.006100 0.097500 0.719200
C282 C 0.138100 0.350300 0.397900
C283 C 0.066300 0.208300 0.729100
C284 C 0.209400 0.219500 0.387400
C285 C 0.147700 0.291900 0.708100
C286 C 0.140400 0.259700 0.679200
C287 C 0.218000 0.348300 0.657600
C288 C 0.138000 0.582600 0.376500
C289 C 0.162300 0.806800 0.356000
C290 C 0.437700 0.361200 0.636000
C291 C 0.797800 0.277900 0.623900
C292 C 0.254200 0.874900 0.335200
C293 C 0.362800 0.954800 0.345300
C294 C 0.667800 0.357300 0.613600
C295 C 0.453200 1.020200 0.326000
C296 C 0.528600 0.416800 0.565400
C297 C 0.419700 1.007500 0.296900
C298 C 0.277000 0.373500 0.192500
C299 C 0.313900 0.926500 0.287200
C300 C 0.664700 0.365000 0.580300
C301 C 0.238600 0.861100 0.305400
C302 C 0.463700 -0.306700 0.222800
C303 C 0.263100 0.582900 0.483100
C304 C 0.647000 0.240900 0.562300
C305 C 0.519800 -0.057900 0.212500
C306 C 0.298800 0.721900 0.467400
C307 C 0.264600 0.846700 0.479900
C308 C 0.073500 0.313900 0.037200
C309 C 0.302000 0.966200 0.467600
C310 C 0.197600 0.437800 0.297500
C311 C 0.378100 0.966700 0.443000
C312 C 0.338700 0.455700 0.306600
C313 C 0.407700 0.841100 0.428500
C314 C 0.440100 0.526900 0.301300
C315 C 0.373500 0.723000 0.442500
C316 C 0.775200 0.180200 0.277800
C317 C -0.057900 0.480200 0.462500
C318 C 0.813000 0.056400 0.290100
C319 C -0.164200 0.562500 0.456700
C320 C 0.877100 0.047500 0.317600
C321 C -0.306700 0.536300 0.472800
C322 C 0.902000 0.174800 0.331300
C323 C 0.865400 0.300200 0.318900
C324 C 0.805200 0.304300 0.291700
C325 C 0.416800 0.471400 0.815400
C326 C 0.768200 0.439800 0.278300
C327 C 0.375100 0.742400 0.699900
C328 C 0.193200 0.162300 0.106000
C329 C 0.853100 0.060900 0.421300
C330 C 0.931200 -0.008400 0.441700
C331 C 0.354300 0.875400 0.681700
C332 C 0.902500 -0.006100 0.469200
C333 C 0.417100 0.263100 0.233100
C334 C 0.492200 0.926400 0.696000
C335 C 0.791700 0.066300 0.479100
C336 C 0.350300 0.861900 0.647900
C337 C 0.708100 0.147700 0.458100
C338 C 0.219500 0.790600 0.637400
C339 C 0.740300 0.140400 0.429200
C340 C 0.651700 0.218000 0.407600
C341 C 0.638800 0.437700 0.386000
C342 C 0.582600 0.862000 0.626500
C343 C 0.806800 0.837700 0.606000
C344 C 0.722100 0.797800 0.373900
C345 C 0.642700 0.667800 0.363600
C346 C 0.874900 0.745800 0.585200
C347 C 0.954800 0.637200 0.595300
C348 C 0.583200 0.528600 0.315400
C349 C 1.020200 0.546800 0.576000
C350 C 0.635000 0.664700 0.330300
C351 C 1.007500 0.580300 0.546900
C352 C 0.437500 -0.164200 0.206700
C353 C 0.926500 0.686100 0.537200
C354 C 0.417400 0.138000 0.126500
C355 C 0.861100 0.761400 0.555400
C356 C 0.759100 0.647000 0.312300
C357 C 0.582900 0.736900 0.733100
C358 C 0.357300 0.332200 0.863600
C359 C 0.802400 0.562200 0.797500
C360 C 0.721900 0.701200 0.717400
C361 C 0.846700 0.735400 0.729900
C362 C 0.661300 0.544300 0.806600
C363 C 0.966200 0.698000 0.717600
C364 C 0.559900 0.473100 0.801300
C365 C 0.966700 0.621900 0.693000
C366 C 0.224800 0.819800 0.777800
C367 C 0.841100 0.592300 0.678500
C368 C 0.187000 0.943600 0.790100
C369 C 0.723000 0.626500 0.692500
C370 C 0.122900 0.952500 0.817600
C371 C 0.480200 1.057900 0.712500
C372 C 0.098000 0.825200 0.831300
C373 C 0.562500 1.164200 0.706700
C374 C 0.134600 0.699800 0.818900
C375 C 0.536300 1.306700 0.722800
C376 C 0.194800 0.695700 0.791700
C377 C 0.231800 0.560200 0.778300
C378 C 0.146900 0.939100 0.921300
C379 C 0.277900 0.202200 0.873900
C380 C 0.068800 1.008400 0.941700
C381 C 0.624900 0.257600 0.199900
C382 C 0.361200 0.562300 0.886000
C383 C 0.097500 1.006100 0.969200
C384 C 0.138900 0.238600 0.055400
C385 C 0.645700 0.124600 0.181700
C386 C 0.208300 0.933700 0.979100
C387 C 0.291900 0.852300 0.958100
C388 C 0.507800 0.073600 0.196000
C389 C 0.259700 0.859600 0.929200
C390 C 0.649700 0.138100 0.147900
C391 C 0.348300 0.782000 0.907600
C392 C 0.780500 0.209400 0.137400
N393 N 0.529000 0.210900 0.137500
N394 N 0.516300 0.202500 0.213500
N395 N 0.708000 0.539100 0.297900
N396 N 0.711700 0.543800 0.375800
N397 N 0.471000 0.789100 0.637500
N398 N 0.483700 0.797500 0.713500
N399 N 0.543800 0.288300 0.625800
N400 N 0.210900 0.471000 0.387500
N401 N 0.202500 0.483700 0.463500
N402 N 0.460900 0.708000 0.047900
N403 N 0.456200 0.711700 0.125800
N404 N 0.288300 0.456200 0.875800
N405 N 0.789100 0.529000 0.887500
N406 N 0.797500 0.516300 0.963500
N407 N 0.539100 0.292000 0.547900
N408 N 0.292000 0.460900 0.797900
O409 O 0.407900 0.015100 0.127200
O410 O 0.682500 0.370000 0.202400
O411 O 0.678600 0.775800 0.616000
O412 O 0.592100 0.984900 0.627200
O413 O 0.317500 0.630000 0.702400
O414 O 0.224200 0.678600 0.366000
O415 O 0.015100 0.592100 0.377200
O416 O 0.370000 0.317500 0.452400
O417 O 0.775800 0.321400 0.866000
O418 O 0.984900 0.407900 0.877200
O419 O 0.630000 0.682500 0.952400
O420 O 0.658700 0.724800 0.147600
O421 O 0.573300 0.516300 0.134800
O422 O 0.295200 0.876000 0.059600
O423 O 0.341300 0.275200 0.647600
O424 O 0.426700 0.483700 0.634800
O425 O 0.704800 0.124000 0.559600
O426 O 0.724800 0.341300 0.397600
O427 O 0.516300 0.426700 0.384800
O428 O 0.876000 0.704800 0.309600
O429 O 0.275200 0.658700 0.897600
O430 O 0.483700 0.573300 0.884800
O431 O 0.124000 0.295200 0.809600
O432 O 0.321400 0.224200 0.116000

#END
