
#######################################################################
#
#                 Cambridge Crystallographic Data Centre
#                                CCDC 
#
#######################################################################
#
# If this CIF has been generated from an entry in the Cambridge 
# Structural Database, then it will include bibliographic, chemical, 
# crystal, experimental, refinement or atomic coordinate data resulting 
# from the CCDC's data processing and validation procedures.
#
#######################################################################

data_ABOTOA
_symmetry_cell_setting           tetragonal
_symmetry_space_group_name_H-M   'P 43'
_symmetry_Int_Tables_number      78
_space_group_name_Hall           'P 4cw'
loop_
_symmetry_equiv_pos_site_id
_symmetry_equiv_pos_as_xyz
1 x,y,z
2 -x,-y,1/2+z
3 -y,x,3/4+z
4 y,-x,1/4+z
_cell_length_a                   9.6411(11)
_cell_length_b                   9.6411(11)
_cell_length_c                   46.197(9)
_cell_angle_alpha                90
_cell_angle_beta                 90
_cell_angle_gamma                90
_cell_volume                     4294.05
loop_
_atom_site_label
_atom_site_type_symbol
_atom_site_fract_x
_atom_site_fract_y
_atom_site_fract_z
N1 N 0.2920(10) 0.4609(9) 0.7979(2)
O1 O 0.1240(11) 0.2952(10) 0.8096(2)
C1 C 0.2409(13) 0.3530(11) 0.8123(2)
N2 N 0.2883(9) 0.4562(10) 0.8758(2)
H1 H 0.1992(9) 0.4596(10) 0.8764(2)
O2 O 0.4837(9) 0.5733(12) 0.8848(2)
C2 C 0.3650(14) 0.3353(12) 0.8303(3)
H2 H 0.4192(14) 0.2560(12) 0.8233(3)
O3 O 0.2752(8) 0.6587(9) 0.8976(2)
C3 C 0.4168(12) 0.4714(13) 0.8154(3)
H3 H 0.4084(12) 0.5494(13) 0.8289(3)
C4 C 0.3573(14) 0.3322(13) 0.8636(2)
H4 H 0.4520(14) 0.3278(13) 0.8713(2)
C5 C 0.2779(16) 0.2022(13) 0.8739(3)
H5 H 0.2739(16) 0.2015(13) 0.8947(3)
H6 H 0.3251(16) 0.1204(13) 0.8673(3)
H7 H 0.1855(16) 0.2037(13) 0.8662(3)
C6 C 0.3612(12) 0.5623(13) 0.8860(2)
C7 C 0.3483(18) 0.7820(16) 0.9076(4)
H8 H 0.3693(18) 0.8416(16) 0.8913(4)
H9 H 0.4351(18) 0.7551(16) 0.9167(4)
C8 C 0.2597(14) 0.8596(16) 0.9292(3)
C9 C 0.2919(18) 0.8523(19) 0.9581(3)
H10 H 0.3651(18) 0.7973(19) 0.9644(3)
C10 C 0.2083(26) 0.9337(28) 0.9791(4)
H11 H 0.2315(26) 0.9349(28) 0.9986(4)
C11 C 0.0975(26) 1.0061(26) 0.9692(5)
H12 H 0.0417(26) 1.0544(26) 0.9822(5)
C12 C 0.0688(20) 1.0084(20) 0.9417(7)
H13 H -0.0078(20) 1.0591(20) 0.9355(7)
C13 C 0.1469(16) 0.9391(15) 0.9213(3)
H14 H 0.1230(16) 0.9462(15) 0.9019(3)
C14 C 0.2318(15) 0.5602(13) 0.7783(2)
H15 H 0.1487(15) 0.5201(13) 0.7700(2)
H16 H 0.2967(15) 0.5769(13) 0.7627(2)
C15 C 0.1948(13) 0.6957(13) 0.7917(2)
C16 C 0.1346(16) 0.6998(15) 0.8189(3)
H17 H 0.1187(16) 0.6176(15) 0.8289(3)
C17 C 0.0980(21) 0.8252(18) 0.8313(4)
H18 H 0.0552(21) 0.8250(18) 0.8493(4)
C18 C 0.1229(23) 0.9525(21) 0.8176(5)
H19 H 0.0990(23) 1.0368(21) 0.8260(5)
C19 C 0.1870(22) 0.9436(17) 0.7901(5)
H20 H 0.2042(22) 1.0250(17) 0.7799(5)
C20 C 0.2248(16) 0.8198(12) 0.7778(3)
H21 H 0.2707(16) 0.8189(12) 0.7601(3)
C21 C 0.5599(18) 0.4731(17) 0.8013(3)
H22 H 0.5716(18) 0.4097(17) 0.7863(3)
C22 C 0.6613(17) 0.5443(29) 0.8066(4)
H23 H 0.6404(17) 0.6074(29) 0.8212(4)
C23 C 0.8024(29) 0.5622(42) 0.7975(6)
H24 H 0.8443(29) 0.6354(42) 0.8085(6)
H25 H 0.8047(29) 0.5855(42) 0.7773(6)
H26 H 0.8527(29) 0.4775(42) 0.8006(6)
N1 N 0.7080(10) 0.5391(9) 0.2979(2)
O1 O 0.8760(11) 0.7048(10) 0.3096(2)
C1 C 0.7591(13) 0.6470(11) 0.3123(2)
N2 N 0.7117(9) 0.5438(10) 0.3758(2)
H1 H 0.8008(9) 0.5404(10) 0.3764(2)
O2 O 0.5163(9) 0.4267(12) 0.3848(2)
C2 C 0.6350(14) 0.6647(12) 0.3303(3)
H2 H 0.5808(14) 0.7440(12) 0.3233(3)
O3 O 0.7248(8) 0.3413(9) 0.3976(2)
C3 C 0.5832(12) 0.5286(13) 0.3154(3)
H3 H 0.5916(12) 0.4506(13) 0.3289(3)
C4 C 0.6427(14) 0.6678(13) 0.3636(2)
H4 H 0.5480(14) 0.6722(13) 0.3713(2)
C5 C 0.7221(16) 0.7978(13) 0.3739(3)
H5 H 0.7261(16) 0.7985(13) 0.3947(3)
H6 H 0.6749(16) 0.8796(13) 0.3673(3)
H7 H 0.8145(16) 0.7963(13) 0.3662(3)
C6 C 0.6388(12) 0.4377(13) 0.3860(2)
C7 C 0.6517(18) 0.2180(16) 0.4076(4)
H8 H 0.6307(18) 0.1584(16) 0.3913(4)
H9 H 0.5649(18) 0.2449(16) 0.4167(4)
C8 C 0.7403(14) 0.1404(16) 0.4292(3)
C9 C 0.7081(18) 0.1477(19) 0.4581(3)
H10 H 0.6349(18) 0.2027(19) 0.4644(3)
C10 C 0.7917(26) 0.0663(28) 0.4791(4)
H11 H 0.7685(26) 0.0651(28) 0.4986(4)
C11 C 0.9025(26) -0.0061(26) 0.4692(5)
H12 H 0.9583(26) -0.0544(26) 0.4822(5)
C12 C 0.9312(20) -0.0084(20) 0.4417(7)
H13 H 1.0078(20) -0.0591(20) 0.4355(7)
C13 C 0.8531(16) 0.0609(15) 0.4213(3)
H14 H 0.8770(16) 0.0538(15) 0.4019(3)
C14 C 0.7682(15) 0.4398(13) 0.2783(2)
H15 H 0.8513(15) 0.4799(13) 0.2700(2)
H16 H 0.7033(15) 0.4231(13) 0.2627(2)
C15 C 0.8052(13) 0.3043(13) 0.2917(2)
C16 C 0.8654(16) 0.3002(15) 0.3189(3)
H17 H 0.8813(16) 0.3824(15) 0.3289(3)
C17 C 0.9020(21) 0.1748(18) 0.3313(4)
H18 H 0.9448(21) 0.1750(18) 0.3493(4)
C18 C 0.8771(23) 0.0475(21) 0.3176(5)
H19 H 0.9010(23) -0.0368(21) 0.3260(5)
C19 C 0.8130(22) 0.0564(17) 0.2901(5)
H20 H 0.7958(22) -0.0250(17) 0.2799(5)
C20 C 0.7752(16) 0.1802(12) 0.2778(3)
H21 H 0.7293(16) 0.1811(12) 0.2601(3)
C21 C 0.4401(18) 0.5269(17) 0.3013(3)
H22 H 0.4284(18) 0.5903(17) 0.2863(3)
C22 C 0.3387(17) 0.4557(29) 0.3066(4)
H23 H 0.3596(17) 0.3926(29) 0.3212(4)
C23 C 0.1976(29) 0.4378(42) 0.2975(6)
H24 H 0.1557(29) 0.3646(42) 0.3085(6)
H25 H 0.1953(29) 0.4145(42) 0.2773(6)
H26 H 0.1473(29) 0.5225(42) 0.3006(6)
N1 N 0.5391(9) 0.2920(10) 0.5479(2)
O1 O 0.7048(10) 0.1240(11) 0.5596(2)
C1 C 0.6470(11) 0.2409(13) 0.5623(2)
N2 N 0.5438(10) 0.2883(9) 0.6258(2)
H1 H 0.5404(10) 0.1992(9) 0.6264(2)
O2 O 0.4267(12) 0.4837(9) 0.6348(2)
C2 C 0.6647(12) 0.3650(14) 0.5803(3)
H2 H 0.7440(12) 0.4192(14) 0.5733(3)
O3 O 0.3413(9) 0.2752(8) 0.6476(2)
C3 C 0.5286(13) 0.4168(12) 0.5654(3)
H3 H 0.4506(13) 0.4084(12) 0.5789(3)
C4 C 0.6678(13) 0.3573(14) 0.6136(2)
H4 H 0.6722(13) 0.4520(14) 0.6213(2)
C5 C 0.7978(13) 0.2779(16) 0.6239(3)
H5 H 0.7985(13) 0.2739(16) 0.6447(3)
H6 H 0.8796(13) 0.3251(16) 0.6173(3)
H7 H 0.7963(13) 0.1855(16) 0.6162(3)
C6 C 0.4377(13) 0.3612(12) 0.6360(2)
C7 C 0.2180(16) 0.3483(18) 0.6576(4)
H8 H 0.1584(16) 0.3693(18) 0.6413(4)
H9 H 0.2449(16) 0.4351(18) 0.6667(4)
C8 C 0.1404(16) 0.2597(14) 0.6792(3)
C9 C 0.1477(19) 0.2919(18) 0.7081(3)
H10 H 0.2027(19) 0.3651(18) 0.7144(3)
C10 C 0.0663(28) 0.2083(26) 0.7291(4)
H11 H 0.0651(28) 0.2315(26) 0.7486(4)
C11 C -0.0061(26) 0.0975(26) 0.7192(5)
H12 H -0.0544(26) 0.0417(26) 0.7322(5)
C12 C -0.0084(20) 0.0688(20) 0.6917(7)
H13 H -0.0591(20) -0.0078(20) 0.6855(7)
C13 C 0.0609(15) 0.1469(16) 0.6713(3)
H14 H 0.0538(15) 0.1230(16) 0.6519(3)
C14 C 0.4398(13) 0.2318(15) 0.5283(2)
H15 H 0.4799(13) 0.1487(15) 0.5200(2)
H16 H 0.4231(13) 0.2967(15) 0.5127(2)
C15 C 0.3043(13) 0.1948(13) 0.5417(2)
C16 C 0.3002(15) 0.1346(16) 0.5689(3)
H17 H 0.3824(15) 0.1187(16) 0.5789(3)
C17 C 0.1748(18) 0.0980(21) 0.5813(4)
H18 H 0.1750(18) 0.0552(21) 0.5993(4)
C18 C 0.0475(21) 0.1229(23) 0.5676(5)
H19 H -0.0368(21) 0.0990(23) 0.5760(5)
C19 C 0.0564(17) 0.1870(22) 0.5401(5)
H20 H -0.0250(17) 0.2042(22) 0.5299(5)
C20 C 0.1802(12) 0.2248(16) 0.5278(3)
H21 H 0.1811(12) 0.2707(16) 0.5101(3)
C21 C 0.5269(17) 0.5599(18) 0.5513(3)
H22 H 0.5903(17) 0.5716(18) 0.5363(3)
C22 C 0.4557(29) 0.6613(17) 0.5566(4)
H23 H 0.3926(29) 0.6404(17) 0.5712(4)
C23 C 0.4378(42) 0.8024(29) 0.5475(6)
H24 H 0.3646(42) 0.8443(29) 0.5585(6)
H25 H 0.4145(42) 0.8047(29) 0.5273(6)
H26 H 0.5225(42) 0.8527(29) 0.5506(6)
N1 N 0.4609(9) 0.7080(10) 0.0479(2)
O1 O 0.2952(10) 0.8760(11) 0.0596(2)
C1 C 0.3530(11) 0.7591(13) 0.0623(2)
N2 N 0.4562(10) 0.7117(9) 0.1258(2)
H1 H 0.4596(10) 0.8008(9) 0.1264(2)
O2 O 0.5733(12) 0.5163(9) 0.1348(2)
C2 C 0.3353(12) 0.6350(14) 0.0803(3)
H2 H 0.2560(12) 0.5808(14) 0.0733(3)
O3 O 0.6587(9) 0.7248(8) 0.1476(2)
C3 C 0.4714(13) 0.5832(12) 0.0654(3)
H3 H 0.5494(13) 0.5916(12) 0.0789(3)
C4 C 0.3322(13) 0.6427(14) 0.1136(2)
H4 H 0.3278(13) 0.5480(14) 0.1213(2)
C5 C 0.2022(13) 0.7221(16) 0.1239(3)
H5 H 0.2015(13) 0.7261(16) 0.1447(3)
H6 H 0.1204(13) 0.6749(16) 0.1173(3)
H7 H 0.2037(13) 0.8145(16) 0.1162(3)
C6 C 0.5623(13) 0.6388(12) 0.1360(2)
C7 C 0.7820(16) 0.6517(18) 0.1576(4)
H8 H 0.8416(16) 0.6307(18) 0.1413(4)
H9 H 0.7551(16) 0.5649(18) 0.1667(4)
C8 C 0.8596(16) 0.7403(14) 0.1792(3)
C9 C 0.8523(19) 0.7081(18) 0.2081(3)
H10 H 0.7973(19) 0.6349(18) 0.2144(3)
C10 C 0.9337(28) 0.7917(26) 0.2291(4)
H11 H 0.9349(28) 0.7685(26) 0.2486(4)
C11 C 1.0061(26) 0.9025(26) 0.2192(5)
H12 H 1.0544(26) 0.9583(26) 0.2322(5)
C12 C 1.0084(20) 0.9312(20) 0.1917(7)
H13 H 1.0591(20) 1.0078(20) 0.1855(7)
C13 C 0.9391(15) 0.8531(16) 0.1713(3)
H14 H 0.9462(15) 0.8770(16) 0.1519(3)
C14 C 0.5602(13) 0.7682(15) 0.0283(2)
H15 H 0.5201(13) 0.8513(15) 0.0200(2)
H16 H 0.5769(13) 0.7033(15) 0.0127(2)
C15 C 0.6957(13) 0.8052(13) 0.0417(2)
C16 C 0.6998(15) 0.8654(16) 0.0689(3)
H17 H 0.6176(15) 0.8813(16) 0.0789(3)
C17 C 0.8252(18) 0.9020(21) 0.0813(4)
H18 H 0.8250(18) 0.9448(21) 0.0993(4)
C18 C 0.9525(21) 0.8771(23) 0.0676(5)
H19 H 1.0368(21) 0.9010(23) 0.0760(5)
C19 C 0.9436(17) 0.8130(22) 0.0401(5)
H20 H 1.0250(17) 0.7958(22) 0.0299(5)
C20 C 0.8198(12) 0.7752(16) 0.0278(3)
H21 H 0.8189(12) 0.7293(16) 0.0101(3)
C21 C 0.4731(17) 0.4401(18) 0.0513(3)
H22 H 0.4097(17) 0.4284(18) 0.0363(3)
C22 C 0.5443(29) 0.3387(17) 0.0566(4)
H23 H 0.6074(29) 0.3596(17) 0.0712(4)
C23 C 0.5622(42) 0.1976(29) 0.0475(6)
H24 H 0.6354(42) 0.1557(29) 0.0585(6)
H25 H 0.5855(42) 0.1953(29) 0.0273(6)
H26 H 0.4775(42) 0.1473(29) 0.0506(6)
N3 N 0.7975(12) 0.5163(11) 0.9635(2)
O4 O 0.6300(12) 0.6825(11) 0.9524(2)
C24 C 0.7424(14) 0.6249(13) 0.9499(3)
N4 N 0.7891(10) 0.5290(10) 0.8875(2)
H27 H 0.7000(10) 0.5265(10) 0.8881(2)
O5 O 0.9849(10) 0.4079(11) 0.8772(2)
C25 C 0.8754(13) 0.6457(11) 0.9317(3)
H28 H 0.9290(13) 0.7251(11) 0.9388(3)
O6 O 0.7758(9) 0.3214(9) 0.8660(2)
C26 C 0.9264(15) 0.5078(12) 0.9460(3)
H29 H 0.9263(15) 0.4293(12) 0.9326(3)
C27 C 0.8619(13) 0.6497(12) 0.8979(3)
H30 H 0.9557(13) 0.6480(12) 0.8897(3)
C28 C 0.7906(16) 0.7805(14) 0.8874(3)
H31 H 0.7846(16) 0.7787(14) 0.8666(3)
H32 H 0.8431(16) 0.8601(14) 0.8933(3)
H33 H 0.6990(16) 0.7855(14) 0.8954(3)
C29 C 0.8620(11) 0.4174(13) 0.8765(2)
C30 C 0.8377(17) 0.1932(16) 0.8560(4)
H34 H 0.8539(17) 0.1322(16) 0.8724(4)
H35 H 0.9264(17) 0.2126(16) 0.8469(4)
C31 C 0.7458(14) 0.1251(14) 0.8352(3)
C32 C 0.6372(21) 0.0452(18) 0.8453(3)
H36 H 0.6241(21) 0.0348(18) 0.8651(3)
C33 C 0.5468(21) -0.0202(22) 0.8260(5)
H37 H 0.4691(21) -0.0690(22) 0.8322(5)
C34 C 0.5803(38) -0.0075(33) 0.7969(8)
H38 H 0.5282(38) -0.0565(33) 0.7834(8)
C35 C 0.6861(32) 0.0735(25) 0.7872(4)
H39 H 0.7034(32) 0.0811(25) 0.7675(4)
C36 C 0.7614(22) 0.1389(20) 0.8054(5)
H40 H 0.8295(22) 0.1984(20) 0.7984(5)
C37 C 0.7369(18) 0.4171(16) 0.9831(3)
H41 H 0.6530(18) 0.4559(16) 0.9914(3)
H42 H 0.8013(18) 0.3987(16) 0.9988(3)
C38 C 0.7012(12) 0.2781(12) 0.9674(3)
C39 C 0.7354(18) 0.1533(17) 0.9799(4)
H43 H 0.7853(18) 0.1521(17) 0.9971(4)
C40 C 0.6980(21) 0.0338(16) 0.9676(5)
H44 H 0.7245(21) -0.0498(16) 0.9759(5)
C41 C 0.6219(19) 0.0333(16) 0.9430(4)
H45 H 0.5889(19) -0.0502(16) 0.9356(4)
C42 C 0.5923(18) 0.1589(19) 0.9285(4)
H46 H 0.5513(18) 0.1601(19) 0.9103(4)
C43 C 0.6265(17) 0.2770(15) 0.9425(3)
H47 H 0.5978(17) 0.3611(15) 0.9347(3)
C44 C 1.0579(18) 0.5198(21) 0.9625(3)
H48 H 1.0658(18) 0.5858(21) 0.9771(3)
C45 C 1.1642(20) 0.4375(31) 0.9567(4)
H49 H 1.1554(20) 0.3657(31) 0.9433(4)
C46 C 1.3067(22) 0.4637(35) 0.9728(7)
H50 H 1.3737(22) 0.3966(35) 0.9665(7)
H51 H 1.2932(22) 0.4550(35) 0.9933(7)
H52 H 1.3396(22) 0.5553(35) 0.9684(7)
N3 N 0.2025(12) 0.4837(11) 0.4635(2)
O4 O 0.3700(12) 0.3175(11) 0.4524(2)
C24 C 0.2576(14) 0.3751(13) 0.4499(3)
N4 N 0.2109(10) 0.4710(10) 0.3875(2)
H27 H 0.3000(10) 0.4735(10) 0.3881(2)
O5 O 0.0151(10) 0.5921(11) 0.3772(2)
C25 C 0.1246(13) 0.3543(11) 0.4317(3)
H28 H 0.0710(13) 0.2749(11) 0.4388(3)
O6 O 0.2242(9) 0.6786(9) 0.3660(2)
C26 C 0.0736(15) 0.4922(12) 0.4460(3)
H29 H 0.0737(15) 0.5707(12) 0.4326(3)
C27 C 0.1381(13) 0.3503(12) 0.3979(3)
H30 H 0.0443(13) 0.3520(12) 0.3897(3)
C28 C 0.2094(16) 0.2195(14) 0.3874(3)
H31 H 0.2154(16) 0.2213(14) 0.3666(3)
H32 H 0.1569(16) 0.1399(14) 0.3933(3)
H33 H 0.3010(16) 0.2145(14) 0.3954(3)
C29 C 0.1380(11) 0.5826(13) 0.3765(2)
C30 C 0.1623(17) 0.8068(16) 0.3560(4)
H34 H 0.1461(17) 0.8678(16) 0.3724(4)
H35 H 0.0736(17) 0.7874(16) 0.3469(4)
C31 C 0.2542(14) 0.8749(14) 0.3352(3)
C32 C 0.3628(21) 0.9548(18) 0.3453(3)
H36 H 0.3759(21) 0.9652(18) 0.3651(3)
C33 C 0.4532(21) 1.0202(22) 0.3260(5)
H37 H 0.5309(21) 1.0690(22) 0.3322(5)
C34 C 0.4197(38) 1.0075(33) 0.2969(8)
H38 H 0.4718(38) 1.0565(33) 0.2834(8)
C35 C 0.3139(32) 0.9265(25) 0.2872(4)
H39 H 0.2966(32) 0.9189(25) 0.2675(4)
C36 C 0.2386(22) 0.8611(20) 0.3054(5)
H40 H 0.1705(22) 0.8016(20) 0.2984(5)
C37 C 0.2631(18) 0.5829(16) 0.4831(3)
H41 H 0.3470(18) 0.5441(16) 0.4914(3)
H42 H 0.1987(18) 0.6013(16) 0.4988(3)
C38 C 0.2988(12) 0.7219(12) 0.4674(3)
C39 C 0.2646(18) 0.8467(17) 0.4799(4)
H43 H 0.2147(18) 0.8479(17) 0.4971(4)
C40 C 0.3020(21) 0.9662(16) 0.4676(5)
H44 H 0.2755(21) 1.0498(16) 0.4759(5)
C41 C 0.3781(19) 0.9667(16) 0.4430(4)
H45 H 0.4111(19) 1.0502(16) 0.4356(4)
C42 C 0.4077(18) 0.8411(19) 0.4285(4)
H46 H 0.4487(18) 0.8399(19) 0.4103(4)
C43 C 0.3735(17) 0.7230(15) 0.4425(3)
H47 H 0.4022(17) 0.6389(15) 0.4347(3)
C44 C -0.0579(18) 0.4802(21) 0.4625(3)
H48 H -0.0658(18) 0.4142(21) 0.4771(3)
C45 C -0.1642(20) 0.5625(31) 0.4567(4)
H49 H -0.1554(20) 0.6343(31) 0.4433(4)
C46 C -0.3067(22) 0.5363(35) 0.4728(7)
H50 H -0.3737(22) 0.6034(35) 0.4665(7)
H51 H -0.2932(22) 0.5450(35) 0.4933(7)
H52 H -0.3396(22) 0.4447(35) 0.4684(7)
N3 N 0.4837(11) 0.7975(12) 0.7135(2)
O4 O 0.3175(11) 0.6300(12) 0.7024(2)
C24 C 0.3751(13) 0.7424(14) 0.6999(3)
N4 N 0.4710(10) 0.7891(10) 0.6375(2)
H27 H 0.4735(10) 0.7000(10) 0.6381(2)
O5 O 0.5921(11) 0.9849(10) 0.6272(2)
C25 C 0.3543(11) 0.8754(13) 0.6817(3)
H28 H 0.2749(11) 0.9290(13) 0.6888(3)
O6 O 0.6786(9) 0.7758(9) 0.6160(2)
C26 C 0.4922(12) 0.9264(15) 0.6960(3)
H29 H 0.5707(12) 0.9263(15) 0.6826(3)
C27 C 0.3503(12) 0.8619(13) 0.6479(3)
H30 H 0.3520(12) 0.9557(13) 0.6397(3)
C28 C 0.2195(14) 0.7906(16) 0.6374(3)
H31 H 0.2213(14) 0.7846(16) 0.6166(3)
H32 H 0.1399(14) 0.8431(16) 0.6433(3)
H33 H 0.2145(14) 0.6990(16) 0.6454(3)
C29 C 0.5826(13) 0.8620(11) 0.6265(2)
C30 C 0.8068(16) 0.8377(17) 0.6060(4)
H34 H 0.8678(16) 0.8539(17) 0.6224(4)
H35 H 0.7874(16) 0.9264(17) 0.5969(4)
C31 C 0.8749(14) 0.7458(14) 0.5852(3)
C32 C 0.9548(18) 0.6372(21) 0.5953(3)
H36 H 0.9652(18) 0.6241(21) 0.6151(3)
C33 C 1.0202(22) 0.5468(21) 0.5760(5)
H37 H 1.0690(22) 0.4691(21) 0.5822(5)
C34 C 1.0075(33) 0.5803(38) 0.5469(8)
H38 H 1.0565(33) 0.5282(38) 0.5334(8)
C35 C 0.9265(25) 0.6861(32) 0.5372(4)
H39 H 0.9189(25) 0.7034(32) 0.5175(4)
C36 C 0.8611(20) 0.7614(22) 0.5554(5)
H40 H 0.8016(20) 0.8295(22) 0.5484(5)
C37 C 0.5829(16) 0.7369(18) 0.7331(3)
H41 H 0.5441(16) 0.6530(18) 0.7414(3)
H42 H 0.6013(16) 0.8013(18) 0.7488(3)
C38 C 0.7219(12) 0.7012(12) 0.7174(3)
C39 C 0.8467(17) 0.7354(18) 0.7299(4)
H43 H 0.8479(17) 0.7853(18) 0.7471(4)
C40 C 0.9662(16) 0.6980(21) 0.7176(5)
H44 H 1.0498(16) 0.7245(21) 0.7259(5)
C41 C 0.9667(16) 0.6219(19) 0.6930(4)
H45 H 1.0502(16) 0.5889(19) 0.6856(4)
C42 C 0.8411(19) 0.5923(18) 0.6785(4)
H46 H 0.8399(19) 0.5513(18) 0.6603(4)
C43 C 0.7230(15) 0.6265(17) 0.6925(3)
H47 H 0.6389(15) 0.5978(17) 0.6847(3)
C44 C 0.4802(21) 1.0579(18) 0.7125(3)
H48 H 0.4142(21) 1.0658(18) 0.7271(3)
C45 C 0.5625(31) 1.1642(20) 0.7067(4)
H49 H 0.6343(31) 1.1554(20) 0.6933(4)
C46 C 0.5363(35) 1.3067(22) 0.7228(7)
H50 H 0.6034(35) 1.3737(22) 0.7165(7)
H51 H 0.5450(35) 1.2932(22) 0.7433(7)
H52 H 0.4447(35) 1.3396(22) 0.7184(7)
N3 N 0.5163(11) 0.2025(12) 0.2135(2)
O4 O 0.6825(11) 0.3700(12) 0.2024(2)
C24 C 0.6249(13) 0.2576(14) 0.1999(3)
N4 N 0.5290(10) 0.2109(10) 0.1375(2)
H27 H 0.5265(10) 0.3000(10) 0.1381(2)
O5 O 0.4079(11) 0.0151(10) 0.1272(2)
C25 C 0.6457(11) 0.1246(13) 0.1817(3)
H28 H 0.7251(11) 0.0710(13) 0.1888(3)
O6 O 0.3214(9) 0.2242(9) 0.1160(2)
C26 C 0.5078(12) 0.0736(15) 0.1960(3)
H29 H 0.4293(12) 0.0737(15) 0.1826(3)
C27 C 0.6497(12) 0.1381(13) 0.1479(3)
H30 H 0.6480(12) 0.0443(13) 0.1397(3)
C28 C 0.7805(14) 0.2094(16) 0.1374(3)
H31 H 0.7787(14) 0.2154(16) 0.1166(3)
H32 H 0.8601(14) 0.1569(16) 0.1433(3)
H33 H 0.7855(14) 0.3010(16) 0.1454(3)
C29 C 0.4174(13) 0.1380(11) 0.1265(2)
C30 C 0.1932(16) 0.1623(17) 0.1060(4)
H34 H 0.1322(16) 0.1461(17) 0.1224(4)
H35 H 0.2126(16) 0.0736(17) 0.0969(4)
C31 C 0.1251(14) 0.2542(14) 0.0852(3)
C32 C 0.0452(18) 0.3628(21) 0.0953(3)
H36 H 0.0348(18) 0.3759(21) 0.1151(3)
C33 C -0.0202(22) 0.4532(21) 0.0760(5)
H37 H -0.0690(22) 0.5309(21) 0.0822(5)
C34 C -0.0075(33) 0.4197(38) 0.0469(8)
H38 H -0.0565(33) 0.4718(38) 0.0334(8)
C35 C 0.0735(25) 0.3139(32) 0.0372(4)
H39 H 0.0811(25) 0.2966(32) 0.0175(4)
C36 C 0.1389(20) 0.2386(22) 0.0554(5)
H40 H 0.1984(20) 0.1705(22) 0.0484(5)
C37 C 0.4171(16) 0.2631(18) 0.2331(3)
H41 H 0.4559(16) 0.3470(18) 0.2414(3)
H42 H 0.3987(16) 0.1987(18) 0.2488(3)
C38 C 0.2781(12) 0.2988(12) 0.2174(3)
C39 C 0.1533(17) 0.2646(18) 0.2299(4)
H43 H 0.1521(17) 0.2147(18) 0.2471(4)
C40 C 0.0338(16) 0.3020(21) 0.2176(5)
H44 H -0.0498(16) 0.2755(21) 0.2259(5)
C41 C 0.0333(16) 0.3781(19) 0.1930(4)
H45 H -0.0502(16) 0.4111(19) 0.1856(4)
C42 C 0.1589(19) 0.4077(18) 0.1785(4)
H46 H 0.1601(19) 0.4487(18) 0.1603(4)
C43 C 0.2770(15) 0.3735(17) 0.1925(3)
H47 H 0.3611(15) 0.4022(17) 0.1847(3)
C44 C 0.5198(21) -0.0579(18) 0.2125(3)
H48 H 0.5858(21) -0.0658(18) 0.2271(3)
C45 C 0.4375(31) -0.1642(20) 0.2067(4)
H49 H 0.3657(31) -0.1554(20) 0.1933(4)
C46 C 0.4637(35) -0.3067(22) 0.2228(7)
H50 H 0.3966(35) -0.3737(22) 0.2165(7)
H51 H 0.4550(35) -0.2932(22) 0.2433(7)
H52 H 0.5553(35) -0.3396(22) 0.2184(7)

#END
