./ABUBAA01_from_POSCAR.cif_generated_by_CrystalShift
_symmetry_cell_setting triclinic
_symmetry_space_group_name_H-M 'P 1'
loop_
_symmetry_equiv_pos_site_id
_symmetry_equiv_pos_as_xyz
1 x,y,z
_cell_length_a 11.967000
_cell_length_b 13.361000
_cell_length_c 9.969000
_cell_angle_alpha 102.900000
_cell_angle_beta 112.810000
_cell_angle_gamma 89.220000
_cell_volume 1427.490304
loop_
_atom_site_label
_atom_site_type_symbol
_atom_site_fract_x
_atom_site_fract_y
_atom_site_fract_z
C1 C 0.806300 0.827300 -0.098400
C2 C 0.638800 0.720700 -0.126100
C3 C 0.715500 0.646400 -0.079200
C4 C 0.837100 0.659400 -0.045400
C5 C 0.885100 0.752100 -0.051700
C6 C 1.015200 0.770900 -0.016400
C7 C 1.214800 0.724900 0.037900
C8 C 1.302100 0.680600 0.162800
C9 C 0.863900 0.867400 0.311200
C10 C 0.752700 0.903200 0.249000
C11 C -0.366800 0.331700 0.580200
C12 C -0.292300 0.424600 0.589800
C13 C -0.086300 0.430600 0.635000
C14 C 0.019000 0.405700 0.601300
C15 C 0.007500 0.340400 0.462300
C16 C 0.109500 0.316900 0.433000
C17 C 0.222400 0.358600 0.533400
C18 C 0.235700 0.425700 0.668600
C19 C 0.136600 0.447100 0.700900
C20 C -0.353600 0.165000 0.634000
C21 C -0.302600 0.100700 0.526800
C22 C -0.088000 0.114800 0.611300
C23 C 0.031200 0.081200 0.683000
C24 C 0.045100 -0.007800 0.738100
C25 C 0.160400 -0.043400 0.797000
C26 C 0.260200 0.007900 0.802200
C27 C 0.247300 0.096800 0.751000
C28 C 0.136100 0.132600 0.688800
C29 C -0.302100 0.319400 0.837200
C30 C -0.214800 0.275100 0.962100
C31 C -0.015200 0.229100 1.016400
C32 C 0.114900 0.247900 1.051700
C33 C 0.162900 0.340600 1.045400
C34 C 0.284500 0.353600 1.079200
C35 C 0.361200 0.279300 1.126100
C36 C 0.314300 0.189500 1.135700
C37 C 0.193700 0.172700 1.098400
C38 C 0.739800 0.992100 0.197800
C39 C 0.839600 1.043400 0.203000
C40 C 0.954900 1.007800 0.261900
C41 C 0.968800 0.918800 0.317000
C42 C 1.088000 0.885200 0.388700
C43 C 1.302600 0.899300 0.473200
C44 C 1.353600 0.835000 0.366000
C45 C 0.863400 0.552900 0.299100
C46 C 0.764300 0.574300 0.331400
C47 C 0.777600 0.641400 0.466600
C48 C 1.366800 0.668300 0.419800
C49 C 1.292300 0.575400 0.410200
C50 C 1.086300 0.569400 0.365000
C51 C 0.981000 0.594300 0.398700
C52 C 0.992500 0.659600 0.537700
C53 C 0.890500 0.683100 0.567000
C54 C 0.685700 0.810500 -0.135700
N55 N 1.182000 0.928700 0.392400
N56 N 1.192600 0.604200 0.453200
N57 N 1.301300 0.729400 0.310000
N58 N -0.301300 0.270600 0.690000
N59 N -0.192600 0.395800 0.546800
N60 N -0.182000 0.071300 0.607600
N61 N -0.088200 0.299000 0.985800
N62 N 1.088200 0.701000 0.014200
O63 O -0.104000 0.300800 0.359200
O64 O -0.050700 -0.058000 0.739700
O65 O 1.104000 0.699200 0.640800
O66 O 1.050700 1.058000 0.260300
O67 O 0.909100 0.583000 -0.004900
O68 O 0.090900 0.417000 1.004900
Br69 Br 0.609570 0.513880 0.193400
Br70 Br 0.419020 0.085880 1.202000
Br71 Br 0.388020 0.168240 0.762400
Br72 Br 0.611980 0.831760 0.237600
Br73 Br 0.580980 0.914120 -0.202000
Br74 Br 0.390430 0.486120 0.806600

#END
