
#######################################################################
#
#                 Cambridge Crystallographic Data Centre
#                                CCDC 
#
#######################################################################
#
# If this CIF has been generated from an entry in the Cambridge 
# Structural Database, then it will include bibliographic, chemical, 
# crystal, experimental, refinement or atomic coordinate data resulting 
# from the CCDC's data processing and validation procedures.
#
#######################################################################

data_ABUBAA02
_symmetry_cell_setting           triclinic
_symmetry_space_group_name_H-M   'P -1'
_symmetry_Int_Tables_number      2
_space_group_name_Hall           '-P 1'
loop_
_symmetry_equiv_pos_site_id
_symmetry_equiv_pos_as_xyz
1 x,y,z
2 -x,-y,-z
_cell_length_a                   9.8562(3)
_cell_length_b                   11.9170(5)
_cell_length_c                   13.2324(4)
_cell_angle_alpha                89.269(3)
_cell_angle_beta                 77.229(3)
_cell_angle_gamma                67.500(3)
_cell_volume                     1395.94
loop_
_atom_site_label
_atom_site_type_symbol
_atom_site_fract_x
_atom_site_fract_y
_atom_site_fract_z
Br1 Br 0.23340(3) 0.89147(2) 0.67081(2)
Br2 Br 0.18941(3) 0.89271(2) 0.98707(2)
Br3 Br -0.20204(3) 0.91967(2) 0.58416(2)
N1 N 0.3955(2) 0.31737(16) 0.56926(14)
N2 N 0.4573(2) 0.30695(17) 0.89718(14)
N3 N 0.01331(19) 0.41070(16) 0.79890(14)
N4 N 0.31337(19) 0.19694(15) 0.77114(13)
O1 O 0.2638(2) 0.44928(15) 0.43835(13)
O2 O 0.64549(18) 0.39831(16) 0.80049(13)
O3 O -0.00440(19) 0.59065(15) 0.91865(12)
C1 C 0.3185(2) 0.53303(19) 0.58164(15)
C2 C 0.2619(2) 0.54605(19) 0.49136(16)
C3 C 0.2037(2) 0.6604(2) 0.45464(16)
H1 H 0.1692 0.6684 0.3923
C4 C 0.1955(2) 0.7621(2) 0.50794(17)
H2 H 0.1548 0.8403 0.4830
C5 C 0.2473(2) 0.7493(2) 0.59829(17)
C6 C 0.3096(2) 0.6372(2) 0.63474(16)
H3 H 0.3468 0.6303 0.6959
C7 C 0.3913(2) 0.41252(19) 0.61575(16)
H4 H 0.4364 0.4044 0.6733
C8 C 0.4767(3) 0.19757(19) 0.60085(18)
H5 H 0.5447 0.2037 0.6435
H6 H 0.5397 0.1421 0.5383
C9 C 0.3692(3) 0.14476(19) 0.66300(16)
H7 H 0.2827 0.1617 0.6306
H8 H 0.4221 0.0553 0.6616
C10 C 0.4010(2) 0.5205(2) 0.90673(15)
C11 C 0.5395(2) 0.5089(2) 0.84092(16)
C12 C 0.5688(3) 0.6117(2) 0.81588(17)
H9 H 0.6611 0.6036 0.7695
C13 C 0.4649(3) 0.7262(2) 0.85765(17)
H10 H 0.4855 0.7966 0.8404
C14 C 0.3303(3) 0.7367(2) 0.92509(17)
C15 C 0.2972(2) 0.6366(2) 0.94875(16)
H11 H 0.2034 0.6459 0.9939
C16 C 0.3648(2) 0.4144(2) 0.93279(16)
H12 H 0.2700 0.4256 0.9774
C17 C 0.4134(3) 0.2056(2) 0.92715(17)
H13 H 0.3086 0.2372 0.9701
H14 H 0.4805 0.1532 0.9695
C18 C 0.4236(3) 0.1308(2) 0.83178(18)
H15 H 0.5266 0.1050 0.7866
H16 H 0.4073 0.0563 0.8540
C19 C -0.0503(2) 0.61388(19) 0.74689(16)
C20 C -0.0438(2) 0.6623(2) 0.84096(16)
C21 C -0.0799(3) 0.7863(2) 0.85568(18)
H17 H -0.0725 0.8188 0.9185
C22 C -0.1265(3) 0.8632(2) 0.78003(18)
H18 H -0.1520 0.9482 0.7908
C23 C -0.1356(2) 0.8149(2) 0.68857(17)
C24 C -0.0967(2) 0.6919(2) 0.67078(17)
H19 H -0.1014 0.6602 0.6067
C25 C -0.0145(2) 0.4840(2) 0.72823(17)
H20 H -0.0119 0.4535 0.6616
C26 C 0.0374(2) 0.28361(19) 0.77620(18)
H21 H 0.0610 0.2657 0.7000
H22 H -0.0567 0.2714 0.8067
C27 C 0.1650(2) 0.19600(19) 0.81930(17)
H23 H 0.1427 0.2168 0.8950
H24 H 0.1690 0.1125 0.8094
H25 H 0.304(3) 0.391(2) 0.468(2)
H26 H 0.610(3) 0.348(2) 0.821(2)
H27 H 0.009(3) 0.524(2) 0.901(2)
Br1 Br 0.76660(3) 0.10853(2) 0.32919(2)
Br2 Br 0.81059(3) 0.10729(2) 0.01293(2)
Br3 Br 1.20204(3) 0.08033(2) 0.41584(2)
N1 N 0.6045(2) 0.68263(16) 0.43074(14)
N2 N 0.5427(2) 0.69305(17) 0.10282(14)
N3 N 0.98669(19) 0.58930(16) 0.20110(14)
N4 N 0.68663(19) 0.80306(15) 0.22886(13)
O1 O 0.7362(2) 0.55072(15) 0.56165(13)
O2 O 0.35451(18) 0.60169(16) 0.19951(13)
O3 O 1.00440(19) 0.40935(15) 0.08135(12)
C1 C 0.6815(2) 0.46697(19) 0.41836(15)
C2 C 0.7381(2) 0.45395(19) 0.50864(16)
C3 C 0.7963(2) 0.3396(2) 0.54536(16)
H1 H 0.8308 0.3316 0.6077
C4 C 0.8045(2) 0.2379(2) 0.49206(17)
H2 H 0.8452 0.1597 0.5170
C5 C 0.7527(2) 0.2507(2) 0.40171(17)
C6 C 0.6904(2) 0.3628(2) 0.36526(16)
H3 H 0.6532 0.3697 0.3041
C7 C 0.6087(2) 0.58748(19) 0.38425(16)
H4 H 0.5636 0.5956 0.3267
C8 C 0.5233(3) 0.80243(19) 0.39915(18)
H5 H 0.4553 0.7963 0.3565
H6 H 0.4603 0.8579 0.4617
C9 C 0.6308(3) 0.85524(19) 0.33700(16)
H7 H 0.7173 0.8383 0.3694
H8 H 0.5779 0.9447 0.3384
C10 C 0.5990(2) 0.4795(2) 0.09327(15)
C11 C 0.4605(2) 0.4911(2) 0.15908(16)
C12 C 0.4312(3) 0.3883(2) 0.18412(17)
H9 H 0.3389 0.3964 0.2305
C13 C 0.5351(3) 0.2738(2) 0.14235(17)
H10 H 0.5145 0.2034 0.1596
C14 C 0.6697(3) 0.2633(2) 0.07491(17)
C15 C 0.7028(2) 0.3634(2) 0.05125(16)
H11 H 0.7966 0.3541 0.0061
C16 C 0.6352(2) 0.5856(2) 0.06721(16)
H12 H 0.7300 0.5744 0.0226
C17 C 0.5866(3) 0.7944(2) 0.07285(17)
H13 H 0.6914 0.7628 0.0299
H14 H 0.5195 0.8468 0.0305
C18 C 0.5764(3) 0.8692(2) 0.16822(18)
H15 H 0.4734 0.8950 0.2134
H16 H 0.5927 0.9437 0.1460
C19 C 1.0503(2) 0.38612(19) 0.25311(16)
C20 C 1.0438(2) 0.3377(2) 0.15904(16)
C21 C 1.0799(3) 0.2137(2) 0.14432(18)
H17 H 1.0725 0.1812 0.0815
C22 C 1.1265(3) 0.1368(2) 0.21997(18)
H18 H 1.1520 0.0518 0.2092
C23 C 1.1356(2) 0.1851(2) 0.31143(17)
C24 C 1.0967(2) 0.3081(2) 0.32922(17)
H19 H 1.1014 0.3398 0.3933
C25 C 1.0145(2) 0.5160(2) 0.27177(17)
H20 H 1.0119 0.5465 0.3384
C26 C 0.9626(2) 0.71639(19) 0.22380(18)
H21 H 0.9390 0.7343 0.3000
H22 H 1.0567 0.7286 0.1933
C27 C 0.8350(2) 0.80400(19) 0.18070(17)
H23 H 0.8573 0.7832 0.1050
H24 H 0.8310 0.8875 0.1906
H25 H 0.696(3) 0.609(2) 0.532(2)
H26 H 0.390(3) 0.652(2) 0.179(2)
H27 H 0.991(3) 0.476(2) 0.099(2)

#END
