
#######################################################################
#
#                 Cambridge Crystallographic Data Centre
#                                CCDC 
#
#######################################################################
#
# If this CIF has been generated from an entry in the Cambridge 
# Structural Database, then it will include bibliographic, chemical, 
# crystal, experimental, refinement or atomic coordinate data resulting 
# from the CCDC's data processing and validation procedures.
#
#######################################################################

data_ABUBAA01
_symmetry_cell_setting           triclinic
_symmetry_space_group_name_H-M   'P -1'
_symmetry_Int_Tables_number      2
_space_group_name_Hall           '-P 1'
loop_
_symmetry_equiv_pos_site_id
_symmetry_equiv_pos_as_xyz
1 x,y,z
2 -x,-y,-z
_cell_length_a                   11.967(3)
_cell_length_b                   13.361(4)
_cell_length_c                   9.969(3)
_cell_angle_alpha                102.90(2)
_cell_angle_beta                 112.81(2)
_cell_angle_gamma                89.22(2)
_cell_volume                     1427.49
loop_
_atom_site_label
_atom_site_type_symbol
_atom_site_fract_x
_atom_site_fract_y
_atom_site_fract_z
Br1 Br 0.39043(8) 0.48612(8) 0.8066(1)
Br2 Br 0.38802(8) 0.16824(8) 0.7624(1)
Br3 Br 0.41902(8) 0.08588(8) 1.2020(1)
O1 O -0.1040(5) 0.3008(4) 0.3592(5)
O2 O -0.0507(4) -0.0580(4) 0.7397(6)
O3 O 0.0909(5) 0.4170(4) 1.0049(6)
N1 N -0.3013(4) 0.2706(4) 0.6900(6)
N2 N -0.1926(5) 0.3958(5) 0.5468(7)
N3 N -0.1820(5) 0.0713(5) 0.6076(6)
N4 N -0.0882(5) 0.2990(5) 0.9858(6)
C1 C -0.3668(6) 0.3317(7) 0.5802(8)
C2 C -0.2923(7) 0.4246(6) 0.5898(9)
C3 C -0.0863(7) 0.4306(5) 0.6350(8)
C4 C 0.0190(6) 0.4057(5) 0.6013(8)
C5 C 0.0075(7) 0.3404(5) 0.4623(8)
C6 C 0.1095(8) 0.3169(6) 0.4330(9)
C7 C 0.2224(8) 0.3586(6) 0.5334(10)
C8 C 0.2357(6) 0.4257(6) 0.6686(8)
C9 C 0.1366(7) 0.4471(6) 0.7009(8)
C10 C -0.3536(6) 0.1650(6) 0.6340(8)
C11 C -0.3026(6) 0.1007(6) 0.5268(8)
C12 C -0.0880(6) 0.1148(5) 0.6113(7)
C13 C 0.0312(6) 0.0812(5) 0.6830(7)
C14 C 0.0451(6) -0.0078(5) 0.7381(7)
C15 C 0.1604(7) -0.0434(6) 0.7970(8)
C16 C 0.2602(7) 0.0079(6) 0.8022(8)
C17 C 0.2473(6) 0.0968(6) 0.7510(8)
C18 C 0.1361(7) 0.1326(5) 0.6888(8)
C19 C -0.3021(6) 0.3194(6) 0.8372(8)
C20 C -0.2148(6) 0.2751(6) 0.9621(8)
C21 C -0.0152(6) 0.2291(5) 1.0164(7)
C22 C 0.1149(6) 0.2479(6) 1.0517(7)
C23 C 0.1629(6) 0.3406(6) 1.0454(8)
C24 C 0.2845(7) 0.3536(7) 1.0792(10)
C25 C 0.3612(7) 0.2793(7) 1.1261(9)
C26 C 0.3143(6) 0.1895(6) 1.1357(8)
C27 C 0.1937(7) 0.1727(6) 1.0984(8)
Br1 Br 0.60957(8) 0.51388(8) 0.1934(1)
Br2 Br 0.61198(8) 0.83176(8) 0.2376(1)
Br3 Br 0.58098(8) 0.91412(8) -0.2020(1)
O1 O 1.1040(5) 0.6992(4) 0.6408(5)
O2 O 1.0507(4) 1.0580(4) 0.2603(6)
O3 O 0.9091(5) 0.5830(4) -0.0049(6)
N1 N 1.3013(4) 0.7294(4) 0.3100(6)
N2 N 1.1926(5) 0.6042(5) 0.4532(7)
N3 N 1.1820(5) 0.9287(5) 0.3924(6)
N4 N 1.0882(5) 0.7010(5) 0.0142(6)
C1 C 1.3668(6) 0.6683(7) 0.4198(8)
C2 C 1.2923(7) 0.5754(6) 0.4102(9)
C3 C 1.0863(7) 0.5694(5) 0.3650(8)
C4 C 0.9810(6) 0.5943(5) 0.3987(8)
C5 C 0.9925(7) 0.6596(5) 0.5377(8)
C6 C 0.8905(8) 0.6831(6) 0.5670(9)
C7 C 0.7776(8) 0.6414(6) 0.4666(10)
C8 C 0.7643(6) 0.5743(6) 0.3314(8)
C9 C 0.8634(7) 0.5529(6) 0.2991(8)
C10 C 1.3536(6) 0.8350(6) 0.3660(8)
C11 C 1.3026(6) 0.8993(6) 0.4732(8)
C12 C 1.0880(6) 0.8852(5) 0.3887(7)
C13 C 0.9688(6) 0.9188(5) 0.3170(7)
C14 C 0.9549(6) 1.0078(5) 0.2619(7)
C15 C 0.8396(7) 1.0434(6) 0.2030(8)
C16 C 0.7398(7) 0.9921(6) 0.1978(8)
C17 C 0.7527(6) 0.9032(6) 0.2490(8)
C18 C 0.8639(7) 0.8674(5) 0.3112(8)
C19 C 1.3021(6) 0.6806(6) 0.1628(8)
C20 C 1.2148(6) 0.7249(6) 0.0379(8)
C21 C 1.0152(6) 0.7709(5) -0.0164(7)
C22 C 0.8851(6) 0.7521(6) -0.0517(7)
C23 C 0.8371(6) 0.6594(6) -0.0454(8)
C24 C 0.7155(7) 0.6464(7) -0.0792(10)
C25 C 0.6388(7) 0.7207(7) -0.1261(9)
C26 C 0.6857(6) 0.8105(6) -0.1357(8)
C27 C 0.8063(7) 0.8273(6) -0.0984(8)

#END
