./ABUDAD_from_POSCAR.cif_generated_by_CrystalShift
_symmetry_cell_setting triclinic
_symmetry_space_group_name_H-M 'P 1'
loop_
_symmetry_equiv_pos_site_id
_symmetry_equiv_pos_as_xyz
1 x,y,z
_cell_length_a 5.962000
_cell_length_b 7.267000
_cell_length_c 28.689000
_cell_angle_alpha 90.000000
_cell_angle_beta 94.900000
_cell_angle_gamma 90.000000
_cell_volume 1238.432718
loop_
_atom_site_label
_atom_site_type_symbol
_atom_site_fract_x
_atom_site_fract_y
_atom_site_fract_z
H1 H 0.201500 0.695300 0.336900
H2 H 0.481100 0.479700 0.371000
H3 H 0.983000 0.356500 0.236400
H4 H 0.761700 0.265200 0.398300
H5 H 0.499400 0.497400 0.161500
H6 H 0.923500 0.350000 0.363800
H7 H 0.686700 0.618900 0.099800
H8 H 0.887200 0.481900 0.109800
H9 H 0.920600 0.629900 0.405900
H10 H 0.646100 0.238400 0.081800
H11 H 0.695600 0.381200 0.043200
H12 H 1.031200 0.467700 0.435500
H13 H 0.291800 0.378100 0.087500
H14 H 0.341500 0.511200 0.046700
H15 H 0.771300 0.467700 0.484700
H16 H 0.351000 0.252500 -0.004200
H17 H 0.113300 0.282700 0.013900
H18 H 0.579100 0.518400 0.446300
H19 H 0.420900 0.018400 0.053700
H20 H 0.228700 -0.032300 0.015300
H21 H 0.886700 0.782700 0.486100
H22 H -0.031200 -0.032300 0.064500
H23 H 0.079400 0.129900 0.094100
H24 H 0.649000 0.752500 0.504200
H25 H 0.076500 -0.150000 0.136200
H26 H 0.238300 -0.234800 0.101700
H27 H 0.658500 1.011200 0.453300
H28 H 0.518900 -0.020300 0.129000
H29 H 0.455400 -0.155200 0.168400
H30 H 0.708200 0.878100 0.412500
H31 H 0.231600 0.072300 0.198600
H32 H 0.286800 0.206800 0.158600
H33 H 0.304400 0.881200 0.456800
H34 H 0.487700 0.270700 0.231400
H35 H 0.614800 0.083500 0.227500
H36 H 0.353900 0.738400 0.418200
H37 H 0.798500 0.195300 0.163100
H38 H 0.112800 0.981900 0.390200
H39 H 0.385200 0.583500 0.272500
H40 H 0.512300 0.770700 0.268600
H41 H 0.983000 0.143500 0.736400
H42 H 0.313300 1.118900 0.400200
H43 H 0.499400 0.002600 0.661500
H44 H 0.500600 0.997400 0.338500
H45 H 0.686700 -0.118900 0.599800
H46 H 0.887200 0.018100 0.609800
H47 H 0.017000 0.856500 0.263600
H48 H 0.646100 0.261600 0.581800
H49 H 0.695600 0.118800 0.543200
H50 H 0.768400 0.572300 0.301400
H51 H 0.291800 0.121900 0.587500
H52 H 0.341500 -0.011200 0.546700
H53 H 0.201500 0.804700 0.836900
H54 H 0.351000 0.247500 0.495800
H55 H 0.113300 0.217300 0.513900
H56 H 0.385200 0.916500 0.772500
H57 H 0.420900 0.481600 0.553700
H58 H 0.228700 0.532300 0.515300
H59 H 0.512300 0.729300 0.768600
H60 H -0.031200 0.532300 0.564500
H61 H 0.079400 0.370100 0.594100
H62 H 0.713200 0.793200 0.841400
H63 H 0.076500 0.650000 0.636200
H64 H 0.238300 0.734800 0.601700
H65 H 0.768400 0.927700 0.801400
H66 H 0.518900 0.520300 0.629000
H67 H 0.455400 0.655200 0.668400
H68 H 0.544600 1.155200 0.831600
H69 H 0.231600 0.427700 0.698600
H70 H 0.286800 0.293200 0.658600
H71 H 0.481100 1.020300 0.871000
H72 H 0.487700 0.229300 0.731400
H73 H 0.614800 0.416500 0.727500
H74 H 0.761700 1.234800 0.898300
H75 H 0.798500 0.304700 0.663100
H76 H 0.923500 1.150000 0.863800
H77 H 0.920600 0.870100 0.905900
H78 H 0.713200 0.706800 0.341400
H79 H 0.017000 0.643500 0.763600
H80 H 1.031200 1.032300 0.935500
H81 H 0.500600 0.502600 0.838500
H82 H 0.771300 1.032300 0.984700
H83 H 0.313300 0.381100 0.900200
H84 H 0.112800 0.518100 0.890200
H85 H 0.579100 0.981600 0.946300
H86 H 0.353900 0.761600 0.918200
H87 H 0.304400 0.618800 0.956800
H88 H 0.886700 0.717300 0.986100
H89 H 0.708200 0.621900 0.912500
H90 H 0.658500 0.488800 0.953300
H91 H 0.649000 0.747500 1.004200
H92 H 0.544600 0.344800 0.331600
C93 C 0.631400 0.611600 0.940850
C94 C 0.731000 0.950700 0.958590
C95 C 0.380900 0.635900 0.928600
C96 C 0.275100 0.506400 0.890970
C97 C 0.889800 0.986300 0.920730
C98 C 0.343400 0.536400 0.841610
C99 C 0.455800 0.684000 0.290530
C100 C 0.802500 1.121600 0.883220
C101 C 0.818800 -0.051000 0.696490
C102 C 0.722600 0.220200 0.683280
C103 C 0.600100 1.054600 0.851680
C104 C 0.544200 0.316000 0.709470
C105 C 0.347900 0.391300 0.678780
C106 C 0.652100 0.891300 0.821220
C107 C 0.399900 0.554600 0.648320
C108 C 0.197500 0.621600 0.616780
C109 C 0.455800 0.816000 0.790530
C110 C 0.110200 0.486300 0.579270
C111 C 0.269000 0.450700 0.541410
C112 C 0.277400 0.720200 0.816720
C113 C 0.267500 0.252400 0.523380
C114 C 0.181200 0.449000 0.803510
C115 C 0.368600 0.111600 0.559150
C116 C 0.652100 0.608700 0.321220
C117 C 0.619100 0.135900 0.571400
C118 C 0.343400 0.963600 0.341610
C119 C 0.724900 0.006400 0.609030
C120 C 0.275100 0.993600 0.390970
C121 C 0.656600 0.036400 0.658390
C122 C 0.818800 0.551000 0.196490
C123 C 0.380900 0.864100 0.428600
C124 C 0.722600 0.279800 0.183280
C125 C 0.544200 0.184000 0.209470
C126 C 0.631400 0.888400 0.440850
C127 C 0.347900 0.108700 0.178780
C128 C 0.399900 -0.054600 0.148320
C129 C 0.732500 0.747600 0.476620
C130 C 0.197500 -0.121600 0.116780
C131 C 0.110200 0.013700 0.079270
C132 C 0.731000 0.549300 0.458590
C133 C 0.269000 0.049300 0.041410
C134 C 0.267500 0.247600 0.023380
C135 C 0.889800 0.513700 0.420730
C136 C 0.368600 0.388400 0.059150
C137 C 0.619100 0.364100 0.071400
C138 C 0.802500 0.378400 0.383220
C139 C 0.724900 0.493600 0.109030
C140 C 0.656600 0.463600 0.158390
C141 C 0.600100 0.445400 0.351680
C142 C 0.277400 0.779800 0.316720
C143 C 0.732500 0.752400 0.976620
C144 C 0.181200 1.051000 0.303510
N145 N 0.116800 0.612200 0.785570
N146 N 0.883200 0.387800 0.214430
N147 N 0.883200 0.112200 0.714430
N148 N 0.116800 0.887800 0.285570
O149 O 0.873300 -0.207400 0.706530
O150 O 0.126700 0.292600 0.793470
O151 O 0.126700 1.207400 0.293470
O152 O 0.873300 0.707400 0.206530

#END
