
#######################################################################
#
#                 Cambridge Crystallographic Data Centre
#                                CCDC 
#
#######################################################################
#
# If this CIF has been generated from an entry in the Cambridge 
# Structural Database, then it will include bibliographic, chemical, 
# crystal, experimental, refinement or atomic coordinate data resulting 
# from the CCDC's data processing and validation procedures.
#
#######################################################################

data_ABUFOT
_symmetry_cell_setting           triclinic
_symmetry_space_group_name_H-M   'P -1'
_symmetry_Int_Tables_number      2
_space_group_name_Hall           '-P 1'
loop_
_symmetry_equiv_pos_site_id
_symmetry_equiv_pos_as_xyz
1 x,y,z
2 -x,-y,-z
_cell_length_a                   9.8881(2)
_cell_length_b                   10.5524(3)
_cell_length_c                   10.8173(3)
_cell_angle_alpha                105.6718(13)
_cell_angle_beta                 103.8305(13)
_cell_angle_gamma                116.6279(11)
_cell_volume                     882.364
loop_
_atom_site_label
_atom_site_type_symbol
_atom_site_fract_x
_atom_site_fract_y
_atom_site_fract_z
Si1 Si 0.87950(6) 0.69178(6) 0.43631(5)
Si2 Si 0.68210(7) 0.46119(6) -0.15726(5)
Si3 Si 1.27720(7) 1.06551(6) 0.21626(5)
O1 O 0.73409(19) 0.71684(18) 0.46420(15)
H1 H 0.655(2) 0.663(2) 0.408(2)
O2 O 0.56960(18) 0.50574(18) -0.25298(15)
H2 H 0.608(3) 0.577(2) -0.257(2)
O3 O 1.27367(18) 1.22389(17) 0.27917(16)
H3 H 1.270(3) 1.248(3) 0.343(2)
C1 C 0.9106(2) 0.7278(2) 0.28183(18)
C2 C 0.8009(2) 0.6120(2) 0.14404(19)
H4 H 0.7083(18) 0.5214(18) 0.1306(15)
C3 C 0.8235(2) 0.6249(2) 0.02435(18)
C4 C 0.9653(2) 0.7646(2) 0.04883(19)
H5 H 0.9840(19) 0.7764(18) -0.0289(16)
C5 C 1.0802(2) 0.8854(2) 0.18282(18)
C6 C 1.0484(2) 0.8632(2) 0.29785(19)
H6 H 1.1305(19) 0.9458(19) 0.3908(16)
C7 C 1.0707(3) 0.8333(3) 0.6019(2)
H7 H 1.159(3) 0.824(2) 0.5925(18)
H8 H 1.099(2) 0.930(2) 0.619(2)
H9 H 1.057(2) 0.816(2) 0.682(2)
C8 C 0.8101(3) 0.4846(3) 0.3945(3)
H10 H 0.707(3) 0.419(2) 0.316(2)
H11 H 0.795(2) 0.456(2) 0.467(2)
H12 H 0.890(3) 0.468(2) 0.373(2)
C9 C 0.5275(3) 0.2827(3) -0.1511(3)
H13 H 0.584(3) 0.243(2) -0.103(2)
H14 H 0.460(3) 0.304(2) -0.107(2)
H15 H 0.449(2) 0.197(2) -0.245(2)
C10 C 0.8108(3) 0.4243(3) -0.2414(3)
H16 H 0.744(3) 0.337(2) -0.334(2)
H17 H 0.882(2) 0.513(2) -0.2486(19)
H18 H 0.874(3) 0.398(2) -0.185(2)
C11 C 1.3028(4) 1.0558(4) 0.0506(3)
H19 H 1.310(3) 0.972(3) 0.016(2)
H20 H 1.217(3) 1.050(3) -0.013(2)
H21 H 1.402(3) 1.147(3) 0.072(2)
C12 C 1.4515(3) 1.0840(3) 0.3485(3)
H22 H 1.440(3) 1.095(3) 0.433(2)
H23 H 1.455(3) 0.993(3) 0.317(3)
H24 H 1.552(3) 1.167(3) 0.367(2)
Si1 Si 0.12050(6) 0.30822(6) 0.56369(5)
Si2 Si 0.31790(7) 0.53881(6) 1.15726(5)
Si3 Si -0.27720(7) -0.06551(6) 0.78374(5)
O1 O 0.26591(19) 0.28316(18) 0.53580(15)
H1 H 0.345(2) 0.337(2) 0.592(2)
O2 O 0.43040(18) 0.49426(18) 1.25298(15)
H2 H 0.392(3) 0.423(2) 1.257(2)
O3 O -0.27367(18) -0.22389(17) 0.72083(16)
H3 H -0.270(3) -0.248(3) 0.657(2)
C1 C 0.0894(2) 0.2722(2) 0.71817(18)
C2 C 0.1991(2) 0.3880(2) 0.85596(19)
H4 H 0.2917(18) 0.4786(18) 0.8694(15)
C3 C 0.1765(2) 0.3751(2) 0.97565(18)
C4 C 0.0347(2) 0.2354(2) 0.95117(19)
H5 H 0.0160(19) 0.2236(18) 1.0289(16)
C5 C -0.0802(2) 0.1146(2) 0.81718(18)
C6 C -0.0484(2) 0.1368(2) 0.70215(19)
H6 H -0.1305(19) 0.0542(19) 0.6092(16)
C7 C -0.0707(3) 0.1667(3) 0.3981(2)
H7 H -0.159(3) 0.176(2) 0.4075(18)
H8 H -0.099(2) 0.070(2) 0.381(2)
H9 H -0.057(2) 0.184(2) 0.318(2)
C8 C 0.1899(3) 0.5154(3) 0.6055(3)
H10 H 0.293(3) 0.581(2) 0.684(2)
H11 H 0.205(2) 0.544(2) 0.533(2)
H12 H 0.110(3) 0.532(2) 0.627(2)
C9 C 0.4725(3) 0.7173(3) 1.1511(3)
H13 H 0.416(3) 0.757(2) 1.103(2)
H14 H 0.540(3) 0.696(2) 1.107(2)
H15 H 0.551(2) 0.803(2) 1.245(2)
C10 C 0.1892(3) 0.5757(3) 1.2414(3)
H16 H 0.256(3) 0.663(2) 1.334(2)
H17 H 0.118(2) 0.487(2) 1.2486(19)
H18 H 0.126(3) 0.602(2) 1.185(2)
C11 C -0.3028(4) -0.0558(4) 0.9494(3)
H19 H -0.310(3) 0.028(3) 0.984(2)
H20 H -0.217(3) -0.050(3) 1.013(2)
H21 H -0.402(3) -0.147(3) 0.928(2)
C12 C -0.4515(3) -0.0840(3) 0.6515(3)
H22 H -0.440(3) -0.095(3) 0.567(2)
H23 H -0.455(3) 0.007(3) 0.683(3)
H24 H -0.552(3) -0.167(3) 0.633(2)

#END
