
#######################################################################
#
#                 Cambridge Crystallographic Data Centre
#                                CCDC 
#
#######################################################################
#
# If this CIF has been generated from an entry in the Cambridge 
# Structural Database, then it will include bibliographic, chemical, 
# crystal, experimental, refinement or atomic coordinate data resulting 
# from the CCDC's data processing and validation procedures.
#
#######################################################################

data_ABUFAG
_symmetry_cell_setting           monoclinic
_symmetry_space_group_name_H-M   'P 21/c'
_symmetry_Int_Tables_number      14
_space_group_name_Hall           '-P 2ybc'
loop_
_symmetry_equiv_pos_site_id
_symmetry_equiv_pos_as_xyz
1 x,y,z
2 -x,1/2+y,1/2-z
3 -x,-y,-z
4 x,1/2-y,1/2+z
_cell_length_a                   8.8186(6)
_cell_length_b                   19.5015(11)
_cell_length_c                   9.1330(5)
_cell_angle_alpha                90
_cell_angle_beta                 110.067(7)
_cell_angle_gamma                90
_cell_volume                     1475.3
loop_
_atom_site_label
_atom_site_type_symbol
_atom_site_fract_x
_atom_site_fract_y
_atom_site_fract_z
N1 N 0.49676(13) 0.06021(6) 0.63382(12)
O1 O 1.08090(11) 0.11393(5) 0.79847(11)
O2 O 1.18581(11) 0.20192(5) 0.64332(11)
O3 O 0.22945(11) 0.03960(5) 0.51750(11)
O4 O 0.16635(12) 0.11344(6) 0.31373(12)
C1 C 0.37723(19) -0.12704(8) 0.96537(17)
H1 H 0.3788 -0.1605 1.0414
C2 C 0.23220(18) -0.10810(8) 0.85460(17)
H2 H 0.1348 -0.1292 0.8536
C3 C 0.22822(17) -0.05842(7) 0.74482(16)
H3 H 0.1284 -0.0454 0.6687
C4 C 0.37135(16) -0.02781(7) 0.74684(15)
C5 C 0.51782(17) -0.04807(7) 0.85758(16)
H4 H 0.6158 -0.0277 0.8579
C6 C 0.52061(18) -0.09749(7) 0.96639(16)
H5 H 0.6203 -0.1112 1.0417
C7 C 0.37346(15) 0.02504(7) 0.63540(15)
C8 C 0.26642(17) 0.09082(8) 0.42881(16)
C9 C 0.43919(16) 0.10433(7) 0.50572(15)
C10 C 0.52092(16) 0.15063(7) 0.45201(15)
H6 H 0.4568 0.1769 0.3653
C11 C 0.69144(16) 0.16623(7) 0.50672(15)
C12 C 0.75022(17) 0.21368(7) 0.42546(15)
H7 H 0.6767 0.2370 0.3387
C13 C 0.91387(17) 0.22761(7) 0.46870(16)
H8 H 0.9513 0.2607 0.4127
C14 C 1.02271(16) 0.19343(7) 0.59326(15)
C15 C 0.96531(16) 0.14492(7) 0.67687(14)
C16 C 0.80245(15) 0.13226(7) 0.63487(14)
H9 H 0.7646 0.1003 0.6929
C17 C 1.24563(18) 0.25495(8) 0.56891(17)
H10 H 1.3637 0.2564 0.6138
H11 H 1.2013 0.2992 0.5851
H12 H 1.2128 0.2455 0.4570
C18 C 1.02550(18) 0.06492(8) 0.88465(17)
H13 H 1.1181 0.0456 0.9680
H14 H 0.9676 0.0281 0.8149
H15 H 0.9528 0.0874 0.9303
N1 N 0.50324(13) 0.56021(6) 0.86618(12)
O1 O -0.08090(11) 0.61393(5) 0.70153(11)
O2 O -0.18581(11) 0.70192(5) 0.85668(11)
O3 O 0.77055(11) 0.53960(5) 0.98250(11)
O4 O 0.83365(12) 0.61344(6) 1.18627(12)
C1 C 0.62277(19) 0.37296(8) 0.53463(17)
H1 H 0.6212 0.3395 0.4586
C2 C 0.76780(18) 0.39190(8) 0.64540(17)
H2 H 0.8652 0.3708 0.6464
C3 C 0.77178(17) 0.44158(7) 0.75518(16)
H3 H 0.8716 0.4546 0.8313
C4 C 0.62865(16) 0.47219(7) 0.75316(15)
C5 C 0.48218(17) 0.45193(7) 0.64242(16)
H4 H 0.3842 0.4723 0.6421
C6 C 0.47939(18) 0.40251(7) 0.53361(16)
H5 H 0.3797 0.3888 0.4583
C7 C 0.62654(15) 0.52504(7) 0.86460(15)
C8 C 0.73358(17) 0.59082(8) 1.07119(16)
C9 C 0.56081(16) 0.60433(7) 0.99428(15)
C10 C 0.47908(16) 0.65063(7) 1.04799(15)
H6 H 0.5432 0.6769 1.1347
C11 C 0.30856(16) 0.66623(7) 0.99328(15)
C12 C 0.24978(17) 0.71368(7) 1.07454(15)
H7 H 0.3233 0.7370 1.1613
C13 C 0.08613(17) 0.72761(7) 1.03130(16)
H8 H 0.0487 0.7607 1.0873
C14 C -0.02271(16) 0.69343(7) 0.90674(15)
C15 C 0.03469(16) 0.64492(7) 0.82313(14)
C16 C 0.19755(15) 0.63226(7) 0.86513(14)
H9 H 0.2354 0.6003 0.8071
C17 C -0.24563(18) 0.75495(8) 0.93109(17)
H10 H -0.3637 0.7564 0.8862
H11 H -0.2013 0.7992 0.9149
H12 H -0.2128 0.7455 1.0430
C18 C -0.02550(18) 0.56492(8) 0.61535(17)
H13 H -0.1181 0.5456 0.5320
H14 H 0.0324 0.5281 0.6851
H15 H 0.0472 0.5874 0.5697
N1 N 0.50324(13) 0.93979(6) 0.36618(12)
O1 O -0.08090(11) 0.88607(5) 0.20153(11)
O2 O -0.18581(11) 0.79808(5) 0.35668(11)
O3 O 0.77055(11) 0.96040(5) 0.48250(11)
O4 O 0.83365(12) 0.88656(6) 0.68627(12)
C1 C 0.62277(19) 1.12704(8) 0.03463(17)
H1 H 0.6212 1.1605 -0.0414
C2 C 0.76780(18) 1.10810(8) 0.14540(17)
H2 H 0.8652 1.1292 0.1464
C3 C 0.77178(17) 1.05842(7) 0.25518(16)
H3 H 0.8716 1.0454 0.3313
C4 C 0.62865(16) 1.02781(7) 0.25316(15)
C5 C 0.48218(17) 1.04807(7) 0.14242(16)
H4 H 0.3842 1.0277 0.1421
C6 C 0.47939(18) 1.09749(7) 0.03361(16)
H5 H 0.3797 1.1112 -0.0417
C7 C 0.62654(15) 0.97496(7) 0.36460(15)
C8 C 0.73358(17) 0.90918(8) 0.57119(16)
C9 C 0.56081(16) 0.89567(7) 0.49428(15)
C10 C 0.47908(16) 0.84937(7) 0.54799(15)
H6 H 0.5432 0.8231 0.6347
C11 C 0.30856(16) 0.83377(7) 0.49328(15)
C12 C 0.24978(17) 0.78632(7) 0.57454(15)
H7 H 0.3233 0.7630 0.6613
C13 C 0.08613(17) 0.77239(7) 0.53130(16)
H8 H 0.0487 0.7393 0.5873
C14 C -0.02271(16) 0.80657(7) 0.40674(15)
C15 C 0.03469(16) 0.85508(7) 0.32313(14)
C16 C 0.19755(15) 0.86774(7) 0.36513(14)
H9 H 0.2354 0.8997 0.3071
C17 C -0.24563(18) 0.74505(8) 0.43109(17)
H10 H -0.3637 0.7436 0.3862
H11 H -0.2013 0.7008 0.4149
H12 H -0.2128 0.7545 0.5430
C18 C -0.02550(18) 0.93508(8) 0.11535(17)
H13 H -0.1181 0.9544 0.0320
H14 H 0.0324 0.9719 0.1851
H15 H 0.0472 0.9126 0.0697
N1 N 0.49676(13) 0.43979(6) 0.13382(12)
O1 O 1.08090(11) 0.38607(5) 0.29847(11)
O2 O 1.18581(11) 0.29808(5) 0.14332(11)
O3 O 0.22945(11) 0.46040(5) 0.01750(11)
O4 O 0.16635(12) 0.38656(6) -0.18627(12)
C1 C 0.37723(19) 0.62704(8) 0.46537(17)
H1 H 0.3788 0.6605 0.5414
C2 C 0.23220(18) 0.60810(8) 0.35460(17)
H2 H 0.1348 0.6292 0.3536
C3 C 0.22822(17) 0.55842(7) 0.24482(16)
H3 H 0.1284 0.5454 0.1687
C4 C 0.37135(16) 0.52781(7) 0.24684(15)
C5 C 0.51782(17) 0.54807(7) 0.35758(16)
H4 H 0.6158 0.5277 0.3579
C6 C 0.52061(18) 0.59749(7) 0.46639(16)
H5 H 0.6203 0.6112 0.5417
C7 C 0.37346(15) 0.47496(7) 0.13540(15)
C8 C 0.26642(17) 0.40918(8) -0.07119(16)
C9 C 0.43919(16) 0.39567(7) 0.00572(15)
C10 C 0.52092(16) 0.34937(7) -0.04799(15)
H6 H 0.4568 0.3231 -0.1347
C11 C 0.69144(16) 0.33377(7) 0.00672(15)
C12 C 0.75022(17) 0.28632(7) -0.07454(15)
H7 H 0.6767 0.2630 -0.1613
C13 C 0.91387(17) 0.27239(7) -0.03130(16)
H8 H 0.9513 0.2393 -0.0873
C14 C 1.02271(16) 0.30657(7) 0.09326(15)
C15 C 0.96531(16) 0.35508(7) 0.17687(14)
C16 C 0.80245(15) 0.36774(7) 0.13487(14)
H9 H 0.7646 0.3997 0.1929
C17 C 1.24563(18) 0.24505(8) 0.06891(17)
H10 H 1.3637 0.2436 0.1138
H11 H 1.2013 0.2008 0.0851
H12 H 1.2128 0.2545 -0.0430
C18 C 1.02550(18) 0.43508(8) 0.38465(17)
H13 H 1.1181 0.4544 0.4680
H14 H 0.9676 0.4719 0.3149
H15 H 0.9528 0.4126 0.4303

#END
