./ABUHIR_from_POSCAR.cif_generated_by_CrystalShift
_symmetry_cell_setting triclinic
_symmetry_space_group_name_H-M 'P 1'
loop_
_symmetry_equiv_pos_site_id
_symmetry_equiv_pos_as_xyz
1 x,y,z
_cell_length_a 3.859600
_cell_length_b 15.498400
_cell_length_c 24.354100
_cell_angle_alpha 90.000000
_cell_angle_beta 90.000000
_cell_angle_gamma 90.000000
_cell_volume 1456.804412
loop_
_atom_site_label
_atom_site_type_symbol
_atom_site_fract_x
_atom_site_fract_y
_atom_site_fract_z
H1 H 0.251000 0.505000 1.033700
H2 H 0.380500 0.577600 0.954000
H3 H 1.552600 0.272200 0.620300
H4 H 1.708000 0.412600 0.594100
H5 H -0.229500 0.683900 0.796800
H6 H 0.368600 0.360200 1.042300
H7 H 0.613800 0.285300 0.968600
H8 H 0.041500 0.713000 0.711600
H9 H 1.279300 0.510800 0.731900
H10 H 0.896900 0.504200 0.786100
H11 H 0.103100 1.004200 0.713900
H12 H 0.958500 0.213000 0.788400
H13 H 1.229500 0.183900 0.703200
H14 H -0.279300 1.010800 0.768100
H15 H 1.249000 0.495000 0.533700
H16 H 1.119500 0.422400 0.454000
H17 H -0.052600 0.727800 0.120300
H18 H -0.208000 0.587400 0.094100
H19 H 1.131400 0.639800 0.542300
H20 H 0.386200 0.785300 0.531400
H21 H 0.886200 0.714700 0.468600
H22 H 0.631400 0.860200 0.457700
H23 H 0.220700 0.489200 0.231900
H24 H 0.603100 0.495800 0.286100
H25 H -0.708000 0.912600 0.905900
H26 H 0.541500 0.787000 0.288400
H27 H 0.270500 0.816100 0.203200
H28 H -0.552600 0.772200 0.879700
H29 H -0.249000 -0.005000 -0.033700
H30 H 0.619500 1.077600 0.546000
H31 H -0.119500 -0.077600 0.046000
H32 H 0.749000 1.005000 0.466300
H33 H 1.052600 0.227800 0.379700
H34 H 1.208000 0.087400 0.405900
H35 H -0.131400 0.139800 -0.042300
H36 H 0.113800 0.214700 0.031400
H37 H 0.729500 0.316100 0.296800
H38 H 0.779300 -0.010800 0.268100
H39 H 0.396900 -0.004200 0.213900
H40 H 0.458500 0.287000 0.211600
C41 C 0.734000 0.121200 0.273900
C42 C 0.338000 0.025600 0.182100
C43 C 0.555000 0.246600 0.235300
C44 C 0.820000 0.190300 0.308400
C45 C 0.831000 0.036800 0.289800
C46 C 0.179000 -0.022400 0.138000
C47 C 0.088000 0.023900 0.087000
C48 C 0.408000 0.112300 0.180300
C49 C 0.161000 0.112500 0.081800
C50 C 0.564000 0.157300 0.226000
C51 C 0.073000 0.155800 0.034300
C52 C 0.432000 0.519100 0.957000
C53 C -0.078000 0.111000 -0.009800
C54 C 1.498000 0.319500 0.642200
C55 C 0.336000 0.160100 0.127200
C56 C 1.090000 0.097100 0.373200
C57 C 1.504000 0.471700 0.661100
C58 C 1.004000 0.028300 0.338900
C59 C 0.998000 0.180500 0.357800
C60 C 1.590000 0.402900 0.626800
C61 C -0.068000 -0.019100 0.043000
C62 C 0.647000 0.975400 0.495300
C63 C -0.147000 0.024600 -0.004700
C64 C 0.568000 1.019100 0.543000
C65 C 0.836000 0.339900 0.872800
C66 C 0.321000 1.022400 0.638000
C67 C 0.422000 0.389000 1.009800
C68 C -0.055000 0.753400 0.735300
C69 C -0.498000 0.819500 0.857800
C70 C 0.821000 0.477600 0.362000
C71 C 0.445000 0.746600 0.264700
C72 C -0.504000 0.971700 0.838900
C73 C 0.266000 0.621200 0.226100
C74 C 0.662000 0.525600 0.317900
C75 C -0.590000 0.902900 0.873200
C76 C 0.180000 0.690300 0.191600
C77 C 0.169000 0.536800 0.210200
C78 C 0.164000 0.839900 0.627200
C79 C 0.912000 0.523900 0.413000
C80 C 0.592000 0.612300 0.319700
C81 C 0.839000 0.612500 0.418200
C82 C 0.436000 0.657300 0.274000
C83 C 0.927000 0.655800 0.465700
C84 C 0.578000 0.889000 0.490200
C85 C 1.078000 0.611000 0.509800
C86 C 0.427000 0.844200 0.534300
C87 C 0.664000 0.660100 0.372800
C88 C -0.090000 0.597100 0.126800
C89 C -0.064000 0.842700 0.726000
C90 C -0.004000 0.528300 0.161100
C91 C 0.002000 0.680500 0.142200
C92 C 0.339000 0.887500 0.581800
C93 C 1.068000 0.480900 0.457000
C94 C 0.092000 0.887700 0.680300
C95 C 1.147000 0.524600 0.504700
C96 C 0.412000 0.976100 0.587000
C97 C 0.573000 0.344200 0.965700
C98 C 1.064000 0.342700 0.774000
C99 C 0.661000 0.387500 0.918200
C100 C 0.908000 0.387700 0.819700
C101 C -0.331000 0.963200 0.789800
C102 C 0.679000 0.522400 0.862000
C103 C 1.055000 0.253400 0.764700
C104 C -0.320000 0.809700 0.808400
C105 C 1.234000 0.378800 0.726100
C106 C 0.838000 0.474400 0.817900
C107 C 0.162000 0.974400 0.682100
C108 C 1.320000 0.309700 0.691600
C109 C 1.331000 0.463200 0.710200
C110 C -0.234000 0.878800 0.773900
C111 C 0.588000 0.476100 0.913000
C112 C 0.353000 0.475400 1.004700
N113 N 0.706000 0.265100 0.283400
N114 N -0.206000 0.734900 0.783400
N115 N 1.206000 0.234900 0.716600
N116 N 0.294000 0.765100 0.216600
O117 O 0.883600 0.400100 0.356800
O118 O 0.576900 0.734500 0.379300
O119 O 0.076900 0.765500 0.620700
O120 O 0.616400 0.599900 0.856800
O121 O 0.923100 0.265500 0.879300
O122 O 0.423100 0.234500 0.120700
O123 O 0.116400 -0.099900 0.143200
O124 O 0.383600 1.099900 0.643200
Br125 Br -0.145100 0.415200 0.140190
Br126 Br 1.145100 -0.084800 0.359810
Br127 Br 1.645100 0.584800 0.640190
Br128 Br -0.645100 1.084800 0.859810

#END
