
#######################################################################
#
#                 Cambridge Crystallographic Data Centre
#                                CCDC 
#
#######################################################################
#
# If this CIF has been generated from an entry in the Cambridge 
# Structural Database, then it will include bibliographic, chemical, 
# crystal, experimental, refinement or atomic coordinate data resulting 
# from the CCDC's data processing and validation procedures.
#
#######################################################################

data_ABUHAZ
_symmetry_cell_setting           monoclinic
_symmetry_space_group_name_H-M   'P 21/c'
_symmetry_Int_Tables_number      14
_space_group_name_Hall           '-P 2ybc'
loop_
_symmetry_equiv_pos_site_id
_symmetry_equiv_pos_as_xyz
1 x,y,z
2 -x,1/2+y,1/2-z
3 -x,-y,-z
4 x,1/2-y,1/2+z
_cell_length_a                   10.288(1)
_cell_length_b                   14.585(1)
_cell_length_c                   17.670(1)
_cell_angle_alpha                90
_cell_angle_beta                 116.63(1)
_cell_angle_gamma                90
_cell_volume                     2370.13
loop_
_atom_site_label
_atom_site_type_symbol
_atom_site_fract_x
_atom_site_fract_y
_atom_site_fract_z
O1 O 0.15950 0.41690 0.29110
O2 O 0.33990 0.19600 0.26980
N1 N 0.18000 0.20220 0.00250
N2 N 0.17440 0.25560 0.06670
N3 N 0.04980 0.12200 0.04950
N4 N 0.08830 0.05810 -0.06280
N5 N 0.05990 0.23180 0.15420
N6 N 0.15630 0.29890 0.20660
C1 C 0.09690 0.20280 0.09080
C2 C 0.10700 0.12430 -0.00520
H1 H 0.13870 0.06250 -0.10160
H2 H 0.05470 0.00000 -0.05080
H3 H -0.12610 0.44260 0.24110
H4 H -0.34130 0.51700 0.13890
H5 H -0.38600 0.52640 -0.00620
H6 H -0.20660 0.46940 -0.04760
H7 H 0.00440 0.38740 0.05460
H8 H 0.29030 0.43390 0.17010
H9 H 0.47080 0.54930 0.20170
H10 H 0.70390 0.53350 0.32420
C3 C 0.09630 0.37780 0.22360
C4 C -0.04360 0.41220 0.15600
C5 C -0.14490 0.44880 0.17960
C6 C -0.26900 0.49000 0.11970
C7 C -0.29100 0.49750 0.03800
C8 C -0.19110 0.46190 0.01350
C9 C -0.06760 0.41700 0.07210
C10 C 0.30700 0.27490 0.25440
C11 C 0.41370 0.35080 0.27450
C12 C 0.38750 0.42680 0.22190
C13 C 0.49370 0.49380 0.24010
C14 C 0.62410 0.48430 0.31150
C15 C 0.65260 0.41020 0.36380
C16 C 0.54650 0.34160 0.34550
C17 C 0.27150 0.23260 -0.03580
C18 C 0.42350 0.25140 0.02740
C19 C 0.50540 0.18350 0.09340
C20 C 0.55300 0.10810 0.05930
C21 C 0.01150 0.16350 0.19790
C22 C -0.06040 0.20830 0.24640
C23 C -0.10880 0.14260 0.29450
C24 C -0.18140 0.19240 0.34050
H11 H 0.75050 0.40510 0.41660
H12 H 0.56940 0.28410 0.38320
H13 H 0.22630 0.28980 -0.07080
H14 H 0.27340 0.18380 -0.07560
H15 H 0.42170 0.31200 0.05690
H16 H 0.48150 0.26680 -0.00620
H17 H 0.43860 0.15740 0.11480
H18 H 0.59140 0.21150 0.13990
H19 H 0.61170 0.05720 0.10650
H20 H 0.47550 0.07100 0.01280
H21 H 0.62840 0.12500 0.03780
H22 H 0.10210 0.12820 0.24070
H23 H -0.05470 0.11860 0.15720
H24 H -0.14630 0.24350 0.20450
H25 H 0.01090 0.25460 0.28750
H26 H -0.01990 0.10880 0.33860
H27 H -0.17540 0.09550 0.25480
H28 H -0.21580 0.14680 0.37130
H29 H -0.11710 0.23770 0.38060
H30 H -0.27250 0.22440 0.29680
O1 O 0.84050 0.91690 0.20890
O2 O 0.66010 0.69600 0.23020
N1 N 0.82000 0.70220 0.49750
N2 N 0.82560 0.75560 0.43330
N3 N 0.95020 0.62200 0.45050
N4 N 0.91170 0.55810 0.56280
N5 N 0.94010 0.73180 0.34580
N6 N 0.84370 0.79890 0.29340
C1 C 0.90310 0.70280 0.40920
C2 C 0.89300 0.62430 0.50520
H1 H 0.86130 0.56250 0.60160
H2 H 0.94530 0.50000 0.55080
H3 H 1.12610 0.94260 0.25890
H4 H 1.34130 1.01700 0.36110
H5 H 1.38600 1.02640 0.50620
H6 H 1.20660 0.96940 0.54760
H7 H 0.99560 0.88740 0.44540
H8 H 0.70970 0.93390 0.32990
H9 H 0.52920 1.04930 0.29830
H10 H 0.29610 1.03350 0.17580
C3 C 0.90370 0.87780 0.27640
C4 C 1.04360 0.91220 0.34400
C5 C 1.14490 0.94880 0.32040
C6 C 1.26900 0.99000 0.38030
C7 C 1.29100 0.99750 0.46200
C8 C 1.19110 0.96190 0.48650
C9 C 1.06760 0.91700 0.42790
C10 C 0.69300 0.77490 0.24560
C11 C 0.58630 0.85080 0.22550
C12 C 0.61250 0.92680 0.27810
C13 C 0.50630 0.99380 0.25990
C14 C 0.37590 0.98430 0.18850
C15 C 0.34740 0.91020 0.13620
C16 C 0.45350 0.84160 0.15450
C17 C 0.72850 0.73260 0.53580
C18 C 0.57650 0.75140 0.47260
C19 C 0.49460 0.68350 0.40660
C20 C 0.44700 0.60810 0.44070
C21 C 0.98850 0.66350 0.30210
C22 C 1.06040 0.70830 0.25360
C23 C 1.10880 0.64260 0.20550
C24 C 1.18140 0.69240 0.15950
H11 H 0.24950 0.90510 0.08340
H12 H 0.43060 0.78410 0.11680
H13 H 0.77370 0.78980 0.57080
H14 H 0.72660 0.68380 0.57560
H15 H 0.57830 0.81200 0.44310
H16 H 0.51850 0.76680 0.50620
H17 H 0.56140 0.65740 0.38520
H18 H 0.40860 0.71150 0.36010
H19 H 0.38830 0.55720 0.39350
H20 H 0.52450 0.57100 0.48720
H21 H 0.37160 0.62500 0.46220
H22 H 0.89790 0.62820 0.25930
H23 H 1.05470 0.61860 0.34280
H24 H 1.14630 0.74350 0.29550
H25 H 0.98910 0.75460 0.21250
H26 H 1.01990 0.60880 0.16140
H27 H 1.17540 0.59550 0.24520
H28 H 1.21580 0.64680 0.12870
H29 H 1.11710 0.73770 0.11940
H30 H 1.27250 0.72440 0.20320
O1 O 0.84050 0.58310 0.70890
O2 O 0.66010 0.80400 0.73020
N1 N 0.82000 0.79780 0.99750
N2 N 0.82560 0.74440 0.93330
N3 N 0.95020 0.87800 0.95050
N4 N 0.91170 0.94190 1.06280
N5 N 0.94010 0.76820 0.84580
N6 N 0.84370 0.70110 0.79340
C1 C 0.90310 0.79720 0.90920
C2 C 0.89300 0.87570 1.00520
H1 H 0.86130 0.93750 1.10160
H2 H 0.94530 1.00000 1.05080
H3 H 1.12610 0.55740 0.75890
H4 H 1.34130 0.48300 0.86110
H5 H 1.38600 0.47360 1.00620
H6 H 1.20660 0.53060 1.04760
H7 H 0.99560 0.61260 0.94540
H8 H 0.70970 0.56610 0.82990
H9 H 0.52920 0.45070 0.79830
H10 H 0.29610 0.46650 0.67580
C3 C 0.90370 0.62220 0.77640
C4 C 1.04360 0.58780 0.84400
C5 C 1.14490 0.55120 0.82040
C6 C 1.26900 0.51000 0.88030
C7 C 1.29100 0.50250 0.96200
C8 C 1.19110 0.53810 0.98650
C9 C 1.06760 0.58300 0.92790
C10 C 0.69300 0.72510 0.74560
C11 C 0.58630 0.64920 0.72550
C12 C 0.61250 0.57320 0.77810
C13 C 0.50630 0.50620 0.75990
C14 C 0.37590 0.51570 0.68850
C15 C 0.34740 0.58980 0.63620
C16 C 0.45350 0.65840 0.65450
C17 C 0.72850 0.76740 1.03580
C18 C 0.57650 0.74860 0.97260
C19 C 0.49460 0.81650 0.90660
C20 C 0.44700 0.89190 0.94070
C21 C 0.98850 0.83650 0.80210
C22 C 1.06040 0.79170 0.75360
C23 C 1.10880 0.85740 0.70550
C24 C 1.18140 0.80760 0.65950
H11 H 0.24950 0.59490 0.58340
H12 H 0.43060 0.71590 0.61680
H13 H 0.77370 0.71020 1.07080
H14 H 0.72660 0.81620 1.07560
H15 H 0.57830 0.68800 0.94310
H16 H 0.51850 0.73320 1.00620
H17 H 0.56140 0.84260 0.88520
H18 H 0.40860 0.78850 0.86010
H19 H 0.38830 0.94280 0.89350
H20 H 0.52450 0.92900 0.98720
H21 H 0.37160 0.87500 0.96220
H22 H 0.89790 0.87180 0.75930
H23 H 1.05470 0.88140 0.84280
H24 H 1.14630 0.75650 0.79550
H25 H 0.98910 0.74540 0.71250
H26 H 1.01990 0.89120 0.66140
H27 H 1.17540 0.90450 0.74520
H28 H 1.21580 0.85320 0.62870
H29 H 1.11710 0.76230 0.61940
H30 H 1.27250 0.77560 0.70320
O1 O 0.15950 0.08310 0.79110
O2 O 0.33990 0.30400 0.76980
N1 N 0.18000 0.29780 0.50250
N2 N 0.17440 0.24440 0.56670
N3 N 0.04980 0.37800 0.54950
N4 N 0.08830 0.44190 0.43720
N5 N 0.05990 0.26820 0.65420
N6 N 0.15630 0.20110 0.70660
C1 C 0.09690 0.29720 0.59080
C2 C 0.10700 0.37570 0.49480
H1 H 0.13870 0.43750 0.39840
H2 H 0.05470 0.50000 0.44920
H3 H -0.12610 0.05740 0.74110
H4 H -0.34130 -0.01700 0.63890
H5 H -0.38600 -0.02640 0.49380
H6 H -0.20660 0.03060 0.45240
H7 H 0.00440 0.11260 0.55460
H8 H 0.29030 0.06610 0.67010
H9 H 0.47080 -0.04930 0.70170
H10 H 0.70390 -0.03350 0.82420
C3 C 0.09630 0.12220 0.72360
C4 C -0.04360 0.08780 0.65600
C5 C -0.14490 0.05120 0.67960
C6 C -0.26900 0.01000 0.61970
C7 C -0.29100 0.00250 0.53800
C8 C -0.19110 0.03810 0.51350
C9 C -0.06760 0.08300 0.57210
C10 C 0.30700 0.22510 0.75440
C11 C 0.41370 0.14920 0.77450
C12 C 0.38750 0.07320 0.72190
C13 C 0.49370 0.00620 0.74010
C14 C 0.62410 0.01570 0.81150
C15 C 0.65260 0.08980 0.86380
C16 C 0.54650 0.15840 0.84550
C17 C 0.27150 0.26740 0.46420
C18 C 0.42350 0.24860 0.52740
C19 C 0.50540 0.31650 0.59340
C20 C 0.55300 0.39190 0.55930
C21 C 0.01150 0.33650 0.69790
C22 C -0.06040 0.29170 0.74640
C23 C -0.10880 0.35740 0.79450
C24 C -0.18140 0.30760 0.84050
H11 H 0.75050 0.09490 0.91660
H12 H 0.56940 0.21590 0.88320
H13 H 0.22630 0.21020 0.42920
H14 H 0.27340 0.31620 0.42440
H15 H 0.42170 0.18800 0.55690
H16 H 0.48150 0.23320 0.49380
H17 H 0.43860 0.34260 0.61480
H18 H 0.59140 0.28850 0.63990
H19 H 0.61170 0.44280 0.60650
H20 H 0.47550 0.42900 0.51280
H21 H 0.62840 0.37500 0.53780
H22 H 0.10210 0.37180 0.74070
H23 H -0.05470 0.38140 0.65720
H24 H -0.14630 0.25650 0.70450
H25 H 0.01090 0.24540 0.78750
H26 H -0.01990 0.39120 0.83860
H27 H -0.17540 0.40450 0.75480
H28 H -0.21580 0.35320 0.87130
H29 H -0.11710 0.26230 0.88060
H30 H -0.27250 0.27560 0.79680

#END
