./ABUJOZ_from_POSCAR.cif_generated_by_CrystalShift
_symmetry_cell_setting triclinic
_symmetry_space_group_name_H-M 'P 1'
loop_
_symmetry_equiv_pos_site_id
_symmetry_equiv_pos_as_xyz
1 x,y,z
_cell_length_a 5.707900
_cell_length_b 8.448400
_cell_length_c 25.745000
_cell_angle_alpha 90.000000
_cell_angle_beta 93.293000
_cell_angle_gamma 90.000000
_cell_volume 1239.441514
loop_
_atom_site_label
_atom_site_type_symbol
_atom_site_fract_x
_atom_site_fract_y
_atom_site_fract_z
H1 H 1.142000 0.724000 0.540300
H2 H 1.157200 1.052200 0.785700
H3 H 0.627900 0.935800 0.538900
H4 H 0.824000 0.692700 0.382600
H5 H 1.054700 0.544500 0.328600
H6 H 0.905200 1.065700 -0.136500
H7 H 0.809200 1.193900 0.777100
H8 H 1.011100 1.023500 -0.050400
H9 H 0.572700 1.177400 0.701100
H10 H 0.875500 0.870000 0.469400
H11 H 0.244900 0.784200 -0.014400
H12 H 0.375500 0.630000 -0.030600
H13 H 0.744900 0.715800 0.485600
H14 H 1.511100 0.476500 0.449600
H15 H 1.405200 0.434300 0.363500
H16 H 0.358000 0.224000 0.959700
H17 H 0.230000 0.392900 0.782000
H18 H 0.072700 0.322600 0.201100
H19 H 0.342800 0.552200 0.714300
H20 H 0.309200 0.306100 0.277100
H21 H 0.872100 0.435800 0.961100
H22 H 0.554700 0.955500 -0.171400
H23 H 0.676000 0.192700 1.117400
H24 H 0.324000 0.807300 -0.117400
H25 H 0.445300 0.044500 1.171400
H26 H 0.127900 0.564200 0.038900
H27 H 0.690800 0.693900 0.722900
H28 H 0.927300 0.677400 0.798900
H29 H 0.657200 0.447800 0.285700
H30 H 0.624500 0.370000 1.030600
H31 H 0.770000 0.607100 0.218000
H32 H 0.642000 0.776000 0.040300
H33 H 0.755100 0.215800 1.014400
H34 H -0.011100 -0.023500 1.050400
H35 H 0.094800 -0.065700 1.136500
H36 H -0.142000 0.276000 0.459700
H37 H -0.270000 0.107100 0.282000
H38 H -0.405200 0.565700 0.636500
H39 H -0.157200 -0.052200 0.214300
H40 H -0.511100 0.523500 0.550400
H41 H 0.372100 0.064200 0.461100
H42 H 0.176000 0.307300 0.617400
H43 H 0.255100 0.284200 0.514400
H44 H 0.124500 0.130000 0.530600
H45 H -0.054700 0.455500 0.671400
H46 H 0.190800 -0.193900 0.222900
H47 H 0.427300 -0.177400 0.298900
H48 H 1.270000 0.892900 0.718000
C49 C 0.286900 -0.121360 0.295810
C50 C 0.008900 0.057530 0.331720
C51 C 0.145600 -0.130600 0.250170
C52 C -0.068200 0.155350 0.375530
C53 C -0.101600 0.440330 0.636540
C54 C 0.076900 0.146140 0.426200
C55 C 0.035500 0.352080 0.604570
C56 C 0.101900 0.235800 0.516610
C57 C 0.282900 0.063430 0.429720
C58 C -0.042100 0.331980 0.552610
C59 C 0.367100 -0.024640 0.386880
C60 C -0.063200 -0.045600 0.244990
C61 C -0.371600 0.479520 0.564210
C62 C -0.131300 0.049280 0.285560
C63 C -0.310000 0.505790 0.615950
C64 C 1.131300 0.950720 0.714440
C65 C 1.063200 1.045600 0.755010
C66 C 0.632900 1.024640 0.613120
C67 C 0.717100 0.936570 0.570280
C68 C 0.964500 0.647920 0.395430
C69 C 0.190000 -0.005790 1.115950
C70 C 0.810000 1.005790 -0.115950
C71 C 0.128400 0.020480 1.064210
C72 C 1.101600 0.559670 0.363460
C73 C 0.457900 0.168020 1.052610
C74 C 0.601900 0.264200 1.016610
C75 C 0.871600 0.979520 -0.064210
C76 C 0.631300 0.549280 0.214440
C77 C 0.576900 0.353860 0.926200
C78 C 0.431800 0.344650 0.875530
C79 C 0.508900 0.442470 0.831720
C80 C 0.718700 0.528220 0.836980
C81 C 0.786900 0.621360 0.795810
C82 C 0.563200 0.454400 0.255010
C83 C 0.645600 0.630600 0.750170
C84 C 0.132900 0.475360 0.113120
C85 C 0.398400 0.059670 1.136540
C86 C 0.217100 0.563430 0.070280
C87 C 0.535500 0.147920 1.104570
C88 C 0.464500 0.852080 -0.104570
C89 C 0.782900 0.436570 0.929720
C90 C 0.601600 0.940330 -0.136540
C91 C 0.867100 0.524640 0.886880
C92 C 0.436800 0.545600 0.744990
C93 C 0.354400 0.369400 0.249830
C94 C 0.368700 0.450720 0.785560
C95 C 0.213100 0.378640 0.204190
C96 C 0.281300 0.471780 0.163020
C97 C 0.854400 1.130600 0.749830
C98 C 0.542100 0.831980 -0.052610
C99 C 0.713100 1.121360 0.704190
C100 C 0.781300 1.028220 0.663020
C101 C 1.310000 0.494210 0.384050
C102 C 0.491100 0.557530 0.168280
C103 C 1.371600 0.520480 0.435790
C104 C 0.568200 0.655350 0.124470
C105 C 1.042100 0.668020 0.447390
C106 C 0.898100 0.764200 0.483390
C107 C 0.423100 0.646140 0.073800
C108 C 0.398100 0.735800 -0.016610
C109 C 0.923100 0.853860 0.573800
C110 C 1.068200 0.844650 0.624470
C111 C 0.991100 0.942470 0.668280
C112 C 0.218700 -0.028220 0.336980
N113 N 1.242100 0.606000 0.467610
N114 N -0.012900 0.226330 0.465270
N115 N 0.742100 0.894000 -0.032390
N116 N 0.257900 0.106000 1.032390
N117 N 0.512900 0.726330 0.034730
N118 N -0.242100 0.394000 0.532390
N119 N 0.487100 0.273670 0.965270
N120 N 1.012900 0.773670 0.534730
O121 O 0.445300 1.097590 0.609900
O122 O 0.261040 0.258030 0.871520
O123 O 1.054700 0.597590 0.890100
O124 O 0.738960 0.741970 0.128480
O125 O 1.238960 0.758030 0.628480
O126 O 0.554700 -0.097590 0.390100
O127 O -0.238960 0.241970 0.371520
O128 O -0.054700 0.402410 0.109900

#END
