
#######################################################################
#
#                 Cambridge Crystallographic Data Centre
#                                CCDC 
#
#######################################################################
#
# If this CIF has been generated from an entry in the Cambridge 
# Structural Database, then it will include bibliographic, chemical, 
# crystal, experimental, refinement or atomic coordinate data resulting 
# from the CCDC's data processing and validation procedures.
#
#######################################################################

data_ABUKUF
_symmetry_cell_setting           triclinic
_symmetry_space_group_name_H-M   'P -1'
_symmetry_Int_Tables_number      2
_space_group_name_Hall           '-P 1'
loop_
_symmetry_equiv_pos_site_id
_symmetry_equiv_pos_as_xyz
1 x,y,z
2 -x,-y,-z
_cell_length_a                   11.217(3)
_cell_length_b                   14.156(5)
_cell_length_c                   4.860(3)
_cell_angle_alpha                99.10(4)
_cell_angle_beta                 96.99(4)
_cell_angle_gamma                76.35(2)
_cell_volume                     737.606
loop_
_atom_site_label
_atom_site_type_symbol
_atom_site_fract_x
_atom_site_fract_y
_atom_site_fract_z
Cl1 Cl 0.66877(12) -0.07494(7) 0.1172(3)
N1 N 0.8090(3) 0.30411(17) 0.5498(6)
C1 C 0.7774(2) 0.20914(19) 0.4399(6)
C2 C 0.6891(3) 0.2057(2) 0.2173(7)
C3 C 0.6557(3) 0.1179(2) 0.1166(7)
C4 C 0.7118(3) 0.0356(2) 0.2413(8)
C5 C 0.8007(4) 0.0387(2) 0.4600(9)
C6 C 0.8345(3) 0.1267(2) 0.5610(8)
H1 H 0.885(4) 0.300(3) 0.618(8)
H2 H 0.786(4) 0.348(3) 0.405(9)
H3 H 0.789(3) 0.338(3) 0.716(8)
H4 H 0.651700 0.263100 0.133900
H5 H 0.594800 0.114200 -0.036400
H6 H 0.838700 -0.019000 0.541700
H7 H 0.896500 0.129900 0.712000
Cl1 Cl 0.33123(12) 1.07494(7) 0.8828(3)
N1 N 0.1910(3) 0.69589(17) 0.4502(6)
C1 C 0.2226(2) 0.79086(19) 0.5601(6)
C2 C 0.3109(3) 0.7943(2) 0.7827(7)
C3 C 0.3443(3) 0.8821(2) 0.8834(7)
C4 C 0.2882(3) 0.9644(2) 0.7587(8)
C5 C 0.1993(4) 0.9613(2) 0.5400(9)
C6 C 0.1655(3) 0.8733(2) 0.4390(8)
H1 H 0.115(4) 0.700(3) 0.382(8)
H2 H 0.214(4) 0.652(3) 0.595(9)
H3 H 0.211(3) 0.662(3) 0.284(8)
H4 H 0.348300 0.736900 0.866100
H5 H 0.405200 0.885800 1.036400
H6 H 0.161300 1.019000 0.458300
H7 H 0.103500 0.870100 0.288000
O1 O 0.95977(17) 0.61373(14) 1.1872(4)
O2 O 1.0145(2) 0.7554(2) 0.9712(6)
O3 O 0.9071(2) 0.8084(2) 0.6157(6)
O4 O 0.5273(2) 0.72994(19) 0.2808(5)
O5 O 0.4703(2) 0.61233(17) 0.4247(5)
O6 O 0.74320(19) 0.41681(15) 1.1047(4)
O7 O 0.89534(17) 0.47907(14) 1.3393(4)
N2 N 0.9237(2) 0.75911(17) 0.8074(5)
N3 N 0.5428(2) 0.66520(17) 0.4291(5)
C7 C 0.7800(2) 0.56174(17) 0.9723(5)
C8 C 0.8652(2) 0.62441(17) 1.0033(5)
C9 C 0.8392(2) 0.69642(18) 0.8163(5)
C10 C 0.7343(2) 0.70971(18) 0.6325(5)
C11 C 0.6536(2) 0.64988(18) 0.6236(5)
C12 C 0.6762(2) 0.57451(18) 0.7892(5)
C13 C 0.8065(2) 0.47969(18) 1.1483(5)
H8 H 0.955(5) 0.564(4) 1.243(8)
H9 H 0.718400 0.759500 0.514300
H10 H 0.620400 0.532500 0.775200
O1 O 0.04023(17) 0.38627(14) -0.1872(4)
O2 O -0.0145(2) 0.2446(2) 0.0288(6)
O3 O 0.0929(2) 0.1916(2) 0.3843(6)
O4 O 0.4727(2) 0.27006(19) 0.7192(5)
O5 O 0.5297(2) 0.38767(17) 0.5753(5)
O6 O 0.25680(19) 0.58319(15) -0.1047(4)
O7 O 0.10466(17) 0.52093(14) -0.3393(4)
N2 N 0.0763(2) 0.24089(17) 0.1926(5)
N3 N 0.4572(2) 0.33480(17) 0.5709(5)
C7 C 0.2200(2) 0.43826(17) 0.0277(5)
C8 C 0.1348(2) 0.37559(17) -0.0033(5)
C9 C 0.1608(2) 0.30358(18) 0.1837(5)
C10 C 0.2657(2) 0.29029(18) 0.3675(5)
C11 C 0.3464(2) 0.35012(18) 0.3764(5)
C12 C 0.3238(2) 0.42549(18) 0.2108(5)
C13 C 0.1935(2) 0.52031(18) -0.1483(5)
H8 H 0.045(5) 0.436(4) -0.243(8)
H9 H 0.281600 0.240500 0.485700
H10 H 0.379600 0.467500 0.224800

#END
