./ABULUE_from_POSCAR.cif_generated_by_CrystalShift
_symmetry_cell_setting triclinic
_symmetry_space_group_name_H-M 'P 1'
loop_
_symmetry_equiv_pos_site_id
_symmetry_equiv_pos_as_xyz
1 x,y,z
_cell_length_a 13.969000
_cell_length_b 8.744000
_cell_length_c 20.803000
_cell_angle_alpha 90.000000
_cell_angle_beta 95.570000
_cell_angle_gamma 90.000000
_cell_volume 2528.983500
loop_
_atom_site_label
_atom_site_type_symbol
_atom_site_fract_x
_atom_site_fract_y
_atom_site_fract_z
H1 H 0.545000 0.153000 0.481000
H2 H 0.621000 0.194000 0.538000
H3 H 0.702000 0.193000 0.277000
H4 H 0.634000 0.314000 0.242000
H5 H 0.742000 0.351000 0.259000
H6 H 0.559000 0.784000 0.341000
H7 H 0.647000 0.852000 0.382000
H8 H 0.560000 0.794000 0.416000
H9 H 0.837000 1.076000 0.427000
H10 H 0.937000 1.017000 0.456000
H11 H 0.875000 1.119000 0.497000
H12 H 1.098000 0.679000 0.639000
H13 H 1.105000 0.502000 0.634000
H14 H 1.105000 0.601000 0.572000
H15 H 0.646000 0.808000 0.587000
H16 H 0.665000 0.924000 0.643000
H17 H 0.560000 0.889000 0.614000
H18 H 0.523000 0.918000 0.785000
H19 H 0.609000 0.979000 0.751000
H20 H 0.511000 0.949000 0.711000
H21 H 0.578000 0.776000 0.859000
H22 H 0.588000 0.605000 0.878000
H23 H 0.490000 0.668000 0.849000
H24 H 0.659000 0.356000 0.841000
H25 H 0.549000 0.387000 0.839000
H26 H 0.588000 0.270000 0.792000
H27 H 0.618000 0.231000 0.679000
H28 H 0.709000 0.251000 0.727000
H29 H 0.711000 0.295000 0.655000
H30 H 0.690000 0.166000 0.383000
H31 H 0.599000 0.553000 0.299000
H32 H 0.825000 0.532000 0.629000
H33 H 0.556000 0.468000 0.551000
H34 H 0.045000 1.347000 -0.019000
H35 H 0.944000 -0.032000 0.949000
H36 H 0.675000 0.032000 0.871000
H37 H 0.901000 0.053000 1.201000
H38 H 0.810000 -0.334000 1.117000
H39 H 0.789000 -0.205000 0.845000
H40 H 0.791000 -0.249000 0.773000
H41 H 0.882000 -0.269000 0.821000
H42 H 0.912000 -0.230000 0.708000
H43 H 0.951000 -0.113000 0.661000
H44 H 0.841000 -0.144000 0.659000
H45 H 1.010000 0.168000 0.651000
H46 H 0.912000 0.105000 0.622000
H47 H 0.922000 0.276000 0.641000
H48 H 0.989000 0.449000 0.789000
H49 H 0.891000 0.479000 0.749000
H50 H 0.977000 0.418000 0.715000
H51 H 0.940000 0.389000 0.886000
H52 H 0.835000 0.424000 0.857000
H53 H 0.854000 0.308000 0.913000
H54 H 0.395000 0.101000 0.928000
H55 H 0.395000 0.002000 0.866000
H56 H 0.402000 0.179000 0.861000
H57 H 0.625000 0.619000 1.003000
H58 H 0.563000 0.517000 1.044000
H59 H 0.663000 0.576000 1.073000
H60 H 0.940000 0.294000 1.084000
H61 H 0.853000 0.352000 1.118000
H62 H 0.941000 0.284000 1.159000
H63 H 0.758000 -0.149000 1.241000
H64 H 0.866000 -0.186000 1.258000
H65 H 0.798000 -0.307000 1.223000
H66 H 0.879000 -0.306000 0.962000
H67 H 0.853000 -0.419000 1.015000
H68 H 0.955000 -0.347000 1.019000
H69 H 0.147000 1.419000 -0.015000
H70 H 0.121000 1.306000 0.038000
H71 H 0.202000 1.307000 -0.223000
H72 H 0.134000 1.186000 -0.258000
H73 H 0.242000 1.149000 -0.241000
H74 H 0.059000 0.716000 -0.159000
H75 H 0.147000 0.648000 -0.118000
H76 H 0.060000 0.706000 -0.084000
H77 H 0.337000 0.424000 -0.073000
H78 H 0.437000 0.483000 -0.044000
H79 H 0.375000 0.381000 -0.003000
H80 H 0.598000 0.821000 0.139000
H81 H 0.605000 0.998000 0.134000
H82 H 0.605000 0.899000 0.072000
H83 H 0.146000 0.692000 0.087000
H84 H 0.165000 0.576000 0.143000
H85 H 0.060000 0.611000 0.114000
H86 H 0.023000 0.582000 0.285000
H87 H 0.109000 0.521000 0.251000
H88 H 0.011000 0.551000 0.211000
H89 H 0.078000 0.724000 0.359000
H90 H 0.088000 0.895000 0.378000
H91 H -0.010000 0.832000 0.349000
H92 H 0.159000 1.144000 0.341000
H93 H 0.049000 1.113000 0.339000
H94 H 0.088000 1.230000 0.292000
H95 H 0.118000 1.269000 0.179000
H96 H 0.209000 1.249000 0.227000
H97 H 0.211000 1.205000 0.155000
H98 H 0.190000 1.334000 -0.117000
H99 H 0.099000 0.947000 -0.201000
H100 H 0.325000 0.968000 0.129000
H101 H 0.056000 1.032000 0.051000
H102 H 0.455000 0.847000 0.519000
H103 H 0.444000 0.532000 0.449000
H104 H 0.175000 0.468000 0.371000
H105 H 0.401000 0.447000 0.701000
H106 H 0.310000 0.834000 0.617000
H107 H 0.289000 0.705000 0.345000
H108 H 0.291000 0.749000 0.273000
H109 H 0.382000 0.769000 0.321000
H110 H 0.412000 0.730000 0.208000
H111 H 0.451000 0.613000 0.161000
H112 H 0.341000 0.644000 0.159000
H113 H 0.510000 0.332000 0.151000
H114 H 0.412000 0.395000 0.122000
H115 H 0.422000 0.224000 0.141000
H116 H 0.489000 0.051000 0.289000
H117 H 0.391000 0.021000 0.249000
H118 H 0.477000 0.082000 0.215000
H119 H 0.440000 0.111000 0.386000
H120 H 0.335000 0.076000 0.357000
H121 H 0.354000 0.192000 0.413000
H122 H -0.105000 0.399000 0.428000
H123 H -0.105000 0.498000 0.366000
H124 H -0.098000 0.321000 0.361000
H125 H 0.125000 -0.119000 0.503000
H126 H 0.063000 -0.017000 0.544000
H127 H 0.163000 -0.076000 0.573000
H128 H 0.440000 0.206000 0.584000
H129 H 0.353000 0.148000 0.618000
H130 H 0.441000 0.216000 0.659000
H131 H 0.258000 0.649000 0.741000
H132 H 0.366000 0.686000 0.758000
H133 H 0.298000 0.807000 0.723000
H134 H 0.379000 0.806000 0.462000
H135 H 0.353000 0.919000 0.515000
H136 H 0.647000 0.081000 0.485000
C137 C 0.877600 -0.017600 0.954800
C138 C 0.819700 0.035500 0.905000
C139 C 0.716400 0.056600 0.908800
C140 C 0.673700 0.107400 0.959900
C141 C 0.122400 1.017600 0.045200
C142 C 0.180300 0.964500 0.095000
C143 C 0.283600 0.943400 0.091200
C144 C 0.326300 0.892600 0.040100
C145 C 0.275400 0.847300 -0.022400
C146 C 0.198200 0.923300 -0.050800
C147 C 0.142800 0.880200 -0.113200
C148 C 0.132300 0.982400 -0.161800
C149 C 0.165000 1.138600 -0.162100
C150 C 0.169300 1.232400 -0.110500
C151 C 0.146000 1.196400 -0.045500
C152 C 0.156000 1.055700 -0.018800
C153 C 0.144400 0.930400 0.159500
C154 C 0.142000 1.047200 0.205500
C155 C 0.109900 1.011400 0.265600
C156 C 0.083800 0.862500 0.279900
C157 C 0.085300 0.748400 0.233400
C158 C 0.117200 0.781200 0.173200
C159 C 0.172900 1.207300 0.190200
C160 C 0.100400 1.135900 0.313800
C161 C 0.057200 0.824600 0.347700
C162 C 0.054300 0.585100 0.246300
C163 C 0.122700 0.653100 0.124600
C164 C 0.433600 0.872300 0.045500
C165 C 0.579600 0.908100 0.112700
C166 C 0.312500 0.709300 -0.054400
C167 C 0.373200 0.459300 -0.035200
C168 C 0.098100 0.723100 -0.119300
C169 C 0.188000 1.200900 -0.227100
C170 C 0.111700 1.329400 -0.006700
C171 C 0.312000 0.700900 0.727100
C172 C 0.401900 0.223100 0.619300
C173 C 0.126800 -0.040700 0.535200
C174 C 0.187500 0.209300 0.554400
C175 C -0.079600 0.408100 0.387300
C176 C 0.066400 0.372300 0.454500
C177 C 0.377300 0.153100 0.375400
C178 C 0.445700 0.085100 0.253700
C179 C 0.442800 0.324600 0.152300
C180 C 0.399600 0.635900 0.186200
C181 C 0.327100 0.707300 0.309800
C182 C 0.382800 0.281200 0.326800
C183 C 0.414700 0.248400 0.266600
C184 C 0.416200 0.362500 0.220100
C185 C 0.390100 0.511400 0.234400
C186 C 0.358000 0.547200 0.294500
C187 C 0.355600 0.430400 0.340500
C188 C 0.344000 0.555700 0.518800
C189 C 0.354000 0.696400 0.545500
C190 C 0.330700 0.732400 0.610500
C191 C 0.335000 0.638600 0.662100
C192 C 0.367700 0.482400 0.661800
C193 C 0.357200 0.380200 0.613200
C194 C 0.301800 0.423300 0.550800
C195 C 0.224600 0.347300 0.522400
C196 C 0.173700 0.392600 0.459900
C197 C 0.216400 0.443400 0.408800
C198 C 0.319700 0.464500 0.405000
C199 C 0.377600 0.517600 0.454800
C200 C 0.724600 0.152700 1.022400
C201 C 0.801800 0.076700 1.050800
C202 C 0.857200 0.119800 1.113200
C203 C 0.867700 0.017600 1.161800
C204 C 0.888300 -0.329400 1.006700
C205 C 0.835000 -0.138600 1.162100
C206 C 0.830700 -0.232400 1.110500
C207 C 0.854000 -0.196400 1.045500
C208 C 0.844000 -0.055700 1.018800
C209 C 0.622400 0.482400 0.545200
C210 C 0.680300 0.535500 0.595000
C211 C 0.783600 0.556600 0.591200
C212 C 0.826300 0.607400 0.540100
C213 C 0.775400 0.652700 0.477600
C214 C 0.698200 0.576700 0.449200
C215 C 0.642800 0.619800 0.386800
C216 C 0.632300 0.517600 0.338200
C217 C 0.665000 0.361400 0.337900
C218 C 0.669300 0.267600 0.389500
C219 C 0.646000 0.303600 0.454500
C220 C 0.656000 0.444300 0.481200
C221 C 0.644400 0.569600 0.659500
C222 C 0.642000 0.452800 0.705500
C223 C 0.609900 0.488600 0.765600
C224 C 0.583800 0.637500 0.779900
C225 C 0.585300 0.751600 0.733400
C226 C 0.617200 0.718800 0.673200
C227 C 0.672900 0.292700 0.690200
C228 C 0.600400 0.364100 0.813800
C229 C 0.557200 0.675400 0.847700
C230 C 0.554300 0.914900 0.746300
C231 C 0.622700 0.846900 0.624600
C232 C 0.933600 0.627700 0.545500
C233 C 1.079600 0.591900 0.612700
C234 C 0.812500 0.790700 0.445600
C235 C 0.873200 1.040700 0.464800
C236 C 0.598100 0.776900 0.380700
C237 C 0.688000 0.299100 0.272900
C238 C 0.611700 0.170600 0.493300
C239 C 0.812000 -0.200900 1.227100
C240 C 0.901900 0.276900 1.119300
C241 C 0.626800 0.540700 1.035200
C242 C 0.687500 0.290700 1.054400
C243 C 0.420400 0.091900 0.887300
C244 C 0.566400 0.127700 0.954500
C245 C 0.877300 0.346900 0.875400
C246 C 0.945700 0.414900 0.753700
C247 C 0.942800 0.175400 0.652300
C248 C 0.899600 -0.135900 0.686200
C249 C 0.827100 -0.207300 0.809800
C250 C 0.882800 0.218800 0.826800
C251 C 0.914700 0.251600 0.766600
C252 C 0.916200 0.137500 0.720100
C253 C 0.890100 -0.011400 0.734400
C254 C 0.858000 -0.047200 0.794500
C255 C 0.855600 0.069600 0.840500
C256 C 0.388300 0.829400 0.506700
O257 O 0.823800 0.802200 0.389000
O258 O 0.975700 0.582100 0.603090
O259 O 0.977000 0.676300 0.502370
O260 O 0.023000 0.323700 0.497630
O261 O 0.024300 0.417900 0.396910
O262 O 0.176200 0.197800 0.611000
O263 O 0.171800 0.094500 0.511520
O264 O 0.328200 0.594500 -0.011520
O265 O 0.323800 0.697800 -0.111000
O266 O 0.475700 0.917900 0.103090
O267 O 0.477000 0.823700 0.002370
O268 O 0.671800 0.405500 1.011520
O269 O 0.676200 0.302200 1.111000
O270 O 0.524300 0.082100 0.896910
O271 O 0.828200 0.905500 0.488480
O272 O 0.523000 0.176300 0.997630

#END
