
#######################################################################
#
#                 Cambridge Crystallographic Data Centre
#                                CCDC 
#
#######################################################################
#
# If this CIF has been generated from an entry in the Cambridge 
# Structural Database, then it will include bibliographic, chemical, 
# crystal, experimental, refinement or atomic coordinate data resulting 
# from the CCDC's data processing and validation procedures.
#
#######################################################################

data_ABUMIV
_symmetry_cell_setting           triclinic
_symmetry_space_group_name_H-M   'P -1'
_symmetry_Int_Tables_number      2
_space_group_name_Hall           '-P 1'
loop_
_symmetry_equiv_pos_site_id
_symmetry_equiv_pos_as_xyz
1 x,y,z
2 -x,-y,-z
_cell_length_a                   7.62060(10)
_cell_length_b                   11.5944(2)
_cell_length_c                   13.0753(3)
_cell_angle_alpha                97.2820(10)
_cell_angle_beta                 101.5740(10)
_cell_angle_gamma                101.7930(10)
_cell_volume                     1090.82
loop_
_atom_site_label
_atom_site_type_symbol
_atom_site_fract_x
_atom_site_fract_y
_atom_site_fract_z
Cl1 Cl 0.06875(9) 0.81377(7) 0.10746(5)
O1 O 0.2996(3) 0.61096(16) 0.15142(14)
O2 O 0.3108(3) 0.91712(15) -0.05222(13)
O3 O 0.4205(2) 0.87242(13) 0.16660(11)
O4 O 0.6265(2) 0.79758(15) 0.09746(13)
C1 C 0.2826(3) 0.6613(2) 0.07689(18)
C2 C 0.2831(3) 0.79513(18) 0.08390(16)
C3 C 0.2875(3) 0.81972(19) -0.02834(16)
C4 C 0.2562(3) 0.70276(19) -0.09646(16)
C5 C 0.2553(3) 0.61297(19) -0.03600(17)
C6 C 0.2336(4) 0.4955(2) -0.0832(2)
H1 H 0.2338 0.4348 -0.0430
C7 C 0.2119(5) 0.4713(3) -0.1909(2)
H2 H 0.1973 0.3929 -0.2240
C8 C 0.2112(4) 0.5599(3) -0.2509(2)
H3 H 0.1950 0.5404 -0.3239
C9 C 0.2340(3) 0.6776(2) -0.20509(17)
H4 H 0.2345 0.7377 -0.2458
C10 C 0.5963(3) 0.8645(2) 0.16516(17)
C11 C 0.7319(4) 0.9464(2) 0.25561(19)
H5 H 0.7473 0.9068 0.3159
H6 H 0.6884 1.0168 0.2729
H7 H 0.8481 0.9687 0.2367
Cl1 Cl 0.93125(9) 0.18623(7) 0.89254(5)
O1 O 0.7004(3) 0.38904(16) 0.84858(14)
O2 O 0.6892(3) 0.08288(15) 1.05222(13)
O3 O 0.5795(2) 0.12758(13) 0.83340(11)
O4 O 0.3735(2) 0.20242(15) 0.90254(13)
C1 C 0.7174(3) 0.3387(2) 0.92311(18)
C2 C 0.7169(3) 0.20487(18) 0.91610(16)
C3 C 0.7125(3) 0.18028(19) 1.02834(16)
C4 C 0.7438(3) 0.29724(19) 1.09646(16)
C5 C 0.7447(3) 0.38703(19) 1.03600(17)
C6 C 0.7664(4) 0.5045(2) 1.0832(2)
H1 H 0.7662 0.5652 1.0430
C7 C 0.7881(5) 0.5287(3) 1.1909(2)
H2 H 0.8027 0.6071 1.2240
C8 C 0.7888(4) 0.4401(3) 1.2509(2)
H3 H 0.8050 0.4596 1.3239
C9 C 0.7660(3) 0.3224(2) 1.20509(17)
H4 H 0.7655 0.2623 1.2458
C10 C 0.4037(3) 0.1355(2) 0.83484(17)
C11 C 0.2681(4) 0.0536(2) 0.74439(19)
H5 H 0.2527 0.0932 0.6841
H6 H 0.3116 -0.0168 0.7271
H7 H 0.1519 0.0313 0.7633
Cl2 Cl 0.43396(11) 0.35292(9) 0.60459(7)
O5 O 0.2296(4) 0.08213(19) 0.47959(15)
O6 O 0.1667(3) 0.47089(16) 0.44558(18)
O7 O 0.0897(2) 0.27722(16) 0.57224(12)
O8 O -0.1212(3) 0.20729(17) 0.42166(14)
C12 C 0.2368(4) 0.1744(2) 0.44709(19)
C13 C 0.2230(3) 0.2917(2) 0.51134(18)
C14 C 0.2022(3) 0.3748(2) 0.4294(2)
C15 C 0.2384(3) 0.3143(2) 0.33205(19)
C16 C 0.2581(3) 0.2001(2) 0.34288(18)
C17 C 0.2883(4) 0.1246(2) 0.2605(2)
H8 H 0.3014 0.0479 0.2679
C18 C 0.2980(4) 0.1662(3) 0.1679(2)
H9 H 0.3172 0.1171 0.1112
C19 C 0.2797(4) 0.2803(3) 0.1580(2)
H10 H 0.2878 0.3069 0.0945
C20 C 0.2499(4) 0.3558(3) 0.2388(2)
H11 H 0.2377 0.4326 0.2310
C21 C -0.0859(4) 0.2294(2) 0.5158(2)
C22 C -0.2129(4) 0.2112(3) 0.5869(3)
H12 H -0.3373 0.1832 0.5454
H13 H -0.2012 0.2855 0.6324
H14 H -0.1830 0.1529 0.6292
Cl2 Cl 0.56604(11) 0.64708(9) 0.39541(7)
O5 O 0.7704(4) 0.91787(19) 0.52041(15)
O6 O 0.8333(3) 0.52911(16) 0.55442(18)
O7 O 0.9103(2) 0.72278(16) 0.42776(12)
O8 O 1.1212(3) 0.79271(17) 0.57834(14)
C12 C 0.7632(4) 0.8256(2) 0.55291(19)
C13 C 0.7770(3) 0.7083(2) 0.48866(18)
C14 C 0.7978(3) 0.6252(2) 0.5706(2)
C15 C 0.7616(3) 0.6857(2) 0.66795(19)
C16 C 0.7419(3) 0.7999(2) 0.65712(18)
C17 C 0.7117(4) 0.8754(2) 0.7395(2)
H8 H 0.6986 0.9521 0.7321
C18 C 0.7020(4) 0.8338(3) 0.8321(2)
H9 H 0.6828 0.8829 0.8888
C19 C 0.7203(4) 0.7197(3) 0.8420(2)
H10 H 0.7122 0.6931 0.9055
C20 C 0.7501(4) 0.6442(3) 0.7612(2)
H11 H 0.7623 0.5674 0.7690
C21 C 1.0859(4) 0.7706(2) 0.4842(2)
C22 C 1.2129(4) 0.7888(3) 0.4131(3)
H12 H 1.3373 0.8168 0.4546
H13 H 1.2012 0.7145 0.3676
H14 H 1.1830 0.8471 0.3708

#END
