
#######################################################################
#
#                 Cambridge Crystallographic Data Centre
#                                CCDC 
#
#######################################################################
#
# If this CIF has been generated from an entry in the Cambridge 
# Structural Database, then it will include bibliographic, chemical, 
# crystal, experimental, refinement or atomic coordinate data resulting 
# from the CCDC's data processing and validation procedures.
#
#######################################################################

data_ABUMIT
_symmetry_cell_setting           monoclinic
_symmetry_space_group_name_H-M   'P 21/n'
_symmetry_Int_Tables_number      14
_space_group_name_Hall           '-P 2yn'
loop_
_symmetry_equiv_pos_site_id
_symmetry_equiv_pos_as_xyz
1 x,y,z
2 1/2+x,1/2-y,1/2+z
3 -x,-y,-z
4 1/2-x,1/2+y,1/2-z
_cell_length_a                   3.9495(14)
_cell_length_b                   10.626(5)
_cell_length_c                   15.270(7)
_cell_angle_alpha                90
_cell_angle_beta                 97.00(3)
_cell_angle_gamma                90
_cell_volume                     636.065
loop_
_atom_site_label
_atom_site_type_symbol
_atom_site_fract_x
_atom_site_fract_y
_atom_site_fract_z
Cl1 Cl -0.0087(2) 0.80350(7) 0.79692(4)
Cl2 Cl -0.27650(17) 0.99106(6) 0.64297(5)
C1 C 0.0192(5) 0.7652(2) 0.68768(14)
C2 C -0.1010(5) 0.8472(2) 0.62018(15)
C3 C -0.0756(7) 0.8142(2) 0.53324(16)
H1 H -0.1580 0.8706 0.4863
C4 C 0.0685(7) 0.7012(3) 0.51434(17)
H2 H 0.0845 0.6788 0.4541
C5 C 0.1890(6) 0.6192(3) 0.58164(18)
H3 H 0.2895 0.5405 0.5679
C6 C 0.1647(6) 0.6512(2) 0.66867(16)
H4 H 0.2489 0.5948 0.7155
Cl1 Cl 0.4913(2) 0.69650(7) 0.29692(4)
Cl2 Cl 0.22350(17) 0.50894(6) 0.14297(5)
C1 C 0.5192(5) 0.7348(2) 0.18768(14)
C2 C 0.3990(5) 0.6528(2) 0.12018(15)
C3 C 0.4244(7) 0.6858(2) 0.03324(16)
H1 H 0.3420 0.6294 -0.0137
C4 C 0.5685(7) 0.7988(3) 0.01434(17)
H2 H 0.5845 0.8212 -0.0459
C5 C 0.6890(6) 0.8808(3) 0.08164(18)
H3 H 0.7895 0.9595 0.0679
C6 C 0.6647(6) 0.8488(2) 0.16867(16)
H4 H 0.7489 0.9052 0.2155
Cl1 Cl 1.0087(2) 0.19650(7) 0.20308(4)
Cl2 Cl 1.27650(17) 0.00894(6) 0.35703(5)
C1 C 0.9808(5) 0.2348(2) 0.31232(14)
C2 C 1.1010(5) 0.1528(2) 0.37982(15)
C3 C 1.0756(7) 0.1858(2) 0.46676(16)
H1 H 1.1580 0.1294 0.5137
C4 C 0.9315(7) 0.2988(3) 0.48566(17)
H2 H 0.9155 0.3212 0.5459
C5 C 0.8110(6) 0.3808(3) 0.41836(18)
H3 H 0.7105 0.4595 0.4321
C6 C 0.8353(6) 0.3488(2) 0.33133(16)
H4 H 0.7511 0.4052 0.2845
Cl1 Cl 0.5087(2) 0.30350(7) 0.70308(4)
Cl2 Cl 0.77650(17) 0.49106(6) 0.85703(5)
C1 C 0.4808(5) 0.2652(2) 0.81232(14)
C2 C 0.6010(5) 0.3472(2) 0.87982(15)
C3 C 0.5756(7) 0.3142(2) 0.96676(16)
H1 H 0.6580 0.3706 1.0137
C4 C 0.4315(7) 0.2012(3) 0.98566(17)
H2 H 0.4155 0.1788 1.0459
C5 C 0.3110(6) 0.1192(3) 0.91836(18)
H3 H 0.2105 0.0405 0.9321
C6 C 0.3353(6) 0.1512(2) 0.83133(16)
H4 H 0.2511 0.0948 0.7845

#END
