./ABUNIU01_from_POSCAR.cif_generated_by_CrystalShift
_symmetry_cell_setting triclinic
_symmetry_space_group_name_H-M 'P 1'
loop_
_symmetry_equiv_pos_site_id
_symmetry_equiv_pos_as_xyz
1 x,y,z
_cell_length_a 8.029900
_cell_length_b 16.751400
_cell_length_c 18.932300
_cell_angle_alpha 90.000000
_cell_angle_beta 98.582000
_cell_angle_gamma 90.000000
_cell_volume 2518.109058
loop_
_atom_site_label
_atom_site_type_symbol
_atom_site_fract_x
_atom_site_fract_y
_atom_site_fract_z
H1 H 1.159000 0.308200 0.459400
H2 H 0.365000 0.865500 0.616900
H3 H 0.421000 0.644300 0.705800
H4 H 1.010000 0.268800 0.791800
H5 H 0.635000 0.365500 0.883100
H6 H 0.579000 0.144300 0.794200
H7 H 1.010000 0.231200 0.291800
H8 H 0.635000 0.134500 0.383100
H9 H 0.579000 0.355700 0.294200
H10 H -0.010000 0.731200 0.208200
H11 H 0.365000 0.634500 0.116900
H12 H 0.421000 0.855700 0.205800
H13 H 0.222000 1.014400 1.091200
H14 H 0.531000 0.542500 0.891500
H15 H 0.528000 0.990900 0.762100
H16 H 0.255000 1.042000 0.766800
H17 H 0.270000 0.518600 0.929100
H18 H -0.159000 0.808200 1.040600
H19 H 0.740000 0.629600 0.854600
H20 H 0.061000 0.960300 0.815300
H21 H 0.474000 0.964000 1.054700
H22 H -0.145000 0.675700 1.003200
H23 H 0.012000 0.570500 0.967100
H24 H 0.740000 0.889100 0.783400
H25 H 0.812000 0.759500 0.817000
H26 H -0.021000 0.936400 1.073800
H27 H 0.142600 0.664300 0.363300
H28 H 0.476000 0.655300 0.493900
H29 H -0.021000 0.563600 0.573800
H30 H 0.812000 0.740500 0.317000
H31 H 0.740000 0.610900 0.283400
H32 H 0.012000 0.929500 0.467100
H33 H -0.145000 0.824300 0.503200
H34 H 0.474000 0.536000 0.554700
H35 H 0.061000 0.539700 0.315300
H36 H 0.740000 0.870400 0.354600
H37 H -0.159000 0.691800 0.540600
H38 H 0.270000 0.981400 0.429100
H39 H 0.255000 0.458000 0.266800
H40 H 0.528000 0.509100 0.262100
H41 H 0.531000 0.957500 0.391500
H42 H 0.222000 0.485600 0.591200
H43 H 0.476000 0.844700 0.993900
H44 H 0.142600 0.835700 0.863300
H45 H 0.778000 0.514400 0.408800
H46 H 0.469000 0.042500 0.608500
H47 H 0.472000 0.490900 0.737900
H48 H 0.745000 0.542000 0.733200
H49 H 0.730000 0.018600 0.570900
H50 H -0.010000 0.768800 0.708200
H51 H 0.260000 0.129600 0.645400
H52 H 0.939000 0.460300 0.684700
H53 H 0.526000 0.464000 0.445300
H54 H 1.145000 0.175700 0.496800
H55 H 0.988000 0.070500 0.532900
H56 H 0.260000 0.389100 0.716600
H57 H 0.188000 0.259500 0.683000
H58 H 1.021000 0.436400 0.426200
H59 H 0.524000 0.344700 0.506100
H60 H 0.857400 0.335700 0.636700
H61 H 0.778000 -0.014400 -0.091200
H62 H 0.469000 0.457500 0.108500
H63 H 0.472000 0.009100 0.237900
H64 H 0.745000 -0.042000 0.233200
H65 H 0.730000 0.481400 0.070900
H66 H 1.159000 0.191800 -0.040600
H67 H 0.260000 0.370400 0.145400
H68 H 0.939000 0.039700 0.184700
H69 H 0.857400 0.164300 0.136700
H70 H 0.524000 0.155300 0.006100
H71 H 1.021000 0.063600 -0.073800
H72 H 0.188000 0.240500 0.183000
H73 H 0.260000 0.110900 0.216600
H74 H 0.988000 0.429500 0.032900
H75 H 1.145000 0.324300 -0.003200
H76 H 0.526000 0.036000 -0.054700
C77 C 0.893100 0.396520 0.045040
C78 C 1.051500 0.285640 0.000030
C79 C 0.551200 0.038180 0.214370
C80 C 1.060500 0.210360 -0.022160
C81 C 0.776200 0.037600 -0.067810
C82 C 0.752700 0.424580 0.066160
C83 C 0.917400 0.082980 -0.057750
C84 C 0.708700 0.010400 0.212660
C85 C 0.497500 0.386780 0.685440
C86 C 0.779700 0.238990 0.540490
C87 C 0.775140 0.315610 0.504480
C88 C 0.609930 0.339510 0.651560
C89 C 0.404000 0.230860 0.641800
C90 C 0.775500 0.368960 0.654210
C91 C 0.629700 0.363410 0.491170
C92 C 0.627200 0.128350 0.585460
C93 C 0.554780 0.262120 0.622590
C94 C 0.629900 0.434310 0.454950
C95 C 0.294400 0.281620 0.674430
C96 C 0.335900 0.356490 0.693260
C97 C 0.653600 0.211810 0.582120
C98 C 0.479600 0.098920 0.609840
C99 C 0.823000 0.441770 0.683280
C100 C 0.366500 0.148720 0.632140
C101 C 0.919900 0.341990 0.476000
C102 C 0.909200 0.185740 0.529200
C103 C 0.708700 0.489600 0.712660
C104 C 0.917400 0.417020 0.442250
C105 C 0.752700 0.075420 0.566160
C106 C 0.776200 0.462400 0.432190
C107 C 1.060500 0.289640 0.477840
C108 C 0.551200 0.461820 0.714370
C109 C 1.051500 0.214360 0.500030
C110 C 0.893100 0.103480 0.545040
C111 C 0.909200 0.314260 0.029200
C112 C 0.919900 0.158010 -0.024000
C113 C 0.366500 0.351280 0.132140
C114 C 0.823000 0.058230 0.183280
C115 C 0.479600 0.401080 0.109840
C116 C 0.653600 0.288190 0.082120
C117 C 0.335900 0.143510 0.193260
C118 C 0.294400 0.218380 0.174430
C119 C 0.629900 0.065690 -0.045050
C120 C 0.554780 0.237880 0.122590
C121 C 0.627200 0.371650 0.085460
C122 C 0.629700 0.136590 -0.008830
C123 C 0.775500 0.131040 0.154210
C124 C 0.404000 0.269140 0.141800
C125 C 0.609930 0.160490 0.151560
C126 C 0.775140 0.184390 0.004480
C127 C 0.502500 0.886780 0.814560
C128 C 0.220300 0.738990 0.959510
C129 C 0.224860 0.815610 0.995520
C130 C 0.390070 0.839510 0.848440
C131 C 0.596000 0.730860 0.858200
C132 C 0.224500 0.868960 0.845790
C133 C 0.370300 0.863410 1.008830
C134 C 0.372800 0.628350 0.914540
C135 C 0.445220 0.762120 0.877410
C136 C 0.370100 0.934310 1.045050
C137 C 0.705600 0.781620 0.825570
C138 C 0.664100 0.856490 0.806740
C139 C 0.346400 0.711810 0.917880
C140 C 0.520400 0.598920 0.890160
C141 C 0.177000 0.941770 0.816720
C142 C 0.633500 0.648720 0.867860
C143 C 0.080100 0.841990 1.024000
C144 C 0.090800 0.685740 0.970800
C145 C 0.291300 0.989600 0.787340
C146 C 0.082600 0.917020 1.057750
C147 C 0.247300 0.575420 0.933840
C148 C 0.223800 0.962400 1.067810
C149 C -0.060500 0.789640 1.022160
C150 C 0.448800 0.961820 0.785630
C151 C -0.051500 0.714360 0.999970
C152 C 0.106900 0.603480 0.954960
C153 C 0.779700 0.261010 0.040490
C154 C 0.497500 0.113220 0.185440
C155 C 0.106900 0.896520 0.454960
C156 C -0.051500 0.785640 0.499970
C157 C 0.448800 0.538180 0.285630
C158 C -0.060500 0.710360 0.522160
C159 C 0.223800 0.537600 0.567810
C160 C 0.247300 0.924580 0.433840
C161 C 0.082600 0.582980 0.557750
C162 C 0.291300 0.510400 0.287340
C163 C 0.090800 0.814260 0.470800
C164 C 0.080100 0.658010 0.524000
C165 C 0.633500 0.851280 0.367860
C166 C 0.177000 0.558230 0.316720
C167 C 0.520400 0.901080 0.390160
C168 C 0.346400 0.788190 0.417880
C169 C 0.415890 0.744850 0.160210
C170 C 0.356730 0.808330 0.194670
C171 C 0.220300 0.761010 0.459510
C172 C 0.166800 0.672490 0.163240
C173 C 0.196970 0.801210 0.212280
C174 C 0.224860 0.684390 0.495520
C175 C 0.324300 0.676000 0.143420
C176 C 0.099100 0.734190 0.197260
C177 C 0.099100 0.765810 0.697260
C178 C 0.324300 0.824000 0.643420
C179 C 0.196970 0.698790 0.712280
C180 C 0.166800 0.827510 0.663240
C181 C 0.356730 0.691670 0.694670
C182 C 0.415890 0.755150 0.660210
C183 C 0.390070 0.660490 0.348440
C184 C 0.664100 0.643510 0.306740
C185 C 0.705600 0.718380 0.325570
C186 C 0.370100 0.565690 0.545050
C187 C 0.584110 0.244850 0.339790
C188 C 0.643270 0.308330 0.305330
C189 C 0.596000 0.769140 0.358200
C190 C 0.833200 0.172490 0.336760
C191 C 0.803030 0.301210 0.287720
C192 C 0.224500 0.631040 0.345790
C193 C 0.675700 0.176000 0.356580
C194 C 0.900900 0.234190 0.302740
C195 C 0.900900 0.265810 0.802740
C196 C 0.675700 0.324000 0.856580
C197 C 0.803030 0.198790 0.787720
C198 C 0.833200 0.327510 0.836760
C199 C 0.643270 0.191670 0.805330
C200 C 0.584110 0.255150 0.839790
C201 C 0.370300 0.636590 0.508830
C202 C 0.445220 0.737880 0.377410
C203 C 0.372800 0.871650 0.414540
C204 C 0.502500 0.613220 0.314560
N205 N 0.584100 0.749160 0.638420
N206 N 0.934700 0.099850 0.353590
N207 N 0.125760 0.630990 0.747190
N208 N 0.125760 0.869010 0.247190
N209 N 0.415900 0.250840 0.361580
N210 N 0.584100 0.750840 0.138420
N211 N 0.065300 0.599850 0.146410
N212 N 0.874240 0.369010 0.252810
N213 N 0.874240 0.130990 0.752810
N214 N 0.065300 0.900150 0.646410
N215 N 0.415900 0.249160 0.861580
N216 N 0.934700 0.400150 0.853590
O217 O 0.377600 0.300880 0.901080
O218 O 1.076500 0.401030 0.837530
O219 O 0.868900 0.454940 0.882200
O220 O 0.327690 0.192760 0.840260
O221 O 0.800740 0.432480 0.250580
O222 O 0.131100 0.545060 0.117800
O223 O -0.076500 0.598970 0.162470
O224 O 0.327690 0.307240 0.340260
O225 O 0.199260 0.567520 0.749420
O226 O 0.622400 0.699120 0.098920
O227 O 1.003050 0.142370 0.727630
O228 O -0.003050 0.642370 0.772370
O229 O 0.672310 0.807240 0.159740
O230 O 0.377600 0.199120 0.401080
O231 O 0.800740 0.067520 0.750580
O232 O 0.672310 0.692760 0.659740
O233 O 1.076500 0.098970 0.337530
O234 O 0.622400 0.800880 0.598920
O235 O 1.003050 0.357630 0.227630
O236 O -0.076500 0.901030 0.662470
O237 O 0.131100 0.954940 0.617800
O238 O -0.003050 0.857630 0.272370
O239 O 0.199260 0.932480 0.249420
O240 O 0.868900 0.045060 0.382200

#END
