
#######################################################################
#
#                 Cambridge Crystallographic Data Centre
#                                CCDC 
#
#######################################################################
#
# If this CIF has been generated from an entry in the Cambridge 
# Structural Database, then it will include bibliographic, chemical, 
# crystal, experimental, refinement or atomic coordinate data resulting 
# from the CCDC's data processing and validation procedures.
#
#######################################################################

data_ABUPES
_symmetry_cell_setting           triclinic
_symmetry_space_group_name_H-M   'P -1'
_symmetry_Int_Tables_number      2
_space_group_name_Hall           '-P 1'
loop_
_symmetry_equiv_pos_site_id
_symmetry_equiv_pos_as_xyz
1 x,y,z
2 -x,-y,-z
_cell_length_a                   7.2306(2)
_cell_length_b                   15.2513(5)
_cell_length_c                   16.5165(4)
_cell_angle_alpha                90.700(2)
_cell_angle_beta                 94.497(2)
_cell_angle_gamma                93.702(1)
_cell_volume                     1811.7
loop_
_atom_site_label
_atom_site_type_symbol
_atom_site_fract_x
_atom_site_fract_y
_atom_site_fract_z
C1 C 0.93200(20) 0.66217(11) 0.27629(9)
C2 C 0.97750(20) 0.70219(13) 0.20462(10)
C3 C 0.94870(20) 0.65648(11) 0.13093(9)
C4 C 0.87640(20) 0.56971(12) 0.12882(11)
C5 C 0.83300(20) 0.53134(11) 0.20090(10)
C6 C 0.85840(20) 0.57590(12) 0.27443(11)
C7 C 0.96350(30) 0.71136(12) 0.35443(10)
C8 C 0.99520(30) 0.70157(12) 0.05546(10)
N1 N 0.75490(20) 0.43979(10) 0.19886(11)
O1 O 0.90630(20) 0.67562(9) 0.41716(8)
O2 O 1.04750(20) 0.78718(9) 0.35504(7)
O3 O 1.06130(20) 0.77904(9) 0.05932(8)
O4 O 0.96190(20) 0.65737(9) -0.01134(8)
O5 O 0.71960(20) 0.40362(9) 0.13266(10)
O6 O 0.72690(20) 0.40493(10) 0.26330(9)
H1 H 1.029(2) 0.760(1) 0.206(1)
H2 H 0.828(2) 0.549(1) 0.324(1)
H3 H 0.858(2) 0.536(1) 0.081(1)
H7 H 0.994(4) 0.698(2) -0.064(2)
H9 H 0.971(6) 0.712(3) 0.486(3)
C1 C 0.06800(20) 0.33783(11) 0.72371(9)
C2 C 0.02250(20) 0.29781(13) 0.79538(10)
C3 C 0.05130(20) 0.34352(11) 0.86907(9)
C4 C 0.12360(20) 0.43029(12) 0.87118(11)
C5 C 0.16700(20) 0.46866(11) 0.79910(10)
C6 C 0.14160(20) 0.42410(12) 0.72557(11)
C7 C 0.03650(30) 0.28864(12) 0.64557(10)
C8 C 0.00480(30) 0.29843(12) 0.94454(10)
N1 N 0.24510(20) 0.56021(10) 0.80114(11)
O1 O 0.09370(20) 0.32438(9) 0.58284(8)
O2 O -0.04750(20) 0.21282(9) 0.64496(7)
O3 O -0.06130(20) 0.22096(9) 0.94068(8)
O4 O 0.03810(20) 0.34263(9) 1.01134(8)
O5 O 0.28040(20) 0.59638(9) 0.86734(10)
O6 O 0.27310(20) 0.59507(10) 0.73670(9)
H1 H -0.029(2) 0.240(1) 0.794(1)
H2 H 0.172(2) 0.451(1) 0.676(1)
H3 H 0.142(2) 0.464(1) 0.919(1)
H7 H 0.006(4) 0.302(2) 1.064(2)
H9 H 0.029(6) 0.288(3) 0.514(3)
C9 C 0.88600(20) 0.12482(11) 0.21470(9)
C10 C 0.92090(20) 0.16805(13) 0.28923(10)
C11 C 0.89450(20) 0.12345(12) 0.36082(10)
C12 C 0.83060(20) 0.03592(12) 0.35805(11)
C13 C 0.79440(20) -0.00538(11) 0.28302(10)
C14 C 0.82270(20) 0.03688(12) 0.21133(11)
C15 C 0.91640(20) 0.17322(12) 0.13896(10)
C16 C 0.93450(30) 0.16987(13) 0.44028(10)
N2 N 0.72200(20) -0.09780(10) 0.27971(10)
O7 O 0.97490(20) 0.25201(9) 0.14343(7)
O8 O 0.88020(20) 0.13028(9) 0.07193(8)
O9 O 0.99290(20) 0.24969(9) 0.44045(8)
O10 O 0.90960(20) 0.12737(10) 0.50426(8)
O11 O 0.67320(20) -0.13102(9) 0.34240(9)
O12 O 0.71280(20) -0.13664(9) 0.21445(9)
H4 H 0.797(2) 0.008(1) 0.162(1)
H5 H 0.959(2) 0.228(1) 0.290(1)
H6 H 0.810(3) 0.005(1) 0.406(1)
H8 H 0.911(4) 0.174(2) 0.019(2)
H10 H 0.931(5) 0.170(2) 0.571(2)
C9 C 0.11400(20) 0.87518(11) 0.78530(9)
C10 C 0.07910(20) 0.83195(13) 0.71077(10)
C11 C 0.10550(20) 0.87655(12) 0.63918(10)
C12 C 0.16940(20) 0.96408(12) 0.64195(11)
C13 C 0.20560(20) 1.00538(11) 0.71698(10)
C14 C 0.17730(20) 0.96312(12) 0.78867(11)
C15 C 0.08360(20) 0.82678(12) 0.86104(10)
C16 C 0.06550(30) 0.83013(13) 0.55972(10)
N2 N 0.27800(20) 1.09780(10) 0.72029(10)
O7 O 0.02510(20) 0.74799(9) 0.85657(7)
O8 O 0.11980(20) 0.86972(9) 0.92807(8)
O9 O 0.00710(20) 0.75031(9) 0.55955(8)
O10 O 0.09040(20) 0.87263(10) 0.49574(8)
O11 O 0.32680(20) 1.13102(9) 0.65760(9)
O12 O 0.28720(20) 1.13664(9) 0.78555(9)
H4 H 0.203(2) 0.992(1) 0.838(1)
H5 H 0.041(2) 0.772(1) 0.710(1)
H6 H 0.190(3) 0.995(1) 0.594(1)
H8 H 0.089(4) 0.826(2) 0.981(2)
H10 H 0.069(5) 0.830(2) 0.429(2)
C17 C 0.41950(30) 0.18350(20) 0.32304(18)
C18 C 0.37930(20) 0.11388(13) 0.26692(12)
C19 C 0.38080(20) 0.12354(13) 0.18056(12)
C20 C 0.43330(30) 0.20392(17) 0.14463(17)
C21 C 0.43170(50) 0.21220(30) 0.06350(20)
C22 C 0.37710(50) 0.14120(30) 0.01320(20)
C23 C 0.32760(40) 0.06210(30) 0.04355(19)
C24 C 0.33000(30) 0.05043(16) 0.12918(14)
C25 C 0.28290(40) -0.03193(17) 0.16430(20)
C26 C 0.28520(30) -0.04176(18) 0.24390(20)
C27 C 0.33280(30) 0.03077(17) 0.29855(15)
C28 C 0.33220(40) 0.01960(30) 0.38290(20)
C29 C 0.37180(50) 0.08810(40) 0.43410(20)
C30 C 0.41270(50) 0.16970(40) 0.40540(20)
H11 H 0.477(4) 0.268(2) 0.034(2)
H12 H 0.289(4) 0.010(2) 0.021(2)
H13 H 0.448(5) 0.213(2) 0.440(2)
H14 H 0.365(5) 0.070(2) 0.497(3)
H15 H 0.453(3) 0.237(2) 0.301(1)
H16 H 0.479(3) 0.253(2) 0.183(2)
H17 H 0.249(4) -0.080(2) 0.127(2)
H18 H 0.256(4) -0.097(2) 0.268(2)
H19 H 0.306(4) -0.041(2) 0.402(2)
H20 H 0.388(5) 0.152(2) -0.047(2)
C17 C 0.58050(30) 0.81650(20) 0.67696(18)
C18 C 0.62070(20) 0.88612(13) 0.73308(12)
C19 C 0.61920(20) 0.87646(13) 0.81944(12)
C20 C 0.56670(30) 0.79608(17) 0.85537(17)
C21 C 0.56830(50) 0.78780(30) 0.93650(20)
C22 C 0.62290(50) 0.85880(30) 0.98680(20)
C23 C 0.67240(40) 0.93790(30) 0.95645(19)
C24 C 0.67000(30) 0.94957(16) 0.87082(14)
C25 C 0.71710(40) 1.03193(17) 0.83570(20)
C26 C 0.71480(30) 1.04176(18) 0.75610(20)
C27 C 0.66720(30) 0.96923(17) 0.70145(15)
C28 C 0.66780(40) 0.98040(30) 0.61710(20)
C29 C 0.62820(50) 0.91190(40) 0.56590(20)
C30 C 0.58730(50) 0.83030(40) 0.59460(20)
H11 H 0.523(4) 0.732(2) 0.966(2)
H12 H 0.711(4) 0.990(2) 0.979(2)
H13 H 0.552(5) 0.787(2) 0.560(2)
H14 H 0.635(5) 0.930(2) 0.503(3)
H15 H 0.547(3) 0.763(2) 0.699(1)
H16 H 0.521(3) 0.747(2) 0.817(2)
H17 H 0.751(4) 1.080(2) 0.873(2)
H18 H 0.744(4) 1.097(2) 0.732(2)
H19 H 0.694(4) 1.041(2) 0.598(2)
H20 H 0.612(5) 0.848(2) 1.047(2)
C31 C 0.39030(40) 0.63900(20) 0.39622(19)
C32 C 0.34490(30) 0.57187(14) 0.33786(14)
C33 C 0.36910(20) 0.58114(13) 0.25182(13)
C34 C 0.43680(30) 0.66109(16) 0.21904(16)
C35 C 0.45380(40) 0.66950(20) 0.13920(20)
C36 C 0.40420(40) 0.59770(30) 0.08700(20)
C37 C 0.33990(40) 0.52000(30) 0.11550(20)
C38 C 0.31920(30) 0.50917(16) 0.20019(16)
C39 C 0.24640(30) 0.42833(17) 0.23420(30)
C40 C 0.22200(40) 0.42230(20) 0.31310(30)
C41 C 0.26780(30) 0.49263(18) 0.36669(18)
C42 C 0.23500(50) 0.48460(40) 0.45010(30)
C43 C 0.27830(60) 0.55180(50) 0.50170(30)
C44 C 0.35500(50) 0.62800(40) 0.47650(20)
H21 H 0.499(3) 0.727(2) 0.114(2)
H22 H 0.301(3) 0.466(2) 0.095(2)
H23 H 0.166(4) 0.366(2) 0.340(2)
H24 H 0.182(5) 0.436(2) 0.470(2)
H25 H 0.231(6) 0.542(3) 0.565(3)
H26 H 0.467(3) 0.710(1) 0.263(1)
H27 H 0.435(3) 0.689(1) 0.368(1)
H28 H 0.422(4) 0.614(2) 0.034(2)
H29 H 0.220(4) 0.389(2) 0.195(2)
H30 H 0.388(6) 0.674(3) 0.517(3)
C31 C 0.60970(40) 0.36100(20) 0.60378(19)
C32 C 0.65510(30) 0.42813(14) 0.66214(14)
C33 C 0.63090(20) 0.41886(13) 0.74818(13)
C34 C 0.56320(30) 0.33891(16) 0.78096(16)
C35 C 0.54620(40) 0.33050(20) 0.86080(20)
C36 C 0.59580(40) 0.40230(30) 0.91300(20)
C37 C 0.66010(40) 0.48000(30) 0.88450(20)
C38 C 0.68080(30) 0.49083(16) 0.79981(16)
C39 C 0.75360(30) 0.57167(17) 0.76580(30)
C40 C 0.77800(40) 0.57770(20) 0.68690(30)
C41 C 0.73220(30) 0.50737(18) 0.63331(18)
C42 C 0.76500(50) 0.51540(40) 0.54990(30)
C43 C 0.72170(60) 0.44820(50) 0.49830(30)
C44 C 0.64500(50) 0.37200(40) 0.52350(20)
H21 H 0.501(3) 0.273(2) 0.886(2)
H22 H 0.699(3) 0.534(2) 0.905(2)
H23 H 0.834(4) 0.634(2) 0.660(2)
H24 H 0.818(5) 0.564(2) 0.530(2)
H25 H 0.769(6) 0.458(3) 0.435(3)
H26 H 0.533(3) 0.290(1) 0.737(1)
H27 H 0.565(3) 0.311(1) 0.632(1)
H28 H 0.578(4) 0.386(2) 0.966(2)
H29 H 0.780(4) 0.611(2) 0.805(2)
H30 H 0.612(6) 0.326(3) 0.483(3)

#END
