
#######################################################################
#
#                 Cambridge Crystallographic Data Centre
#                                CCDC 
#
#######################################################################
#
# If this CIF has been generated from an entry in the Cambridge 
# Structural Database, then it will include bibliographic, chemical, 
# crystal, experimental, refinement or atomic coordinate data resulting 
# from the CCDC's data processing and validation procedures.
#
#######################################################################

data_ABUPUI01
_symmetry_cell_setting           triclinic
_symmetry_space_group_name_H-M   'P -1'
_symmetry_Int_Tables_number      2
_space_group_name_Hall           '-P 1'
loop_
_symmetry_equiv_pos_site_id
_symmetry_equiv_pos_as_xyz
1 x,y,z
2 -x,-y,-z
_cell_length_a                   4.9036(4)
_cell_length_b                   8.6551(8)
_cell_length_c                   12.353(2)
_cell_angle_alpha                73.556(9)
_cell_angle_beta                 79.960(10)
_cell_angle_gamma                83.935(7)
_cell_volume                     494.25
loop_
_atom_site_label
_atom_site_type_symbol
_atom_site_fract_x
_atom_site_fract_y
_atom_site_fract_z
S1 S 0.81317(11) 0.49480(6) 0.20306(5)
C1 C 0.5434(4) 0.5110(2) 0.31048(18)
C2 C 0.5269(4) 0.6551(2) 0.33752(19)
C3 C 0.7435(5) 0.7544(3) 0.2704(2)
C4 C 0.9095(5) 0.6844(3) 0.1943(2)
C5 C 0.3531(4) 0.3839(2) 0.36882(19)
O1 O 0.1616(3) 0.40187(19) 0.44013(14)
O2 O 0.4152(3) 0.25063(18) 0.33438(15)
C6 C 0.2301(6) 0.1218(3) 0.3903(3)
H1 H 0.2870 0.0310 0.3598
H2 H 0.0441 0.1589 0.3772
H3 H 0.2367 0.0903 0.4708
O3 O 0.3408(3) 0.7079(2) 0.41378(16)
H4 H 0.238(5) 0.642(3) 0.4459(15)
O4 O 0.7678(4) 0.9014(2) 0.28354(19)
H5 H 0.900(6) 0.9406(17) 0.236(2)
C7 C 1.1347(5) 0.7674(3) 0.1124(2)
O5 O 1.1962(4) 0.8992(2) 0.11290(18)
O6 O 1.2581(4) 0.6849(2) 0.04042(15)
C8 C 1.4819(6) 0.7609(4) -0.0452(2)
H6 H 1.5645 0.6876 -0.0889
H7 H 1.6196 0.7881 -0.0082
H8 H 1.4096 0.8571 -0.0950
S1 S 0.18683(11) 0.50520(6) 0.79694(5)
C1 C 0.4566(4) 0.4890(2) 0.68952(18)
C2 C 0.4731(4) 0.3449(2) 0.66248(19)
C3 C 0.2565(5) 0.2456(3) 0.7296(2)
C4 C 0.0905(5) 0.3156(3) 0.8057(2)
C5 C 0.6469(4) 0.6161(2) 0.63118(19)
O1 O 0.8384(3) 0.59813(19) 0.55987(14)
O2 O 0.5848(3) 0.74937(18) 0.66562(15)
C6 C 0.7699(6) 0.8782(3) 0.6097(3)
H1 H 0.7130 0.9690 0.6402
H2 H 0.9559 0.8411 0.6228
H3 H 0.7633 0.9097 0.5292
O3 O 0.6592(3) 0.2921(2) 0.58622(16)
H4 H 0.762(5) 0.358(3) 0.5541(15)
O4 O 0.2322(4) 0.0986(2) 0.71646(19)
H5 H 0.100(6) 0.0594(17) 0.764(2)
C7 C -0.1347(5) 0.2326(3) 0.8876(2)
O5 O -0.1962(4) 0.1008(2) 0.88710(18)
O6 O -0.2581(4) 0.3151(2) 0.95958(15)
C8 C -0.4819(6) 0.2391(4) 1.0452(2)
H6 H -0.5645 0.3124 1.0889
H7 H -0.6196 0.2119 1.0082
H8 H -0.4096 0.1429 1.0950

#END
