./ABUPIX_from_POSCAR.cif_generated_by_CrystalShift
_symmetry_cell_setting triclinic
_symmetry_space_group_name_H-M 'P 1'
loop_
_symmetry_equiv_pos_site_id
_symmetry_equiv_pos_as_xyz
1 x,y,z
_cell_length_a 9.161000
_cell_length_b 9.625000
_cell_length_c 16.719000
_cell_angle_alpha 78.243000
_cell_angle_beta 86.099000
_cell_angle_gamma 88.529000
_cell_volume 1439.814738
loop_
_atom_site_label
_atom_site_type_symbol
_atom_site_fract_x
_atom_site_fract_y
_atom_site_fract_z
H1 H 0.403200 0.262900 0.017200
H2 H 0.461300 0.120100 0.073500
H3 H 0.102000 0.352500 0.279200
H4 H 0.169500 0.205100 0.325200
H5 H -0.004000 0.224600 0.320800
H6 H 0.124000 0.049900 0.022500
H7 H -0.093600 0.035800 0.103400
H8 H -0.109400 0.126800 0.220900
H9 H 0.913500 0.294300 0.565500
H10 H 0.610600 0.446000 0.040200
H11 H 0.899900 0.094200 0.669800
H12 H 0.735200 0.325200 0.048800
H13 H 0.759400 0.099000 0.790000
H14 H 0.755000 0.466500 -0.020300
H15 H 0.835100 0.529500 0.355800
H16 H 0.688600 0.560500 0.527400
H17 H 0.860400 0.534800 0.511100
H18 H 0.803500 0.632700 0.573800
H19 H 0.764400 0.386000 0.342700
H20 H 0.626900 0.385000 0.859300
H21 H 0.604800 0.217100 0.874300
H22 H 0.491200 0.322700 0.823200
H23 H 0.668200 0.528900 0.333100
H24 H 0.933300 0.617000 0.012900
H25 H 1.045500 0.721300 0.105400
H26 H 0.216400 0.957400 0.460300
H27 H 0.972600 0.664500 0.243300
H28 H 0.095300 1.125700 0.522700
H29 H 0.456400 0.200600 0.495900
H30 H 0.170500 1.169100 0.644700
H31 H 0.578900 0.315100 0.457900
H32 H 0.596300 0.215000 0.545800
H33 H 0.368900 0.952900 0.782400
H34 H 0.318000 1.115600 0.758600
H35 H 0.481200 1.069800 0.733700
H36 H 0.518800 -0.069800 0.266300
H37 H 0.403700 0.785000 0.454200
H38 H 0.421100 0.684900 0.542100
H39 H 0.543600 0.799400 0.504100
H40 H 0.682000 -0.115600 0.241400
H41 H 0.631100 0.047100 0.217600
H42 H 0.829500 -0.169100 0.355300
H43 H 0.027400 0.335500 0.756700
H44 H 0.904700 -0.125700 0.477300
H45 H -0.045500 0.278700 0.894600
H46 H 0.783600 0.042600 0.539700
H47 H 0.066700 0.383000 0.987100
H48 H 0.508800 0.677300 0.176800
H49 H 0.395200 0.782900 0.125700
H50 H 0.331800 0.471100 0.666900
H51 H 0.235600 0.614000 0.657300
H52 H 0.164900 0.470500 0.644200
H53 H 0.373100 0.615000 0.140700
H54 H 0.245000 0.533500 1.020300
H55 H 0.264800 0.674800 0.951200
H56 H 0.389400 0.554000 0.959800
H57 H 0.196500 0.367300 0.426200
H58 H 0.139600 0.465200 0.488900
H59 H 0.311400 0.439500 0.472600
H60 H 1.109400 0.873200 0.779100
H61 H 0.240600 0.901000 0.210000
H62 H 1.093600 0.964200 0.896600
H63 H 0.100100 0.905800 0.330200
H64 H 0.876000 0.950100 0.977500
H65 H 0.086500 0.705700 0.434500
H66 H 0.596800 0.737100 0.982800
H67 H 1.004000 0.775400 0.679200
H68 H 0.830500 0.794900 0.674800
H69 H 0.898000 0.647500 0.720800
H70 H 0.626300 0.887500 1.005000
H71 H 0.538700 0.879900 0.926500
H72 H 0.373700 0.112500 -0.005000
C73 C 0.909000 0.750900 0.708700
C74 C 0.382000 0.162800 0.039800
C75 C 0.091000 0.249100 0.291300
C76 C 0.240900 0.151800 0.091480
C77 C 0.693500 0.420000 0.693780
C78 C 0.118500 0.088100 0.070690
C79 C 0.306500 0.580000 0.306220
C80 C 0.222400 0.580300 0.378450
C81 C 0.145500 0.703200 0.385800
C82 C 0.759100 0.848200 0.908520
C83 C 0.152700 0.822000 0.323830
C84 C 0.881500 0.911900 0.929310
C85 C 0.236400 0.818800 0.252640
C86 C 1.010800 0.920800 0.881200
C87 C 0.314900 0.697400 0.241900
C88 C 0.217000 0.451800 0.447590
C89 C 1.019600 0.867100 0.811600
C90 C 0.900800 0.803900 0.786930
C91 C 0.771500 0.794500 0.837170
C92 C 0.405900 0.692800 0.164590
C93 C 0.283700 0.572200 0.964300
C94 C 0.233700 0.510600 0.675570
C95 C 0.210100 0.502400 0.905470
C96 C 0.603600 0.088200 0.376120
C97 C 0.642000 0.111900 0.451140
C98 C 0.754800 0.029100 0.488330
C99 C 0.098000 0.406500 0.930690
C100 C 0.825700 -0.072300 0.451840
C101 C 0.030900 0.344700 0.876000
C102 C 0.782400 -0.096500 0.378760
C103 C 0.074600 0.378500 0.794160
C104 C 0.670300 -0.015900 0.338520
C105 C 0.621300 -0.040700 0.259100
C106 C 0.185800 0.473800 0.765220
C107 C 0.252600 0.534000 0.822120
C108 C 0.438600 0.780000 0.508820
C109 C 0.561400 0.220000 0.491180
C110 C 0.378700 1.040700 0.740900
C111 C 0.329700 1.015900 0.661480
C112 C 0.217600 1.096500 0.621240
C113 C 0.747400 0.466000 0.177880
C114 C 0.814200 0.526200 0.234780
C115 C 0.925400 0.621500 0.205840
C116 C 0.174300 1.072300 0.548160
C117 C 0.969100 0.655300 0.124000
C118 C 0.245200 0.970900 0.511670
C119 C 0.902000 0.593500 0.069310
C120 C 0.358000 0.888100 0.548860
C121 C 0.789900 0.497600 0.094530
C122 C 0.766300 0.489400 0.324430
C123 C 0.396400 0.911800 0.623880
C124 C 0.594100 0.307200 0.835410
C125 C 0.783000 0.548200 0.552410
C126 C 0.716300 0.427800 0.035700
C127 C 0.685100 0.302600 0.758100
C128 C 0.763600 0.181200 0.747360
C129 C 0.847300 0.178000 0.676170
C130 C 0.228500 0.205500 0.162830
C131 C 0.099200 0.196100 0.213070
C132 C -0.019600 0.132900 0.188400
C133 C 0.854500 0.296800 0.614200
C134 C -0.010800 0.079200 0.118800
C135 C 0.777600 0.419700 0.621550
C136 C 0.618000 0.837200 0.960200
O137 O 0.636000 0.372000 0.203860
O138 O 0.493900 0.170510 0.337780
O139 O 0.384000 0.460300 0.298470
O140 O 0.653050 0.731900 0.815460
O141 O 0.364000 0.628000 0.796140
O142 O 0.506100 0.829490 0.662220
O143 O 0.616000 0.539700 0.701530
O144 O 0.346950 0.268100 0.184540
Ti145 Ti 0.463820 0.318520 0.255710
Ti146 Ti 0.536180 0.681480 0.744290

#END
