
#######################################################################
#
#                 Cambridge Crystallographic Data Centre
#                                CCDC 
#
#######################################################################
#
# If this CIF has been generated from an entry in the Cambridge 
# Structural Database, then it will include bibliographic, chemical, 
# crystal, experimental, refinement or atomic coordinate data resulting 
# from the CCDC's data processing and validation procedures.
#
#######################################################################

data_ABUQET
_symmetry_cell_setting           triclinic
_symmetry_space_group_name_H-M   'P -1'
_symmetry_Int_Tables_number      2
_space_group_name_Hall           '-P 1'
loop_
_symmetry_equiv_pos_site_id
_symmetry_equiv_pos_as_xyz
1 x,y,z
2 -x,-y,-z
_cell_length_a                   5.405(2)
_cell_length_b                   6.9470(15)
_cell_length_c                   50.464(15)
_cell_angle_alpha                89.73(2)
_cell_angle_beta                 89.33(3)
_cell_angle_gamma                74.31(2)
_cell_volume                     1824.12
loop_
_atom_site_label
_atom_site_type_symbol
_atom_site_fract_x
_atom_site_fract_y
_atom_site_fract_z
S1 S 0.79324(11) 1.71316(7) 0.249423(11)
C1 C 0.9535(4) 1.5062(3) 0.26713(4)
H1 H 1.0828 1.5049 0.2792
C2 C 0.8681(4) 1.3448(3) 0.26137(4)
C3 C 0.6693(4) 1.3883(3) 0.24220(4)
C4 C 0.6087(4) 1.5817(3) 0.23397(4)
H2 H 0.4833 1.6362 0.2215
O1 O 0.9465(3) 1.15634(19) 0.27117(3)
C5 C 1.1618(4) 1.1143(3) 0.28877(4)
H3 H 1.1231 1.1996 0.3043
H4 H 1.3123 1.1358 0.2799
C6 C 1.2072(4) 0.8981(3) 0.29652(4)
H5 H 1.2460 0.8170 0.2806
H6 H 1.0495 0.8797 0.3041
C7 C 1.4228(4) 0.8222(3) 0.31617(4)
H7 H 1.3852 0.9008 0.3323
H8 H 1.5824 0.8380 0.3087
C8 C 1.4539(4) 0.6029(3) 0.32275(4)
H9 H 1.2927 0.5894 0.3301
H10 H 1.4872 0.5268 0.3064
C9 C 1.6662(4) 0.5115(3) 0.34208(4)
H11 H 1.6372 0.5891 0.3583
H12 H 1.8294 0.5188 0.3345
C10 C 1.6818(4) 0.2943(3) 0.34870(4)
H13 H 1.5191 0.2881 0.3565
H14 H 1.7068 0.2179 0.3324
C11 C 1.8959(4) 0.1966(3) 0.36767(4)
H15 H 1.8728 0.2739 0.3839
H16 H 2.0592 0.2003 0.3598
C12 C 1.9058(4) -0.0188(3) 0.37443(4)
H17 H 1.7423 -0.0224 0.3823
H18 H 1.9291 -0.0960 0.3582
C13 C 2.1194(4) -0.1166(3) 0.39342(4)
H19 H 2.0964 -0.0390 0.4096
H20 H 2.2828 -0.1134 0.3856
C14 C 2.1292(4) -0.3318(3) 0.40031(5)
H21 H 1.9657 -0.3350 0.4082
H22 H 2.1521 -0.4094 0.3841
C15 C 2.3425(4) -0.4295(3) 0.41928(5)
H23 H 2.3199 -0.3514 0.4354
H24 H 2.5059 -0.4265 0.4114
C16 C 2.3531(4) -0.6442(3) 0.42635(5)
H25 H 2.1895 -0.6475 0.4342
H26 H 2.3772 -0.7228 0.4102
C17 C 2.5659(4) -0.7399(3) 0.44546(5)
H27 H 2.5405 -0.6617 0.4616
H28 H 2.7290 -0.7347 0.4377
C18 C 2.5812(4) -0.9556(3) 0.45251(5)
H29 H 2.4186 -0.9612 0.4603
H30 H 2.6069 -1.0342 0.4364
C19 C 2.7942(5) -1.0482(4) 0.47150(6)
H31 H 2.7678 -0.9697 0.4877
H32 H 2.9565 -1.0416 0.4637
C20 C 2.8118(7) -1.2636(4) 0.47854(7)
H33 H 2.9513 -1.3129 0.4905
H34 H 2.8416 -1.3432 0.4627
H35 H 2.6539 -1.2713 0.4868
O2 O 0.5677(3) 1.23935(19) 0.23442(3)
C21 C 0.3873(4) 1.2842(3) 0.21322(4)
H36 H 0.4654 1.3247 0.1975
H37 H 0.2381 1.3913 0.2182
C22 C 0.3115(4) 1.0949(3) 0.20806(4)
H38 H 0.2304 1.0598 0.2239
H39 H 0.4658 0.9879 0.2046
C23 C 0.1294(4) 1.1080(3) 0.18494(4)
H40 H -0.0266 1.2136 0.1883
H41 H 0.2094 1.1418 0.1689
C24 C 0.0621(4) 0.9119(3) 0.18093(4)
H42 H -0.0219 0.8821 0.1969
H43 H 0.2205 0.8066 0.1786
C25 C -0.1109(4) 0.9067(3) 0.15747(4)
H44 H -0.2690 1.0128 0.1595
H45 H -0.0259 0.9319 0.1413
C26 C -0.1758(4) 0.7083(3) 0.15500(4)
H46 H -0.0170 0.6023 0.1536
H47 H -0.2641 0.6853 0.1711
C27 C -0.3420(4) 0.6953(3) 0.13144(4)
H48 H -0.4993 0.8029 0.1326
H49 H -0.2521 0.7147 0.1153
C28 C -0.4107(4) 0.4984(4) 0.12956(5)
H50 H -0.5045 0.4806 0.1455
H51 H -0.2533 0.3905 0.1289
C29 C -0.5717(5) 0.4830(4) 0.10555(5)
H52 H -0.7279 0.5920 0.1061
H53 H -0.4768 0.4990 0.0896
C30 C -0.6440(5) 0.2869(4) 0.10379(5)
H54 H -0.4881 0.1776 0.1035
H55 H -0.7417 0.2719 0.1195
C31 C -0.8007(5) 0.2710(4) 0.07956(5)
H56 H -0.9556 0.3813 0.0797
H57 H -0.7022 0.2851 0.0638
C32 C -0.8762(5) 0.0775(4) 0.07766(5)
H58 H -0.7216 -0.0330 0.0779
H59 H -0.9786 0.0651 0.0932
C33 C -1.0261(5) 0.0601(4) 0.05321(5)
H60 H -0.9240 0.0743 0.0378
H61 H -1.1809 0.1704 0.0530
C34 C -1.1022(5) -0.1336(4) 0.05071(5)
H62 H -0.9481 -0.2443 0.0514
H63 H -1.2091 -0.1460 0.0658
C35 C -1.2438(7) -0.1507(5) 0.02595(6)
H64 H -1.1363 -0.1386 0.0108
H65 H -1.3971 -0.0392 0.0253
C36 C -1.3217(8) -0.3414(6) 0.02326(8)
H66 H -1.4116 -0.3393 0.0069
H67 H -1.4320 -0.3537 0.0378
H68 H -1.1712 -0.4530 0.0233
S1 S 0.20676(11) -0.71316(7) 0.750577(11)
C1 C 0.0465(4) -0.5062(3) 0.73287(4)
H1 H -0.0828 -0.5049 0.7208
C2 C 0.1319(4) -0.3448(3) 0.73863(4)
C3 C 0.3307(4) -0.3883(3) 0.75780(4)
C4 C 0.3913(4) -0.5817(3) 0.76603(4)
H2 H 0.5167 -0.6362 0.7785
O1 O 0.0535(3) -0.15634(19) 0.72883(3)
C5 C -0.1618(4) -0.1143(3) 0.71123(4)
H3 H -0.1231 -0.1996 0.6957
H4 H -0.3123 -0.1358 0.7201
C6 C -0.2072(4) 0.1019(3) 0.70348(4)
H5 H -0.2460 0.1830 0.7194
H6 H -0.0495 0.1203 0.6959
C7 C -0.4228(4) 0.1778(3) 0.68383(4)
H7 H -0.3852 0.0992 0.6677
H8 H -0.5824 0.1620 0.6913
C8 C -0.4539(4) 0.3971(3) 0.67725(4)
H9 H -0.2927 0.4106 0.6699
H10 H -0.4872 0.4732 0.6936
C9 C -0.6662(4) 0.4885(3) 0.65792(4)
H11 H -0.6372 0.4109 0.6417
H12 H -0.8294 0.4812 0.6655
C10 C -0.6818(4) 0.7057(3) 0.65130(4)
H13 H -0.5191 0.7119 0.6435
H14 H -0.7068 0.7821 0.6676
C11 C -0.8959(4) 0.8034(3) 0.63233(4)
H15 H -0.8728 0.7261 0.6161
H16 H -1.0592 0.7997 0.6402
C12 C -0.9058(4) 1.0188(3) 0.62557(4)
H17 H -0.7423 1.0224 0.6177
H18 H -0.9291 1.0960 0.6418
C13 C -1.1194(4) 1.1166(3) 0.60658(4)
H19 H -1.0964 1.0390 0.5904
H20 H -1.2828 1.1134 0.6144
C14 C -1.1292(4) 1.3318(3) 0.59969(5)
H21 H -0.9657 1.3350 0.5918
H22 H -1.1521 1.4094 0.6159
C15 C -1.3425(4) 1.4295(3) 0.58072(5)
H23 H -1.3199 1.3514 0.5646
H24 H -1.5059 1.4265 0.5886
C16 C -1.3531(4) 1.6442(3) 0.57365(5)
H25 H -1.1895 1.6475 0.5658
H26 H -1.3772 1.7228 0.5898
C17 C -1.5659(4) 1.7399(3) 0.55454(5)
H27 H -1.5405 1.6617 0.5384
H28 H -1.7290 1.7347 0.5623
C18 C -1.5812(4) 1.9556(3) 0.54749(5)
H29 H -1.4186 1.9612 0.5397
H30 H -1.6069 2.0342 0.5636
C19 C -1.7942(5) 2.0482(4) 0.52850(6)
H31 H -1.7678 1.9697 0.5123
H32 H -1.9565 2.0416 0.5363
C20 C -1.8118(7) 2.2636(4) 0.52146(7)
H33 H -1.9513 2.3129 0.5095
H34 H -1.8416 2.3432 0.5373
H35 H -1.6539 2.2713 0.5132
O2 O 0.4323(3) -0.23935(19) 0.76558(3)
C21 C 0.6127(4) -0.2842(3) 0.78678(4)
H36 H 0.5346 -0.3247 0.8025
H37 H 0.7619 -0.3913 0.7818
C22 C 0.6885(4) -0.0949(3) 0.79194(4)
H38 H 0.7696 -0.0598 0.7761
H39 H 0.5342 0.0121 0.7954
C23 C 0.8706(4) -0.1080(3) 0.81506(4)
H40 H 1.0266 -0.2136 0.8117
H41 H 0.7906 -0.1418 0.8311
C24 C 0.9379(4) 0.0881(3) 0.81907(4)
H42 H 1.0219 0.1179 0.8031
H43 H 0.7795 0.1934 0.8214
C25 C 1.1109(4) 0.0933(3) 0.84253(4)
H44 H 1.2690 -0.0128 0.8405
H45 H 1.0259 0.0681 0.8587
C26 C 1.1758(4) 0.2917(3) 0.84500(4)
H46 H 1.0170 0.3977 0.8464
H47 H 1.2641 0.3147 0.8289
C27 C 1.3420(4) 0.3047(3) 0.86856(4)
H48 H 1.4993 0.1971 0.8674
H49 H 1.2521 0.2853 0.8847
C28 C 1.4107(4) 0.5016(4) 0.87044(5)
H50 H 1.5045 0.5194 0.8545
H51 H 1.2533 0.6095 0.8711
C29 C 1.5717(5) 0.5170(4) 0.89445(5)
H52 H 1.7279 0.4080 0.8939
H53 H 1.4768 0.5010 0.9104
C30 C 1.6440(5) 0.7131(4) 0.89621(5)
H54 H 1.4881 0.8224 0.8965
H55 H 1.7417 0.7281 0.8805
C31 C 1.8007(5) 0.7290(4) 0.92044(5)
H56 H 1.9556 0.6187 0.9203
H57 H 1.7022 0.7149 0.9362
C32 C 1.8762(5) 0.9225(4) 0.92234(5)
H58 H 1.7216 1.0330 0.9221
H59 H 1.9786 0.9349 0.9068
C33 C 2.0261(5) 0.9399(4) 0.94679(5)
H60 H 1.9240 0.9257 0.9622
H61 H 2.1809 0.8296 0.9470
C34 C 2.1022(5) 1.1336(4) 0.94929(5)
H62 H 1.9481 1.2443 0.9486
H63 H 2.2091 1.1460 0.9342
C35 C 2.2438(7) 1.1507(5) 0.97405(6)
H64 H 2.1363 1.1386 0.9892
H65 H 2.3971 1.0392 0.9747
C36 C 2.3217(8) 1.3414(6) 0.97674(8)
H66 H 2.4116 1.3393 0.9931
H67 H 2.4320 1.3537 0.9622
H68 H 2.1712 1.4530 0.9767

#END
