./ABURUK_from_POSCAR.cif_generated_by_CrystalShift
_symmetry_cell_setting triclinic
_symmetry_space_group_name_H-M 'P 1'
loop_
_symmetry_equiv_pos_site_id
_symmetry_equiv_pos_as_xyz
1 x,y,z
_cell_length_a 9.272700
_cell_length_b 10.065500
_cell_length_c 39.518000
_cell_angle_alpha 90.000000
_cell_angle_beta 96.140000
_cell_angle_gamma 90.000000
_cell_volume 3667.228935
loop_
_atom_site_label
_atom_site_type_symbol
_atom_site_fract_x
_atom_site_fract_y
_atom_site_fract_z
H1 H 1.032600 1.057500 0.773600
H2 H 1.218700 0.382800 0.866500
H3 H 1.041100 0.341500 0.610600
H4 H 0.761300 0.524200 0.842100
H5 H 0.608500 0.700200 0.850300
H6 H 0.689800 0.916000 0.848500
H7 H 0.787000 0.600900 0.518100
H8 H 0.926400 0.963500 0.839000
H9 H 0.738100 0.508600 0.464700
H10 H 1.264000 0.602100 0.822200
H11 H 0.801900 0.293200 0.454300
H12 H 0.532600 0.442500 0.273600
H13 H 0.915100 0.160500 0.497000
H14 H 0.442500 0.439900 0.216400
H15 H 0.509300 0.601600 0.180400
H16 H 0.668200 0.765800 0.200200
H17 H 1.123600 0.579300 0.618100
H18 H 1.035700 0.711100 0.626600
H19 H 0.762400 0.770200 0.256500
H20 H 0.983300 0.443100 0.765000
H21 H 0.651400 0.518200 0.585300
H22 H 0.364200 1.283700 0.340600
H23 H 0.442300 0.645100 0.578300
H24 H 0.192200 1.385100 0.302500
H25 H 0.457400 0.873400 0.576800
H26 H 0.168600 1.325400 0.245900
H27 H 0.678600 0.975000 0.582700
H28 H 0.312700 1.162200 0.227400
H29 H 0.888300 0.851400 0.589800
H30 H 0.483300 1.056900 0.265000
H31 H 0.942500 1.060100 0.716400
H32 H 0.646800 1.254200 0.351900
H33 H 0.718700 1.117200 0.366500
H34 H 0.261300 0.975800 0.342100
H35 H 1.337700 0.208500 0.602800
H36 H 0.108500 0.799800 0.350300
H37 H 1.561500 0.266500 0.586400
H38 H 0.189800 0.584000 0.348500
H39 H 1.604900 0.243800 0.530500
H40 H 0.426400 0.536500 0.339000
H41 H 1.429300 0.161300 0.490900
H42 H 0.764000 0.897900 0.322200
H43 H 1.205000 0.099400 0.506500
H44 H -0.032600 -0.057500 0.226400
H45 H 0.057500 -0.060100 0.283600
H46 H 0.541100 0.158500 0.110600
H47 H -0.009300 0.101600 0.319600
H48 H -0.168200 0.265800 0.299800
H49 H -0.262400 0.270200 0.243500
H50 H 0.287000 -0.100900 0.018100
H51 H 0.812700 0.337800 0.727400
H52 H 0.238100 -0.008600 -0.035300
H53 H 0.135800 0.783700 0.159400
H54 H 0.301900 0.206800 -0.045700
H55 H 0.307800 0.885100 0.197500
H56 H 0.415100 0.339500 -0.003000
H57 H 0.331400 0.825400 0.254100
H58 H 0.187300 0.662200 0.272600
H59 H 0.016700 0.556900 0.235000
H60 H 0.623600 -0.079300 0.118100
H61 H 0.535700 -0.211100 0.126600
H62 H -0.146800 0.754200 0.148100
H63 H -0.218700 0.617200 0.133500
H64 H 0.151400 -0.018200 0.085300
H65 H 0.238700 0.475800 0.157900
H66 H -0.057700 -0.145100 0.078300
H67 H 0.391500 0.299800 0.149700
H68 H -0.042600 -0.373400 0.076800
H69 H 0.310200 0.084000 0.151500
H70 H 0.178600 -0.475000 0.082700
H71 H 0.073600 0.036500 0.161000
H72 H 0.388300 -0.351400 0.089800
H73 H 1.009300 0.898400 0.680400
H74 H -0.264000 0.397900 0.177800
H75 H 1.168200 0.734200 0.700200
H76 H 0.467400 0.557500 0.726400
H77 H 0.557500 0.560100 0.783600
H78 H 0.837700 0.291500 0.102800
H79 H 0.490700 0.398400 0.819600
H80 H 1.061500 0.233500 0.086400
H81 H 0.331800 0.234200 0.799800
H82 H 1.104900 0.256200 0.030500
H83 H 0.237600 0.229800 0.743500
H84 H 0.929300 0.338700 -0.009100
H85 H 0.668600 0.174600 0.745900
H86 H 0.705000 0.400600 0.006500
H87 H 0.692200 0.114900 0.802500
H88 H 0.635800 -0.283700 0.659400
H89 H -0.041100 0.658500 0.389400
H90 H 0.807800 -0.385100 0.697500
H91 H 0.831400 -0.325400 0.754100
H92 H 0.687300 -0.162200 0.772600
H93 H 0.213000 0.399100 0.481900
H94 H 0.516700 -0.056900 0.735000
H95 H 0.261900 0.491400 0.535300
H96 H 0.353200 -0.254200 0.648100
H97 H 0.198100 0.706800 0.545700
H98 H 0.281300 -0.117200 0.633500
H99 H 0.084900 0.839500 0.503000
H100 H 0.738700 0.024200 0.657900
H101 H 0.891500 0.200200 0.649700
H102 H 0.810200 0.416000 0.651500
H103 H -0.123600 0.420700 0.381900
H104 H -0.035700 0.288900 0.373400
H105 H 0.573600 0.463500 0.661000
H106 H 0.236000 0.102100 0.677800
H107 H 0.348600 0.481800 0.414700
H108 H 0.295000 0.599400 0.993500
H109 H 0.557700 0.354900 0.421700
H110 H 0.070700 0.661300 1.009100
H111 H 0.542600 0.126600 0.423200
H112 H -0.104900 0.743800 0.969500
H113 H 0.321400 0.025000 0.417300
H114 H -0.061500 0.766500 0.913600
H115 H 0.111700 0.148600 0.410200
H116 H 0.162300 0.708500 0.897200
H117 H 1.262400 0.729800 0.756500
H118 H 0.864200 0.216300 0.840600
H119 H 0.611700 1.351400 0.910200
H120 H 0.821400 1.475000 0.917300
H121 H -0.337700 0.791500 0.397200
H122 H 1.042600 1.373400 0.923200
H123 H -0.561500 0.733500 0.413600
H124 H 1.057700 1.145100 0.921700
H125 H -0.604900 0.756200 0.469500
H126 H 0.848600 1.018200 0.914700
H127 H -0.429300 0.838700 0.509100
H128 H 0.464300 1.211100 0.873400
H129 H -0.205000 0.900600 0.493500
H130 H 0.376400 1.079300 0.881900
H131 H 0.584900 0.660500 1.003000
H132 H 0.458900 0.841500 0.889400
H133 H 0.698100 0.793200 1.045700
H134 H 0.761900 1.008600 1.035300
H135 H 0.713000 1.100900 0.981900
H136 H 1.146800 0.245800 0.851900
C137 C 0.715800 0.957900 1.017660
C138 C 0.617270 0.935900 0.959780
C139 C 0.677500 0.827600 1.023900
C140 C 0.564890 0.963500 0.924430
C141 C 0.610100 0.747900 0.998750
C142 C 0.503100 0.851000 0.911510
C143 C 0.581540 0.804800 0.966630
C144 C 0.572400 1.090800 0.906030
C145 C 0.459800 1.131100 0.885020
C146 C 0.996900 0.351000 0.588490
C147 C -0.276000 0.866200 0.477520
C148 C 0.706900 1.170600 0.911540
C149 C 0.841900 1.110400 0.915160
C150 C -0.410100 0.829700 0.486620
C151 C 0.967400 1.186400 0.919400
C152 C -0.515200 0.780400 0.462940
C153 C 0.958500 1.322500 0.920260
C154 C -0.489300 0.766400 0.429550
C155 C 0.826900 1.382800 0.916780
C156 C -0.356300 0.801000 0.419780
C157 C 0.701100 1.308600 0.912500
C158 C -0.250300 0.850400 0.443990
C159 C 1.156400 0.893400 0.770370
C160 C 1.197700 0.796100 0.748550
C161 C 0.854600 0.241500 0.817800
C162 C 0.249700 0.649600 0.943990
C163 C 0.143700 0.699000 0.919780
C164 C 1.141700 0.799200 0.715060
C165 C 0.010700 0.733600 0.929550
C166 C 0.201100 0.191400 0.412500
C167 C -0.015200 0.719600 0.962940
C168 C 0.326900 0.117200 0.416780
C169 C 0.089900 0.670300 0.986620
C170 C 0.458500 0.177500 0.420260
C171 C 0.224000 0.633800 0.977520
C172 C 0.467400 0.313600 0.419400
C173 C 1.150000 0.338200 0.851830
C174 C 0.327400 0.131840 0.673650
C175 C 0.341900 0.389600 0.415160
C176 C 0.441300 0.052970 0.669960
C177 C 0.515700 0.270080 0.665750
C178 C 0.606300 0.376200 0.660600
C179 C 0.206900 0.329400 0.411540
C180 C 0.746700 0.346800 0.654810
C181 C -0.040200 0.368900 0.385020
C182 C 0.796100 0.216600 0.653810
C183 C 0.072400 0.409200 0.406030
C184 C 0.705500 0.111200 0.658790
C185 C 0.081540 0.695200 0.466630
C186 C 0.563200 0.137640 0.665140
C187 C 0.443400 -0.093770 0.669180
C188 C 0.350000 -0.161800 0.648170
C189 C 0.110100 0.752100 0.498750
C190 C 0.177500 0.672400 0.523900
C191 C 0.556600 -0.160300 0.693140
C192 C 0.574200 -0.123700 0.727270
C193 C 0.215800 0.542100 0.517660
C194 C 0.677000 -0.186500 0.749800
C195 C 0.186900 0.486400 0.485870
C196 C 0.762900 -0.283500 0.738800
C197 C 0.117270 0.564100 0.459780
C198 C 0.748300 -0.319500 0.705000
C199 C 0.064890 0.536500 0.424430
C200 C 0.645400 -0.258500 0.682200
C201 C 0.003100 0.649000 0.411510
C202 C 1.056600 0.406230 0.830820
C203 C 0.751700 0.180500 0.795000
C204 C 0.776000 0.366200 0.022480
C205 C 0.343600 0.393400 0.729630
C206 C 0.302300 0.296100 0.751450
C207 C 0.910100 0.329700 0.013380
C208 C 0.358300 0.299200 0.784940
C209 C 1.015200 0.280400 0.037060
C210 C 0.453400 0.397400 0.796760
C211 C 0.989300 0.266400 0.070450
C212 C 0.493600 0.493600 0.775270
C213 C 0.856300 0.301000 0.080220
C214 C 0.439700 0.492700 0.741220
C215 C 0.750300 0.350400 0.056010
C216 C 0.936800 0.637640 0.834860
C217 C -0.172600 0.368160 0.173650
C218 C 1.046600 0.897400 0.703240
C219 C -0.058700 0.447030 0.169960
C220 C 0.015700 0.229920 0.165750
C221 C 0.106300 0.123800 0.160600
C222 C 0.298900 -0.308600 0.087500
C223 C 0.246700 0.153200 0.154810
C224 C 0.173100 -0.382800 0.083220
C225 C 0.296100 0.283400 0.153810
C226 C 0.041500 -0.322500 0.079740
C227 C 0.205500 0.388800 0.158790
C228 C 0.032600 -0.186400 0.080600
C229 C 0.063200 0.362360 0.165140
C230 C -0.056600 0.593770 0.169180
C231 C -0.150000 0.661800 0.148170
C232 C 0.158100 -0.110400 0.084840
C233 C 0.293100 -0.170600 0.088460
C234 C 0.056600 0.660300 0.193140
C235 C 0.074200 0.623700 0.227270
C236 C 0.540200 -0.131100 0.114980
C237 C 0.177000 0.686500 0.249800
C238 C 0.427600 -0.090800 0.093970
C239 C 0.262900 0.783500 0.238800
C240 C 0.418460 0.195200 0.033370
C241 C 0.248300 0.819500 0.205000
C242 C 0.389900 0.252100 0.001250
C243 C 0.145400 0.758500 0.182200
C244 C 0.322500 0.172400 -0.023900
C245 C 0.737100 0.216500 0.761200
C246 C 0.284200 0.042100 -0.017660
C247 C 0.823000 0.313500 0.750200
C248 C -0.156400 0.106600 0.229630
C249 C -0.197700 0.203900 0.251450
C250 C 0.313100 -0.013600 0.014130
C251 C -0.141700 0.200800 0.284940
C252 C 0.382730 0.064100 0.040220
C253 C -0.046600 0.102600 0.296760
C254 C 0.435110 0.036500 0.075570
C255 C -0.006400 0.006400 0.275270
C256 C 0.496900 0.149000 0.088490
C257 C -0.060300 0.007300 0.241220
C258 C 0.935110 0.463500 0.575570
C259 C 0.794500 0.611200 0.841210
C260 C 0.672600 0.868160 0.326350
C261 C 1.276000 0.133800 0.522480
C262 C 0.558700 0.947030 0.330040
C263 C 0.484300 0.729920 0.334250
C264 C 0.393700 0.623800 0.339400
C265 C 1.410100 0.170300 0.513380
C266 C 0.253300 0.653200 0.345190
C267 C 1.515200 0.219600 0.537060
C268 C 0.203900 0.783400 0.346190
C269 C 1.489300 0.233600 0.570450
C270 C 0.294500 0.888800 0.341210
C271 C 1.356300 0.199000 0.580220
C272 C 0.436800 0.862360 0.334860
C273 C 0.556600 1.093770 0.330820
C274 C 0.650000 1.161800 0.351830
C275 C 1.250300 0.149600 0.556010
C276 C 1.006400 0.993600 0.724730
C277 C 0.443400 1.160300 0.306860
C278 C 0.425800 1.123700 0.272730
C279 C 1.060300 0.992700 0.758780
C280 C 0.323000 1.186500 0.250200
C281 C 0.798900 0.808600 0.587500
C282 C 0.237100 1.283500 0.261200
C283 C 0.673100 0.882800 0.583220
C284 C 0.251700 1.319500 0.295000
C285 C 0.541500 0.822500 0.579740
C286 C 0.354600 1.258500 0.317800
C287 C 0.532600 0.686400 0.580600
C288 C 0.658100 0.610400 0.584840
C289 C 0.925800 0.376300 0.772730
C290 C 0.943400 0.339700 0.806860
C291 C 0.656400 0.606600 0.270370
C292 C 0.697700 0.703900 0.248550
C293 C 0.793100 0.670600 0.588460
C294 C 0.641700 0.700800 0.215060
C295 C 1.040200 0.631100 0.614980
C296 C 0.546600 0.602600 0.203240
C297 C 0.927600 0.590800 0.593970
C298 C 0.506400 0.506400 0.224730
C299 C 0.918460 0.304800 0.533370
C300 C 0.560300 0.507300 0.258780
C301 C 0.889900 0.247900 0.501250
C302 C 0.882730 0.435900 0.540220
C303 C 1.172600 0.631840 0.826350
C304 C 0.822500 0.327600 0.476100
C305 C 1.058700 0.552970 0.830040
C306 C 0.984300 0.770080 0.834250
C307 C 0.893700 0.876200 0.839400
C308 C 0.784200 0.457900 0.482340
C309 C 0.753300 0.846800 0.845190
C310 C 0.813100 0.513600 0.514130
C311 C 0.703900 0.716600 0.846190
C312 C 0.686900 1.013600 0.985870
N313 N 0.485570 0.250000 0.063960
N314 N -0.133770 0.233880 0.170280
N315 N 0.014430 0.750000 0.436040
N316 N 0.366230 0.266120 0.670280
N317 N 0.514430 0.750000 0.936040
N318 N 0.633770 0.733880 0.329720
N319 N 1.133770 0.766120 0.829720
N320 N 0.985570 0.250000 0.563960
O321 O 0.871710 0.655060 0.316560
O322 O 1.094080 0.082330 0.604040
O323 O -0.184770 -0.007690 0.170460
O324 O -0.371710 0.155060 0.183440
O325 O 1.009050 0.018280 0.544790
O326 O 0.315230 0.507690 0.670460
O327 O 0.128290 0.344940 0.683440
O328 O 0.594080 0.417670 0.104040
O329 O 0.490950 0.518280 0.955210
O330 O 0.405920 0.582330 0.895960
O331 O 0.509050 0.481720 0.044790
O332 O 1.371710 0.844940 0.816560
O333 O 1.184770 1.007690 0.829540
O334 O -0.094080 0.917670 0.395960
O335 O -0.009050 0.981720 0.455210
O336 O 0.684770 0.492310 0.329540
S337 S -0.079550 0.889800 0.431506
S338 S 1.224480 0.888390 0.813447
S339 S 0.275520 0.388390 0.686553
S340 S 0.579550 0.389800 0.068494
S341 S -0.224480 0.111610 0.186553
S342 S 0.724480 0.611610 0.313447
S343 S 1.079550 0.110200 0.568494
S344 S 0.420450 0.610200 0.931506

#END
