./ABURIA_from_POSCAR.cif_generated_by_CrystalShift
_symmetry_cell_setting triclinic
_symmetry_space_group_name_H-M 'P 1'
loop_
_symmetry_equiv_pos_site_id
_symmetry_equiv_pos_as_xyz
1 x,y,z
_cell_length_a 10.912100
_cell_length_b 13.455600
_cell_length_c 21.468900
_cell_angle_alpha 101.749500
_cell_angle_beta 92.371800
_cell_angle_gamma 92.672400
_cell_volume 3078.674514
loop_
_atom_site_label
_atom_site_type_symbol
_atom_site_fract_x
_atom_site_fract_y
_atom_site_fract_z
H1 H 0.037400 0.677900 0.905100
H2 H 0.332500 0.000000 0.226100
H3 H 0.332100 0.034800 0.337200
H4 H 0.962600 0.322100 0.094900
H5 H 0.990400 0.161400 0.116100
H6 H 0.977100 0.131900 0.218800
H7 H 0.009600 0.838600 0.883900
H8 H 0.022900 0.868100 0.781200
H9 H 0.891900 0.520100 0.456700
H10 H 0.861200 0.680500 0.434600
H11 H 0.864100 0.705900 0.331000
H12 H 0.297200 0.197400 0.393700
H13 H 0.223200 0.569000 0.236200
H14 H 0.228900 0.535000 0.126100
H15 H 0.108100 0.479900 0.543300
H16 H 0.138800 0.319500 0.565400
H17 H 0.261300 0.371700 0.069900
H18 H 0.771100 0.465000 0.873900
H19 H 0.776800 0.431000 0.763800
H20 H 0.702800 0.802600 0.606300
H21 H 0.667900 0.965200 0.662800
H22 H 0.667500 1.000000 0.773900
H23 H 0.587300 0.145200 0.512300
H24 H 0.556700 0.318600 0.541900
H25 H 0.566000 0.421800 0.467100
H26 H 0.636700 0.214300 0.164300
H27 H 0.666800 0.040400 0.134500
H28 H 0.665700 -0.061500 0.211100
H29 H 0.738700 0.628300 0.930100
H30 H 0.135900 0.294100 0.669000
H31 H 0.412700 0.854800 0.487700
H32 H 0.443300 0.681400 0.458100
H33 H 0.434000 0.578200 0.532900
H34 H 0.363300 0.785700 0.835700
H35 H 0.334300 1.061500 0.788900
H36 H 0.333200 0.959600 0.865500
C37 C 0.182300 0.971600 0.469600
C38 C 0.481200 1.252800 0.759200
C39 C 0.362900 1.006000 0.664130
C40 C 0.369700 0.962100 0.602360
C41 C 0.918000 0.492400 0.176150
C42 C 0.935800 0.392300 0.186680
C43 C 0.958200 0.311300 0.137160
C44 C 0.974100 0.215900 0.149950
C45 C 0.968000 0.198400 0.211370
C46 C 0.947000 0.278200 0.262360
C47 C 0.388200 0.856300 0.581380
C48 C 0.233900 0.593000 0.978600
C49 C 0.940000 0.265000 0.327310
C50 C 0.921000 0.344000 0.375870
C51 C 0.907800 0.445300 0.364780
C52 C 0.891200 0.528900 0.413880
C53 C 0.874900 0.624900 0.400990
C54 C 0.876500 0.640300 0.339330
C55 C -0.030300 0.170200 0.732900
C56 C 0.095300 0.428000 0.775510
C57 C 0.610200 0.204500 0.371050
C58 C 0.625600 0.159500 0.306090
C59 C 0.638800 0.052900 0.287010
C60 C 0.654600 0.009300 0.223230
C61 C 0.410200 0.813100 0.518410
C62 C 0.638500 0.173700 0.195690
C63 C 0.623800 0.220200 0.258920
C64 C 0.605600 0.326900 0.279300
C65 C 0.591300 0.369500 0.340700
C66 C 0.592400 0.310100 0.389970
C67 C 0.574800 0.350800 0.454200
C68 C 0.571700 0.289600 0.498880
C69 C 0.589800 0.186900 0.481590
C70 C 0.611800 0.143700 0.418620
C71 C 0.630300 0.037900 0.397640
C72 C 0.637100 -0.006000 0.335870
C73 C 0.518800 -0.252800 0.240800
C74 C 0.817700 0.028400 0.530400
C75 C 0.428300 0.710400 0.501120
C76 C 0.425200 0.649200 0.545800
C77 C 0.407600 0.689900 0.610030
C78 C 0.408700 0.630500 0.659300
C79 C 0.394400 0.673100 0.720700
C80 C 0.376200 0.779800 0.741080
C81 C 0.897600 0.559700 0.289290
C82 C 0.912700 0.460100 0.300630
C83 C 0.931900 0.377400 0.250240
C84 C 0.123500 0.359700 0.660670
C85 C 0.125100 0.375100 0.599010
C86 C 0.108800 0.471100 0.586120
C87 C 0.082000 0.507600 0.823850
C88 C 0.064200 0.607700 0.813320
C89 C 0.092200 0.554700 0.635220
C90 C 0.361500 0.826300 0.804310
C91 C 0.344600 0.929900 0.822230
C92 C 0.345400 0.990700 0.776770
C93 C 0.361200 0.947100 0.712990
C94 C 0.374400 0.840500 0.693910
C95 C 0.041800 0.688700 0.862840
C96 C 0.025900 0.784100 0.850050
C97 C 0.283600 0.244800 0.249020
C98 C 0.269300 0.324900 0.215280
C99 C 0.273500 0.305800 0.147820
C100 C 0.258400 0.384700 0.114970
C101 C 0.239500 0.481500 0.148270
C102 C 0.236100 0.501800 0.214230
C103 C 0.250200 0.425100 0.248590
C104 C 0.245800 0.443100 0.317310
C105 C 0.260500 0.366900 0.349520
C106 C 0.281000 0.264600 0.316970
C107 C 0.298600 0.185000 0.348570
C108 C 0.318800 0.087800 0.314930
C109 C 0.318700 0.066500 0.248910
C110 C 0.300400 0.144600 0.215540
C111 C 0.297000 0.126500 0.147420
C112 C 0.289100 0.203600 0.115750
C113 C 0.416500 0.243200 -0.038350
C114 C 0.161500 -0.084200 0.021400
C115 C 0.389800 0.795500 0.628950
C116 C 0.904700 0.572000 0.224490
C117 C 1.030300 0.829800 0.267100
C118 C 0.766100 0.407000 0.021400
C119 C 0.102400 0.440300 0.710710
C120 C 0.087300 0.539900 0.699370
C121 C 0.655400 0.070100 0.177770
C122 C 0.838500 1.084200 0.978600
C123 C 0.583500 0.756800 1.038350
C124 C 0.710900 0.796400 0.884250
C125 C 0.703000 0.873500 0.852580
C126 C 0.699600 0.855400 0.784460
C127 C 0.032000 0.801600 0.788630
C128 C 0.053000 0.721800 0.737640
C129 C 0.681300 0.933500 0.751090
C130 C 0.681200 0.912200 0.685070
C131 C 0.701400 0.815000 0.651430
C132 C 0.719000 0.735400 0.683030
C133 C 0.739500 0.633100 0.650480
C134 C 0.754200 0.556900 0.682690
C135 C 0.060000 0.735000 0.672690
C136 C 0.079000 0.656000 0.624130
C137 C 0.716400 0.755200 0.750980
C138 C 0.730700 0.675100 0.784720
C139 C 0.726500 0.694200 0.852180
C140 C 0.741600 0.615300 0.885030
C141 C 0.760500 0.518500 0.851730
C142 C 0.763900 0.498200 0.785770
C143 C 0.749800 0.574900 0.751410
C144 C 0.068100 0.622600 0.749760
O145 O 0.906500 1.006100 0.864450
O146 O 0.689600 0.972680 0.887450
O147 O 0.607600 0.943800 1.025140
O148 O 0.486900 0.821700 0.940110
O149 O 0.712100 0.817310 0.951560
O150 O 0.151000 0.405300 0.966370
O151 O 0.292900 0.446800 0.886240
O152 O 0.075400 0.492770 0.886930
O153 O 0.063400 0.206600 0.849940
O154 O -0.098300 0.317600 0.822900
O155 O 0.114200 0.330340 0.787250
O156 O 0.241700 -0.143000 0.123210
O157 O 0.093500 -0.006100 0.135550
O158 O 0.310400 0.027320 0.112550
O159 O 0.392400 0.056200 -0.025140
O160 O 0.513100 0.178300 0.059890
O161 O 0.351200 1.111350 0.683440
O162 O 0.566600 1.137300 0.658500
O163 O 0.413200 1.260600 0.643900
O164 O 0.370700 1.022800 0.555490
O165 O 0.164400 1.084600 0.583210
O166 O 0.290800 1.152200 0.505750
O167 O 0.287900 0.182690 0.048440
O168 O 0.648800 -0.111350 0.316560
O169 O 0.885800 0.669660 0.212750
O170 O 1.098300 0.682400 0.177100
O171 O 0.936600 0.793400 0.150060
O172 O 0.924600 0.507230 0.113070
O173 O 0.707100 0.553200 0.113760
O174 O 0.849000 0.594700 0.033630
O175 O 0.433400 -0.137300 0.341500
O176 O 0.586800 -0.260600 0.356100
O177 O 0.629300 -0.022800 0.444510
O178 O 0.835600 -0.084600 0.416790
O179 O 0.709200 -0.152200 0.494250
O180 O 0.758300 1.143000 0.876790
F181 F 0.317700 0.228900 -0.076550
F182 F 0.514800 0.225600 -0.072160
F183 F 0.132600 -0.001500 0.000630
F184 F 0.254100 -0.125400 -0.008960
F185 F 0.064600 -0.150200 0.011070
F186 F 0.855800 0.108300 0.508250
F187 F 0.736900 0.055600 0.573760
F188 F 0.912800 -0.008600 0.556520
F189 F 0.467700 -0.187800 0.207700
F190 F 0.618700 -0.278000 0.215000
F191 F 0.442900 -0.334300 0.236030
F192 F 0.724400 0.341300 0.054760
F193 F 0.862000 0.371300 -0.009220
F194 F 0.678700 0.420800 -0.020030
F195 F 1.081900 0.783300 0.309270
F196 F 0.931000 0.871600 0.289250
F197 F 1.109700 0.900500 0.255270
F198 F 0.144200 0.891700 0.491750
F199 F 0.263100 0.944400 0.426240
F200 F 0.087200 1.008600 0.443480
F201 F -0.109700 0.099500 0.744730
F202 F 0.069000 0.128400 0.710750
F203 F -0.081900 0.216700 0.690730
F204 F 0.321300 0.579200 1.020030
F205 F 0.138000 0.628700 1.009220
F206 F 0.275600 0.658700 0.945240
F207 F 0.532300 1.187800 0.792300
F208 F 0.381300 1.278000 0.785000
F209 F 0.574700 0.662000 1.005640
F210 F 0.682300 0.771100 1.076550
F211 F 0.485200 0.774400 1.072160
F212 F 0.867400 1.001500 0.999370
F213 F 0.745900 1.125400 1.008960
F214 F 0.935400 1.150200 0.988930
F215 F 0.425300 0.338000 -0.005640
F216 F 0.557100 1.334300 0.763970
S217 S 0.249380 1.072330 0.534790
S218 S 0.193920 0.468750 0.925960
S219 S 0.006780 0.261640 0.808490
S220 S 0.537810 -0.188550 0.322720
S221 S 0.750620 -0.072330 0.465210
S222 S 0.806080 0.531250 0.074040
S223 S 0.993220 0.738360 0.191510
S224 S 0.412400 0.152490 0.015160
S225 S 0.195990 -0.053840 0.107780
S226 S 0.804010 1.053840 0.892220
S227 S 0.587600 0.847510 0.984840
S228 S 0.462190 1.188550 0.677280
Br229 Br 0.221020 0.576850 0.361231
Br230 Br 0.778980 0.423150 0.638769
Br231 Br 0.744840 0.607230 0.560940
Br232 Br 0.567220 0.510250 0.365760
Br233 Br 0.600860 0.407030 0.215940
Br234 Br 0.908720 0.324180 0.459819
Br235 Br 0.956220 0.132840 0.343071
Br236 Br 0.432780 0.489750 0.634240
Br237 Br 0.399140 0.592970 0.784060
Br238 Br 0.091280 0.675820 0.540181
Br239 Br 0.255160 0.392770 0.439060
Br240 Br 0.043780 0.867160 0.656929

#END
