./ABUSOF_from_POSCAR.cif_generated_by_CrystalShift
_symmetry_cell_setting triclinic
_symmetry_space_group_name_H-M 'P 1'
loop_
_symmetry_equiv_pos_site_id
_symmetry_equiv_pos_as_xyz
1 x,y,z
_cell_length_a 10.461500
_cell_length_b 12.655500
_cell_length_c 23.024000
_cell_angle_alpha 90.000000
_cell_angle_beta 104.166000
_cell_angle_gamma 90.000000
_cell_volume 2955.578554
loop_
_atom_site_label
_atom_site_type_symbol
_atom_site_fract_x
_atom_site_fract_y
_atom_site_fract_z
H1 H 1.404300 0.499000 0.216100
H2 H 0.671900 0.590100 0.178700
H3 H 0.606100 0.664000 0.217700
H4 H -0.006400 0.246900 -0.071900
H5 H 0.693700 0.712600 0.178100
H6 H -0.229100 0.251700 -0.075200
H7 H 0.821000 0.803200 0.269700
H8 H -0.309200 0.179600 -0.000300
H9 H 0.738600 0.747700 0.309400
H10 H -0.172400 0.095700 0.079500
H11 H 0.892700 0.737700 0.326100
H12 H 0.771300 0.478900 0.260500
H13 H 0.700100 0.553300 0.310100
H14 H 0.300000 0.073300 0.095400
H15 H 0.994900 0.427600 0.305800
H16 H 1.497700 0.363600 0.280900
H17 H 1.063800 0.446700 0.375600
H18 H 0.532500 0.757400 0.406200
H19 H 0.465900 0.918700 0.362000
H20 H 0.218400 0.405900 -0.041900
H21 H 0.553000 1.071900 0.407900
H22 H 0.291900 0.566900 0.002200
H23 H 0.708100 1.066900 0.497800
H24 H 0.447000 0.571900 0.092100
H25 H 0.781600 0.905900 0.541900
H26 H 0.534100 0.418700 0.138000
H27 H 0.700000 0.573300 0.404600
H28 H 0.467500 0.257400 0.093800
H29 H 1.172400 0.595700 0.420500
H30 H 1.309200 0.679600 0.500300
H31 H -0.063800 -0.053300 0.124400
H32 H 0.005100 -0.072400 0.194200
H33 H 1.229100 0.751700 0.575200
H34 H 0.299900 0.053300 0.189900
H35 H 0.228700 -0.021100 0.239500
H36 H 1.006400 0.746900 0.571900
H37 H 1.404300 1.001000 0.716100
H38 H 0.107300 0.237700 0.173900
H39 H 0.261400 0.247700 0.190600
H40 H 0.179000 0.303200 0.230300
H41 H 1.497700 1.136400 0.780900
H42 H 0.306300 0.212600 0.321900
H43 H 0.393900 0.164000 0.282300
H44 H 0.328100 0.090100 0.321300
H45 H 1.498700 1.127700 0.880600
H46 H 1.404600 0.986600 0.916700
H47 H -0.047700 0.246600 0.227400
H48 H 1.313600 0.849400 0.854100
H49 H 1.195400 0.540600 0.122800
H50 H 1.071900 0.400100 0.075300
H51 H -0.195400 0.040600 0.377200
H52 H 0.795400 1.050300 0.665200
H53 H -0.071900 -0.099900 0.424700
H54 H 0.875000 1.145500 0.596900
H55 H 0.125000 -0.145500 0.403100
H56 H 1.071900 1.099900 0.575300
H57 H 0.204600 -0.050300 0.334800
H58 H 1.195400 0.959400 0.622800
H59 H 1.498700 0.372300 0.380600
H60 H 1.047700 0.753400 0.772600
H61 H 1.404600 0.513400 0.416700
H62 H 0.671900 0.909900 0.678700
H63 H 0.606100 0.836000 0.717700
H64 H -0.313600 0.150600 0.145900
H65 H 0.693700 0.787400 0.678100
H66 H -0.404600 0.013400 0.083300
H67 H 0.821000 0.696800 0.769700
H68 H -0.498700 -0.127700 0.119400
H69 H 0.738600 0.752300 0.809400
H70 H -0.497700 -0.136400 0.219100
H71 H 0.892700 0.762300 0.826100
H72 H -0.404300 -0.001000 0.283900
H73 H 0.771300 1.021100 0.760500
H74 H 0.700100 0.946700 0.810100
H75 H 0.994900 1.072400 0.805800
H76 H -0.006400 0.253100 0.428100
H77 H 1.063800 1.053300 0.875600
H78 H -0.229100 0.248300 0.424800
H79 H 0.532500 0.742600 0.906200
H80 H -0.309200 0.320400 0.499700
H81 H 0.465900 0.581300 0.862000
H82 H -0.172400 0.404300 0.579500
H83 H 0.553000 0.428100 0.907900
H84 H 0.708100 0.433100 0.997800
H85 H 0.781600 0.594100 1.041900
H86 H 0.300000 0.426700 0.595400
H87 H 0.875000 0.354500 0.096900
H88 H 1.313600 0.650600 0.354100
H89 H 0.700000 0.926700 0.904600
H90 H 1.172400 0.904300 0.920500
H91 H 1.309200 0.820400 1.000300
H92 H 0.218400 0.094100 0.458100
H93 H 1.229100 0.748300 1.075200
H94 H 0.291900 -0.066900 0.502200
H95 H 1.006400 0.753100 1.071900
H96 H 0.447000 -0.071900 0.592100
H97 H -0.404300 0.501000 0.783900
H98 H 0.534100 0.081300 0.638000
H99 H -0.497700 0.636400 0.719100
H100 H 0.467500 0.242600 0.593800
H101 H -0.498700 0.627700 0.619400
H102 H -0.404600 0.486600 0.583300
H103 H -0.063800 0.553300 0.624400
H104 H 0.005100 0.572400 0.694200
H105 H -0.313600 0.349400 0.645900
H106 H 0.299900 0.446700 0.689900
H107 H 0.228700 0.521100 0.739500
H108 H 0.795400 0.449700 0.165200
H109 H 1.047700 0.746600 0.272600
H110 H 0.107300 0.262300 0.673900
H111 H 0.261400 0.252300 0.690600
H112 H 0.179000 0.196800 0.730300
H113 H 0.204600 0.550300 0.834800
H114 H 0.306300 0.287400 0.821900
H115 H 0.393900 0.336000 0.782300
H116 H 0.328100 0.409900 0.821300
H117 H 0.125000 0.645500 0.903100
H118 H -0.071900 0.599900 0.924700
H119 H -0.047700 0.253400 0.727400
H120 H -0.195400 0.459400 0.877200
C121 C -0.068300 0.422800 0.826070
C122 C -0.116200 0.477900 0.868300
C123 C 1.033500 0.693000 0.244120
C124 C -0.042000 0.560900 0.896440
C125 C -0.033500 0.307000 0.755880
C126 C 0.077300 0.588200 0.883710
C127 C 0.074100 0.369300 0.769240
C128 C 0.124800 0.531600 0.842910
C129 C 0.317300 0.346700 0.797590
C130 C 0.053000 0.445500 0.813450
C131 C 1.350900 0.587100 0.279360
C132 C 0.184800 0.257900 0.706400
C133 C 0.195400 0.357500 0.745210
C134 C -0.350900 0.412900 0.720640
C135 C -0.350400 0.407300 0.660740
C136 C 0.214500 0.455700 0.707840
C137 C -0.405200 0.488900 0.623580
C138 C 0.005100 0.540600 0.657810
C139 C -0.460700 0.573500 0.645200
C140 C 0.103000 0.477400 0.653500
C141 C -0.460400 0.578500 0.704600
C142 C 0.431700 0.180300 0.575390
C143 C -0.404900 0.497800 0.743470
C144 C 0.471500 0.084000 0.601560
C145 C 0.925900 0.630700 0.230760
C146 C 0.956300 0.836300 0.993950
C147 C 1.039000 0.784300 1.041930
C148 C 0.419400 -0.007100 0.574280
C149 C 1.171000 0.781000 1.043160
C150 C 0.326200 -0.004100 0.520640
C151 C 1.219400 0.824800 0.998210
C152 C 0.283100 0.091800 0.493900
C153 C 1.138200 0.874700 0.950510
C154 C 0.337600 0.183000 0.521070
C155 C 1.004200 0.880600 0.947320
C156 C 0.892900 0.925000 0.903700
C157 C 0.785300 0.907400 0.924370
C158 C 1.350400 0.592700 0.339260
C159 C 0.875200 0.468400 0.157090
C160 C 1.405200 0.511100 0.376420
C161 C 0.922700 0.411800 0.116290
C162 C 0.662400 0.683000 0.978930
C163 C 0.716900 0.591800 1.006100
C164 C 0.214700 0.407400 0.575630
C165 C 0.673800 0.495900 0.979360
C166 C 0.107100 0.425000 0.596300
C167 C 0.580600 0.492900 0.925720
C168 C -0.004200 0.380600 0.552680
C169 C 0.528500 0.584000 0.898440
C170 C -0.138200 0.374700 0.549490
C171 C 0.568300 0.680300 0.924610
C172 C -0.219400 0.324800 0.501790
C173 C 0.897000 0.977400 0.846500
C174 C 0.994900 1.040600 0.842190
C175 C -0.171000 0.281000 0.456840
C176 C -0.039000 0.284300 0.458070
C177 C 0.785500 0.955700 0.792160
C178 C 0.043700 0.336300 0.506050
C179 C 0.043700 0.163700 0.006050
C180 C 0.804600 0.857500 0.754790
C181 C 0.815200 0.757900 0.793600
C182 C -0.404900 0.002200 0.243470
C183 C -0.460400 -0.078500 0.204600
C184 C -0.460700 -0.073500 0.145200
C185 C 0.682700 0.846700 0.702410
C186 C -0.405200 0.011100 0.123580
C187 C -0.350400 0.092700 0.160740
C188 C -0.350900 0.087100 0.220640
C189 C 0.925900 0.869300 0.730760
C190 C 1.033500 0.807000 0.744120
C191 C 1.460700 0.426500 0.354800
C192 C 0.947000 0.554500 0.186550
C193 C 1.068300 0.922800 0.673930
C194 C 1.116200 0.977900 0.631700
C195 C 0.053000 0.054500 0.313450
C196 C 1.042000 1.060900 0.603560
C197 C 0.124800 -0.031600 0.342910
C198 C 0.922700 1.088200 0.616290
C199 C 0.077300 -0.088200 0.383710
C200 C 0.875200 1.031600 0.657090
C201 C -0.042000 -0.060900 0.396440
C202 C 0.947000 0.945500 0.686550
C203 C -0.116200 0.022100 0.368300
C204 C 1.042000 0.439100 0.103560
C205 C -0.068300 0.077200 0.326070
C206 C 1.350900 0.912900 0.779360
C207 C 1.350400 0.907300 0.839260
C208 C -0.039000 0.215700 -0.041930
C209 C 1.405200 0.988900 0.876420
C210 C -0.033500 0.193000 0.255880
C211 C 1.460700 1.073500 0.854800
C212 C 0.074100 0.130700 0.269240
C213 C 1.460400 1.078500 0.795400
C214 C 0.317300 0.153300 0.297590
C215 C 1.404900 0.997800 0.756530
C216 C 0.184800 0.242100 0.206400
C217 C -0.171000 0.219000 -0.043160
C218 C 0.956300 0.663700 0.493950
C219 C 1.039000 0.715700 0.541930
C220 C 0.195400 0.142500 0.245210
C221 C 1.171000 0.719000 0.543160
C222 C 0.214500 0.044300 0.207840
C223 C 1.219400 0.675200 0.498210
C224 C 0.005100 -0.040600 0.157810
C225 C 1.138200 0.625300 0.450510
C226 C 0.103000 0.022600 0.153500
C227 C 1.004200 0.619400 0.447320
C228 C 0.892900 0.575000 0.403700
C229 C 0.785300 0.592600 0.424370
C230 C 0.431700 0.319700 0.075390
C231 C 1.116200 0.522100 0.131700
C232 C 1.068300 0.577200 0.173930
C233 C 0.682700 0.653300 0.202410
C234 C 0.662400 0.817000 0.478930
C235 C 0.716900 0.908200 0.506100
C236 C 0.471500 0.416000 0.101560
C237 C 0.673800 1.004100 0.479360
C238 C 0.419400 0.507100 0.074280
C239 C 0.580600 1.007100 0.425720
C240 C 0.326200 0.504100 0.020640
C241 C 0.528500 0.916000 0.398440
C242 C 0.283100 0.408200 -0.006100
C243 C 0.568300 0.819700 0.424610
C244 C 0.337600 0.317000 0.021070
C245 C 0.897000 0.522600 0.346500
C246 C 0.994900 0.459400 0.342190
C247 C 1.460400 0.421500 0.295400
C248 C 1.404900 0.502200 0.256530
C249 C 0.785500 0.544300 0.292160
C250 C 0.214700 0.092600 0.075630
C251 C 0.107100 0.075000 0.096300
C252 C 0.804600 0.642500 0.254790
C253 C 0.815200 0.742100 0.293600
C254 C -0.004200 0.119400 0.052680
C255 C -0.138200 0.125300 0.049490
C256 C -0.219400 0.175200 0.001790
N257 N 0.819800 0.644400 0.480130
N258 N -0.121900 0.165590 0.291020
N259 N 0.180200 0.355600 0.519870
N260 N 0.819800 0.855600 0.980130
N261 N -0.121900 0.334410 0.791020
N262 N 1.121900 0.834410 0.708980
N263 N 1.121900 0.665590 0.208980
N264 N 0.180200 0.144400 0.019870
O265 O 0.772900 0.711000 0.574270
O266 O 0.227100 0.211000 -0.074270
O267 O 1.333600 0.811830 0.680360
O268 O 1.291500 0.713820 0.766480
O269 O 0.402500 0.125300 0.003590
O270 O 0.597500 0.874700 0.996410
O271 O 0.772900 0.789000 1.074270
O272 O -0.291500 0.286180 0.233520
O273 O -0.333600 0.311830 0.819640
O274 O -0.291500 0.213820 0.733520
O275 O -0.333600 0.188170 0.319640
O276 O 1.291500 0.786180 0.266480
O277 O 1.333600 0.688170 0.180360
O278 O 0.227100 0.289000 0.425730
O279 O 0.402500 0.374700 0.503590
O280 O 0.597500 0.625300 0.496410
S281 S 0.291200 0.306190 0.487110
S282 S 1.281760 0.691790 0.231780
S283 S 0.708800 0.806190 1.012890
S284 S -0.281760 0.191790 0.268220
S285 S 1.281760 0.808210 0.731780
S286 S 0.708800 0.693810 0.512890
S287 S 0.291200 0.193810 -0.012890
S288 S -0.281760 0.308210 0.768220

#END
