./ABUSUN_from_POSCAR.cif_generated_by_CrystalShift
_symmetry_cell_setting triclinic
_symmetry_space_group_name_H-M 'P 1'
loop_
_symmetry_equiv_pos_site_id
_symmetry_equiv_pos_as_xyz
1 x,y,z
_cell_length_a 12.771000
_cell_length_b 9.914000
_cell_length_c 18.545000
_cell_angle_alpha 90.000000
_cell_angle_beta 90.000000
_cell_angle_gamma 90.000000
_cell_volume 2348.013865
loop_
_atom_site_label
_atom_site_type_symbol
_atom_site_fract_x
_atom_site_fract_y
_atom_site_fract_z
H1 H 0.866300 -0.067100 0.618800
H2 H 0.976300 -0.006200 0.637400
H3 H 0.741900 1.136200 0.353700
H4 H 0.697400 0.305100 0.512600
H5 H 0.636900 1.023000 0.446900
H6 H 0.727200 0.131500 0.591700
H7 H 1.032200 0.162900 0.557800
H8 H 1.003600 0.336200 0.477800
H9 H 0.864700 1.177500 0.227400
H10 H 0.593400 0.210700 0.252900
H11 H 0.968900 1.055200 0.148300
H12 H 0.508500 0.327400 0.162400
H13 H 0.991500 0.827400 0.162400
H14 H 0.531100 0.555200 0.148300
H15 H 0.906600 0.710700 0.252900
H16 H 0.635300 0.677500 0.227400
H17 H 0.863100 0.523000 0.446900
H18 H 0.758100 0.636200 0.353700
H19 H 0.496400 0.836200 0.477800
H20 H 0.633700 1.067100 1.118800
H21 H 0.467800 0.662900 0.557800
H22 H 0.622500 0.962900 1.181900
H23 H 0.523700 1.006200 1.137400
H24 H 0.772800 0.631500 0.591700
H25 H 0.802600 0.694900 1.012600
H26 H 0.802600 0.805100 0.512600
H27 H 0.772800 0.868500 1.091700
H28 H 0.523700 0.493800 0.637400
H29 H 0.622500 0.537100 0.681900
H30 H 0.633700 0.432900 0.618800
H31 H 0.467800 0.837100 1.057800
H32 H 0.496400 0.663800 0.977800
H33 H 0.758100 -0.136200 0.853700
H34 H 0.906600 0.789300 0.752900
H35 H 0.863100 -0.023000 0.946900
H36 H 0.991500 0.672600 0.662400
H37 H 0.968900 0.444800 0.648300
H38 H 0.864700 0.322500 0.727400
H39 H 0.635300 -0.177500 0.727400
H40 H 0.636900 0.477000 0.946900
H41 H 0.531100 -0.055200 0.648300
H42 H 0.741900 0.363800 0.853700
H43 H 0.508500 0.172600 0.662400
H44 H 0.133700 0.432900 -0.118800
H45 H 0.593400 0.289300 0.752900
H46 H 0.122500 0.537100 -0.181900
H47 H 0.023700 0.493800 -0.137400
H48 H 0.302600 0.805100 -0.012600
H49 H 1.003600 0.163800 0.977800
H50 H 0.272800 0.631500 -0.091700
H51 H 1.032200 0.337100 1.057800
H52 H -0.032200 0.662900 -0.057800
H53 H -0.003600 0.836200 0.022200
H54 H 0.727200 0.368500 1.091700
H55 H 0.406600 0.710700 0.247100
H56 H 0.697400 0.194900 1.012600
H57 H 0.491500 0.827400 0.337600
H58 H 0.976300 0.506200 1.137400
H59 H 0.877500 0.462900 1.181900
H60 H 0.866300 0.567100 1.118800
H61 H 0.468900 1.055200 0.351700
H62 H 0.364700 1.177500 0.272600
H63 H 0.258100 0.636200 0.146300
H64 H 0.136900 1.023000 0.053100
H65 H 0.363100 0.523000 0.053100
H66 H 0.241900 1.136200 0.146300
H67 H 0.366300 0.567100 0.381200
H68 H 0.377500 0.462900 0.318100
H69 H 0.135300 0.677500 0.272600
H70 H 0.476300 0.506200 0.362600
H71 H 0.031100 0.555200 0.351700
H72 H 0.197400 0.194900 0.487400
H73 H 0.008500 0.327400 0.337600
H74 H 0.227200 0.368500 0.408300
H75 H 0.093400 0.210700 0.247100
H76 H 0.532200 0.337100 0.442200
H77 H 0.503600 0.163800 0.522200
H78 H 0.093400 0.289300 0.747100
H79 H 0.503600 0.336200 0.022200
H80 H 0.008500 0.172600 0.837600
H81 H 0.532200 0.162900 -0.057800
H82 H 0.031100 -0.055200 0.851700
H83 H 0.135300 -0.177500 0.772600
H84 H 0.227200 0.131500 -0.091700
H85 H 0.363100 -0.023000 0.553100
H86 H 0.197400 0.305100 -0.012600
H87 H 0.258100 -0.136200 0.646300
H88 H 0.476300 -0.006200 -0.137400
H89 H 0.377500 0.037100 -0.181900
H90 H 0.366300 -0.067100 -0.118800
H91 H 0.133700 1.067100 0.381200
H92 H 0.122500 0.962900 0.318100
H93 H 0.241900 0.363800 0.646300
H94 H 0.023700 1.006200 0.362600
H95 H 0.136900 0.477000 0.553100
H96 H 0.302600 0.694900 0.487400
H97 H 0.272800 0.868500 0.408300
H98 H -0.032200 0.837100 0.442200
H99 H 0.364700 0.322500 0.772600
H100 H -0.003600 0.663800 0.522200
H101 H 0.468900 0.444800 0.851700
H102 H 0.406600 0.789300 0.747100
H103 H 0.491500 0.672600 0.837600
H104 H 0.877500 0.037100 0.681900
C105 C 0.448200 0.626400 0.805770
C106 C 0.236200 0.557100 0.618730
C107 C 0.152900 0.661800 0.513370
C108 C 0.052900 0.704900 0.499420
C109 C 0.435200 0.488700 0.813960
C110 C 0.036100 0.809600 0.451420
C111 C 0.373300 0.415100 0.767270
C112 C 0.116800 0.874100 0.417120
C113 C 0.216300 0.828100 0.431300
C114 C 0.324900 0.485300 0.712490
C115 C 0.234400 0.723600 0.478800
C116 C 0.335750 0.624400 0.704190
C117 C 0.097400 0.987900 0.365030
C118 C 0.902600 0.012100 0.634970
C119 C 0.765600 0.276400 0.521200
C120 C 0.835750 0.875600 0.295810
C121 C 0.783700 0.171900 0.568700
C122 C 0.883200 0.125900 0.582880
C123 C 0.402600 0.012100 -0.134970
C124 C 0.824900 1.014700 0.287510
C125 C 0.265600 0.276400 -0.021200
C126 C 0.164250 0.124400 0.704190
C127 C 0.175100 -0.014700 0.712490
C128 C 0.126700 -0.084900 0.767270
C129 C 0.283700 0.171900 -0.068700
C130 C 0.064800 -0.011300 0.813960
C131 C 0.383200 0.125900 -0.082880
C132 C 0.051800 0.126400 0.805770
C133 C 0.463900 0.190400 -0.048580
C134 C 0.101500 0.196500 0.751730
C135 C 0.447100 0.295100 -0.000580
C136 C 0.263800 0.057100 0.618730
C137 C 0.347100 0.161800 0.513370
C138 C 0.447100 0.204900 0.499420
C139 C 0.347100 0.338200 0.013370
C140 C 0.463900 0.309600 0.451420
C141 C 0.263800 0.442900 0.118730
C142 C 0.383200 0.374100 0.417120
C143 C 0.283700 0.328100 0.431300
C144 C 0.101500 0.303500 0.251730
C145 C 0.265600 0.223600 0.478800
C146 C 0.051800 0.373600 0.305770
C147 C 0.402600 0.487900 0.365030
C148 C 0.064800 0.511300 0.313960
C149 C 0.126700 0.584900 0.267270
C150 C 0.175100 0.514700 0.212490
C151 C 0.963900 0.190400 0.548580
C152 C 0.873300 1.084900 0.232730
C153 C 0.164250 0.375600 0.204190
C154 C 0.947100 0.295100 0.500580
C155 C 0.847100 0.338200 0.486630
C156 C 0.335750 0.875600 0.204190
C157 C 0.324900 1.014700 0.212490
C158 C 0.373300 1.084900 0.267270
C159 C 0.763800 0.442900 0.381270
C160 C 0.435200 1.011300 0.313960
C161 C 0.935200 1.011300 0.186040
C162 C 0.448200 0.873600 0.305770
C163 C 0.902600 0.487900 1.134970
C164 C 0.398500 0.803500 0.251730
C165 C 0.765600 0.223600 1.021200
C166 C 0.236200 0.942900 0.118730
C167 C 0.152900 0.838200 0.013370
C168 C 0.052900 0.795100 -0.000580
C169 C 0.783700 0.328100 1.068700
C170 C 0.036100 0.690400 -0.048580
C171 C 0.883200 0.374100 1.082880
C172 C 0.116800 0.625900 -0.082880
C173 C 0.216300 0.671900 -0.068700
C174 C 0.963900 0.309600 1.048580
C175 C 0.234400 0.776400 -0.021200
C176 C 0.947100 0.204900 1.000580
C177 C 0.097400 0.512100 -0.134970
C178 C 0.847100 0.161800 0.986630
C179 C 0.763800 0.057100 0.881270
C180 C 0.601500 0.196500 0.748270
C181 C 0.601500 0.303500 0.248270
C182 C 0.948200 0.873600 0.194230
C183 C 0.551800 0.126400 0.694230
C184 C 0.551800 0.373600 0.194230
C185 C 0.564800 -0.011300 0.686040
C186 C 0.835750 0.624400 0.795810
C187 C 0.824900 0.485300 0.787510
C188 C 0.873300 0.415100 0.732730
C189 C 0.626700 -0.084900 0.732730
C190 C 0.935200 0.488700 0.686040
C191 C 0.675100 -0.014700 0.787510
C192 C 0.948200 0.626400 0.694230
C193 C 0.664250 0.124400 0.795810
C194 C 0.898500 0.696500 0.748270
C195 C 0.898500 0.803500 0.248270
C196 C 0.736200 0.557100 0.881270
C197 C 0.652900 0.661800 0.986630
C198 C 0.552900 0.704900 1.000580
C199 C 0.564800 0.511300 0.186040
C200 C 0.536100 0.809600 1.048580
C201 C 0.736200 0.942900 0.381270
C202 C 0.616800 0.874100 1.082880
C203 C 0.716300 0.828100 1.068700
C204 C 0.597400 0.512100 0.634970
C205 C 0.734400 0.723600 1.021200
C206 C 0.734400 0.776400 0.521200
C207 C 0.597400 0.987900 1.134970
C208 C 0.716300 0.671900 0.568700
C209 C 0.616800 0.625900 0.582880
C210 C 0.536100 0.690400 0.548580
C211 C 0.626700 0.584900 0.232730
C212 C 0.675100 0.514700 0.287510
C213 C 0.552900 0.795100 0.500580
C214 C 0.664250 0.375600 0.295810
C215 C 0.652900 0.838200 0.486630
C216 C 0.398500 0.696500 0.751730
N217 N 0.738570 0.555110 0.344140
N218 N 0.721090 0.332020 0.355690
N219 N 0.721090 0.167980 0.855690
N220 N 0.738570 -0.055110 0.844140
N221 N 0.830000 0.051100 0.938910
N222 N 0.670000 0.551100 0.938910
N223 N 0.761430 0.444890 0.844140
N224 N 0.778910 0.667980 0.855690
N225 N 0.221090 0.332020 0.144310
N226 N 0.238570 0.555110 0.155860
N227 N 0.330000 0.448900 0.061090
N228 N 0.170000 0.948900 0.061090
N229 N 0.261430 1.055110 0.155860
N230 N 0.278910 0.832020 0.144310
N231 N 0.330000 0.051100 0.561090
N232 N 0.238570 -0.055110 0.655860
N233 N 0.221090 0.167980 0.644310
N234 N 0.278910 0.667980 0.644310
N235 N 0.261430 0.444890 0.655860
N236 N 0.670000 0.948900 0.438910
N237 N 0.170000 0.551100 0.561090
N238 N 0.761430 1.055110 0.344140
N239 N 0.830000 0.448900 0.438910
N240 N 0.778910 0.832020 0.355690

#END
