./ABUSOH_from_POSCAR.cif_generated_by_CrystalShift
_symmetry_cell_setting triclinic
_symmetry_space_group_name_H-M 'P 1'
loop_
_symmetry_equiv_pos_site_id
_symmetry_equiv_pos_as_xyz
1 x,y,z
_cell_length_a 10.102000
_cell_length_b 10.247000
_cell_length_c 10.715000
_cell_angle_alpha 67.098000
_cell_angle_beta 63.868000
_cell_angle_gamma 77.085000
_cell_volume 915.469746
loop_
_atom_site_label
_atom_site_type_symbol
_atom_site_fract_x
_atom_site_fract_y
_atom_site_fract_z
H1 H 1.265200 0.527000 -0.177700
H2 H 1.363100 0.231700 0.300300
H3 H 0.334100 0.887500 -0.271500
H4 H 1.457600 0.304000 0.048400
H5 H 0.195600 0.919100 -0.403600
H6 H 1.081900 0.531100 0.051400
H7 H -0.057000 0.896000 -0.284800
H8 H 0.985000 0.457400 0.303100
H9 H -0.172500 0.839400 -0.033100
H10 H 0.343600 0.256400 0.611100
H11 H 0.454800 0.150700 0.533700
H12 H 0.472000 0.314600 0.456900
H13 H 0.621100 0.040200 0.907700
H14 H 0.473400 0.051100 0.791800
H15 H 0.206000 0.599400 0.399300
H16 H 0.644700 0.409500 0.486100
H17 H 0.355300 0.590500 0.513900
H18 H 0.794000 0.400600 0.600700
H19 H 1.172500 0.160600 1.033100
H20 H 0.526600 0.948900 0.208200
H21 H 1.057000 0.104000 1.284800
H22 H 0.378900 0.959800 0.092300
H23 H 0.804400 0.080900 1.403600
H24 H 0.528000 0.685400 0.543100
H25 H 0.545200 0.849300 0.466300
H26 H 0.656400 0.743600 0.388900
H27 H 0.665900 0.112500 1.271500
H28 H 1.376100 0.392800 -0.175900
H29 H 1.421900 0.533400 -0.184500
H30 H -0.265200 0.473000 1.177700
H31 H 0.015000 0.542600 0.696900
H32 H -0.376100 0.607200 1.175900
H33 H -0.081900 0.468900 0.948600
H34 H -0.421900 0.466600 1.184500
H35 H -0.363100 0.768300 0.699700
H36 H -0.457600 0.696000 0.951600
C37 C -0.305700 0.707400 0.749700
C38 C -0.362500 0.664000 0.900600
C39 C -0.341500 0.525700 1.144200
C40 C -0.280000 0.573700 0.977100
C41 C -0.139100 0.529700 0.898200
C42 C -0.080900 0.573100 0.747700
C43 C -0.164900 0.662300 0.670600
C44 C -0.103500 0.707300 0.512100
C45 C 0.834500 0.154600 1.070100
C46 C 0.767400 0.121700 1.223100
C47 C -0.045700 0.738000 0.381500
C48 C 0.849800 0.103100 1.301800
C49 C 0.555500 0.761100 0.450200
C50 C 1.001900 0.117300 1.230000
C51 C 0.373000 0.884200 0.177900
C52 C 1.071200 0.150400 1.080300
C53 C 0.461800 0.877900 0.247900
C54 C 0.986500 0.168800 0.998500
C55 C 0.973200 0.224000 0.776200
C56 C 0.817000 0.206700 0.849000
C57 C 0.724500 0.218600 0.768600
C58 C 0.729600 0.329200 0.640500
C59 C 0.456400 0.768900 0.375100
C60 C 0.639700 0.334000 0.571500
C61 C 0.360300 0.666000 0.428500
C62 C 0.543600 0.231100 0.624900
C63 C 0.538200 0.122100 0.752100
C64 C 0.270400 0.670800 0.359500
C65 C 0.627000 0.115800 0.822100
C66 C 0.275500 0.781400 0.231400
C67 C 0.444500 0.238900 0.549800
C68 C 0.183000 0.793300 0.151000
C69 C 0.026800 0.776000 0.223800
C70 C 0.013500 0.831200 0.001500
C71 C 1.045700 0.262000 0.618500
C72 C 1.103500 0.292700 0.487900
C73 C 1.164900 0.337700 0.329400
C74 C 1.080900 0.426900 0.252300
C75 C -0.071200 0.849600 -0.080300
C76 C 1.139100 0.470300 0.101800
C77 C -0.001900 0.882700 -0.230000
C78 C 1.280000 0.426300 0.022900
C79 C 1.362500 0.336000 0.099400
C80 C 0.150200 0.896900 -0.301800
C81 C 1.305700 0.292600 0.250300
C82 C 0.232600 0.878300 -0.223100
C83 C 1.341500 0.474300 -0.144200
C84 C 0.165500 0.845400 -0.070100
N85 N 0.250500 0.828400 0.006000
N86 N 0.749500 0.171600 0.994000
N87 N 1.057400 0.206500 0.847900
N88 N -0.057400 0.793500 0.152100

#END
