
#######################################################################
#
#                 Cambridge Crystallographic Data Centre
#                                CCDC 
#
#######################################################################
#
# If this CIF has been generated from an entry in the Cambridge 
# Structural Database, then it will include bibliographic, chemical, 
# crystal, experimental, refinement or atomic coordinate data resulting 
# from the CCDC's data processing and validation procedures.
#
#######################################################################

data_ACACTA
_symmetry_cell_setting           orthorhombic
_symmetry_space_group_name_H-M   'P c a b'
_symmetry_Int_Tables_number      61
_space_group_name_Hall           '-P 2bc 2ac'
loop_
_symmetry_equiv_pos_site_id
_symmetry_equiv_pos_as_xyz
1 x,y,z
2 1/2-x,y,1/2+z
3 1/2+x,1/2-y,z
4 -x,1/2-y,1/2+z
5 -x,-y,-z
6 1/2+x,-y,1/2-z
7 1/2-x,1/2+y,-z
8 x,1/2+y,1/2-z
_cell_length_a                   9.32(1)
_cell_length_b                   25.13(2)
_cell_length_c                   7.691(5)
_cell_angle_alpha                90
_cell_angle_beta                 90
_cell_angle_gamma                90
_cell_volume                     1801.32
loop_
_atom_site_label
_atom_site_type_symbol
_atom_site_fract_x
_atom_site_fract_y
_atom_site_fract_z
O1 O 0.24280 0.50820 0.35230
O2 O 0.35920 0.25650 0.47180
N1 N 0.46060 0.47050 0.29230
C1 C 0.43420 0.41670 0.34490
C2 C 0.32460 0.40180 0.45950
C3 C 0.30430 0.34800 0.49910
C4 C 0.39250 0.30880 0.42760
C5 C 0.50630 0.32350 0.31880
C6 C 0.52630 0.37740 0.27870
C7 C 0.36480 0.51160 0.29340
C8 C 0.42010 0.56370 0.21230
C9 C 0.42160 0.21510 0.36650
H1 H 0.25400 0.42700 0.50800
H2 H 0.21900 0.34100 0.56600
H3 H 0.57900 0.29400 0.26200
H4 H 0.60200 0.38600 0.19200
H5 H 0.55400 0.47800 0.26700
H6 H 0.51600 0.56800 0.20200
H7 H 0.35700 0.56800 0.10800
H8 H 0.39700 0.59100 0.30600
H9 H 0.38800 0.22000 0.22900
H10 H 0.36800 0.18200 0.41000
H11 H 0.52800 0.21100 0.38300
O1 O 0.25720 0.50820 0.85230
O2 O 0.14080 0.25650 0.97180
N1 N 0.03940 0.47050 0.79230
C1 C 0.06580 0.41670 0.84490
C2 C 0.17540 0.40180 0.95950
C3 C 0.19570 0.34800 0.99910
C4 C 0.10750 0.30880 0.92760
C5 C -0.00630 0.32350 0.81880
C6 C -0.02630 0.37740 0.77870
C7 C 0.13520 0.51160 0.79340
C8 C 0.07990 0.56370 0.71230
C9 C 0.07840 0.21510 0.86650
H1 H 0.24600 0.42700 1.00800
H2 H 0.28100 0.34100 1.06600
H3 H -0.07900 0.29400 0.76200
H4 H -0.10200 0.38600 0.69200
H5 H -0.05400 0.47800 0.76700
H6 H -0.01600 0.56800 0.70200
H7 H 0.14300 0.56800 0.60800
H8 H 0.10300 0.59100 0.80600
H9 H 0.11200 0.22000 0.72900
H10 H 0.13200 0.18200 0.91000
H11 H -0.02800 0.21100 0.88300
O1 O 0.74280 -0.00820 0.35230
O2 O 0.85920 0.24350 0.47180
N1 N 0.96060 0.02950 0.29230
C1 C 0.93420 0.08330 0.34490
C2 C 0.82460 0.09820 0.45950
C3 C 0.80430 0.15200 0.49910
C4 C 0.89250 0.19120 0.42760
C5 C 1.00630 0.17650 0.31880
C6 C 1.02630 0.12260 0.27870
C7 C 0.86480 -0.01160 0.29340
C8 C 0.92010 -0.06370 0.21230
C9 C 0.92160 0.28490 0.36650
H1 H 0.75400 0.07300 0.50800
H2 H 0.71900 0.15900 0.56600
H3 H 1.07900 0.20600 0.26200
H4 H 1.10200 0.11400 0.19200
H5 H 1.05400 0.02200 0.26700
H6 H 1.01600 -0.06800 0.20200
H7 H 0.85700 -0.06800 0.10800
H8 H 0.89700 -0.09100 0.30600
H9 H 0.88800 0.28000 0.22900
H10 H 0.86800 0.31800 0.41000
H11 H 1.02800 0.28900 0.38300
O1 O 0.75720 -0.00820 0.85230
O2 O 0.64080 0.24350 0.97180
N1 N 0.53940 0.02950 0.79230
C1 C 0.56580 0.08330 0.84490
C2 C 0.67540 0.09820 0.95950
C3 C 0.69570 0.15200 0.99910
C4 C 0.60750 0.19120 0.92760
C5 C 0.49370 0.17650 0.81880
C6 C 0.47370 0.12260 0.77870
C7 C 0.63520 -0.01160 0.79340
C8 C 0.57990 -0.06370 0.71230
C9 C 0.57840 0.28490 0.86650
H1 H 0.74600 0.07300 1.00800
H2 H 0.78100 0.15900 1.06600
H3 H 0.42100 0.20600 0.76200
H4 H 0.39800 0.11400 0.69200
H5 H 0.44600 0.02200 0.76700
H6 H 0.48400 -0.06800 0.70200
H7 H 0.64300 -0.06800 0.60800
H8 H 0.60300 -0.09100 0.80600
H9 H 0.61200 0.28000 0.72900
H10 H 0.63200 0.31800 0.91000
H11 H 0.47200 0.28900 0.88300
O1 O 0.75720 0.49180 0.64770
O2 O 0.64080 0.74350 0.52820
N1 N 0.53940 0.52950 0.70770
C1 C 0.56580 0.58330 0.65510
C2 C 0.67540 0.59820 0.54050
C3 C 0.69570 0.65200 0.50090
C4 C 0.60750 0.69120 0.57240
C5 C 0.49370 0.67650 0.68120
C6 C 0.47370 0.62260 0.72130
C7 C 0.63520 0.48840 0.70660
C8 C 0.57990 0.43630 0.78770
C9 C 0.57840 0.78490 0.63350
H1 H 0.74600 0.57300 0.49200
H2 H 0.78100 0.65900 0.43400
H3 H 0.42100 0.70600 0.73800
H4 H 0.39800 0.61400 0.80800
H5 H 0.44600 0.52200 0.73300
H6 H 0.48400 0.43200 0.79800
H7 H 0.64300 0.43200 0.89200
H8 H 0.60300 0.40900 0.69400
H9 H 0.61200 0.78000 0.77100
H10 H 0.63200 0.81800 0.59000
H11 H 0.47200 0.78900 0.61700
O1 O 0.74280 0.49180 0.14770
O2 O 0.85920 0.74350 0.02820
N1 N 0.96060 0.52950 0.20770
C1 C 0.93420 0.58330 0.15510
C2 C 0.82460 0.59820 0.04050
C3 C 0.80430 0.65200 0.00090
C4 C 0.89250 0.69120 0.07240
C5 C 1.00630 0.67650 0.18120
C6 C 1.02630 0.62260 0.22130
C7 C 0.86480 0.48840 0.20660
C8 C 0.92010 0.43630 0.28770
C9 C 0.92160 0.78490 0.13350
H1 H 0.75400 0.57300 -0.00800
H2 H 0.71900 0.65900 -0.06600
H3 H 1.07900 0.70600 0.23800
H4 H 1.10200 0.61400 0.30800
H5 H 1.05400 0.52200 0.23300
H6 H 1.01600 0.43200 0.29800
H7 H 0.85700 0.43200 0.39200
H8 H 0.89700 0.40900 0.19400
H9 H 0.88800 0.78000 0.27100
H10 H 0.86800 0.81800 0.09000
H11 H 1.02800 0.78900 0.11700
O1 O 0.25720 1.00820 0.64770
O2 O 0.14080 0.75650 0.52820
N1 N 0.03940 0.97050 0.70770
C1 C 0.06580 0.91670 0.65510
C2 C 0.17540 0.90180 0.54050
C3 C 0.19570 0.84800 0.50090
C4 C 0.10750 0.80880 0.57240
C5 C -0.00630 0.82350 0.68120
C6 C -0.02630 0.87740 0.72130
C7 C 0.13520 1.01160 0.70660
C8 C 0.07990 1.06370 0.78770
C9 C 0.07840 0.71510 0.63350
H1 H 0.24600 0.92700 0.49200
H2 H 0.28100 0.84100 0.43400
H3 H -0.07900 0.79400 0.73800
H4 H -0.10200 0.88600 0.80800
H5 H -0.05400 0.97800 0.73300
H6 H -0.01600 1.06800 0.79800
H7 H 0.14300 1.06800 0.89200
H8 H 0.10300 1.09100 0.69400
H9 H 0.11200 0.72000 0.77100
H10 H 0.13200 0.68200 0.59000
H11 H -0.02800 0.71100 0.61700
O1 O 0.24280 1.00820 0.14770
O2 O 0.35920 0.75650 0.02820
N1 N 0.46060 0.97050 0.20770
C1 C 0.43420 0.91670 0.15510
C2 C 0.32460 0.90180 0.04050
C3 C 0.30430 0.84800 0.00090
C4 C 0.39250 0.80880 0.07240
C5 C 0.50630 0.82350 0.18120
C6 C 0.52630 0.87740 0.22130
C7 C 0.36480 1.01160 0.20660
C8 C 0.42010 1.06370 0.28770
C9 C 0.42160 0.71510 0.13350
H1 H 0.25400 0.92700 -0.00800
H2 H 0.21900 0.84100 -0.06600
H3 H 0.57900 0.79400 0.23800
H4 H 0.60200 0.88600 0.30800
H5 H 0.55400 0.97800 0.23300
H6 H 0.51600 1.06800 0.29800
H7 H 0.35700 1.06800 0.39200
H8 H 0.39700 1.09100 0.19400
H9 H 0.38800 0.72000 0.27100
H10 H 0.36800 0.68200 0.09000
H11 H 0.52800 0.71100 0.11700

#END
