./ACAFEQ01_from_POSCAR.cif_generated_by_CrystalShift
_symmetry_cell_setting triclinic
_symmetry_space_group_name_H-M 'P 1'
loop_
_symmetry_equiv_pos_site_id
_symmetry_equiv_pos_as_xyz
1 x,y,z
_cell_length_a 17.488000
_cell_length_b 8.751000
_cell_length_c 16.970000
_cell_angle_alpha 90.000000
_cell_angle_beta 108.781000
_cell_angle_gamma 90.000000
_cell_volume 2458.769241
loop_
_atom_site_label
_atom_site_type_symbol
_atom_site_fract_x
_atom_site_fract_y
_atom_site_fract_z
H1 H 0.880000 1.012000 0.879000
H2 H 0.723000 1.335000 0.761000
H3 H 0.775000 1.330000 0.655000
H4 H 0.871000 1.225000 0.593000
H5 H 0.956000 1.215000 0.666000
H6 H 0.965000 0.975000 0.644000
H7 H 1.000000 0.846000 0.515000
H8 H 1.128000 0.739000 0.547000
H9 H 1.045000 0.428000 0.695000
H10 H 1.153000 0.509000 0.640000
H11 H 0.918000 0.565000 0.659000
H12 H 0.839000 0.721000 0.528000
H13 H 0.380000 0.512000 0.879000
H14 H 0.267000 0.671000 0.874000
H15 H 0.223000 0.835000 0.761000
H16 H 0.275000 0.830000 0.655000
H17 H 0.371000 0.725000 0.593000
H18 H 0.339000 0.779000 0.028000
H19 H 0.418000 0.935000 0.159000
H20 H 0.653000 0.991000 0.140000
H21 H 0.545000 1.072000 0.195000
H22 H 0.628000 0.761000 0.047000
H23 H 0.500000 0.654000 0.015000
H24 H 0.465000 0.525000 0.144000
H25 H 0.456000 0.285000 0.166000
H26 H 0.371000 0.275000 0.093000
H27 H 0.275000 0.170000 0.155000
H28 H 0.223000 0.165000 0.261000
H29 H 0.267000 0.329000 0.374000
H30 H 0.380000 0.488000 0.379000
H31 H 0.456000 0.715000 0.666000
H32 H 0.465000 0.475000 0.644000
H33 H 0.500000 0.346000 0.515000
H34 H 0.628000 0.239000 0.547000
H35 H 0.545000 -0.072000 0.695000
H36 H 0.653000 0.009000 0.640000
H37 H 0.418000 0.065000 0.659000
H38 H 0.339000 0.221000 0.528000
H39 H 0.120000 1.012000 0.621000
H40 H 0.233000 1.171000 0.626000
H41 H 0.277000 1.335000 0.739000
H42 H 0.225000 1.330000 0.845000
H43 H 0.129000 1.225000 0.907000
H44 H 0.044000 1.215000 0.834000
H45 H 0.035000 0.975000 0.856000
H46 H 0.000000 0.846000 0.985000
H47 H -0.128000 0.739000 0.953000
H48 H 0.839000 0.279000 0.028000
H49 H 0.918000 0.435000 0.159000
H50 H 1.153000 0.491000 0.140000
H51 H 1.045000 0.572000 0.195000
H52 H 1.128000 0.261000 0.047000
H53 H 1.000000 0.154000 0.015000
H54 H 0.965000 0.025000 0.144000
H55 H 0.956000 -0.215000 0.166000
H56 H 0.871000 -0.225000 0.093000
H57 H 0.775000 -0.330000 0.155000
H58 H 0.723000 -0.335000 0.261000
H59 H 0.767000 -0.171000 0.374000
H60 H 0.880000 -0.012000 0.379000
H61 H -0.045000 0.428000 0.805000
H62 H -0.153000 0.509000 0.860000
H63 H 0.082000 0.565000 0.841000
H64 H 0.161000 0.721000 0.972000
H65 H 0.620000 0.512000 0.621000
H66 H 0.733000 0.671000 0.626000
H67 H 0.777000 0.835000 0.739000
H68 H 0.725000 0.830000 0.845000
H69 H 0.629000 0.725000 0.907000
H70 H 0.544000 0.715000 0.834000
H71 H 0.535000 0.475000 0.856000
H72 H 0.500000 0.346000 0.985000
H73 H 0.372000 0.239000 0.953000
H74 H 0.455000 -0.072000 0.805000
H75 H 0.347000 0.009000 0.860000
H76 H 0.582000 0.065000 0.841000
H77 H 0.661000 0.221000 0.972000
H78 H 0.661000 0.779000 0.472000
H79 H 0.582000 0.935000 0.341000
H80 H 0.347000 0.991000 0.360000
H81 H 0.455000 1.072000 0.305000
H82 H 0.372000 0.761000 0.453000
H83 H 0.500000 0.654000 0.485000
H84 H 0.535000 0.525000 0.356000
H85 H 0.544000 0.285000 0.334000
H86 H 0.629000 0.275000 0.407000
H87 H 0.725000 0.170000 0.345000
H88 H 0.777000 0.165000 0.239000
H89 H 0.733000 0.329000 0.126000
H90 H 0.620000 0.488000 0.121000
H91 H 0.120000 -0.012000 0.121000
H92 H 0.233000 -0.171000 0.126000
H93 H 0.277000 -0.335000 0.239000
H94 H 0.225000 -0.330000 0.345000
H95 H 0.129000 -0.225000 0.407000
H96 H 0.044000 -0.215000 0.334000
H97 H 0.035000 0.025000 0.356000
H98 H 0.000000 0.154000 0.485000
H99 H -0.128000 0.261000 0.453000
H100 H -0.045000 0.572000 0.305000
H101 H -0.153000 0.491000 0.360000
H102 H 0.082000 0.435000 0.341000
H103 H 0.161000 0.279000 0.472000
H104 H 0.767000 1.171000 0.874000
C105 C 0.236700 -0.268300 0.235700
C106 C 0.205600 -0.179100 0.167700
C107 C 0.140000 -0.091600 0.163800
C108 C 0.137160 -0.174100 0.290000
C109 C 0.097700 -0.169500 0.356600
C110 C -0.009300 0.233400 0.451400
C111 C -0.083600 0.306300 0.431000
C112 C -0.098700 0.428100 0.380600
C113 C -0.040400 0.481300 0.352600
C114 C 0.034600 0.406900 0.371600
C115 C 0.048330 0.283100 0.420400
C116 C 0.144490 0.070600 0.429270
C117 C 0.355510 0.570600 0.070730
C118 C 0.451670 0.783100 0.079600
C119 C 0.465400 0.906900 0.128400
C120 C 0.540400 0.981300 0.147400
C121 C 0.598700 0.928100 0.119400
C122 C 0.583600 0.806300 0.069000
C123 C 0.509300 0.733400 0.048600
C124 C 0.402300 0.330500 0.143400
C125 C 0.644490 0.429400 0.929270
C126 C 0.548330 0.216900 0.920400
C127 C 0.534600 0.093100 0.871600
C128 C 0.459600 0.018700 0.852600
C129 C 0.401300 0.071900 0.880600
C130 C 0.416400 0.193700 0.931000
C131 C 0.490700 0.266600 0.951400
C132 C 0.597700 0.669500 0.856600
C133 C 0.637160 0.674100 0.790000
C134 C 0.702500 0.765900 0.798400
C135 C 0.736700 0.768300 0.735700
C136 C 0.705600 0.679100 0.667700
C137 C 0.640000 0.591600 0.663800
C138 C 0.640000 0.408400 0.163800
C139 C 0.705600 0.320900 0.167700
C140 C 0.736700 0.231700 0.235700
C141 C 0.702500 0.234100 0.298400
C142 C 0.637160 0.325900 0.290000
C143 C 0.597700 0.330500 0.356600
C144 C 0.490700 0.733400 0.451400
C145 C 0.416400 0.806300 0.431000
C146 C 0.401300 0.928100 0.380600
C147 C 0.459600 0.981300 0.352600
C148 C 0.534600 0.906900 0.371600
C149 C 0.548330 0.783100 0.420400
C150 C 0.644490 0.570600 0.429270
C151 C 0.860000 1.091600 0.836200
C152 C 0.794400 1.179100 0.832300
C153 C 0.763300 1.268300 0.764300
C154 C 0.797500 1.265900 0.701600
C155 C 0.144490 0.929400 0.929270
C156 C 0.048330 0.716900 0.920400
C157 C 0.034600 0.593100 0.871600
C158 C -0.040400 0.518700 0.852600
C159 C -0.098700 0.571900 0.880600
C160 C -0.083600 0.693700 0.931000
C161 C -0.009300 0.766600 0.951400
C162 C 0.097700 1.169500 0.856600
C163 C 0.137160 1.174100 0.790000
C164 C 0.202500 1.265900 0.798400
C165 C 0.236700 1.268300 0.735700
C166 C 0.205600 1.179100 0.667700
C167 C 0.140000 1.091600 0.663800
C168 C 0.862840 1.174100 0.710000
C169 C 0.902300 1.169500 0.643400
C170 C 1.009300 0.766600 0.548600
C171 C 1.083600 0.693700 0.569000
C172 C 0.860000 -0.091600 0.336200
C173 C 0.794400 -0.179100 0.332300
C174 C 0.763300 -0.268300 0.264300
C175 C 0.797500 -0.265900 0.201600
C176 C 0.862840 -0.174100 0.210000
C177 C 0.902300 -0.169500 0.143400
C178 C 1.009300 0.233400 0.048600
C179 C 1.083600 0.306300 0.069000
C180 C 1.098700 0.428100 0.119400
C181 C 1.098700 0.571900 0.619400
C182 C 1.040400 0.518700 0.647400
C183 C 0.965400 0.593100 0.628400
C184 C 0.951670 0.716900 0.579600
C185 C 0.355510 0.429400 0.570730
C186 C 0.451670 0.216900 0.579600
C187 C 0.465400 0.093100 0.628400
C188 C 0.540400 0.018700 0.647400
C189 C 0.598700 0.071900 0.619400
C190 C 0.583600 0.193700 0.569000
C191 C 0.509300 0.266600 0.548600
C192 C 0.402300 0.669500 0.643400
C193 C 0.362840 0.674100 0.710000
C194 C 0.297500 0.765900 0.701600
C195 C 0.263300 0.768300 0.764300
C196 C 0.294400 0.679100 0.832300
C197 C 0.360000 0.591600 0.836200
C198 C 1.040400 0.481300 0.147400
C199 C 0.965400 0.406900 0.128400
C200 C 0.951670 0.283100 0.079600
C201 C 0.855510 0.070600 0.070730
C202 C 0.855510 0.929400 0.570730
C203 C 0.362840 0.325900 0.210000
C204 C 0.297500 0.234100 0.201600
C205 C 0.263300 0.231700 0.264300
C206 C 0.360000 0.408400 0.336200
C207 C 0.294400 0.320900 0.332300
C208 C 0.202500 -0.265900 0.298400
N209 N 0.873430 0.215100 0.056490
N210 N 0.915650 -0.015600 0.118230
N211 N 0.373430 0.715100 0.056490
N212 N 0.873430 0.784900 0.556490
N213 N 0.915650 1.015600 0.618230
N214 N 0.895350 1.087100 0.777150
N215 N 0.895350 -0.087100 0.277150
N216 N 0.395350 0.587100 0.777150
N217 N 0.415650 0.515600 0.618230
N218 N 0.373430 0.284900 0.556490
N219 N 0.415650 0.484400 0.118230
N220 N 0.395350 0.412900 0.277150
N221 N 0.626570 0.715100 0.443510
N222 N 0.584350 0.484400 0.381770
N223 N 0.604650 0.412900 0.222850
N224 N 0.104650 1.087100 0.722850
N225 N 0.084350 1.015600 0.881770
N226 N 0.126570 0.784900 0.943510
N227 N 0.104650 -0.087100 0.222850
N228 N 0.604650 0.587100 0.722850
N229 N 0.584350 0.515600 0.881770
N230 N 0.626570 0.284900 0.943510
N231 N 0.084350 -0.015600 0.381770
N232 N 0.126570 0.215100 0.443510
S233 S 0.739230 0.495230 0.972400
S234 S 0.239230 0.995230 0.972400
S235 S 0.739230 0.504770 0.472400
S236 S 0.260770 0.495230 0.527600
S237 S 0.760770 0.995230 0.527600
S238 S 0.760770 0.004770 0.027600
S239 S 0.239230 0.004770 0.472400
S240 S 0.260770 0.504770 0.027600

#END
