./ACAFEQ_from_POSCAR.cif_generated_by_CrystalShift
_symmetry_cell_setting triclinic
_symmetry_space_group_name_H-M 'P 1'
loop_
_symmetry_equiv_pos_site_id
_symmetry_equiv_pos_as_xyz
1 x,y,z
_cell_length_a 7.419000
_cell_length_b 18.437000
_cell_length_c 9.656000
_cell_angle_alpha 90.000000
_cell_angle_beta 106.277000
_cell_angle_gamma 90.000000
_cell_volume 1267.847346
loop_
_atom_site_label
_atom_site_type_symbol
_atom_site_fract_x
_atom_site_fract_y
_atom_site_fract_z
H1 H 0.550100 0.079400 -0.017800
H2 H 0.716300 0.082200 -0.188500
H3 H 0.560900 0.072500 -0.429700
H4 H 0.109000 0.471300 0.427000
H5 H 0.240900 0.058800 -0.502700
H6 H 0.346000 0.320800 0.513000
H7 H 0.070700 0.057600 -0.334100
H8 H 0.220400 0.209500 0.239600
H9 H 0.592300 0.390000 0.738800
H10 H 0.325100 0.265000 0.166700
H11 H 0.881000 0.396500 0.913400
H12 H 0.733300 0.277400 0.598800
H13 H 0.956200 0.307700 1.091900
H14 H 0.956200 0.192300 0.591900
H15 H 0.733300 0.222600 1.098800
H16 H 0.881000 0.103500 0.413400
H17 H 0.325100 0.235000 0.666700
H18 H 0.220400 0.290500 0.739600
H19 H 0.592300 0.110000 0.238800
H20 H 0.346000 0.179200 0.013000
H21 H 0.109000 0.028700 -0.073000
H22 H 0.070700 0.442400 0.165900
H23 H 0.449900 0.579400 0.517800
H24 H 0.240900 0.441200 -0.002700
H25 H 0.283700 0.582200 0.688500
H26 H 0.560900 0.427500 0.070300
H27 H 0.439100 0.572500 0.929700
H28 H 0.716300 0.417800 0.311500
H29 H 0.759100 0.558800 1.002700
H30 H 0.550100 0.420600 0.482200
H31 H 0.929300 0.557600 0.834100
H32 H 0.779600 0.709500 0.260400
H33 H 0.674900 0.765000 0.333300
H34 H 0.891000 0.971300 1.073000
H35 H 0.266700 0.777400 -0.098800
H36 H 0.654000 0.820800 0.987000
H37 H 0.043800 0.692300 -0.091900
H38 H 0.119000 0.603500 0.086600
H39 H 0.407700 0.890000 0.761200
H40 H 0.407700 0.610000 0.261200
H41 H 0.119000 0.896500 0.586600
H42 H 0.654000 0.679200 0.487000
H43 H 0.043800 0.807700 0.408100
H44 H 0.891000 0.528700 0.573000
H45 H 0.266700 0.722600 0.401200
H46 H 0.449900 0.920600 1.017800
H47 H 0.674900 0.735000 0.833300
H48 H 0.779600 0.790500 0.760400
H49 H 0.283700 0.917800 1.188500
H50 H 0.439100 0.927500 1.429700
H51 H 0.759100 0.941200 1.502700
H52 H 0.929300 0.942400 1.334100
C53 C 0.697100 0.936400 1.405100
C54 C 0.799500 0.937200 1.304370
C55 C 0.506300 0.928690 1.361600
C56 C 0.705300 0.930130 1.158920
C57 C 0.413700 0.922730 1.217700
C58 C 0.808900 0.892000 0.944880
C59 C 0.513200 0.923970 1.115400
C60 C 0.674900 0.784840 0.801200
C61 C 0.586300 0.077270 -0.217700
C62 C 0.493700 0.071310 -0.361600
C63 C 0.302900 0.063600 -0.405100
C64 C 0.293000 0.755960 0.476500
C65 C 0.505500 0.298810 0.815610
C66 C 0.159600 0.807690 0.477500
C67 C 0.494500 0.701190 0.184390
C68 C 0.374300 0.644870 0.188850
C69 C 0.203000 0.859380 0.584400
C70 C 0.203000 0.640620 0.084400
C71 C 0.374300 0.855130 0.688850
C72 C 0.159600 0.692310 -0.022500
C73 C 0.494500 0.798810 0.684390
C74 C 0.293000 0.744040 -0.023500
C75 C 0.200500 0.062800 -0.304370
C76 C 0.674900 0.715160 0.301200
C77 C 0.294700 0.069870 -0.158920
C78 C 0.191100 0.108000 0.055120
C79 C 0.808900 0.608000 0.444880
C80 C 0.705300 0.569870 0.658920
C81 C 0.799500 0.562800 0.804370
C82 C 0.625700 0.355130 0.811150
C83 C 0.697100 0.563600 0.905100
C84 C 0.486800 0.423970 0.384600
C85 C 0.506300 0.571310 0.861600
C86 C 0.586300 0.422730 0.282300
C87 C 0.413700 0.577270 0.717700
C88 C 0.493700 0.428690 0.138400
C89 C 0.513200 0.576030 0.615400
C90 C 0.302900 0.436400 0.094900
C91 C 0.797000 0.359380 0.915600
C92 C 0.325100 0.215160 0.198800
C93 C 0.840400 0.307690 1.022500
C94 C 0.200500 0.437200 0.195630
C95 C 0.707000 0.244040 0.523500
C96 C 0.294700 0.430130 0.341080
C97 C 0.505500 0.201190 0.315610
C98 C 0.625700 0.144870 0.311150
C99 C 0.191100 0.392000 0.555120
C100 C 0.797000 0.140620 0.415600
C101 C 0.325100 0.284840 0.698800
C102 C 0.840400 0.192310 0.522500
C103 C 0.707000 0.255960 1.023500
C104 C 0.486800 0.076030 -0.115400
N105 N 0.185300 0.065040 -0.058950
N106 N 0.542200 0.249340 0.423100
N107 N 0.542200 0.250660 0.923100
N108 N 0.185300 0.434960 0.441050
N109 N 0.457800 0.750660 0.576900
N110 N 0.814700 0.934960 1.058950
N111 N 0.703900 0.832560 0.925810
N112 N 0.703900 0.667440 0.425810
N113 N 0.814700 0.565040 0.558950
N114 N 0.296100 0.332560 0.574190
N115 N 0.457800 0.749340 0.076900
N116 N 0.296100 0.167440 0.074190
S117 S 0.058740 0.085180 0.166450
S118 S 0.941260 0.585180 0.333550
S119 S 0.941260 0.914820 0.833550
S120 S 0.058740 0.414820 0.666450

#END
