
#######################################################################
#
#                 Cambridge Crystallographic Data Centre
#                                CCDC 
#
#######################################################################
#
# If this CIF has been generated from an entry in the Cambridge 
# Structural Database, then it will include bibliographic, chemical, 
# crystal, experimental, refinement or atomic coordinate data resulting 
# from the CCDC's data processing and validation procedures.
#
#######################################################################

data_ACAGIU01
_symmetry_cell_setting           monoclinic
_symmetry_space_group_name_H-M   'I 2/a'
_symmetry_Int_Tables_number      15
_space_group_name_Hall           '-I 2ya'
loop_
_symmetry_equiv_pos_site_id
_symmetry_equiv_pos_as_xyz
1 x,y,z
2 1/2+x,1/2+y,1/2+z
3 1/2-x,y,-z
4 -x,1/2+y,1/2-z
5 -x,-y,-z
6 1/2-x,1/2-y,1/2-z
7 1/2+x,-y,z
8 x,1/2-y,1/2+z
_cell_length_a                   7.371(6)
_cell_length_b                   8.701(4)
_cell_length_c                   9.303(5)
_cell_angle_alpha                90
_cell_angle_beta                 109.05(4)
_cell_angle_gamma                90
_cell_volume                     563.973
loop_
_atom_site_label
_atom_site_type_symbol
_atom_site_fract_x
_atom_site_fract_y
_atom_site_fract_z
C1 C 0.1663(3) 0.55012(19) 0.3661(2)
H1 H 0.1088 0.6007 0.2744
C2 C 0.2500 0.7979(2) 0.5000
N1 N 0.2500 0.3112(2) 0.5000
C3 C 0.2500 0.6326(2) 0.5000
C4 C 0.1709(3) 0.3910(2) 0.3730(3)
H2 H 0.1152 0.3367 0.2833
C5 C 0.2500 0.9347(2) 0.5000
H3 H 0.2500 1.0553 0.5000
C1B C 0.3337(3) 0.55012(19) 0.6339(2)
H1B H 0.3912 0.6007 0.7256
C4B C 0.3291(3) 0.3910(2) 0.6270(3)
H2B H 0.3848 0.3367 0.7167
C1 C 0.6663(3) 0.05012(19) -0.1339(2)
H1 H 0.6088 0.1007 -0.2256
C2 C 0.7500 0.2979(2) 0.0000
N1 N 0.7500 -0.1888(2) 0.0000
C3 C 0.7500 0.1326(2) 0.0000
C4 C 0.6709(3) -0.1090(2) -0.1270(3)
H2 H 0.6152 -0.1633 -0.2167
C5 C 0.7500 0.4347(2) 0.0000
H3 H 0.7500 0.5553 0.0000
C1B C 0.8337(3) 0.05012(19) 0.1339(2)
H1B H 0.8912 0.1007 0.2256
C4B C 0.8291(3) -0.1090(2) 0.1270(3)
H2B H 0.8848 -0.1633 0.2167
C1 C 0.6663(3) 0.05012(19) 0.8661(2)
H1 H 0.6088 0.1007 0.7744
C2 C 0.7500 0.2979(2) 1.0000
N1 N 0.7500 -0.1888(2) 1.0000
C3 C 0.7500 0.1326(2) 1.0000
C4 C 0.6709(3) -0.1090(2) 0.8730(3)
H2 H 0.6152 -0.1633 0.7833
C5 C 0.7500 0.4347(2) 1.0000
H3 H 0.7500 0.5553 1.0000
C1B C 0.8337(3) 0.05012(19) 1.1339(2)
H1B H 0.8912 0.1007 1.2256
C4B C 0.8291(3) -0.1090(2) 1.1270(3)
H2B H 0.8848 -0.1633 1.2167
C1 C 0.8337(3) 0.44988(19) 0.6339(2)
H1 H 0.8912 0.3993 0.7256
C2 C 0.7500 0.2021(2) 0.5000
N1 N 0.7500 0.6888(2) 0.5000
C3 C 0.7500 0.3674(2) 0.5000
C4 C 0.8291(3) 0.6090(2) 0.6270(3)
H2 H 0.8848 0.6633 0.7167
C5 C 0.7500 0.0653(2) 0.5000
H3 H 0.7500 -0.0553 0.5000
C1B C 0.6663(3) 0.44988(19) 0.3661(2)
H1B H 0.6088 0.3993 0.2744
C4B C 0.6709(3) 0.6090(2) 0.3730(3)
H2B H 0.6152 0.6633 0.2833
C1 C 0.3337(3) 0.94988(19) 0.1339(2)
H1 H 0.3912 0.8993 0.2256
C2 C 0.2500 0.7021(2) 0.0000
N1 N 0.2500 1.1888(2) 0.0000
C3 C 0.2500 0.8674(2) 0.0000
C4 C 0.3291(3) 1.1090(2) 0.1270(3)
H2 H 0.3848 1.1633 0.2167
C5 C 0.2500 0.5653(2) 0.0000
H3 H 0.2500 0.4447 0.0000
C1B C 0.1663(3) 0.94988(19) -0.1339(2)
H1B H 0.1088 0.8993 -0.2256
C4B C 0.1709(3) 1.1090(2) -0.1270(3)
H2B H 0.1152 1.1633 -0.2167
C1 C 0.3337(3) 0.94988(19) 1.1339(2)
H1 H 0.3912 0.8993 1.2256
C2 C 0.2500 0.7021(2) 1.0000
N1 N 0.2500 1.1888(2) 1.0000
C3 C 0.2500 0.8674(2) 1.0000
C4 C 0.3291(3) 1.1090(2) 1.1270(3)
H2 H 0.3848 1.1633 1.2167
C5 C 0.2500 0.5653(2) 1.0000
H3 H 0.2500 0.4447 1.0000
C1B C 0.1663(3) 0.94988(19) 0.8661(2)
H1B H 0.1088 0.8993 0.7744
C4B C 0.1709(3) 1.1090(2) 0.8730(3)
H2B H 0.1152 1.1633 0.7833

#END
