./ACAGIU01_from_POSCAR.cif_generated_by_CrystalShift
_symmetry_cell_setting triclinic
_symmetry_space_group_name_H-M 'P 1'
loop_
_symmetry_equiv_pos_site_id
_symmetry_equiv_pos_as_xyz
1 x,y,z
_cell_length_a 7.371000
_cell_length_b 8.701000
_cell_length_c 9.303000
_cell_angle_alpha 90.000000
_cell_angle_beta 109.050000
_cell_angle_gamma 90.000000
_cell_volume 563.972572
loop_
_atom_site_label
_atom_site_type_symbol
_atom_site_fract_x
_atom_site_fract_y
_atom_site_fract_z
H1 H 0.115200 1.163300 0.783300
H2 H 0.108800 0.600700 0.274400
H3 H 0.391200 0.899300 1.225600
H4 H 0.115200 1.163300 -0.216700
H5 H 0.108800 0.899300 -0.225600
H6 H 0.250000 0.444700 0.000000
H7 H 0.115200 0.336700 0.283300
H8 H 0.384800 1.163300 0.216700
H9 H 0.250000 1.055300 0.500000
H10 H 0.391200 0.899300 0.225600
H11 H 0.391200 0.600700 0.725600
H12 H 0.615200 0.663300 0.283300
H13 H 0.384800 0.336700 0.716700
H14 H 0.608800 0.399300 0.274400
H15 H 0.608800 0.100700 -0.225600
H16 H 0.750000 -0.055300 0.500000
H17 H 0.108800 0.899300 0.774400
H18 H 0.884800 0.663300 0.716700
H19 H 0.250000 0.444700 1.000000
H20 H 0.615200 -0.163300 -0.216700
H21 H 0.891200 0.399300 0.725600
H22 H 0.750000 0.555300 0.000000
H23 H 0.884800 -0.163300 1.216700
H24 H 0.891200 0.100700 0.225600
H25 H 0.891200 0.100700 1.225600
H26 H 0.884800 -0.163300 0.216700
H27 H 0.750000 0.555300 1.000000
H28 H 0.608800 0.100700 0.774400
H29 H 0.615200 -0.163300 0.783300
H30 H 0.384800 1.163300 1.216700
C31 C 0.750000 0.132600 1.000000
C32 C 0.670900 -0.109000 0.873000
C33 C 0.750000 0.297900 1.000000
C34 C 0.750000 0.434700 1.000000
C35 C 0.666300 0.050120 0.866100
C36 C 0.833700 0.050120 1.133900
C37 C 0.829100 -0.109000 0.127000
C38 C 0.829100 -0.109000 1.127000
C39 C 0.833700 0.050120 0.133900
C40 C 0.833700 0.449880 0.633900
C41 C 0.750000 0.434700 0.000000
C42 C 0.750000 0.202100 0.500000
C43 C 0.670900 -0.109000 -0.127000
C44 C 0.750000 0.367400 0.500000
C45 C 0.829100 0.609000 0.627000
C46 C 0.750000 0.132600 0.000000
C47 C 0.750000 0.065300 0.500000
C48 C 0.750000 0.297900 0.000000
C49 C 0.666300 0.449880 0.366100
C50 C 0.666300 0.050120 -0.133900
C51 C 0.670900 0.609000 0.373000
C52 C 0.329100 0.391000 0.627000
C53 C 0.333700 0.949880 0.133900
C54 C 0.333700 0.550120 0.633900
C55 C 0.250000 0.702100 0.000000
C56 C 0.250000 0.565300 1.000000
C57 C 0.250000 0.867400 0.000000
C58 C 0.329100 1.109000 0.127000
C59 C 0.250000 0.934700 0.500000
C60 C 0.250000 0.565300 0.000000
C61 C 0.170900 0.391000 0.373000
C62 C 0.166300 0.949880 -0.133900
C63 C 0.250000 0.632600 0.500000
C64 C 0.170900 1.109000 -0.127000
C65 C 0.170900 1.109000 0.873000
C66 C 0.333700 0.949880 1.133900
C67 C 0.250000 0.797900 0.500000
C68 C 0.250000 0.702100 1.000000
C69 C 0.166300 0.949880 0.866100
C70 C 0.250000 0.867400 1.000000
C71 C 0.329100 1.109000 1.127000
C72 C 0.166300 0.550120 0.366100
N73 N 0.750000 0.688800 0.500000
N74 N 0.750000 -0.188800 1.000000
N75 N 0.750000 -0.188800 0.000000
N76 N 0.250000 0.311200 0.500000
N77 N 0.250000 1.188800 0.000000
N78 N 0.250000 1.188800 1.000000

#END
