
#######################################################################
#
#                 Cambridge Crystallographic Data Centre
#                                CCDC 
#
#######################################################################
#
# If this CIF has been generated from an entry in the Cambridge 
# Structural Database, then it will include bibliographic, chemical, 
# crystal, experimental, refinement or atomic coordinate data resulting 
# from the CCDC's data processing and validation procedures.
#
#######################################################################

data_ACAQGD02
_symmetry_cell_setting           triclinic
_symmetry_space_group_name_H-M   'P -1'
_symmetry_Int_Tables_number      2
_space_group_name_Hall           '-P 1'
loop_
_symmetry_equiv_pos_site_id
_symmetry_equiv_pos_as_xyz
1 x,y,z
2 -x,-y,-z
_cell_length_a                   8.896(2)
_cell_length_b                   9.258(2)
_cell_length_c                   10.405(2)
_cell_angle_alpha                92.02(3)
_cell_angle_beta                 113.62(3)
_cell_angle_gamma                118.48(3)
_cell_volume                     662.329
loop_
_atom_site_label
_atom_site_type_symbol
_atom_site_fract_x
_atom_site_fract_y
_atom_site_fract_z
Gd1 Gd -0.17980(2) 0.59384(2) 0.409657(17)
O1 O -0.1213(5) 0.3497(4) 0.3992(3)
O2 O -0.3917(5) 0.3091(5) 0.2282(4)
O3 O 0.0530(6) 0.8778(5) 0.4044(4)
O4 O 0.0226(5) 0.6551(4) 0.2889(3)
O5 O -0.5157(5) 0.5320(5) 0.3124(4)
O6 O -0.3578(5) 0.6468(5) 0.1910(4)
O7 O -0.1425(5) 0.7957(5) 0.5844(4)
H1 H -0.116(11) 0.903(4) 0.584(7)
H2 H -0.102(11) 0.794(9) 0.678(3)
O8 O -0.2825(5) 0.4369(5) 0.5652(4)
H3 H -0.199(9) 0.410(10) 0.622(7)
H4 H -0.362(9) 0.430(10) 0.600(8)
C1 C -0.2826(6) 0.2542(6) 0.2837(5)
C2 C -0.3403(8) 0.0775(8) 0.2135(6)
H9 H -0.2911 0.0286 0.2895
H10 H -0.2850 0.0856 0.1474
H11 H -0.4824 0.0039 0.1580
C3 C 0.1038(7) 0.8166(6) 0.3318(5)
C4 C 0.2605(9) 0.9305(7) 0.2934(7)
H12 H 0.3105 1.0507 0.3342
H13 H 0.2058 0.9043 0.1868
H14 H 0.3666 0.9102 0.3342
C5 C -0.5097(7) 0.5876(6) 0.2025(5)
C6 C -0.6852(7) 0.5821(8) 0.0895(6)
H15 H -0.7888 0.5334 0.1171
H16 H -0.7308 0.5109 -0.0059
H17 H -0.6502 0.6985 0.0837
Gd1A Gd 0.17980(2) 0.40616(2) 0.590343(17)
O1A O 0.1213(5) 0.6503(4) 0.6008(3)
O2A O 0.3917(5) 0.6909(5) 0.7718(4)
O3A O -0.0530(6) 0.1222(5) 0.5956(4)
O4A O -0.0226(5) 0.3449(4) 0.7111(3)
O5A O 0.5157(5) 0.4680(5) 0.6876(4)
O6A O 0.3578(5) 0.3532(5) 0.8090(4)
O7A O 0.1425(5) 0.2043(5) 0.4156(4)
H1A H 0.116(11) 0.097(4) 0.416(7)
H2A H 0.102(11) 0.206(9) 0.322(3)
O8A O 0.2825(5) 0.5631(5) 0.4348(4)
H3A H 0.199(9) 0.590(10) 0.378(7)
H4A H 0.362(9) 0.570(10) 0.400(8)
C1A C 0.2826(6) 0.7458(6) 0.7163(5)
C2A C 0.3403(8) 0.9225(8) 0.7865(6)
H9A H 0.2911 0.9714 0.7105
H10A H 0.2850 0.9144 0.8526
H11A H 0.4824 0.9961 0.8420
C3A C -0.1038(7) 0.1834(6) 0.6682(5)
C4A C -0.2605(9) 0.0695(7) 0.7066(7)
H12A H -0.3105 -0.0507 0.6658
H13A H -0.2058 0.0957 0.8132
H14A H -0.3666 0.0898 0.6658
C5A C 0.5097(7) 0.4124(6) 0.7975(5)
C6A C 0.6852(7) 0.4179(8) 0.9105(6)
H15A H 0.7888 0.4666 0.8829
H16A H 0.7308 0.4891 1.0059
H17A H 0.6502 0.3015 0.9163
Gd1 Gd 0.82020(2) 0.59384(2) 0.409657(17)
O1 O 0.8787(5) 0.3497(4) 0.3992(3)
O2 O 0.6083(5) 0.3091(5) 0.2282(4)
O3 O 1.0530(6) 0.8778(5) 0.4044(4)
O4 O 1.0226(5) 0.6551(4) 0.2889(3)
O5 O 0.4843(5) 0.5320(5) 0.3124(4)
O6 O 0.6422(5) 0.6468(5) 0.1910(4)
O7 O 0.8575(5) 0.7957(5) 0.5844(4)
H1 H 0.884(11) 0.903(4) 0.584(7)
H2 H 0.898(11) 0.794(9) 0.678(3)
O8 O 0.7175(5) 0.4369(5) 0.5652(4)
H3 H 0.801(9) 0.410(10) 0.622(7)
H4 H 0.638(9) 0.430(10) 0.600(8)
C1 C 0.7174(6) 0.2542(6) 0.2837(5)
C2 C 0.6597(8) 0.0775(8) 0.2135(6)
H9 H 0.7089 0.0286 0.2895
H10 H 0.7150 0.0856 0.1474
H11 H 0.5176 0.0039 0.1580
C3 C 1.1038(7) 0.8166(6) 0.3318(5)
C4 C 1.2605(9) 0.9305(7) 0.2934(7)
H12 H 1.3105 1.0507 0.3342
H13 H 1.2058 0.9043 0.1868
H14 H 1.3666 0.9102 0.3342
C5 C 0.4903(7) 0.5876(6) 0.2025(5)
C6 C 0.3148(7) 0.5821(8) 0.0895(6)
H15 H 0.2112 0.5334 0.1171
H16 H 0.2692 0.5109 -0.0059
H17 H 0.3498 0.6985 0.0837
Gd1A Gd 1.17980(2) 0.40616(2) 0.590343(17)
O1A O 1.1213(5) 0.6503(4) 0.6008(3)
O2A O 1.3917(5) 0.6909(5) 0.7718(4)
O3A O 0.9470(6) 0.1222(5) 0.5956(4)
O4A O 0.9774(5) 0.3449(4) 0.7111(3)
O5A O 1.5157(5) 0.4680(5) 0.6876(4)
O6A O 1.3578(5) 0.3532(5) 0.8090(4)
O7A O 1.1425(5) 0.2043(5) 0.4156(4)
H1A H 1.116(11) 0.097(4) 0.416(7)
H2A H 1.102(11) 0.206(9) 0.322(3)
O8A O 1.2825(5) 0.5631(5) 0.4348(4)
H3A H 1.199(9) 0.590(10) 0.378(7)
H4A H 1.362(9) 0.570(10) 0.400(8)
C1A C 1.2826(6) 0.7458(6) 0.7163(5)
C2A C 1.3403(8) 0.9225(8) 0.7865(6)
H9A H 1.2911 0.9714 0.7105
H10A H 1.2850 0.9144 0.8526
H11A H 1.4824 0.9961 0.8420
C3A C 0.8962(7) 0.1834(6) 0.6682(5)
C4A C 0.7395(9) 0.0695(7) 0.7066(7)
H12A H 0.6895 -0.0507 0.6658
H13A H 0.7942 0.0957 0.8132
H14A H 0.6334 0.0898 0.6658
C5A C 1.5097(7) 0.4124(6) 0.7975(5)
C6A C 1.6852(7) 0.4179(8) 0.9105(6)
H15A H 1.7888 0.4666 0.8829
H16A H 1.7308 0.4891 1.0059
H17A H 1.6502 0.3015 0.9163
O9 O 0.2524(5) 0.1785(5) 0.9956(4)
H5 H 0.285(10) 0.231(10) 0.931(6)
H6 H 0.367(6) 0.201(11) 1.067(6)
O9 O 0.7476(5) 0.8215(5) 0.0044(4)
H5 H 0.715(10) 0.769(10) 0.069(6)
H6 H 0.633(6) 0.799(11) -0.067(6)
O10 O 0.0239(6) 0.1699(5) 0.1262(4)
H7 H 0.139(6) 0.206(9) 0.130(10)
H8 H -0.052(9) 0.056(3) 0.094(9)
O10 O 0.9761(6) 0.8301(5) 0.8738(4)
H7 H 0.861(6) 0.794(9) 0.870(10)
H8 H 1.052(9) 0.944(3) 0.906(9)

#END
