./ACARBM01_from_POSCAR.cif_generated_by_CrystalShift
_symmetry_cell_setting triclinic
_symmetry_space_group_name_H-M 'P 1'
loop_
_symmetry_equiv_pos_site_id
_symmetry_equiv_pos_as_xyz
1 x,y,z
_cell_length_a 6.535600
_cell_length_b 6.754400
_cell_length_c 17.120000
_cell_angle_alpha 90.000000
_cell_angle_beta 90.000000
_cell_angle_gamma 90.000000
_cell_volume 755.746250
loop_
_atom_site_label
_atom_site_type_symbol
_atom_site_fract_x
_atom_site_fract_y
_atom_site_fract_z
H1 H 0.505000 0.524000 0.329400
H2 H 0.292000 0.607000 0.339900
H3 H 0.405000 0.663000 0.265900
H4 H -0.005000 0.476000 0.829400
H5 H 0.845000 0.635000 0.500400
H6 H 0.748000 0.793000 0.458500
H7 H 0.031000 0.256000 0.845500
H8 H 0.208000 0.393000 0.839900
H9 H 0.095000 0.337000 0.765900
H10 H 0.495000 0.024000 0.170600
H11 H 0.655000 0.365000 1.000400
H12 H 0.752000 0.207000 0.958500
H13 H 0.531000 0.244000 0.154500
H14 H 0.708000 0.107000 0.160100
H15 H 0.595000 0.163000 0.234100
H16 H 1.005000 0.976000 0.670600
H17 H 0.155000 0.135000 -0.000400
H18 H 0.252000 0.293000 0.041500
H19 H 0.969000 0.756000 0.654500
H20 H 0.792000 0.893000 0.660100
H21 H 0.905000 0.837000 0.734100
H22 H 0.495000 0.476000 0.670600
H23 H 0.345000 0.865000 0.499600
H24 H 0.248000 0.707000 0.541500
H25 H 0.531000 0.256000 0.654500
H26 H 0.708000 0.393000 0.660100
H27 H 0.595000 0.337000 0.734100
H28 H 1.005000 0.524000 0.170600
H29 H 0.155000 0.365000 0.499600
H30 H 0.252000 0.207000 0.541500
H31 H 0.969000 0.744000 0.154500
H32 H 0.792000 0.607000 0.160100
H33 H 0.905000 0.663000 0.234100
H34 H 0.505000 0.976000 0.829400
H35 H 0.345000 0.635000 -0.000400
H36 H 0.248000 0.793000 0.041500
H37 H 0.469000 0.756000 0.845500
H38 H 0.292000 0.893000 0.839900
H39 H 0.405000 0.837000 0.765900
H40 H -0.005000 0.024000 0.329400
H41 H 0.845000 0.865000 1.000400
H42 H 0.748000 0.707000 0.958500
H43 H 0.031000 0.244000 0.345500
H44 H 0.469000 0.744000 0.345500
H45 H 0.208000 0.107000 0.339900
H46 H 0.095000 0.163000 0.265900
H47 H 0.655000 0.135000 0.500400
H48 H 0.752000 0.293000 0.458500
C49 C 0.576000 0.154900 0.393430
C50 C 0.076000 0.345100 0.606570
C51 C 0.924000 0.654900 0.393430
C52 C 0.076000 0.154900 0.106570
C53 C 0.424000 0.654900 0.106570
C54 C 0.424000 0.845100 0.606570
C55 C 0.576000 0.345100 0.893430
C56 C 0.924000 0.845100 0.893430
N57 N 0.816800 0.692800 0.458430
N58 N 0.316800 0.692800 0.041570
N59 N 0.921200 0.632800 0.180910
N60 N 0.421200 0.867200 0.819090
N61 N 0.816800 0.807200 0.958430
N62 N 0.683200 0.307200 0.958430
N63 N 0.183200 0.307200 0.541570
N64 N 0.578800 0.367200 0.680910
N65 N 0.421200 0.632800 0.319090
N66 N 0.683200 0.192800 0.458430
N67 N 0.578800 0.132800 0.180910
N68 N 0.316800 0.807200 0.541570
N69 N 0.921200 0.867200 0.680910
N70 N 0.183200 0.192800 0.041570
N71 N 0.078800 0.367200 0.819090
N72 N 0.078800 0.132800 0.319090
O73 O 0.387300 0.741630 0.666640
O74 O -0.053800 0.484830 0.604610
O75 O 0.112700 0.258370 0.166640
O76 O 0.112700 0.241630 0.666640
O77 O -0.053800 0.015170 0.104610
O78 O 0.553800 0.515170 0.104610
O79 O 0.387300 0.758370 0.166640
O80 O 0.612700 0.241630 0.833360
O81 O 1.053800 0.984830 0.895390
O82 O 0.446200 0.484830 0.895390
O83 O 0.887300 0.741630 0.833360
O84 O 0.446200 0.015170 0.395390
O85 O 0.887300 0.758370 0.333360
O86 O 0.612700 0.258370 0.333360
O87 O 0.553800 0.984830 0.604610
O88 O 1.053800 0.515170 0.395390

#END
