
#######################################################################
#
#                 Cambridge Crystallographic Data Centre
#                                CCDC 
#
#######################################################################
#
# If this CIF has been generated from an entry in the Cambridge 
# Structural Database, then it will include bibliographic, chemical, 
# crystal, experimental, refinement or atomic coordinate data resulting 
# from the CCDC's data processing and validation procedures.
#
#######################################################################

data_ACARBM02
_symmetry_cell_setting           orthorhombic
_symmetry_space_group_name_H-M   'I b a m'
_symmetry_Int_Tables_number      72
_space_group_name_Hall           '-I 2 2c'
loop_
_symmetry_equiv_pos_site_id
_symmetry_equiv_pos_as_xyz
1 x,y,z
2 1/2+x,1/2+y,1/2+z
3 1/2+x,1/2-y,-z
4 1/2-x,1/2+y,-z
5 -x,-y,z
6 x,-y,1/2-z
7 -x,y,1/2-z
8 1/2-x,1/2-y,1/2+z
9 -x,-y,-z
10 1/2-x,1/2-y,1/2-z
11 1/2-x,1/2+y,z
12 1/2+x,1/2-y,z
13 x,y,-z
14 -x,y,1/2+z
15 x,-y,1/2+z
16 1/2+x,1/2+y,1/2-z
_cell_length_a                   10.1428(2)
_cell_length_b                   9.1579(2)
_cell_length_c                   7.4485(1)
_cell_angle_alpha                90
_cell_angle_beta                 90
_cell_angle_gamma                90
_cell_volume                     691.867
loop_
_atom_site_label
_atom_site_type_symbol
_atom_site_fract_x
_atom_site_fract_y
_atom_site_fract_z
N1 N 0.00000 0.1976(7) 0.25000
H1 H 0.054(3) 0.126(3) 0.318(5)
H2 H 0.056(3) 0.275(4) 0.162(4)
H1F H -0.054(3) 0.126(3) 0.182(5)
H2F H -0.056(3) 0.275(4) 0.338(4)
N1 N 1.00000 0.1976(7) 0.25000
H1 H 1.054(3) 0.126(3) 0.318(5)
H2 H 1.056(3) 0.275(4) 0.162(4)
H1F H 0.946(3) 0.126(3) 0.182(5)
H2F H 0.944(3) 0.275(4) 0.338(4)
N1 N 0.50000 0.6976(7) 0.75000
H1 H 0.554(3) 0.626(3) 0.818(5)
H2 H 0.556(3) 0.775(4) 0.662(4)
H1F H 0.446(3) 0.626(3) 0.682(5)
H2F H 0.444(3) 0.775(4) 0.838(4)
N1 N 0.50000 0.3024(7) 0.75000
H1 H 0.554(3) 0.374(3) 0.682(5)
H2 H 0.556(3) 0.225(4) 0.838(4)
H1F H 0.446(3) 0.374(3) 0.818(5)
H2F H 0.444(3) 0.225(4) 0.662(4)
N1 N 0.00000 0.8024(7) 0.25000
H1 H -0.054(3) 0.874(3) 0.318(5)
H2 H -0.056(3) 0.725(4) 0.162(4)
H1F H 0.054(3) 0.874(3) 0.182(5)
H2F H 0.056(3) 0.725(4) 0.338(4)
N1 N 1.00000 0.8024(7) 0.25000
H1 H 0.946(3) 0.874(3) 0.318(5)
H2 H 0.944(3) 0.725(4) 0.162(4)
H1F H 1.054(3) 0.874(3) 0.182(5)
H2F H 1.056(3) 0.725(4) 0.338(4)
N1 N 0.00000 0.8024(7) 0.75000
H1 H -0.054(3) 0.874(3) 0.682(5)
H2 H -0.056(3) 0.725(4) 0.838(4)
H1F H 0.054(3) 0.874(3) 0.818(5)
H2F H 0.056(3) 0.725(4) 0.662(4)
N1 N 1.00000 0.8024(7) 0.75000
H1 H 0.946(3) 0.874(3) 0.682(5)
H2 H 0.944(3) 0.725(4) 0.838(4)
H1F H 1.054(3) 0.874(3) 0.818(5)
H2F H 1.056(3) 0.725(4) 0.662(4)
N1 N 0.50000 0.3024(7) 0.25000
H1 H 0.446(3) 0.374(3) 0.182(5)
H2 H 0.444(3) 0.225(4) 0.338(4)
H1F H 0.554(3) 0.374(3) 0.318(5)
H2F H 0.556(3) 0.225(4) 0.162(4)
N1 N 0.50000 0.6976(7) 0.25000
H1 H 0.446(3) 0.626(3) 0.318(5)
H2 H 0.444(3) 0.775(4) 0.162(4)
H1F H 0.554(3) 0.626(3) 0.182(5)
H2F H 0.556(3) 0.775(4) 0.338(4)
N1 N 0.00000 0.1976(7) 0.75000
H1 H 0.054(3) 0.126(3) 0.682(5)
H2 H 0.056(3) 0.275(4) 0.838(4)
H1F H -0.054(3) 0.126(3) 0.818(5)
H2F H -0.056(3) 0.275(4) 0.662(4)
N1 N 1.00000 0.1976(7) 0.75000
H1 H 1.054(3) 0.126(3) 0.682(5)
H2 H 1.056(3) 0.275(4) 0.838(4)
H1F H 0.946(3) 0.126(3) 0.818(5)
H2F H 0.944(3) 0.275(4) 0.662(4)
O1 O 0.1442(4) 1.0275(4) 0.50000
O2 O 0.3262(4) 1.1692(5) 0.50000
N2 N 0.3403(6) 0.9204(6) 0.50000
C1 C 0.2707(8) 1.0388(9) 0.50000
H3 H 0.409(5) 0.980(8) 0.50000
H4 H 0.327(6) 0.831(6) 0.50000
O1 O 0.6442(4) 0.5275(4) 0.00000
O2 O 0.8262(4) 0.6692(5) 0.00000
N2 N 0.8403(6) 0.4204(6) 0.00000
C1 C 0.7707(8) 0.5388(9) 0.00000
H3 H 0.909(5) 0.480(8) 0.00000
H4 H 0.827(6) 0.331(6) 0.00000
O1 O 0.6442(4) 0.5275(4) 1.00000
O2 O 0.8262(4) 0.6692(5) 1.00000
N2 N 0.8403(6) 0.4204(6) 1.00000
C1 C 0.7707(8) 0.5388(9) 1.00000
H3 H 0.909(5) 0.480(8) 1.00000
H4 H 0.827(6) 0.331(6) 1.00000
O1 O 0.6442(4) 0.4725(4) 0.50000
O2 O 0.8262(4) 0.3308(5) 0.50000
N2 N 0.8403(6) 0.5796(6) 0.50000
C1 C 0.7707(8) 0.4612(9) 0.50000
H3 H 0.909(5) 0.520(8) 0.50000
H4 H 0.827(6) 0.669(6) 0.50000
O1 O 0.3558(4) 0.5275(4) 0.50000
O2 O 0.1738(4) 0.6692(5) 0.50000
N2 N 0.1597(6) 0.4204(6) 0.50000
C1 C 0.2293(8) 0.5388(9) 0.50000
H3 H 0.091(5) 0.480(8) 0.50000
H4 H 0.173(6) 0.331(6) 0.50000
O1 O 0.8558(4) -0.0275(4) 0.50000
O2 O 0.6738(4) -0.1692(5) 0.50000
N2 N 0.6597(6) 0.0796(6) 0.50000
C1 C 0.7293(8) -0.0388(9) 0.50000
H3 H 0.591(5) 0.020(8) 0.50000
H4 H 0.673(6) 0.169(6) 0.50000
O1 O 0.1442(4) -0.0275(4) 0.00000
O2 O 0.3262(4) -0.1692(5) 0.00000
N2 N 0.3403(6) 0.0796(6) 0.00000
C1 C 0.2707(8) -0.0388(9) 0.00000
H3 H 0.409(5) 0.020(8) 0.00000
H4 H 0.327(6) 0.169(6) 0.00000
O1 O 0.1442(4) -0.0275(4) 1.00000
O2 O 0.3262(4) -0.1692(5) 1.00000
N2 N 0.3403(6) 0.0796(6) 1.00000
C1 C 0.2707(8) -0.0388(9) 1.00000
H3 H 0.409(5) 0.020(8) 1.00000
H4 H 0.327(6) 0.169(6) 1.00000
O1 O 0.8558(4) 1.0275(4) 0.00000
O2 O 0.6738(4) 1.1692(5) 0.00000
N2 N 0.6597(6) 0.9204(6) 0.00000
C1 C 0.7293(8) 1.0388(9) 0.00000
H3 H 0.591(5) 0.980(8) 0.00000
H4 H 0.673(6) 0.831(6) 0.00000
O1 O 0.8558(4) 1.0275(4) 1.00000
O2 O 0.6738(4) 1.1692(5) 1.00000
N2 N 0.6597(6) 0.9204(6) 1.00000
C1 C 0.7293(8) 1.0388(9) 1.00000
H3 H 0.591(5) 0.980(8) 1.00000
H4 H 0.673(6) 0.831(6) 1.00000
O1 O 0.3558(4) 0.4725(4) 0.00000
O2 O 0.1738(4) 0.3308(5) 0.00000
N2 N 0.1597(6) 0.5796(6) 0.00000
C1 C 0.2293(8) 0.4612(9) 0.00000
H3 H 0.091(5) 0.520(8) 0.00000
H4 H 0.173(6) 0.669(6) 0.00000
O1 O 0.3558(4) 0.4725(4) 1.00000
O2 O 0.1738(4) 0.3308(5) 1.00000
N2 N 0.1597(6) 0.5796(6) 1.00000
C1 C 0.2293(8) 0.4612(9) 1.00000
H3 H 0.091(5) 0.520(8) 1.00000
H4 H 0.173(6) 0.669(6) 1.00000

#END
