
#######################################################################
#
#                 Cambridge Crystallographic Data Centre
#                                CCDC 
#
#######################################################################
#
# If this CIF has been generated from an entry in the Cambridge 
# Structural Database, then it will include bibliographic, chemical, 
# crystal, experimental, refinement or atomic coordinate data resulting 
# from the CCDC's data processing and validation procedures.
#
#######################################################################

data_ACATED
_symmetry_cell_setting           monoclinic
_symmetry_space_group_name_H-M   'P 21/c'
_symmetry_Int_Tables_number      14
_space_group_name_Hall           '-P 2ybc'
loop_
_symmetry_equiv_pos_site_id
_symmetry_equiv_pos_as_xyz
1 x,y,z
2 -x,1/2+y,1/2-z
3 -x,-y,-z
4 x,1/2-y,1/2+z
_cell_length_a                   18.596(4)
_cell_length_b                   9.074(2)
_cell_length_c                   20.027(4)
_cell_angle_alpha                90
_cell_angle_beta                 105.71(3)
_cell_angle_gamma                90
_cell_volume                     3253.12
loop_
_atom_site_label
_atom_site_type_symbol
_atom_site_fract_x
_atom_site_fract_y
_atom_site_fract_z
Co1 Co 0.73055(5) 0.80740(12) 0.41159(5)
Cl1 Cl 0.60555(10) 0.8373(2) 0.38015(9)
Cl2 Cl 0.77215(10) 0.8650(2) 0.52642(8)
Cl3 Cl 0.76601(11) 0.5709(2) 0.39651(12)
Cl4 Cl 0.78894(12) 0.9586(3) 0.35306(11)
Co1 Co 0.26945(5) 0.30740(12) 0.08841(5)
Cl1 Cl 0.39445(10) 0.3373(2) 0.11985(9)
Cl2 Cl 0.22785(10) 0.3650(2) -0.02642(8)
Cl3 Cl 0.23399(11) 0.0709(2) 0.10349(12)
Cl4 Cl 0.21106(12) 0.4586(3) 0.14694(11)
Co1 Co 0.26945(5) 0.19260(12) 0.58841(5)
Cl1 Cl 0.39445(10) 0.1627(2) 0.61985(9)
Cl2 Cl 0.22785(10) 0.1350(2) 0.47358(8)
Cl3 Cl 0.23399(11) 0.4291(2) 0.60349(12)
Cl4 Cl 0.21106(12) 0.0414(3) 0.64694(11)
Co1 Co 0.73055(5) 0.69260(12) 0.91159(5)
Cl1 Cl 0.60555(10) 0.6627(2) 0.88015(9)
Cl2 Cl 0.77215(10) 0.6350(2) 1.02642(8)
Cl3 Cl 0.76601(11) 0.9291(2) 0.89651(12)
Cl4 Cl 0.78894(12) 0.5414(3) 0.85306(11)
O1 O 1.0391(3) 0.8197(6) 0.4544(2)
N1 N 0.9000(3) 0.6432(6) 0.6208(3)
H1 H 0.8653(36) 0.6961(78) 0.5861(33)
N2 N 0.9917(3) 0.7221(6) 0.5695(2)
C1 C 0.9713(4) 0.6624(7) 0.6239(3)
C2 C 1.0281(3) 0.6098(7) 0.6859(3)
C3 C 1.0994(4) 0.5677(7) 0.6842(3)
H2 H 1.1131(4) 0.5727(7) 0.6413(3)
C4 C 1.1506(4) 0.5189(8) 0.7434(3)
H3 H 1.1996(4) 0.4882(8) 0.7418(3)
C5 C 1.1310(4) 0.5146(8) 0.8045(3)
H4 H 1.1679(4) 0.4872(8) 0.8463(3)
C6 C 1.0592(4) 0.5486(8) 0.8075(3)
H5 H 1.0459(4) 0.5403(8) 0.8505(3)
C7 C 1.0068(4) 0.5953(7) 0.7473(3)
C8 C 0.9269(4) 0.6222(8) 0.7451(3)
H6 H 0.9192(4) 0.7257(8) 0.7503(3)
H7 H 0.9152(4) 0.5714(8) 0.7829(3)
C9 C 0.8753(4) 0.5684(8) 0.6767(3)
C10 C 0.7947(4) 0.6133(9) 0.6689(4)
H8 H 0.7639(4) 0.5779(9) 0.6254(4)
H9 H 0.7780(4) 0.5717(9) 0.7062(4)
H10 H 0.7914(4) 0.7188(9) 0.6703(4)
C11 C 0.8804(4) 0.4026(8) 0.6681(4)
H11 H 0.8472(4) 0.3731(8) 0.6246(4)
H12 H 0.9307(4) 0.3763(8) 0.6692(4)
H13 H 0.8665(4) 0.3536(8) 0.7053(4)
C12 C 1.0568(4) 0.8207(9) 0.5785(3)
H14 H 1.0927(4) 0.8001(9) 0.6219(3)
H15 H 1.0413(4) 0.9215(9) 0.5789(3)
C13 C 1.0915(4) 0.7959(9) 0.5195(3)
H16 H 1.1329(4) 0.8620(9) 0.5243(3)
H17 H 1.1101(4) 0.6969(9) 0.5215(3)
C14 C 0.9785(4) 0.7225(9) 0.4469(3)
H18 H 0.9964(4) 0.6229(9) 0.4486(3)
H19 H 0.9439(4) 0.7375(9) 0.4022(3)
C15 C 0.9385(4) 0.7429(8) 0.5016(3)
H20 H 0.9174(4) 0.8400(8) 0.4984(3)
H21 H 0.8987(4) 0.6725(8) 0.4953(3)
O1 O -0.0391(3) 0.3197(6) 1.0456(2)
N1 N 0.1000(3) 0.1432(6) 0.8792(3)
H1 H 0.1347(36) 0.1961(78) 0.9139(33)
N2 N 0.0083(3) 0.2221(6) 0.9305(2)
C1 C 0.0287(4) 0.1624(7) 0.8761(3)
C2 C -0.0281(3) 0.1098(7) 0.8141(3)
C3 C -0.0994(4) 0.0677(7) 0.8158(3)
H2 H -0.1131(4) 0.0727(7) 0.8587(3)
C4 C -0.1506(4) 0.0189(8) 0.7566(3)
H3 H -0.1996(4) -0.0118(8) 0.7582(3)
C5 C -0.1310(4) 0.0146(8) 0.6955(3)
H4 H -0.1679(4) -0.0128(8) 0.6537(3)
C6 C -0.0592(4) 0.0486(8) 0.6925(3)
H5 H -0.0459(4) 0.0403(8) 0.6495(3)
C7 C -0.0068(4) 0.0953(7) 0.7527(3)
C8 C 0.0731(4) 0.1222(8) 0.7549(3)
H6 H 0.0808(4) 0.2257(8) 0.7497(3)
H7 H 0.0848(4) 0.0714(8) 0.7171(3)
C9 C 0.1247(4) 0.0684(8) 0.8233(3)
C10 C 0.2053(4) 0.1133(9) 0.8311(4)
H8 H 0.2361(4) 0.0779(9) 0.8746(4)
H9 H 0.2220(4) 0.0717(9) 0.7938(4)
H10 H 0.2086(4) 0.2188(9) 0.8297(4)
C11 C 0.1196(4) -0.0974(8) 0.8319(4)
H11 H 0.1528(4) -0.1269(8) 0.8754(4)
H12 H 0.0693(4) -0.1237(8) 0.8308(4)
H13 H 0.1335(4) -0.1464(8) 0.7947(4)
C12 C -0.0568(4) 0.3207(9) 0.9215(3)
H14 H -0.0927(4) 0.3001(9) 0.8781(3)
H15 H -0.0413(4) 0.4215(9) 0.9211(3)
C13 C -0.0915(4) 0.2959(9) 0.9805(3)
H16 H -0.1329(4) 0.3620(9) 0.9757(3)
H17 H -0.1101(4) 0.1969(9) 0.9785(3)
C14 C 0.0215(4) 0.2225(9) 1.0531(3)
H18 H 0.0036(4) 0.1229(9) 1.0514(3)
H19 H 0.0561(4) 0.2375(9) 1.0978(3)
C15 C 0.0615(4) 0.2429(8) 0.9984(3)
H20 H 0.0826(4) 0.3400(8) 1.0016(3)
H21 H 0.1013(4) 0.1725(8) 1.0047(3)
O1 O -0.0391(3) 0.1803(6) 0.5456(2)
N1 N 0.1000(3) 0.3568(6) 0.3792(3)
H1 H 0.1347(36) 0.3039(78) 0.4139(33)
N2 N 0.0083(3) 0.2779(6) 0.4305(2)
C1 C 0.0287(4) 0.3376(7) 0.3761(3)
C2 C -0.0281(3) 0.3902(7) 0.3141(3)
C3 C -0.0994(4) 0.4323(7) 0.3158(3)
H2 H -0.1131(4) 0.4273(7) 0.3587(3)
C4 C -0.1506(4) 0.4811(8) 0.2566(3)
H3 H -0.1996(4) 0.5118(8) 0.2582(3)
C5 C -0.1310(4) 0.4854(8) 0.1955(3)
H4 H -0.1679(4) 0.5128(8) 0.1537(3)
C6 C -0.0592(4) 0.4514(8) 0.1925(3)
H5 H -0.0459(4) 0.4597(8) 0.1495(3)
C7 C -0.0068(4) 0.4047(7) 0.2527(3)
C8 C 0.0731(4) 0.3778(8) 0.2549(3)
H6 H 0.0808(4) 0.2743(8) 0.2497(3)
H7 H 0.0848(4) 0.4286(8) 0.2171(3)
C9 C 0.1247(4) 0.4316(8) 0.3233(3)
C10 C 0.2053(4) 0.3867(9) 0.3311(4)
H8 H 0.2361(4) 0.4221(9) 0.3746(4)
H9 H 0.2220(4) 0.4283(9) 0.2938(4)
H10 H 0.2086(4) 0.2812(9) 0.3297(4)
C11 C 0.1196(4) 0.5974(8) 0.3319(4)
H11 H 0.1528(4) 0.6269(8) 0.3754(4)
H12 H 0.0693(4) 0.6237(8) 0.3308(4)
H13 H 0.1335(4) 0.6464(8) 0.2947(4)
C12 C -0.0568(4) 0.1793(9) 0.4215(3)
H14 H -0.0927(4) 0.1999(9) 0.3781(3)
H15 H -0.0413(4) 0.0785(9) 0.4211(3)
C13 C -0.0915(4) 0.2041(9) 0.4805(3)
H16 H -0.1329(4) 0.1380(9) 0.4757(3)
H17 H -0.1101(4) 0.3031(9) 0.4785(3)
C14 C 0.0215(4) 0.2775(9) 0.5531(3)
H18 H 0.0036(4) 0.3771(9) 0.5514(3)
H19 H 0.0561(4) 0.2625(9) 0.5978(3)
C15 C 0.0615(4) 0.2571(8) 0.4984(3)
H20 H 0.0826(4) 0.1600(8) 0.5016(3)
H21 H 0.1013(4) 0.3275(8) 0.5047(3)
O1 O 1.0391(3) 0.6803(6) -0.0456(2)
N1 N 0.9000(3) 0.8568(6) 0.1208(3)
H1 H 0.8653(36) 0.8039(78) 0.0861(33)
N2 N 0.9917(3) 0.7779(6) 0.0695(2)
C1 C 0.9713(4) 0.8376(7) 0.1239(3)
C2 C 1.0281(3) 0.8902(7) 0.1859(3)
C3 C 1.0994(4) 0.9323(7) 0.1842(3)
H2 H 1.1131(4) 0.9273(7) 0.1413(3)
C4 C 1.1506(4) 0.9811(8) 0.2434(3)
H3 H 1.1996(4) 1.0118(8) 0.2418(3)
C5 C 1.1310(4) 0.9854(8) 0.3045(3)
H4 H 1.1679(4) 1.0128(8) 0.3463(3)
C6 C 1.0592(4) 0.9514(8) 0.3075(3)
H5 H 1.0459(4) 0.9597(8) 0.3505(3)
C7 C 1.0068(4) 0.9047(7) 0.2473(3)
C8 C 0.9269(4) 0.8778(8) 0.2451(3)
H6 H 0.9192(4) 0.7743(8) 0.2503(3)
H7 H 0.9152(4) 0.9286(8) 0.2829(3)
C9 C 0.8753(4) 0.9316(8) 0.1767(3)
C10 C 0.7947(4) 0.8867(9) 0.1689(4)
H8 H 0.7639(4) 0.9221(9) 0.1254(4)
H9 H 0.7780(4) 0.9283(9) 0.2062(4)
H10 H 0.7914(4) 0.7812(9) 0.1703(4)
C11 C 0.8804(4) 1.0974(8) 0.1681(4)
H11 H 0.8472(4) 1.1269(8) 0.1246(4)
H12 H 0.9307(4) 1.1237(8) 0.1692(4)
H13 H 0.8665(4) 1.1464(8) 0.2053(4)
C12 C 1.0568(4) 0.6793(9) 0.0785(3)
H14 H 1.0927(4) 0.6999(9) 0.1219(3)
H15 H 1.0413(4) 0.5785(9) 0.0789(3)
C13 C 1.0915(4) 0.7041(9) 0.0195(3)
H16 H 1.1329(4) 0.6380(9) 0.0243(3)
H17 H 1.1101(4) 0.8031(9) 0.0215(3)
C14 C 0.9785(4) 0.7775(9) -0.0531(3)
H18 H 0.9964(4) 0.8771(9) -0.0514(3)
H19 H 0.9439(4) 0.7625(9) -0.0978(3)
C15 C 0.9385(4) 0.7571(8) 0.0016(3)
H20 H 0.9174(4) 0.6600(8) -0.0016(3)
H21 H 0.8987(4) 0.8275(8) -0.0047(3)
O2 O 0.6390(3) 0.1652(6) 0.1568(2)
N3 N 0.6404(4) 0.2940(8) 0.3970(3)
H22 H 0.6740(27) 0.3241(64) 0.3922(26)
N4 N 0.6024(3) 0.2198(6) 0.2829(3)
C16 C 0.5898(4) 0.2344(7) 0.3447(3)
C17 C 0.5177(3) 0.2021(8) 0.3574(3)
C18 C 0.4523(4) 0.2085(8) 0.3033(3)
H23 H 0.4546(4) 0.2243(8) 0.2565(3)
C19 C 0.3845(4) 0.1918(10) 0.3173(4)
H24 H 0.3395(4) 0.1954(10) 0.2800(4)
C20 C 0.3802(4) 0.1702(9) 0.3839(5)
H25 H 0.3324(4) 0.1578(9) 0.3930(5)
C21 C 0.4457(4) 0.1664(8) 0.4384(4)
H26 H 0.4430(4) 0.1526(8) 0.4851(4)
C22 C 0.5142(4) 0.1823(8) 0.4249(3)
C23 C 0.5864(4) 0.1876(9) 0.4817(3)
H27 H 0.6125(4) 0.0959(9) 0.4829(3)
H28 H 0.5758(4) 0.2006(9) 0.5256(3)
C24 C 0.6352(4) 0.3124(9) 0.4697(3)
C25 C 0.6033(4) 0.4641(8) 0.4783(4)
H29 H 0.5534(4) 0.4716(8) 0.4484(4)
H30 H 0.6022(4) 0.4770(8) 0.5256(4)
H31 H 0.6340(4) 0.5391(8) 0.4662(4)
C26 C 0.7147(4) 0.2971(10) 0.5166(4)
H32 H 0.7337(4) 0.2012(10) 0.5105(4)
H33 H 0.7460(4) 0.3712(10) 0.5048(4)
H34 H 0.7143(4) 0.3092(10) 0.5642(4)
C27 C 0.5787(5) 0.0843(9) 0.2417(4)
H35 H 0.5308(5) 0.0542(9) 0.2463(4)
H36 H 0.6137(5) 0.0067(9) 0.2598(4)
C28 C 0.5740(5) 0.1059(11) 0.1694(4)
H37 H 0.5634(5) 0.0129(11) 0.1459(4)
H38 H 0.5329(5) 0.1707(11) 0.1497(4)
C29 C 0.6558(5) 0.2997(10) 0.1920(4)
H39 H 0.6154(5) 0.3673(10) 0.1743(4)
H40 H 0.6998(5) 0.3404(10) 0.1827(4)
C30 C 0.6687(4) 0.2855(9) 0.2678(4)
H41 H 0.7116(4) 0.2246(9) 0.2866(4)
H42 H 0.6781(4) 0.3809(9) 0.2891(4)
O2 O 0.3610(3) 0.6652(6) 0.3432(2)
N3 N 0.3596(4) 0.7940(8) 0.1030(3)
H22 H 0.3260(27) 0.8241(64) 0.1078(26)
N4 N 0.3976(3) 0.7198(6) 0.2171(3)
C16 C 0.4102(4) 0.7344(7) 0.1553(3)
C17 C 0.4823(3) 0.7021(8) 0.1426(3)
C18 C 0.5477(4) 0.7085(8) 0.1967(3)
H23 H 0.5454(4) 0.7243(8) 0.2435(3)
C19 C 0.6155(4) 0.6918(10) 0.1827(4)
H24 H 0.6605(4) 0.6954(10) 0.2200(4)
C20 C 0.6198(4) 0.6702(9) 0.1161(5)
H25 H 0.6676(4) 0.6578(9) 0.1070(5)
C21 C 0.5543(4) 0.6664(8) 0.0616(4)
H26 H 0.5570(4) 0.6526(8) 0.0149(4)
C22 C 0.4858(4) 0.6823(8) 0.0751(3)
C23 C 0.4136(4) 0.6876(9) 0.0183(3)
H27 H 0.3875(4) 0.5959(9) 0.0171(3)
H28 H 0.4242(4) 0.7006(9) -0.0256(3)
C24 C 0.3648(4) 0.8124(9) 0.0303(3)
C25 C 0.3967(4) 0.9641(8) 0.0217(4)
H29 H 0.4466(4) 0.9716(8) 0.0516(4)
H30 H 0.3978(4) 0.9770(8) -0.0256(4)
H31 H 0.3660(4) 1.0391(8) 0.0338(4)
C26 C 0.2853(4) 0.7971(10) -0.0166(4)
H32 H 0.2663(4) 0.7012(10) -0.0105(4)
H33 H 0.2540(4) 0.8712(10) -0.0048(4)
H34 H 0.2857(4) 0.8092(10) -0.0642(4)
C27 C 0.4213(5) 0.5843(9) 0.2583(4)
H35 H 0.4692(5) 0.5542(9) 0.2537(4)
H36 H 0.3863(5) 0.5067(9) 0.2402(4)
C28 C 0.4260(5) 0.6059(11) 0.3306(4)
H37 H 0.4366(5) 0.5129(11) 0.3541(4)
H38 H 0.4671(5) 0.6707(11) 0.3503(4)
C29 C 0.3442(5) 0.7997(10) 0.3080(4)
H39 H 0.3846(5) 0.8673(10) 0.3257(4)
H40 H 0.3002(5) 0.8404(10) 0.3173(4)
C30 C 0.3313(4) 0.7855(9) 0.2322(4)
H41 H 0.2884(4) 0.7246(9) 0.2134(4)
H42 H 0.3219(4) 0.8809(9) 0.2109(4)
O2 O 0.3610(3) 0.8348(6) 0.8432(2)
N3 N 0.3596(4) 0.7060(8) 0.6030(3)
H22 H 0.3260(27) 0.6759(64) 0.6078(26)
N4 N 0.3976(3) 0.7802(6) 0.7171(3)
C16 C 0.4102(4) 0.7656(7) 0.6553(3)
C17 C 0.4823(3) 0.7979(8) 0.6426(3)
C18 C 0.5477(4) 0.7915(8) 0.6967(3)
H23 H 0.5454(4) 0.7757(8) 0.7435(3)
C19 C 0.6155(4) 0.8082(10) 0.6827(4)
H24 H 0.6605(4) 0.8046(10) 0.7200(4)
C20 C 0.6198(4) 0.8298(9) 0.6161(5)
H25 H 0.6676(4) 0.8422(9) 0.6070(5)
C21 C 0.5543(4) 0.8336(8) 0.5616(4)
H26 H 0.5570(4) 0.8474(8) 0.5149(4)
C22 C 0.4858(4) 0.8177(8) 0.5751(3)
C23 C 0.4136(4) 0.8124(9) 0.5183(3)
H27 H 0.3875(4) 0.9041(9) 0.5171(3)
H28 H 0.4242(4) 0.7994(9) 0.4744(3)
C24 C 0.3648(4) 0.6876(9) 0.5303(3)
C25 C 0.3967(4) 0.5359(8) 0.5217(4)
H29 H 0.4466(4) 0.5284(8) 0.5516(4)
H30 H 0.3978(4) 0.5230(8) 0.4744(4)
H31 H 0.3660(4) 0.4609(8) 0.5338(4)
C26 C 0.2853(4) 0.7029(10) 0.4834(4)
H32 H 0.2663(4) 0.7988(10) 0.4895(4)
H33 H 0.2540(4) 0.6288(10) 0.4952(4)
H34 H 0.2857(4) 0.6908(10) 0.4358(4)
C27 C 0.4213(5) 0.9157(9) 0.7583(4)
H35 H 0.4692(5) 0.9458(9) 0.7537(4)
H36 H 0.3863(5) 0.9933(9) 0.7402(4)
C28 C 0.4260(5) 0.8941(11) 0.8306(4)
H37 H 0.4366(5) 0.9871(11) 0.8541(4)
H38 H 0.4671(5) 0.8293(11) 0.8503(4)
C29 C 0.3442(5) 0.7003(10) 0.8080(4)
H39 H 0.3846(5) 0.6327(10) 0.8257(4)
H40 H 0.3002(5) 0.6596(10) 0.8173(4)
C30 C 0.3313(4) 0.7145(9) 0.7322(4)
H41 H 0.2884(4) 0.7754(9) 0.7134(4)
H42 H 0.3219(4) 0.6191(9) 0.7109(4)
O2 O 0.6390(3) 0.3348(6) 0.6568(2)
N3 N 0.6404(4) 0.2060(8) 0.8970(3)
H22 H 0.6740(27) 0.1759(64) 0.8922(26)
N4 N 0.6024(3) 0.2802(6) 0.7829(3)
C16 C 0.5898(4) 0.2656(7) 0.8447(3)
C17 C 0.5177(3) 0.2979(8) 0.8574(3)
C18 C 0.4523(4) 0.2915(8) 0.8033(3)
H23 H 0.4546(4) 0.2757(8) 0.7565(3)
C19 C 0.3845(4) 0.3082(10) 0.8173(4)
H24 H 0.3395(4) 0.3046(10) 0.7800(4)
C20 C 0.3802(4) 0.3298(9) 0.8839(5)
H25 H 0.3324(4) 0.3422(9) 0.8930(5)
C21 C 0.4457(4) 0.3336(8) 0.9384(4)
H26 H 0.4430(4) 0.3474(8) 0.9851(4)
C22 C 0.5142(4) 0.3177(8) 0.9249(3)
C23 C 0.5864(4) 0.3124(9) 0.9817(3)
H27 H 0.6125(4) 0.4041(9) 0.9829(3)
H28 H 0.5758(4) 0.2994(9) 1.0256(3)
C24 C 0.6352(4) 0.1876(9) 0.9697(3)
C25 C 0.6033(4) 0.0359(8) 0.9783(4)
H29 H 0.5534(4) 0.0284(8) 0.9484(4)
H30 H 0.6022(4) 0.0230(8) 1.0256(4)
H31 H 0.6340(4) -0.0391(8) 0.9662(4)
C26 C 0.7147(4) 0.2029(10) 1.0166(4)
H32 H 0.7337(4) 0.2988(10) 1.0105(4)
H33 H 0.7460(4) 0.1288(10) 1.0048(4)
H34 H 0.7143(4) 0.1908(10) 1.0642(4)
C27 C 0.5787(5) 0.4157(9) 0.7417(4)
H35 H 0.5308(5) 0.4458(9) 0.7463(4)
H36 H 0.6137(5) 0.4933(9) 0.7598(4)
C28 C 0.5740(5) 0.3941(11) 0.6694(4)
H37 H 0.5634(5) 0.4871(11) 0.6459(4)
H38 H 0.5329(5) 0.3293(11) 0.6497(4)
C29 C 0.6558(5) 0.2003(10) 0.6920(4)
H39 H 0.6154(5) 0.1327(10) 0.6743(4)
H40 H 0.6998(5) 0.1596(10) 0.6827(4)
C30 C 0.6687(4) 0.2145(9) 0.7678(4)
H41 H 0.7116(4) 0.2754(9) 0.7866(4)
H42 H 0.6781(4) 0.1191(9) 0.7891(4)

#END
