./ACATUT_from_POSCAR.cif_generated_by_CrystalShift
_symmetry_cell_setting triclinic
_symmetry_space_group_name_H-M 'P 1'
loop_
_symmetry_equiv_pos_site_id
_symmetry_equiv_pos_as_xyz
1 x,y,z
_cell_length_a 26.506000
_cell_length_b 7.128000
_cell_length_c 14.092000
_cell_angle_alpha 90.000000
_cell_angle_beta 113.370000
_cell_angle_gamma 90.000000
_cell_volume 2444.046327
loop_
_atom_site_label
_atom_site_type_symbol
_atom_site_fract_x
_atom_site_fract_y
_atom_site_fract_z
H1 H 0.811600 0.340100 0.685800
H2 H 0.760700 0.534600 0.758500
H3 H 0.783400 0.422500 0.944300
H4 H 0.906400 0.549800 1.060200
H5 H 1.004400 0.666500 1.122200
H6 H 1.064800 0.387600 1.178600
H7 H 0.868800 0.135100 0.824600
H8 H 0.495700 0.617400 0.354400
H9 H 1.004300 0.117400 1.145600
H10 H 0.311600 0.840100 0.685800
H11 H 0.631200 0.635100 0.675400
H12 H 0.260700 1.034600 0.758500
H13 H 0.435200 0.887600 0.321400
H14 H 0.283400 0.922500 0.944300
H15 H 0.495600 1.166500 0.377800
H16 H 0.406400 1.049800 1.060200
H17 H 0.593600 1.049800 0.439800
H18 H 0.504400 1.166500 1.122200
H19 H 0.716600 0.922500 0.555700
H20 H 0.564800 0.887600 1.178600
H21 H 0.739300 1.034600 0.741500
H22 H 0.368800 0.635100 0.824600
H23 H 0.688400 0.840100 0.814200
H24 H 0.504300 0.617400 1.145600
H25 H 0.811600 0.659900 0.185800
H26 H 0.760700 0.465400 0.258500
H27 H 0.783400 0.577500 0.444300
H28 H 0.906400 0.450200 0.560200
H29 H 1.004400 0.333500 0.622200
H30 H 1.064800 0.612400 0.678600
H31 H -0.004300 0.117400 0.354400
H32 H 0.868800 0.864900 0.324600
H33 H 1.004300 0.882600 0.645600
H34 H 0.131200 0.135100 0.675400
H35 H 0.311600 0.159900 0.185800
H36 H -0.064800 0.387600 0.321400
H37 H 0.260700 -0.034600 0.258500
H38 H -0.004400 0.666500 0.377800
H39 H 0.283400 0.077500 0.444300
H40 H 0.093600 0.549800 0.439800
H41 H 0.406400 -0.049800 0.560200
H42 H 0.216600 0.422500 0.555700
H43 H 0.504400 -0.166500 0.622200
H44 H 0.239300 0.534600 0.741500
H45 H 0.564800 0.112400 0.678600
H46 H 0.188400 0.340100 0.814200
H47 H 0.368800 0.364900 0.324600
H48 H 0.504300 0.382600 0.645600
H49 H 0.188400 0.659900 0.314200
H50 H 0.239300 0.465400 0.241500
H51 H 0.216600 0.577500 0.055700
H52 H 0.093600 0.450200 -0.060200
H53 H -0.004400 0.333500 -0.122200
H54 H 0.495700 0.382600 -0.145600
H55 H -0.064800 0.612400 -0.178600
H56 H 0.131200 0.864900 0.175400
H57 H 0.631200 0.364900 0.175400
H58 H -0.004300 0.882600 -0.145600
H59 H 0.435200 0.112400 -0.178600
H60 H 0.688400 0.159900 0.314200
H61 H 0.495600 -0.166500 -0.122200
H62 H 0.739300 -0.034600 0.241500
H63 H 0.593600 -0.049800 -0.060200
H64 H 0.716600 0.077500 0.055700
C65 C 0.700900 0.122400 0.102300
C66 C 0.714200 0.064300 0.206800
C67 C 0.561100 0.026800 -0.084000
C68 C 0.686500 0.165800 0.244900
C69 C 0.507300 -0.038500 -0.119800
C70 C 0.785800 0.435700 0.793200
C71 C 0.799100 0.377600 0.897700
C72 C 0.938900 0.473200 1.084000
C73 C 0.992700 0.538500 1.119800
C74 C 1.025300 0.388000 1.149800
C75 C 0.313500 0.834200 0.755100
C76 C 0.474700 0.888000 0.350200
C77 C 0.474700 0.112000 -0.149800
C78 C 0.285800 0.935700 0.793200
C79 C 0.507300 1.038500 0.380200
C80 C 0.299100 0.877600 0.897700
C81 C -0.025300 0.612000 -0.149800
C82 C 0.561100 0.973200 0.416000
C83 C 0.007300 0.461500 -0.119800
C84 C 0.438900 0.973200 1.084000
C85 C 0.061100 0.526800 -0.084000
C86 C 0.700900 0.877600 0.602300
C87 C 0.200900 0.622400 0.102300
C88 C 0.492700 1.038500 1.119800
C89 C 0.214200 0.564300 0.206800
C90 C 0.714200 0.935700 0.706800
C91 C 0.186500 0.665800 0.244900
C92 C 0.525300 0.888000 1.149800
C93 C 0.686500 0.834200 0.744900
C94 C 0.813500 0.665800 0.255100
C95 C 0.785800 0.564300 0.293200
C96 C 0.799100 0.622400 0.397700
C97 C 0.938900 0.526800 0.584000
C98 C 0.992700 0.461500 0.619800
C99 C 1.025300 0.612000 0.649800
C100 C 0.813500 0.334200 0.755100
C101 C -0.025300 0.388000 0.350200
C102 C 0.313500 0.165800 0.255100
C103 C 0.007300 0.538500 0.380200
C104 C 0.525300 0.112000 0.649800
C105 C 0.186500 0.334200 0.744900
C106 C 0.492700 -0.038500 0.619800
C107 C 0.214200 0.435700 0.706800
C108 C 0.438900 0.026800 0.584000
C109 C 0.200900 0.377600 0.602300
C110 C 0.299100 0.122400 0.397700
C111 C 0.061100 0.473200 0.416000
C112 C 0.285800 0.064300 0.293200
N113 N 0.344900 0.719600 0.830300
N114 N 0.344900 0.280400 0.330300
N115 N 0.336300 0.250500 0.416800
N116 N 0.560600 0.788300 0.410500
N117 N 0.507600 0.736500 0.368300
N118 N 0.844900 0.219600 0.830300
N119 N 0.836300 0.249500 0.916800
N120 N 0.663700 0.749500 0.583200
N121 N 0.939400 0.711700 0.589500
N122 N 0.992400 0.763500 0.631700
N123 N 0.155100 0.219600 0.669700
N124 N 0.992400 0.236500 1.131700
N125 N 0.844900 0.780400 0.330300
N126 N 0.163700 0.249500 0.583200
N127 N 0.492400 0.263500 0.631700
N128 N 0.007600 0.236500 0.368300
N129 N 0.439400 0.211700 0.589500
N130 N 0.060600 0.288300 0.410500
N131 N 0.939400 0.288300 1.089500
N132 N 0.655100 0.719600 0.669700
N133 N 0.060600 0.711700 -0.089500
N134 N 0.007600 0.763500 -0.131700
N135 N 0.163700 0.750500 0.083200
N136 N 0.155100 0.780400 0.169700
N137 N 0.655100 0.280400 0.169700
N138 N 0.663700 0.250500 0.083200
N139 N 0.507600 0.263500 -0.131700
N140 N 0.560600 0.211700 -0.089500
N141 N 0.836300 0.750500 0.416800
N142 N 0.336300 0.749500 0.916800
N143 N 0.492400 0.736500 1.131700
N144 N 0.439400 0.788300 1.089500
Cl145 Cl 0.304700 0.391800 1.000800
Cl146 Cl 0.577730 0.430400 0.301860
Cl147 Cl 0.336000 0.776900 1.136200
Cl148 Cl 0.419860 0.422200 0.966070
Cl149 Cl 0.580140 0.422200 0.533930
Cl150 Cl 0.580140 0.577800 0.033930
Cl151 Cl 0.664000 0.223100 -0.136200
Cl152 Cl 0.695300 0.608200 -0.000800
Cl153 Cl 0.422270 0.430400 1.198140
Cl154 Cl 0.077730 1.069600 -0.198140
Cl155 Cl 0.077730 -0.069600 0.301860
Cl156 Cl 0.422270 0.569600 0.698140
Cl157 Cl 0.080140 -0.077800 0.533930
Cl158 Cl 0.419860 0.577800 0.466070
Cl159 Cl 0.164000 0.276900 0.363800
Cl160 Cl 0.336000 0.223100 0.636200
Cl161 Cl 0.195300 -0.108200 0.499200
Cl162 Cl 0.664000 0.776900 0.363800
Cl163 Cl 0.922270 -0.069600 1.198140
Cl164 Cl 0.919860 -0.077800 0.966070
Cl165 Cl 0.836000 0.276900 1.136200
Cl166 Cl 0.804700 -0.108200 1.000800
Cl167 Cl 0.304700 0.608200 0.500800
Cl168 Cl 0.577730 0.569600 -0.198140
Cl169 Cl 0.804700 1.108200 0.500800
Cl170 Cl 0.836000 0.723100 0.636200
Cl171 Cl 0.919860 1.077800 0.466070
Cl172 Cl 0.922270 1.069600 0.698140
Cl173 Cl 0.195300 1.108200 -0.000800
Cl174 Cl 0.080140 1.077800 0.033930
Cl175 Cl 0.164000 0.723100 -0.136200
Cl176 Cl 0.695300 0.391800 0.499200
Pt177 Pt 0.876501 0.099880 1.049210
Pt178 Pt 0.376501 0.599880 1.049210
Pt179 Pt 0.376501 0.400120 0.549210
Pt180 Pt 0.123499 0.900120 -0.049210
Pt181 Pt 0.123499 0.099880 0.450790
Pt182 Pt 0.623499 0.400120 -0.049210
Pt183 Pt 0.876501 0.900120 0.549210
Pt184 Pt 0.623499 0.599880 0.450790

#END
