./ACAWOQ_from_POSCAR.cif_generated_by_CrystalShift
_symmetry_cell_setting triclinic
_symmetry_space_group_name_H-M 'P 1'
loop_
_symmetry_equiv_pos_site_id
_symmetry_equiv_pos_as_xyz
1 x,y,z
_cell_length_a 8.823000
_cell_length_b 16.955000
_cell_length_c 9.594000
_cell_angle_alpha 90.000000
_cell_angle_beta 113.900000
_cell_angle_gamma 90.000000
_cell_volume 1312.141391
loop_
_atom_site_label
_atom_site_type_symbol
_atom_site_fract_x
_atom_site_fract_y
_atom_site_fract_z
H1 H 0.483000 0.061000 0.391000
H2 H 0.748000 0.037000 0.402000
H3 H 0.789000 0.124000 0.399000
H4 H 0.541000 0.040000 0.139000
H5 H 0.715000 0.073000 0.159000
H6 H 0.488000 0.159000 0.012000
H7 H 0.631000 0.206000 0.161000
H8 H 0.340000 0.144000 0.156000
H9 H 0.374000 0.226000 0.159000
H10 H 0.652000 0.318000 0.326000
H11 H 0.631000 0.443000 0.250000
H12 H 0.409000 0.520000 0.241000
H13 H 0.223000 0.476000 0.338000
H14 H 0.257000 0.352000 0.413000
H15 H 0.017000 0.561000 0.109000
H16 H -0.111000 0.608000 -0.019000
H17 H -0.248000 0.537000 0.098000
H18 H -0.289000 0.624000 0.101000
H19 H 0.757000 0.148000 0.913000
H20 H 0.723000 0.024000 0.838000
H21 H 0.909000 -0.020000 0.741000
H22 H 1.131000 0.057000 0.750000
H23 H 1.152000 0.182000 0.826000
H24 H 0.874000 0.274000 0.659000
H25 H 0.840000 0.356000 0.656000
H26 H 1.131000 0.294000 0.661000
H27 H 0.988000 0.341000 0.512000
H28 H 1.215000 0.427000 0.659000
H29 H 1.041000 0.460000 0.639000
H30 H 1.289000 0.376000 0.899000
H31 H 1.248000 0.463000 0.902000
H32 H 1.111000 0.392000 1.019000
H33 H 0.983000 0.439000 0.891000
H34 H -0.041000 0.540000 0.361000
H35 H -0.215000 0.573000 0.341000
H36 H 0.012000 0.659000 0.488000
H37 H -0.131000 0.706000 0.339000
H38 H 0.160000 0.644000 0.344000
H39 H 0.126000 0.726000 0.341000
H40 H -0.152000 0.818000 0.174000
H41 H -0.131000 0.943000 0.250000
H42 H 0.091000 1.020000 0.259000
H43 H 0.277000 0.976000 0.162000
H44 H 0.243000 0.852000 0.087000
H45 H 0.517000 0.939000 0.609000
H46 H 0.389000 0.892000 0.481000
H47 H 0.252000 0.963000 0.598000
H48 H 0.211000 0.876000 0.601000
H49 H 0.459000 0.960000 0.861000
H50 H 0.285000 0.927000 0.841000
H51 H 0.512000 0.841000 0.988000
H52 H 0.743000 0.648000 0.587000
H53 H 0.777000 0.524000 0.662000
H54 H 0.591000 0.480000 0.759000
H55 H 0.369000 0.557000 0.750000
H56 H 0.348000 0.682000 0.674000
H57 H 0.626000 0.774000 0.841000
H58 H 0.660000 0.856000 0.844000
H59 H 0.369000 0.794000 0.839000
H60 H 0.611000 0.108000 0.519000
C61 C 0.449800 0.575200 0.721700
C62 C 0.574200 0.527400 0.719500
C63 C 0.687500 0.555800 0.666200
C64 C 0.674100 0.632000 0.612500
C65 C 0.549200 0.681000 0.615300
C66 C 0.429700 0.895500 0.584300
C67 C 0.955400 0.279800 1.079400
C68 C 0.963300 0.263500 0.939600
C69 C 0.922400 0.316200 0.686800
C70 C 1.049400 0.335200 0.623600
C71 C 1.132000 0.413700 0.685600
C72 C 0.044600 0.720200 -0.079400
C73 C 0.036700 0.736500 0.060400
C74 C 0.077600 0.683800 0.313200
C75 C -0.049400 0.664800 0.376400
C76 C -0.132000 0.586300 0.314400
C77 C -0.203400 0.585900 0.143100
C78 C -0.070300 0.604500 0.084300
C79 C 0.049200 0.819000 0.115300
C80 C 0.174100 0.868000 0.112500
C81 C 0.187500 0.944200 0.166200
C82 C 0.074200 0.972600 0.219500
C83 C -0.050200 0.924800 0.221700
C84 C -0.063800 0.848300 0.169000
C85 C 0.296600 0.914100 0.643100
C86 C 0.368000 0.913700 0.814400
C87 C 0.450600 0.835200 0.876400
C88 C 0.577600 0.816200 0.813200
C89 C 0.536700 0.763500 0.560400
C90 C 0.544600 0.779800 0.420600
C91 C 1.203400 0.414100 0.856900
C92 C 1.070300 0.395500 0.915700
C93 C 0.950800 0.181000 0.884700
C94 C 0.825900 0.132000 0.887500
C95 C 0.563800 0.348300 0.331000
C96 C 1.063800 0.151700 0.831000
C97 C 1.050200 0.075200 0.778300
C98 C 0.925800 0.027400 0.780500
C99 C 0.812500 0.055800 0.833800
C100 C 0.550200 0.424800 0.278300
C101 C 0.425800 0.472600 0.280500
C102 C 0.312500 0.444200 0.333800
C103 C 0.325900 0.368000 0.387500
C104 C 0.450800 0.319000 0.384700
C105 C 0.455400 0.220200 0.579400
C106 C 0.463300 0.236500 0.439600
C107 C 0.422400 0.183800 0.186800
C108 C 0.549400 0.164800 0.123600
C109 C 0.632000 0.086300 0.185600
C110 C 0.703400 0.085900 0.356900
C111 C 0.570300 0.104500 0.415700
C112 C 0.436200 0.651700 0.669000
N113 N 0.385300 0.150200 0.608500
N114 N 0.885300 0.349800 1.108500
N115 N 0.991600 0.319500 0.854300
N116 N 0.114700 0.650200 -0.108500
N117 N 0.008400 0.680500 0.145700
N118 N 0.508400 0.819500 0.645700
N119 N 0.614700 0.849800 0.391500
N120 N 0.491600 0.180500 0.354300
O121 O 0.603600 0.861700 0.260800
O122 O 0.896400 0.361700 1.239200
O123 O 0.809600 0.394400 1.001800
O124 O 0.190400 0.605600 -0.001800
O125 O 0.103600 0.638300 -0.239200
O126 O 0.690400 0.894400 0.498200
O127 O 0.396400 0.138300 0.739200
O128 O 0.309600 0.105600 0.501800
Br129 Br 0.467230 0.706550 0.259950
Br130 Br -0.032770 0.793450 -0.240050
Br131 Br 0.532770 0.293450 0.740050
Br132 Br 1.032770 0.206550 1.240050

#END
