./ACBIPH_from_POSCAR.cif_generated_by_CrystalShift
_symmetry_cell_setting triclinic
_symmetry_space_group_name_H-M 'P 1'
loop_
_symmetry_equiv_pos_site_id
_symmetry_equiv_pos_as_xyz
1 x,y,z
_cell_length_a 4.000000
_cell_length_b 38.510000
_cell_length_c 7.520000
_cell_angle_alpha 90.000000
_cell_angle_beta 100.070000
_cell_angle_gamma 90.000000
_cell_volume 1140.535790
loop_
_atom_site_label
_atom_site_type_symbol
_atom_site_fract_x
_atom_site_fract_y
_atom_site_fract_z
H1 H 0.060200 0.394740 0.171770
H2 H 0.098470 0.260060 0.825600
H3 H -0.440150 0.502120 0.170390
H4 H -0.148620 0.499510 0.368050
H5 H -0.545100 0.481350 0.358780
H6 H -0.105400 0.407840 0.804070
H7 H -0.257520 0.453890 0.585390
H8 H 0.621350 0.335960 1.173750
H9 H 0.939800 0.894740 1.328230
H10 H 0.778550 0.846690 1.109380
H11 H 0.561050 0.879420 0.562010
H12 H 0.378650 0.835960 0.326250
H13 H 0.528830 0.773640 0.389320
H14 H 0.901530 0.760060 0.674400
H15 H 1.440150 1.002120 1.329610
H16 H -0.257520 0.046110 0.085390
H17 H -0.105400 0.092160 0.304070
H18 H -0.545100 0.018650 -0.141220
H19 H -0.148620 0.000490 -0.131950
H20 H -0.440150 -0.002120 -0.329610
H21 H 0.098470 0.239940 0.325600
H22 H 0.471170 0.226360 0.610680
H23 H 0.621350 0.164040 0.673750
H24 H 0.438950 0.120580 0.437990
H25 H 0.221450 0.153310 -0.109380
H26 H 0.060200 0.105260 -0.328230
H27 H 1.148620 0.999510 1.131950
H28 H 0.221450 0.346690 0.390620
H29 H 1.545100 0.981350 1.141220
H30 H 1.105400 0.907840 0.695930
H31 H 1.257520 0.953890 0.914610
H32 H 0.438950 0.379420 0.937990
H33 H 0.939800 0.605260 0.828230
H34 H 0.778550 0.653310 0.609380
H35 H 0.561050 0.620580 0.062010
H36 H 0.378650 0.664040 -0.173750
H37 H 0.528830 0.726360 -0.110680
H38 H 0.901530 0.739940 0.174400
H39 H 1.440150 0.497880 0.829610
H40 H 1.148620 0.500490 0.631950
H41 H 1.545100 0.518650 0.641220
H42 H 1.105400 0.592160 0.195930
H43 H 1.257520 0.546110 0.414610
H44 H 0.471170 0.273640 1.110680
C45 C 0.887580 0.629760 0.566260
C46 C 0.935880 0.626410 0.388470
C47 C 0.634650 0.646310 0.088640
C48 C 0.529700 0.671510 -0.044340
C49 C 0.619250 0.705970 -0.010150
C50 C 0.823150 0.714290 0.151600
C51 C 0.927650 0.689970 0.284610
C52 C 1.353220 0.512530 0.713900
C53 C 1.233320 0.543750 0.771420
C54 C 0.169350 0.154250 0.247450
C55 C 1.070670 0.595460 0.334680
C56 C 0.830650 0.845750 0.752550
C57 C 1.124720 0.927900 1.134680
C58 C 1.159370 0.930840 0.957850
C59 C 1.070670 0.904540 0.834680
C60 C 1.233320 0.956250 1.271420
C61 C 1.353220 0.987470 1.213900
C62 C 0.927650 0.810030 0.784610
C63 C 0.823150 0.785710 0.651600
C64 C 0.619250 0.794030 0.489850
C65 C 0.529700 0.828490 0.455660
C66 C 0.634650 0.853690 0.588640
C67 C 0.935880 0.873590 0.888470
C68 C 0.887580 0.870240 1.066260
C69 C 0.980030 0.897360 1.190030
C70 C 1.159370 0.569160 0.457850
C71 C 1.124720 0.572100 0.634680
C72 C 0.830650 0.654250 0.252550
C73 C -0.124720 0.072100 -0.134680
C74 C 0.019970 0.102640 -0.190030
C75 C 0.112420 0.129760 -0.066260
C76 C 0.064120 0.126410 0.111530
C77 C 0.365350 0.146310 0.411360
C78 C 0.470300 0.171510 0.544340
C79 C 0.380750 0.205970 0.510150
C80 C 0.176850 0.214290 0.348400
C81 C -0.159370 0.069160 0.042150
C82 C 0.072350 0.189970 0.215390
C83 C 0.169350 0.345750 0.747450
C84 C -0.124720 0.427900 0.365320
C85 C -0.159370 0.430840 0.542150
C86 C -0.070670 0.404540 0.665320
C87 C -0.233320 0.456250 0.228580
C88 C -0.353220 0.487470 0.286100
C89 C 0.072350 0.310030 0.715390
C90 C 0.176850 0.285710 0.848400
C91 C 0.380750 0.294030 1.010150
C92 C 0.470300 0.328490 1.044340
C93 C 0.365350 0.353690 0.911360
C94 C 0.064120 0.373590 0.611530
C95 C 0.112420 0.370240 0.433740
C96 C 0.019970 0.397360 0.309970
C97 C -0.353220 0.012530 -0.213900
C98 C -0.233320 0.043750 -0.271420
C99 C -0.070670 0.095460 0.165320
C100 C 0.980030 0.602640 0.690030
O101 O 1.239870 0.550610 0.940980
O102 O -0.239870 0.050610 -0.440980
O103 O 1.239870 0.949390 1.440980
O104 O -0.239870 0.449390 0.059020
Cl105 Cl 1.189070 0.702790 0.483230
Cl106 Cl 1.189070 0.797210 0.983230
Cl107 Cl -0.189070 0.297210 0.516770
Cl108 Cl -0.189070 0.202790 0.016770

#END
