./ACBNZA_from_POSCAR.cif_generated_by_CrystalShift
_symmetry_cell_setting triclinic
_symmetry_space_group_name_H-M 'P 1'
loop_
_symmetry_equiv_pos_site_id
_symmetry_equiv_pos_as_xyz
1 x,y,z
_cell_length_a 4.952000
_cell_length_b 14.496000
_cell_length_c 12.471000
_cell_angle_alpha 90.000000
_cell_angle_beta 93.990000
_cell_angle_gamma 90.000000
_cell_volume 893.050831
loop_
_atom_site_label
_atom_site_type_symbol
_atom_site_fract_x
_atom_site_fract_y
_atom_site_fract_z
H1 H -0.220000 0.099000 0.545000
H2 H -0.180000 0.185000 0.496000
H3 H 0.160000 0.266000 0.560000
H4 H 0.120000 0.543000 0.574000
H5 H 0.300000 0.523000 0.673000
H6 H 0.560000 0.146000 0.784000
H7 H 0.910000 0.225000 0.841000
H8 H 1.000000 0.383000 0.835000
H9 H 0.690000 0.470000 0.717000
H10 H 0.720000 0.599000 0.955000
H11 H 0.570000 0.583000 1.030000
H12 H 0.680000 0.685000 1.004000
H13 H 0.340000 0.766000 0.940000
H14 H 1.190000 0.030000 0.217000
H15 H 1.500000 0.117000 0.335000
H16 H 1.410000 0.275000 0.341000
H17 H 1.060000 0.354000 0.284000
H18 H 0.800000 -0.023000 0.173000
H19 H 0.620000 -0.043000 0.074000
H20 H 0.660000 0.234000 0.060000
H21 H 0.320000 0.315000 -0.004000
H22 H 0.430000 0.417000 -0.030000
H23 H 0.280000 0.401000 0.045000
H24 H 0.380000 1.043000 0.926000
H25 H 0.200000 1.023000 0.827000
H26 H -0.060000 0.646000 0.716000
H27 H -0.410000 0.725000 0.659000
H28 H -0.500000 0.883000 0.665000
H29 H -0.190000 0.970000 0.783000
H30 H 1.220000 0.901000 0.455000
H31 H 1.070000 0.917000 0.530000
H32 H 1.180000 0.815000 0.504000
H33 H 0.840000 0.734000 0.440000
H34 H 0.880000 0.457000 0.426000
H35 H 0.700000 0.477000 0.327000
H36 H 0.440000 0.854000 0.216000
H37 H 0.310000 0.530000 0.283000
H38 H 0.000000 0.617000 0.165000
H39 H 0.090000 0.775000 0.159000
H40 H -0.070000 0.083000 0.470000
C41 C 0.874000 0.858600 0.396700
C42 C 0.716000 0.578100 0.412200
C43 C 0.403000 0.781300 0.256600
C44 C 0.197000 0.736100 0.196200
C45 C 0.153000 0.644000 0.204700
C46 C 0.319000 0.593500 0.274800
C47 C 0.933000 0.231000 0.169400
C48 C 0.969000 0.134500 0.162000
C49 C 1.181000 0.093500 0.225200
C50 C 1.347000 0.144000 0.295300
C51 C 0.067000 0.769000 0.830600
C52 C 0.031000 0.865500 0.838000
C53 C -0.181000 0.906500 0.774800
C54 C -0.347000 0.856000 0.704700
C55 C -0.303000 0.763900 0.696200
C56 C -0.097000 0.718700 0.756600
C57 C 0.216000 0.921900 0.912200
C58 C 0.374000 0.641400 0.896700
C59 C 0.603000 0.626300 0.981000
C60 C 0.531000 0.634500 0.338000
C61 C 0.567000 0.731000 0.330600
C62 C 1.303000 0.236100 0.303800
C63 C -0.103000 0.126300 0.519000
C64 C 0.126000 0.141400 0.603300
C65 C 0.284000 0.421900 0.587800
C66 C 0.397000 0.373700 0.019000
C67 C 0.626000 0.358600 0.103300
C68 C 0.784000 0.078100 0.087800
C69 C 1.097000 0.281300 0.243400
C70 C 0.597000 0.218700 0.743400
C71 C 0.803000 0.263900 0.803800
C72 C 0.847000 0.356000 0.795300
C73 C 0.681000 0.406500 0.725200
C74 C 0.433000 0.269000 0.669400
C75 C 0.469000 0.365500 0.662000
C76 C 1.103000 0.873700 0.481000
N77 N 0.253000 0.509200 0.615600
N78 N 0.753000 -0.009200 0.115600
N79 N 0.727000 0.272300 0.102200
N80 N 0.247000 1.009200 0.884400
N81 N 0.273000 0.727700 0.897800
N82 N 0.747000 0.490800 0.384400
N83 N 0.773000 0.772300 0.397800
N84 N 0.227000 0.227700 0.602200
O85 O 0.293000 0.581500 0.834800
O86 O 0.330000 0.889200 0.995000
O87 O 0.170000 0.389200 0.505000
O88 O 0.207000 0.081500 0.665200
O89 O 0.707000 0.418500 0.165200
O90 O 0.830000 0.610800 0.495000
O91 O 0.793000 0.918500 0.334800
O92 O 0.670000 0.110800 0.005000

#END
