./ACCRHG01_from_POSCAR.cif_generated_by_CrystalShift
_symmetry_cell_setting triclinic
_symmetry_space_group_name_H-M 'P 1'
loop_
_symmetry_equiv_pos_site_id
_symmetry_equiv_pos_as_xyz
1 x,y,z
_cell_length_a 8.564000
_cell_length_b 8.564000
_cell_length_c 13.955000
_cell_angle_alpha 90.000000
_cell_angle_beta 90.000000
_cell_angle_gamma 90.000000
_cell_volume 1023.488950
loop_
_atom_site_label
_atom_site_type_symbol
_atom_site_fract_x
_atom_site_fract_y
_atom_site_fract_z
H1 H 0.790600 0.067500 0.557400
H2 H 0.790600 0.067500 0.442600
H3 H 0.480100 0.848500 1.000000
H4 H 0.709400 1.432500 0.942600
H5 H 0.709400 1.432500 1.057400
H6 H 0.519900 0.151500 0.000000
H7 H 0.432500 0.290600 0.057400
H8 H 0.651500 -0.019900 0.500000
H9 H 0.848500 1.519900 1.000000
H10 H 0.567500 0.709400 1.057400
H11 H 1.432500 1.290600 0.942600
H12 H 1.151500 0.480100 1.000000
H13 H 0.432500 0.290600 -0.057400
H14 H 0.067500 0.209400 0.557400
H15 H 1.432500 1.290600 1.057400
H16 H 1.519900 1.151500 1.000000
H17 H 1.290600 0.567500 0.942600
H18 H 1.290600 0.567500 1.057400
H19 H 1.290600 0.567500 0.057400
H20 H 1.290600 0.567500 -0.057400
H21 H 1.151500 0.480100 0.000000
H22 H 0.567500 0.709400 0.057400
H23 H 0.567500 0.709400 -0.057400
H24 H -0.151500 0.519900 0.000000
H25 H -0.290600 0.432500 0.057400
H26 H -0.290600 0.432500 -0.057400
H27 H -0.519900 -0.151500 0.000000
H28 H -0.432500 -0.290600 -0.057400
H29 H -0.432500 -0.290600 0.057400
H30 H 0.151500 -0.519900 0.000000
H31 H 0.290600 -0.432500 -0.057400
H32 H 0.290600 -0.432500 0.057400
H33 H 0.067500 0.209400 0.442600
H34 H -0.019900 0.348500 0.500000
H35 H 0.480100 0.848500 0.000000
H36 H 0.709400 1.432500 -0.057400
H37 H 0.709400 1.432500 0.057400
H38 H 0.519900 0.151500 1.000000
H39 H 0.432500 0.290600 1.057400
H40 H 0.209400 0.932500 0.442600
H41 H 0.848500 1.519900 0.000000
H42 H 1.432500 1.290600 -0.057400
H43 H 1.432500 1.290600 0.057400
H44 H 1.519900 1.151500 0.000000
H45 H 0.432500 0.290600 0.942600
H46 H 0.209400 0.932500 0.557400
H47 H 1.019900 0.651500 0.500000
H48 H 1.290600 -0.432500 1.057400
H49 H 1.290600 -0.432500 0.942600
H50 H 1.151500 -0.519900 1.000000
H51 H 0.567500 -0.290600 1.057400
H52 H 0.567500 -0.290600 0.942600
H53 H 0.480100 -0.151500 1.000000
H54 H 0.709400 0.432500 0.942600
H55 H 0.709400 0.432500 1.057400
H56 H -0.151500 0.519900 1.000000
H57 H -0.290600 0.432500 1.057400
H58 H -0.290600 0.432500 0.942600
H59 H -0.519900 -0.151500 1.000000
H60 H -0.432500 -0.290600 0.942600
H61 H -0.432500 -0.290600 1.057400
H62 H 0.151500 -0.519900 1.000000
H63 H 0.290600 -0.432500 0.942600
H64 H 0.290600 -0.432500 1.057400
H65 H 0.348500 1.019900 0.500000
H66 H 0.848500 0.519900 1.000000
H67 H 0.932500 0.790600 0.557400
H68 H 1.432500 0.290600 0.942600
H69 H 1.432500 0.290600 1.057400
H70 H 0.519900 1.151500 0.000000
H71 H 0.432500 1.290600 0.057400
H72 H 1.519900 0.151500 1.000000
H73 H 1.290600 -0.432500 0.057400
H74 H 1.290600 -0.432500 -0.057400
H75 H 1.151500 -0.519900 0.000000
H76 H 0.567500 -0.290600 0.057400
H77 H 0.432500 1.290600 -0.057400
H78 H 0.567500 -0.290600 -0.057400
H79 H 0.480100 -0.151500 0.000000
H80 H 0.709400 0.432500 -0.057400
H81 H 0.709400 0.432500 0.057400
H82 H 0.848500 0.519900 0.000000
H83 H 1.432500 0.290600 -0.057400
H84 H 0.932500 0.790600 0.442600
H85 H 1.432500 0.290600 0.057400
H86 H 1.519900 0.151500 0.000000
H87 H 0.290600 0.567500 1.057400
H88 H -0.151500 1.519900 0.000000
H89 H -0.290600 1.432500 0.057400
H90 H -0.290600 1.432500 -0.057400
H91 H -0.519900 0.848500 0.000000
H92 H -0.432500 0.709400 -0.057400
H93 H -0.432500 0.709400 0.057400
H94 H 0.151500 0.480100 0.000000
H95 H 0.290600 0.567500 -0.057400
H96 H 0.290600 0.567500 0.057400
H97 H 0.290600 0.567500 0.942600
H98 H 0.151500 0.480100 1.000000
H99 H -0.432500 0.709400 1.057400
H100 H -0.432500 0.709400 0.942600
H101 H -0.519900 0.848500 1.000000
H102 H 0.519900 1.151500 1.000000
H103 H 0.432500 1.290600 1.057400
H104 H -0.290600 1.432500 0.942600
H105 H -0.290600 1.432500 1.057400
H106 H -0.151500 1.519900 1.000000
H107 H 0.432500 1.290600 0.942600
H108 H 0.567500 0.709400 0.942600
C109 C 0.269500 0.144600 0.000000
C110 C 0.426200 0.224100 0.000000
C111 C 1.224100 0.573800 1.000000
C112 C 0.573800 0.775900 1.000000
C113 C 0.775900 1.426200 1.000000
C114 C -0.144600 1.269500 1.000000
C115 C -0.269500 0.855400 1.000000
C116 C 0.144600 0.730500 1.000000
C117 C -0.224100 1.426200 1.000000
C118 C -0.426200 0.775900 1.000000
C119 C 0.224100 0.573800 1.000000
C120 C 1.144600 0.730500 1.000000
C121 C 0.730500 0.855400 1.000000
C122 C 0.355400 0.769500 0.500000
C123 C 0.426200 1.224100 1.000000
C124 C 0.269500 1.144600 1.000000
C125 C 0.855400 1.269500 1.000000
C126 C 0.230500 0.355400 0.500000
C127 C 0.644600 0.230500 0.500000
C128 C 0.224100 0.573800 0.000000
C129 C 1.426200 1.224100 1.000000
C130 C 1.269500 1.144600 1.000000
C131 C -0.144600 0.269500 0.000000
C132 C 1.269500 0.144600 0.000000
C133 C 1.426200 0.224100 0.000000
C134 C -0.426200 0.775900 0.000000
C135 C -0.224100 1.426200 0.000000
C136 C 0.144600 0.730500 0.000000
C137 C -0.269500 -0.144600 0.000000
C138 C 0.144600 -0.269500 0.000000
C139 C -0.224100 0.426200 0.000000
C140 C -0.426200 -0.224100 0.000000
C141 C -0.269500 0.855400 0.000000
C142 C 0.224100 -0.426200 0.000000
C143 C 0.269500 0.144600 1.000000
C144 C 0.426200 0.224100 1.000000
C145 C 1.224100 0.573800 0.000000
C146 C 0.855400 0.269500 0.000000
C147 C 0.730500 -0.144600 0.000000
C148 C 1.144600 -0.269500 0.000000
C149 C 0.775900 0.426200 0.000000
C150 C 0.573800 -0.224100 0.000000
C151 C 1.224100 -0.426200 0.000000
C152 C -0.144600 1.269500 0.000000
C153 C 0.573800 0.775900 0.000000
C154 C 0.775900 1.426200 0.000000
C155 C 1.144600 0.730500 0.000000
C156 C 0.275900 0.926200 0.500000
C157 C 0.730500 0.855400 0.000000
C158 C 0.855400 1.269500 0.000000
C159 C 0.769500 0.644600 0.500000
C160 C 1.426200 1.224100 0.000000
C161 C 1.269500 1.144600 0.000000
C162 C 0.926200 0.724100 0.500000
C163 C -0.144600 0.269500 1.000000
C164 C 1.269500 0.144600 1.000000
C165 C 1.426200 0.224100 1.000000
C166 C 0.073800 0.275900 0.500000
C167 C 0.426200 1.224100 0.000000
C168 C -0.269500 -0.144600 1.000000
C169 C 0.144600 -0.269500 1.000000
C170 C -0.224100 0.426200 1.000000
C171 C -0.426200 -0.224100 1.000000
C172 C 0.224100 -0.426200 1.000000
C173 C 0.269500 1.144600 0.000000
C174 C 0.724100 0.073800 0.500000
C175 C 1.224100 -0.426200 1.000000
C176 C 0.573800 -0.224100 1.000000
C177 C 0.775900 0.426200 1.000000
C178 C 0.855400 0.269500 1.000000
C179 C 0.730500 -0.144600 1.000000
C180 C 1.144600 -0.269500 1.000000
O181 O 0.886200 0.209300 0.919470
O182 O 1.113800 -0.209300 0.919470
O183 O 0.790700 -0.113800 0.919470
O184 O 0.209300 1.113800 0.080530
O185 O 1.209300 0.113800 0.919470
O186 O 1.113800 -0.209300 1.080530
O187 O 0.790700 -0.113800 1.080530
O188 O 0.886200 0.209300 1.080530
O189 O 0.386200 0.709300 0.580530
O190 O 1.209300 0.113800 1.080530
O191 O -0.113800 0.209300 0.919470
O192 O 0.113800 -0.209300 0.919470
O193 O -0.209300 -0.113800 0.919470
O194 O 0.290700 0.386200 0.580530
O195 O 1.209300 1.113800 0.080530
O196 O 0.613800 0.290700 0.580530
O197 O -0.113800 1.209300 0.080530
O198 O 0.209300 0.113800 0.919470
O199 O 0.113800 -0.209300 1.080530
O200 O -0.209300 0.886200 0.080530
O201 O 0.886200 1.209300 0.080530
O202 O 0.790700 0.886200 0.080530
O203 O 1.113800 0.790700 0.080530
O204 O 1.209300 1.113800 -0.080530
O205 O -0.209300 -0.113800 1.080530
O206 O 0.709300 0.613800 0.580530
O207 O 0.790700 0.886200 -0.080530
O208 O 1.113800 0.790700 -0.080530
O209 O 0.886200 1.209300 -0.080530
O210 O 0.113800 0.790700 0.080530
O211 O 0.209300 1.113800 -0.080530
O212 O -0.209300 0.886200 -0.080530
O213 O 0.113800 0.790700 -0.080530
O214 O -0.113800 1.209300 -0.080530
O215 O 0.886200 0.209300 -0.080530
O216 O -0.113800 0.209300 1.080530
O217 O 1.113800 -0.209300 -0.080530
O218 O 0.790700 -0.113800 -0.080530
O219 O 0.209300 0.113800 1.080530
O220 O 0.709300 0.613800 0.419470
O221 O 1.209300 0.113800 -0.080530
O222 O 1.113800 -0.209300 0.080530
O223 O 0.790700 -0.113800 0.080530
O224 O 0.886200 0.209300 0.080530
O225 O 1.209300 0.113800 0.080530
O226 O -0.113800 0.209300 -0.080530
O227 O 1.209300 1.113800 1.080530
O228 O 0.290700 0.386200 0.419470
O229 O 0.613800 0.290700 0.419470
O230 O 0.113800 -0.209300 -0.080530
O231 O -0.209300 -0.113800 -0.080530
O232 O 0.209300 0.113800 -0.080530
O233 O 0.886200 1.209300 1.080530
O234 O 0.790700 0.886200 1.080530
O235 O 1.113800 0.790700 1.080530
O236 O 1.209300 1.113800 0.919470
O237 O 0.113800 -0.209300 0.080530
O238 O -0.209300 -0.113800 0.080530
O239 O 0.790700 0.886200 0.919470
O240 O 1.113800 0.790700 0.919470
O241 O 0.886200 1.209300 0.919470
O242 O 0.209300 1.113800 1.080530
O243 O -0.113800 1.209300 1.080530
O244 O -0.209300 0.886200 1.080530
O245 O -0.113800 1.209300 0.919470
O246 O 0.113800 0.790700 0.919470
O247 O -0.209300 0.886200 0.919470
O248 O -0.113800 0.209300 0.080530
O249 O 0.386200 0.709300 0.419470
O250 O 0.113800 0.790700 1.080530
O251 O 0.209300 0.113800 0.080530
O252 O 0.209300 1.113800 0.919470
Cl253 Cl 1.000000 1.000000 0.728890
Cl254 Cl 0.000000 0.000000 0.271110
Cl255 Cl 1.000000 1.000000 1.271110
Cl256 Cl 0.000000 0.000000 -0.271110
Cl257 Cl 0.000000 0.000000 1.271110
Cl258 Cl 0.500000 0.500000 0.771110
Cl259 Cl 1.000000 1.000000 -0.271110
Cl260 Cl 0.000000 0.000000 0.728890
Cl261 Cl 1.000000 1.000000 0.271110
Cl262 Cl 0.000000 1.000000 0.271110
Cl263 Cl 1.000000 0.000000 0.728890
Cl264 Cl 0.000000 1.000000 -0.271110
Cl265 Cl 0.000000 1.000000 1.271110
Cl266 Cl 1.000000 0.000000 1.271110
Cl267 Cl 0.000000 1.000000 0.728890
Cl268 Cl 1.000000 0.000000 -0.271110
Cl269 Cl 1.000000 0.000000 0.271110
Cl270 Cl 0.500000 0.500000 0.228890
Rh271 Rh 1.000000 0.000000 -0.085840
Rh272 Rh 1.000000 0.000000 0.085840
Rh273 Rh 1.000000 0.000000 1.085840
Rh274 Rh 0.000000 1.000000 0.914160
Rh275 Rh 1.000000 0.000000 0.914160
Rh276 Rh 0.000000 1.000000 1.085840
Rh277 Rh 0.500000 0.500000 0.414160
Rh278 Rh 0.000000 1.000000 -0.085840
Rh279 Rh 1.000000 1.000000 0.085840
Rh280 Rh 0.000000 1.000000 0.085840
Rh281 Rh 1.000000 1.000000 -0.085840
Rh282 Rh 0.000000 0.000000 0.914160
Rh283 Rh 0.500000 0.500000 0.585840
Rh284 Rh 0.000000 0.000000 1.085840
Rh285 Rh 1.000000 1.000000 1.085840
Rh286 Rh 0.000000 0.000000 -0.085840
Rh287 Rh 1.000000 1.000000 0.914160
Rh288 Rh 0.000000 0.000000 0.085840

#END
