
#######################################################################
#
#                 Cambridge Crystallographic Data Centre
#                                CCDC 
#
#######################################################################
#
# If this CIF has been generated from an entry in the Cambridge 
# Structural Database, then it will include bibliographic, chemical, 
# crystal, experimental, refinement or atomic coordinate data resulting 
# from the CCDC's data processing and validation procedures.
#
#######################################################################

data_ACEFIZ
_symmetry_cell_setting           monoclinic
_symmetry_space_group_name_H-M   'P 21/n'
_symmetry_Int_Tables_number      14
_space_group_name_Hall           '-P 2yn'
loop_
_symmetry_equiv_pos_site_id
_symmetry_equiv_pos_as_xyz
1 x,y,z
2 1/2-x,1/2+y,1/2-z
3 -x,-y,-z
4 1/2+x,1/2-y,1/2+z
_cell_length_a                   14.1104(8)
_cell_length_b                   4.8957(2)
_cell_length_c                   16.7631(8)
_cell_angle_alpha                90
_cell_angle_beta                 94.640(4)
_cell_angle_gamma                90
_cell_volume                     1154.2
loop_
_atom_site_label
_atom_site_type_symbol
_atom_site_fract_x
_atom_site_fract_y
_atom_site_fract_z
C1 C 0.70275(16) 0.6495(4) 0.52387(14)
C2 C 0.66213(14) 0.4834(4) 0.46189(12)
C3 C 0.79941(19) 0.8702(5) 0.43364(15)
C4 C 0.77070(16) 0.8397(4) 0.51040(13)
C5 C 0.69203(16) 0.5177(4) 0.38486(12)
C6 C 0.76110(19) 0.7143(5) 0.37160(16)
C7 C 0.90437(17) 1.3216(5) 0.63330(13)
C8 C 0.9840(2) 1.4785(6) 0.62504(18)
C9 C 1.0176(2) 1.6483(6) 0.68552(17)
C10 C 0.8585(2) 1.3381(6) 0.70358(15)
C11 C 0.8938(2) 1.5143(6) 0.76291(16)
C12 C 0.9729(2) 1.6683(6) 0.75375(17)
C13 C 0.59100(15) 0.2796(4) 0.47751(12)
O1 O 0.55440(11) 0.1263(3) 0.42478(8)
O2 O 0.65674(13) 0.3688(4) 0.32121(9)
O3 O 0.56761(12) 0.2679(3) 0.55168(8)
N1 N 0.87289(14) 1.1540(4) 0.56639(12)
N2 N 0.80492(13) 1.0022(4) 0.57921(10)
H1 H 0.7771(15) 0.723(4) 0.3177(14)
H2 H 0.8499(16) 1.000(5) 0.4270(12)
H3 H 1.0134(17) 1.447(5) 0.5780(16)
H4 H 0.9977(19) 1.805(6) 0.7963(17)
H5 H 0.8581(19) 1.534(5) 0.8140(16)
H6 H 1.075(2) 1.750(7) 0.6800(18)
H7 H 0.8043(18) 1.234(5) 0.7124(15)
H8 H 0.6799(13) 0.624(4) 0.5772(12)
H9 H 0.610(2) 0.248(6) 0.3390(18)
H10 H 0.523(2) 0.128(6) 0.5559(17)
C1 C 0.79725(16) 0.1495(4) 0.97613(14)
C2 C 0.83787(14) -0.0166(4) 1.03811(12)
C3 C 0.70059(19) 0.3702(5) 1.06636(15)
C4 C 0.72930(16) 0.3397(4) 0.98960(13)
C5 C 0.80797(16) 0.0177(4) 1.11514(12)
C6 C 0.73890(19) 0.2143(5) 1.12840(16)
C7 C 0.59563(17) 0.8216(5) 0.86670(13)
C8 C 0.5160(2) 0.9785(6) 0.87496(18)
C9 C 0.4824(2) 1.1483(6) 0.81448(17)
C10 C 0.6415(2) 0.8381(6) 0.79642(15)
C11 C 0.6062(2) 1.0143(6) 0.73709(16)
C12 C 0.5271(2) 1.1683(6) 0.74625(17)
C13 C 0.90900(15) -0.2204(4) 1.02249(12)
O1 O 0.94560(11) -0.3737(3) 1.07522(8)
O2 O 0.84326(13) -0.1312(4) 1.17879(9)
O3 O 0.93239(12) -0.2321(3) 0.94832(8)
N1 N 0.62711(14) 0.6540(4) 0.93361(12)
N2 N 0.69508(13) 0.5022(4) 0.92079(10)
H1 H 0.7229(15) 0.223(4) 1.1823(14)
H2 H 0.6501(16) 0.500(5) 1.0730(12)
H3 H 0.4866(17) 0.947(5) 0.9220(16)
H4 H 0.5023(19) 1.305(6) 0.7037(17)
H5 H 0.6419(19) 1.034(5) 0.6860(16)
H6 H 0.425(2) 1.250(7) 0.8200(18)
H7 H 0.6957(18) 0.734(5) 0.7876(15)
H8 H 0.8201(13) 0.124(4) 0.9228(12)
H9 H 0.890(2) -0.252(6) 1.1610(18)
H10 H 0.977(2) -0.372(6) 0.9441(17)
C1 C 0.29725(16) 0.3505(4) 0.47613(14)
C2 C 0.33787(14) 0.5166(4) 0.53811(12)
C3 C 0.20059(19) 0.1298(5) 0.56636(15)
C4 C 0.22930(16) 0.1603(4) 0.48960(13)
C5 C 0.30797(16) 0.4823(4) 0.61514(12)
C6 C 0.23890(19) 0.2857(5) 0.62840(16)
C7 C 0.09563(17) -0.3216(5) 0.36670(13)
C8 C 0.0160(2) -0.4785(6) 0.37496(18)
C9 C -0.0176(2) -0.6483(6) 0.31448(17)
C10 C 0.1415(2) -0.3381(6) 0.29642(15)
C11 C 0.1062(2) -0.5143(6) 0.23709(16)
C12 C 0.0271(2) -0.6683(6) 0.24625(17)
C13 C 0.40900(15) 0.7204(4) 0.52249(12)
O1 O 0.44560(11) 0.8737(3) 0.57522(8)
O2 O 0.34326(13) 0.6312(4) 0.67879(9)
O3 O 0.43239(12) 0.7321(3) 0.44832(8)
N1 N 0.12711(14) -0.1540(4) 0.43361(12)
N2 N 0.19508(13) -0.0022(4) 0.42079(10)
H1 H 0.2229(15) 0.277(4) 0.6823(14)
H2 H 0.1501(16) 0.000(5) 0.5730(12)
H3 H -0.0134(17) -0.447(5) 0.4220(16)
H4 H 0.0023(19) -0.805(6) 0.2037(17)
H5 H 0.1419(19) -0.534(5) 0.1860(16)
H6 H -0.075(2) -0.750(7) 0.3200(18)
H7 H 0.1957(18) -0.234(5) 0.2876(15)
H8 H 0.3201(13) 0.376(4) 0.4228(12)
H9 H 0.390(2) 0.752(6) 0.6610(18)
H10 H 0.477(2) 0.872(6) 0.4441(17)
C1 C 0.20275(16) 0.8505(4) 0.02387(14)
C2 C 0.16213(14) 1.0166(4) -0.03811(12)
C3 C 0.29941(19) 0.6298(5) -0.06636(15)
C4 C 0.27070(16) 0.6603(4) 0.01040(13)
C5 C 0.19203(16) 0.9823(4) -0.11514(12)
C6 C 0.26110(19) 0.7857(5) -0.12840(16)
C7 C 0.40437(17) 0.1784(5) 0.13330(13)
C8 C 0.4840(2) 0.0215(6) 0.12504(18)
C9 C 0.5176(2) -0.1483(6) 0.18552(17)
C10 C 0.3585(2) 0.1619(6) 0.20358(15)
C11 C 0.3938(2) -0.0143(6) 0.26291(16)
C12 C 0.4729(2) -0.1683(6) 0.25375(17)
C13 C 0.09100(15) 1.2204(4) -0.02249(12)
O1 O 0.05440(11) 1.3737(3) -0.07522(8)
O2 O 0.15674(13) 1.1312(4) -0.17879(9)
O3 O 0.06761(12) 1.2321(3) 0.05168(8)
N1 N 0.37289(14) 0.3460(4) 0.06639(12)
N2 N 0.30492(13) 0.4978(4) 0.07921(10)
H1 H 0.2771(15) 0.777(4) -0.1823(14)
H2 H 0.3499(16) 0.500(5) -0.0730(12)
H3 H 0.5134(17) 0.053(5) 0.0780(16)
H4 H 0.4977(19) -0.305(6) 0.2963(17)
H5 H 0.3581(19) -0.034(5) 0.3140(16)
H6 H 0.575(2) -0.250(7) 0.1800(18)
H7 H 0.3043(18) 0.266(5) 0.2124(15)
H8 H 0.1799(13) 0.876(4) 0.0772(12)
H9 H 0.110(2) 1.252(6) -0.1610(18)
H10 H 0.023(2) 1.372(6) 0.0559(17)

#END
