./ACEGOE_from_POSCAR.cif_generated_by_CrystalShift
_symmetry_cell_setting triclinic
_symmetry_space_group_name_H-M 'P 1'
loop_
_symmetry_equiv_pos_site_id
_symmetry_equiv_pos_as_xyz
1 x,y,z
_cell_length_a 13.652000
_cell_length_b 15.532000
_cell_length_c 21.088000
_cell_angle_alpha 72.037000
_cell_angle_beta 77.508000
_cell_angle_gamma 82.443000
_cell_volume 4142.776828
loop_
_atom_site_label
_atom_site_type_symbol
_atom_site_fract_x
_atom_site_fract_y
_atom_site_fract_z
H1 H 0.196800 0.260000 0.663600
H2 H 0.295800 0.291300 0.612000
H3 H 0.276900 0.187900 0.640900
H4 H 0.245200 0.246200 0.530800
H5 H 0.163600 0.316200 0.554600
H6 H 0.065200 0.197600 0.622400
H7 H 0.704200 0.708700 0.388000
H8 H 0.723100 0.812100 0.359100
H9 H 0.754800 0.753800 0.469200
H10 H 0.836400 0.683800 0.445400
H11 H 0.934800 0.802400 0.377600
H12 H 0.853300 0.872100 0.401800
H13 H 0.970700 0.743300 0.486500
H14 H 0.885700 0.808700 0.513100
H15 H 0.978100 0.932800 0.445300
H16 H 1.038500 0.866400 0.498300
H17 H 1.064300 0.865300 0.422400
H18 H 1.090300 0.600800 0.730400
H19 H 1.163500 0.518800 0.760200
H20 H 1.098500 0.574300 0.807200
H21 H 1.062500 0.442900 0.809900
H22 H 1.033000 0.489300 0.740600
H23 H 0.894700 0.525400 0.779400
H24 H 0.918400 0.511400 0.850100
H25 H 0.879900 0.378800 0.805900
H26 H 0.895400 0.370600 0.878500
H27 H 0.753000 0.416400 0.908000
H28 H 0.736400 0.374700 0.852600
H29 H 0.742900 0.479700 0.835400
H30 H -0.090300 0.399200 0.269600
H31 H -0.163500 0.481200 0.239800
H32 H -0.098500 0.425700 0.192800
H33 H -0.062500 0.557100 0.190100
H34 H -0.033000 0.510700 0.259400
H35 H 0.105300 0.474600 0.220600
H36 H 0.081600 0.488600 0.149900
H37 H 0.120100 0.621200 0.194100
H38 H 0.104600 0.629400 0.121500
H39 H 0.247000 0.583600 0.092000
H40 H 0.263600 0.625300 0.147400
H41 H 0.257100 0.520300 0.164600
H42 H 0.087900 0.452800 0.373700
H43 H -0.007100 0.465700 0.427900
H44 H 0.100800 0.458700 0.444400
H45 H 0.043800 0.597800 0.421700
H46 H 0.013000 0.593900 0.355900
H47 H 0.171300 0.592800 0.304700
H48 H 0.206100 0.589900 0.370700
H49 H 0.110500 0.739200 0.295500
H50 H 0.156600 0.734300 0.357800
H51 H 0.307000 0.732300 0.299000
H52 H 0.240300 0.814400 0.261900
H53 H 0.265400 0.727900 0.236400
H54 H 0.912100 0.547200 0.626300
H55 H 1.007100 0.534300 0.572100
H56 H 0.899200 0.541300 0.555600
H57 H 0.956200 0.402200 0.578300
H58 H 0.987000 0.406100 0.644100
H59 H 0.828700 0.407200 0.695300
H60 H 0.793900 0.410100 0.629300
H61 H 0.889500 0.260800 0.704500
H62 H 0.843400 0.265700 0.642200
H63 H 0.693000 0.267700 0.701000
H64 H 0.759700 0.185600 0.738100
H65 H 0.734600 0.272100 0.763600
H66 H 0.313800 0.841400 0.982700
H67 H 0.235000 0.770300 0.995400
H68 H 0.199900 0.873400 0.983500
H69 H 0.309200 0.570200 0.825800
H70 H 0.340500 0.572700 0.892500
H71 H 0.423000 0.557100 0.831900
H72 H 0.200200 0.736900 0.614100
H73 H 0.323000 0.482600 0.596800
H74 H 0.242900 0.485300 0.552900
H75 H 0.209200 0.507200 0.622500
H76 H 0.416600 0.580400 0.489500
H77 H 0.371300 0.678100 0.456400
H78 H 0.328000 0.593000 0.450100
H79 H 0.163000 0.639300 0.494500
H80 H 0.196400 0.726300 0.504600
H81 H 0.387100 0.433700 -0.004000
H82 H 0.321200 0.350400 0.031000
H83 H 0.408300 0.348100 -0.030700
H84 H 0.437800 0.429300 0.104400
H85 H 0.461200 0.334300 0.154600
H86 H 0.354700 0.359400 0.134500
H87 H 0.583700 0.331300 -0.019700
H88 H 0.614800 0.334300 0.046800
H89 H 0.563800 0.421100 0.001600
H90 H 0.360100 0.211800 0.032600
H91 H 0.278800 -0.062500 0.148000
H92 H 0.364700 -0.092300 0.094700
H93 H 0.252800 -0.080300 0.084400
H94 H 0.170100 0.069400 0.043800
H95 H 0.220500 0.156700 0.039200
H96 H 0.182200 0.088900 0.110200
H97 H 0.421500 0.010900 -0.016400
H98 H 0.371600 0.109700 -0.038600
H99 H 0.312700 0.026600 -0.032700
H100 H 0.426300 -0.026300 0.159300
H101 H 0.596000 0.059900 0.227900
H102 H 0.939800 -0.058400 0.055400
H103 H 1.025900 -0.025900 0.079200
H104 H 0.919200 0.026000 0.083400
H105 H 0.963900 -0.228100 0.208600
H106 H 1.055700 -0.175900 0.160800
H107 H 0.978700 -0.209500 0.129800
H108 H 0.917600 0.005100 0.206700
H109 H 1.019800 -0.054200 0.206300
H110 H 0.923100 -0.092700 0.257400
H111 H 0.823600 -0.236400 0.168200
H112 H 0.605200 -0.354100 0.292800
H113 H 0.721400 -0.366100 0.266900
H114 H 0.648800 -0.428300 0.255900
H115 H 0.786700 -0.341500 0.140500
H116 H 0.713300 -0.295800 0.089900
H117 H 0.700800 -0.396000 0.136000
H118 H 0.526700 -0.351900 0.172000
H119 H 0.540600 -0.250400 0.129500
H120 H 0.492200 -0.274400 0.206800
H121 H 0.537800 -0.150900 0.214100
H122 H 0.661100 0.037700 0.293900
H123 H 0.838100 0.112000 0.429500
H124 H 0.799500 0.000300 0.533000
H125 H 0.668400 -0.087200 0.554600
H126 H 0.529600 -0.131300 0.511000
H127 H 0.385200 -0.167200 0.467600
H128 H 0.303600 -0.144200 0.380300
H129 H 0.371600 -0.059600 0.270900
H130 H 0.704400 0.146900 0.290200
H131 H 0.921800 0.195000 0.045500
H132 H 1.037200 0.198100 0.041800
H133 H 0.984100 0.265100 -0.015100
H134 H 1.046500 0.397700 0.002200
H135 H 1.104700 0.326600 0.054400
H136 H 1.035300 0.405600 0.075800
H137 H 0.804900 0.334200 0.062000
H138 H 0.877600 0.400400 0.005600
H139 H 0.848600 0.411200 0.079000
H140 H 1.087400 0.251200 0.149800
H141 H 1.094300 0.032300 0.326500
H142 H 1.209800 0.045600 0.311200
H143 H 1.156600 0.043000 0.253000
H144 H 1.227500 0.190700 0.185600
H145 H 1.274500 0.194900 0.246000
H146 H 1.202300 0.275500 0.213100
H147 H 1.096500 0.258100 0.330400
H148 H 1.173700 0.178500 0.358200
H149 H 1.058800 0.162500 0.373500
H150 H 0.936800 0.137800 0.335100
H151 H 0.442900 0.397400 0.247900
H152 H 0.451000 0.481200 0.272600
H153 H 0.345500 0.445400 0.280600
H154 H 0.401300 0.246300 0.334700
H155 H 0.301200 0.297300 0.360900
H156 H 0.371600 0.242400 0.411500
H157 H 0.401700 0.470100 0.395000
H158 H 0.382800 0.375800 0.449200
H159 H 0.302900 0.423000 0.403700
H160 H 0.544800 0.410900 0.418600
H161 H 0.869600 0.341100 0.435000
H162 H 0.803600 0.273700 0.495400
H163 H 0.837000 0.360700 0.505500
H164 H 0.672000 0.407000 0.549900
H165 H 0.628700 0.321900 0.543600
H166 H 0.583400 0.419600 0.510500
H167 H 0.790800 0.492800 0.377500
H168 H 0.757100 0.514700 0.447100
H169 H 0.677000 0.517400 0.403200
H170 H 0.799800 0.263100 0.385900
H171 H 0.577000 0.442900 0.168100
H172 H 0.659500 0.427300 0.107500
H173 H 0.690800 0.429800 0.174200
H174 H 0.800100 0.126600 0.016500
H175 H 0.765000 0.229700 0.004600
H176 H 0.686200 0.158600 0.017300
H177 H 0.146700 0.127900 0.598200
H178 H 0.029300 0.256700 0.513500
H179 H 0.114300 0.191300 0.486900
H180 H 0.021900 0.067200 0.554700
H181 H -0.038500 0.133600 0.501700
H182 H -0.064300 0.134700 0.577600
H183 H 0.130400 0.658900 0.565000
H184 H 0.455200 0.589100 0.581400
H185 H 0.697100 0.577000 0.596300
H186 H 0.617200 0.624200 0.550800
H187 H 0.598300 0.529900 0.605000
H188 H 0.628400 0.757600 0.588500
H189 H 0.698800 0.702700 0.639100
H190 H 0.598700 0.753700 0.665300
H191 H 0.654500 0.554600 0.719400
H192 H 0.549000 0.518800 0.727400
H193 H 0.557100 0.602600 0.752100
H194 H 0.063200 0.862200 0.664900
H195 H -0.058800 0.837500 0.626500
H196 H -0.173700 0.821500 0.641800
H197 H -0.096500 0.741900 0.669600
H198 H -0.202300 0.724500 0.786900
H199 H -0.274500 0.805100 0.754000
H200 H -0.227500 0.809300 0.814400
H201 H -0.156600 0.957000 0.747000
H202 H -0.209800 0.954400 0.688800
H203 H -0.094300 0.967700 0.673500
H204 H -0.087400 0.748800 0.850200
H205 H 0.151400 0.588800 0.921000
H206 H 0.122400 0.599600 0.994400
H207 H 0.195100 0.665800 0.938000
H208 H -0.035300 0.594400 0.924200
H209 H -0.104700 0.673400 0.945600
H210 H -0.046500 0.602300 0.997800
H211 H 0.015900 0.734900 1.015100
H212 H -0.037200 0.801900 0.958200
H213 H 0.078200 0.805000 0.954500
H214 H 0.295600 0.853100 0.709800
H215 H 0.628400 1.059600 0.729100
H216 H 0.696400 1.144200 0.619700
H217 H 0.614800 1.167200 0.532400
H218 H 0.470400 1.131300 0.489000
H219 H 0.803200 0.740000 0.336400
H220 H 0.331600 1.087200 0.445400
H221 H 0.200500 0.999700 0.467000
H222 H 0.161900 0.888000 0.570500
H223 H 0.338900 0.962300 0.706100
H224 H 0.462200 1.150900 0.785900
H225 H 0.507800 1.274400 0.793200
H226 H 0.459400 1.250400 0.870500
H227 H 0.473300 1.351900 0.828000
H228 H 0.299200 1.396000 0.864000
H229 H 0.286700 1.295800 0.910100
H230 H 0.213300 1.341500 0.859500
H231 H 0.351200 1.428300 0.744100
H232 H 0.278600 1.366100 0.733100
H233 H 0.394800 1.354100 0.707200
H234 H 0.176400 1.236400 0.831800
H235 H 0.076900 1.092700 0.742600
H236 H -0.019800 1.054200 0.793700
H237 H 0.082400 0.994900 0.793300
H238 H 0.021300 1.209500 0.870200
H239 H -0.055700 1.175900 0.839200
H240 H 0.036100 1.228100 0.791400
H241 H 0.080800 0.974000 0.916600
H242 H -0.025900 1.025900 0.920800
H243 H 0.060200 1.058400 0.944600
H244 H 0.404000 0.940100 0.772100
H245 H 0.573700 1.026300 0.840700
H246 H 0.687300 0.973400 1.032700
H247 H 0.628400 0.890300 1.038600
H248 H 0.578500 0.989100 1.016400
H249 H 0.817800 0.911100 0.889800
H250 H 0.779500 0.843300 0.960800
H251 H 0.829900 0.930600 0.956200
H252 H 0.747200 1.080300 0.915600
H253 H 0.635300 1.092300 0.905300
H254 H 0.721200 1.062500 0.852000
H255 H 0.639900 0.788200 0.967400
H256 H 0.436200 0.578900 0.998400
H257 H 0.612900 0.566300 1.004000
H258 H 0.678800 0.649600 0.969000
H259 H 0.591700 0.651900 1.030700
H260 H 0.562200 0.570700 0.895600
H261 H 0.538800 0.665700 0.845400
H262 H 0.645300 0.640600 0.865500
H263 H 0.416300 0.668700 1.019700
H264 H 0.385200 0.665700 0.953200
C265 C 0.252900 0.831100 0.971200
C266 C 0.359400 0.588100 0.844000
C267 C 0.265300 0.717700 0.621600
C268 C 0.261600 0.512700 0.583200
C269 C 0.356100 0.616200 0.479100
C270 C 0.183200 0.663700 0.526000
C271 C 0.276800 0.611300 0.547700
C272 C 0.318700 0.653100 0.592700
C273 C 0.416900 0.629700 0.603000
C274 C 0.626600 0.587000 0.595100
C275 C 0.630200 0.720300 0.634000
C276 C 0.584600 0.572000 0.718300
C277 C 0.573700 0.635400 0.648400
C278 C 0.462200 0.662600 0.643100
C279 C 0.401300 0.723300 0.676100
C280 C 0.305400 0.755400 0.661900
C281 C 0.062500 0.834200 0.710900
C282 C -0.112500 0.806200 0.659600
C283 C -0.216000 0.789100 0.774600
C284 C -0.148800 0.938200 0.706800
C285 C -0.126100 0.834500 0.724400
C286 C -0.029100 0.810800 0.753300
C287 C -0.026900 0.766500 0.821500
C288 C 0.137400 0.631500 0.946900
C289 C -0.043500 0.635800 0.950900
C290 C 0.023800 0.766100 0.967500
C291 C 0.046800 0.696200 0.926800
C292 C 0.060500 0.746900 0.849700
C293 C 0.150000 0.778200 0.804600
C294 C 0.152600 0.817800 0.733800
C295 C 0.251300 0.839100 0.683900
C296 C 0.593500 1.067100 0.694200
C297 C 0.635400 1.118700 0.627400
C298 C 0.587800 1.130900 0.575200
C299 C 0.496400 1.088900 0.584700
C300 C 0.446900 1.093800 0.532200
C301 C 0.364100 1.045000 0.541600
C302 C 0.236600 0.993800 0.500900
C303 C 0.210600 0.927600 0.565100
C304 C 0.255100 0.920700 0.618700
C305 C 0.328500 0.985700 0.608400
C306 C 0.369800 0.991000 0.662000
C307 C 0.454900 1.037000 0.652800
C308 C 0.503500 1.028200 0.709100
C309 C 0.394300 1.139900 0.797400
C310 C 0.458300 1.293800 0.826900
C311 C 0.281200 1.337200 0.866400
C312 C 0.343800 1.368500 0.742400
C313 C 0.354800 1.301100 0.809200
C314 C 0.324600 1.208500 0.810600
C315 C 0.224300 1.190500 0.824100
C316 C 0.051800 1.055500 0.787500
C317 C 0.013800 1.185600 0.834700
C318 C 0.045100 1.032400 0.912300
C319 C 0.077400 1.095000 0.840100
C320 C 0.189800 1.108300 0.826900
C321 C 0.264100 1.038400 0.818800
C322 C 0.366400 1.054700 0.800600
C323 C 0.444100 0.982800 0.779600
C324 C 0.499000 0.925800 0.835600
C325 C 0.564200 0.964800 0.859800
C326 C 0.640600 0.952200 1.013700
C327 C 0.787500 0.906000 0.936200
C328 C 0.698400 1.057600 0.899300
C329 C 0.685000 0.958500 0.939000
C330 C 0.615400 0.915700 0.911200
C331 C 0.602900 0.823000 0.934900
C332 C 0.434300 0.643900 0.982000
C333 C 0.574500 0.633900 0.881400
C334 C 0.612500 0.631300 0.991100
C335 C 0.538100 0.673400 0.941600
C336 C 0.539900 0.778000 0.914200
C337 C 0.484100 0.832700 0.865100
C338 C 0.747100 0.168900 0.028800
C339 C 0.640600 0.411900 0.156000
C340 C 0.734700 0.282300 0.378400
C341 C 0.738400 0.487300 0.416800
C342 C 0.643900 0.383800 0.520900
C343 C 0.816800 0.336300 0.474000
C344 C 0.723200 0.388700 0.452300
C345 C 0.681300 0.346900 0.407300
C346 C 0.583100 0.370300 0.397000
C347 C 0.373400 0.413000 0.404900
C348 C 0.369800 0.279700 0.366000
C349 C 0.415400 0.428000 0.281700
C350 C 0.426300 0.364600 0.351600
C351 C 0.537800 0.337400 0.356900
C352 C 0.598700 0.276700 0.323900
C353 C 0.748800 0.250500 0.724300
C354 C 0.833700 0.287700 0.681600
C355 C 0.846100 0.384700 0.655900
C356 C 0.935500 0.426900 0.616500
C357 C 0.938700 0.519400 0.590700
C358 C 0.694600 0.244600 0.338100
C359 C 0.937500 0.165800 0.289100
C360 C 1.112500 0.193800 0.340400
C361 C 1.216000 0.210900 0.225400
C362 C 1.148800 0.061800 0.293200
C363 C 1.126100 0.165500 0.275600
C364 C 1.029100 0.189200 0.246700
C365 C 1.026900 0.233500 0.178500
C366 C 0.862600 0.368500 0.053100
C367 C 1.043500 0.364200 0.049100
C368 C 0.976200 0.233900 0.032500
C369 C 0.953200 0.303800 0.073200
C370 C 0.251200 0.749500 0.275700
C371 C 0.166300 0.712300 0.318400
C372 C 0.153900 0.615300 0.344100
C373 C 0.064500 0.573100 0.383500
C374 C 0.061300 0.480600 0.409300
C375 C 0.939500 0.253100 0.150300
C376 C 0.850000 0.221800 0.195400
C377 C 0.847400 0.182200 0.266200
C378 C 0.748700 0.160900 0.316100
C379 C 0.406500 -0.067100 0.305800
C380 C 0.364600 -0.118700 0.372600
C381 C 0.412200 -0.130900 0.424800
C382 C 0.503600 -0.088900 0.415300
C383 C 0.553100 -0.093800 0.467800
C384 C 0.635900 -0.045000 0.458400
C385 C 0.687300 -0.048000 0.511500
C386 C 0.763400 0.006200 0.499100
C387 C 0.232100 0.578800 0.139500
C388 C 0.131000 0.588900 0.160100
C389 C 0.070100 0.516000 0.186700
C390 C -0.030300 0.502000 0.215500
C391 C -0.099800 0.448800 0.230300
C392 C 0.789400 0.072400 0.434900
C393 C 0.744900 0.079300 0.381300
C394 C 0.671500 0.014300 0.391600
C395 C 0.630200 0.009000 0.338000
C396 C 0.545100 -0.037000 0.347200
C397 C 0.496500 -0.028200 0.290900
C398 C 0.605700 -0.139900 0.202600
C399 C 0.541700 -0.293800 0.173100
C400 C 0.718800 -0.337200 0.133600
C401 C 0.656200 -0.368500 0.257600
C402 C 0.645200 -0.301100 0.190800
C403 C 0.675400 -0.208500 0.189400
C404 C 0.767900 0.421200 0.860500
C405 C 0.869000 0.411100 0.839900
C406 C 0.929900 0.484000 0.813300
C407 C 1.030300 0.498000 0.784500
C408 C 1.099800 0.551200 0.769700
C409 C 0.775700 -0.190500 0.175900
C410 C 0.948200 -0.055500 0.212500
C411 C 0.986200 -0.185600 0.165300
C412 C 0.954900 -0.032400 0.087700
C413 C 0.922600 -0.095000 0.159900
C414 C 0.810200 -0.108300 0.173100
C415 C 0.735900 -0.038400 0.181200
C416 C 0.633600 -0.054700 0.199400
C417 C 0.555900 0.017200 0.220400
C418 C 0.501000 0.074200 0.164400
C419 C 0.435800 0.035200 0.140200
C420 C 0.359400 0.047800 -0.013700
C421 C 1.011100 0.873300 0.458600
C422 C 0.936300 0.803100 0.474200
C423 C 0.884300 0.811100 0.415700
C424 C 0.805400 0.744900 0.431200
C425 C 0.754400 0.752100 0.373500
C426 C 0.212500 0.094000 0.063800
C427 C 0.301600 -0.057600 0.100700
C428 C 0.315000 0.041500 0.061000
C429 C 0.384600 0.084300 0.088800
C430 C 0.397100 0.177000 0.065100
C431 C 0.565700 0.356100 0.018000
C432 C 0.425500 0.366100 0.118600
C433 C 0.387500 0.368700 0.008900
C434 C 0.461900 0.326600 0.058400
C435 C 0.460100 0.222000 0.085800
C436 C 0.515900 0.167300 0.134900
C437 C 0.312700 1.048000 0.488500
C438 C -0.011100 0.126700 0.541400
C439 C 0.063700 0.196900 0.525800
C440 C 0.115700 0.188900 0.584300
C441 C 0.194600 0.255100 0.568800
C442 C 0.245600 0.247900 0.626500
O443 O 0.433800 0.752900 0.723400
O444 O 0.241200 0.772600 0.829100
O445 O 0.238500 0.953100 0.824200
O446 O 0.403800 0.796500 0.849100
O447 O 0.596200 0.203500 0.150900
O448 O 0.761500 0.046900 0.175800
O449 O 0.566200 0.247100 0.276600
O450 O 0.758800 0.227400 0.170900
Al451 Al 0.370300 0.718200 0.807000
Al452 Al 0.629700 0.281800 0.193000
Al453 Al 0.726300 0.152200 0.126200
Al454 Al 0.273700 0.847800 0.873800

#END
