
#######################################################################
#
#                 Cambridge Crystallographic Data Centre
#                                CCDC 
#
#######################################################################
#
# If this CIF has been generated from an entry in the Cambridge 
# Structural Database, then it will include bibliographic, chemical, 
# crystal, experimental, refinement or atomic coordinate data resulting 
# from the CCDC's data processing and validation procedures.
#
#######################################################################

data_ACEHIA
_symmetry_cell_setting           monoclinic
_symmetry_space_group_name_H-M   'P 21'
_symmetry_Int_Tables_number      4
_space_group_name_Hall           'P 2yb'
loop_
_symmetry_equiv_pos_site_id
_symmetry_equiv_pos_as_xyz
1 x,y,z
2 -x,1/2+y,-z
_cell_length_a                   7.9713(13)
_cell_length_b                   15.498(3)
_cell_length_c                   24.119(4)
_cell_angle_alpha                90
_cell_angle_beta                 97.340(2)
_cell_angle_gamma                90
_cell_volume                     2955.23
loop_
_atom_site_label
_atom_site_type_symbol
_atom_site_fract_x
_atom_site_fract_y
_atom_site_fract_z
C1 C 0.9076(11) 0.1855(7) 0.5755(3)
H1 H 0.8355 0.1385 0.5590
H2 H 1.0223 0.1636 0.5867
H3 H 0.9111 0.2316 0.5479
N1 N 0.8400(7) 0.2187(4) 0.6236(2)
C2 C 0.8541(9) 0.1675(5) 0.6715(3)
O1 O 0.9240(7) 0.0975(4) 0.6709(2)
C3 C 0.7791(9) 0.1992(5) 0.7197(3)
C4 C 0.7747(8) 0.1480(5) 0.7656(3)
H4 H 0.8165 0.0906 0.7653
C5 C 0.7103(8) 0.1788(5) 0.8123(3)
H5 H 0.7121 0.1429 0.8443
C6 C 0.6437(8) 0.2602(4) 0.8132(3)
C7 C 0.5767(9) 0.3987(5) 0.7633(3)
H6 H 0.5325 0.4222 0.7948
C8 C 0.5765(9) 0.4472(5) 0.7170(3)
H7 H 0.5330 0.5043 0.7164
C9 C 0.6388(8) 0.4150(5) 0.6703(3)
H8 H 0.6367 0.4501 0.6379
C10 C 0.7018(9) 0.3354(5) 0.6700(3)
C11 C 0.7112(8) 0.2827(5) 0.7188(3)
C12 C 0.6403(8) 0.3149(5) 0.7660(3)
C13 C 0.7655(9) 0.3005(5) 0.6199(3)
O2 O 0.7509(7) 0.3390(4) 0.5760(2)
C14 C 0.5767(9) 0.2917(5) 0.8625(3)
C15 C 0.5227(8) 0.3209(5) 0.9027(3)
C16 C 0.4803(9) 0.3637(5) 0.9523(3)
H9 H 0.3624 0.3850 0.9456
H10 H 0.4886 0.3222 0.9837
O3 O 0.5931(6) 0.4348(3) 0.96670(19)
C17 C 0.7608(9) 0.4114(5) 0.9776(3)
H11 H 0.7889 0.3674 0.9498
C18 C 0.8688(9) 0.4931(5) 0.9738(3)
H12 H 0.8295 0.5404 0.9973
O4 O 0.8439(6) 0.5166(3) 0.91555(18)
C19 C 0.7882(10) 0.5962(5) 0.9013(3)
O5 O 0.7648(9) 0.6507(4) 0.9353(2)
C20 C 0.7598(13) 0.6076(6) 0.8396(3)
H13 H 0.8622 0.5909 0.8237
H14 H 0.7334 0.6682 0.8307
H15 H 0.6652 0.5712 0.8237
C21 C 1.0523(9) 0.4724(4) 0.9923(3)
H16 H 1.0994 0.4345 0.9645
O6 O 1.1458(6) 0.5533(3) 1.0000(2)
C22 C 1.2442(10) 0.5761(5) 0.9618(4)
O7 O 1.2414(8) 0.5405(4) 0.9171(3)
C23 C 1.3586(11) 0.6487(6) 0.9821(4)
H17 H 1.3915 0.6804 0.9500
H18 H 1.4599 0.6258 1.0046
H19 H 1.2995 0.6877 1.0051
C24 C 1.0701(9) 0.4306(5) 1.0492(3)
H20 H 1.0368 0.4719 1.0778
O8 O 1.2428(6) 0.4052(3) 1.06299(18)
C25 C 1.3234(9) 0.4337(5) 1.1129(3)
O9 O 1.2575(7) 0.4788(4) 1.1434(2)
C26 C 1.5021(9) 0.3945(6) 1.1237(3)
H21 H 1.4936 0.3319 1.1283
H22 H 1.5630 0.4197 1.1578
H23 H 1.5635 0.4070 1.0920
C27 C 0.9635(10) 0.3496(6) 1.0477(3)
H24 H 0.9966 0.3099 1.0182
C28 C 0.9748(14) 0.3034(7) 1.1008(4)
H25 H 0.8981 0.2529 1.0974
H26 H 1.0918 0.2828 1.1120
O10 O 0.9291(8) 0.3594(5) 1.1391(2)
C29 C 1.0140(14) 0.3528(7) 1.1920(4)
O11 O 1.100(2) 0.2923(8) 1.2070(4)
C30 C 0.9506(17) 0.4239(7) 1.2305(4)
H27 H 0.9152 0.3968 1.2638
H28 H 0.8546 0.4547 1.2101
H29 H 1.0425 0.4648 1.2418
O12 O 0.7876(6) 0.3770(3) 1.0323(2)
C1 C 0.0924(11) 0.6855(7) 0.4245(3)
H1 H 0.1645 0.6385 0.4410
H2 H -0.0223 0.6636 0.4133
H3 H 0.0889 0.7316 0.4521
N1 N 0.1600(7) 0.7187(4) 0.3764(2)
C2 C 0.1459(9) 0.6675(5) 0.3285(3)
O1 O 0.0760(7) 0.5975(4) 0.3291(2)
C3 C 0.2209(9) 0.6992(5) 0.2803(3)
C4 C 0.2253(8) 0.6480(5) 0.2344(3)
H4 H 0.1835 0.5906 0.2347
C5 C 0.2897(8) 0.6788(5) 0.1877(3)
H5 H 0.2879 0.6429 0.1557
C6 C 0.3563(8) 0.7602(4) 0.1868(3)
C7 C 0.4233(9) 0.8987(5) 0.2367(3)
H6 H 0.4675 0.9222 0.2052
C8 C 0.4235(9) 0.9472(5) 0.2830(3)
H7 H 0.4670 1.0043 0.2836
C9 C 0.3612(8) 0.9150(5) 0.3297(3)
H8 H 0.3633 0.9501 0.3621
C10 C 0.2982(9) 0.8354(5) 0.3300(3)
C11 C 0.2888(8) 0.7827(5) 0.2812(3)
C12 C 0.3597(8) 0.8149(5) 0.2340(3)
C13 C 0.2345(9) 0.8005(5) 0.3801(3)
O2 O 0.2491(7) 0.8390(4) 0.4240(2)
C14 C 0.4233(9) 0.7917(5) 0.1375(3)
C15 C 0.4773(8) 0.8209(5) 0.0973(3)
C16 C 0.5197(9) 0.8637(5) 0.0477(3)
H9 H 0.6376 0.8850 0.0544
H10 H 0.5114 0.8222 0.0163
O3 O 0.4069(6) 0.9348(3) 0.03330(19)
C17 C 0.2392(9) 0.9114(5) 0.0224(3)
H11 H 0.2111 0.8674 0.0502
C18 C 0.1312(9) 0.9931(5) 0.0262(3)
H12 H 0.1705 1.0404 0.0027
O4 O 0.1561(6) 1.0166(3) 0.08445(18)
C19 C 0.2118(10) 1.0962(5) 0.0987(3)
O5 O 0.2352(9) 1.1507(4) 0.0647(2)
C20 C 0.2402(13) 1.1076(6) 0.1604(3)
H13 H 0.1378 1.0909 0.1763
H14 H 0.2666 1.1682 0.1693
H15 H 0.3348 1.0712 0.1763
C21 C -0.0523(9) 0.9724(4) 0.0077(3)
H16 H -0.0994 0.9345 0.0355
O6 O -0.1458(6) 1.0533(3) 0.0000(2)
C22 C -0.2442(10) 1.0761(5) 0.0382(4)
O7 O -0.2414(8) 1.0405(4) 0.0829(3)
C23 C -0.3586(11) 1.1487(6) 0.0179(4)
H17 H -0.3915 1.1804 0.0500
H18 H -0.4599 1.1258 -0.0046
H19 H -0.2995 1.1877 -0.0051
C24 C -0.0701(9) 0.9306(5) -0.0492(3)
H20 H -0.0368 0.9719 -0.0778
O8 O -0.2428(6) 0.9052(3) -0.06299(18)
C25 C -0.3234(9) 0.9337(5) -0.1129(3)
O9 O -0.2575(7) 0.9788(4) -0.1434(2)
C26 C -0.5021(9) 0.8945(6) -0.1237(3)
H21 H -0.4936 0.8319 -0.1283
H22 H -0.5630 0.9197 -0.1578
H23 H -0.5635 0.9070 -0.0920
C27 C 0.0365(10) 0.8496(6) -0.0477(3)
H24 H 0.0034 0.8099 -0.0182
C28 C 0.0252(14) 0.8034(7) -0.1008(4)
H25 H 0.1019 0.7529 -0.0974
H26 H -0.0918 0.7828 -0.1120
O10 O 0.0709(8) 0.8594(5) -0.1391(2)
C29 C -0.0140(14) 0.8528(7) -0.1920(4)
O11 O -0.100(2) 0.7923(8) -0.2070(4)
C30 C 0.0494(17) 0.9239(7) -0.2305(4)
H27 H 0.0848 0.8968 -0.2638
H28 H 0.1454 0.9547 -0.2101
H29 H -0.0425 0.9648 -0.2418
O12 O 0.2124(6) 0.8770(3) -0.0323(2)
C31 C 1.1632(12) 0.1506(6) 0.9247(3)
H30 H 1.0661 0.1703 0.9424
H31 H 1.2679 0.1633 0.9493
H32 H 1.1544 0.0883 0.9182
N2 N 1.1651(7) 0.1962(4) 0.8703(2)
C32 C 1.2410(9) 0.1532(5) 0.8300(3)
O13 O 1.3025(8) 0.0818(4) 0.8382(2)
C33 C 1.2423(9) 0.1971(5) 0.7753(3)
C34 C 1.3122(8) 0.1572(5) 0.7320(3)
H33 H 1.3585 0.1008 0.7369
C35 C 1.3139(9) 0.1997(5) 0.6818(3)
H34 H 1.3606 0.1717 0.6522
C36 C 1.2489(8) 0.2826(5) 0.6735(3)
C37 C 1.1137(9) 0.4105(5) 0.7116(3)
H35 H 1.1134 0.4399 0.6770
C38 C 1.0529(10) 0.4498(5) 0.7554(3)
H36 H 1.0091 0.5067 0.7512
C39 C 1.0541(9) 0.4068(5) 0.8072(3)
H37 H 1.0165 0.4361 0.8380
C40 C 1.1089(8) 0.3234(5) 0.8133(2)
C41 C 1.1758(7) 0.2814(5) 0.7686(3)
C42 C 1.1782(8) 0.3245(4) 0.7181(3)
C43 C 1.1035(9) 0.2785(5) 0.8666(3)
O14 O 1.0470(7) 0.3107(3) 0.90610(19)
C44 C 1.2564(9) 0.3250(5) 0.6221(3)
C45 C 1.2723(9) 0.3638(6) 0.5795(3)
C46 C 1.2868(10) 0.4113(6) 0.5283(3)
H38 H 1.4051 0.4310 0.5287
H39 H 1.2602 0.3721 0.4959
O15 O 1.1784(6) 0.4834(4) 0.52131(19)
C47 C 1.0093(8) 0.4601(5) 0.5101(3)
H40 H 0.9824 0.4111 0.5344
C48 C 0.9040(9) 0.5380(5) 0.5192(3)
H41 H 0.9462 0.5889 0.4995
O16 O 0.9217(7) 0.5541(3) 0.57756(18)
C49 C 0.9394(11) 0.6382(6) 0.5960(3)
O17 O 0.9444(12) 0.6977(4) 0.5653(3)
C50 C 0.9484(14) 0.6440(6) 0.6566(3)
H42 H 0.9116 0.7015 0.6670
H43 H 1.0652 0.6342 0.6737
H44 H 0.8745 0.6002 0.6700
C51 C 0.7185(8) 0.5216(4) 0.4972(3)
H45 H 0.6686 0.4815 0.5232
O18 O 0.6263(7) 0.6020(3) 0.4938(2)
C52 C 0.5451(10) 0.6232(5) 0.5371(3)
O19 O 0.5441(8) 0.5813(4) 0.5773(2)
C53 C 0.4669(15) 0.7118(6) 0.5291(4)
H46 H 0.5332 0.7530 0.5537
H47 H 0.3506 0.7100 0.5382
H48 H 0.4660 0.7297 0.4901
C54 C 0.6977(8) 0.4835(5) 0.4395(3)
H49 H 0.7223 0.5277 0.4114
O20 O 0.5260(6) 0.4540(3) 0.42778(17)
C55 C 0.4432(8) 0.4743(5) 0.3768(3)
O21 O 0.4993(7) 0.5188(5) 0.3444(2)
C56 C 0.2750(8) 0.4271(5) 0.3676(3)
H50 H 0.2413 0.4188 0.3274
H51 H 0.1888 0.4612 0.3832
H52 H 0.2864 0.3708 0.3862
C57 C 0.8136(8) 0.4044(5) 0.4371(3)
H53 H 0.7852 0.3588 0.4637
C58 C 0.8150(10) 0.3667(7) 0.3786(3)
H54 H 0.8282 0.4133 0.3515
H55 H 0.9106 0.3259 0.3785
O22 O 0.6621(10) 0.3238(5) 0.3640(3)
C59 C 0.6460(15) 0.2799(8) 0.3144(4)
O23 O 0.7509(11) 0.2848(9) 0.2841(3)
C60 C 0.4673(17) 0.2400(10) 0.3006(5)
H56 H 0.4697 0.1953 0.2720
H57 H 0.3867 0.2851 0.2865
H58 H 0.4324 0.2144 0.3344
O24 O 0.9828(6) 0.4366(4) 0.45314(19)
C31 C -0.1632(12) 0.6506(6) 0.0753(3)
H30 H -0.0661 0.6703 0.0576
H31 H -0.2679 0.6633 0.0507
H32 H -0.1544 0.5883 0.0818
N2 N -0.1651(7) 0.6962(4) 0.1297(2)
C32 C -0.2410(9) 0.6532(5) 0.1700(3)
O13 O -0.3025(8) 0.5818(4) 0.1618(2)
C33 C -0.2423(9) 0.6971(5) 0.2247(3)
C34 C -0.3122(8) 0.6572(5) 0.2680(3)
H33 H -0.3585 0.6008 0.2631
C35 C -0.3139(9) 0.6997(5) 0.3182(3)
H34 H -0.3606 0.6717 0.3478
C36 C -0.2489(8) 0.7826(5) 0.3265(3)
C37 C -0.1137(9) 0.9105(5) 0.2884(3)
H35 H -0.1134 0.9399 0.3230
C38 C -0.0529(10) 0.9498(5) 0.2446(3)
H36 H -0.0091 1.0067 0.2488
C39 C -0.0541(9) 0.9068(5) 0.1928(3)
H37 H -0.0165 0.9361 0.1620
C40 C -0.1089(8) 0.8234(5) 0.1867(2)
C41 C -0.1758(7) 0.7814(5) 0.2314(3)
C42 C -0.1782(8) 0.8245(4) 0.2819(3)
C43 C -0.1035(9) 0.7785(5) 0.1334(3)
O14 O -0.0470(7) 0.8107(3) 0.09390(19)
C44 C -0.2564(9) 0.8250(5) 0.3779(3)
C45 C -0.2723(9) 0.8638(6) 0.4205(3)
C46 C -0.2868(10) 0.9113(6) 0.4717(3)
H38 H -0.4051 0.9310 0.4713
H39 H -0.2602 0.8721 0.5041
O15 O -0.1784(6) 0.9834(4) 0.47869(19)
C47 C -0.0093(8) 0.9601(5) 0.4899(3)
H40 H 0.0176 0.9111 0.4656
C48 C 0.0960(9) 1.0380(5) 0.4808(3)
H41 H 0.0538 1.0889 0.5005
O16 O 0.0783(7) 1.0541(3) 0.42244(18)
C49 C 0.0606(11) 1.1382(6) 0.4040(3)
O17 O 0.0556(12) 1.1977(4) 0.4347(3)
C50 C 0.0516(14) 1.1440(6) 0.3434(3)
H42 H 0.0884 1.2015 0.3330
H43 H -0.0652 1.1342 0.3263
H44 H 0.1255 1.1002 0.3300
C51 C 0.2815(8) 1.0216(4) 0.5028(3)
H45 H 0.3314 0.9815 0.4768
O18 O 0.3737(7) 1.1020(3) 0.5062(2)
C52 C 0.4549(10) 1.1232(5) 0.4629(3)
O19 O 0.4559(8) 1.0813(4) 0.4227(2)
C53 C 0.5331(15) 1.2118(6) 0.4709(4)
H46 H 0.4668 1.2530 0.4463
H47 H 0.6494 1.2100 0.4618
H48 H 0.5340 1.2297 0.5099
C54 C 0.3023(8) 0.9835(5) 0.5605(3)
H49 H 0.2777 1.0277 0.5886
O20 O 0.4740(6) 0.9540(3) 0.57222(17)
C55 C 0.5568(8) 0.9743(5) 0.6232(3)
O21 O 0.5007(7) 1.0188(5) 0.6556(2)
C56 C 0.7250(8) 0.9271(5) 0.6324(3)
H50 H 0.7587 0.9188 0.6726
H51 H 0.8112 0.9612 0.6168
H52 H 0.7136 0.8708 0.6138
C57 C 0.1864(8) 0.9044(5) 0.5629(3)
H53 H 0.2148 0.8588 0.5363
C58 C 0.1850(10) 0.8667(7) 0.6214(3)
H54 H 0.1718 0.9133 0.6485
H55 H 0.0894 0.8259 0.6215
O22 O 0.3379(10) 0.8238(5) 0.6360(3)
C59 C 0.3540(15) 0.7799(8) 0.6856(4)
O23 O 0.2491(11) 0.7848(9) 0.7159(3)
C60 C 0.5327(17) 0.7400(10) 0.6994(5)
H56 H 0.5303 0.6953 0.7280
H57 H 0.6133 0.7851 0.7135
H58 H 0.5676 0.7144 0.6656
O24 O 0.0172(6) 0.9366(4) 0.54686(19)

#END
