./ACEMUR_from_POSCAR.cif_generated_by_CrystalShift
_symmetry_cell_setting triclinic
_symmetry_space_group_name_H-M 'P 1'
loop_
_symmetry_equiv_pos_site_id
_symmetry_equiv_pos_as_xyz
1 x,y,z
_cell_length_a 6.606400
_cell_length_b 14.354000
_cell_length_c 14.549000
_cell_angle_alpha 90.000000
_cell_angle_beta 95.247000
_cell_angle_gamma 90.000000
_cell_volume 1373.875286
loop_
_atom_site_label
_atom_site_type_symbol
_atom_site_fract_x
_atom_site_fract_y
_atom_site_fract_z
H1 H 1.694000 0.618000 0.233100
H2 H 0.862000 0.909000 0.115200
H3 H 1.047000 0.675100 0.166200
H4 H 1.512000 0.912200 0.264800
H5 H 1.185000 0.947100 0.192200
H6 H 0.603000 0.644000 0.038700
H7 H 0.364000 0.534000 -0.016600
H8 H 0.430000 0.377900 0.464200
H9 H -0.018000 0.746500 -0.101200
H10 H 0.570000 0.877900 0.035800
H11 H 1.694000 0.882000 0.733100
H12 H 1.640000 0.899000 0.847000
H13 H 0.862000 0.591000 0.615200
H14 H 1.047000 0.824900 0.666200
H15 H 1.018000 0.246500 0.601200
H16 H 1.512000 0.587800 0.764800
H17 H 1.185000 0.552900 0.692200
H18 H 0.636000 0.034000 0.516600
H19 H 0.603000 0.856000 0.538700
H20 H 0.397000 0.144000 0.461300
H21 H 0.364000 0.966000 0.483400
H22 H -0.018000 0.753500 0.398800
H23 H -0.185000 0.447100 0.307800
H24 H 0.570000 0.622100 0.535800
H25 H -0.512000 0.412200 0.235200
H26 H -0.694000 0.382000 0.766900
H27 H -0.640000 0.399000 0.653000
H28 H 0.138000 0.091000 0.884800
H29 H -0.047000 0.175100 0.333800
H30 H -0.047000 0.324900 0.833800
H31 H 0.138000 0.409000 0.384800
H32 H -0.512000 0.087800 0.735200
H33 H -0.640000 0.101000 0.153000
H34 H -0.694000 0.118000 0.266900
H35 H -0.185000 0.052900 0.807800
H36 H 0.397000 0.356000 0.961300
H37 H 0.636000 0.466000 1.016600
H38 H 1.018000 0.253500 1.101200
H39 H 0.430000 0.122100 0.964200
H40 H 1.640000 0.601000 0.347000
C41 C 1.613100 0.634700 0.282400
C42 C 0.894000 0.846700 0.119550
C43 C 1.135800 0.723360 0.182930
C44 C 1.323200 0.704140 0.226160
C45 C 1.461800 0.772630 0.255380
C46 C 0.553900 0.238550 0.998260
C47 C 0.745200 0.210250 1.042910
C48 C 0.892200 0.275030 1.074870
C49 C 1.418600 0.864900 0.243590
C50 C 0.848900 0.367570 1.064290
C51 C 0.662800 0.397590 1.021250
C52 C 1.226700 0.885940 0.199060
C53 C 0.519300 0.335100 0.989200
C54 C 1.087400 0.817700 0.168770
C55 C -0.087400 0.182300 0.831230
C56 C -0.226700 0.114060 0.800940
C57 C 0.480700 0.664900 0.010800
C58 C -0.418600 0.135100 0.756410
C59 C -0.613100 0.134700 0.217600
C60 C -0.461800 0.227370 0.744620
C61 C -0.323200 0.295860 0.773840
C62 C -0.135800 0.276640 0.817070
C63 C 0.106000 0.346700 0.380450
C64 C 0.106000 0.153300 0.880450
C65 C -0.135800 0.223360 0.317070
C66 C -0.613100 0.365300 0.717600
C67 C -0.323200 0.204140 0.273840
C68 C -0.461800 0.272630 0.244620
C69 C 0.337200 0.602410 -0.021250
C70 C 0.151100 0.632430 -0.064290
C71 C 0.107800 0.724970 -0.074870
C72 C 0.254800 0.789750 -0.042910
C73 C 0.446100 0.761450 0.001740
C74 C 0.553900 0.261450 0.498260
C75 C 1.613100 0.865300 0.782400
C76 C -0.418600 0.364900 0.256410
C77 C 0.745200 0.289750 0.542910
C78 C 0.894000 0.653300 0.619550
C79 C 0.892200 0.224970 0.574870
C80 C 0.446100 0.738550 0.501740
C81 C 0.254800 0.710250 0.457090
C82 C 0.107800 0.775030 0.425130
C83 C -0.226700 0.385940 0.300940
C84 C 0.151100 0.867570 0.435710
C85 C 0.337200 0.897590 0.478750
C86 C -0.087400 0.317700 0.331230
C87 C 0.480700 0.835100 0.510800
C88 C 0.519300 0.164900 0.489200
C89 C 1.087400 0.682300 0.668770
C90 C 1.226700 0.614060 0.699060
C91 C 0.662800 0.102410 0.521250
C92 C 1.418600 0.635100 0.743590
C93 C 0.848900 0.132430 0.564290
C94 C 1.461800 0.727370 0.755380
C95 C 1.323200 0.795860 0.726160
C96 C 1.135800 0.776640 0.682930
N97 N 0.004200 0.936510 0.399250
N98 N 0.202000 0.613600 0.443160
N99 N 0.770200 0.713670 0.582110
N100 N 0.594100 0.678350 0.535560
N101 N 0.229800 0.213670 0.917890
N102 N 0.995800 0.063490 0.600750
N103 N 0.798000 0.113600 1.056840
N104 N 0.995800 0.436510 1.100750
N105 N 0.405900 0.321650 0.464440
N106 N 0.229800 0.286330 0.417890
N107 N 0.405900 0.178350 0.964440
N108 N 0.004200 0.563490 -0.100750
N109 N 0.594100 0.821650 0.035560
N110 N 0.798000 0.386400 0.556840
N111 N 0.770200 0.786330 0.082110
N112 N 0.202000 0.886400 -0.056840
O113 O 1.404800 0.618020 0.249640
O114 O 1.636300 0.767530 0.797590
O115 O 0.062000 1.018000 0.396290
O116 O 1.636300 0.732470 0.297590
O117 O 0.062000 0.482000 -0.103710
O118 O 0.032700 0.593590 0.406390
O119 O 0.329800 0.553710 0.468270
O120 O -0.168900 0.587900 -0.126300
O121 O 0.670200 0.053710 1.031730
O122 O -0.404800 0.118020 0.250360
O123 O 0.967300 0.093590 1.093610
O124 O 1.168900 0.412100 1.126300
O125 O -0.636300 0.232470 0.202410
O126 O 0.938000 0.518000 1.103710
O127 O 0.938000 -0.018000 0.603710
O128 O 0.032700 0.906410 -0.093610
O129 O 0.329800 0.946290 -0.031730
O130 O 1.404800 0.881980 0.749640
O131 O 1.168900 0.087900 0.626300
O132 O -0.636300 0.267530 0.702410
O133 O 0.967300 0.406410 0.593610
O134 O -0.168900 0.912100 0.373700
O135 O -0.404800 0.381980 0.750360
O136 O 0.670200 0.446290 0.531730

#END
