
#######################################################################
#
#                 Cambridge Crystallographic Data Centre
#                                CCDC 
#
#######################################################################
#
# If this CIF has been generated from an entry in the Cambridge 
# Structural Database, then it will include bibliographic, chemical, 
# crystal, experimental, refinement or atomic coordinate data resulting 
# from the CCDC's data processing and validation procedures.
#
#######################################################################

data_ACENIG
_symmetry_cell_setting           triclinic
_symmetry_space_group_name_H-M   'P -1'
_symmetry_Int_Tables_number      2
_space_group_name_Hall           '-P 1'
loop_
_symmetry_equiv_pos_site_id
_symmetry_equiv_pos_as_xyz
1 x,y,z
2 -x,-y,-z
_cell_length_a                   6.668(3)
_cell_length_b                   8.699(2)
_cell_length_c                   15.628(2)
_cell_angle_alpha                83.24(2)
_cell_angle_beta                 79.40(2)
_cell_angle_gamma                74.43(3)
_cell_volume                     856.096
loop_
_atom_site_label
_atom_site_type_symbol
_atom_site_fract_x
_atom_site_fract_y
_atom_site_fract_z
O1 O -0.1208(5) 0.5366(4) 0.3936(2)
O2 O -0.2554(6) 1.0741(4) 0.4387(2)
N1 N 0.2313(6) 0.4286(4) 0.3639(2)
N2 N -0.3127(6) 0.8284(4) 0.4623(3)
H1 H -0.4377(6) 0.8630(4) 0.4903(3)
H2 H -0.2636(6) 0.7280(4) 0.4549(3)
C1 C 0.2395(7) 0.8187(5) 0.2318(3)
C2 C -0.1950(7) 0.9303(5) 0.4304(3)
C3 C -0.1464(7) 0.8521(6) 0.2438(3)
H3 H -0.1336(7) 0.7379(6) 0.2537(3)
H4 H -0.2837(7) 0.9073(6) 0.2732(3)
C4 C 0.0231(7) 0.8596(5) 0.3805(3)
H5 H 0.1100(7) 0.9250(5) 0.3946(3)
C5 C 0.1380(6) 0.6887(5) 0.4075(3)
H6 H 0.1384(6) 0.6811(5) 0.4705(3)
C6 C 0.0625(7) 0.5468(5) 0.3864(3)
C7 C -0.1279(8) 0.9001(7) 0.1460(3)
H7 H -0.2355(8) 0.8693(7) 0.1228(3)
H8 H -0.1521(8) 1.0155(7) 0.1368(3)
C8 C 0.0266(7) 0.8949(5) 0.2816(3)
H9 H 0.0066(7) 1.0108(5) 0.2701(3)
C9 C 0.2177(8) 0.2778(5) 0.3349(3)
H10 H 0.0898(8) 0.2508(5) 0.3654(3)
H11 H 0.3370(8) 0.1924(5) 0.3490(3)
C10 C 0.3866(7) 0.7137(6) 0.2679(3)
H12 H 0.5147(7) 0.6765(6) 0.2322(3)
C11 C 0.2168(7) 0.2923(5) 0.2379(3)
C12 C 0.4027(9) 0.2622(7) 0.1801(4)
H13 H 0.5303(9) 0.2295(7) 0.2012(4)
C13 C 0.3681(7) 0.6478(6) 0.3614(3)
H14 H 0.4564(7) 0.6878(6) 0.3926(3)
C14 C 0.0882(9) 0.8213(7) 0.0974(3)
H15 H 0.0970(9) 0.8573(7) 0.0360(3)
H16 H 0.1086(9) 0.7061(7) 0.1024(3)
C15 C 0.4325(7) 0.4644(6) 0.3657(4)
H17 H 0.5366(7) 0.4251(6) 0.3160(4)
H18 H 0.4873(7) 0.4196(6) 0.4191(4)
C16 C 0.2598(8) 0.8638(7) 0.1353(3)
H19 H 0.3973(8) 0.8077(7) 0.1065(3)
H20 H 0.2480(8) 0.9778(7) 0.1247(3)
C17 C 0.4021(13) 0.2799(9) 0.0917(4)
H21 H 0.5293(13) 0.2585(9) 0.0536(4)
C18 C 0.2181(15) 0.3282(8) 0.0593(4)
H22 H 0.2185(15) 0.3412(8) -0.0006(4)
C19 C 0.0302(9) 0.3402(6) 0.2049(4)
H23 H -0.0974(9) 0.3608(6) 0.2428(4)
C20 C 0.0315(12) 0.3577(7) 0.1163(5)
H24 H -0.0955(12) 0.3898(7) 0.0947(5)
O1 O 1.1208(5) 0.4634(4) 0.6064(2)
O2 O 1.2554(6) -0.0741(4) 0.5613(2)
N1 N 0.7687(6) 0.5714(4) 0.6361(2)
N2 N 1.3127(6) 0.1716(4) 0.5377(3)
H1 H 1.4377(6) 0.1370(4) 0.5097(3)
H2 H 1.2636(6) 0.2720(4) 0.5451(3)
C1 C 0.7605(7) 0.1813(5) 0.7682(3)
C2 C 1.1950(7) 0.0697(5) 0.5696(3)
C3 C 1.1464(7) 0.1479(6) 0.7562(3)
H3 H 1.1336(7) 0.2621(6) 0.7463(3)
H4 H 1.2837(7) 0.0927(6) 0.7268(3)
C4 C 0.9769(7) 0.1404(5) 0.6195(3)
H5 H 0.8900(7) 0.0750(5) 0.6054(3)
C5 C 0.8620(6) 0.3113(5) 0.5925(3)
H6 H 0.8616(6) 0.3189(5) 0.5295(3)
C6 C 0.9375(7) 0.4532(5) 0.6136(3)
C7 C 1.1279(8) 0.0999(7) 0.8540(3)
H7 H 1.2355(8) 0.1307(7) 0.8772(3)
H8 H 1.1521(8) -0.0155(7) 0.8632(3)
C8 C 0.9734(7) 0.1051(5) 0.7184(3)
H9 H 0.9934(7) -0.0108(5) 0.7299(3)
C9 C 0.7823(8) 0.7222(5) 0.6651(3)
H10 H 0.9102(8) 0.7492(5) 0.6346(3)
H11 H 0.6630(8) 0.8076(5) 0.6510(3)
C10 C 0.6134(7) 0.2863(6) 0.7321(3)
H12 H 0.4853(7) 0.3235(6) 0.7678(3)
C11 C 0.7832(7) 0.7077(5) 0.7621(3)
C12 C 0.5973(9) 0.7378(7) 0.8199(4)
H13 H 0.4697(9) 0.7705(7) 0.7988(4)
C13 C 0.6319(7) 0.3522(6) 0.6386(3)
H14 H 0.5436(7) 0.3122(6) 0.6074(3)
C14 C 0.9118(9) 0.1787(7) 0.9026(3)
H15 H 0.9030(9) 0.1427(7) 0.9640(3)
H16 H 0.8914(9) 0.2939(7) 0.8976(3)
C15 C 0.5675(7) 0.5356(6) 0.6343(4)
H17 H 0.4634(7) 0.5749(6) 0.6840(4)
H18 H 0.5127(7) 0.5804(6) 0.5809(4)
C16 C 0.7402(8) 0.1362(7) 0.8647(3)
H19 H 0.6027(8) 0.1923(7) 0.8935(3)
H20 H 0.7520(8) 0.0222(7) 0.8753(3)
C17 C 0.5979(13) 0.7201(9) 0.9083(4)
H21 H 0.4707(13) 0.7415(9) 0.9464(4)
C18 C 0.7819(15) 0.6718(8) 0.9407(4)
H22 H 0.7815(15) 0.6588(8) 1.0006(4)
C19 C 0.9698(9) 0.6598(6) 0.7951(4)
H23 H 1.0974(9) 0.6392(6) 0.7572(4)
C20 C 0.9685(12) 0.6423(7) 0.8837(5)
H24 H 1.0955(12) 0.6102(7) 0.9053(5)

#END
