./ACEOXM01_from_POSCAR.cif_generated_by_CrystalShift
_symmetry_cell_setting triclinic
_symmetry_space_group_name_H-M 'P 1'
loop_
_symmetry_equiv_pos_site_id
_symmetry_equiv_pos_as_xyz
1 x,y,z
_cell_length_a 7.006000
_cell_length_b 10.482000
_cell_length_c 10.580000
_cell_angle_alpha 60.489000
_cell_angle_beta 79.610000
_cell_angle_gamma 83.453000
_cell_volume 664.785264
loop_
_atom_site_label
_atom_site_type_symbol
_atom_site_fract_x
_atom_site_fract_y
_atom_site_fract_z
H1 H 0.247200 0.509200 0.430600
H2 H 0.751500 0.810400 1.007700
H3 H 0.144600 0.663700 0.340400
H4 H 0.224200 0.826100 0.541000
H5 H 0.238100 0.869700 0.373500
H6 H 0.731300 0.838400 0.708300
H7 H 0.670100 0.722000 0.669800
H8 H 0.892600 0.746200 0.659500
H9 H 0.428600 0.824500 0.448900
H10 H 0.760100 0.410500 1.009200
H11 H 0.878800 0.451700 0.852400
H12 H 0.648900 0.456700 0.874400
H13 H 0.262900 0.517800 0.822600
H14 H 0.248500 0.189600 -0.007700
H15 H 0.752800 0.490800 0.569400
H16 H 0.626000 0.353400 0.683000
H17 H 0.855400 0.336300 0.659600
H18 H 0.268700 0.161600 0.291700
H19 H 0.329900 0.278000 0.330200
H20 H 0.107400 0.253800 0.340500
H21 H 0.775800 0.173900 0.459000
H22 H 0.239900 0.589500 -0.009200
H23 H 0.121200 0.548300 0.147600
H24 H 0.351100 0.543300 0.125600
H25 H 0.761900 0.130300 0.626500
H26 H 0.776800 0.653900 0.331700
H27 H 0.571400 0.175500 0.551100
H28 H 0.737100 0.482200 0.177400
H29 H 0.374600 -0.155300 0.997400
H30 H 0.740100 0.938200 0.360100
H31 H 0.704200 1.104900 0.245400
H32 H 0.917300 1.034800 0.251800
H33 H 0.147300 -0.146200 1.042600
H34 H 0.714500 1.046500 -0.057800
H35 H 0.852700 1.146200 -0.042600
H36 H 0.625400 1.155300 0.002600
H37 H 0.285500 -0.046500 1.057800
H38 H 0.223200 0.346100 0.668300
H39 H 0.082700 -0.034800 0.748200
H40 H 0.295800 -0.104900 0.754600
H41 H 0.259900 0.061800 0.639900
H42 H 0.374000 0.646600 0.317000
C43 C 0.245900 0.027000 0.847100
C44 C 0.257300 0.614400 0.388300
C45 C 0.265000 -0.090500 0.999500
C46 C 0.761000 0.628000 0.869700
C47 C 0.735000 1.090500 0.000500
C48 C 0.781300 1.016500 0.262000
C49 C 0.764000 0.743800 0.713100
C50 C 0.754100 0.973000 0.152900
C51 C 0.762300 0.473600 0.904400
C52 C 0.733200 0.349400 0.493600
C53 C 0.708400 0.193800 0.536300
C54 C 0.291600 0.806200 0.463700
C55 C 0.266800 0.650600 0.506400
C56 C 0.237700 0.526400 0.095600
C57 C 0.742700 0.385600 0.611700
C58 C 0.236000 0.256200 0.286900
C59 C 0.239000 0.372000 0.130300
C60 C 0.218700 -0.016500 0.738000
N61 N 0.759700 0.651100 0.978000
N62 N 0.250000 0.159200 0.823000
N63 N 0.258200 0.544500 0.636600
N64 N 0.741800 0.455500 0.363400
N65 N 0.750000 0.840800 0.177000
N66 N 0.240300 0.348900 0.022000
O67 O 0.229100 0.262400 0.677900
O68 O 0.240600 0.200700 0.065600
O69 O 0.270100 0.590100 0.739200
O70 O 0.729900 0.409900 0.260800
O71 O 0.770900 0.737600 0.322100
O72 O 0.759400 0.799300 0.934400

#END
