
#######################################################################
#
#                 Cambridge Crystallographic Data Centre
#                                CCDC 
#
#######################################################################
#
# If this CIF has been generated from an entry in the Cambridge 
# Structural Database, then it will include bibliographic, chemical, 
# crystal, experimental, refinement or atomic coordinate data resulting 
# from the CCDC's data processing and validation procedures.
#
#######################################################################

data_ACEPAA
_symmetry_cell_setting           monoclinic
_symmetry_space_group_name_H-M   'P 21/c'
_symmetry_Int_Tables_number      14
_space_group_name_Hall           '-P 2ybc'
loop_
_symmetry_equiv_pos_site_id
_symmetry_equiv_pos_as_xyz
1 x,y,z
2 x,1/2-y,1/2+z
3 -x,-y,-z
4 -x,1/2+y,1/2-z
_cell_length_a                   3.6600(10)
_cell_length_b                   14.252(2)
_cell_length_c                   11.4470(10)
_cell_angle_alpha                90
_cell_angle_beta                 98.090(10)
_cell_angle_gamma                90
_cell_volume                     591.16
loop_
_atom_site_label
_atom_site_type_symbol
_atom_site_fract_x
_atom_site_fract_y
_atom_site_fract_z
B1 B 0.4294(6) 0.36367(14) 0.54374(16)
O1 O 0.2473(4) 0.39225(9) 0.43883(11)
O2 O 0.6145(4) 0.42562(8) 0.62073(10)
O3 O -0.0282(4) 0.10746(8) 0.33888(10)
O4 O 0.5886(3) 0.22835(8) 0.68075(10)
C1 C 0.4186(4) 0.25655(11) 0.57182(14)
C2 C 0.2791(5) 0.17848(11) 0.51102(14)
C3 C 0.3662(5) 0.09897(12) 0.58586(15)
C4 C 0.5540(5) 0.13251(12) 0.68638(15)
C5 C 0.0887(5) 0.17870(12) 0.39080(14)
H1 H 0.301(7) 0.451(2) 0.421(2)
H2 H 0.721(7) 0.4036(18) 0.689(2)
H3 H 0.663(5) 0.1050(13) 0.7604(17)
H4 H 0.298(6) 0.0356(15) 0.5676(18)
H5 H 0.048(5) 0.2415(15) 0.3481(17)
B1 B 0.4294(6) 0.13633(14) 0.04374(16)
O1 O 0.2473(4) 0.10775(9) -0.06117(11)
O2 O 0.6145(4) 0.07438(8) 0.12073(10)
O3 O -0.0282(4) 0.39254(8) -0.16112(10)
O4 O 0.5886(3) 0.27165(8) 0.18075(10)
C1 C 0.4186(4) 0.24345(11) 0.07182(14)
C2 C 0.2791(5) 0.32152(11) 0.01102(14)
C3 C 0.3662(5) 0.40103(12) 0.08586(15)
C4 C 0.5540(5) 0.36749(12) 0.18638(15)
C5 C 0.0887(5) 0.32130(12) -0.10920(14)
H1 H 0.301(7) 0.049(2) -0.079(2)
H2 H 0.721(7) 0.0964(18) 0.189(2)
H3 H 0.663(5) 0.3950(13) 0.2604(17)
H4 H 0.298(6) 0.4644(15) 0.0676(18)
H5 H 0.048(5) 0.2585(15) -0.1519(17)
B1 B 0.5706(6) 0.63633(14) 0.45626(16)
O1 O 0.7527(4) 0.60775(9) 0.56117(11)
O2 O 0.3855(4) 0.57438(8) 0.37927(10)
O3 O 1.0282(4) 0.89254(8) 0.66112(10)
O4 O 0.4114(3) 0.77165(8) 0.31925(10)
C1 C 0.5814(4) 0.74345(11) 0.42818(14)
C2 C 0.7209(5) 0.82152(11) 0.48898(14)
C3 C 0.6338(5) 0.90103(12) 0.41414(15)
C4 C 0.4460(5) 0.86749(12) 0.31362(15)
C5 C 0.9113(5) 0.82130(12) 0.60920(14)
H1 H 0.699(7) 0.549(2) 0.579(2)
H2 H 0.279(7) 0.5964(18) 0.311(2)
H3 H 0.337(5) 0.8950(13) 0.2396(17)
H4 H 0.702(6) 0.9644(15) 0.4324(18)
H5 H 0.952(5) 0.7585(15) 0.6519(17)
B1 B 0.5706(6) 0.86367(14) 0.95626(16)
O1 O 0.7527(4) 0.89225(9) 1.06117(11)
O2 O 0.3855(4) 0.92562(8) 0.87927(10)
O3 O 1.0282(4) 0.60746(8) 1.16112(10)
O4 O 0.4114(3) 0.72835(8) 0.81925(10)
C1 C 0.5814(4) 0.75655(11) 0.92818(14)
C2 C 0.7209(5) 0.67848(11) 0.98898(14)
C3 C 0.6338(5) 0.59897(12) 0.91414(15)
C4 C 0.4460(5) 0.63251(12) 0.81362(15)
C5 C 0.9113(5) 0.67870(12) 1.10920(14)
H1 H 0.699(7) 0.951(2) 1.079(2)
H2 H 0.279(7) 0.9036(18) 0.811(2)
H3 H 0.337(5) 0.6050(13) 0.7396(17)
H4 H 0.702(6) 0.5356(15) 0.9324(18)
H5 H 0.952(5) 0.7415(15) 1.1519(17)

#END
