./ACEPER_from_POSCAR.cif_generated_by_CrystalShift
_symmetry_cell_setting triclinic
_symmetry_space_group_name_H-M 'P 1'
loop_
_symmetry_equiv_pos_site_id
_symmetry_equiv_pos_as_xyz
1 x,y,z
_cell_length_a 8.071000
_cell_length_b 32.365000
_cell_length_c 9.021000
_cell_angle_alpha 90.000000
_cell_angle_beta 113.260000
_cell_angle_gamma 90.000000
_cell_volume 2164.920235
loop_
_atom_site_label
_atom_site_type_symbol
_atom_site_fract_x
_atom_site_fract_y
_atom_site_fract_z
H1 H 1.123000 1.072000 0.916000
H2 H 1.414000 1.106000 1.029000
H3 H 0.014000 0.830000 0.520000
H4 H 1.594000 1.016000 0.800000
H5 H 0.182000 0.826000 0.702000
H6 H 0.016000 0.765000 0.467000
H7 H 0.474000 0.787000 0.612000
H8 H 0.738000 0.828000 0.657000
H9 H 1.310000 0.985000 0.696000
H10 H 0.595000 0.836000 0.465000
H11 H 0.442000 0.933000 0.545000
H12 H 0.314000 0.886000 0.674000
H13 H 0.377000 0.572000 0.584000
H14 H 0.086000 0.606000 0.471000
H15 H -0.094000 0.516000 0.700000
H16 H 0.190000 0.485000 0.804000
H17 H 0.407000 0.445000 0.735000
H18 H 0.504000 0.463000 0.921000
H19 H 0.699000 0.450000 0.728000
H20 H 0.794000 0.467000 0.917000
H21 H 0.594000 0.388000 0.825000
H22 H 1.093000 0.945000 0.765000
H23 H 0.744000 0.403000 0.976000
H24 H 1.160000 0.272000 1.134000
H25 H 1.364000 0.255000 1.413000
H26 H 1.455000 0.302000 1.609000
H27 H 1.565000 0.363000 1.527000
H28 H 1.443000 0.380000 1.241000
H29 H 0.996000 0.963000 0.579000
H30 H -0.484000 0.735000 -0.033000
H31 H -0.318000 0.674000 0.202000
H32 H -0.486000 0.670000 0.020000
H33 H -0.004000 0.678000 0.241000
H34 H -0.026000 0.713000 0.112000
H35 H 0.238000 0.672000 0.157000
H36 H 0.095000 0.664000 -0.035000
H37 H -0.058000 0.567000 0.045000
H38 H -0.186000 0.614000 0.174000
H39 H -0.329000 0.602000 0.011000
H40 H -0.443000 0.620000 -0.241000
H41 H -0.565000 0.637000 -0.527000
H42 H -0.455000 0.698000 -0.609000
H43 H -0.364000 0.745000 -0.413000
H44 H -0.160000 0.728000 -0.134000
H45 H 0.256000 0.597000 0.024000
H46 H 0.406000 0.612000 0.175000
H47 H 0.206000 0.533000 0.083000
H48 H 0.301000 0.550000 0.272000
H49 H 0.496000 0.537000 0.079000
H50 H 0.593000 0.555000 0.265000
H51 H 0.810000 0.515000 0.196000
H52 H 1.094000 0.484000 0.300000
H53 H 0.914000 0.394000 0.529000
H54 H 0.623000 0.428000 0.416000
H55 H 1.329000 0.398000 0.989000
H56 H 0.801000 0.950000 0.772000
H57 H 1.186000 0.386000 0.826000
H58 H 0.706000 0.967000 0.583000
H59 H 1.058000 0.433000 0.955000
H60 H 0.905000 0.336000 1.035000
H61 H 0.762000 0.328000 0.843000
H62 H 1.026000 0.287000 0.888000
H63 H 0.906000 0.888000 0.675000
H64 H 1.004000 0.322000 0.759000
H65 H 1.486000 0.330000 0.980000
H66 H 1.318000 0.326000 0.798000
H67 H 1.484000 0.265000 1.033000
H68 H 0.171000 0.898000 0.511000
H69 H 0.057000 0.880000 0.259000
H70 H -0.065000 0.863000 -0.027000
H71 H 0.045000 0.802000 -0.109000
H72 H 0.136000 0.755000 0.087000
H73 H -0.123000 -0.072000 0.084000
H74 H -0.414000 -0.106000 -0.029000
H75 H -0.594000 -0.016000 0.200000
H76 H 0.756000 0.903000 0.524000
H77 H -0.310000 0.015000 0.304000
H78 H -0.093000 0.055000 0.235000
H79 H 0.004000 0.037000 0.421000
H80 H 0.199000 0.050000 0.228000
H81 H 0.294000 0.033000 0.417000
H82 H 0.094000 0.112000 0.325000
H83 H 0.340000 0.772000 0.366000
H84 H 0.984000 0.235000 0.533000
H85 H 0.818000 0.174000 0.298000
H86 H 0.986000 0.170000 0.480000
H87 H 0.504000 0.178000 0.259000
H88 H 0.526000 0.213000 0.388000
H89 H 0.262000 0.172000 0.343000
H90 H 0.405000 0.164000 0.535000
H91 H 0.558000 0.067000 0.455000
H92 H 0.686000 0.114000 0.326000
H93 H 0.829000 0.102000 0.489000
H94 H 0.943000 0.120000 0.741000
H95 H 1.065000 0.137000 1.027000
H96 H 0.955000 0.198000 1.109000
H97 H 0.864000 0.245000 0.913000
H98 H 0.660000 0.228000 0.634000
H99 H 0.244000 0.097000 0.476000
H100 H 0.496000 0.822000 0.741000
C101 C -0.396600 -0.080100 0.042800
C102 C -0.525200 -0.063300 0.086300
C103 C -0.501900 -0.029000 0.180600
C104 C -0.336200 -0.009800 0.234300
C105 C -0.198600 -0.026000 0.196700
C106 C -0.015500 -0.007700 0.254400
C107 C 0.015200 0.036100 0.312900
C108 C 0.199300 0.052600 0.334000
C109 C 1.360100 0.202300 0.879900
C110 C 0.227200 0.096500 0.395100
C111 C 1.313800 0.246200 0.833500
C112 C 0.737000 0.210200 0.716800
C113 C 1.361900 0.318500 0.921800
C114 C 1.223200 0.336000 0.981600
C115 C 1.035700 0.318000 0.879200
C116 C 0.886300 0.339400 0.912100
C117 C 0.800000 0.219600 0.879100
C118 C 1.053700 0.402600 0.976300
C119 C 1.208300 0.382800 0.947400
C120 C 1.285300 0.326300 1.162200
C121 C 1.401800 0.352500 1.279100
C122 C 1.464500 0.343000 1.442700
C123 C 1.413500 0.306900 1.492600
C124 C 1.300000 0.280400 1.379100
C125 C 1.237000 0.289800 1.216800
C126 C 0.727200 0.403500 0.895100
C127 C 0.699300 0.447400 0.834000
C128 C 0.515200 0.463900 0.812900
C129 C 0.484500 0.507700 0.754400
C130 C 0.913500 0.193100 0.992600
C131 C 0.301400 0.526000 0.696700
C132 C 0.163800 0.509800 0.734300
C133 C -0.001900 0.529000 0.680600
C134 C -0.025200 0.563300 0.586300
C135 C 0.103400 0.580100 0.542800
C136 C 0.269500 0.561300 0.600900
C137 C 0.964500 0.157000 0.942700
C138 C 0.901800 0.147500 0.779100
C139 C 0.785300 0.173700 0.662200
C140 C 0.708300 0.117200 0.447400
C141 C 0.553700 0.097400 0.476300
C142 C 0.386300 0.160600 0.412100
C143 C 0.535700 0.182000 0.379200
C144 C 0.723200 0.164000 0.481600
C145 C 0.861900 0.181500 0.421800
C146 C 0.813800 0.253800 0.333500
C147 C 0.860100 0.297700 0.379900
C148 C 0.730500 0.438700 0.399100
C149 C 0.896600 0.419900 0.457200
C150 C 1.025200 0.436700 0.413700
C151 C 1.001900 0.471000 0.319400
C152 C 0.836200 0.490200 0.265700
C153 C 0.698600 0.474000 0.303300
C154 C 0.515500 0.492300 0.245600
C155 C 0.484800 0.536100 0.187100
C156 C 0.300700 0.552600 0.166000
C157 C 0.272800 0.596500 0.104900
C158 C -0.237000 0.710200 -0.216800
C159 C -0.300000 0.719600 -0.379100
C160 C -0.413500 0.693100 -0.492600
C161 C -0.464500 0.657000 -0.442700
C162 C -0.401800 0.647500 -0.279100
C163 C 0.139900 0.702300 0.620100
C164 C -0.285300 0.673700 -0.162200
C165 C 0.186200 0.746200 0.666500
C166 C -0.208300 0.617200 0.052600
C167 C 0.138100 0.818500 0.578200
C168 C 0.276800 0.836000 0.518400
C169 C 0.464300 0.818000 0.620800
C170 C 0.613700 0.839400 0.587900
C171 C -0.053700 0.597400 0.023700
C172 C 0.446300 0.902600 0.523700
C173 C 0.291700 0.882800 0.552600
C174 C 0.214700 0.826300 0.337800
C175 C 0.098200 0.852500 0.220900
C176 C 0.035500 0.843000 0.057300
C177 C 0.086500 0.806900 0.007400
C178 C 0.200000 0.780400 0.120900
C179 C 0.263000 0.789800 0.283200
C180 C 0.772800 0.903500 0.604900
C181 C 0.800700 0.947400 0.666000
C182 C 0.984800 0.963900 0.687100
C183 C 1.015500 1.007700 0.745600
C184 C 0.113700 0.660600 0.087900
C185 C 1.198600 1.026000 0.803300
C186 C 1.336200 1.009800 0.765700
C187 C 1.501900 1.029000 0.819400
C188 C 1.525200 1.063300 0.913700
C189 C 1.396600 1.080100 0.957200
C190 C 1.230500 1.061300 0.899100
C191 C -0.035700 0.682000 0.120800
C192 C -0.223200 0.664000 0.018400
C193 C -0.361900 0.681500 0.078200
C194 C -0.313800 0.753800 0.166500
C195 C -0.230500 -0.061300 0.100900
C196 C -0.360100 0.797700 0.120100
N197 N 0.896000 0.225300 0.449600
N198 N 0.619400 0.883800 0.625300
N199 N 0.104000 0.774700 0.550400
N200 N 0.380600 0.116200 0.374700
N201 N -0.396000 0.725300 0.050400
N202 N 1.396000 0.274700 0.949600
N203 N 0.880600 0.383800 0.874700
N204 N 0.119400 0.616200 0.125300
O205 O -0.200300 0.744200 0.301300
O206 O 0.110200 -0.028300 0.255000
O207 O 0.299700 0.755800 0.801300
O208 O 0.889800 1.028300 0.745000
O209 O 0.700300 0.244200 0.198700
O210 O 1.200300 0.255800 0.698700
O211 O 0.610200 0.528300 0.755000
O212 O 0.389800 0.471700 0.245000
F213 F -0.181800 0.581400 0.531100
F214 F -0.681800 -0.081400 0.031100
F215 F 1.181800 0.418600 0.468900
F216 F 1.681800 1.081400 0.968900

#END
