
#######################################################################
#
#                 Cambridge Crystallographic Data Centre
#                                CCDC 
#
#######################################################################
#
# If this CIF has been generated from an entry in the Cambridge 
# Structural Database, then it will include bibliographic, chemical, 
# crystal, experimental, refinement or atomic coordinate data resulting 
# from the CCDC's data processing and validation procedures.
#
#######################################################################

data_ACEPER
_symmetry_cell_setting           monoclinic
_symmetry_space_group_name_H-M   'P 21/n'
_symmetry_Int_Tables_number      14
_space_group_name_Hall           '-P 2yn'
loop_
_symmetry_equiv_pos_site_id
_symmetry_equiv_pos_as_xyz
1 x,y,z
2 1/2-x,1/2+y,1/2-z
3 -x,-y,-z
4 1/2+x,1/2-y,1/2+z
_cell_length_a                   8.071(5)
_cell_length_b                   32.365(5)
_cell_length_c                   9.021(5)
_cell_angle_alpha                90
_cell_angle_beta                 113.26(5)
_cell_angle_gamma                90
_cell_volume                     2164.92
loop_
_atom_site_label
_atom_site_type_symbol
_atom_site_fract_x
_atom_site_fract_y
_atom_site_fract_z
C1 C -0.36010 0.79770 0.12010
O1 O -0.20030 0.74420 0.30130
C2 C -0.31380 0.75380 0.16650
N1 N -0.39600 0.72530 0.05040
C3 C -0.36190 0.68150 0.07820
C4 C -0.22320 0.66400 0.01840
C5 C -0.03570 0.68200 0.12080
C6 C 0.11370 0.66060 0.08790
N2 N 0.11940 0.61620 0.12530
C7 C -0.05370 0.59740 0.02370
C8 C -0.20830 0.61720 0.05260
C9 C -0.28530 0.67370 -0.16220
C10 C -0.40180 0.64750 -0.27910
C11 C -0.46450 0.65700 -0.44270
C12 C -0.41350 0.69310 -0.49260
C13 C -0.30000 0.71960 -0.37910
C14 C -0.23700 0.71020 -0.21680
C15 C 0.27280 0.59650 0.10490
C16 C 0.30070 0.55260 0.16600
C17 C 0.48480 0.53610 0.18710
C18 C 0.51550 0.49230 0.24560
O2 O 0.38980 0.47170 0.24500
C19 C 0.69860 0.47400 0.30330
C20 C 0.83620 0.49020 0.26570
C21 C 1.00190 0.47100 0.31940
C22 C 1.02520 0.43670 0.41370
C23 C 0.89660 0.41990 0.45720
C24 C 0.73050 0.43870 0.39910
F1 F 1.18180 0.41860 0.46890
H1 H -0.48400 0.73500 -0.03300
H2 H -0.31800 0.67400 0.20200
H3 H -0.48600 0.67000 0.02000
H4 H -0.00400 0.67800 0.24100
H5 H -0.02600 0.71300 0.11200
H6 H 0.23800 0.67200 0.15700
H7 H 0.09500 0.66400 -0.03500
H8 H -0.05800 0.56700 0.04500
H9 H -0.18600 0.61400 0.17400
H10 H -0.32900 0.60200 0.01100
H11 H -0.44300 0.62000 -0.24100
H12 H -0.56500 0.63700 -0.52700
H13 H -0.45500 0.69800 -0.60900
H14 H -0.36400 0.74500 -0.41300
H15 H -0.16000 0.72800 -0.13400
H16 H 0.25600 0.59700 0.02400
H17 H 0.40600 0.61200 0.17500
H18 H 0.20600 0.53300 0.08300
H19 H 0.30100 0.55000 0.27200
H20 H 0.49600 0.53700 0.07900
H21 H 0.59300 0.55500 0.26500
H22 H 0.81000 0.51500 0.19600
H23 H 1.09400 0.48400 0.30000
H24 H 0.91400 0.39400 0.52900
H25 H 0.62300 0.42800 0.41600
C1 C 0.86010 0.29770 0.37990
O1 O 0.70030 0.24420 0.19870
C2 C 0.81380 0.25380 0.33350
N1 N 0.89600 0.22530 0.44960
C3 C 0.86190 0.18150 0.42180
C4 C 0.72320 0.16400 0.48160
C5 C 0.53570 0.18200 0.37920
C6 C 0.38630 0.16060 0.41210
N2 N 0.38060 0.11620 0.37470
C7 C 0.55370 0.09740 0.47630
C8 C 0.70830 0.11720 0.44740
C9 C 0.78530 0.17370 0.66220
C10 C 0.90180 0.14750 0.77910
C11 C 0.96450 0.15700 0.94270
C12 C 0.91350 0.19310 0.99260
C13 C 0.80000 0.21960 0.87910
C14 C 0.73700 0.21020 0.71680
C15 C 0.22720 0.09650 0.39510
C16 C 0.19930 0.05260 0.33400
C17 C 0.01520 0.03610 0.31290
C18 C -0.01550 -0.00770 0.25440
O2 O 0.11020 -0.02830 0.25500
C19 C -0.19860 -0.02600 0.19670
C20 C -0.33620 -0.00980 0.23430
C21 C -0.50190 -0.02900 0.18060
C22 C -0.52520 -0.06330 0.08630
C23 C -0.39660 -0.08010 0.04280
C24 C -0.23050 -0.06130 0.10090
F1 F -0.68180 -0.08140 0.03110
H1 H 0.98400 0.23500 0.53300
H2 H 0.81800 0.17400 0.29800
H3 H 0.98600 0.17000 0.48000
H4 H 0.50400 0.17800 0.25900
H5 H 0.52600 0.21300 0.38800
H6 H 0.26200 0.17200 0.34300
H7 H 0.40500 0.16400 0.53500
H8 H 0.55800 0.06700 0.45500
H9 H 0.68600 0.11400 0.32600
H10 H 0.82900 0.10200 0.48900
H11 H 0.94300 0.12000 0.74100
H12 H 1.06500 0.13700 1.02700
H13 H 0.95500 0.19800 1.10900
H14 H 0.86400 0.24500 0.91300
H15 H 0.66000 0.22800 0.63400
H16 H 0.24400 0.09700 0.47600
H17 H 0.09400 0.11200 0.32500
H18 H 0.29400 0.03300 0.41700
H19 H 0.19900 0.05000 0.22800
H20 H 0.00400 0.03700 0.42100
H21 H -0.09300 0.05500 0.23500
H22 H -0.31000 0.01500 0.30400
H23 H -0.59400 -0.01600 0.20000
H24 H -0.41400 -0.10600 -0.02900
H25 H -0.12300 -0.07200 0.08400
C1 C 1.36010 0.20230 0.87990
O1 O 1.20030 0.25580 0.69870
C2 C 1.31380 0.24620 0.83350
N1 N 1.39600 0.27470 0.94960
C3 C 1.36190 0.31850 0.92180
C4 C 1.22320 0.33600 0.98160
C5 C 1.03570 0.31800 0.87920
C6 C 0.88630 0.33940 0.91210
N2 N 0.88060 0.38380 0.87470
C7 C 1.05370 0.40260 0.97630
C8 C 1.20830 0.38280 0.94740
C9 C 1.28530 0.32630 1.16220
C10 C 1.40180 0.35250 1.27910
C11 C 1.46450 0.34300 1.44270
C12 C 1.41350 0.30690 1.49260
C13 C 1.30000 0.28040 1.37910
C14 C 1.23700 0.28980 1.21680
C15 C 0.72720 0.40350 0.89510
C16 C 0.69930 0.44740 0.83400
C17 C 0.51520 0.46390 0.81290
C18 C 0.48450 0.50770 0.75440
O2 O 0.61020 0.52830 0.75500
C19 C 0.30140 0.52600 0.69670
C20 C 0.16380 0.50980 0.73430
C21 C -0.00190 0.52900 0.68060
C22 C -0.02520 0.56330 0.58630
C23 C 0.10340 0.58010 0.54280
C24 C 0.26950 0.56130 0.60090
F1 F -0.18180 0.58140 0.53110
H1 H 1.48400 0.26500 1.03300
H2 H 1.31800 0.32600 0.79800
H3 H 1.48600 0.33000 0.98000
H4 H 1.00400 0.32200 0.75900
H5 H 1.02600 0.28700 0.88800
H6 H 0.76200 0.32800 0.84300
H7 H 0.90500 0.33600 1.03500
H8 H 1.05800 0.43300 0.95500
H9 H 1.18600 0.38600 0.82600
H10 H 1.32900 0.39800 0.98900
H11 H 1.44300 0.38000 1.24100
H12 H 1.56500 0.36300 1.52700
H13 H 1.45500 0.30200 1.60900
H14 H 1.36400 0.25500 1.41300
H15 H 1.16000 0.27200 1.13400
H16 H 0.74400 0.40300 0.97600
H17 H 0.59400 0.38800 0.82500
H18 H 0.79400 0.46700 0.91700
H19 H 0.69900 0.45000 0.72800
H20 H 0.50400 0.46300 0.92100
H21 H 0.40700 0.44500 0.73500
H22 H 0.19000 0.48500 0.80400
H23 H -0.09400 0.51600 0.70000
H24 H 0.08600 0.60600 0.47100
H25 H 0.37700 0.57200 0.58400
C1 C 0.13990 0.70230 0.62010
O1 O 0.29970 0.75580 0.80130
C2 C 0.18620 0.74620 0.66650
N1 N 0.10400 0.77470 0.55040
C3 C 0.13810 0.81850 0.57820
C4 C 0.27680 0.83600 0.51840
C5 C 0.46430 0.81800 0.62080
C6 C 0.61370 0.83940 0.58790
N2 N 0.61940 0.88380 0.62530
C7 C 0.44630 0.90260 0.52370
C8 C 0.29170 0.88280 0.55260
C9 C 0.21470 0.82630 0.33780
C10 C 0.09820 0.85250 0.22090
C11 C 0.03550 0.84300 0.05730
C12 C 0.08650 0.80690 0.00740
C13 C 0.20000 0.78040 0.12090
C14 C 0.26300 0.78980 0.28320
C15 C 0.77280 0.90350 0.60490
C16 C 0.80070 0.94740 0.66600
C17 C 0.98480 0.96390 0.68710
C18 C 1.01550 1.00770 0.74560
O2 O 0.88980 1.02830 0.74500
C19 C 1.19860 1.02600 0.80330
C20 C 1.33620 1.00980 0.76570
C21 C 1.50190 1.02900 0.81940
C22 C 1.52520 1.06330 0.91370
C23 C 1.39660 1.08010 0.95720
C24 C 1.23050 1.06130 0.89910
F1 F 1.68180 1.08140 0.96890
H1 H 0.01600 0.76500 0.46700
H2 H 0.18200 0.82600 0.70200
H3 H 0.01400 0.83000 0.52000
H4 H 0.49600 0.82200 0.74100
H5 H 0.47400 0.78700 0.61200
H6 H 0.73800 0.82800 0.65700
H7 H 0.59500 0.83600 0.46500
H8 H 0.44200 0.93300 0.54500
H9 H 0.31400 0.88600 0.67400
H10 H 0.17100 0.89800 0.51100
H11 H 0.05700 0.88000 0.25900
H12 H -0.06500 0.86300 -0.02700
H13 H 0.04500 0.80200 -0.10900
H14 H 0.13600 0.75500 0.08700
H15 H 0.34000 0.77200 0.36600
H16 H 0.75600 0.90300 0.52400
H17 H 0.90600 0.88800 0.67500
H18 H 0.70600 0.96700 0.58300
H19 H 0.80100 0.95000 0.77200
H20 H 0.99600 0.96300 0.57900
H21 H 1.09300 0.94500 0.76500
H22 H 1.31000 0.98500 0.69600
H23 H 1.59400 1.01600 0.80000
H24 H 1.41400 1.10600 1.02900
H25 H 1.12300 1.07200 0.91600

#END
