./ACEPAA_from_POSCAR.cif_generated_by_CrystalShift
_symmetry_cell_setting triclinic
_symmetry_space_group_name_H-M 'P 1'
loop_
_symmetry_equiv_pos_site_id
_symmetry_equiv_pos_as_xyz
1 x,y,z
_cell_length_a 3.660000
_cell_length_b 14.252000
_cell_length_c 11.447000
_cell_angle_alpha 90.000000
_cell_angle_beta 98.090000
_cell_angle_gamma 90.000000
_cell_volume 591.159857
loop_
_atom_site_label
_atom_site_type_symbol
_atom_site_fract_x
_atom_site_fract_y
_atom_site_fract_z
H1 H 0.952000 0.741500 1.151900
H2 H 0.702000 0.535600 0.932400
H3 H 0.337000 0.605000 0.739600
H4 H 0.279000 0.903600 0.811000
H5 H 0.699000 0.951000 1.079000
H6 H 0.721000 0.096400 0.189000
H7 H 0.952000 0.758500 0.651900
H8 H 0.702000 0.964400 0.432400
H9 H 0.337000 0.895000 0.239600
H10 H 0.279000 0.596400 0.311000
H11 H 0.301000 0.451000 0.421000
H12 H 0.721000 0.403600 0.689000
H13 H 0.663000 0.105000 0.760400
H14 H 0.298000 0.035600 0.567600
H15 H 0.048000 0.241500 0.348100
H16 H 0.663000 0.395000 0.260400
H17 H 0.699000 0.549000 0.579000
H18 H 0.298000 0.464400 0.067600
H19 H 0.048000 0.258500 -0.151900
H20 H 0.301000 0.049000 -0.079000
B21 B 0.570600 0.863670 0.956260
B22 B 0.429400 0.136330 0.043740
B23 B 0.570600 0.636330 0.456260
B24 B 0.429400 0.363670 0.543740
C25 C 0.088700 0.321300 -0.109200
C26 C 0.366200 0.401030 0.085860
C27 C 0.279100 0.321520 0.011020
C28 C 0.418600 0.243450 0.071820
C29 C 0.911300 0.678700 1.109200
C30 C 0.446000 0.632510 0.813620
C31 C 0.633800 0.598970 0.914140
C32 C 0.720900 0.678480 0.988980
C33 C 0.581400 0.756550 0.928180
C34 C 0.418600 0.256550 0.571820
C35 C 0.279100 0.178480 0.511020
C36 C 0.581400 0.743450 0.428180
C37 C 0.720900 0.821520 0.488980
C38 C 0.633800 0.901030 0.414140
C39 C 0.446000 0.867490 0.313620
C40 C 0.911300 0.821300 0.609200
C41 C 0.366200 0.098970 0.585860
C42 C 0.088700 0.178700 0.390800
C43 C 0.554000 0.132510 0.686380
C44 C 0.554000 0.367490 0.186380
O45 O 0.411400 0.771650 0.319250
O46 O 1.028200 0.892540 0.661120
O47 O 0.752700 0.892250 1.061170
O48 O 0.385500 0.925620 0.879270
O49 O 1.028200 0.607460 1.161120
O50 O 0.411400 0.728350 0.819250
O51 O 0.385500 0.574380 0.379270
O52 O 0.752700 0.607750 0.561170
O53 O 0.614500 0.074380 0.120730
O54 O -0.028200 0.392540 -0.161120
O55 O 0.588600 0.271650 0.180750
O56 O 0.588600 0.228350 0.680750
O57 O -0.028200 0.107460 0.338880
O58 O 0.614500 0.425620 0.620730
O59 O 0.247300 0.392250 0.438830
O60 O 0.247300 0.107750 -0.061170

#END
