
#######################################################################
#
#                 Cambridge Crystallographic Data Centre
#                                CCDC 
#
#######################################################################
#
# If this CIF has been generated from an entry in the Cambridge 
# Structural Database, then it will include bibliographic, chemical, 
# crystal, experimental, refinement or atomic coordinate data resulting 
# from the CCDC's data processing and validation procedures.
#
#######################################################################

data_ACEPUU
_symmetry_cell_setting           orthorhombic
_symmetry_space_group_name_H-M   'P b c a'
_symmetry_Int_Tables_number      61
_space_group_name_Hall           '-P 2ac 2ab'
loop_
_symmetry_equiv_pos_site_id
_symmetry_equiv_pos_as_xyz
1 x,y,z
2 1/2+x,y,1/2-z
3 x,1/2-y,1/2+z
4 1/2-x,1/2+y,z
5 -x,-y,-z
6 1/2-x,-y,1/2+z
7 -x,1/2+y,1/2-z
8 1/2+x,1/2-y,-z
_cell_length_a                   11.0105(7)
_cell_length_b                   13.6596(10)
_cell_length_c                   26.8832(18)
_cell_angle_alpha                90
_cell_angle_beta                 90
_cell_angle_gamma                90
_cell_volume                     4043.21
loop_
_atom_site_label
_atom_site_type_symbol
_atom_site_fract_x
_atom_site_fract_y
_atom_site_fract_z
P1 P 0.18678(7) 0.62362(6) 0.32800(3)
P2 P 0.32346(7) 0.56650(6) 0.41339(3)
O1 O 0.1403(2) 0.70798(17) 0.35561(9)
O2 O 0.20961(19) 0.53565(18) 0.43735(8)
O3 O 0.30687(17) 0.57853(16) 0.35412(7)
C1 C 0.2314(3) 0.6392(2) 0.26502(11)
C2 C 0.3179(3) 0.7015(2) 0.24531(13)
H1 H 0.3649 0.7424 0.2664
C3 C 0.3346(3) 0.7033(3) 0.19483(14)
H2 H 0.3942 0.7452 0.1806
C4 C 0.2646(4) 0.6442(3) 0.16467(14)
H3 H 0.2760 0.6467 0.1297
C5 C 0.1787(3) 0.5818(3) 0.18396(13)
H4 H 0.1314 0.5418 0.1625
C6 C 0.1618(3) 0.5777(2) 0.23479(11)
C7 C 0.0786(3) 0.5130(2) 0.26296(11)
C8 C -0.0019(3) 0.4440(3) 0.24317(14)
H5 H -0.0092 0.4363 0.2082
C9 C -0.0699(3) 0.3878(3) 0.27471(17)
H6 H -0.1239 0.3403 0.2614
C10 C -0.0613(3) 0.3990(3) 0.32580(16)
H7 H -0.1088 0.3589 0.3471
C11 C 0.0159(3) 0.4681(3) 0.34595(13)
H8 H 0.0213 0.4764 0.3810
C12 C 0.0854(3) 0.5249(2) 0.31422(11)
C13 C 0.4548(3) 0.4909(2) 0.41877(10)
C14 C 0.4687(4) 0.3938(2) 0.40540(11)
H9 H 0.4042 0.3587 0.3901
C15 C 0.5784(5) 0.3490(3) 0.41475(13)
H10 H 0.5900 0.2823 0.4061
C16 C 0.6709(4) 0.4006(3) 0.43649(14)
H11 H 0.7460 0.3684 0.4426
C17 C 0.6588(3) 0.4975(3) 0.44988(11)
H12 H 0.7244 0.5316 0.4649
C18 C 0.5487(3) 0.5445(2) 0.44102(10)
C19 C 0.5166(3) 0.6466(2) 0.45246(10)
C20 C 0.5872(3) 0.7154(3) 0.47677(11)
H13 H 0.6672 0.6992 0.4871
C21 C 0.5412(3) 0.8074(3) 0.48588(12)
H14 H 0.5889 0.8534 0.5038
C22 C 0.4273(3) 0.8341(3) 0.46954(12)
H15 H 0.3981 0.8986 0.4751
C23 C 0.3551(3) 0.7656(2) 0.44469(11)
H16 H 0.2766 0.7833 0.4331
C24 C 0.3986(3) 0.6725(2) 0.43724(10)
P1 P 0.68678(7) 0.62362(6) 0.17200(3)
P2 P 0.82346(7) 0.56650(6) 0.08661(3)
O1 O 0.6403(2) 0.70798(17) 0.14439(9)
O2 O 0.70961(19) 0.53565(18) 0.06265(8)
O3 O 0.80687(17) 0.57853(16) 0.14588(7)
C1 C 0.7314(3) 0.6392(2) 0.23498(11)
C2 C 0.8179(3) 0.7015(2) 0.25469(13)
H1 H 0.8649 0.7424 0.2336
C3 C 0.8346(3) 0.7033(3) 0.30517(14)
H2 H 0.8942 0.7452 0.3194
C4 C 0.7646(4) 0.6442(3) 0.33533(14)
H3 H 0.7760 0.6467 0.3703
C5 C 0.6787(3) 0.5818(3) 0.31604(13)
H4 H 0.6314 0.5418 0.3375
C6 C 0.6618(3) 0.5777(2) 0.26521(11)
C7 C 0.5786(3) 0.5130(2) 0.23704(11)
C8 C 0.4981(3) 0.4440(3) 0.25683(14)
H5 H 0.4908 0.4363 0.2918
C9 C 0.4301(3) 0.3878(3) 0.22529(17)
H6 H 0.3761 0.3403 0.2386
C10 C 0.4387(3) 0.3990(3) 0.17420(16)
H7 H 0.3912 0.3589 0.1529
C11 C 0.5159(3) 0.4681(3) 0.15405(13)
H8 H 0.5213 0.4764 0.1190
C12 C 0.5854(3) 0.5249(2) 0.18578(11)
C13 C 0.9548(3) 0.4909(2) 0.08123(10)
C14 C 0.9687(4) 0.3938(2) 0.09460(11)
H9 H 0.9042 0.3587 0.1099
C15 C 1.0784(5) 0.3490(3) 0.08525(13)
H10 H 1.0900 0.2823 0.0939
C16 C 1.1709(4) 0.4006(3) 0.06351(14)
H11 H 1.2460 0.3684 0.0574
C17 C 1.1588(3) 0.4975(3) 0.05012(11)
H12 H 1.2244 0.5316 0.0351
C18 C 1.0487(3) 0.5445(2) 0.05898(10)
C19 C 1.0166(3) 0.6466(2) 0.04754(10)
C20 C 1.0872(3) 0.7154(3) 0.02323(11)
H13 H 1.1672 0.6992 0.0129
C21 C 1.0412(3) 0.8074(3) 0.01412(12)
H14 H 1.0889 0.8534 -0.0038
C22 C 0.9273(3) 0.8341(3) 0.03046(12)
H15 H 0.8981 0.8986 0.0249
C23 C 0.8551(3) 0.7656(2) 0.05531(11)
H16 H 0.7766 0.7833 0.0669
C24 C 0.8986(3) 0.6725(2) 0.06276(10)
P1 P 0.18678(7) 0.87638(6) 0.82800(3)
P2 P 0.32346(7) 0.93350(6) 0.91339(3)
O1 O 0.1403(2) 0.79202(17) 0.85561(9)
O2 O 0.20961(19) 0.96435(18) 0.93735(8)
O3 O 0.30687(17) 0.92147(16) 0.85412(7)
C1 C 0.2314(3) 0.8608(2) 0.76502(11)
C2 C 0.3179(3) 0.7985(2) 0.74531(13)
H1 H 0.3649 0.7576 0.7664
C3 C 0.3346(3) 0.7967(3) 0.69483(14)
H2 H 0.3942 0.7548 0.6806
C4 C 0.2646(4) 0.8558(3) 0.66467(14)
H3 H 0.2760 0.8533 0.6297
C5 C 0.1787(3) 0.9182(3) 0.68396(13)
H4 H 0.1314 0.9582 0.6625
C6 C 0.1618(3) 0.9223(2) 0.73479(11)
C7 C 0.0786(3) 0.9870(2) 0.76296(11)
C8 C -0.0019(3) 1.0560(3) 0.74317(14)
H5 H -0.0092 1.0637 0.7082
C9 C -0.0699(3) 1.1122(3) 0.77471(17)
H6 H -0.1239 1.1597 0.7614
C10 C -0.0613(3) 1.1010(3) 0.82580(16)
H7 H -0.1088 1.1411 0.8471
C11 C 0.0159(3) 1.0319(3) 0.84595(13)
H8 H 0.0213 1.0236 0.8810
C12 C 0.0854(3) 0.9751(2) 0.81422(11)
C13 C 0.4548(3) 1.0091(2) 0.91877(10)
C14 C 0.4687(4) 1.1062(2) 0.90540(11)
H9 H 0.4042 1.1413 0.8901
C15 C 0.5784(5) 1.1510(3) 0.91475(13)
H10 H 0.5900 1.2177 0.9061
C16 C 0.6709(4) 1.0994(3) 0.93649(14)
H11 H 0.7460 1.1316 0.9426
C17 C 0.6588(3) 1.0025(3) 0.94988(11)
H12 H 0.7244 0.9684 0.9649
C18 C 0.5487(3) 0.9555(2) 0.94102(10)
C19 C 0.5166(3) 0.8534(2) 0.95246(10)
C20 C 0.5872(3) 0.7846(3) 0.97677(11)
H13 H 0.6672 0.8008 0.9871
C21 C 0.5412(3) 0.6926(3) 0.98588(12)
H14 H 0.5889 0.6466 1.0038
C22 C 0.4273(3) 0.6659(3) 0.96954(12)
H15 H 0.3981 0.6014 0.9751
C23 C 0.3551(3) 0.7344(2) 0.94469(11)
H16 H 0.2766 0.7167 0.9331
C24 C 0.3986(3) 0.8275(2) 0.93724(10)
P1 P 0.31322(7) 0.12362(6) 0.32800(3)
P2 P 0.17654(7) 0.06650(6) 0.41339(3)
O1 O 0.3597(2) 0.20798(17) 0.35561(9)
O2 O 0.29039(19) 0.03565(18) 0.43735(8)
O3 O 0.19313(17) 0.07853(16) 0.35412(7)
C1 C 0.2686(3) 0.1392(2) 0.26502(11)
C2 C 0.1821(3) 0.2015(2) 0.24531(13)
H1 H 0.1351 0.2424 0.2664
C3 C 0.1654(3) 0.2033(3) 0.19483(14)
H2 H 0.1058 0.2452 0.1806
C4 C 0.2354(4) 0.1442(3) 0.16467(14)
H3 H 0.2240 0.1467 0.1297
C5 C 0.3213(3) 0.0818(3) 0.18396(13)
H4 H 0.3686 0.0418 0.1625
C6 C 0.3382(3) 0.0777(2) 0.23479(11)
C7 C 0.4214(3) 0.0130(2) 0.26296(11)
C8 C 0.5019(3) -0.0560(3) 0.24317(14)
H5 H 0.5092 -0.0637 0.2082
C9 C 0.5699(3) -0.1122(3) 0.27471(17)
H6 H 0.6239 -0.1597 0.2614
C10 C 0.5613(3) -0.1010(3) 0.32580(16)
H7 H 0.6088 -0.1411 0.3471
C11 C 0.4841(3) -0.0319(3) 0.34595(13)
H8 H 0.4787 -0.0236 0.3810
C12 C 0.4146(3) 0.0249(2) 0.31422(11)
C13 C 0.0452(3) -0.0091(2) 0.41877(10)
C14 C 0.0313(4) -0.1062(2) 0.40540(11)
H9 H 0.0958 -0.1413 0.3901
C15 C -0.0784(5) -0.1510(3) 0.41475(13)
H10 H -0.0900 -0.2177 0.4061
C16 C -0.1709(4) -0.0994(3) 0.43649(14)
H11 H -0.2460 -0.1316 0.4426
C17 C -0.1588(3) -0.0025(3) 0.44988(11)
H12 H -0.2244 0.0316 0.4649
C18 C -0.0487(3) 0.0445(2) 0.44102(10)
C19 C -0.0166(3) 0.1466(2) 0.45246(10)
C20 C -0.0872(3) 0.2154(3) 0.47677(11)
H13 H -0.1672 0.1992 0.4871
C21 C -0.0412(3) 0.3074(3) 0.48588(12)
H14 H -0.0889 0.3534 0.5038
C22 C 0.0727(3) 0.3341(3) 0.46954(12)
H15 H 0.1019 0.3986 0.4751
C23 C 0.1449(3) 0.2656(2) 0.44469(11)
H16 H 0.2234 0.2833 0.4331
C24 C 0.1014(3) 0.1725(2) 0.43724(10)
P1 P 0.81322(7) 0.37638(6) 0.67200(3)
P2 P 0.67654(7) 0.43350(6) 0.58661(3)
O1 O 0.8597(2) 0.29202(17) 0.64439(9)
O2 O 0.79039(19) 0.46435(18) 0.56265(8)
O3 O 0.69313(17) 0.42147(16) 0.64588(7)
C1 C 0.7686(3) 0.3608(2) 0.73498(11)
C2 C 0.6821(3) 0.2985(2) 0.75469(13)
H1 H 0.6351 0.2576 0.7336
C3 C 0.6654(3) 0.2967(3) 0.80517(14)
H2 H 0.6058 0.2548 0.8194
C4 C 0.7354(4) 0.3558(3) 0.83533(14)
H3 H 0.7240 0.3533 0.8703
C5 C 0.8213(3) 0.4182(3) 0.81604(13)
H4 H 0.8686 0.4582 0.8375
C6 C 0.8382(3) 0.4223(2) 0.76521(11)
C7 C 0.9214(3) 0.4870(2) 0.73704(11)
C8 C 1.0019(3) 0.5560(3) 0.75683(14)
H5 H 1.0092 0.5637 0.7918
C9 C 1.0699(3) 0.6122(3) 0.72529(17)
H6 H 1.1239 0.6597 0.7386
C10 C 1.0613(3) 0.6010(3) 0.67420(16)
H7 H 1.1088 0.6411 0.6529
C11 C 0.9841(3) 0.5319(3) 0.65405(13)
H8 H 0.9787 0.5236 0.6190
C12 C 0.9146(3) 0.4751(2) 0.68578(11)
C13 C 0.5452(3) 0.5091(2) 0.58123(10)
C14 C 0.5313(4) 0.6062(2) 0.59460(11)
H9 H 0.5958 0.6413 0.6099
C15 C 0.4216(5) 0.6510(3) 0.58525(13)
H10 H 0.4100 0.7177 0.5939
C16 C 0.3291(4) 0.5994(3) 0.56351(14)
H11 H 0.2540 0.6316 0.5574
C17 C 0.3412(3) 0.5025(3) 0.55012(11)
H12 H 0.2756 0.4684 0.5351
C18 C 0.4513(3) 0.4555(2) 0.55898(10)
C19 C 0.4834(3) 0.3534(2) 0.54754(10)
C20 C 0.4128(3) 0.2846(3) 0.52323(11)
H13 H 0.3328 0.3008 0.5129
C21 C 0.4588(3) 0.1926(3) 0.51412(12)
H14 H 0.4111 0.1466 0.4962
C22 C 0.5727(3) 0.1659(3) 0.53046(12)
H15 H 0.6019 0.1014 0.5249
C23 C 0.6449(3) 0.2344(2) 0.55531(11)
H16 H 0.7234 0.2167 0.5669
C24 C 0.6014(3) 0.3275(2) 0.56276(10)
P1 P 0.31322(7) 0.37638(6) 0.82800(3)
P2 P 0.17654(7) 0.43350(6) 0.91339(3)
O1 O 0.3597(2) 0.29202(17) 0.85561(9)
O2 O 0.29039(19) 0.46435(18) 0.93735(8)
O3 O 0.19313(17) 0.42147(16) 0.85412(7)
C1 C 0.2686(3) 0.3608(2) 0.76502(11)
C2 C 0.1821(3) 0.2985(2) 0.74531(13)
H1 H 0.1351 0.2576 0.7664
C3 C 0.1654(3) 0.2967(3) 0.69483(14)
H2 H 0.1058 0.2548 0.6806
C4 C 0.2354(4) 0.3558(3) 0.66467(14)
H3 H 0.2240 0.3533 0.6297
C5 C 0.3213(3) 0.4182(3) 0.68396(13)
H4 H 0.3686 0.4582 0.6625
C6 C 0.3382(3) 0.4223(2) 0.73479(11)
C7 C 0.4214(3) 0.4870(2) 0.76296(11)
C8 C 0.5019(3) 0.5560(3) 0.74317(14)
H5 H 0.5092 0.5637 0.7082
C9 C 0.5699(3) 0.6122(3) 0.77471(17)
H6 H 0.6239 0.6597 0.7614
C10 C 0.5613(3) 0.6010(3) 0.82580(16)
H7 H 0.6088 0.6411 0.8471
C11 C 0.4841(3) 0.5319(3) 0.84595(13)
H8 H 0.4787 0.5236 0.8810
C12 C 0.4146(3) 0.4751(2) 0.81422(11)
C13 C 0.0452(3) 0.5091(2) 0.91877(10)
C14 C 0.0313(4) 0.6062(2) 0.90540(11)
H9 H 0.0958 0.6413 0.8901
C15 C -0.0784(5) 0.6510(3) 0.91475(13)
H10 H -0.0900 0.7177 0.9061
C16 C -0.1709(4) 0.5994(3) 0.93649(14)
H11 H -0.2460 0.6316 0.9426
C17 C -0.1588(3) 0.5025(3) 0.94988(11)
H12 H -0.2244 0.4684 0.9649
C18 C -0.0487(3) 0.4555(2) 0.94102(10)
C19 C -0.0166(3) 0.3534(2) 0.95246(10)
C20 C -0.0872(3) 0.2846(3) 0.97677(11)
H13 H -0.1672 0.3008 0.9871
C21 C -0.0412(3) 0.1926(3) 0.98588(12)
H14 H -0.0889 0.1466 1.0038
C22 C 0.0727(3) 0.1659(3) 0.96954(12)
H15 H 0.1019 0.1014 0.9751
C23 C 0.1449(3) 0.2344(2) 0.94469(11)
H16 H 0.2234 0.2167 0.9331
C24 C 0.1014(3) 0.3275(2) 0.93724(10)
P1 P 0.81322(7) 0.12362(6) 0.17200(3)
P2 P 0.67654(7) 0.06650(6) 0.08661(3)
O1 O 0.8597(2) 0.20798(17) 0.14439(9)
O2 O 0.79039(19) 0.03565(18) 0.06265(8)
O3 O 0.69313(17) 0.07853(16) 0.14588(7)
C1 C 0.7686(3) 0.1392(2) 0.23498(11)
C2 C 0.6821(3) 0.2015(2) 0.25469(13)
H1 H 0.6351 0.2424 0.2336
C3 C 0.6654(3) 0.2033(3) 0.30517(14)
H2 H 0.6058 0.2452 0.3194
C4 C 0.7354(4) 0.1442(3) 0.33533(14)
H3 H 0.7240 0.1467 0.3703
C5 C 0.8213(3) 0.0818(3) 0.31604(13)
H4 H 0.8686 0.0418 0.3375
C6 C 0.8382(3) 0.0777(2) 0.26521(11)
C7 C 0.9214(3) 0.0130(2) 0.23704(11)
C8 C 1.0019(3) -0.0560(3) 0.25683(14)
H5 H 1.0092 -0.0637 0.2918
C9 C 1.0699(3) -0.1122(3) 0.22529(17)
H6 H 1.1239 -0.1597 0.2386
C10 C 1.0613(3) -0.1010(3) 0.17420(16)
H7 H 1.1088 -0.1411 0.1529
C11 C 0.9841(3) -0.0319(3) 0.15405(13)
H8 H 0.9787 -0.0236 0.1190
C12 C 0.9146(3) 0.0249(2) 0.18578(11)
C13 C 0.5452(3) -0.0091(2) 0.08123(10)
C14 C 0.5313(4) -0.1062(2) 0.09460(11)
H9 H 0.5958 -0.1413 0.1099
C15 C 0.4216(5) -0.1510(3) 0.08525(13)
H10 H 0.4100 -0.2177 0.0939
C16 C 0.3291(4) -0.0994(3) 0.06351(14)
H11 H 0.2540 -0.1316 0.0574
C17 C 0.3412(3) -0.0025(3) 0.05012(11)
H12 H 0.2756 0.0316 0.0351
C18 C 0.4513(3) 0.0445(2) 0.05898(10)
C19 C 0.4834(3) 0.1466(2) 0.04754(10)
C20 C 0.4128(3) 0.2154(3) 0.02323(11)
H13 H 0.3328 0.1992 0.0129
C21 C 0.4588(3) 0.3074(3) 0.01412(12)
H14 H 0.4111 0.3534 -0.0038
C22 C 0.5727(3) 0.3341(3) 0.03046(12)
H15 H 0.6019 0.3986 0.0249
C23 C 0.6449(3) 0.2656(2) 0.05531(11)
H16 H 0.7234 0.2833 0.0669
C24 C 0.6014(3) 0.1725(2) 0.06276(10)
P1 P 0.68678(7) 0.87638(6) 0.67200(3)
P2 P 0.82346(7) 0.93350(6) 0.58661(3)
O1 O 0.6403(2) 0.79202(17) 0.64439(9)
O2 O 0.70961(19) 0.96435(18) 0.56265(8)
O3 O 0.80687(17) 0.92147(16) 0.64588(7)
C1 C 0.7314(3) 0.8608(2) 0.73498(11)
C2 C 0.8179(3) 0.7985(2) 0.75469(13)
H1 H 0.8649 0.7576 0.7336
C3 C 0.8346(3) 0.7967(3) 0.80517(14)
H2 H 0.8942 0.7548 0.8194
C4 C 0.7646(4) 0.8558(3) 0.83533(14)
H3 H 0.7760 0.8533 0.8703
C5 C 0.6787(3) 0.9182(3) 0.81604(13)
H4 H 0.6314 0.9582 0.8375
C6 C 0.6618(3) 0.9223(2) 0.76521(11)
C7 C 0.5786(3) 0.9870(2) 0.73704(11)
C8 C 0.4981(3) 1.0560(3) 0.75683(14)
H5 H 0.4908 1.0637 0.7918
C9 C 0.4301(3) 1.1122(3) 0.72529(17)
H6 H 0.3761 1.1597 0.7386
C10 C 0.4387(3) 1.1010(3) 0.67420(16)
H7 H 0.3912 1.1411 0.6529
C11 C 0.5159(3) 1.0319(3) 0.65405(13)
H8 H 0.5213 1.0236 0.6190
C12 C 0.5854(3) 0.9751(2) 0.68578(11)
C13 C 0.9548(3) 1.0091(2) 0.58123(10)
C14 C 0.9687(4) 1.1062(2) 0.59460(11)
H9 H 0.9042 1.1413 0.6099
C15 C 1.0784(5) 1.1510(3) 0.58525(13)
H10 H 1.0900 1.2177 0.5939
C16 C 1.1709(4) 1.0994(3) 0.56351(14)
H11 H 1.2460 1.1316 0.5574
C17 C 1.1588(3) 1.0025(3) 0.55012(11)
H12 H 1.2244 0.9684 0.5351
C18 C 1.0487(3) 0.9555(2) 0.55898(10)
C19 C 1.0166(3) 0.8534(2) 0.54754(10)
C20 C 1.0872(3) 0.7846(3) 0.52323(11)
H13 H 1.1672 0.8008 0.5129
C21 C 1.0412(3) 0.6926(3) 0.51412(12)
H14 H 1.0889 0.6466 0.4962
C22 C 0.9273(3) 0.6659(3) 0.53046(12)
H15 H 0.8981 0.6014 0.5249
C23 C 0.8551(3) 0.7344(2) 0.55531(11)
H16 H 0.7766 0.7167 0.5669
C24 C 0.8986(3) 0.8275(2) 0.56276(10)

#END
