./ACEQAB_from_POSCAR.cif_generated_by_CrystalShift
_symmetry_cell_setting triclinic
_symmetry_space_group_name_H-M 'P 1'
loop_
_symmetry_equiv_pos_site_id
_symmetry_equiv_pos_as_xyz
1 x,y,z
_cell_length_a 7.592400
_cell_length_b 8.663900
_cell_length_c 21.719100
_cell_angle_alpha 90.000000
_cell_angle_beta 107.396000
_cell_angle_gamma 90.000000
_cell_volume 1363.331922
loop_
_atom_site_label
_atom_site_type_symbol
_atom_site_fract_x
_atom_site_fract_y
_atom_site_fract_z
H1 H 0.846800 -0.001400 0.950600
H2 H 0.894100 0.347400 0.789000
H3 H 0.871900 0.441700 0.887400
H4 H 0.790400 0.209600 0.691100
H5 H 0.920500 0.090000 0.669000
H6 H 1.010000 0.223500 0.719600
H7 H 0.153200 0.498600 0.549400
H8 H 0.125300 0.407000 0.647600
H9 H 0.242900 0.127200 0.511400
H10 H 0.329000 0.226900 0.575400
H11 H 0.461400 0.152700 0.538200
H12 H 0.403100 0.082200 0.324200
H13 H 0.360600 0.084200 0.428600
H14 H 0.338300 0.557200 0.424300
H15 H 0.384800 0.559600 0.321100
H16 H 0.846800 0.501400 0.450600
H17 H 0.874700 0.593000 0.352400
H18 H 0.105900 0.847400 0.711000
H19 H 0.128100 0.941700 0.612600
H20 H 0.209600 0.709600 0.808900
H21 H 0.079500 0.590000 0.831000
H22 H -0.010000 0.723500 0.780400
H23 H 0.153200 1.001400 0.049400
H24 H 0.125300 1.093000 0.147600
H25 H 0.105900 0.652600 0.211000
H26 H 0.242900 0.372800 1.011400
H27 H 0.329000 0.273100 1.075400
H28 H 0.461400 0.347300 1.038200
H29 H 0.403100 0.417800 0.824200
H30 H 0.360600 0.415800 0.928600
H31 H 0.338300 -0.057200 0.924300
H32 H 0.384800 -0.059600 0.821100
H33 H 0.894100 0.152600 0.289000
H34 H 0.871900 0.058300 0.387400
H35 H 0.128100 0.558300 0.112600
H36 H 0.209600 0.790400 0.308900
H37 H 0.079500 0.910000 0.331000
H38 H -0.010000 0.776500 0.280400
H39 H 1.010000 0.276500 0.219600
H40 H 0.615200 1.059600 0.178900
H41 H 0.661700 1.057200 0.075700
H42 H 0.639400 0.584200 0.071400
H43 H 0.757100 0.872800 0.488600
H44 H 0.671000 0.773100 0.424600
H45 H 0.538600 0.847300 0.461800
H46 H 0.596900 0.917800 0.675800
H47 H 0.639400 0.915800 0.571400
H48 H 0.661700 0.442800 0.575700
H49 H 0.615200 0.440400 0.678900
H50 H 0.790400 0.290400 0.191100
H51 H 0.920500 0.410000 0.169000
H52 H 0.596900 0.582200 0.175800
H53 H 0.538600 0.652700 -0.038200
H54 H 0.671000 0.726900 -0.075400
H55 H 0.757100 0.627200 -0.011400
H56 H 0.874700 -0.093000 0.852400
C57 C 0.648490 0.962030 0.096780
C58 C 0.623700 0.961130 0.156880
C59 C 0.652480 0.823070 0.064590
C60 C 0.633320 0.682840 0.093420
C61 C 0.609520 0.682190 0.154100
C62 C 0.604930 0.820690 0.186320
C63 C 0.581480 0.820760 0.249370
C64 C 0.659430 0.799840 0.467100
C65 C 0.623700 0.538870 0.656880
C66 C 0.648490 0.537970 0.596780
C67 C 0.652480 0.676930 0.564590
C68 C 0.906320 0.348550 0.205110
C69 C 0.153650 0.716380 0.010460
C70 C 0.141310 0.772370 0.071270
C71 C 0.128770 0.669690 0.119390
C72 C 0.115220 0.724410 0.177810
C73 C 0.112360 0.882920 0.187980
C74 C 0.126060 0.985750 0.139960
C75 C 0.140570 0.931440 0.082290
C76 C 0.093680 0.848550 0.294890
C77 C 0.633320 0.817160 0.593420
C78 C 0.609520 0.817810 0.654100
C79 C 0.604930 0.679310 0.686320
C80 C 0.581480 0.679240 0.749370
C81 C 0.340570 0.299840 1.032900
C82 C 0.376300 0.038870 0.843120
C83 C 0.351510 0.037970 0.903220
C84 C 0.859430 0.431440 0.417710
C85 C 0.873940 0.485750 0.360040
C86 C 0.153650 0.783620 0.510460
C87 C 0.141310 0.727630 0.571270
C88 C 0.128770 0.830310 0.619390
C89 C 0.115220 0.775590 0.677810
C90 C 0.112360 0.617080 0.687980
C91 C 0.126060 0.514250 0.639960
C92 C 0.140570 0.568560 0.582290
C93 C 0.093680 0.651450 0.794890
C94 C 0.347520 0.176930 0.935410
C95 C 0.366680 0.317160 0.906580
C96 C 0.390480 0.317810 0.845900
C97 C 0.395070 0.179310 0.813680
C98 C 0.418520 0.179240 0.750630
C99 C 0.340570 0.200160 0.532900
C100 C 0.376300 0.461130 0.343120
C101 C 0.887640 0.382920 0.312020
C102 C 0.884780 0.224410 0.322190
C103 C 0.846350 0.283620 0.989540
C104 C 0.858690 0.227630 0.928730
C105 C 0.871230 0.330310 0.880610
C106 C 0.884780 0.275590 0.822190
C107 C 0.887640 0.117080 0.812020
C108 C 0.873940 0.014250 0.860040
C109 C 0.859430 0.068560 0.917710
C110 C 0.906320 0.151450 0.705110
C111 C 0.351510 0.462030 0.403220
C112 C 0.347520 0.323070 0.435410
C113 C 0.366680 0.182840 0.406580
C114 C 0.390480 0.182190 0.345900
C115 C 0.395070 0.320690 0.313680
C116 C 0.659430 0.700160 -0.032900
C117 C 0.418520 0.320760 0.250630
C118 C 0.871230 0.169690 0.380610
C119 C 0.858690 0.272370 0.428730
C120 C 0.846350 0.216380 0.489540
N121 N 0.564980 0.822280 0.300380
N122 N 0.837910 0.327580 1.038570
N123 N 0.435020 0.322280 0.199620
N124 N 0.162090 0.827580 0.461430
N125 N 0.435020 0.177720 0.699620
N126 N 0.162090 0.672420 -0.038570
N127 N 0.564980 0.677720 0.800380
N128 N 0.837910 0.172420 0.538570
O129 O 0.676270 0.836540 0.005310
O130 O 0.323730 0.163460 0.994690
O131 O 0.096660 0.948930 0.242830
O132 O 0.323730 0.336540 0.494690
O133 O 0.096660 0.551070 0.742830
O134 O 0.903340 0.051070 0.757170
O135 O 0.676270 0.663460 0.505310
O136 O 0.903340 0.448930 0.257170

#END
