
#######################################################################
#
#                 Cambridge Crystallographic Data Centre
#                                CCDC 
#
#######################################################################
#
# If this CIF has been generated from an entry in the Cambridge 
# Structural Database, then it will include bibliographic, chemical, 
# crystal, experimental, refinement or atomic coordinate data resulting 
# from the CCDC's data processing and validation procedures.
#
#######################################################################

data_ACERAD
_symmetry_cell_setting           monoclinic
_symmetry_space_group_name_H-M   'P 21/c'
_symmetry_Int_Tables_number      14
_space_group_name_Hall           '-P 2ybc'
loop_
_symmetry_equiv_pos_site_id
_symmetry_equiv_pos_as_xyz
1 x,y,z
2 -x,1/2+y,1/2-z
3 -x,-y,-z
4 x,1/2-y,1/2+z
_cell_length_a                   7.7535(6)
_cell_length_b                   7.5254(6)
_cell_length_c                   27.035(2)
_cell_angle_alpha                90
_cell_angle_beta                 97.0370(10)
_cell_angle_gamma                90
_cell_volume                     1565.56
loop_
_atom_site_label
_atom_site_type_symbol
_atom_site_fract_x
_atom_site_fract_y
_atom_site_fract_z
O1 O 0.6059(2) 0.7784(2) 0.26471(6)
O2 O 0.6472(2) 0.3141(2) 0.46933(6)
N1 N 0.4834(3) 0.7754(3) 0.38982(7)
C1 C 0.6695(3) 0.3584(3) 0.42745(9)
C2 C 0.5466(3) 0.8341(3) 0.30220(9)
N2 N 0.6107(3) 0.5170(3) 0.40567(7)
N3 N 0.7545(3) 0.2580(3) 0.39580(8)
N4 N 0.7305(3) 0.4524(3) 0.32970(8)
C3 C 0.5578(3) 0.7240(3) 0.34828(9)
C4 C 0.6379(3) 0.5627(3) 0.35731(9)
N5 N 0.4713(3) 0.9910(3) 0.30523(9)
N6 N 0.7865(3) 0.3058(3) 0.34830(8)
C5 C 0.5175(3) 0.6502(3) 0.42343(9)
H1 H 0.4818 0.6525 0.4558
C6 C 0.8232(3) 0.0839(3) 0.41289(10)
H2 H 0.8986 0.0980 0.4445
H3 H 0.8903 0.0332 0.3879
H4 H 0.7266 0.0044 0.4177
H5 H 0.453(4) 1.057(4) 0.2778(12)
H6 H 0.430(4) 1.021(4) 0.3319(12)
O1 O 0.3941(2) 0.2784(2) 0.23529(6)
O2 O 0.3528(2) -0.1859(2) 0.03067(6)
N1 N 0.5166(3) 0.2754(3) 0.11018(7)
C1 C 0.3305(3) -0.1416(3) 0.07255(9)
C2 C 0.4534(3) 0.3341(3) 0.19780(9)
N2 N 0.3893(3) 0.0170(3) 0.09433(7)
N3 N 0.2455(3) -0.2420(3) 0.10420(8)
N4 N 0.2695(3) -0.0476(3) 0.17030(8)
C3 C 0.4422(3) 0.2240(3) 0.15172(9)
C4 C 0.3621(3) 0.0627(3) 0.14269(9)
N5 N 0.5287(3) 0.4910(3) 0.19477(9)
N6 N 0.2135(3) -0.1942(3) 0.15170(8)
C5 C 0.4825(3) 0.1502(3) 0.07657(9)
H1 H 0.5182 0.1525 0.0442
C6 C 0.1768(3) -0.4161(3) 0.08711(10)
H2 H 0.1014 -0.4020 0.0555
H3 H 0.1097 -0.4668 0.1121
H4 H 0.2734 -0.4956 0.0823
H5 H 0.547(4) 0.557(4) 0.2222(12)
H6 H 0.570(4) 0.521(4) 0.1681(12)
O1 O 0.3941(2) 0.2216(2) 0.73529(6)
O2 O 0.3528(2) 0.6859(2) 0.53067(6)
N1 N 0.5166(3) 0.2246(3) 0.61018(7)
C1 C 0.3305(3) 0.6416(3) 0.57255(9)
C2 C 0.4534(3) 0.1659(3) 0.69780(9)
N2 N 0.3893(3) 0.4830(3) 0.59433(7)
N3 N 0.2455(3) 0.7420(3) 0.60420(8)
N4 N 0.2695(3) 0.5476(3) 0.67030(8)
C3 C 0.4422(3) 0.2760(3) 0.65172(9)
C4 C 0.3621(3) 0.4373(3) 0.64269(9)
N5 N 0.5287(3) 0.0090(3) 0.69477(9)
N6 N 0.2135(3) 0.6942(3) 0.65170(8)
C5 C 0.4825(3) 0.3498(3) 0.57657(9)
H1 H 0.5182 0.3475 0.5442
C6 C 0.1768(3) 0.9161(3) 0.58711(10)
H2 H 0.1014 0.9020 0.5555
H3 H 0.1097 0.9668 0.6121
H4 H 0.2734 0.9956 0.5823
H5 H 0.547(4) -0.057(4) 0.7222(12)
H6 H 0.570(4) -0.021(4) 0.6681(12)
O1 O 0.6059(2) 0.7216(2) 0.76471(6)
O2 O 0.6472(2) 1.1859(2) 0.96933(6)
N1 N 0.4834(3) 0.7246(3) 0.88982(7)
C1 C 0.6695(3) 1.1416(3) 0.92745(9)
C2 C 0.5466(3) 0.6659(3) 0.80220(9)
N2 N 0.6107(3) 0.9830(3) 0.90567(7)
N3 N 0.7545(3) 1.2420(3) 0.89580(8)
N4 N 0.7305(3) 1.0476(3) 0.82970(8)
C3 C 0.5578(3) 0.7760(3) 0.84828(9)
C4 C 0.6379(3) 0.9373(3) 0.85731(9)
N5 N 0.4713(3) 0.5090(3) 0.80523(9)
N6 N 0.7865(3) 1.1942(3) 0.84830(8)
C5 C 0.5175(3) 0.8498(3) 0.92343(9)
H1 H 0.4818 0.8475 0.9558
C6 C 0.8232(3) 1.4161(3) 0.91289(10)
H2 H 0.8986 1.4020 0.9445
H3 H 0.8903 1.4668 0.8879
H4 H 0.7266 1.4956 0.9177
H5 H 0.453(4) 0.443(4) 0.7778(12)
H6 H 0.430(4) 0.479(4) 0.8319(12)
N7 N 0.2946(3) 0.2316(3) 0.37376(7)
O3 O 0.1862(2) 0.2330(2) 0.50106(6)
O4 O 0.1283(2) 0.6583(3) 0.29414(6)
O5 O 0.0207(2) 0.7611(2) 0.36249(7)
N8 N 0.1632(3) 0.4943(3) 0.36338(7)
C7 C 0.1487(3) 0.4424(3) 0.41194(9)
N9 N 0.3078(3) 0.0108(3) 0.46049(9)
C8 C 0.2292(3) 0.2810(3) 0.41781(9)
N10 N 0.0618(3) 0.5366(3) 0.44418(9)
C9 C 0.0966(3) 0.6527(3) 0.34099(9)
C10 C 0.2404(3) 0.1733(3) 0.46295(9)
C11 C 0.2540(3) 0.3589(3) 0.34236(9)
H7 H 0.2824 0.3603 0.3092
C12 C 0.0547(4) 0.8139(4) 0.26676(11)
H8 H -0.0714 0.8164 0.2675
H9 H 0.0796 0.8075 0.2321
H10 H 0.1065 0.9221 0.2824
H11 H 0.341(4) -0.023(4) 0.4341(11)
H12 H 0.312(4) -0.062(4) 0.4863(12)
H13 H 0.032(4) 0.646(5) 0.4354(11)
H14 H 0.097(4) 0.507(5) 0.4777(13)
N7 N 0.7054(3) 0.7316(3) 0.12624(7)
O3 O 0.8138(2) 0.7330(2) -0.00106(6)
O4 O 0.8717(2) 1.1583(3) 0.20586(6)
O5 O 0.9793(2) 1.2611(2) 0.13751(7)
N8 N 0.8368(3) 0.9943(3) 0.13662(7)
C7 C 0.8513(3) 0.9424(3) 0.08806(9)
N9 N 0.6922(3) 0.5108(3) 0.03951(9)
C8 C 0.7708(3) 0.7810(3) 0.08219(9)
N10 N 0.9382(3) 1.0366(3) 0.05582(9)
C9 C 0.9034(3) 1.1527(3) 0.15901(9)
C10 C 0.7596(3) 0.6733(3) 0.03705(9)
C11 C 0.7460(3) 0.8589(3) 0.15764(9)
H7 H 0.7176 0.8603 0.1908
C12 C 0.9453(4) 1.3139(4) 0.23324(11)
H8 H 1.0714 1.3164 0.2325
H9 H 0.9204 1.3075 0.2679
H10 H 0.8935 1.4221 0.2176
H11 H 0.659(4) 0.477(4) 0.0659(11)
H12 H 0.688(4) 0.438(4) 0.0137(12)
H13 H 0.968(4) 1.146(5) 0.0646(11)
H14 H 0.903(4) 1.007(5) 0.0223(13)
N7 N 0.7054(3) 0.7684(3) 0.62624(7)
O3 O 0.8138(2) 0.7670(2) 0.49894(6)
O4 O 0.8717(2) 0.3417(3) 0.70586(6)
O5 O 0.9793(2) 0.2389(2) 0.63751(7)
N8 N 0.8368(3) 0.5057(3) 0.63662(7)
C7 C 0.8513(3) 0.5576(3) 0.58806(9)
N9 N 0.6922(3) 0.9892(3) 0.53951(9)
C8 C 0.7708(3) 0.7190(3) 0.58219(9)
N10 N 0.9382(3) 0.4634(3) 0.55582(9)
C9 C 0.9034(3) 0.3473(3) 0.65901(9)
C10 C 0.7596(3) 0.8267(3) 0.53705(9)
C11 C 0.7460(3) 0.6411(3) 0.65764(9)
H7 H 0.7176 0.6397 0.6908
C12 C 0.9453(4) 0.1861(4) 0.73324(11)
H8 H 1.0714 0.1836 0.7325
H9 H 0.9204 0.1925 0.7679
H10 H 0.8935 0.0779 0.7176
H11 H 0.659(4) 1.023(4) 0.5659(11)
H12 H 0.688(4) 1.062(4) 0.5137(12)
H13 H 0.968(4) 0.354(5) 0.5646(11)
H14 H 0.903(4) 0.493(5) 0.5223(13)
N7 N 0.2946(3) 0.2684(3) 0.87376(7)
O3 O 0.1862(2) 0.2670(2) 1.00106(6)
O4 O 0.1283(2) -0.1583(3) 0.79414(6)
O5 O 0.0207(2) -0.2611(2) 0.86249(7)
N8 N 0.1632(3) 0.0057(3) 0.86338(7)
C7 C 0.1487(3) 0.0576(3) 0.91194(9)
N9 N 0.3078(3) 0.4892(3) 0.96049(9)
C8 C 0.2292(3) 0.2190(3) 0.91781(9)
N10 N 0.0618(3) -0.0366(3) 0.94418(9)
C9 C 0.0966(3) -0.1527(3) 0.84099(9)
C10 C 0.2404(3) 0.3267(3) 0.96295(9)
C11 C 0.2540(3) 0.1411(3) 0.84236(9)
H7 H 0.2824 0.1397 0.8092
C12 C 0.0547(4) -0.3139(4) 0.76676(11)
H8 H -0.0714 -0.3164 0.7675
H9 H 0.0796 -0.3075 0.7321
H10 H 0.1065 -0.4221 0.7824
H11 H 0.341(4) 0.523(4) 0.9341(11)
H12 H 0.312(4) 0.562(4) 0.9863(12)
H13 H 0.032(4) -0.146(5) 0.9354(11)
H14 H 0.097(4) -0.007(5) 0.9777(13)

#END
