
#######################################################################
#
#                 Cambridge Crystallographic Data Centre
#                                CCDC 
#
#######################################################################
#
# If this CIF has been generated from an entry in the Cambridge 
# Structural Database, then it will include bibliographic, chemical, 
# crystal, experimental, refinement or atomic coordinate data resulting 
# from the CCDC's data processing and validation procedures.
#
#######################################################################

data_ACETYL09
_symmetry_cell_setting           orthorhombic
_symmetry_space_group_name_H-M   'A c a m'
_symmetry_Int_Tables_number      64
_space_group_name_Hall           '-A 2 2ac'
loop_
_symmetry_equiv_pos_site_id
_symmetry_equiv_pos_as_xyz
1 x,y,z
2 -x,1/2-y,1/2+z
3 1/2+x,1/2-y,-z
4 x,1/2+y,1/2+z
5 -x,-y,z
6 1/2+x,-y,1/2-z
7 1/2-x,y,1/2-z
8 1/2-x,1/2+y,-z
9 -x,-y,-z
10 x,1/2+y,1/2-z
11 1/2-x,1/2+y,z
12 -x,1/2-y,1/2-z
13 x,y,-z
14 1/2-x,y,1/2+z
15 1/2+x,-y,1/2+z
16 1/2+x,1/2-y,z
_cell_length_a                   6.235(4)
_cell_length_b                   6.047(4)
_cell_length_c                   5.676(4)
_cell_angle_alpha                90
_cell_angle_beta                 90
_cell_angle_gamma                90
_cell_volume                     214.002
loop_
_atom_site_label
_atom_site_type_symbol
_atom_site_fract_x
_atom_site_fract_y
_atom_site_fract_z
C1 C 0.05940 0.07750 0.00000
D1 D 0.17060 0.20520 0.00000
C1D C -0.05940 -0.07750 0.00000
D1D D -0.17060 -0.20520 0.00000
C1 C 0.05940 0.07750 1.00000
D1 D 0.17060 0.20520 1.00000
C1D C -0.05940 -0.07750 1.00000
D1D D -0.17060 -0.20520 1.00000
C1 C 0.05940 1.07750 0.00000
D1 D 0.17060 1.20520 0.00000
C1D C -0.05940 0.92250 0.00000
D1D D -0.17060 0.79480 0.00000
C1 C 0.05940 1.07750 1.00000
D1 D 0.17060 1.20520 1.00000
C1D C -0.05940 0.92250 1.00000
D1D D -0.17060 0.79480 1.00000
C1 C 1.05940 0.07750 0.00000
D1 D 1.17060 0.20520 0.00000
C1D C 0.94060 -0.07750 0.00000
D1D D 0.82940 -0.20520 0.00000
C1 C 1.05940 0.07750 1.00000
D1 D 1.17060 0.20520 1.00000
C1D C 0.94060 -0.07750 1.00000
D1D D 0.82940 -0.20520 1.00000
C1 C 1.05940 1.07750 0.00000
D1 D 1.17060 1.20520 0.00000
C1D C 0.94060 0.92250 0.00000
D1D D 0.82940 0.79480 0.00000
C1 C 1.05940 1.07750 1.00000
D1 D 1.17060 1.20520 1.00000
C1D C 0.94060 0.92250 1.00000
D1D D 0.82940 0.79480 1.00000
C1 C -0.05940 0.42250 0.50000
D1 D -0.17060 0.29480 0.50000
C1D C 0.05940 0.57750 0.50000
D1D D 0.17060 0.70520 0.50000
C1 C 0.94060 0.42250 0.50000
D1 D 0.82940 0.29480 0.50000
C1D C 1.05940 0.57750 0.50000
D1D D 1.17060 0.70520 0.50000
C1 C 0.55940 0.42250 0.00000
D1 D 0.67060 0.29480 0.00000
C1D C 0.44060 0.57750 0.00000
D1D D 0.32940 0.70520 0.00000
C1 C 0.55940 0.42250 1.00000
D1 D 0.67060 0.29480 1.00000
C1D C 0.44060 0.57750 1.00000
D1D D 0.32940 0.70520 1.00000
C1 C 0.55940 -0.07750 0.50000
D1 D 0.67060 -0.20520 0.50000
C1D C 0.44060 0.07750 0.50000
D1D D 0.32940 0.20520 0.50000
C1 C 0.55940 0.92250 0.50000
D1 D 0.67060 0.79480 0.50000
C1D C 0.44060 1.07750 0.50000
D1D D 0.32940 1.20520 0.50000

#END
