./KAGYEZ_from_xyz.cif_generated_by_CrystalShift
_symmetry_cell_setting triclinic
_symmetry_space_group_name_H-M 'P 1'
loop_
_symmetry_equiv_pos_site_id
_symmetry_equiv_pos_as_xyz
1 x,y,z
_cell_length_a 10.231000
_cell_length_b 7.584000
_cell_length_c 41.816000
_cell_angle_alpha 90.000000
_cell_angle_beta 90.000000
_cell_angle_gamma 90.000000
_cell_volume 3244.583058
loop_
_atom_site_label
_atom_site_type_symbol
_atom_site_fract_x
_atom_site_fract_y
_atom_site_fract_z
O1 O 0.279390 0.149180 0.833490
N2 N 0.377270 0.020420 0.837550
C3 C 0.500120 -0.047740 0.693940
H4 H 0.577000 -0.111400 0.699300
C5 C 0.444060 -0.042110 0.751920
H6 H 0.515400 -0.120200 0.755200
C7 C 0.412180 0.003250 0.718370
C8 C 0.475340 -0.005480 0.661870
H9 H 0.535200 -0.040800 0.645700
C10 C 0.273170 0.139170 0.677600
H11 H 0.196300 0.202300 0.672000
C12 C 0.297600 0.096440 0.709660
H13 H 0.236800 0.130300 0.725700
C14 C 0.362420 0.088820 0.653580
H15 H 0.346100 0.118600 0.631900
C16 C 0.381380 0.016920 0.778540
H17 H 0.308800 0.094200 0.776300
C18 C 0.423810 -0.036530 0.810570
H19 H 0.492100 -0.121200 0.811700
H20 H 0.248000 0.163000 0.853900
O21 O 0.220610 0.850820 0.333490
N22 N 0.122730 0.979580 0.337550
C23 C -0.000120 1.047740 0.193940
H24 H -0.077000 1.111400 0.199300
C25 C 0.055940 1.042110 0.251920
H26 H -0.015400 1.120200 0.255200
C27 C 0.087820 0.996750 0.218370
C28 C 0.024660 1.005480 0.161870
H29 H -0.035200 1.040800 0.145700
C30 C 0.226830 0.860830 0.177600
H31 H 0.303700 0.797700 0.172000
C32 C 0.202400 0.903560 0.209660
H33 H 0.263200 0.869700 0.225700
C34 C 0.137580 0.911180 0.153580
H35 H 0.153900 0.881400 0.131900
C36 C 0.118620 0.983080 0.278540
H37 H 0.191200 0.905800 0.276300
C38 C 0.076190 1.036530 0.310570
H39 H 0.007900 1.121200 0.311700
H40 H 0.252000 0.837000 0.353900
O41 O 0.720610 0.649180 0.666510
N42 N 0.622730 0.520420 0.662450
C43 C 0.499880 0.452260 0.806060
H44 H 0.423000 0.388600 0.800700
C45 C 0.555940 0.457890 0.748080
H46 H 0.484600 0.379800 0.744800
C47 C 0.587820 0.503250 0.781630
C48 C 0.524660 0.494520 0.838130
H49 H 0.464800 0.459200 0.854300
C50 C 0.726830 0.639170 0.822400
H51 H 0.803700 0.702300 0.828000
C52 C 0.702400 0.596440 0.790340
H53 H 0.763200 0.630300 0.774300
C54 C 0.637580 0.588820 0.846420
H55 H 0.653900 0.618600 0.868100
C56 C 0.618620 0.516920 0.721460
H57 H 0.691200 0.594200 0.723700
C58 C 0.576190 0.463470 0.689430
H59 H 0.507900 0.378800 0.688300
H60 H 0.752000 0.663000 0.646100
O61 O 0.779390 0.350820 0.166510
N62 N 0.877270 0.479580 0.162450
C63 C 1.000120 0.547740 0.306060
H64 H 1.077000 0.611400 0.300700
C65 C 0.944060 0.542110 0.248080
H66 H 1.015400 0.620200 0.244800
C67 C 0.912180 0.496750 0.281630
C68 C 0.975340 0.505480 0.338130
H69 H 1.035200 0.540800 0.354300
C70 C 0.773170 0.360830 0.322400
H71 H 0.696300 0.297700 0.328000
C72 C 0.797600 0.403560 0.290340
H73 H 0.736800 0.369700 0.274300
C74 C 0.862420 0.411180 0.346420
H75 H 0.846100 0.381400 0.368100
C76 C 0.881380 0.483080 0.221460
H77 H 0.808800 0.405800 0.223700
C78 C 0.923810 0.536530 0.189430
H79 H 0.992100 0.621200 0.188300
H80 H 0.748000 0.337000 0.146100
O81 O 0.720610 0.850820 0.166510
N82 N 0.622730 0.979580 0.162450
C83 C 0.499880 1.047740 0.306060
H84 H 0.423000 1.111400 0.300700
C85 C 0.555940 1.042110 0.248080
H86 H 0.484600 1.120200 0.244800
C87 C 0.587820 0.996750 0.281630
C88 C 0.524660 1.005480 0.338130
H89 H 0.464800 1.040800 0.354300
C90 C 0.726830 0.860830 0.322400
H91 H 0.803700 0.797700 0.328000
C92 C 0.702400 0.903560 0.290340
H93 H 0.763200 0.869700 0.274300
C94 C 0.637580 0.911180 0.346420
H95 H 0.653900 0.881400 0.368100
C96 C 0.618620 0.983080 0.221460
H97 H 0.691200 0.905800 0.223700
C98 C 0.576190 1.036530 0.189430
H99 H 0.507900 1.121200 0.188300
H100 H 0.752000 0.837000 0.146100
O101 O 0.779390 0.149180 0.666510
N102 N 0.877270 0.020420 0.662450
C103 C 1.000120 -0.047740 0.806060
H104 H 1.077000 -0.111400 0.800700
C105 C 0.944060 -0.042110 0.748080
H106 H 1.015400 -0.120200 0.744800
C107 C 0.912180 0.003250 0.781630
C108 C 0.975340 -0.005480 0.838130
H109 H 1.035200 -0.040800 0.854300
C110 C 0.773170 0.139170 0.822400
H111 H 0.696300 0.202300 0.828000
C112 C 0.797600 0.096440 0.790340
H113 H 0.736800 0.130300 0.774300
C114 C 0.862420 0.088820 0.846420
H115 H 0.846100 0.118600 0.868100
C116 C 0.881380 0.016920 0.721460
H117 H 0.808800 0.094200 0.723700
C118 C 0.923810 -0.036530 0.689430
H119 H 0.992100 -0.121200 0.688300
H120 H 0.748000 0.163000 0.646100
O121 O 0.279390 0.350820 0.333490
N122 N 0.377270 0.479580 0.337550
C123 C 0.500120 0.547740 0.193940
H124 H 0.577000 0.611400 0.199300
C125 C 0.444060 0.542110 0.251920
H126 H 0.515400 0.620200 0.255200
C127 C 0.412180 0.496750 0.218370
C128 C 0.475340 0.505480 0.161870
H129 H 0.535200 0.540800 0.145700
C130 C 0.273170 0.360830 0.177600
H131 H 0.196300 0.297700 0.172000
C132 C 0.297600 0.403560 0.209660
H133 H 0.236800 0.369700 0.225700
C134 C 0.362420 0.411180 0.153580
H135 H 0.346100 0.381400 0.131900
C136 C 0.381380 0.483080 0.278540
H137 H 0.308800 0.405800 0.276300
C138 C 0.423810 0.536530 0.310570
H139 H 0.492100 0.621200 0.311700
H140 H 0.248000 0.337000 0.353900
O141 O 0.220610 0.649180 0.833490
N142 N 0.122730 0.520420 0.837550
C143 C -0.000120 0.452260 0.693940
H144 H -0.077000 0.388600 0.699300
C145 C 0.055940 0.457890 0.751920
H146 H -0.015400 0.379800 0.755200
C147 C 0.087820 0.503250 0.718370
C148 C 0.024660 0.494520 0.661870
H149 H -0.035200 0.459200 0.645700
C150 C 0.226830 0.639170 0.677600
H151 H 0.303700 0.702300 0.672000
C152 C 0.202400 0.596440 0.709660
H153 H 0.263200 0.630300 0.725700
C154 C 0.137580 0.588820 0.653580
H155 H 0.153900 0.618600 0.631900
C156 C 0.118620 0.516920 0.778540
H157 H 0.191200 0.594200 0.776300
C158 C 0.076190 0.463470 0.810570
H159 H 0.007900 0.378800 0.811700
H160 H 0.252000 0.663000 0.853900
O161 O 0.578970 0.366220 0.603760
N162 N 0.654180 0.210560 0.606580
C163 C 0.664260 0.125920 0.579730
H164 H 0.709600 0.016700 0.580400
C165 C 0.656490 0.100180 0.521430
H166 H 0.713500 0.002400 0.524200
C167 C 0.623830 0.149520 0.488050
C168 C 0.520380 0.266180 0.480300
H169 H 0.466500 0.312400 0.496800
C170 C 0.497300 0.313670 0.448380
H171 H 0.427800 0.392000 0.443400
C172 C 0.700790 0.080110 0.462970
H173 H 0.768900 -0.000800 0.467800
C174 C 0.613460 0.180130 0.548430
H175 H 0.550200 0.271600 0.547100
C176 C 0.576250 0.246230 0.423720
H177 H 0.560700 0.279900 0.402200
C178 C 0.677970 0.129020 0.431060
H179 H 0.731400 0.082800 0.414500
H180 H 0.588000 0.415000 0.623500
O181 O 0.921030 0.633780 0.103760
N182 N 0.845820 0.789440 0.106580
C183 C 0.835740 0.874080 0.079730
H184 H 0.790400 0.983300 0.080400
C185 C 0.843510 0.899820 0.021430
H186 H 0.786500 0.997600 0.024200
C187 C 0.876170 0.850480 -0.011950
C188 C 0.979620 0.733820 -0.019700
H189 H 1.033500 0.687600 -0.003200
C190 C 1.002700 0.686330 -0.051620
H191 H 1.072200 0.608000 -0.056600
C192 C 0.799210 0.919890 -0.037030
H193 H 0.731100 1.000800 -0.032200
C194 C 0.886540 0.819870 0.048430
H195 H 0.949800 0.728400 0.047100
C196 C 0.923750 0.753770 -0.076280
H197 H 0.939300 0.720100 -0.097800
C198 C 0.822030 0.870980 -0.068940
H199 H 0.768600 0.917200 -0.085500
H200 H 0.912000 0.585000 0.123500
O201 O 0.421030 0.866220 0.896240
N202 N 0.345820 0.710560 0.893420
C203 C 0.335740 0.625920 0.920270
H204 H 0.290400 0.516700 0.919600
C205 C 0.343510 0.600180 0.978570
H206 H 0.286500 0.502400 0.975800
C207 C 0.376170 0.649520 1.011950
C208 C 0.479620 0.766180 1.019700
H209 H 0.533500 0.812400 1.003200
C210 C 0.502700 0.813670 1.051620
H211 H 0.572200 0.892000 1.056600
C212 C 0.299210 0.580110 1.037030
H213 H 0.231100 0.499200 1.032200
C214 C 0.386540 0.680130 0.951570
H215 H 0.449800 0.771600 0.952900
C216 C 0.423750 0.746230 1.076280
H217 H 0.439300 0.779900 1.097800
C218 C 0.322030 0.629020 1.068940
H219 H 0.268600 0.582800 1.085500
H220 H 0.412000 0.915000 0.876500
O221 O 0.078970 0.133780 0.396240
N222 N 0.154180 0.289440 0.393420
C223 C 0.164260 0.374080 0.420270
H224 H 0.209600 0.483300 0.419600
C225 C 0.156490 0.399820 0.478570
H226 H 0.213500 0.497600 0.475800
C227 C 0.123830 0.350480 0.511950
C228 C 0.020380 0.233820 0.519700
H229 H -0.033500 0.187600 0.503200
C230 C -0.002700 0.186330 0.551620
H231 H -0.072200 0.108000 0.556600
C232 C 0.200790 0.419890 0.537030
H233 H 0.268900 0.500800 0.532200
C234 C 0.113460 0.319870 0.451570
H235 H 0.050200 0.228400 0.452900
C236 C 0.076250 0.253770 0.576280
H237 H 0.060700 0.220100 0.597800
C238 C 0.177970 0.370980 0.568940
H239 H 0.231400 0.417200 0.585500
H240 H 0.088000 0.085000 0.376500
O241 O 0.421030 0.633780 0.396240
N242 N 0.345820 0.789440 0.393420
C243 C 0.335740 0.874080 0.420270
H244 H 0.290400 0.983300 0.419600
C245 C 0.343510 0.899820 0.478570
H246 H 0.286500 0.997600 0.475800
C247 C 0.376170 0.850480 0.511950
C248 C 0.479620 0.733820 0.519700
H249 H 0.533500 0.687600 0.503200
C250 C 0.502700 0.686330 0.551620
H251 H 0.572200 0.608000 0.556600
C252 C 0.299210 0.919890 0.537030
H253 H 0.231100 1.000800 0.532200
C254 C 0.386540 0.819870 0.451570
H255 H 0.449800 0.728400 0.452900
C256 C 0.423750 0.753770 0.576280
H257 H 0.439300 0.720100 0.597800
C258 C 0.322030 0.870980 0.568940
H259 H 0.268600 0.917200 0.585500
H260 H 0.412000 0.585000 0.376500
O261 O 0.078970 0.366220 0.896240
N262 N 0.154180 0.210560 0.893420
C263 C 0.164260 0.125920 0.920270
H264 H 0.209600 0.016700 0.919600
C265 C 0.156490 0.100180 0.978570
H266 H 0.213500 0.002400 0.975800
C267 C 0.123830 0.149520 1.011950
C268 C 0.020380 0.266180 1.019700
H269 H -0.033500 0.312400 1.003200
C270 C -0.002700 0.313670 1.051620
H271 H -0.072200 0.392000 1.056600
C272 C 0.200790 0.080110 1.037030
H273 H 0.268900 -0.000800 1.032200
C274 C 0.113460 0.180130 0.951570
H275 H 0.050200 0.271600 0.952900
C276 C 0.076250 0.246230 1.076280
H277 H 0.060700 0.279900 1.097800
C278 C 0.177970 0.129020 1.068940
H279 H 0.231400 0.082800 1.085500
H280 H 0.088000 0.415000 0.876500
O281 O 0.578970 0.133780 0.103760
N282 N 0.654180 0.289440 0.106580
C283 C 0.664260 0.374080 0.079730
H284 H 0.709600 0.483300 0.080400
C285 C 0.656490 0.399820 0.021430
H286 H 0.713500 0.497600 0.024200
C287 C 0.623830 0.350480 -0.011950
C288 C 0.520380 0.233820 -0.019700
H289 H 0.466500 0.187600 -0.003200
C290 C 0.497300 0.186330 -0.051620
H291 H 0.427800 0.108000 -0.056600
C292 C 0.700790 0.419890 -0.037030
H293 H 0.768900 0.500800 -0.032200
C294 C 0.613460 0.319870 0.048430
H295 H 0.550200 0.228400 0.047100
C296 C 0.576250 0.253770 -0.076280
H297 H 0.560700 0.220100 -0.097800
C298 C 0.677970 0.370980 -0.068940
H299 H 0.731400 0.417200 -0.085500
H300 H 0.588000 0.085000 0.123500
O301 O 0.921030 0.866220 0.603760
N302 N 0.845820 0.710560 0.606580
C303 C 0.835740 0.625920 0.579730
H304 H 0.790400 0.516700 0.580400
C305 C 0.843510 0.600180 0.521430
H306 H 0.786500 0.502400 0.524200
C307 C 0.876170 0.649520 0.488050
C308 C 0.979620 0.766180 0.480300
H309 H 1.033500 0.812400 0.496800
C310 C 1.002700 0.813670 0.448380
H311 H 1.072200 0.892000 0.443400
C312 C 0.799210 0.580110 0.462970
H313 H 0.731100 0.499200 0.467800
C314 C 0.886540 0.680130 0.548430
H315 H 0.949800 0.771600 0.547100
C316 C 0.923750 0.746230 0.423720
H317 H 0.939300 0.779900 0.402200
C318 C 0.822030 0.629020 0.431060
H319 H 0.768600 0.582800 0.414500
H320 H 0.912000 0.915000 0.623500

#END
