
#######################################################################
#
#                 Cambridge Crystallographic Data Centre
#                                CCDC 
#
#######################################################################
#
# If this CIF has been generated from an entry in the Cambridge 
# Structural Database, then it will include bibliographic, chemical, 
# crystal, experimental, refinement or atomic coordinate data resulting 
# from the CCDC's data processing and validation procedures.
#
#######################################################################

data_KAGYUM
_symmetry_cell_setting           monoclinic
_symmetry_space_group_name_H-M   'P 21/n'
_symmetry_Int_Tables_number      14
_space_group_name_Hall           '-P 2yn'
loop_
_symmetry_equiv_pos_site_id
_symmetry_equiv_pos_as_xyz
1 x,y,z
2 1/2-x,1/2+y,1/2-z
3 -x,-y,-z
4 1/2+x,1/2-y,1/2+z
_cell_length_a                   8.521(2)
_cell_length_b                   15.687(7)
_cell_length_c                   10.370(5)
_cell_angle_alpha                90
_cell_angle_beta                 109.08(3)
_cell_angle_gamma                90
_cell_volume                     1310
loop_
_atom_site_label
_atom_site_type_symbol
_atom_site_fract_x
_atom_site_fract_y
_atom_site_fract_z
N1 N 1.2712(4) 0.5414(3) 0.4580(4)
C1 C 1.3716(5) 0.5965(3) 0.5552(5)
C2 C 1.2889(6) 0.6657(3) 0.5984(5)
C3 C 1.1271(5) 0.6785(3) 0.5381(5)
C4 C 1.0279(5) 0.6236(3) 0.4325(4)
C5 C 0.8597(5) 0.6423(3) 0.3624(4)
C6 C 0.7695(5) 0.5892(3) 0.2610(4)
C7 C 0.8399(5) 0.5156(3) 0.2300(4)
C8 C 1.0066(5) 0.4961(3) 0.2939(4)
C9 C 1.1001(4) 0.5536(3) 0.3935(4)
N2 N 0.5986(4) 0.6101(2) 0.1848(3)
C10 C 0.5287(5) 0.6144(3) 0.0469(4)
N3 N 0.3733(4) 0.6405(2) 0.0131(4)
C11 C 0.3441(5) 0.6532(3) 0.1337(5)
C12 C 0.4803(5) 0.6359(3) 0.2409(5)
O1 O 1.5247(3) 0.5849(2) 0.5987(3)
C13 C 1.0815(6) 0.4179(3) 0.2566(5)
C14 C 0.6196(6) 0.5984(3) -0.0516(5)
C15 C 0.1764(5) 0.6849(4) 0.1352(5)
H1 H 1.3099(48) 0.4924(26) 0.4197(39)
H2 H 1.3510 0.7026 0.6709
H3 H 1.0752 0.7260 0.5663
H4 H 0.8090 0.6920 0.3858
H5 H 0.7718 0.4772 0.1628
H6 H 0.4925 0.6405 0.3360
H7 H 0.9997 0.3734 0.2316
H8 H 1.1737 0.3998 0.3333
H9 H 1.1193 0.4302 0.1810
H10 H 0.6269 0.5381 -0.0645
H11 H 0.7294 0.6220 -0.0163
H12 H 0.5611 0.6248 -0.1374
H13 H 0.1513 0.7383 0.0877
H14 H 0.1794 0.6925 0.2278
H15 H 0.0924 0.6439 0.0909
N1 N 0.2288(4) 0.0414(3) 0.0420(4)
C1 C 0.1284(5) 0.0965(3) -0.0552(5)
C2 C 0.2111(6) 0.1657(3) -0.0984(5)
C3 C 0.3729(5) 0.1785(3) -0.0381(5)
C4 C 0.4721(5) 0.1236(3) 0.0675(4)
C5 C 0.6403(5) 0.1423(3) 0.1376(4)
C6 C 0.7305(5) 0.0892(3) 0.2390(4)
C7 C 0.6601(5) 0.0156(3) 0.2700(4)
C8 C 0.4934(5) -0.0039(3) 0.2061(4)
C9 C 0.3999(4) 0.0536(3) 0.1065(4)
N2 N 0.9014(4) 0.1101(2) 0.3152(3)
C10 C 0.9713(5) 0.1144(3) 0.4531(4)
N3 N 1.1267(4) 0.1405(2) 0.4869(4)
C11 C 1.1559(5) 0.1532(3) 0.3663(5)
C12 C 1.0197(5) 0.1359(3) 0.2591(5)
O1 O -0.0247(3) 0.0849(2) -0.0987(3)
C13 C 0.4185(6) -0.0821(3) 0.2434(5)
C14 C 0.8804(6) 0.0984(3) 0.5516(5)
C15 C 1.3236(5) 0.1849(4) 0.3648(5)
H1 H 0.1901(48) -0.0076(26) 0.0803(39)
H2 H 0.1490 0.2026 -0.1709
H3 H 0.4248 0.2260 -0.0663
H4 H 0.6910 0.1920 0.1142
H5 H 0.7282 -0.0228 0.3372
H6 H 1.0075 0.1405 0.1640
H7 H 0.5003 -0.1266 0.2684
H8 H 0.3263 -0.1002 0.1667
H9 H 0.3807 -0.0698 0.3190
H10 H 0.8731 0.0381 0.5645
H11 H 0.7706 0.1220 0.5163
H12 H 0.9389 0.1248 0.6374
H13 H 1.3487 0.2383 0.4123
H14 H 1.3206 0.1925 0.2722
H15 H 1.4076 0.1439 0.4091
N1 N -0.2712(4) 0.4586(3) 0.5420(4)
C1 C -0.3716(5) 0.4035(3) 0.4448(5)
C2 C -0.2889(6) 0.3343(3) 0.4016(5)
C3 C -0.1271(5) 0.3215(3) 0.4619(5)
C4 C -0.0279(5) 0.3764(3) 0.5675(4)
C5 C 0.1403(5) 0.3577(3) 0.6376(4)
C6 C 0.2305(5) 0.4108(3) 0.7390(4)
C7 C 0.1601(5) 0.4844(3) 0.7700(4)
C8 C -0.0066(5) 0.5039(3) 0.7061(4)
C9 C -0.1001(4) 0.4464(3) 0.6065(4)
N2 N 0.4014(4) 0.3899(2) 0.8152(3)
C10 C 0.4713(5) 0.3856(3) 0.9531(4)
N3 N 0.6267(4) 0.3595(2) 0.9869(4)
C11 C 0.6559(5) 0.3468(3) 0.8663(5)
C12 C 0.5197(5) 0.3641(3) 0.7591(5)
O1 O -0.5247(3) 0.4151(2) 0.4013(3)
C13 C -0.0815(6) 0.5821(3) 0.7434(5)
C14 C 0.3804(6) 0.4016(3) 1.0516(5)
C15 C 0.8236(5) 0.3151(4) 0.8648(5)
H1 H -0.3099(48) 0.5076(26) 0.5803(39)
H2 H -0.3510 0.2974 0.3291
H3 H -0.0752 0.2740 0.4337
H4 H 0.1910 0.3080 0.6142
H5 H 0.2282 0.5228 0.8372
H6 H 0.5075 0.3595 0.6640
H7 H 0.0003 0.6266 0.7684
H8 H -0.1737 0.6002 0.6667
H9 H -0.1193 0.5698 0.8190
H10 H 0.3731 0.4619 1.0645
H11 H 0.2706 0.3780 1.0163
H12 H 0.4389 0.3752 1.1374
H13 H 0.8487 0.2617 0.9123
H14 H 0.8206 0.3075 0.7722
H15 H 0.9076 0.3561 0.9091
N1 N 0.7712(4) 0.9586(3) 0.9580(4)
C1 C 0.8716(5) 0.9035(3) 1.0552(5)
C2 C 0.7889(6) 0.8343(3) 1.0984(5)
C3 C 0.6271(5) 0.8215(3) 1.0381(5)
C4 C 0.5279(5) 0.8764(3) 0.9325(4)
C5 C 0.3597(5) 0.8577(3) 0.8624(4)
C6 C 0.2695(5) 0.9108(3) 0.7610(4)
C7 C 0.3399(5) 0.9844(3) 0.7300(4)
C8 C 0.5066(5) 1.0039(3) 0.7939(4)
C9 C 0.6001(4) 0.9464(3) 0.8935(4)
N2 N 0.0986(4) 0.8899(2) 0.6848(3)
C10 C 0.0287(5) 0.8856(3) 0.5469(4)
N3 N -0.1267(4) 0.8595(2) 0.5131(4)
C11 C -0.1559(5) 0.8468(3) 0.6337(5)
C12 C -0.0197(5) 0.8641(3) 0.7409(5)
O1 O 1.0247(3) 0.9151(2) 1.0987(3)
C13 C 0.5815(6) 1.0821(3) 0.7566(5)
C14 C 0.1196(6) 0.9016(3) 0.4484(5)
C15 C -0.3236(5) 0.8151(4) 0.6352(5)
H1 H 0.8099(48) 1.0076(26) 0.9197(39)
H2 H 0.8510 0.7974 1.1709
H3 H 0.5752 0.7740 1.0663
H4 H 0.3090 0.8080 0.8858
H5 H 0.2718 1.0228 0.6628
H6 H -0.0075 0.8595 0.8360
H7 H 0.4997 1.1266 0.7316
H8 H 0.6737 1.1002 0.8333
H9 H 0.6193 1.0698 0.6810
H10 H 0.1269 0.9619 0.4355
H11 H 0.2294 0.8780 0.4837
H12 H 0.0611 0.8752 0.3626
H13 H -0.3487 0.7617 0.5877
H14 H -0.3206 0.8075 0.7278
H15 H -0.4076 0.8561 0.5909

#END
