
#######################################################################
#
#                 Cambridge Crystallographic Data Centre
#                                CCDC 
#
#######################################################################
#
# If this CIF has been generated from an entry in the Cambridge 
# Structural Database, then it will include bibliographic, chemical, 
# crystal, experimental, refinement or atomic coordinate data resulting 
# from the CCDC's data processing and validation procedures.
#
#######################################################################

data_KAGZIE
_symmetry_cell_setting           monoclinic
_symmetry_space_group_name_H-M   'C c'
_symmetry_Int_Tables_number      9
_space_group_name_Hall           'C -2yc'
loop_
_symmetry_equiv_pos_site_id
_symmetry_equiv_pos_as_xyz
1 x,y,z
2 x,-y,1/2+z
3 1/2+x,1/2+y,z
4 1/2+x,1/2-y,1/2+z
_cell_length_a                   12.0839(9)
_cell_length_b                   6.4197(5)
_cell_length_c                   19.7427(18)
_cell_angle_alpha                90
_cell_angle_beta                 104.8264(12)
_cell_angle_gamma                90
_cell_volume                     1480.55
loop_
_atom_site_label
_atom_site_type_symbol
_atom_site_fract_x
_atom_site_fract_y
_atom_site_fract_z
O1 O 0.20348(12) 0.4331(2) 0.35129(8)
O2 O 0.54286(12) -0.1313(2) 0.56436(8)
N1 N 0.64240(13) 0.1726(2) 0.58103(8)
N2 N 0.68881(12) 0.3318(2) 0.62747(8)
C1 C 0.49214(15) 0.4726(3) 0.46209(9)
H1 H 0.5393 0.5782 0.4884
C2 C 0.38193(16) 0.5207(3) 0.42425(9)
H2 H 0.3543 0.6591 0.4246
C3 C 0.31110(15) 0.3672(3) 0.38556(9)
C4 C 0.35270(16) 0.1650(3) 0.38360(9)
H3 H 0.3059 0.0603 0.3566
C5 C 0.46443(15) 0.1188(3) 0.42203(9)
H4 H 0.4930 -0.0187 0.4208
C6 C 0.53452(15) 0.2698(3) 0.46190(9)
C7 C 0.65113(15) 0.2100(3) 0.50826(9)
H5 H 0.6815 0.0838 0.4894
C8 C 0.74108(15) 0.3870(3) 0.52205(10)
H6 H 0.8174 0.3345 0.5204
H7 H 0.7182 0.5012 0.4876
C9 C 0.74102(14) 0.4580(3) 0.59498(9)
C10 C 0.79896(14) 0.6448(2) 0.62925(9)
C11 C 0.79596(15) 0.6957(3) 0.69768(9)
H8 H 0.7553 0.6091 0.7220
C12 C 0.85202(15) 0.8719(3) 0.73026(10)
H9 H 0.8487 0.9049 0.7766
C13 C 0.91324(14) 1.0015(3) 0.69604(10)
C14 C 0.91505(14) 0.9520(3) 0.62759(9)
H10 H 0.9554 1.0394 0.6033
C15 C 0.85852(14) 0.7760(3) 0.59414(9)
H11 H 0.8604 0.7451 0.5474
C16 C 0.12863(18) 0.2852(4) 0.30873(12)
H12 H 0.0551 0.3519 0.2871
H13 H 0.1163 0.1682 0.3378
H14 H 0.1631 0.2340 0.2720
C17 C 0.58798(15) 0.0120(3) 0.60245(10)
H15 H 0.5844 0.0099 0.6500
C18 C 0.97566(17) 1.1908(3) 0.73207(11)
H16 H 1.0484 1.2064 0.7192
H17 H 0.9906 1.1740 0.7829
H18 H 0.9285 1.3151 0.7174
O1 O 0.20348(12) 0.5669(2) -0.14871(8)
O2 O 0.54286(12) 1.1313(2) 0.06436(8)
N1 N 0.64240(13) 0.8274(2) 0.08103(8)
N2 N 0.68881(12) 0.6682(2) 0.12747(8)
C1 C 0.49214(15) 0.5274(3) -0.03791(9)
H1 H 0.5393 0.4218 -0.0116
C2 C 0.38193(16) 0.4793(3) -0.07575(9)
H2 H 0.3543 0.3409 -0.0754
C3 C 0.31110(15) 0.6328(3) -0.11444(9)
C4 C 0.35270(16) 0.8350(3) -0.11640(9)
H3 H 0.3059 0.9397 -0.1434
C5 C 0.46443(15) 0.8812(3) -0.07797(9)
H4 H 0.4930 1.0187 -0.0792
C6 C 0.53452(15) 0.7302(3) -0.03810(9)
C7 C 0.65113(15) 0.7900(3) 0.00826(9)
H5 H 0.6815 0.9162 -0.0106
C8 C 0.74108(15) 0.6130(3) 0.02205(10)
H6 H 0.8174 0.6655 0.0204
H7 H 0.7182 0.4988 -0.0124
C9 C 0.74102(14) 0.5420(3) 0.09498(9)
C10 C 0.79896(14) 0.3552(2) 0.12925(9)
C11 C 0.79596(15) 0.3043(3) 0.19768(9)
H8 H 0.7553 0.3909 0.2220
C12 C 0.85202(15) 0.1281(3) 0.23026(10)
H9 H 0.8487 0.0951 0.2766
C13 C 0.91324(14) -0.0015(3) 0.19604(10)
C14 C 0.91505(14) 0.0480(3) 0.12759(9)
H10 H 0.9554 -0.0394 0.1033
C15 C 0.85852(14) 0.2240(3) 0.09414(9)
H11 H 0.8604 0.2549 0.0474
C16 C 0.12863(18) 0.7148(4) -0.19127(12)
H12 H 0.0551 0.6481 -0.2129
H13 H 0.1163 0.8318 -0.1622
H14 H 0.1631 0.7660 -0.2280
C17 C 0.58798(15) 0.9880(3) 0.10245(10)
H15 H 0.5844 0.9901 0.1500
C18 C 0.97566(17) -0.1908(3) 0.23207(11)
H16 H 1.0484 -0.2064 0.2192
H17 H 0.9906 -0.1740 0.2829
H18 H 0.9285 -0.3151 0.2174
O1 O -0.29652(12) -0.0669(2) 0.35129(8)
O2 O 0.04286(12) -0.6313(2) 0.56436(8)
N1 N 0.14240(13) -0.3274(2) 0.58103(8)
N2 N 0.18881(12) -0.1682(2) 0.62747(8)
C1 C -0.00786(15) -0.0274(3) 0.46209(9)
H1 H 0.0393 0.0782 0.4884
C2 C -0.11807(16) 0.0207(3) 0.42425(9)
H2 H -0.1457 0.1591 0.4246
C3 C -0.18890(15) -0.1328(3) 0.38556(9)
C4 C -0.14730(16) -0.3350(3) 0.38360(9)
H3 H -0.1941 -0.4397 0.3566
C5 C -0.03557(15) -0.3812(3) 0.42203(9)
H4 H -0.0070 -0.5187 0.4208
C6 C 0.03452(15) -0.2302(3) 0.46190(9)
C7 C 0.15113(15) -0.2900(3) 0.50826(9)
H5 H 0.1815 -0.4162 0.4894
C8 C 0.24108(15) -0.1130(3) 0.52205(10)
H6 H 0.3174 -0.1655 0.5204
H7 H 0.2182 0.0012 0.4876
C9 C 0.24102(14) -0.0420(3) 0.59498(9)
C10 C 0.29896(14) 0.1448(2) 0.62925(9)
C11 C 0.29596(15) 0.1957(3) 0.69768(9)
H8 H 0.2553 0.1091 0.7220
C12 C 0.35202(15) 0.3719(3) 0.73026(10)
H9 H 0.3487 0.4049 0.7766
C13 C 0.41324(14) 0.5015(3) 0.69604(10)
C14 C 0.41505(14) 0.4520(3) 0.62759(9)
H10 H 0.4554 0.5394 0.6033
C15 C 0.35852(14) 0.2760(3) 0.59414(9)
H11 H 0.3604 0.2451 0.5474
C16 C -0.37137(18) -0.2148(4) 0.30873(12)
H12 H -0.4449 -0.1481 0.2871
H13 H -0.3837 -0.3318 0.3378
H14 H -0.3369 -0.2660 0.2720
C17 C 0.08798(15) -0.4880(3) 0.60245(10)
H15 H 0.0844 -0.4901 0.6500
C18 C 0.47566(17) 0.6908(3) 0.73207(11)
H16 H 0.5484 0.7064 0.7192
H17 H 0.4906 0.6740 0.7829
H18 H 0.4285 0.8151 0.7174
O1 O -0.29652(12) 1.0669(2) -0.14871(8)
O2 O 0.04286(12) 1.6313(2) 0.06436(8)
N1 N 0.14240(13) 1.3274(2) 0.08103(8)
N2 N 0.18881(12) 1.1682(2) 0.12747(8)
C1 C -0.00786(15) 1.0274(3) -0.03791(9)
H1 H 0.0393 0.9218 -0.0116
C2 C -0.11807(16) 0.9793(3) -0.07575(9)
H2 H -0.1457 0.8409 -0.0754
C3 C -0.18890(15) 1.1328(3) -0.11444(9)
C4 C -0.14730(16) 1.3350(3) -0.11640(9)
H3 H -0.1941 1.4397 -0.1434
C5 C -0.03557(15) 1.3812(3) -0.07797(9)
H4 H -0.0070 1.5187 -0.0792
C6 C 0.03452(15) 1.2302(3) -0.03810(9)
C7 C 0.15113(15) 1.2900(3) 0.00826(9)
H5 H 0.1815 1.4162 -0.0106
C8 C 0.24108(15) 1.1130(3) 0.02205(10)
H6 H 0.3174 1.1655 0.0204
H7 H 0.2182 0.9988 -0.0124
C9 C 0.24102(14) 1.0420(3) 0.09498(9)
C10 C 0.29896(14) 0.8552(2) 0.12925(9)
C11 C 0.29596(15) 0.8043(3) 0.19768(9)
H8 H 0.2553 0.8909 0.2220
C12 C 0.35202(15) 0.6281(3) 0.23026(10)
H9 H 0.3487 0.5951 0.2766
C13 C 0.41324(14) 0.4985(3) 0.19604(10)
C14 C 0.41505(14) 0.5480(3) 0.12759(9)
H10 H 0.4554 0.4606 0.1033
C15 C 0.35852(14) 0.7240(3) 0.09414(9)
H11 H 0.3604 0.7549 0.0474
C16 C -0.37137(18) 1.2148(4) -0.19127(12)
H12 H -0.4449 1.1481 -0.2129
H13 H -0.3837 1.3318 -0.1622
H14 H -0.3369 1.2660 -0.2280
C17 C 0.08798(15) 1.4880(3) 0.10245(10)
H15 H 0.0844 1.4901 0.1500
C18 C 0.47566(17) 0.3092(3) 0.23207(11)
H16 H 0.5484 0.2936 0.2192
H17 H 0.4906 0.3260 0.2829
H18 H 0.4285 0.1849 0.2174

#END
