
#######################################################################
#
#                 Cambridge Crystallographic Data Centre
#                                CCDC 
#
#######################################################################
#
# If this CIF has been generated from an entry in the Cambridge 
# Structural Database, then it will include bibliographic, chemical, 
# crystal, experimental, refinement or atomic coordinate data resulting 
# from the CCDC's data processing and validation procedures.
#
#######################################################################

data_KAHBIG
_symmetry_cell_setting           monoclinic
_symmetry_space_group_name_H-M   'P 21/c'
_symmetry_Int_Tables_number      14
_space_group_name_Hall           '-P 2ybc'
loop_
_symmetry_equiv_pos_site_id
_symmetry_equiv_pos_as_xyz
1 x,y,z
2 -x,1/2+y,1/2-z
3 -x,-y,-z
4 x,1/2-y,1/2+z
_cell_length_a                   10.7285(4)
_cell_length_b                   5.8431(2)
_cell_length_c                   20.8152(7)
_cell_angle_alpha                90
_cell_angle_beta                 96.946(2)
_cell_angle_gamma                90
_cell_volume                     1295.28
loop_
_atom_site_label
_atom_site_type_symbol
_atom_site_fract_x
_atom_site_fract_y
_atom_site_fract_z
C1 C 0.9405(2) 0.5034(4) 0.31606(10)
H1 H 0.8758 0.6132 0.3029
H2 H 0.9608 0.4206 0.2789
H3 H 1.0140 0.5815 0.3360
C2 C 0.99731(18) 0.1625(3) 0.38512(10)
H4 H 1.0176 0.0804 0.3478
H5 H 0.9686 0.0569 0.4155
H6 H 1.0707 0.2407 0.4051
C3 C 0.89421(16) 0.3363(3) 0.36453(8)
C4 C 0.86104(18) 0.4667(3) 0.42331(8)
H7 H 0.9363 0.5400 0.4443
H8 H 0.8014 0.5862 0.4089
C5 C 0.80625(16) 0.3207(3) 0.47170(8)
C6 C 0.73248(14) 0.1214(3) 0.44852(7)
C7 C 0.71543(16) 0.0624(3) 0.37919(8)
C8 C 0.77517(17) 0.2166(3) 0.33408(8)
H9 H 0.7146 0.3321 0.3177
H10 H 0.7953 0.1270 0.2975
C9 C 0.64631(14) -0.1443(3) 0.59093(7)
C10 C 0.58190(16) -0.3375(3) 0.56877(8)
H11 H 0.5656 -0.3654 0.5246
C11 C 0.54171(19) -0.4890(4) 0.61235(10)
H12 H 0.4971 -0.6191 0.5976
C12 C 0.56716(19) -0.4491(4) 0.67759(10)
H13 H 0.5410 -0.5535 0.7069
C13 C 0.63103(19) -0.2558(4) 0.69971(9)
H14 H 0.6477 -0.2287 0.7439
C14 C 0.67045(17) -0.1021(4) 0.65641(8)
H15 H 0.7132 0.0298 0.6712
N1 N 0.68139(12) -0.0237(2) 0.48650(6)
N2 N 0.69237(14) 0.0130(3) 0.54846(7)
O1 O 0.65612(13) -0.1046(2) 0.35855(6)
O2 O 0.82402(13) 0.3679(2) 0.52987(6)
H16 H 0.7356(19) 0.145(4) 0.5637(9)
C1 C 0.0595(2) 1.0034(4) 0.18394(10)
H1 H 0.1242 1.1132 0.1971
H2 H 0.0392 0.9206 0.2211
H3 H -0.0140 1.0815 0.1640
C2 C 0.00269(18) 0.6625(3) 0.11488(10)
H4 H -0.0176 0.5804 0.1522
H5 H 0.0314 0.5569 0.0845
H6 H -0.0707 0.7407 0.0949
C3 C 0.10579(16) 0.8363(3) 0.13547(8)
C4 C 0.13896(18) 0.9667(3) 0.07669(8)
H7 H 0.0637 1.0400 0.0557
H8 H 0.1986 1.0862 0.0911
C5 C 0.19375(16) 0.8207(3) 0.02830(8)
C6 C 0.26752(14) 0.6214(3) 0.05148(7)
C7 C 0.28457(16) 0.5624(3) 0.12081(8)
C8 C 0.22483(17) 0.7166(3) 0.16592(8)
H9 H 0.2854 0.8321 0.1823
H10 H 0.2047 0.6270 0.2025
C9 C 0.35369(14) 0.3557(3) -0.09093(7)
C10 C 0.41810(16) 0.1625(3) -0.06877(8)
H11 H 0.4344 0.1346 -0.0246
C11 C 0.45829(19) 0.0110(4) -0.11235(10)
H12 H 0.5029 -0.1191 -0.0976
C12 C 0.43284(19) 0.0509(4) -0.17759(10)
H13 H 0.4590 -0.0535 -0.2069
C13 C 0.36897(19) 0.2442(4) -0.19971(9)
H14 H 0.3523 0.2713 -0.2439
C14 C 0.32955(17) 0.3979(4) -0.15641(8)
H15 H 0.2868 0.5298 -0.1712
N1 N 0.31861(12) 0.4763(2) 0.01350(6)
N2 N 0.30763(14) 0.5130(3) -0.04846(7)
O1 O 0.34388(13) 0.3954(2) 0.14145(6)
O2 O 0.17598(13) 0.8679(2) -0.02987(6)
H16 H 0.2644(19) 0.645(4) -0.0637(9)
C1 C 0.0595(2) 0.4966(4) 0.68394(10)
H1 H 0.1242 0.3868 0.6971
H2 H 0.0392 0.5794 0.7211
H3 H -0.0140 0.4185 0.6640
C2 C 0.00269(18) 0.8375(3) 0.61488(10)
H4 H -0.0176 0.9196 0.6522
H5 H 0.0314 0.9431 0.5845
H6 H -0.0707 0.7593 0.5949
C3 C 0.10579(16) 0.6637(3) 0.63547(8)
C4 C 0.13896(18) 0.5333(3) 0.57669(8)
H7 H 0.0637 0.4600 0.5557
H8 H 0.1986 0.4138 0.5911
C5 C 0.19375(16) 0.6793(3) 0.52830(8)
C6 C 0.26752(14) 0.8786(3) 0.55148(7)
C7 C 0.28457(16) 0.9376(3) 0.62081(8)
C8 C 0.22483(17) 0.7834(3) 0.66592(8)
H9 H 0.2854 0.6679 0.6823
H10 H 0.2047 0.8730 0.7025
C9 C 0.35369(14) 1.1443(3) 0.40907(7)
C10 C 0.41810(16) 1.3375(3) 0.43123(8)
H11 H 0.4344 1.3654 0.4754
C11 C 0.45829(19) 1.4890(4) 0.38765(10)
H12 H 0.5029 1.6191 0.4024
C12 C 0.43284(19) 1.4491(4) 0.32241(10)
H13 H 0.4590 1.5535 0.2931
C13 C 0.36897(19) 1.2558(4) 0.30029(9)
H14 H 0.3523 1.2287 0.2561
C14 C 0.32955(17) 1.1021(4) 0.34359(8)
H15 H 0.2868 0.9702 0.3288
N1 N 0.31861(12) 1.0237(2) 0.51350(6)
N2 N 0.30763(14) 0.9870(3) 0.45154(7)
O1 O 0.34388(13) 1.1046(2) 0.64145(6)
O2 O 0.17598(13) 0.6321(2) 0.47013(6)
H16 H 0.2644(19) 0.855(4) 0.4363(9)
C1 C 0.9405(2) -0.0034(4) 0.81606(10)
H1 H 0.8758 -0.1132 0.8029
H2 H 0.9608 0.0794 0.7789
H3 H 1.0140 -0.0815 0.8360
C2 C 0.99731(18) 0.3375(3) 0.88512(10)
H4 H 1.0176 0.4196 0.8478
H5 H 0.9686 0.4431 0.9155
H6 H 1.0707 0.2593 0.9051
C3 C 0.89421(16) 0.1637(3) 0.86453(8)
C4 C 0.86104(18) 0.0333(3) 0.92331(8)
H7 H 0.9363 -0.0400 0.9443
H8 H 0.8014 -0.0862 0.9089
C5 C 0.80625(16) 0.1793(3) 0.97170(8)
C6 C 0.73248(14) 0.3786(3) 0.94852(7)
C7 C 0.71543(16) 0.4376(3) 0.87919(8)
C8 C 0.77517(17) 0.2834(3) 0.83408(8)
H9 H 0.7146 0.1679 0.8177
H10 H 0.7953 0.3730 0.7975
C9 C 0.64631(14) 0.6443(3) 1.09093(7)
C10 C 0.58190(16) 0.8375(3) 1.06877(8)
H11 H 0.5656 0.8654 1.0246
C11 C 0.54171(19) 0.9890(4) 1.11235(10)
H12 H 0.4971 1.1191 1.0976
C12 C 0.56716(19) 0.9491(4) 1.17759(10)
H13 H 0.5410 1.0535 1.2069
C13 C 0.63103(19) 0.7558(4) 1.19971(9)
H14 H 0.6477 0.7287 1.2439
C14 C 0.67045(17) 0.6021(4) 1.15641(8)
H15 H 0.7132 0.4702 1.1712
N1 N 0.68139(12) 0.5237(2) 0.98650(6)
N2 N 0.69237(14) 0.4870(3) 1.04846(7)
O1 O 0.65612(13) 0.6046(2) 0.85855(6)
O2 O 0.82402(13) 0.1321(2) 1.02987(6)
H16 H 0.7356(19) 0.355(4) 1.0637(9)

#END
