./KAHBOM_from_xyz.cif_generated_by_CrystalShift
_symmetry_cell_setting triclinic
_symmetry_space_group_name_H-M 'P 1'
loop_
_symmetry_equiv_pos_site_id
_symmetry_equiv_pos_as_xyz
1 x,y,z
_cell_length_a 8.607100
_cell_length_b 11.167000
_cell_length_c 9.382600
_cell_angle_alpha 90.000000
_cell_angle_beta 115.100000
_cell_angle_gamma 90.000000
_cell_volume 816.653875
loop_
_atom_site_label
_atom_site_type_symbol
_atom_site_fract_x
_atom_site_fract_y
_atom_site_fract_z
O1 O 0.276770 -0.330280 -0.157000
O2 O 0.340630 -0.109690 -0.029110
O3 O 0.141280 0.017430 -0.188960
O4 O 0.537900 0.054810 0.761010
O5 O 0.508040 0.452100 0.637810
N6 N 0.442640 0.152570 0.522420
H7 H 0.405700 0.090700 0.458800
N8 N 0.534220 0.262440 0.739160
H9 H 0.570100 0.281200 0.839200
C10 C 0.143400 -0.093020 -0.449850
H11 H 0.127600 -0.008700 -0.454100
C12 C 0.110500 -0.156090 -0.587390
H13 H 0.073500 -0.115300 -0.685100
C14 C 0.132100 -0.278890 -0.580320
H15 H 0.108000 -0.322300 -0.674400
C16 C 0.188300 -0.340050 -0.438500
H17 H 0.202800 -0.424500 -0.436100
C18 C 0.223590 -0.277520 -0.299450
C19 C 0.199570 -0.152270 -0.305480
C20 C 0.305000 -0.457420 -0.146800
H21 H 0.342300 -0.483400 -0.037500
H22 H 0.393900 -0.477100 -0.182400
H23 H 0.198200 -0.498500 -0.213700
C24 C 0.238130 -0.083610 -0.159270
C25 C 0.170100 0.091110 -0.057760
C26 C 0.081200 0.069430 0.031100
H27 H 0.002100 0.004900 0.006200
C28 C 0.109300 0.144070 0.158500
H29 H 0.049500 0.129300 0.221700
C30 C 0.222380 0.239280 0.195080
C31 C 0.307500 0.260370 0.100010
H32 H 0.384100 0.326200 0.122100
C33 C 0.281600 0.186250 -0.026270
H34 H 0.340100 0.200900 -0.090600
C35 C 0.264700 0.313170 0.342010
H36 H 0.175400 0.301400 0.380900
H37 H 0.267500 0.399200 0.317600
C38 C 0.439660 0.274800 0.468660
H39 H 0.528000 0.283800 0.426500
C40 C 0.508500 0.144190 0.681280
C41 C 0.496840 0.344110 0.621720
O42 O 0.723230 0.169720 1.157000
O43 O 0.659370 0.390310 1.029110
O44 O 0.858720 0.517430 1.188960
O45 O 0.462100 0.554810 0.238990
O46 O 0.491960 0.952100 0.362190
N47 N 0.557360 0.652570 0.477580
H48 H 0.594300 0.590700 0.541200
N49 N 0.465780 0.762440 0.260840
H50 H 0.429900 0.781200 0.160800
C51 C 0.856600 0.406980 1.449850
H52 H 0.872400 0.491300 1.454100
C53 C 0.889500 0.343910 1.587390
H54 H 0.926500 0.384700 1.685100
C55 C 0.867900 0.221110 1.580320
H56 H 0.892000 0.177700 1.674400
C57 C 0.811700 0.159950 1.438500
H58 H 0.797200 0.075500 1.436100
C59 C 0.776410 0.222480 1.299450
C60 C 0.800430 0.347730 1.305480
C61 C 0.695000 0.042580 1.146800
H62 H 0.657700 0.016600 1.037500
H63 H 0.606100 0.022900 1.182400
H64 H 0.801800 0.001500 1.213700
C65 C 0.761870 0.416390 1.159270
C66 C 0.829900 0.591110 1.057760
C67 C 0.918800 0.569430 0.968900
H68 H 0.997900 0.504900 0.993800
C69 C 0.890700 0.644070 0.841500
H70 H 0.950500 0.629300 0.778300
C71 C 0.777620 0.739280 0.804920
C72 C 0.692500 0.760370 0.899990
H73 H 0.615900 0.826200 0.877900
C74 C 0.718400 0.686250 1.026270
H75 H 0.659900 0.700900 1.090600
C76 C 0.735300 0.813170 0.657990
H77 H 0.824600 0.801400 0.619100
H78 H 0.732500 0.899200 0.682400
C79 C 0.560340 0.774800 0.531340
H80 H 0.472000 0.783800 0.573500
C81 C 0.491500 0.644190 0.318720
C82 C 0.503160 0.844110 0.378280

#END
