
#######################################################################
#
#                 Cambridge Crystallographic Data Centre
#                                CCDC 
#
#######################################################################
#
# If this CIF has been generated from an entry in the Cambridge 
# Structural Database, then it will include bibliographic, chemical, 
# crystal, experimental, refinement or atomic coordinate data resulting 
# from the CCDC's data processing and validation procedures.
#
#######################################################################

data_KAHBOM
_symmetry_cell_setting           monoclinic
_symmetry_space_group_name_H-M   'P 21'
_symmetry_Int_Tables_number      4
_space_group_name_Hall           'P 2yb'
loop_
_symmetry_equiv_pos_site_id
_symmetry_equiv_pos_as_xyz
1 x,y,z
2 -x,1/2+y,-z
_cell_length_a                   8.6071(17)
_cell_length_b                   11.167(2)
_cell_length_c                   9.3826(19)
_cell_angle_alpha                90
_cell_angle_beta                 115.10(3)
_cell_angle_gamma                90
_cell_volume                     816.654
loop_
_atom_site_label
_atom_site_type_symbol
_atom_site_fract_x
_atom_site_fract_y
_atom_site_fract_z
O1 O 0.27677(14) -0.33028(10) -0.15700(13)
O2 O 0.34063(16) -0.10969(11) -0.02911(13)
O3 O 0.14128(15) 0.01743(11) -0.18896(12)
O4 O 0.5379(2) 0.05481(12) 0.76101(15)
O5 O 0.50804(17) 0.45210(10) 0.63781(14)
N1 N 0.44264(19) 0.15257(12) 0.52242(15)
H1 H 0.4057 0.0907 0.4588
N2 N 0.53422(19) 0.26244(12) 0.73916(15)
H2 H 0.5701 0.2812 0.8392
C1 C 0.1434(2) -0.09302(16) -0.44985(17)
H3 H 0.1276 -0.0087 -0.4541
C2 C 0.1105(2) -0.15609(17) -0.58739(18)
H4 H 0.0735 -0.1153 -0.6851
C3 C 0.1321(2) -0.27889(17) -0.58032(19)
H5 H 0.1080 -0.3223 -0.6744
C4 C 0.1883(2) -0.34005(17) -0.4385(2)
H6 H 0.2028 -0.4245 -0.4361
C5 C 0.22359(18) -0.27752(14) -0.29945(18)
C6 C 0.19957(18) -0.15227(14) -0.30548(17)
C7 C 0.3050(2) -0.45742(15) -0.1468(2)
H7 H 0.3423 -0.4834 -0.0375
H8 H 0.3939 -0.4771 -0.1824
H9 H 0.1982 -0.4985 -0.2137
C8 C 0.23813(19) -0.08361(14) -0.15927(17)
C9 C 0.1701(2) 0.09111(14) -0.05776(17)
C10 C 0.0812(2) 0.06943(18) 0.0311(2)
H10 H 0.0021 0.0049 0.0062
C11 C 0.1093(2) 0.14407(18) 0.1585(2)
H11 H 0.0495 0.1293 0.2217
C12 C 0.22238(18) 0.23928(15) 0.19508(17)
C13 C 0.3075(2) 0.26037(15) 0.10001(18)
H12 H 0.3841 0.3262 0.1221
C14 C 0.2816(2) 0.18625(16) -0.02627(19)
H13 H 0.3401 0.2009 -0.0906
C15 C 0.2647(2) 0.31317(15) 0.34201(18)
H14 H 0.1754 0.3014 0.3809
H15 H 0.2675 0.3992 0.3176
C16 C 0.43966(19) 0.27480(13) 0.46866(16)
H16 H 0.5280 0.2838 0.4265
C17 C 0.5085(2) 0.14419(14) 0.68128(19)
C18 C 0.49684(19) 0.34411(14) 0.62172(17)
O1 O 0.72323(14) 0.16972(10) 1.15700(13)
O2 O 0.65937(16) 0.39031(11) 1.02911(13)
O3 O 0.85872(15) 0.51743(11) 1.18896(12)
O4 O 0.4621(2) 0.55481(12) 0.23899(15)
O5 O 0.49196(17) 0.95210(10) 0.36219(14)
N1 N 0.55736(19) 0.65257(12) 0.47758(15)
H1 H 0.5943 0.5907 0.5412
N2 N 0.46578(19) 0.76244(12) 0.26084(15)
H2 H 0.4299 0.7812 0.1608
C1 C 0.8566(2) 0.40698(16) 1.44985(17)
H3 H 0.8724 0.4913 1.4541
C2 C 0.8895(2) 0.34391(17) 1.58739(18)
H4 H 0.9265 0.3847 1.6851
C3 C 0.8679(2) 0.22111(17) 1.58032(19)
H5 H 0.8920 0.1777 1.6744
C4 C 0.8117(2) 0.15995(17) 1.4385(2)
H6 H 0.7972 0.0755 1.4361
C5 C 0.77641(18) 0.22248(14) 1.29945(18)
C6 C 0.80043(18) 0.34773(14) 1.30548(17)
C7 C 0.6950(2) 0.04258(15) 1.1468(2)
H7 H 0.6577 0.0166 1.0375
H8 H 0.6061 0.0229 1.1824
H9 H 0.8018 0.0015 1.2137
C8 C 0.76187(19) 0.41639(14) 1.15927(17)
C9 C 0.8299(2) 0.59111(14) 1.05776(17)
C10 C 0.9188(2) 0.56943(18) 0.9689(2)
H10 H 0.9979 0.5049 0.9938
C11 C 0.8907(2) 0.64407(18) 0.8415(2)
H11 H 0.9505 0.6293 0.7783
C12 C 0.77762(18) 0.73928(15) 0.80492(17)
C13 C 0.6925(2) 0.76037(15) 0.89999(18)
H12 H 0.6159 0.8262 0.8779
C14 C 0.7184(2) 0.68625(16) 1.02627(19)
H13 H 0.6599 0.7009 1.0906
C15 C 0.7353(2) 0.81317(15) 0.65799(18)
H14 H 0.8246 0.8014 0.6191
H15 H 0.7325 0.8992 0.6824
C16 C 0.56034(19) 0.77480(13) 0.53134(16)
H16 H 0.4720 0.7838 0.5735
C17 C 0.4915(2) 0.64419(14) 0.31872(19)
C18 C 0.50316(19) 0.84411(14) 0.37828(17)

#END
