
#######################################################################
#
#                 Cambridge Crystallographic Data Centre
#                                CCDC 
#
#######################################################################
#
# If this CIF has been generated from an entry in the Cambridge 
# Structural Database, then it will include bibliographic, chemical, 
# crystal, experimental, refinement or atomic coordinate data resulting 
# from the CCDC's data processing and validation procedures.
#
#######################################################################

data_KAHDUS
_symmetry_cell_setting           monoclinic
_symmetry_space_group_name_H-M   'P 21/n'
_symmetry_Int_Tables_number      14
_space_group_name_Hall           '-P 2yn'
loop_
_symmetry_equiv_pos_site_id
_symmetry_equiv_pos_as_xyz
1 x,y,z
2 1/2-x,1/2+y,1/2-z
3 -x,-y,-z
4 1/2+x,1/2-y,1/2+z
_cell_length_a                   12.113(4)
_cell_length_b                   13.327(4)
_cell_length_c                   10.094(3)
_cell_angle_alpha                90
_cell_angle_beta                 95.97(2)
_cell_angle_gamma                90
_cell_volume                     1620.64
loop_
_atom_site_label
_atom_site_type_symbol
_atom_site_fract_x
_atom_site_fract_y
_atom_site_fract_z
C1 C 0.0729(2) 0.8715(2) 0.8519(2)
C2 C 0.0760(2) 0.8698(2) 0.9904(3)
C3 C 0.1081(2) 0.7840(3) 1.0593(3)
C4 C 0.1396(2) 0.7005(2) 0.9920(3)
C5 C 0.1400(2) 0.7003(2) 0.8549(2)
C6 C 0.1842(2) 0.6103(2) 0.7876(3)
C7 C 0.2984(2) 0.6285(2) 0.7401(3)
C8 C 0.3110(2) 0.7313(2) 0.6771(2)
C9 C 0.2141(2) 0.7618(2) 0.5755(2)
C10 C 0.1790(2) 0.6839(2) 0.4700(2)
C11 C 0.2425(2) 0.6360(2) 0.3825(2)
C12 C 0.1920(2) 0.5655(2) 0.2948(2)
C13 C 0.0802(2) 0.5464(2) 0.2933(2)
C14 C 0.0151(2) 0.5931(2) 0.3801(2)
C15 C 0.0664(2) 0.6617(2) 0.4703(2)
N1 N 0.0226(1) 0.7108(1) 0.5738(2)
C16 C 0.1001(2) 0.7866(2) 0.6323(2)
C17 C 0.1041(2) 0.7878(2) 0.7834(2)
N2 N 0.0693(1) 0.8864(1) 0.5733(2)
C18 C 0.1398(2) 0.9253(2) 0.4940(2)
C19 C 0.2414(2) 0.8572(2) 0.5029(2)
C20 C -0.0934(1) 0.7148(2) 0.5915(3)
O1 O 0.1285(1) 1.0029(1) 0.4286(2)
O2 O 0.3264(1) 0.8777(1) 0.4582(2)
H1 H 0.0481 0.9323 0.8025
H2 H 0.0570 0.9299 1.0403
H3 H 0.1088 0.7807 1.1554
H4 H 0.1610 0.6392 1.0420
H5 H 0.1891 0.5538 0.8491
H6 H 0.1324 0.5918 0.7115
H7 H 0.3121 0.5779 0.6740
H8 H 0.3545 0.6208 0.8147
H9 H 0.3790 0.7323 0.6337
H10 H 0.3187 0.7809 0.7480
H11 H 0.3217 0.6525 0.3825
H12 H 0.2357 0.5293 0.2347
H13 H 0.0459 0.4983 0.2288
H14 H -0.0643 0.5784 0.3799
H15 H 0.0026 0.9174 0.5837
H16 H -0.1042 0.7537 0.6707
H17 H -0.1224 0.6486 0.6023
H18 H -0.1348 0.7466 0.5162
C1 C 0.4271(2) 0.3715(2) 0.6481(2)
C2 C 0.4240(2) 0.3698(2) 0.5096(3)
C3 C 0.3919(2) 0.2840(3) 0.4407(3)
C4 C 0.3604(2) 0.2005(2) 0.5080(3)
C5 C 0.3600(2) 0.2003(2) 0.6451(2)
C6 C 0.3158(2) 0.1103(2) 0.7124(3)
C7 C 0.2016(2) 0.1285(2) 0.7599(3)
C8 C 0.1890(2) 0.2313(2) 0.8229(2)
C9 C 0.2859(2) 0.2618(2) 0.9245(2)
C10 C 0.3210(2) 0.1839(2) 1.0300(2)
C11 C 0.2575(2) 0.1360(2) 1.1175(2)
C12 C 0.3080(2) 0.0655(2) 1.2052(2)
C13 C 0.4198(2) 0.0464(2) 1.2067(2)
C14 C 0.4849(2) 0.0931(2) 1.1199(2)
C15 C 0.4336(2) 0.1617(2) 1.0297(2)
N1 N 0.4774(1) 0.2108(1) 0.9262(2)
C16 C 0.3999(2) 0.2866(2) 0.8677(2)
C17 C 0.3959(2) 0.2878(2) 0.7166(2)
N2 N 0.4307(1) 0.3864(1) 0.9267(2)
C18 C 0.3602(2) 0.4253(2) 1.0060(2)
C19 C 0.2586(2) 0.3572(2) 0.9971(2)
C20 C 0.5934(1) 0.2148(2) 0.9085(3)
O1 O 0.3715(1) 0.5029(1) 1.0714(2)
O2 O 0.1736(1) 0.3777(1) 1.0418(2)
H1 H 0.4519 0.4323 0.6975
H2 H 0.4430 0.4299 0.4597
H3 H 0.3912 0.2807 0.3446
H4 H 0.3390 0.1392 0.4580
H5 H 0.3109 0.0538 0.6509
H6 H 0.3676 0.0918 0.7885
H7 H 0.1879 0.0779 0.8260
H8 H 0.1455 0.1208 0.6853
H9 H 0.1210 0.2323 0.8663
H10 H 0.1813 0.2809 0.7520
H11 H 0.1783 0.1525 1.1175
H12 H 0.2643 0.0293 1.2653
H13 H 0.4541 -0.0017 1.2712
H14 H 0.5643 0.0784 1.1201
H15 H 0.4974 0.4174 0.9163
H16 H 0.6042 0.2537 0.8293
H17 H 0.6224 0.1486 0.8977
H18 H 0.6348 0.2466 0.9838
C1 C 0.9271(2) 0.1285(2) 0.1481(2)
C2 C 0.9240(2) 0.1302(2) 0.0096(3)
C3 C 0.8919(2) 0.2160(3) -0.0593(3)
C4 C 0.8604(2) 0.2995(2) 0.0080(3)
C5 C 0.8600(2) 0.2997(2) 0.1451(2)
C6 C 0.8158(2) 0.3897(2) 0.2124(3)
C7 C 0.7016(2) 0.3715(2) 0.2599(3)
C8 C 0.6890(2) 0.2687(2) 0.3229(2)
C9 C 0.7859(2) 0.2382(2) 0.4245(2)
C10 C 0.8210(2) 0.3161(2) 0.5300(2)
C11 C 0.7575(2) 0.3640(2) 0.6175(2)
C12 C 0.8080(2) 0.4345(2) 0.7052(2)
C13 C 0.9198(2) 0.4536(2) 0.7067(2)
C14 C 0.9849(2) 0.4069(2) 0.6199(2)
C15 C 0.9336(2) 0.3383(2) 0.5297(2)
N1 N 0.9774(1) 0.2892(1) 0.4262(2)
C16 C 0.8999(2) 0.2134(2) 0.3677(2)
C17 C 0.8959(2) 0.2122(2) 0.2166(2)
N2 N 0.9307(1) 0.1136(1) 0.4267(2)
C18 C 0.8602(2) 0.0747(2) 0.5060(2)
C19 C 0.7586(2) 0.1428(2) 0.4971(2)
C20 C 1.0934(1) 0.2852(2) 0.4085(3)
O1 O 0.8715(1) -0.0029(1) 0.5714(2)
O2 O 0.6736(1) 0.1223(1) 0.5418(2)
H1 H 0.9519 0.0677 0.1975
H2 H 0.9430 0.0701 -0.0403
H3 H 0.8912 0.2193 -0.1554
H4 H 0.8390 0.3608 -0.0420
H5 H 0.8109 0.4462 0.1509
H6 H 0.8676 0.4082 0.2885
H7 H 0.6879 0.4221 0.3260
H8 H 0.6455 0.3792 0.1853
H9 H 0.6210 0.2677 0.3663
H10 H 0.6813 0.2191 0.2520
H11 H 0.6783 0.3475 0.6175
H12 H 0.7643 0.4707 0.7653
H13 H 0.9541 0.5017 0.7712
H14 H 1.0643 0.4216 0.6201
H15 H 0.9974 0.0826 0.4163
H16 H 1.1042 0.2463 0.3293
H17 H 1.1224 0.3514 0.3977
H18 H 1.1348 0.2534 0.4838
C1 C 0.5729(2) 0.6285(2) 0.3519(2)
C2 C 0.5760(2) 0.6302(2) 0.4904(3)
C3 C 0.6081(2) 0.7160(3) 0.5593(3)
C4 C 0.6396(2) 0.7995(2) 0.4920(3)
C5 C 0.6400(2) 0.7997(2) 0.3549(2)
C6 C 0.6842(2) 0.8897(2) 0.2876(3)
C7 C 0.7984(2) 0.8715(2) 0.2401(3)
C8 C 0.8110(2) 0.7687(2) 0.1771(2)
C9 C 0.7141(2) 0.7382(2) 0.0755(2)
C10 C 0.6790(2) 0.8161(2) -0.0300(2)
C11 C 0.7425(2) 0.8640(2) -0.1175(2)
C12 C 0.6920(2) 0.9345(2) -0.2052(2)
C13 C 0.5802(2) 0.9536(2) -0.2067(2)
C14 C 0.5151(2) 0.9069(2) -0.1199(2)
C15 C 0.5664(2) 0.8383(2) -0.0297(2)
N1 N 0.5226(1) 0.7892(1) 0.0738(2)
C16 C 0.6001(2) 0.7134(2) 0.1323(2)
C17 C 0.6041(2) 0.7122(2) 0.2834(2)
N2 N 0.5693(1) 0.6136(1) 0.0733(2)
C18 C 0.6398(2) 0.5747(2) -0.0060(2)
C19 C 0.7414(2) 0.6428(2) 0.0029(2)
C20 C 0.4066(1) 0.7852(2) 0.0915(3)
O1 O 0.6285(1) 0.4971(1) -0.0714(2)
O2 O 0.8264(1) 0.6223(1) -0.0418(2)
H1 H 0.5481 0.5677 0.3025
H2 H 0.5570 0.5701 0.5403
H3 H 0.6088 0.7193 0.6554
H4 H 0.6610 0.8608 0.5420
H5 H 0.6891 0.9462 0.3491
H6 H 0.6324 0.9082 0.2115
H7 H 0.8121 0.9221 0.1740
H8 H 0.8545 0.8792 0.3147
H9 H 0.8790 0.7677 0.1337
H10 H 0.8187 0.7191 0.2480
H11 H 0.8217 0.8475 -0.1175
H12 H 0.7357 0.9707 -0.2653
H13 H 0.5459 1.0017 -0.2712
H14 H 0.4357 0.9216 -0.1201
H15 H 0.5026 0.5826 0.0837
H16 H 0.3958 0.7463 0.1707
H17 H 0.3776 0.8514 0.1023
H18 H 0.3652 0.7534 0.0162

#END
