./KAHFEF_from_xyz.cif_generated_by_CrystalShift
_symmetry_cell_setting triclinic
_symmetry_space_group_name_H-M 'P 1'
loop_
_symmetry_equiv_pos_site_id
_symmetry_equiv_pos_as_xyz
1 x,y,z
_cell_length_a 14.194100
_cell_length_b 6.283100
_cell_length_c 20.947500
_cell_angle_alpha 90.000000
_cell_angle_beta 101.762000
_cell_angle_gamma 90.000000
_cell_volume 1828.933700
loop_
_atom_site_label
_atom_site_type_symbol
_atom_site_fract_x
_atom_site_fract_y
_atom_site_fract_z
N1 N 0.005350 0.728070 0.631210
C2 C 0.023500 0.901000 0.588370
H3 H -0.019300 1.018000 0.595000
H4 H 0.005900 0.848000 0.538200
C5 C 0.127970 0.968300 0.604080
H6 H 0.138100 1.082000 0.572800
H7 H 0.144100 1.028000 0.648200
C8 C 0.194700 0.783500 0.599460
H9 H 0.181800 0.726000 0.554200
C10 C 0.301220 0.843500 0.617930
H11 H 0.313700 0.917000 0.662700
H12 H 0.338900 0.716000 0.621200
C13 C 0.335560 0.989700 0.570390
C14 C 0.371510 1.188900 0.588770
H15 H 0.372800 1.237000 0.633900
C16 C 0.403840 1.321600 0.545230
H17 H 0.427700 1.456000 0.559600
C18 C 0.401160 1.256000 0.482610
H19 H 0.421900 1.350000 0.452100
C20 C 0.365500 1.058900 0.463250
H21 H 0.364700 1.008000 0.418600
C22 C 0.333560 0.926800 0.506700
H23 H 0.310400 0.783000 0.494400
C24 C 0.170820 0.603200 0.642160
H25 H 0.211300 0.484000 0.639400
H26 H 0.189200 0.657000 0.690200
C27 C 0.065090 0.544100 0.624440
H28 H 0.051600 0.485000 0.577100
H29 H 0.050000 0.429000 0.654000
C30 C -0.097560 0.680000 0.624520
H31 H -0.130200 0.817000 0.622600
C32 C -0.143430 0.552500 0.564330
H33 H -0.115800 0.400000 0.568700
H34 H -0.212200 0.546000 0.560100
H35 H -0.126500 0.621000 0.526200
C36 C -0.111880 0.571200 0.687750
H37 H -0.087100 0.412000 0.688200
O38 O -0.055690 0.677200 0.741640
H39 H -0.012300 0.753000 0.726200
C40 C -0.216150 0.571100 0.693780
C41 C -0.257400 0.750400 0.714440
H42 H -0.219200 0.871000 0.724300
C43 C -0.353250 0.752900 0.719230
H44 H -0.380700 0.873000 0.733000
C45 C -0.406430 0.572800 0.702820
F46 F -0.500310 0.573600 0.707910
C47 C -0.368950 0.392100 0.682490
H48 H -0.407400 0.266000 0.672400
C49 C -0.272850 0.392500 0.678140
H50 H -0.243400 0.266000 0.663100
N51 N 0.005350 0.771930 0.131210
C52 C 0.023500 0.599000 0.088370
H53 H -0.019300 0.482000 0.095000
H54 H 0.005900 0.652000 0.038200
C55 C 0.127970 0.531700 0.104080
H56 H 0.138100 0.418000 0.072800
H57 H 0.144100 0.472000 0.148200
C58 C 0.194700 0.716500 0.099460
H59 H 0.181800 0.774000 0.054200
C60 C 0.301220 0.656500 0.117930
H61 H 0.313700 0.583000 0.162700
H62 H 0.338900 0.784000 0.121200
C63 C 0.335560 0.510300 0.070390
C64 C 0.371510 0.311100 0.088770
H65 H 0.372800 0.263000 0.133900
C66 C 0.403840 0.178400 0.045230
H67 H 0.427700 0.044000 0.059600
C68 C 0.401160 0.244000 -0.017390
H69 H 0.421900 0.150000 -0.047900
C70 C 0.365500 0.441100 -0.036750
H71 H 0.364700 0.492000 -0.081400
C72 C 0.333560 0.573200 0.006700
H73 H 0.310400 0.717000 -0.005600
C74 C 0.170820 0.896800 0.142160
H75 H 0.211300 1.016000 0.139400
H76 H 0.189200 0.843000 0.190200
C77 C 0.065090 0.955900 0.124440
H78 H 0.051600 1.015000 0.077100
H79 H 0.050000 1.071000 0.154000
C80 C -0.097560 0.820000 0.124520
H81 H -0.130200 0.683000 0.122600
C82 C -0.143430 0.947500 0.064330
H83 H -0.115800 1.100000 0.068700
H84 H -0.212200 0.954000 0.060100
H85 H -0.126500 0.879000 0.026200
C86 C -0.111880 0.928800 0.187750
H87 H -0.087100 1.088000 0.188200
O88 O -0.055690 0.822800 0.241640
H89 H -0.012300 0.747000 0.226200
C90 C -0.216150 0.928900 0.193780
C91 C -0.257400 0.749600 0.214440
H92 H -0.219200 0.629000 0.224300
C93 C -0.353250 0.747100 0.219230
H94 H -0.380700 0.627000 0.233000
C95 C -0.406430 0.927200 0.202820
F96 F -0.500310 0.926400 0.207910
C97 C -0.368950 1.107900 0.182490
H98 H -0.407400 1.234000 0.172400
C99 C -0.272850 1.107500 0.178140
H100 H -0.243400 1.234000 0.163100
N101 N 0.994650 0.271930 0.368790
C102 C 0.976500 0.099000 0.411630
H103 H 1.019300 -0.018000 0.405000
H104 H 0.994100 0.152000 0.461800
C105 C 0.872030 0.031700 0.395920
H106 H 0.861900 -0.082000 0.427200
H107 H 0.855900 -0.028000 0.351800
C108 C 0.805300 0.216500 0.400540
H109 H 0.818200 0.274000 0.445800
C110 C 0.698780 0.156500 0.382070
H111 H 0.686300 0.083000 0.337300
H112 H 0.661100 0.284000 0.378800
C113 C 0.664440 0.010300 0.429610
C114 C 0.628490 -0.188900 0.411230
H115 H 0.627200 -0.237000 0.366100
C116 C 0.596160 -0.321600 0.454770
H117 H 0.572300 -0.456000 0.440400
C118 C 0.598840 -0.256000 0.517390
H119 H 0.578100 -0.350000 0.547900
C120 C 0.634500 -0.058900 0.536750
H121 H 0.635300 -0.008000 0.581400
C122 C 0.666440 0.073200 0.493300
H123 H 0.689600 0.217000 0.505600
C124 C 0.829180 0.396800 0.357840
H125 H 0.788700 0.516000 0.360600
H126 H 0.810800 0.343000 0.309800
C127 C 0.934910 0.455900 0.375560
H128 H 0.948400 0.515000 0.422900
H129 H 0.950000 0.571000 0.346000
C130 C 1.097560 0.320000 0.375480
H131 H 1.130200 0.183000 0.377400
C132 C 1.143430 0.447500 0.435670
H133 H 1.115800 0.600000 0.431300
H134 H 1.212200 0.454000 0.439900
H135 H 1.126500 0.379000 0.473800
C136 C 1.111880 0.428800 0.312250
H137 H 1.087100 0.588000 0.311800
O138 O 1.055690 0.322800 0.258360
H139 H 1.012300 0.247000 0.273800
C140 C 1.216150 0.428900 0.306220
C141 C 1.257400 0.249600 0.285560
H142 H 1.219200 0.129000 0.275700
C143 C 1.353250 0.247100 0.280770
H144 H 1.380700 0.127000 0.267000
C145 C 1.406430 0.427200 0.297180
F146 F 1.500310 0.426400 0.292090
C147 C 1.368950 0.607900 0.317510
H148 H 1.407400 0.734000 0.327600
C149 C 1.272850 0.607500 0.321860
H150 H 1.243400 0.734000 0.336900
N151 N 0.994650 0.228070 0.868790
C152 C 0.976500 0.401000 0.911630
H153 H 1.019300 0.518000 0.905000
H154 H 0.994100 0.348000 0.961800
C155 C 0.872030 0.468300 0.895920
H156 H 0.861900 0.582000 0.927200
H157 H 0.855900 0.528000 0.851800
C158 C 0.805300 0.283500 0.900540
H159 H 0.818200 0.226000 0.945800
C160 C 0.698780 0.343500 0.882070
H161 H 0.686300 0.417000 0.837300
H162 H 0.661100 0.216000 0.878800
C163 C 0.664440 0.489700 0.929610
C164 C 0.628490 0.688900 0.911230
H165 H 0.627200 0.737000 0.866100
C166 C 0.596160 0.821600 0.954770
H167 H 0.572300 0.956000 0.940400
C168 C 0.598840 0.756000 1.017390
H169 H 0.578100 0.850000 1.047900
C170 C 0.634500 0.558900 1.036750
H171 H 0.635300 0.508000 1.081400
C172 C 0.666440 0.426800 0.993300
H173 H 0.689600 0.283000 1.005600
C174 C 0.829180 0.103200 0.857840
H175 H 0.788700 -0.016000 0.860600
H176 H 0.810800 0.157000 0.809800
C177 C 0.934910 0.044100 0.875560
H178 H 0.948400 -0.015000 0.922900
H179 H 0.950000 -0.071000 0.846000
C180 C 1.097560 0.180000 0.875480
H181 H 1.130200 0.317000 0.877400
C182 C 1.143430 0.052500 0.935670
H183 H 1.115800 -0.100000 0.931300
H184 H 1.212200 0.046000 0.939900
H185 H 1.126500 0.121000 0.973800
C186 C 1.111880 0.071200 0.812250
H187 H 1.087100 -0.088000 0.811800
O188 O 1.055690 0.177200 0.758360
H189 H 1.012300 0.253000 0.773800
C190 C 1.216150 0.071100 0.806220
C191 C 1.257400 0.250400 0.785560
H192 H 1.219200 0.371000 0.775700
C193 C 1.353250 0.252900 0.780770
H194 H 1.380700 0.373000 0.767000
C195 C 1.406430 0.072800 0.797180
F196 F 1.500310 0.073600 0.792090
C197 C 1.368950 -0.107900 0.817510
H198 H 1.407400 -0.234000 0.827600
C199 C 1.272850 -0.107500 0.821860
H200 H 1.243400 -0.234000 0.836900

#END
