./KAHFOQ_from_xyz.cif_generated_by_CrystalShift
_symmetry_cell_setting triclinic
_symmetry_space_group_name_H-M 'P 1'
loop_
_symmetry_equiv_pos_site_id
_symmetry_equiv_pos_as_xyz
1 x,y,z
_cell_length_a 9.177900
_cell_length_b 9.657200
_cell_length_c 11.604500
_cell_angle_alpha 82.966000
_cell_angle_beta 81.514000
_cell_angle_gamma 70.515000
_cell_volume 956.055482
loop_
_atom_site_label
_atom_site_type_symbol
_atom_site_fract_x
_atom_site_fract_y
_atom_site_fract_z
C1 C 0.758480 0.170000 0.531620
H2 H 0.844300 0.181400 0.482800
C3 C 0.734100 0.038600 0.543790
H4 H 0.802500 -0.039500 0.503600
C5 C 0.605200 0.020300 0.617270
H6 H 0.588400 -0.070400 0.625400
C7 C 0.503830 0.133730 0.677110
H8 H 0.419200 0.118900 0.725400
C9 C 0.525060 0.273150 0.667080
C10 C 0.423310 0.396380 0.727310
C11 C 0.455070 0.526140 0.711890
H12 H 0.389300 0.605700 0.751800
C13 C 0.584510 0.542810 0.637320
H14 H 0.603200 0.632600 0.628200
C15 C 0.681920 0.427990 0.578770
H16 H 0.767100 0.439900 0.529300
C17 C 0.656090 0.291340 0.591670
C18 C 0.273510 0.388820 0.802440
H19 H 0.282900 0.285000 0.823000
C20 C 0.134500 0.459000 0.734130
C21 C 0.033080 0.593600 0.754500
C22 C 0.133990 0.597790 0.931060
C23 C 0.241770 0.465200 0.914280
C24 C 0.117740 0.386820 0.640560
C25 C 0.332760 0.388810 1.005410
C26 C 0.099250 0.688730 1.027790
C27 C -0.036090 0.816910 1.051210
C28 C -0.170920 0.892740 0.997510
H29 H -0.187500 0.862000 0.929100
C30 C -0.278650 1.013490 1.047550
H31 H -0.368300 1.063600 1.012200
C32 C -0.256430 1.061990 1.149380
H33 H -0.331300 1.143900 1.180800
C34 C -0.126150 0.991370 1.204450
H35 H -0.110900 1.023500 1.272700
C36 C -0.017460 0.869300 1.153730
C37 C 0.191080 0.672910 1.115250
H38 H 0.286300 0.599800 1.122300
N39 N 0.405600 0.323100 1.077510
N40 N 0.105470 0.328460 0.563690
N41 N -0.081860 0.676940 0.691710
N42 N 0.121910 0.779830 1.189540
O43 O 0.037710 0.667670 0.845710
H44 H -0.089000 0.648000 0.624900
H45 H -0.154000 0.753000 0.724100
H46 H 0.160000 0.788000 1.255200
C47 C 0.241520 0.830000 0.468380
H48 H 0.155700 0.818600 0.517200
C49 C 0.265900 0.961400 0.456210
H50 H 0.197500 1.039500 0.496400
C51 C 0.394800 0.979700 0.382730
H52 H 0.411600 1.070400 0.374600
C53 C 0.496170 0.866270 0.322890
H54 H 0.580800 0.881100 0.274600
C55 C 0.474940 0.726850 0.332920
C56 C 0.576690 0.603620 0.272690
C57 C 0.544930 0.473860 0.288110
H58 H 0.610700 0.394300 0.248200
C59 C 0.415490 0.457190 0.362680
H60 H 0.396800 0.367400 0.371800
C61 C 0.318080 0.572010 0.421230
H62 H 0.232900 0.560100 0.470700
C63 C 0.343910 0.708660 0.408330
C64 C 0.726490 0.611180 0.197560
H65 H 0.717100 0.715000 0.177000
C66 C 0.865500 0.541000 0.265870
C67 C 0.966920 0.406400 0.245500
C68 C 0.866010 0.402210 0.068940
C69 C 0.758230 0.534800 0.085720
C70 C 0.882260 0.613180 0.359440
C71 C 0.667240 0.611190 -0.005410
C72 C 0.900750 0.311270 -0.027790
C73 C 1.036090 0.183090 -0.051210
C74 C 1.170920 0.107260 0.002490
H75 H 1.187500 0.138000 0.070900
C76 C 1.278650 -0.013490 -0.047550
H77 H 1.368300 -0.063600 -0.012200
C78 C 1.256430 -0.061990 -0.149380
H79 H 1.331300 -0.143900 -0.180800
C80 C 1.126150 0.008630 -0.204450
H81 H 1.110900 -0.023500 -0.272700
C82 C 1.017460 0.130700 -0.153730
C83 C 0.808920 0.327090 -0.115250
H84 H 0.713700 0.400200 -0.122300
N85 N 0.594400 0.676900 -0.077510
N86 N 0.894530 0.671540 0.436310
N87 N 1.081860 0.323060 0.308290
N88 N 0.878090 0.220170 -0.189540
O89 O 0.962290 0.332330 0.154290
H90 H 1.089000 0.352000 0.375100
H91 H 1.154000 0.247000 0.275900
H92 H 0.840000 0.212000 -0.255200

#END
