
#######################################################################
#
#                 Cambridge Crystallographic Data Centre
#                                CCDC 
#
#######################################################################
#
# If this CIF has been generated from an entry in the Cambridge 
# Structural Database, then it will include bibliographic, chemical, 
# crystal, experimental, refinement or atomic coordinate data resulting 
# from the CCDC's data processing and validation procedures.
#
#######################################################################

data_KAHFUV
_symmetry_cell_setting           orthorhombic
_symmetry_space_group_name_H-M   'P c a 21'
_symmetry_Int_Tables_number      29
_space_group_name_Hall           'P 2c -2ac'
loop_
_symmetry_equiv_pos_site_id
_symmetry_equiv_pos_as_xyz
1 x,y,z
2 -x,-y,1/2+z
3 1/2+x,-y,z
4 1/2-x,y,1/2+z
_cell_length_a                   23.9782(17)
_cell_length_b                   8.4437(7)
_cell_length_c                   11.3029(9)
_cell_angle_alpha                90
_cell_angle_beta                 90
_cell_angle_gamma                90
_cell_volume                     2288.44
loop_
_atom_site_label
_atom_site_type_symbol
_atom_site_fract_x
_atom_site_fract_y
_atom_site_fract_z
O1 O 0.29115(9) 0.5004(3) 0.5897(2)
C26 C 0.26313(16) 0.6504(5) 0.6042(4)
C27 C 0.2099(2) 0.6528(6) 0.5289(6)
H23 H 0.2702(18) 0.428(6) 0.635(4)
H24 H 0.2683(19) 0.670(6) 0.696(5)
H25 H 0.2922(16) 0.733(4) 0.575(3)
H26 H 0.181(3) 0.542(8) 0.566(6)
H27 H 0.188(2) 0.775(7) 0.535(5)
H28 H 0.219(2) 0.629(7) 0.434(6)
O1 O 0.70885(9) 0.4996(3) 0.0897(2)
C26 C 0.73687(16) 0.3496(5) 0.1042(4)
C27 C 0.7901(2) 0.3472(6) 0.0289(6)
H23 H 0.7298(18) 0.572(6) 0.135(4)
H24 H 0.7317(19) 0.330(6) 0.196(5)
H25 H 0.7078(16) 0.267(4) 0.075(3)
H26 H 0.819(3) 0.458(8) 0.066(6)
H27 H 0.812(2) 0.225(7) 0.035(5)
H28 H 0.781(2) 0.371(7) -0.066(6)
O1 O 0.79115(9) 0.4996(3) 0.5897(2)
C26 C 0.76313(16) 0.3496(5) 0.6042(4)
C27 C 0.7099(2) 0.3472(6) 0.5289(6)
H23 H 0.7702(18) 0.572(6) 0.635(4)
H24 H 0.7683(19) 0.330(6) 0.696(5)
H25 H 0.7922(16) 0.267(4) 0.575(3)
H26 H 0.681(3) 0.458(8) 0.566(6)
H27 H 0.688(2) 0.225(7) 0.535(5)
H28 H 0.719(2) 0.371(7) 0.434(6)
O1 O 0.20885(9) 0.5004(3) 0.0897(2)
C26 C 0.23687(16) 0.6504(5) 0.1042(4)
C27 C 0.2901(2) 0.6528(6) 0.0289(6)
H23 H 0.2298(18) 0.428(6) 0.135(4)
H24 H 0.2317(19) 0.670(6) 0.196(5)
H25 H 0.2078(16) 0.733(4) 0.075(3)
H26 H 0.319(3) 0.542(8) 0.066(6)
H27 H 0.312(2) 0.775(7) 0.035(5)
H28 H 0.281(2) 0.629(7) -0.066(6)
N1 N 0.32599(10) 0.3911(3) 0.3551(2)
N2 N 0.41107(10) 0.3967(3) 0.5850(2)
C1 C 0.42045(11) 0.5158(3) 0.3821(3)
C2 C 0.39815(10) 0.6789(3) 0.4175(3)
C3 C 0.41859(12) 0.7586(3) 0.5162(3)
C4 C 0.40329(13) 0.9126(4) 0.5405(3)
C5 C 0.36664(12) 0.9915(3) 0.4653(3)
C6 C 0.34500(12) 0.9134(3) 0.3685(3)
C7 C 0.36055(11) 0.7581(3) 0.3448(3)
C8 C 0.37935(10) 0.4194(3) 0.3114(3)
C9 C 0.38609(11) 0.3422(3) 0.2063(3)
C10 C 0.33462(11) 0.2597(3) 0.1831(2)
C11 C 0.31641(11) 0.1603(3) 0.0925(3)
C12 C 0.26277(13) 0.0987(4) 0.0981(3)
C13 C 0.22727(13) 0.1341(3) 0.1920(3)
C14 C 0.24409(11) 0.2327(3) 0.2841(3)
C15 C 0.29815(10) 0.2942(3) 0.2784(3)
C16 C 0.43698(14) 0.3359(4) 0.1295(3)
C17 C 0.44243(11) 0.4193(3) 0.4829(3)
C18 C 0.49116(11) 0.3340(3) 0.4914(3)
C19 C 0.48935(11) 0.2535(3) 0.6033(3)
C20 C 0.52565(13) 0.1465(4) 0.6604(3)
C21 C 0.51044(14) 0.0865(4) 0.7691(3)
C22 C 0.46049(15) 0.1333(4) 0.8240(3)
C23 C 0.42445(13) 0.2382(4) 0.7711(3)
C24 C 0.43905(12) 0.2948(3) 0.6590(3)
C25 C 0.53772(13) 0.3268(4) 0.4024(4)
H1 H 0.3130(14) 0.418(5) 0.418(4)
H2 H 0.3756(12) 0.439(3) 0.597(3)
H3 H 0.4428(12) 0.714(4) 0.569(3)
H4 H 0.4179(11) 0.963(3) 0.609(3)
H5 H 0.3581(10) 1.102(3) 0.477(2)
H6 H 0.3182(12) 0.969(4) 0.313(3)
H7 H 0.3458(10) 0.704(3) 0.272(3)
H8 H 0.4533(10) 0.536(3) 0.332(2)
H9 H 0.3414(13) 0.146(4) 0.021(3)
H10 H 0.2496(14) 0.034(3) 0.037(3)
H11 H 0.1872(13) 0.095(4) 0.193(3)
H12 H 0.2198(11) 0.253(4) 0.350(3)
H13 H 0.4639(13) 0.404(4) 0.157(3)
H14 H 0.4529(17) 0.233(6) 0.121(4)
H15 H 0.4230(15) 0.346(4) 0.045(4)
H16 H 0.5619(14) 0.115(4) 0.621(3)
H17 H 0.5371(12) 0.008(4) 0.814(3)
H18 H 0.4509(14) 0.093(4) 0.906(4)
H19 H 0.3882(13) 0.267(4) 0.806(3)
H20 H 0.5733(18) 0.326(5) 0.429(4)
H21 H 0.5394(16) 0.424(6) 0.336(4)
H22 H 0.5334(16) 0.237(6) 0.346(4)
N1 N 0.67401(10) 0.6089(3) 0.8551(2)
N2 N 0.58893(10) 0.6033(3) 1.0850(2)
C1 C 0.57955(11) 0.4842(3) 0.8821(3)
C2 C 0.60185(10) 0.3211(3) 0.9175(3)
C3 C 0.58141(12) 0.2414(3) 1.0162(3)
C4 C 0.59671(13) 0.0874(4) 1.0405(3)
C5 C 0.63336(12) 0.0085(3) 0.9653(3)
C6 C 0.65500(12) 0.0866(3) 0.8685(3)
C7 C 0.63945(11) 0.2419(3) 0.8448(3)
C8 C 0.62065(10) 0.5806(3) 0.8114(3)
C9 C 0.61391(11) 0.6578(3) 0.7063(3)
C10 C 0.66538(11) 0.7403(3) 0.6831(2)
C11 C 0.68359(11) 0.8397(3) 0.5925(3)
C12 C 0.73723(13) 0.9013(4) 0.5981(3)
C13 C 0.77273(13) 0.8659(3) 0.6920(3)
C14 C 0.75591(11) 0.7673(3) 0.7841(3)
C15 C 0.70185(10) 0.7058(3) 0.7784(3)
C16 C 0.56302(14) 0.6641(4) 0.6295(3)
C17 C 0.55757(11) 0.5807(3) 0.9829(3)
C18 C 0.50884(11) 0.6660(3) 0.9914(3)
C19 C 0.51065(11) 0.7465(3) 1.1033(3)
C20 C 0.47435(13) 0.8535(4) 1.1604(3)
C21 C 0.48956(14) 0.9135(4) 1.2691(3)
C22 C 0.53951(15) 0.8667(4) 1.3240(3)
C23 C 0.57555(13) 0.7618(4) 1.2711(3)
C24 C 0.56095(12) 0.7052(3) 1.1590(3)
C25 C 0.46228(13) 0.6732(4) 0.9024(4)
H1 H 0.6870(14) 0.582(5) 0.918(4)
H2 H 0.6244(12) 0.561(3) 1.097(3)
H3 H 0.5572(12) 0.286(4) 1.069(3)
H4 H 0.5821(11) 0.037(3) 1.109(3)
H5 H 0.6419(10) -0.102(3) 0.977(2)
H6 H 0.6818(12) 0.031(4) 0.813(3)
H7 H 0.6542(10) 0.296(3) 0.772(3)
H8 H 0.5467(10) 0.464(3) 0.832(2)
H9 H 0.6586(13) 0.854(4) 0.521(3)
H10 H 0.7504(14) 0.966(3) 0.537(3)
H11 H 0.8128(13) 0.905(4) 0.693(3)
H12 H 0.7802(11) 0.747(4) 0.850(3)
H13 H 0.5361(13) 0.596(4) 0.657(3)
H14 H 0.5471(17) 0.767(6) 0.621(4)
H15 H 0.5770(15) 0.654(4) 0.545(4)
H16 H 0.4381(14) 0.885(4) 1.121(3)
H17 H 0.4629(12) 0.992(4) 1.314(3)
H18 H 0.5491(14) 0.907(4) 1.406(4)
H19 H 0.6118(13) 0.733(4) 1.306(3)
H20 H 0.4267(18) 0.674(5) 0.929(4)
H21 H 0.4606(16) 0.576(6) 0.836(4)
H22 H 0.4666(16) 0.763(6) 0.846(4)
N1 N 0.82599(10) 0.6089(3) 0.3551(2)
N2 N 0.91107(10) 0.6033(3) 0.5850(2)
C1 C 0.92045(11) 0.4842(3) 0.3821(3)
C2 C 0.89815(10) 0.3211(3) 0.4175(3)
C3 C 0.91859(12) 0.2414(3) 0.5162(3)
C4 C 0.90329(13) 0.0874(4) 0.5405(3)
C5 C 0.86664(12) 0.0085(3) 0.4653(3)
C6 C 0.84500(12) 0.0866(3) 0.3685(3)
C7 C 0.86055(11) 0.2419(3) 0.3448(3)
C8 C 0.87935(10) 0.5806(3) 0.3114(3)
C9 C 0.88609(11) 0.6578(3) 0.2063(3)
C10 C 0.83462(11) 0.7403(3) 0.1831(2)
C11 C 0.81641(11) 0.8397(3) 0.0925(3)
C12 C 0.76277(13) 0.9013(4) 0.0981(3)
C13 C 0.72727(13) 0.8659(3) 0.1920(3)
C14 C 0.74409(11) 0.7673(3) 0.2841(3)
C15 C 0.79815(10) 0.7058(3) 0.2784(3)
C16 C 0.93698(14) 0.6641(4) 0.1295(3)
C17 C 0.94243(11) 0.5807(3) 0.4829(3)
C18 C 0.99116(11) 0.6660(3) 0.4914(3)
C19 C 0.98935(11) 0.7465(3) 0.6033(3)
C20 C 1.02565(13) 0.8535(4) 0.6604(3)
C21 C 1.01044(14) 0.9135(4) 0.7691(3)
C22 C 0.96049(15) 0.8667(4) 0.8240(3)
C23 C 0.92445(13) 0.7618(4) 0.7711(3)
C24 C 0.93905(12) 0.7052(3) 0.6590(3)
C25 C 1.03772(13) 0.6732(4) 0.4024(4)
H1 H 0.8130(14) 0.582(5) 0.418(4)
H2 H 0.8756(12) 0.561(3) 0.597(3)
H3 H 0.9428(12) 0.286(4) 0.569(3)
H4 H 0.9179(11) 0.037(3) 0.609(3)
H5 H 0.8581(10) -0.102(3) 0.477(2)
H6 H 0.8182(12) 0.031(4) 0.313(3)
H7 H 0.8458(10) 0.296(3) 0.272(3)
H8 H 0.9533(10) 0.464(3) 0.332(2)
H9 H 0.8414(13) 0.854(4) 0.021(3)
H10 H 0.7496(14) 0.966(3) 0.037(3)
H11 H 0.6872(13) 0.905(4) 0.193(3)
H12 H 0.7198(11) 0.747(4) 0.350(3)
H13 H 0.9639(13) 0.596(4) 0.157(3)
H14 H 0.9529(17) 0.767(6) 0.121(4)
H15 H 0.9230(15) 0.654(4) 0.045(4)
H16 H 1.0619(14) 0.885(4) 0.621(3)
H17 H 1.0371(12) 0.992(4) 0.814(3)
H18 H 0.9509(14) 0.907(4) 0.906(4)
H19 H 0.8882(13) 0.733(4) 0.806(3)
H20 H 1.0733(18) 0.674(5) 0.429(4)
H21 H 1.0394(16) 0.576(6) 0.336(4)
H22 H 1.0334(16) 0.763(6) 0.346(4)
N1 N 0.17401(10) 0.3911(3) 0.8551(2)
N2 N 0.08893(10) 0.3967(3) 1.0850(2)
C1 C 0.07955(11) 0.5158(3) 0.8821(3)
C2 C 0.10185(10) 0.6789(3) 0.9175(3)
C3 C 0.08141(12) 0.7586(3) 1.0162(3)
C4 C 0.09671(13) 0.9126(4) 1.0405(3)
C5 C 0.13336(12) 0.9915(3) 0.9653(3)
C6 C 0.15500(12) 0.9134(3) 0.8685(3)
C7 C 0.13945(11) 0.7581(3) 0.8448(3)
C8 C 0.12065(10) 0.4194(3) 0.8114(3)
C9 C 0.11391(11) 0.3422(3) 0.7063(3)
C10 C 0.16538(11) 0.2597(3) 0.6831(2)
C11 C 0.18359(11) 0.1603(3) 0.5925(3)
C12 C 0.23723(13) 0.0987(4) 0.5981(3)
C13 C 0.27273(13) 0.1341(3) 0.6920(3)
C14 C 0.25591(11) 0.2327(3) 0.7841(3)
C15 C 0.20185(10) 0.2942(3) 0.7784(3)
C16 C 0.06302(14) 0.3359(4) 0.6295(3)
C17 C 0.05757(11) 0.4193(3) 0.9829(3)
C18 C 0.00884(11) 0.3340(3) 0.9914(3)
C19 C 0.01065(11) 0.2535(3) 1.1033(3)
C20 C -0.02565(13) 0.1465(4) 1.1604(3)
C21 C -0.01044(14) 0.0865(4) 1.2691(3)
C22 C 0.03951(15) 0.1333(4) 1.3240(3)
C23 C 0.07555(13) 0.2382(4) 1.2711(3)
C24 C 0.06095(12) 0.2948(3) 1.1590(3)
C25 C -0.03772(13) 0.3268(4) 0.9024(4)
H1 H 0.1870(14) 0.418(5) 0.918(4)
H2 H 0.1244(12) 0.439(3) 1.097(3)
H3 H 0.0572(12) 0.714(4) 1.069(3)
H4 H 0.0821(11) 0.963(3) 1.109(3)
H5 H 0.1419(10) 1.102(3) 0.977(2)
H6 H 0.1818(12) 0.969(4) 0.813(3)
H7 H 0.1542(10) 0.704(3) 0.772(3)
H8 H 0.0467(10) 0.536(3) 0.832(2)
H9 H 0.1586(13) 0.146(4) 0.521(3)
H10 H 0.2504(14) 0.034(3) 0.537(3)
H11 H 0.3128(13) 0.095(4) 0.693(3)
H12 H 0.2802(11) 0.253(4) 0.850(3)
H13 H 0.0361(13) 0.404(4) 0.657(3)
H14 H 0.0471(17) 0.233(6) 0.621(4)
H15 H 0.0770(15) 0.346(4) 0.545(4)
H16 H -0.0619(14) 0.115(4) 1.121(3)
H17 H -0.0371(12) 0.008(4) 1.314(3)
H18 H 0.0491(14) 0.093(4) 1.406(4)
H19 H 0.1118(13) 0.267(4) 1.306(3)
H20 H -0.0733(18) 0.326(5) 0.929(4)
H21 H -0.0394(16) 0.424(6) 0.836(4)
H22 H -0.0334(16) 0.237(6) 0.846(4)

#END
