./KAHGAC_from_xyz.cif_generated_by_CrystalShift
_symmetry_cell_setting triclinic
_symmetry_space_group_name_H-M 'P 1'
loop_
_symmetry_equiv_pos_site_id
_symmetry_equiv_pos_as_xyz
1 x,y,z
_cell_length_a 8.911000
_cell_length_b 9.584000
_cell_length_c 24.040000
_cell_angle_alpha 90.000000
_cell_angle_beta 90.000000
_cell_angle_gamma 90.000000
_cell_volume 2053.088697
loop_
_atom_site_label
_atom_site_type_symbol
_atom_site_fract_x
_atom_site_fract_y
_atom_site_fract_z
Br1 Br 1.271620 0.546320 0.195590
N2 N 0.578000 0.263900 0.185140
H3 H 0.621600 0.339100 0.196100
N4 N 0.534900 0.453100 0.074920
H5 H 0.515700 0.467900 0.109500
C6 C 0.713300 0.255700 0.093440
H7 H 0.750300 0.177500 0.071000
C8 C 0.851200 0.327000 0.118270
C9 C 0.901600 0.455100 0.098670
H10 H 0.849800 0.499200 0.070000
C11 C 1.027600 0.518300 0.121020
H12 H 1.060800 0.603700 0.107400
C13 C 1.102500 0.453400 0.163410
C14 C 1.058700 0.325600 0.183060
H15 H 1.113200 0.281400 0.210900
C16 C 0.932500 0.263200 0.160920
H17 H 0.901100 0.177300 0.174600
C18 C 0.608300 0.194700 0.135860
C19 C 0.514400 0.082300 0.132060
C20 C 0.425600 0.081900 0.181190
C21 C 0.306600 -0.003600 0.201300
H22 H 0.271900 -0.079300 0.180800
C23 C 0.243700 0.030200 0.252900
H24 H 0.165300 -0.024000 0.266500
C25 C 0.293600 0.140000 0.284100
H26 H 0.250000 0.157200 0.318600
C27 C 0.405500 0.224700 0.265800
H28 H 0.439000 0.299700 0.287000
C29 C 0.468100 0.194700 0.213900
C30 C 0.504900 -0.017300 0.084700
H31 H 0.578100 0.007300 0.057000
H32 H 0.406400 -0.013300 0.068600
H33 H 0.524200 -0.110200 0.097800
C34 C 0.628900 0.349800 0.054620
C35 C 0.635200 0.357600 -0.001870
C36 C 0.539200 0.471400 -0.017750
C37 C 0.500100 0.531100 -0.068160
H38 H 0.541900 0.498200 -0.101100
C39 C 0.398400 0.640000 -0.069100
H40 H 0.369600 0.678800 -0.102900
C41 C 0.339600 0.691400 -0.020200
H42 H 0.272000 0.765200 -0.022000
C43 C 0.376300 0.638300 0.031000
H44 H 0.335900 0.674200 0.063700
C45 C 0.477000 0.528000 0.031250
C46 C 0.722800 0.266400 -0.039620
H47 H 0.777200 0.198900 -0.018100
H48 H 0.792000 0.322000 -0.060700
H49 H 0.655700 0.219100 -0.064600
Br50 Br 0.228380 0.453680 0.695590
N51 N 0.922000 0.736100 0.685140
H52 H 0.878400 0.660900 0.696100
N53 N 0.965100 0.546900 0.574920
H54 H 0.984300 0.532100 0.609500
C55 C 0.786700 0.744300 0.593440
H56 H 0.749700 0.822500 0.571000
C57 C 0.648800 0.673000 0.618270
C58 C 0.598400 0.544900 0.598670
H59 H 0.650200 0.500800 0.570000
C60 C 0.472400 0.481700 0.621020
H61 H 0.439200 0.396300 0.607400
C62 C 0.397500 0.546600 0.663410
C63 C 0.441300 0.674400 0.683060
H64 H 0.386800 0.718600 0.710900
C65 C 0.567500 0.736800 0.660920
H66 H 0.598900 0.822700 0.674600
C67 C 0.891700 0.805300 0.635860
C68 C 0.985600 0.917700 0.632060
C69 C 1.074400 0.918100 0.681190
C70 C 1.193400 1.003600 0.701300
H71 H 1.228100 1.079300 0.680800
C72 C 1.256300 0.969800 0.752900
H73 H 1.334700 1.024000 0.766500
C74 C 1.206400 0.860000 0.784100
H75 H 1.250000 0.842800 0.818600
C76 C 1.094500 0.775300 0.765800
H77 H 1.061000 0.700300 0.787000
C78 C 1.031900 0.805300 0.713900
C79 C 0.995100 1.017300 0.584700
H80 H 0.921900 0.992700 0.557000
H81 H 1.093600 1.013300 0.568600
H82 H 0.975800 1.110200 0.597800
C83 C 0.871100 0.650200 0.554620
C84 C 0.864800 0.642400 0.498130
C85 C 0.960800 0.528600 0.482250
C86 C 0.999900 0.468900 0.431840
H87 H 0.958100 0.501800 0.398900
C88 C 1.101600 0.360000 0.430900
H89 H 1.130400 0.321200 0.397100
C90 C 1.160400 0.308600 0.479800
H91 H 1.228000 0.234800 0.478000
C92 C 1.123700 0.361700 0.531000
H93 H 1.164100 0.325800 0.563700
C94 C 1.023000 0.472000 0.531250
C95 C 0.777200 0.733600 0.460380
H96 H 0.722800 0.801100 0.481900
H97 H 0.708000 0.678000 0.439300
H98 H 0.844300 0.780900 0.435400
Br99 Br -0.271620 1.046320 0.304410
N100 N 0.422000 0.763900 0.314860
H101 H 0.378400 0.839100 0.303900
N102 N 0.465100 0.953100 0.425080
H103 H 0.484300 0.967900 0.390500
C104 C 0.286700 0.755700 0.406560
H105 H 0.249700 0.677500 0.429000
C106 C 0.148800 0.827000 0.381730
C107 C 0.098400 0.955100 0.401330
H108 H 0.150200 0.999200 0.430000
C109 C -0.027600 1.018300 0.378980
H110 H -0.060800 1.103700 0.392600
C111 C -0.102500 0.953400 0.336590
C112 C -0.058700 0.825600 0.316940
H113 H -0.113200 0.781400 0.289100
C114 C 0.067500 0.763200 0.339080
H115 H 0.098900 0.677300 0.325400
C116 C 0.391700 0.694700 0.364140
C117 C 0.485600 0.582300 0.367940
C118 C 0.574400 0.581900 0.318810
C119 C 0.693400 0.496400 0.298700
H120 H 0.728100 0.420700 0.319200
C121 C 0.756300 0.530200 0.247100
H122 H 0.834700 0.476000 0.233500
C123 C 0.706400 0.640000 0.215900
H124 H 0.750000 0.657200 0.181400
C125 C 0.594500 0.724700 0.234200
H126 H 0.561000 0.799700 0.213000
C127 C 0.531900 0.694700 0.286100
C128 C 0.495100 0.482700 0.415300
H129 H 0.421900 0.507300 0.443000
H130 H 0.593600 0.486700 0.431400
H131 H 0.475800 0.389800 0.402200
C132 C 0.371100 0.849800 0.445380
C133 C 0.364800 0.857600 0.501870
C134 C 0.460800 0.971400 0.517750
C135 C 0.499900 1.031100 0.568160
H136 H 0.458100 0.998200 0.601100
C137 C 0.601600 1.140000 0.569100
H138 H 0.630400 1.178800 0.602900
C139 C 0.660400 1.191400 0.520200
H140 H 0.728000 1.265200 0.522000
C141 C 0.623700 1.138300 0.469000
H142 H 0.664100 1.174200 0.436300
C143 C 0.523000 1.028000 0.468750
C144 C 0.277200 0.766400 0.539620
H145 H 0.222800 0.698900 0.518100
H146 H 0.208000 0.822000 0.560700
H147 H 0.344300 0.719100 0.564600
Br148 Br 0.771620 -0.046320 0.804410
N149 N 0.078000 0.236100 0.814860
H150 H 0.121600 0.160900 0.803900
N151 N 0.034900 0.046900 0.925080
H152 H 0.015700 0.032100 0.890500
C153 C 0.213300 0.244300 0.906560
H154 H 0.250300 0.322500 0.929000
C155 C 0.351200 0.173000 0.881730
C156 C 0.401600 0.044900 0.901330
H157 H 0.349800 0.000800 0.930000
C158 C 0.527600 -0.018300 0.878980
H159 H 0.560800 -0.103700 0.892600
C160 C 0.602500 0.046600 0.836590
C161 C 0.558700 0.174400 0.816940
H162 H 0.613200 0.218600 0.789100
C163 C 0.432500 0.236800 0.839080
H164 H 0.401100 0.322700 0.825400
C165 C 0.108300 0.305300 0.864140
C166 C 0.014400 0.417700 0.867940
C167 C -0.074400 0.418100 0.818810
C168 C -0.193400 0.503600 0.798700
H169 H -0.228100 0.579300 0.819200
C170 C -0.256300 0.469800 0.747100
H171 H -0.334700 0.524000 0.733500
C172 C -0.206400 0.360000 0.715900
H173 H -0.250000 0.342800 0.681400
C174 C -0.094500 0.275300 0.734200
H175 H -0.061000 0.200300 0.713000
C176 C -0.031900 0.305300 0.786100
C177 C 0.004900 0.517300 0.915300
H178 H 0.078100 0.492700 0.943000
H179 H -0.093600 0.513300 0.931400
H180 H 0.024200 0.610200 0.902200
C181 C 0.128900 0.150200 0.945380
C182 C 0.135200 0.142400 1.001870
C183 C 0.039200 0.028600 1.017750
C184 C 0.000100 -0.031100 1.068160
H185 H 0.041900 0.001800 1.101100
C186 C -0.101600 -0.140000 1.069100
H187 H -0.130400 -0.178800 1.102900
C188 C -0.160400 -0.191400 1.020200
H189 H -0.228000 -0.265200 1.022000
C190 C -0.123700 -0.138300 0.969000
H191 H -0.164100 -0.174200 0.936300
C192 C -0.023000 -0.028000 0.968750
C193 C 0.222800 0.233600 1.039620
H194 H 0.277200 0.301100 1.018100
H195 H 0.292000 0.178000 1.060700
H196 H 0.155700 0.280900 1.064600

#END
