./KAHHEG10_from_xyz.cif_generated_by_CrystalShift
_symmetry_cell_setting triclinic
_symmetry_space_group_name_H-M 'P 1'
loop_
_symmetry_equiv_pos_site_id
_symmetry_equiv_pos_as_xyz
1 x,y,z
_cell_length_a 6.966000
_cell_length_b 8.915000
_cell_length_c 10.632000
_cell_angle_alpha 100.450000
_cell_angle_beta 108.920000
_cell_angle_gamma 105.090000
_cell_volume 576.957857
loop_
_atom_site_label
_atom_site_type_symbol
_atom_site_fract_x
_atom_site_fract_y
_atom_site_fract_z
P1 P 0.350360 0.304010 0.183170
F2 F 0.322700 0.184000 0.274500
F3 F 0.143700 0.341300 0.190900
F4 F 0.501800 0.450700 0.316700
F5 F 0.374100 0.421100 0.089000
F6 F 0.554000 0.262600 0.172300
F7 F 0.198100 0.157800 0.046500
P8 P 0.649640 0.695990 0.816830
F9 F 0.677300 0.816000 0.725500
F10 F 0.856300 0.658700 0.809100
F11 F 0.498200 0.549300 0.683300
F12 F 0.625900 0.578900 0.911000
F13 F 0.446000 0.737400 0.827700
F14 F 0.801900 0.842200 0.953500
N15 N 0.732500 0.213700 0.761900
N16 N 0.315800 0.012700 0.691100
N17 N 0.921700 0.219000 0.566600
C18 C 0.620900 0.115700 0.632300
C19 C 0.403500 -0.000300 0.597700
C20 C 0.708600 0.115500 0.532600
C21 C 0.951100 0.323900 0.801300
C22 C 0.656200 0.191800 0.872000
C23 C 0.419000 0.151600 0.817600
C24 C 0.100800 -0.095800 0.662800
C25 C 0.956300 0.252400 0.444500
C26 C 0.980100 0.366600 0.676600
H27 H 1.050200 0.271400 0.844800
H28 H 0.974600 0.417500 0.872900
H29 H 0.712300 0.287100 0.941600
H30 H 0.690600 0.105600 0.907900
H31 H 0.351000 0.116800 0.877900
H32 H 0.367800 0.243000 0.798100
H33 H -0.005700 -0.043800 0.628600
H34 H 0.099200 -0.110600 0.749600
H35 H 0.874900 0.319300 0.409200
H36 H 1.106600 0.320200 0.471200
H37 H 1.121100 0.424600 0.697700
H38 H 0.891800 0.434000 0.648000
C39 C 0.291400 -0.115500 0.467400
C40 C 0.596500 0.000300 0.402300
C41 C 0.043700 -0.252400 0.555500
C42 C 0.899200 0.095800 0.337200
N43 N 0.078300 -0.219000 0.433400
C44 C 0.379100 -0.115700 0.367700
N45 N 0.684200 -0.012700 0.308900
H46 H 0.125100 -0.319300 0.590800
H47 H -0.106600 -0.320200 0.528800
H48 H 1.005700 0.043800 0.371400
H49 H 0.900800 0.110600 0.250400
C50 C 0.019900 -0.366600 0.323400
N51 N 0.267500 -0.213700 0.238100
C52 C 0.581000 -0.151600 0.182400
C53 C 0.048900 -0.323900 0.198700
H54 H -0.121100 -0.424600 0.302300
H55 H 0.108200 -0.434000 0.352000
C56 C 0.343800 -0.191800 0.128000
H57 H 0.649000 -0.116800 0.122100
H58 H 0.632200 -0.243000 0.201900
H59 H -0.050200 -0.271400 0.155200
H60 H 0.025400 -0.417500 0.127100
H61 H 0.287700 -0.287100 0.058400
H62 H 0.309400 -0.105600 0.092100
N63 N 0.732500 1.213700 0.761900
N64 N 0.315800 1.012700 0.691100
N65 N 0.921700 1.219000 0.566600
C66 C 0.620900 1.115700 0.632300
C67 C 0.403500 0.999700 0.597700
C68 C 0.708600 1.115500 0.532600
C69 C 0.951100 1.323900 0.801300
C70 C 0.656200 1.191800 0.872000
C71 C 0.419000 1.151600 0.817600
C72 C 0.100800 0.904200 0.662800
C73 C 0.956300 1.252400 0.444500
C74 C 0.980100 1.366600 0.676600
H75 H 1.050200 1.271400 0.844800
H76 H 0.974600 1.417500 0.872900
H77 H 0.712300 1.287100 0.941600
H78 H 0.690600 1.105600 0.907900
H79 H 0.351000 1.116800 0.877900
H80 H 0.367800 1.243000 0.798100
H81 H -0.005700 0.956200 0.628600
H82 H 0.099200 0.889400 0.749600
H83 H 0.874900 1.319300 0.409200
H84 H 1.106600 1.320200 0.471200
H85 H 1.121100 1.424600 0.697700
H86 H 0.891800 1.434000 0.648000
C87 C 0.291400 0.884500 0.467400
C88 C 0.596500 1.000300 0.402300
C89 C 0.043700 0.747600 0.555500
C90 C 0.899200 1.095800 0.337200
N91 N 0.078300 0.781000 0.433400
C92 C 0.379100 0.884300 0.367700
N93 N 0.684200 0.987300 0.308900
H94 H 0.125100 0.680700 0.590800
H95 H -0.106600 0.679800 0.528800
H96 H 1.005700 1.043800 0.371400
H97 H 0.900800 1.110600 0.250400
C98 C 0.019900 0.633400 0.323400
N99 N 0.267500 0.786300 0.238100
C100 C 0.581000 0.848400 0.182400
C101 C 0.048900 0.676100 0.198700
H102 H -0.121100 0.575400 0.302300
H103 H 0.108200 0.566000 0.352000
C104 C 0.343800 0.808200 0.128000
H105 H 0.649000 0.883200 0.122100
H106 H 0.632200 0.757000 0.201900
H107 H -0.050200 0.728600 0.155200
H108 H 0.025400 0.582500 0.127100
H109 H 0.287700 0.712900 0.058400
H110 H 0.309400 0.894400 0.092100

#END
