./KAHHUW_from_xyz.cif_generated_by_CrystalShift
_symmetry_cell_setting triclinic
_symmetry_space_group_name_H-M 'P 1'
loop_
_symmetry_equiv_pos_site_id
_symmetry_equiv_pos_as_xyz
1 x,y,z
_cell_length_a 8.568000
_cell_length_b 6.189000
_cell_length_c 12.375000
_cell_angle_alpha 90.000000
_cell_angle_beta 99.680000
_cell_angle_gamma 90.000000
_cell_volume 646.870486
loop_
_atom_site_label
_atom_site_type_symbol
_atom_site_fract_x
_atom_site_fract_y
_atom_site_fract_z
I1 I 0.132560 -0.500000 0.061380
C2 C 0.231700 -0.252400 0.166300
C3 C 0.388900 -0.188900 0.170800
C4 C 0.448900 -0.034200 0.248900
C5 C 0.357300 0.052600 0.320100
C6 C 0.202800 -0.016400 0.315000
C7 C 0.139500 -0.166700 0.236700
C8 C 0.490000 -0.282500 0.094500
C9 C 0.617600 0.035800 0.261100
C10 C 0.360300 0.407100 0.393300
C11 C 0.147100 -0.015000 0.495600
C12 C 0.790700 0.310500 0.222300
O13 O 0.426800 0.194000 0.398200
O14 O 0.105600 0.061500 0.385300
O15 O -0.011600 -0.235800 0.231800
O16 O 0.631800 0.224700 0.215400
O17 O 0.727200 -0.068600 0.305700
H18 H 0.442500 -0.250600 0.019400
H19 H 0.500700 -0.430100 0.104200
H20 H 0.592400 -0.213300 0.106900
H21 H 0.421700 0.508100 0.355900
H22 H 0.361900 0.468300 0.465800
H23 H 0.254300 0.412200 0.355600
H24 H 0.070700 0.026100 0.538900
H25 H 0.248400 0.045400 0.529300
H26 H 0.157300 -0.167200 0.495100
H27 H 0.787800 0.472100 0.221300
H28 H 0.836400 0.268600 0.161500
H29 H 0.855900 0.271500 0.288500
H30 H -0.054700 -0.168000 0.279200
I31 I 0.867440 0.000000 0.938620
C32 C 0.768300 0.247600 0.833700
C33 C 0.611100 0.311100 0.829200
C34 C 0.551100 0.465800 0.751100
C35 C 0.642700 0.552600 0.679900
C36 C 0.797200 0.483600 0.685000
C37 C 0.860500 0.333300 0.763300
C38 C 0.510000 0.217500 0.905500
C39 C 0.382400 0.535800 0.738900
C40 C 0.639700 0.907100 0.606700
C41 C 0.852900 0.485000 0.504400
C42 C 0.209300 0.810500 0.777700
O43 O 0.573200 0.694000 0.601800
O44 O 0.894400 0.561500 0.614700
O45 O 1.011600 0.264200 0.768200
O46 O 0.368200 0.724700 0.784600
O47 O 0.272800 0.431400 0.694300
H48 H 0.557500 0.249400 0.980600
H49 H 0.499300 0.069900 0.895800
H50 H 0.407600 0.286700 0.893100
H51 H 0.578300 1.008100 0.644100
H52 H 0.638100 0.968300 0.534200
H53 H 0.745700 0.912200 0.644400
H54 H 0.929300 0.526100 0.461100
H55 H 0.751600 0.545400 0.470700
H56 H 0.842700 0.332800 0.504900
H57 H 0.212200 0.972100 0.778700
H58 H 0.163600 0.768600 0.838500
H59 H 0.144100 0.771500 0.711500
H60 H 1.054700 0.332000 0.720800

#END
