./KAHHOT_from_xyz.cif_generated_by_CrystalShift
_symmetry_cell_setting triclinic
_symmetry_space_group_name_H-M 'P 1'
loop_
_symmetry_equiv_pos_site_id
_symmetry_equiv_pos_as_xyz
1 x,y,z
_cell_length_a 12.591000
_cell_length_b 7.647200
_cell_length_c 26.201000
_cell_angle_alpha 90.000000
_cell_angle_beta 102.210000
_cell_angle_gamma 90.000000
_cell_volume 2465.718764
loop_
_atom_site_label
_atom_site_type_symbol
_atom_site_fract_x
_atom_site_fract_y
_atom_site_fract_z
C1 C 0.151150 0.049400 0.194840
C2 C 0.049610 -0.028200 0.183910
H3 H 0.012100 -0.037900 0.149400
C4 C 0.002990 -0.091700 0.223740
H5 H -0.065600 -0.142600 0.215900
C6 C 0.058410 -0.079400 0.274740
H7 H 0.027700 -0.122900 0.301500
C8 C 0.159090 -0.002900 0.286120
H9 H 0.196200 0.005900 0.320700
C10 C 0.205930 0.061200 0.246900
H11 H 0.274400 0.112600 0.255200
C12 C 0.202940 0.112000 0.152250
C13 C 0.142740 0.175600 0.105390
H14 H 0.067600 0.184700 0.100600
C15 C 0.193580 0.225900 0.065470
C16 C 0.359160 0.159500 0.116650
H17 H 0.434400 0.155200 0.121100
C18 C 0.314560 0.104600 0.157300
H19 H 0.358700 0.062800 0.187900
C20 C 0.131240 0.286100 0.013850
C21 C 0.181170 0.388600 -0.018070
H22 H 0.253400 0.421400 -0.006700
C23 C 0.124360 0.442300 -0.066450
H24 H 0.158500 0.512100 -0.087200
C25 C 0.017990 0.393600 -0.084220
H26 H -0.019700 0.429300 -0.117000
C27 C -0.032200 0.291800 -0.053290
H28 H -0.104100 0.257900 -0.065200
C29 C 0.023450 0.239400 -0.004500
H30 H -0.011800 0.171800 0.016300
N31 N 0.302390 0.218800 0.071190
C32 C 0.848850 0.549400 0.305160
C33 C 0.950390 0.471800 0.316090
H34 H 0.987900 0.462100 0.350600
C35 C 0.997010 0.408300 0.276260
H36 H 1.065600 0.357400 0.284100
C37 C 0.941590 0.420600 0.225260
H38 H 0.972300 0.377100 0.198500
C39 C 0.840910 0.497100 0.213880
H40 H 0.803800 0.505900 0.179300
C41 C 0.794070 0.561200 0.253100
H42 H 0.725600 0.612600 0.244800
C43 C 0.797060 0.612000 0.347750
C44 C 0.857260 0.675600 0.394610
H45 H 0.932400 0.684700 0.399400
C46 C 0.806420 0.725900 0.434530
C47 C 0.640840 0.659500 0.383350
H48 H 0.565600 0.655200 0.378900
C49 C 0.685440 0.604600 0.342700
H50 H 0.641300 0.562800 0.312100
C51 C 0.868760 0.786100 0.486150
C52 C 0.818830 0.888600 0.518070
H53 H 0.746600 0.921400 0.506700
C54 C 0.875640 0.942300 0.566450
H55 H 0.841500 1.012100 0.587200
C56 C 0.982010 0.893600 0.584220
H57 H 1.019700 0.929300 0.617000
C58 C 1.032200 0.791800 0.553290
H59 H 1.104100 0.757900 0.565200
C60 C 0.976550 0.739400 0.504500
H61 H 1.011800 0.671800 0.483700
N62 N 0.697610 0.718800 0.428810
C63 C 0.848850 0.950600 0.805160
C64 C 0.950390 1.028200 0.816090
H65 H 0.987900 1.037900 0.850600
C66 C 0.997010 1.091700 0.776260
H67 H 1.065600 1.142600 0.784100
C68 C 0.941590 1.079400 0.725260
H69 H 0.972300 1.122900 0.698500
C70 C 0.840910 1.002900 0.713880
H71 H 0.803800 0.994100 0.679300
C72 C 0.794070 0.938800 0.753100
H73 H 0.725600 0.887400 0.744800
C74 C 0.797060 0.888000 0.847750
C75 C 0.857260 0.824400 0.894610
H76 H 0.932400 0.815300 0.899400
C77 C 0.806420 0.774100 0.934530
C78 C 0.640840 0.840500 0.883350
H79 H 0.565600 0.844800 0.878900
C80 C 0.685440 0.895400 0.842700
H81 H 0.641300 0.937200 0.812100
C82 C 0.868760 0.713900 0.986150
C83 C 0.818830 0.611400 1.018070
H84 H 0.746600 0.578600 1.006700
C85 C 0.875640 0.557700 1.066450
H86 H 0.841500 0.487900 1.087200
C87 C 0.982010 0.606400 1.084220
H88 H 1.019700 0.570700 1.117000
C89 C 1.032200 0.708200 1.053290
H90 H 1.104100 0.742100 1.065200
C91 C 0.976550 0.760600 1.004500
H92 H 1.011800 0.828200 0.983700
N93 N 0.697610 0.781200 0.928810
C94 C 0.151150 0.450600 0.694840
C95 C 0.049610 0.528200 0.683910
H96 H 0.012100 0.537900 0.649400
C97 C 0.002990 0.591700 0.723740
H98 H -0.065600 0.642600 0.715900
C99 C 0.058410 0.579400 0.774740
H100 H 0.027700 0.622900 0.801500
C101 C 0.159090 0.502900 0.786120
H102 H 0.196200 0.494100 0.820700
C103 C 0.205930 0.438800 0.746900
H104 H 0.274400 0.387400 0.755200
C105 C 0.202940 0.388000 0.652250
C106 C 0.142740 0.324400 0.605390
H107 H 0.067600 0.315300 0.600600
C108 C 0.193580 0.274100 0.565470
C109 C 0.359160 0.340500 0.616650
H110 H 0.434400 0.344800 0.621100
C111 C 0.314560 0.395400 0.657300
H112 H 0.358700 0.437200 0.687900
C113 C 0.131240 0.213900 0.513850
C114 C 0.181170 0.111400 0.481930
H115 H 0.253400 0.078600 0.493300
C116 C 0.124360 0.057700 0.433550
H117 H 0.158500 -0.012100 0.412800
C118 C 0.017990 0.106400 0.415780
H119 H -0.019700 0.070700 0.383000
C120 C -0.032200 0.208200 0.446710
H121 H -0.104100 0.242100 0.434800
C122 C 0.023450 0.260600 0.495500
H123 H -0.011800 0.328200 0.516300
N124 N 0.302390 0.281200 0.571190
C125 C 0.634200 0.284500 0.516460
C126 C 0.730420 0.377200 0.520960
H127 H 0.753400 0.411000 0.491000
C128 C 0.792790 0.420300 0.569470
H129 H 0.856300 0.484700 0.571900
C130 C 0.760360 0.367300 0.614140
H131 H 0.802700 0.393900 0.646800
C132 C 0.665280 0.275100 0.610200
H133 H 0.643400 0.239900 0.640300
C134 C 0.602020 0.234400 0.561950
H135 H 0.537500 0.173000 0.559800
C136 C 0.566370 0.242590 0.464420
C137 C 0.612500 0.185800 0.423650
H138 H 0.687400 0.171600 0.429100
C139 C 0.548160 0.150000 0.374830
C140 C 0.395920 0.219900 0.404650
H141 H 0.320800 0.232400 0.398400
C142 C 0.454050 0.258400 0.453950
H143 H 0.418600 0.294500 0.479900
C144 C 0.595370 0.092500 0.330170
C145 C 0.699710 0.139300 0.326530
H146 H 0.742200 0.204900 0.353100
C147 C 0.741870 0.089900 0.283930
H148 H 0.812100 0.122400 0.282000
C149 C 0.679620 -0.007100 0.244480
H150 H 0.707300 -0.039300 0.215600
C151 C 0.576320 -0.056300 0.247790
H152 H 0.534600 -0.123500 0.221400
C153 C 0.534130 -0.006500 0.290050
H154 H 0.463900 -0.039700 0.291700
N155 N 0.439000 0.166210 0.365090
C156 C 0.365800 0.784500 -0.016460
C157 C 0.269580 0.877200 -0.020960
H158 H 0.246600 0.911000 0.009000
C159 C 0.207210 0.920300 -0.069470
H160 H 0.143700 0.984700 -0.071900
C161 C 0.239640 0.867300 -0.114140
H162 H 0.197300 0.893900 -0.146800
C163 C 0.334720 0.775100 -0.110200
H164 H 0.356600 0.739900 -0.140300
C165 C 0.397980 0.734400 -0.061950
H166 H 0.462500 0.673000 -0.059800
C167 C 0.433630 0.742590 0.035580
C168 C 0.387500 0.685800 0.076350
H169 H 0.312600 0.671600 0.070900
C170 C 0.451840 0.650000 0.125170
C171 C 0.604080 0.719900 0.095350
H172 H 0.679200 0.732400 0.101600
C173 C 0.545950 0.758400 0.046050
H174 H 0.581400 0.794500 0.020100
C175 C 0.404630 0.592500 0.169830
C176 C 0.300290 0.639300 0.173470
H177 H 0.257800 0.704900 0.146900
C178 C 0.258130 0.589900 0.216070
H179 H 0.187900 0.622400 0.218000
C180 C 0.320380 0.492900 0.255520
H181 H 0.292700 0.460700 0.284400
C182 C 0.423680 0.443700 0.252210
H183 H 0.465400 0.376500 0.278600
C184 C 0.465870 0.493500 0.209950
H185 H 0.536100 0.460300 0.208300
N186 N 0.561000 0.666210 0.134910
C187 C 0.365800 0.715500 0.483540
C188 C 0.269580 0.622800 0.479040
H189 H 0.246600 0.589000 0.509000
C190 C 0.207210 0.579700 0.430530
H191 H 0.143700 0.515300 0.428100
C192 C 0.239640 0.632700 0.385860
H193 H 0.197300 0.606100 0.353200
C194 C 0.334720 0.724900 0.389800
H195 H 0.356600 0.760100 0.359700
C196 C 0.397980 0.765600 0.438050
H197 H 0.462500 0.827000 0.440200
C198 C 0.433630 0.757410 0.535580
C199 C 0.387500 0.814200 0.576350
H200 H 0.312600 0.828400 0.570900
C201 C 0.451840 0.850000 0.625170
C202 C 0.604080 0.780100 0.595350
H203 H 0.679200 0.767600 0.601600
C204 C 0.545950 0.741600 0.546050
H205 H 0.581400 0.705500 0.520100
C206 C 0.404630 0.907500 0.669830
C207 C 0.300290 0.860700 0.673470
H208 H 0.257800 0.795100 0.646900
C209 C 0.258130 0.910100 0.716070
H210 H 0.187900 0.877600 0.718000
C211 C 0.320380 1.007100 0.755520
H212 H 0.292700 1.039300 0.784400
C213 C 0.423680 1.056300 0.752210
H214 H 0.465400 1.123500 0.778600
C215 C 0.465870 1.006500 0.709950
H216 H 0.536100 1.039700 0.708300
N217 N 0.561000 0.833790 0.634910
C218 C 0.634200 0.215500 1.016460
C219 C 0.730420 0.122800 1.020960
H220 H 0.753400 0.089000 0.991000
C221 C 0.792790 0.079700 1.069470
H222 H 0.856300 0.015300 1.071900
C223 C 0.760360 0.132700 1.114140
H224 H 0.802700 0.106100 1.146800
C225 C 0.665280 0.224900 1.110200
H226 H 0.643400 0.260100 1.140300
C227 C 0.602020 0.265600 1.061950
H228 H 0.537500 0.327000 1.059800
C229 C 0.566370 0.257410 0.964420
C230 C 0.612500 0.314200 0.923650
H231 H 0.687400 0.328400 0.929100
C232 C 0.548160 0.350000 0.874830
C233 C 0.395920 0.280100 0.904650
H234 H 0.320800 0.267600 0.898400
C235 C 0.454050 0.241600 0.953950
H236 H 0.418600 0.205500 0.979900
C237 C 0.595370 0.407500 0.830170
C238 C 0.699710 0.360700 0.826530
H239 H 0.742200 0.295100 0.853100
C240 C 0.741870 0.410100 0.783930
H241 H 0.812100 0.377600 0.782000
C242 C 0.679620 0.507100 0.744480
H243 H 0.707300 0.539300 0.715600
C244 C 0.576320 0.556300 0.747790
H245 H 0.534600 0.623500 0.721400
C246 C 0.534130 0.506500 0.790050
H247 H 0.463900 0.539700 0.791700
N248 N 0.439000 0.333790 0.865090

#END
