
#######################################################################
#
#                 Cambridge Crystallographic Data Centre
#                                CCDC 
#
#######################################################################
#
# If this CIF has been generated from an entry in the Cambridge 
# Structural Database, then it will include bibliographic, chemical, 
# crystal, experimental, refinement or atomic coordinate data resulting 
# from the CCDC's data processing and validation procedures.
#
#######################################################################

data_KAHHOT
_symmetry_cell_setting           monoclinic
_symmetry_space_group_name_H-M   'P 21/c'
_symmetry_Int_Tables_number      14
_space_group_name_Hall           '-P 2ybc'
loop_
_symmetry_equiv_pos_site_id
_symmetry_equiv_pos_as_xyz
1 x,y,z
2 -x,1/2+y,1/2-z
3 -x,-y,-z
4 x,1/2-y,1/2+z
_cell_length_a                   12.591(2)
_cell_length_b                   7.6472(13)
_cell_length_c                   26.201(4)
_cell_angle_alpha                90
_cell_angle_beta                 102.210(2)
_cell_angle_gamma                90
_cell_volume                     2465.72
loop_
_atom_site_label
_atom_site_type_symbol
_atom_site_fract_x
_atom_site_fract_y
_atom_site_fract_z
C1 C 0.15115(12) 0.0494(2) 0.19484(6)
C2 C 0.04961(13) -0.0282(2) 0.18391(6)
H1 H 0.0121 -0.0379 0.1494
C3 C 0.00299(16) -0.0917(3) 0.22374(8)
H2 H -0.0656 -0.1426 0.2159
C4 C 0.05841(18) -0.0794(3) 0.27474(8)
H3 H 0.0277 -0.1229 0.3015
C5 C 0.15909(18) -0.0029(3) 0.28612(7)
H4 H 0.1962 0.0059 0.3207
C6 C 0.20593(14) 0.0612(2) 0.24690(6)
H5 H 0.2744 0.1126 0.2552
C7 C 0.20294(12) 0.1120(2) 0.15225(6)
C8 C 0.14274(12) 0.1756(2) 0.10539(6)
H6 H 0.0676 0.1847 0.1006
C9 C 0.19358(12) 0.2259(2) 0.06547(6)
C10 C 0.35916(14) 0.1595(3) 0.11665(7)
H7 H 0.4344 0.1552 0.1211
C11 C 0.31456(13) 0.1046(3) 0.15730(7)
H8 H 0.3587 0.0628 0.1879
C12 C 0.13124(12) 0.2861(2) 0.01385(6)
C13 C 0.18117(15) 0.3886(2) -0.01807(6)
H9 H 0.2534 0.4214 -0.0067
C14 C 0.12436(18) 0.4423(3) -0.06645(7)
H10 H 0.1585 0.5121 -0.0872
C15 C 0.01799(17) 0.3936(3) -0.08422(7)
H11 H -0.0197 0.4293 -0.1170
C16 C -0.03220(16) 0.2918(3) -0.05329(7)
H12 H -0.1041 0.2579 -0.0652
C17 C 0.02345(14) 0.2394(2) -0.00450(6)
H13 H -0.0118 0.1718 0.0163
N1 N 0.30239(11) 0.2188(2) 0.07119(5)
C1 C 0.84885(12) 0.5494(2) 0.30516(6)
C2 C 0.95039(13) 0.4718(2) 0.31609(6)
H1 H 0.9879 0.4621 0.3506
C3 C 0.99701(16) 0.4083(3) 0.27626(8)
H2 H 1.0656 0.3574 0.2841
C4 C 0.94159(18) 0.4206(3) 0.22526(8)
H3 H 0.9723 0.3771 0.1985
C5 C 0.84091(18) 0.4971(3) 0.21388(7)
H4 H 0.8038 0.5059 0.1793
C6 C 0.79407(14) 0.5612(2) 0.25310(6)
H5 H 0.7256 0.6126 0.2448
C7 C 0.79706(12) 0.6120(2) 0.34775(6)
C8 C 0.85726(12) 0.6756(2) 0.39461(6)
H6 H 0.9324 0.6847 0.3994
C9 C 0.80642(12) 0.7259(2) 0.43453(6)
C10 C 0.64084(14) 0.6595(3) 0.38335(7)
H7 H 0.5656 0.6552 0.3789
C11 C 0.68544(13) 0.6046(3) 0.34270(7)
H8 H 0.6413 0.5628 0.3121
C12 C 0.86876(12) 0.7861(2) 0.48615(6)
C13 C 0.81883(15) 0.8886(2) 0.51807(6)
H9 H 0.7466 0.9214 0.5067
C14 C 0.87564(18) 0.9423(3) 0.56645(7)
H10 H 0.8415 1.0121 0.5872
C15 C 0.98201(17) 0.8936(3) 0.58422(7)
H11 H 1.0197 0.9293 0.6170
C16 C 1.03220(16) 0.7918(3) 0.55329(7)
H12 H 1.1041 0.7579 0.5652
C17 C 0.97655(14) 0.7394(2) 0.50450(6)
H13 H 1.0118 0.6718 0.4837
N1 N 0.69761(11) 0.7188(2) 0.42881(5)
C1 C 0.84885(12) 0.9506(2) 0.80516(6)
C2 C 0.95039(13) 1.0282(2) 0.81609(6)
H1 H 0.9879 1.0379 0.8506
C3 C 0.99701(16) 1.0917(3) 0.77626(8)
H2 H 1.0656 1.1426 0.7841
C4 C 0.94159(18) 1.0794(3) 0.72526(8)
H3 H 0.9723 1.1229 0.6985
C5 C 0.84091(18) 1.0029(3) 0.71388(7)
H4 H 0.8038 0.9941 0.6793
C6 C 0.79407(14) 0.9388(2) 0.75310(6)
H5 H 0.7256 0.8874 0.7448
C7 C 0.79706(12) 0.8880(2) 0.84775(6)
C8 C 0.85726(12) 0.8244(2) 0.89461(6)
H6 H 0.9324 0.8153 0.8994
C9 C 0.80642(12) 0.7741(2) 0.93453(6)
C10 C 0.64084(14) 0.8405(3) 0.88335(7)
H7 H 0.5656 0.8448 0.8789
C11 C 0.68544(13) 0.8954(3) 0.84270(7)
H8 H 0.6413 0.9372 0.8121
C12 C 0.86876(12) 0.7139(2) 0.98615(6)
C13 C 0.81883(15) 0.6114(2) 1.01807(6)
H9 H 0.7466 0.5786 1.0067
C14 C 0.87564(18) 0.5577(3) 1.06645(7)
H10 H 0.8415 0.4879 1.0872
C15 C 0.98201(17) 0.6064(3) 1.08422(7)
H11 H 1.0197 0.5707 1.1170
C16 C 1.03220(16) 0.7082(3) 1.05329(7)
H12 H 1.1041 0.7421 1.0652
C17 C 0.97655(14) 0.7606(2) 1.00450(6)
H13 H 1.0118 0.8282 0.9837
N1 N 0.69761(11) 0.7812(2) 0.92881(5)
C1 C 0.15115(12) 0.4506(2) 0.69484(6)
C2 C 0.04961(13) 0.5282(2) 0.68391(6)
H1 H 0.0121 0.5379 0.6494
C3 C 0.00299(16) 0.5917(3) 0.72374(8)
H2 H -0.0656 0.6426 0.7159
C4 C 0.05841(18) 0.5794(3) 0.77474(8)
H3 H 0.0277 0.6229 0.8015
C5 C 0.15909(18) 0.5029(3) 0.78612(7)
H4 H 0.1962 0.4941 0.8207
C6 C 0.20593(14) 0.4388(2) 0.74690(6)
H5 H 0.2744 0.3874 0.7552
C7 C 0.20294(12) 0.3880(2) 0.65225(6)
C8 C 0.14274(12) 0.3244(2) 0.60539(6)
H6 H 0.0676 0.3153 0.6006
C9 C 0.19358(12) 0.2741(2) 0.56547(6)
C10 C 0.35916(14) 0.3405(3) 0.61665(7)
H7 H 0.4344 0.3448 0.6211
C11 C 0.31456(13) 0.3954(3) 0.65730(7)
H8 H 0.3587 0.4372 0.6879
C12 C 0.13124(12) 0.2139(2) 0.51385(6)
C13 C 0.18117(15) 0.1114(2) 0.48193(6)
H9 H 0.2534 0.0786 0.4933
C14 C 0.12436(18) 0.0577(3) 0.43355(7)
H10 H 0.1585 -0.0121 0.4128
C15 C 0.01799(17) 0.1064(3) 0.41578(7)
H11 H -0.0197 0.0707 0.3830
C16 C -0.03220(16) 0.2082(3) 0.44671(7)
H12 H -0.1041 0.2421 0.4348
C17 C 0.02345(14) 0.2606(2) 0.49550(6)
H13 H -0.0118 0.3282 0.5163
N1 N 0.30239(11) 0.2812(2) 0.57119(5)
C18 C 0.63420(12) 0.2845(2) 0.51646(6)
C19 C 0.73042(13) 0.3772(2) 0.52096(6)
H14 H 0.7534 0.4110 0.4910
C20 C 0.79279(13) 0.4203(2) 0.56947(6)
H15 H 0.8563 0.4847 0.5719
C21 C 0.76036(14) 0.3673(2) 0.61414(6)
H16 H 0.8027 0.3939 0.6468
C22 C 0.66528(14) 0.2751(3) 0.61020(6)
H17 H 0.6434 0.2399 0.6403
C23 C 0.60202(13) 0.2344(2) 0.56195(6)
H18 H 0.5375 0.1730 0.5598
C24 C 0.56637(12) 0.24259(19) 0.46442(6)
C25 C 0.61250(12) 0.1858(2) 0.42365(5)
H19 H 0.6874 0.1716 0.4291
C26 C 0.54816(12) 0.1500(2) 0.37483(6)
C27 C 0.39592(13) 0.2199(3) 0.40465(7)
H20 H 0.3208 0.2324 0.3984
C28 C 0.45405(13) 0.2584(2) 0.45395(6)
H21 H 0.4186 0.2945 0.4799
C29 C 0.59537(12) 0.0925(2) 0.33017(5)
C30 C 0.69971(14) 0.1393(2) 0.32653(6)
H22 H 0.7422 0.2049 0.3531
C31 C 0.74187(16) 0.0899(3) 0.28393(7)
H23 H 0.8121 0.1224 0.2820
C32 C 0.67962(17) -0.0071(3) 0.24448(7)
H24 H 0.7073 -0.0393 0.2156
C33 C 0.57632(16) -0.0563(3) 0.24779(7)
H25 H 0.5346 -0.1235 0.2214
C34 C 0.53413(14) -0.0065(2) 0.29005(6)
H26 H 0.4639 -0.0397 0.2917
N2 N 0.43900(10) 0.16621(19) 0.36509(5)
C18 C 0.36580(12) 0.7845(2) -0.01646(6)
C19 C 0.26958(13) 0.8772(2) -0.02096(6)
H14 H 0.2466 0.9110 0.0090
C20 C 0.20721(13) 0.9203(2) -0.06947(6)
H15 H 0.1437 0.9847 -0.0719
C21 C 0.23964(14) 0.8673(2) -0.11414(6)
H16 H 0.1973 0.8939 -0.1468
C22 C 0.33472(14) 0.7751(3) -0.11020(6)
H17 H 0.3566 0.7399 -0.1403
C23 C 0.39798(13) 0.7344(2) -0.06195(6)
H18 H 0.4625 0.6730 -0.0598
C24 C 0.43363(12) 0.74259(19) 0.03558(6)
C25 C 0.38750(12) 0.6858(2) 0.07635(5)
H19 H 0.3126 0.6716 0.0709
C26 C 0.45184(12) 0.6500(2) 0.12517(6)
C27 C 0.60408(13) 0.7199(3) 0.09535(7)
H20 H 0.6792 0.7324 0.1016
C28 C 0.54595(13) 0.7584(2) 0.04605(6)
H21 H 0.5814 0.7945 0.0201
C29 C 0.40463(12) 0.5925(2) 0.16983(5)
C30 C 0.30029(14) 0.6393(2) 0.17347(6)
H22 H 0.2578 0.7049 0.1469
C31 C 0.25813(16) 0.5899(3) 0.21607(7)
H23 H 0.1879 0.6224 0.2180
C32 C 0.32038(17) 0.4929(3) 0.25552(7)
H24 H 0.2927 0.4607 0.2844
C33 C 0.42368(16) 0.4437(3) 0.25221(7)
H25 H 0.4654 0.3765 0.2786
C34 C 0.46587(14) 0.4935(2) 0.20995(6)
H26 H 0.5361 0.4603 0.2083
N2 N 0.56100(10) 0.66621(19) 0.13491(5)
C18 C 0.36580(12) 0.7155(2) 0.48354(6)
C19 C 0.26958(13) 0.6228(2) 0.47904(6)
H14 H 0.2466 0.5890 0.5090
C20 C 0.20721(13) 0.5797(2) 0.43053(6)
H15 H 0.1437 0.5153 0.4281
C21 C 0.23964(14) 0.6327(2) 0.38586(6)
H16 H 0.1973 0.6061 0.3532
C22 C 0.33472(14) 0.7249(3) 0.38980(6)
H17 H 0.3566 0.7601 0.3597
C23 C 0.39798(13) 0.7656(2) 0.43805(6)
H18 H 0.4625 0.8270 0.4402
C24 C 0.43363(12) 0.75741(19) 0.53558(6)
C25 C 0.38750(12) 0.8142(2) 0.57635(5)
H19 H 0.3126 0.8284 0.5709
C26 C 0.45184(12) 0.8500(2) 0.62517(6)
C27 C 0.60408(13) 0.7801(3) 0.59535(7)
H20 H 0.6792 0.7676 0.6016
C28 C 0.54595(13) 0.7416(2) 0.54605(6)
H21 H 0.5814 0.7055 0.5201
C29 C 0.40463(12) 0.9075(2) 0.66983(5)
C30 C 0.30029(14) 0.8607(2) 0.67347(6)
H22 H 0.2578 0.7951 0.6469
C31 C 0.25813(16) 0.9101(3) 0.71607(7)
H23 H 0.1879 0.8776 0.7180
C32 C 0.32038(17) 1.0071(3) 0.75552(7)
H24 H 0.2927 1.0393 0.7844
C33 C 0.42368(16) 1.0563(3) 0.75221(7)
H25 H 0.4654 1.1235 0.7786
C34 C 0.46587(14) 1.0065(2) 0.70995(6)
H26 H 0.5361 1.0397 0.7083
N2 N 0.56100(10) 0.83379(19) 0.63491(5)
C18 C 0.63420(12) 0.2155(2) 1.01646(6)
C19 C 0.73042(13) 0.1228(2) 1.02096(6)
H14 H 0.7534 0.0890 0.9910
C20 C 0.79279(13) 0.0797(2) 1.06947(6)
H15 H 0.8563 0.0153 1.0719
C21 C 0.76036(14) 0.1327(2) 1.11414(6)
H16 H 0.8027 0.1061 1.1468
C22 C 0.66528(14) 0.2249(3) 1.11020(6)
H17 H 0.6434 0.2601 1.1403
C23 C 0.60202(13) 0.2656(2) 1.06195(6)
H18 H 0.5375 0.3270 1.0598
C24 C 0.56637(12) 0.25741(19) 0.96442(6)
C25 C 0.61250(12) 0.3142(2) 0.92365(5)
H19 H 0.6874 0.3284 0.9291
C26 C 0.54816(12) 0.3500(2) 0.87483(6)
C27 C 0.39592(13) 0.2801(3) 0.90465(7)
H20 H 0.3208 0.2676 0.8984
C28 C 0.45405(13) 0.2416(2) 0.95395(6)
H21 H 0.4186 0.2055 0.9799
C29 C 0.59537(12) 0.4075(2) 0.83017(5)
C30 C 0.69971(14) 0.3607(2) 0.82653(6)
H22 H 0.7422 0.2951 0.8531
C31 C 0.74187(16) 0.4101(3) 0.78393(7)
H23 H 0.8121 0.3776 0.7820
C32 C 0.67962(17) 0.5071(3) 0.74448(7)
H24 H 0.7073 0.5393 0.7156
C33 C 0.57632(16) 0.5563(3) 0.74779(7)
H25 H 0.5346 0.6235 0.7214
C34 C 0.53413(14) 0.5065(2) 0.79005(6)
H26 H 0.4639 0.5397 0.7917
N2 N 0.43900(10) 0.33379(19) 0.86509(5)

#END
