
#######################################################################
#
#                 Cambridge Crystallographic Data Centre
#                                CCDC 
#
#######################################################################
#
# If this CIF has been generated from an entry in the Cambridge 
# Structural Database, then it will include bibliographic, chemical, 
# crystal, experimental, refinement or atomic coordinate data resulting 
# from the CCDC's data processing and validation procedures.
#
#######################################################################

data_KAHJOU
_symmetry_cell_setting           triclinic
_symmetry_space_group_name_H-M   'P -1'
_symmetry_Int_Tables_number      2
_space_group_name_Hall           '-P 1'
loop_
_symmetry_equiv_pos_site_id
_symmetry_equiv_pos_as_xyz
1 x,y,z
2 -x,-y,-z
_cell_length_a                   7.484(3)
_cell_length_b                   10.621(5)
_cell_length_c                   18.582(8)
_cell_angle_alpha                101.624(7)
_cell_angle_beta                 90.084(7)
_cell_angle_gamma                106.693(7)
_cell_volume                     1383
loop_
_atom_site_label
_atom_site_type_symbol
_atom_site_fract_x
_atom_site_fract_y
_atom_site_fract_z
S1 S 1.19431(14) 0.34306(9) 0.49545(5)
O1 O 0.2684(3) -0.3262(2) 0.05310(13)
O2 O 0.0549(3) -0.2880(2) 0.13302(15)
O3 O 1.1769(3) 0.1185(2) 0.04293(13)
O4 O 1.1452(4) 0.3243(2) 0.05444(16)
C1 C 1.0816(5) 0.3625(3) 0.35771(19)
C2 C 1.0760(5) 0.4368(4) 0.3041(2)
C3 C 1.1410(5) 0.5759(4) 0.3207(2)
C4 C 1.2164(5) 0.6432(4) 0.3910(2)
C5 C 1.2317(5) 0.5720(4) 0.4433(2)
C6 C 1.1674(5) 0.4314(3) 0.4269(2)
C7 C 1.2381(5) 0.2020(3) 0.43769(19)
C8 C 1.3656(5) 0.1445(4) 0.4628(2)
C9 C 1.4073(5) 0.0373(3) 0.4179(2)
C10 C 1.3229(5) -0.0123(3) 0.3468(2)
C11 C 1.1958(5) 0.0434(3) 0.3220(2)
C12 C 1.1478(5) 0.1503(3) 0.36742(19)
C13 C 1.0115(5) 0.2129(3) 0.34303(18)
C14 C 0.8400(5) 0.1416(3) 0.30873(18)
C15 C 0.7669(5) -0.0079(3) 0.28982(19)
C16 C 0.7784(5) -0.0870(4) 0.3402(2)
C17 C 0.7078(5) -0.2259(4) 0.3210(2)
C18 C 0.6266(5) -0.2864(4) 0.2511(2)
C19 C 0.6106(5) -0.2093(3) 0.2012(2)
C20 C 0.6770(5) -0.0683(3) 0.21961(19)
C21 C 0.6622(5) 0.0206(3) 0.16604(19)
C22 C 0.6197(5) 0.1472(3) 0.21034(19)
C23 C 0.4976(5) 0.2073(3) 0.1829(2)
C24 C 0.4570(6) 0.3165(4) 0.2258(2)
C25 C 0.5321(5) 0.3684(3) 0.2969(2)
C26 C 0.6570(5) 0.3117(3) 0.3241(2)
C27 C 0.7040(5) 0.2034(3) 0.28083(19)
C28 C 0.5130(5) -0.0538(4) 0.1025(2)
C29 C 0.3134(5) -0.1038(3) 0.1273(2)
C30 C 0.2155(5) -0.2501(3) 0.0992(2)
C31 C -0.0491(7) -0.4304(4) 0.1128(3)
C32 C 0.8603(5) 0.0602(4) 0.1340(2)
C33 C 0.8851(5) 0.1576(4) 0.0821(2)
C34 C 1.0829(5) 0.1940(4) 0.0582(2)
C35 C 1.3330(7) 0.3676(5) 0.0293(3)
H1 H 1.034(4) 0.395(3) 0.2570(18)
H2 H 1.129(4) 0.627(3) 0.2852(18)
H3 H 1.258(5) 0.741(4) 0.402(2)
H4 H 1.292(5) 0.617(3) 0.491(2)
H5 H 1.432(5) 0.186(3) 0.509(2)
H6 H 1.501(4) 0.003(3) 0.4351(17)
H7 H 1.355(4) -0.086(3) 0.3141(17)
H8 H 1.143(4) 0.012(3) 0.2735(17)
H9 H 0.831(5) -0.049(3) 0.3884(19)
H10 H 0.716(4) -0.279(3) 0.3546(18)
H11 H 0.572(4) -0.386(3) 0.2369(17)
H12 H 0.557(4) -0.251(3) 0.1549(17)
H13 H 0.443(4) 0.175(3) 0.1319(18)
H14 H 0.377(5) 0.354(3) 0.2069(18)
H15 H 0.497(4) 0.442(3) 0.3292(16)
H16 H 0.709(4) 0.346(3) 0.3720(17)
H17 H 0.545(5) -0.131(3) 0.0691(19)
H18 H 0.516(4) 0.009(3) 0.0679(18)
H19 H 0.238(4) -0.056(3) 0.1125(17)
H20 H 0.309(4) -0.086(3) 0.1838(19)
H21 H 0.045(6) -0.475(4) 0.131(2)
H22 H -0.077(5) -0.453(4) 0.058(2)
H23 H -0.162(6) -0.439(4) 0.142(2)
H24 H 0.885(5) -0.028(4) 0.1048(19)
H25 H 0.955(5) 0.099(3) 0.176(2)
H26 H 0.800(5) 0.118(3) 0.035(2)
H27 H 0.848(5) 0.236(4) 0.104(2)
H28 H 1.434(6) 0.340(4) 0.062(2)
H29 H 1.367(5) 0.465(4) 0.0317(19)
H30 H 1.337(5) 0.323(3) -0.024(2)
S1 S -0.19431(14) 0.65694(9) 0.50455(5)
O1 O 0.7316(3) 1.3262(2) 0.94690(13)
O2 O 0.9451(3) 1.2880(2) 0.86698(15)
O3 O -0.1769(3) 0.8815(2) 0.95707(13)
O4 O -0.1452(4) 0.6757(2) 0.94556(16)
C1 C -0.0816(5) 0.6375(3) 0.64229(19)
C2 C -0.0760(5) 0.5632(4) 0.6959(2)
C3 C -0.1410(5) 0.4241(4) 0.6793(2)
C4 C -0.2164(5) 0.3568(4) 0.6090(2)
C5 C -0.2317(5) 0.4280(4) 0.5567(2)
C6 C -0.1674(5) 0.5686(3) 0.5731(2)
C7 C -0.2381(5) 0.7980(3) 0.56231(19)
C8 C -0.3656(5) 0.8555(4) 0.5372(2)
C9 C -0.4073(5) 0.9627(3) 0.5821(2)
C10 C -0.3229(5) 1.0123(3) 0.6532(2)
C11 C -0.1958(5) 0.9566(3) 0.6780(2)
C12 C -0.1478(5) 0.8497(3) 0.63258(19)
C13 C -0.0115(5) 0.7871(3) 0.65697(18)
C14 C 0.1600(5) 0.8584(3) 0.69127(18)
C15 C 0.2331(5) 1.0079(3) 0.71018(19)
C16 C 0.2216(5) 1.0870(4) 0.6598(2)
C17 C 0.2922(5) 1.2259(4) 0.6790(2)
C18 C 0.3734(5) 1.2864(4) 0.7489(2)
C19 C 0.3894(5) 1.2093(3) 0.7988(2)
C20 C 0.3230(5) 1.0683(3) 0.78039(19)
C21 C 0.3378(5) 0.9794(3) 0.83396(19)
C22 C 0.3803(5) 0.8528(3) 0.78966(19)
C23 C 0.5024(5) 0.7927(3) 0.8171(2)
C24 C 0.5430(6) 0.6835(4) 0.7742(2)
C25 C 0.4679(5) 0.6316(3) 0.7031(2)
C26 C 0.3430(5) 0.6883(3) 0.6759(2)
C27 C 0.2960(5) 0.7966(3) 0.71917(19)
C28 C 0.4870(5) 1.0538(4) 0.8975(2)
C29 C 0.6866(5) 1.1038(3) 0.8727(2)
C30 C 0.7845(5) 1.2501(3) 0.9008(2)
C31 C 1.0491(7) 1.4304(4) 0.8872(3)
C32 C 0.1397(5) 0.9398(4) 0.8660(2)
C33 C 0.1149(5) 0.8424(4) 0.9179(2)
C34 C -0.0829(5) 0.8060(4) 0.9418(2)
C35 C -0.3330(7) 0.6324(5) 0.9707(3)
H1 H -0.034(4) 0.605(3) 0.7430(18)
H2 H -0.129(4) 0.373(3) 0.7148(18)
H3 H -0.258(5) 0.259(4) 0.598(2)
H4 H -0.292(5) 0.383(3) 0.509(2)
H5 H -0.432(5) 0.814(3) 0.491(2)
H6 H -0.501(4) 0.997(3) 0.5649(17)
H7 H -0.355(4) 1.086(3) 0.6859(17)
H8 H -0.143(4) 0.988(3) 0.7265(17)
H9 H 0.169(5) 1.049(3) 0.6116(19)
H10 H 0.284(4) 1.279(3) 0.6454(18)
H11 H 0.428(4) 1.386(3) 0.7631(17)
H12 H 0.443(4) 1.251(3) 0.8451(17)
H13 H 0.557(4) 0.825(3) 0.8681(18)
H14 H 0.623(5) 0.646(3) 0.7931(18)
H15 H 0.503(4) 0.558(3) 0.6708(16)
H16 H 0.291(4) 0.654(3) 0.6280(17)
H17 H 0.455(5) 1.131(3) 0.9309(19)
H18 H 0.484(4) 0.991(3) 0.9321(18)
H19 H 0.762(4) 1.056(3) 0.8875(17)
H20 H 0.691(4) 1.086(3) 0.8162(19)
H21 H 0.955(6) 1.475(4) 0.869(2)
H22 H 1.077(5) 1.453(4) 0.942(2)
H23 H 1.162(6) 1.439(4) 0.858(2)
H24 H 0.115(5) 1.028(4) 0.8952(19)
H25 H 0.045(5) 0.901(3) 0.824(2)
H26 H 0.200(5) 0.882(3) 0.965(2)
H27 H 0.152(5) 0.764(4) 0.896(2)
H28 H -0.434(6) 0.660(4) 0.938(2)
H29 H -0.367(5) 0.535(4) 0.9683(19)
H30 H -0.337(5) 0.677(3) 1.024(2)

#END
