
#######################################################################
#
#                 Cambridge Crystallographic Data Centre
#                                CCDC 
#
#######################################################################
#
# If this CIF has been generated from an entry in the Cambridge 
# Structural Database, then it will include bibliographic, chemical, 
# crystal, experimental, refinement or atomic coordinate data resulting 
# from the CCDC's data processing and validation procedures.
#
#######################################################################

data_KAHJEK
_symmetry_cell_setting           triclinic
_symmetry_space_group_name_H-M   'P -1'
_symmetry_Int_Tables_number      2
_space_group_name_Hall           '-P 1'
loop_
_symmetry_equiv_pos_site_id
_symmetry_equiv_pos_as_xyz
1 x,y,z
2 -x,-y,-z
_cell_length_a                   11.4016(5)
_cell_length_b                   11.4271(6)
_cell_length_c                   12.7171(6)
_cell_angle_alpha                64.575(2)
_cell_angle_beta                 89.452(2)
_cell_angle_gamma                73.485(2)
_cell_volume                     1422.51
loop_
_atom_site_label
_atom_site_type_symbol
_atom_site_fract_x
_atom_site_fract_y
_atom_site_fract_z
O1 O 0.50774(7) 0.27533(8) 0.39166(6)
O2 O 0.61875(7) 0.43237(8) 0.15299(7)
O3 O 0.86495(9) -0.20984(9) 0.32167(9)
O4 O 0.40039(8) 0.64347(8) 0.08805(7)
H1 H 0.3338(18) 0.7006(17) 0.0923(15)
O5 O 0.23754(8) 0.73364(8) 0.20670(7)
O6 O 0.29899(10) 0.48517(10) 0.62265(8)
C1 C 0.50900(10) 0.27453(11) 0.27716(9)
C2 C 0.37380(10) 0.29311(11) 0.22911(9)
H2 H 0.3295(12) 0.2766(12) 0.2989(11)
C3 C 0.32297(10) 0.44458(11) 0.13726(9)
H3 H 0.3494(11) 0.4535(12) 0.0613(11)
C4 C 0.40237(10) 0.51444(11) 0.17513(9)
C5 C 0.37501(10) 0.50926(11) 0.29442(9)
C6 C 0.29158(11) 0.61708(11) 0.30885(10)
C7 C 0.26926(12) 0.60670(13) 0.41901(11)
H4 H 0.2192(13) 0.6806(14) 0.4291(12)
C8 C 0.32817(12) 0.48597(13) 0.51807(10)
C9 C 0.40788(11) 0.37559(12) 0.50826(10)
H5 H 0.4493(14) 0.2870(14) 0.5751(13)
C10 C 0.42930(10) 0.38972(11) 0.39582(10)
C11 C 0.52791(10) 0.41123(11) 0.19519(9)
C12 C 0.60693(10) 0.14657(11) 0.29260(9)
C13 C 0.63915(12) 0.03268(13) 0.40013(11)
H6 H 0.5980(16) 0.0382(16) 0.4663(15)
C14 C 0.72621(12) -0.08844(13) 0.41452(11)
H7 H 0.7500(15) -0.1677(16) 0.4899(14)
C15 C 0.77967(11) -0.09602(12) 0.31895(11)
C16 C 0.74717(12) 0.01741(13) 0.20960(11)
H8 H 0.7926(16) 0.0112(16) 0.1446(15)
C17 C 0.66185(11) 0.13776(12) 0.19691(10)
H9 H 0.6431(14) 0.2165(15) 0.1211(14)
C18 C 0.91487(14) -0.32122(14) 0.43374(15)
H10 H 0.8555(18) -0.3661(18) 0.4731(16)
H11 H 0.9780(16) -0.3857(17) 0.4177(14)
H12 H 0.9514(16) -0.2931(17) 0.4865(15)
C19 C 0.36454(10) 0.19206(11) 0.18530(10)
C20 C 0.33618(14) 0.07546(14) 0.26133(12)
H13 H 0.3143(17) 0.0598(17) 0.3368(16)
C21 C 0.33400(18) -0.02456(16) 0.22826(14)
H14 H 0.3154(17) -0.1050(18) 0.2821(16)
C22 C 0.35811(15) -0.00902(15) 0.11723(14)
H15 H 0.3607(17) -0.0831(18) 0.0972(15)
C23 C 0.38447(13) 0.10667(13) 0.03989(12)
H16 H 0.4045(15) 0.1191(15) -0.0386(14)
C24 C 0.38799(11) 0.20625(12) 0.07365(10)
H17 H 0.4127(14) 0.2819(15) 0.0208(13)
C25 C 0.18539(10) 0.51101(12) 0.12198(10)
C26 C 0.12689(13) 0.61260(15) 0.01177(13)
H18 H 0.1765(16) 0.6390(16) -0.0492(15)
C27 C 0.00136(16) 0.6790(2) -0.00543(17)
H19 H -0.033(2) 0.756(2) -0.087(2)
C28 C -0.06785(14) 0.6443(2) 0.08687(18)
H20 H -0.1564(19) 0.6892(18) 0.0769(17)
C29 C -0.01145(14) 0.54469(18) 0.19584(17)
H21 H -0.059(2) 0.519(2) 0.257(2)
C30 C 0.11432(12) 0.47760(14) 0.21433(13)
H22 H 0.1580(15) 0.4069(15) 0.3000(15)
C31 C 0.11665(14) 0.81611(17) 0.20517(15)
H23 H 0.0943(17) 0.8853(19) 0.1262(17)
H24 H 0.060(2) 0.758(2) 0.2328(19)
H25 H 0.1144(18) 0.8565(19) 0.2603(17)
C32 C 0.35488(15) 0.36322(16) 0.72730(12)
H26 H 0.4462(17) 0.3370(15) 0.7343(14)
H27 H 0.3297(16) 0.2891(17) 0.7311(14)
H28 H 0.3280(14) 0.3853(14) 0.7888(14)
O1 O 0.49226(7) 0.72467(8) 0.60834(6)
O2 O 0.38125(7) 0.56763(8) 0.84701(7)
O3 O 0.13505(9) 1.20984(9) 0.67833(9)
O4 O 0.59961(8) 0.35653(8) 0.91195(7)
H1 H 0.6662(18) 0.2994(17) 0.9077(15)
O5 O 0.76246(8) 0.26636(8) 0.79330(7)
O6 O 0.70101(10) 0.51483(10) 0.37735(8)
C1 C 0.49100(10) 0.72547(11) 0.72284(9)
C2 C 0.62620(10) 0.70689(11) 0.77089(9)
H2 H 0.6705(12) 0.7234(12) 0.7011(11)
C3 C 0.67703(10) 0.55542(11) 0.86274(9)
H3 H 0.6506(11) 0.5465(12) 0.9387(11)
C4 C 0.59763(10) 0.48556(11) 0.82487(9)
C5 C 0.62499(10) 0.49074(11) 0.70558(9)
C6 C 0.70842(11) 0.38292(11) 0.69115(10)
C7 C 0.73074(12) 0.39330(13) 0.58099(11)
H4 H 0.7808(13) 0.3194(14) 0.5709(12)
C8 C 0.67183(12) 0.51403(13) 0.48193(10)
C9 C 0.59212(11) 0.62441(12) 0.49174(10)
H5 H 0.5507(14) 0.7130(14) 0.4249(13)
C10 C 0.57070(10) 0.61028(11) 0.60418(10)
C11 C 0.47209(10) 0.58877(11) 0.80481(9)
C12 C 0.39307(10) 0.85343(11) 0.70740(9)
C13 C 0.36085(12) 0.96732(13) 0.59987(11)
H6 H 0.4020(16) 0.9618(16) 0.5337(15)
C14 C 0.27379(12) 1.08844(13) 0.58548(11)
H7 H 0.2500(15) 1.1677(16) 0.5101(14)
C15 C 0.22033(11) 1.09602(12) 0.68105(11)
C16 C 0.25283(12) 0.98259(13) 0.79040(11)
H8 H 0.2074(16) 0.9888(16) 0.8554(15)
C17 C 0.33815(11) 0.86224(12) 0.80309(10)
H9 H 0.3569(14) 0.7835(15) 0.8789(14)
C18 C 0.08513(14) 1.32122(14) 0.56626(15)
H10 H 0.1445(18) 1.3661(18) 0.5269(16)
H11 H 0.0220(16) 1.3857(17) 0.5823(14)
H12 H 0.0486(16) 1.2931(17) 0.5135(15)
C19 C 0.63546(10) 0.80794(11) 0.81470(10)
C20 C 0.66382(14) 0.92454(14) 0.73867(12)
H13 H 0.6857(17) 0.9402(17) 0.6632(16)
C21 C 0.66600(18) 1.02456(16) 0.77174(14)
H14 H 0.6846(17) 1.1050(18) 0.7179(16)
C22 C 0.64189(15) 1.00902(15) 0.88277(14)
H15 H 0.6393(17) 1.0831(18) 0.9028(15)
C23 C 0.61553(13) 0.89333(13) 0.96011(12)
H16 H 0.5955(15) 0.8809(15) 1.0386(14)
C24 C 0.61201(11) 0.79375(12) 0.92635(10)
H17 H 0.5873(14) 0.7181(15) 0.9792(13)
C25 C 0.81461(10) 0.48899(12) 0.87802(10)
C26 C 0.87311(13) 0.38740(15) 0.98823(13)
H18 H 0.8235(16) 0.3610(16) 1.0492(15)
C27 C 0.99864(16) 0.3210(2) 1.00543(17)
H19 H 1.033(2) 0.244(2) 1.087(2)
C28 C 1.06785(14) 0.3557(2) 0.91313(18)
H20 H 1.1564(19) 0.3108(18) 0.9231(17)
C29 C 1.01145(14) 0.45531(18) 0.80416(17)
H21 H 1.059(2) 0.481(2) 0.743(2)
C30 C 0.88568(12) 0.52240(14) 0.78567(13)
H22 H 0.8420(15) 0.5931(15) 0.7000(15)
C31 C 0.88335(14) 0.18389(17) 0.79483(15)
H23 H 0.9057(17) 0.1147(19) 0.8738(17)
H24 H 0.940(2) 0.242(2) 0.7672(19)
H25 H 0.8856(18) 0.1435(19) 0.7397(17)
C32 C 0.64512(15) 0.63678(16) 0.27270(12)
H26 H 0.5538(17) 0.6630(15) 0.2657(14)
H27 H 0.6703(16) 0.7109(17) 0.2689(14)
H28 H 0.6720(14) 0.6147(14) 0.2112(14)

#END
