
#######################################################################
#
#                 Cambridge Crystallographic Data Centre
#                                CCDC 
#
#######################################################################
#
# If this CIF has been generated from an entry in the Cambridge 
# Structural Database, then it will include bibliographic, chemical, 
# crystal, experimental, refinement or atomic coordinate data resulting 
# from the CCDC's data processing and validation procedures.
#
#######################################################################

data_KAHLEK
_symmetry_cell_setting           monoclinic
_symmetry_space_group_name_H-M   'P 21/a'
_symmetry_Int_Tables_number      14
_space_group_name_Hall           '-P 2yab'
loop_
_symmetry_equiv_pos_site_id
_symmetry_equiv_pos_as_xyz
1 x,y,z
2 1/2-x,1/2+y,-z
3 -x,-y,-z
4 1/2+x,1/2-y,z
_cell_length_a                   5.256(1)
_cell_length_b                   33.741(5)
_cell_length_c                   8.706(1)
_cell_angle_alpha                90
_cell_angle_beta                 106.32(2)
_cell_angle_gamma                90
_cell_volume                     1481.74
loop_
_atom_site_label
_atom_site_type_symbol
_atom_site_fract_x
_atom_site_fract_y
_atom_site_fract_z
O1 O 0.2025(3) 0.7043(1) 0.4106(2)
O2 O 0.6361(3) 0.5518(1) 0.5459(2)
C1 C 0.2167(3) 0.6194(1) 0.4248(2)
C2 C 0.4255(4) 0.6891(1) 0.4408(2)
N1 N 0.6420(4) 0.7103(1) 0.4496(2)
C3 C 0.5288(4) 0.6294(1) 0.6496(2)
C4 C 0.3135(4) 0.5972(1) 0.5901(2)
C5 C 0.4647(3) 0.6455(1) 0.4716(2)
C6 C 0.1454(4) 0.5962(1) 0.2707(2)
C7 C 0.4232(4) 0.5565(1) 0.5769(2)
C8 C 0.4950(4) 0.6568(1) 0.7793(2)
C9 C 0.2797(5) 0.6009(1) 0.1552(2)
C10 C 0.6964(5) 0.6602(1) 0.9204(2)
N2 N 0.2737(5) 0.5265(1) 0.5983(3)
C11 C -0.1383(6) 0.5482(1) 0.0993(3)
C12 C -0.0644(5) 0.5698(1) 0.2403(3)
C13 C 0.4484(6) 0.7079(1) 1.0225(3)
C14 C 0.2665(6) 0.6788(1) 0.7653(3)
C15 C 0.6733(6) 0.6853(1) 1.0422(3)
C16 C 0.2045(6) 0.5797(1) 0.0132(3)
C17 C -0.0022(6) 0.5535(1) -0.0147(3)
C18 C 0.2445(5) 0.7044(1) 0.8846(3)
H1 H 0.1819(52) 0.5969(8) 0.6516(25)
H2 H 0.7154(43) 0.6170(7) 0.6879(22)
H3 H 0.8540(64) 0.6451(9) 0.9329(28)
H4 H 0.1253(72) 0.6750(10) 0.6746(36)
H5 H 0.2979(54) 0.5820(8) -0.0626(27)
H6 H -0.0371(59) 0.5382(9) -0.1198(33)
H7 H 0.0952(60) 0.7208(9) 0.8690(30)
H8 H 0.1036(78) 0.5327(11) 0.6013(37)
H9 H 0.3238(82) 0.5049(13) 0.5841(37)
H10 H 0.6047(59) 0.6363(8) 0.4121(28)
H11 H 0.4431(75) 0.7243(11) 1.1091(38)
H12 H 0.0496(66) 0.6344(8) 0.4191(30)
H13 H 0.4442(67) 0.6166(9) 0.1805(34)
H14 H -0.2971(62) 0.5296(9) 0.0754(28)
H15 H -0.1660(60) 0.5670(10) 0.3178(31)
H16 H 0.8316(62) 0.6869(9) 1.1465(31)
H17 H 0.6366(69) 0.7356(11) 0.4335(30)
H18 H 0.7916(77) 0.6988(10) 0.4653(36)
O1 O 0.2975(3) 0.2043(1) 0.5894(2)
O2 O -0.1361(3) 0.0518(1) 0.4541(2)
C1 C 0.2833(3) 0.1194(1) 0.5752(2)
C2 C 0.0745(4) 0.1891(1) 0.5592(2)
N1 N -0.1420(4) 0.2103(1) 0.5504(2)
C3 C -0.0288(4) 0.1294(1) 0.3504(2)
C4 C 0.1865(4) 0.0972(1) 0.4099(2)
C5 C 0.0353(3) 0.1455(1) 0.5284(2)
C6 C 0.3546(4) 0.0962(1) 0.7293(2)
C7 C 0.0768(4) 0.0565(1) 0.4231(2)
C8 C 0.0050(4) 0.1568(1) 0.2207(2)
C9 C 0.2203(5) 0.1009(1) 0.8448(2)
C10 C -0.1964(5) 0.1602(1) 0.0796(2)
N2 N 0.2263(5) 0.0265(1) 0.4017(3)
C11 C 0.6383(6) 0.0482(1) 0.9007(3)
C12 C 0.5644(5) 0.0698(1) 0.7597(3)
C13 C 0.0516(6) 0.2079(1) -0.0225(3)
C14 C 0.2335(6) 0.1788(1) 0.2347(3)
C15 C -0.1733(6) 0.1853(1) -0.0422(3)
C16 C 0.2955(6) 0.0797(1) 0.9868(3)
C17 C 0.5022(6) 0.0535(1) 1.0147(3)
C18 C 0.2555(5) 0.2044(1) 0.1154(3)
H1 H 0.3181(52) 0.0969(8) 0.3484(25)
H2 H -0.2154(43) 0.1170(7) 0.3121(22)
H3 H -0.3540(64) 0.1451(9) 0.0671(28)
H4 H 0.3747(72) 0.1750(10) 0.3254(36)
H5 H 0.2021(54) 0.0820(8) 1.0626(27)
H6 H 0.5371(59) 0.0382(9) 1.1198(33)
H7 H 0.4048(60) 0.2208(9) 0.1310(30)
H8 H 0.3964(78) 0.0327(11) 0.3987(37)
H9 H 0.1762(82) 0.0049(13) 0.4159(37)
H10 H -0.1047(59) 0.1363(8) 0.5879(28)
H11 H 0.0569(75) 0.2243(11) -0.1091(38)
H12 H 0.4504(66) 0.1344(8) 0.5809(30)
H13 H 0.0558(67) 0.1166(9) 0.8195(34)
H14 H 0.7971(62) 0.0296(9) 0.9246(28)
H15 H 0.6660(60) 0.0670(10) 0.6822(31)
H16 H -0.3316(62) 0.1869(9) -0.1465(31)
H17 H -0.1366(69) 0.2356(11) 0.5665(30)
H18 H -0.2916(77) 0.1988(10) 0.5347(36)
O1 O 0.7975(3) 0.2957(1) 0.5894(2)
O2 O 0.3639(3) 0.4482(1) 0.4541(2)
C1 C 0.7833(3) 0.3806(1) 0.5752(2)
C2 C 0.5745(4) 0.3109(1) 0.5592(2)
N1 N 0.3580(4) 0.2897(1) 0.5504(2)
C3 C 0.4712(4) 0.3706(1) 0.3504(2)
C4 C 0.6865(4) 0.4028(1) 0.4099(2)
C5 C 0.5353(3) 0.3545(1) 0.5284(2)
C6 C 0.8546(4) 0.4038(1) 0.7293(2)
C7 C 0.5768(4) 0.4435(1) 0.4231(2)
C8 C 0.5050(4) 0.3432(1) 0.2207(2)
C9 C 0.7203(5) 0.3991(1) 0.8448(2)
C10 C 0.3036(5) 0.3398(1) 0.0796(2)
N2 N 0.7263(5) 0.4735(1) 0.4017(3)
C11 C 1.1383(6) 0.4518(1) 0.9007(3)
C12 C 1.0644(5) 0.4302(1) 0.7597(3)
C13 C 0.5516(6) 0.2921(1) -0.0225(3)
C14 C 0.7335(6) 0.3212(1) 0.2347(3)
C15 C 0.3267(6) 0.3147(1) -0.0422(3)
C16 C 0.7955(6) 0.4203(1) 0.9868(3)
C17 C 1.0022(6) 0.4465(1) 1.0147(3)
C18 C 0.7555(5) 0.2956(1) 0.1154(3)
H1 H 0.8181(52) 0.4031(8) 0.3484(25)
H2 H 0.2846(43) 0.3830(7) 0.3121(22)
H3 H 0.1460(64) 0.3549(9) 0.0671(28)
H4 H 0.8747(72) 0.3250(10) 0.3254(36)
H5 H 0.7021(54) 0.4180(8) 1.0626(27)
H6 H 1.0371(59) 0.4618(9) 1.1198(33)
H7 H 0.9048(60) 0.2792(9) 0.1310(30)
H8 H 0.8964(78) 0.4673(11) 0.3987(37)
H9 H 0.6762(82) 0.4951(13) 0.4159(37)
H10 H 0.3953(59) 0.3637(8) 0.5879(28)
H11 H 0.5569(75) 0.2757(11) -0.1091(38)
H12 H 0.9504(66) 0.3656(8) 0.5809(30)
H13 H 0.5558(67) 0.3834(9) 0.8195(34)
H14 H 1.2971(62) 0.4704(9) 0.9246(28)
H15 H 1.1660(60) 0.4330(10) 0.6822(31)
H16 H 0.1684(62) 0.3131(9) -0.1465(31)
H17 H 0.3634(69) 0.2644(11) 0.5665(30)
H18 H 0.2084(77) 0.3012(10) 0.5347(36)
O1 O 0.7025(3) 0.7957(1) 0.4106(2)
O2 O 1.1361(3) 0.9482(1) 0.5459(2)
C1 C 0.7167(3) 0.8806(1) 0.4248(2)
C2 C 0.9255(4) 0.8109(1) 0.4408(2)
N1 N 1.1420(4) 0.7897(1) 0.4496(2)
C3 C 1.0288(4) 0.8706(1) 0.6496(2)
C4 C 0.8135(4) 0.9028(1) 0.5901(2)
C5 C 0.9647(3) 0.8545(1) 0.4716(2)
C6 C 0.6454(4) 0.9038(1) 0.2707(2)
C7 C 0.9232(4) 0.9435(1) 0.5769(2)
C8 C 0.9950(4) 0.8432(1) 0.7793(2)
C9 C 0.7797(5) 0.8991(1) 0.1552(2)
C10 C 1.1964(5) 0.8398(1) 0.9204(2)
N2 N 0.7737(5) 0.9735(1) 0.5983(3)
C11 C 0.3617(6) 0.9518(1) 0.0993(3)
C12 C 0.4356(5) 0.9302(1) 0.2403(3)
C13 C 0.9484(6) 0.7921(1) 1.0225(3)
C14 C 0.7665(6) 0.8212(1) 0.7653(3)
C15 C 1.1733(6) 0.8147(1) 1.0422(3)
C16 C 0.7045(6) 0.9203(1) 0.0132(3)
C17 C 0.4978(6) 0.9465(1) -0.0147(3)
C18 C 0.7445(5) 0.7956(1) 0.8846(3)
H1 H 0.6819(52) 0.9031(8) 0.6516(25)
H2 H 1.2154(43) 0.8830(7) 0.6879(22)
H3 H 1.3540(64) 0.8549(9) 0.9329(28)
H4 H 0.6253(72) 0.8250(10) 0.6746(36)
H5 H 0.7979(54) 0.9180(8) -0.0626(27)
H6 H 0.4629(59) 0.9618(9) -0.1198(33)
H7 H 0.5952(60) 0.7792(9) 0.8690(30)
H8 H 0.6036(78) 0.9673(11) 0.6013(37)
H9 H 0.8238(82) 0.9951(13) 0.5841(37)
H10 H 1.1047(59) 0.8637(8) 0.4121(28)
H11 H 0.9431(75) 0.7757(11) 1.1091(38)
H12 H 0.5496(66) 0.8656(8) 0.4191(30)
H13 H 0.9442(67) 0.8834(9) 0.1805(34)
H14 H 0.2029(62) 0.9704(9) 0.0754(28)
H15 H 0.3340(60) 0.9330(10) 0.3178(31)
H16 H 1.3316(62) 0.8131(9) 1.1465(31)
H17 H 1.1366(69) 0.7644(11) 0.4335(30)
H18 H 1.2916(77) 0.8012(10) 0.4653(36)

#END
