./KAHLUC_from_xyz.cif_generated_by_CrystalShift
_symmetry_cell_setting triclinic
_symmetry_space_group_name_H-M 'P 1'
loop_
_symmetry_equiv_pos_site_id
_symmetry_equiv_pos_as_xyz
1 x,y,z
_cell_length_a 7.480700
_cell_length_b 30.939000
_cell_length_c 28.603000
_cell_angle_alpha 90.000000
_cell_angle_beta 91.782000
_cell_angle_gamma 90.000000
_cell_volume 6616.830543
loop_
_atom_site_label
_atom_site_type_symbol
_atom_site_fract_x
_atom_site_fract_y
_atom_site_fract_z
Pd1 Pd 0.923780 0.362436 0.157243
C2 C 0.451500 0.352680 0.119560
F3 F 0.493000 0.426320 0.237900
F4 F 0.324000 0.110100 0.120290
F5 F 0.350200 0.413630 0.077600
F6 F 0.575300 0.342280 0.242130
F7 F 1.277300 0.515130 0.233450
F8 F 0.447600 0.330480 0.079400
N9 N 0.938900 0.330280 0.015100
H10 H 0.955000 0.337600 -0.014200
F11 F 0.374800 0.462370 0.155670
F12 F 0.309100 0.154940 -0.037810
F13 F 1.380400 0.263810 0.244740
N14 N 0.873300 0.307750 0.192420
N15 N 0.935100 0.421460 0.128230
N16 N 1.007200 0.387000 0.220320
F17 F 1.246400 0.594980 0.267610
F18 F 1.465900 0.232800 0.404300
C19 C 0.405800 0.395420 0.118000
N20 N 0.541600 0.221020 0.117460
H21 H 0.656200 0.214600 0.118200
F22 F 1.567200 0.224110 0.314180
N23 N 0.700300 0.216100 0.033360
H24 H 0.672900 0.237500 0.052200
F25 F 0.986000 0.319980 0.354400
C26 C 0.521600 0.358520 0.200330
F27 F 1.184300 0.445610 -0.002320
F28 F 1.171000 0.280010 0.423090
C29 C 0.974000 0.463210 0.201830
F30 F 0.085500 0.048700 0.099120
C31 C 0.929700 0.288800 0.031060
C32 C 0.975200 0.292060 0.228530
C33 C 0.902300 0.291520 0.079820
H34 H 0.887400 0.267400 0.099800
C35 C 1.022700 0.430010 0.231900
C36 C 0.265000 0.106960 0.076200
C37 C 0.478200 0.402190 0.199300
F38 F 0.919300 0.631510 0.275720
C39 C 1.110600 0.432810 0.278320
H40 H 1.133100 0.458500 0.295700
F41 F 0.074300 0.092040 -0.058310
C42 C 0.903500 0.494620 0.122900
H43 H 0.895800 0.524200 0.131400
C44 C 1.328600 0.269280 0.289110
C45 C 0.579600 0.287590 0.161510
C46 C 0.900300 0.335020 0.094440
C47 C 0.905400 0.403320 0.045400
C48 C 0.786700 0.238420 0.207240
H49 H 0.728000 0.211300 0.204000
C50 C 0.409800 0.198000 0.093000
C51 C 0.933900 0.459180 0.154170
C52 C 1.084300 0.318100 0.258000
C53 C 0.466700 0.255590 0.140480
C54 C 0.887700 0.478570 0.079000
H55 H 0.867900 0.494700 0.051100
C56 C 1.085500 0.363050 0.256070
C57 C 1.131600 0.296730 0.343600
C58 C 0.836400 0.175560 -0.019300
H59 H 0.918200 0.166000 -0.041800
C60 C 0.453700 0.169990 0.055500
C61 C 1.183200 0.294990 0.297270
F62 F 1.154600 0.471750 -0.091530
C63 C 1.098500 0.572750 0.253800
C64 C 0.934600 0.592710 0.257500
C65 C 0.927700 0.247530 0.237090
H66 H 0.983400 0.228400 0.259100
C67 C 0.515100 0.332640 0.160500
C68 C 0.906500 0.432710 0.082500
C69 C 0.919000 0.359380 0.051710
F70 F 0.846800 0.460670 -0.140410
C71 C 0.281800 0.252400 0.133060
H72 H 0.194800 0.271500 0.145000
C73 C 0.604500 0.177960 0.029700
C74 C 1.112800 0.532010 0.236440
C75 C 0.743100 0.277210 0.181640
C76 C 1.026800 0.439900 -0.025400
C77 C 0.963300 0.507890 0.221260
C78 C 0.696500 0.152970 -0.004200
H79 H 0.663400 0.124800 -0.014400
C80 C 1.153800 0.392240 0.291940
H81 H 1.217300 0.384300 0.319900
C82 C 1.371100 0.252500 0.369800
C83 C 0.247300 0.216350 0.105000
H84 H 0.132100 0.206000 0.095600
C85 C 1.424200 0.248100 0.324500
C86 C 1.223000 0.276400 0.379000
C87 C 0.419500 0.420260 0.157700
C88 C 0.326900 0.134900 0.042900
C89 C 0.887100 0.420400 -0.003700
C90 C 0.139000 0.096400 -0.014000
C91 C 0.842100 0.216870 0.004500
C92 C 0.142200 0.075000 0.065600
C93 C 1.012800 0.454500 -0.070500
C94 C 0.950100 0.252580 0.001000
C95 C 0.260700 0.128850 -0.003100
C96 C 0.859100 0.449000 -0.095100
C97 C 0.713800 0.429200 -0.075800
F98 F 0.558500 0.422200 -0.100100
F99 F 0.649900 0.507950 0.211590
F100 F 1.311000 0.273320 0.019990
F101 F 0.621900 0.588300 0.245750
C102 C 1.085000 0.254960 -0.035900
C103 C 0.801200 0.528740 0.225400
C104 C 0.782900 0.570200 0.242600
C105 C 1.261300 0.265860 -0.024700
F106 F 0.878500 0.239640 -0.098130
F107 F -0.043900 0.039350 0.010250
F108 F 1.558200 0.280880 -0.044170
F109 F 1.128300 0.247030 -0.161760
F110 F 1.471000 0.266020 -0.135910
F111 F 0.589200 0.395640 -0.010430
C112 C 1.173600 0.252000 -0.116600
C113 C 1.046100 0.247200 -0.083200
C114 C 1.390900 0.269100 -0.057100
C115 C 0.079000 0.070400 0.020500
C116 C 0.731000 0.415100 -0.029900
C117 C 1.345200 0.261500 -0.103700
Pd118 Pd 0.076220 0.862436 0.842757
C119 C 0.548500 0.852680 0.880440
F120 F 0.507000 0.926320 0.762100
F121 F 0.676000 0.610100 0.879710
F122 F 0.649800 0.913630 0.922400
F123 F 0.424700 0.842280 0.757870
F124 F -0.277300 1.015130 0.766550
F125 F 0.552400 0.830480 0.920600
N126 N 0.061100 0.830280 0.984900
H127 H 0.045000 0.837600 1.014200
F128 F 0.625200 0.962370 0.844330
F129 F 0.690900 0.654940 1.037810
F130 F -0.380400 0.763810 0.755260
N131 N 0.126700 0.807750 0.807580
N132 N 0.064900 0.921460 0.871770
N133 N -0.007200 0.887000 0.779680
F134 F -0.246400 1.094980 0.732390
F135 F -0.465900 0.732800 0.595700
C136 C 0.594200 0.895420 0.882000
N137 N 0.458400 0.721020 0.882540
H138 H 0.343800 0.714600 0.881800
F139 F -0.567200 0.724110 0.685820
N140 N 0.299700 0.716100 0.966640
H141 H 0.327100 0.737500 0.947800
F142 F 0.014000 0.819980 0.645600
C143 C 0.478400 0.858520 0.799670
F144 F -0.184300 0.945610 1.002320
F145 F -0.171000 0.780010 0.576910
C146 C 0.026000 0.963210 0.798170
F147 F 0.914500 0.548700 0.900880
C148 C 0.070300 0.788800 0.968940
C149 C 0.024800 0.792060 0.771470
C150 C 0.097700 0.791520 0.920180
H151 H 0.112600 0.767400 0.900200
C152 C -0.022700 0.930010 0.768100
C153 C 0.735000 0.606960 0.923800
C154 C 0.521800 0.902190 0.800700
F155 F 0.080700 1.131510 0.724280
C156 C -0.110600 0.932810 0.721680
H157 H -0.133100 0.958500 0.704300
F158 F 0.925700 0.592040 1.058310
C159 C 0.096500 0.994620 0.877100
H160 H 0.104200 1.024200 0.868600
C161 C -0.328600 0.769280 0.710890
C162 C 0.420400 0.787590 0.838490
C163 C 0.099700 0.835020 0.905560
C164 C 0.094600 0.903320 0.954600
C165 C 0.213300 0.738420 0.792760
H166 H 0.272000 0.711300 0.796000
C167 C 0.590200 0.698000 0.907000
C168 C 0.066100 0.959180 0.845830
C169 C -0.084300 0.818100 0.742000
C170 C 0.533300 0.755590 0.859520
C171 C 0.112300 0.978570 0.921000
H172 H 0.132100 0.994700 0.948900
C173 C -0.085500 0.863050 0.743930
C174 C -0.131600 0.796730 0.656400
C175 C 0.163600 0.675560 1.019300
H176 H 0.081800 0.666000 1.041800
C177 C 0.546300 0.669990 0.944500
C178 C -0.183200 0.794990 0.702730
F179 F -0.154600 0.971750 1.091530
C180 C -0.098500 1.072750 0.746200
C181 C 0.065400 1.092710 0.742500
C182 C 0.072300 0.747530 0.762910
H183 H 0.016600 0.728400 0.740900
C184 C 0.484900 0.832640 0.839500
C185 C 0.093500 0.932710 0.917500
C186 C 0.081000 0.859380 0.948290
F187 F 0.153200 0.960670 1.140410
C188 C 0.718200 0.752400 0.866940
H189 H 0.805200 0.771500 0.855000
C190 C 0.395500 0.677960 0.970300
C191 C -0.112800 1.032010 0.763560
C192 C 0.256900 0.777210 0.818360
C193 C -0.026800 0.939900 1.025400
C194 C 0.036700 1.007890 0.778740
C195 C 0.303500 0.652970 1.004200
H196 H 0.336600 0.624800 1.014400
C197 C -0.153800 0.892240 0.708060
H198 H -0.217300 0.884300 0.680100
C199 C -0.371100 0.752500 0.630200
C200 C 0.752700 0.716350 0.895000
H201 H 0.867900 0.706000 0.904400
C202 C -0.424200 0.748100 0.675500
C203 C -0.223000 0.776400 0.621000
C204 C 0.580500 0.920260 0.842300
C205 C 0.673100 0.634900 0.957100
C206 C 0.112900 0.920400 1.003700
C207 C 0.861000 0.596400 1.014000
C208 C 0.157900 0.716870 0.995500
C209 C 0.857800 0.575000 0.934400
C210 C -0.012800 0.954500 1.070500
C211 C 0.049900 0.752580 0.999000
C212 C 0.739300 0.628850 1.003100
C213 C 0.140900 0.949000 1.095100
C214 C 0.286200 0.929200 1.075800
F215 F 0.441500 0.922200 1.100100
F216 F 0.350100 1.007950 0.788410
F217 F -0.311000 0.773320 0.980010
F218 F 0.378100 1.088300 0.754250
C219 C -0.085000 0.754960 1.035900
C220 C 0.198800 1.028740 0.774600
C221 C 0.217100 1.070200 0.757400
C222 C -0.261300 0.765860 1.024700
F223 F 0.121500 0.739640 1.098130
F224 F 1.043900 0.539350 0.989750
F225 F -0.558200 0.780880 1.044170
F226 F -0.128300 0.747030 1.161760
F227 F -0.471000 0.766020 1.135910
F228 F 0.410800 0.895640 1.010430
C229 C -0.173600 0.752000 1.116600
C230 C -0.046100 0.747200 1.083200
C231 C -0.390900 0.769100 1.057100
C232 C 0.921000 0.570400 0.979500
C233 C 0.269000 0.915100 1.029900
C234 C -0.345200 0.761500 1.103700
Pd235 Pd 0.329490 0.805900 0.366264
C236 C -0.190100 0.823800 0.306800
F237 F -0.024500 0.864410 0.417390
F238 F -0.145900 0.721860 0.365200
F239 F -0.256700 0.753220 0.282560
F240 F 0.697400 0.641690 0.391720
N241 N 0.341100 0.812140 0.295790
F242 F 0.482700 0.486020 0.324920
F243 F 0.837100 0.505300 0.332220
N244 N 0.280700 0.807670 0.435140
F245 F 0.238200 0.542010 0.353010
F246 F 0.349100 0.937610 0.503670
F247 F -0.211300 0.659300 0.598090
F248 F -0.005600 0.708520 0.236120
F249 F 0.524300 0.981330 0.571750
N250 N 0.410900 0.868500 0.374090
C251 C 0.412900 0.553530 0.356900
F252 F 0.236400 0.618870 0.122740
C253 C 0.304900 0.705110 0.232530
F254 F -0.540900 0.514610 0.531180
N255 N 0.339300 0.675350 0.327170
H256 H 0.357900 0.655000 0.306400
C257 C -0.339000 0.572750 0.520400
N258 N 0.092000 0.638040 0.447570
H259 H 0.063500 0.663900 0.436900
F260 F -0.121900 0.893990 0.332950
F261 F -0.317000 0.558040 0.477130
C262 C -0.013200 0.773600 0.439910
C263 C 0.304800 0.741720 0.361080
C264 C -0.126500 0.743540 0.462280
F265 F -0.052300 0.652050 0.164540
F266 F 0.823100 0.838270 0.499590
F267 F -0.238000 0.838760 0.264540
C268 C 0.640900 0.603480 0.374870
F269 F 0.569200 0.641390 0.152920
C270 C 0.228600 0.613240 0.430590
C271 C 0.137700 0.692370 0.216300
F272 F 0.850700 0.954340 0.603950
C273 C 0.384600 0.828130 0.467560
C274 C -0.081600 0.791860 0.395300
F275 F 0.615500 0.696680 0.224600
F276 F 0.940600 0.584620 0.364270
C277 C 0.296100 0.799890 0.218130
H278 H 0.277600 0.785200 0.189200
C279 C 0.556200 0.927730 0.404900
H280 H 0.619000 0.946300 0.426100
C281 C 0.318000 0.736110 0.272700
F282 F 0.999000 0.882800 0.567080
C283 C -0.183100 0.680130 0.496680
C284 C 0.258700 0.647430 0.158300
C285 C 0.197900 0.787110 0.508290
H286 H 0.138900 0.772200 0.532400
C287 C -0.137100 0.635700 0.505960
C288 C -0.312700 0.737230 0.460810
H289 H -0.399100 0.756100 0.446800
N290 N -0.052200 0.709390 0.486330
H291 H 0.062100 0.706600 0.494000
C292 C 0.490800 0.863990 0.457760
C293 C 0.767700 0.574890 0.361500
C294 C 0.583800 0.887080 0.497800
C295 C 0.426100 0.898550 0.340200
C296 C -0.143500 0.765030 0.359200
C297 C 0.748000 0.873690 0.516700
C298 C 0.320400 0.668240 0.373830
C299 C 0.306100 0.843500 0.224100
H300 H 0.294000 0.864900 0.200400
C301 C -0.199900 0.779800 0.315800
C302 C 0.598300 0.946160 0.553500
C303 C 0.535600 0.524400 0.341820
C304 C 0.152600 0.785390 0.458870
C305 C 0.491700 0.885000 0.414590
C306 C 0.838300 0.896100 0.550900
C307 C 0.761800 0.932800 0.569500
C308 C 0.449500 0.686990 0.210600
F309 F -0.595000 0.541960 0.619750
C310 C 0.318100 0.780250 0.263020
C311 C 0.099900 0.577270 0.489600
H312 H 0.075000 0.555900 0.512300
C313 C -0.081800 0.835680 0.384400
C314 C 0.325200 0.719220 0.316960
C315 C -0.134000 0.851720 0.341200
C316 C 0.329700 0.625570 0.393350
F317 F -0.425000 0.614250 0.653210
C318 C -0.401900 0.601000 0.609100
C319 C -0.291400 0.624200 0.580900
C320 C 0.229200 0.574620 0.458200
H321 H 0.308400 0.550900 0.454800
C322 C 0.341200 0.814140 0.513970
H323 H 0.400200 0.822100 0.542600
C324 C -0.485800 0.564300 0.592600
C325 C 0.510200 0.936560 0.359500
H326 H 0.530100 0.963000 0.343500
C327 C 0.113800 0.663670 0.179600
C328 C -0.347900 0.699180 0.483200
H329 H -0.463000 0.687700 0.488600
C330 C 0.377300 0.891450 0.293400
C331 C 0.298900 0.709400 0.394560
H332 H 0.282600 0.714200 0.427000
C333 C 0.426500 0.658400 0.173400
C334 C 0.004900 0.617460 0.483390
C335 C 0.459500 0.594470 0.374130
C336 C 0.512100 0.923350 0.517940
C337 C 0.714800 0.533740 0.345200
C338 C 0.226900 0.957000 0.260200
C339 C 0.374700 0.930860 0.262600
C340 C -0.455100 0.549800 0.547700
F341 F 0.082900 0.946950 0.283100
C342 C -0.253900 0.609980 0.535700
C343 C 0.338800 0.850930 0.273330
F344 F 0.368700 1.044580 0.186820
F345 F 0.665600 0.920310 0.239200
F346 F 0.079100 1.020620 0.233400
C347 C 0.367900 1.007700 0.211900
C348 C 0.516900 0.943900 0.237900
C349 C 0.224000 0.996600 0.235300
F350 F 0.662000 0.992640 0.187700
C351 C 0.515300 0.981500 0.212200
Pd352 Pd 0.670510 0.305900 0.633736
C353 C 1.190100 0.323800 0.693200
F354 F 1.024500 0.364410 0.582610
F355 F 1.145900 0.221860 0.634800
F356 F 1.256700 0.253220 0.717440
F357 F 0.302600 0.141690 0.608280
N358 N 0.658900 0.312140 0.704210
F359 F 0.517300 -0.013980 0.675080
F360 F 0.162900 0.005300 0.667780
N361 N 0.719300 0.307670 0.564860
F362 F 0.761800 0.042010 0.646990
F363 F 0.650900 0.437610 0.496330
F364 F 1.211300 0.159300 0.401910
F365 F 1.005600 0.208520 0.763880
F366 F 0.475700 0.481330 0.428250
N367 N 0.589100 0.368500 0.625910
C368 C 0.587100 0.053530 0.643100
F369 F 0.763600 0.118870 0.877260
C370 C 0.695100 0.205110 0.767470
F371 F 1.540900 0.014610 0.468820
N372 N 0.660700 0.175350 0.672830
H373 H 0.642100 0.155000 0.693600
C374 C 1.339000 0.072750 0.479600
N375 N 0.908000 0.138040 0.552430
H376 H 0.936500 0.163900 0.563100
F377 F 1.121900 0.393990 0.667050
F378 F 1.317000 0.058040 0.522870
C379 C 1.013200 0.273600 0.560090
C380 C 0.695200 0.241720 0.638920
C381 C 1.126500 0.243540 0.537720
F382 F 1.052300 0.152050 0.835460
F383 F 0.176900 0.338270 0.500410
F384 F 1.238000 0.338760 0.735460
C385 C 0.359100 0.103480 0.625130
F386 F 0.430800 0.141390 0.847080
C387 C 0.771400 0.113240 0.569410
C388 C 0.862300 0.192370 0.783700
F389 F 0.149300 0.454340 0.396050
C390 C 0.615400 0.328130 0.532440
C391 C 1.081600 0.291860 0.604700
F392 F 0.384500 0.196680 0.775400
F393 F 0.059400 0.084620 0.635730
C394 C 0.703900 0.299890 0.781870
H395 H 0.722400 0.285200 0.810800
C396 C 0.443800 0.427730 0.595100
H397 H 0.381000 0.446300 0.573900
C398 C 0.682000 0.236110 0.727300
F399 F 0.001000 0.382800 0.432920
C400 C 1.183100 0.180130 0.503320
C401 C 0.741300 0.147430 0.841700
C402 C 0.802100 0.287110 0.491710
H403 H 0.861100 0.272200 0.467600
C404 C 1.137100 0.135700 0.494040
C405 C 1.312700 0.237230 0.539190
H406 H 1.399100 0.256100 0.553200
N407 N 1.052200 0.209390 0.513670
H408 H 0.937900 0.206600 0.506000
C409 C 0.509200 0.363990 0.542240
C410 C 0.232300 0.074890 0.638500
C411 C 0.416200 0.387080 0.502200
C412 C 0.573900 0.398550 0.659800
C413 C 1.143500 0.265030 0.640800
C414 C 0.252000 0.373690 0.483300
C415 C 0.679600 0.168240 0.626170
C416 C 0.693900 0.343500 0.775900
H417 H 0.706000 0.364900 0.799600
C418 C 1.199900 0.279800 0.684200
C419 C 0.401700 0.446160 0.446500
C420 C 0.464400 0.024400 0.658180
C421 C 0.847400 0.285390 0.541130
C422 C 0.508300 0.385000 0.585410
C423 C 0.161700 0.396100 0.449100
C424 C 0.238200 0.432800 0.430500
C425 C 0.550500 0.186990 0.789400
F426 F 1.595000 0.041960 0.380250
C427 C 0.681900 0.280250 0.736980
C428 C 0.900100 0.077270 0.510400
H429 H 0.925000 0.055900 0.487700
C430 C 1.081800 0.335680 0.615600
C431 C 0.674800 0.219220 0.683040
C432 C 1.134000 0.351720 0.658800
C433 C 0.670300 0.125570 0.606650
F434 F 1.425000 0.114250 0.346790
C435 C 1.401900 0.101000 0.390900
C436 C 1.291400 0.124200 0.419100
C437 C 0.770800 0.074620 0.541800
H438 H 0.691600 0.050900 0.545200
C439 C 0.658800 0.314140 0.486030
H440 H 0.599800 0.322100 0.457400
C441 C 1.485800 0.064300 0.407400
C442 C 0.489800 0.436560 0.640500
H443 H 0.469900 0.463000 0.656500
C444 C 0.886200 0.163670 0.820400
C445 C 1.347900 0.199180 0.516800
H446 H 1.463000 0.187700 0.511400
C447 C 0.622700 0.391450 0.706600
C448 C 0.701100 0.209400 0.605440
H449 H 0.717400 0.214200 0.573000
C450 C 0.573500 0.158400 0.826600
C451 C 0.995100 0.117460 0.516610
C452 C 0.540500 0.094470 0.625870
C453 C 0.487900 0.423350 0.482060
C454 C 0.285200 0.033740 0.654800
C455 C 0.773100 0.457000 0.739800
C456 C 0.625300 0.430860 0.737400
C457 C 1.455100 0.049800 0.452300
F458 F 0.917100 0.446950 0.716900
C459 C 1.253900 0.109980 0.464300
C460 C 0.661200 0.350930 0.726670
F461 F 0.631300 0.544580 0.813180
F462 F 0.334400 0.420310 0.760800
F463 F 0.920900 0.520620 0.766600
C464 C 0.632100 0.507700 0.788100
C465 C 0.483100 0.443900 0.762100
C466 C 0.776000 0.496600 0.764700
F467 F 0.338000 0.492640 0.812300
C468 C 0.484700 0.481500 0.787800
N469 N 0.485100 0.357800 0.379270
C470 C 0.593400 0.375000 0.358900
C471 C 0.730700 0.397200 0.333500
H472 H 0.676400 0.420700 0.315100
H473 H 0.788500 0.376800 0.312600
H474 H 0.820100 0.409100 0.355800
N475 N 0.514900 0.857800 0.620730
C476 C 0.406600 0.875000 0.641100
C477 C 0.269300 0.897200 0.666500
H478 H 0.323600 0.920700 0.684900
H479 H 0.211500 0.876800 0.687400
H480 H 0.179900 0.909100 0.644200
C481 C 0.835600 0.865400 0.163700
H482 H 0.833000 0.896900 0.167900
H483 H 0.896700 0.852000 0.190800
H484 H 0.712900 0.854400 0.160700
C485 C 0.931100 0.855100 0.121400
N486 N 0.998200 0.847400 0.088500
C487 C 0.164400 0.365400 0.836300
H488 H 0.167000 0.396900 0.832100
H489 H 0.103300 0.352000 0.809200
H490 H 0.287100 0.354400 0.839300
C491 C 0.068900 0.355100 0.878600
N492 N 0.001800 0.347400 0.911500
N493 N 0.858500 0.157900 0.122700
C494 C 0.811800 0.125000 0.130100
C495 C 0.742400 0.081300 0.139400
H496 H 0.612100 0.082600 0.141800
H497 H 0.795800 0.070400 0.168800
H498 H 0.773100 0.062000 0.113800
N499 N 0.141500 0.657900 0.877300
C500 C 0.188200 0.625000 0.869900
C501 C 0.257600 0.581300 0.860600
H502 H 0.387900 0.582600 0.858200
H503 H 0.204200 0.570400 0.831200
H504 H 0.226900 0.562000 0.886200
C505 C 0.463400 0.525900 0.016700
C506 C 0.394400 0.521200 0.064600
H507 H 0.289800 0.502200 0.063600
H508 H 0.360200 0.549700 0.076500
H509 H 0.487700 0.508800 0.085300
N510 N 0.514100 0.528900 -0.019600
C511 C 0.536600 0.025900 0.983300
C512 C 0.605600 0.021200 0.935400
H513 H 0.710200 0.002200 0.936400
H514 H 0.639800 0.049700 0.923500
H515 H 0.512300 0.008800 0.914700
N516 N 0.485900 0.028900 1.019600
N517 N 0.736800 0.178600 0.457200
C518 C 0.781800 0.168300 0.416000
C519 C 0.825600 0.146100 0.368500
H520 H 0.851000 0.115400 0.373900
H521 H 0.930300 0.160000 0.355300
H522 H 0.722800 0.148900 0.346600
N523 N 0.263200 0.678600 0.542800
C524 C 0.218200 0.668300 0.584000
C525 C 0.174400 0.646100 0.631500
H526 H 0.149000 0.615400 0.626100
H527 H 0.069700 0.660000 0.644700
H528 H 0.277200 0.648900 0.653400
C529 C 0.074300 0.962600 0.410700
H530 H 0.199400 0.953100 0.411500
H531 H 0.001400 0.942000 0.392400
H532 H 0.031100 0.964100 0.442600
C533 C 0.062000 1.002300 0.390500
N534 N 0.053000 1.038800 0.378000
C535 C 0.925700 0.462600 0.589300
H536 H 0.800600 0.453100 0.588500
H537 H 0.998600 0.442000 0.607600
H538 H 0.968900 0.464100 0.557400
C539 C 0.938000 0.502300 0.609500
N540 N 0.947000 0.538800 0.622000
C541 C 0.398000 0.147900 0.227800
C542 C 0.208000 0.151600 0.227800
H543 H 0.173200 0.180500 0.216900
H544 H 0.166900 0.147200 0.259600
H545 H 0.154700 0.129800 0.206900
N546 N 0.571000 0.133900 0.231300
C547 C 0.602000 0.647900 0.772200
C548 C 0.792000 0.651600 0.772200
H549 H 0.826800 0.680500 0.783100
H550 H 0.833100 0.647200 0.740400
H551 H 0.845300 0.629800 0.793100
N552 N 0.429000 0.633900 0.768700

#END
