
#######################################################################
#
#                 Cambridge Crystallographic Data Centre
#                                CCDC 
#
#######################################################################
#
# If this CIF has been generated from an entry in the Cambridge 
# Structural Database, then it will include bibliographic, chemical, 
# crystal, experimental, refinement or atomic coordinate data resulting 
# from the CCDC's data processing and validation procedures.
#
#######################################################################

data_KAHLOX
_symmetry_cell_setting           hexagonal
_symmetry_space_group_name_H-M   'P 65'
_symmetry_Int_Tables_number      170
_space_group_name_Hall           'P 65'
loop_
_symmetry_equiv_pos_site_id
_symmetry_equiv_pos_as_xyz
1 x,y,z
2 x-y,x,5/6+z
3 y,-x+y,1/6+z
4 -y,x-y,2/3+z
5 -x+y,-x,1/3+z
6 -x,-y,1/2+z
_cell_length_a                   28.2798(11)
_cell_length_b                   28.2798(11)
_cell_length_c                   5.9321(3)
_cell_angle_alpha                90
_cell_angle_beta                 90
_cell_angle_gamma                120
_cell_volume                     4108.58
loop_
_atom_site_label
_atom_site_type_symbol
_atom_site_fract_x
_atom_site_fract_y
_atom_site_fract_z
O1 O 0.94824(12) 0.05613(12) 1.1387(6)
H1 H 0.9358 0.0247 1.0844
C1 C 0.90053(17) 0.15832(17) 1.1106(8)
H2 H 0.8650 0.1378 1.1895
H3 H 0.9184 0.1968 1.1618
C2 C 0.93679(17) 0.13390(17) 1.1727(8)
H4 H 0.9742 0.1578 1.1147
H5 H 0.9389 0.1319 1.3387
C3 C 0.91391(17) 0.07770(17) 1.0739(7)
H6 H 0.8768 0.0538 1.1397
C4 C 0.90819(17) 0.07819(17) 0.8195(7)
H7 H 0.9447 0.1001 0.7504
H8 H 0.8917 0.0404 0.7609
C5 C 0.87271(16) 0.10221(16) 0.7555(7)
C6 C 0.82857(17) 0.07560(18) 0.6236(8)
H9 H 0.8217 0.0418 0.5613
C7 C 0.79034(17) 0.09404(18) 0.5676(8)
H10 H 0.7904 0.1205 0.6661
C8 C 0.75547(17) 0.07869(19) 0.3971(8)
C9 C 0.74990(18) 0.0385(2) 0.2157(8)
H11 H 0.7655 0.0162 0.2725
H12 H 0.7716 0.0591 0.0828
C10 C 0.89088(17) 0.15606(18) 0.8618(7)
C11 C 0.6911(2) 0.0003(2) 0.1415(9)
H13 H 0.6914 -0.0190 0.0027
H14 H 0.6721 -0.0276 0.2601
C12 C 0.65906(19) 0.0294(2) 0.0965(8)
H15 H 0.6207 0.0020 0.0615
H16 H 0.6747 0.0534 -0.0366
C13 C 0.66036(17) 0.06363(19) 0.2987(8)
C14 C 0.72173(17) 0.10494(19) 0.3453(8)
H17 H 0.7367 0.1257 0.2017
C15 C 0.72060(19) 0.1454(2) 0.5122(9)
H18 H 0.7545 0.1813 0.5027
H19 H 0.7160 0.1316 0.6687
C16 C 0.6707(2) 0.1493(2) 0.4358(11)
H20 H 0.6827 0.1857 0.3699
H21 H 0.6468 0.1441 0.5663
C17 C 0.6393(2) 0.1042(2) 0.2574(9)
H22 H 0.6524 0.1210 0.1053
C18 C 0.6327(2) 0.0278(2) 0.5026(9)
H23 H 0.5962 -0.0015 0.4603
H24 H 0.6297 0.0499 0.6227
H25 H 0.6545 0.0119 0.5561
C19 C 0.90097(19) 0.20003(19) 0.7403(9)
H26 H 0.8965 0.1973 0.5813
H27 H 0.9126 0.2340 0.8132
C20 C 0.5771(2) 0.0823(2) 0.2671(10)
H28 H 0.5643 0.0671 0.4216
C21 C 0.5450(2) 0.0363(3) 0.0980(10)
H29 H 0.5064 0.0262 0.1023
H30 H 0.5485 0.0046 0.1373
H31 H 0.5595 0.0488 -0.0540
C22 C 0.5653(3) 0.1287(3) 0.2333(14)
H32 H 0.5651 0.1358 0.0700
H33 H 0.5946 0.1623 0.3043
C23 C 0.5074(3) 0.1144(4) 0.341(2)
H34 H 0.4780 0.0823 0.2622
H35 H 0.5067 0.1043 0.5014
C24 C 0.4965(3) 0.1580(4) 0.3276(15)
H36 H 0.4980 0.1684 0.1673
H37 H 0.5258 0.1898 0.4082
C25 C 0.4420(3) 0.1458(4) 0.4243(14)
H38 H 0.4131 0.1104 0.3592
C26 C 0.4298(4) 0.1901(4) 0.3534(17)
H39 H 0.3990 0.1868 0.4413
H40 H 0.4206 0.1861 0.1926
H41 H 0.4620 0.2260 0.3802
C27 C 0.4391(3) 0.1406(3) 0.6793(15)
H42 H 0.4454 0.1108 0.7246
H43 H 0.4030 0.1327 0.7310
H44 H 0.4672 0.1749 0.7467
O1 O 0.89211(17) 0.94824(12) 0.9720(6)
H1 H 0.9111 0.9358 0.9177
C1 C 0.74221(24) 0.90053(17) 0.9439(8)
H2 H 0.7272 0.8650 1.0228
H3 H 0.7216 0.9184 0.9951
C2 C 0.80289(24) 0.93679(17) 1.0060(8)
H4 H 0.8164 0.9742 0.9480
H5 H 0.8070 0.9389 1.1720
C3 C 0.83621(24) 0.91391(17) 0.9072(7)
H6 H 0.8230 0.8768 0.9730
C4 C 0.83000(24) 0.90819(17) 0.6528(7)
H7 H 0.8446 0.9447 0.5837
H8 H 0.8513 0.8917 0.5942
C5 C 0.77050(23) 0.87271(16) 0.5888(7)
C6 C 0.75297(25) 0.82857(17) 0.4569(8)
H9 H 0.7799 0.8217 0.3946
C7 C 0.69630(25) 0.79034(17) 0.4009(8)
H10 H 0.6699 0.7904 0.4994
C8 C 0.67678(25) 0.75547(17) 0.2304(8)
C9 C 0.71140(27) 0.74990(18) 0.0490(8)
H11 H 0.7493 0.7655 0.1058
H12 H 0.7125 0.7716 -0.0839
C10 C 0.73482(25) 0.89088(17) 0.6951(7)
C11 C 0.6908(3) 0.6911(2) -0.0252(9)
H13 H 0.7104 0.6914 -0.1640
H14 H 0.6997 0.6721 0.0934
C12 C 0.62966(28) 0.65906(19) -0.0702(8)
H15 H 0.6187 0.6207 -0.1052
H16 H 0.6213 0.6747 -0.2033
C13 C 0.59673(25) 0.66036(17) 0.1320(8)
C14 C 0.61679(25) 0.72173(17) 0.1786(8)
H17 H 0.6110 0.7367 0.0350
C15 C 0.57520(28) 0.72060(19) 0.3455(9)
H18 H 0.5732 0.7545 0.3360
H19 H 0.5844 0.7160 0.5020
C16 C 0.5214(3) 0.6707(2) 0.2691(11)
H20 H 0.4970 0.6827 0.2032
H21 H 0.5027 0.6468 0.3996
C17 C 0.5351(3) 0.6393(2) 0.0907(9)
H22 H 0.5314 0.6524 -0.0614
C18 C 0.6049(3) 0.6327(2) 0.3359(9)
H23 H 0.5977 0.5962 0.2936
H24 H 0.5798 0.6297 0.4560
H25 H 0.6426 0.6545 0.3894
C19 C 0.70094(27) 0.90097(19) 0.5736(9)
H26 H 0.6992 0.8965 0.4146
H27 H 0.6786 0.9126 0.6465
C20 C 0.4948(3) 0.5771(2) 0.1004(10)
H28 H 0.4972 0.5643 0.2549
C21 C 0.5087(4) 0.5450(2) -0.0687(10)
H29 H 0.4802 0.5064 -0.0644
H30 H 0.5439 0.5485 -0.0294
H31 H 0.5107 0.5595 -0.2207
C22 C 0.4366(4) 0.5653(3) 0.0666(14)
H32 H 0.4293 0.5651 -0.0967
H33 H 0.4323 0.5946 0.1376
C23 C 0.3930(5) 0.5074(3) 0.174(2)
H34 H 0.3957 0.4780 0.0955
H35 H 0.4024 0.5067 0.3347
C24 C 0.3385(5) 0.4965(3) 0.1609(15)
H36 H 0.3296 0.4980 0.0006
H37 H 0.3360 0.5258 0.2415
C25 C 0.2962(5) 0.4420(3) 0.2576(14)
H38 H 0.3027 0.4131 0.1925
C26 C 0.2397(6) 0.4298(4) 0.1867(17)
H39 H 0.2122 0.3990 0.2746
H40 H 0.2345 0.4206 0.0259
H41 H 0.2360 0.4620 0.2135
C27 C 0.2985(4) 0.4391(3) 0.5126(15)
H42 H 0.3346 0.4454 0.5579
H43 H 0.2703 0.4030 0.5643
H44 H 0.2923 0.4672 0.5800
O1 O 0.05613(12) 0.10789(17) 1.3054(6)
H1 H 0.0247 0.0889 1.2511
C1 C 0.15832(17) 0.25779(24) 1.2773(8)
H2 H 0.1378 0.2728 1.3562
H3 H 0.1968 0.2784 1.3285
C2 C 0.13390(17) 0.19711(24) 1.3394(8)
H4 H 0.1578 0.1836 1.2814
H5 H 0.1319 0.1930 1.5054
C3 C 0.07770(17) 0.16379(24) 1.2406(7)
H6 H 0.0538 0.1770 1.3064
C4 C 0.07819(17) 0.17000(24) 0.9862(7)
H7 H 0.1001 0.1554 0.9171
H8 H 0.0404 0.1487 0.9276
C5 C 0.10221(16) 0.22950(23) 0.9222(7)
C6 C 0.07560(18) 0.24703(25) 0.7903(8)
H9 H 0.0418 0.2201 0.7280
C7 C 0.09404(18) 0.30370(25) 0.7343(8)
H10 H 0.1205 0.3301 0.8328
C8 C 0.07869(19) 0.32322(25) 0.5638(8)
C9 C 0.0385(2) 0.28860(27) 0.3824(8)
H11 H 0.0162 0.2507 0.4392
H12 H 0.0591 0.2875 0.2495
C10 C 0.15606(18) 0.26518(25) 1.0285(7)
C11 C 0.0003(2) 0.3092(3) 0.3082(9)
H13 H -0.0190 0.2896 0.1694
H14 H -0.0276 0.3003 0.4268
C12 C 0.0294(2) 0.37034(28) 0.2632(8)
H15 H 0.0020 0.3813 0.2282
H16 H 0.0534 0.3787 0.1301
C13 C 0.06363(19) 0.40327(25) 0.4654(8)
C14 C 0.10494(19) 0.38321(25) 0.5120(8)
H17 H 0.1257 0.3890 0.3684
C15 C 0.1454(2) 0.42480(28) 0.6789(9)
H18 H 0.1813 0.4268 0.6694
H19 H 0.1316 0.4156 0.8354
C16 C 0.1493(2) 0.4786(3) 0.6025(11)
H20 H 0.1857 0.5030 0.5366
H21 H 0.1441 0.4973 0.7330
C17 C 0.1042(2) 0.4649(3) 0.4241(9)
H22 H 0.1210 0.4686 0.2720
C18 C 0.0278(2) 0.3951(3) 0.6693(9)
H23 H -0.0015 0.4023 0.6270
H24 H 0.0499 0.4202 0.7894
H25 H 0.0119 0.3574 0.7228
C19 C 0.20003(19) 0.29906(27) 0.9070(9)
H26 H 0.1973 0.3008 0.7480
H27 H 0.2340 0.3214 0.9799
C20 C 0.0823(2) 0.5052(3) 0.4338(10)
H28 H 0.0671 0.5028 0.5883
C21 C 0.0363(3) 0.4913(4) 0.2647(10)
H29 H 0.0262 0.5198 0.2690
H30 H 0.0046 0.4561 0.3040
H31 H 0.0488 0.4893 0.1127
C22 C 0.1287(3) 0.5634(4) 0.4000(14)
H32 H 0.1358 0.5707 0.2367
H33 H 0.1623 0.5677 0.4710
C23 C 0.1144(4) 0.6070(5) 0.508(2)
H34 H 0.0823 0.6043 0.4289
H35 H 0.1043 0.5976 0.6681
C24 C 0.1580(4) 0.6615(5) 0.4943(15)
H36 H 0.1684 0.6704 0.3340
H37 H 0.1898 0.6640 0.5749
C25 C 0.1458(4) 0.7038(5) 0.5910(14)
H38 H 0.1104 0.6973 0.5259
C26 C 0.1901(4) 0.7603(6) 0.5201(17)
H39 H 0.1868 0.7878 0.6080
H40 H 0.1861 0.7655 0.3593
H41 H 0.2260 0.7640 0.5469
C27 C 0.1406(3) 0.7015(4) 0.8460(15)
H42 H 0.1108 0.6654 0.8913
H43 H 0.1327 0.7297 0.8977
H44 H 0.1749 0.7077 0.9134
O1 O 0.94387(12) 0.89211(17) 0.8054(6)
H1 H 0.9753 0.9111 0.7511
C1 C 0.84168(17) 0.74221(24) 0.7773(8)
H2 H 0.8622 0.7272 0.8562
H3 H 0.8032 0.7216 0.8285
C2 C 0.86610(17) 0.80289(24) 0.8394(8)
H4 H 0.8422 0.8164 0.7814
H5 H 0.8681 0.8070 1.0054
C3 C 0.92230(17) 0.83621(24) 0.7406(7)
H6 H 0.9462 0.8230 0.8064
C4 C 0.92181(17) 0.83000(24) 0.4862(7)
H7 H 0.8999 0.8446 0.4171
H8 H 0.9596 0.8513 0.4276
C5 C 0.89779(16) 0.77050(23) 0.4222(7)
C6 C 0.92440(18) 0.75297(25) 0.2903(8)
H9 H 0.9582 0.7799 0.2280
C7 C 0.90596(18) 0.69630(25) 0.2343(8)
H10 H 0.8795 0.6699 0.3328
C8 C 0.92131(19) 0.67678(25) 0.0638(8)
C9 C 0.9615(2) 0.71140(27) -0.1176(8)
H11 H 0.9838 0.7493 -0.0608
H12 H 0.9409 0.7125 -0.2505
C10 C 0.84394(18) 0.73482(25) 0.5285(7)
C11 C 0.9997(2) 0.6908(3) -0.1918(9)
H13 H 1.0190 0.7104 -0.3306
H14 H 1.0276 0.6997 -0.0732
C12 C 0.9706(2) 0.62966(28) -0.2368(8)
H15 H 0.9980 0.6187 -0.2718
H16 H 0.9466 0.6213 -0.3699
C13 C 0.93637(19) 0.59673(25) -0.0346(8)
C14 C 0.89506(19) 0.61679(25) 0.0120(8)
H17 H 0.8743 0.6110 -0.1316
C15 C 0.8546(2) 0.57520(28) 0.1789(9)
H18 H 0.8187 0.5732 0.1694
H19 H 0.8684 0.5844 0.3354
C16 C 0.8507(2) 0.5214(3) 0.1025(11)
H20 H 0.8143 0.4970 0.0366
H21 H 0.8559 0.5027 0.2330
C17 C 0.8958(2) 0.5351(3) -0.0759(9)
H22 H 0.8790 0.5314 -0.2280
C18 C 0.9722(2) 0.6049(3) 0.1693(9)
H23 H 1.0015 0.5977 0.1270
H24 H 0.9501 0.5798 0.2894
H25 H 0.9881 0.6426 0.2228
C19 C 0.79997(19) 0.70094(27) 0.4070(9)
H26 H 0.8027 0.6992 0.2480
H27 H 0.7660 0.6786 0.4799
C20 C 0.9177(2) 0.4948(3) -0.0662(10)
H28 H 0.9329 0.4972 0.0883
C21 C 0.9637(3) 0.5087(4) -0.2353(10)
H29 H 0.9738 0.4802 -0.2310
H30 H 0.9954 0.5439 -0.1960
H31 H 0.9512 0.5107 -0.3873
C22 C 0.8713(3) 0.4366(4) -0.1000(14)
H32 H 0.8642 0.4293 -0.2633
H33 H 0.8377 0.4323 -0.0290
C23 C 0.8856(4) 0.3930(5) 0.008(2)
H34 H 0.9177 0.3957 -0.0711
H35 H 0.8957 0.4024 0.1681
C24 C 0.8420(4) 0.3385(5) -0.0057(15)
H36 H 0.8316 0.3296 -0.1660
H37 H 0.8102 0.3360 0.0749
C25 C 0.8542(4) 0.2962(5) 0.0910(14)
H38 H 0.8896 0.3027 0.0259
C26 C 0.8099(4) 0.2397(6) 0.0201(17)
H39 H 0.8132 0.2122 0.1080
H40 H 0.8139 0.2345 -0.1407
H41 H 0.7740 0.2360 0.0469
C27 C 0.8594(3) 0.2985(4) 0.3460(15)
H42 H 0.8892 0.3346 0.3913
H43 H 0.8673 0.2703 0.3977
H44 H 0.8251 0.2923 0.4134
O1 O 0.10789(17) 0.05176(12) 1.4720(6)
H1 H 0.0889 0.0642 1.4177
C1 C 0.25779(24) 0.09947(17) 1.4439(8)
H2 H 0.2728 0.1350 1.5228
H3 H 0.2784 0.0816 1.4951
C2 C 0.19711(24) 0.06321(17) 1.5060(8)
H4 H 0.1836 0.0258 1.4480
H5 H 0.1930 0.0611 1.6720
C3 C 0.16379(24) 0.08609(17) 1.4072(7)
H6 H 0.1770 0.1232 1.4730
C4 C 0.17000(24) 0.09181(17) 1.1528(7)
H7 H 0.1554 0.0553 1.0837
H8 H 0.1487 0.1083 1.0942
C5 C 0.22950(23) 0.12729(16) 1.0888(7)
C6 C 0.24703(25) 0.17143(17) 0.9569(8)
H9 H 0.2201 0.1783 0.8946
C7 C 0.30370(25) 0.20966(17) 0.9009(8)
H10 H 0.3301 0.2096 0.9994
C8 C 0.32322(25) 0.24453(17) 0.7304(8)
C9 C 0.28860(27) 0.25010(18) 0.5490(8)
H11 H 0.2507 0.2345 0.6058
H12 H 0.2875 0.2284 0.4161
C10 C 0.26518(25) 0.10912(17) 1.1951(7)
C11 C 0.3092(3) 0.3089(2) 0.4748(9)
H13 H 0.2896 0.3086 0.3360
H14 H 0.3003 0.3279 0.5934
C12 C 0.37034(28) 0.34094(19) 0.4298(8)
H15 H 0.3813 0.3793 0.3948
H16 H 0.3787 0.3253 0.2967
C13 C 0.40327(25) 0.33964(17) 0.6320(8)
C14 C 0.38321(25) 0.27827(17) 0.6786(8)
H17 H 0.3890 0.2633 0.5350
C15 C 0.42480(28) 0.27940(19) 0.8455(9)
H18 H 0.4268 0.2455 0.8360
H19 H 0.4156 0.2840 1.0020
C16 C 0.4786(3) 0.3293(2) 0.7691(11)
H20 H 0.5030 0.3173 0.7032
H21 H 0.4973 0.3532 0.8996
C17 C 0.4649(3) 0.3607(2) 0.5907(9)
H22 H 0.4686 0.3476 0.4386
C18 C 0.3951(3) 0.3673(2) 0.8359(9)
H23 H 0.4023 0.4038 0.7936
H24 H 0.4202 0.3703 0.9560
H25 H 0.3574 0.3455 0.8894
C19 C 0.29906(27) 0.09903(19) 1.0736(9)
H26 H 0.3008 0.1035 0.9146
H27 H 0.3214 0.0874 1.1465
C20 C 0.5052(3) 0.4229(2) 0.6004(10)
H28 H 0.5028 0.4357 0.7549
C21 C 0.4913(4) 0.4550(2) 0.4313(10)
H29 H 0.5198 0.4936 0.4356
H30 H 0.4561 0.4515 0.4706
H31 H 0.4893 0.4405 0.2793
C22 C 0.5634(4) 0.4347(3) 0.5666(14)
H32 H 0.5707 0.4349 0.4033
H33 H 0.5677 0.4054 0.6376
C23 C 0.6070(5) 0.4926(3) 0.674(2)
H34 H 0.6043 0.5220 0.5955
H35 H 0.5976 0.4933 0.8347
C24 C 0.6615(5) 0.5035(3) 0.6609(15)
H36 H 0.6704 0.5020 0.5006
H37 H 0.6640 0.4742 0.7415
C25 C 0.7038(5) 0.5580(3) 0.7576(14)
H38 H 0.6973 0.5869 0.6925
C26 C 0.7603(6) 0.5702(4) 0.6867(17)
H39 H 0.7878 0.6010 0.7746
H40 H 0.7655 0.5794 0.5259
H41 H 0.7640 0.5380 0.7135
C27 C 0.7015(4) 0.5609(3) 1.0126(15)
H42 H 0.6654 0.5546 1.0579
H43 H 0.7297 0.5970 1.0643
H44 H 0.7077 0.5328 1.0800
O1 O 0.05176(12) 0.94387(12) 0.6387(6)
H1 H 0.0642 0.9753 0.5844
C1 C 0.09947(17) 0.84168(17) 0.6106(8)
H2 H 0.1350 0.8622 0.6895
H3 H 0.0816 0.8032 0.6618
C2 C 0.06321(17) 0.86610(17) 0.6727(8)
H4 H 0.0258 0.8422 0.6147
H5 H 0.0611 0.8681 0.8387
C3 C 0.08609(17) 0.92230(17) 0.5739(7)
H6 H 0.1232 0.9462 0.6397
C4 C 0.09181(17) 0.92181(17) 0.3195(7)
H7 H 0.0553 0.8999 0.2504
H8 H 0.1083 0.9596 0.2609
C5 C 0.12729(16) 0.89779(16) 0.2555(7)
C6 C 0.17143(17) 0.92440(18) 0.1236(8)
H9 H 0.1783 0.9582 0.0613
C7 C 0.20966(17) 0.90596(18) 0.0676(8)
H10 H 0.2096 0.8795 0.1661
C8 C 0.24453(17) 0.92131(19) -0.1029(8)
C9 C 0.25010(18) 0.9615(2) -0.2843(8)
H11 H 0.2345 0.9838 -0.2275
H12 H 0.2284 0.9409 -0.4172
C10 C 0.10912(17) 0.84394(18) 0.3618(7)
C11 C 0.3089(2) 0.9997(2) -0.3585(9)
H13 H 0.3086 1.0190 -0.4973
H14 H 0.3279 1.0276 -0.2399
C12 C 0.34094(19) 0.9706(2) -0.4035(8)
H15 H 0.3793 0.9980 -0.4385
H16 H 0.3253 0.9466 -0.5366
C13 C 0.33964(17) 0.93637(19) -0.2013(8)
C14 C 0.27827(17) 0.89506(19) -0.1547(8)
H17 H 0.2633 0.8743 -0.2983
C15 C 0.27940(19) 0.8546(2) 0.0122(9)
H18 H 0.2455 0.8187 0.0027
H19 H 0.2840 0.8684 0.1687
C16 C 0.3293(2) 0.8507(2) -0.0642(11)
H20 H 0.3173 0.8143 -0.1301
H21 H 0.3532 0.8559 0.0663
C17 C 0.3607(2) 0.8958(2) -0.2426(9)
H22 H 0.3476 0.8790 -0.3947
C18 C 0.3673(2) 0.9722(2) 0.0026(9)
H23 H 0.4038 1.0015 -0.0397
H24 H 0.3703 0.9501 0.1227
H25 H 0.3455 0.9881 0.0561
C19 C 0.09903(19) 0.79997(19) 0.2403(9)
H26 H 0.1035 0.8027 0.0813
H27 H 0.0874 0.7660 0.3132
C20 C 0.4229(2) 0.9177(2) -0.2329(10)
H28 H 0.4357 0.9329 -0.0784
C21 C 0.4550(2) 0.9637(3) -0.4020(10)
H29 H 0.4936 0.9738 -0.3977
H30 H 0.4515 0.9954 -0.3627
H31 H 0.4405 0.9512 -0.5540
C22 C 0.4347(3) 0.8713(3) -0.2667(14)
H32 H 0.4349 0.8642 -0.4300
H33 H 0.4054 0.8377 -0.1957
C23 C 0.4926(3) 0.8856(4) -0.159(2)
H34 H 0.5220 0.9177 -0.2378
H35 H 0.4933 0.8957 0.0014
C24 C 0.5035(3) 0.8420(4) -0.1724(15)
H36 H 0.5020 0.8316 -0.3327
H37 H 0.4742 0.8102 -0.0918
C25 C 0.5580(3) 0.8542(4) -0.0757(14)
H38 H 0.5869 0.8896 -0.1408
C26 C 0.5702(4) 0.8099(4) -0.1466(17)
H39 H 0.6010 0.8132 -0.0587
H40 H 0.5794 0.8139 -0.3074
H41 H 0.5380 0.7740 -0.1198
C27 C 0.5609(3) 0.8594(3) 0.1793(15)
H42 H 0.5546 0.8892 0.2246
H43 H 0.5970 0.8673 0.2310
H44 H 0.5328 0.8251 0.2467

#END
