./KAHPOB_from_xyz.cif_generated_by_CrystalShift
_symmetry_cell_setting triclinic
_symmetry_space_group_name_H-M 'P 1'
loop_
_symmetry_equiv_pos_site_id
_symmetry_equiv_pos_as_xyz
1 x,y,z
_cell_length_a 7.835500
_cell_length_b 11.053800
_cell_length_c 12.416400
_cell_angle_alpha 101.799200
_cell_angle_beta 91.971100
_cell_angle_gamma 102.740500
_cell_volume 1023.203550
loop_
_atom_site_label
_atom_site_type_symbol
_atom_site_fract_x
_atom_site_fract_y
_atom_site_fract_z
Br1 Br 0.746742 0.121967 1.006078
N2 N 0.828830 0.279590 0.563580
C3 C 0.808460 0.246560 0.667150
C4 C 0.680600 0.275350 0.734630
C5 C 0.663660 0.236680 0.835420
C6 C 0.775510 0.169460 0.867880
C7 C 0.907430 0.133160 0.801220
C8 C 1.022370 0.060290 0.830700
C9 C 1.142850 0.025440 0.760920
C10 C 1.154640 0.061110 0.658300
C11 C 1.047500 0.133020 0.628130
C12 C 0.921510 0.171700 0.698200
C13 C 0.787860 0.380140 0.547510
C14 C 0.799110 0.415000 0.439770
C15 C 0.886030 0.353600 0.356440
C16 C 0.896520 0.389780 0.256380
C17 C 0.820560 0.486870 0.234770
C18 C 0.733680 0.547250 0.317680
C19 C 0.724790 0.512400 0.419430
C20 C 0.842650 0.523210 0.124090
C21 C 0.724450 0.604330 0.090190
C22 C 0.763340 0.628860 -0.024300
C23 C 0.652860 0.708690 -0.068600
C24 C 0.700580 0.729180 -0.182530
C25 C 0.590600 0.805150 -0.232550
C26 C 0.640990 0.823150 -0.346330
C27 C 0.537600 0.905370 -0.392730
H28 H 0.596000 0.317000 0.709700
H29 H 0.572000 0.258000 0.879000
H30 H 1.016000 0.036300 0.898700
H31 H 1.224000 -0.025000 0.776900
H32 H 1.233000 0.034300 0.609700
H33 H 1.054000 0.156500 0.562400
H34 H 0.749000 0.440900 0.606000
H35 H 0.938000 0.288500 0.369000
H36 H 0.957000 0.348000 0.198900
H37 H 0.683000 0.614300 0.306500
H38 H 0.668000 0.557800 0.476400
H39 H 0.825000 0.445000 0.067600
H40 H 0.965000 0.567900 0.124400
H41 H 0.744000 0.684600 0.143000
H42 H 0.599000 0.559600 0.090800
H43 H 0.889000 0.672100 -0.020000
H44 H 0.746000 0.546400 -0.076200
H45 H 0.528000 0.666500 -0.071800
H46 H 0.670000 0.790400 -0.017300
H47 H 0.688000 0.645000 -0.231300
H48 H 0.822000 0.773900 -0.175400
H49 H 0.465000 0.761800 -0.237400
H50 H 0.606000 0.888700 -0.183300
H51 H 0.618000 0.740100 -0.394800
H52 H 0.765000 0.861800 -0.342300
H53 H 0.568000 0.913500 -0.463700
H54 H 0.564000 0.988600 -0.347100
H55 H 0.412000 0.868500 -0.399600
Br56 Br 0.253258 0.878033 -0.006078
N57 N 0.171170 0.720410 0.436420
C58 C 0.191540 0.753440 0.332850
C59 C 0.319400 0.724650 0.265370
C60 C 0.336340 0.763320 0.164580
C61 C 0.224490 0.830540 0.132120
C62 C 0.092570 0.866840 0.198780
C63 C -0.022370 0.939710 0.169300
C64 C -0.142850 0.974560 0.239080
C65 C -0.154640 0.938890 0.341700
C66 C -0.047500 0.866980 0.371870
C67 C 0.078490 0.828300 0.301800
C68 C 0.212140 0.619860 0.452490
C69 C 0.200890 0.585000 0.560230
C70 C 0.113970 0.646400 0.643560
C71 C 0.103480 0.610220 0.743620
C72 C 0.179440 0.513130 0.765230
C73 C 0.266320 0.452750 0.682320
C74 C 0.275210 0.487600 0.580570
C75 C 0.157350 0.476790 0.875910
C76 C 0.275550 0.395670 0.909810
C77 C 0.236660 0.371140 1.024300
C78 C 0.347140 0.291310 1.068600
C79 C 0.299420 0.270820 1.182530
C80 C 0.409400 0.194850 1.232550
C81 C 0.359010 0.176850 1.346330
C82 C 0.462400 0.094630 1.392730
H83 H 0.404000 0.683000 0.290300
H84 H 0.428000 0.742000 0.121000
H85 H -0.016000 0.963700 0.101300
H86 H -0.224000 1.025000 0.223100
H87 H -0.233000 0.965700 0.390300
H88 H -0.054000 0.843500 0.437600
H89 H 0.251000 0.559100 0.394000
H90 H 0.062000 0.711500 0.631000
H91 H 0.043000 0.652000 0.801100
H92 H 0.317000 0.385700 0.693500
H93 H 0.332000 0.442200 0.523600
H94 H 0.175000 0.555000 0.932400
H95 H 0.035000 0.432100 0.875600
H96 H 0.256000 0.315400 0.857000
H97 H 0.401000 0.440400 0.909200
H98 H 0.111000 0.327900 1.020000
H99 H 0.254000 0.453600 1.076200
H100 H 0.472000 0.333500 1.071800
H101 H 0.330000 0.209600 1.017300
H102 H 0.312000 0.355000 1.231300
H103 H 0.178000 0.226100 1.175400
H104 H 0.535000 0.238200 1.237400
H105 H 0.394000 0.111300 1.183300
H106 H 0.382000 0.259900 1.394800
H107 H 0.235000 0.138200 1.342300
H108 H 0.432000 0.086500 1.463700
H109 H 0.436000 0.011400 1.347100
H110 H 0.588000 0.131500 1.399600

#END
