./KAHPAL_from_xyz.cif_generated_by_CrystalShift
_symmetry_cell_setting triclinic
_symmetry_space_group_name_H-M 'P 1'
loop_
_symmetry_equiv_pos_site_id
_symmetry_equiv_pos_as_xyz
1 x,y,z
_cell_length_a 10.603000
_cell_length_b 9.778000
_cell_length_c 25.203000
_cell_angle_alpha 90.000000
_cell_angle_beta 90.000000
_cell_angle_gamma 90.000000
_cell_volume 2612.949605
loop_
_atom_site_label
_atom_site_type_symbol
_atom_site_fract_x
_atom_site_fract_y
_atom_site_fract_z
O1 O 0.506100 0.599600 0.419650
O2 O 0.580100 0.634200 0.521520
O3 O 0.718700 0.582600 0.656760
N4 N 0.697100 0.785500 0.588500
N5 N 0.749000 0.804400 0.637900
C6 C 0.592800 0.742200 0.487730
C7 C 0.553400 0.722500 0.435700
C8 C 0.563100 0.827300 0.399900
C9 C 0.611200 0.952100 0.415130
C10 C 0.651900 0.972000 0.466150
C11 C 0.644300 0.866700 0.503290
C12 C 0.693600 0.886200 0.556450
C13 C 0.759900 0.695000 0.669830
C14 C 0.823700 0.717800 0.721730
C15 C 0.909700 0.821000 0.730340
C16 C 0.967900 0.832500 0.779150
C17 C 0.941200 0.742600 0.818790
C18 C 0.857200 0.639700 0.810630
C19 C 0.798400 0.626800 0.762320
H20 H 0.509000 0.542000 0.445400
H21 H 0.614000 0.663000 0.550200
H22 H 0.771000 0.886000 0.646800
H23 H 0.537000 0.814100 0.365000
H24 H 0.616200 1.023100 0.390700
H25 H 0.684700 1.056400 0.476100
H26 H 0.722500 0.971800 0.567100
H27 H 0.928500 0.882700 0.703400
H28 H 1.025800 0.902300 0.785000
H29 H 0.980600 0.751500 0.851600
H30 H 0.839500 0.578100 0.837700
H31 H 0.741100 0.556100 0.756900
O32 O 0.993900 0.400400 -0.080350
O33 O 0.919900 0.365800 0.021520
O34 O 0.781300 0.417400 0.156760
N35 N 0.802900 0.214500 0.088500
N36 N 0.751000 0.195600 0.137900
C37 C 0.907200 0.257800 -0.012270
C38 C 0.946600 0.277500 -0.064300
C39 C 0.936900 0.172700 -0.100100
C40 C 0.888800 0.047900 -0.084870
C41 C 0.848100 0.028000 -0.033850
C42 C 0.855700 0.133300 0.003290
C43 C 0.806400 0.113800 0.056450
C44 C 0.740100 0.305000 0.169830
C45 C 0.676300 0.282200 0.221730
C46 C 0.590300 0.179000 0.230340
C47 C 0.532100 0.167500 0.279150
C48 C 0.558800 0.257400 0.318790
C49 C 0.642800 0.360300 0.310630
C50 C 0.701600 0.373200 0.262320
H51 H 0.991000 0.458000 -0.054600
H52 H 0.886000 0.337000 0.050200
H53 H 0.729000 0.114000 0.146800
H54 H 0.963000 0.185900 -0.135000
H55 H 0.883800 -0.023100 -0.109300
H56 H 0.815300 -0.056400 -0.023900
H57 H 0.777500 0.028200 0.067100
H58 H 0.571500 0.117300 0.203400
H59 H 0.474200 0.097700 0.285000
H60 H 0.519400 0.248500 0.351600
H61 H 0.660500 0.421900 0.337700
H62 H 0.758900 0.443900 0.256900
O63 O 0.006100 0.900400 0.580350
O64 O 0.080100 0.865800 0.478480
O65 O 0.218700 0.917400 0.343240
N66 N 0.197100 0.714500 0.411500
N67 N 0.249000 0.695600 0.362100
C68 C 0.092800 0.757800 0.512270
C69 C 0.053400 0.777500 0.564300
C70 C 0.063100 0.672700 0.600100
C71 C 0.111200 0.547900 0.584870
C72 C 0.151900 0.528000 0.533850
C73 C 0.144300 0.633300 0.496710
C74 C 0.193600 0.613800 0.443550
C75 C 0.259900 0.805000 0.330170
C76 C 0.323700 0.782200 0.278270
C77 C 0.409700 0.679000 0.269660
C78 C 0.467900 0.667500 0.220850
C79 C 0.441200 0.757400 0.181210
C80 C 0.357200 0.860300 0.189370
C81 C 0.298400 0.873200 0.237680
H82 H 0.009000 0.958000 0.554600
H83 H 0.114000 0.837000 0.449800
H84 H 0.271000 0.614000 0.353200
H85 H 0.037000 0.685900 0.635000
H86 H 0.116200 0.476900 0.609300
H87 H 0.184700 0.443600 0.523900
H88 H 0.222500 0.528200 0.432900
H89 H 0.428500 0.617300 0.296600
H90 H 0.525800 0.597700 0.215000
H91 H 0.480600 0.748500 0.148400
H92 H 0.339500 0.921900 0.162300
H93 H 0.241100 0.943900 0.243100
O94 O 0.493900 0.099600 1.080350
O95 O 0.419900 0.134200 0.978480
O96 O 0.281300 0.082600 0.843240
N97 N 0.302900 0.285500 0.911500
N98 N 0.251000 0.304400 0.862100
C99 C 0.407200 0.242200 1.012270
C100 C 0.446600 0.222500 1.064300
C101 C 0.436900 0.327300 1.100100
C102 C 0.388800 0.452100 1.084870
C103 C 0.348100 0.472000 1.033850
C104 C 0.355700 0.366700 0.996710
C105 C 0.306400 0.386200 0.943550
C106 C 0.240100 0.195000 0.830170
C107 C 0.176300 0.217800 0.778270
C108 C 0.090300 0.321000 0.769660
C109 C 0.032100 0.332500 0.720850
C110 C 0.058800 0.242600 0.681210
C111 C 0.142800 0.139700 0.689370
C112 C 0.201600 0.126800 0.737680
H113 H 0.491000 0.042000 1.054600
H114 H 0.386000 0.163000 0.949800
H115 H 0.229000 0.386000 0.853200
H116 H 0.463000 0.314100 1.135000
H117 H 0.383800 0.523100 1.109300
H118 H 0.315300 0.556400 1.023900
H119 H 0.277500 0.471800 0.932900
H120 H 0.071500 0.382700 0.796600
H121 H -0.025800 0.402300 0.715000
H122 H 0.019400 0.251500 0.648400
H123 H 0.160500 0.078100 0.662300
H124 H 0.258900 0.056100 0.743100
O125 O 0.493900 0.400400 0.580350
O126 O 0.419900 0.365800 0.478480
O127 O 0.281300 0.417400 0.343240
N128 N 0.302900 0.214500 0.411500
N129 N 0.251000 0.195600 0.362100
C130 C 0.407200 0.257800 0.512270
C131 C 0.446600 0.277500 0.564300
C132 C 0.436900 0.172700 0.600100
C133 C 0.388800 0.047900 0.584870
C134 C 0.348100 0.028000 0.533850
C135 C 0.355700 0.133300 0.496710
C136 C 0.306400 0.113800 0.443550
C137 C 0.240100 0.305000 0.330170
C138 C 0.176300 0.282200 0.278270
C139 C 0.090300 0.179000 0.269660
C140 C 0.032100 0.167500 0.220850
C141 C 0.058800 0.257400 0.181210
C142 C 0.142800 0.360300 0.189370
C143 C 0.201600 0.373200 0.237680
H144 H 0.491000 0.458000 0.554600
H145 H 0.386000 0.337000 0.449800
H146 H 0.229000 0.114000 0.353200
H147 H 0.463000 0.185900 0.635000
H148 H 0.383800 -0.023100 0.609300
H149 H 0.315300 -0.056400 0.523900
H150 H 0.277500 0.028200 0.432900
H151 H 0.071500 0.117300 0.296600
H152 H -0.025800 0.097700 0.215000
H153 H 0.019400 0.248500 0.148400
H154 H 0.160500 0.421900 0.162300
H155 H 0.258900 0.443900 0.243100
O156 O 0.006100 0.599600 1.080350
O157 O 0.080100 0.634200 0.978480
O158 O 0.218700 0.582600 0.843240
N159 N 0.197100 0.785500 0.911500
N160 N 0.249000 0.804400 0.862100
C161 C 0.092800 0.742200 1.012270
C162 C 0.053400 0.722500 1.064300
C163 C 0.063100 0.827300 1.100100
C164 C 0.111200 0.952100 1.084870
C165 C 0.151900 0.972000 1.033850
C166 C 0.144300 0.866700 0.996710
C167 C 0.193600 0.886200 0.943550
C168 C 0.259900 0.695000 0.830170
C169 C 0.323700 0.717800 0.778270
C170 C 0.409700 0.821000 0.769660
C171 C 0.467900 0.832500 0.720850
C172 C 0.441200 0.742600 0.681210
C173 C 0.357200 0.639700 0.689370
C174 C 0.298400 0.626800 0.737680
H175 H 0.009000 0.542000 1.054600
H176 H 0.114000 0.663000 0.949800
H177 H 0.271000 0.886000 0.853200
H178 H 0.037000 0.814100 1.135000
H179 H 0.116200 1.023100 1.109300
H180 H 0.184700 1.056400 1.023900
H181 H 0.222500 0.971800 0.932900
H182 H 0.428500 0.882700 0.796600
H183 H 0.525800 0.902300 0.715000
H184 H 0.480600 0.751500 0.648400
H185 H 0.339500 0.578100 0.662300
H186 H 0.241100 0.556100 0.743100
O187 O 0.993900 0.099600 0.419650
O188 O 0.919900 0.134200 0.521520
O189 O 0.781300 0.082600 0.656760
N190 N 0.802900 0.285500 0.588500
N191 N 0.751000 0.304400 0.637900
C192 C 0.907200 0.242200 0.487730
C193 C 0.946600 0.222500 0.435700
C194 C 0.936900 0.327300 0.399900
C195 C 0.888800 0.452100 0.415130
C196 C 0.848100 0.472000 0.466150
C197 C 0.855700 0.366700 0.503290
C198 C 0.806400 0.386200 0.556450
C199 C 0.740100 0.195000 0.669830
C200 C 0.676300 0.217800 0.721730
C201 C 0.590300 0.321000 0.730340
C202 C 0.532100 0.332500 0.779150
C203 C 0.558800 0.242600 0.818790
C204 C 0.642800 0.139700 0.810630
C205 C 0.701600 0.126800 0.762320
H206 H 0.991000 0.042000 0.445400
H207 H 0.886000 0.163000 0.550200
H208 H 0.729000 0.386000 0.646800
H209 H 0.963000 0.314100 0.365000
H210 H 0.883800 0.523100 0.390700
H211 H 0.815300 0.556400 0.476100
H212 H 0.777500 0.471800 0.567100
H213 H 0.571500 0.382700 0.703400
H214 H 0.474200 0.402300 0.785000
H215 H 0.519400 0.251500 0.851600
H216 H 0.660500 0.078100 0.837700
H217 H 0.758900 0.056100 0.756900
O218 O 0.506100 0.900400 -0.080350
O219 O 0.580100 0.865800 0.021520
O220 O 0.718700 0.917400 0.156760
N221 N 0.697100 0.714500 0.088500
N222 N 0.749000 0.695600 0.137900
C223 C 0.592800 0.757800 -0.012270
C224 C 0.553400 0.777500 -0.064300
C225 C 0.563100 0.672700 -0.100100
C226 C 0.611200 0.547900 -0.084870
C227 C 0.651900 0.528000 -0.033850
C228 C 0.644300 0.633300 0.003290
C229 C 0.693600 0.613800 0.056450
C230 C 0.759900 0.805000 0.169830
C231 C 0.823700 0.782200 0.221730
C232 C 0.909700 0.679000 0.230340
C233 C 0.967900 0.667500 0.279150
C234 C 0.941200 0.757400 0.318790
C235 C 0.857200 0.860300 0.310630
C236 C 0.798400 0.873200 0.262320
H237 H 0.509000 0.958000 -0.054600
H238 H 0.614000 0.837000 0.050200
H239 H 0.771000 0.614000 0.146800
H240 H 0.537000 0.685900 -0.135000
H241 H 0.616200 0.476900 -0.109300
H242 H 0.684700 0.443600 -0.023900
H243 H 0.722500 0.528200 0.067100
H244 H 0.928500 0.617300 0.203400
H245 H 1.025800 0.597700 0.285000
H246 H 0.980600 0.748500 0.351600
H247 H 0.839500 0.921900 0.337700
H248 H 0.741100 0.943900 0.256900

#END
