
#######################################################################
#
#                 Cambridge Crystallographic Data Centre
#                                CCDC 
#
#######################################################################
#
# If this CIF has been generated from an entry in the Cambridge 
# Structural Database, then it will include bibliographic, chemical, 
# crystal, experimental, refinement or atomic coordinate data resulting 
# from the CCDC's data processing and validation procedures.
#
#######################################################################

data_KAHROA
_symmetry_cell_setting           orthorhombic
_symmetry_space_group_name_H-M   'C c c a'
_symmetry_Int_Tables_number      68
_space_group_name_Hall           '-C 2b 2bc'
loop_
_symmetry_equiv_pos_site_id
_symmetry_equiv_pos_as_xyz
1 x,y,z
2 1/2+x,1/2+y,z
3 1/2-x,y,1/2+z
4 -x,1/2+y,1/2+z
5 x,-y,1/2+z
6 1/2+x,1/2-y,1/2+z
7 1/2-x,-y,z
8 -x,1/2-y,z
9 -x,-y,-z
10 1/2-x,1/2-y,-z
11 1/2+x,-y,1/2-z
12 x,1/2-y,1/2-z
13 -x,y,1/2-z
14 1/2-x,1/2+y,1/2-z
15 1/2+x,y,-z
16 x,1/2+y,-z
_cell_length_a                   11.314(1)
_cell_length_b                   9.120(1)
_cell_length_c                   9.741(1)
_cell_angle_alpha                90
_cell_angle_beta                 90
_cell_angle_gamma                90
_cell_volume                     1005.11
loop_
_atom_site_label
_atom_site_type_symbol
_atom_site_fract_x
_atom_site_fract_y
_atom_site_fract_z
C1 C 0.0668(1) 0.5458(1) 0.2292(1)
C2 C 0.11992(9) 0.3963(1) 0.2410(1)
N1 N 0.13277(7) 0.3378(1) 0.36633(9)
C3 C 0.13753(9) 0.3074(1) 0.1272(1)
H1 H 0.1458(8) 0.3512(9) 0.041(1)
H2 H 0.072(1) 0.579(1) 0.133(1)
H3 H 0.104(1) 0.6168(9) 0.290(1)
C1L C -0.0668(1) 0.5458(1) 0.2708(1)
C3K C 0.13753(9) 0.1926(1) 0.3728(1)
N1K N 0.13277(7) 0.1622(1) 0.13367(9)
C2L C -0.11992(9) 0.3963(1) 0.2590(1)
H2L H -0.072(1) 0.579(1) 0.367(1)
H3L H -0.104(1) 0.6168(9) 0.210(1)
C2K C 0.11992(9) 0.1037(1) 0.2590(1)
H1K H 0.1458(8) 0.1488(9) 0.459(1)
N1L N -0.13277(7) 0.3378(1) 0.13367(9)
C3L C -0.13753(9) 0.3074(1) 0.3728(1)
C1K C 0.0668(1) -0.0458(1) 0.2708(1)
C3G C -0.13753(9) 0.1926(1) 0.1272(1)
N1G N -0.13277(7) 0.1622(1) 0.36633(9)
H1L H -0.1458(8) 0.3512(9) 0.459(1)
C1G C -0.0668(1) -0.0458(1) 0.2292(1)
H2K H 0.072(1) -0.079(1) 0.367(1)
H3K H 0.104(1) -0.1168(9) 0.210(1)
C2G C -0.11992(9) 0.1037(1) 0.2410(1)
H1G H -0.1458(8) 0.1488(9) 0.041(1)
H2G H -0.072(1) -0.079(1) 0.133(1)
H3G H -0.104(1) -0.1168(9) 0.290(1)
C1 C 1.0668(1) 0.5458(1) 0.2292(1)
C2 C 1.11992(9) 0.3963(1) 0.2410(1)
N1 N 1.13277(7) 0.3378(1) 0.36633(9)
C3 C 1.13753(9) 0.3074(1) 0.1272(1)
H1 H 1.1458(8) 0.3512(9) 0.041(1)
H2 H 1.072(1) 0.579(1) 0.133(1)
H3 H 1.104(1) 0.6168(9) 0.290(1)
C1L C 0.9332(1) 0.5458(1) 0.2708(1)
C3K C 1.13753(9) 0.1926(1) 0.3728(1)
N1K N 1.13277(7) 0.1622(1) 0.13367(9)
C2L C 0.88008(9) 0.3963(1) 0.2590(1)
H2L H 0.928(1) 0.579(1) 0.367(1)
H3L H 0.896(1) 0.6168(9) 0.210(1)
C2K C 1.11992(9) 0.1037(1) 0.2590(1)
H1K H 1.1458(8) 0.1488(9) 0.459(1)
N1L N 0.86723(7) 0.3378(1) 0.13367(9)
C3L C 0.86247(9) 0.3074(1) 0.3728(1)
C1K C 1.0668(1) -0.0458(1) 0.2708(1)
C3G C 0.86247(9) 0.1926(1) 0.1272(1)
N1G N 0.86723(7) 0.1622(1) 0.36633(9)
H1L H 0.8542(8) 0.3512(9) 0.459(1)
C1G C 0.9332(1) -0.0458(1) 0.2292(1)
H2K H 1.072(1) -0.079(1) 0.367(1)
H3K H 1.104(1) -0.1168(9) 0.210(1)
C2G C 0.88008(9) 0.1037(1) 0.2410(1)
H1G H 0.8542(8) 0.1488(9) 0.041(1)
H2G H 0.928(1) -0.079(1) 0.133(1)
H3G H 0.896(1) -0.1168(9) 0.290(1)
C1 C 0.5668(1) 1.0458(1) 0.2292(1)
C2 C 0.61992(9) 0.8963(1) 0.2410(1)
N1 N 0.63277(7) 0.8378(1) 0.36633(9)
C3 C 0.63753(9) 0.8074(1) 0.1272(1)
H1 H 0.6458(8) 0.8512(9) 0.041(1)
H2 H 0.572(1) 1.079(1) 0.133(1)
H3 H 0.604(1) 1.1168(9) 0.290(1)
C1L C 0.4332(1) 1.0458(1) 0.2708(1)
C3K C 0.63753(9) 0.6926(1) 0.3728(1)
N1K N 0.63277(7) 0.6622(1) 0.13367(9)
C2L C 0.38008(9) 0.8963(1) 0.2590(1)
H2L H 0.428(1) 1.079(1) 0.367(1)
H3L H 0.396(1) 1.1168(9) 0.210(1)
C2K C 0.61992(9) 0.6037(1) 0.2590(1)
H1K H 0.6458(8) 0.6488(9) 0.459(1)
N1L N 0.36723(7) 0.8378(1) 0.13367(9)
C3L C 0.36247(9) 0.8074(1) 0.3728(1)
C1K C 0.5668(1) 0.4542(1) 0.2708(1)
C3G C 0.36247(9) 0.6926(1) 0.1272(1)
N1G N 0.36723(7) 0.6622(1) 0.36633(9)
H1L H 0.3542(8) 0.8512(9) 0.459(1)
C1G C 0.4332(1) 0.4542(1) 0.2292(1)
H2K H 0.572(1) 0.421(1) 0.367(1)
H3K H 0.604(1) 0.3832(9) 0.210(1)
C2G C 0.38008(9) 0.6037(1) 0.2410(1)
H1G H 0.3542(8) 0.6488(9) 0.041(1)
H2G H 0.428(1) 0.421(1) 0.133(1)
H3G H 0.396(1) 0.3832(9) 0.290(1)
C1 C 0.4332(1) 0.5458(1) 0.7292(1)
C2 C 0.38008(9) 0.3963(1) 0.7410(1)
N1 N 0.36723(7) 0.3378(1) 0.86633(9)
C3 C 0.36247(9) 0.3074(1) 0.6272(1)
H1 H 0.3542(8) 0.3512(9) 0.541(1)
H2 H 0.428(1) 0.579(1) 0.633(1)
H3 H 0.396(1) 0.6168(9) 0.790(1)
C1L C 0.5668(1) 0.5458(1) 0.7708(1)
C3K C 0.36247(9) 0.1926(1) 0.8728(1)
N1K N 0.36723(7) 0.1622(1) 0.63367(9)
C2L C 0.61992(9) 0.3963(1) 0.7590(1)
H2L H 0.572(1) 0.579(1) 0.867(1)
H3L H 0.604(1) 0.6168(9) 0.710(1)
C2K C 0.38008(9) 0.1037(1) 0.7590(1)
H1K H 0.3542(8) 0.1488(9) 0.959(1)
N1L N 0.63277(7) 0.3378(1) 0.63367(9)
C3L C 0.63753(9) 0.3074(1) 0.8728(1)
C1K C 0.4332(1) -0.0458(1) 0.7708(1)
C3G C 0.63753(9) 0.1926(1) 0.6272(1)
N1G N 0.63277(7) 0.1622(1) 0.86633(9)
H1L H 0.6458(8) 0.3512(9) 0.959(1)
C1G C 0.5668(1) -0.0458(1) 0.7292(1)
H2K H 0.428(1) -0.079(1) 0.867(1)
H3K H 0.396(1) -0.1168(9) 0.710(1)
C2G C 0.61992(9) 0.1037(1) 0.7410(1)
H1G H 0.6458(8) 0.1488(9) 0.541(1)
H2G H 0.572(1) -0.079(1) 0.633(1)
H3G H 0.604(1) -0.1168(9) 0.790(1)
C1 C -0.0668(1) 1.0458(1) 0.7292(1)
C2 C -0.11992(9) 0.8963(1) 0.7410(1)
N1 N -0.13277(7) 0.8378(1) 0.86633(9)
C3 C -0.13753(9) 0.8074(1) 0.6272(1)
H1 H -0.1458(8) 0.8512(9) 0.541(1)
H2 H -0.072(1) 1.079(1) 0.633(1)
H3 H -0.104(1) 1.1168(9) 0.790(1)
C1L C 0.0668(1) 1.0458(1) 0.7708(1)
C3K C -0.13753(9) 0.6926(1) 0.8728(1)
N1K N -0.13277(7) 0.6622(1) 0.63367(9)
C2L C 0.11992(9) 0.8963(1) 0.7590(1)
H2L H 0.072(1) 1.079(1) 0.867(1)
H3L H 0.104(1) 1.1168(9) 0.710(1)
C2K C -0.11992(9) 0.6037(1) 0.7590(1)
H1K H -0.1458(8) 0.6488(9) 0.959(1)
N1L N 0.13277(7) 0.8378(1) 0.63367(9)
C3L C 0.13753(9) 0.8074(1) 0.8728(1)
C1K C -0.0668(1) 0.4542(1) 0.7708(1)
C3G C 0.13753(9) 0.6926(1) 0.6272(1)
N1G N 0.13277(7) 0.6622(1) 0.86633(9)
H1L H 0.1458(8) 0.8512(9) 0.959(1)
C1G C 0.0668(1) 0.4542(1) 0.7292(1)
H2K H -0.072(1) 0.421(1) 0.867(1)
H3K H -0.104(1) 0.3832(9) 0.710(1)
C2G C 0.11992(9) 0.6037(1) 0.7410(1)
H1G H 0.1458(8) 0.6488(9) 0.541(1)
H2G H 0.072(1) 0.421(1) 0.633(1)
H3G H 0.104(1) 0.3832(9) 0.790(1)
C1 C 0.9332(1) 1.0458(1) 0.7292(1)
C2 C 0.88008(9) 0.8963(1) 0.7410(1)
N1 N 0.86723(7) 0.8378(1) 0.86633(9)
C3 C 0.86247(9) 0.8074(1) 0.6272(1)
H1 H 0.8542(8) 0.8512(9) 0.541(1)
H2 H 0.928(1) 1.079(1) 0.633(1)
H3 H 0.896(1) 1.1168(9) 0.790(1)
C1L C 1.0668(1) 1.0458(1) 0.7708(1)
C3K C 0.86247(9) 0.6926(1) 0.8728(1)
N1K N 0.86723(7) 0.6622(1) 0.63367(9)
C2L C 1.11992(9) 0.8963(1) 0.7590(1)
H2L H 1.072(1) 1.079(1) 0.867(1)
H3L H 1.104(1) 1.1168(9) 0.710(1)
C2K C 0.88008(9) 0.6037(1) 0.7590(1)
H1K H 0.8542(8) 0.6488(9) 0.959(1)
N1L N 1.13277(7) 0.8378(1) 0.63367(9)
C3L C 1.13753(9) 0.8074(1) 0.8728(1)
C1K C 0.9332(1) 0.4542(1) 0.7708(1)
C3G C 1.13753(9) 0.6926(1) 0.6272(1)
N1G N 1.13277(7) 0.6622(1) 0.86633(9)
H1L H 1.1458(8) 0.8512(9) 0.959(1)
C1G C 1.0668(1) 0.4542(1) 0.7292(1)
H2K H 0.928(1) 0.421(1) 0.867(1)
H3K H 0.896(1) 0.3832(9) 0.710(1)
C2G C 1.11992(9) 0.6037(1) 0.7410(1)
H1G H 1.1458(8) 0.6488(9) 0.541(1)
H2G H 1.072(1) 0.421(1) 0.633(1)
H3G H 1.104(1) 0.3832(9) 0.790(1)

#END
