./KAHROA_from_xyz.cif_generated_by_CrystalShift
_symmetry_cell_setting triclinic
_symmetry_space_group_name_H-M 'P 1'
loop_
_symmetry_equiv_pos_site_id
_symmetry_equiv_pos_as_xyz
1 x,y,z
_cell_length_a 11.314000
_cell_length_b 9.120000
_cell_length_c 9.741000
_cell_angle_alpha 90.000000
_cell_angle_beta 90.000000
_cell_angle_gamma 90.000000
_cell_volume 1005.112227
loop_
_atom_site_label
_atom_site_type_symbol
_atom_site_fract_x
_atom_site_fract_y
_atom_site_fract_z
C1 C 0.066800 0.545800 0.229200
C2 C 0.119920 0.396300 0.241000
N3 N 0.132770 0.337800 0.366330
C4 C 0.137530 0.307400 0.127200
H5 H 0.145800 0.351200 0.041000
H6 H 0.072000 0.579000 0.133000
H7 H 0.104000 0.616800 0.290000
C8 C -0.066800 0.545800 0.270800
C9 C 0.137530 0.192600 0.372800
N10 N 0.132770 0.162200 0.133670
C11 C -0.119920 0.396300 0.259000
H12 H -0.072000 0.579000 0.367000
H13 H -0.104000 0.616800 0.210000
C14 C 0.119920 0.103700 0.259000
H15 H 0.145800 0.148800 0.459000
N16 N -0.132770 0.337800 0.133670
C17 C -0.137530 0.307400 0.372800
C18 C 0.066800 -0.045800 0.270800
C19 C -0.137530 0.192600 0.127200
N20 N -0.132770 0.162200 0.366330
H21 H -0.145800 0.351200 0.459000
C22 C -0.066800 -0.045800 0.229200
H23 H 0.072000 -0.079000 0.367000
H24 H 0.104000 -0.116800 0.210000
C25 C -0.119920 0.103700 0.241000
H26 H -0.145800 0.148800 0.041000
H27 H -0.072000 -0.079000 0.133000
H28 H -0.104000 -0.116800 0.290000
C29 C 1.066800 0.545800 0.229200
C30 C 1.119920 0.396300 0.241000
N31 N 1.132770 0.337800 0.366330
C32 C 1.137530 0.307400 0.127200
H33 H 1.145800 0.351200 0.041000
H34 H 1.072000 0.579000 0.133000
H35 H 1.104000 0.616800 0.290000
C36 C 0.933200 0.545800 0.270800
C37 C 1.137530 0.192600 0.372800
N38 N 1.132770 0.162200 0.133670
C39 C 0.880080 0.396300 0.259000
H40 H 0.928000 0.579000 0.367000
H41 H 0.896000 0.616800 0.210000
C42 C 1.119920 0.103700 0.259000
H43 H 1.145800 0.148800 0.459000
N44 N 0.867230 0.337800 0.133670
C45 C 0.862470 0.307400 0.372800
C46 C 1.066800 -0.045800 0.270800
C47 C 0.862470 0.192600 0.127200
N48 N 0.867230 0.162200 0.366330
H49 H 0.854200 0.351200 0.459000
C50 C 0.933200 -0.045800 0.229200
H51 H 1.072000 -0.079000 0.367000
H52 H 1.104000 -0.116800 0.210000
C53 C 0.880080 0.103700 0.241000
H54 H 0.854200 0.148800 0.041000
H55 H 0.928000 -0.079000 0.133000
H56 H 0.896000 -0.116800 0.290000
C57 C 0.566800 1.045800 0.229200
C58 C 0.619920 0.896300 0.241000
N59 N 0.632770 0.837800 0.366330
C60 C 0.637530 0.807400 0.127200
H61 H 0.645800 0.851200 0.041000
H62 H 0.572000 1.079000 0.133000
H63 H 0.604000 1.116800 0.290000
C64 C 0.433200 1.045800 0.270800
C65 C 0.637530 0.692600 0.372800
N66 N 0.632770 0.662200 0.133670
C67 C 0.380080 0.896300 0.259000
H68 H 0.428000 1.079000 0.367000
H69 H 0.396000 1.116800 0.210000
C70 C 0.619920 0.603700 0.259000
H71 H 0.645800 0.648800 0.459000
N72 N 0.367230 0.837800 0.133670
C73 C 0.362470 0.807400 0.372800
C74 C 0.566800 0.454200 0.270800
C75 C 0.362470 0.692600 0.127200
N76 N 0.367230 0.662200 0.366330
H77 H 0.354200 0.851200 0.459000
C78 C 0.433200 0.454200 0.229200
H79 H 0.572000 0.421000 0.367000
H80 H 0.604000 0.383200 0.210000
C81 C 0.380080 0.603700 0.241000
H82 H 0.354200 0.648800 0.041000
H83 H 0.428000 0.421000 0.133000
H84 H 0.396000 0.383200 0.290000
C85 C 0.433200 0.545800 0.729200
C86 C 0.380080 0.396300 0.741000
N87 N 0.367230 0.337800 0.866330
C88 C 0.362470 0.307400 0.627200
H89 H 0.354200 0.351200 0.541000
H90 H 0.428000 0.579000 0.633000
H91 H 0.396000 0.616800 0.790000
C92 C 0.566800 0.545800 0.770800
C93 C 0.362470 0.192600 0.872800
N94 N 0.367230 0.162200 0.633670
C95 C 0.619920 0.396300 0.759000
H96 H 0.572000 0.579000 0.867000
H97 H 0.604000 0.616800 0.710000
C98 C 0.380080 0.103700 0.759000
H99 H 0.354200 0.148800 0.959000
N100 N 0.632770 0.337800 0.633670
C101 C 0.637530 0.307400 0.872800
C102 C 0.433200 -0.045800 0.770800
C103 C 0.637530 0.192600 0.627200
N104 N 0.632770 0.162200 0.866330
H105 H 0.645800 0.351200 0.959000
C106 C 0.566800 -0.045800 0.729200
H107 H 0.428000 -0.079000 0.867000
H108 H 0.396000 -0.116800 0.710000
C109 C 0.619920 0.103700 0.741000
H110 H 0.645800 0.148800 0.541000
H111 H 0.572000 -0.079000 0.633000
H112 H 0.604000 -0.116800 0.790000
C113 C -0.066800 1.045800 0.729200
C114 C -0.119920 0.896300 0.741000
N115 N -0.132770 0.837800 0.866330
C116 C -0.137530 0.807400 0.627200
H117 H -0.145800 0.851200 0.541000
H118 H -0.072000 1.079000 0.633000
H119 H -0.104000 1.116800 0.790000
C120 C 0.066800 1.045800 0.770800
C121 C -0.137530 0.692600 0.872800
N122 N -0.132770 0.662200 0.633670
C123 C 0.119920 0.896300 0.759000
H124 H 0.072000 1.079000 0.867000
H125 H 0.104000 1.116800 0.710000
C126 C -0.119920 0.603700 0.759000
H127 H -0.145800 0.648800 0.959000
N128 N 0.132770 0.837800 0.633670
C129 C 0.137530 0.807400 0.872800
C130 C -0.066800 0.454200 0.770800
C131 C 0.137530 0.692600 0.627200
N132 N 0.132770 0.662200 0.866330
H133 H 0.145800 0.851200 0.959000
C134 C 0.066800 0.454200 0.729200
H135 H -0.072000 0.421000 0.867000
H136 H -0.104000 0.383200 0.710000
C137 C 0.119920 0.603700 0.741000
H138 H 0.145800 0.648800 0.541000
H139 H 0.072000 0.421000 0.633000
H140 H 0.104000 0.383200 0.790000
C141 C 0.933200 1.045800 0.729200
C142 C 0.880080 0.896300 0.741000
N143 N 0.867230 0.837800 0.866330
C144 C 0.862470 0.807400 0.627200
H145 H 0.854200 0.851200 0.541000
H146 H 0.928000 1.079000 0.633000
H147 H 0.896000 1.116800 0.790000
C148 C 1.066800 1.045800 0.770800
C149 C 0.862470 0.692600 0.872800
N150 N 0.867230 0.662200 0.633670
C151 C 1.119920 0.896300 0.759000
H152 H 1.072000 1.079000 0.867000
H153 H 1.104000 1.116800 0.710000
C154 C 0.880080 0.603700 0.759000
H155 H 0.854200 0.648800 0.959000
N156 N 1.132770 0.837800 0.633670
C157 C 1.137530 0.807400 0.872800
C158 C 0.933200 0.454200 0.770800
C159 C 1.137530 0.692600 0.627200
N160 N 1.132770 0.662200 0.866330
H161 H 1.145800 0.851200 0.959000
C162 C 1.066800 0.454200 0.729200
H163 H 0.928000 0.421000 0.867000
H164 H 0.896000 0.383200 0.710000
C165 C 1.119920 0.603700 0.741000
H166 H 1.145800 0.648800 0.541000
H167 H 1.072000 0.421000 0.633000
H168 H 1.104000 0.383200 0.790000

#END
