./KAHRIW01_from_xyz.cif_generated_by_CrystalShift
_symmetry_cell_setting triclinic
_symmetry_space_group_name_H-M 'P 1'
loop_
_symmetry_equiv_pos_site_id
_symmetry_equiv_pos_as_xyz
1 x,y,z
_cell_length_a 8.662500
_cell_length_b 9.285100
_cell_length_c 9.724900
_cell_angle_alpha 76.514000
_cell_angle_beta 72.834000
_cell_angle_gamma 77.947000
_cell_volume 718.448022
loop_
_atom_site_label
_atom_site_type_symbol
_atom_site_fract_x
_atom_site_fract_y
_atom_site_fract_z
C1 C 0.354300 0.672800 0.019600
C2 C 0.250500 0.579800 0.011600
C3 C 0.143300 0.518700 0.139100
H4 H 0.076100 0.454600 0.134700
C5 C 0.135900 0.552100 0.270600
H6 H 0.063600 0.510700 0.355100
C7 C 0.235600 0.647500 0.279140
C8 C 0.344900 0.707100 0.154100
H9 H 0.412300 0.770300 0.159700
C10 C 0.473100 0.732200 -0.114400
O11 O 0.571200 0.808400 -0.091460
H12 H 0.642000 0.835000 -0.165000
O13 O 0.480700 0.709400 -0.235610
O14 O 0.247200 0.547700 -0.115680
H15 H 0.327000 0.577000 -0.176000
O16 O 0.049900 0.733200 0.515000
O17 O 0.289300 0.555560 0.535410
O18 O 0.316600 0.810660 0.420940
S19 S 0.221250 0.689600 0.450570
C20 C 0.645700 0.327200 0.980400
C21 C 0.749500 0.420200 0.988400
C22 C 0.856700 0.481300 0.860900
H23 H 0.923900 0.545400 0.865300
C24 C 0.864100 0.447900 0.729400
H25 H 0.936400 0.489300 0.644900
C26 C 0.764400 0.352500 0.720860
C27 C 0.655100 0.292900 0.845900
H28 H 0.587700 0.229700 0.840300
C29 C 0.526900 0.267800 1.114400
O30 O 0.428800 0.191600 1.091460
H31 H 0.358000 0.165000 1.165000
O32 O 0.519300 0.290600 1.235610
O33 O 0.752800 0.452300 1.115680
H34 H 0.673000 0.423000 1.176000
O35 O 0.950100 0.266800 0.485000
O36 O 0.710700 0.444440 0.464590
O37 O 0.683400 0.189340 0.579060
S38 S 0.778750 0.310400 0.549430
C39 C 0.264300 0.171300 -0.319100
C40 C 0.213500 0.042600 -0.318800
H41 H 0.247300 0.000000 -0.402500
C42 C 0.110600 -0.024900 -0.192800
H43 H 0.076000 -0.113000 -0.193500
C44 C 0.058000 0.034200 -0.066600
C45 C 0.119600 0.160900 -0.070100
H46 H 0.091700 0.201400 0.014400
C47 C 0.222000 0.229900 -0.196200
H48 H 0.261000 0.315800 -0.195900
N49 N 0.367100 0.248500 -0.453970
H50 H 0.360000 0.218000 -0.529000
H51 H 0.332000 0.345000 -0.458000
H52 H 0.469000 0.224000 -0.449000
C53 C -0.264300 -0.171300 0.319100
C54 C -0.213500 -0.042600 0.318800
H55 H -0.247300 -0.000000 0.402500
C56 C -0.110600 0.024900 0.192800
H57 H -0.076000 0.113000 0.193500
C58 C -0.058000 -0.034200 0.066600
C59 C -0.119600 -0.160900 0.070100
H60 H -0.091700 -0.201400 -0.014400
C61 C -0.222000 -0.229900 0.196200
H62 H -0.261000 -0.315800 0.195900
N63 N -0.367100 -0.248500 0.453970
H64 H -0.360000 -0.218000 0.529000
H65 H -0.332000 -0.345000 0.458000
H66 H -0.469000 -0.224000 0.449000
C67 C 0.264300 0.171300 0.680900
C68 C 0.213500 0.042600 0.681200
H69 H 0.247300 0.000000 0.597500
C70 C 0.110600 -0.024900 0.807200
H71 H 0.076000 -0.113000 0.806500
C72 C 0.058000 0.034200 0.933400
C73 C 0.119600 0.160900 0.929900
H74 H 0.091700 0.201400 1.014400
C75 C 0.222000 0.229900 0.803800
H76 H 0.261000 0.315800 0.804100
N77 N 0.367100 0.248500 0.546030
H78 H 0.360000 0.218000 0.471000
H79 H 0.332000 0.345000 0.542000
H80 H 0.469000 0.224000 0.551000
C81 C -0.264300 -0.171300 1.319100
C82 C -0.213500 -0.042600 1.318800
H83 H -0.247300 -0.000000 1.402500
C84 C -0.110600 0.024900 1.192800
H85 H -0.076000 0.113000 1.193500
C86 C -0.058000 -0.034200 1.066600
C87 C -0.119600 -0.160900 1.070100
H88 H -0.091700 -0.201400 0.985600
C89 C -0.222000 -0.229900 1.196200
H90 H -0.261000 -0.315800 1.195900
N91 N -0.367100 -0.248500 1.453970
H92 H -0.360000 -0.218000 1.529000
H93 H -0.332000 -0.345000 1.458000
H94 H -0.469000 -0.224000 1.449000
C95 C 0.264300 1.171300 -0.319100
C96 C 0.213500 1.042600 -0.318800
H97 H 0.247300 1.000000 -0.402500
C98 C 0.110600 0.975100 -0.192800
H99 H 0.076000 0.887000 -0.193500
C100 C 0.058000 1.034200 -0.066600
C101 C 0.119600 1.160900 -0.070100
H102 H 0.091700 1.201400 0.014400
C103 C 0.222000 1.229900 -0.196200
H104 H 0.261000 1.315800 -0.195900
N105 N 0.367100 1.248500 -0.453970
H106 H 0.360000 1.218000 -0.529000
H107 H 0.332000 1.345000 -0.458000
H108 H 0.469000 1.224000 -0.449000
C109 C -0.264300 0.828700 0.319100
C110 C -0.213500 0.957400 0.318800
H111 H -0.247300 1.000000 0.402500
C112 C -0.110600 1.024900 0.192800
H113 H -0.076000 1.113000 0.193500
C114 C -0.058000 0.965800 0.066600
C115 C -0.119600 0.839100 0.070100
H116 H -0.091700 0.798600 -0.014400
C117 C -0.222000 0.770100 0.196200
H118 H -0.261000 0.684200 0.195900
N119 N -0.367100 0.751500 0.453970
H120 H -0.360000 0.782000 0.529000
H121 H -0.332000 0.655000 0.458000
H122 H -0.469000 0.776000 0.449000
C123 C 0.264300 1.171300 0.680900
C124 C 0.213500 1.042600 0.681200
H125 H 0.247300 1.000000 0.597500
C126 C 0.110600 0.975100 0.807200
H127 H 0.076000 0.887000 0.806500
C128 C 0.058000 1.034200 0.933400
C129 C 0.119600 1.160900 0.929900
H130 H 0.091700 1.201400 1.014400
C131 C 0.222000 1.229900 0.803800
H132 H 0.261000 1.315800 0.804100
N133 N 0.367100 1.248500 0.546030
H134 H 0.360000 1.218000 0.471000
H135 H 0.332000 1.345000 0.542000
H136 H 0.469000 1.224000 0.551000
C137 C -0.264300 0.828700 1.319100
C138 C -0.213500 0.957400 1.318800
H139 H -0.247300 1.000000 1.402500
C140 C -0.110600 1.024900 1.192800
H141 H -0.076000 1.113000 1.193500
C142 C -0.058000 0.965800 1.066600
C143 C -0.119600 0.839100 1.070100
H144 H -0.091700 0.798600 0.985600
C145 C -0.222000 0.770100 1.196200
H146 H -0.261000 0.684200 1.195900
N147 N -0.367100 0.751500 1.453970
H148 H -0.360000 0.782000 1.529000
H149 H -0.332000 0.655000 1.458000
H150 H -0.469000 0.776000 1.449000
C151 C 1.264300 0.171300 -0.319100
C152 C 1.213500 0.042600 -0.318800
H153 H 1.247300 0.000000 -0.402500
C154 C 1.110600 -0.024900 -0.192800
H155 H 1.076000 -0.113000 -0.193500
C156 C 1.058000 0.034200 -0.066600
C157 C 1.119600 0.160900 -0.070100
H158 H 1.091700 0.201400 0.014400
C159 C 1.222000 0.229900 -0.196200
H160 H 1.261000 0.315800 -0.195900
N161 N 1.367100 0.248500 -0.453970
H162 H 1.360000 0.218000 -0.529000
H163 H 1.332000 0.345000 -0.458000
H164 H 1.469000 0.224000 -0.449000
C165 C 0.735700 -0.171300 0.319100
C166 C 0.786500 -0.042600 0.318800
H167 H 0.752700 -0.000000 0.402500
C168 C 0.889400 0.024900 0.192800
H169 H 0.924000 0.113000 0.193500
C170 C 0.942000 -0.034200 0.066600
C171 C 0.880400 -0.160900 0.070100
H172 H 0.908300 -0.201400 -0.014400
C173 C 0.778000 -0.229900 0.196200
H174 H 0.739000 -0.315800 0.195900
N175 N 0.632900 -0.248500 0.453970
H176 H 0.640000 -0.218000 0.529000
H177 H 0.668000 -0.345000 0.458000
H178 H 0.531000 -0.224000 0.449000
C179 C 1.264300 0.171300 0.680900
C180 C 1.213500 0.042600 0.681200
H181 H 1.247300 0.000000 0.597500
C182 C 1.110600 -0.024900 0.807200
H183 H 1.076000 -0.113000 0.806500
C184 C 1.058000 0.034200 0.933400
C185 C 1.119600 0.160900 0.929900
H186 H 1.091700 0.201400 1.014400
C187 C 1.222000 0.229900 0.803800
H188 H 1.261000 0.315800 0.804100
N189 N 1.367100 0.248500 0.546030
H190 H 1.360000 0.218000 0.471000
H191 H 1.332000 0.345000 0.542000
H192 H 1.469000 0.224000 0.551000
C193 C 0.735700 -0.171300 1.319100
C194 C 0.786500 -0.042600 1.318800
H195 H 0.752700 -0.000000 1.402500
C196 C 0.889400 0.024900 1.192800
H197 H 0.924000 0.113000 1.193500
C198 C 0.942000 -0.034200 1.066600
C199 C 0.880400 -0.160900 1.070100
H200 H 0.908300 -0.201400 0.985600
C201 C 0.778000 -0.229900 1.196200
H202 H 0.739000 -0.315800 1.195900
N203 N 0.632900 -0.248500 1.453970
H204 H 0.640000 -0.218000 1.529000
H205 H 0.668000 -0.345000 1.458000
H206 H 0.531000 -0.224000 1.449000
C207 C 1.264300 1.171300 -0.319100
C208 C 1.213500 1.042600 -0.318800
H209 H 1.247300 1.000000 -0.402500
C210 C 1.110600 0.975100 -0.192800
H211 H 1.076000 0.887000 -0.193500
C212 C 1.058000 1.034200 -0.066600
C213 C 1.119600 1.160900 -0.070100
H214 H 1.091700 1.201400 0.014400
C215 C 1.222000 1.229900 -0.196200
H216 H 1.261000 1.315800 -0.195900
N217 N 1.367100 1.248500 -0.453970
H218 H 1.360000 1.218000 -0.529000
H219 H 1.332000 1.345000 -0.458000
H220 H 1.469000 1.224000 -0.449000
C221 C 0.735700 0.828700 0.319100
C222 C 0.786500 0.957400 0.318800
H223 H 0.752700 1.000000 0.402500
C224 C 0.889400 1.024900 0.192800
H225 H 0.924000 1.113000 0.193500
C226 C 0.942000 0.965800 0.066600
C227 C 0.880400 0.839100 0.070100
H228 H 0.908300 0.798600 -0.014400
C229 C 0.778000 0.770100 0.196200
H230 H 0.739000 0.684200 0.195900
N231 N 0.632900 0.751500 0.453970
H232 H 0.640000 0.782000 0.529000
H233 H 0.668000 0.655000 0.458000
H234 H 0.531000 0.776000 0.449000
C235 C 1.264300 1.171300 0.680900
C236 C 1.213500 1.042600 0.681200
H237 H 1.247300 1.000000 0.597500
C238 C 1.110600 0.975100 0.807200
H239 H 1.076000 0.887000 0.806500
C240 C 1.058000 1.034200 0.933400
C241 C 1.119600 1.160900 0.929900
H242 H 1.091700 1.201400 1.014400
C243 C 1.222000 1.229900 0.803800
H244 H 1.261000 1.315800 0.804100
N245 N 1.367100 1.248500 0.546030
H246 H 1.360000 1.218000 0.471000
H247 H 1.332000 1.345000 0.542000
H248 H 1.469000 1.224000 0.551000
C249 C 0.735700 0.828700 1.319100
C250 C 0.786500 0.957400 1.318800
H251 H 0.752700 1.000000 1.402500
C252 C 0.889400 1.024900 1.192800
H253 H 0.924000 1.113000 1.193500
C254 C 0.942000 0.965800 1.066600
C255 C 0.880400 0.839100 1.070100
H256 H 0.908300 0.798600 0.985600
C257 C 0.778000 0.770100 1.196200
H258 H 0.739000 0.684200 1.195900
N259 N 0.632900 0.751500 1.453970
H260 H 0.640000 0.782000 1.529000
H261 H 0.668000 0.655000 1.458000
H262 H 0.531000 0.776000 1.449000
O263 O 0.786600 0.889900 0.672000
H264 H 0.876000 0.852000 0.638000
H265 H 0.783000 0.978000 0.641000
O266 O 0.213400 0.110100 0.328000
H267 H 0.124000 0.148000 0.362000
H268 H 0.217000 0.022000 0.359000

#END
