
#######################################################################
#
#                 Cambridge Crystallographic Data Centre
#                                CCDC 
#
#######################################################################
#
# If this CIF has been generated from an entry in the Cambridge 
# Structural Database, then it will include bibliographic, chemical, 
# crystal, experimental, refinement or atomic coordinate data resulting 
# from the CCDC's data processing and validation procedures.
#
#######################################################################

data_KAHSAQ
_symmetry_cell_setting           monoclinic
_symmetry_space_group_name_H-M   'P 21'
_symmetry_Int_Tables_number      4
_space_group_name_Hall           'P 2yb'
loop_
_symmetry_equiv_pos_site_id
_symmetry_equiv_pos_as_xyz
1 x,y,z
2 -x,1/2+y,-z
_cell_length_a                   10.046(3)
_cell_length_b                   6.594(2)
_cell_length_c                   13.521(5)
_cell_angle_alpha                90
_cell_angle_beta                 91.895(5)
_cell_angle_gamma                90
_cell_volume                     895.186
loop_
_atom_site_label
_atom_site_type_symbol
_atom_site_fract_x
_atom_site_fract_y
_atom_site_fract_z
C1 C 0.4646(5) 0.3488(8) 0.5773(4)
H1 H 0.5469 0.2876 0.5692
C2 C 0.3772(5) 0.3708(8) 0.4913(4)
C3 C 0.2388(5) 0.4508(10) 0.5044(4)
H2 H 0.1775 0.3742 0.4620
H3 H 0.2356 0.5909 0.4826
C4 C 0.1912(5) 0.4406(8) 0.6101(4)
C5 C 0.3031(5) 0.5275(8) 0.6816(4)
C6 C 0.2621(5) 0.5295(10) 0.7896(4)
H4 H 0.2344 0.3940 0.8078
H5 H 0.1861 0.6188 0.7957
C7 C 0.3737(5) 0.5995(10) 0.8625(4)
H6 H 0.3609 0.7422 0.8768
H7 H 0.3659 0.5254 0.9240
C8 C 0.5141(5) 0.5699(8) 0.8255(4)
H8 H 0.5332 0.6888 0.7848
C9 C 0.5290(5) 0.3846(7) 0.7584(3)
C10 C 0.4342(5) 0.4114(7) 0.6684(4)
C11 C 0.6748(4) 0.3734(8) 0.7275(3)
H9 H 0.6874 0.2505 0.6896
H10 H 0.6932 0.4878 0.6850
C12 C 0.7745(5) 0.3750(8) 0.8162(4)
H11 H 0.7618 0.2538 0.8554
H12 H 0.8643 0.3716 0.7920
C13 C 0.7595(6) 0.5616(10) 0.8823(4)
C14 C 0.6136(5) 0.5731(10) 0.9106(4)
H13 H 0.5951 0.4599 0.9539
H14 H 0.6008 0.6966 0.9481
C15 C 0.8436(8) 0.5279(13) 0.9698(7)
H15 H 0.8755 0.3957 0.9672
C16 C 0.8908(9) 0.6087(19) 1.0488(7)
H16 H 0.8695 0.7422 1.0640
H17 H 0.9467 0.5345 1.0914
C17 C 0.8013(6) 0.7591(11) 0.8288(5)
H18 H 0.7473 0.7762 0.7694
H19 H 0.8933 0.7499 0.8121
H20 H 0.7892 0.8732 0.8717
C18 C 0.0619(5) 0.5672(12) 0.6155(5)
H21 H 0.0000 0.5248 0.5640
H22 H 0.0825 0.7082 0.6072
H23 H 0.0232 0.5470 0.6787
C19 C 0.1586(6) 0.2199(9) 0.6365(5)
H24 H 0.0908 0.1692 0.5913
H25 H 0.1273 0.2142 0.7028
H26 H 0.2374 0.1384 0.6320
C20 C 0.4897(5) 0.1854(8) 0.8093(4)
H27 H 0.4000 0.1959 0.8312
H28 H 0.5490 0.1610 0.8652
H29 H 0.4956 0.0752 0.7633
O1 O 0.4136(3) 0.3286(6) 0.4078(3)
O2 O 0.3240(3) 0.7368(5) 0.6542(3)
H30 H 0.3999 0.7506 0.6347
C1 C 0.5354(5) 0.8488(8) 0.4227(4)
H1 H 0.4531 0.7876 0.4308
C2 C 0.6228(5) 0.8708(8) 0.5087(4)
C3 C 0.7612(5) 0.9508(10) 0.4956(4)
H2 H 0.8225 0.8742 0.5380
H3 H 0.7644 1.0909 0.5174
C4 C 0.8088(5) 0.9406(8) 0.3899(4)
C5 C 0.6969(5) 1.0275(8) 0.3184(4)
C6 C 0.7379(5) 1.0295(10) 0.2104(4)
H4 H 0.7656 0.8940 0.1922
H5 H 0.8139 1.1188 0.2043
C7 C 0.6263(5) 1.0995(10) 0.1375(4)
H6 H 0.6391 1.2422 0.1232
H7 H 0.6341 1.0254 0.0760
C8 C 0.4859(5) 1.0699(8) 0.1745(4)
H8 H 0.4668 1.1888 0.2152
C9 C 0.4710(5) 0.8846(7) 0.2416(3)
C10 C 0.5658(5) 0.9114(7) 0.3316(4)
C11 C 0.3252(4) 0.8734(8) 0.2725(3)
H9 H 0.3126 0.7505 0.3104
H10 H 0.3068 0.9878 0.3150
C12 C 0.2255(5) 0.8750(8) 0.1838(4)
H11 H 0.2382 0.7538 0.1446
H12 H 0.1357 0.8716 0.2080
C13 C 0.2405(6) 1.0616(10) 0.1177(4)
C14 C 0.3864(5) 1.0731(10) 0.0894(4)
H13 H 0.4049 0.9599 0.0461
H14 H 0.3992 1.1966 0.0519
C15 C 0.1564(8) 1.0279(13) 0.0302(7)
H15 H 0.1245 0.8957 0.0328
C16 C 0.1092(9) 1.1087(19) -0.0488(7)
H16 H 0.1305 1.2422 -0.0640
H17 H 0.0533 1.0345 -0.0914
C17 C 0.1987(6) 1.2591(11) 0.1712(5)
H18 H 0.2527 1.2762 0.2306
H19 H 0.1067 1.2499 0.1879
H20 H 0.2108 1.3732 0.1283
C18 C 0.9381(5) 1.0672(12) 0.3845(5)
H21 H 1.0000 1.0248 0.4360
H22 H 0.9175 1.2082 0.3928
H23 H 0.9768 1.0470 0.3213
C19 C 0.8414(6) 0.7199(9) 0.3635(5)
H24 H 0.9092 0.6692 0.4087
H25 H 0.8727 0.7142 0.2972
H26 H 0.7626 0.6384 0.3680
C20 C 0.5103(5) 0.6854(8) 0.1907(4)
H27 H 0.6000 0.6959 0.1688
H28 H 0.4510 0.6610 0.1348
H29 H 0.5044 0.5752 0.2367
O1 O 0.5864(3) 0.8286(6) 0.5922(3)
O2 O 0.6760(3) 1.2368(5) 0.3458(3)
H30 H 0.6001 1.2506 0.3653

#END
