
#######################################################################
#
#                 Cambridge Crystallographic Data Centre
#                                CCDC 
#
#######################################################################
#
# If this CIF has been generated from an entry in the Cambridge 
# Structural Database, then it will include bibliographic, chemical, 
# crystal, experimental, refinement or atomic coordinate data resulting 
# from the CCDC's data processing and validation procedures.
#
#######################################################################

data_KAHTAO02
_symmetry_cell_setting           monoclinic
_symmetry_space_group_name_H-M   'P 21/n'
_symmetry_Int_Tables_number      14
_space_group_name_Hall           '-P 2yn'
loop_
_symmetry_equiv_pos_site_id
_symmetry_equiv_pos_as_xyz
1 x,y,z
2 1/2-x,1/2+y,1/2-z
3 -x,-y,-z
4 1/2+x,1/2-y,1/2+z
_cell_length_a                   25.794(2)
_cell_length_b                   8.256(1)
_cell_length_c                   9.3112(8)
_cell_angle_alpha                90
_cell_angle_beta                 95.719(8)
_cell_angle_gamma                90
_cell_volume                     1973
loop_
_atom_site_label
_atom_site_type_symbol
_atom_site_fract_x
_atom_site_fract_y
_atom_site_fract_z
O1 O 0.94335(6) 0.0406(2) -0.1633(1)
O2 O 0.76921(6) -0.2217(2) 0.1177(2)
O3 O 0.84837(5) -0.2641(2) 0.0455(2)
O4 O 0.86639(5) 0.1631(2) -0.2235(1)
C1 C 0.90491(7) 0.1035(2) -0.1241(2)
C2 C 0.81500(8) -0.1900(3) 0.1313(2)
C3 C 0.90070(7) -0.2143(2) 0.0828(2)
C4 C 0.90177(7) -0.0879(2) 0.1998(2)
C5 C 0.82945(8) 0.2444(2) -0.1482(2)
C6 C 0.84791(7) 0.2369(2) 0.0047(2)
C7 C 0.93492(8) -0.1363(6) 0.3412(2)
C8 C 0.82916(9) 0.3287(3) 0.1287(2)
C9 C 0.8763(1) 0.3562(3) 0.2390(2)
C10 C 0.92058(9) -0.0234(4) 0.4639(2)
C11 C 0.90699(8) 0.2035(3) 0.2876(2)
C12 C 0.88071(8) 0.1049(3) 0.4033(2)
C13 C 0.91881(7) 0.0885(2) 0.1596(2)
C14 C 0.89038(7) 0.1420(2) 0.0202(2)
C15 C 0.84585(7) -0.0803(7) 0.2289(2)
C16 C 0.83379(8) 0.0187(3) 0.3329(2)
C17 C 0.78671(9) 0.2990(3) -0.2244(2)
C18 C 0.93836(8) -0.2839(3) 0.0206(2)
C19 C 0.93201(9) -0.4159(3) -0.0905(2)
C20 C 0.7403(1) 0.3769(3) -0.1669(3)
C21 C 0.9578(1) -0.3803(3) -0.2247(3)
C22 C 0.6950(1) 0.2585(4) -0.1635(3)
C23 C 0.7029(1) 0.1393(4) -0.0404(3)
C24 C 0.9505(1) -0.5135(4) -0.3372(3)
H1 H 0.802(1) 0.266(3) 0.170(3)
H2 H 0.928(1) -0.255(3) 0.362(3)
H3 H 0.815(1) 0.435(3) 0.091(3)
H4 H 0.972(1) -0.127(3) 0.328(3)
H5 H 0.902(1) 0.440(3) 0.195(3)
H6 H 0.906(1) -0.088(3) 0.543(3)
H7 H 0.864(1) 0.414(3) 0.326(3)
H8 H 0.952(1) 0.029(3) 0.514(3)
H9 H 0.940(1) 0.236(3) 0.338(3)
H10 H 0.872(1) 0.184(3) 0.484(3)
H11 H 0.799(1) 0.036(3) 0.360(3)
H12 H 0.957(1) 0.085(3) 0.151(3)
H13 H 0.784(1) 0.280(3) -0.339(3)
H14 H 0.974(1) -0.240(3) 0.047(3)
H15 H 0.892(1) -0.439(3) -0.121(3)
H16 H 0.752(1) 0.421(3) -0.064(3)
H17 H 0.947(1) -0.524(3) -0.048(3)
H18 H 0.728(1) 0.463(3) -0.233(3)
H19 H 0.661(1) 0.323(3) -0.153(3)
H20 H 0.998(1) -0.361(3) -0.192(3)
H21 H 0.941(1) -0.276(3) -0.268(3)
H22 H 0.688(1) 0.207(3) -0.265(3)
H23 H 0.738(1) 0.072(3) -0.041(3)
H24 H 0.965(1) -0.490(3) -0.428(3)
H25 H 0.673(1) 0.059(3) -0.045(3)
H26 H 0.967(1) -0.617(3) -0.302(3)
H27 H 0.705(1) 0.194(3) 0.060(3)
H28 H 0.912(1) -0.538(3) -0.367(3)
O1 O 0.55665(6) 0.5406(2) 0.6633(1)
O2 O 0.73079(6) 0.2783(2) 0.3823(2)
O3 O 0.65163(5) 0.2359(2) 0.4545(2)
O4 O 0.63361(5) 0.6631(2) 0.7235(1)
C1 C 0.59509(7) 0.6035(2) 0.6241(2)
C2 C 0.68500(8) 0.3100(3) 0.3687(2)
C3 C 0.59930(7) 0.2857(2) 0.4172(2)
C4 C 0.59823(7) 0.4121(2) 0.3002(2)
C5 C 0.67055(8) 0.7444(2) 0.6482(2)
C6 C 0.65209(7) 0.7369(2) 0.4953(2)
C7 C 0.56508(8) 0.3637(6) 0.1588(2)
C8 C 0.67084(9) 0.8287(3) 0.3713(2)
C9 C 0.6237(1) 0.8562(3) 0.2610(2)
C10 C 0.57942(9) 0.4766(4) 0.0361(2)
C11 C 0.59301(8) 0.7035(3) 0.2124(2)
C12 C 0.61929(8) 0.6049(3) 0.0967(2)
C13 C 0.58119(7) 0.5885(2) 0.3404(2)
C14 C 0.60962(7) 0.6420(2) 0.4798(2)
C15 C 0.65415(7) 0.4197(7) 0.2711(2)
C16 C 0.66621(8) 0.5187(3) 0.1671(2)
C17 C 0.71329(9) 0.7990(3) 0.7244(2)
C18 C 0.56164(8) 0.2161(3) 0.4794(2)
C19 C 0.56799(9) 0.0841(3) 0.5905(2)
C20 C 0.7597(1) 0.8769(3) 0.6669(3)
C21 C 0.5422(1) 0.1197(3) 0.7247(3)
C22 C 0.8050(1) 0.7585(4) 0.6635(3)
C23 C 0.7971(1) 0.6393(4) 0.5404(3)
C24 C 0.5495(1) -0.0135(4) 0.8372(3)
H1 H 0.698(1) 0.766(3) 0.330(3)
H2 H 0.572(1) 0.245(3) 0.138(3)
H3 H 0.685(1) 0.935(3) 0.409(3)
H4 H 0.528(1) 0.373(3) 0.172(3)
H5 H 0.598(1) 0.940(3) 0.305(3)
H6 H 0.594(1) 0.412(3) -0.043(3)
H7 H 0.636(1) 0.914(3) 0.174(3)
H8 H 0.548(1) 0.529(3) -0.014(3)
H9 H 0.560(1) 0.736(3) 0.162(3)
H10 H 0.628(1) 0.684(3) 0.016(3)
H11 H 0.701(1) 0.536(3) 0.140(3)
H12 H 0.543(1) 0.585(3) 0.349(3)
H13 H 0.716(1) 0.780(3) 0.839(3)
H14 H 0.526(1) 0.260(3) 0.453(3)
H15 H 0.608(1) 0.061(3) 0.621(3)
H16 H 0.748(1) 0.921(3) 0.564(3)
H17 H 0.553(1) -0.024(3) 0.548(3)
H18 H 0.772(1) 0.963(3) 0.733(3)
H19 H 0.839(1) 0.823(3) 0.653(3)
H20 H 0.502(1) 0.139(3) 0.692(3)
H21 H 0.559(1) 0.224(3) 0.768(3)
H22 H 0.812(1) 0.707(3) 0.765(3)
H23 H 0.762(1) 0.572(3) 0.541(3)
H24 H 0.535(1) 0.010(3) 0.928(3)
H25 H 0.827(1) 0.559(3) 0.545(3)
H26 H 0.533(1) -0.117(3) 0.802(3)
H27 H 0.795(1) 0.694(3) 0.440(3)
H28 H 0.588(1) -0.038(3) 0.867(3)
O1 O 0.05665(6) 0.9594(2) 1.1633(1)
O2 O 0.23079(6) 1.2217(2) 0.8823(2)
O3 O 0.15163(5) 1.2641(2) 0.9545(2)
O4 O 0.13361(5) 0.8369(2) 1.2235(1)
C1 C 0.09509(7) 0.8965(2) 1.1241(2)
C2 C 0.18500(8) 1.1900(3) 0.8687(2)
C3 C 0.09930(7) 1.2143(2) 0.9172(2)
C4 C 0.09823(7) 1.0879(2) 0.8002(2)
C5 C 0.17055(8) 0.7556(2) 1.1482(2)
C6 C 0.15209(7) 0.7631(2) 0.9953(2)
C7 C 0.06508(8) 1.1363(6) 0.6588(2)
C8 C 0.17084(9) 0.6713(3) 0.8713(2)
C9 C 0.1237(1) 0.6438(3) 0.7610(2)
C10 C 0.07942(9) 1.0234(4) 0.5361(2)
C11 C 0.09301(8) 0.7965(3) 0.7124(2)
C12 C 0.11929(8) 0.8951(3) 0.5967(2)
C13 C 0.08119(7) 0.9115(2) 0.8404(2)
C14 C 0.10962(7) 0.8580(2) 0.9798(2)
C15 C 0.15415(7) 1.0803(7) 0.7711(2)
C16 C 0.16621(8) 0.9813(3) 0.6671(2)
C17 C 0.21329(9) 0.7010(3) 1.2244(2)
C18 C 0.06164(8) 1.2839(3) 0.9794(2)
C19 C 0.06799(9) 1.4159(3) 1.0905(2)
C20 C 0.2597(1) 0.6231(3) 1.1669(3)
C21 C 0.0422(1) 1.3803(3) 1.2247(3)
C22 C 0.3050(1) 0.7415(4) 1.1635(3)
C23 C 0.2971(1) 0.8607(4) 1.0404(3)
C24 C 0.0495(1) 1.5135(4) 1.3372(3)
H1 H 0.198(1) 0.734(3) 0.830(3)
H2 H 0.072(1) 1.255(3) 0.638(3)
H3 H 0.185(1) 0.565(3) 0.909(3)
H4 H 0.028(1) 1.127(3) 0.672(3)
H5 H 0.098(1) 0.560(3) 0.805(3)
H6 H 0.094(1) 1.088(3) 0.457(3)
H7 H 0.136(1) 0.586(3) 0.674(3)
H8 H 0.048(1) 0.971(3) 0.486(3)
H9 H 0.060(1) 0.764(3) 0.662(3)
H10 H 0.128(1) 0.816(3) 0.516(3)
H11 H 0.201(1) 0.964(3) 0.640(3)
H12 H 0.043(1) 0.915(3) 0.849(3)
H13 H 0.216(1) 0.720(3) 1.339(3)
H14 H 0.026(1) 1.240(3) 0.953(3)
H15 H 0.108(1) 1.439(3) 1.121(3)
H16 H 0.248(1) 0.579(3) 1.064(3)
H17 H 0.053(1) 1.524(3) 1.048(3)
H18 H 0.272(1) 0.537(3) 1.233(3)
H19 H 0.339(1) 0.677(3) 1.153(3)
H20 H 0.002(1) 1.361(3) 1.192(3)
H21 H 0.059(1) 1.276(3) 1.268(3)
H22 H 0.312(1) 0.793(3) 1.265(3)
H23 H 0.262(1) 0.928(3) 1.041(3)
H24 H 0.035(1) 1.490(3) 1.428(3)
H25 H 0.327(1) 0.941(3) 1.045(3)
H26 H 0.033(1) 1.617(3) 1.302(3)
H27 H 0.295(1) 0.806(3) 0.940(3)
H28 H 0.088(1) 1.538(3) 1.367(3)
O1 O 0.44335(6) 0.4594(2) 0.3367(1)
O2 O 0.26921(6) 0.7217(2) 0.6177(2)
O3 O 0.34837(5) 0.7641(2) 0.5455(2)
O4 O 0.36639(5) 0.3369(2) 0.2765(1)
C1 C 0.40491(7) 0.3965(2) 0.3759(2)
C2 C 0.31500(8) 0.6900(3) 0.6313(2)
C3 C 0.40070(7) 0.7143(2) 0.5828(2)
C4 C 0.40177(7) 0.5879(2) 0.6998(2)
C5 C 0.32945(8) 0.2556(2) 0.3518(2)
C6 C 0.34791(7) 0.2631(2) 0.5047(2)
C7 C 0.43492(8) 0.6363(6) 0.8412(2)
C8 C 0.32916(9) 0.1713(3) 0.6287(2)
C9 C 0.3763(1) 0.1438(3) 0.7390(2)
C10 C 0.42058(9) 0.5234(4) 0.9639(2)
C11 C 0.40699(8) 0.2965(3) 0.7876(2)
C12 C 0.38071(8) 0.3951(3) 0.9033(2)
C13 C 0.41881(7) 0.4115(2) 0.6596(2)
C14 C 0.39038(7) 0.3580(2) 0.5202(2)
C15 C 0.34585(7) 0.5803(7) 0.7289(2)
C16 C 0.33379(8) 0.4813(3) 0.8329(2)
C17 C 0.28671(9) 0.2010(3) 0.2756(2)
C18 C 0.43836(8) 0.7839(3) 0.5206(2)
C19 C 0.43201(9) 0.9159(3) 0.4095(2)
C20 C 0.2403(1) 0.1231(3) 0.3331(3)
C21 C 0.4578(1) 0.8803(3) 0.2753(3)
C22 C 0.1950(1) 0.2415(4) 0.3365(3)
C23 C 0.2029(1) 0.3607(4) 0.4596(3)
C24 C 0.4505(1) 1.0135(4) 0.1628(3)
H1 H 0.302(1) 0.234(3) 0.670(3)
H2 H 0.428(1) 0.755(3) 0.862(3)
H3 H 0.315(1) 0.065(3) 0.591(3)
H4 H 0.472(1) 0.627(3) 0.828(3)
H5 H 0.402(1) 0.060(3) 0.695(3)
H6 H 0.406(1) 0.588(3) 1.043(3)
H7 H 0.364(1) 0.086(3) 0.826(3)
H8 H 0.452(1) 0.471(3) 1.014(3)
H9 H 0.440(1) 0.264(3) 0.838(3)
H10 H 0.372(1) 0.316(3) 0.984(3)
H11 H 0.299(1) 0.464(3) 0.860(3)
H12 H 0.457(1) 0.415(3) 0.651(3)
H13 H 0.284(1) 0.220(3) 0.161(3)
H14 H 0.474(1) 0.740(3) 0.547(3)
H15 H 0.392(1) 0.939(3) 0.379(3)
H16 H 0.252(1) 0.079(3) 0.436(3)
H17 H 0.447(1) 1.024(3) 0.452(3)
H18 H 0.228(1) 0.037(3) 0.267(3)
H19 H 0.161(1) 0.177(3) 0.347(3)
H20 H 0.498(1) 0.861(3) 0.308(3)
H21 H 0.441(1) 0.776(3) 0.232(3)
H22 H 0.188(1) 0.293(3) 0.235(3)
H23 H 0.238(1) 0.428(3) 0.459(3)
H24 H 0.465(1) 0.990(3) 0.072(3)
H25 H 0.173(1) 0.441(3) 0.455(3)
H26 H 0.467(1) 1.117(3) 0.198(3)
H27 H 0.205(1) 0.306(3) 0.560(3)
H28 H 0.412(1) 1.038(3) 0.133(3)

#END
