./KAHTAO02_from_xyz.cif_generated_by_CrystalShift
_symmetry_cell_setting triclinic
_symmetry_space_group_name_H-M 'P 1'
loop_
_symmetry_equiv_pos_site_id
_symmetry_equiv_pos_as_xyz
1 x,y,z
_cell_length_a 25.794000
_cell_length_b 8.256000
_cell_length_c 9.311200
_cell_angle_alpha 90.000000
_cell_angle_beta 95.719000
_cell_angle_gamma 90.000000
_cell_volume 1972.999429
loop_
_atom_site_label
_atom_site_type_symbol
_atom_site_fract_x
_atom_site_fract_y
_atom_site_fract_z
O1 O 0.943350 0.040600 -0.163300
O2 O 0.769210 -0.221700 0.117700
O3 O 0.848370 -0.264100 0.045500
O4 O 0.866390 0.163100 -0.223500
C5 C 0.904910 0.103500 -0.124100
C6 C 0.815000 -0.190000 0.131300
C7 C 0.900700 -0.214300 0.082800
C8 C 0.901770 -0.087900 0.199800
C9 C 0.829450 0.244400 -0.148200
C10 C 0.847910 0.236900 0.004700
C11 C 0.934920 -0.136300 0.341200
C12 C 0.829160 0.328700 0.128700
C13 C 0.876300 0.356200 0.239000
C14 C 0.920580 -0.023400 0.463900
C15 C 0.906990 0.203500 0.287600
C16 C 0.880710 0.104900 0.403300
C17 C 0.918810 0.088500 0.159600
C18 C 0.890380 0.142000 0.020200
C19 C 0.845850 -0.080300 0.228900
C20 C 0.833790 0.018700 0.332900
C21 C 0.786710 0.299000 -0.224400
C22 C 0.938360 -0.283900 0.020600
C23 C 0.932010 -0.415900 -0.090500
C24 C 0.740300 0.376900 -0.166900
C25 C 0.957800 -0.380300 -0.224700
C26 C 0.695000 0.258500 -0.163500
C27 C 0.702900 0.139300 -0.040400
C28 C 0.950500 -0.513500 -0.337200
H29 H 0.802000 0.266000 0.170000
H30 H 0.928000 -0.255000 0.362000
H31 H 0.815000 0.435000 0.091000
H32 H 0.972000 -0.127000 0.328000
H33 H 0.902000 0.440000 0.195000
H34 H 0.906000 -0.088000 0.543000
H35 H 0.864000 0.414000 0.326000
H36 H 0.952000 0.029000 0.514000
H37 H 0.940000 0.236000 0.338000
H38 H 0.872000 0.184000 0.484000
H39 H 0.799000 0.036000 0.360000
H40 H 0.957000 0.085000 0.151000
H41 H 0.784000 0.280000 -0.339000
H42 H 0.974000 -0.240000 0.047000
H43 H 0.892000 -0.439000 -0.121000
H44 H 0.752000 0.421000 -0.064000
H45 H 0.947000 -0.524000 -0.048000
H46 H 0.728000 0.463000 -0.233000
H47 H 0.661000 0.323000 -0.153000
H48 H 0.998000 -0.361000 -0.192000
H49 H 0.941000 -0.276000 -0.268000
H50 H 0.688000 0.207000 -0.265000
H51 H 0.738000 0.072000 -0.041000
H52 H 0.965000 -0.490000 -0.428000
H53 H 0.673000 0.059000 -0.045000
H54 H 0.967000 -0.617000 -0.302000
H55 H 0.705000 0.194000 0.060000
H56 H 0.912000 -0.538000 -0.367000
O57 O 0.556650 0.540600 0.663300
O58 O 0.730790 0.278300 0.382300
O59 O 0.651630 0.235900 0.454500
O60 O 0.633610 0.663100 0.723500
C61 C 0.595090 0.603500 0.624100
C62 C 0.685000 0.310000 0.368700
C63 C 0.599300 0.285700 0.417200
C64 C 0.598230 0.412100 0.300200
C65 C 0.670550 0.744400 0.648200
C66 C 0.652090 0.736900 0.495300
C67 C 0.565080 0.363700 0.158800
C68 C 0.670840 0.828700 0.371300
C69 C 0.623700 0.856200 0.261000
C70 C 0.579420 0.476600 0.036100
C71 C 0.593010 0.703500 0.212400
C72 C 0.619290 0.604900 0.096700
C73 C 0.581190 0.588500 0.340400
C74 C 0.609620 0.642000 0.479800
C75 C 0.654150 0.419700 0.271100
C76 C 0.666210 0.518700 0.167100
C77 C 0.713290 0.799000 0.724400
C78 C 0.561640 0.216100 0.479400
C79 C 0.567990 0.084100 0.590500
C80 C 0.759700 0.876900 0.666900
C81 C 0.542200 0.119700 0.724700
C82 C 0.805000 0.758500 0.663500
C83 C 0.797100 0.639300 0.540400
C84 C 0.549500 -0.013500 0.837200
H85 H 0.698000 0.766000 0.330000
H86 H 0.572000 0.245000 0.138000
H87 H 0.685000 0.935000 0.409000
H88 H 0.528000 0.373000 0.172000
H89 H 0.598000 0.940000 0.305000
H90 H 0.594000 0.412000 -0.043000
H91 H 0.636000 0.914000 0.174000
H92 H 0.548000 0.529000 -0.014000
H93 H 0.560000 0.736000 0.162000
H94 H 0.628000 0.684000 0.016000
H95 H 0.701000 0.536000 0.140000
H96 H 0.543000 0.585000 0.349000
H97 H 0.716000 0.780000 0.839000
H98 H 0.526000 0.260000 0.453000
H99 H 0.608000 0.061000 0.621000
H100 H 0.748000 0.921000 0.564000
H101 H 0.553000 -0.024000 0.548000
H102 H 0.772000 0.963000 0.733000
H103 H 0.839000 0.823000 0.653000
H104 H 0.502000 0.139000 0.692000
H105 H 0.559000 0.224000 0.768000
H106 H 0.812000 0.707000 0.765000
H107 H 0.762000 0.572000 0.541000
H108 H 0.535000 0.010000 0.928000
H109 H 0.827000 0.559000 0.545000
H110 H 0.533000 -0.117000 0.802000
H111 H 0.795000 0.694000 0.440000
H112 H 0.588000 -0.038000 0.867000
O113 O 0.056650 0.959400 1.163300
O114 O 0.230790 1.221700 0.882300
O115 O 0.151630 1.264100 0.954500
O116 O 0.133610 0.836900 1.223500
C117 C 0.095090 0.896500 1.124100
C118 C 0.185000 1.190000 0.868700
C119 C 0.099300 1.214300 0.917200
C120 C 0.098230 1.087900 0.800200
C121 C 0.170550 0.755600 1.148200
C122 C 0.152090 0.763100 0.995300
C123 C 0.065080 1.136300 0.658800
C124 C 0.170840 0.671300 0.871300
C125 C 0.123700 0.643800 0.761000
C126 C 0.079420 1.023400 0.536100
C127 C 0.093010 0.796500 0.712400
C128 C 0.119290 0.895100 0.596700
C129 C 0.081190 0.911500 0.840400
C130 C 0.109620 0.858000 0.979800
C131 C 0.154150 1.080300 0.771100
C132 C 0.166210 0.981300 0.667100
C133 C 0.213290 0.701000 1.224400
C134 C 0.061640 1.283900 0.979400
C135 C 0.067990 1.415900 1.090500
C136 C 0.259700 0.623100 1.166900
C137 C 0.042200 1.380300 1.224700
C138 C 0.305000 0.741500 1.163500
C139 C 0.297100 0.860700 1.040400
C140 C 0.049500 1.513500 1.337200
H141 H 0.198000 0.734000 0.830000
H142 H 0.072000 1.255000 0.638000
H143 H 0.185000 0.565000 0.909000
H144 H 0.028000 1.127000 0.672000
H145 H 0.098000 0.560000 0.805000
H146 H 0.094000 1.088000 0.457000
H147 H 0.136000 0.586000 0.674000
H148 H 0.048000 0.971000 0.486000
H149 H 0.060000 0.764000 0.662000
H150 H 0.128000 0.816000 0.516000
H151 H 0.201000 0.964000 0.640000
H152 H 0.043000 0.915000 0.849000
H153 H 0.216000 0.720000 1.339000
H154 H 0.026000 1.240000 0.953000
H155 H 0.108000 1.439000 1.121000
H156 H 0.248000 0.579000 1.064000
H157 H 0.053000 1.524000 1.048000
H158 H 0.272000 0.537000 1.233000
H159 H 0.339000 0.677000 1.153000
H160 H 0.002000 1.361000 1.192000
H161 H 0.059000 1.276000 1.268000
H162 H 0.312000 0.793000 1.265000
H163 H 0.262000 0.928000 1.041000
H164 H 0.035000 1.490000 1.428000
H165 H 0.327000 0.941000 1.045000
H166 H 0.033000 1.617000 1.302000
H167 H 0.295000 0.806000 0.940000
H168 H 0.088000 1.538000 1.367000
O169 O 0.443350 0.459400 0.336700
O170 O 0.269210 0.721700 0.617700
O171 O 0.348370 0.764100 0.545500
O172 O 0.366390 0.336900 0.276500
C173 C 0.404910 0.396500 0.375900
C174 C 0.315000 0.690000 0.631300
C175 C 0.400700 0.714300 0.582800
C176 C 0.401770 0.587900 0.699800
C177 C 0.329450 0.255600 0.351800
C178 C 0.347910 0.263100 0.504700
C179 C 0.434920 0.636300 0.841200
C180 C 0.329160 0.171300 0.628700
C181 C 0.376300 0.143800 0.739000
C182 C 0.420580 0.523400 0.963900
C183 C 0.406990 0.296500 0.787600
C184 C 0.380710 0.395100 0.903300
C185 C 0.418810 0.411500 0.659600
C186 C 0.390380 0.358000 0.520200
C187 C 0.345850 0.580300 0.728900
C188 C 0.333790 0.481300 0.832900
C189 C 0.286710 0.201000 0.275600
C190 C 0.438360 0.783900 0.520600
C191 C 0.432010 0.915900 0.409500
C192 C 0.240300 0.123100 0.333100
C193 C 0.457800 0.880300 0.275300
C194 C 0.195000 0.241500 0.336500
C195 C 0.202900 0.360700 0.459600
C196 C 0.450500 1.013500 0.162800
H197 H 0.302000 0.234000 0.670000
H198 H 0.428000 0.755000 0.862000
H199 H 0.315000 0.065000 0.591000
H200 H 0.472000 0.627000 0.828000
H201 H 0.402000 0.060000 0.695000
H202 H 0.406000 0.588000 1.043000
H203 H 0.364000 0.086000 0.826000
H204 H 0.452000 0.471000 1.014000
H205 H 0.440000 0.264000 0.838000
H206 H 0.372000 0.316000 0.984000
H207 H 0.299000 0.464000 0.860000
H208 H 0.457000 0.415000 0.651000
H209 H 0.284000 0.220000 0.161000
H210 H 0.474000 0.740000 0.547000
H211 H 0.392000 0.939000 0.379000
H212 H 0.252000 0.079000 0.436000
H213 H 0.447000 1.024000 0.452000
H214 H 0.228000 0.037000 0.267000
H215 H 0.161000 0.177000 0.347000
H216 H 0.498000 0.861000 0.308000
H217 H 0.441000 0.776000 0.232000
H218 H 0.188000 0.293000 0.235000
H219 H 0.238000 0.428000 0.459000
H220 H 0.465000 0.990000 0.072000
H221 H 0.173000 0.441000 0.455000
H222 H 0.467000 1.117000 0.198000
H223 H 0.205000 0.306000 0.560000
H224 H 0.412000 1.038000 0.133000

#END
