C:\cif_editor\VEWSIC_edited.cif_generated_by_CrystalShift
_symmetry_cell_setting triclinic
_symmetry_space_group_name_H-M 'P 1'
loop_
_symmetry_equiv_pos_site_id
_symmetry_equiv_pos_as_xyz
1 x,y,z
_cell_length_a 25.093655
_cell_length_b 4.021000
_cell_length_c 19.824000
_cell_angle_alpha 90.000000
_cell_angle_beta 38.100356
_cell_angle_gamma 90.000000
_cell_volume 1234.250046
loop_
_atom_site_label
_atom_site_type_symbol
_atom_site_fract_x
_atom_site_fract_y
_atom_site_fract_z
C1 C 0.291900 0.949100 0.793800
C2 C 0.226000 0.785300 0.827500
H3 H 0.172500 0.749200 0.903000
C4 C 0.238500 0.673900 0.750100
H5 H 0.193000 0.563800 0.772400
C6 C 0.317900 0.721600 0.638600
C7 C 0.381700 0.893200 0.608800
H8 H 0.434800 0.937700 0.533800
C9 C 0.369900 1.001300 0.685800
H10 H 0.415300 1.110400 0.664000
C11 C 0.328400 0.585600 0.560100
C12 C 0.425000 0.557000 0.371000
C13 C 0.373100 0.632900 0.368900
H14 H 0.320600 0.750800 0.428000
C15 C 0.397200 0.537700 0.281400
H16 H 0.361500 0.588000 0.279400
C17 C 0.473100 0.369600 0.196700
C18 C 0.526300 0.293800 0.197600
H19 H 0.579400 0.180500 0.137500
C20 C 0.501700 0.383600 0.285700
H21 H 0.536600 0.328000 0.288700
O22 O 0.406200 0.665600 0.455210
O23 O 0.276700 0.412100 0.583200
Br24 Br 0.275180 1.107120 0.900000
Br25 Br 0.505860 0.235890 0.075640
C26 C 0.208100 0.449100 0.206200
C27 C 0.274000 0.285300 0.172500
H28 H 0.327500 0.249200 0.097000
C29 C 0.261500 0.173900 0.249900
H30 H 0.307000 0.063800 0.227600
C31 C 0.182100 0.221600 0.361400
C32 C 0.118300 0.393200 0.391200
H33 H 0.065200 0.437700 0.466200
C34 C 0.130100 0.501300 0.314200
H35 H 0.084700 0.610400 0.336000
C36 C 0.171600 0.085600 0.439900
C37 C 0.075000 0.057000 0.629000
C38 C 0.126900 0.132900 0.631100
H39 H 0.179400 0.250800 0.572000
C40 C 0.102800 0.037700 0.718600
H41 H 0.138500 0.088000 0.720600
C42 C 0.026900 -0.130400 0.803300
C43 C -0.026300 -0.206200 0.802400
H44 H -0.079400 -0.319500 0.862500
C45 C -0.001700 -0.116400 0.714300
H46 H -0.036600 -0.172000 0.711300
O47 O 0.093800 0.165600 0.544790
O48 O 0.223300 -0.087900 0.416800
Br49 Br 0.224820 0.607120 0.100000
Br50 Br -0.005860 -0.264110 0.924360
C51 C 0.708100 0.050900 -0.793800
C52 C 0.774000 0.214700 -0.827500
H53 H 0.827500 0.250800 -0.903000
C54 C 0.761500 0.326100 -0.750100
H55 H 0.807000 0.436200 -0.772400
C56 C 0.682100 0.278400 -0.638600
C57 C 0.618300 0.106800 -0.608800
H58 H 0.565200 0.062300 -0.533800
C59 C 0.630100 -0.001300 -0.685800
H60 H 0.584700 -0.110400 -0.664000
C61 C 0.671600 0.414400 -0.560100
C62 C 0.575000 0.443000 -0.371000
C63 C 0.626900 0.367100 -0.368900
H64 H 0.679400 0.249200 -0.428000
C65 C 0.602800 0.462300 -0.281400
H66 H 0.638500 0.412000 -0.279400
C67 C 0.526900 0.630400 -0.196700
C68 C 0.473700 0.706200 -0.197600
H69 H 0.420600 0.819500 -0.137500
C70 C 0.498300 0.616400 -0.285700
H71 H 0.463400 0.672000 -0.288700
O72 O 0.593800 0.334400 -0.455210
O73 O 0.723300 0.587900 -0.583200
Br74 Br 0.724820 -0.107120 -0.900000
Br75 Br 0.494140 0.764110 -0.075640
C76 C 0.791900 0.550900 -0.206200
C77 C 0.726000 0.714700 -0.172500
H78 H 0.672500 0.750800 -0.097000
C79 C 0.738500 0.826100 -0.249900
H80 H 0.693000 0.936200 -0.227600
C81 C 0.817900 0.778400 -0.361400
C82 C 0.881700 0.606800 -0.391200
H83 H 0.934800 0.562300 -0.466200
C84 C 0.869900 0.498700 -0.314200
H85 H 0.915300 0.389600 -0.336000
C86 C 0.828400 0.914400 -0.439900
C87 C 0.925000 0.943000 -0.629000
C88 C 0.873100 0.867100 -0.631100
H89 H 0.820600 0.749200 -0.572000
C90 C 0.897200 0.962300 -0.718600
H91 H 0.861500 0.912000 -0.720600
C92 C 0.973100 1.130400 -0.803300
C93 C 1.026300 1.206200 -0.802400
H94 H 1.079400 1.319500 -0.862500
C95 C 1.001700 1.116400 -0.714300
H96 H 1.036600 1.172000 -0.711300
O97 O 0.906200 0.834400 -0.544790
O98 O 0.776700 1.087900 -0.416800
Br99 Br 0.775180 0.392880 -0.100000
Br100 Br 1.005860 1.264110 -0.924360

#END
