./KACGON_from_xyz.cif_generated_by_CrystalShift
_symmetry_cell_setting triclinic
_symmetry_space_group_name_H-M 'P 1'
loop_
_symmetry_equiv_pos_site_id
_symmetry_equiv_pos_as_xyz
1 x,y,z
_cell_length_a 7.064500
_cell_length_b 8.508800
_cell_length_c 16.325400
_cell_angle_alpha 98.908000
_cell_angle_beta 96.316000
_cell_angle_gamma 103.939000
_cell_volume 929.769947
loop_
_atom_site_label
_atom_site_type_symbol
_atom_site_fract_x
_atom_site_fract_y
_atom_site_fract_z
O1 O -0.032800 0.283100 0.293670
O2 O -0.170100 0.383900 0.431160
O3 O 0.345500 0.314100 0.319700
C4 C 0.033900 0.048400 0.342230
C5 C 0.195000 0.028000 0.299420
C6 C 0.343600 0.160500 0.281890
C7 C -0.077700 -0.083100 0.371200
O8 O 0.640600 -0.044500 0.162010
C9 C 0.482600 0.128500 0.234680
H10 H 0.572200 0.215600 0.220300
C11 C -0.043300 0.197400 0.346510
C12 C -0.231400 -0.060500 0.424430
C13 C -0.161100 0.227600 0.415800
C14 C 0.492400 -0.033800 0.207410
C15 C 0.217900 -0.133900 0.276440
C16 C 0.365300 -0.163100 0.229220
H17 H 0.375900 -0.269900 0.213000
C18 C -0.255200 0.103400 0.449670
H19 H -0.335900 0.122400 0.489400
C20 C -0.045400 -0.240700 0.351820
H21 H -0.118800 -0.327900 0.372500
C22 C 0.092100 -0.266000 0.303150
H23 H 0.103900 -0.372500 0.287000
O24 O -0.330500 -0.179100 0.448630
C25 C -0.285900 0.427000 0.493880
H26 H -0.420300 0.362700 0.477300
H27 H -0.280700 0.542000 0.499700
H28 H -0.233900 0.405200 0.546600
C29 C 0.475300 0.449900 0.296800
H30 H 0.608700 0.442400 0.308300
H31 H 0.463100 0.550800 0.328600
H32 H 0.441900 0.448400 0.238000
C33 C 0.671600 -0.202900 0.136600
H34 H 0.692400 -0.251400 0.185000
H35 H 0.785500 -0.191900 0.108600
H36 H 0.557900 -0.272100 0.098900
O37 O 1.032800 0.716900 0.706330
O38 O 1.170100 0.616100 0.568840
O39 O 0.654500 0.685900 0.680300
C40 C 0.966100 0.951600 0.657770
C41 C 0.805000 0.972000 0.700580
C42 C 0.656400 0.839500 0.718110
C43 C 1.077700 1.083100 0.628800
O44 O 0.359400 1.044500 0.837990
C45 C 0.517400 0.871500 0.765320
H46 H 0.427800 0.784400 0.779700
C47 C 1.043300 0.802600 0.653490
C48 C 1.231400 1.060500 0.575570
C49 C 1.161100 0.772400 0.584200
C50 C 0.507600 1.033800 0.792590
C51 C 0.782100 1.133900 0.723560
C52 C 0.634700 1.163100 0.770780
H53 H 0.624100 1.269900 0.787000
C54 C 1.255200 0.896600 0.550330
H55 H 1.335900 0.877600 0.510600
C56 C 1.045400 1.240700 0.648180
H57 H 1.118800 1.327900 0.627500
C58 C 0.907900 1.266000 0.696850
H59 H 0.896100 1.372500 0.713000
O60 O 1.330500 1.179100 0.551370
C61 C 1.285900 0.573000 0.506120
H62 H 1.420300 0.637300 0.522700
H63 H 1.280700 0.458000 0.500300
H64 H 1.233900 0.594800 0.453400
C65 C 0.524700 0.550100 0.703200
H66 H 0.391300 0.557600 0.691700
H67 H 0.536900 0.449200 0.671400
H68 H 0.558100 0.551600 0.762000
C69 C 0.328400 1.202900 0.863400
H70 H 0.307600 1.251400 0.815000
H71 H 0.214500 1.191900 0.891400
H72 H 0.442100 1.272100 0.901100
C73 C 0.905700 0.261700 0.085900
H74 H 0.892800 0.192000 0.128500
Cl75 Cl 0.821500 0.147500 -0.012500
Cl76 Cl 1.150000 0.357500 0.084500
Cl77 Cl 0.774000 0.406900 0.101600
C78 C 0.094300 0.738300 0.914100
H79 H 0.107200 0.808000 0.871500
Cl80 Cl 0.178500 0.852500 1.012500
Cl81 Cl -0.150000 0.642500 0.915500
Cl82 Cl 0.226000 0.593100 0.898400
Cl83 Cl 0.768800 0.131700 -0.005500
Cl84 Cl 1.156900 0.306700 0.085200
Cl85 Cl 0.847000 0.445400 0.109100
Cl86 Cl 0.231200 0.868300 1.005500
Cl87 Cl -0.156900 0.693300 0.914800
Cl88 Cl 0.153000 0.554600 0.890900

#END
