
#######################################################################
#
#                 Cambridge Crystallographic Data Centre
#                                CCDC 
#
#######################################################################
#
# If this CIF has been generated from an entry in the Cambridge 
# Structural Database, then it will include bibliographic, chemical, 
# crystal, experimental, refinement or atomic coordinate data resulting 
# from the CCDC's data processing and validation procedures.
#
#######################################################################

data_KACHAZ
_symmetry_cell_setting           triclinic
_symmetry_space_group_name_H-M   'P -1'
_symmetry_Int_Tables_number      2
_space_group_name_Hall           '-P 1'
loop_
_symmetry_equiv_pos_site_id
_symmetry_equiv_pos_as_xyz
1 x,y,z
2 -x,-y,-z
_cell_length_a                   6.5549(1)
_cell_length_b                   11.7356(2)
_cell_length_c                   15.0249(3)
_cell_angle_alpha                80.721(1)
_cell_angle_beta                 82.675(1)
_cell_angle_gamma                78.464(2)
_cell_volume                     1112.2
loop_
_atom_site_label
_atom_site_type_symbol
_atom_site_fract_x
_atom_site_fract_y
_atom_site_fract_z
Zr1 Zr 0.50196(3) 0.34637(2) 0.687542(16)
Cl1 Cl 0.23272(9) 0.44540(6) 0.58659(5)
Cl2 Cl 0.26454(9) 0.25006(6) 0.79830(5)
C1 C 0.4232(4) 0.4951(2) 0.80172(19)
C2 C 0.6193(4) 0.4221(2) 0.81622(19)
H1 H 0.6501 0.3687 0.8686
C3 C 0.7590(4) 0.4426(3) 0.7402(2)
H2 H 0.9007 0.4069 0.7330
C4 C 0.6524(4) 0.5254(2) 0.6765(2)
H3 H 0.7086 0.5540 0.6184
C5 C 0.4469(4) 0.5581(2) 0.71469(19)
H4 H 0.3417 0.6135 0.6865
C6 C 0.2341(5) 0.5084(3) 0.8686(2)
H5 H 0.2310 0.4332 0.9076
H6 H 0.1090 0.5270 0.8357
C7 C 0.2247(6) 0.6016(3) 0.9270(2)
H7 H 0.1080 0.6125 0.9702
C8 C 0.3592(6) 0.6680(3) 0.9242(2)
H8 H 0.4787 0.6606 0.8822
H9 H 0.3384 0.7241 0.9642
C9 C 0.6915(3) 0.1316(2) 0.67469(17)
C10 C 0.8431(3) 0.2057(2) 0.65991(18)
H10 H 0.9488 0.2023 0.6976
C11 C 0.8098(4) 0.2853(2) 0.57976(18)
H11 H 0.8897 0.3429 0.5545
C12 C 0.6358(4) 0.2629(2) 0.54466(18)
H12 H 0.5804 0.3017 0.4908
C13 C 0.5584(4) 0.1722(2) 0.60388(18)
H13 H 0.4382 0.1431 0.5977
P1 P 0.66776(9) -0.00639(6) 0.74949(5)
C14 C 0.8262(4) -0.1117(2) 0.67082(19)
C15 C 0.6815(5) -0.1166(3) 0.5987(2)
H14 H 0.6571 -0.0412 0.5605
H15 H 0.5491 -0.1345 0.6285
H16 H 0.7472 -0.1771 0.5619
C16 C 1.0305(4) -0.0788(3) 0.6222(2)
H17 H 1.0946 -0.1360 0.5822
H18 H 1.1253 -0.0781 0.6666
H19 H 1.0012 -0.0015 0.5870
C17 C 0.8721(5) -0.2351(2) 0.7253(2)
H20 H 0.9320 -0.2918 0.6843
H21 H 0.7431 -0.2552 0.7572
H22 H 0.9703 -0.2363 0.7687
C18 C 0.8232(4) -0.0120(2) 0.84920(18)
C19 C 0.7470(4) 0.1037(3) 0.88839(19)
H23 H 0.5952 0.1197 0.8964
H24 H 0.7964 0.1672 0.8471
H25 H 0.8010 0.0974 0.9465
C20 C 1.0620(4) -0.0317(2) 0.8331(2)
H26 H 1.1191 -0.0259 0.8884
H27 H 1.1038 0.0274 0.7851
H28 H 1.1146 -0.1091 0.8157
C21 C 0.7569(5) -0.1102(3) 0.9210(2)
H29 H 0.8015 -0.1850 0.8984
H30 H 0.6059 -0.0951 0.9339
H31 H 0.8214 -0.1124 0.9760
Zr1 Zr 0.49804(3) 0.65363(2) 0.312458(16)
Cl1 Cl 0.76728(9) 0.55460(6) 0.41341(5)
Cl2 Cl 0.73546(9) 0.74994(6) 0.20170(5)
C1 C 0.5768(4) 0.5049(2) 0.19828(19)
C2 C 0.3807(4) 0.5779(2) 0.18378(19)
H1 H 0.3499 0.6313 0.1314
C3 C 0.2410(4) 0.5574(3) 0.2598(2)
H2 H 0.0993 0.5931 0.2670
C4 C 0.3476(4) 0.4746(2) 0.3235(2)
H3 H 0.2914 0.4460 0.3816
C5 C 0.5531(4) 0.4419(2) 0.28531(19)
H4 H 0.6583 0.3865 0.3135
C6 C 0.7659(5) 0.4916(3) 0.1314(2)
H5 H 0.7690 0.5668 0.0924
H6 H 0.8910 0.4730 0.1643
C7 C 0.7753(6) 0.3984(3) 0.0730(2)
H7 H 0.8920 0.3875 0.0298
C8 C 0.6408(6) 0.3320(3) 0.0758(2)
H8 H 0.5213 0.3394 0.1178
H9 H 0.6616 0.2759 0.0358
C9 C 0.3085(3) 0.8684(2) 0.32531(17)
C10 C 0.1569(3) 0.7943(2) 0.34009(18)
H10 H 0.0512 0.7977 0.3024
C11 C 0.1902(4) 0.7147(2) 0.42024(18)
H11 H 0.1103 0.6571 0.4455
C12 C 0.3642(4) 0.7371(2) 0.45534(18)
H12 H 0.4196 0.6983 0.5092
C13 C 0.4416(4) 0.8278(2) 0.39612(18)
H13 H 0.5618 0.8569 0.4023
P1 P 0.33224(9) 1.00639(6) 0.25051(5)
C14 C 0.1738(4) 1.1117(2) 0.32918(19)
C15 C 0.3185(5) 1.1166(3) 0.4013(2)
H14 H 0.3429 1.0412 0.4395
H15 H 0.4509 1.1345 0.3715
H16 H 0.2528 1.1771 0.4381
C16 C -0.0305(4) 1.0788(3) 0.3778(2)
H17 H -0.0946 1.1360 0.4178
H18 H -0.1253 1.0781 0.3334
H19 H -0.0012 1.0015 0.4130
C17 C 0.1279(5) 1.2351(2) 0.2747(2)
H20 H 0.0680 1.2918 0.3157
H21 H 0.2569 1.2552 0.2428
H22 H 0.0297 1.2363 0.2313
C18 C 0.1768(4) 1.0120(2) 0.15080(18)
C19 C 0.2530(4) 0.8963(3) 0.11161(19)
H23 H 0.4048 0.8803 0.1036
H24 H 0.2036 0.8328 0.1529
H25 H 0.1990 0.9026 0.0535
C20 C -0.0620(4) 1.0317(2) 0.1669(2)
H26 H -0.1191 1.0259 0.1116
H27 H -0.1038 0.9726 0.2149
H28 H -0.1146 1.1091 0.1843
C21 C 0.2431(5) 1.1102(3) 0.0790(2)
H29 H 0.1985 1.1850 0.1016
H30 H 0.3941 1.0951 0.0661
H31 H 0.1786 1.1124 0.0240

#END
