
#######################################################################
#
#                 Cambridge Crystallographic Data Centre
#                                CCDC 
#
#######################################################################
#
# If this CIF has been generated from an entry in the Cambridge 
# Structural Database, then it will include bibliographic, chemical, 
# crystal, experimental, refinement or atomic coordinate data resulting 
# from the CCDC's data processing and validation procedures.
#
#######################################################################

data_KACHOO
_symmetry_cell_setting           monoclinic
_symmetry_space_group_name_H-M   'P 21/c'
_symmetry_Int_Tables_number      14
_space_group_name_Hall           '-P 2ybc'
loop_
_symmetry_equiv_pos_site_id
_symmetry_equiv_pos_as_xyz
1 x,y,z
2 -x,1/2+y,1/2-z
3 -x,-y,-z
4 x,1/2-y,1/2+z
_cell_length_a                   14.3594(3)
_cell_length_b                   22.1059(5)
_cell_length_c                   8.8264(2)
_cell_angle_alpha                90
_cell_angle_beta                 104.710(2)
_cell_angle_gamma                90
_cell_volume                     2709.91
loop_
_atom_site_label
_atom_site_type_symbol
_atom_site_fract_x
_atom_site_fract_y
_atom_site_fract_z
S1 S 0.2486(3) 0.51362(13) 0.7627(5)
S2 S 0.21063(6) 0.36301(4) 0.54401(10)
S3 S 0.20766(12) 0.16677(8) 0.5988(2)
O1 O 0.44689(17) 0.14314(10) 0.9828(3)
O2 O 0.62243(17) 0.26930(11) 1.3539(3)
N1 N 0.34864(18) 0.24122(12) 0.8255(3)
N2 N 0.41565(18) 0.35801(12) 0.9353(3)
N3 N 0.52103(19) 0.31417(12) 1.1465(3)
N4 N 0.53486(19) 0.20531(12) 1.1718(3)
C1 C 0.3060(4) 0.5697(2) 0.7173(7)
H1 H 0.2927 0.6101 0.7423
C2 C 0.3725(4) 0.5574(2) 0.6438(7)
H2 H 0.4119 0.5858 0.6085
C3 C 0.3745(16) 0.4934(7) 0.627(3)
H3 H 0.4176 0.4739 0.5767
C4 C 0.3102(3) 0.46176(15) 0.6876(4)
C5 C 0.2962(2) 0.39615(15) 0.6960(4)
C6 C 0.3424(2) 0.35241(14) 0.7977(4)
C7 C 0.3090(2) 0.29220(14) 0.7490(4)
C8 C 0.2353(2) 0.29113(15) 0.6120(4)
C9 C 0.1837(2) 0.23970(15) 0.5307(4)
C10 C 0.1136(9) 0.2375(5) 0.3924(13)
H4 H 0.0892 0.2730 0.3355
C11 C 0.0800(3) 0.17967(19) 0.3399(4)
H5 H 0.0320 0.1709 0.2467
C12 C 0.1276(3) 0.13859(18) 0.4442(5)
H6 H 0.1161 0.0964 0.4305
C13 C 0.4506(2) 0.41762(14) 1.0015(4)
H7 H 0.4431 0.4474 0.9155
H8 H 0.5200 0.4147 1.0549
C14 C 0.3960(3) 0.43959(16) 1.1173(4)
H9 H 0.4210 0.4791 1.1587
H10 H 0.4043 0.4106 1.2037
H11 H 0.3274 0.4432 1.0644
C15 C 0.4543(2) 0.30718(14) 1.0165(4)
C16 C 0.4182(2) 0.24857(14) 0.9513(4)
C17 C 0.4667(2) 0.19374(14) 1.0331(4)
C18 C 0.5623(2) 0.26415(14) 1.2289(4)
C19 C 0.5883(2) 0.15359(15) 1.2564(4)
H12 H 0.5485 0.1166 1.2303
H13 H 0.6003 0.1606 1.3705
C20 C 0.6844(2) 0.14367(15) 1.2155(4)
H14 H 0.6743 0.1456 1.1004
H15 H 0.7296 0.1764 1.2625
C21 C 0.7286(2) 0.08273(16) 1.2748(4)
H16 H 0.7417 0.0817 1.3904
H17 H 0.6818 0.0502 1.2322
C22 C 0.8217(2) 0.07073(16) 1.2275(4)
H18 H 0.8695 0.1018 1.2765
H19 H 0.8092 0.0753 1.1125
C23 C 0.8652(3) 0.00848(17) 1.2734(5)
H20 H 0.8150 -0.0227 1.2366
H21 H 0.8866 0.0058 1.3890
C24 C 0.9505(3) -0.0050(2) 1.2051(7)
H22 H 0.9279 -0.0055 1.0894
H23 H 0.9982 0.0281 1.2346
C25 C 0.9995(3) -0.0641(2) 1.2593(7)
H24 H 1.0531 -0.0700 1.2107
H25 H 0.9533 -0.0972 1.2290
H26 H 1.0242 -0.0635 1.3735
S1 S 0.7514(3) 1.01362(13) 0.7373(5)
S2 S 0.78937(6) 0.86301(4) 0.95599(10)
S3 S 0.79234(12) 0.66677(8) 0.9012(2)
O1 O 0.55311(17) 0.64314(10) 0.5172(3)
O2 O 0.37757(17) 0.76930(11) 0.1461(3)
N1 N 0.65136(18) 0.74122(12) 0.6745(3)
N2 N 0.58435(18) 0.85801(12) 0.5647(3)
N3 N 0.47897(19) 0.81417(12) 0.3535(3)
N4 N 0.46514(19) 0.70531(12) 0.3282(3)
C1 C 0.6940(4) 1.0697(2) 0.7827(7)
H1 H 0.7073 1.1101 0.7577
C2 C 0.6275(4) 1.0574(2) 0.8562(7)
H2 H 0.5881 1.0858 0.8915
C3 C 0.6255(16) 0.9934(7) 0.873(3)
H3 H 0.5824 0.9739 0.9233
C4 C 0.6898(3) 0.96176(15) 0.8124(4)
C5 C 0.7038(2) 0.89615(15) 0.8040(4)
C6 C 0.6576(2) 0.85241(14) 0.7023(4)
C7 C 0.6910(2) 0.79220(14) 0.7510(4)
C8 C 0.7647(2) 0.79113(15) 0.8880(4)
C9 C 0.8163(2) 0.73970(15) 0.9693(4)
C10 C 0.8864(9) 0.7375(5) 1.1076(13)
H4 H 0.9108 0.7730 1.1645
C11 C 0.9200(3) 0.67967(19) 1.1601(4)
H5 H 0.9680 0.6709 1.2533
C12 C 0.8724(3) 0.63859(18) 1.0558(5)
H6 H 0.8839 0.5964 1.0695
C13 C 0.5494(2) 0.91762(14) 0.4985(4)
H7 H 0.5569 0.9474 0.5845
H8 H 0.4800 0.9147 0.4451
C14 C 0.6040(3) 0.93959(16) 0.3827(4)
H9 H 0.5790 0.9791 0.3413
H10 H 0.5957 0.9106 0.2963
H11 H 0.6726 0.9432 0.4356
C15 C 0.5457(2) 0.80718(14) 0.4835(4)
C16 C 0.5818(2) 0.74857(14) 0.5487(4)
C17 C 0.5333(2) 0.69374(14) 0.4669(4)
C18 C 0.4377(2) 0.76415(14) 0.2711(4)
C19 C 0.4117(2) 0.65359(15) 0.2436(4)
H12 H 0.4515 0.6166 0.2697
H13 H 0.3997 0.6606 0.1295
C20 C 0.3156(2) 0.64367(15) 0.2845(4)
H14 H 0.3257 0.6456 0.3996
H15 H 0.2704 0.6764 0.2375
C21 C 0.2714(2) 0.58273(16) 0.2252(4)
H16 H 0.2583 0.5817 0.1096
H17 H 0.3182 0.5502 0.2678
C22 C 0.1783(2) 0.57073(16) 0.2725(4)
H18 H 0.1305 0.6018 0.2235
H19 H 0.1908 0.5753 0.3875
C23 C 0.1348(3) 0.50848(17) 0.2266(5)
H20 H 0.1850 0.4773 0.2634
H21 H 0.1134 0.5058 0.1110
C24 C 0.0495(3) 0.4950(2) 0.2949(7)
H22 H 0.0721 0.4945 0.4106
H23 H 0.0018 0.5281 0.2654
C25 C 0.0005(3) 0.4359(2) 0.2407(7)
H24 H -0.0531 0.4300 0.2893
H25 H 0.0467 0.4028 0.2710
H26 H -0.0242 0.4365 0.1265
S1 S 0.7514(3) 0.48638(13) 0.2373(5)
S2 S 0.78937(6) 0.63699(4) 0.45599(10)
S3 S 0.79234(12) 0.83323(8) 0.4012(2)
O1 O 0.55311(17) 0.85686(10) 0.0172(3)
O2 O 0.37757(17) 0.73070(11) -0.3539(3)
N1 N 0.65136(18) 0.75878(12) 0.1745(3)
N2 N 0.58435(18) 0.64199(12) 0.0647(3)
N3 N 0.47897(19) 0.68583(12) -0.1465(3)
N4 N 0.46514(19) 0.79469(12) -0.1718(3)
C1 C 0.6940(4) 0.4303(2) 0.2827(7)
H1 H 0.7073 0.3899 0.2577
C2 C 0.6275(4) 0.4426(2) 0.3562(7)
H2 H 0.5881 0.4142 0.3915
C3 C 0.6255(16) 0.5066(7) 0.373(3)
H3 H 0.5824 0.5261 0.4233
C4 C 0.6898(3) 0.53824(15) 0.3124(4)
C5 C 0.7038(2) 0.60385(15) 0.3040(4)
C6 C 0.6576(2) 0.64759(14) 0.2023(4)
C7 C 0.6910(2) 0.70780(14) 0.2510(4)
C8 C 0.7647(2) 0.70887(15) 0.3880(4)
C9 C 0.8163(2) 0.76030(15) 0.4693(4)
C10 C 0.8864(9) 0.7625(5) 0.6076(13)
H4 H 0.9108 0.7270 0.6645
C11 C 0.9200(3) 0.82033(19) 0.6601(4)
H5 H 0.9680 0.8291 0.7533
C12 C 0.8724(3) 0.86141(18) 0.5558(5)
H6 H 0.8839 0.9036 0.5695
C13 C 0.5494(2) 0.58238(14) -0.0015(4)
H7 H 0.5569 0.5526 0.0845
H8 H 0.4800 0.5853 -0.0549
C14 C 0.6040(3) 0.56041(16) -0.1173(4)
H9 H 0.5790 0.5209 -0.1587
H10 H 0.5957 0.5894 -0.2037
H11 H 0.6726 0.5568 -0.0644
C15 C 0.5457(2) 0.69282(14) -0.0165(4)
C16 C 0.5818(2) 0.75143(14) 0.0487(4)
C17 C 0.5333(2) 0.80626(14) -0.0331(4)
C18 C 0.4377(2) 0.73585(14) -0.2289(4)
C19 C 0.4117(2) 0.84641(15) -0.2564(4)
H12 H 0.4515 0.8834 -0.2303
H13 H 0.3997 0.8394 -0.3705
C20 C 0.3156(2) 0.85633(15) -0.2155(4)
H14 H 0.3257 0.8544 -0.1004
H15 H 0.2704 0.8236 -0.2625
C21 C 0.2714(2) 0.91727(16) -0.2748(4)
H16 H 0.2583 0.9183 -0.3904
H17 H 0.3182 0.9498 -0.2322
C22 C 0.1783(2) 0.92927(16) -0.2275(4)
H18 H 0.1305 0.8982 -0.2765
H19 H 0.1908 0.9247 -0.1125
C23 C 0.1348(3) 0.99152(17) -0.2734(5)
H20 H 0.1850 1.0227 -0.2366
H21 H 0.1134 0.9942 -0.3890
C24 C 0.0495(3) 1.0050(2) -0.2051(7)
H22 H 0.0721 1.0055 -0.0894
H23 H 0.0018 0.9719 -0.2346
C25 C 0.0005(3) 1.0641(2) -0.2593(7)
H24 H -0.0531 1.0700 -0.2107
H25 H 0.0467 1.0972 -0.2290
H26 H -0.0242 1.0635 -0.3735
S1 S 0.2486(3) -0.01362(13) 0.2627(5)
S2 S 0.21063(6) 0.13699(4) 0.04401(10)
S3 S 0.20766(12) 0.33323(8) 0.0988(2)
O1 O 0.44689(17) 0.35686(10) 0.4828(3)
O2 O 0.62243(17) 0.23070(11) 0.8539(3)
N1 N 0.34864(18) 0.25878(12) 0.3255(3)
N2 N 0.41565(18) 0.14199(12) 0.4353(3)
N3 N 0.52103(19) 0.18583(12) 0.6465(3)
N4 N 0.53486(19) 0.29469(12) 0.6718(3)
C1 C 0.3060(4) -0.0697(2) 0.2173(7)
H1 H 0.2927 -0.1101 0.2423
C2 C 0.3725(4) -0.0574(2) 0.1438(7)
H2 H 0.4119 -0.0858 0.1085
C3 C 0.3745(16) 0.0066(7) 0.127(3)
H3 H 0.4176 0.0261 0.0767
C4 C 0.3102(3) 0.03824(15) 0.1876(4)
C5 C 0.2962(2) 0.10385(15) 0.1960(4)
C6 C 0.3424(2) 0.14759(14) 0.2977(4)
C7 C 0.3090(2) 0.20780(14) 0.2490(4)
C8 C 0.2353(2) 0.20887(15) 0.1120(4)
C9 C 0.1837(2) 0.26030(15) 0.0307(4)
C10 C 0.1136(9) 0.2625(5) -0.1076(13)
H4 H 0.0892 0.2270 -0.1645
C11 C 0.0800(3) 0.32033(19) -0.1601(4)
H5 H 0.0320 0.3291 -0.2533
C12 C 0.1276(3) 0.36141(18) -0.0558(5)
H6 H 0.1161 0.4036 -0.0695
C13 C 0.4506(2) 0.08238(14) 0.5015(4)
H7 H 0.4431 0.0526 0.4155
H8 H 0.5200 0.0853 0.5549
C14 C 0.3960(3) 0.06041(16) 0.6173(4)
H9 H 0.4210 0.0209 0.6587
H10 H 0.4043 0.0894 0.7037
H11 H 0.3274 0.0568 0.5644
C15 C 0.4543(2) 0.19282(14) 0.5165(4)
C16 C 0.4182(2) 0.25143(14) 0.4513(4)
C17 C 0.4667(2) 0.30626(14) 0.5331(4)
C18 C 0.5623(2) 0.23585(14) 0.7289(4)
C19 C 0.5883(2) 0.34641(15) 0.7564(4)
H12 H 0.5485 0.3834 0.7303
H13 H 0.6003 0.3394 0.8705
C20 C 0.6844(2) 0.35633(15) 0.7155(4)
H14 H 0.6743 0.3544 0.6004
H15 H 0.7296 0.3236 0.7625
C21 C 0.7286(2) 0.41727(16) 0.7748(4)
H16 H 0.7417 0.4183 0.8904
H17 H 0.6818 0.4498 0.7322
C22 C 0.8217(2) 0.42927(16) 0.7275(4)
H18 H 0.8695 0.3982 0.7765
H19 H 0.8092 0.4247 0.6125
C23 C 0.8652(3) 0.49152(17) 0.7734(5)
H20 H 0.8150 0.5227 0.7366
H21 H 0.8866 0.4942 0.8890
C24 C 0.9505(3) 0.5050(2) 0.7051(7)
H22 H 0.9279 0.5055 0.5894
H23 H 0.9982 0.4719 0.7346
C25 C 0.9995(3) 0.5641(2) 0.7593(7)
H24 H 1.0531 0.5700 0.7107
H25 H 0.9533 0.5972 0.7290
H26 H 1.0242 0.5635 0.8735
Cl1 Cl 0.88371(12) 0.18621(7) -0.04733(17)
Cl2 Cl 0.89446(11) 0.31035(7) 0.05427(16)
C28 C 0.8425(4) 0.2401(2) 0.0632(6)
H27 H 0.7717 0.2437 0.0246
H28 H 0.8572 0.2266 0.1737
Cl1 Cl 0.11629(12) 0.68621(7) 0.54733(17)
Cl2 Cl 0.10554(11) 0.81035(7) 0.44573(16)
C28 C 0.1575(4) 0.7401(2) 0.4368(6)
H27 H 0.2283 0.7437 0.4754
H28 H 0.1428 0.7266 0.3263
Cl1 Cl 0.11629(12) 0.81379(7) 1.04733(17)
Cl2 Cl 0.10554(11) 0.68965(7) 0.94573(16)
C28 C 0.1575(4) 0.7599(2) 0.9368(6)
H27 H 0.2283 0.7563 0.9754
H28 H 0.1428 0.7734 0.8263
Cl1 Cl 0.88371(12) 0.31379(7) 0.45267(17)
Cl2 Cl 0.89446(11) 0.18965(7) 0.55427(16)
C28 C 0.8425(4) 0.2599(2) 0.5632(6)
H27 H 0.7717 0.2563 0.5246
H28 H 0.8572 0.2734 0.6737
C26? C 0.2610(14) 0.5066(6) 0.746(3)
C27? C 0.2014(18) 0.1802(7) 0.567(3)
S4? S 0.3881(8) 0.4927(3) 0.6014(14)
S5? S 0.0963(10) 0.2495(5) 0.3651(15)
C26? C 0.7390(14) 1.0066(6) 0.754(3)
C27? C 0.7986(18) 0.6802(7) 0.933(3)
S4? S 0.6119(8) 0.9927(3) 0.8986(14)
S5? S 0.9037(10) 0.7495(5) 1.1349(15)
C26? C 0.7390(14) 0.4934(6) 0.254(3)
C27? C 0.7986(18) 0.8198(7) 0.433(3)
S4? S 0.6119(8) 0.5073(3) 0.3986(14)
S5? S 0.9037(10) 0.7505(5) 0.6349(15)
C26? C 0.2610(14) -0.0066(6) 0.246(3)
C27? C 0.2014(18) 0.3198(7) 0.067(3)
S4? S 0.3881(8) 0.0073(3) 0.1014(14)
S5? S 0.0963(10) 0.2505(5) -0.1349(15)

#END
