
#######################################################################
#
#                 Cambridge Crystallographic Data Centre
#                                CCDC 
#
#######################################################################
#
# If this CIF has been generated from an entry in the Cambridge 
# Structural Database, then it will include bibliographic, chemical, 
# crystal, experimental, refinement or atomic coordinate data resulting 
# from the CCDC's data processing and validation procedures.
#
#######################################################################

data_KACJIK
_symmetry_cell_setting           monoclinic
_symmetry_space_group_name_H-M   'P 21/c'
_symmetry_Int_Tables_number      14
_space_group_name_Hall           '-P 2ybc'
loop_
_symmetry_equiv_pos_site_id
_symmetry_equiv_pos_as_xyz
1 x,y,z
2 -x,1/2+y,1/2-z
3 -x,-y,-z
4 x,1/2-y,1/2+z
_cell_length_a                   8.9936(3)
_cell_length_b                   20.9137(5)
_cell_length_c                   10.6975(4)
_cell_angle_alpha                90
_cell_angle_beta                 112.585(4)
_cell_angle_gamma                90
_cell_volume                     1857.78
loop_
_atom_site_label
_atom_site_type_symbol
_atom_site_fract_x
_atom_site_fract_y
_atom_site_fract_z
Cl1 Cl 0.24031(7) 0.26286(3) 0.96111(6)
Cl2 Cl 1.14724(8) 0.72117(3) 0.37707(6)
O1 O 1.15368(17) 0.50987(7) 0.78516(15)
C1 C 0.4108(3) 0.55285(10) 0.6507(2)
H1 H 0.3035 0.5543 0.6408
N1 N 0.8968(2) 0.54941(8) 0.69179(18)
C2 C 1.0134(2) 0.50798(10) 0.7758(2)
N2 N 0.7769(2) 0.40484(9) 0.89601(18)
C3 C 0.6746(3) 0.50293(10) 0.7431(2)
C4 C 0.9533(2) 0.46117(10) 0.8453(2)
C5 C 1.0674(3) 0.67230(10) 0.4686(2)
C6 C 1.0563(3) 0.64171(10) 0.6791(2)
H2 H 1.0863 0.6477 0.7717
C7 C 0.4719(3) 0.59824(11) 0.5877(2)
H3 H 0.4040 0.6300 0.5352
C8 C 0.7341(2) 0.54967(10) 0.6787(2)
C9 C 1.1171(3) 0.68153(10) 0.6068(2)
H4 H 1.1898 0.7138 0.6502
C10 C 0.6345(3) 0.37576(10) 0.9036(2)
C11 C 0.4730(3) 0.35342(10) 1.0327(2)
H5 H 0.4467 0.3609 1.1074
C12 C 0.3907(3) 0.30771(10) 0.9376(2)
C13 C 0.9033(3) 0.58414(11) 0.4758(2)
H6 H 0.8331 0.5511 0.4328
C14 C 1.0392(3) 0.41142(10) 0.9319(2)
H7 H 1.1492 0.4035 0.9627
C15 C 0.9263(3) 0.37712(10) 0.9613(2)
H8 H 0.9471 0.3411 1.0163
C16 C 0.9511(3) 0.59315(10) 0.6139(2)
C17 C 0.5120(3) 0.50568(10) 0.7282(2)
H9 H 0.4724 0.4754 0.7711
C18 C 0.9606(3) 0.62458(11) 0.4020(2)
H10 H 0.9274 0.6196 0.3088
C19 C 0.7920(3) 0.45690(10) 0.8240(2)
C20 C 0.5957(3) 0.38805(10) 1.0150(2)
H11 H 0.6513 0.4192 1.0775
C21 C 0.6304(3) 0.59717(11) 0.6014(2)
H12 H 0.6686 0.6282 0.5590
C22 C 0.5481(3) 0.33110(11) 0.8069(2)
H13 H 0.5725 0.3242 0.7310
C23 C 0.4250(3) 0.29672(11) 0.8238(2)
H14 H 0.3663 0.2667 0.7596
Cl1 Cl 0.75969(7) 0.76286(3) 0.53889(6)
Cl2 Cl -0.14724(8) 1.22117(3) 1.12293(6)
O1 O -0.15368(17) 1.00987(7) 0.71484(15)
C1 C 0.5892(3) 1.05285(10) 0.8493(2)
H1 H 0.6965 1.0543 0.8592
N1 N 0.1032(2) 1.04941(8) 0.80821(18)
C2 C -0.0134(2) 1.00798(10) 0.7242(2)
N2 N 0.2231(2) 0.90484(9) 0.60399(18)
C3 C 0.3254(3) 1.00293(10) 0.7569(2)
C4 C 0.0467(2) 0.96117(10) 0.6547(2)
C5 C -0.0674(3) 1.17230(10) 1.0314(2)
C6 C -0.0563(3) 1.14171(10) 0.8209(2)
H2 H -0.0863 1.1477 0.7283
C7 C 0.5281(3) 1.09824(11) 0.9123(2)
H3 H 0.5960 1.1300 0.9648
C8 C 0.2659(2) 1.04967(10) 0.8213(2)
C9 C -0.1171(3) 1.18153(10) 0.8932(2)
H4 H -0.1898 1.2138 0.8498
C10 C 0.3655(3) 0.87576(10) 0.5964(2)
C11 C 0.5270(3) 0.85342(10) 0.4673(2)
H5 H 0.5533 0.8609 0.3926
C12 C 0.6093(3) 0.80771(10) 0.5624(2)
C13 C 0.0967(3) 1.08414(11) 1.0242(2)
H6 H 0.1669 1.0511 1.0672
C14 C -0.0392(3) 0.91142(10) 0.5681(2)
H7 H -0.1492 0.9035 0.5373
C15 C 0.0737(3) 0.87712(10) 0.5387(2)
H8 H 0.0529 0.8411 0.4837
C16 C 0.0489(3) 1.09315(10) 0.8861(2)
C17 C 0.4880(3) 1.00568(10) 0.7718(2)
H9 H 0.5276 0.9754 0.7289
C18 C 0.0394(3) 1.12458(11) 1.0980(2)
H10 H 0.0726 1.1196 1.1912
C19 C 0.2080(3) 0.95690(10) 0.6760(2)
C20 C 0.4043(3) 0.88805(10) 0.4850(2)
H11 H 0.3487 0.9192 0.4225
C21 C 0.3696(3) 1.09717(11) 0.8986(2)
H12 H 0.3314 1.1282 0.9410
C22 C 0.4519(3) 0.83110(11) 0.6931(2)
H13 H 0.4275 0.8242 0.7690
C23 C 0.5750(3) 0.79672(11) 0.6762(2)
H14 H 0.6337 0.7667 0.7404
Cl1 Cl 0.75969(7) 0.73714(3) 0.03889(6)
Cl2 Cl -0.14724(8) 0.27883(3) 0.62293(6)
O1 O -0.15368(17) 0.49013(7) 0.21484(15)
C1 C 0.5892(3) 0.44715(10) 0.3493(2)
H1 H 0.6965 0.4457 0.3592
N1 N 0.1032(2) 0.45059(8) 0.30821(18)
C2 C -0.0134(2) 0.49202(10) 0.2242(2)
N2 N 0.2231(2) 0.59516(9) 0.10399(18)
C3 C 0.3254(3) 0.49707(10) 0.2569(2)
C4 C 0.0467(2) 0.53883(10) 0.1547(2)
C5 C -0.0674(3) 0.32770(10) 0.5314(2)
C6 C -0.0563(3) 0.35829(10) 0.3209(2)
H2 H -0.0863 0.3523 0.2283
C7 C 0.5281(3) 0.40176(11) 0.4123(2)
H3 H 0.5960 0.3700 0.4648
C8 C 0.2659(2) 0.45033(10) 0.3213(2)
C9 C -0.1171(3) 0.31847(10) 0.3932(2)
H4 H -0.1898 0.2862 0.3498
C10 C 0.3655(3) 0.62424(10) 0.0964(2)
C11 C 0.5270(3) 0.64658(10) -0.0327(2)
H5 H 0.5533 0.6391 -0.1074
C12 C 0.6093(3) 0.69229(10) 0.0624(2)
C13 C 0.0967(3) 0.41586(11) 0.5242(2)
H6 H 0.1669 0.4489 0.5672
C14 C -0.0392(3) 0.58858(10) 0.0681(2)
H7 H -0.1492 0.5965 0.0373
C15 C 0.0737(3) 0.62288(10) 0.0387(2)
H8 H 0.0529 0.6589 -0.0163
C16 C 0.0489(3) 0.40685(10) 0.3861(2)
C17 C 0.4880(3) 0.49432(10) 0.2718(2)
H9 H 0.5276 0.5246 0.2289
C18 C 0.0394(3) 0.37542(11) 0.5980(2)
H10 H 0.0726 0.3804 0.6912
C19 C 0.2080(3) 0.54310(10) 0.1760(2)
C20 C 0.4043(3) 0.61195(10) -0.0150(2)
H11 H 0.3487 0.5808 -0.0775
C21 C 0.3696(3) 0.40283(11) 0.3986(2)
H12 H 0.3314 0.3718 0.4410
C22 C 0.4519(3) 0.66890(11) 0.1931(2)
H13 H 0.4275 0.6758 0.2690
C23 C 0.5750(3) 0.70328(11) 0.1762(2)
H14 H 0.6337 0.7333 0.2404
Cl1 Cl 0.24031(7) 0.23714(3) 0.46111(6)
Cl2 Cl 1.14724(8) -0.22117(3) -0.12293(6)
O1 O 1.15368(17) -0.00987(7) 0.28516(15)
C1 C 0.4108(3) -0.05285(10) 0.1507(2)
H1 H 0.3035 -0.0543 0.1408
N1 N 0.8968(2) -0.04941(8) 0.19179(18)
C2 C 1.0134(2) -0.00798(10) 0.2758(2)
N2 N 0.7769(2) 0.09516(9) 0.39601(18)
C3 C 0.6746(3) -0.00293(10) 0.2431(2)
C4 C 0.9533(2) 0.03883(10) 0.3453(2)
C5 C 1.0674(3) -0.17230(10) -0.0314(2)
C6 C 1.0563(3) -0.14171(10) 0.1791(2)
H2 H 1.0863 -0.1477 0.2717
C7 C 0.4719(3) -0.09824(11) 0.0877(2)
H3 H 0.4040 -0.1300 0.0352
C8 C 0.7341(2) -0.04967(10) 0.1787(2)
C9 C 1.1171(3) -0.18153(10) 0.1068(2)
H4 H 1.1898 -0.2138 0.1502
C10 C 0.6345(3) 0.12424(10) 0.4036(2)
C11 C 0.4730(3) 0.14658(10) 0.5327(2)
H5 H 0.4467 0.1391 0.6074
C12 C 0.3907(3) 0.19229(10) 0.4376(2)
C13 C 0.9033(3) -0.08414(11) -0.0242(2)
H6 H 0.8331 -0.0511 -0.0672
C14 C 1.0392(3) 0.08858(10) 0.4319(2)
H7 H 1.1492 0.0965 0.4627
C15 C 0.9263(3) 0.12288(10) 0.4613(2)
H8 H 0.9471 0.1589 0.5163
C16 C 0.9511(3) -0.09315(10) 0.1139(2)
C17 C 0.5120(3) -0.00568(10) 0.2282(2)
H9 H 0.4724 0.0246 0.2711
C18 C 0.9606(3) -0.12458(11) -0.0980(2)
H10 H 0.9274 -0.1196 -0.1912
C19 C 0.7920(3) 0.04310(10) 0.3240(2)
C20 C 0.5957(3) 0.11195(10) 0.5150(2)
H11 H 0.6513 0.0808 0.5775
C21 C 0.6304(3) -0.09717(11) 0.1014(2)
H12 H 0.6686 -0.1282 0.0590
C22 C 0.5481(3) 0.16890(11) 0.3069(2)
H13 H 0.5725 0.1758 0.2310
C23 C 0.4250(3) 0.20328(11) 0.3238(2)
H14 H 0.3663 0.2333 0.2596

#END
