./KACNAF_from_xyz.cif_generated_by_CrystalShift
_symmetry_cell_setting triclinic
_symmetry_space_group_name_H-M 'P 1'
loop_
_symmetry_equiv_pos_site_id
_symmetry_equiv_pos_as_xyz
1 x,y,z
_cell_length_a 13.322700
_cell_length_b 6.054400
_cell_length_c 15.742300
_cell_angle_alpha 90.000000
_cell_angle_beta 109.997000
_cell_angle_gamma 90.000000
_cell_volume 1193.234041
loop_
_atom_site_label
_atom_site_type_symbol
_atom_site_fract_x
_atom_site_fract_y
_atom_site_fract_z
O1 O 0.321560 1.768000 -0.175770
O2 O 0.150880 1.712000 -0.216720
O3 O 0.232860 0.772380 0.045080
O4 O 0.102560 0.441680 0.076020
N5 N 0.243930 1.660000 -0.174700
C6 C 0.263210 1.460000 -0.118790
C7 C 0.177220 1.334100 -0.117700
H8 H 0.108900 1.376000 -0.153600
C9 C 0.196080 1.147600 -0.063590
H10 H 0.135400 1.054000 -0.062800
C11 C 0.300570 1.090500 -0.009500
C12 C 0.385600 1.221300 -0.012660
H13 H 0.456200 1.178000 0.024700
C14 C 0.367500 1.405700 -0.067710
H15 H 0.425700 1.492000 -0.072000
C16 C 0.321260 0.898600 0.049230
C17 C 0.411810 0.813500 0.110040
H18 H 0.484200 0.877000 0.125100
C19 C 0.381610 0.618700 0.147100
C20 C 0.271150 0.602900 0.105210
C21 C 0.209550 0.435100 0.122630
C22 C 0.263450 0.278400 0.185930
H23 H 0.225800 0.156000 0.201400
C24 C 0.375210 0.290900 0.228430
H25 H 0.409400 0.183200 0.270500
C26 C 0.435540 0.456200 0.210030
H27 H 0.509600 0.465000 0.236900
C28 C 0.040370 0.264400 0.092170
H29 H 0.068700 0.123000 0.078500
H30 H 0.044800 0.271000 0.158200
H31 H -0.030700 0.292000 0.052700
O32 O 0.178440 1.268000 0.675770
O33 O 0.349120 1.212000 0.716720
O34 O 0.267140 0.272380 0.454920
O35 O 0.397440 -0.058320 0.423980
N36 N 0.256070 1.160000 0.674700
C37 C 0.236790 0.960000 0.618790
C38 C 0.322780 0.834100 0.617700
H39 H 0.391100 0.876000 0.653600
C40 C 0.303920 0.647600 0.563590
H41 H 0.364600 0.554000 0.562800
C42 C 0.199430 0.590500 0.509500
C43 C 0.114400 0.721300 0.512660
H44 H 0.043800 0.678000 0.475300
C45 C 0.132500 0.905700 0.567710
H46 H 0.074300 0.992000 0.572000
C47 C 0.178740 0.398600 0.450770
C48 C 0.088190 0.313500 0.389960
H49 H 0.015800 0.377000 0.374900
C50 C 0.118390 0.118700 0.352900
C51 C 0.228850 0.102900 0.394790
C52 C 0.290450 -0.064900 0.377370
C53 C 0.236550 -0.221600 0.314070
H54 H 0.274200 -0.344000 0.298600
C55 C 0.124790 -0.209100 0.271570
H56 H 0.090600 -0.316800 0.229500
C57 C 0.064460 -0.043800 0.289970
H58 H -0.009600 -0.035000 0.263100
C59 C 0.459630 -0.235600 0.407830
H60 H 0.431300 -0.377000 0.421500
H61 H 0.455200 -0.229000 0.341800
H62 H 0.530700 -0.208000 0.447300
O63 O 0.678440 -0.768000 1.175770
O64 O 0.849120 -0.712000 1.216720
O65 O 0.767140 0.227620 0.954920
O66 O 0.897440 0.558320 0.923980
N67 N 0.756070 -0.660000 1.174700
C68 C 0.736790 -0.460000 1.118790
C69 C 0.822780 -0.334100 1.117700
H70 H 0.891100 -0.376000 1.153600
C71 C 0.803920 -0.147600 1.063590
H72 H 0.864600 -0.054000 1.062800
C73 C 0.699430 -0.090500 1.009500
C74 C 0.614400 -0.221300 1.012660
H75 H 0.543800 -0.178000 0.975300
C76 C 0.632500 -0.405700 1.067710
H77 H 0.574300 -0.492000 1.072000
C78 C 0.678740 0.101400 0.950770
C79 C 0.588190 0.186500 0.889960
H80 H 0.515800 0.123000 0.874900
C81 C 0.618390 0.381300 0.852900
C82 C 0.728850 0.397100 0.894790
C83 C 0.790450 0.564900 0.877370
C84 C 0.736550 0.721600 0.814070
H85 H 0.774200 0.844000 0.798600
C86 C 0.624790 0.709100 0.771570
H87 H 0.590600 0.816800 0.729500
C88 C 0.564460 0.543800 0.789970
H89 H 0.490400 0.535000 0.763100
C90 C 0.959630 0.735600 0.907830
H91 H 0.931300 0.877000 0.921500
H92 H 0.955200 0.729000 0.841800
H93 H 1.030700 0.708000 0.947300
O94 O 0.821560 -0.268000 0.324230
O95 O 0.650880 -0.212000 0.283280
O96 O 0.732860 0.727620 0.545080
O97 O 0.602560 1.058320 0.576020
N98 N 0.743930 -0.160000 0.325300
C99 C 0.763210 0.040000 0.381210
C100 C 0.677220 0.165900 0.382300
H101 H 0.608900 0.124000 0.346400
C102 C 0.696080 0.352400 0.436410
H103 H 0.635400 0.446000 0.437200
C104 C 0.800570 0.409500 0.490500
C105 C 0.885600 0.278700 0.487340
H106 H 0.956200 0.322000 0.524700
C107 C 0.867500 0.094300 0.432290
H108 H 0.925700 0.008000 0.428000
C109 C 0.821260 0.601400 0.549230
C110 C 0.911810 0.686500 0.610040
H111 H 0.984200 0.623000 0.625100
C112 C 0.881610 0.881300 0.647100
C113 C 0.771150 0.897100 0.605210
C114 C 0.709550 1.064900 0.622630
C115 C 0.763450 1.221600 0.685930
H116 H 0.725800 1.344000 0.701400
C117 C 0.875210 1.209100 0.728430
H118 H 0.909400 1.316800 0.770500
C119 C 0.935540 1.043800 0.710030
H120 H 1.009600 1.035000 0.736900
C121 C 0.540370 1.235600 0.592170
H122 H 0.568700 1.377000 0.578500
H123 H 0.544800 1.229000 0.658200
H124 H 0.469300 1.208000 0.552700

#END
