
#######################################################################
#
#                 Cambridge Crystallographic Data Centre
#                                CCDC 
#
#######################################################################
#
# If this CIF has been generated from an entry in the Cambridge 
# Structural Database, then it will include bibliographic, chemical, 
# crystal, experimental, refinement or atomic coordinate data resulting 
# from the CCDC's data processing and validation procedures.
#
#######################################################################

data_KACNEH
_symmetry_cell_setting           orthorhombic
_symmetry_space_group_name_H-M   'P 21 21 21'
_symmetry_Int_Tables_number      19
_space_group_name_Hall           'P 2ac 2ab'
loop_
_symmetry_equiv_pos_site_id
_symmetry_equiv_pos_as_xyz
1 x,y,z
2 1/2+x,1/2-y,-z
3 -x,1/2+y,1/2-z
4 1/2-x,-y,1/2+z
_cell_length_a                   5.808(2)
_cell_length_b                   11.170(1)
_cell_length_c                   14.442(2)
_cell_angle_alpha                90
_cell_angle_beta                 90
_cell_angle_gamma                90
_cell_volume                     936.93
loop_
_atom_site_label
_atom_site_type_symbol
_atom_site_fract_x
_atom_site_fract_y
_atom_site_fract_z
N1 N 0.2661(4) 0.9984(6) 1.0179(2)
C1 C 0.1681(6) 0.8959(4) 1.0437(5)
C2 C -0.0222(6) 0.8942(5) 1.1001(4)
C3 C -0.1164(5) 1.0000(7) 1.1285(2)
C4 C -0.0222(6) 1.1072(5) 1.0996(5)
C5 C 0.1733(6) 1.1071(5) 1.0442(4)
N2 N 0.5585(6) 1.1041(5) 0.9331(4)
C6 C 0.4717(5) 1.0026(6) 0.9610(2)
N3 N 0.5669(6) 0.8965(5) 0.9370(4)
C7 C 0.7429(6) 0.9345(4) 0.8854(4)
C8 C 0.9144(6) 0.8717(6) 0.8354(4)
C9 C 1.0845(7) 0.9347(5) 0.7930(4)
C10 C 1.0949(6) 1.0590(6) 0.7944(5)
C11 C 0.9276(7) 1.1255(5) 0.8395(5)
C12 C 0.7514(6) 1.0617(6) 0.8819(4)
H1 H 0.2503(7) 0.8312(7) 1.0214(7)
H2 H -0.0897(7) 0.8141(7) 1.1225(7)
H3 H -0.2543(7) 1.0012(7) 1.1737(7)
H4 H -0.0706(7) 1.1900(7) 1.1103(7)
H5 H 0.2443(7) 1.1823(7) 1.0205(7)
H6 H 0.9611(7) 0.7752(7) 0.8486(7)
H7 H 1.2192(7) 0.8870(7) 0.7626(7)
H8 H 1.2285(7) 1.0993(7) 0.7655(7)
H9 H 0.9098(7) 1.2139(7) 0.8376(7)
N1 N 0.7661(4) 0.5016(6) -0.0179(2)
C1 C 0.6681(6) 0.6041(4) -0.0437(5)
C2 C 0.4778(6) 0.6058(5) -0.1001(4)
C3 C 0.3836(5) 0.5000(7) -0.1285(2)
C4 C 0.4778(6) 0.3928(5) -0.0996(5)
C5 C 0.6733(6) 0.3929(5) -0.0442(4)
N2 N 1.0585(6) 0.3959(5) 0.0669(4)
C6 C 0.9717(5) 0.4974(6) 0.0390(2)
N3 N 1.0669(6) 0.6035(5) 0.0630(4)
C7 C 1.2429(6) 0.5655(4) 0.1146(4)
C8 C 1.4144(6) 0.6283(6) 0.1646(4)
C9 C 1.5845(7) 0.5653(5) 0.2070(4)
C10 C 1.5949(6) 0.4410(6) 0.2056(5)
C11 C 1.4276(7) 0.3745(5) 0.1605(5)
C12 C 1.2514(6) 0.4383(6) 0.1181(4)
H1 H 0.7503(7) 0.6688(7) -0.0214(7)
H2 H 0.4103(7) 0.6859(7) -0.1225(7)
H3 H 0.2457(7) 0.4988(7) -0.1737(7)
H4 H 0.4294(7) 0.3100(7) -0.1103(7)
H5 H 0.7443(7) 0.3177(7) -0.0205(7)
H6 H 1.4611(7) 0.7248(7) 0.1514(7)
H7 H 1.7192(7) 0.6130(7) 0.2374(7)
H8 H 1.7285(7) 0.4007(7) 0.2345(7)
H9 H 1.4098(7) 0.2861(7) 0.1624(7)
N1 N 0.7339(4) 0.4984(6) 0.4821(2)
C1 C 0.8319(6) 0.3959(4) 0.4563(5)
C2 C 1.0222(6) 0.3942(5) 0.3999(4)
C3 C 1.1164(5) 0.5000(7) 0.3715(2)
C4 C 1.0222(6) 0.6072(5) 0.4004(5)
C5 C 0.8267(6) 0.6071(5) 0.4558(4)
N2 N 0.4415(6) 0.6041(5) 0.5669(4)
C6 C 0.5283(5) 0.5026(6) 0.5390(2)
N3 N 0.4331(6) 0.3965(5) 0.5630(4)
C7 C 0.2571(6) 0.4345(4) 0.6146(4)
C8 C 0.0856(6) 0.3717(6) 0.6646(4)
C9 C -0.0845(7) 0.4347(5) 0.7070(4)
C10 C -0.0949(6) 0.5590(6) 0.7056(5)
C11 C 0.0724(7) 0.6255(5) 0.6605(5)
C12 C 0.2486(6) 0.5617(6) 0.6181(4)
H1 H 0.7497(7) 0.3312(7) 0.4786(7)
H2 H 1.0897(7) 0.3141(7) 0.3775(7)
H3 H 1.2543(7) 0.5012(7) 0.3263(7)
H4 H 1.0706(7) 0.6900(7) 0.3897(7)
H5 H 0.7557(7) 0.6823(7) 0.4795(7)
H6 H 0.0389(7) 0.2752(7) 0.6514(7)
H7 H -0.2192(7) 0.3870(7) 0.7374(7)
H8 H -0.2285(7) 0.5993(7) 0.7345(7)
H9 H 0.0902(7) 0.7139(7) 0.6624(7)
N1 N 0.2339(4) 0.0016(6) 0.5179(2)
C1 C 0.3319(6) 0.1041(4) 0.5437(5)
C2 C 0.5222(6) 0.1058(5) 0.6001(4)
C3 C 0.6164(5) 0.0000(7) 0.6285(2)
C4 C 0.5222(6) -0.1072(5) 0.5996(5)
C5 C 0.3267(6) -0.1071(5) 0.5442(4)
N2 N -0.0585(6) -0.1041(5) 0.4331(4)
C6 C 0.0283(5) -0.0026(6) 0.4610(2)
N3 N -0.0669(6) 0.1035(5) 0.4370(4)
C7 C -0.2429(6) 0.0655(4) 0.3854(4)
C8 C -0.4144(6) 0.1283(6) 0.3354(4)
C9 C -0.5845(7) 0.0653(5) 0.2930(4)
C10 C -0.5949(6) -0.0590(6) 0.2944(5)
C11 C -0.4276(7) -0.1255(5) 0.3395(5)
C12 C -0.2514(6) -0.0617(6) 0.3819(4)
H1 H 0.2497(7) 0.1688(7) 0.5214(7)
H2 H 0.5897(7) 0.1859(7) 0.6225(7)
H3 H 0.7543(7) -0.0012(7) 0.6737(7)
H4 H 0.5706(7) -0.1900(7) 0.6103(7)
H5 H 0.2557(7) -0.1823(7) 0.5205(7)
H6 H -0.4611(7) 0.2248(7) 0.3486(7)
H7 H -0.7192(7) 0.1130(7) 0.2626(7)
H8 H -0.7285(7) -0.0993(7) 0.2655(7)
H9 H -0.4098(7) -0.2139(7) 0.3376(7)

#END
