./KACNEH_from_xyz.cif_generated_by_CrystalShift
_symmetry_cell_setting triclinic
_symmetry_space_group_name_H-M 'P 1'
loop_
_symmetry_equiv_pos_site_id
_symmetry_equiv_pos_as_xyz
1 x,y,z
_cell_length_a 5.808000
_cell_length_b 11.170000
_cell_length_c 14.442000
_cell_angle_alpha 90.000000
_cell_angle_beta 90.000000
_cell_angle_gamma 90.000000
_cell_volume 936.929949
loop_
_atom_site_label
_atom_site_type_symbol
_atom_site_fract_x
_atom_site_fract_y
_atom_site_fract_z
N1 N 0.266100 0.998400 1.017900
C2 C 0.168100 0.895900 1.043700
C3 C -0.022200 0.894200 1.100100
C4 C -0.116400 1.000000 1.128500
C5 C -0.022200 1.107200 1.099600
C6 C 0.173300 1.107100 1.044200
N7 N 0.558500 1.104100 0.933100
C8 C 0.471700 1.002600 0.961000
N9 N 0.566900 0.896500 0.937000
C10 C 0.742900 0.934500 0.885400
C11 C 0.914400 0.871700 0.835400
C12 C 1.084500 0.934700 0.793000
C13 C 1.094900 1.059000 0.794400
C14 C 0.927600 1.125500 0.839500
C15 C 0.751400 1.061700 0.881900
H16 H 0.250300 0.831200 1.021400
H17 H -0.089700 0.814100 1.122500
H18 H -0.254300 1.001200 1.173700
H19 H -0.070600 1.190000 1.110300
H20 H 0.244300 1.182300 1.020500
H21 H 0.961100 0.775200 0.848600
H22 H 1.219200 0.887000 0.762600
H23 H 1.228500 1.099300 0.765500
H24 H 0.909800 1.213900 0.837600
N25 N 0.766100 0.501600 -0.017900
C26 C 0.668100 0.604100 -0.043700
C27 C 0.477800 0.605800 -0.100100
C28 C 0.383600 0.500000 -0.128500
C29 C 0.477800 0.392800 -0.099600
C30 C 0.673300 0.392900 -0.044200
N31 N 1.058500 0.395900 0.066900
C32 C 0.971700 0.497400 0.039000
N33 N 1.066900 0.603500 0.063000
C34 C 1.242900 0.565500 0.114600
C35 C 1.414400 0.628300 0.164600
C36 C 1.584500 0.565300 0.207000
C37 C 1.594900 0.441000 0.205600
C38 C 1.427600 0.374500 0.160500
C39 C 1.251400 0.438300 0.118100
H40 H 0.750300 0.668800 -0.021400
H41 H 0.410300 0.685900 -0.122500
H42 H 0.245700 0.498800 -0.173700
H43 H 0.429400 0.310000 -0.110300
H44 H 0.744300 0.317700 -0.020500
H45 H 1.461100 0.724800 0.151400
H46 H 1.719200 0.613000 0.237400
H47 H 1.728500 0.400700 0.234500
H48 H 1.409800 0.286100 0.162400
N49 N 0.733900 0.498400 0.482100
C50 C 0.831900 0.395900 0.456300
C51 C 1.022200 0.394200 0.399900
C52 C 1.116400 0.500000 0.371500
C53 C 1.022200 0.607200 0.400400
C54 C 0.826700 0.607100 0.455800
N55 N 0.441500 0.604100 0.566900
C56 C 0.528300 0.502600 0.539000
N57 N 0.433100 0.396500 0.563000
C58 C 0.257100 0.434500 0.614600
C59 C 0.085600 0.371700 0.664600
C60 C -0.084500 0.434700 0.707000
C61 C -0.094900 0.559000 0.705600
C62 C 0.072400 0.625500 0.660500
C63 C 0.248600 0.561700 0.618100
H64 H 0.749700 0.331200 0.478600
H65 H 1.089700 0.314100 0.377500
H66 H 1.254300 0.501200 0.326300
H67 H 1.070600 0.690000 0.389700
H68 H 0.755700 0.682300 0.479500
H69 H 0.038900 0.275200 0.651400
H70 H -0.219200 0.387000 0.737400
H71 H -0.228500 0.599300 0.734500
H72 H 0.090200 0.713900 0.662400
N73 N 0.233900 0.001600 0.517900
C74 C 0.331900 0.104100 0.543700
C75 C 0.522200 0.105800 0.600100
C76 C 0.616400 0.000000 0.628500
C77 C 0.522200 -0.107200 0.599600
C78 C 0.326700 -0.107100 0.544200
N79 N -0.058500 -0.104100 0.433100
C80 C 0.028300 -0.002600 0.461000
N81 N -0.066900 0.103500 0.437000
C82 C -0.242900 0.065500 0.385400
C83 C -0.414400 0.128300 0.335400
C84 C -0.584500 0.065300 0.293000
C85 C -0.594900 -0.059000 0.294400
C86 C -0.427600 -0.125500 0.339500
C87 C -0.251400 -0.061700 0.381900
H88 H 0.249700 0.168800 0.521400
H89 H 0.589700 0.185900 0.622500
H90 H 0.754300 -0.001200 0.673700
H91 H 0.570600 -0.190000 0.610300
H92 H 0.255700 -0.182300 0.520500
H93 H -0.461100 0.224800 0.348600
H94 H -0.719200 0.113000 0.262600
H95 H -0.728500 -0.099300 0.265500
H96 H -0.409800 -0.213900 0.337600

#END
