
#######################################################################
#
#                 Cambridge Crystallographic Data Centre
#                                CCDC 
#
#######################################################################
#
# If this CIF has been generated from an entry in the Cambridge 
# Structural Database, then it will include bibliographic, chemical, 
# crystal, experimental, refinement or atomic coordinate data resulting 
# from the CCDC's data processing and validation procedures.
#
#######################################################################

data_KACQUB01
_symmetry_cell_setting           orthorhombic
_symmetry_space_group_name_H-M   'P 21 21 21'
_symmetry_Int_Tables_number      19
_space_group_name_Hall           'P 2ac 2ab'
loop_
_symmetry_equiv_pos_site_id
_symmetry_equiv_pos_as_xyz
1 x,y,z
2 1/2-x,-y,1/2+z
3 -x,1/2+y,1/2-z
4 1/2+x,1/2-y,-z
_cell_length_a                   6.19180(10)
_cell_length_b                   14.3500(3)
_cell_length_c                   15.2008(2)
_cell_angle_alpha                90
_cell_angle_beta                 90
_cell_angle_gamma                90
_cell_volume                     1350.63
loop_
_atom_site_label
_atom_site_type_symbol
_atom_site_fract_x
_atom_site_fract_y
_atom_site_fract_z
Si1 Si 1.10295(6) 0.44604(3) 0.12206(3)
C1 C 0.9194(3) 0.59004(11) -0.05138(9)
H1 H 1.0509 0.5636 -0.0717
C2 C 0.7641(3) 0.62011(11) -0.11085(10)
H2 H 0.7896 0.6133 -0.1722
C3 C 0.5709(3) 0.66017(11) -0.08203(10)
H3 H 0.4674 0.6809 -0.1238
C4 C 0.5294(2) 0.66989(10) 0.00742(10)
H4 H 0.3988 0.6976 0.0272
C5 C 0.5343(2) 0.67654(10) 0.22350(10)
H5 H 0.3997 0.7001 0.2034
C6 C 0.5829(3) 0.67514(11) 0.31286(10)
H6 H 0.4797 0.6970 0.3542
C7 C 0.7807(3) 0.64204(12) 0.34203(10)
H7 H 0.8115 0.6419 0.4032
C8 C 0.9350(3) 0.60897(11) 0.28310(10)
H8 H 1.0710 0.5875 0.3037
C9 C 1.0212(2) 0.57451(10) 0.11620(9)
H9 H 1.1555 0.6131 0.1132
C10 C 0.8799(3) 0.59924(10) 0.03873(9)
C11 C 0.6828(2) 0.63835(10) 0.06748(9)
C12 C 0.6868(2) 0.64279(10) 0.16389(9)
C13 C 0.8871(3) 0.60789(10) 0.19354(9)
C14 C 1.2689(3) 0.42848(12) 0.22334(11)
H10 H 1.3877 0.4736 0.2241
H11 H 1.3279 0.3651 0.2236
H12 H 1.1782 0.4375 0.2755
C15 C 0.8563(2) 0.37114(12) 0.12408(13)
H13 H 0.7864 0.3727 0.0663
H14 H 0.7559 0.3945 0.1688
H15 H 0.8973 0.3069 0.1383
C16 C 1.2711(3) 0.41571(13) 0.02394(11)
H16 H 1.1811 0.4174 -0.0291
H17 H 1.3312 0.3530 0.0313
H18 H 1.3891 0.4608 0.0181
Si1 Si 0.39705(6) 0.55396(3) 0.62206(3)
C1 C 0.5806(3) 0.40996(11) 0.44862(9)
H1 H 0.4491 0.4364 0.4283
C2 C 0.7359(3) 0.37989(11) 0.38915(10)
H2 H 0.7104 0.3867 0.3278
C3 C 0.9291(3) 0.33983(11) 0.41797(10)
H3 H 1.0326 0.3191 0.3762
C4 C 0.9706(2) 0.33011(10) 0.50742(10)
H4 H 1.1012 0.3024 0.5272
C5 C 0.9657(2) 0.32346(10) 0.72350(10)
H5 H 1.1003 0.2999 0.7034
C6 C 0.9171(3) 0.32486(11) 0.81286(10)
H6 H 1.0203 0.3030 0.8542
C7 C 0.7193(3) 0.35796(12) 0.84203(10)
H7 H 0.6885 0.3581 0.9032
C8 C 0.5650(3) 0.39103(11) 0.78310(10)
H8 H 0.4290 0.4125 0.8037
C9 C 0.4788(2) 0.42549(10) 0.61620(9)
H9 H 0.3445 0.3869 0.6132
C10 C 0.6201(3) 0.40076(10) 0.53873(9)
C11 C 0.8172(2) 0.36165(10) 0.56748(9)
C12 C 0.8132(2) 0.35721(10) 0.66389(9)
C13 C 0.6129(3) 0.39211(10) 0.69354(9)
C14 C 0.2311(3) 0.57152(12) 0.72334(11)
H10 H 0.1123 0.5264 0.7241
H11 H 0.1721 0.6349 0.7236
H12 H 0.3218 0.5625 0.7755
C15 C 0.6437(2) 0.62886(12) 0.62408(13)
H13 H 0.7136 0.6273 0.5663
H14 H 0.7441 0.6055 0.6688
H15 H 0.6027 0.6931 0.6383
C16 C 0.2289(3) 0.58429(13) 0.52394(11)
H16 H 0.3189 0.5826 0.4709
H17 H 0.1688 0.6470 0.5313
H18 H 0.1109 0.5392 0.5181
Si1 Si -0.10295(6) -0.05396(3) 0.37794(3)
C1 C 0.0806(3) 0.09004(11) 0.55138(9)
H1 H -0.0509 0.0636 0.5717
C2 C 0.2359(3) 0.12011(11) 0.61085(10)
H2 H 0.2104 0.1133 0.6722
C3 C 0.4291(3) 0.16017(11) 0.58203(10)
H3 H 0.5326 0.1809 0.6238
C4 C 0.4706(2) 0.16989(10) 0.49258(10)
H4 H 0.6012 0.1976 0.4728
C5 C 0.4657(2) 0.17654(10) 0.27650(10)
H5 H 0.6003 0.2001 0.2966
C6 C 0.4171(3) 0.17514(11) 0.18714(10)
H6 H 0.5203 0.1970 0.1458
C7 C 0.2193(3) 0.14204(12) 0.15797(10)
H7 H 0.1885 0.1419 0.0968
C8 C 0.0650(3) 0.10897(11) 0.21690(10)
H8 H -0.0710 0.0875 0.1963
C9 C -0.0212(2) 0.07451(10) 0.38380(9)
H9 H -0.1555 0.1131 0.3868
C10 C 0.1201(3) 0.09924(10) 0.46127(9)
C11 C 0.3172(2) 0.13835(10) 0.43252(9)
C12 C 0.3132(2) 0.14279(10) 0.33611(9)
C13 C 0.1129(3) 0.10789(10) 0.30646(9)
C14 C -0.2689(3) -0.07152(12) 0.27666(11)
H10 H -0.3877 -0.0264 0.2759
H11 H -0.3279 -0.1349 0.2764
H12 H -0.1782 -0.0625 0.2245
C15 C 0.1437(2) -0.12886(12) 0.37592(13)
H13 H 0.2136 -0.1273 0.4337
H14 H 0.2441 -0.1055 0.3312
H15 H 0.1027 -0.1931 0.3617
C16 C -0.2711(3) -0.08429(13) 0.47606(11)
H16 H -0.1811 -0.0826 0.5291
H17 H -0.3312 -0.1470 0.4687
H18 H -0.3891 -0.0392 0.4819
Si1 Si 0.60295(6) 1.05396(3) 0.87794(3)
C1 C 0.4194(3) 0.90996(11) 1.05138(9)
H1 H 0.5509 0.9364 1.0717
C2 C 0.2641(3) 0.87989(11) 1.11085(10)
H2 H 0.2896 0.8867 1.1722
C3 C 0.0709(3) 0.83983(11) 1.08203(10)
H3 H -0.0326 0.8191 1.1238
C4 C 0.0294(2) 0.83011(10) 0.99258(10)
H4 H -0.1012 0.8024 0.9728
C5 C 0.0343(2) 0.82346(10) 0.77650(10)
H5 H -0.1003 0.7999 0.7966
C6 C 0.0829(3) 0.82486(11) 0.68714(10)
H6 H -0.0203 0.8030 0.6458
C7 C 0.2807(3) 0.85796(12) 0.65797(10)
H7 H 0.3115 0.8581 0.5968
C8 C 0.4350(3) 0.89103(11) 0.71690(10)
H8 H 0.5710 0.9125 0.6963
C9 C 0.5212(2) 0.92549(10) 0.88380(9)
H9 H 0.6555 0.8869 0.8868
C10 C 0.3799(3) 0.90076(10) 0.96127(9)
C11 C 0.1828(2) 0.86165(10) 0.93252(9)
C12 C 0.1868(2) 0.85721(10) 0.83611(9)
C13 C 0.3871(3) 0.89211(10) 0.80646(9)
C14 C 0.7689(3) 1.07152(12) 0.77666(11)
H10 H 0.8877 1.0264 0.7759
H11 H 0.8279 1.1349 0.7764
H12 H 0.6782 1.0625 0.7245
C15 C 0.3563(2) 1.12886(12) 0.87592(13)
H13 H 0.2864 1.1273 0.9337
H14 H 0.2559 1.1055 0.8312
H15 H 0.3973 1.1931 0.8617
C16 C 0.7711(3) 1.08429(13) 0.97606(11)
H16 H 0.6811 1.0826 1.0291
H17 H 0.8312 1.1470 0.9687
H18 H 0.8891 1.0392 0.9819

#END
