./KACRUB_from_xyz.cif_generated_by_CrystalShift
_symmetry_cell_setting triclinic
_symmetry_space_group_name_H-M 'P 1'
loop_
_symmetry_equiv_pos_site_id
_symmetry_equiv_pos_as_xyz
1 x,y,z
_cell_length_a 11.246000
_cell_length_b 6.842000
_cell_length_c 17.022000
_cell_angle_alpha 90.000000
_cell_angle_beta 114.380000
_cell_angle_gamma 90.000000
_cell_volume 1192.965867
loop_
_atom_site_label
_atom_site_type_symbol
_atom_site_fract_x
_atom_site_fract_y
_atom_site_fract_z
V1 V -0.156300 0.015500 0.472800
O2 O -0.030100 0.154100 0.536300
O3 O -0.284900 0.096400 0.480800
O4 O -0.180000 0.111900 0.362100
O5 O -0.074200 -0.124600 0.800500
N6 N -0.236000 -0.249600 0.404500
N7 N -0.117000 -0.197000 0.574700
C8 C -0.276100 0.077000 0.284700
C9 C -0.304700 0.218900 0.220100
C10 C -0.396700 0.182500 0.137600
C11 C -0.462700 0.007300 0.117500
C12 C -0.437700 -0.134000 0.179100
C13 C -0.344300 -0.102500 0.264300
C14 C -0.313000 -0.261900 0.324200
C15 C -0.198900 -0.428400 0.456100
C16 C -0.193900 -0.379300 0.543500
C17 C -0.133900 -0.111100 0.649800
C18 C -0.065900 -0.228700 0.730800
H19 H -0.260000 0.333000 0.236400
H20 H -0.415000 0.279200 0.096000
H21 H -0.523400 -0.015700 0.062000
H22 H -0.478800 -0.264200 0.163500
H23 H -0.349600 -0.387800 0.301000
H24 H -0.111100 -0.466200 0.460300
H25 H -0.260000 -0.530400 0.430400
H26 H -0.162200 -0.493000 0.579600
H27 H -0.277200 -0.356500 0.542300
H28 H -0.039300 -0.219700 0.587700
H29 H -0.230000 -0.103700 0.634100
H30 H -0.100500 0.023100 0.658500
H31 H 0.020700 -0.242200 0.737000
H32 H -0.104300 -0.361200 0.726300
H33 H -0.048600 -0.193000 0.842300
V34 V 0.156300 -0.015500 0.527200
O35 O 0.030100 -0.154100 0.463700
O36 O 0.284900 -0.096400 0.519200
O37 O 0.180000 -0.111900 0.637900
O38 O 0.074200 0.124600 0.199500
N39 N 0.236000 0.249600 0.595500
N40 N 0.117000 0.197000 0.425300
C41 C 0.276100 -0.077000 0.715300
C42 C 0.304700 -0.218900 0.779900
C43 C 0.396700 -0.182500 0.862400
C44 C 0.462700 -0.007300 0.882500
C45 C 0.437700 0.134000 0.820900
C46 C 0.344300 0.102500 0.735700
C47 C 0.313000 0.261900 0.675800
C48 C 0.198900 0.428400 0.543900
C49 C 0.193900 0.379300 0.456500
C50 C 0.133900 0.111100 0.350200
C51 C 0.065900 0.228700 0.269200
H52 H 0.260000 -0.333000 0.763600
H53 H 0.415000 -0.279200 0.904000
H54 H 0.523400 0.015700 0.938000
H55 H 0.478800 0.264200 0.836500
H56 H 0.349600 0.387800 0.699000
H57 H 0.111100 0.466200 0.539700
H58 H 0.260000 0.530400 0.569600
H59 H 0.162200 0.493000 0.420400
H60 H 0.277200 0.356500 0.457700
H61 H 0.039300 0.219700 0.412300
H62 H 0.230000 0.103700 0.365900
H63 H 0.100500 -0.023100 0.341500
H64 H -0.020700 0.242200 0.263000
H65 H 0.104300 0.361200 0.273700
H66 H 0.048600 0.193000 0.157700
V67 V -0.156300 1.015500 0.472800
O68 O -0.030100 1.154100 0.536300
O69 O -0.284900 1.096400 0.480800
O70 O -0.180000 1.111900 0.362100
O71 O -0.074200 0.875400 0.800500
N72 N -0.236000 0.750400 0.404500
N73 N -0.117000 0.803000 0.574700
C74 C -0.276100 1.077000 0.284700
C75 C -0.304700 1.218900 0.220100
C76 C -0.396700 1.182500 0.137600
C77 C -0.462700 1.007300 0.117500
C78 C -0.437700 0.866000 0.179100
C79 C -0.344300 0.897500 0.264300
C80 C -0.313000 0.738100 0.324200
C81 C -0.198900 0.571600 0.456100
C82 C -0.193900 0.620700 0.543500
C83 C -0.133900 0.888900 0.649800
C84 C -0.065900 0.771300 0.730800
H85 H -0.260000 1.333000 0.236400
H86 H -0.415000 1.279200 0.096000
H87 H -0.523400 0.984300 0.062000
H88 H -0.478800 0.735800 0.163500
H89 H -0.349600 0.612200 0.301000
H90 H -0.111100 0.533800 0.460300
H91 H -0.260000 0.469600 0.430400
H92 H -0.162200 0.507000 0.579600
H93 H -0.277200 0.643500 0.542300
H94 H -0.039300 0.780300 0.587700
H95 H -0.230000 0.896300 0.634100
H96 H -0.100500 1.023100 0.658500
H97 H 0.020700 0.757800 0.737000
H98 H -0.104300 0.638800 0.726300
H99 H -0.048600 0.807000 0.842300
V100 V 0.156300 0.984500 0.527200
O101 O 0.030100 0.845900 0.463700
O102 O 0.284900 0.903600 0.519200
O103 O 0.180000 0.888100 0.637900
O104 O 0.074200 1.124600 0.199500
N105 N 0.236000 1.249600 0.595500
N106 N 0.117000 1.197000 0.425300
C107 C 0.276100 0.923000 0.715300
C108 C 0.304700 0.781100 0.779900
C109 C 0.396700 0.817500 0.862400
C110 C 0.462700 0.992700 0.882500
C111 C 0.437700 1.134000 0.820900
C112 C 0.344300 1.102500 0.735700
C113 C 0.313000 1.261900 0.675800
C114 C 0.198900 1.428400 0.543900
C115 C 0.193900 1.379300 0.456500
C116 C 0.133900 1.111100 0.350200
C117 C 0.065900 1.228700 0.269200
H118 H 0.260000 0.667000 0.763600
H119 H 0.415000 0.720800 0.904000
H120 H 0.523400 1.015700 0.938000
H121 H 0.478800 1.264200 0.836500
H122 H 0.349600 1.387800 0.699000
H123 H 0.111100 1.466200 0.539700
H124 H 0.260000 1.530400 0.569600
H125 H 0.162200 1.493000 0.420400
H126 H 0.277200 1.356500 0.457700
H127 H 0.039300 1.219700 0.412300
H128 H 0.230000 1.103700 0.365900
H129 H 0.100500 0.976900 0.341500
H130 H -0.020700 1.242200 0.263000
H131 H 0.104300 1.361200 0.273700
H132 H 0.048600 1.193000 0.157700
V133 V 0.843700 0.015500 0.472800
O134 O 0.969900 0.154100 0.536300
O135 O 0.715100 0.096400 0.480800
O136 O 0.820000 0.111900 0.362100
O137 O 0.925800 -0.124600 0.800500
N138 N 0.764000 -0.249600 0.404500
N139 N 0.883000 -0.197000 0.574700
C140 C 0.723900 0.077000 0.284700
C141 C 0.695300 0.218900 0.220100
C142 C 0.603300 0.182500 0.137600
C143 C 0.537300 0.007300 0.117500
C144 C 0.562300 -0.134000 0.179100
C145 C 0.655700 -0.102500 0.264300
C146 C 0.687000 -0.261900 0.324200
C147 C 0.801100 -0.428400 0.456100
C148 C 0.806100 -0.379300 0.543500
C149 C 0.866100 -0.111100 0.649800
C150 C 0.934100 -0.228700 0.730800
H151 H 0.740000 0.333000 0.236400
H152 H 0.585000 0.279200 0.096000
H153 H 0.476600 -0.015700 0.062000
H154 H 0.521200 -0.264200 0.163500
H155 H 0.650400 -0.387800 0.301000
H156 H 0.888900 -0.466200 0.460300
H157 H 0.740000 -0.530400 0.430400
H158 H 0.837800 -0.493000 0.579600
H159 H 0.722800 -0.356500 0.542300
H160 H 0.960700 -0.219700 0.587700
H161 H 0.770000 -0.103700 0.634100
H162 H 0.899500 0.023100 0.658500
H163 H 1.020700 -0.242200 0.737000
H164 H 0.895700 -0.361200 0.726300
H165 H 0.951400 -0.193000 0.842300
V166 V 1.156300 -0.015500 0.527200
O167 O 1.030100 -0.154100 0.463700
O168 O 1.284900 -0.096400 0.519200
O169 O 1.180000 -0.111900 0.637900
O170 O 1.074200 0.124600 0.199500
N171 N 1.236000 0.249600 0.595500
N172 N 1.117000 0.197000 0.425300
C173 C 1.276100 -0.077000 0.715300
C174 C 1.304700 -0.218900 0.779900
C175 C 1.396700 -0.182500 0.862400
C176 C 1.462700 -0.007300 0.882500
C177 C 1.437700 0.134000 0.820900
C178 C 1.344300 0.102500 0.735700
C179 C 1.313000 0.261900 0.675800
C180 C 1.198900 0.428400 0.543900
C181 C 1.193900 0.379300 0.456500
C182 C 1.133900 0.111100 0.350200
C183 C 1.065900 0.228700 0.269200
H184 H 1.260000 -0.333000 0.763600
H185 H 1.415000 -0.279200 0.904000
H186 H 1.523400 0.015700 0.938000
H187 H 1.478800 0.264200 0.836500
H188 H 1.349600 0.387800 0.699000
H189 H 1.111100 0.466200 0.539700
H190 H 1.260000 0.530400 0.569600
H191 H 1.162200 0.493000 0.420400
H192 H 1.277200 0.356500 0.457700
H193 H 1.039300 0.219700 0.412300
H194 H 1.230000 0.103700 0.365900
H195 H 1.100500 -0.023100 0.341500
H196 H 0.979300 0.242200 0.263000
H197 H 1.104300 0.361200 0.273700
H198 H 1.048600 0.193000 0.157700
V199 V 0.843700 1.015500 0.472800
O200 O 0.969900 1.154100 0.536300
O201 O 0.715100 1.096400 0.480800
O202 O 0.820000 1.111900 0.362100
O203 O 0.925800 0.875400 0.800500
N204 N 0.764000 0.750400 0.404500
N205 N 0.883000 0.803000 0.574700
C206 C 0.723900 1.077000 0.284700
C207 C 0.695300 1.218900 0.220100
C208 C 0.603300 1.182500 0.137600
C209 C 0.537300 1.007300 0.117500
C210 C 0.562300 0.866000 0.179100
C211 C 0.655700 0.897500 0.264300
C212 C 0.687000 0.738100 0.324200
C213 C 0.801100 0.571600 0.456100
C214 C 0.806100 0.620700 0.543500
C215 C 0.866100 0.888900 0.649800
C216 C 0.934100 0.771300 0.730800
H217 H 0.740000 1.333000 0.236400
H218 H 0.585000 1.279200 0.096000
H219 H 0.476600 0.984300 0.062000
H220 H 0.521200 0.735800 0.163500
H221 H 0.650400 0.612200 0.301000
H222 H 0.888900 0.533800 0.460300
H223 H 0.740000 0.469600 0.430400
H224 H 0.837800 0.507000 0.579600
H225 H 0.722800 0.643500 0.542300
H226 H 0.960700 0.780300 0.587700
H227 H 0.770000 0.896300 0.634100
H228 H 0.899500 1.023100 0.658500
H229 H 1.020700 0.757800 0.737000
H230 H 0.895700 0.638800 0.726300
H231 H 0.951400 0.807000 0.842300
V232 V 1.156300 0.984500 0.527200
O233 O 1.030100 0.845900 0.463700
O234 O 1.284900 0.903600 0.519200
O235 O 1.180000 0.888100 0.637900
O236 O 1.074200 1.124600 0.199500
N237 N 1.236000 1.249600 0.595500
N238 N 1.117000 1.197000 0.425300
C239 C 1.276100 0.923000 0.715300
C240 C 1.304700 0.781100 0.779900
C241 C 1.396700 0.817500 0.862400
C242 C 1.462700 0.992700 0.882500
C243 C 1.437700 1.134000 0.820900
C244 C 1.344300 1.102500 0.735700
C245 C 1.313000 1.261900 0.675800
C246 C 1.198900 1.428400 0.543900
C247 C 1.193900 1.379300 0.456500
C248 C 1.133900 1.111100 0.350200
C249 C 1.065900 1.228700 0.269200
H250 H 1.260000 0.667000 0.763600
H251 H 1.415000 0.720800 0.904000
H252 H 1.523400 1.015700 0.938000
H253 H 1.478800 1.264200 0.836500
H254 H 1.349600 1.387800 0.699000
H255 H 1.111100 1.466200 0.539700
H256 H 1.260000 1.530400 0.569600
H257 H 1.162200 1.493000 0.420400
H258 H 1.277200 1.356500 0.457700
H259 H 1.039300 1.219700 0.412300
H260 H 1.230000 1.103700 0.365900
H261 H 1.100500 0.976900 0.341500
H262 H 0.979300 1.242200 0.263000
H263 H 1.104300 1.361200 0.273700
H264 H 1.048600 1.193000 0.157700
V265 V 0.156300 0.515500 0.027200
O266 O 0.030100 0.654100 -0.036300
O267 O 0.284900 0.596400 0.019200
O268 O 0.180000 0.611900 0.137900
O269 O 0.074200 0.375400 -0.300500
N270 N 0.236000 0.250400 0.095500
N271 N 0.117000 0.303000 -0.074700
C272 C 0.276100 0.577000 0.215300
C273 C 0.304700 0.718900 0.279900
C274 C 0.396700 0.682500 0.362400
C275 C 0.462700 0.507300 0.382500
C276 C 0.437700 0.366000 0.320900
C277 C 0.344300 0.397500 0.235700
C278 C 0.313000 0.238100 0.175800
C279 C 0.198900 0.071600 0.043900
C280 C 0.193900 0.120700 -0.043500
C281 C 0.133900 0.388900 -0.149800
C282 C 0.065900 0.271300 -0.230800
H283 H 0.260000 0.833000 0.263600
H284 H 0.415000 0.779200 0.404000
H285 H 0.523400 0.484300 0.438000
H286 H 0.478800 0.235800 0.336500
H287 H 0.349600 0.112200 0.199000
H288 H 0.111100 0.033800 0.039700
H289 H 0.260000 -0.030400 0.069600
H290 H 0.162200 0.007000 -0.079600
H291 H 0.277200 0.143500 -0.042300
H292 H 0.039300 0.280300 -0.087700
H293 H 0.230000 0.396300 -0.134100
H294 H 0.100500 0.523100 -0.158500
H295 H -0.020700 0.257800 -0.237000
H296 H 0.104300 0.138800 -0.226300
H297 H 0.048600 0.307000 -0.342300
V298 V -0.156300 0.484500 -0.027200
O299 O -0.030100 0.345900 0.036300
O300 O -0.284900 0.403600 -0.019200
O301 O -0.180000 0.388100 -0.137900
O302 O -0.074200 0.624600 0.300500
N303 N -0.236000 0.749600 -0.095500
N304 N -0.117000 0.697000 0.074700
C305 C -0.276100 0.423000 -0.215300
C306 C -0.304700 0.281100 -0.279900
C307 C -0.396700 0.317500 -0.362400
C308 C -0.462700 0.492700 -0.382500
C309 C -0.437700 0.634000 -0.320900
C310 C -0.344300 0.602500 -0.235700
C311 C -0.313000 0.761900 -0.175800
C312 C -0.198900 0.928400 -0.043900
C313 C -0.193900 0.879300 0.043500
C314 C -0.133900 0.611100 0.149800
C315 C -0.065900 0.728700 0.230800
H316 H -0.260000 0.167000 -0.263600
H317 H -0.415000 0.220800 -0.404000
H318 H -0.523400 0.515700 -0.438000
H319 H -0.478800 0.764200 -0.336500
H320 H -0.349600 0.887800 -0.199000
H321 H -0.111100 0.966200 -0.039700
H322 H -0.260000 1.030400 -0.069600
H323 H -0.162200 0.993000 0.079600
H324 H -0.277200 0.856500 0.042300
H325 H -0.039300 0.719700 0.087700
H326 H -0.230000 0.603700 0.134100
H327 H -0.100500 0.476900 0.158500
H328 H 0.020700 0.742200 0.237000
H329 H -0.104300 0.861200 0.226300
H330 H -0.048600 0.693000 0.342300
V331 V 0.156300 0.515500 1.027200
O332 O 0.030100 0.654100 0.963700
O333 O 0.284900 0.596400 1.019200
O334 O 0.180000 0.611900 1.137900
O335 O 0.074200 0.375400 0.699500
N336 N 0.236000 0.250400 1.095500
N337 N 0.117000 0.303000 0.925300
C338 C 0.276100 0.577000 1.215300
C339 C 0.304700 0.718900 1.279900
C340 C 0.396700 0.682500 1.362400
C341 C 0.462700 0.507300 1.382500
C342 C 0.437700 0.366000 1.320900
C343 C 0.344300 0.397500 1.235700
C344 C 0.313000 0.238100 1.175800
C345 C 0.198900 0.071600 1.043900
C346 C 0.193900 0.120700 0.956500
C347 C 0.133900 0.388900 0.850200
C348 C 0.065900 0.271300 0.769200
H349 H 0.260000 0.833000 1.263600
H350 H 0.415000 0.779200 1.404000
H351 H 0.523400 0.484300 1.438000
H352 H 0.478800 0.235800 1.336500
H353 H 0.349600 0.112200 1.199000
H354 H 0.111100 0.033800 1.039700
H355 H 0.260000 -0.030400 1.069600
H356 H 0.162200 0.007000 0.920400
H357 H 0.277200 0.143500 0.957700
H358 H 0.039300 0.280300 0.912300
H359 H 0.230000 0.396300 0.865900
H360 H 0.100500 0.523100 0.841500
H361 H -0.020700 0.257800 0.763000
H362 H 0.104300 0.138800 0.773700
H363 H 0.048600 0.307000 0.657700
V364 V -0.156300 0.484500 0.972800
O365 O -0.030100 0.345900 1.036300
O366 O -0.284900 0.403600 0.980800
O367 O -0.180000 0.388100 0.862100
O368 O -0.074200 0.624600 1.300500
N369 N -0.236000 0.749600 0.904500
N370 N -0.117000 0.697000 1.074700
C371 C -0.276100 0.423000 0.784700
C372 C -0.304700 0.281100 0.720100
C373 C -0.396700 0.317500 0.637600
C374 C -0.462700 0.492700 0.617500
C375 C -0.437700 0.634000 0.679100
C376 C -0.344300 0.602500 0.764300
C377 C -0.313000 0.761900 0.824200
C378 C -0.198900 0.928400 0.956100
C379 C -0.193900 0.879300 1.043500
C380 C -0.133900 0.611100 1.149800
C381 C -0.065900 0.728700 1.230800
H382 H -0.260000 0.167000 0.736400
H383 H -0.415000 0.220800 0.596000
H384 H -0.523400 0.515700 0.562000
H385 H -0.478800 0.764200 0.663500
H386 H -0.349600 0.887800 0.801000
H387 H -0.111100 0.966200 0.960300
H388 H -0.260000 1.030400 0.930400
H389 H -0.162200 0.993000 1.079600
H390 H -0.277200 0.856500 1.042300
H391 H -0.039300 0.719700 1.087700
H392 H -0.230000 0.603700 1.134100
H393 H -0.100500 0.476900 1.158500
H394 H 0.020700 0.742200 1.237000
H395 H -0.104300 0.861200 1.226300
H396 H -0.048600 0.693000 1.342300
V397 V 1.156300 0.515500 0.027200
O398 O 1.030100 0.654100 -0.036300
O399 O 1.284900 0.596400 0.019200
O400 O 1.180000 0.611900 0.137900
O401 O 1.074200 0.375400 -0.300500
N402 N 1.236000 0.250400 0.095500
N403 N 1.117000 0.303000 -0.074700
C404 C 1.276100 0.577000 0.215300
C405 C 1.304700 0.718900 0.279900
C406 C 1.396700 0.682500 0.362400
C407 C 1.462700 0.507300 0.382500
C408 C 1.437700 0.366000 0.320900
C409 C 1.344300 0.397500 0.235700
C410 C 1.313000 0.238100 0.175800
C411 C 1.198900 0.071600 0.043900
C412 C 1.193900 0.120700 -0.043500
C413 C 1.133900 0.388900 -0.149800
C414 C 1.065900 0.271300 -0.230800
H415 H 1.260000 0.833000 0.263600
H416 H 1.415000 0.779200 0.404000
H417 H 1.523400 0.484300 0.438000
H418 H 1.478800 0.235800 0.336500
H419 H 1.349600 0.112200 0.199000
H420 H 1.111100 0.033800 0.039700
H421 H 1.260000 -0.030400 0.069600
H422 H 1.162200 0.007000 -0.079600
H423 H 1.277200 0.143500 -0.042300
H424 H 1.039300 0.280300 -0.087700
H425 H 1.230000 0.396300 -0.134100
H426 H 1.100500 0.523100 -0.158500
H427 H 0.979300 0.257800 -0.237000
H428 H 1.104300 0.138800 -0.226300
H429 H 1.048600 0.307000 -0.342300
V430 V 0.843700 0.484500 -0.027200
O431 O 0.969900 0.345900 0.036300
O432 O 0.715100 0.403600 -0.019200
O433 O 0.820000 0.388100 -0.137900
O434 O 0.925800 0.624600 0.300500
N435 N 0.764000 0.749600 -0.095500
N436 N 0.883000 0.697000 0.074700
C437 C 0.723900 0.423000 -0.215300
C438 C 0.695300 0.281100 -0.279900
C439 C 0.603300 0.317500 -0.362400
C440 C 0.537300 0.492700 -0.382500
C441 C 0.562300 0.634000 -0.320900
C442 C 0.655700 0.602500 -0.235700
C443 C 0.687000 0.761900 -0.175800
C444 C 0.801100 0.928400 -0.043900
C445 C 0.806100 0.879300 0.043500
C446 C 0.866100 0.611100 0.149800
C447 C 0.934100 0.728700 0.230800
H448 H 0.740000 0.167000 -0.263600
H449 H 0.585000 0.220800 -0.404000
H450 H 0.476600 0.515700 -0.438000
H451 H 0.521200 0.764200 -0.336500
H452 H 0.650400 0.887800 -0.199000
H453 H 0.888900 0.966200 -0.039700
H454 H 0.740000 1.030400 -0.069600
H455 H 0.837800 0.993000 0.079600
H456 H 0.722800 0.856500 0.042300
H457 H 0.960700 0.719700 0.087700
H458 H 0.770000 0.603700 0.134100
H459 H 0.899500 0.476900 0.158500
H460 H 1.020700 0.742200 0.237000
H461 H 0.895700 0.861200 0.226300
H462 H 0.951400 0.693000 0.342300
V463 V 1.156300 0.515500 1.027200
O464 O 1.030100 0.654100 0.963700
O465 O 1.284900 0.596400 1.019200
O466 O 1.180000 0.611900 1.137900
O467 O 1.074200 0.375400 0.699500
N468 N 1.236000 0.250400 1.095500
N469 N 1.117000 0.303000 0.925300
C470 C 1.276100 0.577000 1.215300
C471 C 1.304700 0.718900 1.279900
C472 C 1.396700 0.682500 1.362400
C473 C 1.462700 0.507300 1.382500
C474 C 1.437700 0.366000 1.320900
C475 C 1.344300 0.397500 1.235700
C476 C 1.313000 0.238100 1.175800
C477 C 1.198900 0.071600 1.043900
C478 C 1.193900 0.120700 0.956500
C479 C 1.133900 0.388900 0.850200
C480 C 1.065900 0.271300 0.769200
H481 H 1.260000 0.833000 1.263600
H482 H 1.415000 0.779200 1.404000
H483 H 1.523400 0.484300 1.438000
H484 H 1.478800 0.235800 1.336500
H485 H 1.349600 0.112200 1.199000
H486 H 1.111100 0.033800 1.039700
H487 H 1.260000 -0.030400 1.069600
H488 H 1.162200 0.007000 0.920400
H489 H 1.277200 0.143500 0.957700
H490 H 1.039300 0.280300 0.912300
H491 H 1.230000 0.396300 0.865900
H492 H 1.100500 0.523100 0.841500
H493 H 0.979300 0.257800 0.763000
H494 H 1.104300 0.138800 0.773700
H495 H 1.048600 0.307000 0.657700
V496 V 0.843700 0.484500 0.972800
O497 O 0.969900 0.345900 1.036300
O498 O 0.715100 0.403600 0.980800
O499 O 0.820000 0.388100 0.862100
O500 O 0.925800 0.624600 1.300500
N501 N 0.764000 0.749600 0.904500
N502 N 0.883000 0.697000 1.074700
C503 C 0.723900 0.423000 0.784700
C504 C 0.695300 0.281100 0.720100
C505 C 0.603300 0.317500 0.637600
C506 C 0.537300 0.492700 0.617500
C507 C 0.562300 0.634000 0.679100
C508 C 0.655700 0.602500 0.764300
C509 C 0.687000 0.761900 0.824200
C510 C 0.801100 0.928400 0.956100
C511 C 0.806100 0.879300 1.043500
C512 C 0.866100 0.611100 1.149800
C513 C 0.934100 0.728700 1.230800
H514 H 0.740000 0.167000 0.736400
H515 H 0.585000 0.220800 0.596000
H516 H 0.476600 0.515700 0.562000
H517 H 0.521200 0.764200 0.663500
H518 H 0.650400 0.887800 0.801000
H519 H 0.888900 0.966200 0.960300
H520 H 0.740000 1.030400 0.930400
H521 H 0.837800 0.993000 1.079600
H522 H 0.722800 0.856500 1.042300
H523 H 0.960700 0.719700 1.087700
H524 H 0.770000 0.603700 1.134100
H525 H 0.899500 0.476900 1.158500
H526 H 1.020700 0.742200 1.237000
H527 H 0.895700 0.861200 1.226300
H528 H 0.951400 0.693000 1.342300

#END
