./KACREM_from_xyz.cif_generated_by_CrystalShift
_symmetry_cell_setting triclinic
_symmetry_space_group_name_H-M 'P 1'
loop_
_symmetry_equiv_pos_site_id
_symmetry_equiv_pos_as_xyz
1 x,y,z
_cell_length_a 10.382600
_cell_length_b 13.403600
_cell_length_c 7.700700
_cell_angle_alpha 105.296000
_cell_angle_beta 104.234000
_cell_angle_gamma 73.707000
_cell_volume 974.939189
loop_
_atom_site_label
_atom_site_type_symbol
_atom_site_fract_x
_atom_site_fract_y
_atom_site_fract_z
C1 C 0.131100 0.020600 0.573500
C2 C 0.706200 0.292700 1.004400
C3 C 0.612100 0.231800 0.913700
C4 C 0.112300 -0.068300 0.435200
C5 C 0.838100 0.245400 1.087100
C6 C 0.870800 0.136100 1.074200
C7 C 0.016100 0.088300 0.635400
C8 C 0.647900 0.121600 0.902600
C9 C 0.777900 0.074700 0.984200
C10 C 0.509800 -0.024200 0.766300
C11 C 0.528000 0.078700 0.811100
C12 C 0.381700 -0.042000 0.687600
C13 C 0.268600 0.040900 0.651300
C14 C 0.289600 0.145200 0.693900
C15 C 0.418000 0.162400 0.772000
C16 C 0.463400 0.267400 0.822600
C17 C 0.449300 0.304400 0.643200
C18 C 0.505200 0.399700 0.659500
C19 C 0.380000 0.353400 0.953800
C20 C 0.384800 0.324100 1.133000
C21 C 0.938800 0.315700 1.188300
C22 C 1.079800 0.251700 1.253600
C23 C 0.957700 0.376800 1.045800
C24 C 0.877800 0.404400 1.329500
C25 C 0.849500 0.362000 1.477700
H26 H 0.589400 -0.083300 0.789700
H27 H 0.370500 -0.116700 0.658400
H28 H 0.210800 0.205100 0.666700
H29 H 0.800700 -0.003800 0.978400
H30 H 0.964400 0.100000 1.132500
H31 H 0.679900 0.370700 1.010100
H32 H 0.937500 0.450500 1.391100
H33 H 0.793900 0.443300 1.275800
H34 H 1.090000 0.242000 1.378000
H35 H 1.093100 0.177700 1.178900
H36 H 1.152000 0.278500 1.248100
H37 H 0.981900 0.443800 1.113300
H38 H 1.033300 0.336100 0.986000
H39 H 0.878700 0.390100 0.961400
H40 H 0.354800 0.318600 0.581200
H41 H 0.496600 0.244700 0.556100
H42 H 0.527200 0.433900 0.781600
H43 H 0.587300 0.380400 0.605000
H44 H 0.440400 0.451600 0.592400
H45 H 0.860200 0.408300 1.598000
H46 H 0.755900 0.352700 1.451800
H47 H 0.908100 0.293300 1.490900
H48 H 0.285300 0.368500 0.896700
H49 H 0.411200 0.417400 0.984100
H50 H 0.298200 0.317500 1.144400
H51 H 0.449200 0.257000 1.142400
H52 H 0.414700 0.376200 1.237300
H53 H 0.210600 -0.122800 0.403800
H54 H 0.033300 0.155100 0.745100
C55 C -0.016100 -0.088300 0.364600
C56 C -0.131100 -0.020600 0.426500
C57 C -0.112300 0.068300 0.564800
H58 H -0.210600 0.122800 0.596200
C59 C -0.268600 -0.040900 0.348700
C60 C -0.381700 0.042000 0.312400
C61 C -0.509800 0.024200 0.233700
C62 C -0.528000 -0.078700 0.188900
C63 C -0.647900 -0.121600 0.097400
C64 C -0.612100 -0.231800 0.086300
C65 C -0.706200 -0.292700 -0.004400
C66 C -0.838100 -0.245400 -0.087100
C67 C -0.870800 -0.136100 -0.074200
C68 C -0.777900 -0.074700 0.015800
H69 H -0.800700 0.003800 0.021600
H70 H -0.964400 -0.100000 -0.132500
C71 C -0.938800 -0.315700 -0.188300
C72 C -1.079800 -0.251700 -0.253600
H73 H -1.090000 -0.242000 -0.378000
H74 H -1.093100 -0.177700 -0.178900
H75 H -1.152000 -0.278500 -0.248100
C76 C -0.957700 -0.376800 -0.045800
H77 H -0.981900 -0.443800 -0.113300
H78 H -1.033300 -0.336100 0.014000
H79 H -0.878700 -0.390100 0.038600
C80 C -0.877800 -0.404400 -0.329500
C81 C -0.849500 -0.362000 -0.477700
H82 H -0.860200 -0.408300 -0.598000
H83 H -0.755900 -0.352700 -0.451800
H84 H -0.908100 -0.293300 -0.490900
H85 H -0.937500 -0.450500 -0.391100
H86 H -0.793900 -0.443300 -0.275800
H87 H -0.679900 -0.370700 -0.010100
C88 C -0.463400 -0.267400 0.177400
C89 C -0.418000 -0.162400 0.228000
C90 C -0.289600 -0.145200 0.306100
H91 H -0.210800 -0.205100 0.333300
C92 C -0.449300 -0.304400 0.356800
C93 C -0.505200 -0.399700 0.340500
H94 H -0.527200 -0.433900 0.218400
H95 H -0.587300 -0.380400 0.395000
H96 H -0.440400 -0.451600 0.407600
H97 H -0.354800 -0.318600 0.418800
H98 H -0.496600 -0.244700 0.443900
C99 C -0.380000 -0.353400 0.046200
C100 C -0.384800 -0.324100 -0.133000
H101 H -0.298200 -0.317500 -0.144400
H102 H -0.449200 -0.257000 -0.142400
H103 H -0.414700 -0.376200 -0.237300
H104 H -0.285300 -0.368500 0.103300
H105 H -0.411200 -0.417400 0.015900
H106 H -0.589400 0.083300 0.210300
H107 H -0.370500 0.116700 0.341600
H108 H -0.033300 -0.155100 0.254900
C109 C 0.131100 1.020600 0.573500
C110 C 0.706200 1.292700 1.004400
C111 C 0.612100 1.231800 0.913700
C112 C 0.112300 0.931700 0.435200
C113 C 0.838100 1.245400 1.087100
C114 C 0.870800 1.136100 1.074200
C115 C 0.016100 1.088300 0.635400
C116 C 0.647900 1.121600 0.902600
C117 C 0.777900 1.074700 0.984200
C118 C 0.509800 0.975800 0.766300
C119 C 0.528000 1.078700 0.811100
C120 C 0.381700 0.958000 0.687600
C121 C 0.268600 1.040900 0.651300
C122 C 0.289600 1.145200 0.693900
C123 C 0.418000 1.162400 0.772000
C124 C 0.463400 1.267400 0.822600
C125 C 0.449300 1.304400 0.643200
C126 C 0.505200 1.399700 0.659500
C127 C 0.380000 1.353400 0.953800
C128 C 0.384800 1.324100 1.133000
C129 C 0.938800 1.315700 1.188300
C130 C 1.079800 1.251700 1.253600
C131 C 0.957700 1.376800 1.045800
C132 C 0.877800 1.404400 1.329500
C133 C 0.849500 1.362000 1.477700
H134 H 0.589400 0.916700 0.789700
H135 H 0.370500 0.883300 0.658400
H136 H 0.210800 1.205100 0.666700
H137 H 0.800700 0.996200 0.978400
H138 H 0.964400 1.100000 1.132500
H139 H 0.679900 1.370700 1.010100
H140 H 0.937500 1.450500 1.391100
H141 H 0.793900 1.443300 1.275800
H142 H 1.090000 1.242000 1.378000
H143 H 1.093100 1.177700 1.178900
H144 H 1.152000 1.278500 1.248100
H145 H 0.981900 1.443800 1.113300
H146 H 1.033300 1.336100 0.986000
H147 H 0.878700 1.390100 0.961400
H148 H 0.354800 1.318600 0.581200
H149 H 0.496600 1.244700 0.556100
H150 H 0.527200 1.433900 0.781600
H151 H 0.587300 1.380400 0.605000
H152 H 0.440400 1.451600 0.592400
H153 H 0.860200 1.408300 1.598000
H154 H 0.755900 1.352700 1.451800
H155 H 0.908100 1.293300 1.490900
H156 H 0.285300 1.368500 0.896700
H157 H 0.411200 1.417400 0.984100
H158 H 0.298200 1.317500 1.144400
H159 H 0.449200 1.257000 1.142400
H160 H 0.414700 1.376200 1.237300
H161 H 0.210600 0.877200 0.403800
H162 H 0.033300 1.155100 0.745100
C163 C -0.016100 0.911700 0.364600
C164 C -0.131100 0.979400 0.426500
C165 C -0.112300 1.068300 0.564800
H166 H -0.210600 1.122800 0.596200
C167 C -0.268600 0.959100 0.348700
C168 C -0.381700 1.042000 0.312400
C169 C -0.509800 1.024200 0.233700
C170 C -0.528000 0.921300 0.188900
C171 C -0.647900 0.878400 0.097400
C172 C -0.612100 0.768200 0.086300
C173 C -0.706200 0.707300 -0.004400
C174 C -0.838100 0.754600 -0.087100
C175 C -0.870800 0.863900 -0.074200
C176 C -0.777900 0.925300 0.015800
H177 H -0.800700 1.003800 0.021600
H178 H -0.964400 0.900000 -0.132500
C179 C -0.938800 0.684300 -0.188300
C180 C -1.079800 0.748300 -0.253600
H181 H -1.090000 0.758000 -0.378000
H182 H -1.093100 0.822300 -0.178900
H183 H -1.152000 0.721500 -0.248100
C184 C -0.957700 0.623200 -0.045800
H185 H -0.981900 0.556200 -0.113300
H186 H -1.033300 0.663900 0.014000
H187 H -0.878700 0.609900 0.038600
C188 C -0.877800 0.595600 -0.329500
C189 C -0.849500 0.638000 -0.477700
H190 H -0.860200 0.591700 -0.598000
H191 H -0.755900 0.647300 -0.451800
H192 H -0.908100 0.706700 -0.490900
H193 H -0.937500 0.549500 -0.391100
H194 H -0.793900 0.556700 -0.275800
H195 H -0.679900 0.629300 -0.010100
C196 C -0.463400 0.732600 0.177400
C197 C -0.418000 0.837600 0.228000
C198 C -0.289600 0.854800 0.306100
H199 H -0.210800 0.794900 0.333300
C200 C -0.449300 0.695600 0.356800
C201 C -0.505200 0.600300 0.340500
H202 H -0.527200 0.566100 0.218400
H203 H -0.587300 0.619600 0.395000
H204 H -0.440400 0.548400 0.407600
H205 H -0.354800 0.681400 0.418800
H206 H -0.496600 0.755300 0.443900
C207 C -0.380000 0.646600 0.046200
C208 C -0.384800 0.675900 -0.133000
H209 H -0.298200 0.682500 -0.144400
H210 H -0.449200 0.743000 -0.142400
H211 H -0.414700 0.623800 -0.237300
H212 H -0.285300 0.631500 0.103300
H213 H -0.411200 0.582600 0.015900
H214 H -0.589400 1.083300 0.210300
H215 H -0.370500 1.116700 0.341600
H216 H -0.033300 0.844900 0.254900
C217 C 1.131100 0.020600 0.573500
C218 C 1.706200 0.292700 1.004400
C219 C 1.612100 0.231800 0.913700
C220 C 1.112300 -0.068300 0.435200
C221 C 1.838100 0.245400 1.087100
C222 C 1.870800 0.136100 1.074200
C223 C 1.016100 0.088300 0.635400
C224 C 1.647900 0.121600 0.902600
C225 C 1.777900 0.074700 0.984200
C226 C 1.509800 -0.024200 0.766300
C227 C 1.528000 0.078700 0.811100
C228 C 1.381700 -0.042000 0.687600
C229 C 1.268600 0.040900 0.651300
C230 C 1.289600 0.145200 0.693900
C231 C 1.418000 0.162400 0.772000
C232 C 1.463400 0.267400 0.822600
C233 C 1.449300 0.304400 0.643200
C234 C 1.505200 0.399700 0.659500
C235 C 1.380000 0.353400 0.953800
C236 C 1.384800 0.324100 1.133000
C237 C 1.938800 0.315700 1.188300
C238 C 2.079800 0.251700 1.253600
C239 C 1.957700 0.376800 1.045800
C240 C 1.877800 0.404400 1.329500
C241 C 1.849500 0.362000 1.477700
H242 H 1.589400 -0.083300 0.789700
H243 H 1.370500 -0.116700 0.658400
H244 H 1.210800 0.205100 0.666700
H245 H 1.800700 -0.003800 0.978400
H246 H 1.964400 0.100000 1.132500
H247 H 1.679900 0.370700 1.010100
H248 H 1.937500 0.450500 1.391100
H249 H 1.793900 0.443300 1.275800
H250 H 2.090000 0.242000 1.378000
H251 H 2.093100 0.177700 1.178900
H252 H 2.152000 0.278500 1.248100
H253 H 1.981900 0.443800 1.113300
H254 H 2.033300 0.336100 0.986000
H255 H 1.878700 0.390100 0.961400
H256 H 1.354800 0.318600 0.581200
H257 H 1.496600 0.244700 0.556100
H258 H 1.527200 0.433900 0.781600
H259 H 1.587300 0.380400 0.605000
H260 H 1.440400 0.451600 0.592400
H261 H 1.860200 0.408300 1.598000
H262 H 1.755900 0.352700 1.451800
H263 H 1.908100 0.293300 1.490900
H264 H 1.285300 0.368500 0.896700
H265 H 1.411200 0.417400 0.984100
H266 H 1.298200 0.317500 1.144400
H267 H 1.449200 0.257000 1.142400
H268 H 1.414700 0.376200 1.237300
H269 H 1.210600 -0.122800 0.403800
H270 H 1.033300 0.155100 0.745100
C271 C 0.983900 -0.088300 0.364600
C272 C 0.868900 -0.020600 0.426500
C273 C 0.887700 0.068300 0.564800
H274 H 0.789400 0.122800 0.596200
C275 C 0.731400 -0.040900 0.348700
C276 C 0.618300 0.042000 0.312400
C277 C 0.490200 0.024200 0.233700
C278 C 0.472000 -0.078700 0.188900
C279 C 0.352100 -0.121600 0.097400
C280 C 0.387900 -0.231800 0.086300
C281 C 0.293800 -0.292700 -0.004400
C282 C 0.161900 -0.245400 -0.087100
C283 C 0.129200 -0.136100 -0.074200
C284 C 0.222100 -0.074700 0.015800
H285 H 0.199300 0.003800 0.021600
H286 H 0.035600 -0.100000 -0.132500
C287 C 0.061200 -0.315700 -0.188300
C288 C -0.079800 -0.251700 -0.253600
H289 H -0.090000 -0.242000 -0.378000
H290 H -0.093100 -0.177700 -0.178900
H291 H -0.152000 -0.278500 -0.248100
C292 C 0.042300 -0.376800 -0.045800
H293 H 0.018100 -0.443800 -0.113300
H294 H -0.033300 -0.336100 0.014000
H295 H 0.121300 -0.390100 0.038600
C296 C 0.122200 -0.404400 -0.329500
C297 C 0.150500 -0.362000 -0.477700
H298 H 0.139800 -0.408300 -0.598000
H299 H 0.244100 -0.352700 -0.451800
H300 H 0.091900 -0.293300 -0.490900
H301 H 0.062500 -0.450500 -0.391100
H302 H 0.206100 -0.443300 -0.275800
H303 H 0.320100 -0.370700 -0.010100
C304 C 0.536600 -0.267400 0.177400
C305 C 0.582000 -0.162400 0.228000
C306 C 0.710400 -0.145200 0.306100
H307 H 0.789200 -0.205100 0.333300
C308 C 0.550700 -0.304400 0.356800
C309 C 0.494800 -0.399700 0.340500
H310 H 0.472800 -0.433900 0.218400
H311 H 0.412700 -0.380400 0.395000
H312 H 0.559600 -0.451600 0.407600
H313 H 0.645200 -0.318600 0.418800
H314 H 0.503400 -0.244700 0.443900
C315 C 0.620000 -0.353400 0.046200
C316 C 0.615200 -0.324100 -0.133000
H317 H 0.701800 -0.317500 -0.144400
H318 H 0.550800 -0.257000 -0.142400
H319 H 0.585300 -0.376200 -0.237300
H320 H 0.714700 -0.368500 0.103300
H321 H 0.588800 -0.417400 0.015900
H322 H 0.410600 0.083300 0.210300
H323 H 0.629500 0.116700 0.341600
H324 H 0.966700 -0.155100 0.254900
C325 C 1.131100 1.020600 0.573500
C326 C 1.706200 1.292700 1.004400
C327 C 1.612100 1.231800 0.913700
C328 C 1.112300 0.931700 0.435200
C329 C 1.838100 1.245400 1.087100
C330 C 1.870800 1.136100 1.074200
C331 C 1.016100 1.088300 0.635400
C332 C 1.647900 1.121600 0.902600
C333 C 1.777900 1.074700 0.984200
C334 C 1.509800 0.975800 0.766300
C335 C 1.528000 1.078700 0.811100
C336 C 1.381700 0.958000 0.687600
C337 C 1.268600 1.040900 0.651300
C338 C 1.289600 1.145200 0.693900
C339 C 1.418000 1.162400 0.772000
C340 C 1.463400 1.267400 0.822600
C341 C 1.449300 1.304400 0.643200
C342 C 1.505200 1.399700 0.659500
C343 C 1.380000 1.353400 0.953800
C344 C 1.384800 1.324100 1.133000
C345 C 1.938800 1.315700 1.188300
C346 C 2.079800 1.251700 1.253600
C347 C 1.957700 1.376800 1.045800
C348 C 1.877800 1.404400 1.329500
C349 C 1.849500 1.362000 1.477700
H350 H 1.589400 0.916700 0.789700
H351 H 1.370500 0.883300 0.658400
H352 H 1.210800 1.205100 0.666700
H353 H 1.800700 0.996200 0.978400
H354 H 1.964400 1.100000 1.132500
H355 H 1.679900 1.370700 1.010100
H356 H 1.937500 1.450500 1.391100
H357 H 1.793900 1.443300 1.275800
H358 H 2.090000 1.242000 1.378000
H359 H 2.093100 1.177700 1.178900
H360 H 2.152000 1.278500 1.248100
H361 H 1.981900 1.443800 1.113300
H362 H 2.033300 1.336100 0.986000
H363 H 1.878700 1.390100 0.961400
H364 H 1.354800 1.318600 0.581200
H365 H 1.496600 1.244700 0.556100
H366 H 1.527200 1.433900 0.781600
H367 H 1.587300 1.380400 0.605000
H368 H 1.440400 1.451600 0.592400
H369 H 1.860200 1.408300 1.598000
H370 H 1.755900 1.352700 1.451800
H371 H 1.908100 1.293300 1.490900
H372 H 1.285300 1.368500 0.896700
H373 H 1.411200 1.417400 0.984100
H374 H 1.298200 1.317500 1.144400
H375 H 1.449200 1.257000 1.142400
H376 H 1.414700 1.376200 1.237300
H377 H 1.210600 0.877200 0.403800
H378 H 1.033300 1.155100 0.745100
C379 C 0.983900 0.911700 0.364600
C380 C 0.868900 0.979400 0.426500
C381 C 0.887700 1.068300 0.564800
H382 H 0.789400 1.122800 0.596200
C383 C 0.731400 0.959100 0.348700
C384 C 0.618300 1.042000 0.312400
C385 C 0.490200 1.024200 0.233700
C386 C 0.472000 0.921300 0.188900
C387 C 0.352100 0.878400 0.097400
C388 C 0.387900 0.768200 0.086300
C389 C 0.293800 0.707300 -0.004400
C390 C 0.161900 0.754600 -0.087100
C391 C 0.129200 0.863900 -0.074200
C392 C 0.222100 0.925300 0.015800
H393 H 0.199300 1.003800 0.021600
H394 H 0.035600 0.900000 -0.132500
C395 C 0.061200 0.684300 -0.188300
C396 C -0.079800 0.748300 -0.253600
H397 H -0.090000 0.758000 -0.378000
H398 H -0.093100 0.822300 -0.178900
H399 H -0.152000 0.721500 -0.248100
C400 C 0.042300 0.623200 -0.045800
H401 H 0.018100 0.556200 -0.113300
H402 H -0.033300 0.663900 0.014000
H403 H 0.121300 0.609900 0.038600
C404 C 0.122200 0.595600 -0.329500
C405 C 0.150500 0.638000 -0.477700
H406 H 0.139800 0.591700 -0.598000
H407 H 0.244100 0.647300 -0.451800
H408 H 0.091900 0.706700 -0.490900
H409 H 0.062500 0.549500 -0.391100
H410 H 0.206100 0.556700 -0.275800
H411 H 0.320100 0.629300 -0.010100
C412 C 0.536600 0.732600 0.177400
C413 C 0.582000 0.837600 0.228000
C414 C 0.710400 0.854800 0.306100
H415 H 0.789200 0.794900 0.333300
C416 C 0.550700 0.695600 0.356800
C417 C 0.494800 0.600300 0.340500
H418 H 0.472800 0.566100 0.218400
H419 H 0.412700 0.619600 0.395000
H420 H 0.559600 0.548400 0.407600
H421 H 0.645200 0.681400 0.418800
H422 H 0.503400 0.755300 0.443900
C423 C 0.620000 0.646600 0.046200
C424 C 0.615200 0.675900 -0.133000
H425 H 0.701800 0.682500 -0.144400
H426 H 0.550800 0.743000 -0.142400
H427 H 0.585300 0.623800 -0.237300
H428 H 0.714700 0.631500 0.103300
H429 H 0.588800 0.582600 0.015900
H430 H 0.410600 1.083300 0.210300
H431 H 0.629500 1.116700 0.341600
H432 H 0.966700 0.844900 0.254900

#END
