./KACREM01_from_xyz.cif_generated_by_CrystalShift
_symmetry_cell_setting triclinic
_symmetry_space_group_name_H-M 'P 1'
loop_
_symmetry_equiv_pos_site_id
_symmetry_equiv_pos_as_xyz
1 x,y,z
_cell_length_a 7.617000
_cell_length_b 10.296000
_cell_length_c 13.249000
_cell_angle_alpha 72.923000
_cell_angle_beta 75.218000
_cell_angle_gamma 76.430000
_cell_volume 945.918915
loop_
_atom_site_label
_atom_site_type_symbol
_atom_site_fract_x
_atom_site_fract_y
_atom_site_fract_z
C1 C -0.536430 1.461010 0.373660
C2 C -0.635260 0.878510 0.327360
C3 C -0.758900 1.578100 0.252380
C4 C -0.830480 1.374760 0.407400
C5 C -0.986100 1.347300 0.368410
H6 H -0.389000 0.776700 0.375300
H7 H -0.234000 0.519800 0.152800
H8 H -0.602000 1.527700 0.422600
H9 H -0.166000 0.707900 0.206100
H10 H -0.716000 0.819900 0.387000
H11 H -0.480000 0.905600 0.426200
H12 H -0.480000 1.373000 0.421000
H13 H -0.436000 1.505100 0.319700
H14 H 0.109000 0.695400 -0.117600
H15 H -1.077000 1.300000 0.432300
H16 H -0.162000 0.871700 -0.118400
H17 H -0.031000 0.982500 0.424100
H18 H -0.707000 0.975000 0.312000
H19 H -0.087000 0.843700 0.325700
H20 H -0.774000 1.285300 0.454600
H21 H -0.240000 0.957200 0.469100
H22 H -0.610000 0.840100 0.262200
H23 H -0.193000 1.107300 0.384700
H24 H -0.845000 1.567200 0.211000
H25 H -0.503000 1.172200 0.375400
H26 H -0.828000 1.638400 0.302000
H27 H -0.879000 1.441500 0.454900
H28 H -0.657000 1.625100 0.200300
H29 H -0.297000 1.090300 -0.085900
H30 H -0.051000 0.988200 0.246700
H31 H -0.632000 1.463900 0.099700
H32 H -1.053000 1.437000 0.330000
H33 H -0.938000 1.282000 0.319900
H34 H -0.482000 1.307200 -0.006200
C35 C -0.580930 1.337360 0.246910
C36 C -0.321320 0.959470 0.270200
C37 C -0.498670 1.203540 0.295110
C38 C -0.677320 1.437840 0.317900
C39 C -0.403270 1.148400 0.121960
C40 C -0.485000 1.279340 0.073160
C41 C -0.312520 1.028780 0.078460
C42 C -0.152730 0.769340 0.041090
C43 C -0.190150 0.883940 -0.043880
C44 C -0.272890 0.915870 0.164240
C45 C -0.195030 0.786820 0.146630
C46 C -0.269370 1.013130 -0.026310
C47 C -0.453710 0.873140 0.358020
C48 C -0.410830 1.109960 0.233800
C49 C -0.073610 0.631740 0.020160
C50 C 0.062810 0.616520 -0.071070
C51 C -0.138780 0.944090 0.307710
C52 C -0.134390 0.512630 0.090500
C53 C -0.152790 1.002600 0.403250
C54 C -0.572900 1.372790 0.135570
C55 C 0.536430 -0.461010 -0.373660
C56 C 0.635260 0.121490 -0.327360
C57 C 0.758900 -0.578100 -0.252380
C58 C 0.830480 -0.374760 -0.407400
C59 C 0.986100 -0.347300 -0.368410
H60 H 0.389000 0.223300 -0.375300
H61 H 0.234000 0.480200 -0.152800
H62 H 0.602000 -0.527700 -0.422600
H63 H 0.166000 0.292100 -0.206100
H64 H 0.716000 0.180100 -0.387000
H65 H 0.480000 0.094400 -0.426200
H66 H 0.480000 -0.373000 -0.421000
H67 H 0.436000 -0.505100 -0.319700
H68 H -0.109000 0.304600 0.117600
H69 H 1.077000 -0.300000 -0.432300
H70 H 0.162000 0.128300 0.118400
H71 H 0.031000 0.017500 -0.424100
H72 H 0.707000 0.025000 -0.312000
H73 H 0.087000 0.156300 -0.325700
H74 H 0.774000 -0.285300 -0.454600
H75 H 0.240000 0.042800 -0.469100
H76 H 0.610000 0.159900 -0.262200
H77 H 0.193000 -0.107300 -0.384700
H78 H 0.845000 -0.567200 -0.211000
H79 H 0.503000 -0.172200 -0.375400
H80 H 0.828000 -0.638400 -0.302000
H81 H 0.879000 -0.441500 -0.454900
H82 H 0.657000 -0.625100 -0.200300
H83 H 0.297000 -0.090300 0.085900
H84 H 0.051000 0.011800 -0.246700
H85 H 0.632000 -0.463900 -0.099700
H86 H 1.053000 -0.437000 -0.330000
H87 H 0.938000 -0.282000 -0.319900
H88 H 0.482000 -0.307200 0.006200
C89 C 0.580930 -0.337360 -0.246910
C90 C 0.321320 0.040530 -0.270200
C91 C 0.498670 -0.203540 -0.295110
C92 C 0.677320 -0.437840 -0.317900
C93 C 0.403270 -0.148400 -0.121960
C94 C 0.485000 -0.279340 -0.073160
C95 C 0.312520 -0.028780 -0.078460
C96 C 0.152730 0.230660 -0.041090
C97 C 0.190150 0.116060 0.043880
C98 C 0.272890 0.084130 -0.164240
C99 C 0.195030 0.213180 -0.146630
C100 C 0.269370 -0.013130 0.026310
C101 C 0.453710 0.126860 -0.358020
C102 C 0.410830 -0.109960 -0.233800
C103 C 0.073610 0.368260 -0.020160
C104 C -0.062810 0.383480 0.071070
C105 C 0.138780 0.055910 -0.307710
C106 C 0.134390 0.487370 -0.090500
C107 C 0.152790 -0.002600 -0.403250
C108 C 0.572900 -0.372790 -0.135570
C109 C -0.536430 1.461010 1.373660
C110 C -0.635260 0.878510 1.327360
C111 C -0.758900 1.578100 1.252380
C112 C -0.830480 1.374760 1.407400
C113 C -0.986100 1.347300 1.368410
H114 H -0.389000 0.776700 1.375300
H115 H -0.234000 0.519800 1.152800
H116 H -0.602000 1.527700 1.422600
H117 H -0.166000 0.707900 1.206100
H118 H -0.716000 0.819900 1.387000
H119 H -0.480000 0.905600 1.426200
H120 H -0.480000 1.373000 1.421000
H121 H -0.436000 1.505100 1.319700
H122 H 0.109000 0.695400 0.882400
H123 H -1.077000 1.300000 1.432300
H124 H -0.162000 0.871700 0.881600
H125 H -0.031000 0.982500 1.424100
H126 H -0.707000 0.975000 1.312000
H127 H -0.087000 0.843700 1.325700
H128 H -0.774000 1.285300 1.454600
H129 H -0.240000 0.957200 1.469100
H130 H -0.610000 0.840100 1.262200
H131 H -0.193000 1.107300 1.384700
H132 H -0.845000 1.567200 1.211000
H133 H -0.503000 1.172200 1.375400
H134 H -0.828000 1.638400 1.302000
H135 H -0.879000 1.441500 1.454900
H136 H -0.657000 1.625100 1.200300
H137 H -0.297000 1.090300 0.914100
H138 H -0.051000 0.988200 1.246700
H139 H -0.632000 1.463900 1.099700
H140 H -1.053000 1.437000 1.330000
H141 H -0.938000 1.282000 1.319900
H142 H -0.482000 1.307200 0.993800
C143 C -0.580930 1.337360 1.246910
C144 C -0.321320 0.959470 1.270200
C145 C -0.498670 1.203540 1.295110
C146 C -0.677320 1.437840 1.317900
C147 C -0.403270 1.148400 1.121960
C148 C -0.485000 1.279340 1.073160
C149 C -0.312520 1.028780 1.078460
C150 C -0.152730 0.769340 1.041090
C151 C -0.190150 0.883940 0.956120
C152 C -0.272890 0.915870 1.164240
C153 C -0.195030 0.786820 1.146630
C154 C -0.269370 1.013130 0.973690
C155 C -0.453710 0.873140 1.358020
C156 C -0.410830 1.109960 1.233800
C157 C -0.073610 0.631740 1.020160
C158 C 0.062810 0.616520 0.928930
C159 C -0.138780 0.944090 1.307710
C160 C -0.134390 0.512630 1.090500
C161 C -0.152790 1.002600 1.403250
C162 C -0.572900 1.372790 1.135570
C163 C 0.536430 -0.461010 0.626340
C164 C 0.635260 0.121490 0.672640
C165 C 0.758900 -0.578100 0.747620
C166 C 0.830480 -0.374760 0.592600
C167 C 0.986100 -0.347300 0.631590
H168 H 0.389000 0.223300 0.624700
H169 H 0.234000 0.480200 0.847200
H170 H 0.602000 -0.527700 0.577400
H171 H 0.166000 0.292100 0.793900
H172 H 0.716000 0.180100 0.613000
H173 H 0.480000 0.094400 0.573800
H174 H 0.480000 -0.373000 0.579000
H175 H 0.436000 -0.505100 0.680300
H176 H -0.109000 0.304600 1.117600
H177 H 1.077000 -0.300000 0.567700
H178 H 0.162000 0.128300 1.118400
H179 H 0.031000 0.017500 0.575900
H180 H 0.707000 0.025000 0.688000
H181 H 0.087000 0.156300 0.674300
H182 H 0.774000 -0.285300 0.545400
H183 H 0.240000 0.042800 0.530900
H184 H 0.610000 0.159900 0.737800
H185 H 0.193000 -0.107300 0.615300
H186 H 0.845000 -0.567200 0.789000
H187 H 0.503000 -0.172200 0.624600
H188 H 0.828000 -0.638400 0.698000
H189 H 0.879000 -0.441500 0.545100
H190 H 0.657000 -0.625100 0.799700
H191 H 0.297000 -0.090300 1.085900
H192 H 0.051000 0.011800 0.753300
H193 H 0.632000 -0.463900 0.900300
H194 H 1.053000 -0.437000 0.670000
H195 H 0.938000 -0.282000 0.680100
H196 H 0.482000 -0.307200 1.006200
C197 C 0.580930 -0.337360 0.753090
C198 C 0.321320 0.040530 0.729800
C199 C 0.498670 -0.203540 0.704890
C200 C 0.677320 -0.437840 0.682100
C201 C 0.403270 -0.148400 0.878040
C202 C 0.485000 -0.279340 0.926840
C203 C 0.312520 -0.028780 0.921540
C204 C 0.152730 0.230660 0.958910
C205 C 0.190150 0.116060 1.043880
C206 C 0.272890 0.084130 0.835760
C207 C 0.195030 0.213180 0.853370
C208 C 0.269370 -0.013130 1.026310
C209 C 0.453710 0.126860 0.641980
C210 C 0.410830 -0.109960 0.766200
C211 C 0.073610 0.368260 0.979840
C212 C -0.062810 0.383480 1.071070
C213 C 0.138780 0.055910 0.692290
C214 C 0.134390 0.487370 0.909500
C215 C 0.152790 -0.002600 0.596750
C216 C 0.572900 -0.372790 0.864430
C217 C 0.463570 1.461010 0.373660
C218 C 0.364740 0.878510 0.327360
C219 C 0.241100 1.578100 0.252380
C220 C 0.169520 1.374760 0.407400
C221 C 0.013900 1.347300 0.368410
H222 H 0.611000 0.776700 0.375300
H223 H 0.766000 0.519800 0.152800
H224 H 0.398000 1.527700 0.422600
H225 H 0.834000 0.707900 0.206100
H226 H 0.284000 0.819900 0.387000
H227 H 0.520000 0.905600 0.426200
H228 H 0.520000 1.373000 0.421000
H229 H 0.564000 1.505100 0.319700
H230 H 1.109000 0.695400 -0.117600
H231 H -0.077000 1.300000 0.432300
H232 H 0.838000 0.871700 -0.118400
H233 H 0.969000 0.982500 0.424100
H234 H 0.293000 0.975000 0.312000
H235 H 0.913000 0.843700 0.325700
H236 H 0.226000 1.285300 0.454600
H237 H 0.760000 0.957200 0.469100
H238 H 0.390000 0.840100 0.262200
H239 H 0.807000 1.107300 0.384700
H240 H 0.155000 1.567200 0.211000
H241 H 0.497000 1.172200 0.375400
H242 H 0.172000 1.638400 0.302000
H243 H 0.121000 1.441500 0.454900
H244 H 0.343000 1.625100 0.200300
H245 H 0.703000 1.090300 -0.085900
H246 H 0.949000 0.988200 0.246700
H247 H 0.368000 1.463900 0.099700
H248 H -0.053000 1.437000 0.330000
H249 H 0.062000 1.282000 0.319900
H250 H 0.518000 1.307200 -0.006200
C251 C 0.419070 1.337360 0.246910
C252 C 0.678680 0.959470 0.270200
C253 C 0.501330 1.203540 0.295110
C254 C 0.322680 1.437840 0.317900
C255 C 0.596730 1.148400 0.121960
C256 C 0.515000 1.279340 0.073160
C257 C 0.687480 1.028780 0.078460
C258 C 0.847270 0.769340 0.041090
C259 C 0.809850 0.883940 -0.043880
C260 C 0.727110 0.915870 0.164240
C261 C 0.804970 0.786820 0.146630
C262 C 0.730630 1.013130 -0.026310
C263 C 0.546290 0.873140 0.358020
C264 C 0.589170 1.109960 0.233800
C265 C 0.926390 0.631740 0.020160
C266 C 1.062810 0.616520 -0.071070
C267 C 0.861220 0.944090 0.307710
C268 C 0.865610 0.512630 0.090500
C269 C 0.847210 1.002600 0.403250
C270 C 0.427100 1.372790 0.135570
C271 C 1.536430 -0.461010 -0.373660
C272 C 1.635260 0.121490 -0.327360
C273 C 1.758900 -0.578100 -0.252380
C274 C 1.830480 -0.374760 -0.407400
C275 C 1.986100 -0.347300 -0.368410
H276 H 1.389000 0.223300 -0.375300
H277 H 1.234000 0.480200 -0.152800
H278 H 1.602000 -0.527700 -0.422600
H279 H 1.166000 0.292100 -0.206100
H280 H 1.716000 0.180100 -0.387000
H281 H 1.480000 0.094400 -0.426200
H282 H 1.480000 -0.373000 -0.421000
H283 H 1.436000 -0.505100 -0.319700
H284 H 0.891000 0.304600 0.117600
H285 H 2.077000 -0.300000 -0.432300
H286 H 1.162000 0.128300 0.118400
H287 H 1.031000 0.017500 -0.424100
H288 H 1.707000 0.025000 -0.312000
H289 H 1.087000 0.156300 -0.325700
H290 H 1.774000 -0.285300 -0.454600
H291 H 1.240000 0.042800 -0.469100
H292 H 1.610000 0.159900 -0.262200
H293 H 1.193000 -0.107300 -0.384700
H294 H 1.845000 -0.567200 -0.211000
H295 H 1.503000 -0.172200 -0.375400
H296 H 1.828000 -0.638400 -0.302000
H297 H 1.879000 -0.441500 -0.454900
H298 H 1.657000 -0.625100 -0.200300
H299 H 1.297000 -0.090300 0.085900
H300 H 1.051000 0.011800 -0.246700
H301 H 1.632000 -0.463900 -0.099700
H302 H 2.053000 -0.437000 -0.330000
H303 H 1.938000 -0.282000 -0.319900
H304 H 1.482000 -0.307200 0.006200
C305 C 1.580930 -0.337360 -0.246910
C306 C 1.321320 0.040530 -0.270200
C307 C 1.498670 -0.203540 -0.295110
C308 C 1.677320 -0.437840 -0.317900
C309 C 1.403270 -0.148400 -0.121960
C310 C 1.485000 -0.279340 -0.073160
C311 C 1.312520 -0.028780 -0.078460
C312 C 1.152730 0.230660 -0.041090
C313 C 1.190150 0.116060 0.043880
C314 C 1.272890 0.084130 -0.164240
C315 C 1.195030 0.213180 -0.146630
C316 C 1.269370 -0.013130 0.026310
C317 C 1.453710 0.126860 -0.358020
C318 C 1.410830 -0.109960 -0.233800
C319 C 1.073610 0.368260 -0.020160
C320 C 0.937190 0.383480 0.071070
C321 C 1.138780 0.055910 -0.307710
C322 C 1.134390 0.487370 -0.090500
C323 C 1.152790 -0.002600 -0.403250
C324 C 1.572900 -0.372790 -0.135570
C325 C 0.463570 1.461010 1.373660
C326 C 0.364740 0.878510 1.327360
C327 C 0.241100 1.578100 1.252380
C328 C 0.169520 1.374760 1.407400
C329 C 0.013900 1.347300 1.368410
H330 H 0.611000 0.776700 1.375300
H331 H 0.766000 0.519800 1.152800
H332 H 0.398000 1.527700 1.422600
H333 H 0.834000 0.707900 1.206100
H334 H 0.284000 0.819900 1.387000
H335 H 0.520000 0.905600 1.426200
H336 H 0.520000 1.373000 1.421000
H337 H 0.564000 1.505100 1.319700
H338 H 1.109000 0.695400 0.882400
H339 H -0.077000 1.300000 1.432300
H340 H 0.838000 0.871700 0.881600
H341 H 0.969000 0.982500 1.424100
H342 H 0.293000 0.975000 1.312000
H343 H 0.913000 0.843700 1.325700
H344 H 0.226000 1.285300 1.454600
H345 H 0.760000 0.957200 1.469100
H346 H 0.390000 0.840100 1.262200
H347 H 0.807000 1.107300 1.384700
H348 H 0.155000 1.567200 1.211000
H349 H 0.497000 1.172200 1.375400
H350 H 0.172000 1.638400 1.302000
H351 H 0.121000 1.441500 1.454900
H352 H 0.343000 1.625100 1.200300
H353 H 0.703000 1.090300 0.914100
H354 H 0.949000 0.988200 1.246700
H355 H 0.368000 1.463900 1.099700
H356 H -0.053000 1.437000 1.330000
H357 H 0.062000 1.282000 1.319900
H358 H 0.518000 1.307200 0.993800
C359 C 0.419070 1.337360 1.246910
C360 C 0.678680 0.959470 1.270200
C361 C 0.501330 1.203540 1.295110
C362 C 0.322680 1.437840 1.317900
C363 C 0.596730 1.148400 1.121960
C364 C 0.515000 1.279340 1.073160
C365 C 0.687480 1.028780 1.078460
C366 C 0.847270 0.769340 1.041090
C367 C 0.809850 0.883940 0.956120
C368 C 0.727110 0.915870 1.164240
C369 C 0.804970 0.786820 1.146630
C370 C 0.730630 1.013130 0.973690
C371 C 0.546290 0.873140 1.358020
C372 C 0.589170 1.109960 1.233800
C373 C 0.926390 0.631740 1.020160
C374 C 1.062810 0.616520 0.928930
C375 C 0.861220 0.944090 1.307710
C376 C 0.865610 0.512630 1.090500
C377 C 0.847210 1.002600 1.403250
C378 C 0.427100 1.372790 1.135570
C379 C 1.536430 -0.461010 0.626340
C380 C 1.635260 0.121490 0.672640
C381 C 1.758900 -0.578100 0.747620
C382 C 1.830480 -0.374760 0.592600
C383 C 1.986100 -0.347300 0.631590
H384 H 1.389000 0.223300 0.624700
H385 H 1.234000 0.480200 0.847200
H386 H 1.602000 -0.527700 0.577400
H387 H 1.166000 0.292100 0.793900
H388 H 1.716000 0.180100 0.613000
H389 H 1.480000 0.094400 0.573800
H390 H 1.480000 -0.373000 0.579000
H391 H 1.436000 -0.505100 0.680300
H392 H 0.891000 0.304600 1.117600
H393 H 2.077000 -0.300000 0.567700
H394 H 1.162000 0.128300 1.118400
H395 H 1.031000 0.017500 0.575900
H396 H 1.707000 0.025000 0.688000
H397 H 1.087000 0.156300 0.674300
H398 H 1.774000 -0.285300 0.545400
H399 H 1.240000 0.042800 0.530900
H400 H 1.610000 0.159900 0.737800
H401 H 1.193000 -0.107300 0.615300
H402 H 1.845000 -0.567200 0.789000
H403 H 1.503000 -0.172200 0.624600
H404 H 1.828000 -0.638400 0.698000
H405 H 1.879000 -0.441500 0.545100
H406 H 1.657000 -0.625100 0.799700
H407 H 1.297000 -0.090300 1.085900
H408 H 1.051000 0.011800 0.753300
H409 H 1.632000 -0.463900 0.900300
H410 H 2.053000 -0.437000 0.670000
H411 H 1.938000 -0.282000 0.680100
H412 H 1.482000 -0.307200 1.006200
C413 C 1.580930 -0.337360 0.753090
C414 C 1.321320 0.040530 0.729800
C415 C 1.498670 -0.203540 0.704890
C416 C 1.677320 -0.437840 0.682100
C417 C 1.403270 -0.148400 0.878040
C418 C 1.485000 -0.279340 0.926840
C419 C 1.312520 -0.028780 0.921540
C420 C 1.152730 0.230660 0.958910
C421 C 1.190150 0.116060 1.043880
C422 C 1.272890 0.084130 0.835760
C423 C 1.195030 0.213180 0.853370
C424 C 1.269370 -0.013130 1.026310
C425 C 1.453710 0.126860 0.641980
C426 C 1.410830 -0.109960 0.766200
C427 C 1.073610 0.368260 0.979840
C428 C 0.937190 0.383480 1.071070
C429 C 1.138780 0.055910 0.692290
C430 C 1.134390 0.487370 0.909500
C431 C 1.152790 -0.002600 0.596750
C432 C 1.572900 -0.372790 0.864430

#END
