./KACREO_from_xyz.cif_generated_by_CrystalShift
_symmetry_cell_setting triclinic
_symmetry_space_group_name_H-M 'P 1'
loop_
_symmetry_equiv_pos_site_id
_symmetry_equiv_pos_as_xyz
1 x,y,z
_cell_length_a 8.230200
_cell_length_b 7.572700
_cell_length_c 12.199900
_cell_angle_alpha 90.000000
_cell_angle_beta 98.675000
_cell_angle_gamma 90.000000
_cell_volume 751.658146
loop_
_atom_site_label
_atom_site_type_symbol
_atom_site_fract_x
_atom_site_fract_y
_atom_site_fract_z
I1 I 0.185500 0.337030 0.272540
N2 N 0.474800 0.740200 0.327800
C3 C 0.024600 0.829600 0.293200
C4 C 0.193300 0.819900 0.341000
C5 C 0.168700 0.572500 -0.051500
C6 C 0.260500 0.856700 -0.121900
C7 C 0.272600 0.682000 0.167400
C8 C 0.408100 0.879700 0.494500
C9 C 0.316700 0.748100 0.284200
C10 C 0.357700 0.969800 0.094600
C11 C 0.289300 0.798400 0.078200
C12 C 0.241600 0.887900 0.448200
C13 C -0.038100 0.979400 0.453900
C14 C 0.238100 0.741200 -0.033300
C15 C 0.377000 1.077400 0.006800
C16 C 0.120900 0.970900 0.503700
C17 C 0.515800 0.802400 0.433400
C18 C 0.327200 1.019400 -0.104000
C19 C -0.088200 0.905300 0.347800
C20 C 0.153700 0.460700 0.034500
C21 C 0.208600 0.516400 0.145500
H22 H -0.008500 0.782700 0.223000
H23 H 0.132100 0.535800 -0.123700
H24 H 0.228200 0.819100 -0.194500
H25 H 0.444600 0.925400 0.564700
H26 H 0.390200 1.010400 0.166600
H27 H -0.115500 1.034900 0.490300
H28 H 0.423100 1.189000 0.020000
H29 H 0.151300 1.019200 0.573900
H30 H 0.624800 0.791600 0.466300
H31 H 0.340300 1.092300 -0.163400
H32 H -0.198100 0.908700 0.315800
H33 H 0.108000 0.349100 0.020600
I34 I 0.814500 -0.162970 0.727460
N35 N 0.525200 0.240200 0.672200
C36 C 0.975400 0.329600 0.706800
C37 C 0.806700 0.319900 0.659000
C38 C 0.831300 0.072500 1.051500
C39 C 0.739500 0.356700 1.121900
C40 C 0.727400 0.182000 0.832600
C41 C 0.591900 0.379700 0.505500
C42 C 0.683300 0.248100 0.715800
C43 C 0.642300 0.469800 0.905400
C44 C 0.710700 0.298400 0.921800
C45 C 0.758400 0.387900 0.551800
C46 C 1.038100 0.479400 0.546100
C47 C 0.761900 0.241200 1.033300
C48 C 0.623000 0.577400 0.993200
C49 C 0.879100 0.470900 0.496300
C50 C 0.484200 0.302400 0.566600
C51 C 0.672800 0.519400 1.104000
C52 C 1.088200 0.405300 0.652200
C53 C 0.846300 -0.039300 0.965500
C54 C 0.791400 0.016400 0.854500
H55 H 1.008500 0.282700 0.777000
H56 H 0.867900 0.035800 1.123700
H57 H 0.771800 0.319100 1.194500
H58 H 0.555400 0.425400 0.435300
H59 H 0.609800 0.510400 0.833400
H60 H 1.115500 0.534900 0.509700
H61 H 0.576900 0.689000 0.980000
H62 H 0.848700 0.519200 0.426100
H63 H 0.375200 0.291600 0.533700
H64 H 0.659700 0.592300 1.163400
H65 H 1.198100 0.408700 0.684200
H66 H 0.892000 -0.150900 0.979400

#END
