./LABBAU_from_POSCAR.cif_generated_by_CrystalShift
_symmetry_cell_setting triclinic
_symmetry_space_group_name_H-M 'P 1'
loop_
_symmetry_equiv_pos_site_id
_symmetry_equiv_pos_as_xyz
1 x,y,z
_cell_length_a 8.163900
_cell_length_b 5.987000
_cell_length_c 16.329200
_cell_angle_alpha 90.000000
_cell_angle_beta 104.181000
_cell_angle_gamma 90.000000
_cell_volume 773.805106
loop_
_atom_site_label
_atom_site_type_symbol
_atom_site_fract_x
_atom_site_fract_y
_atom_site_fract_z
H1 H 0.901000 1.266800 -0.229400
H2 H 0.903100 0.899400 1.116400
H3 H 1.068900 1.050300 1.144500
H4 H 0.932500 1.424900 -0.148000
H5 H 0.882000 0.744000 0.447900
H6 H 0.931100 0.949700 -0.144500
H7 H 1.099000 0.733200 1.229400
H8 H 1.235400 0.723300 1.173800
H9 H 0.903100 -0.100600 1.116400
H10 H 0.618000 0.244000 0.052100
H11 H 1.067500 0.575100 1.148000
H12 H 1.068900 0.050300 1.144500
H13 H 1.099000 -0.266800 1.229400
H14 H 1.235400 -0.276700 1.173800
H15 H 0.118000 0.256000 0.552100
H16 H 1.096900 1.100600 0.883600
H17 H 0.931100 0.949700 0.855500
H18 H 1.067500 -0.424900 1.148000
H19 H 1.096900 1.100600 -0.116400
H20 H 0.382000 0.756000 0.947900
H21 H 0.901000 1.266800 0.770600
H22 H 1.096900 0.100600 0.883600
H23 H 0.567500 0.924900 0.648000
H24 H 0.735400 0.776700 0.673800
H25 H 0.599000 0.766800 0.729400
H26 H 0.931100 -0.050300 0.855500
H27 H 0.568900 0.449700 0.644500
H28 H 0.403100 0.600600 0.616400
H29 H 0.901000 0.266800 0.770600
H30 H 0.764600 1.276700 0.826200
H31 H 0.764600 0.276700 0.826200
H32 H 0.432500 0.075100 0.352000
H33 H 0.264600 0.223300 0.326200
H34 H 0.401000 0.233200 0.270600
H35 H 0.932500 0.424900 0.852000
H36 H 0.431100 0.550300 0.355500
H37 H 0.596900 0.399400 0.383600
H38 H 0.903100 -0.100600 0.116400
H39 H 0.932500 1.424900 0.852000
H40 H 1.068900 0.050300 0.144500
H41 H -0.067500 0.424900 -0.148000
H42 H -0.235400 0.276700 -0.173800
H43 H -0.099000 0.266800 -0.229400
H44 H 1.099000 -0.266800 0.229400
H45 H -0.068900 -0.050300 -0.144500
H46 H 0.096900 0.100600 -0.116400
H47 H 1.235400 -0.276700 0.173800
H48 H 1.067500 -0.424900 0.148000
H49 H 1.096900 0.100600 -0.116400
H50 H 0.067500 -0.424900 0.148000
H51 H 0.235400 -0.276700 0.173800
H52 H 0.099000 -0.266800 0.229400
H53 H 0.931100 -0.050300 -0.144500
H54 H 0.068900 0.050300 0.144500
H55 H -0.096900 -0.100600 0.116400
H56 H 0.901000 0.266800 -0.229400
H57 H 0.764600 0.276700 -0.173800
H58 H 0.932500 0.424900 -0.148000
H59 H -0.067500 0.424900 0.852000
H60 H -0.235400 0.276700 0.826200
H61 H -0.099000 0.266800 0.770600
H62 H 1.067500 0.575100 0.148000
H63 H -0.068900 -0.050300 0.855500
H64 H 0.096900 0.100600 0.883600
H65 H -0.096900 0.899400 1.116400
H66 H 0.903100 0.899400 0.116400
H67 H 0.068900 1.050300 1.144500
H68 H 0.067500 -0.424900 1.148000
H69 H 0.235400 -0.276700 1.173800
H70 H 0.099000 -0.266800 1.229400
H71 H 0.099000 0.733200 1.229400
H72 H 0.068900 0.050300 1.144500
H73 H -0.096900 -0.100600 1.116400
H74 H 0.235400 0.723300 1.173800
H75 H 1.068900 1.050300 0.144500
H76 H 0.764600 1.276700 -0.173800
H77 H -0.067500 1.424900 -0.148000
H78 H -0.235400 1.276700 -0.173800
H79 H -0.099000 1.266800 -0.229400
H80 H 0.067500 0.575100 1.148000
H81 H -0.068900 0.949700 -0.144500
H82 H 0.096900 1.100600 -0.116400
H83 H 1.235400 0.723300 0.173800
H84 H 0.096900 1.100600 0.883600
H85 H -0.068900 0.949700 0.855500
H86 H 0.067500 0.575100 0.148000
H87 H 0.235400 0.723300 0.173800
H88 H 0.099000 0.733200 0.229400
H89 H -0.099000 1.266800 0.770600
H90 H 0.068900 1.050300 0.144500
H91 H -0.096900 0.899400 0.116400
H92 H -0.235400 1.276700 0.826200
H93 H 1.099000 0.733200 0.229400
H94 H -0.067500 1.424900 0.852000
C95 C -0.114500 1.281900 0.828020
C96 C 1.044100 0.905300 1.029440
C97 C 0.025000 0.906800 0.117810
C98 C -0.025000 1.093200 0.882190
C99 C 0.114500 0.718100 0.171980
C100 C 1.025000 0.906800 0.117810
C101 C -0.044100 1.094700 0.970560
C102 C -0.044100 1.094700 -0.029440
C103 C 0.114500 0.718100 1.171980
C104 C -0.025000 1.093200 -0.117810
C105 C 0.044100 -0.094700 1.029440
C106 C 0.025000 -0.093200 1.117810
C107 C 0.025000 0.906800 1.117810
C108 C 0.114500 -0.281900 1.171980
C109 C -0.044100 0.094700 0.970560
C110 C 0.044100 0.905300 1.029440
C111 C -0.025000 0.093200 0.882190
C112 C 0.885500 0.281900 -0.171980
C113 C -0.114500 0.281900 0.828020
C114 C 1.044100 0.905300 0.029440
C115 C 0.044100 -0.094700 0.029440
C116 C 0.975000 0.093200 -0.117810
C117 C 0.025000 -0.093200 0.117810
C118 C 0.114500 -0.281900 0.171980
C119 C 0.955900 0.094700 -0.029440
C120 C 1.114500 0.718100 0.171980
C121 C 1.114500 -0.281900 0.171980
C122 C 0.885500 1.281900 0.828020
C123 C -0.044100 0.094700 -0.029440
C124 C -0.025000 0.093200 -0.117810
C125 C 1.025000 -0.093200 0.117810
C126 C -0.114500 0.281900 -0.171980
C127 C 0.455900 0.405300 0.470560
C128 C 1.044100 -0.094700 0.029440
C129 C 0.955900 1.094700 -0.029440
C130 C 0.885500 0.281900 0.828020
C131 C 0.475000 0.406800 0.382190
C132 C 0.385500 0.218100 0.328020
C133 C 0.544100 0.594700 0.529440
C134 C 0.975000 0.093200 0.882190
C135 C 0.525000 0.593200 0.617810
C136 C 0.614500 0.781900 0.671980
C137 C 0.955900 0.094700 0.970560
C138 C 0.436300 0.761800 0.906120
C139 C 1.114500 -0.281900 1.171980
C140 C 0.975000 1.093200 0.882190
C141 C 0.063700 0.261800 0.593880
C142 C 0.955900 1.094700 0.970560
C143 C 1.025000 -0.093200 1.117810
C144 C 1.114500 0.718100 1.171980
C145 C 0.563700 0.238200 0.093880
C146 C 1.044100 -0.094700 1.029440
C147 C 1.025000 0.906800 1.117810
C148 C 0.885500 1.281900 -0.171980
C149 C 0.936300 0.738200 0.406120
C150 C -0.114500 1.281900 -0.171980
C151 C 0.044100 0.905300 0.029440
C152 C 0.975000 1.093200 -0.117810
O153 O 0.875900 1.232600 -0.001660
O154 O 1.124100 -0.232600 1.001660
O155 O 0.875900 0.232600 0.998340
O156 O 1.124100 0.767400 0.001660
O157 O 1.124100 -0.232600 0.001660
O158 O 0.875900 0.232600 -0.001660
O159 O 0.124100 0.767400 1.001660
O160 O -0.124100 1.232600 0.998340
O161 O 0.124100 0.767400 0.001660
O162 O -0.124100 1.232600 -0.001660
O163 O 0.124100 -0.232600 1.001660
O164 O -0.124100 0.232600 0.998340
O165 O 0.875900 1.232600 0.998340
O166 O 0.124100 -0.232600 0.001660
O167 O -0.124100 0.232600 -0.001660
O168 O 0.375900 0.267400 0.498340
O169 O 0.624100 0.732600 0.501660
O170 O 1.124100 0.767400 1.001660
Cl171 Cl 0.632960 0.627680 0.936800
Cl172 Cl 0.461810 1.043280 0.880210
Cl173 Cl 0.195490 0.122590 0.680090
Cl174 Cl 0.304510 0.622590 0.819910
Cl175 Cl -0.132960 0.127680 0.563200
Cl176 Cl 0.038190 0.543280 0.619790
Cl177 Cl 0.695490 0.377410 0.180090
Cl178 Cl 0.367040 0.372320 0.063200
Cl179 Cl 0.538190 -0.043280 0.119790
Cl180 Cl 0.804510 0.877410 0.319910
Cl181 Cl 1.132960 0.872320 0.436800
Cl182 Cl 0.961810 0.456720 0.380210

#END
