
#######################################################################
#
#                 Cambridge Crystallographic Data Centre
#                                CCDC 
#
#######################################################################
#
# If this CIF has been generated from an entry in the Cambridge 
# Structural Database, then it will include bibliographic, chemical, 
# crystal, experimental, refinement or atomic coordinate data resulting 
# from the CCDC's data processing and validation procedures.
#
#######################################################################

data_LABBAU
_symmetry_cell_setting           monoclinic
_symmetry_space_group_name_H-M   'P 21/n'
_symmetry_Int_Tables_number      14
_space_group_name_Hall           '-P 2yn'
loop_
_symmetry_equiv_pos_site_id
_symmetry_equiv_pos_as_xyz
1 x,y,z
2 1/2-x,1/2+y,1/2-z
3 -x,-y,-z
4 1/2+x,1/2-y,1/2+z
_cell_length_a                   8.1639(5)
_cell_length_b                   5.9870(3)
_cell_length_c                   16.3292(10)
_cell_angle_alpha                90
_cell_angle_beta                 104.181(6)
_cell_angle_gamma                90
_cell_volume                     773.805
loop_
_atom_site_label
_atom_site_type_symbol
_atom_site_fract_x
_atom_site_fract_y
_atom_site_fract_z
Cl1 Cl 0.96181(6) 0.45672(7) 0.38021(3)
Cl2 Cl 1.13296(6) 0.87232(8) 0.43680(3)
Cl3 Cl 0.80451(7) 0.87741(8) 0.31991(3)
C1 C 0.9363(2) 0.7382(3) 0.40612(11)
H1 H 0.882(2) 0.744(3) 0.4479(13)
Cl1 Cl 0.53819(6) -0.04328(7) 0.11979(3)
Cl2 Cl 0.36704(6) 0.37232(8) 0.06320(3)
Cl3 Cl 0.69549(7) 0.37741(8) 0.18009(3)
C1 C 0.5637(2) 0.2382(3) 0.09388(11)
H1 H 0.618(2) 0.244(3) 0.0521(13)
Cl1 Cl 0.03819(6) 0.54328(7) 0.61979(3)
Cl2 Cl -0.13296(6) 0.12768(8) 0.56320(3)
Cl3 Cl 0.19549(7) 0.12259(8) 0.68009(3)
C1 C 0.0637(2) 0.2618(3) 0.59388(11)
H1 H 0.118(2) 0.256(3) 0.5521(13)
Cl1 Cl 0.46181(6) 1.04328(7) 0.88021(3)
Cl2 Cl 0.63296(6) 0.62768(8) 0.93680(3)
Cl3 Cl 0.30451(7) 0.62259(8) 0.81991(3)
C1 C 0.4363(2) 0.7618(3) 0.90612(11)
H1 H 0.382(2) 0.756(3) 0.9479(13)
O1 O 0.6241(2) 0.7326(2) 0.50166(10)
C2 C 0.6145(3) 0.7819(4) 0.67198(17)
H2 H 0.5675 0.9249 0.6480
H3 H 0.7354 0.7767 0.6738
H4 H 0.5990 0.7668 0.7294
C3 C 0.5250(3) 0.5932(4) 0.61781(14)
H5 H 0.5689 0.4497 0.6445
H6 H 0.4031 0.6006 0.6164
C4 C 0.5441(2) 0.5947(3) 0.52944(13)
O1B O 0.3759(2) 0.2674(2) 0.49834(10)
C2B C 0.3855(3) 0.2181(4) 0.32802(17)
H2B H 0.4325 0.0751 0.3520
H3B H 0.2646 0.2233 0.3262
H4B H 0.4010 0.2332 0.2706
C3B C 0.4750(3) 0.4068(4) 0.38219(14)
H5B H 0.4311 0.5503 0.3555
H6B H 0.5969 0.3994 0.3836
C4B C 0.4559(2) 0.4053(3) 0.47056(13)
O1 O -0.1241(2) 0.2326(2) -0.00166(10)
C2 C -0.1145(3) 0.2819(4) -0.17198(17)
H2 H -0.0675 0.4249 -0.1480
H3 H -0.2354 0.2767 -0.1738
H4 H -0.0990 0.2668 -0.2294
C3 C -0.0250(3) 0.0932(4) -0.11781(14)
H5 H -0.0689 -0.0503 -0.1445
H6 H 0.0969 0.1006 -0.1164
C4 C -0.0441(2) 0.0947(3) -0.02944(13)
O1B O 0.1241(2) -0.2326(2) 0.00166(10)
C2B C 0.1145(3) -0.2819(4) 0.17198(17)
H2B H 0.0675 -0.4249 0.1480
H3B H 0.2354 -0.2767 0.1738
H4B H 0.0990 -0.2668 0.2294
C3B C 0.0250(3) -0.0932(4) 0.11781(14)
H5B H 0.0689 0.0503 0.1445
H6B H -0.0969 -0.1006 0.1164
C4B C 0.0441(2) -0.0947(3) 0.02944(13)
O1 O -0.1241(2) 0.2326(2) 0.99834(10)
C2 C -0.1145(3) 0.2819(4) 0.82802(17)
H2 H -0.0675 0.4249 0.8520
H3 H -0.2354 0.2767 0.8262
H4 H -0.0990 0.2668 0.7706
C3 C -0.0250(3) 0.0932(4) 0.88219(14)
H5 H -0.0689 -0.0503 0.8555
H6 H 0.0969 0.1006 0.8836
C4 C -0.0441(2) 0.0947(3) 0.97056(13)
O1B O 0.1241(2) -0.2326(2) 1.00166(10)
C2B C 0.1145(3) -0.2819(4) 1.17198(17)
H2B H 0.0675 -0.4249 1.1480
H3B H 0.2354 -0.2767 1.1738
H4B H 0.0990 -0.2668 1.2294
C3B C 0.0250(3) -0.0932(4) 1.11781(14)
H5B H 0.0689 0.0503 1.1445
H6B H -0.0969 -0.1006 1.1164
C4B C 0.0441(2) -0.0947(3) 1.02944(13)
O1 O -0.1241(2) 1.2326(2) -0.00166(10)
C2 C -0.1145(3) 1.2819(4) -0.17198(17)
H2 H -0.0675 1.4249 -0.1480
H3 H -0.2354 1.2767 -0.1738
H4 H -0.0990 1.2668 -0.2294
C3 C -0.0250(3) 1.0932(4) -0.11781(14)
H5 H -0.0689 0.9497 -0.1445
H6 H 0.0969 1.1006 -0.1164
C4 C -0.0441(2) 1.0947(3) -0.02944(13)
O1B O 0.1241(2) 0.7674(2) 0.00166(10)
C2B C 0.1145(3) 0.7181(4) 0.17198(17)
H2B H 0.0675 0.5751 0.1480
H3B H 0.2354 0.7233 0.1738
H4B H 0.0990 0.7332 0.2294
C3B C 0.0250(3) 0.9068(4) 0.11781(14)
H5B H 0.0689 1.0503 0.1445
H6B H -0.0969 0.8994 0.1164
C4B C 0.0441(2) 0.9053(3) 0.02944(13)
O1 O -0.1241(2) 1.2326(2) 0.99834(10)
C2 C -0.1145(3) 1.2819(4) 0.82802(17)
H2 H -0.0675 1.4249 0.8520
H3 H -0.2354 1.2767 0.8262
H4 H -0.0990 1.2668 0.7706
C3 C -0.0250(3) 1.0932(4) 0.88219(14)
H5 H -0.0689 0.9497 0.8555
H6 H 0.0969 1.1006 0.8836
C4 C -0.0441(2) 1.0947(3) 0.97056(13)
O1B O 0.1241(2) 0.7674(2) 1.00166(10)
C2B C 0.1145(3) 0.7181(4) 1.17198(17)
H2B H 0.0675 0.5751 1.1480
H3B H 0.2354 0.7233 1.1738
H4B H 0.0990 0.7332 1.2294
C3B C 0.0250(3) 0.9068(4) 1.11781(14)
H5B H 0.0689 1.0503 1.1445
H6B H -0.0969 0.8994 1.1164
C4B C 0.0441(2) 0.9053(3) 1.02944(13)
O1 O 0.8759(2) 0.2326(2) -0.00166(10)
C2 C 0.8855(3) 0.2819(4) -0.17198(17)
H2 H 0.9325 0.4249 -0.1480
H3 H 0.7646 0.2767 -0.1738
H4 H 0.9010 0.2668 -0.2294
C3 C 0.9750(3) 0.0932(4) -0.11781(14)
H5 H 0.9311 -0.0503 -0.1445
H6 H 1.0969 0.1006 -0.1164
C4 C 0.9559(2) 0.0947(3) -0.02944(13)
O1B O 1.1241(2) -0.2326(2) 0.00166(10)
C2B C 1.1145(3) -0.2819(4) 0.17198(17)
H2B H 1.0675 -0.4249 0.1480
H3B H 1.2354 -0.2767 0.1738
H4B H 1.0990 -0.2668 0.2294
C3B C 1.0250(3) -0.0932(4) 0.11781(14)
H5B H 1.0689 0.0503 0.1445
H6B H 0.9031 -0.1006 0.1164
C4B C 1.0441(2) -0.0947(3) 0.02944(13)
O1 O 0.8759(2) 0.2326(2) 0.99834(10)
C2 C 0.8855(3) 0.2819(4) 0.82802(17)
H2 H 0.9325 0.4249 0.8520
H3 H 0.7646 0.2767 0.8262
H4 H 0.9010 0.2668 0.7706
C3 C 0.9750(3) 0.0932(4) 0.88219(14)
H5 H 0.9311 -0.0503 0.8555
H6 H 1.0969 0.1006 0.8836
C4 C 0.9559(2) 0.0947(3) 0.97056(13)
O1B O 1.1241(2) -0.2326(2) 1.00166(10)
C2B C 1.1145(3) -0.2819(4) 1.17198(17)
H2B H 1.0675 -0.4249 1.1480
H3B H 1.2354 -0.2767 1.1738
H4B H 1.0990 -0.2668 1.2294
C3B C 1.0250(3) -0.0932(4) 1.11781(14)
H5B H 1.0689 0.0503 1.1445
H6B H 0.9031 -0.1006 1.1164
C4B C 1.0441(2) -0.0947(3) 1.02944(13)
O1 O 0.8759(2) 1.2326(2) -0.00166(10)
C2 C 0.8855(3) 1.2819(4) -0.17198(17)
H2 H 0.9325 1.4249 -0.1480
H3 H 0.7646 1.2767 -0.1738
H4 H 0.9010 1.2668 -0.2294
C3 C 0.9750(3) 1.0932(4) -0.11781(14)
H5 H 0.9311 0.9497 -0.1445
H6 H 1.0969 1.1006 -0.1164
C4 C 0.9559(2) 1.0947(3) -0.02944(13)
O1B O 1.1241(2) 0.7674(2) 0.00166(10)
C2B C 1.1145(3) 0.7181(4) 0.17198(17)
H2B H 1.0675 0.5751 0.1480
H3B H 1.2354 0.7233 0.1738
H4B H 1.0990 0.7332 0.2294
C3B C 1.0250(3) 0.9068(4) 0.11781(14)
H5B H 1.0689 1.0503 0.1445
H6B H 0.9031 0.8994 0.1164
C4B C 1.0441(2) 0.9053(3) 0.02944(13)
O1 O 0.8759(2) 1.2326(2) 0.99834(10)
C2 C 0.8855(3) 1.2819(4) 0.82802(17)
H2 H 0.9325 1.4249 0.8520
H3 H 0.7646 1.2767 0.8262
H4 H 0.9010 1.2668 0.7706
C3 C 0.9750(3) 1.0932(4) 0.88219(14)
H5 H 0.9311 0.9497 0.8555
H6 H 1.0969 1.1006 0.8836
C4 C 0.9559(2) 1.0947(3) 0.97056(13)
O1B O 1.1241(2) 0.7674(2) 1.00166(10)
C2B C 1.1145(3) 0.7181(4) 1.17198(17)
H2B H 1.0675 0.5751 1.1480
H3B H 1.2354 0.7233 1.1738
H4B H 1.0990 0.7332 1.2294
C3B C 1.0250(3) 0.9068(4) 1.11781(14)
H5B H 1.0689 1.0503 1.1445
H6B H 0.9031 0.8994 1.1164
C4B C 1.0441(2) 0.9053(3) 1.02944(13)

#END
