
#######################################################################
#
#                 Cambridge Crystallographic Data Centre
#                                CCDC 
#
#######################################################################
#
# If this CIF has been generated from an entry in the Cambridge 
# Structural Database, then it will include bibliographic, chemical, 
# crystal, experimental, refinement or atomic coordinate data resulting 
# from the CCDC's data processing and validation procedures.
#
#######################################################################

data_LABBUO
_symmetry_cell_setting           orthorhombic
_symmetry_space_group_name_H-M   'P 21 21 21'
_symmetry_Int_Tables_number      19
_space_group_name_Hall           'P 2ac 2ab'
loop_
_symmetry_equiv_pos_site_id
_symmetry_equiv_pos_as_xyz
1 x,y,z
2 1/2-x,-y,1/2+z
3 -x,1/2+y,1/2-z
4 1/2+x,1/2-y,-z
_cell_length_a                   6.5079(5)
_cell_length_b                   21.5977(12)
_cell_length_c                   23.1014(16)
_cell_angle_alpha                90
_cell_angle_beta                 90
_cell_angle_gamma                90
_cell_volume                     3247.03
loop_
_atom_site_label
_atom_site_type_symbol
_atom_site_fract_x
_atom_site_fract_y
_atom_site_fract_z
Cl1 Cl 0.35883(11) 0.99218(3) 1.20631(3)
O1 O 1.0493(3) 1.22211(7) 0.96057(8)
H1 H 1.124(5) 1.2176(12) 0.9827(12)
O2 O 0.3073(2) 0.74089(7) 0.88027(8)
O3 O 1.0983(2) 1.12633(6) 1.04078(6)
C1 C 0.9079(3) 1.05305(8) 0.97527(8)
H2 H 0.876(3) 1.0288(8) 1.0076(8)
H3 H 1.038(3) 1.0373(9) 0.9598(8)
C2 C 0.9539(3) 1.11890(8) 0.99341(8)
C3 C 1.0072(3) 1.16005(8) 0.94280(9)
H4 H 1.141(4) 1.1392(10) 0.9254(9)
C4 C 0.8471(3) 1.16091(8) 0.89365(8)
C5 C 0.7907(3) 1.09213(7) 0.87962(7)
H5 H 0.925(3) 1.0726(8) 0.8638(8)
C6 C 0.7306(2) 1.04969(7) 0.93131(7)
C7 C 0.7198(3) 0.98138(7) 0.90827(7)
H6 H 0.863(3) 0.9737(7) 0.8973(7)
C8 C 0.5860(3) 0.96935(8) 0.85305(7)
C9 C 0.6396(4) 1.01833(8) 0.80724(8)
H7 H 0.769(3) 1.0123(9) 0.7942(9)
H8 H 0.559(3) 1.0140(10) 0.7756(10)
C10 C 0.6373(3) 1.08477(8) 0.82968(8)
H9 H 0.496(3) 1.0985(9) 0.8414(9)
H10 H 0.675(3) 1.1127(9) 0.7978(9)
C11 C 0.6698(4) 0.93363(8) 0.95501(8)
H11 H 0.524(3) 0.9370(8) 0.9668(8)
H12 H 0.759(3) 0.9401(9) 0.9906(10)
C12 C 0.7044(4) 0.86748(9) 0.93335(9)
H13 H 0.658(3) 0.8392(9) 0.9623(8)
H14 H 0.854(4) 0.8624(9) 0.9266(8)
C13 C 0.5866(3) 0.85379(8) 0.87816(8)
H15 H 0.444(3) 0.8554(8) 0.8860(7)
C14 C 0.6345(3) 0.90150(8) 0.82987(7)
C15 C 0.5013(4) 0.88554(10) 0.77650(9)
H16 H 0.534(3) 0.9141(10) 0.7438(10)
H17 H 0.354(4) 0.8901(10) 0.7855(10)
C16 C 0.5349(4) 0.81980(10) 0.75383(10)
H18 H 0.441(4) 0.8105(11) 0.7236(11)
H19 H 0.663(4) 0.8177(11) 0.7353(11)
C17 C 0.5163(3) 0.77022(9) 0.80036(9)
C18 C 0.6218(3) 0.78667(8) 0.85786(8)
H20 H 0.764(3) 0.7815(8) 0.8565(8)
C19 C 0.5216(3) 0.73804(9) 0.89664(10)
H21 H 0.535(3) 0.7480(9) 0.9398(9)
C20 C 0.6038(4) 0.67213(9) 0.88562(11)
C21 C 0.5612(5) 0.65571(11) 0.82187(12)
H22 H 0.634(4) 0.6226(12) 0.8144(11)
H23 H 0.417(4) 0.6406(12) 0.8182(12)
C22 C 0.6044(4) 0.70816(10) 0.77985(11)
H24 H 0.551(4) 0.6954(12) 0.7419(12)
H25 H 0.759(4) 0.7165(12) 0.7755(11)
C23 C 0.6626(4) 1.20215(10) 0.90890(12)
H26 H 0.611(4) 1.1957(9) 0.9494(11)
H27 H 0.554(4) 1.1959(11) 0.8792(13)
H28 H 0.696(3) 1.2440(11) 0.9096(9)
C24 C 0.9540(5) 1.18946(11) 0.84054(11)
H29 H 0.867(4) 1.1962(11) 0.8085(13)
H30 H 1.087(5) 1.1614(12) 0.8290(11)
H31 H 1.017(4) 1.2317(13) 0.8504(11)
C25 C 0.5314(3) 1.06967(10) 0.96231(9)
H32 H 0.553(3) 1.1050(10) 0.9872(9)
H33 H 0.423(3) 1.0787(9) 0.9339(9)
H34 H 0.472(3) 1.0370(10) 0.9862(9)
C26 C 0.3540(3) 0.97565(11) 0.86568(11)
H35 H 0.284(3) 0.9673(9) 0.8298(10)
H36 H 0.318(4) 1.0168(11) 0.8746(10)
H37 H 0.300(4) 0.9510(13) 0.8970(12)
C27 C 0.8614(3) 0.89547(10) 0.81126(10)
H38 H 0.898(3) 0.8536(10) 0.8017(9)
H39 H 0.893(5) 0.9204(14) 0.7817(14)
H40 H 0.952(4) 0.9044(12) 0.8408(12)
C28 C 0.2962(3) 0.76093(12) 0.82148(13)
H41 H 0.200(4) 0.7356(11) 0.7980(11)
H42 H 0.194(4) 0.8002(11) 0.8172(11)
C29 C 0.8327(5) 0.66852(14) 0.90053(19)
H43 H 0.869(5) 0.6265(14) 0.9000(11)
H44 H 0.850(5) 0.6861(14) 0.9406(15)
H45 H 0.916(5) 0.6882(14) 0.8742(14)
C30 C 0.4889(6) 0.62699(13) 0.92503(16)
H46 H 0.344(6) 0.6324(15) 0.9180(15)
H47 H 0.532(4) 0.6319(12) 0.9628(12)
H48 H 0.528(5) 0.5821(14) 0.9135(13)
C31 C 0.8871(3) 1.14444(9) 1.05002(8)
H49 H 0.865(3) 1.1900(9) 1.0507(8)
C32 C 0.7671(3) 1.10821(8) 1.09264(8)
C33 C 0.5707(3) 1.12839(10) 1.10707(9)
H50 H 0.520(3) 1.1663(10) 1.0896(9)
C34 C 0.4464(4) 1.09301(11) 1.14208(10)
H51 H 0.309(4) 1.1052(12) 1.1537(11)
C35 C 0.5189(3) 1.03798(10) 1.16338(9)
C36 C 0.7156(4) 1.01791(11) 1.15191(9)
H52 H 0.759(3) 0.9823(9) 1.1665(8)
C37 C 0.8398(3) 1.05332(9) 1.11657(8)
H53 H 0.978(4) 1.0415(10) 1.1076(9)
Cl1 Cl 1.14117(11) 0.00782(3) 0.70631(3)
O1 O 0.4507(3) -0.22211(7) 0.46057(8)
H1 H 0.376(5) -0.2176(12) 0.4827(12)
O2 O 1.1927(2) 0.25911(7) 0.38027(8)
O3 O 0.4017(2) -0.12633(6) 0.54078(6)
C1 C 0.5921(3) -0.05305(8) 0.47527(8)
H2 H 0.624(3) -0.0288(8) 0.5076(8)
H3 H 0.462(3) -0.0373(9) 0.4598(8)
C2 C 0.5461(3) -0.11890(8) 0.49341(8)
C3 C 0.4928(3) -0.16005(8) 0.44280(9)
H4 H 0.359(4) -0.1392(10) 0.4254(9)
C4 C 0.6529(3) -0.16091(8) 0.39365(8)
C5 C 0.7093(3) -0.09213(7) 0.37962(7)
H5 H 0.575(3) -0.0726(8) 0.3638(8)
C6 C 0.7694(2) -0.04969(7) 0.43131(7)
C7 C 0.7802(3) 0.01862(7) 0.40827(7)
H6 H 0.637(3) 0.0263(7) 0.3973(7)
C8 C 0.9140(3) 0.03065(8) 0.35305(7)
C9 C 0.8604(4) -0.01833(8) 0.30724(8)
H7 H 0.731(3) -0.0123(9) 0.2942(9)
H8 H 0.941(3) -0.0140(10) 0.2756(10)
C10 C 0.8627(3) -0.08477(8) 0.32968(8)
H9 H 1.004(3) -0.0985(9) 0.3414(9)
H10 H 0.825(3) -0.1127(9) 0.2978(9)
C11 C 0.8302(4) 0.06637(8) 0.45501(8)
H11 H 0.976(3) 0.0630(8) 0.4668(8)
H12 H 0.741(3) 0.0599(9) 0.4906(10)
C12 C 0.7956(4) 0.13252(9) 0.43335(9)
H13 H 0.842(3) 0.1608(9) 0.4623(8)
H14 H 0.646(4) 0.1376(9) 0.4266(8)
C13 C 0.9134(3) 0.14621(8) 0.37816(8)
H15 H 1.056(3) 0.1446(8) 0.3860(7)
C14 C 0.8655(3) 0.09850(8) 0.32987(7)
C15 C 0.9987(4) 0.11446(10) 0.27650(9)
H16 H 0.966(3) 0.0859(10) 0.2438(10)
H17 H 1.146(4) 0.1099(10) 0.2855(10)
C16 C 0.9651(4) 0.18020(10) 0.25383(10)
H18 H 1.059(4) 0.1895(11) 0.2236(11)
H19 H 0.837(4) 0.1823(11) 0.2353(11)
C17 C 0.9837(3) 0.22978(9) 0.30036(9)
C18 C 0.8782(3) 0.21333(8) 0.35786(8)
H20 H 0.736(3) 0.2185(8) 0.3565(8)
C19 C 0.9784(3) 0.26196(9) 0.39664(10)
H21 H 0.965(3) 0.2520(9) 0.4398(9)
C20 C 0.8962(4) 0.32787(9) 0.38562(11)
C21 C 0.9388(5) 0.34429(11) 0.32187(12)
H22 H 0.866(4) 0.3774(12) 0.3144(11)
H23 H 1.083(4) 0.3594(12) 0.3182(12)
C22 C 0.8956(4) 0.29184(10) 0.27985(11)
H24 H 0.949(4) 0.3046(12) 0.2419(12)
H25 H 0.741(4) 0.2835(12) 0.2755(11)
C23 C 0.8374(4) -0.20215(10) 0.40890(12)
H26 H 0.889(4) -0.1957(9) 0.4494(11)
H27 H 0.946(4) -0.1959(11) 0.3792(13)
H28 H 0.804(3) -0.2440(11) 0.4096(9)
C24 C 0.5460(5) -0.18946(11) 0.34054(11)
H29 H 0.633(4) -0.1962(11) 0.3085(13)
H30 H 0.413(5) -0.1614(12) 0.3290(11)
H31 H 0.483(4) -0.2317(13) 0.3504(11)
C25 C 0.9686(3) -0.06967(10) 0.46231(9)
H32 H 0.947(3) -0.1050(10) 0.4872(9)
H33 H 1.077(3) -0.0787(9) 0.4339(9)
H34 H 1.028(3) -0.0370(10) 0.4862(9)
C26 C 1.1460(3) 0.02435(11) 0.36568(11)
H35 H 1.216(3) 0.0327(9) 0.3298(10)
H36 H 1.182(4) -0.0168(11) 0.3746(10)
H37 H 1.200(4) 0.0490(13) 0.3970(12)
C27 C 0.6386(3) 0.10453(10) 0.31126(10)
H38 H 0.602(3) 0.1464(10) 0.3017(9)
H39 H 0.607(5) 0.0796(14) 0.2817(14)
H40 H 0.548(4) 0.0956(12) 0.3408(12)
C28 C 1.2038(3) 0.23907(12) 0.32148(13)
H41 H 1.300(4) 0.2644(11) 0.2980(11)
H42 H 1.306(4) 0.1998(11) 0.3172(11)
C29 C 0.6673(5) 0.33148(14) 0.40053(19)
H43 H 0.631(5) 0.3735(14) 0.4000(11)
H44 H 0.650(5) 0.3139(14) 0.4406(15)
H45 H 0.584(5) 0.3118(14) 0.3742(14)
C30 C 1.0111(6) 0.37301(13) 0.42503(16)
H46 H 1.156(6) 0.3676(15) 0.4180(15)
H47 H 0.968(4) 0.3681(12) 0.4628(12)
H48 H 0.972(5) 0.4179(14) 0.4135(13)
C31 C 0.6129(3) -0.14444(9) 0.55002(8)
H49 H 0.635(3) -0.1900(9) 0.5507(8)
C32 C 0.7329(3) -0.10821(8) 0.59264(8)
C33 C 0.9293(3) -0.12839(10) 0.60707(9)
H50 H 0.980(3) -0.1663(10) 0.5896(9)
C34 C 1.0536(4) -0.09301(11) 0.64208(10)
H51 H 1.191(4) -0.1052(12) 0.6537(11)
C35 C 0.9811(3) -0.03798(10) 0.66338(9)
C36 C 0.7844(4) -0.01791(11) 0.65191(9)
H52 H 0.741(3) 0.0177(9) 0.6665(8)
C37 C 0.6602(3) -0.05332(9) 0.61657(8)
H53 H 0.522(4) -0.0415(10) 0.6076(9)
Cl1 Cl 0.64117(11) 0.49218(3) 0.29369(3)
O1 O -0.0493(3) 0.72211(7) 0.53943(8)
H1 H -0.124(5) 0.7176(12) 0.5173(12)
O2 O 0.6927(2) 0.24089(7) 0.61973(8)
O3 O -0.0983(2) 0.62633(6) 0.45922(6)
C1 C 0.0921(3) 0.55305(8) 0.52473(8)
H2 H 0.124(3) 0.5288(8) 0.4924(8)
H3 H -0.038(3) 0.5373(9) 0.5402(8)
C2 C 0.0461(3) 0.61890(8) 0.50659(8)
C3 C -0.0072(3) 0.66005(8) 0.55720(9)
H4 H -0.141(4) 0.6392(10) 0.5746(9)
C4 C 0.1529(3) 0.66091(8) 0.60635(8)
C5 C 0.2093(3) 0.59213(7) 0.62038(7)
H5 H 0.075(3) 0.5726(8) 0.6362(8)
C6 C 0.2694(2) 0.54969(7) 0.56869(7)
C7 C 0.2802(3) 0.48138(7) 0.59173(7)
H6 H 0.137(3) 0.4737(7) 0.6027(7)
C8 C 0.4140(3) 0.46935(8) 0.64695(7)
C9 C 0.3604(4) 0.51833(8) 0.69276(8)
H7 H 0.231(3) 0.5123(9) 0.7058(9)
H8 H 0.441(3) 0.5140(10) 0.7244(10)
C10 C 0.3627(3) 0.58477(8) 0.67032(8)
H9 H 0.504(3) 0.5985(9) 0.6586(9)
H10 H 0.325(3) 0.6127(9) 0.7022(9)
C11 C 0.3302(4) 0.43363(8) 0.54499(8)
H11 H 0.476(3) 0.4370(8) 0.5332(8)
H12 H 0.241(3) 0.4401(9) 0.5094(10)
C12 C 0.2956(4) 0.36748(9) 0.56665(9)
H13 H 0.342(3) 0.3392(9) 0.5377(8)
H14 H 0.146(4) 0.3624(9) 0.5734(8)
C13 C 0.4134(3) 0.35379(8) 0.62184(8)
H15 H 0.556(3) 0.3554(8) 0.6140(7)
C14 C 0.3655(3) 0.40150(8) 0.67013(7)
C15 C 0.4987(4) 0.38554(10) 0.72350(9)
H16 H 0.466(3) 0.4141(10) 0.7562(10)
H17 H 0.646(4) 0.3901(10) 0.7145(10)
C16 C 0.4651(4) 0.31980(10) 0.74617(10)
H18 H 0.559(4) 0.3105(11) 0.7764(11)
H19 H 0.337(4) 0.3177(11) 0.7647(11)
C17 C 0.4837(3) 0.27022(9) 0.69964(9)
C18 C 0.3782(3) 0.28667(8) 0.64214(8)
H20 H 0.236(3) 0.2815(8) 0.6435(8)
C19 C 0.4784(3) 0.23804(9) 0.60336(10)
H21 H 0.465(3) 0.2480(9) 0.5602(9)
C20 C 0.3962(4) 0.17213(9) 0.61438(11)
C21 C 0.4388(5) 0.15571(11) 0.67813(12)
H22 H 0.366(4) 0.1226(12) 0.6856(11)
H23 H 0.583(4) 0.1406(12) 0.6818(12)
C22 C 0.3956(4) 0.20816(10) 0.72015(11)
H24 H 0.449(4) 0.1954(12) 0.7581(12)
H25 H 0.241(4) 0.2165(12) 0.7245(11)
C23 C 0.3374(4) 0.70215(10) 0.59110(12)
H26 H 0.389(4) 0.6957(9) 0.5506(11)
H27 H 0.446(4) 0.6959(11) 0.6208(13)
H28 H 0.304(3) 0.7440(11) 0.5904(9)
C24 C 0.0460(5) 0.68946(11) 0.65946(11)
H29 H 0.133(4) 0.6962(11) 0.6915(13)
H30 H -0.087(5) 0.6614(12) 0.6710(11)
H31 H -0.017(4) 0.7317(13) 0.6496(11)
C25 C 0.4686(3) 0.56967(10) 0.53769(9)
H32 H 0.447(3) 0.6050(10) 0.5128(9)
H33 H 0.577(3) 0.5787(9) 0.5661(9)
H34 H 0.528(3) 0.5370(10) 0.5138(9)
C26 C 0.6460(3) 0.47565(11) 0.63432(11)
H35 H 0.716(3) 0.4673(9) 0.6702(10)
H36 H 0.682(4) 0.5168(11) 0.6254(10)
H37 H 0.700(4) 0.4510(13) 0.6030(12)
C27 C 0.1386(3) 0.39547(10) 0.68874(10)
H38 H 0.102(3) 0.3536(10) 0.6983(9)
H39 H 0.107(5) 0.4204(14) 0.7183(14)
H40 H 0.048(4) 0.4044(12) 0.6592(12)
C28 C 0.7038(3) 0.26093(12) 0.67852(13)
H41 H 0.800(4) 0.2356(11) 0.7020(11)
H42 H 0.806(4) 0.3002(11) 0.6828(11)
C29 C 0.1673(5) 0.16852(14) 0.59947(19)
H43 H 0.131(5) 0.1265(14) 0.6000(11)
H44 H 0.150(5) 0.1861(14) 0.5594(15)
H45 H 0.084(5) 0.1882(14) 0.6258(14)
C30 C 0.5111(6) 0.12699(13) 0.57497(16)
H46 H 0.656(6) 0.1324(15) 0.5820(15)
H47 H 0.468(4) 0.1319(12) 0.5372(12)
H48 H 0.472(5) 0.0821(14) 0.5865(13)
C31 C 0.1129(3) 0.64444(9) 0.44998(8)
H49 H 0.135(3) 0.6900(9) 0.4493(8)
C32 C 0.2329(3) 0.60821(8) 0.40736(8)
C33 C 0.4293(3) 0.62839(10) 0.39293(9)
H50 H 0.480(3) 0.6663(10) 0.4104(9)
C34 C 0.5536(4) 0.59301(11) 0.35792(10)
H51 H 0.691(4) 0.6052(12) 0.3463(11)
C35 C 0.4811(3) 0.53798(10) 0.33662(9)
C36 C 0.2844(4) 0.51791(11) 0.34809(9)
H52 H 0.241(3) 0.4823(9) 0.3335(8)
C37 C 0.1602(3) 0.55332(9) 0.38343(8)
H53 H 0.022(4) 0.5415(10) 0.3924(9)
Cl1 Cl -0.14117(11) 0.50782(3) -0.20631(3)
O1 O 0.5493(3) 0.27789(7) 0.03943(8)
H1 H 0.624(5) 0.2824(12) 0.0173(12)
O2 O -0.1927(2) 0.75911(7) 0.11973(8)
O3 O 0.5983(2) 0.37367(6) -0.04078(6)
C1 C 0.4079(3) 0.44695(8) 0.02473(8)
H2 H 0.376(3) 0.4712(8) -0.0076(8)
H3 H 0.538(3) 0.4627(9) 0.0402(8)
C2 C 0.4539(3) 0.38110(8) 0.00659(8)
C3 C 0.5072(3) 0.33995(8) 0.05720(9)
H4 H 0.641(4) 0.3608(10) 0.0746(9)
C4 C 0.3471(3) 0.33909(8) 0.10635(8)
C5 C 0.2907(3) 0.40787(7) 0.12038(7)
H5 H 0.425(3) 0.4274(8) 0.1362(8)
C6 C 0.2306(2) 0.45031(7) 0.06869(7)
C7 C 0.2198(3) 0.51862(7) 0.09173(7)
H6 H 0.363(3) 0.5263(7) 0.1027(7)
C8 C 0.0860(3) 0.53065(8) 0.14695(7)
C9 C 0.1396(4) 0.48167(8) 0.19276(8)
H7 H 0.269(3) 0.4877(9) 0.2058(9)
H8 H 0.059(3) 0.4860(10) 0.2244(10)
C10 C 0.1373(3) 0.41523(8) 0.17032(8)
H9 H -0.004(3) 0.4015(9) 0.1586(9)
H10 H 0.175(3) 0.3873(9) 0.2022(9)
C11 C 0.1698(4) 0.56637(8) 0.04499(8)
H11 H 0.024(3) 0.5630(8) 0.0332(8)
H12 H 0.259(3) 0.5599(9) 0.0094(10)
C12 C 0.2044(4) 0.63252(9) 0.06665(9)
H13 H 0.158(3) 0.6608(9) 0.0377(8)
H14 H 0.354(4) 0.6376(9) 0.0734(8)
C13 C 0.0866(3) 0.64621(8) 0.12184(8)
H15 H -0.056(3) 0.6446(8) 0.1140(7)
C14 C 0.1345(3) 0.59850(8) 0.17013(7)
C15 C 0.0013(4) 0.61446(10) 0.22350(9)
H16 H 0.034(3) 0.5859(10) 0.2562(10)
H17 H -0.146(4) 0.6099(10) 0.2145(10)
C16 C 0.0349(4) 0.68020(10) 0.24617(10)
H18 H -0.059(4) 0.6895(11) 0.2764(11)
H19 H 0.163(4) 0.6823(11) 0.2647(11)
C17 C 0.0163(3) 0.72978(9) 0.19964(9)
C18 C 0.1218(3) 0.71333(8) 0.14214(8)
H20 H 0.264(3) 0.7185(8) 0.1435(8)
C19 C 0.0216(3) 0.76196(9) 0.10336(10)
H21 H 0.035(3) 0.7520(9) 0.0602(9)
C20 C 0.1038(4) 0.82787(9) 0.11438(11)
C21 C 0.0612(5) 0.84429(11) 0.17813(12)
H22 H 0.134(4) 0.8774(12) 0.1856(11)
H23 H -0.083(4) 0.8594(12) 0.1818(12)
C22 C 0.1044(4) 0.79184(10) 0.22015(11)
H24 H 0.051(4) 0.8046(12) 0.2581(12)
H25 H 0.259(4) 0.7835(12) 0.2245(11)
C23 C 0.1626(4) 0.29785(10) 0.09110(12)
H26 H 0.111(4) 0.3043(9) 0.0506(11)
H27 H 0.054(4) 0.3041(11) 0.1208(13)
H28 H 0.196(3) 0.2560(11) 0.0904(9)
C24 C 0.4540(5) 0.31054(11) 0.15946(11)
H29 H 0.367(4) 0.3038(11) 0.1915(13)
H30 H 0.587(5) 0.3386(12) 0.1710(11)
H31 H 0.517(4) 0.2683(13) 0.1496(11)
C25 C 0.0314(3) 0.43033(10) 0.03769(9)
H32 H 0.053(3) 0.3950(10) 0.0128(9)
H33 H -0.077(3) 0.4213(9) 0.0661(9)
H34 H -0.028(3) 0.4630(10) 0.0138(9)
C26 C -0.1460(3) 0.52435(11) 0.13432(11)
H35 H -0.216(3) 0.5327(9) 0.1702(10)
H36 H -0.182(4) 0.4832(11) 0.1254(10)
H37 H -0.200(4) 0.5490(13) 0.1030(12)
C27 C 0.3614(3) 0.60453(10) 0.18874(10)
H38 H 0.398(3) 0.6464(10) 0.1983(9)
H39 H 0.393(5) 0.5796(14) 0.2183(14)
H40 H 0.452(4) 0.5956(12) 0.1592(12)
C28 C -0.2038(3) 0.73907(12) 0.17852(13)
H41 H -0.300(4) 0.7644(11) 0.2020(11)
H42 H -0.306(4) 0.6998(11) 0.1828(11)
C29 C 0.3327(5) 0.83148(14) 0.09947(19)
H43 H 0.369(5) 0.8735(14) 0.1000(11)
H44 H 0.350(5) 0.8139(14) 0.0594(15)
H45 H 0.416(5) 0.8118(14) 0.1258(14)
C30 C -0.0111(6) 0.87301(13) 0.07497(16)
H46 H -0.156(6) 0.8676(15) 0.0820(15)
H47 H 0.032(4) 0.8681(12) 0.0372(12)
H48 H 0.028(5) 0.9179(14) 0.0865(13)
C31 C 0.3871(3) 0.35556(9) -0.05002(8)
H49 H 0.365(3) 0.3100(9) -0.0507(8)
C32 C 0.2671(3) 0.39179(8) -0.09264(8)
C33 C 0.0707(3) 0.37161(10) -0.10707(9)
H50 H 0.020(3) 0.3337(10) -0.0896(9)
C34 C -0.0536(4) 0.40699(11) -0.14208(10)
H51 H -0.191(4) 0.3948(12) -0.1537(11)
C35 C 0.0189(3) 0.46202(10) -0.16338(9)
C36 C 0.2156(4) 0.48209(11) -0.15191(9)
H52 H 0.259(3) 0.5177(9) -0.1665(8)
C37 C 0.3398(3) 0.44668(9) -0.11657(8)
H53 H 0.478(4) 0.4585(10) -0.1076(9)

#END
