
#######################################################################
#
#                 Cambridge Crystallographic Data Centre
#                                CCDC 
#
#######################################################################
#
# If this CIF has been generated from an entry in the Cambridge 
# Structural Database, then it will include bibliographic, chemical, 
# crystal, experimental, refinement or atomic coordinate data resulting 
# from the CCDC's data processing and validation procedures.
#
#######################################################################

data_LABCAS
_symmetry_cell_setting           triclinic
_symmetry_space_group_name_H-M   'P -1'
_symmetry_Int_Tables_number      2
_space_group_name_Hall           '-P 1'
loop_
_symmetry_equiv_pos_site_id
_symmetry_equiv_pos_as_xyz
1 x,y,z
2 -x,-y,-z
_cell_length_a                   8.344(1)
_cell_length_b                   9.387(1)
_cell_length_c                   12.527(2)
_cell_angle_alpha                97.27(1)
_cell_angle_beta                 101.18(1)
_cell_angle_gamma                110.79(1)
_cell_volume                     879.231
loop_
_atom_site_label
_atom_site_type_symbol
_atom_site_fract_x
_atom_site_fract_y
_atom_site_fract_z
Fe1 Fe 1.10597(4) 0.66310(4) 0.33692(3)
P1 P 0.86007(9) 0.89087(8) 0.30374(5)
C1 C 0.9080(3) 0.7229(3) 0.25847(19)
C2 C 1.0146(3) 0.7050(3) 0.18530(18)
C3 C 1.0097(4) 0.5512(3) 0.17261(20)
C4 C 0.8994(4) 0.4718(3) 0.23698(21)
C5 C 0.8364(3) 0.5755(3) 0.29012(20)
C6 C 1.3561(4) 0.8281(3) 0.40650(22)
C7 C 1.2485(4) 0.8273(3) 0.48103(20)
C8 C 1.1870(4) 0.6757(3) 0.50403(20)
C9 C 1.2555(4) 0.5840(3) 0.44394(23)
C10 C 1.3607(4) 0.6794(4) 0.38344(24)
C11 C 0.6610(3) 0.8556(3) 0.19328(19)
C12 C 0.5846(4) 0.9649(3) 0.19664(21)
C13 C 0.4304(4) 0.9415(3) 0.11834(25)
C14 C 0.3491(4) 0.8071(4) 0.03637(23)
C15 C 0.4217(4) 0.6982(4) 0.03244(24)
C16 C 0.5768(4) 0.7213(3) 0.10996(23)
C17 C 1.0309(3) 1.0457(3) 0.26329(20)
C18 C 1.0120(4) 1.0799(3) 0.15764(21)
C19 C 1.1473(4) 1.1982(3) 0.13311(24)
C20 C 1.3038(4) 1.2812(3) 0.2126(3)
C21 C 1.3251(4) 1.2491(3) 0.3172(3)
C22 C 1.1888(4) 1.1339(3) 0.34308(23)
H1 H 1.084 0.791 0.153
H2 H 1.081 0.511 0.131
H3 H 0.872 0.362 0.244
H4 H 0.761 0.562 0.344
H5 H 1.417 0.919 0.375
H6 H 1.211 0.911 0.509
H7 H 1.104 0.642 0.552
H8 H 1.224 0.471 0.443
H9 H 1.424 0.643 0.333
H10 H 0.643 1.064 0.254
H11 H 0.380 1.023 0.123
H12 H 0.234 0.789 -0.016
H13 H 0.362 0.601 -0.026
H14 H 0.626 0.639 0.106
H15 H 0.896 1.017 0.103
H16 H 1.128 1.219 0.057
H17 H 1.398 1.364 0.191
H18 H 1.439 1.308 0.374
H19 H 1.198 1.114 0.420
Fe1 Fe -0.10597(4) 0.33690(4) 0.66308(3)
P1 P 0.13993(9) 0.10913(8) 0.69626(5)
C1 C 0.0920(3) 0.2771(3) 0.74153(19)
C2 C -0.0146(3) 0.2950(3) 0.81470(18)
C3 C -0.0097(4) 0.4488(3) 0.82739(20)
C4 C 0.1006(4) 0.5282(3) 0.76302(21)
C5 C 0.1636(3) 0.4245(3) 0.70988(20)
C6 C -0.3561(4) 0.1719(3) 0.59350(22)
C7 C -0.2485(4) 0.1727(3) 0.51897(20)
C8 C -0.1870(4) 0.3243(3) 0.49597(20)
C9 C -0.2555(4) 0.4160(3) 0.55606(23)
C10 C -0.3607(4) 0.3206(4) 0.61656(24)
C11 C 0.3390(3) 0.1444(3) 0.80672(19)
C12 C 0.4154(4) 0.0351(3) 0.80336(21)
C13 C 0.5696(4) 0.0585(3) 0.88166(25)
C14 C 0.6509(4) 0.1929(4) 0.96363(23)
C15 C 0.5783(4) 0.3018(4) 0.96756(24)
C16 C 0.4232(4) 0.2787(3) 0.89004(23)
C17 C -0.0309(3) -0.0457(3) 0.73671(20)
C18 C -0.0120(4) -0.0799(3) 0.84236(21)
C19 C -0.1473(4) -0.1982(3) 0.86689(24)
C20 C -0.3038(4) -0.2812(3) 0.7874(3)
C21 C -0.3251(4) -0.2491(3) 0.6828(3)
C22 C -0.1888(4) -0.1339(3) 0.65692(23)
H1 H -0.084 0.209 0.847
H2 H -0.081 0.489 0.869
H3 H 0.128 0.638 0.756
H4 H 0.239 0.438 0.656
H5 H -0.417 0.081 0.625
H6 H -0.211 0.089 0.491
H7 H -0.104 0.358 0.448
H8 H -0.224 0.529 0.557
H9 H -0.424 0.357 0.667
H10 H 0.357 -0.064 0.746
H11 H 0.620 -0.023 0.877
H12 H 0.766 0.211 1.016
H13 H 0.638 0.399 1.026
H14 H 0.374 0.361 0.894
H15 H 0.104 -0.017 0.897
H16 H -0.128 -0.219 0.943
H17 H -0.398 -0.364 0.809
H18 H -0.439 -0.308 0.626
H19 H -0.198 -0.114 0.580

#END
