./LABDUQ_from_POSCAR.cif_generated_by_CrystalShift
_symmetry_cell_setting triclinic
_symmetry_space_group_name_H-M 'P 1'
loop_
_symmetry_equiv_pos_site_id
_symmetry_equiv_pos_as_xyz
1 x,y,z
_cell_length_a 9.575000
_cell_length_b 7.204700
_cell_length_c 16.026000
_cell_angle_alpha 90.000000
_cell_angle_beta 105.980000
_cell_angle_gamma 90.000000
_cell_volume 1062.832683
loop_
_atom_site_label
_atom_site_type_symbol
_atom_site_fract_x
_atom_site_fract_y
_atom_site_fract_z
H1 H 0.426100 0.202900 0.439100
H2 H 0.797200 0.631900 1.030000
H3 H 0.822500 0.840900 1.011400
H4 H 0.779300 0.326900 0.629100
H5 H 0.641500 0.356200 0.724300
H6 H 0.573900 0.702900 1.060900
H7 H 0.177500 0.340900 0.488600
H8 H 0.202800 0.131900 0.470000
H9 H 0.358500 0.643800 0.275700
H10 H 0.202800 0.368100 -0.030000
H11 H 0.220700 0.673100 0.370900
H12 H 0.177500 0.159100 -0.011400
H13 H 0.326000 0.754300 0.512700
H14 H 0.426100 0.297100 -0.060900
H15 H 0.573900 0.797100 0.560900
H16 H 0.674000 0.254300 -0.012700
H17 H 0.779300 0.173100 0.129100
H18 H 0.822500 0.659100 0.511400
H19 H 0.797200 0.868100 0.530000
H20 H 0.641500 0.143800 0.224300
H21 H 0.674000 0.245700 0.487300
H22 H 0.358500 0.856200 0.775700
H23 H 0.326000 0.745700 1.012700
H24 H 0.220700 0.826900 0.870900
C25 C 0.382900 0.759900 0.974600
C26 C 0.320400 0.807000 0.890000
C27 C 0.531300 0.733600 1.003100
C28 C 0.631400 0.685600 0.293000
C29 C 0.597100 0.174700 0.166700
C30 C 0.798500 0.671500 0.323300
C31 C 0.679600 0.193000 0.110000
C32 C 0.780500 0.774500 0.484700
C33 C 0.617100 0.240100 0.025400
C34 C 0.617600 0.748000 0.447100
C35 C 0.468700 0.266400 -0.003100
C36 C 0.531300 0.766400 0.503100
C37 C 0.382400 0.248000 0.052900
C38 C 0.219500 0.274500 0.015300
C39 C 0.382900 0.740100 0.474600
C40 C 0.320400 0.693000 0.390000
C41 C 0.201500 0.171500 0.176700
C42 C 0.368600 0.185600 0.207000
C43 C 0.402900 0.825300 0.833300
C44 C 0.554400 0.797800 0.860800
C45 C 0.368600 0.314400 0.707000
C46 C 0.201500 0.328500 0.676700
C47 C 0.402900 0.674700 0.333300
C48 C 0.554400 0.702200 0.360800
C49 C 0.445600 0.297800 0.639200
C50 C 0.597100 0.325300 0.666700
C51 C 0.617600 0.752000 0.947100
C52 C 0.679600 0.307000 0.610000
C53 C 0.780500 0.725500 0.984700
C54 C 0.617100 0.259900 0.525400
C55 C 0.445600 0.202200 0.139200
C56 C 0.468700 0.233600 0.496900
C57 C 0.631400 0.814400 0.793000
C58 C 0.382400 0.252000 0.552900
C59 C 0.219500 0.225500 0.515300
C60 C 0.798500 0.828500 0.823300
O61 O 0.185100 -0.016700 0.630400
O62 O 0.429000 0.320600 0.782700
O63 O 0.571000 0.679400 0.217300
O64 O 0.814900 1.016700 0.369600
O65 O 1.022000 0.816800 0.442200
O66 O 0.429000 0.179400 0.282700
O67 O 0.571000 0.820600 0.717300
O68 O 0.814900 0.483300 0.869600
O69 O 1.022000 0.683200 0.942200
O70 O 0.185100 0.516700 0.130400
O71 O -0.022000 0.316800 0.057800
O72 O -0.022000 0.183200 0.557800
S73 S 0.130180 0.158170 0.592540
S74 S 0.869820 0.658170 0.907460
S75 S 0.130180 0.341830 0.092540
S76 S 0.869820 0.841830 0.407460
Br77 Br 0.887810 0.777440 0.732670
Br78 Br 0.843750 1.076790 0.867850
Br79 Br 0.112190 0.277440 0.767330
Br80 Br 0.156250 -0.076790 0.132150
Br81 Br 0.112190 0.222560 0.267330
Br82 Br 0.887810 0.722560 0.232670
Br83 Br 0.156250 0.576790 0.632150
Br84 Br 0.843750 0.423210 0.367850

#END
