./LABDIE_from_POSCAR.cif_generated_by_CrystalShift
_symmetry_cell_setting triclinic
_symmetry_space_group_name_H-M 'P 1'
loop_
_symmetry_equiv_pos_site_id
_symmetry_equiv_pos_as_xyz
1 x,y,z
_cell_length_a 17.642800
_cell_length_b 8.791400
_cell_length_c 9.104300
_cell_angle_alpha 90.000000
_cell_angle_beta 96.955000
_cell_angle_gamma 90.000000
_cell_volume 1401.730639
loop_
_atom_site_label
_atom_site_type_symbol
_atom_site_fract_x
_atom_site_fract_y
_atom_site_fract_z
H1 H 0.626800 -0.024000 0.990000
H2 H -0.129500 0.294800 -0.060500
H3 H 0.525500 -0.009900 0.739400
H4 H -0.116100 0.042200 -0.131700
H5 H 0.656500 0.244300 0.932400
H6 H -0.016400 -0.102200 -0.013600
H7 H 0.678900 0.498100 0.866500
H8 H 0.599600 0.616000 0.679800
H9 H 0.099600 -0.116000 0.179800
H10 H 0.483600 0.602200 0.486400
H11 H 0.178900 0.001900 0.366500
H12 H 0.383900 0.457800 0.368300
H13 H 0.156500 0.255700 0.432400
H14 H 0.370500 0.205200 0.439500
H15 H 0.626800 1.024000 0.490000
H16 H 0.782200 -0.212200 0.709000
H17 H 0.025500 0.509900 0.239400
H18 H 0.008800 0.449700 0.398000
H19 H 0.882600 -0.361500 0.819000
H20 H 0.691700 1.199500 0.597700
H21 H 0.791300 1.352600 0.706000
H22 H 0.282200 0.712200 0.209000
H23 H 0.887500 1.432600 0.567600
H24 H 0.382600 0.861500 0.319000
H25 H 0.882600 1.361500 0.319000
H26 H 0.387500 0.932600 0.567600
H27 H 0.782200 1.212200 0.209000
H28 H 0.291300 0.852600 0.706000
H29 H 0.508800 0.949700 0.398000
H30 H 0.191700 0.699500 0.597700
H31 H 0.691700 -0.199500 1.097700
H32 H 0.525500 1.009900 0.239400
H33 H 0.791300 -0.352600 1.206000
H34 H 0.126800 0.524000 0.490000
H35 H 0.656500 0.755700 0.432400
H36 H -0.129500 0.705200 0.439500
H37 H 0.678900 0.501900 0.366500
H38 H -0.116100 0.957800 0.368300
H39 H 0.599600 0.384000 0.179800
H40 H -0.016400 1.102200 0.486400
H41 H 0.483600 0.397800 -0.013600
H42 H 0.383900 0.542200 -0.131700
H43 H 0.099600 1.116000 0.679800
H44 H 0.370500 0.794800 -0.060500
H45 H 0.178900 0.998100 0.866500
H46 H 0.126800 0.476000 0.990000
H47 H 0.156500 0.744300 0.932400
H48 H 0.887500 -0.432600 1.067600
H49 H 0.191700 0.300500 1.097700
H50 H 0.291300 0.147400 1.206000
H51 H 0.025500 0.490100 0.739400
H52 H 0.008800 0.550300 0.898000
H53 H 0.508800 0.050300 0.898000
H54 H 0.387500 0.067400 1.067600
H55 H 0.382600 0.138500 0.819000
H56 H 0.282200 0.287800 0.709000
C57 C 0.343720 0.170900 0.875400
C58 C 0.284160 0.260100 0.810300
C59 C 0.346690 0.128700 1.023000
C60 C 0.226880 0.309720 0.892520
C61 C 0.161820 0.397670 0.814100
C62 C 0.047580 0.547180 0.828120
C63 C 0.230250 0.267300 1.040660
C64 C 0.015410 0.778780 0.666270
C65 C 0.789660 -0.323300 1.105200
C66 C 0.064330 0.708520 0.782680
C67 C 0.846690 -0.371300 1.023000
C68 C 0.123710 0.790800 0.854700
C69 C 0.411330 0.737000 -0.010800
C70 C 0.137130 0.943800 0.815600
C71 C 0.418770 0.585000 -0.055100
C72 C 0.090430 1.013400 0.705100
C73 C 0.477200 0.500600 0.014300
C74 C 0.028240 0.932940 0.628100
C75 C 0.528240 0.567060 0.128100
C76 C 0.590430 0.486600 0.205100
C77 C -0.022800 0.999400 0.514300
C78 C 0.637130 0.556200 0.315600
C79 C -0.081230 0.915000 0.444900
C80 C 0.623710 0.709200 0.354700
C81 C -0.088670 0.763000 0.489200
C82 C 0.564330 0.791480 0.282680
C83 C 0.515410 0.721220 0.166270
C84 C 0.547580 0.952820 0.328120
C85 C 0.730250 -0.232700 1.040660
C86 C 0.230250 0.732700 0.540660
C87 C 0.661820 1.102330 0.314100
C88 C 0.726880 1.190280 0.392520
C89 C 0.784160 1.239900 0.310300
C90 C 0.289660 0.823300 0.605200
C91 C 0.843720 1.329100 0.375400
C92 C 0.346690 0.871300 0.523000
C93 C 0.846690 1.371300 0.523000
C94 C 0.343720 0.829100 0.375400
C95 C 0.789660 1.323300 0.605200
C96 C 0.284160 0.739900 0.310300
C97 C 0.730250 1.232700 0.540660
C98 C 0.226880 0.690280 0.392520
C99 C 0.161820 0.602330 0.314100
C100 C 0.843720 -0.329100 0.875400
C101 C 0.047580 0.452820 0.328120
C102 C 0.015410 0.221220 0.166270
C103 C 0.411330 0.263000 0.489200
C104 C 0.064330 0.291480 0.282680
C105 C 0.418770 0.415000 0.444900
C106 C 0.123710 0.209200 0.354700
C107 C 0.477200 0.499400 0.514300
C108 C 0.137130 0.056200 0.315600
C109 C 0.528240 0.432940 0.628100
C110 C 0.590430 0.513400 0.705100
C111 C 0.090430 -0.013400 0.205100
C112 C 0.637130 0.443800 0.815600
C113 C 0.028240 0.067060 0.128100
C114 C 0.623710 0.290800 0.854700
C115 C -0.022800 0.000600 0.014300
C116 C 0.564330 0.208520 0.782680
C117 C 0.515410 0.278780 0.666270
C118 C 0.547580 0.047180 0.828120
C119 C -0.081230 0.085000 -0.055100
C120 C 0.289660 0.176700 1.105200
C121 C 0.661820 -0.102330 0.814100
C122 C 0.726880 -0.190280 0.892520
C123 C 0.784160 -0.239900 0.810300
C124 C -0.088670 0.237000 -0.010800
N125 N 0.614030 1.033990 0.397060
N126 N 0.456720 0.805030 0.094340
N127 N 0.456720 0.194970 0.594340
N128 N 0.114030 0.466010 0.897060
N129 N -0.043280 0.694970 0.594340
N130 N -0.043280 0.305030 0.094340
N131 N 0.114030 0.533990 0.397060
N132 N 0.614030 -0.033990 0.897060
O133 O 0.151550 0.402090 0.676830
O134 O 0.151550 0.597910 0.176830
O135 O 0.651550 -0.097910 0.676830
O136 O 0.651550 1.097910 0.176830

#END
