./LABFAY_from_POSCAR.cif_generated_by_CrystalShift
_symmetry_cell_setting triclinic
_symmetry_space_group_name_H-M 'P 1'
loop_
_symmetry_equiv_pos_site_id
_symmetry_equiv_pos_as_xyz
1 x,y,z
_cell_length_a 9.717100
_cell_length_b 14.243600
_cell_length_c 15.683700
_cell_angle_alpha 90.000000
_cell_angle_beta 105.655000
_cell_angle_gamma 90.000000
_cell_volume 2090.200507
loop_
_atom_site_label
_atom_site_type_symbol
_atom_site_fract_x
_atom_site_fract_y
_atom_site_fract_z
H1 H 0.129200 0.961800 0.267900
H2 H 0.361900 0.987600 0.257500
H3 H 0.870800 0.038200 0.732100
H4 H 0.953100 -0.023000 0.812700
H5 H 0.541100 0.967300 0.188000
H6 H 0.487400 0.906300 0.046500
H7 H 0.402800 0.298600 0.655900
H8 H 0.266500 0.287600 0.681200
H9 H 0.255600 0.868000 -0.026300
H10 H -0.316400 0.787900 -0.180300
H11 H 0.843500 0.329800 0.849100
H12 H -0.183200 0.799400 -0.209000
H13 H 1.076700 0.353700 0.928100
H14 H 0.316800 0.700600 0.291000
H15 H 1.132000 0.396700 1.074600
H16 H 0.183600 0.712100 0.319700
H17 H 0.950900 0.419200 1.142400
H18 H 0.755600 0.632000 0.473700
H19 H 0.370800 0.461800 0.232100
H20 H 0.640800 0.481400 1.063500
H21 H 0.711800 0.415900 1.143500
H22 H 0.453100 0.523000 0.312700
H23 H 0.138100 0.487600 0.242500
H24 H -0.041100 0.467300 0.312000
H25 H 0.638100 0.012400 0.742500
H26 H 0.012600 0.406300 0.453500
H27 H 0.458900 0.032700 0.812000
H28 H 0.244400 0.368000 0.526300
H29 H 0.512600 0.093700 0.953500
H30 H 0.816400 0.287900 0.680300
H31 H 1.097200 0.798600 0.844100
H32 H 1.233500 0.787600 0.818800
H33 H 0.683200 0.299400 0.709000
H34 H 0.987400 0.593700 0.546500
H35 H 0.656500 0.829800 0.650900
H36 H 1.041100 0.532700 0.688000
H37 H 0.423300 0.853700 0.571900
H38 H 0.861900 0.512400 0.757500
H39 H 0.368000 0.896700 0.425400
H40 H 0.211800 0.084100 0.643500
H41 H 0.549100 0.919200 0.357600
H42 H 0.140800 0.018600 0.563500
H43 H 0.450900 0.080800 0.642400
H44 H 0.859200 0.981400 0.436500
H45 H 0.788200 0.915900 0.356500
H46 H 0.632000 0.103300 0.574600
H47 H 0.576700 0.146300 0.428100
H48 H 0.343500 0.170200 0.349100
H49 H 0.744400 0.132000 1.026300
H50 H -0.233500 0.212400 0.181200
H51 H -0.097200 0.201400 0.155900
H52 H 1.316400 0.212100 1.180300
H53 H 1.183200 0.200600 1.209000
H54 H 0.546900 0.477000 0.687300
H55 H 0.597200 0.701400 0.344100
H56 H 0.733500 0.712400 0.318800
H57 H 0.629200 0.538200 0.767900
H58 H 0.046900 1.023000 0.187300
H59 H 0.156500 0.670200 0.150900
H60 H 0.288200 0.584100 -0.143500
H61 H -0.076700 0.646300 0.071900
H62 H 0.359200 0.518600 -0.063500
H63 H -0.132000 0.603300 -0.074600
H64 H 0.049100 0.580800 -0.142400
C65 C 0.071590 0.597620 -0.082940
C66 C 0.213380 0.608380 -0.035960
C67 C 0.328430 0.582480 -0.079830
C68 C -0.037160 0.611580 -0.042740
C69 C -0.003860 0.637690 0.044490
C70 C 0.504650 0.660460 0.061900
C71 C 0.135870 0.651360 0.092060
C72 C 0.573740 0.685990 0.219910
C73 C 0.519090 0.621320 0.525930
C74 C 0.412250 0.625860 0.567440
C75 C 0.246900 0.637160 0.052710
C76 C 0.342360 0.669200 0.413340
C77 C 0.585600 0.539030 0.704500
C78 C 0.700110 0.559520 0.658040
C79 C 0.834020 0.095760 0.928660
C80 C 0.723790 0.107920 0.969090
C81 C 0.253100 0.137160 0.447290
C82 C 0.364130 0.151360 0.407940
C83 C 1.073740 0.814010 0.719910
C84 C 0.503860 0.137690 0.455510
C85 C 0.895400 0.845330 0.601600
C86 C 0.537160 0.111580 0.542740
C87 C 1.004650 0.839540 0.561900
C88 C 0.428410 0.097620 0.582940
C89 C 0.828430 0.917520 0.420170
C90 C 0.286620 0.108380 0.535960
C91 C 0.171570 0.082480 0.579830
C92 C 0.713380 0.891620 0.464040
C93 C 0.571590 0.902380 0.417060
C94 C -0.004650 0.160460 0.438100
C95 C 0.104600 0.154670 0.398400
C96 C -0.073740 0.185990 0.280090
C97 C 0.462840 0.888420 0.457260
C98 C 0.839800 0.536520 0.700280
C99 C 0.496140 0.862310 0.544490
C100 C 0.947400 0.548740 0.658940
C101 C 0.635870 0.848640 0.592060
C102 C 0.915100 0.584860 0.574370
C103 C 0.746900 0.862840 0.552710
C104 C 0.584900 0.084860 0.925630
C105 C 0.334020 0.404240 0.428660
C106 C 0.223790 0.392080 0.469090
C107 C 0.552600 0.048740 0.841060
C108 C 0.084900 0.415140 0.425630
C109 C 0.660200 0.036520 0.799720
C110 C 0.052600 0.451260 0.341060
C111 C 0.426260 0.314010 0.780090
C112 C 0.160200 0.463480 0.299720
C113 C 0.604600 0.345330 0.898400
C114 C 0.299890 0.440480 0.341960
C115 C 0.414400 0.460970 0.295500
C116 C 0.495350 0.339540 0.938100
C117 C 0.671570 0.417520 1.079830
C118 C 0.587750 0.374140 0.432560
C119 C 0.480910 0.378680 0.474070
C120 C 0.657640 0.330800 0.586660
C121 C 0.786620 0.391620 1.035960
C122 C 0.776210 0.607920 0.530910
C123 C 0.665980 0.595760 0.571340
C124 C 0.928410 0.402380 1.082940
C125 C 1.037160 0.388420 1.042740
C126 C -0.157640 0.830800 -0.086660
C127 C 1.003860 0.362310 0.955510
C128 C 0.864130 0.348640 0.907940
C129 C 0.165980 0.904240 0.071340
C130 C 0.276210 0.892080 0.030910
C131 C 0.753100 0.362840 0.947290
C132 C 0.415100 0.915140 0.074370
C133 C 0.799890 0.059520 0.841960
C134 C 0.447400 0.951260 0.158940
C135 C 0.914400 0.039030 0.795500
C136 C 0.339800 0.963480 0.200280
C137 C 1.087750 0.125860 0.932560
C138 C 0.200110 0.940480 0.158040
C139 C 0.085600 0.960970 0.204500
C140 C 0.395400 0.654670 0.101600
C141 C 1.157640 0.169200 1.086660
C142 C -0.087750 0.874140 0.067440
C143 C 0.019090 0.878680 0.025930
C144 C 0.980910 0.121320 0.974070
N145 N 0.564400 0.330840 0.808150
N146 N 0.357020 0.298200 0.695770
N147 N 0.935600 0.830840 0.691850
N148 N 1.142980 0.798200 0.804230
N149 N 0.477840 0.645260 0.437620
N150 N 0.272580 0.697350 0.331600
N151 N -0.022160 0.854740 -0.062380
N152 N 0.435600 0.669160 0.191850
N153 N 1.227420 0.197350 1.168400
N154 N 1.022160 0.145260 1.062380
N155 N 0.642980 0.701800 0.304230
N156 N 0.727420 0.302650 0.668400
N157 N 0.522160 0.354740 0.562380
N158 N 0.064400 0.169160 0.308150
N159 N -0.142980 0.201800 0.195770
N160 N -0.227420 0.802650 -0.168400
O161 O 0.560050 0.251780 1.089760
O162 O 0.505040 0.290230 0.280270
O163 O 0.677360 0.418300 0.296060
O164 O -0.099160 0.111700 0.570660
O165 O 0.060050 0.248220 0.589760
O166 O 0.400840 0.388300 1.070660
O167 O 0.939950 0.751780 0.410240
O168 O 1.099160 0.888300 0.429340
O169 O 0.494960 0.709770 0.719730
O170 O 0.322640 0.581700 0.703940
O171 O 1.005040 0.209770 0.780270
O172 O 1.177360 0.081700 0.796060
O173 O 0.439950 0.748220 -0.089760
O174 O -0.005040 0.790230 0.219730
O175 O -0.177360 0.918300 0.203940
O176 O 0.599160 0.611700 -0.070660
S177 S -0.247080 0.839350 -0.004280
S178 S 0.665170 0.685330 0.138270
S179 S 0.478690 0.656930 -0.051440
S180 S 1.247080 0.160650 1.004280
S181 S 1.055740 0.120590 0.818780
S182 S -0.055740 0.879410 0.181220
S183 S 0.021310 0.156930 0.551440
S184 S 1.165170 0.814670 0.638270
S185 S 0.978690 0.843070 0.448560
S186 S 0.252920 0.660650 0.495720
S187 S 0.444260 0.620590 0.681220
S188 S -0.165170 0.185330 0.361730
S189 S 0.555740 0.379410 0.318780
S190 S 0.334830 0.314670 0.861730
S191 S 0.747080 0.339350 0.504280
S192 S 0.521310 0.343070 1.051440

#END
