
#######################################################################
#
#                 Cambridge Crystallographic Data Centre
#                                CCDC 
#
#######################################################################
#
# If this CIF has been generated from an entry in the Cambridge 
# Structural Database, then it will include bibliographic, chemical, 
# crystal, experimental, refinement or atomic coordinate data resulting 
# from the CCDC's data processing and validation procedures.
#
#######################################################################

data_LABFOM
_symmetry_cell_setting           orthorhombic
_symmetry_space_group_name_H-M   'P 21 21 21'
_symmetry_Int_Tables_number      19
_space_group_name_Hall           'P 2ac 2ab'
loop_
_symmetry_equiv_pos_site_id
_symmetry_equiv_pos_as_xyz
1 x,y,z
2 1/2-x,-y,1/2+z
3 1/2+x,1/2-y,-z
4 -x,1/2+y,1/2-z
_cell_length_a                   6.4601(10)
_cell_length_b                   10.5597(10)
_cell_length_c                   29.3505(10)
_cell_angle_alpha                90
_cell_angle_beta                 90
_cell_angle_gamma                90
_cell_volume                     2002.19
loop_
_atom_site_label
_atom_site_type_symbol
_atom_site_fract_x
_atom_site_fract_y
_atom_site_fract_z
C1 C 0.6745(10) 0.2202(4) 0.85609(16)
H1 H 0.5322 0.2121 0.8449
C2 C 0.7633(10) 0.0895(4) 0.85987(16)
C3 C 0.9429(11) 0.0398(4) 0.84350(18)
H2 H 1.0422 0.0826 0.8265
C4 C 1.0896(13) -0.1901(5) 0.85307(19)
H3 H 1.213 -0.1809 0.8371
C5 C 1.0368(16) -0.3032(5) 0.8736(2)
H4 H 1.1246 -0.3727 0.8713
C6 C 0.8522(17) -0.3132(5) 0.8976(2)
H5 H 0.822 -0.3907 0.911
C7 C 0.9513(12) -0.0911(4) 0.85733(17)
C8 C 0.7696(11) -0.1124(4) 0.88225(18)
C9 C 0.7515(12) 0.6406(4) 1.02243(19)
H6 H 0.7545 0.6969 1.0481
H7 H 0.6673 0.6766 0.9988
H8 H 0.8897 0.6283 1.0113
C10 C 0.6654(10) 0.2858(3) 0.90205(15)
C11 C 0.4947(8) 0.3585(4) 0.91415(17)
H9 H 0.3813 0.3633 0.8947
C12 C 0.4925(8) 0.4239(3) 0.95504(16)
C13 C 0.6549(8) 0.4146(3) 0.98485(15)
C14 C 0.8246(8) 0.3408(4) 0.97370(15)
H10 H 0.9333 0.3322 0.9942
C15 C 0.8324(9) 0.2800(4) 0.93202(16)
H11 H 0.9503 0.2348 0.9239
C16 C 0.7960(11) 0.2987(4) 0.82121(16)
H12 H 0.9363 0.3093 0.8323
H13 H 0.8036 0.2511 0.793
C17 C 0.7072(11) 0.4290(4) 0.81079(17)
H14 H 0.6996 0.4766 0.8394
C18 C 0.4919(14) 0.4289(6) 0.7892(2)
H15 H 0.4777 0.359 0.768
H16 H 0.3857 0.4214 0.8124
C19 C 0.474(2) 0.5551(10) 0.7645(4)
H17 H 0.4131 0.5433 0.7346
H18 H 0.3884 0.6133 0.7817
C20 C 0.6880(18) 0.6052(8) 0.7603(3)
H19 H 0.703 0.6817 0.7782
H20 H 0.7182 0.6252 0.7287
C21 C 0.8322(13) 0.5061(5) 0.7771(2)
H21 H 0.9512 0.5442 0.7918
H22 H 0.8799 0.4533 0.7521
N1 N 0.6595(7) -0.0029(3) 0.88338(14)
H23 H 0.5422 0.0069 0.8968
N2 N 0.7168(10) -0.2211(4) 0.90271(16)
O1 O 0.8066(7) 0.4272(3) 1.06769(12)
S1 S 0.6449(2) 0.49106(10) 1.03953(4)
Cl1 Cl 0.2796(2) 0.51744(13) 0.96817(5)
C1 C 0.8255(10) 0.7798(4) 0.35609(16)
H1 H 0.9678 0.7879 0.3449
C2 C 0.7367(10) 0.9105(4) 0.35987(16)
C3 C 0.5571(11) 0.9602(4) 0.34350(18)
H2 H 0.4578 0.9174 0.3265
C4 C 0.4104(13) 1.1901(5) 0.35307(19)
H3 H 0.287 1.1809 0.3371
C5 C 0.4632(16) 1.3032(5) 0.3736(2)
H4 H 0.3754 1.3727 0.3713
C6 C 0.6478(17) 1.3132(5) 0.3976(2)
H5 H 0.678 1.3907 0.411
C7 C 0.5487(12) 1.0911(4) 0.35733(17)
C8 C 0.7304(11) 1.1124(4) 0.38225(18)
C9 C 0.7485(12) 0.3594(4) 0.52243(19)
H6 H 0.7455 0.3031 0.5481
H7 H 0.8327 0.3234 0.4988
H8 H 0.6103 0.3717 0.5113
C10 C 0.8346(10) 0.7142(3) 0.40205(15)
C11 C 1.0053(8) 0.6415(4) 0.41415(17)
H9 H 1.1187 0.6367 0.3947
C12 C 1.0075(8) 0.5761(3) 0.45504(16)
C13 C 0.8451(8) 0.5854(3) 0.48485(15)
C14 C 0.6754(8) 0.6592(4) 0.47370(15)
H10 H 0.5667 0.6678 0.4942
C15 C 0.6676(9) 0.7200(4) 0.43202(16)
H11 H 0.5497 0.7652 0.4239
C16 C 0.7040(11) 0.7013(4) 0.32121(16)
H12 H 0.5637 0.6907 0.3323
H13 H 0.6964 0.7489 0.293
C17 C 0.7928(11) 0.5710(4) 0.31079(17)
H14 H 0.8004 0.5234 0.3394
C18 C 1.0081(14) 0.5711(6) 0.2892(2)
H15 H 1.0223 0.641 0.268
H16 H 1.1143 0.5786 0.3124
C19 C 1.026(2) 0.4449(10) 0.2645(4)
H17 H 1.0869 0.4567 0.2346
H18 H 1.1116 0.3867 0.2817
C20 C 0.8120(18) 0.3948(8) 0.2603(3)
H19 H 0.797 0.3183 0.2782
H20 H 0.7818 0.3748 0.2287
C21 C 0.6678(13) 0.4939(5) 0.2771(2)
H21 H 0.5488 0.4558 0.2918
H22 H 0.6201 0.5467 0.2521
N1 N 0.8405(7) 1.0029(3) 0.38338(14)
H23 H 0.9578 0.9931 0.3968
N2 N 0.7832(10) 1.2211(4) 0.40271(16)
O1 O 0.6934(7) 0.5728(3) 0.56769(12)
S1 S 0.8551(2) 0.50894(10) 0.53953(4)
Cl1 Cl 1.2204(2) 0.48256(13) 0.46817(5)
C1 C 0.1745(10) 0.2798(4) 0.14391(16)
H1 H 0.0322 0.2879 0.1551
C2 C 0.2633(10) 0.4105(4) 0.14013(16)
C3 C 0.4429(11) 0.4602(4) 0.15650(18)
H2 H 0.5422 0.4174 0.1735
C4 C 0.5896(13) 0.6901(5) 0.14693(19)
H3 H 0.713 0.6809 0.1629
C5 C 0.5368(16) 0.8032(5) 0.1264(2)
H4 H 0.6246 0.8727 0.1287
C6 C 0.3522(17) 0.8132(5) 0.1024(2)
H5 H 0.322 0.8907 0.089
C7 C 0.4513(12) 0.5911(4) 0.14267(17)
C8 C 0.2696(11) 0.6124(4) 0.11775(18)
C9 C 0.2515(12) -0.1406(4) -0.02243(19)
H6 H 0.2545 -0.1969 -0.0481
H7 H 0.1673 -0.1766 0.0012
H8 H 0.3897 -0.1283 -0.0113
C10 C 0.1654(10) 0.2142(3) 0.09795(15)
C11 C -0.0053(8) 0.1415(4) 0.08585(17)
H9 H -0.1187 0.1367 0.1053
C12 C -0.0075(8) 0.0761(3) 0.04496(16)
C13 C 0.1549(8) 0.0854(3) 0.01515(15)
C14 C 0.3246(8) 0.1592(4) 0.02630(15)
H10 H 0.4333 0.1678 0.0058
C15 C 0.3324(9) 0.2200(4) 0.06798(16)
H11 H 0.4503 0.2652 0.0761
C16 C 0.2960(11) 0.2013(4) 0.17879(16)
H12 H 0.4363 0.1907 0.1677
H13 H 0.3036 0.2489 0.207
C17 C 0.2072(11) 0.0710(4) 0.18921(17)
H14 H 0.1996 0.0234 0.1606
C18 C -0.0081(14) 0.0711(6) 0.2108(2)
H15 H -0.0223 0.141 0.232
H16 H -0.1143 0.0786 0.1876
C19 C -0.026(2) -0.0551(10) 0.2355(4)
H17 H -0.0869 -0.0433 0.2654
H18 H -0.1116 -0.1133 0.2183
C20 C 0.1880(18) -0.1052(8) 0.2397(3)
H19 H 0.203 -0.1817 0.2218
H20 H 0.2182 -0.1252 0.2713
C21 C 0.3322(13) -0.0061(5) 0.2229(2)
H21 H 0.4512 -0.0442 0.2082
H22 H 0.3799 0.0467 0.2479
N1 N 0.1595(7) 0.5029(3) 0.11662(14)
H23 H 0.0422 0.4931 0.1032
N2 N 0.2168(10) 0.7211(4) 0.09729(16)
O1 O 0.3066(7) 0.0728(3) -0.06769(12)
S1 S 0.1449(2) 0.00894(10) -0.03953(4)
Cl1 Cl -0.2204(2) -0.01744(13) 0.03183(5)
C1 C 0.3255(10) 0.7202(4) 0.64391(16)
H1 H 0.4678 0.7121 0.6551
C2 C 0.2367(10) 0.5895(4) 0.64013(16)
C3 C 0.0571(11) 0.5398(4) 0.65650(18)
H2 H -0.0422 0.5826 0.6735
C4 C -0.0896(13) 0.3099(5) 0.64693(19)
H3 H -0.213 0.3191 0.6629
C5 C -0.0368(16) 0.1968(5) 0.6264(2)
H4 H -0.1246 0.1273 0.6287
C6 C 0.1478(17) 0.1868(5) 0.6024(2)
H5 H 0.178 0.1093 0.589
C7 C 0.0487(12) 0.4089(4) 0.64267(17)
C8 C 0.2304(11) 0.3876(4) 0.61775(18)
C9 C 0.2485(12) 1.1406(4) 0.47757(19)
H6 H 0.2455 1.1969 0.4519
H7 H 0.3327 1.1766 0.5012
H8 H 0.1103 1.1283 0.4887
C10 C 0.3346(10) 0.7858(3) 0.59795(15)
C11 C 0.5053(8) 0.8585(4) 0.58585(17)
H9 H 0.6187 0.8633 0.6053
C12 C 0.5075(8) 0.9239(3) 0.54496(16)
C13 C 0.3451(8) 0.9146(3) 0.51515(15)
C14 C 0.1754(8) 0.8408(4) 0.52630(15)
H10 H 0.0667 0.8322 0.5058
C15 C 0.1676(9) 0.7800(4) 0.56798(16)
H11 H 0.0497 0.7348 0.5761
C16 C 0.2040(11) 0.7987(4) 0.67879(16)
H12 H 0.0637 0.8093 0.6677
H13 H 0.1964 0.7511 0.707
C17 C 0.2928(11) 0.9290(4) 0.68921(17)
H14 H 0.3004 0.9766 0.6606
C18 C 0.5081(14) 0.9289(6) 0.7108(2)
H15 H 0.5223 0.859 0.732
H16 H 0.6143 0.9214 0.6876
C19 C 0.526(2) 1.0551(10) 0.7355(4)
H17 H 0.5869 1.0433 0.7654
H18 H 0.6116 1.1133 0.7183
C20 C 0.3120(18) 1.1052(8) 0.7397(3)
H19 H 0.297 1.1817 0.7218
H20 H 0.2818 1.1252 0.7713
C21 C 0.1678(13) 1.0061(5) 0.7229(2)
H21 H 0.0488 1.0442 0.7082
H22 H 0.1201 0.9533 0.7479
N1 N 0.3405(7) 0.4971(3) 0.61662(14)
H23 H 0.4578 0.5069 0.6032
N2 N 0.2832(10) 0.2789(4) 0.59729(16)
O1 O 0.1934(7) 0.9272(3) 0.43231(12)
S1 S 0.3551(2) 0.99106(10) 0.46047(4)
Cl1 Cl 0.7204(2) 1.01744(13) 0.53183(5)

#END
