
#######################################################################
#
#                 Cambridge Crystallographic Data Centre
#                                CCDC 
#
#######################################################################
#
# If this CIF has been generated from an entry in the Cambridge 
# Structural Database, then it will include bibliographic, chemical, 
# crystal, experimental, refinement or atomic coordinate data resulting 
# from the CCDC's data processing and validation procedures.
#
#######################################################################

data_LABFAY
_symmetry_cell_setting           monoclinic
_symmetry_space_group_name_H-M   'P 21/n'
_symmetry_Int_Tables_number      14
_space_group_name_Hall           '-P 2yn'
loop_
_symmetry_equiv_pos_site_id
_symmetry_equiv_pos_as_xyz
1 x,y,z
2 1/2-x,1/2+y,1/2-z
3 -x,-y,-z
4 1/2+x,1/2-y,1/2+z
_cell_length_a                   9.7171(4)
_cell_length_b                   14.2436(6)
_cell_length_c                   15.6837(5)
_cell_angle_alpha                90
_cell_angle_beta                 105.655(4)
_cell_angle_gamma                90
_cell_volume                     2090.2
loop_
_atom_site_label
_atom_site_type_symbol
_atom_site_fract_x
_atom_site_fract_y
_atom_site_fract_z
S1 S 0.52131(4) 0.34307(3) 1.05144(3)
S2 S 0.33483(5) 0.31467(4) 0.86173(3)
O1 O 0.56005(14) 0.25178(9) 1.08976(8)
O2 O 0.40084(14) 0.38830(11) 1.07066(9)
N1 N 0.56440(15) 0.33084(10) 0.80815(9)
N2 N 0.35702(18) 0.29820(14) 0.69577(10)
H1 H 0.4028 0.2986 0.6559
H2 H 0.2665 0.2876 0.6812
C1 C 0.75310(17) 0.36284(11) 0.94729(10)
C2 C 0.86413(19) 0.34864(13) 0.90794(12)
H3 H 0.8435 0.3298 0.8491
C3 C 1.00386(19) 0.36231(13) 0.95551(13)
H4 H 1.0767 0.3537 0.9281
C4 C 1.03716(19) 0.38842(14) 1.04274(13)
H5 H 1.1320 0.3967 1.0746
C5 C 0.92841(19) 0.40238(14) 1.08294(12)
H6 H 0.9509 0.4192 1.1424
C6 C 0.78662(17) 0.39162(12) 1.03596(10)
C7 C 0.67157(18) 0.41752(14) 1.07983(11)
H7 H 0.6408 0.4814 1.0635
H8 H 0.7118 0.4159 1.1435
C8 C 0.49535(17) 0.33954(12) 0.93810(10)
C9 C 0.60460(17) 0.34533(11) 0.89840(10)
C10 C 0.42626(18) 0.31401(12) 0.78009(10)
S1 S 0.97869(4) 0.84307(3) 0.44856(3)
S2 S 1.16517(5) 0.81467(4) 0.63827(3)
O1 O 0.93995(14) 0.75178(9) 0.41024(8)
O2 O 1.09916(14) 0.88830(11) 0.42934(9)
N1 N 0.93560(15) 0.83084(10) 0.69185(9)
N2 N 1.14298(18) 0.79820(14) 0.80423(10)
H1 H 1.0972 0.7986 0.8441
H2 H 1.2335 0.7876 0.8188
C1 C 0.74690(17) 0.86284(11) 0.55271(10)
C2 C 0.63587(19) 0.84864(13) 0.59206(12)
H3 H 0.6565 0.8298 0.6509
C3 C 0.49614(19) 0.86231(13) 0.54449(13)
H4 H 0.4233 0.8537 0.5719
C4 C 0.46284(19) 0.88842(14) 0.45726(13)
H5 H 0.3680 0.8967 0.4254
C5 C 0.57159(19) 0.90238(14) 0.41706(12)
H6 H 0.5491 0.9192 0.3576
C6 C 0.71338(17) 0.89162(12) 0.46404(10)
C7 C 0.82843(18) 0.91752(14) 0.42017(11)
H7 H 0.8592 0.9814 0.4365
H8 H 0.7882 0.9159 0.3565
C8 C 1.00465(17) 0.83954(12) 0.56190(10)
C9 C 0.89540(17) 0.84533(11) 0.60160(10)
C10 C 1.07374(18) 0.81401(12) 0.71991(10)
S1 S 0.47869(4) 0.65693(3) -0.05144(3)
S2 S 0.66517(5) 0.68533(4) 0.13827(3)
O1 O 0.43995(14) 0.74822(9) -0.08976(8)
O2 O 0.59916(14) 0.61170(11) -0.07066(9)
N1 N 0.43560(15) 0.66916(10) 0.19185(9)
N2 N 0.64298(18) 0.70180(14) 0.30423(10)
H1 H 0.5972 0.7014 0.3441
H2 H 0.7335 0.7124 0.3188
C1 C 0.24690(17) 0.63716(11) 0.05271(10)
C2 C 0.13587(19) 0.65136(13) 0.09206(12)
H3 H 0.1565 0.6702 0.1509
C3 C -0.00386(19) 0.63769(13) 0.04449(13)
H4 H -0.0767 0.6463 0.0719
C4 C -0.03716(19) 0.61158(14) -0.04274(13)
H5 H -0.1320 0.6033 -0.0746
C5 C 0.07159(19) 0.59762(14) -0.08294(12)
H6 H 0.0491 0.5808 -0.1424
C6 C 0.21338(17) 0.60838(12) -0.03596(10)
C7 C 0.32843(18) 0.58248(14) -0.07983(11)
H7 H 0.3592 0.5186 -0.0635
H8 H 0.2882 0.5841 -0.1435
C8 C 0.50465(17) 0.66046(12) 0.06190(10)
C9 C 0.39540(17) 0.65467(11) 0.10160(10)
C10 C 0.57374(18) 0.68599(12) 0.21991(10)
S1 S 0.02131(4) 0.15693(3) 0.55144(3)
S2 S -0.16517(5) 0.18533(4) 0.36173(3)
O1 O 0.06005(14) 0.24822(9) 0.58976(8)
O2 O -0.09916(14) 0.11170(11) 0.57066(9)
N1 N 0.06440(15) 0.16916(10) 0.30815(9)
N2 N -0.14298(18) 0.20180(14) 0.19577(10)
H1 H -0.0972 0.2014 0.1559
H2 H -0.2335 0.2124 0.1812
C1 C 0.25310(17) 0.13716(11) 0.44729(10)
C2 C 0.36413(19) 0.15136(13) 0.40794(12)
H3 H 0.3435 0.1702 0.3491
C3 C 0.50386(19) 0.13769(13) 0.45551(13)
H4 H 0.5767 0.1463 0.4281
C4 C 0.53716(19) 0.11158(14) 0.54274(13)
H5 H 0.6320 0.1033 0.5746
C5 C 0.42841(19) 0.09762(14) 0.58294(12)
H6 H 0.4509 0.0808 0.6424
C6 C 0.28662(17) 0.10838(12) 0.53596(10)
C7 C 0.17157(18) 0.08248(14) 0.57983(11)
H7 H 0.1408 0.0186 0.5635
H8 H 0.2118 0.0841 0.6435
C8 C -0.00465(17) 0.16046(12) 0.43810(10)
C9 C 0.10460(17) 0.15467(11) 0.39840(10)
C10 C -0.07374(18) 0.18599(12) 0.28009(10)
S3 S 0.55574(5) 0.37941(3) 0.31878(3)
S4 S 0.74708(4) 0.33935(3) 0.50428(3)
O3 O 0.50504(16) 0.29023(10) 0.28027(8)
O4 O 0.67736(15) 0.41830(12) 0.29606(9)
N3 N 0.52216(15) 0.35474(10) 0.56238(8)
N4 N 0.72742(17) 0.30265(12) 0.66840(9)
H9 H 0.6832 0.2994 0.7090
H10 H 0.8164 0.2879 0.6803
C11 C 0.33402(17) 0.40424(11) 0.42866(10)
C12 C 0.22379(19) 0.39208(14) 0.46909(12)
H11 H 0.2444 0.3680 0.5263
C13 C 0.0849(2) 0.41514(16) 0.42563(14)
H12 H 0.0126 0.4063 0.4535
C14 C 0.0526(2) 0.45126(17) 0.34106(15)
H13 H -0.0411 0.4673 0.3120
C15 C 0.1602(2) 0.46348(15) 0.29972(13)
H14 H 0.1381 0.4876 0.2425
C16 C 0.29989(18) 0.44048(12) 0.34196(11)
C17 C 0.41440(19) 0.46097(13) 0.29550(11)
H15 H 0.4531 0.5230 0.3127
H16 H 0.3708 0.4618 0.2321
C18 C 0.58775(17) 0.37414(12) 0.43256(10)
C19 C 0.48091(17) 0.37868(11) 0.47407(10)
C20 C 0.65764(18) 0.33080(12) 0.58666(10)
S3 S -0.05574(5) 0.87941(3) 0.18122(3)
S4 S -0.24708(4) 0.83935(3) -0.00428(3)
O3 O -0.00504(16) 0.79023(10) 0.21973(8)
O4 O -0.17736(15) 0.91830(12) 0.20394(9)
N3 N -0.02216(15) 0.85474(10) -0.06238(8)
N4 N -0.22742(17) 0.80265(12) -0.16840(9)
H9 H -0.1832 0.7994 -0.2090
H10 H -0.3164 0.7879 -0.1803
C11 C 0.16598(17) 0.90424(11) 0.07134(10)
C12 C 0.27621(19) 0.89208(14) 0.03091(12)
H11 H 0.2556 0.8680 -0.0263
C13 C 0.4151(2) 0.91514(16) 0.07437(14)
H12 H 0.4874 0.9063 0.0465
C14 C 0.4474(2) 0.95126(17) 0.15894(15)
H13 H 0.5411 0.9673 0.1880
C15 C 0.3398(2) 0.96348(15) 0.20028(13)
H14 H 0.3619 0.9876 0.2575
C16 C 0.20011(18) 0.94048(12) 0.15804(11)
C17 C 0.08560(19) 0.96097(13) 0.20450(11)
H15 H 0.0469 1.0230 0.1873
H16 H 0.1292 0.9618 0.2679
C18 C -0.08775(17) 0.87414(12) 0.06744(10)
C19 C 0.01909(17) 0.87868(11) 0.02593(10)
C20 C -0.15764(18) 0.83080(12) -0.08666(10)
S3 S 0.44426(5) 0.62059(3) 0.68122(3)
S4 S 0.25292(4) 0.66065(3) 0.49572(3)
O3 O 0.49496(16) 0.70977(10) 0.71973(8)
O4 O 0.32264(15) 0.58170(12) 0.70394(9)
N3 N 0.47784(15) 0.64526(10) 0.43762(8)
N4 N 0.27258(17) 0.69735(12) 0.33160(9)
H9 H 0.3168 0.7006 0.2910
H10 H 0.1836 0.7121 0.3197
C11 C 0.66598(17) 0.59576(11) 0.57134(10)
C12 C 0.77621(19) 0.60792(14) 0.53091(12)
H11 H 0.7556 0.6320 0.4737
C13 C 0.9151(2) 0.58486(16) 0.57437(14)
H12 H 0.9874 0.5937 0.5465
C14 C 0.9474(2) 0.54874(17) 0.65894(15)
H13 H 1.0411 0.5327 0.6880
C15 C 0.8398(2) 0.53652(15) 0.70028(13)
H14 H 0.8619 0.5124 0.7575
C16 C 0.70011(18) 0.55952(12) 0.65804(11)
C17 C 0.58560(19) 0.53903(13) 0.70450(11)
H15 H 0.5469 0.4770 0.6873
H16 H 0.6292 0.5382 0.7679
C18 C 0.41225(17) 0.62586(12) 0.56744(10)
C19 C 0.51909(17) 0.62132(11) 0.52593(10)
C20 C 0.34236(18) 0.66920(12) 0.41334(10)
S3 S 1.05574(5) 0.12059(3) 0.81878(3)
S4 S 1.24708(4) 0.16065(3) 1.00428(3)
O3 O 1.00504(16) 0.20977(10) 0.78027(8)
O4 O 1.17736(15) 0.08170(12) 0.79606(9)
N3 N 1.02216(15) 0.14526(10) 1.06238(8)
N4 N 1.22742(17) 0.19735(12) 1.16840(9)
H9 H 1.1832 0.2006 1.2090
H10 H 1.3164 0.2121 1.1803
C11 C 0.83402(17) 0.09576(11) 0.92866(10)
C12 C 0.72379(19) 0.10792(14) 0.96909(12)
H11 H 0.7444 0.1320 1.0263
C13 C 0.5849(2) 0.08486(16) 0.92563(14)
H12 H 0.5126 0.0937 0.9535
C14 C 0.5526(2) 0.04874(17) 0.84106(15)
H13 H 0.4589 0.0327 0.8120
C15 C 0.6602(2) 0.03652(15) 0.79972(13)
H14 H 0.6381 0.0124 0.7425
C16 C 0.79989(18) 0.05952(12) 0.84196(11)
C17 C 0.91440(19) 0.03903(13) 0.79550(11)
H15 H 0.9531 -0.0230 0.8127
H16 H 0.8708 0.0382 0.7321
C18 C 1.08775(17) 0.12586(12) 0.93256(10)
C19 C 0.98091(17) 0.12132(11) 0.97407(10)
C20 C 1.15764(18) 0.16920(12) 1.08666(10)

#END
