./LABGUT_from_POSCAR.cif_generated_by_CrystalShift
_symmetry_cell_setting triclinic
_symmetry_space_group_name_H-M 'P 1'
loop_
_symmetry_equiv_pos_site_id
_symmetry_equiv_pos_as_xyz
1 x,y,z
_cell_length_a 8.468000
_cell_length_b 8.473000
_cell_length_c 13.748000
_cell_angle_alpha 89.221000
_cell_angle_beta 85.463000
_cell_angle_gamma 89.901000
_cell_volume 983.228205
loop_
_atom_site_label
_atom_site_type_symbol
_atom_site_fract_x
_atom_site_fract_y
_atom_site_fract_z
H1 H 0.868600 0.590900 0.424200
H2 H 0.594600 0.652100 0.819100
H3 H 0.428600 0.907600 0.699000
H4 H 0.668100 0.785000 0.613500
H5 H 0.229000 0.640700 1.018500
H6 H 0.625300 0.602100 0.353300
H7 H 0.601400 0.833300 0.206700
H8 H 0.078600 0.390200 1.041900
H9 H 0.809700 0.970400 0.132000
H10 H 0.034300 0.140000 0.994400
H11 H 0.965700 0.860000 0.005600
H12 H 0.190300 0.029600 0.868000
H13 H 0.921400 0.609800 -0.041900
H14 H 0.398600 0.166700 0.793300
H15 H 0.771000 0.359300 -0.018500
H16 H 0.405400 0.347900 0.180900
H17 H 0.374700 0.397900 0.646700
H18 H 0.131400 0.409100 0.575800
H19 H 0.110000 0.340200 0.478600
H20 H 0.331900 0.215000 0.386500
H21 H 0.024200 0.910900 0.570400
H22 H 0.527000 0.874000 0.911100
H23 H 0.571400 0.092400 0.301000
H24 H 0.391000 0.876300 0.986700
H25 H 0.830600 0.028400 0.300100
H26 H 0.143400 0.790500 0.435900
H27 H 0.975800 0.089100 0.429600
H28 H 0.169400 0.971600 0.699900
H29 H 0.856600 0.209500 0.564100
H30 H 0.609000 0.123700 0.013300
H31 H 0.890000 0.659800 0.521400
H32 H 0.473000 0.126000 0.088900
C33 C 0.639500 0.229200 0.513800
C34 C 0.798400 0.187600 0.511300
C35 C 0.868900 0.115100 0.431700
C36 C 0.201600 0.812400 0.488700
C37 C 0.781500 0.079600 0.353700
C38 C 0.627600 0.117800 0.354100
C39 C 0.550200 0.196200 0.434300
C40 C 0.392000 0.239100 0.438100
C41 C 0.324100 0.316000 0.516700
C42 C 0.489500 0.403100 0.148900
C43 C 0.420000 0.345100 0.592500
C44 C 0.584400 0.324700 0.077100
C45 C 0.706300 0.407100 0.030400
C46 C 0.363700 0.368300 0.869800
C47 C 0.734600 0.562000 0.055400
C48 C 0.857100 0.652800 0.009000
C49 C 0.333900 0.213600 0.842600
C50 C 0.883400 0.801700 0.037100
C51 C 0.211100 0.131500 0.887700
C52 C 0.788900 0.868500 0.112300
C53 C 0.116600 0.198300 0.962900
C54 C 0.666100 0.786400 0.157400
C55 C 0.142900 0.347200 0.991000
C56 C 0.636300 0.631700 0.130200
C57 C 0.580000 0.654900 0.407500
C58 C 0.265400 0.438000 0.944600
C59 C 0.675900 0.684000 0.483300
C60 C 0.608000 0.760900 0.561900
C61 C 0.293700 0.592900 0.969600
C62 C 0.449800 0.803800 0.565700
C63 C 0.372400 0.882200 0.645900
C64 C 0.415600 0.675300 0.922900
C65 C 0.218500 0.920400 0.646300
C66 C 0.360500 0.770800 0.486200
C67 C 0.131100 0.884900 0.568300
C68 C 0.510500 0.596900 0.851100
N69 N 0.448500 0.826900 0.942600
N70 N 0.568600 0.303800 0.593050
N71 N 0.488100 0.449200 0.825800
N72 N 0.830400 0.639500 0.475300
N73 N 0.551500 0.173100 0.057400
N74 N 0.431400 0.696200 0.406950
N75 N 0.511900 0.550800 0.174200
N76 N 0.169600 0.360500 0.524700
Cd77 Cd 0.307760 0.666450 0.267882
Cd78 Cd 0.692240 0.333550 0.732118
I79 I 0.933970 0.542860 0.730450
I80 I 0.774390 0.043870 0.797788
I81 I 0.066030 0.457140 0.269550
I82 I 0.225610 0.956130 0.202212

#END
