
#######################################################################
#
#                 Cambridge Crystallographic Data Centre
#                                CCDC 
#
#######################################################################
#
# If this CIF has been generated from an entry in the Cambridge 
# Structural Database, then it will include bibliographic, chemical, 
# crystal, experimental, refinement or atomic coordinate data resulting 
# from the CCDC's data processing and validation procedures.
#
#######################################################################

data_LABGUT
_symmetry_cell_setting           triclinic
_symmetry_space_group_name_H-M   'P -1'
_symmetry_Int_Tables_number      2
_space_group_name_Hall           '-P 1'
loop_
_symmetry_equiv_pos_site_id
_symmetry_equiv_pos_as_xyz
1 x,y,z
2 -x,-y,-z
_cell_length_a                   8.468(5)
_cell_length_b                   8.473(5)
_cell_length_c                   13.748(9)
_cell_angle_alpha                89.221(9)
_cell_angle_beta                 85.463(9)
_cell_angle_gamma                89.901(9)
_cell_volume                     983.228
loop_
_atom_site_label
_atom_site_type_symbol
_atom_site_fract_x
_atom_site_fract_y
_atom_site_fract_z
C1 C 0.5105(4) 0.5969(4) 0.8511(2)
H1 H 0.5946 0.6521 0.8191
C2 C 0.4156(4) 0.6753(4) 0.9229(3)
C3 C 0.2937(4) 0.5929(4) 0.9696(2)
H2 H 0.2290 0.6407 1.0185
C4 C 0.2654(4) 0.4380(4) 0.9446(2)
C5 C 0.1429(4) 0.3472(4) 0.9910(3)
H3 H 0.0786 0.3902 1.0419
C6 C 0.1166(4) 0.1983(4) 0.9629(3)
H4 H 0.0343 0.1400 0.9944
C7 C 0.2111(5) 0.1315(4) 0.8877(3)
H5 H 0.1903 0.0296 0.8680
C8 C 0.3339(4) 0.2136(4) 0.8426(3)
H6 H 0.3986 0.1667 0.7933
C9 C 0.3637(4) 0.3683(4) 0.8698(2)
C10 C 0.4200(4) 0.3451(4) 0.5925(2)
H7 H 0.3747 0.3979 0.6467
C11 C 0.3241(4) 0.3160(4) 0.5167(3)
C12 C 0.3920(4) 0.2391(4) 0.4381(3)
H8 H 0.3319 0.2150 0.3865
C13 C 0.5502(4) 0.1962(4) 0.4343(2)
C14 C 0.6276(5) 0.1178(5) 0.3541(3)
H9 H 0.5714 0.0924 0.3010
C15 C 0.7815(5) 0.0796(5) 0.3537(3)
H10 H 0.8306 0.0284 0.3001
C16 C 0.8689(4) 0.1151(5) 0.4317(3)
H11 H 0.9758 0.0891 0.4296
C17 C 0.7984(4) 0.1876(4) 0.5113(3)
H12 H 0.8566 0.2095 0.5641
C18 C 0.6395(4) 0.2292(4) 0.5138(2)
Cd1 Cd 0.69224(3) 0.33355(3) 0.732118(16)
I1 I 0.93397(3) 0.54286(3) 0.730450(17)
I2 I 0.77439(3) 0.04387(3) 0.797788(19)
N1 N 0.4881(3) 0.4492(3) 0.8258(2)
N2 N 0.5686(3) 0.3038(3) 0.59305(19)
N3 N 0.4485(4) 0.8269(3) 0.9426(3)
H13 H 0.3910 0.8763 0.9867
H14 H 0.5270 0.8740 0.9111
N4 N 0.1696(4) 0.3605(5) 0.5247(3)
H15 H 0.1100 0.3402 0.4786
H16 H 0.1314 0.4091 0.5758
C1 C 0.4895(4) 0.4031(4) 0.1489(2)
H1 H 0.4054 0.3479 0.1809
C2 C 0.5844(4) 0.3247(4) 0.0771(3)
C3 C 0.7063(4) 0.4071(4) 0.0304(2)
H2 H 0.7710 0.3593 -0.0185
C4 C 0.7346(4) 0.5620(4) 0.0554(2)
C5 C 0.8571(4) 0.6528(4) 0.0090(3)
H3 H 0.9214 0.6098 -0.0419
C6 C 0.8834(4) 0.8017(4) 0.0371(3)
H4 H 0.9657 0.8600 0.0056
C7 C 0.7889(5) 0.8685(4) 0.1123(3)
H5 H 0.8097 0.9704 0.1320
C8 C 0.6661(4) 0.7864(4) 0.1574(3)
H6 H 0.6014 0.8333 0.2067
C9 C 0.6363(4) 0.6317(4) 0.1302(2)
C10 C 0.5800(4) 0.6549(4) 0.4075(2)
H7 H 0.6253 0.6021 0.3533
C11 C 0.6759(4) 0.6840(4) 0.4833(3)
C12 C 0.6080(4) 0.7609(4) 0.5619(3)
H8 H 0.6681 0.7850 0.6135
C13 C 0.4498(4) 0.8038(4) 0.5657(2)
C14 C 0.3724(5) 0.8822(5) 0.6459(3)
H9 H 0.4286 0.9076 0.6990
C15 C 0.2185(5) 0.9204(5) 0.6463(3)
H10 H 0.1694 0.9716 0.6999
C16 C 0.1311(4) 0.8849(5) 0.5683(3)
H11 H 0.0242 0.9109 0.5704
C17 C 0.2016(4) 0.8124(4) 0.4887(3)
H12 H 0.1434 0.7905 0.4359
C18 C 0.3605(4) 0.7708(4) 0.4862(2)
Cd1 Cd 0.30776(3) 0.66645(3) 0.267882(16)
I1 I 0.06603(3) 0.45714(3) 0.269550(17)
I2 I 0.22561(3) 0.95613(3) 0.202212(19)
N1 N 0.5119(3) 0.5508(3) 0.1742(2)
N2 N 0.4314(3) 0.6962(3) 0.40695(19)
N3 N 0.5515(4) 0.1731(3) 0.0574(3)
H13 H 0.6090 0.1237 0.0133
H14 H 0.4730 0.1260 0.0889
N4 N 0.8304(4) 0.6395(5) 0.4753(3)
H15 H 0.8900 0.6598 0.5214
H16 H 0.8686 0.5909 0.4242

#END
