
#######################################################################
#
#                 Cambridge Crystallographic Data Centre
#                                CCDC 
#
#######################################################################
#
# If this CIF has been generated from an entry in the Cambridge 
# Structural Database, then it will include bibliographic, chemical, 
# crystal, experimental, refinement or atomic coordinate data resulting 
# from the CCDC's data processing and validation procedures.
#
#######################################################################

data_LABHAX01
_symmetry_cell_setting           orthorhombic
_symmetry_space_group_name_H-M   'P 21 21 21'
_symmetry_Int_Tables_number      19
_space_group_name_Hall           'P 2ac 2ab'
loop_
_symmetry_equiv_pos_site_id
_symmetry_equiv_pos_as_xyz
1 x,y,z
2 1/2+x,1/2-y,-z
3 -x,1/2+y,1/2-z
4 1/2-x,-y,1/2+z
_cell_length_a                   10.830(2)
_cell_length_b                   12.703(2)
_cell_length_c                   17.490(1)
_cell_angle_alpha                90
_cell_angle_beta                 90
_cell_angle_gamma                90
_cell_volume                     2406.16
loop_
_atom_site_label
_atom_site_type_symbol
_atom_site_fract_x
_atom_site_fract_y
_atom_site_fract_z
C1 C 0.2309(2) 0.5486(1) 0.6220(1)
C2 C 0.2752(2) 0.6626(1) 0.6273(1)
C3 C 0.3068(2) 0.6961(1) 0.7084(1)
C4 C 0.3901(2) 0.6152(1) 0.7456(1)
C5 C 0.3298(2) 0.5052(1) 0.7450(1)
C6 C 0.4003(2) 0.4287(2) 0.7954(1)
C7 C 0.3238(2) 0.3278(1) 0.8042(1)
C8 C 0.2897(2) 0.2787(1) 0.7281(1)
C9 C 0.2307(1) 0.3587(1) 0.6705(1)
C10 C 0.3086(1) 0.4630(1) 0.6633(1)
C11 C 0.2091(2) 0.2946(1) 0.5961(1)
C12 C 0.1168(2) 0.2019(1) 0.6099(1)
C13 C 0.1673(2) 0.1242(1) 0.6687(1)
C14 C 0.1984(2) 0.1883(1) 0.7398(1)
C15 C 0.2253(2) 0.1026(2) 0.7998(1)
C16 C 0.1317(2) 0.0148(2) 0.7805(1)
C17 C 0.0713(2) 0.0457(1) 0.7042(1)
C18 C 0.2792(2) 0.0621(2) 0.6374(1)
C19 C 0.4323(2) 0.4432(2) 0.6211(1)
C20 C 0.0339(2) -0.0445(2) 0.6552(1)
C21 C -0.0440(3) -0.0202(2) 0.5864(2)
C22 C 0.0432(2) 0.3875(2) 0.5257(2)
C23 C 0.2127(3) 0.3060(2) 0.4586(1)
C24 C 0.3833(4) 0.7817(2) 0.5468(2)
C25 C 0.4963(4) 0.7975(3) 0.4984(2)
N1 N 0.1745(2) 0.3565(1) 0.5287(1)
O1 O 0.3807(2) 0.6797(1) 0.5791(1)
O2 O 0.1961(2) 0.7068(1) 0.7530(1)
O3 O 0.0589(2) -0.1369(1) 0.6693(1)
H1 H 0.1386 0.5455 0.6451
H2 H 0.2286 0.5279 0.5621
H3 H 0.1986 0.7102 0.6081
H4 H 0.3543 0.7708 0.7058
H5 H 0.4765 0.6121 0.7149
H6 H 0.4072 0.6382 0.8041
H7 H 0.2389 0.5134 0.7696
H8 H 0.4878 0.4100 0.7691
H9 H 0.4161 0.4636 0.8508
H10 H 0.2399 0.3467 0.8347
H11 H 0.3768 0.2715 0.8368
H12 H 0.3753 0.2507 0.7038
H13 H 0.1433 0.3901 0.6892
H14 H 0.2989 0.2630 0.5821
H15 H 0.1015 0.1610 0.5566
H16 H 0.0304 0.2336 0.6305
H17 H 0.1245 0.2384 0.7598
H18 H 0.3191 0.0746 0.7947
H19 H 0.2102 0.1321 0.8570
H20 H 0.0626 0.0088 0.8248
H21 H 0.1789 -0.0597 0.7748
H22 H -0.0181 0.0821 0.7112
H23 H 0.3487 0.1164 0.6172
H24 H 0.2479 0.0138 0.5904
H25 H 0.3182 0.0125 0.6813
H26 H 0.4772 0.3792 0.6508
H27 H 0.4953 0.5087 0.6161
H28 H 0.4050 0.4173 0.5647
H29 H -0.0558 0.0639 0.5817
H30 H -0.1334 -0.0575 0.5906
H31 H 0.0038 -0.0493 0.5365
H32 H 0.0204 0.4162 0.5821
H33 H -0.0080 0.3162 0.5144
H34 H 0.0194 0.4463 0.4836
H35 H 0.1899 0.3584 0.4121
H36 H 0.1658 0.2318 0.4506
H37 H 0.3112 0.2930 0.4597
H38 H 0.3016 0.7924 0.5122
H39 H 0.3841 0.8392 0.5923
H40 H 0.5016 0.8745 0.4727
H41 H 0.4917 0.7383 0.4542
H42 H 0.5717 0.7839 0.5355
H43 H 0.1382 0.7625 0.7363
C1 C 0.7309(2) -0.0486(1) 0.3780(1)
C2 C 0.7752(2) -0.1626(1) 0.3727(1)
C3 C 0.8068(2) -0.1961(1) 0.2916(1)
C4 C 0.8901(2) -0.1152(1) 0.2544(1)
C5 C 0.8298(2) -0.0052(1) 0.2550(1)
C6 C 0.9003(2) 0.0713(2) 0.2046(1)
C7 C 0.8238(2) 0.1722(1) 0.1958(1)
C8 C 0.7897(2) 0.2213(1) 0.2719(1)
C9 C 0.7307(1) 0.1413(1) 0.3295(1)
C10 C 0.8086(1) 0.0370(1) 0.3367(1)
C11 C 0.7091(2) 0.2054(1) 0.4039(1)
C12 C 0.6168(2) 0.2981(1) 0.3901(1)
C13 C 0.6673(2) 0.3758(1) 0.3313(1)
C14 C 0.6984(2) 0.3117(1) 0.2602(1)
C15 C 0.7253(2) 0.3974(2) 0.2002(1)
C16 C 0.6317(2) 0.4852(2) 0.2195(1)
C17 C 0.5713(2) 0.4543(1) 0.2958(1)
C18 C 0.7792(2) 0.4379(2) 0.3626(1)
C19 C 0.9323(2) 0.0568(2) 0.3789(1)
C20 C 0.5339(2) 0.5445(2) 0.3448(1)
C21 C 0.4560(3) 0.5202(2) 0.4136(2)
C22 C 0.5432(2) 0.1125(2) 0.4743(2)
C23 C 0.7127(3) 0.1940(2) 0.5414(1)
C24 C 0.8833(4) -0.2817(2) 0.4532(2)
C25 C 0.9963(4) -0.2975(3) 0.5016(2)
N1 N 0.6745(2) 0.1435(1) 0.4713(1)
O1 O 0.8807(2) -0.1797(1) 0.4209(1)
O2 O 0.6961(2) -0.2068(1) 0.2470(1)
O3 O 0.5589(2) 0.6369(1) 0.3307(1)
H1 H 0.6386 -0.0455 0.3549
H2 H 0.7286 -0.0279 0.4379
H3 H 0.6986 -0.2102 0.3919
H4 H 0.8543 -0.2708 0.2942
H5 H 0.9765 -0.1121 0.2851
H6 H 0.9072 -0.1382 0.1959
H7 H 0.7389 -0.0134 0.2304
H8 H 0.9878 0.0900 0.2309
H9 H 0.9161 0.0364 0.1492
H10 H 0.7399 0.1533 0.1653
H11 H 0.8768 0.2285 0.1632
H12 H 0.8753 0.2493 0.2962
H13 H 0.6433 0.1099 0.3108
H14 H 0.7989 0.2370 0.4179
H15 H 0.6015 0.3390 0.4434
H16 H 0.5304 0.2664 0.3695
H17 H 0.6245 0.2616 0.2402
H18 H 0.8191 0.4254 0.2053
H19 H 0.7102 0.3679 0.1430
H20 H 0.5626 0.4912 0.1752
H21 H 0.6789 0.5597 0.2252
H22 H 0.4819 0.4179 0.2888
H23 H 0.8487 0.3836 0.3828
H24 H 0.7479 0.4862 0.4096
H25 H 0.8182 0.4875 0.3187
H26 H 0.9772 0.1208 0.3492
H27 H 0.9953 -0.0087 0.3839
H28 H 0.9050 0.0827 0.4353
H29 H 0.4442 0.4361 0.4183
H30 H 0.3666 0.5575 0.4094
H31 H 0.5038 0.5493 0.4635
H32 H 0.5204 0.0838 0.4179
H33 H 0.4920 0.1838 0.4856
H34 H 0.5194 0.0537 0.5164
H35 H 0.6899 0.1416 0.5879
H36 H 0.6658 0.2682 0.5494
H37 H 0.8112 0.2070 0.5403
H38 H 0.8016 -0.2924 0.4878
H39 H 0.8841 -0.3392 0.4077
H40 H 1.0016 -0.3745 0.5273
H41 H 0.9917 -0.2383 0.5458
H42 H 1.0717 -0.2839 0.4645
H43 H 0.6382 -0.2625 0.2637
C1 C 0.7691(2) 1.0486(1) 0.8780(1)
C2 C 0.7248(2) 1.1626(1) 0.8727(1)
C3 C 0.6932(2) 1.1961(1) 0.7916(1)
C4 C 0.6099(2) 1.1152(1) 0.7544(1)
C5 C 0.6702(2) 1.0052(1) 0.7550(1)
C6 C 0.5997(2) 0.9287(2) 0.7046(1)
C7 C 0.6762(2) 0.8278(1) 0.6958(1)
C8 C 0.7103(2) 0.7787(1) 0.7719(1)
C9 C 0.7693(1) 0.8587(1) 0.8295(1)
C10 C 0.6914(1) 0.9630(1) 0.8367(1)
C11 C 0.7909(2) 0.7946(1) 0.9039(1)
C12 C 0.8832(2) 0.7019(1) 0.8901(1)
C13 C 0.8327(2) 0.6242(1) 0.8313(1)
C14 C 0.8016(2) 0.6883(1) 0.7602(1)
C15 C 0.7747(2) 0.6026(2) 0.7002(1)
C16 C 0.8683(2) 0.5148(2) 0.7195(1)
C17 C 0.9287(2) 0.5457(1) 0.7958(1)
C18 C 0.7208(2) 0.5621(2) 0.8626(1)
C19 C 0.5677(2) 0.9432(2) 0.8789(1)
C20 C 0.9661(2) 0.4555(2) 0.8448(1)
C21 C 1.0440(3) 0.4798(2) 0.9136(2)
C22 C 0.9568(2) 0.8875(2) 0.9743(2)
C23 C 0.7873(3) 0.8060(2) 1.0414(1)
C24 C 0.6167(4) 1.2817(2) 0.9532(2)
C25 C 0.5037(4) 1.2975(3) 1.0016(2)
N1 N 0.8255(2) 0.8565(1) 0.9713(1)
O1 O 0.6193(2) 1.1797(1) 0.9209(1)
O2 O 0.8039(2) 1.2068(1) 0.7470(1)
O3 O 0.9411(2) 0.3631(1) 0.8307(1)
H1 H 0.8614 1.0455 0.8549
H2 H 0.7714 1.0279 0.9379
H3 H 0.8014 1.2102 0.8919
H4 H 0.6457 1.2708 0.7942
H5 H 0.5235 1.1121 0.7851
H6 H 0.5928 1.1382 0.6959
H7 H 0.7611 1.0134 0.7304
H8 H 0.5122 0.9100 0.7309
H9 H 0.5839 0.9636 0.6492
H10 H 0.7601 0.8467 0.6653
H11 H 0.6232 0.7715 0.6632
H12 H 0.6247 0.7507 0.7962
H13 H 0.8567 0.8901 0.8108
H14 H 0.7011 0.7630 0.9179
H15 H 0.8985 0.6610 0.9434
H16 H 0.9696 0.7336 0.8695
H17 H 0.8755 0.7384 0.7402
H18 H 0.6809 0.5746 0.7053
H19 H 0.7898 0.6321 0.6430
H20 H 0.9374 0.5088 0.6752
H21 H 0.8211 0.4403 0.7252
H22 H 1.0181 0.5821 0.7888
H23 H 0.6513 0.6164 0.8828
H24 H 0.7521 0.5138 0.9096
H25 H 0.6818 0.5125 0.8187
H26 H 0.5228 0.8792 0.8492
H27 H 0.5047 1.0087 0.8839
H28 H 0.5950 0.9173 0.9353
H29 H 1.0558 0.5639 0.9183
H30 H 1.1334 0.4425 0.9094
H31 H 0.9962 0.4507 0.9635
H32 H 0.9796 0.9162 0.9179
H33 H 1.0080 0.8162 0.9856
H34 H 0.9806 0.9463 1.0164
H35 H 0.8101 0.8584 1.0879
H36 H 0.8342 0.7318 1.0494
H37 H 0.6888 0.7930 1.0403
H38 H 0.6984 1.2924 0.9878
H39 H 0.6159 1.3392 0.9077
H40 H 0.4984 1.3745 1.0273
H41 H 0.5083 1.2383 1.0458
H42 H 0.4283 1.2839 0.9645
H43 H 0.8618 1.2625 0.7637
C1 C 0.2691(2) 0.4514(1) 0.1220(1)
C2 C 0.2248(2) 0.3374(1) 0.1273(1)
C3 C 0.1932(2) 0.3039(1) 0.2084(1)
C4 C 0.1099(2) 0.3848(1) 0.2456(1)
C5 C 0.1702(2) 0.4948(1) 0.2450(1)
C6 C 0.0997(2) 0.5713(2) 0.2954(1)
C7 C 0.1762(2) 0.6722(1) 0.3042(1)
C8 C 0.2103(2) 0.7213(1) 0.2281(1)
C9 C 0.2693(1) 0.6413(1) 0.1705(1)
C10 C 0.1914(1) 0.5370(1) 0.1633(1)
C11 C 0.2909(2) 0.7054(1) 0.0961(1)
C12 C 0.3832(2) 0.7981(1) 0.1099(1)
C13 C 0.3327(2) 0.8758(1) 0.1687(1)
C14 C 0.3016(2) 0.8117(1) 0.2398(1)
C15 C 0.2747(2) 0.8974(2) 0.2998(1)
C16 C 0.3683(2) 0.9852(2) 0.2805(1)
C17 C 0.4287(2) 0.9543(1) 0.2042(1)
C18 C 0.2208(2) 0.9379(2) 0.1374(1)
C19 C 0.0677(2) 0.5568(2) 0.1211(1)
C20 C 0.4661(2) 1.0445(2) 0.1552(1)
C21 C 0.5440(3) 1.0202(2) 0.0864(2)
C22 C 0.4568(2) 0.6125(2) 0.0257(2)
C23 C 0.2873(3) 0.6940(2) -0.0414(1)
C24 C 0.1167(4) 0.2183(2) 0.0468(2)
C25 C 0.0037(4) 0.2025(3) -0.0016(2)
N1 N 0.3255(2) 0.6435(1) 0.0287(1)
O1 O 0.1193(2) 0.3203(1) 0.0791(1)
O2 O 0.3039(2) 0.2932(1) 0.2530(1)
O3 O 0.4411(2) 1.1369(1) 0.1693(1)
H1 H 0.3614 0.4545 0.1451
H2 H 0.2714 0.4721 0.0621
H3 H 0.3014 0.2898 0.1081
H4 H 0.1457 0.2292 0.2058
H5 H 0.0235 0.3879 0.2149
H6 H 0.0928 0.3618 0.3041
H7 H 0.2611 0.4866 0.2696
H8 H 0.0122 0.5900 0.2691
H9 H 0.0839 0.5364 0.3508
H10 H 0.2601 0.6533 0.3347
H11 H 0.1232 0.7285 0.3368
H12 H 0.1247 0.7493 0.2038
H13 H 0.3567 0.6099 0.1892
H14 H 0.2011 0.7370 0.0821
H15 H 0.3985 0.8390 0.0566
H16 H 0.4696 0.7664 0.1305
H17 H 0.3755 0.7616 0.2598
H18 H 0.1809 0.9254 0.2947
H19 H 0.2898 0.8679 0.3570
H20 H 0.4374 0.9912 0.3248
H21 H 0.3211 1.0597 0.2748
H22 H 0.5181 0.9179 0.2112
H23 H 0.1513 0.8836 0.1172
H24 H 0.2521 0.9862 0.0904
H25 H 0.1818 0.9875 0.1813
H26 H 0.0228 0.6208 0.1508
H27 H 0.0047 0.4913 0.1161
H28 H 0.0950 0.5827 0.0647
H29 H 0.5558 0.9361 0.0817
H30 H 0.6334 1.0575 0.0906
H31 H 0.4962 1.0493 0.0365
H32 H 0.4796 0.5838 0.0821
H33 H 0.5080 0.6838 0.0144
H34 H 0.4806 0.5537 -0.0164
H35 H 0.3101 0.6416 -0.0879
H36 H 0.3342 0.7682 -0.0494
H37 H 0.1888 0.7070 -0.0403
H38 H 0.1984 0.2076 0.0122
H39 H 0.1159 0.1608 0.0923
H40 H -0.0016 0.1255 -0.0273
H41 H 0.0083 0.2617 -0.0458
H42 H -0.0717 0.2161 0.0355
H43 H 0.3618 0.2375 0.2363

#END
