./LABHAX_from_POSCAR.cif_generated_by_CrystalShift
_symmetry_cell_setting triclinic
_symmetry_space_group_name_H-M 'P 1'
loop_
_symmetry_equiv_pos_site_id
_symmetry_equiv_pos_as_xyz
1 x,y,z
_cell_length_a 8.654000
_cell_length_b 6.428000
_cell_length_c 21.032000
_cell_angle_alpha 90.000000
_cell_angle_beta 95.700000
_cell_angle_gamma 90.000000
_cell_volume 1164.181429
loop_
_atom_site_label
_atom_site_type_symbol
_atom_site_fract_x
_atom_site_fract_y
_atom_site_fract_z
H1 H 1.140300 1.206600 0.081400
H2 H 0.695000 0.163500 0.133000
H3 H 0.834600 0.094700 0.196400
H4 H 0.447900 0.213500 0.398400
H5 H 0.347100 0.424400 0.422500
H6 H 0.435500 0.452300 0.357000
H7 H 1.116500 0.326800 0.200700
H8 H 1.275300 0.477100 0.180800
H9 H 1.231000 0.464500 0.260800
H10 H 0.803200 0.208700 0.390000
H11 H 0.980200 0.309400 0.368400
H12 H 0.918400 0.369200 0.443700
H13 H 0.593700 0.715500 0.393100
H14 H 0.817500 0.645900 0.508200
H15 H 0.741700 0.883600 0.476800
H16 H 0.982000 0.938600 0.440600
H17 H 1.038600 0.678100 0.455400
H18 H 0.848000 0.859900 0.341400
H19 H 0.649700 0.629700 0.284000
H20 H 0.654100 0.359300 0.298300
H21 H 0.923000 0.346200 0.267300
H22 H 0.881800 0.793500 0.232800
H23 H 1.101800 0.565200 0.333100
H24 H 1.199400 0.889300 0.374300
H25 H 1.069800 1.028300 0.319800
H26 H 1.436900 0.328600 0.038000
H27 H 1.269000 0.236500 -0.007800
H28 H 1.412400 0.371700 -0.045200
H29 H 1.334500 0.688200 0.002800
H30 H 0.087200 0.284700 0.870900
H31 H 0.046400 0.018000 0.879600
H32 H -0.032100 0.252300 0.964700
H33 H -0.294500 0.438400 0.937300
H34 H -0.369200 0.276800 0.839800
H35 H -0.348900 0.547900 0.829800
H36 H -0.091600 0.490700 0.793300
H37 H -0.336100 0.256200 0.712300
H38 H -0.324600 0.529600 0.718000
H39 H -0.069800 0.528300 0.680200
H40 H -0.199400 0.389300 0.625700
H41 H -0.101800 0.065200 0.666900
H42 H 0.118200 0.293500 0.767200
H43 H 0.077000 -0.153800 0.732700
H44 H 0.345900 -0.140700 0.701700
H45 H 0.350300 0.129700 0.716000
H46 H 0.152000 0.359900 0.658600
H47 H -0.038600 0.178100 0.544600
H48 H 0.018000 0.438600 0.559400
H49 H 0.258300 0.383600 0.523200
H50 H 0.182500 0.145900 0.491800
H51 H 0.406300 0.215500 0.606900
H52 H 0.081600 -0.130800 0.556300
H53 H 0.019800 -0.190600 0.631600
H54 H 0.196800 -0.291300 0.610000
H55 H -0.231000 -0.035500 0.739200
H56 H -0.275300 -0.022900 0.819200
H57 H -0.116500 -0.173200 0.799300
H58 H 0.564500 -0.047700 0.643000
H59 H 0.652900 -0.075600 0.577500
H60 H 0.552100 -0.286500 0.601600
H61 H 0.165400 -0.405300 0.803600
H62 H 0.305000 -0.336500 0.867000
H63 H 0.356500 -0.341600 0.787900
H64 H 0.328900 0.203300 0.828400
H65 H 0.461200 -0.000600 0.819200
H66 H 0.366400 0.016700 0.889400
H67 H -0.164000 0.060900 1.029600
H68 H -0.334500 0.188200 0.997200
H69 H -0.412400 -0.128300 1.045200
H70 H -0.269000 -0.263500 1.007800
H71 H -0.436900 -0.171400 0.962000
H72 H -0.140300 0.706600 0.918600
H73 H 1.324600 1.029600 0.282000
H74 H 1.336100 0.756200 0.287700
H75 H 1.091600 0.990700 0.206700
H76 H 1.348900 1.047900 0.170200
H77 H 1.369200 0.776800 0.160200
H78 H 1.294500 0.938400 0.062700
H79 H 1.032100 0.752300 0.035300
H80 H 0.953600 0.518000 0.120400
H81 H 0.912800 0.784700 0.129100
H82 H 0.671100 0.703300 0.171600
H83 H 0.538800 0.499400 0.180800
H84 H 0.633600 0.516700 0.110600
H85 H 1.164000 0.560900 -0.029600
H86 H 0.643500 0.158400 0.212100
C87 C 0.946600 0.778100 0.434800
C88 C 0.794400 0.737700 0.465300
C89 C 0.684800 0.617900 0.415700
C90 C 0.880500 0.340900 0.394000
C91 C 1.182500 0.467200 0.211400
C92 C 0.589900 0.450500 0.443900
C93 C 0.445400 0.380600 0.403600
C94 C 0.735600 0.192600 0.182500
C95 C 0.645700 0.541400 0.161600
C96 C 1.261600 0.553300 0.006500
C97 C 1.353400 0.360600 -0.002500
C98 C 0.795900 0.536800 0.366700
C99 C 0.723300 0.499300 0.298800
C100 C 0.847200 0.472900 0.250900
C101 C 1.081600 0.663200 0.201000
C102 C 0.955200 0.665500 0.250200
C103 C 1.031100 0.700100 0.320200
C104 C 1.139100 0.888800 0.326800
C105 C 1.258700 0.886700 0.278200
C106 C 1.176600 0.867300 0.211500
C107 C 1.287200 0.903800 0.159800
C108 C 1.204400 0.917700 0.094200
C109 C 1.106800 0.721300 0.078500
C110 C 1.003900 0.669400 0.131000
C111 C -0.353400 -0.139400 1.002500
C112 C -0.261600 0.053300 0.993500
C113 C 0.354300 0.041400 0.838400
C114 C 0.264400 -0.307400 0.817500
C115 C 0.554600 -0.119400 0.596400
C116 C 0.410100 -0.049500 0.556100
C117 C -0.182500 -0.032800 0.788600
C118 C 0.119500 -0.159100 0.606000
C119 C 0.315200 0.117900 0.584300
C120 C 0.205600 0.237700 0.534700
C121 C 0.053400 0.278100 0.565200
C122 C 0.097300 0.225200 0.635400
C123 C 0.204100 0.036800 0.633300
C124 C 0.276700 -0.000700 0.701200
C125 C 0.152800 -0.027100 0.749100
C126 C -0.081600 0.163200 0.799000
C127 C 0.044800 0.165500 0.749800
C128 C -0.031100 0.200100 0.679800
C129 C -0.139100 0.388800 0.673200
C130 C -0.258700 0.386700 0.721800
C131 C -0.176600 0.367300 0.788500
C132 C -0.287200 0.403800 0.840200
C133 C -0.204400 0.417700 0.905800
C134 C -0.106800 0.221300 0.921500
C135 C 0.902700 0.725200 0.364600
C136 C -0.003900 0.169400 0.869000
N137 N 0.774600 0.411600 0.187100
N138 N 0.225400 -0.088400 0.812900
O139 O 0.376000 -0.121600 0.503300
O140 O -0.095800 0.586700 0.912400
O141 O -0.206700 0.047800 0.931800
O142 O 1.206700 0.547800 0.068200
O143 O 1.095800 1.086700 0.087600
O144 O 0.624000 0.378400 0.496700

#END
