
#######################################################################
#
#                 Cambridge Crystallographic Data Centre
#                                CCDC 
#
#######################################################################
#
# If this CIF has been generated from an entry in the Cambridge 
# Structural Database, then it will include bibliographic, chemical, 
# crystal, experimental, refinement or atomic coordinate data resulting 
# from the CCDC's data processing and validation procedures.
#
#######################################################################

data_LABHAX
_symmetry_cell_setting           monoclinic
_symmetry_space_group_name_H-M   'P 21'
_symmetry_Int_Tables_number      4
_space_group_name_Hall           'P 2yb'
loop_
_symmetry_equiv_pos_site_id
_symmetry_equiv_pos_as_xyz
1 x,y,z
2 -x,1/2+y,-z
_cell_length_a                   8.654(2)
_cell_length_b                   6.428(1)
_cell_length_c                   21.032(3)
_cell_angle_alpha                90
_cell_angle_beta                 95.7(2)
_cell_angle_gamma                90
_cell_volume                     1164.18
loop_
_atom_site_label
_atom_site_type_symbol
_atom_site_fract_x
_atom_site_fract_y
_atom_site_fract_z
C1 C -0.0039(3) 0.1694(7) 0.8690(1)
C2 C -0.1068(6) 0.2213(7) 0.9215(1)
C3 C -0.2044(3) 0.4177(8) 0.9058(1)
C4 C -0.2872(3) 0.4038 0.8402(1)
C5 C -0.1766(3) 0.3673(7) 0.7885(1)
C6 C -0.2587(4) 0.3867(8) 0.7218(1)
C7 C -0.1391(4) 0.3888(8) 0.6732(1)
C8 C -0.0311(3) 0.2001(7) 0.6798(1)
C9 C 0.0448(3) 0.1655(7) 0.7498(1)
C10 C -0.0816(3) 0.1632(7) 0.7990(1)
C11 C 0.1528(3) -0.0271(7) 0.7491(1)
C12 C 0.2767(3) -0.0007(7) 0.7012(1)
C13 C 0.2041(3) 0.0368(8) 0.6333(1)
C14 C 0.0973(4) 0.2252(7) 0.6354(1)
C15 C 0.0534(4) 0.2781(8) 0.5652(1)
C16 C 0.2056(4) 0.2377(9) 0.5347(2)
C17 C 0.3152(4) 0.1179(8) 0.5843(1)
C18 C 0.1195(4) -0.1591(8) 0.6060(1)
C19 C -0.1825(3) -0.0328(7) 0.7886(1)
C20 C 0.4101(4) -0.0495(9) 0.5561(2)
C21 C 0.5546(5) -0.1194(14) 0.5964(2)
C22 C 0.2644(4) -0.3074(8) 0.8175(2)
C23 C 0.3543(3) 0.0414(9) 0.8384(1)
C24 C -0.2616(4) 0.0533(8) 0.9935(2)
C25 C -0.3534(5) -0.1394(9) 1.0025(2)
N1 N 0.2254(3) -0.0884(7) 0.8129(1)
O1 O -0.2067(2) 0.0478(7) 0.9318(1)
O2 O -0.0958(3) 0.5867(6) 0.9124(1)
O3 O 0.3760(4) -0.1216(8) 0.5033(1)
H1 H 0.0872 0.2847 0.8709
H2 H 0.0464 0.0180 0.8796
H3 H -0.0321 0.2523 0.9647
H4 H -0.2945 0.4384 0.9373
H5 H -0.3692 0.2768 0.8398
H6 H -0.3489 0.5479 0.8298
H7 H -0.0916 0.4907 0.7933
H8 H -0.3361 0.2562 0.7123
H9 H -0.3246 0.5296 0.7180
H10 H -0.0698 0.5283 0.6802
H11 H -0.1994 0.3893 0.6257
H12 H -0.1018 0.0652 0.6669
H13 H 0.1182 0.2935 0.7672
H14 H 0.0770 -0.1538 0.7327
H15 H 0.3459 -0.1407 0.7017
H16 H 0.3503 0.1297 0.7160
H17 H 0.1520 0.3599 0.6586
H18 H -0.0386 0.1781 0.5446
H19 H 0.0180 0.4386 0.5594
H20 H 0.2583 0.3836 0.5232
H21 H 0.1825 0.1459 0.4918
H22 H 0.4063 0.2155 0.6069
H23 H 0.0816 -0.1308 0.5563
H24 H 0.0198 -0.1906 0.6316
H25 H 0.1968 -0.2913 0.6100
H26 H -0.2310 -0.0355 0.7392
H27 H -0.2753 -0.0229 0.8192
H28 H -0.1165 -0.1732 0.7993
H29 H 0.5645 -0.0477 0.6430
H30 H 0.6529 -0.0756 0.5775
H31 H 0.5521 -0.2865 0.6016
H32 H 0.1654 -0.4053 0.8036
H33 H 0.3050 -0.3365 0.8670
H34 H 0.3565 -0.3416 0.7879
H35 H 0.3289 0.2033 0.8284
H36 H 0.4612 -0.0006 0.8192
H37 H 0.3664 0.0167 0.8894
H38 H -0.1640 0.0609 1.0296
H39 H -0.3345 0.1882 0.9972
H40 H -0.4124 -0.1283 1.0452
H41 H -0.2690 -0.2635 1.0078
H42 H -0.4369 -0.1714 0.9620
H43 H -0.1403 0.7066 0.9186
C1 C 1.0039(3) 0.6694(7) 0.1310(1)
C2 C 1.1068(6) 0.7213(7) 0.0785(1)
C3 C 1.2044(3) 0.9177(8) 0.0942(1)
C4 C 1.2872(3) 0.9038 0.1598(1)
C5 C 1.1766(3) 0.8673(7) 0.2115(1)
C6 C 1.2587(4) 0.8867(8) 0.2782(1)
C7 C 1.1391(4) 0.8888(8) 0.3268(1)
C8 C 1.0311(3) 0.7001(7) 0.3202(1)
C9 C 0.9552(3) 0.6655(7) 0.2502(1)
C10 C 1.0816(3) 0.6632(7) 0.2010(1)
C11 C 0.8472(3) 0.4729(7) 0.2509(1)
C12 C 0.7233(3) 0.4993(7) 0.2988(1)
C13 C 0.7959(3) 0.5368(8) 0.3667(1)
C14 C 0.9027(4) 0.7252(7) 0.3646(1)
C15 C 0.9466(4) 0.7781(8) 0.4348(1)
C16 C 0.7944(4) 0.7377(9) 0.4653(2)
C17 C 0.6848(4) 0.6179(8) 0.4157(1)
C18 C 0.8805(4) 0.3409(8) 0.3940(1)
C19 C 1.1825(3) 0.4672(7) 0.2114(1)
C20 C 0.5899(4) 0.4505(9) 0.4439(2)
C21 C 0.4454(5) 0.3806(14) 0.4036(2)
C22 C 0.7356(4) 0.1926(8) 0.1825(2)
C23 C 0.6457(3) 0.5414(9) 0.1616(1)
C24 C 1.2616(4) 0.5533(8) 0.0065(2)
C25 C 1.3534(5) 0.3606(9) -0.0025(2)
N1 N 0.7746(3) 0.4116(7) 0.1871(1)
O1 O 1.2067(2) 0.5478(7) 0.0682(1)
O2 O 1.0958(3) 1.0867(6) 0.0876(1)
O3 O 0.6240(4) 0.3784(8) 0.4967(1)
H1 H 0.9128 0.7847 0.1291
H2 H 0.9536 0.5180 0.1204
H3 H 1.0321 0.7523 0.0353
H4 H 1.2945 0.9384 0.0627
H5 H 1.3692 0.7768 0.1602
H6 H 1.3489 1.0479 0.1702
H7 H 1.0916 0.9907 0.2067
H8 H 1.3361 0.7562 0.2877
H9 H 1.3246 1.0296 0.2820
H10 H 1.0698 1.0283 0.3198
H11 H 1.1994 0.8893 0.3743
H12 H 1.1018 0.5652 0.3331
H13 H 0.8818 0.7935 0.2328
H14 H 0.9230 0.3462 0.2673
H15 H 0.6541 0.3593 0.2983
H16 H 0.6497 0.6297 0.2840
H17 H 0.8480 0.8599 0.3414
H18 H 1.0386 0.6781 0.4554
H19 H 0.9820 0.9386 0.4406
H20 H 0.7417 0.8836 0.4768
H21 H 0.8175 0.6459 0.5082
H22 H 0.5937 0.7155 0.3931
H23 H 0.9184 0.3692 0.4437
H24 H 0.9802 0.3094 0.3684
H25 H 0.8032 0.2087 0.3900
H26 H 1.2310 0.4645 0.2608
H27 H 1.2753 0.4771 0.1808
H28 H 1.1165 0.3268 0.2007
H29 H 0.4355 0.4523 0.3570
H30 H 0.3471 0.4244 0.4225
H31 H 0.4479 0.2135 0.3984
H32 H 0.8346 0.0947 0.1964
H33 H 0.6950 0.1635 0.1330
H34 H 0.6435 0.1584 0.2121
H35 H 0.6711 0.7033 0.1716
H36 H 0.5388 0.4994 0.1808
H37 H 0.6336 0.5167 0.1106
H38 H 1.1640 0.5609 -0.0296
H39 H 1.3345 0.6882 0.0028
H40 H 1.4124 0.3717 -0.0452
H41 H 1.2690 0.2365 -0.0078
H42 H 1.4369 0.3286 0.0380
H43 H 1.1403 1.2066 0.0814

#END
