./LABJAZ_from_POSCAR.cif_generated_by_CrystalShift
_symmetry_cell_setting triclinic
_symmetry_space_group_name_H-M 'P 1'
loop_
_symmetry_equiv_pos_site_id
_symmetry_equiv_pos_as_xyz
1 x,y,z
_cell_length_a 26.027000
_cell_length_b 10.155000
_cell_length_c 6.147000
_cell_angle_alpha 96.990000
_cell_angle_beta 93.580000
_cell_angle_gamma 92.640000
_cell_volume 1607.092555
loop_
_atom_site_label
_atom_site_type_symbol
_atom_site_fract_x
_atom_site_fract_y
_atom_site_fract_z
H1 H 0.801000 1.301000 0.604000
H2 H 0.774000 1.614000 1.047000
H3 H 0.819000 1.534000 1.331000
H4 H 0.852000 1.317000 1.237000
H5 H 0.934000 0.518000 0.450000
H6 H 0.910000 0.441000 0.620000
H7 H 0.963000 0.533000 0.699000
H8 H 1.000000 0.840000 0.560000
H9 H 1.043000 0.767000 0.832000
H10 H 1.011000 0.688000 1.137000
H11 H 0.919000 0.688000 1.150000
H12 H 0.838000 0.798000 1.002000
H13 H 0.785000 0.794000 0.664000
H14 H 0.822000 0.864000 0.366000
H15 H 0.913000 0.943000 0.423000
H16 H 0.199000 -0.301000 0.396000
H17 H 0.225000 -0.514000 0.300000
H18 H 0.226000 -0.614000 -0.047000
H19 H 0.181000 -0.534000 -0.331000
H20 H 0.148000 -0.317000 -0.237000
H21 H 0.066000 0.482000 0.550000
H22 H 0.090000 0.559000 0.380000
H23 H 0.037000 0.467000 0.301000
H24 H 0.000000 0.160000 0.440000
H25 H -0.043000 0.233000 0.168000
H26 H 0.337000 0.651000 0.409000
H27 H 0.283000 0.652000 0.717000
H28 H 0.333000 0.575000 1.043000
H29 H 0.412000 0.535000 1.019000
H30 H 0.507000 0.657000 0.980000
H31 H 0.553000 0.750000 0.681000
H32 H 0.513000 0.808000 0.394000
H33 H 0.417000 0.792000 0.302000
H34 H 0.410000 1.016000 0.832000
H35 H 0.440000 0.967000 0.995000
H36 H 0.460000 0.961000 0.770000
H37 H 0.303000 0.130000 0.738000
H38 H 0.272000 -0.077000 0.690000
H39 H 0.279000 -0.186000 0.309000
H40 H 0.323000 -0.075000 0.060000
H41 H 0.354000 0.153000 0.161000
H42 H -0.011000 0.312000 -0.137000
H43 H 0.081000 0.312000 -0.150000
H44 H 0.162000 0.202000 -0.002000
H45 H 0.215000 0.206000 0.336000
H46 H 0.178000 0.136000 0.634000
H47 H 0.087000 0.057000 0.577000
H48 H 0.646000 0.847000 0.839000
H49 H 0.677000 1.075000 0.940000
H50 H 0.721000 1.186000 0.691000
H51 H 0.728000 1.077000 0.310000
H52 H 0.697000 0.870000 0.262000
H53 H 0.540000 0.039000 0.230000
H54 H 0.560000 0.033000 0.005000
H55 H 0.590000 -0.016000 0.168000
H56 H 0.583000 0.208000 0.698000
H57 H 0.487000 0.192000 0.606000
H58 H 0.447000 0.250000 0.319000
H59 H 0.493000 0.343000 0.020000
H60 H 0.588000 0.465000 -0.019000
H61 H 0.667000 0.425000 -0.043000
H62 H 0.717000 0.348000 0.283000
H63 H 0.663000 0.349000 0.591000
H64 H 0.775000 1.514000 0.700000
C65 C 0.682500 1.026800 0.801500
C66 C 0.660600 0.900200 0.738200
C67 C 0.715500 1.028200 0.448600
C68 C 0.693800 0.900700 0.386300
C69 C 0.666500 0.837700 0.526500
C70 C 0.613700 0.661100 0.276800
C71 C 0.655100 0.601300 0.587600
C72 C 0.569400 0.055100 0.138700
C73 C 0.562200 0.231900 0.553700
C74 C 0.510700 0.221800 0.510700
C75 C 0.486600 0.261000 0.315500
C76 C 0.513500 0.307000 0.164000
C77 C 0.570500 0.307200 0.178400
C78 C 0.600900 0.423900 0.105100
C79 C 0.657300 0.399200 0.094600
C80 C 0.679700 0.363200 0.273600
C81 C 0.644100 0.357600 0.457700
C82 C 0.595900 0.267500 0.384100
C83 C 0.404100 0.732500 0.615900
C84 C 0.355900 0.642400 0.542300
C85 C 0.320300 0.636800 0.726400
C86 C 0.342700 0.600800 0.905400
C87 C 0.399100 0.576100 0.894900
C88 C 0.429500 0.692800 0.821600
C89 C 0.071300 0.214200 0.366900
C90 C 0.101300 0.106300 0.450300
C91 C 0.158200 0.145500 0.497100
C92 C 0.179800 0.186900 0.327400
C93 C 0.144300 0.182600 0.127500
C94 C 0.096600 0.260900 0.168700
C95 C 0.062300 0.287700 -0.014400
C96 C 0.010900 0.283400 -0.004100
C97 C -0.012900 0.237600 0.182300
C98 C 0.014300 0.199600 0.347100
C99 C 0.069500 0.466100 0.404200
C100 C 0.113100 -0.128000 0.285600
C101 C 0.154900 -0.058600 0.001100
C102 C 0.164300 -0.292900 0.066000
C103 C 0.160400 -0.356600 -0.144500
C104 C 0.181900 -0.477100 -0.191100
C105 C 0.206700 -0.533300 -0.028300
C106 C 0.210400 -0.471400 0.187700
C107 C 0.188600 -0.348900 0.235100
C108 C 0.486500 0.693000 0.836000
C109 C 0.513400 0.739000 0.684500
C110 C 0.489300 0.778200 0.489300
C111 C 0.811400 1.348900 0.764900
C112 C 0.789600 1.471400 0.812300
C113 C 0.793300 1.533300 1.028300
C114 C 0.339400 0.099800 0.261800
C115 C 0.317500 -0.026800 0.198500
C116 C 0.290800 -0.090000 0.341600
C117 C 0.284500 -0.028200 0.551400
C118 C 0.306200 0.099300 0.613700
C119 C 0.333500 0.162300 0.473500
C120 C 0.386300 0.338900 0.723200
C121 C 0.344900 0.398700 0.412400
C122 C 0.430600 0.944900 0.861300
C123 C 0.437800 0.768100 0.446300
C124 C 0.818100 1.477100 1.191100
C125 C 0.839600 1.356600 1.144500
C126 C 0.835700 1.292900 0.934000
C127 C 0.845100 1.058600 0.998900
C128 C 0.886900 1.128000 0.714400
C129 C 0.930500 0.533900 0.595800
C130 C 0.928700 0.785800 0.633100
C131 C 0.898700 0.893700 0.549700
C132 C 0.841800 0.854500 0.502900
C133 C 0.820200 0.813100 0.672600
C134 C 0.855700 0.817400 0.872500
C135 C 0.903400 0.739100 0.831300
C136 C 0.937700 0.712300 1.014400
C137 C 0.989100 0.716600 1.004100
C138 C 1.012900 0.762400 0.817700
C139 C 0.985700 0.800400 0.652900
C140 C 0.709200 1.090000 0.658400
N141 N 0.877000 0.958500 0.921100
N142 N 0.856700 1.165800 0.890400
N143 N 0.902300 1.002900 0.740800
N144 N 0.377200 0.505100 0.507000
N145 N 0.355100 0.294600 0.528900
N146 N 0.402000 0.469100 0.701800
N147 N 0.402800 0.815800 0.826800
N148 N 0.622800 0.494900 0.493000
N149 N 0.644900 0.705400 0.471100
N150 N 0.598000 0.530900 0.298200
N151 N 0.597200 0.184200 0.173200
N152 N 0.098200 0.345100 0.384500
N153 N 0.123000 0.041500 0.078900
N154 N 0.143300 -0.165800 0.109600
N155 N 0.097700 -0.002900 0.259200
N156 N 0.901800 0.654900 0.615500
O157 O 0.601900 0.723100 0.130500
O158 O 0.685200 0.604200 0.748900
O159 O 0.899200 1.193500 0.572400
O160 O 0.815600 1.052400 1.142100
O161 O 0.398100 0.276900 0.869500
O162 O 0.100800 -0.193500 0.427600
O163 O 0.184400 -0.052400 -0.142100
O164 O 0.314800 0.395800 0.251100

#END
