
#######################################################################
#
#                 Cambridge Crystallographic Data Centre
#                                CCDC 
#
#######################################################################
#
# If this CIF has been generated from an entry in the Cambridge 
# Structural Database, then it will include bibliographic, chemical, 
# crystal, experimental, refinement or atomic coordinate data resulting 
# from the CCDC's data processing and validation procedures.
#
#######################################################################

data_LABJAZ
_symmetry_cell_setting           triclinic
_symmetry_space_group_name_H-M   'P -1'
_symmetry_Int_Tables_number      2
_space_group_name_Hall           '-P 1'
loop_
_symmetry_equiv_pos_site_id
_symmetry_equiv_pos_as_xyz
1 x,y,z
2 -x,-y,-z
_cell_length_a                   26.027(13)
_cell_length_b                   10.155(5)
_cell_length_c                   6.147(3)
_cell_angle_alpha                96.99(3)
_cell_angle_beta                 93.58(3)
_cell_angle_gamma                92.64(3)
_cell_volume                     1607.09
loop_
_atom_site_label
_atom_site_type_symbol
_atom_site_fract_x
_atom_site_fract_y
_atom_site_fract_z
O1 O 0.3148(2) 0.3958(4) 0.2511(6)
O2 O 0.3981(2) 0.2769(4) 0.8695(7)
N1 N 0.3772(2) 0.5051(4) 0.5070(7)
N2 N 0.3551(2) 0.2946(4) 0.5289(7)
N3 N 0.4020(2) 0.4691(4) 0.7018(7)
N4 N 0.4028(2) 0.8158(4) 0.8268(7)
C1 C 0.4041(2) 0.7325(5) 0.6159(9)
C2 C 0.3559(2) 0.6424(5) 0.5423(10)
C3 C 0.3203(3) 0.6368(5) 0.7264(10)
C4 C 0.3427(2) 0.6008(6) 0.9054(12)
C5 C 0.3991(2) 0.5761(5) 0.8949(9)
C6 C 0.4295(2) 0.6928(5) 0.8216(9)
C7 C 0.4865(3) 0.6930(6) 0.8360(13)
C8 C 0.5134(3) 0.7390(7) 0.6845(14)
C9 C 0.4893(3) 0.7782(7) 0.4893(14)
C10 C 0.4378(3) 0.7681(6) 0.4463(11)
C11 C 0.4306(3) 0.9449(7) 0.8613(16)
C12 C 0.3449(2) 0.3987(5) 0.4124(9)
C13 C 0.3863(2) 0.3389(5) 0.7232(9)
C14 C 0.3335(2) 0.1623(5) 0.4735(9)
C15 C 0.3062(2) 0.0993(6) 0.6137(12)
C16 C 0.2845(2) -0.0282(6) 0.5514(12)
C17 C 0.2908(3) -0.0900(6) 0.3416(12)
C18 C 0.3175(3) -0.0268(6) 0.1985(12)
C19 C 0.3394(2) 0.0998(6) 0.2618(10)
H1 H 0.337(2) 0.651(4) 0.409(8)
H2 H 0.283(2) 0.652(5) 0.717(8)
H3 H 0.333(2) 0.575(6) 1.043(11)
H4 H 0.412(2) 0.535(5) 1.019(9)
H5 H 0.507(2) 0.657(5) 0.980(9)
H6 H 0.553(3) 0.750(6) 0.681(11)
H7 H 0.513(3) 0.808(7) 0.394(12)
H8 H 0.417(2) 0.792(5) 0.302(10)
H9 H 0.410(3) 1.016(7) 0.832(11)
H10 H 0.440(3) 0.967(6) 0.995(12)
H11 H 0.460(2) 0.961(5) 0.770(9)
H12 H 0.303(2) 0.130(4) 0.738(8)
H13 H 0.272(2) -0.077(6) 0.690(10)
H14 H 0.279(2) -0.186(6) 0.309(8)
H15 H 0.323(2) -0.075(5) 0.060(9)
H16 H 0.354(2) 0.153(5) 0.161(10)
O1 O 0.6852(2) 0.6042(4) 0.7489(6)
O2 O 0.6019(2) 0.7231(4) 0.1305(7)
N1 N 0.6228(2) 0.4949(4) 0.4930(7)
N2 N 0.6449(2) 0.7054(4) 0.4711(7)
N3 N 0.5980(2) 0.5309(4) 0.2982(7)
N4 N 0.5972(2) 0.1842(4) 0.1732(7)
C1 C 0.5959(2) 0.2675(5) 0.3841(9)
C2 C 0.6441(2) 0.3576(5) 0.4577(10)
C3 C 0.6797(3) 0.3632(5) 0.2736(10)
C4 C 0.6573(2) 0.3992(6) 0.0946(12)
C5 C 0.6009(2) 0.4239(5) 0.1051(9)
C6 C 0.5705(2) 0.3072(5) 0.1784(9)
C7 C 0.5135(3) 0.3070(6) 0.1640(13)
C8 C 0.4866(3) 0.2610(7) 0.3155(14)
C9 C 0.5107(3) 0.2218(7) 0.5107(14)
C10 C 0.5622(3) 0.2319(6) 0.5537(11)
C11 C 0.5694(3) 0.0551(7) 0.1387(16)
C12 C 0.6551(2) 0.6013(5) 0.5876(9)
C13 C 0.6137(2) 0.6611(5) 0.2768(9)
C14 C 0.6665(2) 0.8377(5) 0.5265(9)
C15 C 0.6938(2) 0.9007(6) 0.3863(12)
C16 C 0.7155(2) 1.0282(6) 0.4486(12)
C17 C 0.7092(3) 1.0900(6) 0.6584(12)
C18 C 0.6825(3) 1.0268(6) 0.8015(12)
C19 C 0.6606(2) 0.9002(6) 0.7382(10)
H1 H 0.663(2) 0.349(4) 0.591(8)
H2 H 0.717(2) 0.348(5) 0.283(8)
H3 H 0.667(2) 0.425(6) -0.043(11)
H4 H 0.588(2) 0.465(5) -0.019(9)
H5 H 0.493(2) 0.343(5) 0.020(9)
H6 H 0.447(3) 0.250(6) 0.319(11)
H7 H 0.487(3) 0.192(7) 0.606(12)
H8 H 0.583(2) 0.208(5) 0.698(10)
H9 H 0.590(3) -0.016(7) 0.168(11)
H10 H 0.560(3) 0.033(6) 0.005(12)
H11 H 0.540(2) 0.039(5) 0.230(9)
H12 H 0.697(2) 0.870(4) 0.262(8)
H13 H 0.728(2) 1.077(6) 0.310(10)
H14 H 0.721(2) 1.186(6) 0.691(8)
H15 H 0.677(2) 1.075(5) 0.940(9)
H16 H 0.646(2) 0.847(5) 0.839(10)
O3 O 0.1008(2) -0.1935(4) 0.4276(6)
O4 O 0.1844(2) -0.0524(4) -0.1421(6)
N5 N 0.0977(2) -0.0029(4) 0.2592(7)
N6 N 0.1433(2) -0.1658(4) 0.1096(7)
N7 N 0.1230(2) 0.0415(4) 0.0789(7)
N8 N 0.0982(2) 0.3451(4) 0.3845(7)
C20 C 0.0713(2) 0.2142(5) 0.3669(9)
C21 C 0.1013(2) 0.1063(5) 0.4503(9)
C22 C 0.1582(2) 0.1455(6) 0.4971(10)
C23 C 0.1798(3) 0.1869(6) 0.3274(11)
C24 C 0.1443(2) 0.1826(5) 0.1275(9)
C25 C 0.0966(2) 0.2609(5) 0.1687(9)
C26 C 0.0623(3) 0.2877(6) -0.0144(11)
C27 C 0.0109(3) 0.2834(7) -0.0041(13)
C28 C -0.0129(3) 0.2376(7) 0.1823(15)
C29 C 0.0143(3) 0.1996(7) 0.3471(14)
C30 C 0.0695(3) 0.4661(6) 0.4042(12)
C31 C 0.1131(2) -0.1280(5) 0.2856(8)
C32 C 0.1549(2) -0.0586(5) 0.0011(9)
C33 C 0.1643(2) -0.2929(5) 0.0660(9)
C34 C 0.1604(2) -0.3566(6) -0.1445(11)
C35 C 0.1819(2) -0.4771(6) -0.1911(12)
C36 C 0.2067(3) -0.5333(6) -0.0283(13)
C37 C 0.2104(2) -0.4714(6) 0.1877(13)
C38 C 0.1886(2) -0.3489(5) 0.2351(10)
H17 H 0.087(2) 0.057(5) 0.577(8)
H18 H 0.178(2) 0.136(5) 0.634(10)
H19 H 0.215(2) 0.206(5) 0.336(9)
H20 H 0.162(2) 0.202(5) -0.002(9)
H21 H 0.081(3) 0.312(7) -0.150(12)
H22 H -0.011(3) 0.312(6) -0.137(11)
H23 H -0.043(2) 0.233(5) 0.168(8)
H24 H 0.000(3) 0.160(7) 0.440(11)
H25 H 0.037(2) 0.467(5) 0.301(9)
H26 H 0.090(2) 0.559(6) 0.380(10)
H27 H 0.066(2) 0.482(5) 0.550(10)
H28 H 0.148(2) -0.317(4) -0.237(7)
H29 H 0.181(3) -0.534(7) -0.331(12)
H30 H 0.226(2) -0.614(6) -0.047(9)
H31 H 0.225(2) -0.514(6) 0.300(10)
H32 H 0.199(2) -0.301(6) 0.396(11)
O3 O 0.8992(2) 1.1935(4) 0.5724(6)
O4 O 0.8156(2) 1.0524(4) 1.1421(6)
N5 N 0.9023(2) 1.0029(4) 0.7408(7)
N6 N 0.8567(2) 1.1658(4) 0.8904(7)
N7 N 0.8770(2) 0.9585(4) 0.9211(7)
N8 N 0.9018(2) 0.6549(4) 0.6155(7)
C20 C 0.9287(2) 0.7858(5) 0.6331(9)
C21 C 0.8987(2) 0.8937(5) 0.5497(9)
C22 C 0.8418(2) 0.8545(6) 0.5029(10)
C23 C 0.8202(3) 0.8131(6) 0.6726(11)
C24 C 0.8557(2) 0.8174(5) 0.8725(9)
C25 C 0.9034(2) 0.7391(5) 0.8313(9)
C26 C 0.9377(3) 0.7123(6) 1.0144(11)
C27 C 0.9891(3) 0.7166(7) 1.0041(13)
C28 C 1.0129(3) 0.7624(7) 0.8177(15)
C29 C 0.9857(3) 0.8004(7) 0.6529(14)
C30 C 0.9305(3) 0.5339(6) 0.5958(12)
C31 C 0.8869(2) 1.1280(5) 0.7144(8)
C32 C 0.8451(2) 1.0586(5) 0.9989(9)
C33 C 0.8357(2) 1.2929(5) 0.9340(9)
C34 C 0.8396(2) 1.3566(6) 1.1445(11)
C35 C 0.8181(2) 1.4771(6) 1.1911(12)
C36 C 0.7933(3) 1.5333(6) 1.0283(13)
C37 C 0.7896(2) 1.4714(6) 0.8123(13)
C38 C 0.8114(2) 1.3489(5) 0.7649(10)
H17 H 0.913(2) 0.943(5) 0.423(8)
H18 H 0.822(2) 0.864(5) 0.366(10)
H19 H 0.785(2) 0.794(5) 0.664(9)
H20 H 0.838(2) 0.798(5) 1.002(9)
H21 H 0.919(3) 0.688(7) 1.150(12)
H22 H 1.011(3) 0.688(6) 1.137(11)
H23 H 1.043(2) 0.767(5) 0.832(8)
H24 H 1.000(3) 0.840(7) 0.560(11)
H25 H 0.963(2) 0.533(5) 0.699(9)
H26 H 0.910(2) 0.441(6) 0.620(10)
H27 H 0.934(2) 0.518(5) 0.450(10)
H28 H 0.852(2) 1.317(4) 1.237(7)
H29 H 0.819(3) 1.534(7) 1.331(12)
H30 H 0.774(2) 1.614(6) 1.047(9)
H31 H 0.775(2) 1.514(6) 0.700(10)
H32 H 0.801(2) 1.301(6) 0.604(11)

#END
