./LABLUV_from_POSCAR.cif_generated_by_CrystalShift
_symmetry_cell_setting triclinic
_symmetry_space_group_name_H-M 'P 1'
loop_
_symmetry_equiv_pos_site_id
_symmetry_equiv_pos_as_xyz
1 x,y,z
_cell_length_a 6.981000
_cell_length_b 11.443000
_cell_length_c 9.255000
_cell_angle_alpha 76.150000
_cell_angle_beta 85.750000
_cell_angle_gamma 74.130000
_cell_volume 690.437447
loop_
_atom_site_label
_atom_site_type_symbol
_atom_site_fract_x
_atom_site_fract_y
_atom_site_fract_z
H1 H 1.059000 0.030000 0.740000
H2 H 1.273000 0.138000 0.674000
H3 H 1.074000 0.198000 0.545000
H4 H 1.115000 0.282000 0.799000
H5 H 1.195000 0.336000 0.650000
H6 H 0.884000 0.467000 0.693000
H7 H 0.894000 0.423000 0.539000
H8 H 0.560000 0.425000 0.426000
H9 H 0.501000 0.306000 0.268000
H10 H 0.587000 0.087000 0.363000
H11 H 0.758000 0.007000 0.593000
H12 H 0.842000 0.265000 0.897000
H13 H 0.199000 0.460000 1.039000
H14 H 0.471000 0.438000 0.883000
H15 H 0.608000 0.074000 0.989000
H16 H 0.310000 0.093000 1.135000
H17 H -0.059000 0.970000 0.260000
H18 H -0.069000 0.915000 0.129000
H19 H -0.273000 0.862000 0.326000
H20 H -0.074000 0.802000 0.455000
H21 H 0.690000 0.907000 -0.135000
H22 H 0.392000 0.926000 0.011000
H23 H 0.529000 0.562000 0.117000
H24 H 0.801000 0.540000 -0.039000
H25 H 0.158000 0.735000 0.103000
H26 H 0.242000 0.993000 0.407000
H27 H 0.413000 0.913000 0.637000
H28 H 0.499000 0.694000 0.732000
H29 H 0.440000 0.575000 0.574000
H30 H 0.106000 0.577000 0.461000
H31 H 0.116000 0.533000 0.307000
H32 H -0.195000 0.664000 0.350000
H33 H -0.115000 0.718000 0.201000
H34 H 1.069000 0.085000 0.871000
C35 C -0.131800 0.818200 0.332500
C36 C -0.093900 0.693300 0.316800
C37 C 0.101400 0.602300 0.352200
C38 C 0.771800 0.722200 -0.092200
C39 C 0.655100 0.836200 -0.084500
C40 C 0.486800 0.843900 -0.000500
C41 C 0.228200 0.277800 1.092200
C42 C 0.344900 0.163800 1.084500
C43 C 0.513200 0.156100 1.000500
C44 C 0.564800 0.260800 0.921800
C45 C 0.439000 0.374700 0.933000
C46 C 0.272800 0.384100 1.017100
C47 C 0.753700 0.251700 0.834600
C48 C 0.728500 0.163500 0.649700
C49 C 0.702700 0.086400 0.565700
C50 C 0.616400 0.136700 0.431400
C51 C 0.559800 0.262800 0.378200
C52 C 0.590900 0.342200 0.458900
C53 C 0.673800 0.290200 0.596500
C54 C 0.898600 0.397700 0.647800
C55 C 1.093900 0.306700 0.683200
C56 C 1.131800 0.181800 0.667500
C57 C 1.036500 0.091400 0.777800
C58 C 0.326200 0.709800 0.403500
C59 C 0.409100 0.657800 0.541100
C60 C 0.440200 0.737200 0.621800
C61 C 0.383600 0.863300 0.568600
C62 C 0.297300 0.913600 0.434300
C63 C 0.271500 0.836500 0.350300
C64 C 0.246300 0.748300 0.165400
C65 C 0.727200 0.615900 -0.017100
C66 C 0.561000 0.625300 0.067000
C67 C 0.435200 0.739200 0.078200
C68 C -0.036500 0.908600 0.222200
N69 N 0.820000 0.132600 0.790100
N70 N 0.275800 0.648500 0.303100
N71 N 0.180000 0.867400 0.209900
N72 N 0.724200 0.351500 0.696900
Br73 Br -0.009500 0.287790 1.207050
Br74 Br 1.009500 0.712210 -0.207050

#END
