./LABLOP_from_POSCAR.cif_generated_by_CrystalShift
_symmetry_cell_setting triclinic
_symmetry_space_group_name_H-M 'P 1'
loop_
_symmetry_equiv_pos_site_id
_symmetry_equiv_pos_as_xyz
1 x,y,z
_cell_length_a 6.962000
_cell_length_b 13.754000
_cell_length_c 22.974000
_cell_angle_alpha 90.000000
_cell_angle_beta 90.000000
_cell_angle_gamma 90.000000
_cell_volume 2199.883365
loop_
_atom_site_label
_atom_site_type_symbol
_atom_site_fract_x
_atom_site_fract_y
_atom_site_fract_z
H1 H 0.825000 0.531000 0.014000
H2 H 0.675000 0.031000 0.014000
H3 H 0.674000 -0.114000 -0.033000
H4 H 0.852000 -0.251000 -0.001000
H5 H 1.040000 -0.226000 0.083000
H6 H 1.026000 -0.080000 0.132000
H7 H 0.986000 0.116000 0.095000
H8 H 0.826000 0.386000 -0.033000
H9 H 0.648000 0.249000 -0.001000
H10 H 0.760000 0.129000 0.094000
H11 H 0.811000 0.031000 0.184000
H12 H 1.039000 0.350000 0.255000
H13 H 1.061000 0.356000 0.154000
H14 H 0.909000 0.291000 0.118000
H15 H 1.121000 0.260000 0.124000
H16 H 0.825000 0.969000 0.514000
H17 H 0.826000 1.114000 0.467000
H18 H -0.121000 0.760000 0.376000
H19 H 0.091000 0.791000 0.382000
H20 H -0.061000 0.856000 0.346000
H21 H -0.039000 0.850000 0.245000
H22 H 0.189000 0.531000 0.316000
H23 H 0.240000 0.629000 0.406000
H24 H 0.014000 0.616000 0.405000
H25 H -0.026000 0.420000 0.368000
H26 H -0.040000 0.274000 0.417000
H27 H 0.148000 0.249000 0.501000
H28 H 0.326000 0.386000 0.533000
H29 H 0.325000 0.531000 0.486000
H30 H 0.648000 1.251000 0.499000
H31 H 0.460000 1.226000 0.583000
H32 H 0.474000 1.080000 0.632000
H33 H 0.514000 0.884000 0.595000
H34 H 0.740000 0.871000 0.594000
H35 H 0.689000 0.969000 0.684000
H36 H 0.461000 0.650000 0.755000
H37 H 0.460000 0.274000 0.083000
H38 H 0.474000 0.420000 0.132000
H39 H 0.439000 0.644000 0.654000
H40 H 0.591000 0.709000 0.618000
H41 H 0.379000 0.740000 0.624000
H42 H 0.379000 0.760000 0.124000
H43 H 0.675000 0.469000 0.514000
H44 H 0.674000 0.614000 0.467000
H45 H 0.852000 0.751000 0.499000
H46 H 1.040000 0.726000 0.583000
H47 H 0.621000 0.260000 0.376000
H48 H 0.409000 0.291000 0.382000
H49 H 0.561000 0.356000 0.346000
H50 H 0.539000 0.350000 0.245000
H51 H 0.311000 0.031000 0.316000
H52 H 0.260000 0.129000 0.406000
H53 H 0.486000 0.116000 0.405000
H54 H 0.526000 -0.080000 0.368000
H55 H 0.540000 -0.226000 0.417000
H56 H 0.352000 -0.251000 0.501000
H57 H 0.174000 -0.114000 0.533000
H58 H 0.175000 0.031000 0.486000
H59 H 1.026000 0.580000 0.632000
H60 H 0.986000 0.384000 0.595000
H61 H 0.760000 0.371000 0.594000
H62 H 0.811000 0.469000 0.684000
H63 H 1.039000 0.150000 0.755000
H64 H 1.061000 0.144000 0.654000
H65 H 0.909000 0.209000 0.618000
H66 H 0.514000 0.616000 0.095000
H67 H 0.740000 0.629000 0.094000
H68 H 1.121000 0.240000 0.624000
H69 H 0.591000 0.791000 0.118000
H70 H 0.439000 0.856000 0.154000
H71 H 0.175000 0.469000 0.986000
H72 H 0.174000 0.614000 1.033000
H73 H 0.352000 0.751000 1.001000
H74 H 0.540000 0.726000 0.917000
H75 H 0.526000 0.580000 0.868000
H76 H -0.121000 0.740000 0.876000
H77 H 0.091000 0.709000 0.882000
H78 H -0.061000 0.644000 0.846000
H79 H -0.039000 0.650000 0.745000
H80 H 0.189000 0.969000 0.816000
H81 H 0.240000 0.871000 0.906000
H82 H 0.014000 0.884000 0.905000
H83 H -0.026000 1.080000 0.868000
H84 H -0.040000 1.226000 0.917000
H85 H 0.148000 1.251000 1.001000
H86 H 0.326000 1.114000 1.033000
H87 H 0.325000 0.969000 0.986000
H88 H 0.486000 0.384000 0.905000
H89 H 0.260000 0.371000 0.906000
H90 H 0.311000 0.469000 0.816000
H91 H 0.539000 0.150000 0.745000
H92 H 0.561000 0.144000 0.846000
H93 H 0.409000 0.209000 0.882000
H94 H 0.621000 0.240000 0.876000
H95 H 0.689000 0.531000 0.184000
H96 H 0.461000 0.850000 0.255000
C97 C 0.639300 0.910600 0.606100
C98 C 0.360700 0.410600 0.893900
C99 C 0.354600 0.509300 0.922100
C100 C 0.460700 0.585900 0.901700
C101 C 0.459200 0.674800 0.930000
C102 C 0.353600 0.685600 0.980300
C103 C 0.249700 0.609700 1.001300
C104 C 0.248600 0.521700 0.972600
C105 C 0.639300 0.589400 0.106100
C106 C 0.511000 0.205500 0.854500
C107 C 0.398800 0.349500 0.791600
C108 C 0.391400 0.357500 0.730900
C109 C 0.539300 0.414100 0.098300
C110 C 0.490500 0.216600 0.745700
C111 C 0.540800 0.325200 0.070000
C112 C 0.251400 1.021700 0.972600
C113 C 0.250300 1.109700 1.001300
C114 C 0.146400 1.185600 0.980300
C115 C 0.040800 1.174800 0.930000
C116 C 0.039300 1.085900 0.901700
C117 C 0.489000 0.794500 0.145500
C118 C 0.990500 0.216600 0.754300
C119 C 0.601200 0.650500 0.208400
C120 C 0.891400 0.357500 0.769100
C121 C 0.898800 0.349500 0.708400
C122 C 1.011000 0.205500 0.645500
C123 C 0.608600 0.642500 0.269100
C124 C 0.145400 1.009300 0.922100
C125 C 0.139300 0.910600 0.893900
C126 C 0.509500 0.783400 0.254300
C127 C 0.860700 0.410600 0.606100
C128 C 0.854600 0.509300 0.577900
C129 C 0.960700 0.585900 0.598300
C130 C 0.959200 0.674800 0.570000
C131 C 0.853600 0.685600 0.519700
C132 C 0.749700 0.609700 0.498700
C133 C 0.748600 0.521700 0.527400
C134 C 0.009500 0.783400 0.245700
C135 C 0.108600 0.642500 0.230900
C136 C -0.011000 0.705500 0.854500
C137 C 0.101200 0.849500 0.791600
C138 C 0.108600 0.857500 0.730900
C139 C 0.101200 0.650500 0.291600
C140 C 0.009500 0.716600 0.745700
C141 C -0.011000 0.794500 0.354500
C142 C 0.248600 -0.021700 0.472600
C143 C 0.249700 -0.109700 0.501300
C144 C 0.353600 -0.185600 0.480300
C145 C 0.459200 -0.174800 0.430000
C146 C 0.139300 0.589400 0.393900
C147 C 0.509500 0.716600 0.754300
C148 C 0.145400 0.490700 0.422100
C149 C 0.608600 0.857500 0.769100
C150 C 0.601200 0.849500 0.708400
C151 C 0.489000 0.705500 0.645500
C152 C 0.039300 0.414100 0.401700
C153 C 0.460700 -0.085900 0.401700
C154 C 0.751400 0.478300 0.027400
C155 C 0.040800 0.325200 0.430000
C156 C 0.645400 0.490700 0.077900
C157 C 0.645400 1.009300 0.577900
C158 C 0.539300 1.085900 0.598300
C159 C 0.540800 1.174800 0.570000
C160 C 0.646400 1.185600 0.519700
C161 C 0.750300 1.109700 0.498700
C162 C 0.751400 1.021700 0.527400
C163 C 0.354600 -0.009300 0.422100
C164 C 0.360700 0.089400 0.393900
C165 C 0.146400 0.314400 0.480300
C166 C 0.748600 -0.021700 0.027400
C167 C 0.511000 0.294500 0.354500
C168 C 0.398800 0.150500 0.291600
C169 C 0.391400 0.142500 0.230900
C170 C 0.749700 -0.109700 -0.001300
C171 C 0.490500 0.283400 0.245700
C172 C 0.853600 -0.185600 0.019700
C173 C 0.251400 0.478300 0.472600
C174 C 0.250300 0.390300 0.501300
C175 C 0.959200 -0.174800 0.070000
C176 C 0.990500 0.283400 0.254300
C177 C 0.960700 -0.085900 0.098300
C178 C 0.891400 0.142500 0.269100
C179 C 0.898800 0.150500 0.208400
C180 C 1.011000 0.294500 0.145500
C181 C 0.854600 -0.009300 0.077900
C182 C 0.750300 0.390300 -0.001300
C183 C 0.646400 0.314400 0.019700
C184 C 0.860700 0.089400 0.106100
N185 N 0.856000 0.083000 0.168800
N186 N 0.837300 0.060200 0.299500
N187 N 0.947700 0.226300 0.296800
N188 N 0.964800 0.242900 0.199200
N189 N 0.464800 0.242900 0.300800
N190 N 0.447700 0.226300 0.203200
N191 N 0.337300 0.060200 0.200500
N192 N 0.356000 0.083000 0.331200
N193 N 0.644000 0.917000 0.668800
N194 N 0.662700 0.939800 0.799500
N195 N 0.552300 0.773700 0.796800
N196 N 0.535200 0.757100 0.699200
N197 N 0.144000 0.583000 0.331200
N198 N 0.162700 0.560200 0.200500
N199 N 0.035200 0.757100 0.800800
N200 N 0.052300 0.773700 0.703200
N201 N 0.162700 0.939800 0.700500
N202 N 0.052300 0.726300 0.203200
N203 N 0.144000 0.917000 0.831200
N204 N 0.535200 0.742900 0.199200
N205 N 0.856000 0.417000 0.668800
N206 N 0.552300 0.726300 0.296800
N207 N 0.837300 0.439800 0.799500
N208 N 0.947700 0.273700 0.796800
N209 N 0.964800 0.257100 0.699200
N210 N 0.662700 0.560200 0.299500
N211 N 0.464800 0.257100 0.800800
N212 N 0.447700 0.273700 0.703200
N213 N 0.644000 0.583000 0.168800
N214 N 0.337300 0.439800 0.700500
N215 N 0.356000 0.417000 0.831200
N216 N 0.035200 0.742900 0.300800
O217 O 0.655300 0.559200 0.353500
O218 O 0.777900 -0.012400 0.270800
O219 O 0.844700 0.059200 0.353500
O220 O 0.722100 1.012400 0.770800
O221 O 0.655300 0.940800 0.853500
O222 O 0.777900 0.512400 0.770800
O223 O 0.844700 0.440800 0.853500
O224 O 0.277900 0.512400 0.729200
O225 O 0.344700 0.440800 0.646500
O226 O 0.222100 1.012400 0.729200
O227 O 0.155300 0.940800 0.646500
O228 O 0.277900 -0.012400 0.229200
O229 O 0.344700 0.059200 0.146500
O230 O 0.222100 0.487600 0.229200
O231 O 0.155300 0.559200 0.146500
O232 O 0.722100 0.487600 0.270800

#END
