./LABQEK_from_POSCAR.cif_generated_by_CrystalShift
_symmetry_cell_setting triclinic
_symmetry_space_group_name_H-M 'P 1'
loop_
_symmetry_equiv_pos_site_id
_symmetry_equiv_pos_as_xyz
1 x,y,z
_cell_length_a 11.381000
_cell_length_b 8.915000
_cell_length_c 18.918000
_cell_angle_alpha 90.000000
_cell_angle_beta 96.220000
_cell_angle_gamma 90.000000
_cell_volume 1908.151418
loop_
_atom_site_label
_atom_site_type_symbol
_atom_site_fract_x
_atom_site_fract_y
_atom_site_fract_z
H1 H 0.920900 1.762400 0.606200
H2 H 0.360800 0.854800 0.712400
H3 H 0.933900 1.684700 0.680400
H4 H 0.578600 0.697200 0.513100
H5 H 0.079100 1.262400 0.893800
H6 H 0.066100 1.184700 0.819600
H7 H 0.189100 1.248800 0.850900
H8 H -0.126300 0.439700 0.853800
H9 H -0.035800 0.463700 0.799100
H10 H -0.126600 0.591900 0.811500
H11 H 0.876100 -0.103200 0.786600
H12 H 0.867400 0.069700 0.791500
H13 H 0.771800 -0.019000 0.740900
H14 H 0.875900 0.048100 0.921300
H15 H 0.810900 1.748800 0.649100
H16 H 1.126300 0.939700 0.646200
H17 H 0.880100 -0.125100 0.916700
H18 H 0.781500 -0.047900 0.957000
H19 H 0.710900 -0.254800 0.826200
H20 H 0.609200 -0.148300 0.797600
H21 H 0.628700 -0.185000 0.879600
H22 H 1.035800 0.963700 0.700900
H23 H 1.126600 1.091900 0.688500
H24 H 0.408700 0.776200 0.861600
H25 H 0.294800 0.715400 0.818500
H26 H 0.123900 0.396800 0.713400
H27 H 0.132600 0.569700 0.708500
H28 H 0.308100 0.866500 0.947000
H29 H 0.481700 0.415900 0.210100
H30 H 0.360800 0.645200 0.212400
H31 H 0.578600 0.802800 0.013100
H32 H 0.722000 0.641100 -0.025600
H33 H 0.861400 0.434100 0.002100
H34 H 0.762400 0.324900 -0.028400
H35 H 0.889300 0.181400 0.041900
H36 H 0.691900 0.133500 0.053000
H37 H 0.705200 0.284600 0.181500
H38 H 0.591300 0.223800 0.138400
H39 H 0.371300 1.185000 0.120400
H40 H 0.390800 1.148300 0.202400
H41 H 0.289100 1.254800 0.173800
H42 H 0.218500 1.047900 0.043000
H43 H 0.119900 1.125100 0.083300
H44 H 0.124100 0.951900 0.078700
H45 H 0.228200 1.019000 0.259100
H46 H 0.132600 0.930300 0.208500
H47 H 0.123900 1.103200 0.213400
H48 H 1.126600 0.408100 0.188500
H49 H 1.035800 0.536300 0.200900
H50 H 1.126300 0.560300 0.146200
H51 H 0.810900 -0.248800 0.149100
H52 H 0.933900 -0.184700 0.180400
H53 H 0.920900 -0.262400 0.106200
H54 H 0.110700 0.818600 0.958100
H55 H 0.237600 0.675100 1.028400
H56 H 0.228200 0.481000 0.759100
H57 H 0.138600 0.565900 0.997900
H58 H 0.278000 0.358900 1.025600
H59 H 0.421400 0.197200 0.986900
H60 H 0.639200 0.354800 0.787600
H61 H 0.518300 0.584100 0.789900
H62 H 0.722000 0.858900 0.474400
H63 H 0.861400 1.065900 0.502100
H64 H 0.762400 1.175100 0.471600
H65 H 0.889300 1.318600 0.541900
H66 H 0.691900 1.366500 0.553000
H67 H 0.705200 1.215400 0.681500
H68 H 0.124100 0.548100 0.578700
H69 H 0.119900 0.374900 0.583300
H70 H 0.591300 1.276200 0.638400
H71 H 0.079100 -0.762400 0.393800
H72 H 0.066100 -0.684700 0.319600
H73 H 0.189100 -0.748800 0.350900
H74 H -0.126300 0.060300 0.353800
H75 H 0.218500 0.452100 0.543000
H76 H 0.289100 0.245200 0.673800
H77 H -0.035800 0.036300 0.299100
H78 H -0.126600 -0.091900 0.311500
H79 H 0.390800 0.351700 0.702400
H80 H 0.371300 0.315000 0.620400
H81 H 0.876100 0.603200 0.286600
H82 H 0.518300 -0.084100 0.289900
H83 H 0.639200 0.145200 0.287600
H84 H 0.421400 0.302800 0.486900
H85 H 0.278000 0.141100 0.525600
H86 H 0.138600 -0.065900 0.497900
H87 H 0.237600 -0.175100 0.528400
H88 H 0.110700 -0.318600 0.458100
H89 H 0.308100 -0.366500 0.447000
H90 H 0.294800 -0.215400 0.318500
H91 H 0.408700 -0.276200 0.361600
H92 H 0.628700 0.685000 0.379600
H93 H 0.609200 0.648300 0.297600
H94 H 0.710900 0.754800 0.326200
H95 H 0.781500 0.547900 0.457000
H96 H 0.880100 0.625100 0.416700
H97 H 0.875900 0.451900 0.421300
H98 H 0.771800 0.519000 0.240900
H99 H 0.867400 0.430300 0.291500
H100 H 0.481700 1.084100 0.710100
C101 C 0.224800 -0.472800 0.363500
C102 C -0.078100 -0.013200 0.333700
C103 C 0.071200 -0.188700 0.371000
C104 C 0.821700 0.520700 0.285200
C105 C 0.827900 0.540700 0.417700
C106 C 0.666700 0.668000 0.337500
C107 C 0.514900 0.498700 0.820500
C108 C 0.580800 0.373500 0.819500
C109 C 0.749600 0.535600 0.347600
C110 C 0.462300 0.342000 0.907900
C111 C 0.404100 0.292600 0.964600
C112 C 0.320800 0.389200 0.987000
C113 C 0.295100 0.529200 0.956200
C114 C 0.202500 0.627600 0.985700
C115 C 0.154400 0.748100 0.932800
C116 C 0.258300 0.833900 0.905700
C117 C 0.333700 0.729500 0.865600
C118 C 0.354700 0.579000 0.900500
C119 C 0.439000 0.482100 0.876400
C120 C 0.600000 0.134300 0.887600
C121 C 0.600000 0.365700 0.387600
C122 C 0.439000 0.017900 0.376400
C123 C 0.749600 -0.035600 0.847600
C124 C 0.666700 -0.168000 0.837500
C125 C 0.827900 -0.040700 0.917700
C126 C 0.821700 -0.020700 0.785200
C127 C 0.071200 0.688700 0.871000
C128 C 0.354700 -0.079000 0.400500
C129 C 0.333700 -0.229500 0.365600
C130 C -0.078100 0.513200 0.833700
C131 C 0.224800 0.972800 0.863500
C132 C 0.258300 -0.333900 0.405700
C133 C 0.154400 -0.248100 0.432800
C134 C 0.118400 1.199900 0.862300
C135 C 0.202500 -0.127600 0.485700
C136 C 0.295100 -0.029200 0.456200
C137 C 0.320800 0.110800 0.487000
C138 C 0.404100 0.207400 0.464600
C139 C 0.462300 0.158000 0.407900
C140 C 0.580800 0.126500 0.319500
C141 C 0.514900 0.001300 0.320500
C142 C 0.881600 -0.199900 0.137700
C143 C 0.775200 0.027200 0.136500
C144 C 1.078100 0.486800 0.166300
C145 C 0.928800 0.311300 0.129000
C146 C 0.178300 1.020700 0.214800
C147 C 0.172100 1.040700 0.082300
C148 C 0.333300 1.168000 0.162500
C149 C 0.250400 1.035600 0.152400
C150 C 0.400000 0.865700 0.112400
C151 C 0.561000 0.517900 0.123600
C152 C 0.645300 0.421000 0.099500
C153 C 0.666300 0.270500 0.134400
C154 C 0.741700 0.166100 0.094300
C155 C 0.845600 0.251900 0.067200
C156 C 0.797500 0.372400 0.014300
C157 C 0.704900 0.470800 0.043800
C158 C 0.679200 0.610800 0.013000
C159 C 0.595900 0.707400 0.035400
C160 C 0.485100 0.998700 0.679500
C161 C 0.419200 0.873500 0.680500
C162 C 0.537700 0.658000 0.092100
C163 C 0.537700 0.842000 0.592100
C164 C 0.595900 0.792600 0.535400
C165 C 0.679200 0.889200 0.513000
C166 C 0.704900 1.029200 0.543800
C167 C 0.797500 1.127600 0.514300
C168 C 0.845600 1.248100 0.567200
C169 C 0.741700 1.333900 0.594300
C170 C 0.666300 1.229500 0.634400
C171 C 0.645300 1.079000 0.599500
C172 C 0.561000 0.982100 0.623600
C173 C 0.400000 0.634300 0.612400
C174 C 0.419200 0.626500 0.180500
C175 C 0.118400 -0.699900 0.362300
C176 C 0.250400 0.464400 0.652400
C177 C 0.333300 0.332000 0.662500
C178 C 0.172100 0.459300 0.582300
C179 C 0.178300 0.479300 0.714800
C180 C 0.928800 1.188700 0.629000
C181 C 0.881600 1.699900 0.637700
C182 C 0.775200 1.472800 0.636500
C183 C 1.078100 1.013200 0.666300
C184 C 0.485100 0.501300 0.179500
N185 N 0.551100 0.226000 0.372100
N186 N 0.448900 0.726000 0.127900
N187 N 0.551100 0.274000 0.872100
N188 N 0.448900 0.774000 0.627900
O189 O 0.427600 0.553400 0.566380
O190 O 0.318400 0.607000 0.656830
O191 O 0.148400 1.057800 0.895500
O192 O 0.264400 1.010500 0.809680
O193 O 0.006200 0.573800 0.889550
O194 O 0.061900 0.742700 0.812180
O195 O 0.681600 0.107000 0.843170
O196 O 0.572400 0.053400 0.933620
O197 O 0.938100 1.242700 0.687820
O198 O 0.851600 1.557800 0.604500
O199 O 0.264400 -0.510500 0.309680
O200 O 0.006200 -0.073800 0.389550
O201 O 0.061900 -0.242700 0.312180
O202 O 0.681600 0.393000 0.343170
O203 O 0.572400 0.446600 0.433620
O204 O 0.735600 1.510500 0.690320
O205 O 0.851600 -0.057800 0.104500
O206 O 0.735600 -0.010500 0.190320
O207 O 0.993800 0.426200 0.110450
O208 O 0.938100 0.257300 0.187820
O209 O 0.318400 0.893000 0.156830
O210 O 0.427600 0.946600 0.066380
O211 O 0.148400 -0.557800 0.395500
O212 O 0.993800 1.073800 0.610450

#END
