
#######################################################################
#
#                 Cambridge Crystallographic Data Centre
#                                CCDC 
#
#######################################################################
#
# If this CIF has been generated from an entry in the Cambridge 
# Structural Database, then it will include bibliographic, chemical, 
# crystal, experimental, refinement or atomic coordinate data resulting 
# from the CCDC's data processing and validation procedures.
#
#######################################################################

data_LABQOU
_symmetry_cell_setting           monoclinic
_symmetry_space_group_name_H-M   'P 21/c'
_symmetry_Int_Tables_number      14
_space_group_name_Hall           '-P 2ybc'
loop_
_symmetry_equiv_pos_site_id
_symmetry_equiv_pos_as_xyz
1 x,y,z
2 -x,1/2+y,1/2-z
3 -x,-y,-z
4 x,1/2-y,1/2+z
_cell_length_a                   17.395(3)
_cell_length_b                   7.419(2)
_cell_length_c                   11.989(2)
_cell_angle_alpha                90
_cell_angle_beta                 98.80(1)
_cell_angle_gamma                90
_cell_volume                     1529.01
loop_
_atom_site_label
_atom_site_type_symbol
_atom_site_fract_x
_atom_site_fract_y
_atom_site_fract_z
O1 O 0.56865(6) 0.4195(2) 0.1908(1)
O2 O 0.58792(7) 0.1586(2) 0.0976(1)
O3 O 0.67218(8) 0.6933(2) 0.3611(1)
O4 O 0.99225(8) 0.2348(2) 0.6268(1)
C1 C 0.76178(10) 0.5482(2) 0.2067(1)
C2 C 0.6981(1) 0.5965(3) 0.1106(1)
C3 C 0.6577(1) 0.4280(3) 0.0582(1)
C4 C 0.62629(10) 0.3159(2) 0.1463(1)
C5 C 0.68942(8) 0.2607(2) 0.2438(1)
C6 C 0.7463(1) 0.1203(2) 0.2113(2)
C7 C 0.7968(1) 0.0501(2) 0.3166(2)
C8 C 0.83283(9) 0.1978(2) 0.3937(1)
C9 C 0.80244(8) 0.3738(2) 0.3855(1)
C10 C 0.73360(8) 0.4284(2) 0.2969(1)
C11 C 0.83888(9) 0.5034(2) 0.4597(1)
C12 C 0.90196(9) 0.4644(2) 0.5411(1)
C13 C 0.93046(9) 0.2891(2) 0.5496(1)
C14 C 0.89632(10) 0.1592(2) 0.4755(2)
C15 C 0.5034(1) 0.3064(3) 0.1930(2)
C16 C 0.5069(1) 0.1814(3) 0.0972(2)
C17 C 0.67952(8) 0.5327(2) 0.3620(1)
C18 C 1.0207(1) 0.3572(3) 0.7142(2)
H1 H 0.802 0.486 0.176
H2 H 0.782 0.657 0.242
H3 H 0.661 0.671 0.139
H4 H 0.720 0.660 0.055
H5 H 0.616 0.463 0.002
H6 H 0.694 0.358 0.025
H7 H 0.664 0.208 0.300
H8 H 0.718 0.023 0.173
H9 H 0.778 0.174 0.163
H10 H 0.766 -0.023 0.357
H11 H 0.837 -0.021 0.294
H12 H 0.820 0.623 0.454
H13 H 0.925 0.556 0.590
H14 H 0.917 0.040 0.481
H15 H 0.507 0.243 0.262
H16 H 0.456 0.374 0.182
H17 H 0.483 0.233 0.028
H18 H 0.483 0.070 0.109
H19 H 0.649 0.465 0.407
H20 H 1.063 0.304 0.762
H21 H 1.037 0.465 0.682
H22 H 0.980 0.385 0.757
O1 O 0.43135(6) 0.9195(2) 0.3092(1)
O2 O 0.41208(7) 0.6586(2) 0.4024(1)
O3 O 0.32782(8) 1.1933(2) 0.1389(1)
O4 O 0.00775(8) 0.7348(2) -0.1268(1)
C1 C 0.23822(10) 1.0482(2) 0.2933(1)
C2 C 0.3019(1) 1.0965(3) 0.3894(1)
C3 C 0.3423(1) 0.9280(3) 0.4418(1)
C4 C 0.37371(10) 0.8159(2) 0.3537(1)
C5 C 0.31058(8) 0.7607(2) 0.2562(1)
C6 C 0.2537(1) 0.6203(2) 0.2887(2)
C7 C 0.2032(1) 0.5501(2) 0.1834(2)
C8 C 0.16717(9) 0.6978(2) 0.1063(1)
C9 C 0.19756(8) 0.8738(2) 0.1145(1)
C10 C 0.26640(8) 0.9284(2) 0.2031(1)
C11 C 0.16112(9) 1.0034(2) 0.0403(1)
C12 C 0.09804(9) 0.9644(2) -0.0411(1)
C13 C 0.06954(9) 0.7891(2) -0.0496(1)
C14 C 0.10368(10) 0.6592(2) 0.0245(2)
C15 C 0.4966(1) 0.8064(3) 0.3070(2)
C16 C 0.4931(1) 0.6814(3) 0.4028(2)
C17 C 0.32048(8) 1.0327(2) 0.1380(1)
C18 C -0.0207(1) 0.8572(3) -0.2142(2)
H1 H 0.198 0.986 0.324
H2 H 0.218 1.157 0.258
H3 H 0.339 1.171 0.361
H4 H 0.280 1.160 0.445
H5 H 0.384 0.963 0.498
H6 H 0.306 0.858 0.475
H7 H 0.336 0.708 0.200
H8 H 0.282 0.523 0.327
H9 H 0.222 0.674 0.337
H10 H 0.234 0.477 0.143
H11 H 0.163 0.479 0.206
H12 H 0.180 1.123 0.046
H13 H 0.075 1.056 -0.090
H14 H 0.083 0.540 0.019
H15 H 0.493 0.743 0.238
H16 H 0.544 0.874 0.318
H17 H 0.517 0.733 0.472
H18 H 0.517 0.570 0.391
H19 H 0.351 0.965 0.093
H20 H -0.063 0.804 -0.262
H21 H -0.037 0.965 -0.182
H22 H 0.020 0.885 -0.257
O1 O 0.43135(6) 0.5805(2) 0.8092(1)
O2 O 0.41208(7) 0.8414(2) 0.9024(1)
O3 O 0.32782(8) 0.3067(2) 0.6389(1)
O4 O 0.00775(8) 0.7652(2) 0.3732(1)
C1 C 0.23822(10) 0.4518(2) 0.7933(1)
C2 C 0.3019(1) 0.4035(3) 0.8894(1)
C3 C 0.3423(1) 0.5720(3) 0.9418(1)
C4 C 0.37371(10) 0.6841(2) 0.8537(1)
C5 C 0.31058(8) 0.7393(2) 0.7562(1)
C6 C 0.2537(1) 0.8797(2) 0.7887(2)
C7 C 0.2032(1) 0.9499(2) 0.6834(2)
C8 C 0.16717(9) 0.8022(2) 0.6063(1)
C9 C 0.19756(8) 0.6262(2) 0.6145(1)
C10 C 0.26640(8) 0.5716(2) 0.7031(1)
C11 C 0.16112(9) 0.4966(2) 0.5403(1)
C12 C 0.09804(9) 0.5356(2) 0.4589(1)
C13 C 0.06954(9) 0.7109(2) 0.4504(1)
C14 C 0.10368(10) 0.8408(2) 0.5245(2)
C15 C 0.4966(1) 0.6936(3) 0.8070(2)
C16 C 0.4931(1) 0.8186(3) 0.9028(2)
C17 C 0.32048(8) 0.4673(2) 0.6380(1)
C18 C -0.0207(1) 0.6428(3) 0.2858(2)
H1 H 0.198 0.514 0.824
H2 H 0.218 0.343 0.758
H3 H 0.339 0.329 0.861
H4 H 0.280 0.340 0.945
H5 H 0.384 0.537 0.998
H6 H 0.306 0.642 0.975
H7 H 0.336 0.792 0.700
H8 H 0.282 0.977 0.827
H9 H 0.222 0.826 0.837
H10 H 0.234 1.023 0.643
H11 H 0.163 1.021 0.706
H12 H 0.180 0.377 0.546
H13 H 0.075 0.444 0.410
H14 H 0.083 0.960 0.519
H15 H 0.493 0.757 0.738
H16 H 0.544 0.626 0.818
H17 H 0.517 0.767 0.972
H18 H 0.517 0.930 0.891
H19 H 0.351 0.535 0.593
H20 H -0.063 0.696 0.238
H21 H -0.037 0.535 0.318
H22 H 0.020 0.615 0.243
O1 O 0.56865(6) 0.0805(2) 0.6908(1)
O2 O 0.58792(7) 0.3414(2) 0.5976(1)
O3 O 0.67218(8) -0.1933(2) 0.8611(1)
O4 O 0.99225(8) 0.2652(2) 1.1268(1)
C1 C 0.76178(10) -0.0482(2) 0.7067(1)
C2 C 0.6981(1) -0.0965(3) 0.6106(1)
C3 C 0.6577(1) 0.0720(3) 0.5582(1)
C4 C 0.62629(10) 0.1841(2) 0.6463(1)
C5 C 0.68942(8) 0.2393(2) 0.7438(1)
C6 C 0.7463(1) 0.3797(2) 0.7113(2)
C7 C 0.7968(1) 0.4499(2) 0.8166(2)
C8 C 0.83283(9) 0.3022(2) 0.8937(1)
C9 C 0.80244(8) 0.1262(2) 0.8855(1)
C10 C 0.73360(8) 0.0716(2) 0.7969(1)
C11 C 0.83888(9) -0.0034(2) 0.9597(1)
C12 C 0.90196(9) 0.0356(2) 1.0411(1)
C13 C 0.93046(9) 0.2109(2) 1.0496(1)
C14 C 0.89632(10) 0.3408(2) 0.9755(2)
C15 C 0.5034(1) 0.1936(3) 0.6930(2)
C16 C 0.5069(1) 0.3186(3) 0.5972(2)
C17 C 0.67952(8) -0.0327(2) 0.8620(1)
C18 C 1.0207(1) 0.1428(3) 1.2142(2)
H1 H 0.802 0.014 0.676
H2 H 0.782 -0.157 0.742
H3 H 0.661 -0.171 0.639
H4 H 0.720 -0.160 0.555
H5 H 0.616 0.037 0.502
H6 H 0.694 0.142 0.525
H7 H 0.664 0.292 0.800
H8 H 0.718 0.477 0.673
H9 H 0.778 0.326 0.663
H10 H 0.766 0.523 0.857
H11 H 0.837 0.521 0.794
H12 H 0.820 -0.123 0.954
H13 H 0.925 -0.056 1.090
H14 H 0.917 0.460 0.981
H15 H 0.507 0.257 0.762
H16 H 0.456 0.126 0.682
H17 H 0.483 0.267 0.528
H18 H 0.483 0.430 0.609
H19 H 0.649 0.035 0.907
H20 H 1.063 0.196 1.262
H21 H 1.037 0.035 1.182
H22 H 0.980 0.115 1.257

#END
