
#######################################################################
#
#                 Cambridge Crystallographic Data Centre
#                                CCDC 
#
#######################################################################
#
# If this CIF has been generated from an entry in the Cambridge 
# Structural Database, then it will include bibliographic, chemical, 
# crystal, experimental, refinement or atomic coordinate data resulting 
# from the CCDC's data processing and validation procedures.
#
#######################################################################

data_LABROV
_symmetry_cell_setting           monoclinic
_symmetry_space_group_name_H-M   'P 21/n'
_symmetry_Int_Tables_number      14
_space_group_name_Hall           '-P 2yn'
loop_
_symmetry_equiv_pos_site_id
_symmetry_equiv_pos_as_xyz
1 x,y,z
2 1/2-x,1/2+y,1/2-z
3 -x,-y,-z
4 1/2+x,1/2-y,1/2+z
_cell_length_a                   11.5961(8)
_cell_length_b                   3.6323(4)
_cell_length_c                   18.531(1)
_cell_angle_alpha                90
_cell_angle_beta                 94.020(6)
_cell_angle_gamma                90
_cell_volume                     778.615
loop_
_atom_site_label
_atom_site_type_symbol
_atom_site_fract_x
_atom_site_fract_y
_atom_site_fract_z
O1 O 0.4263(1) 0.5576(6) 0.37376(8)
O2 O 0.3993(1) 0.2770(6) 0.50631(9)
O3 O 0.1797(1) 0.0761(5) 0.54529(8)
O4 O 0.0154(1) 0.4181(5) 0.24199(8)
O5 O -0.1831(1) 0.6263(6) 0.29423(9)
N1 N -0.0858(2) 0.5377(6) 0.3390(1)
C1 C 0.1130(2) 0.3939(6) 0.3609(1)
C2 C 0.2219(2) 0.4892(7) 0.3395(1)
C3 C 0.3175(2) 0.4545(7) 0.3882(1)
C4 C 0.3057(2) 0.3120(6) 0.4573(1)
C5 C 0.1964(2) 0.2138(6) 0.4780(1)
C6 C 0.0999(2) 0.2586(6) 0.4302(1)
C7 C 0.0114(2) 0.4496(6) 0.3084(1)
H1 H 0.231(2) 0.604(9) 0.292(1)
H2 H 0.432(2) 0.650(9) 0.333(1)
H3 H 0.461 0.332 0.484
H4 H 0.254(3) 0.02(1) 0.567(2)
H5 H 0.026(2) 0.196(8) 0.443(1)
H6 H -0.088(3) 0.62(1) 0.383(2)
H7 H -0.232(3) 0.48(1) 0.307(2)
O1 O 0.0737(1) 1.0576(6) 0.12624(8)
O2 O 0.1007(1) 0.7770(6) -0.00631(9)
O3 O 0.3203(1) 0.5761(5) -0.04529(8)
O4 O 0.4846(1) 0.9181(5) 0.25801(8)
O5 O 0.6831(1) 1.1263(6) 0.20577(9)
N1 N 0.5858(2) 1.0377(6) 0.1610(1)
C1 C 0.3870(2) 0.8939(6) 0.1391(1)
C2 C 0.2781(2) 0.9892(7) 0.1605(1)
C3 C 0.1825(2) 0.9545(7) 0.1118(1)
C4 C 0.1943(2) 0.8120(6) 0.0427(1)
C5 C 0.3036(2) 0.7138(6) 0.0220(1)
C6 C 0.4001(2) 0.7586(6) 0.0698(1)
C7 C 0.4886(2) 0.9496(6) 0.1916(1)
H1 H 0.269(2) 1.104(9) 0.208(1)
H2 H 0.068(2) 1.150(9) 0.167(1)
H3 H 0.039 0.832 0.016
H4 H 0.246(3) 0.52(1) -0.067(2)
H5 H 0.474(2) 0.696(8) 0.057(1)
H6 H 0.588(3) 1.12(1) 0.117(2)
H7 H 0.732(3) 0.98(1) 0.193(2)
O1 O 0.5737(1) 0.4424(6) 0.62624(8)
O2 O 0.6007(1) 0.7230(6) 0.49369(9)
O3 O 0.8203(1) 0.9239(5) 0.45471(8)
O4 O 0.9846(1) 0.5819(5) 0.75801(8)
O5 O 1.1831(1) 0.3737(6) 0.70577(9)
N1 N 1.0858(2) 0.4623(6) 0.6610(1)
C1 C 0.8870(2) 0.6061(6) 0.6391(1)
C2 C 0.7781(2) 0.5108(7) 0.6605(1)
C3 C 0.6825(2) 0.5455(7) 0.6118(1)
C4 C 0.6943(2) 0.6880(6) 0.5427(1)
C5 C 0.8036(2) 0.7862(6) 0.5220(1)
C6 C 0.9001(2) 0.7414(6) 0.5698(1)
C7 C 0.9886(2) 0.5504(6) 0.6916(1)
H1 H 0.769(2) 0.396(9) 0.708(1)
H2 H 0.568(2) 0.350(9) 0.667(1)
H3 H 0.539 0.668 0.516
H4 H 0.746(3) 0.98(1) 0.433(2)
H5 H 0.974(2) 0.804(8) 0.557(1)
H6 H 1.088(3) 0.38(1) 0.617(2)
H7 H 1.232(3) 0.52(1) 0.693(2)
O1 O 0.9263(1) -0.0576(6) 0.87376(8)
O2 O 0.8993(1) 0.2230(6) 1.00631(9)
O3 O 0.6797(1) 0.4239(5) 1.04529(8)
O4 O 0.5154(1) 0.0819(5) 0.74199(8)
O5 O 0.3169(1) -0.1263(6) 0.79423(9)
N1 N 0.4142(2) -0.0377(6) 0.8390(1)
C1 C 0.6130(2) 0.1061(6) 0.8609(1)
C2 C 0.7219(2) 0.0108(7) 0.8395(1)
C3 C 0.8175(2) 0.0455(7) 0.8882(1)
C4 C 0.8057(2) 0.1880(6) 0.9573(1)
C5 C 0.6964(2) 0.2862(6) 0.9780(1)
C6 C 0.5999(2) 0.2414(6) 0.9302(1)
C7 C 0.5114(2) 0.0504(6) 0.8084(1)
H1 H 0.731(2) -0.104(9) 0.792(1)
H2 H 0.932(2) -0.150(9) 0.833(1)
H3 H 0.961 0.168 0.984
H4 H 0.754(3) 0.48(1) 1.067(2)
H5 H 0.526(2) 0.304(8) 0.943(1)
H6 H 0.412(3) -0.12(1) 0.883(2)
H7 H 0.268(3) 0.02(1) 0.807(2)
O6 O 0.3516(2) 0.7972(7) 0.6358(1)
H8 H 0.388(4) 0.88(2) 0.672(2)
H9 H 0.400 0.584 0.617
O6 O 0.1484(2) 0.2972(7) 0.8642(1)
H8 H 0.112(4) 0.38(2) 0.828(2)
H9 H 0.100 0.084 0.883
O6 O 0.6484(2) 0.2028(7) 0.3642(1)
H8 H 0.612(4) 0.12(2) 0.328(2)
H9 H 0.600 0.416 0.383
O6 O 0.8516(2) 0.7028(7) 0.1358(1)
H8 H 0.888(4) 0.62(2) 0.172(2)
H9 H 0.900 0.916 0.117

#END
