./LABROV_from_POSCAR.cif_generated_by_CrystalShift
_symmetry_cell_setting triclinic
_symmetry_space_group_name_H-M 'P 1'
loop_
_symmetry_equiv_pos_site_id
_symmetry_equiv_pos_as_xyz
1 x,y,z
_cell_length_a 11.596100
_cell_length_b 3.632300
_cell_length_c 18.531000
_cell_angle_alpha 90.000000
_cell_angle_beta 94.020000
_cell_angle_gamma 90.000000
_cell_volume 778.614848
loop_
_atom_site_label
_atom_site_type_symbol
_atom_site_fract_x
_atom_site_fract_y
_atom_site_fract_z
H1 H 0.900000 0.916000 0.117000
H2 H 0.888000 0.620000 0.172000
H3 H 0.600000 0.416000 0.383000
H4 H 0.612000 0.120000 0.328000
H5 H 0.100000 0.084000 0.883000
H6 H 0.112000 0.380000 0.828000
H7 H 1.088000 0.380000 0.617000
H8 H 0.974000 0.804000 0.557000
H9 H 0.746000 0.980000 0.433000
H10 H 0.539000 0.668000 0.516000
H11 H 0.568000 0.350000 0.667000
H12 H 0.769000 0.396000 0.708000
H13 H 0.731000 -0.104000 0.792000
H14 H 0.231000 0.604000 0.292000
H15 H 0.432000 0.650000 0.333000
H16 H 0.461000 0.332000 0.484000
H17 H 0.254000 0.020000 0.567000
H18 H 0.026000 0.196000 0.443000
H19 H -0.088000 0.620000 0.383000
H20 H -0.232000 0.480000 0.307000
H21 H 0.400000 0.584000 0.617000
H22 H 0.388000 0.880000 0.672000
H23 H 0.268000 0.020000 0.807000
H24 H 0.412000 -0.120000 0.883000
H25 H 0.526000 0.304000 0.943000
H26 H 0.754000 0.480000 1.067000
H27 H 0.932000 -0.150000 0.833000
H28 H 0.961000 0.168000 0.984000
H29 H 0.732000 0.980000 0.193000
H30 H 0.588000 1.120000 0.117000
H31 H 1.232000 0.520000 0.693000
H32 H 0.474000 0.696000 0.057000
H33 H 0.246000 0.520000 -0.067000
H34 H 0.269000 1.104000 0.208000
H35 H 0.068000 1.150000 0.167000
H36 H 0.039000 0.832000 0.016000
C37 C 0.488600 0.949600 0.191600
C38 C 0.400100 0.758600 0.069800
C39 C 0.194300 0.812000 0.042700
C40 C 0.182500 0.954500 0.111800
C41 C 0.278100 0.989200 0.160500
C42 C 0.387000 0.893900 0.139100
C43 C 0.011400 0.449600 0.308400
C44 C 0.511400 0.050400 0.808400
C45 C 0.599900 0.241400 0.930200
C46 C 0.696400 0.286200 0.978000
C47 C 0.887000 0.606100 0.639100
C48 C 0.778100 0.510800 0.660500
C49 C 0.682500 0.545500 0.611800
C50 C 0.694300 0.688000 0.542700
C51 C 0.803600 0.786200 0.522000
C52 C 0.900100 0.741400 0.569800
C53 C 0.988600 0.550400 0.691600
C54 C 0.099900 0.258600 0.430200
C55 C 0.196400 0.213800 0.478000
C56 C 0.305700 0.312000 0.457300
C57 C 0.317500 0.454500 0.388200
C58 C 0.221900 0.489200 0.339500
C59 C 0.113000 0.393900 0.360900
C60 C 0.303600 0.713800 0.022000
C61 C 0.805700 0.188000 0.957300
C62 C 0.817500 0.045500 0.888200
C63 C 0.721900 0.010800 0.839500
C64 C 0.613000 0.106100 0.860900
N65 N -0.085800 0.537700 0.339000
N66 N 0.414200 -0.037700 0.839000
N67 N 1.085800 0.462300 0.661000
N68 N 0.585800 1.037700 0.161000
O69 O 0.899300 0.223000 1.006310
O70 O 0.926300 -0.057600 0.873760
O71 O 0.515400 0.081900 0.741990
O72 O 1.183100 0.373700 0.705770
O73 O 0.984600 0.581900 0.758010
O74 O 0.820300 0.923900 0.454710
O75 O 0.600700 0.723000 0.493690
O76 O 0.573700 0.442400 0.626240
O77 O 0.679700 0.423900 1.045290
O78 O 0.683100 1.126300 0.205770
O79 O 0.484600 0.918100 0.258010
O80 O 0.320300 0.576100 -0.045290
O81 O 0.351600 0.797200 0.635800
O82 O 0.100700 0.777000 -0.006310
O83 O 0.073700 1.057600 0.126240
O84 O 0.148400 0.297200 0.864200
O85 O 0.316900 -0.126300 0.794230
O86 O -0.183100 0.626300 0.294230
O87 O 0.648400 0.202800 0.364200
O88 O 0.015400 0.418100 0.241990
O89 O 0.179700 0.076100 0.545290
O90 O 0.851600 0.702800 0.135800
O91 O 0.399300 0.277000 0.506310
O92 O 0.426300 0.557600 0.373760

#END
