
#######################################################################
#
#                 Cambridge Crystallographic Data Centre
#                                CCDC 
#
#######################################################################
#
# If this CIF has been generated from an entry in the Cambridge 
# Structural Database, then it will include bibliographic, chemical, 
# crystal, experimental, refinement or atomic coordinate data resulting 
# from the CCDC's data processing and validation procedures.
#
#######################################################################

data_LABTIR
_symmetry_cell_setting           orthorhombic
_symmetry_space_group_name_H-M   'P 21 21 21'
_symmetry_Int_Tables_number      19
_space_group_name_Hall           'P 2ac 2ab'
loop_
_symmetry_equiv_pos_site_id
_symmetry_equiv_pos_as_xyz
1 x,y,z
2 1/2+x,1/2-y,-z
3 -x,1/2+y,1/2-z
4 1/2-x,-y,1/2+z
_cell_length_a                   6.230
_cell_length_b                   10.701
_cell_length_c                   15.550
_cell_angle_alpha                90
_cell_angle_beta                 90
_cell_angle_gamma                90
_cell_volume                     1036.68
loop_
_atom_site_label
_atom_site_type_symbol
_atom_site_fract_x
_atom_site_fract_y
_atom_site_fract_z
N1 N 0.8175(8) 0.6788(8) 0.1877(3)
C1 C 0.742(1) 0.7092(7) 0.1094(4)
O1 O 0.8468(8) 0.7307(5) 0.0451(3)
N2 N 0.5227(9) 0.7143(5) 0.1162(3)
C2 C 0.452(1) 0.6812(7) 0.1949(4)
O2 O 0.2674(6) 0.6731(6) 0.2190(3)
C3 C 0.648(1) 0.6604(6) 0.2509(3)
C4 C 0.659(1) 0.7537(5) 0.3244(3)
C5 C 0.828(1) 0.8328(7) 0.3361(4)
C6 C 0.829(1) 0.9152(7) 0.4046(4)
C7 C 0.658(1) 0.9223(7) 0.4596(4)
C8 C 0.491(1) 0.8427(8) 0.4483(4)
C9 C 0.488(1) 0.7590(7) 0.3818(4)
C10 C 0.647(1) 0.5234(6) 0.2840(4)
C11 C 0.843(1) 0.4913(6) 0.3386(4)
H1 H 0.9051 0.6710 0.1958
H2 H 0.4231 0.7263 0.0726
H3 H 0.9613 0.8230 0.2980
H4 H 0.9352 0.9479 0.4167
H5 H 0.6694 0.9775 0.5061
H6 H 0.3506 0.8426 0.4895
H7 H 0.3125 0.7123 0.3738
H8 H 0.6698 0.4649 0.2260
H9 H 0.5013 0.5103 0.3152
H10 H 0.8112 0.5429 0.3863
H11 H 0.8358 0.3924 0.3566
H12 H 0.9690 0.5094 0.3083
N1 N 0.3175(8) 0.8212(8) 0.8123(3)
C1 C 0.242(1) 0.7908(7) 0.8906(4)
O1 O 0.3468(8) 0.7693(5) 0.9549(3)
N2 N 0.0227(9) 0.7857(5) 0.8838(3)
C2 C -0.048(1) 0.8188(7) 0.8051(4)
O2 O -0.2326(6) 0.8269(6) 0.7810(3)
C3 C 0.148(1) 0.8396(6) 0.7491(3)
C4 C 0.159(1) 0.7463(5) 0.6756(3)
C5 C 0.328(1) 0.6672(7) 0.6639(4)
C6 C 0.329(1) 0.5848(7) 0.5954(4)
C7 C 0.158(1) 0.5777(7) 0.5404(4)
C8 C -0.009(1) 0.6573(8) 0.5517(4)
C9 C -0.012(1) 0.7410(7) 0.6182(4)
C10 C 0.147(1) 0.9766(6) 0.7160(4)
C11 C 0.343(1) 1.0087(6) 0.6614(4)
H1 H 0.4051 0.8290 0.8042
H2 H -0.0769 0.7737 0.9274
H3 H 0.4613 0.6770 0.7020
H4 H 0.4352 0.5521 0.5833
H5 H 0.1694 0.5225 0.4939
H6 H -0.1494 0.6574 0.5105
H7 H -0.1875 0.7877 0.6262
H8 H 0.1698 1.0351 0.7740
H9 H 0.0013 0.9897 0.6848
H10 H 0.3112 0.9571 0.6137
H11 H 0.3358 1.1076 0.6434
H12 H 0.4690 0.9906 0.6917
N1 N 0.1825(8) 0.1788(8) 0.3123(3)
C1 C 0.258(1) 0.2092(7) 0.3906(4)
O1 O 0.1532(8) 0.2307(5) 0.4549(3)
N2 N 0.4773(9) 0.2143(5) 0.3838(3)
C2 C 0.548(1) 0.1812(7) 0.3051(4)
O2 O 0.7326(6) 0.1731(6) 0.2810(3)
C3 C 0.352(1) 0.1604(6) 0.2491(3)
C4 C 0.341(1) 0.2537(5) 0.1756(3)
C5 C 0.172(1) 0.3328(7) 0.1639(4)
C6 C 0.171(1) 0.4152(7) 0.0954(4)
C7 C 0.342(1) 0.4223(7) 0.0404(4)
C8 C 0.509(1) 0.3427(8) 0.0517(4)
C9 C 0.512(1) 0.2590(7) 0.1182(4)
C10 C 0.353(1) 0.0234(6) 0.2160(4)
C11 C 0.157(1) -0.0087(6) 0.1614(4)
H1 H 0.0949 0.1710 0.3042
H2 H 0.5769 0.2263 0.4274
H3 H 0.0387 0.3230 0.2020
H4 H 0.0648 0.4479 0.0833
H5 H 0.3306 0.4775 -0.0061
H6 H 0.6494 0.3426 0.0105
H7 H 0.6875 0.2123 0.1262
H8 H 0.3302 -0.0351 0.2740
H9 H 0.4987 0.0103 0.1848
H10 H 0.1888 0.0429 0.1137
H11 H 0.1642 -0.1076 0.1434
H12 H 0.0310 0.0094 0.1917
N1 N 0.6825(8) 0.3212(8) 0.6877(3)
C1 C 0.758(1) 0.2908(7) 0.6094(4)
O1 O 0.6532(8) 0.2693(5) 0.5451(3)
N2 N 0.9773(9) 0.2857(5) 0.6162(3)
C2 C 1.048(1) 0.3188(7) 0.6949(4)
O2 O 1.2326(6) 0.3269(6) 0.7190(3)
C3 C 0.852(1) 0.3396(6) 0.7509(3)
C4 C 0.841(1) 0.2463(5) 0.8244(3)
C5 C 0.672(1) 0.1672(7) 0.8361(4)
C6 C 0.671(1) 0.0848(7) 0.9046(4)
C7 C 0.842(1) 0.0777(7) 0.9596(4)
C8 C 1.009(1) 0.1573(8) 0.9483(4)
C9 C 1.012(1) 0.2410(7) 0.8818(4)
C10 C 0.853(1) 0.4766(6) 0.7840(4)
C11 C 0.657(1) 0.5087(6) 0.8386(4)
H1 H 0.5949 0.3290 0.6958
H2 H 1.0769 0.2737 0.5726
H3 H 0.5387 0.1770 0.7980
H4 H 0.5648 0.0521 0.9167
H5 H 0.8306 0.0225 1.0061
H6 H 1.1494 0.1574 0.9895
H7 H 1.1875 0.2877 0.8738
H8 H 0.8302 0.5351 0.7260
H9 H 0.9987 0.4897 0.8152
H10 H 0.6888 0.4571 0.8863
H11 H 0.6642 0.6076 0.8566
H12 H 0.5310 0.4906 0.8083

#END
