./LABVUF_from_POSCAR.cif_generated_by_CrystalShift
_symmetry_cell_setting triclinic
_symmetry_space_group_name_H-M 'P 1'
loop_
_symmetry_equiv_pos_site_id
_symmetry_equiv_pos_as_xyz
1 x,y,z
_cell_length_a 8.350000
_cell_length_b 8.769000
_cell_length_c 10.147300
_cell_angle_alpha 103.110000
_cell_angle_beta 94.980000
_cell_angle_gamma 96.450000
_cell_volume 714.194917
loop_
_atom_site_label
_atom_site_type_symbol
_atom_site_fract_x
_atom_site_fract_y
_atom_site_fract_z
H1 H 0.828000 0.270000 0.997000
H2 H 0.896000 0.125000 0.554000
H3 H 0.874000 0.645000 0.694000
H4 H 0.692000 0.469000 0.838000
H5 H 0.764000 -0.086000 0.381000
H6 H 0.692000 0.433000 0.681000
H7 H 1.365000 0.456000 0.894000
H8 H 1.488000 0.241000 0.939000
H9 H 1.333000 0.002000 0.926000
H10 H 1.049000 -0.034000 0.871000
H11 H 0.172000 0.730000 0.003000
H12 H 0.104000 0.875000 0.446000
H13 H 0.236000 1.086000 0.619000
H14 H 0.436000 1.266000 0.573000
H15 H 0.379000 1.024000 0.178000
H16 H -0.049000 1.034000 0.129000
H17 H -0.333000 0.998000 0.074000
H18 H -0.488000 0.759000 0.061000
H19 H 0.564000 -0.266000 0.427000
H20 H 0.621000 -0.024000 0.822000
H21 H 0.308000 0.567000 0.319000
H22 H 0.308000 0.531000 0.162000
H23 H 0.126000 0.355000 0.306000
H24 H 0.164000 0.298000 0.157000
H25 H -0.365000 0.544000 0.106000
H26 H 0.836000 0.702000 0.843000
C27 C 0.264900 1.073700 0.529300
C28 C 0.384000 1.179600 0.502700
C29 C 0.426600 1.159400 0.372800
C30 C 0.349300 1.036000 0.268000
C31 C 0.228200 0.930700 0.294800
C32 C -0.040700 0.806000 0.148900
C33 C -0.112500 0.934900 0.124300
C34 C 0.861500 0.205800 0.818300
C35 C -0.281400 0.912700 0.091300
C36 C 0.758600 0.462600 0.765900
C37 C 0.871900 0.618800 0.779900
C38 C -0.374400 0.770500 0.083600
C39 C 1.024700 0.444500 0.822500
C40 C 1.135300 0.336900 0.858100
C41 C 1.302000 0.358000 0.890100
C42 C 1.374400 0.229500 0.916400
C43 C 1.281400 0.087300 0.908700
C44 C 1.112500 0.065100 0.875700
C45 C 1.040700 0.194000 0.851100
C46 C 0.771800 0.069300 0.705200
C47 C 0.650700 -0.036000 0.732000
C48 C 0.573400 -0.159400 0.627200
C49 C 0.616000 -0.179600 0.497300
C50 C 0.735100 -0.073700 0.470700
C51 C 0.813900 0.051500 0.573500
C52 C -0.302000 0.642000 0.109900
C53 C -0.135300 0.663100 0.141900
C54 C -0.024700 0.555500 0.177500
C55 C 0.128100 0.381200 0.220100
C56 C 0.241400 0.537400 0.234100
C57 C 0.186100 0.948500 0.426500
C58 C 0.138500 0.794200 0.181700
N59 N 1.037600 0.592400 0.831900
N60 N 0.878300 0.355200 0.774200
N61 N 0.121700 0.644800 0.225800
N62 N -0.037600 0.407600 0.168100
O63 O 0.221800 0.785700 0.065800
O64 O 0.778200 0.214300 0.934200
I65 I 0.618670 1.310500 0.328510
I66 I 0.381330 -0.310500 0.671490

#END
