./LABXOB_from_POSCAR.cif_generated_by_CrystalShift
_symmetry_cell_setting triclinic
_symmetry_space_group_name_H-M 'P 1'
loop_
_symmetry_equiv_pos_site_id
_symmetry_equiv_pos_as_xyz
1 x,y,z
_cell_length_a 11.247800
_cell_length_b 7.088000
_cell_length_c 14.684000
_cell_angle_alpha 90.000000
_cell_angle_beta 99.068000
_cell_angle_gamma 90.000000
_cell_volume 1156.042092
loop_
_atom_site_label
_atom_site_type_symbol
_atom_site_fract_x
_atom_site_fract_y
_atom_site_fract_z
H1 H 0.448000 0.280000 0.619000
H2 H 1.147000 -0.183000 0.298000
H3 H 0.919000 -0.121000 0.306000
H4 H 0.980000 0.265000 0.250000
H5 H 0.835000 0.201000 0.130000
H6 H 0.780000 0.037000 0.177000
H7 H 0.653000 0.293000 0.156000
H8 H 0.698000 0.566000 0.240000
H9 H 0.813000 0.516000 0.191000
H10 H 0.803000 0.510000 0.379000
H11 H 0.923000 0.539000 0.336000
H12 H 0.622000 0.440000 0.896000
H13 H 0.655000 0.564000 1.043000
H14 H 0.636000 -0.020000 0.954000
H15 H 0.790000 -0.245000 0.945000
H16 H 0.986000 -0.137000 0.910000
H17 H 1.021000 0.193000 0.893000
H18 H 0.865000 0.410000 0.916000
H19 H 0.936000 0.237000 0.409000
H20 H 0.735000 0.180000 0.429000
H21 H 0.763000 0.010000 0.368000
H22 H 0.616000 0.324000 0.310000
H23 H 0.585000 -0.155000 0.185000
H24 H 0.512000 0.101000 0.198000
H25 H 0.552000 -0.220000 0.381000
H26 H 0.429000 -0.250000 0.502000
H27 H 0.208000 0.264000 0.494000
H28 H 0.165000 0.549000 0.401000
H29 H 0.268000 0.573000 0.270000
H30 H 0.378000 0.940000 0.104000
H31 H 0.345000 1.064000 -0.043000
H32 H 0.364000 0.480000 0.046000
H33 H 0.210000 0.255000 0.055000
H34 H 0.014000 0.363000 0.090000
H35 H -0.021000 0.693000 0.107000
H36 H 0.135000 0.910000 0.084000
H37 H 0.412000 0.351000 0.234000
H38 H -0.082000 0.422000 0.662000
H39 H -0.147000 0.317000 0.702000
H40 H 0.081000 0.379000 0.694000
H41 H 0.020000 0.765000 0.750000
H42 H 0.165000 0.701000 0.870000
H43 H 0.220000 0.537000 0.823000
H44 H 0.347000 0.793000 0.844000
H45 H 0.302000 1.066000 0.760000
H46 H 0.187000 1.016000 0.809000
H47 H 0.197000 1.010000 0.621000
H48 H 0.077000 1.039000 0.664000
H49 H 0.064000 0.737000 0.591000
H50 H 0.265000 0.680000 0.571000
H51 H 0.237000 0.510000 0.632000
H52 H 0.384000 0.824000 0.690000
H53 H 0.415000 0.345000 0.815000
H54 H 0.488000 0.601000 0.802000
H55 H 1.082000 -0.078000 0.338000
H56 H 0.571000 0.250000 0.498000
H57 H 0.792000 0.764000 0.506000
H58 H 0.835000 1.049000 0.599000
H59 H 0.588000 0.851000 0.766000
H60 H 0.732000 1.073000 0.730000
C61 C -0.092900 0.445800 0.713000
C62 C 0.023700 0.477700 0.711700
C63 C 0.079600 0.668200 0.730300
C64 C 0.186600 0.661400 0.810200
C65 C 0.651800 0.368000 0.956600
C66 C 0.232900 0.979400 0.761300
C67 C 0.154200 0.961600 0.665500
C68 C 0.126500 0.752300 0.645800
C69 C 0.243200 0.653000 0.632000
C70 C 0.344000 0.713800 0.709600
C71 C 0.741900 0.218300 0.938400
C72 C 0.438000 0.559500 0.741700
C73 C 0.506700 0.377700 0.612600
C74 C 0.578000 0.360900 0.541900
C75 C 0.719900 0.025500 0.944600
C76 C 0.669400 0.645900 0.578700
C77 C 0.753100 0.784600 0.560100
C78 C 0.773400 0.941800 0.613800
C79 C 0.712500 0.967500 0.690300
C80 C 0.629900 0.836900 0.709200
C81 C 0.604500 0.673000 0.653300
C82 C 0.482300 0.033900 0.332000
C83 C 0.395500 0.173000 0.346700
C84 C 0.370100 0.336900 0.290800
C85 C 0.287500 0.467500 0.309700
C86 C 0.226600 0.441800 0.386200
C87 C 0.246900 0.284600 0.439900
C88 C 0.330600 0.145900 0.421300
C89 C 0.807900 -0.105300 0.932400
C90 C 0.422000 -0.139100 0.458100
C91 C 0.493300 -0.122300 0.387400
C92 C 0.562000 0.059500 0.258300
C93 C 0.919300 -0.046100 0.914600
C94 C 0.656000 0.213800 0.290400
C95 C 0.756800 0.153000 0.368000
C96 C 0.873500 0.252300 0.354200
C97 C 0.845800 0.461600 0.334500
C98 C 0.767100 0.479400 0.238700
C99 C 0.941600 0.145600 0.907400
C100 C 0.813400 0.161400 0.189800
C101 C 0.920400 0.168200 0.269700
C102 C 0.976300 -0.022300 0.288300
C103 C 1.092900 -0.054200 0.287000
C104 C 0.517700 0.533900 0.668000
C105 C 0.146200 0.776400 0.080700
C106 C 0.058400 0.645600 0.092600
C107 C 0.080700 0.453900 0.085400
C108 C 0.192100 0.394700 0.067600
C109 C 0.280100 0.525500 0.055400
C110 C 0.258100 0.718300 0.061600
C111 C 0.853800 0.276400 0.919300
C112 C 0.348200 0.868000 0.043400
C113 C 0.461900 0.777600 0.016000
C114 C 0.538100 0.277600 0.984000
N115 N 0.285600 0.788400 0.788790
N116 N 0.655600 0.488900 0.523300
N117 N 0.714400 0.288400 0.211210
N118 N 0.344400 -0.011100 0.476700
O119 O 0.289400 0.987500 -0.027420
O120 O 0.379500 0.388200 0.757970
O121 O 0.710600 0.487500 1.027420
O122 O 0.546000 0.733800 0.080140
O123 O 0.454000 0.233800 0.919860
O124 O 0.535100 0.250000 1.067920
O125 O 0.464900 0.750000 -0.067920
O126 O 0.620500 -0.111800 0.242030

#END
