./LABYES_from_POSCAR.cif_generated_by_CrystalShift
_symmetry_cell_setting triclinic
_symmetry_space_group_name_H-M 'P 1'
loop_
_symmetry_equiv_pos_site_id
_symmetry_equiv_pos_as_xyz
1 x,y,z
_cell_length_a 5.362000
_cell_length_b 24.558000
_cell_length_c 11.793000
_cell_angle_alpha 90.000000
_cell_angle_beta 96.420000
_cell_angle_gamma 90.000000
_cell_volume 1543.163863
loop_
_atom_site_label
_atom_site_type_symbol
_atom_site_fract_x
_atom_site_fract_y
_atom_site_fract_z
H1 H 0.451000 0.452000 1.319000
H2 H 0.585000 0.321000 1.526000
H3 H 0.919000 0.299000 1.426000
H4 H 1.037000 0.351000 1.272000
H5 H 0.283000 0.214000 0.727000
H6 H 0.291000 0.248000 0.610000
H7 H 0.105000 0.272000 0.709000
H8 H 0.944000 0.432000 0.545000
H9 H 0.882000 0.493000 0.577000
H10 H 1.115000 0.464000 0.649000
H11 H 0.847000 0.315000 0.874000
H12 H 0.487000 0.393000 0.791000
H13 H 0.609000 0.463000 0.925000
H14 H 1.084000 0.439000 0.957000
H15 H 1.120000 0.354000 1.053000
H16 H 0.646000 0.321000 1.068000
H17 H 0.549000 0.952000 0.181000
H18 H 0.642000 0.900000 0.032000
H19 H 0.415000 0.821000 -0.026000
H20 H 0.081000 0.799000 0.074000
H21 H -0.037000 0.851000 0.228000
H22 H 0.717000 0.714000 0.773000
H23 H 0.709000 0.748000 0.890000
H24 H 0.895000 0.772000 0.791000
H25 H 0.646000 0.179000 0.568000
H26 H 1.120000 0.146000 0.553000
H27 H 1.084000 0.061000 0.457000
H28 H 0.609000 0.037000 0.425000
H29 H 0.487000 0.107000 0.291000
H30 H 0.847000 0.185000 0.374000
H31 H 1.115000 0.036000 0.149000
H32 H 0.882000 0.007000 0.077000
H33 H 0.944000 0.068000 0.045000
H34 H 0.105000 0.228000 0.209000
H35 H 0.291000 0.252000 0.110000
H36 H 0.283000 0.286000 0.227000
H37 H 1.037000 0.149000 0.772000
H38 H 0.919000 0.201000 0.926000
H39 H 0.585000 0.179000 1.026000
H40 H 0.358000 0.100000 0.968000
H41 H 0.451000 0.048000 0.819000
H42 H 0.056000 0.932000 0.955000
H43 H 0.118000 0.993000 0.923000
H44 H -0.115000 0.964000 0.851000
H45 H 0.153000 0.815000 0.626000
H46 H 0.513000 0.893000 0.709000
H47 H 0.391000 0.963000 0.575000
H48 H -0.084000 0.939000 0.543000
H49 H -0.120000 0.854000 0.447000
H50 H 0.354000 0.821000 0.432000
H51 H 0.549000 0.548000 -0.319000
H52 H 0.642000 0.600000 -0.468000
H53 H 0.415000 0.679000 -0.526000
H54 H 0.081000 0.701000 -0.426000
H55 H -0.037000 0.649000 -0.272000
H56 H 0.717000 0.786000 0.273000
H57 H 0.709000 0.752000 0.390000
H58 H 0.895000 0.728000 0.291000
H59 H 0.056000 0.568000 0.455000
H60 H 0.118000 0.507000 0.423000
H61 H -0.115000 0.536000 0.351000
H62 H 0.153000 0.685000 0.126000
H63 H 0.513000 0.607000 0.209000
H64 H 0.391000 0.537000 0.075000
H65 H -0.084000 0.561000 0.043000
H66 H 0.354000 0.679000 -0.068000
H67 H -0.120000 0.646000 -0.053000
H68 H 0.358000 0.400000 1.468000
C69 C 0.510600 0.610400 -0.429800
C70 C 0.369200 0.655600 -0.464500
C71 C 0.166600 0.669700 -0.406500
C72 C 0.106200 0.638700 -0.315500
C73 C 0.249700 0.592800 -0.280400
C74 C 0.190400 0.557800 -0.184300
C75 C 0.728400 0.749300 0.305800
C76 C 0.519300 0.704400 0.146100
C77 C 0.051600 0.537500 0.391900
C78 C 0.147800 0.599000 0.249900
C79 C 0.302000 0.667000 0.107900
C80 C 0.337100 0.610200 0.166800
C81 C 0.317400 0.572000 0.061300
C82 C 0.046000 0.572500 0.007000
C83 C 0.710900 0.151100 0.519000
C84 C 0.971900 0.127300 0.549800
C85 C 0.954000 0.072500 0.493000
C86 C 0.682600 0.072000 0.438700
C87 C 0.662900 0.110200 0.333200
C88 C 0.698000 0.167000 0.392100
C89 C 0.852200 0.099000 0.250100
C90 C 0.289100 0.848900 0.481000
C91 C 0.028100 0.872700 0.450200
C92 C 0.046000 0.927500 0.507000
C93 C 0.317400 0.928000 0.561300
C94 C 0.337100 0.889800 0.666800
C95 C 0.302000 0.833000 0.607900
C96 C 0.147800 0.901000 0.749900
C97 C 0.051600 0.962500 0.891900
C98 C 0.519300 0.795600 0.646100
C99 C 0.728400 0.750700 0.805800
C100 C 0.190400 0.942200 0.315700
C101 C 0.249700 0.907200 0.219600
C102 C 0.106200 0.861300 0.184500
C103 C 0.166600 0.830300 0.093500
C104 C 0.369200 0.844400 0.035500
C105 C 0.510600 0.889600 0.070200
C106 C 0.453900 0.921200 0.161500
C107 C 0.028100 0.627300 -0.049800
C108 C 0.289100 0.651100 -0.019000
C109 C 0.948400 0.037500 0.108100
C110 C 0.480700 0.204400 0.353900
C111 C 0.546100 0.421200 1.338500
C112 C 0.489400 0.389600 1.429800
C113 C 0.630800 0.344400 1.464500
C114 C 0.833400 0.330300 1.406500
C115 C 0.893800 0.361300 1.315500
C116 C 0.546100 0.078800 0.838500
C117 C 0.489400 0.110400 0.929800
C118 C 0.630800 0.155600 0.964500
C119 C 0.833400 0.169700 0.906500
C120 C 0.893800 0.138700 0.815500
C121 C 0.750300 0.092800 0.780400
C122 C 0.809600 0.057800 0.684300
C123 C 0.271600 0.249300 0.194200
C124 C 0.750300 0.407200 1.280400
C125 C 0.809600 0.442200 1.184300
C126 C 0.271600 0.250700 0.694200
C127 C 0.480700 0.295600 0.853900
C128 C 0.948400 0.462500 0.608100
C129 C 0.852200 0.401000 0.750100
C130 C 0.698000 0.333000 0.892100
C131 C 0.710900 0.348900 1.019000
C132 C 0.971900 0.372700 1.049800
C133 C 0.954000 0.427500 0.993000
C134 C 0.682600 0.428000 0.938700
C135 C 0.662900 0.389800 0.833200
C136 C 0.453900 0.578800 -0.338500
N137 N 0.987400 0.077200 0.616700
N138 N 0.012600 0.922800 0.383300
N139 N 0.012600 0.577200 -0.116700
N140 N 0.987400 0.422800 1.116700
O141 O 1.034400 0.374800 0.736700
O142 O 0.729800 0.489020 1.172200
O143 O 0.270200 0.510980 -0.172200
O144 O -0.034400 0.625200 0.263300
O145 O 0.216000 0.553520 0.308500
O146 O 0.668300 0.722260 0.086000
O147 O 0.524700 0.714980 0.257500
O148 O 0.446900 0.603870 -0.016600
O149 O 0.331700 0.277740 0.914000
O150 O 0.475300 0.285020 0.742500
O151 O 0.446900 0.896130 0.483400
O152 O 0.524700 0.785020 0.757500
O153 O 0.668300 0.777740 0.586000
O154 O 0.216000 0.946480 0.808500
O155 O -0.034400 0.874800 0.763300
O156 O 0.270200 0.989020 0.327800
O157 O 0.553100 0.396130 1.016600
O158 O 0.553100 0.103870 0.516600
O159 O 0.475300 0.214980 0.242500
O160 O 0.331700 0.222260 0.414000
O161 O 0.784000 0.053520 0.191500
O162 O 1.034400 0.125200 0.236700
O163 O 0.784000 0.446480 0.691500
O164 O 0.729800 0.010980 0.672200

#END
