
#######################################################################
#
#                 Cambridge Crystallographic Data Centre
#                                CCDC 
#
#######################################################################
#
# If this CIF has been generated from an entry in the Cambridge 
# Structural Database, then it will include bibliographic, chemical, 
# crystal, experimental, refinement or atomic coordinate data resulting 
# from the CCDC's data processing and validation procedures.
#
#######################################################################

data_LABYUJ
_symmetry_cell_setting           monoclinic
_symmetry_space_group_name_H-M   'P 21/c'
_symmetry_Int_Tables_number      14
_space_group_name_Hall           '-P 2ybc'
loop_
_symmetry_equiv_pos_site_id
_symmetry_equiv_pos_as_xyz
1 x,y,z
2 x,1/2-y,1/2+z
3 -x,-y,-z
4 -x,1/2+y,1/2-z
_cell_length_a                   15.0341(8)
_cell_length_b                   9.6076(5)
_cell_length_c                   17.3514(9)
_cell_angle_alpha                90
_cell_angle_beta                 114.670(3)
_cell_angle_gamma                90
_cell_volume                     2277.51
loop_
_atom_site_label
_atom_site_type_symbol
_atom_site_fract_x
_atom_site_fract_y
_atom_site_fract_z
N1 N 0.01634(9) 0.07279(14) 0.12615(8)
N2 N -0.06787(9) 0.06408(14) 0.13864(8)
C1 C -0.09325(12) 0.18807(17) 0.15097(10)
C2 C -0.02424(11) 0.29998(17) 0.14718(10)
H1 H -0.0020 0.3579 0.1968
H2 H -0.0551 0.3571 0.0977
C3 C 0.06126(12) 0.21484(17) 0.14319(10)
H3 H 0.0743 0.2452 0.0962
C4 C 0.05485(12) -0.04618(17) 0.10755(9)
C5 C 0.14079(12) -0.04214(19) 0.09434(10)
H4 H 0.1727 0.0452 0.0962
C6 C 0.17939(12) -0.16293(19) 0.07868(10)
H5 H 0.2382 -0.1592 0.0697
C7 C 0.13405(13) -0.29104(18) 0.07567(10)
C8 C 0.04678(13) -0.29398(19) 0.08611(10)
H6 H 0.0143 -0.3812 0.0829
C9 C 0.00697(13) -0.17422(17) 0.10083(10)
H7 H -0.0538 -0.1777 0.1066
C10 C -0.17858(12) 0.21307(17) 0.16860(10)
C11 C -0.23053(12) 0.10350(18) 0.18467(11)
H8 H -0.2132 0.0088 0.1798
C12 C -0.30661(12) 0.13204(18) 0.20749(11)
H9 H -0.3415 0.0572 0.2191
C13 C -0.33240(12) 0.27006(18) 0.21354(10)
C14 C -0.28374(12) 0.37864(18) 0.19448(10)
H10 H -0.3028 0.4733 0.1968
C15 C -0.20764(12) 0.34893(18) 0.17216(11)
H11 H -0.1742 0.4239 0.1589
C16 C 0.15363(12) 0.22069(16) 0.22428(10)
C17 C 0.15014(12) 0.19552(16) 0.30248(10)
H12 H 0.0888 0.1701 0.3034
C18 C 0.23182(11) 0.20609(16) 0.37815(10)
H13 H 0.2260 0.1898 0.4304
C19 C 0.32414(12) 0.24055(16) 0.38012(10)
C20 C 0.32767(12) 0.26289(16) 0.30086(11)
H14 H 0.3892 0.2838 0.2991
C21 C 0.24385(12) 0.25518(16) 0.22572(10)
H15 H 0.2484 0.2743 0.1732
N3 N 0.40591(10) 0.25132(15) 0.45541(9)
C22 C 0.50120(13) 0.2877(2) 0.45846(12)
H16 H 0.5383 0.3358 0.5106
H17 H 0.4923 0.3503 0.4127
C23 C 0.55878(14) 0.1624(3) 0.45224(14)
H18 H 0.5673 0.0988 0.4975
H19 H 0.6217 0.1919 0.4565
H20 H 0.5239 0.1169 0.3988
C24 C 0.40080(13) 0.2280(2) 0.53638(11)
H21 H 0.4641 0.1994 0.5774
H22 H 0.3557 0.1536 0.5301
C25 C 0.36868(16) 0.3558(2) 0.56946(13)
H23 H 0.4137 0.4306 0.5763
H24 H 0.3677 0.3348 0.6232
H25 H 0.3043 0.3829 0.5298
C26 C -0.40607(13) 0.30304(18) 0.24351(10)
N4 N -0.46320(11) 0.33296(17) 0.26853(10)
C27 C 0.17407(13) -0.4189(2) 0.06097(10)
N5 N 0.20154(12) -0.52406(17) 0.04736(10)
N1 N 0.01634(9) 0.42721(14) 0.62615(8)
N2 N -0.06787(9) 0.43592(14) 0.63864(8)
C1 C -0.09325(12) 0.31193(17) 0.65097(10)
C2 C -0.02424(11) 0.20002(17) 0.64718(10)
H1 H -0.0020 0.1421 0.6968
H2 H -0.0551 0.1429 0.5977
C3 C 0.06126(12) 0.28516(17) 0.64319(10)
H3 H 0.0743 0.2548 0.5962
C4 C 0.05485(12) 0.54618(17) 0.60755(9)
C5 C 0.14079(12) 0.54214(19) 0.59434(10)
H4 H 0.1727 0.4548 0.5962
C6 C 0.17939(12) 0.66293(19) 0.57868(10)
H5 H 0.2382 0.6592 0.5697
C7 C 0.13405(13) 0.79104(18) 0.57567(10)
C8 C 0.04678(13) 0.79398(19) 0.58611(10)
H6 H 0.0143 0.8812 0.5829
C9 C 0.00697(13) 0.67422(17) 0.60083(10)
H7 H -0.0538 0.6777 0.6066
C10 C -0.17858(12) 0.28693(17) 0.66860(10)
C11 C -0.23053(12) 0.39650(18) 0.68467(11)
H8 H -0.2132 0.4912 0.6798
C12 C -0.30661(12) 0.36796(18) 0.70749(11)
H9 H -0.3415 0.4428 0.7191
C13 C -0.33240(12) 0.22994(18) 0.71354(10)
C14 C -0.28374(12) 0.12136(18) 0.69448(10)
H10 H -0.3028 0.0267 0.6968
C15 C -0.20764(12) 0.15107(18) 0.67216(11)
H11 H -0.1742 0.0761 0.6589
C16 C 0.15363(12) 0.27931(16) 0.72428(10)
C17 C 0.15014(12) 0.30448(16) 0.80248(10)
H12 H 0.0888 0.3299 0.8034
C18 C 0.23182(11) 0.29391(16) 0.87815(10)
H13 H 0.2260 0.3102 0.9304
C19 C 0.32414(12) 0.25945(16) 0.88012(10)
C20 C 0.32767(12) 0.23711(16) 0.80086(11)
H14 H 0.3892 0.2162 0.7991
C21 C 0.24385(12) 0.24482(16) 0.72572(10)
H15 H 0.2484 0.2257 0.6732
N3 N 0.40591(10) 0.24868(15) 0.95541(9)
C22 C 0.50120(13) 0.2123(2) 0.95846(12)
H16 H 0.5383 0.1642 1.0106
H17 H 0.4923 0.1497 0.9127
C23 C 0.55878(14) 0.3376(3) 0.95224(14)
H18 H 0.5673 0.4012 0.9975
H19 H 0.6217 0.3081 0.9565
H20 H 0.5239 0.3831 0.8988
C24 C 0.40080(13) 0.2720(2) 1.03638(11)
H21 H 0.4641 0.3006 1.0774
H22 H 0.3557 0.3464 1.0301
C25 C 0.36868(16) 0.1442(2) 1.06946(13)
H23 H 0.4137 0.0694 1.0763
H24 H 0.3677 0.1652 1.1232
H25 H 0.3043 0.1171 1.0298
C26 C -0.40607(13) 0.19696(18) 0.74351(10)
N4 N -0.46320(11) 0.16704(17) 0.76853(10)
C27 C 0.17407(13) 0.9189(2) 0.56097(10)
N5 N 0.20154(12) 1.02406(17) 0.54736(10)
N1 N 0.98366(9) 0.92721(14) 0.87385(8)
N2 N 1.06787(9) 0.93592(14) 0.86136(8)
C1 C 1.09325(12) 0.81193(17) 0.84903(10)
C2 C 1.02424(11) 0.70002(17) 0.85282(10)
H1 H 1.0020 0.6421 0.8032
H2 H 1.0551 0.6429 0.9023
C3 C 0.93874(12) 0.78516(17) 0.85681(10)
H3 H 0.9257 0.7548 0.9038
C4 C 0.94515(12) 1.04618(17) 0.89245(9)
C5 C 0.85921(12) 1.04214(19) 0.90566(10)
H4 H 0.8273 0.9548 0.9038
C6 C 0.82061(12) 1.16293(19) 0.92132(10)
H5 H 0.7618 1.1592 0.9303
C7 C 0.86595(13) 1.29104(18) 0.92433(10)
C8 C 0.95322(13) 1.29398(19) 0.91389(10)
H6 H 0.9857 1.3812 0.9171
C9 C 0.99303(13) 1.17422(17) 0.89917(10)
H7 H 1.0538 1.1777 0.8934
C10 C 1.17858(12) 0.78693(17) 0.83140(10)
C11 C 1.23053(12) 0.89650(18) 0.81533(11)
H8 H 1.2132 0.9912 0.8202
C12 C 1.30661(12) 0.86796(18) 0.79251(11)
H9 H 1.3415 0.9428 0.7809
C13 C 1.33240(12) 0.72994(18) 0.78646(10)
C14 C 1.28374(12) 0.62136(18) 0.80552(10)
H10 H 1.3028 0.5267 0.8032
C15 C 1.20764(12) 0.65107(18) 0.82784(11)
H11 H 1.1742 0.5761 0.8411
C16 C 0.84637(12) 0.77931(16) 0.77572(10)
C17 C 0.84986(12) 0.80448(16) 0.69752(10)
H12 H 0.9112 0.8299 0.6966
C18 C 0.76818(11) 0.79391(16) 0.62185(10)
H13 H 0.7740 0.8102 0.5696
C19 C 0.67586(12) 0.75945(16) 0.61988(10)
C20 C 0.67233(12) 0.73711(16) 0.69914(11)
H14 H 0.6108 0.7162 0.7009
C21 C 0.75615(12) 0.74482(16) 0.77428(10)
H15 H 0.7516 0.7257 0.8268
N3 N 0.59409(10) 0.74868(15) 0.54459(9)
C22 C 0.49880(13) 0.7123(2) 0.54154(12)
H16 H 0.4617 0.6642 0.4894
H17 H 0.5077 0.6497 0.5873
C23 C 0.44122(14) 0.8376(3) 0.54776(14)
H18 H 0.4327 0.9012 0.5025
H19 H 0.3783 0.8081 0.5435
H20 H 0.4761 0.8831 0.6012
C24 C 0.59920(13) 0.7720(2) 0.46362(11)
H21 H 0.5359 0.8006 0.4226
H22 H 0.6443 0.8464 0.4699
C25 C 0.63132(16) 0.6442(2) 0.43054(13)
H23 H 0.5863 0.5694 0.4237
H24 H 0.6323 0.6652 0.3768
H25 H 0.6957 0.6171 0.4702
C26 C 1.40607(13) 0.69696(18) 0.75649(10)
N4 N 1.46320(11) 0.66704(17) 0.73147(10)
C27 C 0.82593(13) 1.4189(2) 0.93903(10)
N5 N 0.79846(12) 1.52406(17) 0.95264(10)
N1 N 0.98366(9) 0.57279(14) 0.37385(8)
N2 N 1.06787(9) 0.56408(14) 0.36136(8)
C1 C 1.09325(12) 0.68807(17) 0.34903(10)
C2 C 1.02424(11) 0.79998(17) 0.35282(10)
H1 H 1.0020 0.8579 0.3032
H2 H 1.0551 0.8571 0.4023
C3 C 0.93874(12) 0.71484(17) 0.35681(10)
H3 H 0.9257 0.7452 0.4038
C4 C 0.94515(12) 0.45382(17) 0.39245(9)
C5 C 0.85921(12) 0.45786(19) 0.40566(10)
H4 H 0.8273 0.5452 0.4038
C6 C 0.82061(12) 0.33707(19) 0.42132(10)
H5 H 0.7618 0.3408 0.4303
C7 C 0.86595(13) 0.20896(18) 0.42433(10)
C8 C 0.95322(13) 0.20602(19) 0.41389(10)
H6 H 0.9857 0.1188 0.4171
C9 C 0.99303(13) 0.32578(17) 0.39917(10)
H7 H 1.0538 0.3223 0.3934
C10 C 1.17858(12) 0.71307(17) 0.33140(10)
C11 C 1.23053(12) 0.60350(18) 0.31533(11)
H8 H 1.2132 0.5088 0.3202
C12 C 1.30661(12) 0.63204(18) 0.29251(11)
H9 H 1.3415 0.5572 0.2809
C13 C 1.33240(12) 0.77006(18) 0.28646(10)
C14 C 1.28374(12) 0.87864(18) 0.30552(10)
H10 H 1.3028 0.9733 0.3032
C15 C 1.20764(12) 0.84893(18) 0.32784(11)
H11 H 1.1742 0.9239 0.3411
C16 C 0.84637(12) 0.72069(16) 0.27572(10)
C17 C 0.84986(12) 0.69552(16) 0.19752(10)
H12 H 0.9112 0.6701 0.1966
C18 C 0.76818(11) 0.70609(16) 0.12185(10)
H13 H 0.7740 0.6898 0.0696
C19 C 0.67586(12) 0.74055(16) 0.11988(10)
C20 C 0.67233(12) 0.76289(16) 0.19914(11)
H14 H 0.6108 0.7838 0.2009
C21 C 0.75615(12) 0.75518(16) 0.27428(10)
H15 H 0.7516 0.7743 0.3268
N3 N 0.59409(10) 0.75132(15) 0.04459(9)
C22 C 0.49880(13) 0.7877(2) 0.04154(12)
H16 H 0.4617 0.8358 -0.0106
H17 H 0.5077 0.8503 0.0873
C23 C 0.44122(14) 0.6624(3) 0.04776(14)
H18 H 0.4327 0.5988 0.0025
H19 H 0.3783 0.6919 0.0435
H20 H 0.4761 0.6169 0.1012
C24 C 0.59920(13) 0.7280(2) -0.03638(11)
H21 H 0.5359 0.6994 -0.0774
H22 H 0.6443 0.6536 -0.0301
C25 C 0.63132(16) 0.8558(2) -0.06946(13)
H23 H 0.5863 0.9306 -0.0763
H24 H 0.6323 0.8348 -0.1232
H25 H 0.6957 0.8829 -0.0298
C26 C 1.40607(13) 0.80304(18) 0.25649(10)
N4 N 1.46320(11) 0.83296(17) 0.23147(10)
C27 C 0.82593(13) 0.0811(2) 0.43903(10)
N5 N 0.79846(12) -0.02406(17) 0.45264(10)

#END
