
#######################################################################
#
#                 Cambridge Crystallographic Data Centre
#                                CCDC 
#
#######################################################################
#
# If this CIF has been generated from an entry in the Cambridge 
# Structural Database, then it will include bibliographic, chemical, 
# crystal, experimental, refinement or atomic coordinate data resulting 
# from the CCDC's data processing and validation procedures.
#
#######################################################################

data_LABYIX
_symmetry_cell_setting           monoclinic
_symmetry_space_group_name_H-M   'P 21/c'
_symmetry_Int_Tables_number      14
_space_group_name_Hall           '-P 2ybc'
loop_
_symmetry_equiv_pos_site_id
_symmetry_equiv_pos_as_xyz
1 x,y,z
2 x,1/2-y,1/2+z
3 -x,-y,-z
4 -x,1/2+y,1/2-z
_cell_length_a                   14.108(3)
_cell_length_b                   15.876(4)
_cell_length_c                   9.978(2)
_cell_angle_alpha                90
_cell_angle_beta                 103.033(6)
_cell_angle_gamma                90
_cell_volume                     2177.29
loop_
_atom_site_label
_atom_site_type_symbol
_atom_site_fract_x
_atom_site_fract_y
_atom_site_fract_z
N1 N 0.6263(2) -0.03954(18) 0.9836(3)
N2 N 0.6530(2) -0.08088(19) 1.1076(3)
C1 C 0.6775(3) -0.0266(2) 1.2057(4)
C2 C 0.6668(3) 0.0634(2) 1.1549(4)
H1 H 0.7266 0.0939 1.1841
H2 H 0.6164 0.0921 1.1875
C3 C 0.6396(3) 0.0536(2) 0.9971(4)
H3 H 0.5789 0.0815 0.9603
C4 C 0.5883(3) -0.0845(2) 0.8648(4)
C5 C 0.5551(3) -0.0444(2) 0.7392(4)
H4 H 0.5597 0.0158 0.7332
C6 C 0.5154(3) -0.0910(2) 0.6228(4)
H5 H 0.4924 -0.0625 0.5368
C7 C 0.5084(3) -0.1772(2) 0.6277(4)
H6 H 0.4805 -0.2089 0.5465
C8 C 0.5424(3) -0.2173(2) 0.7528(4)
H7 H 0.5382 -0.2776 0.7577
C9 C 0.5821(3) -0.1727(2) 0.8696(4)
H8 H 0.6057 -0.2018 0.9550
C10 C 0.7111(2) -0.0536(2) 1.3472(4)
C11 C 0.7335(3) -0.1385(2) 1.3785(4)
H9 H 0.7263 -0.1788 1.3052
C12 C 0.7657(3) -0.1648(2) 1.5126(4)
H10 H 0.7803 -0.2232 1.5320
C13 C 0.7772(3) -0.1068(2) 1.6205(4)
C14 C 0.7552(3) -0.0219(2) 1.5895(4)
H11 H 0.7615 0.0185 1.6625
C15 C 0.7248(3) 0.0036(2) 1.4559(4)
H12 H 0.7126 0.0623 1.4364
C16 C 0.7163(3) 0.0859(2) 0.9276(3)
C17 C 0.7023(3) 0.1579(2) 0.8446(4)
H13 H 0.6403 0.1857 0.8272
C18 C 0.7743(3) 0.1902(2) 0.7873(4)
H14 H 0.7614 0.2400 0.7315
C19 C 0.8659(3) 0.1525(2) 0.8081(3)
C20 C 0.8805(3) 0.0796(2) 0.8917(3)
H15 H 0.9424 0.0515 0.9090
C21 C 0.8078(3) 0.0485(2) 0.9483(3)
H16 H 0.8204 -0.0011 1.0046
N3 N 0.9379(2) 0.18362(17) 0.7492(3)
C22 C 0.9251(3) 0.2625(2) 0.6727(4)
H17 H 0.8604 0.2647 0.6160
H18 H 0.9700 0.2643 0.6133
C23 C 0.9418(3) 0.3387(2) 0.7678(4)
H19 H 0.8957 0.3380 0.8254
H20 H 0.9335 0.3893 0.7138
H21 H 1.0066 0.3369 0.8241
C24 C 1.0312(3) 0.1412(2) 0.7647(4)
H22 H 1.0512 0.1200 0.8569
H23 H 1.0790 0.1812 0.7508
C25 C 1.0277(3) 0.0690(2) 0.6647(4)
H24 H 0.9789 0.0294 0.6766
H25 H 1.0899 0.0416 0.6819
H26 H 1.0121 0.0903 0.5723
C26 C 0.8112(3) -0.1347(2) 1.7597(4)
N4 N 0.8401(3) -0.1593(2) 1.8703(3)
N1 N 0.6263(2) 0.53954(18) 0.4836(3)
N2 N 0.6530(2) 0.58088(19) 0.6076(3)
C1 C 0.6775(3) 0.5266(2) 0.7057(4)
C2 C 0.6668(3) 0.4366(2) 0.6549(4)
H1 H 0.7266 0.4061 0.6841
H2 H 0.6164 0.4079 0.6875
C3 C 0.6396(3) 0.4464(2) 0.4971(4)
H3 H 0.5789 0.4185 0.4603
C4 C 0.5883(3) 0.5845(2) 0.3648(4)
C5 C 0.5551(3) 0.5444(2) 0.2392(4)
H4 H 0.5597 0.4842 0.2332
C6 C 0.5154(3) 0.5910(2) 0.1228(4)
H5 H 0.4924 0.5625 0.0368
C7 C 0.5084(3) 0.6772(2) 0.1277(4)
H6 H 0.4805 0.7089 0.0465
C8 C 0.5424(3) 0.7173(2) 0.2528(4)
H7 H 0.5382 0.7776 0.2577
C9 C 0.5821(3) 0.6727(2) 0.3696(4)
H8 H 0.6057 0.7018 0.4550
C10 C 0.7111(2) 0.5536(2) 0.8472(4)
C11 C 0.7335(3) 0.6385(2) 0.8785(4)
H9 H 0.7263 0.6788 0.8052
C12 C 0.7657(3) 0.6648(2) 1.0126(4)
H10 H 0.7803 0.7232 1.0320
C13 C 0.7772(3) 0.6068(2) 1.1205(4)
C14 C 0.7552(3) 0.5219(2) 1.0895(4)
H11 H 0.7615 0.4815 1.1625
C15 C 0.7248(3) 0.4964(2) 0.9559(4)
H12 H 0.7126 0.4377 0.9364
C16 C 0.7163(3) 0.4141(2) 0.4276(3)
C17 C 0.7023(3) 0.3421(2) 0.3446(4)
H13 H 0.6403 0.3143 0.3272
C18 C 0.7743(3) 0.3098(2) 0.2873(4)
H14 H 0.7614 0.2600 0.2315
C19 C 0.8659(3) 0.3475(2) 0.3081(3)
C20 C 0.8805(3) 0.4204(2) 0.3917(3)
H15 H 0.9424 0.4485 0.4090
C21 C 0.8078(3) 0.4515(2) 0.4483(3)
H16 H 0.8204 0.5011 0.5046
N3 N 0.9379(2) 0.31638(17) 0.2492(3)
C22 C 0.9251(3) 0.2375(2) 0.1727(4)
H17 H 0.8604 0.2353 0.1160
H18 H 0.9700 0.2357 0.1133
C23 C 0.9418(3) 0.1613(2) 0.2678(4)
H19 H 0.8957 0.1620 0.3254
H20 H 0.9335 0.1107 0.2138
H21 H 1.0066 0.1631 0.3241
C24 C 1.0312(3) 0.3588(2) 0.2647(4)
H22 H 1.0512 0.3800 0.3569
H23 H 1.0790 0.3188 0.2508
C25 C 1.0277(3) 0.4310(2) 0.1647(4)
H24 H 0.9789 0.4706 0.1766
H25 H 1.0899 0.4584 0.1819
H26 H 1.0121 0.4097 0.0723
C26 C 0.8112(3) 0.6347(2) 1.2597(4)
N4 N 0.8401(3) 0.6593(2) 1.3703(3)
N1 N 0.3737(2) 1.03954(18) 0.0164(3)
N2 N 0.3470(2) 1.08088(19) -0.1076(3)
C1 C 0.3225(3) 1.0266(2) -0.2057(4)
C2 C 0.3332(3) 0.9366(2) -0.1549(4)
H1 H 0.2734 0.9061 -0.1841
H2 H 0.3836 0.9079 -0.1875
C3 C 0.3604(3) 0.9464(2) 0.0029(4)
H3 H 0.4211 0.9185 0.0397
C4 C 0.4117(3) 1.0845(2) 0.1352(4)
C5 C 0.4449(3) 1.0444(2) 0.2608(4)
H4 H 0.4403 0.9842 0.2668
C6 C 0.4846(3) 1.0910(2) 0.3772(4)
H5 H 0.5076 1.0625 0.4632
C7 C 0.4916(3) 1.1772(2) 0.3723(4)
H6 H 0.5195 1.2089 0.4535
C8 C 0.4576(3) 1.2173(2) 0.2472(4)
H7 H 0.4618 1.2776 0.2423
C9 C 0.4179(3) 1.1727(2) 0.1304(4)
H8 H 0.3943 1.2018 0.0450
C10 C 0.2889(2) 1.0536(2) -0.3472(4)
C11 C 0.2665(3) 1.1385(2) -0.3785(4)
H9 H 0.2737 1.1788 -0.3052
C12 C 0.2343(3) 1.1648(2) -0.5126(4)
H10 H 0.2197 1.2232 -0.5320
C13 C 0.2228(3) 1.1068(2) -0.6205(4)
C14 C 0.2448(3) 1.0219(2) -0.5895(4)
H11 H 0.2385 0.9815 -0.6625
C15 C 0.2752(3) 0.9964(2) -0.4559(4)
H12 H 0.2874 0.9377 -0.4364
C16 C 0.2837(3) 0.9141(2) 0.0724(3)
C17 C 0.2977(3) 0.8421(2) 0.1554(4)
H13 H 0.3597 0.8143 0.1728
C18 C 0.2257(3) 0.8098(2) 0.2127(4)
H14 H 0.2386 0.7600 0.2685
C19 C 0.1341(3) 0.8475(2) 0.1919(3)
C20 C 0.1195(3) 0.9204(2) 0.1083(3)
H15 H 0.0576 0.9485 0.0910
C21 C 0.1922(3) 0.9515(2) 0.0517(3)
H16 H 0.1796 1.0011 -0.0046
N3 N 0.0621(2) 0.81638(17) 0.2508(3)
C22 C 0.0749(3) 0.7375(2) 0.3273(4)
H17 H 0.1396 0.7353 0.3840
H18 H 0.0300 0.7357 0.3867
C23 C 0.0582(3) 0.6613(2) 0.2322(4)
H19 H 0.1043 0.6620 0.1746
H20 H 0.0665 0.6107 0.2862
H21 H -0.0066 0.6631 0.1759
C24 C -0.0312(3) 0.8588(2) 0.2353(4)
H22 H -0.0512 0.8800 0.1431
H23 H -0.0790 0.8188 0.2492
C25 C -0.0277(3) 0.9310(2) 0.3353(4)
H24 H 0.0211 0.9706 0.3234
H25 H -0.0899 0.9584 0.3181
H26 H -0.0121 0.9097 0.4277
C26 C 0.1888(3) 1.1347(2) -0.7597(4)
N4 N 0.1599(3) 1.1593(2) -0.8703(3)
N1 N 0.3737(2) 0.46046(18) 0.5164(3)
N2 N 0.3470(2) 0.41912(19) 0.3924(3)
C1 C 0.3225(3) 0.4734(2) 0.2943(4)
C2 C 0.3332(3) 0.5634(2) 0.3451(4)
H1 H 0.2734 0.5939 0.3159
H2 H 0.3836 0.5921 0.3125
C3 C 0.3604(3) 0.5536(2) 0.5029(4)
H3 H 0.4211 0.5815 0.5397
C4 C 0.4117(3) 0.4155(2) 0.6352(4)
C5 C 0.4449(3) 0.4556(2) 0.7608(4)
H4 H 0.4403 0.5158 0.7668
C6 C 0.4846(3) 0.4090(2) 0.8772(4)
H5 H 0.5076 0.4375 0.9632
C7 C 0.4916(3) 0.3228(2) 0.8723(4)
H6 H 0.5195 0.2911 0.9535
C8 C 0.4576(3) 0.2827(2) 0.7472(4)
H7 H 0.4618 0.2224 0.7423
C9 C 0.4179(3) 0.3273(2) 0.6304(4)
H8 H 0.3943 0.2982 0.5450
C10 C 0.2889(2) 0.4464(2) 0.1528(4)
C11 C 0.2665(3) 0.3615(2) 0.1215(4)
H9 H 0.2737 0.3212 0.1948
C12 C 0.2343(3) 0.3352(2) -0.0126(4)
H10 H 0.2197 0.2768 -0.0320
C13 C 0.2228(3) 0.3932(2) -0.1205(4)
C14 C 0.2448(3) 0.4781(2) -0.0895(4)
H11 H 0.2385 0.5185 -0.1625
C15 C 0.2752(3) 0.5036(2) 0.0441(4)
H12 H 0.2874 0.5623 0.0636
C16 C 0.2837(3) 0.5859(2) 0.5724(3)
C17 C 0.2977(3) 0.6579(2) 0.6554(4)
H13 H 0.3597 0.6857 0.6728
C18 C 0.2257(3) 0.6902(2) 0.7127(4)
H14 H 0.2386 0.7400 0.7685
C19 C 0.1341(3) 0.6525(2) 0.6919(3)
C20 C 0.1195(3) 0.5796(2) 0.6083(3)
H15 H 0.0576 0.5515 0.5910
C21 C 0.1922(3) 0.5485(2) 0.5517(3)
H16 H 0.1796 0.4989 0.4954
N3 N 0.0621(2) 0.68362(17) 0.7508(3)
C22 C 0.0749(3) 0.7625(2) 0.8273(4)
H17 H 0.1396 0.7647 0.8840
H18 H 0.0300 0.7643 0.8867
C23 C 0.0582(3) 0.8387(2) 0.7322(4)
H19 H 0.1043 0.8380 0.6746
H20 H 0.0665 0.8893 0.7862
H21 H -0.0066 0.8369 0.6759
C24 C -0.0312(3) 0.6412(2) 0.7353(4)
H22 H -0.0512 0.6200 0.6431
H23 H -0.0790 0.6812 0.7492
C25 C -0.0277(3) 0.5690(2) 0.8353(4)
H24 H 0.0211 0.5294 0.8234
H25 H -0.0899 0.5416 0.8181
H26 H -0.0121 0.5903 0.9277
C26 C 0.1888(3) 0.3653(2) -0.2597(4)
N4 N 0.1599(3) 0.3407(2) -0.3703(3)

#END
