
#######################################################################
#
#                 Cambridge Crystallographic Data Centre
#                                CCDC 
#
#######################################################################
#
# If this CIF has been generated from an entry in the Cambridge 
# Structural Database, then it will include bibliographic, chemical, 
# crystal, experimental, refinement or atomic coordinate data resulting 
# from the CCDC's data processing and validation procedures.
#
#######################################################################

data_LABYOD
_symmetry_cell_setting           monoclinic
_symmetry_space_group_name_H-M   'P 21/c'
_symmetry_Int_Tables_number      14
_space_group_name_Hall           '-P 2ybc'
loop_
_symmetry_equiv_pos_site_id
_symmetry_equiv_pos_as_xyz
1 x,y,z
2 x,1/2-y,1/2+z
3 -x,-y,-z
4 -x,1/2+y,1/2-z
_cell_length_a                   11.135(2)
_cell_length_b                   19.020(4)
_cell_length_c                   11.430(2)
_cell_angle_alpha                90
_cell_angle_beta                 118.453(4)
_cell_angle_gamma                90
_cell_volume                     2128.33
loop_
_atom_site_label
_atom_site_type_symbol
_atom_site_fract_x
_atom_site_fract_y
_atom_site_fract_z
N1 N 0.87588(12) 0.36488(6) 0.18249(11)
N2 N 0.79210(12) 0.37978(6) 0.04990(11)
C1 C 0.70367(14) 0.32983(7) -0.00176(14)
C2 C 0.71724(15) 0.27383(8) 0.09605(14)
H1 H 0.7402 0.2294 0.0722
H2 H 0.6342 0.2689 0.1015
C3 C 0.83387(14) 0.30097(7) 0.22786(14)
H3 H 0.7973 0.3146 0.2855
C4 C 0.96352(14) 0.41578(7) 0.26516(14)
C5 C 1.03804(16) 0.40393(8) 0.40251(14)
H4 H 1.0268 0.3607 0.4395
C6 C 1.12731(16) 0.45416(8) 0.48450(15)
H5 H 1.1781 0.4455 0.5785
C7 C 1.14514(14) 0.51721(8) 0.43349(15)
C8 C 1.07100(15) 0.52933(8) 0.29721(15)
H6 H 1.0823 0.5729 0.2610
C9 C 0.98182(14) 0.47956(7) 0.21390(14)
H7 H 0.9317 0.4885 0.1200
C10 C 0.60571(14) 0.32845(7) -0.14388(14)
C11 C 0.61499(16) 0.37575(7) -0.23262(15)
H8 H 0.6894 0.4086 -0.2010
C12 C 0.51839(17) 0.37586(8) -0.36531(15)
H9 H 0.5255 0.4088 -0.4253
C13 C 0.41075(17) 0.32825(8) -0.41224(16)
H10 H 0.3421 0.3291 -0.5041
C14 C 0.40286(16) 0.27997(9) -0.32669(15)
H11 H 0.3299 0.2463 -0.3595
C15 C 0.49954(15) 0.27963(8) -0.19346(15)
H12 H 0.4934 0.2455 -0.1347
C16 C 0.94912(14) 0.24932(7) 0.30016(13)
C17 C 0.95289(14) 0.21023(7) 0.40396(13)
H13 H 0.8818 0.2167 0.4278
C18 C 1.05515(14) 0.16228(7) 0.47443(13)
H14 H 1.0523 0.1353 0.5441
C19 C 1.16335(14) 0.15234(7) 0.44572(13)
C20 C 1.15785(15) 0.19135(7) 0.33842(14)
H15 H 1.2284 0.1852 0.3137
C21 C 1.05321(14) 0.23811(7) 0.26828(14)
H16 H 1.0524 0.2636 0.1954
N3 N 1.26959(12) 0.10756(6) 0.51969(12)
C22 C 1.26737(16) 0.06141(7) 0.62011(14)
H17 H 1.3212 0.0205 0.6282
H18 H 1.1752 0.0462 0.5904
C23 C 1.32056(18) 0.09482(9) 0.75547(15)
H19 H 1.2651 0.1347 0.7493
H20 H 1.4132 0.1098 0.7867
H21 H 1.3173 0.0612 0.8166
C24 C 1.38642(15) 0.10148(8) 0.49619(15)
H22 H 1.4642 0.0864 0.5768
H23 H 1.4069 0.1470 0.4739
C25 C 1.36356(17) 0.05041(9) 0.38586(17)
H24 H 1.2865 0.0654 0.3046
H25 H 1.3462 0.0044 0.4088
H26 H 1.4434 0.0490 0.3742
C26 C 1.23679(17) 0.56952(9) 0.52101(16)
N4 N 1.30946(16) 0.61128(8) 0.59156(16)
N1 N 0.87588(12) 0.13512(6) 0.68249(11)
N2 N 0.79210(12) 0.12022(6) 0.54990(11)
C1 C 0.70367(14) 0.17017(7) 0.49824(14)
C2 C 0.71724(15) 0.22617(8) 0.59605(14)
H1 H 0.7402 0.2706 0.5722
H2 H 0.6342 0.2311 0.6015
C3 C 0.83387(14) 0.19903(7) 0.72786(14)
H3 H 0.7973 0.1854 0.7855
C4 C 0.96352(14) 0.08422(7) 0.76516(14)
C5 C 1.03804(16) 0.09607(8) 0.90251(14)
H4 H 1.0268 0.1393 0.9395
C6 C 1.12731(16) 0.04584(8) 0.98450(15)
H5 H 1.1781 0.0545 1.0785
C7 C 1.14514(14) -0.01721(8) 0.93349(15)
C8 C 1.07100(15) -0.02933(8) 0.79721(15)
H6 H 1.0823 -0.0729 0.7610
C9 C 0.98182(14) 0.02044(7) 0.71390(14)
H7 H 0.9317 0.0115 0.6200
C10 C 0.60571(14) 0.17155(7) 0.35612(14)
C11 C 0.61499(16) 0.12425(7) 0.26738(15)
H8 H 0.6894 0.0914 0.2990
C12 C 0.51839(17) 0.12414(8) 0.13469(15)
H9 H 0.5255 0.0912 0.0747
C13 C 0.41075(17) 0.17175(8) 0.08776(16)
H10 H 0.3421 0.1709 -0.0041
C14 C 0.40286(16) 0.22003(9) 0.17331(15)
H11 H 0.3299 0.2537 0.1405
C15 C 0.49954(15) 0.22037(8) 0.30654(15)
H12 H 0.4934 0.2545 0.3653
C16 C 0.94912(14) 0.25068(7) 0.80016(13)
C17 C 0.95289(14) 0.28977(7) 0.90396(13)
H13 H 0.8818 0.2833 0.9278
C18 C 1.05515(14) 0.33772(7) 0.97443(13)
H14 H 1.0523 0.3647 1.0441
C19 C 1.16335(14) 0.34766(7) 0.94572(13)
C20 C 1.15785(15) 0.30865(7) 0.83842(14)
H15 H 1.2284 0.3148 0.8137
C21 C 1.05321(14) 0.26189(7) 0.76828(14)
H16 H 1.0524 0.2364 0.6954
N3 N 1.26959(12) 0.39244(6) 1.01969(12)
C22 C 1.26737(16) 0.43859(7) 1.12011(14)
H17 H 1.3212 0.4795 1.1282
H18 H 1.1752 0.4538 1.0904
C23 C 1.32056(18) 0.40518(9) 1.25547(15)
H19 H 1.2651 0.3653 1.2493
H20 H 1.4132 0.3902 1.2867
H21 H 1.3173 0.4388 1.3166
C24 C 1.38642(15) 0.39852(8) 0.99619(15)
H22 H 1.4642 0.4136 1.0768
H23 H 1.4069 0.3530 0.9739
C25 C 1.36356(17) 0.44959(9) 0.88586(17)
H24 H 1.2865 0.4346 0.8046
H25 H 1.3462 0.4956 0.9088
H26 H 1.4434 0.4510 0.8742
C26 C 1.23679(17) -0.06952(9) 1.02101(16)
N4 N 1.30946(16) -0.11128(8) 1.09156(16)
N1 N 0.12412(12) 0.63512(6) 0.81751(11)
N2 N 0.20790(12) 0.62022(6) 0.95010(11)
C1 C 0.29633(14) 0.67017(7) 1.00176(14)
C2 C 0.28276(15) 0.72617(8) 0.90395(14)
H1 H 0.2598 0.7706 0.9278
H2 H 0.3658 0.7311 0.8985
C3 C 0.16613(14) 0.69903(7) 0.77214(14)
H3 H 0.2027 0.6854 0.7145
C4 C 0.03648(14) 0.58422(7) 0.73484(14)
C5 C -0.03804(16) 0.59607(8) 0.59749(14)
H4 H -0.0268 0.6393 0.5605
C6 C -0.12731(16) 0.54584(8) 0.51550(15)
H5 H -0.1781 0.5545 0.4215
C7 C -0.14514(14) 0.48279(8) 0.56651(15)
C8 C -0.07100(15) 0.47067(8) 0.70279(15)
H6 H -0.0823 0.4271 0.7390
C9 C 0.01818(14) 0.52044(7) 0.78610(14)
H7 H 0.0683 0.5115 0.8800
C10 C 0.39429(14) 0.67155(7) 1.14388(14)
C11 C 0.38501(16) 0.62425(7) 1.23262(15)
H8 H 0.3106 0.5914 1.2010
C12 C 0.48161(17) 0.62414(8) 1.36531(15)
H9 H 0.4745 0.5912 1.4253
C13 C 0.58925(17) 0.67175(8) 1.41224(16)
H10 H 0.6579 0.6709 1.5041
C14 C 0.59714(16) 0.72003(9) 1.32669(15)
H11 H 0.6701 0.7537 1.3595
C15 C 0.50046(15) 0.72037(8) 1.19346(15)
H12 H 0.5066 0.7545 1.1347
C16 C 0.05088(14) 0.75068(7) 0.69984(13)
C17 C 0.04711(14) 0.78977(7) 0.59604(13)
H13 H 0.1182 0.7833 0.5722
C18 C -0.05515(14) 0.83772(7) 0.52557(13)
H14 H -0.0523 0.8647 0.4559
C19 C -0.16335(14) 0.84766(7) 0.55428(13)
C20 C -0.15785(15) 0.80865(7) 0.66158(14)
H15 H -0.2284 0.8148 0.6863
C21 C -0.05321(14) 0.76189(7) 0.73172(14)
H16 H -0.0524 0.7364 0.8046
N3 N -0.26959(12) 0.89244(6) 0.48031(12)
C22 C -0.26737(16) 0.93859(7) 0.37989(14)
H17 H -0.3212 0.9795 0.3718
H18 H -0.1752 0.9538 0.4096
C23 C -0.32056(18) 0.90518(9) 0.24453(15)
H19 H -0.2651 0.8653 0.2507
H20 H -0.4132 0.8902 0.2133
H21 H -0.3173 0.9388 0.1834
C24 C -0.38642(15) 0.89852(8) 0.50381(15)
H22 H -0.4642 0.9136 0.4232
H23 H -0.4069 0.8530 0.5261
C25 C -0.36356(17) 0.94959(9) 0.61414(17)
H24 H -0.2865 0.9346 0.6954
H25 H -0.3462 0.9956 0.5912
H26 H -0.4434 0.9510 0.6258
C26 C -0.23679(17) 0.43048(9) 0.47899(16)
N4 N -0.30946(16) 0.38872(8) 0.40844(16)
N1 N 0.12412(12) 0.86488(6) 0.31751(11)
N2 N 0.20790(12) 0.87978(6) 0.45010(11)
C1 C 0.29633(14) 0.82983(7) 0.50176(14)
C2 C 0.28276(15) 0.77383(8) 0.40395(14)
H1 H 0.2598 0.7294 0.4278
H2 H 0.3658 0.7689 0.3985
C3 C 0.16613(14) 0.80097(7) 0.27214(14)
H3 H 0.2027 0.8146 0.2145
C4 C 0.03648(14) 0.91578(7) 0.23484(14)
C5 C -0.03804(16) 0.90393(8) 0.09749(14)
H4 H -0.0268 0.8607 0.0605
C6 C -0.12731(16) 0.95416(8) 0.01550(15)
H5 H -0.1781 0.9455 -0.0785
C7 C -0.14514(14) 1.01721(8) 0.06651(15)
C8 C -0.07100(15) 1.02933(8) 0.20279(15)
H6 H -0.0823 1.0729 0.2390
C9 C 0.01818(14) 0.97956(7) 0.28610(14)
H7 H 0.0683 0.9885 0.3800
C10 C 0.39429(14) 0.82845(7) 0.64388(14)
C11 C 0.38501(16) 0.87575(7) 0.73262(15)
H8 H 0.3106 0.9086 0.7010
C12 C 0.48161(17) 0.87586(8) 0.86531(15)
H9 H 0.4745 0.9088 0.9253
C13 C 0.58925(17) 0.82825(8) 0.91224(16)
H10 H 0.6579 0.8291 1.0041
C14 C 0.59714(16) 0.77997(9) 0.82669(15)
H11 H 0.6701 0.7463 0.8595
C15 C 0.50046(15) 0.77963(8) 0.69346(15)
H12 H 0.5066 0.7455 0.6347
C16 C 0.05088(14) 0.74932(7) 0.19984(13)
C17 C 0.04711(14) 0.71023(7) 0.09604(13)
H13 H 0.1182 0.7167 0.0722
C18 C -0.05515(14) 0.66228(7) 0.02557(13)
H14 H -0.0523 0.6353 -0.0441
C19 C -0.16335(14) 0.65234(7) 0.05428(13)
C20 C -0.15785(15) 0.69135(7) 0.16158(14)
H15 H -0.2284 0.6852 0.1863
C21 C -0.05321(14) 0.73811(7) 0.23172(14)
H16 H -0.0524 0.7636 0.3046
N3 N -0.26959(12) 0.60756(6) -0.01969(12)
C22 C -0.26737(16) 0.56141(7) -0.12011(14)
H17 H -0.3212 0.5205 -0.1282
H18 H -0.1752 0.5462 -0.0904
C23 C -0.32056(18) 0.59482(9) -0.25547(15)
H19 H -0.2651 0.6347 -0.2493
H20 H -0.4132 0.6098 -0.2867
H21 H -0.3173 0.5612 -0.3166
C24 C -0.38642(15) 0.60148(8) 0.00381(15)
H22 H -0.4642 0.5864 -0.0768
H23 H -0.4069 0.6470 0.0261
C25 C -0.36356(17) 0.55041(9) 0.11414(17)
H24 H -0.2865 0.5654 0.1954
H25 H -0.3462 0.5044 0.0912
H26 H -0.4434 0.5490 0.1258
C26 C -0.23679(17) 1.06952(9) -0.02101(16)
N4 N -0.30946(16) 1.11128(8) -0.09156(16)

#END
