
#######################################################################
#
#                 Cambridge Crystallographic Data Centre
#                                CCDC 
#
#######################################################################
#
# If this CIF has been generated from an entry in the Cambridge 
# Structural Database, then it will include bibliographic, chemical, 
# crystal, experimental, refinement or atomic coordinate data resulting 
# from the CCDC's data processing and validation procedures.
#
#######################################################################

data_LABYES
_symmetry_cell_setting           monoclinic
_symmetry_space_group_name_H-M   'P 21/c'
_symmetry_Int_Tables_number      14
_space_group_name_Hall           '-P 2ybc'
loop_
_symmetry_equiv_pos_site_id
_symmetry_equiv_pos_as_xyz
1 x,y,z
2 -x,1/2+y,1/2-z
3 -x,-y,-z
4 x,1/2-y,1/2+z
_cell_length_a                   5.362(1)
_cell_length_b                   24.558(3)
_cell_length_c                   11.793(1)
_cell_angle_alpha                90
_cell_angle_beta                 96.42(1)
_cell_angle_gamma                90
_cell_volume                     1543.16
loop_
_atom_site_label
_atom_site_type_symbol
_atom_site_fract_x
_atom_site_fract_y
_atom_site_fract_z
O1 O 0.7298(3) 0.01098(9) 0.6722(2)
O2 O 1.0344(3) 0.12520(9) 0.2367(2)
O3 O 0.7840(3) 0.05352(9) 0.1915(2)
O4 O 0.3317(3) 0.22226(9) 0.4140(2)
O5 O 0.4753(3) 0.21498(9) 0.2425(2)
O6 O 0.5531(3) 0.10387(9) 0.5166(2)
N1 N 0.9874(4) 0.0772(1) 0.6167(2)
C1 C 0.7109(4) 0.1511(1) 0.5190(2)
C2 C 0.9719(4) 0.1273(1) 0.5498(2)
C3 C 0.9540(4) 0.0725(1) 0.4930(2)
C4 C 0.6826(4) 0.0720(1) 0.4387(2)
C5 C 0.6629(4) 0.1102(1) 0.3332(2)
C6 C 0.6980(4) 0.1670(1) 0.3921(2)
C7 C 0.8522(4) 0.0990(1) 0.2501(2)
C8 C 0.9484(5) 0.0375(2) 0.1081(3)
C9 C 0.4807(4) 0.2044(1) 0.3539(2)
C10 C 0.2716(6) 0.2493(2) 0.1942(3)
C11 C 0.8096(4) 0.0578(1) 0.6843(2)
C12 C 0.7503(4) 0.0928(1) 0.7804(2)
C13 C 0.8938(5) 0.1387(1) 0.8155(3)
C14 C 0.8334(6) 0.1697(1) 0.9065(3)
C15 C 0.6308(5) 0.1556(2) 0.9645(3)
C16 C 0.4894(5) 0.1104(2) 0.9298(3)
C17 C 0.5461(4) 0.0788(1) 0.8385(2)
H1 H 0.646(5) 0.179(1) 0.568(3)
H2 H 1.120(5) 0.146(1) 0.553(3)
H3 H 1.084(5) 0.061(1) 0.457(2)
H4 H 0.609(5) 0.037(1) 0.425(2)
H5 H 0.487(5) 0.107(1) 0.291(2)
H6 H 0.847(5) 0.185(1) 0.374(3)
H7 H 1.115(6) 0.036(2) 0.149(3)
H8 H 0.882(6) 0.007(2) 0.077(3)
H9 H 0.944(6) 0.068(1) 0.045(3)
H10 H 0.105(7) 0.228(2) 0.209(3)
H11 H 0.291(6) 0.252(1) 0.110(4)
H12 H 0.283(6) 0.286(2) 0.227(3)
H13 H 1.037(5) 0.149(1) 0.772(3)
H14 H 0.919(7) 0.201(2) 0.926(3)
H15 H 0.585(6) 0.179(1) 1.026(3)
H16 H 0.358(5) 0.100(1) 0.968(2)
H17 H 0.451(5) 0.048(1) 0.819(3)
O1 O 0.2702(3) 0.51098(9) -0.1722(2)
O2 O -0.0344(3) 0.62520(9) 0.2633(2)
O3 O 0.2160(3) 0.55352(9) 0.3085(2)
O4 O 0.6683(3) 0.72226(9) 0.0860(2)
O5 O 0.5247(3) 0.71498(9) 0.2575(2)
O6 O 0.4469(3) 0.60387(9) -0.0166(2)
N1 N 0.0126(4) 0.5772(1) -0.1167(2)
C1 C 0.2891(4) 0.6511(1) -0.0190(2)
C2 C 0.0281(4) 0.6273(1) -0.0498(2)
C3 C 0.0460(4) 0.5725(1) 0.0070(2)
C4 C 0.3174(4) 0.5720(1) 0.0613(2)
C5 C 0.3371(4) 0.6102(1) 0.1668(2)
C6 C 0.3020(4) 0.6670(1) 0.1079(2)
C7 C 0.1478(4) 0.5990(1) 0.2499(2)
C8 C 0.0516(5) 0.5375(2) 0.3919(3)
C9 C 0.5193(4) 0.7044(1) 0.1461(2)
C10 C 0.7284(6) 0.7493(2) 0.3058(3)
C11 C 0.1904(4) 0.5578(1) -0.1843(2)
C12 C 0.2497(4) 0.5928(1) -0.2804(2)
C13 C 0.1062(5) 0.6387(1) -0.3155(3)
C14 C 0.1666(6) 0.6697(1) -0.4065(3)
C15 C 0.3692(5) 0.6556(2) -0.4645(3)
C16 C 0.5106(5) 0.6104(2) -0.4298(3)
C17 C 0.4539(4) 0.5788(1) -0.3385(2)
H1 H 0.354(5) 0.679(1) -0.068(3)
H2 H -0.120(5) 0.646(1) -0.053(3)
H3 H -0.084(5) 0.561(1) 0.043(2)
H4 H 0.391(5) 0.537(1) 0.075(2)
H5 H 0.513(5) 0.607(1) 0.209(2)
H6 H 0.153(5) 0.685(1) 0.126(3)
H7 H -0.115(6) 0.536(2) 0.351(3)
H8 H 0.118(6) 0.507(2) 0.423(3)
H9 H 0.056(6) 0.568(1) 0.455(3)
H10 H 0.895(7) 0.728(2) 0.291(3)
H11 H 0.709(6) 0.752(1) 0.390(4)
H12 H 0.717(6) 0.786(2) 0.273(3)
H13 H -0.037(5) 0.649(1) -0.272(3)
H14 H 0.081(7) 0.701(2) -0.426(3)
H15 H 0.415(6) 0.679(1) -0.526(3)
H16 H 0.642(5) 0.600(1) -0.468(2)
H17 H 0.549(5) 0.548(1) -0.319(3)
O1 O 0.2702(3) 0.98902(9) 0.3278(2)
O2 O -0.0344(3) 0.87480(9) 0.7633(2)
O3 O 0.2160(3) 0.94648(9) 0.8085(2)
O4 O 0.6683(3) 0.77774(9) 0.5860(2)
O5 O 0.5247(3) 0.78502(9) 0.7575(2)
O6 O 0.4469(3) 0.89613(9) 0.4834(2)
N1 N 0.0126(4) 0.9228(1) 0.3833(2)
C1 C 0.2891(4) 0.8489(1) 0.4810(2)
C2 C 0.0281(4) 0.8727(1) 0.4502(2)
C3 C 0.0460(4) 0.9275(1) 0.5070(2)
C4 C 0.3174(4) 0.9280(1) 0.5613(2)
C5 C 0.3371(4) 0.8898(1) 0.6668(2)
C6 C 0.3020(4) 0.8330(1) 0.6079(2)
C7 C 0.1478(4) 0.9010(1) 0.7499(2)
C8 C 0.0516(5) 0.9625(2) 0.8919(3)
C9 C 0.5193(4) 0.7956(1) 0.6461(2)
C10 C 0.7284(6) 0.7507(2) 0.8058(3)
C11 C 0.1904(4) 0.9422(1) 0.3157(2)
C12 C 0.2497(4) 0.9072(1) 0.2196(2)
C13 C 0.1062(5) 0.8613(1) 0.1845(3)
C14 C 0.1666(6) 0.8303(1) 0.0935(3)
C15 C 0.3692(5) 0.8444(2) 0.0355(3)
C16 C 0.5106(5) 0.8896(2) 0.0702(3)
C17 C 0.4539(4) 0.9212(1) 0.1615(2)
H1 H 0.354(5) 0.821(1) 0.432(3)
H2 H -0.120(5) 0.854(1) 0.447(3)
H3 H -0.084(5) 0.939(1) 0.543(2)
H4 H 0.391(5) 0.963(1) 0.575(2)
H5 H 0.513(5) 0.893(1) 0.709(2)
H6 H 0.153(5) 0.815(1) 0.626(3)
H7 H -0.115(6) 0.964(2) 0.851(3)
H8 H 0.118(6) 0.993(2) 0.923(3)
H9 H 0.056(6) 0.932(1) 0.955(3)
H10 H 0.895(7) 0.772(2) 0.791(3)
H11 H 0.709(6) 0.748(1) 0.890(4)
H12 H 0.717(6) 0.714(2) 0.773(3)
H13 H -0.037(5) 0.851(1) 0.228(3)
H14 H 0.081(7) 0.799(2) 0.074(3)
H15 H 0.415(6) 0.821(1) -0.026(3)
H16 H 0.642(5) 0.900(1) 0.032(2)
H17 H 0.549(5) 0.952(1) 0.181(3)
O1 O 0.7298(3) 0.48902(9) 1.1722(2)
O2 O 1.0344(3) 0.37480(9) 0.7367(2)
O3 O 0.7840(3) 0.44648(9) 0.6915(2)
O4 O 0.3317(3) 0.27774(9) 0.9140(2)
O5 O 0.4753(3) 0.28502(9) 0.7425(2)
O6 O 0.5531(3) 0.39613(9) 1.0166(2)
N1 N 0.9874(4) 0.4228(1) 1.1167(2)
C1 C 0.7109(4) 0.3489(1) 1.0190(2)
C2 C 0.9719(4) 0.3727(1) 1.0498(2)
C3 C 0.9540(4) 0.4275(1) 0.9930(2)
C4 C 0.6826(4) 0.4280(1) 0.9387(2)
C5 C 0.6629(4) 0.3898(1) 0.8332(2)
C6 C 0.6980(4) 0.3330(1) 0.8921(2)
C7 C 0.8522(4) 0.4010(1) 0.7501(2)
C8 C 0.9484(5) 0.4625(2) 0.6081(3)
C9 C 0.4807(4) 0.2956(1) 0.8539(2)
C10 C 0.2716(6) 0.2507(2) 0.6942(3)
C11 C 0.8096(4) 0.4422(1) 1.1843(2)
C12 C 0.7503(4) 0.4072(1) 1.2804(2)
C13 C 0.8938(5) 0.3613(1) 1.3155(3)
C14 C 0.8334(6) 0.3303(1) 1.4065(3)
C15 C 0.6308(5) 0.3444(2) 1.4645(3)
C16 C 0.4894(5) 0.3896(2) 1.4298(3)
C17 C 0.5461(4) 0.4212(1) 1.3385(2)
H1 H 0.646(5) 0.321(1) 1.068(3)
H2 H 1.120(5) 0.354(1) 1.053(3)
H3 H 1.084(5) 0.439(1) 0.957(2)
H4 H 0.609(5) 0.463(1) 0.925(2)
H5 H 0.487(5) 0.393(1) 0.791(2)
H6 H 0.847(5) 0.315(1) 0.874(3)
H7 H 1.115(6) 0.464(2) 0.649(3)
H8 H 0.882(6) 0.493(2) 0.577(3)
H9 H 0.944(6) 0.432(1) 0.545(3)
H10 H 0.105(7) 0.272(2) 0.709(3)
H11 H 0.291(6) 0.248(1) 0.610(4)
H12 H 0.283(6) 0.214(2) 0.727(3)
H13 H 1.037(5) 0.351(1) 1.272(3)
H14 H 0.919(7) 0.299(2) 1.426(3)
H15 H 0.585(6) 0.321(1) 1.526(3)
H16 H 0.358(5) 0.400(1) 1.468(2)
H17 H 0.451(5) 0.452(1) 1.319(3)

#END
