
#######################################################################
#
#                 Cambridge Crystallographic Data Centre
#                                CCDC 
#
#######################################################################
#
# If this CIF has been generated from an entry in the Cambridge 
# Structural Database, then it will include bibliographic, chemical, 
# crystal, experimental, refinement or atomic coordinate data resulting 
# from the CCDC's data processing and validation procedures.
#
#######################################################################

data_LABZIX
_symmetry_cell_setting           triclinic
_symmetry_space_group_name_H-M   'P -1'
_symmetry_Int_Tables_number      2
_space_group_name_Hall           '-P 1'
loop_
_symmetry_equiv_pos_site_id
_symmetry_equiv_pos_as_xyz
1 x,y,z
2 -x,-y,-z
_cell_length_a                   9.365(1)
_cell_length_b                   13.318(2)
_cell_length_c                   6.918(3)
_cell_angle_alpha                96.45(3)
_cell_angle_beta                 105.30(2)
_cell_angle_gamma                110.11(1)
_cell_volume                     761.621
loop_
_atom_site_label
_atom_site_type_symbol
_atom_site_fract_x
_atom_site_fract_y
_atom_site_fract_z
O1 O 0.7801(8) 0.4421(5) -0.3544(10)
O2 O 0.7373(7) 0.5126(5) -0.0088(11)
N1 N 0.8987(8) 0.2445(5) 0.2695(11)
N2 N 1.0645(8) -0.0157(6) 0.2536(10)
C1 C 1.2333(12) 0.2873(7) 0.3167(15)
C2 C 1.1154(11) 0.1807(6) 0.2822(13)
C3 C 0.7979(9) 0.3934(7) -0.2168(15)
C4 C 1.3877(12) 0.3051(7) 0.3419(15)
C5 C 0.7824(10) 0.4273(7) -0.0160(16)
C6 C 0.7170(12) 0.5512(8) 0.1790(19)
C7 C 1.4368(11) 0.2158(8) 0.3372(15)
C8 C 0.8167(9) 0.3771(6) 0.1420(14)
C9 C 1.3274(10) 0.1115(7) 0.3052(14)
C10 C 1.1648(10) 0.0893(7) 0.2806(13)
C11 C 0.8671(9) 0.2858(6) 0.1116(14)
C12 C 0.8059(11) -0.1437(7) 0.2129(13)
C13 C 0.9113(10) -0.0326(6) 0.2368(12)
C14 C 0.8738(10) 0.2466(7) -0.0901(14)
C15 C 0.6506(12) -0.1690(7) 0.1950(14)
C16 C 0.8417(9) 0.2979(6) -0.2436(14)
C17 C 0.5875(11) -0.0862(8) 0.1973(15)
C18 C 0.6833(11) 0.0201(8) 0.2182(14)
C19 C 0.8480(11) 0.0501(7) 0.2377(12)
C20 C 0.9530(11) 0.1578(7) 0.2572(14)
H1 H 1.2023(12) 0.3481(7) 0.3220(15)
H2 H 1.4641(12) 0.3775(7) 0.3631(15)
H3 H 0.6681(12) 0.6026(8) 0.1585(19)
H4 H 0.8148(12) 0.5841(8) 0.2908(19)
H5 H 0.6465(12) 0.4888(8) 0.2087(19)
H6 H 1.5463(11) 0.2286(8) 0.3562(15)
H7 H 0.8080(9) 0.4017(6) 0.2712(14)
H8 H 1.3620(10) 0.0523(7) 0.2995(14)
H9 H 0.8461(11) -0.2001(7) 0.2097(13)
H10 H 0.9008(10) 0.1849(7) -0.1134(14)
H11 H 0.5822(12) -0.2431(7) 0.1807(14)
H12 H 0.8476(9) 0.2715(6) -0.3735(14)
H13 H 0.4773(11) -0.1054(8) 0.1842(15)
H14 H 0.6397(11) 0.0747(8) 0.2196(14)
O1 O 0.2199(8) 0.5579(5) 1.3544(10)
O2 O 0.2627(7) 0.4874(5) 1.0088(11)
N1 N 0.1013(8) 0.7555(5) 0.7305(11)
N2 N -0.0645(8) 1.0157(6) 0.7464(10)
C1 C -0.2333(12) 0.7127(7) 0.6833(15)
C2 C -0.1154(11) 0.8193(6) 0.7178(13)
C3 C 0.2021(9) 0.6066(7) 1.2168(15)
C4 C -0.3877(12) 0.6949(7) 0.6581(15)
C5 C 0.2176(10) 0.5727(7) 1.0160(16)
C6 C 0.2830(12) 0.4488(8) 0.8210(19)
C7 C -0.4368(11) 0.7842(8) 0.6628(15)
C8 C 0.1833(9) 0.6229(6) 0.8580(14)
C9 C -0.3274(10) 0.8885(7) 0.6948(14)
C10 C -0.1648(10) 0.9107(7) 0.7194(13)
C11 C 0.1329(9) 0.7142(6) 0.8884(14)
C12 C 0.1941(11) 1.1437(7) 0.7871(13)
C13 C 0.0887(10) 1.0326(6) 0.7632(12)
C14 C 0.1262(10) 0.7534(7) 1.0901(14)
C15 C 0.3494(12) 1.1690(7) 0.8050(14)
C16 C 0.1583(9) 0.7021(6) 1.2436(14)
C17 C 0.4125(11) 1.0862(8) 0.8027(15)
C18 C 0.3167(11) 0.9799(8) 0.7818(14)
C19 C 0.1520(11) 0.9499(7) 0.7623(12)
C20 C 0.0470(11) 0.8422(7) 0.7428(14)
H1 H -0.2023(12) 0.6519(7) 0.6780(15)
H2 H -0.4641(12) 0.6225(7) 0.6369(15)
H3 H 0.3319(12) 0.3974(8) 0.8415(19)
H4 H 0.1852(12) 0.4159(8) 0.7092(19)
H5 H 0.3535(12) 0.5112(8) 0.7913(19)
H6 H -0.5463(11) 0.7714(8) 0.6438(15)
H7 H 0.1920(9) 0.5983(6) 0.7288(14)
H8 H -0.3620(10) 0.9477(7) 0.7005(14)
H9 H 0.1539(11) 1.2001(7) 0.7903(13)
H10 H 0.0992(10) 0.8151(7) 1.1134(14)
H11 H 0.4178(12) 1.2431(7) 0.8193(14)
H12 H 0.1524(9) 0.7285(6) 1.3735(14)
H13 H 0.5227(11) 1.1054(8) 0.8158(15)
H14 H 0.3603(11) 0.9253(8) 0.7804(14)

#END
