./LABZIX_from_POSCAR.cif_generated_by_CrystalShift
_symmetry_cell_setting triclinic
_symmetry_space_group_name_H-M 'P 1'
loop_
_symmetry_equiv_pos_site_id
_symmetry_equiv_pos_as_xyz
1 x,y,z
_cell_length_a 9.365000
_cell_length_b 13.318000
_cell_length_c 6.918000
_cell_angle_alpha 96.450000
_cell_angle_beta 105.300000
_cell_angle_gamma 110.110000
_cell_volume 761.620861
loop_
_atom_site_label
_atom_site_type_symbol
_atom_site_fract_x
_atom_site_fract_y
_atom_site_fract_z
H1 H 0.360300 0.925300 0.780400
H2 H 0.152400 0.728500 1.373500
H3 H 0.417800 1.243100 0.819300
H4 H 0.099200 0.815100 1.113400
H5 H 0.153900 1.200100 0.790300
H6 H -0.362000 0.947700 0.700500
H7 H 0.192000 0.598300 0.728800
H8 H -0.546300 0.771400 0.643800
H9 H 0.353500 0.511200 0.791300
H10 H 0.185200 0.415900 0.709200
H11 H 0.331900 0.397400 0.841500
H12 H -0.464100 0.622500 0.636900
H13 H -0.202300 0.651900 0.678000
H14 H 0.639700 0.074700 0.219600
H15 H 0.477300 -0.105400 0.184200
H16 H 0.847600 0.271500 -0.373500
H17 H 0.582200 -0.243100 0.180700
H18 H 0.900800 0.184900 -0.113400
H19 H 0.846100 -0.200100 0.209700
H20 H 1.362000 0.052300 0.299500
H21 H 0.808000 0.401700 0.271200
H22 H 1.546300 0.228600 0.356200
H23 H 0.646500 0.488800 0.208700
H24 H 0.814800 0.584100 0.290800
H25 H 1.202300 0.348100 0.322000
H26 H 1.464100 0.377500 0.363100
H27 H 0.668100 0.602600 0.158500
H28 H 0.522700 1.105400 0.815800
C29 C 0.848000 0.050100 0.237700
C30 C 0.683300 0.020100 0.218200
C31 C 0.587500 -0.086200 0.197300
C32 C 0.841700 0.297900 -0.243600
C33 C 0.650600 -0.169000 0.195000
C34 C 0.873800 0.246600 -0.090100
C35 C 0.911300 -0.032600 0.236800
C36 C 0.805900 -0.143700 0.212900
C37 C 0.867100 0.285800 0.111600
C38 C 1.164800 0.089300 0.280600
C39 C 1.233300 0.287300 0.316700
C40 C 1.115400 0.180700 0.282200
C41 C 0.797900 0.393400 -0.216800
C42 C 1.387700 0.305100 0.341900
C43 C -0.233300 0.712700 0.683300
C44 C -0.115400 0.819300 0.717800
C45 C 0.202100 0.606600 1.216800
C46 C -0.387700 0.694900 0.658100
C47 C 0.217600 0.572700 1.016000
C48 C 0.283000 0.448800 0.821000
C49 C -0.436800 0.784200 0.662800
C50 C 0.183300 0.622900 0.858000
C51 C -0.327400 0.888500 0.694800
C52 C -0.164800 0.910700 0.719400
C53 C 0.132900 0.714200 0.888400
C54 C 0.194100 1.143700 0.787100
C55 C 0.088700 1.032600 0.763200
C56 C 0.126200 0.753400 1.090100
C57 C 0.349400 1.169000 0.805000
C58 C 0.158300 0.702100 1.243600
C59 C 0.412500 1.086200 0.802700
C60 C 0.316700 0.979900 0.781800
C61 C 0.152000 0.949900 0.762300
C62 C 0.047000 0.842200 0.742800
C63 C 1.327400 0.111500 0.305200
C64 C 0.816700 0.377100 0.142000
C65 C 1.436800 0.215800 0.337200
C66 C 0.717000 0.551200 0.179000
C67 C 0.782400 0.427300 -0.016000
C68 C 0.953000 0.157800 0.257200
N69 N 0.101300 0.755500 0.730500
N70 N 0.898700 0.244500 0.269500
N71 N 1.064500 -0.015700 0.253600
N72 N -0.064500 1.015700 0.746400
O73 O 0.737300 0.512600 -0.008800
O74 O 0.219900 0.557900 1.354400
O75 O 0.262700 0.487400 1.008800
O76 O 0.780100 0.442100 -0.354400

#END
