
#######################################################################
#
#                 Cambridge Crystallographic Data Centre
#                                CCDC 
#
#######################################################################
#
# If this CIF has been generated from an entry in the Cambridge 
# Structural Database, then it will include bibliographic, chemical, 
# crystal, experimental, refinement or atomic coordinate data resulting 
# from the CCDC's data processing and validation procedures.
#
#######################################################################

data_LACBOG
_symmetry_cell_setting           tetragonal
_symmetry_space_group_name_H-M   'P 43'
_symmetry_Int_Tables_number      78
_space_group_name_Hall           'P 4cw'
loop_
_symmetry_equiv_pos_site_id
_symmetry_equiv_pos_as_xyz
1 x,y,z
2 -y,x,3/4+z
3 -x,-y,1/2+z
4 y,-x,1/4+z
_cell_length_a                   4.938(1)
_cell_length_b                   4.938(1)
_cell_length_c                   36.907(8)
_cell_angle_alpha                90
_cell_angle_beta                 90
_cell_angle_gamma                90
_cell_volume                     899.935
loop_
_atom_site_label
_atom_site_type_symbol
_atom_site_fract_x
_atom_site_fract_y
_atom_site_fract_z
C1 C 0.7376(6) 0.6900(6) 0.0272
O1 O 0.5835(5) 0.8733(4) 0.0161(1)
C2 C 0.6553(6) 0.4998(6) 0.0576(1)
O2 O 0.4239(5) 0.3464(5) 0.0466(1)
C3 C 0.5785(6) 0.6634(6) 0.0911(1)
O3 O 0.7930(5) 0.8501(5) 0.0984(1)
C4 C 0.5159(7) 0.4846(6) 0.1236(1)
O4 O 0.7507(5) 0.3327(5) 0.13324(9)
C5 C 0.4358(6) 0.6467(6) 0.1569(1)
O5 O 0.2029(5) 0.8000(5) 0.1473(1)
C6 C 0.3751(7) 0.4726(7) 0.1895(1)
O6 O 0.1627(5) 0.2804(4) 0.1825(1)
N1 N 0.9747(6) 0.6474(6) 0.0121(1)
N2 N 1.0619(6) 0.7881(7) -0.0189(1)
H1 H 0.826(7) 0.380(7) 0.0632(9)
H2 H 0.374(7) 0.377(8) 0.119(1)
H3 H 0.409(9) 0.746(7) 0.085(1)
H4 H 0.595(6) 0.777(7) 0.1631(9)
H5 H 0.316(6) 0.577(6) 0.2116(8)
H6 H 0.533(9) 0.355(8) 0.197(1)
H7 H 0.46(1) 0.19(1) 0.036(1)
H8 H 0.877(8) 0.784(7) 0.114(1)
H9 H 0.764(8) 0.199(8) 0.125(1)
H10 H 0.210(9) 0.913(9) 0.161(1)
H11 H 0.036(9) 0.356(8) 0.167(1)
H12 H 1.088(9) 0.52(1) 0.022(1)
H13 H 1.217(9) 0.88(1) -0.009(1)
H14 H 0.935(8) 0.937(8) -0.023(1)
C1 C 0.3100(6) 0.7376(6) 0.7772
O1 O 0.1267(4) 0.5835(5) 0.7661(1)
C2 C 0.5002(6) 0.6553(6) 0.8076(1)
O2 O 0.6536(5) 0.4239(5) 0.7966(1)
C3 C 0.3366(6) 0.5785(6) 0.8411(1)
O3 O 0.1499(5) 0.7930(5) 0.8484(1)
C4 C 0.5154(6) 0.5159(7) 0.8736(1)
O4 O 0.6673(5) 0.7507(5) 0.88324(9)
C5 C 0.3533(6) 0.4358(6) 0.9069(1)
O5 O 0.2000(5) 0.2029(5) 0.8973(1)
C6 C 0.5274(7) 0.3751(7) 0.9395(1)
O6 O 0.7196(4) 0.1627(5) 0.9325(1)
N1 N 0.3526(6) 0.9747(6) 0.7621(1)
N2 N 0.2119(7) 1.0619(6) 0.7311(1)
H1 H 0.620(7) 0.826(7) 0.8132(9)
H2 H 0.623(8) 0.374(7) 0.869(1)
H3 H 0.254(7) 0.409(9) 0.835(1)
H4 H 0.223(7) 0.595(6) 0.9131(9)
H5 H 0.423(6) 0.316(6) 0.9616(8)
H6 H 0.645(8) 0.533(9) 0.947(1)
H7 H 0.81(1) 0.46(1) 0.786(1)
H8 H 0.216(7) 0.877(8) 0.864(1)
H9 H 0.801(8) 0.764(8) 0.875(1)
H10 H 0.087(9) 0.210(9) 0.911(1)
H11 H 0.644(8) 0.036(9) 0.917(1)
H12 H 0.48(1) 1.088(9) 0.772(1)
H13 H 0.12(1) 1.217(9) 0.741(1)
H14 H 0.063(8) 0.935(8) 0.727(1)
C1 C 0.2624(6) 0.3100(6) 0.5272
O1 O 0.4165(5) 0.1267(4) 0.5161(1)
C2 C 0.3447(6) 0.5002(6) 0.5576(1)
O2 O 0.5761(5) 0.6536(5) 0.5466(1)
C3 C 0.4215(6) 0.3366(6) 0.5911(1)
O3 O 0.2070(5) 0.1499(5) 0.5984(1)
C4 C 0.4841(7) 0.5154(6) 0.6236(1)
O4 O 0.2493(5) 0.6673(5) 0.63324(9)
C5 C 0.5642(6) 0.3533(6) 0.6569(1)
O5 O 0.7971(5) 0.2000(5) 0.6473(1)
C6 C 0.6249(7) 0.5274(7) 0.6895(1)
O6 O 0.8373(5) 0.7196(4) 0.6825(1)
N1 N 0.0253(6) 0.3526(6) 0.5121(1)
N2 N -0.0619(6) 0.2119(7) 0.4811(1)
H1 H 0.174(7) 0.620(7) 0.5632(9)
H2 H 0.626(7) 0.623(8) 0.619(1)
H3 H 0.591(9) 0.254(7) 0.585(1)
H4 H 0.405(6) 0.223(7) 0.6631(9)
H5 H 0.684(6) 0.423(6) 0.7116(8)
H6 H 0.467(9) 0.645(8) 0.697(1)
H7 H 0.54(1) 0.81(1) 0.536(1)
H8 H 0.123(8) 0.216(7) 0.614(1)
H9 H 0.236(8) 0.801(8) 0.625(1)
H10 H 0.790(9) 0.087(9) 0.661(1)
H11 H 0.964(9) 0.644(8) 0.667(1)
H12 H -0.088(9) 0.48(1) 0.522(1)
H13 H -0.217(9) 0.12(1) 0.491(1)
H14 H 0.065(8) 0.063(8) 0.477(1)
C1 C 0.6900(6) 0.2624(6) 0.2772
O1 O 0.8733(4) 0.4165(5) 0.2661(1)
C2 C 0.4998(6) 0.3447(6) 0.3076(1)
O2 O 0.3464(5) 0.5761(5) 0.2966(1)
C3 C 0.6634(6) 0.4215(6) 0.3411(1)
O3 O 0.8501(5) 0.2070(5) 0.3484(1)
C4 C 0.4846(6) 0.4841(7) 0.3736(1)
O4 O 0.3327(5) 0.2493(5) 0.38324(9)
C5 C 0.6467(6) 0.5642(6) 0.4069(1)
O5 O 0.8000(5) 0.7971(5) 0.3973(1)
C6 C 0.4726(7) 0.6249(7) 0.4395(1)
O6 O 0.2804(4) 0.8373(5) 0.4325(1)
N1 N 0.6474(6) 0.0253(6) 0.2621(1)
N2 N 0.7881(7) -0.0619(6) 0.2311(1)
H1 H 0.380(7) 0.174(7) 0.3132(9)
H2 H 0.377(8) 0.626(7) 0.369(1)
H3 H 0.746(7) 0.591(9) 0.335(1)
H4 H 0.777(7) 0.405(6) 0.4131(9)
H5 H 0.577(6) 0.684(6) 0.4616(8)
H6 H 0.355(8) 0.467(9) 0.447(1)
H7 H 0.19(1) 0.54(1) 0.286(1)
H8 H 0.784(7) 0.123(8) 0.364(1)
H9 H 0.199(8) 0.236(8) 0.375(1)
H10 H 0.913(9) 0.790(9) 0.411(1)
H11 H 0.356(8) 0.964(9) 0.417(1)
H12 H 0.52(1) -0.088(9) 0.272(1)
H13 H 0.88(1) -0.217(9) 0.241(1)
H14 H 0.937(8) 0.065(8) 0.227(1)

#END
