
#######################################################################
#
#                 Cambridge Crystallographic Data Centre
#                                CCDC 
#
#######################################################################
#
# If this CIF has been generated from an entry in the Cambridge 
# Structural Database, then it will include bibliographic, chemical, 
# crystal, experimental, refinement or atomic coordinate data resulting 
# from the CCDC's data processing and validation procedures.
#
#######################################################################

data_LACDAV
_symmetry_cell_setting           triclinic
_symmetry_space_group_name_H-M   'P -1'
_symmetry_Int_Tables_number      2
_space_group_name_Hall           '-P 1'
loop_
_symmetry_equiv_pos_site_id
_symmetry_equiv_pos_as_xyz
1 x,y,z
2 -x,-y,-z
_cell_length_a                   5.786(4)
_cell_length_b                   9.157(3)
_cell_length_c                   11.801(4)
_cell_angle_alpha                104.36(3)
_cell_angle_beta                 95.18(4)
_cell_angle_gamma                104.40(5)
_cell_volume                     578.936
loop_
_atom_site_label
_atom_site_type_symbol
_atom_site_fract_x
_atom_site_fract_y
_atom_site_fract_z
I1 I 0.36003(8) 0.22344(6) 0.46743(4)
S1 S 0.2293(2) 0.07548(15) 0.12568(13)
O1 O 0.9803(6) 0.4671(4) 0.3203(3)
O2 O 1.0955(7) 0.7521(5) 0.3101(4)
O3 O 0.8250(7) 0.8361(5) 0.2191(4)
N1 N 0.6137(7) 0.3018(4) 0.2285(3)
N2 N -0.1034(8) 0.3102(6) 0.0031(4)
C1 C 0.474(1) 0.0195(7) 0.1966(5)
C2 C 0.6657(9) 0.1693(6) 0.2680(4)
C3 C 0.3967(8) 0.2677(6) 0.1591(4)
C4 C 0.3272(8) 0.3850(5) 0.1216(4)
C5 C 0.4847(9) 0.5345(6) 0.1534(4)
C6 C 0.7091(8) 0.5695(5) 0.2196(4)
C7 C 0.7826(8) 0.4494(6) 0.2604(4)
C8 C 0.6847(9) 0.2003(7) 0.4013(5)
C9 C 0.0888(9) 0.3447(6) 0.0538(4)
C10 C 0.8770(9) 0.7311(6) 0.2490(5)
H1 H 1.095(11) 0.649(8) 0.318(5)
H2 H 0.4108 -0.0461 0.2501
H3 H 0.5455 -0.0454 0.1344
H4 H 0.8280 0.1565 0.2510
H5 H 0.4337 0.6210 0.1271
H6 H 0.7229 0.1103 0.4263
H7 H 0.8222 0.2986 0.4421
I1 I 0.63997(8) 0.77656(6) 0.53257(4)
S1 S 0.7707(2) 0.92452(15) 0.87432(13)
O1 O 0.0197(6) 0.5329(4) 0.6797(3)
O2 O -0.0955(7) 0.2479(5) 0.6899(4)
O3 O 0.1750(7) 0.1639(5) 0.7809(4)
N1 N 0.3863(7) 0.6982(4) 0.7715(3)
N2 N 1.1034(8) 0.6898(6) 0.9969(4)
C1 C 0.526(1) 0.9805(7) 0.8034(5)
C2 C 0.3343(9) 0.8307(6) 0.7320(4)
C3 C 0.6033(8) 0.7323(6) 0.8409(4)
C4 C 0.6728(8) 0.6150(5) 0.8784(4)
C5 C 0.5153(9) 0.4655(6) 0.8466(4)
C6 C 0.2909(8) 0.4305(5) 0.7804(4)
C7 C 0.2174(8) 0.5506(6) 0.7396(4)
C8 C 0.3153(9) 0.7997(7) 0.5987(5)
C9 C 0.9112(9) 0.6553(6) 0.9462(4)
C10 C 0.1230(9) 0.2689(6) 0.7510(5)
H1 H -0.095(11) 0.351(8) 0.682(5)
H2 H 0.5892 1.0461 0.7499
H3 H 0.4545 1.0454 0.8656
H4 H 0.1720 0.8435 0.7490
H5 H 0.5663 0.3790 0.8729
H6 H 0.2771 0.8897 0.5737
H7 H 0.1778 0.7014 0.5579

#END
