
#######################################################################
#
#                 Cambridge Crystallographic Data Centre
#                                CCDC 
#
#######################################################################
#
# If this CIF has been generated from an entry in the Cambridge 
# Structural Database, then it will include bibliographic, chemical, 
# crystal, experimental, refinement or atomic coordinate data resulting 
# from the CCDC's data processing and validation procedures.
#
#######################################################################

data_LACDUO
_symmetry_cell_setting           triclinic
_symmetry_space_group_name_H-M   'P 1'
_symmetry_Int_Tables_number      1
_space_group_name_Hall           'P 1'
loop_
_symmetry_equiv_pos_site_id
_symmetry_equiv_pos_as_xyz
1 x,y,z
_cell_length_a                   8.899(1)
_cell_length_b                   13.709(2)
_cell_length_c                   4.895(1)
_cell_angle_alpha                96.2(1)
_cell_angle_beta                 89.9(1)
_cell_angle_gamma                107.2(1)
_cell_volume                     566.842
loop_
_atom_site_label
_atom_site_type_symbol
_atom_site_fract_x
_atom_site_fract_y
_atom_site_fract_z
Br1 Br 0.0934(1) -0.3637(1) 0.0393(2)
C1 C 0.1608(4) -0.2246(2) -0.0120(8)
C2 C 0.1004(4) -0.1552(2) 0.1458(7)
C3 C 0.1528(4) -0.0514(2) 0.1112(7)
C4 C 0.2656(4) -0.0169(2) -0.0812(7)
C5 C 0.3261(4) -0.0862(3) -0.2391(7)
C6 C 0.2737(4) -0.1900(2) -0.2045(7)
C7 C 0.3264(7) 0.0935(4) -0.1330(11)
O1 O 0.3788(6) 0.1167(3) -0.3555(8)
N1 N 0.3191(5) 0.1630(3) 0.0755(9)
C8 C 0.3636(6) 0.2693(4) 0.0754(11)
C9 C 0.4649(7) 0.3235(5) -0.0908(12)
C10 C 0.2800(7) 0.3185(4) 0.2906(12)
O2 O 0.1763(5) 0.2707(3) 0.4209(9)
O3 O 0.3337(5) 0.4215(3) 0.3148(8)
C11 C 0.2595(8) 0.4748(5) 0.5206(15)
H1 H 0.0248(5) -0.1783(3) 0.2745(9)
H2 H 0.1123(6) -0.0050(3) 0.2168(10)
H3 H 0.4016(5) -0.0631(3) -0.3678(9)
H4 H 0.3142(6) -0.2364(3) -0.3101(10)
H5 H 0.2831(5) 0.1396(3) 0.2262(9)
H6 H 0.5136(7) 0.2904(5) -0.2230(12)
H7 H 0.4872(7) 0.3946(5) -0.0752(12)
H8 H 0.3063(8) 0.5476(5) 0.5236(15)
H9 H 0.2741(8) 0.4545(5) 0.6980(15)
H10 H 0.1490(8) 0.4574(5) 0.4764(15)

#END
