
#######################################################################
#
#                 Cambridge Crystallographic Data Centre
#                                CCDC 
#
#######################################################################
#
# If this CIF has been generated from an entry in the Cambridge 
# Structural Database, then it will include bibliographic, chemical, 
# crystal, experimental, refinement or atomic coordinate data resulting 
# from the CCDC's data processing and validation procedures.
#
#######################################################################

data_LACGAA
_symmetry_cell_setting           monoclinic
_symmetry_space_group_name_H-M   'P 21/c'
_symmetry_Int_Tables_number      14
_space_group_name_Hall           '-P 2ybc'
loop_
_symmetry_equiv_pos_site_id
_symmetry_equiv_pos_as_xyz
1 x,y,z
2 -x,1/2+y,1/2-z
3 -x,-y,-z
4 x,1/2-y,1/2+z
_cell_length_a                   10.5350(2)
_cell_length_b                   13.0020(4)
_cell_length_c                   11.0961(2)
_cell_angle_alpha                90
_cell_angle_beta                 96.168(2)
_cell_angle_gamma                90
_cell_volume                     1511.1
loop_
_atom_site_label
_atom_site_type_symbol
_atom_site_fract_x
_atom_site_fract_y
_atom_site_fract_z
Zn1 Zn 0.73147(3) 0.09816(3) 0.26086(3)
O1 O 1.11019(16) 0.17844(14) 0.59536(15)
O2 O 0.75229(18) -0.05483(16) 0.24892(15)
H1 H 0.7963 -0.0933 0.3009
H2 H 0.7211 -0.091 0.1938
O3 O 0.35544(17) 0.18204(14) -0.07489(15)
N1 N 0.81800(18) 0.09631(15) 0.44401(17)
N2 N 0.93284(17) 0.14919(15) 0.45285(16)
N3 N 0.64999(18) 0.10616(16) 0.07765(17)
N4 N 0.8900(2) 0.18150(19) 0.25085(19)
H3 H 0.9155 0.2191 0.189
N5 N 0.52715(18) 0.14498(15) 0.07167(16)
N6 N 1.0758(2) 0.2469(2) 0.3575(2)
H4 H 1.1228 0.2469 0.427
H5 H 1.1039 0.2763 0.2916
N7 N 0.55589(19) 0.15113(17) 0.27809(17)
H6 H 0.5194 0.1761 0.3433
N8 N 0.3658(2) 0.2133(2) 0.1744(2)
H7 H 0.3228 0.2203 0.1048
H8 H 0.3454 0.2427 0.2482
C1 C 0.9675(2) 0.1937(2) 0.3474(2)
C2 C 0.7027(3) -0.0127(3) 0.5731(2)
H9 H 0.646 -0.018 0.4996
H10 H 0.6589 0.019 0.6349
H11 H 0.7307 -0.0802 0.5991
C3 C 0.4818(2) 0.17086(19) 0.1804(2)
C4 C 0.8155(2) 0.0508(2) 0.5507(2)
C5 C 0.7928(3) 0.0421(3) -0.0630(3)
H12 H 0.8494 0.0373 0.0106
H13 H 0.8294 0.0867 -0.1189
H14 H 0.7803 -0.0251 -0.0982
C6 C 0.9255(2) 0.0723(2) 0.6284(2)
H15 H 0.9484 0.0443 0.7074
C7 C 0.6676(2) 0.0845(2) -0.0357(2)
C8 C 1.0026(2) 0.13526(18) 0.56639(19)
C9 C 0.5593(3) 0.1073(2) -0.1153(2)
H16 H 0.5502 0.1005 -0.2022
C10 C 0.4682(2) 0.14719(19) -0.0475(2)
Zn1 Zn 0.26853(3) 0.59816(3) 0.23914(3)
O1 O -0.11019(16) 0.67844(14) -0.09536(15)
O2 O 0.24771(18) 0.44517(16) 0.25108(15)
H1 H 0.2037 0.4067 0.1991
H2 H 0.2789 0.409 0.3062
O3 O 0.64456(17) 0.68204(14) 0.57489(15)
N1 N 0.18200(18) 0.59631(15) 0.05599(17)
N2 N 0.06716(17) 0.64919(15) 0.04715(16)
N3 N 0.35001(18) 0.60616(16) 0.42235(17)
N4 N 0.1100(2) 0.68150(19) 0.24915(19)
H3 H 0.0845 0.7191 0.311
N5 N 0.47285(18) 0.64498(15) 0.42833(16)
N6 N -0.0758(2) 0.7469(2) 0.1425(2)
H4 H -0.1228 0.7469 0.073
H5 H -0.1039 0.7763 0.2084
N7 N 0.44411(19) 0.65113(17) 0.22191(17)
H6 H 0.4806 0.6761 0.1567
N8 N 0.6342(2) 0.7133(2) 0.3256(2)
H7 H 0.6772 0.7203 0.3952
H8 H 0.6546 0.7427 0.2518
C1 C 0.0325(2) 0.6937(2) 0.1526(2)
C2 C 0.2973(3) 0.4873(3) -0.0731(2)
H9 H 0.354 0.482 0.0004
H10 H 0.3411 0.519 -0.1349
H11 H 0.2693 0.4198 -0.0991
C3 C 0.5182(2) 0.67086(19) 0.3196(2)
C4 C 0.1845(2) 0.5508(2) -0.0507(2)
C5 C 0.2072(3) 0.5421(3) 0.5630(3)
H12 H 0.1506 0.5373 0.4894
H13 H 0.1706 0.5867 0.6189
H14 H 0.2197 0.4749 0.5982
C6 C 0.0745(2) 0.5723(2) -0.1284(2)
H15 H 0.0516 0.5443 -0.2074
C7 C 0.3324(2) 0.5845(2) 0.5357(2)
C8 C -0.0026(2) 0.63526(18) -0.06639(19)
C9 C 0.4407(3) 0.6073(2) 0.6153(2)
H16 H 0.4498 0.6005 0.7022
C10 C 0.5318(2) 0.64719(19) 0.5475(2)
Zn1 Zn 0.26853(3) 0.90184(3) 0.73914(3)
O1 O -0.11019(16) 0.82156(14) 0.40464(15)
O2 O 0.24771(18) 1.05483(16) 0.75108(15)
H1 H 0.2037 1.0933 0.6991
H2 H 0.2789 1.091 0.8062
O3 O 0.64456(17) 0.81796(14) 1.07489(15)
N1 N 0.18200(18) 0.90369(15) 0.55599(17)
N2 N 0.06716(17) 0.85081(15) 0.54715(16)
N3 N 0.35001(18) 0.89384(16) 0.92235(17)
N4 N 0.1100(2) 0.81850(19) 0.74915(19)
H3 H 0.0845 0.7809 0.811
N5 N 0.47285(18) 0.85502(15) 0.92833(16)
N6 N -0.0758(2) 0.7531(2) 0.6425(2)
H4 H -0.1228 0.7531 0.573
H5 H -0.1039 0.7237 0.7084
N7 N 0.44411(19) 0.84887(17) 0.72191(17)
H6 H 0.4806 0.8239 0.6567
N8 N 0.6342(2) 0.7867(2) 0.8256(2)
H7 H 0.6772 0.7797 0.8952
H8 H 0.6546 0.7573 0.7518
C1 C 0.0325(2) 0.8063(2) 0.6526(2)
C2 C 0.2973(3) 1.0127(3) 0.4269(2)
H9 H 0.354 1.018 0.5004
H10 H 0.3411 0.981 0.3651
H11 H 0.2693 1.0802 0.4009
C3 C 0.5182(2) 0.82914(19) 0.8196(2)
C4 C 0.1845(2) 0.9492(2) 0.4493(2)
C5 C 0.2072(3) 0.9579(3) 1.0630(3)
H12 H 0.1506 0.9627 0.9894
H13 H 0.1706 0.9133 1.1189
H14 H 0.2197 1.0251 1.0982
C6 C 0.0745(2) 0.9277(2) 0.3716(2)
H15 H 0.0516 0.9557 0.2926
C7 C 0.3324(2) 0.9155(2) 1.0357(2)
C8 C -0.0026(2) 0.86474(18) 0.43361(19)
C9 C 0.4407(3) 0.8927(2) 1.1153(2)
H16 H 0.4498 0.8995 1.2022
C10 C 0.5318(2) 0.85281(19) 1.0475(2)
Zn1 Zn 0.73147(3) 0.40184(3) 0.76086(3)
O1 O 1.11019(16) 0.32156(14) 1.09536(15)
O2 O 0.75229(18) 0.55483(16) 0.74892(15)
H1 H 0.7963 0.5933 0.8009
H2 H 0.7211 0.591 0.6938
O3 O 0.35544(17) 0.31796(14) 0.42511(15)
N1 N 0.81800(18) 0.40369(15) 0.94401(17)
N2 N 0.93284(17) 0.35081(15) 0.95285(16)
N3 N 0.64999(18) 0.39384(16) 0.57765(17)
N4 N 0.8900(2) 0.31850(19) 0.75085(19)
H3 H 0.9155 0.2809 0.689
N5 N 0.52715(18) 0.35502(15) 0.57167(16)
N6 N 1.0758(2) 0.2531(2) 0.8575(2)
H4 H 1.1228 0.2531 0.927
H5 H 1.1039 0.2237 0.7916
N7 N 0.55589(19) 0.34887(17) 0.77809(17)
H6 H 0.5194 0.3239 0.8433
N8 N 0.3658(2) 0.2867(2) 0.6744(2)
H7 H 0.3228 0.2797 0.6048
H8 H 0.3454 0.2573 0.7482
C1 C 0.9675(2) 0.3063(2) 0.8474(2)
C2 C 0.7027(3) 0.5127(3) 1.0731(2)
H9 H 0.646 0.518 0.9996
H10 H 0.6589 0.481 1.1349
H11 H 0.7307 0.5802 1.0991
C3 C 0.4818(2) 0.32914(19) 0.6804(2)
C4 C 0.8155(2) 0.4492(2) 1.0507(2)
C5 C 0.7928(3) 0.4579(3) 0.4370(3)
H12 H 0.8494 0.4627 0.5106
H13 H 0.8294 0.4133 0.3811
H14 H 0.7803 0.5251 0.4018
C6 C 0.9255(2) 0.4277(2) 1.1284(2)
H15 H 0.9484 0.4557 1.2074
C7 C 0.6676(2) 0.4155(2) 0.4643(2)
C8 C 1.0026(2) 0.36474(18) 1.06639(19)
C9 C 0.5593(3) 0.3927(2) 0.3847(2)
H16 H 0.5502 0.3995 0.2978
C10 C 0.4682(2) 0.35281(19) 0.4525(2)

#END
