
#######################################################################
#
#                 Cambridge Crystallographic Data Centre
#                                CCDC 
#
#######################################################################
#
# If this CIF has been generated from an entry in the Cambridge 
# Structural Database, then it will include bibliographic, chemical, 
# crystal, experimental, refinement or atomic coordinate data resulting 
# from the CCDC's data processing and validation procedures.
#
#######################################################################

data_LACGII
_symmetry_cell_setting           orthorhombic
_symmetry_space_group_name_H-M   'P 21 21 21'
_symmetry_Int_Tables_number      19
_space_group_name_Hall           'P 2ac 2ab'
loop_
_symmetry_equiv_pos_site_id
_symmetry_equiv_pos_as_xyz
1 x,y,z
2 1/2-x,-y,1/2+z
3 1/2+x,1/2-y,-z
4 -x,1/2+y,1/2-z
_cell_length_a                   7.767(5)
_cell_length_b                   8.102(5)
_cell_length_c                   10.966(5)
_cell_angle_alpha                90
_cell_angle_beta                 90
_cell_angle_gamma                90
_cell_volume                     690.071
loop_
_atom_site_label
_atom_site_type_symbol
_atom_site_fract_x
_atom_site_fract_y
_atom_site_fract_z
O1 O 0.2881(3) 0.1660(3) 0.3089(2)
N1 N 0.2108(3) 0.0048(4) 0.1395(2)
N2 N 0.0749(4) -0.0125(3) 0.0566(3)
N3 N 0.3703(4) -0.1902(4) 0.0374(3)
H1 H 0.4433 -0.2639 0.0372
H2 H 0.2884 -0.1846 -0.0252
N4 N 0.4566(4) -0.1008(4) 0.2265(3)
H3 H 0.5397 -0.1762 0.2221
H4 H 0.4337 -0.0337 0.291
C1 C 0.1770(4) 0.1296(4) 0.2265(3)
C2 C -0.0370(4) 0.0981(5) 0.0939(3)
C3 C 0.3493(4) -0.0980(4) 0.1334(3)
C4 C -0.2050(5) 0.1170(6) 0.0284(4)
H5 H -0.2965 0.0763 0.079
H6 H -0.2018 0.0553 -0.0463
H7 H -0.2244 0.2315 0.0106
C5 C 0.0177(5) 0.1871(5) 0.1965(3)
H8 H -0.0486 0.2797 0.2333
O1 O 0.2119(3) 0.8340(3) 0.8089(2)
N1 N 0.2892(3) 0.9952(4) 0.6395(2)
N2 N 0.4251(4) 1.0125(3) 0.5566(3)
N3 N 0.1297(4) 1.1902(4) 0.5374(3)
H1 H 0.0567 1.2639 0.5372
H2 H 0.2116 1.1846 0.4748
N4 N 0.0434(4) 1.1008(4) 0.7265(3)
H3 H -0.0397 1.1762 0.7221
H4 H 0.0663 1.0337 0.791
C1 C 0.3230(4) 0.8704(4) 0.7265(3)
C2 C 0.5370(4) 0.9019(5) 0.5939(3)
C3 C 0.1507(4) 1.0980(4) 0.6334(3)
C4 C 0.7050(5) 0.8830(6) 0.5284(4)
H5 H 0.7965 0.9237 0.579
H6 H 0.7018 0.9447 0.4537
H7 H 0.7244 0.7685 0.5106
C5 C 0.4823(5) 0.8129(5) 0.6965(3)
H8 H 0.5486 0.7203 0.7333
O1 O 0.7881(3) 0.3340(3) 0.6911(2)
N1 N 0.7108(3) 0.4952(4) 0.8605(2)
N2 N 0.5749(4) 0.5125(3) 0.9434(3)
N3 N 0.8703(4) 0.6902(4) 0.9626(3)
H1 H 0.9433 0.7639 0.9628
H2 H 0.7884 0.6846 1.0252
N4 N 0.9566(4) 0.6008(4) 0.7735(3)
H3 H 1.0397 0.6762 0.7779
H4 H 0.9337 0.5337 0.709
C1 C 0.6770(4) 0.3704(4) 0.7735(3)
C2 C 0.4630(4) 0.4019(5) 0.9061(3)
C3 C 0.8493(4) 0.5980(4) 0.8666(3)
C4 C 0.2950(5) 0.3830(6) 0.9716(4)
H5 H 0.2035 0.4237 0.921
H6 H 0.2982 0.4447 1.0463
H7 H 0.2756 0.2685 0.9894
C5 C 0.5177(5) 0.3129(5) 0.8035(3)
H8 H 0.4514 0.2203 0.7667
O1 O 0.7119(3) 0.6660(3) 0.1911(2)
N1 N 0.7892(3) 0.5048(4) 0.3605(2)
N2 N 0.9251(4) 0.4875(3) 0.4434(3)
N3 N 0.6297(4) 0.3098(4) 0.4626(3)
H1 H 0.5567 0.2361 0.4628
H2 H 0.7116 0.3154 0.5252
N4 N 0.5434(4) 0.3992(4) 0.2735(3)
H3 H 0.4603 0.3238 0.2779
H4 H 0.5663 0.4663 0.209
C1 C 0.8230(4) 0.6296(4) 0.2735(3)
C2 C 1.0370(4) 0.5981(5) 0.4061(3)
C3 C 0.6507(4) 0.4020(4) 0.3666(3)
C4 C 1.2050(5) 0.6170(6) 0.4716(4)
H5 H 1.2965 0.5763 0.421
H6 H 1.2018 0.5553 0.5463
H7 H 1.2244 0.7315 0.4894
C5 C 0.9823(5) 0.6871(5) 0.3035(3)
H8 H 1.0486 0.7797 0.2667

#END
