./LACGUR_from_POSCAR.cif_generated_by_CrystalShift
_symmetry_cell_setting triclinic
_symmetry_space_group_name_H-M 'P 1'
loop_
_symmetry_equiv_pos_site_id
_symmetry_equiv_pos_as_xyz
1 x,y,z
_cell_length_a 4.829000
_cell_length_b 6.040000
_cell_length_c 14.047000
_cell_angle_alpha 97.730000
_cell_angle_beta 98.370000
_cell_angle_gamma 94.340000
_cell_volume 399.763248
loop_
_atom_site_label
_atom_site_type_symbol
_atom_site_fract_x
_atom_site_fract_y
_atom_site_fract_z
H1 H 0.710000 0.056000 1.276000
H2 H 0.423000 1.685000 1.137000
H3 H 0.432000 1.303000 1.353000
H4 H 0.681000 0.454000 1.064000
H5 H 0.921000 0.960000 0.126000
H6 H 1.079000 0.040000 0.874000
H7 H 1.577000 -0.685000 0.863000
H8 H 1.319000 -0.454000 0.936000
H9 H 1.290000 -0.056000 0.724000
H10 H 1.568000 -0.303000 0.647000
H11 H 0.432000 0.303000 1.353000
H12 H 0.423000 1.685000 0.137000
H13 H 0.423000 0.685000 1.137000
H14 H 0.568000 -0.303000 -0.353000
H15 H 0.290000 -0.056000 -0.276000
H16 H 0.319000 -0.454000 -0.064000
H17 H 0.577000 -0.685000 -0.137000
H18 H 0.079000 0.040000 -0.126000
H19 H 0.432000 1.303000 0.353000
H20 H 0.423000 0.685000 0.137000
H21 H 0.432000 0.303000 0.353000
H22 H -0.079000 -0.040000 0.126000
H23 H 0.681000 0.454000 0.064000
H24 H 0.710000 0.056000 0.276000
H25 H 0.921000 -0.040000 0.126000
H26 H -0.290000 0.056000 0.276000
H27 H 0.681000 1.454000 0.064000
H28 H -0.319000 0.454000 0.064000
H29 H 1.079000 0.040000 -0.126000
H30 H -0.568000 0.303000 0.353000
H31 H -0.577000 0.685000 0.137000
H32 H 1.577000 -0.685000 -0.137000
H33 H 1.319000 -0.454000 -0.064000
H34 H 1.290000 -0.056000 -0.276000
H35 H 0.681000 1.454000 1.064000
H36 H 1.568000 -0.303000 -0.353000
H37 H 0.710000 1.056000 1.276000
H38 H 0.710000 1.056000 0.276000
H39 H -0.577000 1.685000 1.137000
H40 H 1.079000 1.040000 -0.126000
H41 H 1.577000 0.315000 -0.137000
H42 H -0.568000 1.303000 1.353000
H43 H -0.319000 1.454000 1.064000
H44 H -0.290000 1.056000 1.276000
H45 H -0.079000 0.960000 1.126000
H46 H 0.079000 1.040000 0.874000
H47 H 0.577000 0.315000 0.863000
H48 H 0.319000 0.546000 0.936000
H49 H 0.290000 0.944000 0.724000
H50 H 0.568000 -0.303000 0.647000
H51 H 0.290000 -0.056000 0.724000
H52 H 0.319000 -0.454000 0.936000
H53 H 0.577000 -0.685000 0.863000
H54 H 0.079000 0.040000 0.874000
H55 H 1.319000 0.546000 -0.064000
H56 H 0.568000 0.697000 0.647000
H57 H 1.568000 0.697000 0.647000
H58 H -0.079000 -0.040000 1.126000
H59 H 1.290000 0.944000 0.724000
H60 H 1.319000 0.546000 0.936000
H61 H 1.577000 0.315000 0.863000
H62 H -0.290000 0.056000 1.276000
H63 H -0.577000 1.685000 0.137000
H64 H -0.319000 0.454000 1.064000
H65 H -0.568000 1.303000 0.353000
H66 H -0.568000 0.303000 1.353000
H67 H -0.577000 0.685000 1.137000
H68 H 1.290000 0.944000 -0.276000
H69 H -0.319000 1.454000 0.064000
H70 H -0.290000 1.056000 0.276000
H71 H 0.921000 0.960000 1.126000
H72 H -0.079000 0.960000 0.126000
H73 H 0.079000 1.040000 -0.126000
H74 H 1.568000 0.697000 -0.353000
H75 H 1.079000 1.040000 0.874000
H76 H 0.577000 0.315000 -0.137000
H77 H 0.319000 0.546000 -0.064000
H78 H 0.290000 0.944000 -0.276000
H79 H 0.568000 0.697000 -0.353000
H80 H 0.921000 -0.040000 1.126000
C81 C 0.358800 0.805600 -0.242300
C82 C 0.287400 0.770100 -0.154400
C83 C 0.375600 0.582900 -0.114900
C84 C 0.535700 0.439100 -0.163000
C85 C 0.125400 0.927800 -0.103000
C86 C 0.606200 0.481000 -0.249400
C87 C 0.755500 0.265600 -0.383400
C88 C 1.535700 0.439100 -0.163000
C89 C 1.125400 0.927800 -0.103000
C90 C 0.874600 1.072200 1.103000
C91 C 1.375600 0.582900 -0.114900
C92 C -0.125400 1.072200 0.103000
C93 C -0.287400 1.229900 0.154400
C94 C 0.712600 1.229900 1.154400
C95 C -0.358800 1.194400 0.242300
C96 C -0.375600 1.417100 0.114900
C97 C -0.520400 1.338700 0.292100
C98 C 0.641200 1.194400 1.242300
C99 C -0.535700 1.560900 0.163000
C100 C -0.755500 0.734400 1.383400
C101 C -0.606200 1.519000 0.249400
C102 C -0.606200 0.519000 1.249400
C103 C -0.535700 0.560900 1.163000
C104 C 1.287400 0.770100 -0.154400
C105 C -0.755500 1.734400 0.383400
C106 C -0.520400 0.338700 1.292100
C107 C -0.375600 0.417100 1.114900
C108 C -0.358800 0.194400 1.242300
C109 C -0.287400 0.229900 1.154400
C110 C 1.125400 0.927800 0.897000
C111 C 1.535700 0.439100 0.837000
C112 C 1.358800 0.805600 -0.242300
C113 C 1.520400 0.661300 -0.292100
C114 C 0.755500 0.265600 0.616600
C115 C 0.606200 0.481000 0.750600
C116 C 0.520400 0.661300 0.707900
C117 C 0.358800 0.805600 0.757700
C118 C 0.287400 0.770100 0.845600
C119 C 0.375600 0.582900 0.885100
C120 C 0.535700 0.439100 0.837000
C121 C 0.125400 0.927800 0.897000
C122 C -0.125400 0.072200 1.103000
C123 C 0.125400 -0.072200 0.897000
C124 C 0.535700 -0.560900 0.837000
C125 C 0.375600 -0.417100 0.885100
C126 C 0.287400 -0.229900 0.845600
C127 C 1.606200 0.481000 -0.249400
C128 C -0.125400 1.072200 1.103000
C129 C -0.287400 1.229900 1.154400
C130 C 0.358800 -0.194400 0.757700
C131 C -0.358800 1.194400 1.242300
C132 C -0.375600 1.417100 1.114900
C133 C -0.520400 1.338700 1.292100
C134 C 0.520400 -0.338700 0.707900
C135 C -0.535700 1.560900 1.163000
C136 C 0.606200 -0.519000 0.750600
C137 C -0.606200 1.519000 1.249400
C138 C 0.755500 -0.734400 0.616600
C139 C 0.624400 1.417100 1.114900
C140 C 1.755500 0.265600 -0.383400
C141 C -0.755500 1.734400 1.383400
C142 C 1.375600 0.582900 0.885100
C143 C 0.479600 1.338700 0.292100
C144 C 1.287400 0.770100 0.845600
C145 C 1.358800 0.805600 0.757700
C146 C 1.520400 0.661300 0.707900
C147 C 1.606200 0.481000 0.750600
C148 C 0.479600 1.338700 1.292100
C149 C 0.464300 1.560900 0.163000
C150 C 1.755500 -0.734400 -0.383400
C151 C 1.606200 -0.519000 -0.249400
C152 C 1.520400 -0.338700 -0.292100
C153 C 1.358800 -0.194400 -0.242300
C154 C 1.287400 -0.229900 -0.154400
C155 C 1.375600 -0.417100 -0.114900
C156 C 1.535700 -0.560900 -0.163000
C157 C 1.125400 -0.072200 -0.103000
C158 C 0.464300 1.560900 1.163000
C159 C 0.393800 1.519000 1.249400
C160 C -0.755500 0.734400 0.383400
C161 C 0.874600 1.072200 0.103000
C162 C -0.606200 0.519000 0.249400
C163 C -0.535700 0.560900 0.163000
C164 C 0.874600 0.072200 0.103000
C165 C 0.712600 0.229900 0.154400
C166 C -0.520400 0.338700 0.292100
C167 C 0.641200 0.194400 0.242300
C168 C 0.624400 0.417100 0.114900
C169 C 0.479600 0.338700 0.292100
C170 C -0.375600 0.417100 0.114900
C171 C 0.464300 0.560900 0.163000
C172 C -0.358800 0.194400 0.242300
C173 C 0.393800 0.519000 0.249400
C174 C -0.287400 0.229900 0.154400
C175 C -0.125400 0.072200 0.103000
C176 C 0.393800 1.519000 0.249400
C177 C 0.244500 0.734400 0.383400
C178 C 1.755500 0.265600 0.616600
C179 C 0.712600 1.229900 0.154400
C180 C 0.244500 0.734400 1.383400
C181 C 0.244500 1.734400 0.383400
C182 C 0.125400 -0.072200 -0.103000
C183 C 0.535700 -0.560900 -0.163000
C184 C 0.375600 -0.417100 -0.114900
C185 C 0.393800 0.519000 1.249400
C186 C 1.755500 -0.734400 0.616600
C187 C 1.606200 -0.519000 0.750600
C188 C 1.520400 -0.338700 0.707900
C189 C 1.358800 -0.194400 0.757700
C190 C 1.287400 -0.229900 0.845600
C191 C 1.375600 -0.417100 0.885100
C192 C 1.535700 -0.560900 0.837000
C193 C 1.125400 -0.072200 0.897000
C194 C 0.287400 -0.229900 -0.154400
C195 C 0.358800 -0.194400 -0.242300
C196 C 0.520400 -0.338700 -0.292100
C197 C 0.606200 -0.519000 -0.249400
C198 C 0.755500 -0.734400 -0.383400
C199 C 0.641200 1.194400 0.242300
C200 C 0.874600 0.072200 1.103000
C201 C 0.712600 0.229900 1.154400
C202 C 0.520400 0.661300 -0.292100
C203 C 0.641200 0.194400 1.242300
C204 C 0.624400 0.417100 1.114900
C205 C 0.479600 0.338700 1.292100
C206 C 0.244500 1.734400 1.383400
C207 C 0.464300 0.560900 1.163000
C208 C 0.624400 1.417100 0.114900
N209 N 1.080000 -0.085900 0.982600
N210 N 0.080000 -0.085900 -0.017400
N211 N -0.080000 0.085900 0.017400
N212 N 0.920000 1.085900 0.017400
N213 N 0.080000 -0.085900 0.982600
N214 N 1.080000 0.914100 0.982600
N215 N -0.080000 0.085900 1.017400
N216 N 0.920000 0.085900 0.017400
N217 N 1.080000 -0.085900 -0.017400
N218 N 0.920000 1.085900 1.017400
N219 N 0.080000 0.914100 -0.017400
N220 N -0.080000 1.085900 0.017400
N221 N 1.080000 0.914100 -0.017400
N222 N 0.080000 0.914100 0.982600
N223 N -0.080000 1.085900 1.017400
N224 N 0.920000 0.085900 1.017400
O225 O 0.779800 0.326700 0.709300
O226 O -0.779800 1.673300 0.290700
O227 O 1.779800 0.326700 -0.290700
O228 O 0.220200 1.673300 1.290700
O229 O 0.779800 0.326700 -0.290700
O230 O 1.779800 -0.673300 -0.290700
O231 O -0.779800 0.673300 1.290700
O232 O 0.220200 0.673300 0.290700
O233 O 1.779800 0.326700 0.709300
O234 O 0.779800 -0.673300 0.709300
O235 O 0.220200 0.673300 1.290700
O236 O -0.779800 0.673300 0.290700
O237 O 0.220200 1.673300 0.290700
O238 O 1.779800 -0.673300 0.709300
O239 O 0.779800 -0.673300 -0.290700
O240 O -0.779800 1.673300 1.290700
F241 F 1.496800 0.213500 -0.425900
F242 F 1.898900 0.095200 -0.401200
F243 F 1.859000 0.426300 -0.426200
F244 F 0.503200 0.786500 1.425900
F245 F 0.101100 0.904800 1.401200
F246 F 0.141000 0.573700 1.426200
F247 F 1.496800 -0.786500 0.574100
F248 F 1.898900 -0.904800 0.598800
F249 F 1.859000 -0.573700 0.573800
F250 F 0.141000 1.573700 0.426200
F251 F 0.101100 1.904800 0.401200
F252 F 0.503200 1.786500 0.425900
F253 F 1.859000 0.426300 0.573800
F254 F 1.898900 0.095200 0.598800
F255 F 1.496800 0.213500 0.574100
F256 F 0.503200 0.786500 0.425900
F257 F 0.101100 0.904800 0.401200
F258 F 0.141000 0.573700 0.426200
F259 F 1.496800 -0.786500 -0.425900
F260 F 1.898900 -0.904800 -0.401200
F261 F 1.859000 -0.573700 -0.426200
F262 F -0.496800 1.786500 1.425900
F263 F -0.859000 1.573700 1.426200
F264 F 0.496800 0.213500 0.574100
F265 F 0.898900 0.095200 0.598800
F266 F 0.859000 0.426300 0.573800
F267 F -0.496800 1.786500 0.425900
F268 F -0.898900 1.904800 0.401200
F269 F -0.859000 1.573700 0.426200
F270 F 0.496800 0.213500 -0.425900
F271 F 0.898900 0.095200 -0.401200
F272 F 0.859000 0.426300 -0.426200
F273 F -0.496800 0.786500 1.425900
F274 F -0.898900 0.904800 1.401200
F275 F -0.859000 0.573700 1.426200
F276 F 0.496800 -0.786500 0.574100
F277 F 0.898900 -0.904800 0.598800
F278 F 0.859000 -0.573700 0.573800
F279 F -0.496800 0.786500 0.425900
F280 F -0.898900 0.904800 0.401200
F281 F -0.859000 0.573700 0.426200
F282 F 0.496800 -0.786500 -0.425900
F283 F 0.898900 -0.904800 -0.401200
F284 F -0.898900 1.904800 1.401200
F285 F 0.859000 -0.573700 -0.426200
F286 F 0.141000 1.573700 1.426200
F287 F 0.101100 1.904800 1.401200
F288 F 0.503200 1.786500 1.425900

#END
