./LACGAA_from_POSCAR.cif_generated_by_CrystalShift
_symmetry_cell_setting triclinic
_symmetry_space_group_name_H-M 'P 1'
loop_
_symmetry_equiv_pos_site_id
_symmetry_equiv_pos_as_xyz
1 x,y,z
_cell_length_a 10.535000
_cell_length_b 13.002000
_cell_length_c 11.096100
_cell_angle_alpha 90.000000
_cell_angle_beta 96.168000
_cell_angle_gamma 90.000000
_cell_volume 1511.101661
loop_
_atom_site_label
_atom_site_type_symbol
_atom_site_fract_x
_atom_site_fract_y
_atom_site_fract_z
H1 H 0.550200 0.399500 0.297800
H2 H 0.341100 0.981000 0.365100
H3 H 0.354000 1.018000 0.500400
H4 H 0.796300 -0.093300 0.300900
H5 H 0.721100 -0.091000 0.193800
H6 H 0.654600 0.757300 0.751800
H7 H 0.948400 0.455700 1.207400
H8 H 0.677200 0.779700 0.895200
H9 H 0.780300 0.525100 0.401800
H10 H 0.829400 0.413300 0.381100
H11 H 0.915500 0.219100 0.189000
H12 H 0.849400 0.462700 0.510600
H13 H 0.480600 0.823900 0.656700
H14 H 1.122800 0.246900 0.427000
H15 H 1.103900 0.276300 0.291600
H16 H 0.150600 0.962700 0.989400
H17 H 0.519400 0.176100 0.343300
H18 H -0.103900 0.723700 0.708400
H19 H 0.322800 0.220300 0.104800
H20 H 0.345400 0.242700 0.248200
H21 H -0.122800 0.753100 0.573000
H22 H 0.170600 0.913300 1.118900
H23 H 0.646000 -0.018000 0.499600
H24 H 0.658900 0.019000 0.634900
H25 H 0.730700 -0.080200 0.599100
H26 H 0.219700 1.025100 1.098200
H27 H 0.084500 0.780900 0.811000
H28 H 0.051600 0.955700 0.292600
H29 H 0.849400 0.037300 0.010600
H30 H 0.829400 0.086700 -0.118900
H31 H 0.780300 -0.025100 -0.098200
H32 H 0.278900 1.091000 0.806200
H33 H 0.948400 0.044300 0.707400
H34 H 0.203700 1.093300 0.699100
H35 H 0.449800 0.899500 1.202200
H36 H 0.796300 0.593300 0.800900
H37 H 0.550200 0.100500 -0.202200
H38 H 0.449800 0.600500 0.702200
H39 H 0.730700 0.580200 1.099100
H40 H 0.658900 0.481000 1.134900
H41 H 0.646000 0.518000 0.999600
H42 H 0.203700 0.406700 0.199100
H43 H 0.278900 0.409000 0.306200
H44 H 0.051600 0.544300 -0.207400
H45 H 0.219700 0.474900 0.598200
H46 H 0.345400 0.257300 0.748200
H47 H 0.322800 0.279700 0.604800
H48 H 0.519400 0.323900 0.843300
H49 H 0.084500 0.719100 0.311000
H50 H 1.103900 0.223700 0.791600
H51 H 1.122800 0.253100 0.927000
H52 H -0.122800 0.746900 0.073000
H53 H -0.103900 0.776300 0.208400
H54 H 0.915500 0.280900 0.689000
H55 H 0.480600 0.676100 0.156700
H56 H 0.721100 0.591000 0.693800
H57 H 0.677200 0.720300 0.395200
H58 H 0.654600 0.742700 0.251800
H59 H 0.170600 0.586700 0.618900
H60 H 0.150600 0.537300 0.489400
H61 H 0.354000 0.482000 0.000400
H62 H 0.341100 0.519000 -0.134900
H63 H 0.269300 0.419800 -0.099100
H64 H 0.269300 1.080200 0.400900
C65 C 0.184500 0.550800 -0.050700
C66 C 0.207200 0.542100 0.563000
C67 C 0.297300 0.487300 -0.073100
C68 C 0.032500 0.693700 0.152600
C69 C 0.967500 0.306300 0.847400
C70 C 0.074500 0.572300 -0.128400
C71 C 0.702700 0.512700 1.073100
C72 C 0.332400 0.584500 0.535700
C73 C -0.002600 0.635260 -0.066390
C74 C 0.440700 0.607300 0.615300
C75 C 0.468200 0.147190 -0.047500
C76 C 0.531800 0.647190 0.547500
C77 C 0.559300 0.107300 -0.115300
C78 C 0.531800 0.852810 1.047500
C79 C 1.002600 0.135260 0.566390
C80 C 0.667600 0.084500 -0.035700
C81 C 0.925500 0.072300 0.628400
C82 C 0.440700 0.892700 1.115300
C83 C -0.002600 0.864740 0.433610
C84 C 0.332400 0.915500 1.035700
C85 C 0.792800 0.042100 -0.063000
C86 C 0.074500 0.927700 0.371600
C87 C 0.815500 0.050800 0.550700
C88 C 0.481800 0.170860 0.180400
C89 C 0.702700 -0.012700 0.573100
C90 C 0.967500 0.193700 0.347400
C91 C 0.481800 0.329140 0.680400
C92 C 0.815500 0.449200 1.050700
C93 C 0.792800 0.457900 0.437000
C94 C 0.207200 0.957900 1.063000
C95 C 0.925500 0.427700 1.128400
C96 C 0.667600 0.415500 0.464300
C97 C 0.032500 0.806300 0.652600
C98 C 0.297300 1.012700 0.426900
C99 C 1.002600 0.364740 1.066390
C100 C 0.559300 0.392700 0.384700
C101 C 0.518200 0.670860 0.319600
C102 C 0.518200 0.829140 0.819600
C103 C 0.184500 0.949200 0.449300
C104 C 0.468200 0.352810 0.452500
N105 N 0.444110 0.848870 0.721910
N106 N -0.075800 0.753100 0.642500
N107 N 0.472850 0.855020 0.928330
N108 N 0.110000 0.818500 0.749150
N109 N 0.350010 0.893840 0.922350
N110 N 0.067160 0.850810 0.547150
N111 N 0.182000 0.903690 0.555990
N112 N 0.818000 0.096310 0.444010
N113 N 0.932840 0.149190 0.452850
N114 N 0.649990 0.106160 0.077650
N115 N 0.890000 0.181500 0.250850
N116 N 0.527150 0.144980 0.071670
N117 N 1.075800 0.246900 0.357500
N118 N 0.555890 0.151130 0.278090
N119 N 0.634200 0.713300 0.325600
N120 N 0.365800 0.213300 0.174400
N121 N 0.818000 0.403690 0.944010
N122 N 0.932840 0.350810 0.952850
N123 N 0.649990 0.393840 0.577650
N124 N 0.890000 0.318500 0.750850
N125 N 0.444110 0.651130 0.221910
N126 N 0.527150 0.355020 0.571670
N127 N 1.075800 0.253100 0.857500
N128 N -0.075800 0.746900 0.142500
N129 N 0.472850 0.644980 0.428330
N130 N 0.555890 0.348870 0.778090
N131 N 0.110000 0.681500 0.249150
N132 N 0.365800 0.286700 0.674400
N133 N 0.350010 0.606160 0.422350
N134 N 0.067160 0.649190 0.047150
N135 N 0.182000 0.596310 0.055990
N136 N 0.634200 0.786700 0.825600
O137 O 0.247710 0.445170 0.251080
O138 O -0.110190 0.678440 -0.095360
O139 O 1.110190 0.178440 0.595360
O140 O 0.355440 0.317960 0.425110
O141 O 0.752290 -0.054830 0.248920
O142 O 0.752290 0.554830 0.748920
O143 O 1.110190 0.321560 1.095360
O144 O 0.644560 0.682040 0.574890
O145 O -0.110190 0.821560 0.404640
O146 O 0.247710 1.054830 0.751080
O147 O 0.644560 0.817960 1.074890
O148 O 0.355440 0.182040 -0.074890
Zn149 Zn 0.268530 0.598160 0.239140
Zn150 Zn 0.731470 0.401840 0.760860
Zn151 Zn 0.268530 0.901840 0.739140
Zn152 Zn 0.731470 0.098160 0.260860

#END
