./LACHAY_from_POSCAR.cif_generated_by_CrystalShift
_symmetry_cell_setting triclinic
_symmetry_space_group_name_H-M 'P 1'
loop_
_symmetry_equiv_pos_site_id
_symmetry_equiv_pos_as_xyz
1 x,y,z
_cell_length_a 12.943000
_cell_length_b 6.994000
_cell_length_c 20.873000
_cell_angle_alpha 90.000000
_cell_angle_beta 125.010000
_cell_angle_gamma 90.000000
_cell_volume 1547.593464
loop_
_atom_site_label
_atom_site_type_symbol
_atom_site_fract_x
_atom_site_fract_y
_atom_site_fract_z
H1 H 0.102000 0.364000 0.513000
H2 H 0.319000 0.477000 0.833000
H3 H 0.080000 0.299000 0.399000
H4 H 0.401000 0.265000 0.864000
H5 H 0.395000 0.255000 0.747000
H6 H 0.434000 0.481000 0.778000
H7 H 0.238000 0.592000 0.693000
H8 H 0.281000 0.473000 0.644000
H9 H 0.062000 0.397000 0.599000
H10 H 0.126000 -0.021000 0.380000
H11 H 0.138000 -0.007000 0.750000
H12 H 0.176000 0.228000 0.815000
H13 H 0.605000 -0.241000 0.891000
H14 H 0.600000 -0.316000 1.003000
H15 H 0.898000 0.864000 0.987000
H16 H 0.920000 0.799000 1.101000
H17 H 0.874000 0.479000 1.120000
H18 H 0.804000 0.238000 1.020000
H19 H 0.780000 0.325000 0.907000
H20 H 0.752000 0.415000 0.611000
H21 H 0.575000 0.231000 0.501000
H22 H 0.400000 0.184000 0.497000
H23 H 0.176000 0.272000 0.315000
H24 H 0.138000 0.507000 0.250000
H25 H 0.062000 0.103000 0.099000
H26 H 0.281000 0.027000 0.144000
H27 H 0.238000 -0.092000 0.193000
H28 H 0.434000 0.019000 0.278000
H29 H 0.395000 0.245000 0.247000
H30 H 0.401000 0.235000 0.364000
H31 H 0.319000 0.023000 0.333000
H32 H 0.426000 0.584000 0.279000
H33 H 0.605000 0.741000 0.391000
H34 H 0.600000 0.816000 0.503000
H35 H 0.425000 0.769000 0.499000
H36 H 0.248000 0.585000 0.389000
H37 H 0.220000 0.675000 0.093000
H38 H 0.196000 0.762000 -0.020000
H39 H 0.126000 0.521000 -0.120000
H40 H 0.080000 0.201000 -0.101000
H41 H 0.102000 0.136000 0.013000
H42 H 0.395000 0.259000 0.609000
H43 H 0.574000 0.416000 0.721000
H44 H 0.196000 -0.262000 0.480000
H45 H 0.681000 0.977000 0.667000
H46 H 0.599000 0.765000 0.636000
H47 H 0.605000 0.755000 0.753000
H48 H 0.566000 0.981000 0.722000
H49 H 0.762000 1.092000 0.807000
H50 H 0.719000 0.973000 0.856000
H51 H 0.220000 -0.175000 0.593000
H52 H 0.938000 0.897000 0.901000
H53 H 0.862000 0.493000 0.750000
H54 H 0.824000 0.728000 0.685000
H55 H 0.425000 -0.269000 0.999000
H56 H 0.248000 -0.085000 0.889000
H57 H 0.898000 0.636000 0.487000
H58 H 0.920000 0.701000 0.601000
H59 H 0.874000 1.021000 0.620000
H60 H 0.804000 1.262000 0.520000
H61 H 0.780000 1.175000 0.407000
H62 H 0.752000 1.085000 0.111000
H63 H 0.575000 1.269000 0.001000
H64 H 0.824000 0.772000 0.185000
H65 H 0.862000 1.007000 0.250000
H66 H 0.938000 0.603000 0.401000
H67 H 0.719000 0.527000 0.356000
H68 H 0.762000 0.408000 0.307000
H69 H 0.566000 0.519000 0.222000
H70 H 0.605000 0.745000 0.253000
H71 H 0.599000 0.735000 0.136000
H72 H 0.681000 0.523000 0.167000
H73 H 0.574000 1.084000 0.221000
H74 H 0.395000 1.241000 0.109000
H75 H 0.400000 1.316000 -0.003000
H76 H 0.426000 -0.084000 0.779000
C77 C 0.895900 0.810900 0.565300
C78 C 0.864400 0.990400 0.574900
C79 C 0.822900 1.126500 0.517300
C80 C 0.811800 1.081000 0.448700
C81 C 0.843600 0.901500 0.437300
C82 C 0.681000 1.131200 0.111200
C83 C 0.793600 0.738000 0.719000
C84 C 0.790000 0.528400 0.742300
C85 C 0.579800 1.219100 0.046600
C86 C 0.834000 0.639600 0.864100
C87 C 0.863100 0.843100 0.851600
C88 C 0.743700 0.967500 0.817000
C89 C 0.633600 0.885400 0.740900
C90 C 0.667700 0.848800 0.682300
C91 C 0.894100 0.838800 0.791700
C92 C 0.472600 1.257600 0.043300
C93 C 0.678300 0.422000 0.674600
C94 C 0.570500 0.380400 0.670900
C95 C 0.468700 0.293000 0.606000
C96 C 0.472600 0.242400 0.543300
C97 C 0.579800 0.280900 0.546600
C98 C 0.681000 0.368800 0.611200
C99 C 0.843600 0.598500 0.937300
C100 C 0.811800 0.419000 0.948700
C101 C 0.822900 0.373500 1.017300
C102 C 0.864400 0.509600 1.074900
C103 C 0.895900 0.689100 1.065300
C104 C 0.885400 0.733500 0.996800
C105 C 0.468700 1.207000 0.106000
C106 C 0.570500 1.119600 0.170900
C107 C 0.678300 1.078000 0.174600
C108 C 0.894100 0.661200 0.291700
C109 C 0.667700 0.651200 0.182300
C110 C 0.633600 0.614600 0.240900
C111 C 0.743700 0.532500 0.317000
C112 C 0.863100 0.656900 0.351600
C113 C 0.834000 0.860400 0.364100
C114 C 0.790000 0.971600 0.242300
C115 C 0.793600 0.762000 0.219000
C116 C 0.114600 0.266500 0.003200
C117 C 0.104100 0.310900 -0.065300
C118 C 0.135600 0.490400 -0.074900
C119 C 0.177100 0.626500 -0.017300
C120 C 0.188200 0.581000 0.051300
C121 C 0.156400 0.401500 0.062700
C122 C 0.319000 0.631200 0.388800
C123 C 0.420200 0.719100 0.453400
C124 C 0.206400 0.238000 0.781000
C125 C 0.210000 0.028400 0.757700
C126 C 0.527400 0.757600 0.456700
C127 C 0.166000 0.139600 0.635900
C128 C 0.136900 0.343100 0.648400
C129 C 0.256300 0.467500 0.683000
C130 C 0.366400 0.385400 0.759100
C131 C 0.332300 0.348800 0.817700
C132 C 0.105900 0.338800 0.708300
C133 C 0.531300 0.707000 0.394000
C134 C 0.321700 -0.078000 0.825400
C135 C 0.429500 -0.119600 0.829100
C136 C 0.531300 -0.207000 0.894000
C137 C 0.527400 -0.257600 0.956700
C138 C 0.420200 -0.219100 0.953400
C139 C 0.319000 -0.131200 0.888800
C140 C 0.156400 0.098500 0.562700
C141 C 0.188200 -0.081000 0.551300
C142 C 0.177100 -0.126500 0.482700
C143 C 0.135600 0.009600 0.425100
C144 C 0.104100 0.189100 0.434700
C145 C 0.114600 0.233500 0.503200
C146 C 0.429500 0.619600 0.329100
C147 C 0.321700 0.578000 0.325400
C148 C 0.105900 0.161200 0.208300
C149 C 0.332300 0.151200 0.317700
C150 C 0.366400 0.114600 0.259100
C151 C 0.256300 0.032500 0.183000
C152 C 0.136900 0.156900 0.148400
C153 C 0.166000 0.360400 0.135900
C154 C 0.210000 0.471600 0.257700
C155 C 0.885400 0.766500 0.496800
C156 C 0.206400 0.262000 0.281000
N157 N 0.204300 0.495400 0.185800
N158 N 0.795700 0.504600 0.814200
N159 N 0.795700 0.995400 0.314200
N160 N 0.204300 0.004600 0.685800
O161 O 0.013400 0.086900 0.197700
O162 O 0.986600 0.586900 0.302300
O163 O 0.986600 0.913100 0.802300
O164 O 0.013400 0.413100 0.697700

#END
