./LACHUS_from_POSCAR.cif_generated_by_CrystalShift
_symmetry_cell_setting triclinic
_symmetry_space_group_name_H-M 'P 1'
loop_
_symmetry_equiv_pos_site_id
_symmetry_equiv_pos_as_xyz
1 x,y,z
_cell_length_a 9.517000
_cell_length_b 6.238000
_cell_length_c 9.273000
_cell_angle_alpha 90.000000
_cell_angle_beta 105.920000
_cell_angle_gamma 90.000000
_cell_volume 529.396125
loop_
_atom_site_label
_atom_site_type_symbol
_atom_site_fract_x
_atom_site_fract_y
_atom_site_fract_z
H1 H 0.188000 0.132000 0.103000
H2 H 0.373000 0.340000 0.207000
H3 H 0.812000 0.632000 0.397000
H4 H 0.520000 0.948000 0.357000
H5 H 0.627000 0.840000 0.293000
H6 H 0.812000 0.868000 0.897000
H7 H 0.373000 0.160000 0.707000
H8 H 0.480000 0.052000 0.643000
H9 H 0.188000 0.368000 0.603000
H10 H 0.520000 0.552000 0.857000
H11 H 0.627000 0.660000 0.793000
H12 H 0.480000 0.448000 0.143000
C13 C 0.211200 0.138700 0.001200
C14 C 0.670400 0.700100 1.000700
C15 C 0.788800 0.861300 0.998800
C16 C 0.329600 0.299900 -0.000700
C17 C 0.329600 0.200100 0.499300
C18 C 0.211200 0.361300 0.501200
C19 C 0.788800 0.638700 0.498800
C20 C 0.670400 0.799900 0.500700
N21 N 0.599200 0.876400 0.369800
N22 N 0.599200 0.623600 0.869800
N23 N 0.400800 0.376400 0.130200
N24 N 0.400800 0.123600 0.630200
O25 O 0.355200 0.349700 -0.119800
O26 O 0.644800 0.849700 0.619800
O27 O 0.355200 0.150300 0.380200
O28 O 0.644800 0.650300 1.119800
Cl29 Cl 0.730500 1.114600 1.041600
Cl30 Cl 0.730500 0.385400 0.541600
Cl31 Cl 0.950600 0.790900 1.131800
Cl32 Cl 0.950600 0.709100 0.631800
Cl33 Cl 0.049400 0.290900 0.368200
Cl34 Cl 0.269500 -0.114600 -0.041600
Cl35 Cl 0.049400 0.209100 -0.131800
Cl36 Cl 0.269500 0.614600 0.458400

#END
