
#######################################################################
#
#                 Cambridge Crystallographic Data Centre
#                                CCDC 
#
#######################################################################
#
# If this CIF has been generated from an entry in the Cambridge 
# Structural Database, then it will include bibliographic, chemical, 
# crystal, experimental, refinement or atomic coordinate data resulting 
# from the CCDC's data processing and validation procedures.
#
#######################################################################

data_LACHUS
_symmetry_cell_setting           monoclinic
_symmetry_space_group_name_H-M   'P 21/c'
_symmetry_Int_Tables_number      14
_space_group_name_Hall           '-P 2ybc'
loop_
_symmetry_equiv_pos_site_id
_symmetry_equiv_pos_as_xyz
1 x,y,z
2 -x,1/2+y,1/2-z
3 -x,-y,-z
4 x,1/2-y,1/2+z
_cell_length_a                   9.517(2)
_cell_length_b                   6.238(2)
_cell_length_c                   9.273(5)
_cell_angle_alpha                90
_cell_angle_beta                 105.92(3)
_cell_angle_gamma                90
_cell_volume                     529.396
loop_
_atom_site_label
_atom_site_type_symbol
_atom_site_fract_x
_atom_site_fract_y
_atom_site_fract_z
Cl1 Cl 0.2695(2) 0.6146(3) 0.4584(2)
Cl2 Cl 0.0494(2) 0.2909(3) 0.3682(2)
O1 O 0.3552(3) 0.1503(5) 0.3802(3)
N1 N 0.4008(4) 0.1236(7) 0.6302(4)
C1 C 0.3296(5) 0.2001(8) 0.4993(4)
C2 C 0.2112(4) 0.3613(7) 0.5012(5)
H1 H 0.373(4) 0.160(5) 0.707(4)
H2 H 0.480(4) 0.052(7) 0.643(4)
H3 H 0.188(3) 0.368(5) 0.603(4)
Cl1 Cl 0.7305(2) 1.1146(3) 1.0416(2)
Cl2 Cl 0.9506(2) 0.7909(3) 1.1318(2)
O1 O 0.6448(3) 0.6503(5) 1.1198(3)
N1 N 0.5992(4) 0.6236(7) 0.8698(4)
C1 C 0.6704(5) 0.7001(8) 1.0007(4)
C2 C 0.7888(4) 0.8613(7) 0.9988(5)
H1 H 0.627(4) 0.660(5) 0.793(4)
H2 H 0.520(4) 0.552(7) 0.857(4)
H3 H 0.812(3) 0.868(5) 0.897(4)
Cl1 Cl 0.7305(2) 0.3854(3) 0.5416(2)
Cl2 Cl 0.9506(2) 0.7091(3) 0.6318(2)
O1 O 0.6448(3) 0.8497(5) 0.6198(3)
N1 N 0.5992(4) 0.8764(7) 0.3698(4)
C1 C 0.6704(5) 0.7999(8) 0.5007(4)
C2 C 0.7888(4) 0.6387(7) 0.4988(5)
H1 H 0.627(4) 0.840(5) 0.293(4)
H2 H 0.520(4) 0.948(7) 0.357(4)
H3 H 0.812(3) 0.632(5) 0.397(4)
Cl1 Cl 0.2695(2) -0.1146(3) -0.0416(2)
Cl2 Cl 0.0494(2) 0.2091(3) -0.1318(2)
O1 O 0.3552(3) 0.3497(5) -0.1198(3)
N1 N 0.4008(4) 0.3764(7) 0.1302(4)
C1 C 0.3296(5) 0.2999(8) -0.0007(4)
C2 C 0.2112(4) 0.1387(7) 0.0012(5)
H1 H 0.373(4) 0.340(5) 0.207(4)
H2 H 0.480(4) 0.448(7) 0.143(4)
H3 H 0.188(3) 0.132(5) 0.103(4)

#END
