
#######################################################################
#
#                 Cambridge Crystallographic Data Centre
#                                CCDC 
#
#######################################################################
#
# If this CIF has been generated from an entry in the Cambridge 
# Structural Database, then it will include bibliographic, chemical, 
# crystal, experimental, refinement or atomic coordinate data resulting 
# from the CCDC's data processing and validation procedures.
#
#######################################################################

data_LACHAY
_symmetry_cell_setting           monoclinic
_symmetry_space_group_name_H-M   'P 21/c'
_symmetry_Int_Tables_number      14
_space_group_name_Hall           '-P 2ybc'
loop_
_symmetry_equiv_pos_site_id
_symmetry_equiv_pos_as_xyz
1 x,y,z
2 -x,1/2+y,1/2-z
3 -x,-y,-z
4 x,1/2-y,1/2+z
_cell_length_a                   12.943(2)
_cell_length_b                   6.994(1)
_cell_length_c                   20.873(3)
_cell_angle_alpha                90
_cell_angle_beta                 125.01(3)
_cell_angle_gamma                90
_cell_volume                     1547.59
loop_
_atom_site_label
_atom_site_type_symbol
_atom_site_fract_x
_atom_site_fract_y
_atom_site_fract_z
C1 C 0.2064(2) 0.2620(4) 0.2810(1)
C2 C 0.2100(2) 0.4716(3) 0.2577(1)
N1 N 0.2043(2) 0.4954(3) 0.1858(1)
C3 C 0.1660(2) 0.3604(3) 0.1359(1)
C4 C 0.1369(2) 0.1569(3) 0.1484(1)
C5 C 0.2563(3) 0.0325(3) 0.1830(2)
C6 C 0.3664(3) 0.1146(4) 0.2591(2)
C7 C 0.3323(3) 0.1512(4) 0.3177(2)
C8 C 0.1059(2) 0.1612(3) 0.2083(1)
O1 O 0.0134(2) 0.0869(3) 0.1977(1)
C9 C 0.3217(2) 0.5780(3) 0.3254(1)
C10 C 0.4295(2) 0.6196(3) 0.3291(1)
C11 C 0.5313(2) 0.7070(4) 0.3940(2)
C12 C 0.5274(3) 0.7576(4) 0.4567(2)
C13 C 0.4202(3) 0.7191(4) 0.4534(1)
C14 C 0.3190(2) 0.6312(3) 0.3888(1)
C15 C 0.1564(2) 0.4015(3) 0.0627(1)
C16 C 0.1882(2) 0.5810(4) 0.0513(1)
C17 C 0.1771(3) 0.6265(4) -0.0173(2)
C18 C 0.1356(2) 0.4904(4) -0.0749(1)
C19 C 0.1041(2) 0.3109(4) -0.0653(1)
C20 C 0.1146(2) 0.2665(4) 0.0032(1)
H1 H 0.176(3) 0.272(5) 0.315(2)
H2 H 0.138(3) 0.507(5) 0.250(2)
H3 H 0.062(3) 0.103(5) 0.099(2)
H4 H 0.281(3) 0.027(5) 0.144(2)
H5 H 0.238(3) -0.092(5) 0.193(2)
H6 H 0.434(3) 0.019(5) 0.278(2)
H7 H 0.395(3) 0.245(5) 0.247(2)
H8 H 0.401(3) 0.235(5) 0.364(2)
H9 H 0.319(3) 0.023(5) 0.333(2)
H10 H 0.426(3) 0.584(5) 0.279(2)
H11 H 0.605(3) 0.741(5) 0.391(2)
H12 H 0.600(3) 0.816(5) 0.503(2)
H13 H 0.425(3) 0.769(5) 0.499(2)
H14 H 0.248(3) 0.585(5) 0.389(2)
H15 H 0.220(3) 0.675(5) 0.093(2)
H16 H 0.196(3) 0.762(5) -0.020(2)
H17 H 0.126(3) 0.521(5) -0.120(2)
H18 H 0.080(3) 0.201(5) -0.101(2)
H19 H 0.102(3) 0.136(5) 0.013(2)
C1 C 0.7936(2) 0.7620(4) 0.2190(1)
C2 C 0.7900(2) 0.9716(3) 0.2423(1)
N1 N 0.7957(2) 0.9954(3) 0.3142(1)
C3 C 0.8340(2) 0.8604(3) 0.3641(1)
C4 C 0.8631(2) 0.6569(3) 0.3516(1)
C5 C 0.7437(3) 0.5325(3) 0.3170(2)
C6 C 0.6336(3) 0.6146(4) 0.2409(2)
C7 C 0.6677(3) 0.6512(4) 0.1823(2)
C8 C 0.8941(2) 0.6612(3) 0.2917(1)
O1 O 0.9866(2) 0.5869(3) 0.3023(1)
C9 C 0.6783(2) 1.0780(3) 0.1746(1)
C10 C 0.5705(2) 1.1196(3) 0.1709(1)
C11 C 0.4687(2) 1.2070(4) 0.1060(2)
C12 C 0.4726(3) 1.2576(4) 0.0433(2)
C13 C 0.5798(3) 1.2191(4) 0.0466(1)
C14 C 0.6810(2) 1.1312(3) 0.1112(1)
C15 C 0.8436(2) 0.9015(3) 0.4373(1)
C16 C 0.8118(2) 1.0810(4) 0.4487(1)
C17 C 0.8229(3) 1.1265(4) 0.5173(2)
C18 C 0.8644(2) 0.9904(4) 0.5749(1)
C19 C 0.8959(2) 0.8109(4) 0.5653(1)
C20 C 0.8854(2) 0.7665(4) 0.4968(1)
H1 H 0.824(3) 0.772(5) 0.185(2)
H2 H 0.862(3) 1.007(5) 0.250(2)
H3 H 0.938(3) 0.603(5) 0.401(2)
H4 H 0.719(3) 0.527(5) 0.356(2)
H5 H 0.762(3) 0.408(5) 0.307(2)
H6 H 0.566(3) 0.519(5) 0.222(2)
H7 H 0.605(3) 0.745(5) 0.253(2)
H8 H 0.599(3) 0.735(5) 0.136(2)
H9 H 0.681(3) 0.523(5) 0.167(2)
H10 H 0.574(3) 1.084(5) 0.221(2)
H11 H 0.395(3) 1.241(5) 0.109(2)
H12 H 0.400(3) 1.316(5) -0.003(2)
H13 H 0.575(3) 1.269(5) 0.001(2)
H14 H 0.752(3) 1.085(5) 0.111(2)
H15 H 0.780(3) 1.175(5) 0.407(2)
H16 H 0.804(3) 1.262(5) 0.520(2)
H17 H 0.874(3) 1.021(5) 0.620(2)
H18 H 0.920(3) 0.701(5) 0.601(2)
H19 H 0.898(3) 0.636(5) 0.487(2)
C1 C 0.7936(2) 0.7380(4) 0.7190(1)
C2 C 0.7900(2) 0.5284(3) 0.7423(1)
N1 N 0.7957(2) 0.5046(3) 0.8142(1)
C3 C 0.8340(2) 0.6396(3) 0.8641(1)
C4 C 0.8631(2) 0.8431(3) 0.8516(1)
C5 C 0.7437(3) 0.9675(3) 0.8170(2)
C6 C 0.6336(3) 0.8854(4) 0.7409(2)
C7 C 0.6677(3) 0.8488(4) 0.6823(2)
C8 C 0.8941(2) 0.8388(3) 0.7917(1)
O1 O 0.9866(2) 0.9131(3) 0.8023(1)
C9 C 0.6783(2) 0.4220(3) 0.6746(1)
C10 C 0.5705(2) 0.3804(3) 0.6709(1)
C11 C 0.4687(2) 0.2930(4) 0.6060(2)
C12 C 0.4726(3) 0.2424(4) 0.5433(2)
C13 C 0.5798(3) 0.2809(4) 0.5466(1)
C14 C 0.6810(2) 0.3688(3) 0.6112(1)
C15 C 0.8436(2) 0.5985(3) 0.9373(1)
C16 C 0.8118(2) 0.4190(4) 0.9487(1)
C17 C 0.8229(3) 0.3735(4) 1.0173(2)
C18 C 0.8644(2) 0.5096(4) 1.0749(1)
C19 C 0.8959(2) 0.6891(4) 1.0653(1)
C20 C 0.8854(2) 0.7335(4) 0.9968(1)
H1 H 0.824(3) 0.728(5) 0.685(2)
H2 H 0.862(3) 0.493(5) 0.750(2)
H3 H 0.938(3) 0.897(5) 0.901(2)
H4 H 0.719(3) 0.973(5) 0.856(2)
H5 H 0.762(3) 1.092(5) 0.807(2)
H6 H 0.566(3) 0.981(5) 0.722(2)
H7 H 0.605(3) 0.755(5) 0.753(2)
H8 H 0.599(3) 0.765(5) 0.636(2)
H9 H 0.681(3) 0.977(5) 0.667(2)
H10 H 0.574(3) 0.416(5) 0.721(2)
H11 H 0.395(3) 0.259(5) 0.609(2)
H12 H 0.400(3) 0.184(5) 0.497(2)
H13 H 0.575(3) 0.231(5) 0.501(2)
H14 H 0.752(3) 0.415(5) 0.611(2)
H15 H 0.780(3) 0.325(5) 0.907(2)
H16 H 0.804(3) 0.238(5) 1.020(2)
H17 H 0.874(3) 0.479(5) 1.120(2)
H18 H 0.920(3) 0.799(5) 1.101(2)
H19 H 0.898(3) 0.864(5) 0.987(2)
C1 C 0.2064(2) 0.2380(4) 0.7810(1)
C2 C 0.2100(2) 0.0284(3) 0.7577(1)
N1 N 0.2043(2) 0.0046(3) 0.6858(1)
C3 C 0.1660(2) 0.1396(3) 0.6359(1)
C4 C 0.1369(2) 0.3431(3) 0.6484(1)
C5 C 0.2563(3) 0.4675(3) 0.6830(2)
C6 C 0.3664(3) 0.3854(4) 0.7591(2)
C7 C 0.3323(3) 0.3488(4) 0.8177(2)
C8 C 0.1059(2) 0.3388(3) 0.7083(1)
O1 O 0.0134(2) 0.4131(3) 0.6977(1)
C9 C 0.3217(2) -0.0780(3) 0.8254(1)
C10 C 0.4295(2) -0.1196(3) 0.8291(1)
C11 C 0.5313(2) -0.2070(4) 0.8940(2)
C12 C 0.5274(3) -0.2576(4) 0.9567(2)
C13 C 0.4202(3) -0.2191(4) 0.9534(1)
C14 C 0.3190(2) -0.1312(3) 0.8888(1)
C15 C 0.1564(2) 0.0985(3) 0.5627(1)
C16 C 0.1882(2) -0.0810(4) 0.5513(1)
C17 C 0.1771(3) -0.1265(4) 0.4827(2)
C18 C 0.1356(2) 0.0096(4) 0.4251(1)
C19 C 0.1041(2) 0.1891(4) 0.4347(1)
C20 C 0.1146(2) 0.2335(4) 0.5032(1)
H1 H 0.176(3) 0.228(5) 0.815(2)
H2 H 0.138(3) -0.007(5) 0.750(2)
H3 H 0.062(3) 0.397(5) 0.599(2)
H4 H 0.281(3) 0.473(5) 0.644(2)
H5 H 0.238(3) 0.592(5) 0.693(2)
H6 H 0.434(3) 0.481(5) 0.778(2)
H7 H 0.395(3) 0.255(5) 0.747(2)
H8 H 0.401(3) 0.265(5) 0.864(2)
H9 H 0.319(3) 0.477(5) 0.833(2)
H10 H 0.426(3) -0.084(5) 0.779(2)
H11 H 0.605(3) -0.241(5) 0.891(2)
H12 H 0.600(3) -0.316(5) 1.003(2)
H13 H 0.425(3) -0.269(5) 0.999(2)
H14 H 0.248(3) -0.085(5) 0.889(2)
H15 H 0.220(3) -0.175(5) 0.593(2)
H16 H 0.196(3) -0.262(5) 0.480(2)
H17 H 0.126(3) -0.021(5) 0.380(2)
H18 H 0.080(3) 0.299(5) 0.399(2)
H19 H 0.102(3) 0.364(5) 0.513(2)

#END
