
#######################################################################
#
#                 Cambridge Crystallographic Data Centre
#                                CCDC 
#
#######################################################################
#
# If this CIF has been generated from an entry in the Cambridge 
# Structural Database, then it will include bibliographic, chemical, 
# crystal, experimental, refinement or atomic coordinate data resulting 
# from the CCDC's data processing and validation procedures.
#
#######################################################################

data_LACJEF
_symmetry_cell_setting           monoclinic
_symmetry_space_group_name_H-M   'P 21/c'
_symmetry_Int_Tables_number      14
_space_group_name_Hall           '-P 2ybc'
loop_
_symmetry_equiv_pos_site_id
_symmetry_equiv_pos_as_xyz
1 x,y,z
2 x,1/2-y,1/2+z
3 -x,-y,-z
4 -x,1/2+y,1/2-z
_cell_length_a                   8.186(5)
_cell_length_b                   7.262(4)
_cell_length_c                   14.257(8)
_cell_angle_alpha                90
_cell_angle_beta                 92.00(5)
_cell_angle_gamma                90
_cell_volume                     847.016
loop_
_atom_site_label
_atom_site_type_symbol
_atom_site_fract_x
_atom_site_fract_y
_atom_site_fract_z
S1 S 0.21415(9) 0.26374(9) 0.56176(5)
N1 N 0.3938(3) 0.5294(3) 0.65459(16)
H1 H 0.409(4) 0.449(5) 0.700(3)
O1 O 0.5583(3) 0.7417(3) 0.72625(15)
C1 C 0.4713(4) 0.6945(4) 0.6577(2)
N2 N 0.4487(3) 0.8043(4) 0.58036(17)
H2 H 0.497(6) 0.902(7) 0.586(3)
O2 O 0.3574(3) 0.8734(3) 0.43161(14)
C2 C 0.3629(4) 0.7613(4) 0.4963(2)
C3 C 0.2882(3) 0.5812(4) 0.49585(18)
C4 C 0.1947(3) 0.4914(4) 0.4213(2)
C5 C 0.1478(4) 0.3200(4) 0.4475(2)
C6 C 0.3075(3) 0.4754(4) 0.57535(19)
C7 C 0.1603(4) 0.5737(5) 0.3259(2)
H3 H 0.081(7) 0.516(8) 0.298(4)
H4 H 0.260(6) 0.591(7) 0.296(3)
H5 H 0.132(6) 0.691(9) 0.333(4)
C8 C 0.0527(4) 0.1787(5) 0.3911(2)
H6 H 0.0237 0.2283 0.3303
H7 H -0.0448 0.1472 0.4230
H8 H 0.1184 0.0705 0.3840
S1 S 0.21415(9) 1.23626(9) 1.06176(5)
N1 N 0.3938(3) 0.9706(3) 1.15459(16)
H1 H 0.409(4) 1.051(5) 1.200(3)
O1 O 0.5583(3) 0.7583(3) 1.22625(15)
C1 C 0.4713(4) 0.8055(4) 1.1577(2)
N2 N 0.4487(3) 0.6957(4) 1.08036(17)
H2 H 0.497(6) 0.598(7) 1.086(3)
O2 O 0.3574(3) 0.6266(3) 0.93161(14)
C2 C 0.3629(4) 0.7387(4) 0.9963(2)
C3 C 0.2882(3) 0.9188(4) 0.99585(18)
C4 C 0.1947(3) 1.0086(4) 0.9213(2)
C5 C 0.1478(4) 1.1800(4) 0.9475(2)
C6 C 0.3075(3) 1.0246(4) 1.07535(19)
C7 C 0.1603(4) 0.9263(5) 0.8259(2)
H3 H 0.081(7) 0.984(8) 0.798(4)
H4 H 0.260(6) 0.909(7) 0.796(3)
H5 H 0.132(6) 0.809(9) 0.833(4)
C8 C 0.0527(4) 1.3213(5) 0.8911(2)
H6 H 0.0237 1.2717 0.8303
H7 H -0.0448 1.3528 0.9230
H8 H 0.1184 1.4295 0.8840
S1 S 0.78585(9) 0.73626(9) 0.43824(5)
N1 N 0.6062(3) 0.4706(3) 0.34541(16)
H1 H 0.591(4) 0.551(5) 0.300(3)
O1 O 0.4417(3) 0.2583(3) 0.27375(15)
C1 C 0.5287(4) 0.3055(4) 0.3423(2)
N2 N 0.5513(3) 0.1957(4) 0.41964(17)
H2 H 0.503(6) 0.098(7) 0.414(3)
O2 O 0.6426(3) 0.1266(3) 0.56839(14)
C2 C 0.6371(4) 0.2387(4) 0.5037(2)
C3 C 0.7118(3) 0.4188(4) 0.50415(18)
C4 C 0.8053(3) 0.5086(4) 0.5787(2)
C5 C 0.8522(4) 0.6800(4) 0.5525(2)
C6 C 0.6925(3) 0.5246(4) 0.42465(19)
C7 C 0.8397(4) 0.4263(5) 0.6741(2)
H3 H 0.919(7) 0.484(8) 0.702(4)
H4 H 0.740(6) 0.409(7) 0.704(3)
H5 H 0.868(6) 0.309(9) 0.667(4)
C8 C 0.9473(4) 0.8213(5) 0.6089(2)
H6 H 0.9763 0.7717 0.6697
H7 H 1.0448 0.8528 0.5770
H8 H 0.8816 0.9295 0.6160
S1 S 0.78585(9) -0.23626(9) -0.06176(5)
N1 N 0.6062(3) 0.0294(3) -0.15459(16)
H1 H 0.591(4) -0.051(5) -0.200(3)
O1 O 0.4417(3) 0.2417(3) -0.22625(15)
C1 C 0.5287(4) 0.1945(4) -0.1577(2)
N2 N 0.5513(3) 0.3043(4) -0.08036(17)
H2 H 0.503(6) 0.402(7) -0.086(3)
O2 O 0.6426(3) 0.3734(3) 0.06839(14)
C2 C 0.6371(4) 0.2613(4) 0.0037(2)
C3 C 0.7118(3) 0.0812(4) 0.00415(18)
C4 C 0.8053(3) -0.0086(4) 0.0787(2)
C5 C 0.8522(4) -0.1800(4) 0.0525(2)
C6 C 0.6925(3) -0.0246(4) -0.07535(19)
C7 C 0.8397(4) 0.0737(5) 0.1741(2)
H3 H 0.919(7) 0.016(8) 0.202(4)
H4 H 0.740(6) 0.091(7) 0.204(3)
H5 H 0.868(6) 0.191(9) 0.167(4)
C8 C 0.9473(4) -0.3213(5) 0.1089(2)
H6 H 0.9763 -0.2717 0.1697
H7 H 1.0448 -0.3528 0.0770
H8 H 0.8816 -0.4295 0.1160

#END
