./LACKEI_from_POSCAR.cif_generated_by_CrystalShift
_symmetry_cell_setting triclinic
_symmetry_space_group_name_H-M 'P 1'
loop_
_symmetry_equiv_pos_site_id
_symmetry_equiv_pos_as_xyz
1 x,y,z
_cell_length_a 7.513000
_cell_length_b 9.093000
_cell_length_c 9.668000
_cell_angle_alpha 70.069000
_cell_angle_beta 75.120000
_cell_angle_gamma 72.377000
_cell_volume 583.016611
loop_
_atom_site_label
_atom_site_type_symbol
_atom_site_fract_x
_atom_site_fract_y
_atom_site_fract_z
H1 H -0.392700 -0.207700 0.734600
H2 H 0.614800 0.182600 0.609200
H3 H 0.393400 0.563800 0.715900
H4 H 0.212400 0.380900 0.852800
H5 H 0.443400 0.112600 0.887800
H6 H -0.340400 -0.241800 0.884700
H7 H 0.156400 -0.286100 1.108000
H8 H 1.392700 1.207700 0.265400
H9 H -0.374900 -0.369700 0.859600
H10 H 1.340400 1.241800 0.115300
H11 H -0.075700 -0.414300 0.853500
H12 H 1.374900 1.369700 0.140400
H13 H -0.111400 -0.387400 0.693300
H14 H 1.075700 1.414300 0.146500
H15 H -0.025500 -0.162600 0.617200
H16 H 0.308300 0.221900 0.532100
H17 H 1.111400 1.387400 0.306700
H18 H 1.025500 1.162600 0.382800
H19 H 0.295700 0.862500 0.268200
H20 H 0.385200 0.817400 0.390800
H21 H 0.606600 0.436200 0.284100
H22 H 0.787600 0.619100 0.147200
H23 H 0.556600 0.887400 0.112200
H24 H 0.843600 1.286100 -0.108000
H25 H 0.691700 0.778100 0.467900
H26 H 0.704300 0.137500 0.731800
C27 C 1.123700 1.346200 0.231600
C28 C 0.738800 0.846100 0.395400
C29 C 0.938500 1.176600 0.209800
C30 C 0.843700 1.216900 -0.010600
C31 C 0.764200 1.017800 0.175200
C32 C 0.604500 0.379200 0.656200
C33 C 0.432000 0.450600 0.722900
C34 C 0.332100 0.352400 0.791100
C35 C 0.426800 0.182800 0.788700
C36 C 0.615100 0.197900 0.689300
C37 C 0.852500 1.046700 0.268200
C38 C 0.147500 -0.046700 0.731800
C39 C 0.235800 -0.017800 0.824800
C40 C 0.384900 0.802100 0.310700
C41 C 0.156300 -0.216900 1.010600
C42 C 0.573200 0.817200 0.211300
C43 C 0.061500 -0.176600 0.790200
C44 C 0.667900 0.647600 0.208900
C45 C 0.261200 0.153900 0.604600
C46 C 0.568000 0.549400 0.277100
C47 C 1.328600 1.288300 0.183800
C48 C -0.123700 -0.346200 0.768400
C49 C -0.328600 -0.288300 0.816200
C50 C 0.395500 0.620800 0.343800
N51 N 0.312800 0.111300 0.740800
N52 N 0.163400 0.066100 0.591800
N53 N 0.067400 -0.260900 0.934200
N54 N 0.245600 -0.099800 0.968500
N55 N 0.754400 1.099800 0.031500
N56 N 1.021900 1.220400 0.291000
N57 N 0.687200 0.888700 0.259200
N58 N 0.836600 0.933900 0.408200
N59 N 0.932600 1.260900 0.065800
N60 N -0.021900 -0.220400 0.709000
O61 O 0.268600 0.554800 0.412400
O62 O 0.731400 0.445200 0.587600

#END
