
#######################################################################
#
#                 Cambridge Crystallographic Data Centre
#                                CCDC 
#
#######################################################################
#
# If this CIF has been generated from an entry in the Cambridge 
# Structural Database, then it will include bibliographic, chemical, 
# crystal, experimental, refinement or atomic coordinate data resulting 
# from the CCDC's data processing and validation procedures.
#
#######################################################################

data_LACLAD
_symmetry_cell_setting           monoclinic
_symmetry_space_group_name_H-M   'P 21/c'
_symmetry_Int_Tables_number      14
_space_group_name_Hall           '-P 2ybc'
loop_
_symmetry_equiv_pos_site_id
_symmetry_equiv_pos_as_xyz
1 x,y,z
2 x,1/2-y,1/2+z
3 -x,-y,-z
4 -x,1/2+y,1/2-z
_cell_length_a                   8.932(2)
_cell_length_b                   10.008(5)
_cell_length_c                   19.404(3)
_cell_angle_alpha                90
_cell_angle_beta                 93.56(1)
_cell_angle_gamma                90
_cell_volume                     1731.2
loop_
_atom_site_label
_atom_site_type_symbol
_atom_site_fract_x
_atom_site_fract_y
_atom_site_fract_z
O1 O 0.43978(12) -0.01018(11) 0.38944(6)
O2 O 0.02043(13) -0.17030(13) 0.23555(6)
C1 C 0.2940(2) -0.1404(2) 0.30792(8)
C2 C 0.2069(2) -0.1135(2) 0.37422(8)
C3 C 0.0879(2) -0.0724(2) 0.21773(8)
C4 C 0.2339(2) 0.1322(2) 0.34674(8)
C5 C 0.2473(2) -0.0428(2) 0.24732(8)
C6 C 0.2751(2) 0.1014(2) 0.27330(9)
C7 C 0.2927(2) -0.2812(2) 0.28644(10)
N1 N 0.5702(2) -0.1449(2) 0.31510(9)
C8 C 0.4523(2) -0.1007(2) 0.33725(9)
C9 C 0.0420(2) -0.1003(2) 0.36933(9)
C10 C 0.3443(2) -0.0697(2) 0.18455(9)
C11 C 0.3046(2) 0.2651(2) 0.36979(9)
C12 C 0.2832(2) 0.0215(2) 0.39774(8)
C13 C 0.2433(2) -0.2208(2) 0.42534(10)
C14 C 0.0321(2) 0.0160(2) 0.15902(10)
C15 C 0.2630(2) 0.0571(2) 0.47225(9)
C16 C 0.2985(2) 0.0189(2) 0.12298(10)
C17 C 0.2712(3) 0.3011(2) 0.44343(10)
N2 N -0.0830(2) -0.0875(2) 0.37398(9)
N3 N 0.2965(2) -0.3902(2) 0.27091(11)
C18 C 0.3295(3) 0.1922(2) 0.49262(10)
C19 C 0.1355(2) -0.0010(3) 0.09923(10)
N4 N 0.2722(2) -0.3040(2) 0.46349(11)
H1 H 0.1251(20) 0.1389(16) 0.3477(8)
H2 H 0.3840(21) 0.1203(17) 0.2691(9)
H3 H 0.4149(21) 0.2569(18) 0.3663(9)
H4 H 0.2242(19) 0.1656(18) 0.2417(9)
H5 H 0.3340(20) -0.1665(20) 0.1700(9)
H6 H 0.3022(21) -0.0112(20) 0.5012(10)
H7 H -0.0681(22) -0.0095(18) 0.1448(9)
H8 H 0.1505(22) 0.0608(19) 0.4771(9)
H9 H 0.4523(22) -0.0561(19) 0.2013(9)
H10 H 0.2672(20) 0.3338(20) 0.3364(10)
H11 H 0.3115(23) 0.2127(21) 0.5397(12)
H12 H 0.3180(21) 0.1143(22) 0.1351(10)
H13 H 0.4333(27) 0.1834(22) 0.4913(11)
H14 H 0.3622(23) -0.0058(19) 0.0850(11)
H15 H 0.0339(22) 0.1141(22) 0.1747(11)
H16 H 0.1220(24) -0.0928(24) 0.0797(12)
H17 H 0.1607(25) 0.3164(20) 0.4473(10)
H18 H 0.1038(25) 0.0616(24) 0.0625(13)
H19 H 0.6468(27) -0.1061(24) 0.3347(12)
H20 H 0.3158(27) 0.3874(26) 0.4554(13)
O1 O 0.43978(12) 0.51018(11) 0.88944(6)
O2 O 0.02043(13) 0.67030(13) 0.73555(6)
C1 C 0.2940(2) 0.6404(2) 0.80792(8)
C2 C 0.2069(2) 0.6135(2) 0.87422(8)
C3 C 0.0879(2) 0.5724(2) 0.71773(8)
C4 C 0.2339(2) 0.3678(2) 0.84674(8)
C5 C 0.2473(2) 0.5428(2) 0.74732(8)
C6 C 0.2751(2) 0.3986(2) 0.77330(9)
C7 C 0.2927(2) 0.7812(2) 0.78644(10)
N1 N 0.5702(2) 0.6449(2) 0.81510(9)
C8 C 0.4523(2) 0.6007(2) 0.83725(9)
C9 C 0.0420(2) 0.6003(2) 0.86933(9)
C10 C 0.3443(2) 0.5697(2) 0.68455(9)
C11 C 0.3046(2) 0.2349(2) 0.86979(9)
C12 C 0.2832(2) 0.4785(2) 0.89774(8)
C13 C 0.2433(2) 0.7208(2) 0.92534(10)
C14 C 0.0321(2) 0.4840(2) 0.65902(10)
C15 C 0.2630(2) 0.4429(2) 0.97225(9)
C16 C 0.2985(2) 0.4811(2) 0.62298(10)
C17 C 0.2712(3) 0.1989(2) 0.94343(10)
N2 N -0.0830(2) 0.5875(2) 0.87398(9)
N3 N 0.2965(2) 0.8902(2) 0.77091(11)
C18 C 0.3295(3) 0.3078(2) 0.99262(10)
C19 C 0.1355(2) 0.5010(3) 0.59923(10)
N4 N 0.2722(2) 0.8040(2) 0.96349(11)
H1 H 0.1251(20) 0.3611(16) 0.8477(8)
H2 H 0.3840(21) 0.3797(17) 0.7691(9)
H3 H 0.4149(21) 0.2431(18) 0.8663(9)
H4 H 0.2242(19) 0.3344(18) 0.7417(9)
H5 H 0.3340(20) 0.6665(20) 0.6700(9)
H6 H 0.3022(21) 0.5112(20) 1.0012(10)
H7 H -0.0681(22) 0.5095(18) 0.6448(9)
H8 H 0.1505(22) 0.4392(19) 0.9771(9)
H9 H 0.4523(22) 0.5561(19) 0.7013(9)
H10 H 0.2672(20) 0.1662(20) 0.8364(10)
H11 H 0.3115(23) 0.2873(21) 1.0397(12)
H12 H 0.3180(21) 0.3857(22) 0.6351(10)
H13 H 0.4333(27) 0.3166(22) 0.9913(11)
H14 H 0.3622(23) 0.5058(19) 0.5850(11)
H15 H 0.0339(22) 0.3859(22) 0.6747(11)
H16 H 0.1220(24) 0.5928(24) 0.5797(12)
H17 H 0.1607(25) 0.1836(20) 0.9473(10)
H18 H 0.1038(25) 0.4384(24) 0.5625(13)
H19 H 0.6468(27) 0.6061(24) 0.8347(12)
H20 H 0.3158(27) 0.1126(26) 0.9554(13)
O1 O 0.56022(12) 1.01018(11) 0.61056(6)
O2 O 0.97957(13) 1.17030(13) 0.76445(6)
C1 C 0.7060(2) 1.1404(2) 0.69208(8)
C2 C 0.7931(2) 1.1135(2) 0.62578(8)
C3 C 0.9121(2) 1.0724(2) 0.78227(8)
C4 C 0.7661(2) 0.8678(2) 0.65326(8)
C5 C 0.7527(2) 1.0428(2) 0.75268(8)
C6 C 0.7249(2) 0.8986(2) 0.72670(9)
C7 C 0.7073(2) 1.2812(2) 0.71356(10)
N1 N 0.4298(2) 1.1449(2) 0.68490(9)
C8 C 0.5477(2) 1.1007(2) 0.66275(9)
C9 C 0.9580(2) 1.1003(2) 0.63067(9)
C10 C 0.6557(2) 1.0697(2) 0.81545(9)
C11 C 0.6954(2) 0.7349(2) 0.63021(9)
C12 C 0.7168(2) 0.9785(2) 0.60226(8)
C13 C 0.7567(2) 1.2208(2) 0.57466(10)
C14 C 0.9679(2) 0.9840(2) 0.84098(10)
C15 C 0.7370(2) 0.9429(2) 0.52775(9)
C16 C 0.7015(2) 0.9811(2) 0.87702(10)
C17 C 0.7288(3) 0.6989(2) 0.55657(10)
N2 N 1.0830(2) 1.0875(2) 0.62602(9)
N3 N 0.7035(2) 1.3902(2) 0.72909(11)
C18 C 0.6705(3) 0.8078(2) 0.50738(10)
C19 C 0.8645(2) 1.0010(3) 0.90077(10)
N4 N 0.7278(2) 1.3040(2) 0.53651(11)
H1 H 0.8749(20) 0.8611(16) 0.6523(8)
H2 H 0.6160(21) 0.8797(17) 0.7309(9)
H3 H 0.5851(21) 0.7431(18) 0.6337(9)
H4 H 0.7758(19) 0.8344(18) 0.7583(9)
H5 H 0.6660(20) 1.1665(20) 0.8300(9)
H6 H 0.6978(21) 1.0112(20) 0.4988(10)
H7 H 1.0681(22) 1.0095(18) 0.8552(9)
H8 H 0.8495(22) 0.9392(19) 0.5229(9)
H9 H 0.5477(22) 1.0561(19) 0.7987(9)
H10 H 0.7328(20) 0.6662(20) 0.6636(10)
H11 H 0.6885(23) 0.7873(21) 0.4603(12)
H12 H 0.6820(21) 0.8857(22) 0.8649(10)
H13 H 0.5667(27) 0.8166(22) 0.5087(11)
H14 H 0.6378(23) 1.0058(19) 0.9150(11)
H15 H 0.9661(22) 0.8859(22) 0.8253(11)
H16 H 0.8780(24) 1.0928(24) 0.9203(12)
H17 H 0.8393(25) 0.6836(20) 0.5527(10)
H18 H 0.8962(25) 0.9384(24) 0.9375(13)
H19 H 0.3532(27) 1.1061(24) 0.6653(12)
H20 H 0.6842(27) 0.6126(26) 0.5446(13)
O1 O 0.56022(12) 0.48982(11) 0.11056(6)
O2 O 0.97957(13) 0.32970(13) 0.26445(6)
C1 C 0.7060(2) 0.3596(2) 0.19208(8)
C2 C 0.7931(2) 0.3865(2) 0.12578(8)
C3 C 0.9121(2) 0.4276(2) 0.28227(8)
C4 C 0.7661(2) 0.6322(2) 0.15326(8)
C5 C 0.7527(2) 0.4572(2) 0.25268(8)
C6 C 0.7249(2) 0.6014(2) 0.22670(9)
C7 C 0.7073(2) 0.2188(2) 0.21356(10)
N1 N 0.4298(2) 0.3551(2) 0.18490(9)
C8 C 0.5477(2) 0.3993(2) 0.16275(9)
C9 C 0.9580(2) 0.3997(2) 0.13067(9)
C10 C 0.6557(2) 0.4303(2) 0.31545(9)
C11 C 0.6954(2) 0.7651(2) 0.13021(9)
C12 C 0.7168(2) 0.5215(2) 0.10226(8)
C13 C 0.7567(2) 0.2792(2) 0.07466(10)
C14 C 0.9679(2) 0.5160(2) 0.34098(10)
C15 C 0.7370(2) 0.5571(2) 0.02775(9)
C16 C 0.7015(2) 0.5189(2) 0.37702(10)
C17 C 0.7288(3) 0.8011(2) 0.05657(10)
N2 N 1.0830(2) 0.4125(2) 0.12602(9)
N3 N 0.7035(2) 0.1098(2) 0.22909(11)
C18 C 0.6705(3) 0.6922(2) 0.00738(10)
C19 C 0.8645(2) 0.4990(3) 0.40077(10)
N4 N 0.7278(2) 0.1960(2) 0.03651(11)
H1 H 0.8749(20) 0.6389(16) 0.1523(8)
H2 H 0.6160(21) 0.6203(17) 0.2309(9)
H3 H 0.5851(21) 0.7569(18) 0.1337(9)
H4 H 0.7758(19) 0.6656(18) 0.2583(9)
H5 H 0.6660(20) 0.3335(20) 0.3300(9)
H6 H 0.6978(21) 0.4888(20) -0.0012(10)
H7 H 1.0681(22) 0.4905(18) 0.3552(9)
H8 H 0.8495(22) 0.5608(19) 0.0229(9)
H9 H 0.5477(22) 0.4439(19) 0.2987(9)
H10 H 0.7328(20) 0.8338(20) 0.1636(10)
H11 H 0.6885(23) 0.7127(21) -0.0397(12)
H12 H 0.6820(21) 0.6143(22) 0.3649(10)
H13 H 0.5667(27) 0.6834(22) 0.0087(11)
H14 H 0.6378(23) 0.4942(19) 0.4150(11)
H15 H 0.9661(22) 0.6141(22) 0.3253(11)
H16 H 0.8780(24) 0.4072(24) 0.4203(12)
H17 H 0.8393(25) 0.8164(20) 0.0527(10)
H18 H 0.8962(25) 0.5616(24) 0.4375(13)
H19 H 0.3532(27) 0.3939(24) 0.1653(12)
H20 H 0.6842(27) 0.8874(26) 0.0446(13)

#END
