./LACLAC_from_POSCAR.cif_generated_by_CrystalShift
_symmetry_cell_setting triclinic
_symmetry_space_group_name_H-M 'P 1'
loop_
_symmetry_equiv_pos_site_id
_symmetry_equiv_pos_as_xyz
1 x,y,z
_cell_length_a 13.499000
_cell_length_b 6.289000
_cell_length_c 11.151000
_cell_angle_alpha 90.000000
_cell_angle_beta 93.500000
_cell_angle_gamma 90.000000
_cell_volume 944.900774
loop_
_atom_site_label
_atom_site_type_symbol
_atom_site_fract_x
_atom_site_fract_y
_atom_site_fract_z
H1 H 0.282000 1.002000 0.994000
H2 H 0.388000 0.989000 0.943000
H3 H 0.080000 0.493000 0.816000
H4 H 0.363000 0.316000 0.745000
H5 H 0.016000 0.839000 1.069000
H6 H 0.088000 0.633000 1.073000
H7 H 0.718000 0.502000 0.506000
H8 H 0.628000 0.338000 0.451000
H9 H 0.612000 0.489000 0.557000
H10 H 0.920000 -0.007000 0.684000
H11 H 0.637000 -0.184000 0.755000
H12 H 0.984000 0.339000 0.431000
H13 H 0.912000 0.133000 0.427000
H14 H 0.718000 -0.002000 0.006000
H15 H 0.628000 0.162000 -0.049000
H16 H 0.612000 0.011000 0.057000
H17 H 0.088000 0.867000 0.573000
H18 H 0.016000 0.661000 0.569000
H19 H 0.363000 1.184000 0.245000
H20 H 0.080000 1.007000 0.316000
H21 H 0.388000 0.511000 0.443000
H22 H 0.372000 0.662000 0.549000
H23 H 0.282000 0.498000 0.494000
H24 H 0.920000 0.507000 0.184000
H25 H 0.637000 0.684000 0.255000
H26 H 0.984000 0.161000 -0.069000
H27 H 0.912000 0.367000 -0.073000
H28 H 0.372000 0.838000 1.049000
C29 C 0.334700 0.910900 0.979700
C30 C 0.120600 0.831500 0.947800
C31 C 0.296500 0.722800 0.908100
C32 C 0.679400 0.590700 0.218100
C33 C 0.844800 0.485500 0.173600
C34 C 0.805900 0.316800 0.105800
C35 C 0.780100 0.619100 0.228900
C36 C 0.643200 0.420500 0.150200
C37 C 0.703500 0.277200 0.091900
C38 C 0.879400 0.168500 0.052200
C39 C 0.665300 0.089100 0.020300
C40 C 0.356800 0.579500 0.849800
C41 C 0.219900 0.380900 0.771100
C42 C 0.194100 0.683200 0.894200
C43 C 0.155200 0.514500 0.826400
C44 C 0.334700 0.589100 0.479700
C45 C 0.120600 0.668500 0.447800
C46 C 0.296500 0.777200 0.408100
C47 C 0.320600 0.409300 0.781900
C48 C 0.320600 1.090700 0.281900
C49 C 0.155200 0.985500 0.326400
C50 C 0.194100 0.816800 0.394200
C51 C 0.219900 1.119100 0.271100
C52 C 0.356800 0.920500 0.349800
C53 C 0.665300 0.410900 0.520300
C54 C 0.879400 0.331500 0.552200
C55 C 0.679400 -0.090700 0.718100
C56 C 0.844800 0.014500 0.673600
C57 C 0.805900 0.183200 0.605800
C58 C 0.780100 -0.119100 0.728900
C59 C 0.643200 0.079500 0.650200
C60 C 0.703500 0.222800 0.591900
N61 N 0.924300 0.259400 0.457600
N62 N 0.534800 0.104400 0.645300
N63 N 0.820100 -0.294100 0.804700
N64 N 0.179900 1.294100 0.195300
N65 N 0.820100 0.794100 0.304700
N66 N 0.534800 0.395600 0.145300
N67 N 0.924300 0.240600 -0.042400
N68 N 0.075700 0.740600 0.542400
N69 N 0.465200 0.895600 0.354700
N70 N 0.075700 0.759400 1.042400
N71 N 0.465200 0.604400 0.854700
N72 N 0.179900 0.205900 0.695300
O73 O 0.509900 0.524100 0.773700
O74 O 0.102000 1.004500 0.900900
O75 O 0.507600 0.702300 0.936900
O76 O 0.237400 0.067800 0.666200
O77 O 0.091200 0.206300 0.666400
O78 O 0.908800 -0.293700 0.833600
O79 O 0.908800 0.793700 0.333600
O80 O 0.762600 0.932200 0.333800
O81 O 0.492400 0.297700 0.063100
O82 O 0.490100 0.475900 0.226300
O83 O 0.762600 -0.432200 0.833800
O84 O 0.492400 0.202300 0.563100
O85 O 0.490100 0.024100 0.726300
O86 O 0.898000 0.504500 0.599100
O87 O 0.102000 0.495500 0.400900
O88 O 0.509900 0.975900 0.273700
O89 O 0.507600 0.797700 0.436900
O90 O 0.237400 1.432200 0.166200
O91 O 0.898000 -0.004500 0.099100
O92 O 0.091200 1.293700 0.166400

#END
