
#######################################################################
#
#                 Cambridge Crystallographic Data Centre
#                                CCDC 
#
#######################################################################
#
# If this CIF has been generated from an entry in the Cambridge 
# Structural Database, then it will include bibliographic, chemical, 
# crystal, experimental, refinement or atomic coordinate data resulting 
# from the CCDC's data processing and validation procedures.
#
#######################################################################

data_LACQAH
_symmetry_cell_setting           monoclinic
_symmetry_space_group_name_H-M   'P 21'
_symmetry_Int_Tables_number      4
_space_group_name_Hall           'P 2yb'
loop_
_symmetry_equiv_pos_site_id
_symmetry_equiv_pos_as_xyz
1 x,y,z
2 -x,1/2+y,-z
_cell_length_a                   11.000(2)
_cell_length_b                   6.335(2)
_cell_length_c                   12.612(1)
_cell_angle_alpha                90
_cell_angle_beta                 98.22(1)
_cell_angle_gamma                90
_cell_volume                     869.838
loop_
_atom_site_label
_atom_site_type_symbol
_atom_site_fract_x
_atom_site_fract_y
_atom_site_fract_z
O1 O -0.0838(2) 0.460(2) 0.1486(2)
O2 O 0.0179(2) 0.172(2) 0.1277(1)
N3 N 0.0541(2) -0.264(2) 0.4272(2)
C11 C -0.0419(2) -0.163(2) 0.3661(2)
C12 C -0.0075(2) 0.032(2) 0.3402(1)
C13 C 0.1182(2) 0.059(2) 0.3891(1)
C14 C 0.2005(2) 0.226(2) 0.3926(2)
C15 C 0.3154(2) 0.202(2) 0.4542(2)
C16 C 0.3470(3) 0.015(2) 0.5087(2)
C17 C 0.2684(3) -0.150(2) 0.5050(2)
C18 C 0.1523(2) -0.128(2) 0.4439(2)
C19 C -0.0865(2) 0.197(2) 0.2804(2)
C20 C -0.0462(2) 0.282(2) 0.1783(2)
H10 H -0.1208 -0.2211 0.3432
H11 H 0.1778 0.3572 0.3548
H12 H 0.3749 0.3139 0.4597
H13 H 0.4275 0.0044 0.5478
H14 H 0.2893 -0.2770 0.5453
H15 H -0.1662 0.1412 0.2626
H16 H -0.0899 0.3155 0.3279
H21 H 0.042(3) -0.392(7) 0.460(3)
O1 O 1.0838(2) 0.960(2) 0.8514(2)
O2 O 0.9821(2) 0.672(2) 0.8723(1)
N3 N 0.9459(2) 0.236(2) 0.5728(2)
C11 C 1.0419(2) 0.337(2) 0.6339(2)
C12 C 1.0075(2) 0.532(2) 0.6598(1)
C13 C 0.8818(2) 0.559(2) 0.6109(1)
C14 C 0.7995(2) 0.726(2) 0.6074(2)
C15 C 0.6846(2) 0.702(2) 0.5458(2)
C16 C 0.6530(3) 0.515(2) 0.4913(2)
C17 C 0.7316(3) 0.350(2) 0.4950(2)
C18 C 0.8477(2) 0.372(2) 0.5561(2)
C19 C 1.0865(2) 0.697(2) 0.7196(2)
C20 C 1.0462(2) 0.782(2) 0.8217(2)
H10 H 1.1208 0.2789 0.6568
H11 H 0.8222 0.8572 0.6452
H12 H 0.6251 0.8139 0.5403
H13 H 0.5725 0.5044 0.4522
H14 H 0.7107 0.2230 0.4547
H15 H 1.1662 0.6412 0.7374
H16 H 1.0899 0.8155 0.6721
H21 H 0.958(3) 0.108(7) 0.540(3)
N1 N 0.2608(2) 0.273(2) 0.9051(2)
N2 N 0.0806(2) 0.763(2) 1.0988(2)
C1 C 0.2367(2) 0.382(2) 0.9938(2)
C2 C 0.2994(2) 0.566(2) 1.0021(2)
C3 C 0.3653(2) 0.577(2) 0.9138(2)
C4 C 0.4443(2) 0.725(2) 0.8753(2)
C5 C 0.4907(3) 0.682(2) 0.7822(3)
C6 C 0.4615(3) 0.502(2) 0.7265(2)
C7 C 0.3862(2) 0.354(2) 0.7601(2)
C8 C 0.3380(2) 0.391(2) 0.8550(2)
C9 C 0.3031(2) 0.739(2) 1.0860(2)
C10 C 0.2075(2) 0.724(2) 1.1544(2)
H1 H 0.1863 0.3335 1.0437
H2 H 0.4639 0.8558 0.9143
H3 H 0.5468 0.7810 0.7563
H4 H 0.4953 0.4814 0.6612
H5 H 0.3653 0.2290 0.7196
H6 H 0.3818 0.7436 1.1276
H7 H 0.2931 0.8759 1.0468
H8 H 0.2232 0.8281 1.2115
H9 H 0.2096 0.5894 1.1851
H17 H 0.218(3) 0.148(8) 0.886(3)
H18 H 0.074(3) 0.761(6) 1.030(3)
H19 H 0.063(3) 0.890(8) 1.117(3)
H20 H 0.018(3) 0.664(8) 1.116(3)
N1 N 0.7392(2) -0.227(2) 0.0949(2)
N2 N 0.9194(2) 0.263(2) -0.0988(2)
C1 C 0.7633(2) -0.118(2) 0.0062(2)
C2 C 0.7006(2) 0.066(2) -0.0021(2)
C3 C 0.6347(2) 0.077(2) 0.0862(2)
C4 C 0.5557(2) 0.225(2) 0.1247(2)
C5 C 0.5093(3) 0.182(2) 0.2178(3)
C6 C 0.5385(3) 0.002(2) 0.2735(2)
C7 C 0.6138(2) -0.146(2) 0.2399(2)
C8 C 0.6620(2) -0.109(2) 0.1450(2)
C9 C 0.6969(2) 0.239(2) -0.0860(2)
C10 C 0.7925(2) 0.224(2) -0.1544(2)
H1 H 0.8137 -0.1665 -0.0437
H2 H 0.5361 0.3558 0.0857
H3 H 0.4532 0.2810 0.2437
H4 H 0.5047 -0.0186 0.3388
H5 H 0.6347 -0.2710 0.2804
H6 H 0.6182 0.2436 -0.1276
H7 H 0.7069 0.3759 -0.0468
H8 H 0.7768 0.3281 -0.2115
H9 H 0.7904 0.0894 -0.1851
H17 H 0.782(3) -0.352(8) 0.114(3)
H18 H 0.926(3) 0.261(6) -0.030(3)
H19 H 0.937(3) 0.390(8) -0.117(3)
H20 H 0.982(3) 0.164(8) -0.116(3)

#END
