./LACQAH_from_POSCAR.cif_generated_by_CrystalShift
_symmetry_cell_setting triclinic
_symmetry_space_group_name_H-M 'P 1'
loop_
_symmetry_equiv_pos_site_id
_symmetry_equiv_pos_as_xyz
1 x,y,z
_cell_length_a 11.000000
_cell_length_b 6.335000
_cell_length_c 12.612000
_cell_angle_alpha 90.000000
_cell_angle_beta 98.220000
_cell_angle_gamma 90.000000
_cell_volume 869.838075
loop_
_atom_site_label
_atom_site_type_symbol
_atom_site_fract_x
_atom_site_fract_y
_atom_site_fract_z
H1 H 0.982000 0.164000 -0.116000
H2 H 0.937000 0.390000 -0.117000
H3 H 0.926000 0.261000 -0.030000
H4 H 0.536100 0.355800 0.085700
H5 H 0.813700 -0.166500 -0.043700
H6 H 0.504700 -0.018600 0.338800
H7 H 0.634700 -0.271000 0.280400
H8 H 0.018000 0.664000 1.116000
H9 H 0.063000 0.890000 1.117000
H10 H 0.074000 0.761000 1.030000
H11 H 0.218000 0.148000 0.886000
H12 H 0.209600 0.589400 1.185100
H13 H 0.223200 0.828100 1.211500
H14 H -0.120800 -0.221100 0.343200
H15 H 0.177800 0.357200 0.354800
H16 H 0.374900 0.313900 0.459700
H17 H 0.427500 0.004400 0.547800
H18 H 0.289300 -0.277000 0.545300
H19 H -0.166200 0.141200 0.262600
H20 H -0.089900 0.315500 0.327900
H21 H 0.042000 -0.392000 0.460000
H22 H 0.782000 -0.352000 0.114000
H23 H 0.790400 0.089400 -0.185100
H24 H 0.776800 0.328100 -0.211500
H25 H 0.293100 0.875900 1.046800
H26 H 0.381800 0.743600 1.127600
H27 H 0.365300 0.229000 0.719600
H28 H 0.495300 0.481400 0.661200
H29 H 0.546800 0.781000 0.756300
H30 H 0.463900 0.855800 0.914300
H31 H 0.186300 0.333500 1.043700
H32 H 0.618200 0.243600 -0.127600
H33 H 0.706900 0.375900 -0.046800
H34 H 0.958000 0.108000 0.540000
H35 H 1.120800 0.278900 0.656800
H36 H 0.822200 0.857200 0.645200
H37 H 0.625100 0.813900 0.540300
H38 H 0.572500 0.504400 0.452200
H39 H 0.710700 0.223000 0.454700
H40 H 1.166200 0.641200 0.737400
H41 H 1.089900 0.815500 0.672100
H42 H 0.453200 0.281000 0.243700
C43 C 1.086500 0.697000 0.719600
C44 C 0.847700 0.372000 0.556100
C45 C 0.236700 0.382000 0.993800
C46 C 0.299400 0.566000 1.002100
C47 C 0.365300 0.577000 0.913800
C48 C 0.444300 0.725000 0.875300
C49 C 0.490700 0.682000 0.782200
C50 C 0.461500 0.502000 0.726500
C51 C 0.386200 0.354000 0.760100
C52 C 0.338000 0.391000 0.855000
C53 C 0.303100 0.739000 1.086000
C54 C 0.207500 0.724000 1.154400
C55 C 0.731600 0.350000 0.495000
C56 C 0.653000 0.515000 0.491300
C57 C 0.684600 0.702000 0.545800
C58 C 0.799500 0.726000 0.607400
C59 C 0.881800 0.559000 0.610900
C60 C 1.007500 0.532000 0.659800
C61 C 1.041900 0.337000 0.633900
C62 C -0.046200 0.282000 0.178300
C63 C -0.086500 0.197000 0.280400
C64 C 0.152300 -0.128000 0.443900
C65 C 0.268400 -0.150000 0.505000
C66 C 0.347000 0.015000 0.508700
C67 C 0.315400 0.202000 0.454200
C68 C 0.200500 0.226000 0.392600
C69 C 0.118200 0.059000 0.389100
C70 C 0.763300 -0.118000 0.006200
C71 C 0.700600 0.066000 -0.002100
C72 C 0.634700 0.077000 0.086200
C73 C 0.555700 0.225000 0.124700
C74 C 0.509300 0.182000 0.217800
C75 C 0.538500 0.002000 0.273500
C76 C 0.613800 -0.146000 0.239900
C77 C 0.662000 -0.109000 0.145000
C78 C 0.696900 0.239000 -0.086000
C79 C 0.792500 0.224000 -0.154400
C80 C -0.007500 0.032000 0.340200
C81 C -0.041900 -0.163000 0.366100
C82 C 1.046200 0.782000 0.821700
N83 N 0.739200 -0.227000 0.094900
N84 N 0.080600 0.763000 1.098800
N85 N 0.260800 0.273000 0.905100
N86 N 0.945900 0.236000 0.572800
N87 N 0.054100 -0.264000 0.427200
N88 N 0.919400 0.263000 -0.098800
O89 O 1.083800 0.960000 0.851400
O90 O 0.982100 0.672000 0.872300
O91 O 0.017900 0.172000 0.127700
O92 O -0.083800 0.460000 0.148600

#END
