./LACROZ_from_POSCAR.cif_generated_by_CrystalShift
_symmetry_cell_setting triclinic
_symmetry_space_group_name_H-M 'P 1'
loop_
_symmetry_equiv_pos_site_id
_symmetry_equiv_pos_as_xyz
1 x,y,z
_cell_length_a 15.320300
_cell_length_b 15.592500
_cell_length_c 19.831500
_cell_angle_alpha 87.283800
_cell_angle_beta 81.255400
_cell_angle_gamma 82.760400
_cell_volume 4643.062048
loop_
_atom_site_label
_atom_site_type_symbol
_atom_site_fract_x
_atom_site_fract_y
_atom_site_fract_z
H1 H 0.201700 0.622800 1.103700
H2 H 0.324700 0.608200 1.161700
H3 H 0.490000 0.601300 0.981700
H4 H 0.367000 0.620900 0.923600
H5 H 0.052100 0.559600 0.970300
H6 H -0.093100 0.606800 1.020800
H7 H -0.004600 0.809900 1.098200
H8 H 0.139600 0.765500 1.044500
H9 H 0.576300 0.440000 0.307000
H10 H 0.449600 0.423300 0.523500
H11 H 0.546500 0.576600 0.353700
H12 H 0.594400 0.375400 0.472300
H13 H 0.498300 0.199600 0.368200
H14 H 0.301600 0.603300 0.296600
H15 H 0.354700 0.244100 0.421900
H16 H 0.332500 0.466900 0.249500
H17 H 0.134200 0.370300 0.565600
H18 H 0.007000 0.398900 0.513200
H19 H 0.613300 0.348600 0.227400
H20 H 0.161800 0.414400 0.329300
H21 H 0.647400 0.211400 0.182600
H22 H 0.289700 0.387900 0.381800
H23 H 0.288900 0.408100 0.831400
H24 H 0.384200 0.193300 0.191600
H25 H 0.261300 0.469700 0.938000
H26 H 0.350800 0.327000 0.242500
H27 H 0.165300 0.696500 0.853200
H28 H 0.187800 0.632400 0.747100
H29 H 0.461200 0.791200 0.438100
H30 H 0.270500 0.346800 0.741800
H31 H 0.567200 0.887600 0.409500
H32 H 0.298800 0.285500 0.634500
H33 H 0.275900 0.524700 0.546200
H34 H 0.605800 0.812300 0.212900
H35 H 0.250100 0.585900 0.652500
H36 H 0.496200 0.718700 0.241000
H37 H 0.798300 0.377200 -0.103700
H38 H 0.675300 0.391800 -0.161700
H39 H 0.319800 0.843000 0.382400
H40 H 0.510000 0.398700 0.018300
H41 H 0.186700 0.883900 0.452600
H42 H 0.633000 0.379100 0.076400
H43 H 0.947900 0.440400 0.029700
H44 H 0.158900 0.632000 0.500200
H45 H 1.093100 0.393200 -0.020800
H46 H 0.293700 0.590800 0.431200
H47 H 1.004600 0.190100 -0.098200
H48 H 0.860400 0.234500 -0.044500
H49 H 0.649000 -0.036100 0.132500
H50 H 0.550400 0.576700 0.476500
H51 H 0.772300 -0.064800 0.048300
H52 H 0.405600 0.624600 0.527700
H53 H 0.501700 0.800400 0.631800
H54 H 0.727400 0.178400 -0.031200
H55 H 0.645300 0.755900 0.578100
H56 H 0.603800 0.207100 0.052900
H57 H 0.865800 0.629700 0.434400
H58 H 0.993000 0.601100 0.486800
H59 H 0.463000 0.053900 0.271700
H60 H 0.838200 0.585600 0.670700
H61 H 0.362500 -0.048600 0.297700
H62 H 0.710300 0.612100 0.618200
H63 H 0.711100 0.591900 0.168600
H64 H 0.376900 -0.090500 0.096100
H65 H 0.738700 0.530300 0.062000
H66 H 0.474900 0.013800 0.070000
H67 H 0.834700 0.303500 0.146800
H68 H 0.812200 0.367600 0.252900
H69 H 0.729500 0.653200 0.258200
H70 H 0.701200 0.714500 0.365500
H71 H 0.724100 0.475300 0.453800
H72 H 0.749900 0.414100 0.347500
H73 H 0.804700 0.839000 0.868000
H74 H 0.677300 0.887900 0.942700
H75 H 0.423700 0.560000 0.693000
H76 H 0.647700 0.641000 1.006200
H77 H 0.453500 0.423400 0.646300
H78 H 0.778200 0.591800 0.934700
H79 H 0.979900 0.712800 0.735000
H80 H 0.698400 0.396700 0.703400
H81 H 1.090200 0.805400 0.706300
H82 H 0.667500 0.533100 0.750500
H83 H 1.053700 0.880600 0.902800
H84 H 0.946800 0.785700 0.931700
H85 H 0.386700 0.651400 0.772600
H86 H 0.936100 0.047800 0.763100
H87 H 0.352600 0.788600 0.817400
H88 H 0.833300 -0.053500 0.778300
H89 H 0.873800 -0.089900 0.574600
H90 H 0.615800 0.806700 0.808400
H91 H 0.974800 0.012600 0.559500
H92 H 0.649200 0.673000 0.757500
H93 H 1.119600 0.206700 0.572000
H94 H 1.255100 0.179100 0.501000
H95 H 0.538800 0.208800 0.561900
H96 H 1.262900 -0.075500 0.551900
H97 H 0.432800 0.112400 0.590500
H98 H 1.129100 -0.048000 0.625300
H99 H 0.813800 0.448300 0.763800
H100 H 0.394200 0.187700 0.787100
H101 H 0.781800 0.587500 0.805500
H102 H 0.503800 0.281300 0.759000
H103 H 1.033000 0.575700 0.847200
H104 H 1.065500 0.438300 0.803200
H105 H 0.680200 0.157000 0.617600
H106 H 0.846700 0.335500 0.715100
H107 H 0.813300 0.116100 0.547400
H108 H 0.881700 0.202600 0.663200
H109 H 1.126200 0.182900 0.717300
H110 H 0.841100 0.368000 0.499800
H111 H 1.091000 0.316700 0.766500
H112 H 0.706300 0.409200 0.568800
H113 H 0.195300 0.161000 0.132000
H114 H 0.322700 0.112100 0.057300
H115 H 0.351000 1.036100 0.867500
H116 H 0.352300 0.359000 -0.006200
H117 H 0.227700 1.064800 0.951700
H118 H 0.221800 0.408200 0.065300
H119 H 0.020100 0.287200 0.265000
H120 H 0.272600 0.821600 1.031200
H121 H -0.090200 0.194600 0.293700
H122 H 0.396200 0.792900 0.947100
H123 H -0.053700 0.119400 0.097200
H124 H 0.053200 0.214300 0.068300
H125 H 0.537000 0.946100 0.728300
H126 H 0.063900 0.952200 0.236900
H127 H 0.637500 1.048600 0.702300
H128 H 0.166700 1.053500 0.221700
H129 H 0.126200 1.089900 0.425400
H130 H 0.623100 1.090500 0.903900
H131 H 0.025200 0.987400 0.440500
H132 H 0.525100 0.986200 0.930000
H133 H -0.119600 0.793300 0.428000
H134 H -0.255100 0.820900 0.499000
H135 H -0.262900 1.075500 0.448100
H136 H -0.129100 1.048000 0.374700
H137 H 0.186200 0.551700 0.236200
H138 H 0.218200 0.412500 0.194500
H139 H -0.033000 0.424300 0.152800
H140 H -0.065500 0.561700 0.196800
H141 H -0.091000 0.683300 0.233500
H142 H 0.153300 0.664500 0.284900
H143 H -0.126200 0.817100 0.282700
H144 H 0.118300 0.797400 0.336800
C145 C 0.074800 0.774400 0.315800
C146 C -0.008170 0.820300 0.316240
C147 C 0.095400 0.694800 0.284800
C148 C -0.069100 0.785900 0.284300
C149 C 0.056180 0.571910 0.222760
C150 C -0.007530 0.531760 0.196720
C151 C -0.047400 0.706000 0.254500
C152 C 0.011640 0.449300 0.170760
C153 C 0.034510 0.658050 0.253820
C154 C 0.094840 0.403100 0.170690
C155 C 0.160170 0.442460 0.195080
C156 C 0.333300 0.609100 1.113230
C157 C 0.140600 0.525650 0.220230
C158 C 0.418680 0.601030 1.077390
C159 C -0.110520 0.917510 0.393630
C160 C -0.154220 1.001700 0.400200
C161 C 0.431560 0.605710 1.006460
C162 C -0.233810 1.018060 0.443590
C163 C 0.358290 0.616840 0.972090
C164 C -0.270500 0.951260 0.479950
C165 C -0.228800 0.866960 0.474010
C166 C 0.272070 0.622080 1.007680
C167 C -0.148900 0.850770 0.431500
C168 C 0.040790 0.610730 0.995960
C169 C 0.033190 0.961210 0.339650
C170 C 0.053010 1.001520 0.395920
C171 C 0.547100 0.999420 0.883780
C172 C 0.113130 1.062140 0.387100
C173 C 0.605300 1.061080 0.868340
C174 C 0.153500 1.081610 0.322300
C175 C 0.137000 1.040700 0.266000
C176 C 0.637300 1.079510 0.801500
C177 C 0.076100 0.980420 0.275260
C178 C 0.613700 1.036450 0.748330
C179 C 0.046890 0.260210 0.164230
C180 C 0.024480 0.210010 0.114070
C181 C 0.554500 0.975420 0.764030
C182 C -0.039310 0.154220 0.131040
C183 C 0.520620 0.956670 0.831490
C184 C -0.081950 0.149370 0.197290
C185 C -0.060700 0.198590 0.248120
C186 C 0.361900 0.848090 0.947910
C187 C 0.004500 0.253730 0.230800
C188 C 0.288800 0.864810 0.997880
C189 C 0.193360 0.289570 0.105020
C190 C 0.241980 0.348020 0.063780
C191 C 0.239700 0.946100 0.998390
C192 C 0.318990 0.319080 0.020960
C193 C 0.262100 1.009650 0.950500
C194 C 0.346880 0.230930 0.018150
C195 C 0.301820 0.172040 0.059140
C196 C 0.335200 0.992470 0.900610
C197 C 0.225870 0.201190 0.102940
C198 C 0.385750 0.911320 0.898690
C199 C -0.045640 0.638350 1.026250
C200 C -0.061590 0.712000 1.064240
C201 C 0.457530 0.438460 0.272960
C202 C 0.007000 0.759400 1.071770
C203 C 0.520270 0.473030 0.304560
C204 C 0.092700 0.732400 1.040410
C205 C 0.965490 0.341950 0.746180
C206 C 1.047400 0.294000 0.745500
C207 C 0.727920 0.349520 0.564670
C208 C 1.069100 0.214100 0.715700
C209 C 0.807780 0.325410 0.523310
C210 C 1.008170 0.179700 0.683760
C211 C 0.925200 0.225600 0.684200
C212 C 0.838480 0.238030 0.516740
C213 C 0.904600 0.305200 0.715200
C214 C 0.791270 0.175570 0.551910
C215 C 0.943820 0.428090 0.777240
C216 C 1.007530 0.468240 0.803280
C217 C 0.712220 0.200060 0.593430
C218 C 0.988360 0.550700 0.829240
C219 C 0.678290 0.287840 0.600540
C220 C 0.905160 0.596900 0.829310
C221 C 0.839830 0.557540 0.804920
C222 C 0.488830 0.247630 0.724690
C223 C 0.859400 0.474350 0.779770
C224 C 0.424100 0.191800 0.741700
C225 C 1.110520 0.082490 0.606370
C226 C 1.154220 -0.001700 0.599800
C227 C 0.404160 0.142110 0.690850
C228 C 1.233810 -0.018060 0.556410
C229 C 0.446780 0.147360 0.624420
C230 C 1.270500 0.048740 0.520050
C231 C 1.228800 0.133040 0.525990
C232 C 0.510030 0.204090 0.607620
C233 C 1.148900 0.149230 0.568500
C234 C 0.531640 0.254620 0.658170
C235 C 0.966810 0.038790 0.660350
C236 C 0.946990 -0.001520 0.604080
C237 C 0.588680 0.695720 0.770330
C238 C 0.886870 -0.062140 0.612900
C239 C 0.568880 0.775920 0.800220
C240 C 0.846500 -0.081610 0.677700
C241 C 0.863000 -0.040700 0.734000
C242 C 0.480750 0.811670 0.818270
C243 C 0.923900 0.019580 0.724740
C244 C 0.413020 0.764750 0.806350
C245 C 0.953110 0.739790 0.835770
C246 C 0.975520 0.789990 0.885930
C247 C 0.433670 0.683480 0.778430
C248 C 1.039310 0.845780 0.868960
C249 C 0.521520 0.647490 0.758630
C250 C 1.081950 0.850630 0.802710
C251 C 1.060700 0.801410 0.751880
C252 C 0.623600 0.511230 0.729300
C253 C 0.995500 0.746270 0.769200
C254 C 0.642280 0.429580 0.701260
C255 C 0.806640 0.710430 0.894980
C256 C 0.758020 0.651980 0.936220
C257 C 0.578980 0.396090 0.670150
C258 C 0.681010 0.680920 0.979040
C259 C 0.497370 0.445420 0.667400
C260 C 0.653120 0.769070 0.981850
C261 C 0.698180 0.827960 0.940860
C262 C 0.479730 0.526970 0.695440
C263 C 0.774130 0.798810 0.897060
C264 C 0.542470 0.561540 0.727040
C265 C 0.110940 0.656830 1.002730
C266 C 0.502630 0.554580 0.332600
C267 C 0.459400 0.376860 0.492890
C268 C 0.421020 0.603910 0.329850
C269 C 0.545500 0.349090 0.462050
C270 C 0.260100 0.618600 1.078720
C271 C 0.742730 0.526400 0.290650
C272 C 0.740530 0.475260 0.350560
C273 C 0.558990 0.282740 0.416350
C274 C 0.725000 0.511650 0.413960
C275 C 0.357720 0.570420 0.298740
C276 C 0.710610 0.600660 0.420100
C277 C 0.711670 0.653440 0.361860
C278 C 0.488300 0.244100 0.400510
C279 C 0.728130 0.616520 0.297940
C280 C 0.376400 0.488770 0.270700
C281 C 0.758800 0.486790 0.222540
C282 C 0.796100 0.400760 0.214300
C283 C 0.403200 0.271060 0.432240
C284 C 0.810260 0.362440 0.150920
C285 C 0.386950 0.337480 0.479410
C286 C 0.788630 0.410420 0.093650
C287 C 0.752700 0.496510 0.100900
C288 C 0.452900 0.000580 0.116220
C289 C 0.737100 0.533470 0.164510
C290 C 0.394700 -0.061080 0.131660
C291 C 0.775010 0.623700 0.520510
C292 C 0.767400 0.610200 0.591440
C293 C 0.362700 -0.079510 0.198500
C294 C 0.843500 0.594200 0.622530
C295 C 0.386300 -0.036450 0.251670
C296 C 0.926600 0.590760 0.583870
C297 C 0.935680 0.603650 0.513360
C298 C 0.445500 0.024580 0.235970
C299 C 0.859920 0.620320 0.482450
C300 C 0.479380 0.043330 0.168510
C301 C 0.613050 0.662520 0.520590
C302 C 0.596800 0.728940 0.567760
C303 C 0.638100 0.151910 0.052090
C304 C 0.511700 0.755900 0.599490
C305 C 0.711200 0.135190 0.002120
C306 C 0.441010 0.717260 0.583650
C307 C 0.454500 0.650910 0.537950
C308 C 0.760300 0.053900 0.001610
C309 C 0.540600 0.623140 0.507110
C310 C 0.737900 -0.009650 0.049500
C311 C 0.889060 0.343170 -0.002730
C312 C 0.907300 0.267600 -0.040410
C313 C 0.664800 0.007530 0.099390
C314 C 0.993000 0.240600 -0.071770
C315 C 0.614250 0.088680 0.101310
C316 C 1.061590 0.288000 -0.064240
C317 C 1.045640 0.361650 -0.026250
C318 C 0.272080 0.650480 0.435330
C319 C 0.959210 0.389270 0.004040
C320 C 0.192220 0.674590 0.476690
C321 C 0.727930 0.377920 -0.007680
C322 C 0.641710 0.383160 0.027910
C323 C 0.161520 0.761970 0.483260
C324 C 0.568440 0.394290 -0.006460
C325 C 0.208730 0.824430 0.448090
C326 C 0.581320 0.398970 -0.077390
C327 C 0.666700 0.390900 -0.113230
C328 C 0.287780 0.799940 0.406570
C329 C 0.739900 0.381400 -0.078720
C330 C 0.321710 0.712160 0.399460
C331 C 0.478480 0.352510 0.241370
C332 C 0.140080 0.379680 0.517550
C333 C 0.566330 0.316520 0.221570
C334 C 0.064320 0.396350 0.486640
C335 C 0.073400 0.409240 0.416130
C336 C 0.586980 0.235250 0.193650
C337 C 0.257270 0.473600 0.709350
C338 C 0.259470 0.524740 0.649440
C339 C 0.511170 0.752370 0.275310
C340 C 0.275000 0.488350 0.586040
C341 C 0.575900 0.808200 0.258300
C342 C 0.289390 0.399340 0.579900
C343 C 0.288330 0.346560 0.638140
C344 C 0.595840 0.857890 0.309150
C345 C 0.271870 0.383480 0.702060
C346 C 0.553220 0.852640 0.375580
C347 C 0.241200 0.513210 0.777460
C348 C 0.203900 0.599240 0.785700
C349 C 0.489970 0.795910 0.392380
C350 C 0.189740 0.637560 0.849080
C351 C 0.468360 0.745380 0.341830
C352 C 0.211370 0.589580 0.906350
C353 C 0.247300 0.503490 0.899100
C354 C 0.411320 0.304280 0.229670
C355 C 0.262900 0.466530 0.835490
C356 C 0.431120 0.224080 0.199780
C357 C 0.224990 0.376300 0.479490
C358 C 0.232600 0.389800 0.408560
C359 C 0.519250 0.188330 0.181730
C360 C 0.156500 0.405800 0.377470
N361 N 0.198790 0.628960 0.971430
N362 N 0.300430 0.362460 0.513440
N363 N 0.112920 0.317280 0.146660
N364 N -0.029820 0.900880 0.348980
N365 N 0.402840 0.687430 0.358490
N366 N 0.539890 0.105880 0.152380
N367 N 1.029820 0.099120 0.651020
N368 N 0.887080 0.682720 0.853340
N369 N 0.699570 0.637540 0.486560
N370 N 0.460110 0.894120 0.847620
N371 N 0.597160 0.312570 0.641510
N372 N 0.801210 0.371040 0.028570
Br373 Br 0.139680 0.971090 1.067890
Br374 Br 0.481952 0.419840 -0.125175
Br375 Br 1.179540 0.248990 -0.105285
Br376 Br 0.323190 0.756930 0.625370
Br377 Br 1.029960 0.565360 0.627126
Br378 Br 0.946470 0.202360 0.459230
Br379 Br 0.315540 0.066500 0.712360
Br380 Br 0.552850 0.810680 1.045417
Br381 Br 1.173240 0.923410 0.781270
Br382 Br 0.767760 -0.168340 0.690020
Br383 Br 1.379880 0.024710 0.460090
Br384 Br -0.029960 0.434640 0.372874
Br385 Br -0.379880 0.975290 0.539910
Br386 Br 0.676810 0.243070 0.374630
Br387 Br 0.232240 1.168340 0.309980
Br388 Br -0.173240 0.076590 0.218730
Br389 Br 0.285010 -0.166820 0.218570
Br390 Br 0.447150 0.189320 -0.045417
Br391 Br 0.860320 0.028910 -0.067890
Br392 Br -0.179540 0.751010 1.105285
Br393 Br 0.518048 0.580160 1.125175
Br394 Br 0.053530 0.797640 0.540770
Br395 Br 0.714990 1.166820 0.781430
Br396 Br 0.684460 0.933500 0.287640

#END
