
#######################################################################
#
#                 Cambridge Crystallographic Data Centre
#                                CCDC 
#
#######################################################################
#
# If this CIF has been generated from an entry in the Cambridge 
# Structural Database, then it will include bibliographic, chemical, 
# crystal, experimental, refinement or atomic coordinate data resulting 
# from the CCDC's data processing and validation procedures.
#
#######################################################################

data_LACREM
_symmetry_cell_setting           triclinic
_symmetry_space_group_name_H-M   'P -1'
_symmetry_Int_Tables_number      2
_space_group_name_Hall           '-P 1'
loop_
_symmetry_equiv_pos_site_id
_symmetry_equiv_pos_as_xyz
1 x,y,z
2 -x,-y,-z
_cell_length_a                   9.837(2)
_cell_length_b                   9.966(2)
_cell_length_c                   8.198(2)
_cell_angle_alpha                111.85(1)
_cell_angle_beta                 99.45(1)
_cell_angle_gamma                89.51(1)
_cell_volume                     734.623
loop_
_atom_site_label
_atom_site_type_symbol
_atom_site_fract_x
_atom_site_fract_y
_atom_site_fract_z
C1 C 0.3532(4) 0.6160(4) 0.2589(5)
O1 O 0.2055(2) 0.5827(2) 0.2213(3)
C2 C 0.1778(3) 0.4923(3) 0.3129(4)
C3 C 0.1199(3) 0.3449(3) 0.1796(4)
O2 O -0.0148(2) 0.3292(2) 0.1783(3)
C4 C -0.0855(4) 0.1886(4) 0.0703(5)
C5 C -0.1562(3) 0.1376(4) 0.1879(5)
C6 C -0.0645(3) 0.1503(3) 0.3534(5)
C7 C 0.0123(3) 0.1713(3) 0.4901(5)
C8 C 0.1106(3) 0.2021(4) 0.6564(5)
C9 C 0.1828(3) 0.3508(4) 0.7232(4)
O3 O 0.2339(2) 0.3640(2) 0.5728(3)
C10 C 0.3089(3) 0.4846(3) 0.6001(4)
C11 C 0.3209(3) 0.4845(3) 0.4207(4)
O4 O 0.3945(2) 0.6102(2) 0.4310(3)
C12 C 0.3840(3) 0.7632(3) 0.2608(4)
C13 C 0.3244(3) 0.8884(4) 0.3527(4)
C14 C 0.3606(4) 1.0159(4) 0.3409(5)
C15 C 0.4575(4) 1.0222(4) 0.2431(5)
C16 C 0.5174(3) 0.9007(5) 0.1503(5)
C17 C 0.4796(3) 0.7698(4) 0.1575(5)
O5 O 0.1866(2) 0.2565(2) 0.0864(3)
O6 O 0.3534(2) 0.5749(2) 0.7427(3)
H1 H 0.403(4) 0.519(5) 0.150(6)
H2 H 0.112(3) 0.542(3) 0.390(4)
H3 H -0.145(4) 0.203(4) -0.024(5)
H4 H -0.018(4) 0.123(4) 0.012(4)
H5 H -0.235(4) 0.199(4) 0.224(5)
H6 H -0.185(3) 0.046(4) 0.125(4)
H7 H 0.066(4) 0.201(4) 0.750(5)
H8 H 0.181(4) 0.125(4) 0.637(5)
H9 H 0.119(4) 0.430(4) 0.763(4)
H10 H 0.259(3) 0.363(3) 0.821(4)
H11 H 0.364(3) 0.400(3) 0.355(4)
H12 H 0.260(4) 0.882(4) 0.421(5)
H13 H 0.323(4) 1.100(4) 0.405(5)
H14 H 0.478(4) 1.116(4) 0.241(5)
H15 H 0.586(4) 0.907(4) 0.079(5)
H16 H 0.510(4) 0.686(5) 0.087(5)
C1 C 0.6468(4) 0.3840(4) 0.7411(5)
O1 O 0.7945(2) 0.4173(2) 0.7787(3)
C2 C 0.8222(3) 0.5077(3) 0.6871(4)
C3 C 0.8801(3) 0.6551(3) 0.8204(4)
O2 O 1.0148(2) 0.6708(2) 0.8217(3)
C4 C 1.0855(4) 0.8114(4) 0.9297(5)
C5 C 1.1562(3) 0.8624(4) 0.8121(5)
C6 C 1.0645(3) 0.8497(3) 0.6466(5)
C7 C 0.9877(3) 0.8287(3) 0.5099(5)
C8 C 0.8894(3) 0.7979(4) 0.3436(5)
C9 C 0.8172(3) 0.6492(4) 0.2768(4)
O3 O 0.7661(2) 0.6360(2) 0.4272(3)
C10 C 0.6911(3) 0.5154(3) 0.3999(4)
C11 C 0.6791(3) 0.5155(3) 0.5793(4)
O4 O 0.6055(2) 0.3898(2) 0.5690(3)
C12 C 0.6160(3) 0.2368(3) 0.7392(4)
C13 C 0.6756(3) 0.1116(4) 0.6473(4)
C14 C 0.6394(4) -0.0159(4) 0.6591(5)
C15 C 0.5425(4) -0.0222(4) 0.7569(5)
C16 C 0.4826(3) 0.0993(5) 0.8497(5)
C17 C 0.5204(3) 0.2302(4) 0.8425(5)
O5 O 0.8134(2) 0.7435(2) 0.9136(3)
O6 O 0.6466(2) 0.4251(2) 0.2573(3)
H1 H 0.597(4) 0.481(5) 0.850(6)
H2 H 0.888(3) 0.458(3) 0.610(4)
H3 H 1.145(4) 0.797(4) 1.024(5)
H4 H 1.018(4) 0.877(4) 0.988(4)
H5 H 1.235(4) 0.801(4) 0.776(5)
H6 H 1.185(3) 0.954(4) 0.875(4)
H7 H 0.934(4) 0.799(4) 0.250(5)
H8 H 0.819(4) 0.875(4) 0.363(5)
H9 H 0.881(4) 0.570(4) 0.237(4)
H10 H 0.741(3) 0.637(3) 0.179(4)
H11 H 0.636(3) 0.600(3) 0.645(4)
H12 H 0.740(4) 0.118(4) 0.579(5)
H13 H 0.677(4) -0.100(4) 0.595(5)
H14 H 0.522(4) -0.116(4) 0.759(5)
H15 H 0.414(4) 0.093(4) 0.921(5)
H16 H 0.490(4) 0.314(5) 0.913(5)

#END
