
#######################################################################
#
#                 Cambridge Crystallographic Data Centre
#                                CCDC 
#
#######################################################################
#
# If this CIF has been generated from an entry in the Cambridge 
# Structural Database, then it will include bibliographic, chemical, 
# crystal, experimental, refinement or atomic coordinate data resulting 
# from the CCDC's data processing and validation procedures.
#
#######################################################################

data_LACSAM
_symmetry_cell_setting           triclinic
_symmetry_space_group_name_H-M   'P -1'
_symmetry_Int_Tables_number      2
_space_group_name_Hall           '-P 1'
loop_
_symmetry_equiv_pos_site_id
_symmetry_equiv_pos_as_xyz
1 x,y,z
2 -x,-y,-z
_cell_length_a                   10.1188(2)
_cell_length_b                   13.8839(3)
_cell_length_c                   16.4081(5)
_cell_angle_alpha                107.983(2)
_cell_angle_beta                 106.750(2)
_cell_angle_gamma                96.924(2)
_cell_volume                     2043.2
loop_
_atom_site_label
_atom_site_type_symbol
_atom_site_fract_x
_atom_site_fract_y
_atom_site_fract_z
Br1 Br 0.88478(3) 0.56617(2) 0.374949(19)
Br2 Br 0.52886(3) 0.58394(2) 0.38836(2)
Br3 Br 1.23372(4) 1.19256(3) 0.60558(2)
Br4 Br 1.46976(4) 0.83512(3) 1.09055(2)
Br5 Br 0.04545(4) 0.15079(3) -0.09977(2)
Br6 Br 0.27212(4) -0.19585(3) 0.39539(3)
N1 N 1.1113(2) 0.82087(17) 0.71651(16)
N2 N 0.3798(2) 0.17803(17) 0.28366(15)
C1 C 0.8023(3) 0.5498(2) 0.52496(19)
C2 C 0.8896(3) 0.6105(2) 0.49819(18)
C3 C 0.9899(3) 0.7002(2) 0.56021(19)
H1 H 1.0459 0.7408 0.5397
C4 C 1.0076(3) 0.7301(2) 0.65255(18)
C5 C 0.9247(3) 0.6693(2) 0.68162(19)
H2 H 0.9366 0.6886 0.7445
C6 C 0.8245(3) 0.5801(2) 0.6176(2)
H3 H 0.7696 0.5388 0.6382
C7 C 0.6924(3) 0.4548(2) 0.45990(18)
C8 C 0.5685(3) 0.4554(2) 0.39533(19)
C9 C 0.4665(3) 0.3656(2) 0.33681(19)
H4 H 0.3843 0.3692 0.2928
C10 C 0.4855(3) 0.2702(2) 0.34301(18)
C11 C 0.6077(3) 0.2669(2) 0.40773(18)
H5 H 0.6227 0.2022 0.4123
C12 C 0.7071(3) 0.3580(2) 0.46523(18)
H6 H 0.7885 0.3547 0.5101
C13 C 1.1402(3) 0.9073(2) 0.68998(18)
C14 C 1.0293(3) 0.9459(2) 0.64935(19)
H7 H 0.9345 0.9142 0.6391
C15 C 1.0560(3) 1.0304(2) 0.6236(2)
H8 H 0.9801 1.0573 0.5964
C16 C 1.1952(3) 1.0753(2) 0.63798(19)
C17 C 1.3066(3) 1.0369(2) 0.67787(19)
H9 H 1.4014 1.0681 0.6875
C18 C 1.2791(3) 0.9529(2) 0.70350(18)
H10 H 1.3552 0.9260 0.7305
C19 C 1.1949(3) 0.8226(2) 0.80306(18)
C20 C 1.2453(3) 0.9171(2) 0.87793(19)
H11 H 1.2240 0.9792 0.8702
C21 C 1.3261(3) 0.9199(2) 0.96299(19)
H12 H 1.3604 0.9838 1.0136
C22 C 1.3565(3) 0.8297(2) 0.97386(19)
C23 C 1.3084(3) 0.7360(2) 0.9007(2)
H13 H 1.3299 0.6743 0.9091
C24 C 1.2290(3) 0.7326(2) 0.8152(2)
H14 H 1.1978 0.6687 0.7646
C25 C 0.3015(3) 0.1710(2) 0.19368(18)
C26 C 0.3709(3) 0.2010(2) 0.14082(19)
H15 H 0.4712 0.2246 0.1642
C27 C 0.2954(3) 0.1970(2) 0.0540(2)
H16 H 0.3429 0.2193 0.0185
C28 C 0.1494(3) 0.1597(2) 0.0200(2)
C29 C 0.0786(3) 0.1282(2) 0.0711(2)
H17 H -0.0213 0.1024 0.0466
C30 C 0.1542(3) 0.1346(2) 0.15841(19)
H18 H 0.1059 0.1142 0.1943
C31 C 0.3546(2) 0.0922(2) 0.31095(18)
C32 C 0.3657(3) 0.1066(2) 0.40092(18)
H19 H 0.3890 0.1750 0.4449
C33 C 0.3425(3) 0.0208(2) 0.42638(19)
H20 H 0.3522 0.0305 0.4879
C34 C 0.3052(3) -0.0786(2) 0.3615(2)
C35 C 0.2912(3) -0.0940(2) 0.2714(2)
H21 H 0.2641 -0.1625 0.2272
C36 C 0.3170(3) -0.0091(2) 0.24646(19)
H22 H 0.3092 -0.0195 0.1851
Br1 Br 0.11522(3) 0.43383(2) 0.625051(19)
Br2 Br 0.47114(3) 0.41606(2) 0.61164(2)
Br3 Br -0.23372(4) -0.19256(3) 0.39442(2)
Br4 Br -0.46976(4) 0.16488(3) -0.09055(2)
Br5 Br 0.95455(4) 0.84921(3) 1.09977(2)
Br6 Br 0.72788(4) 1.19585(3) 0.60461(3)
N1 N -0.1113(2) 0.17913(17) 0.28349(16)
N2 N 0.6202(2) 0.82197(17) 0.71634(15)
C1 C 0.1977(3) 0.4502(2) 0.47504(19)
C2 C 0.1104(3) 0.3895(2) 0.50181(18)
C3 C 0.0101(3) 0.2998(2) 0.43979(19)
H1 H -0.0459 0.2592 0.4603
C4 C -0.0076(3) 0.2699(2) 0.34745(18)
C5 C 0.0753(3) 0.3307(2) 0.31838(19)
H2 H 0.0634 0.3114 0.2555
C6 C 0.1755(3) 0.4199(2) 0.3824(2)
H3 H 0.2304 0.4612 0.3618
C7 C 0.3076(3) 0.5452(2) 0.54010(18)
C8 C 0.4315(3) 0.5446(2) 0.60467(19)
C9 C 0.5335(3) 0.6344(2) 0.66319(19)
H4 H 0.6157 0.6308 0.7072
C10 C 0.5145(3) 0.7298(2) 0.65699(18)
C11 C 0.3923(3) 0.7331(2) 0.59227(18)
H5 H 0.3773 0.7978 0.5877
C12 C 0.2929(3) 0.6420(2) 0.53477(18)
H6 H 0.2115 0.6453 0.4899
C13 C -0.1402(3) 0.0927(2) 0.31002(18)
C14 C -0.0293(3) 0.0541(2) 0.35065(19)
H7 H 0.0655 0.0858 0.3609
C15 C -0.0560(3) -0.0304(2) 0.3764(2)
H8 H 0.0199 -0.0573 0.4036
C16 C -0.1952(3) -0.0753(2) 0.36202(19)
C17 C -0.3066(3) -0.0369(2) 0.32213(19)
H9 H -0.4014 -0.0681 0.3125
C18 C -0.2791(3) 0.0471(2) 0.29650(18)
H10 H -0.3552 0.0740 0.2695
C19 C -0.1949(3) 0.1774(2) 0.19694(18)
C20 C -0.2453(3) 0.0829(2) 0.12207(19)
H11 H -0.2240 0.0208 0.1298
C21 C -0.3261(3) 0.0801(2) 0.03701(19)
H12 H -0.3604 0.0162 -0.0136
C22 C -0.3565(3) 0.1703(2) 0.02614(19)
C23 C -0.3084(3) 0.2640(2) 0.0993(2)
H13 H -0.3299 0.3257 0.0909
C24 C -0.2290(3) 0.2674(2) 0.1848(2)
H14 H -0.1978 0.3313 0.2354
C25 C 0.6985(3) 0.8290(2) 0.80632(18)
C26 C 0.6291(3) 0.7990(2) 0.85918(19)
H15 H 0.5288 0.7754 0.8358
C27 C 0.7046(3) 0.8030(2) 0.9460(2)
H16 H 0.6571 0.7807 0.9815
C28 C 0.8506(3) 0.8403(2) 0.9800(2)
C29 C 0.9214(3) 0.8718(2) 0.9289(2)
H17 H 1.0213 0.8976 0.9534
C30 C 0.8458(3) 0.8654(2) 0.84159(19)
H18 H 0.8941 0.8858 0.8057
C31 C 0.6454(2) 0.9078(2) 0.68905(18)
C32 C 0.6343(3) 0.8934(2) 0.59908(18)
H19 H 0.6110 0.8250 0.5551
C33 C 0.6575(3) 0.9792(2) 0.57362(19)
H20 H 0.6478 0.9695 0.5121
C34 C 0.6948(3) 1.0786(2) 0.6385(2)
C35 C 0.7088(3) 1.0940(2) 0.7286(2)
H21 H 0.7359 1.1625 0.7728
C36 C 0.6830(3) 1.0091(2) 0.75354(19)
H22 H 0.6908 1.0195 0.8149

#END
