./LACSAM_from_POSCAR.cif_generated_by_CrystalShift
_symmetry_cell_setting triclinic
_symmetry_space_group_name_H-M 'P 1'
loop_
_symmetry_equiv_pos_site_id
_symmetry_equiv_pos_as_xyz
1 x,y,z
_cell_length_a 10.118800
_cell_length_b 13.883900
_cell_length_c 16.408100
_cell_angle_alpha 107.983000
_cell_angle_beta 106.750000
_cell_angle_gamma 96.924000
_cell_volume 2043.198766
loop_
_atom_site_label
_atom_site_type_symbol
_atom_site_fract_x
_atom_site_fract_y
_atom_site_fract_z
H1 H 0.690800 1.019500 0.814900
H2 H 0.735900 1.162500 0.772800
H3 H 0.647800 0.969500 0.512100
H4 H 0.611000 0.825000 0.555100
H5 H 0.894100 0.885800 0.805700
H6 H 1.021300 0.897600 0.953400
H7 H 0.657100 0.780700 0.981500
H8 H 0.528800 0.775400 0.835800
H9 H -0.197800 0.331300 0.235400
H10 H -0.329900 0.325700 0.090900
H11 H -0.360400 0.016200 -0.013600
H12 H 1.045900 0.740800 0.539700
H13 H -0.224000 0.020800 0.129800
H14 H -0.355200 0.074000 0.269500
H15 H 0.936600 0.688600 0.744500
H16 H -0.401400 -0.068100 0.312500
H17 H 0.769600 0.538800 0.638200
H18 H 0.019900 -0.057300 0.403600
H19 H 0.065500 0.085800 0.360900
H20 H 0.211500 0.645300 0.489900
H21 H 0.384300 0.369200 0.292800
H22 H 0.377300 0.797800 0.587700
H23 H 0.615700 0.630800 0.707200
H24 H 0.622700 0.202200 0.412300
H25 H 0.230400 0.461200 0.361800
H26 H 0.788500 0.354700 0.510100
H27 H 0.063400 0.311400 0.255500
H28 H -0.045900 0.259200 0.460300
H29 H 0.934500 0.914200 0.639100
H30 H 0.309200 -0.019500 0.185100
H31 H 0.980100 1.057300 0.596400
H32 H 0.264100 -0.162500 0.227200
H33 H 0.352200 0.030500 0.487900
H34 H 1.401400 1.068100 0.687500
H35 H 0.389000 0.175000 0.444900
H36 H 1.355200 0.926000 0.730500
H37 H 0.105900 0.114200 0.194300
H38 H -0.021300 0.102400 0.046600
H39 H 1.224000 0.979200 0.870200
H40 H 0.342900 0.219300 0.018500
H41 H 1.360400 0.983800 1.013600
H42 H 0.471200 0.224600 0.164200
H43 H 1.197800 0.668700 0.764600
H44 H 1.329900 0.674300 0.909100
C45 C 1.229000 0.732600 0.815200
C46 C 1.308400 0.736000 0.900700
C47 C 0.301500 0.171000 0.193680
C48 C 0.370900 0.201000 0.140820
C49 C 1.356500 0.829700 0.973860
C50 C 0.295400 0.197000 0.054000
C51 C 1.326100 0.919900 0.962990
C52 C 0.149400 0.159700 0.020000
C53 C 0.078600 0.128200 0.071100
C54 C 1.245300 0.917100 0.877930
C55 C 0.154200 0.134600 0.158410
C56 C 1.194900 0.822600 0.803060
C57 C 0.354600 0.092200 0.310950
C58 C 0.365700 0.106600 0.400920
C59 C 1.279100 0.952900 0.703500
C60 C 0.342500 0.020800 0.426380
C61 C 1.306600 1.036900 0.677870
C62 C 0.305200 -0.078600 0.361500
C63 C 0.291200 -0.094000 0.271400
C64 C 1.195200 1.075300 0.637980
C65 C 0.317000 -0.009100 0.246460
C66 C 1.056000 1.030400 0.623600
C67 C 0.708800 1.094000 0.728600
C68 C 0.694800 1.078600 0.638500
C69 C 0.657500 0.979200 0.573620
C70 C 0.634300 0.893400 0.599080
C71 C 0.645400 0.907800 0.689050
C72 C 0.845800 0.865400 0.841590
C73 C 0.921400 0.871800 0.928900
C74 C 0.850600 0.840300 0.980000
C75 C 0.197700 0.450200 0.475040
C76 C 0.110400 0.389500 0.501810
C77 C 0.010100 0.299800 0.439790
C78 C 1.029300 0.945900 0.649350
C79 C -0.007600 0.269900 0.347450
C80 C 0.075300 0.330700 0.318380
C81 C 1.140200 0.907300 0.689980
C82 C 0.175500 0.419900 0.382400
C83 C 0.707100 0.358000 0.465230
C84 C 0.307600 0.545200 0.540100
C85 C 0.431500 0.544600 0.604670
C86 C 0.533500 0.634400 0.663190
C87 C 0.607700 0.266900 0.407730
C88 C 0.514500 0.729800 0.656990
C89 C 0.392300 0.733100 0.592270
C90 C 0.485500 0.270200 0.343010
C91 C 0.292900 0.642000 0.534770
C92 C 0.466500 0.365600 0.336810
C93 C -0.140200 0.092700 0.310020
C94 C -0.029300 0.054100 0.350650
C95 C 0.568500 0.455400 0.395330
C96 C -0.056000 -0.030400 0.376400
C97 C 0.692400 0.454800 0.459900
C98 C -0.195200 -0.075300 0.362020
C99 C -0.306600 -0.036900 0.322130
C100 C 0.824500 0.580100 0.617600
C101 C -0.279100 0.047100 0.296500
C102 C 0.924700 0.669300 0.681620
C103 C -0.194900 0.177400 0.196940
C104 C -0.245300 0.082900 0.122070
C105 C 1.007600 0.730100 0.652550
C106 C -0.326100 0.080100 0.037010
C107 C 0.989900 0.700200 0.560210
C108 C -0.356500 0.170300 0.026140
C109 C -0.308400 0.264000 0.099300
C110 C 0.889600 0.610500 0.498190
C111 C -0.229000 0.267400 0.184800
C112 C 0.802300 0.549800 0.524960
C113 C 0.698500 0.829000 0.806320
C114 C 0.629100 0.799000 0.859180
C115 C 0.704600 0.803000 0.946000
C116 C 0.683000 1.009100 0.753540
N117 N 1.111300 0.820870 0.716510
N118 N 0.620200 0.821970 0.716340
N119 N -0.111300 0.179130 0.283490
N120 N 0.379800 0.178030 0.283660
Br121 Br 0.727880 1.195850 0.604610
Br122 Br 0.045450 0.150790 -0.099770
Br123 Br 0.954550 0.849210 1.099770
Br124 Br 0.272120 -0.195850 0.395390
Br125 Br 1.469760 0.835120 1.090550
Br126 Br -0.233720 -0.192560 0.394420
Br127 Br 1.233720 1.192560 0.605580
Br128 Br 0.471140 0.416060 0.611640
Br129 Br 0.115220 0.433830 0.625051
Br130 Br 0.528860 0.583940 0.388360
Br131 Br -0.469760 0.164880 -0.090550
Br132 Br 0.884780 0.566170 0.374949

#END
