
#######################################################################
#
#                 Cambridge Crystallographic Data Centre
#                                CCDC 
#
#######################################################################
#
# If this CIF has been generated from an entry in the Cambridge 
# Structural Database, then it will include bibliographic, chemical, 
# crystal, experimental, refinement or atomic coordinate data resulting 
# from the CCDC's data processing and validation procedures.
#
#######################################################################

data_LACSUG
_symmetry_cell_setting           monoclinic
_symmetry_space_group_name_H-M   'P 21/c'
_symmetry_Int_Tables_number      14
_space_group_name_Hall           '-P 2ybc'
loop_
_symmetry_equiv_pos_site_id
_symmetry_equiv_pos_as_xyz
1 x,y,z
2 -x,1/2+y,1/2-z
3 -x,-y,-z
4 x,1/2-y,1/2+z
_cell_length_a                   8.4870(18)
_cell_length_b                   12.008(3)
_cell_length_c                   10.786(2)
_cell_angle_alpha                90
_cell_angle_beta                 102.885(4)
_cell_angle_gamma                90
_cell_volume                     1071.54
loop_
_atom_site_label
_atom_site_type_symbol
_atom_site_fract_x
_atom_site_fract_y
_atom_site_fract_z
O1 O 0.3668(2) 1.09385(14) 1.03295(15)
H1 H 0.4087 1.1517 1.0158
O2 O 0.2530(2) 1.10150(14) 0.82560(15)
O3 O 0.0335(2) 0.95881(15) 0.72871(16)
H2 H 0.0952 1.0115 0.7298
N1 N -0.0919(3) 0.67191(17) 0.9927(2)
H3 H -0.1620 0.6455 0.9294
H4 H -0.0770 0.6403 1.0659
C1 C 0.2675(3) 1.05560(19) 0.9301(2)
C2 C 0.1775(3) 0.9553(2) 0.9484(2)
C3 C 0.0620(3) 0.91076(19) 0.8453(2)
C4 C -0.0261(3) 0.81693(19) 0.8593(2)
H5 H -0.1006 0.7889 0.7897
C5 C -0.0047(3) 0.76368(19) 0.9770(2)
C6 C 0.1091(3) 0.8079(2) 1.0810(2)
H6 H 0.1248 0.7739 1.1603
C7 C 0.1965(3) 0.9009(2) 1.0659(2)
H7 H 0.2707 0.9288 1.1357
O1 O 0.6332(2) 0.59385(14) 0.46705(15)
H1 H 0.5913 0.6517 0.4842
O2 O 0.7470(2) 0.60150(14) 0.67440(15)
O3 O 0.9665(2) 0.45881(15) 0.77129(16)
H2 H 0.9048 0.5115 0.7702
N1 N 1.0919(3) 0.17191(17) 0.5073(2)
H3 H 1.1620 0.1455 0.5706
H4 H 1.0770 0.1403 0.4341
C1 C 0.7325(3) 0.55560(19) 0.5699(2)
C2 C 0.8225(3) 0.4553(2) 0.5516(2)
C3 C 0.9380(3) 0.41076(19) 0.6547(2)
C4 C 1.0261(3) 0.31693(19) 0.6407(2)
H5 H 1.1006 0.2889 0.7103
C5 C 1.0047(3) 0.26368(19) 0.5230(2)
C6 C 0.8909(3) 0.3079(2) 0.4190(2)
H6 H 0.8752 0.2739 0.3397
C7 C 0.8035(3) 0.4009(2) 0.4341(2)
H7 H 0.7293 0.4288 0.3643
O1 O 0.6332(2) -0.09385(14) -0.03295(15)
H1 H 0.5913 -0.1517 -0.0158
O2 O 0.7470(2) -0.10150(14) 0.17440(15)
O3 O 0.9665(2) 0.04119(15) 0.27129(16)
H2 H 0.9048 -0.0115 0.2702
N1 N 1.0919(3) 0.32809(17) 0.0073(2)
H3 H 1.1620 0.3545 0.0706
H4 H 1.0770 0.3597 -0.0659
C1 C 0.7325(3) -0.05560(19) 0.0699(2)
C2 C 0.8225(3) 0.0447(2) 0.0516(2)
C3 C 0.9380(3) 0.08924(19) 0.1547(2)
C4 C 1.0261(3) 0.18307(19) 0.1407(2)
H5 H 1.1006 0.2111 0.2103
C5 C 1.0047(3) 0.23632(19) 0.0230(2)
C6 C 0.8909(3) 0.1921(2) -0.0810(2)
H6 H 0.8752 0.2261 -0.1603
C7 C 0.8035(3) 0.0991(2) -0.0659(2)
H7 H 0.7293 0.0712 -0.1357
O1 O 0.3668(2) 0.40615(14) 0.53295(15)
H1 H 0.4087 0.3483 0.5158
O2 O 0.2530(2) 0.39850(14) 0.32560(15)
O3 O 0.0335(2) 0.54119(15) 0.22871(16)
H2 H 0.0952 0.4885 0.2298
N1 N -0.0919(3) 0.82809(17) 0.4927(2)
H3 H -0.1620 0.8545 0.4294
H4 H -0.0770 0.8597 0.5659
C1 C 0.2675(3) 0.44440(19) 0.4301(2)
C2 C 0.1775(3) 0.5447(2) 0.4484(2)
C3 C 0.0620(3) 0.58924(19) 0.3453(2)
C4 C -0.0261(3) 0.68307(19) 0.3593(2)
H5 H -0.1006 0.7111 0.2897
C5 C -0.0047(3) 0.73632(19) 0.4770(2)
C6 C 0.1091(3) 0.6921(2) 0.5810(2)
H6 H 0.1248 0.7261 0.6603
C7 C 0.1965(3) 0.5991(2) 0.5659(2)
H7 H 0.2707 0.5712 0.6357
N2 N 0.5134(2) 0.22134(17) 0.4811(2)
N3 N 0.6801(2) 0.03175(17) 0.4311(2)
C8 C 0.6232(3) 0.1714(2) 0.5712(2)
H8 H 0.6452 0.2000 0.6533
C9 C 0.7053(3) 0.0781(2) 0.5458(2)
H9 H 0.7816 0.0462 0.6116
C10 C 0.5702(3) 0.0827(2) 0.3404(2)
H10 H 0.5489 0.0541 0.2582
C11 C 0.4874(3) 0.1766(2) 0.3651(3)
H11 H 0.4118 0.2091 0.2993
N2 N 0.4866(2) 0.72134(17) 0.0189(2)
N3 N 0.3199(2) 0.53175(17) 0.0689(2)
C8 C 0.3768(3) 0.6714(2) -0.0712(2)
H8 H 0.3548 0.7000 -0.1533
C9 C 0.2947(3) 0.5781(2) -0.0458(2)
H9 H 0.2184 0.5462 -0.1116
C10 C 0.4298(3) 0.5827(2) 0.1596(2)
H10 H 0.4511 0.5541 0.2418
C11 C 0.5126(3) 0.6766(2) 0.1349(3)
H11 H 0.5882 0.7091 0.2007
N2 N 0.4866(2) 0.77866(17) 0.5189(2)
N3 N 0.3199(2) 0.96825(17) 0.5689(2)
C8 C 0.3768(3) 0.8286(2) 0.4288(2)
H8 H 0.3548 0.8000 0.3467
C9 C 0.2947(3) 0.9219(2) 0.4542(2)
H9 H 0.2184 0.9538 0.3884
C10 C 0.4298(3) 0.9173(2) 0.6596(2)
H10 H 0.4511 0.9459 0.7418
C11 C 0.5126(3) 0.8234(2) 0.6349(3)
H11 H 0.5882 0.7909 0.7007
N2 N 0.5134(2) 0.27866(17) 0.9811(2)
N3 N 0.6801(2) 0.46825(17) 0.9311(2)
C8 C 0.6232(3) 0.3286(2) 1.0712(2)
H8 H 0.6452 0.3000 1.1533
C9 C 0.7053(3) 0.4219(2) 1.0458(2)
H9 H 0.7816 0.4538 1.1116
C10 C 0.5702(3) 0.4173(2) 0.8404(2)
H10 H 0.5489 0.4459 0.7582
C11 C 0.4874(3) 0.3234(2) 0.8651(3)
H11 H 0.4118 0.2909 0.7993

#END
