./LACTAN_from_POSCAR.cif_generated_by_CrystalShift
_symmetry_cell_setting triclinic
_symmetry_space_group_name_H-M 'P 1'
loop_
_symmetry_equiv_pos_site_id
_symmetry_equiv_pos_as_xyz
1 x,y,z
_cell_length_a 8.049000
_cell_length_b 12.212000
_cell_length_c 11.698000
_cell_angle_alpha 90.000000
_cell_angle_beta 101.595000
_cell_angle_gamma 90.000000
_cell_volume 1126.382570
loop_
_atom_site_label
_atom_site_type_symbol
_atom_site_fract_x
_atom_site_fract_y
_atom_site_fract_z
H1 H 0.552200 0.847700 0.236700
H2 H 0.247100 0.431900 0.448700
H3 H 0.401800 0.991900 -0.122300
H4 H 0.281300 0.828700 0.128800
H5 H 0.712900 0.393600 0.638900
H6 H 0.742900 0.948700 0.156800
H7 H 1.061600 0.132700 0.378200
H8 H 0.939600 0.107600 0.267700
H9 H 0.552200 0.152300 0.736700
H10 H 0.980600 0.244000 0.527100
H11 H 0.401800 0.008100 0.377700
H12 H 0.281300 0.171300 0.628800
H13 H 0.742900 0.051300 0.656800
H14 H 1.052200 0.347700 0.236700
H15 H 0.451000 0.279500 0.291600
H16 H 0.901800 0.491900 -0.122300
H17 H 0.651100 0.175100 0.230400
H18 H 0.781300 0.328700 0.128800
H19 H 1.242900 0.448700 0.156800
H20 H 0.247100 0.568100 0.948700
H21 H 1.052200 0.652300 0.736700
H22 H 0.901800 0.508100 0.377700
H23 H 0.712900 0.606400 1.138900
H24 H 0.781300 0.671300 0.628800
H25 H 1.061600 0.867300 0.878200
H26 H 0.939600 0.892400 0.767700
H27 H 1.242900 0.551300 0.656800
H28 H 0.980600 0.756000 1.027100
H29 H 0.151100 0.324900 0.730400
H30 H -0.049000 0.220500 0.791600
H31 H 0.480600 0.256000 1.027100
H32 H 0.439600 0.392400 0.767700
H33 H 0.451000 0.720500 0.791600
H34 H 0.561600 0.367300 0.878200
H35 H 0.651100 0.824900 0.730400
H36 H 0.212900 0.106400 1.138900
H37 H -0.252900 0.068100 0.948700
H38 H -0.252900 0.931900 0.448700
H39 H 0.151100 0.675100 0.230400
H40 H -0.049000 0.779500 0.291600
H41 H 0.212900 0.893600 0.638900
H42 H 0.480600 0.744000 0.527100
H43 H 0.561600 0.632700 0.378200
H44 H 0.439600 0.607600 0.267700
C45 C 0.373400 0.750600 0.479900
C46 C 0.432400 0.962600 -0.047700
C47 C 0.088500 0.824900 0.448000
C48 C -0.040300 0.888500 0.490900
C49 C 0.251700 0.811700 0.519400
C50 C 0.057300 0.772200 0.339900
C51 C 0.361000 0.866900 0.096800
C52 C 0.177400 0.710100 0.302300
C53 C 0.633400 0.938200 0.114300
C54 C 0.340900 0.699000 0.372400
C55 C 0.873400 0.250600 0.479900
C56 C 0.521300 0.121400 0.662800
C57 C 0.588500 0.324900 0.448000
C58 C 0.432400 0.037400 0.452300
C59 C 0.840900 0.801000 0.872400
C60 C 0.459700 0.388500 0.490900
C61 C 0.677400 0.789900 0.802300
C62 C 0.557300 0.727800 0.839900
C63 C 0.373400 0.249400 0.979900
C64 C 0.751700 0.688300 1.019400
C65 C 0.088500 0.175100 0.948000
C66 C -0.040300 0.111500 0.990900
C67 C 0.251700 0.188300 1.019400
C68 C 0.057300 0.227800 0.839900
C69 C 0.459700 0.611500 0.990900
C70 C 0.177400 0.289900 0.802300
C71 C 0.588500 0.675100 0.948000
C72 C 0.340900 0.301000 0.872400
C73 C 0.361000 0.133100 0.596800
C74 C 0.751700 0.311700 0.519400
C75 C 1.133400 0.561800 0.614300
C76 C 0.873400 0.749400 0.979900
C77 C 0.861000 0.633100 0.596800
C78 C 0.521300 0.878600 0.162800
C79 C 0.932400 0.537400 0.452300
C80 C 0.633400 0.061800 0.614300
C81 C 1.021300 0.621400 0.662800
C82 C 0.557300 0.272200 0.339900
C83 C 1.021300 0.378600 0.162800
C84 C 0.677400 0.210100 0.302300
C85 C 1.133400 0.438200 0.114300
C86 C 0.932400 0.462600 -0.047700
C87 C 0.861000 0.366900 0.096800
C88 C 0.840900 0.199000 0.372400
N89 N 0.962300 0.860900 0.834800
N90 N 0.813500 0.407100 -0.009900
N91 N 1.090400 0.481700 0.008000
N92 N 0.962300 0.139100 0.334800
N93 N 0.590400 0.018300 0.508000
N94 N 0.313500 0.092900 0.490100
N95 N 0.313500 0.907100 -0.009900
N96 N 0.813500 0.592900 0.490100
N97 N 1.090400 0.518300 0.508000
N98 N 0.462300 0.360900 0.834800
N99 N 0.462300 0.639100 0.334800
N100 N 0.590400 0.981700 0.008000
O101 O -0.188300 0.894100 0.419400
O102 O -0.188300 0.105900 0.919400
O103 O -0.013600 0.065810 1.086650
O104 O 0.793400 0.642210 1.126060
O105 O -0.013600 0.934190 0.586650
O106 O 0.486400 0.565810 1.086650
O107 O 0.293400 0.857790 0.626060
O108 O 0.793400 0.357790 0.626060
O109 O 0.293400 0.142210 1.126060
O110 O 0.486400 0.434190 0.586650
O111 O 0.311700 0.605900 0.919400
O112 O 0.311700 0.394100 0.419400

#END
