
#######################################################################
#
#                 Cambridge Crystallographic Data Centre
#                                CCDC 
#
#######################################################################
#
# If this CIF has been generated from an entry in the Cambridge 
# Structural Database, then it will include bibliographic, chemical, 
# crystal, experimental, refinement or atomic coordinate data resulting 
# from the CCDC's data processing and validation procedures.
#
#######################################################################

data_LACTAN
_symmetry_cell_setting           monoclinic
_symmetry_space_group_name_H-M   'C c'
_symmetry_Int_Tables_number      9
_space_group_name_Hall           'C -2yc'
loop_
_symmetry_equiv_pos_site_id
_symmetry_equiv_pos_as_xyz
1 x,y,z
2 x,-y,1/2+z
3 1/2+x,1/2+y,z
4 1/2+x,1/2-y,1/2+z
_cell_length_a                   8.049(3)
_cell_length_b                   12.212(5)
_cell_length_c                   11.698(4)
_cell_angle_alpha                90
_cell_angle_beta                 101.595(6)
_cell_angle_gamma                90
_cell_volume                     1126.38
loop_
_atom_site_label
_atom_site_type_symbol
_atom_site_fract_x
_atom_site_fract_y
_atom_site_fract_z
O1 O 0.3117(3) 0.3941(2) 0.4194(2)
H1 H 0.2471 0.4319 0.4487
O2 O 0.4864(3) 0.43419(18) 0.58665(16)
O3 O 0.7934(3) 0.35779(19) 0.62606(16)
H2 H 0.7129 0.3936 0.6389
N1 N 0.9623(3) 0.1391(2) 0.3348(2)
H3 H 1.0616 0.1327 0.3782
H4 H 0.9396 0.1076 0.2677
C1 C 0.8734(4) 0.2506(2) 0.4799(2)
H5 H 0.9806 0.2440 0.5271
C2 C 0.5885(3) 0.3249(2) 0.4480(2)
C3 C 0.4597(3) 0.3885(2) 0.4909(2)
C4 C 0.7517(3) 0.3117(2) 0.5194(2)
C5 C 0.5573(3) 0.2722(2) 0.3399(2)
H6 H 0.4510 0.2795 0.2916
C6 C 0.6774(4) 0.2101(2) 0.3023(2)
H7 H 0.6511 0.1751 0.2304
C7 C 0.8409(3) 0.1990(2) 0.3724(2)
O1 O 0.3117(3) 0.6059(2) 0.9194(2)
H1 H 0.2471 0.5681 0.9487
O2 O 0.4864(3) 0.56581(18) 1.08665(16)
O3 O 0.7934(3) 0.64221(19) 1.12606(16)
H2 H 0.7129 0.6064 1.1389
N1 N 0.9623(3) 0.8609(2) 0.8348(2)
H3 H 1.0616 0.8673 0.8782
H4 H 0.9396 0.8924 0.7677
C1 C 0.8734(4) 0.7494(2) 0.9799(2)
H5 H 0.9806 0.7560 1.0271
C2 C 0.5885(3) 0.6751(2) 0.9480(2)
C3 C 0.4597(3) 0.6115(2) 0.9909(2)
C4 C 0.7517(3) 0.6883(2) 1.0194(2)
C5 C 0.5573(3) 0.7278(2) 0.8399(2)
H6 H 0.4510 0.7205 0.7916
C6 C 0.6774(4) 0.7899(2) 0.8023(2)
H7 H 0.6511 0.8249 0.7304
C7 C 0.8409(3) 0.8010(2) 0.8724(2)
O1 O -0.1883(3) 0.8941(2) 0.4194(2)
H1 H -0.2529 0.9319 0.4487
O2 O -0.0136(3) 0.93419(18) 0.58665(16)
O3 O 0.2934(3) 0.85779(19) 0.62606(16)
H2 H 0.2129 0.8936 0.6389
N1 N 0.4623(3) 0.6391(2) 0.3348(2)
H3 H 0.5616 0.6327 0.3782
H4 H 0.4396 0.6076 0.2677
C1 C 0.3734(4) 0.7506(2) 0.4799(2)
H5 H 0.4806 0.7440 0.5271
C2 C 0.0885(3) 0.8249(2) 0.4480(2)
C3 C -0.0403(3) 0.8885(2) 0.4909(2)
C4 C 0.2517(3) 0.8117(2) 0.5194(2)
C5 C 0.0573(3) 0.7722(2) 0.3399(2)
H6 H -0.0490 0.7795 0.2916
C6 C 0.1774(4) 0.7101(2) 0.3023(2)
H7 H 0.1511 0.6751 0.2304
C7 C 0.3409(3) 0.6990(2) 0.3724(2)
O1 O -0.1883(3) 0.1059(2) 0.9194(2)
H1 H -0.2529 0.0681 0.9487
O2 O -0.0136(3) 0.06581(18) 1.08665(16)
O3 O 0.2934(3) 0.14221(19) 1.12606(16)
H2 H 0.2129 0.1064 1.1389
N1 N 0.4623(3) 0.3609(2) 0.8348(2)
H3 H 0.5616 0.3673 0.8782
H4 H 0.4396 0.3924 0.7677
C1 C 0.3734(4) 0.2494(2) 0.9799(2)
H5 H 0.4806 0.2560 1.0271
C2 C 0.0885(3) 0.1751(2) 0.9480(2)
C3 C -0.0403(3) 0.1115(2) 0.9909(2)
C4 C 0.2517(3) 0.1883(2) 1.0194(2)
C5 C 0.0573(3) 0.2278(2) 0.8399(2)
H6 H -0.0490 0.2205 0.7916
C6 C 0.1774(4) 0.2899(2) 0.8023(2)
H7 H 0.1511 0.3249 0.7304
C7 C 0.3409(3) 0.3010(2) 0.8724(2)
N2 N 1.0904(3) 0.5183(2) 0.5080(2)
N3 N 0.8135(3) 0.5929(2) 0.4901(2)
C8 C 1.1334(4) 0.5618(3) 0.6143(3)
H8 H 1.2429 0.5513 0.6568
C9 C 0.8610(4) 0.6331(3) 0.5968(3)
H9 H 0.7813 0.6713 0.6288
C10 C 0.9324(4) 0.5374(3) 0.4523(3)
H10 H 0.9018 0.5081 0.3777
C11 C 1.0213(4) 0.6214(3) 0.6628(3)
H11 H 1.0522 0.6523 0.7367
N2 N 1.0904(3) 0.4817(2) 0.0080(2)
N3 N 0.8135(3) 0.4071(2) -0.0099(2)
C8 C 1.1334(4) 0.4382(3) 0.1143(3)
H8 H 1.2429 0.4487 0.1568
C9 C 0.8610(4) 0.3669(3) 0.0968(3)
H9 H 0.7813 0.3287 0.1288
C10 C 0.9324(4) 0.4626(3) -0.0477(3)
H10 H 0.9018 0.4919 -0.1223
C11 C 1.0213(4) 0.3786(3) 0.1628(3)
H11 H 1.0522 0.3477 0.2367
N2 N 0.5904(3) 0.0183(2) 0.5080(2)
N3 N 0.3135(3) 0.0929(2) 0.4901(2)
C8 C 0.6334(4) 0.0618(3) 0.6143(3)
H8 H 0.7429 0.0513 0.6568
C9 C 0.3610(4) 0.1331(3) 0.5968(3)
H9 H 0.2813 0.1713 0.6288
C10 C 0.4324(4) 0.0374(3) 0.4523(3)
H10 H 0.4018 0.0081 0.3777
C11 C 0.5213(4) 0.1214(3) 0.6628(3)
H11 H 0.5522 0.1523 0.7367
N2 N 0.5904(3) 0.9817(2) 0.0080(2)
N3 N 0.3135(3) 0.9071(2) -0.0099(2)
C8 C 0.6334(4) 0.9382(3) 0.1143(3)
H8 H 0.7429 0.9487 0.1568
C9 C 0.3610(4) 0.8669(3) 0.0968(3)
H9 H 0.2813 0.8287 0.1288
C10 C 0.4324(4) 0.9626(3) -0.0477(3)
H10 H 0.4018 0.9919 -0.1223
C11 C 0.5213(4) 0.8786(3) 0.1628(3)
H11 H 0.5522 0.8477 0.2367

#END
