
#######################################################################
#
#                 Cambridge Crystallographic Data Centre
#                                CCDC 
#
#######################################################################
#
# If this CIF has been generated from an entry in the Cambridge 
# Structural Database, then it will include bibliographic, chemical, 
# crystal, experimental, refinement or atomic coordinate data resulting 
# from the CCDC's data processing and validation procedures.
#
#######################################################################

data_LACTIS
_symmetry_cell_setting           triclinic
_symmetry_space_group_name_H-M   'P -1'
_symmetry_Int_Tables_number      2
_space_group_name_Hall           '-P 1'
loop_
_symmetry_equiv_pos_site_id
_symmetry_equiv_pos_as_xyz
1 x,y,z
2 -x,-y,-z
_cell_length_a                   11.954(3)
_cell_length_b                   17.880(2)
_cell_length_c                   5.372(2)
_cell_angle_alpha                91.85(2)
_cell_angle_beta                 98.26(2)
_cell_angle_gamma                88.21(1)
_cell_volume                     1135.28
loop_
_atom_site_label
_atom_site_type_symbol
_atom_site_fract_x
_atom_site_fract_y
_atom_site_fract_z
O1 O 0.7182(12) 0.29400(80) 0.9215(24)
O2 O 1.0669(12) 0.10416(71) 1.0616(27)
O3 O 1.0020(11) 0.40621(63) 0.8588(22)
O4 O 0.6354(12) 0.22466(70) 0.5137(25)
C1 C 0.7995(20) 0.2515(11) 0.9538(41)
C2 C 0.9001(19) 0.2623(11) 1.1499(30)
C3 C 0.9907(17) 0.2145(10) 1.1892(37)
C4 C 0.9892(18) 0.1466(11) 1.0160(39)
C5 C 0.8898(22) 0.1438(12) 0.8076(35)
C6 C 0.9105(16) 0.0754(13) 0.6712(45)
C7 C 0.8314(24) 0.0640(11) 0.4503(56)
C8 C 0.7401(22) 0.1079(15) 0.3975(34)
C9 C 0.7215(18) 0.1737(15) 0.5373(38)
C10 C 0.8010(17) 0.1894(12) 0.7567(46)
C11 C 0.5509(16) 0.2125(11) 0.2980(34)
C12 C 0.8740(14) 0.3301(12) 1.3099(30)
C13 C 0.8901(16) 0.4048(11) 1.1934(35)
C14 C 0.9974(20) 0.40945(87) 1.0887(41)
C15 C 1.1013(23) 0.4139(10) 1.2688(38)
C16 C 1.2086(19) 0.3795(12) 1.1788(35)
C17 C 1.2026(14) 0.2961(12) 1.0963(35)
C18 C 1.1978(18) 0.2404(10) 1.3007(38)
C19 C 1.0835(20) 0.22937(97) 1.3917(33)
H1 H 0.9660 0.0356 0.7017
H2 H 0.8328 0.0225 0.3072
H3 H 0.6762 0.0999 0.2699
H4 H 0.4842 0.2511 0.2741
H5 H 0.5775 0.2166 0.1292
H6 H 0.5108 0.1657 0.2805
H7 H 0.7955 0.3324 1.3527
H8 H 0.9201 0.3339 1.4822
H9 H 0.8287 0.4150 1.0607
H10 H 0.8849 0.4490 1.3158
H11 H 1.1161 0.4639 1.3214
H12 H 1.0964 0.3856 1.4209
H13 H 1.2308 0.4100 1.0398
H14 H 1.2783 0.3848 1.3090
H15 H 1.1328 0.2920 0.9832
H16 H 1.2628 0.2840 0.9894
H17 H 1.2354 0.1940 1.2404
H18 H 1.2636 0.2589 1.4360
H19 H 1.0824 0.2761 1.4899
H20 H 1.1056 0.1904 1.5024
O1 O 0.2818(12) 0.70600(80) 0.0785(24)
O2 O -0.0669(12) 0.89584(71) -0.0616(27)
O3 O -0.0020(11) 0.59379(63) 0.1412(22)
O4 O 0.3646(12) 0.77534(70) 0.4863(25)
C1 C 0.2005(20) 0.7485(11) 0.0462(41)
C2 C 0.0999(19) 0.7377(11) -0.1499(30)
C3 C 0.0093(17) 0.7855(10) -0.1892(37)
C4 C 0.0108(18) 0.8534(11) -0.0160(39)
C5 C 0.1102(22) 0.8562(12) 0.1924(35)
C6 C 0.0895(16) 0.9246(13) 0.3288(45)
C7 C 0.1686(24) 0.9360(11) 0.5497(56)
C8 C 0.2599(22) 0.8921(15) 0.6025(34)
C9 C 0.2785(18) 0.8263(15) 0.4627(38)
C10 C 0.1990(17) 0.8106(12) 0.2433(46)
C11 C 0.4491(16) 0.7875(11) 0.7020(34)
C12 C 0.1260(14) 0.6699(12) -0.3099(30)
C13 C 0.1099(16) 0.5952(11) -0.1934(35)
C14 C 0.0026(20) 0.59055(87) -0.0887(41)
C15 C -0.1013(23) 0.5861(10) -0.2688(38)
C16 C -0.2086(19) 0.6205(12) -0.1788(35)
C17 C -0.2026(14) 0.7039(12) -0.0963(35)
C18 C -0.1978(18) 0.7596(10) -0.3007(38)
C19 C -0.0835(20) 0.77063(97) -0.3917(33)
H1 H 0.0340 0.9644 0.2983
H2 H 0.1672 0.9775 0.6928
H3 H 0.3238 0.9001 0.7301
H4 H 0.5158 0.7489 0.7259
H5 H 0.4225 0.7834 0.8708
H6 H 0.4892 0.8343 0.7195
H7 H 0.2045 0.6676 -0.3527
H8 H 0.0799 0.6661 -0.4822
H9 H 0.1713 0.5850 -0.0607
H10 H 0.1151 0.5510 -0.3158
H11 H -0.1161 0.5361 -0.3214
H12 H -0.0964 0.6144 -0.4209
H13 H -0.2308 0.5900 -0.0398
H14 H -0.2783 0.6152 -0.3090
H15 H -0.1328 0.7080 0.0168
H16 H -0.2628 0.7160 0.0106
H17 H -0.2354 0.8060 -0.2404
H18 H -0.2636 0.7411 -0.4360
H19 H -0.0824 0.7239 -0.4899
H20 H -0.1056 0.8096 -0.5024
C20 C 0.4612(15) 0.3802(10) 0.8209(35)
C21 C 0.4844(17) 0.4432(10) 0.6571(32)
C22 C 0.5773(15) 0.43933(96) 0.5314(33)
C23 C 0.4017(15) 0.5029(12) 0.6183(34)
H21 H 0.3957 0.3845 0.8986
H22 H 0.4616 0.3296 0.7395
H23 H 0.5253 0.3727 0.9696
C23A C 0.5983(15) 0.4971(12) 0.3817(34)
C22A C 0.4227(15) 0.56067(96) 0.4686(33)
C21A C 0.5156(17) 0.5568(10) 0.3429(32)
C20A C 0.5388(15) 0.6198(10) 0.1791(35)
H21A H 0.6043 0.6155 0.1014
H22A H 0.5384 0.6704 0.2605
H23A H 0.4747 0.6273 0.0304
C24 C 0.3538(15) 0.1129(10) -0.2406(33)
C25 C 0.4325(15) 0.05225(90) -0.1164(32)
C26 C 0.5354(16) 0.03970(93) -0.1947(29)
C27 C 0.3931(14) 0.0151(10) 0.0862(34)
H24 H 0.3783 0.1624 -0.2363
H25 H 0.3265 0.1007 -0.4235
H26 H 0.2782 0.1168 -0.1735
C27A C 0.6069(14) -0.0151(10) -0.0862(34)
C26A C 0.4646(16) -0.03970(93) 0.1947(29)
C25A C 0.5675(15) -0.05225(90) 0.1164(32)
C24A C 0.6462(15) -0.1129(10) 0.2406(33)
H24A H 0.6217 -0.1624 0.2363
H25A H 0.6735 -0.1007 0.4235
H26A H 0.7218 -0.1168 0.1735
C24 C 0.3538(15) 0.1129(10) 0.7594(33)
C25 C 0.4325(15) 0.05225(90) 0.8836(32)
C26 C 0.5354(16) 0.03970(93) 0.8053(29)
C27 C 0.3931(14) 0.0151(10) 1.0862(34)
H24 H 0.3783 0.1624 0.7637
H25 H 0.3265 0.1007 0.5765
H26 H 0.2782 0.1168 0.8265
C27A C 0.6069(14) -0.0151(10) 0.9138(34)
C26A C 0.4646(16) -0.03970(93) 1.1947(29)
C25A C 0.5675(15) -0.05225(90) 1.1164(32)
C24A C 0.6462(15) -0.1129(10) 1.2406(33)
H24A H 0.6217 -0.1624 1.2363
H25A H 0.6735 -0.1007 1.4235
H26A H 0.7218 -0.1168 1.1735
C24 C 0.3538(15) 1.1129(10) -0.2406(33)
C25 C 0.4325(15) 1.05225(90) -0.1164(32)
C26 C 0.5354(16) 1.03970(93) -0.1947(29)
C27 C 0.3931(14) 1.0151(10) 0.0862(34)
H24 H 0.3783 1.1624 -0.2363
H25 H 0.3265 1.1007 -0.4235
H26 H 0.2782 1.1168 -0.1735
C27A C 0.6069(14) 0.9849(10) -0.0862(34)
C26A C 0.4646(16) 0.96030(93) 0.1947(29)
C25A C 0.5675(15) 0.94775(90) 0.1164(32)
C24A C 0.6462(15) 0.8871(10) 0.2406(33)
H24A H 0.6217 0.8376 0.2363
H25A H 0.6735 0.8993 0.4235
H26A H 0.7218 0.8832 0.1735
C24 C 0.3538(15) 1.1129(10) 0.7594(33)
C25 C 0.4325(15) 1.05225(90) 0.8836(32)
C26 C 0.5354(16) 1.03970(93) 0.8053(29)
C27 C 0.3931(14) 1.0151(10) 1.0862(34)
H24 H 0.3783 1.1624 0.7637
H25 H 0.3265 1.1007 0.5765
H26 H 0.2782 1.1168 0.8265
C27A C 0.6069(14) 0.9849(10) 0.9138(34)
C26A C 0.4646(16) 0.96030(93) 1.1947(29)
C25A C 0.5675(15) 0.94775(90) 1.1164(32)
C24A C 0.6462(15) 0.8871(10) 1.2406(33)
H24A H 0.6217 0.8376 1.2363
H25A H 0.6735 0.8993 1.4235
H26A H 0.7218 0.8832 1.1735

#END
