
#######################################################################
#
#                 Cambridge Crystallographic Data Centre
#                                CCDC 
#
#######################################################################
#
# If this CIF has been generated from an entry in the Cambridge 
# Structural Database, then it will include bibliographic, chemical, 
# crystal, experimental, refinement or atomic coordinate data resulting 
# from the CCDC's data processing and validation procedures.
#
#######################################################################

data_LACTIV
_symmetry_cell_setting           triclinic
_symmetry_space_group_name_H-M   'P -1'
_symmetry_Int_Tables_number      2
_space_group_name_Hall           '-P 1'
loop_
_symmetry_equiv_pos_site_id
_symmetry_equiv_pos_as_xyz
1 x,y,z
2 -x,-y,-z
_cell_length_a                   9.766(2)
_cell_length_b                   10.590(3)
_cell_length_c                   12.255(3)
_cell_angle_alpha                79.179(5)
_cell_angle_beta                 87.373(5)
_cell_angle_gamma                86.947(4)
_cell_volume                     1242.3
loop_
_atom_site_label
_atom_site_type_symbol
_atom_site_fract_x
_atom_site_fract_y
_atom_site_fract_z
O1 O 0.8098(3) 1.0829(3) 1.0288(2)
H1 H 0.7909 1.1382 1.0665
O2 O 0.6007(3) 1.1446(3) 0.9669(2)
O3 O 0.5094(3) 1.0458(3) 0.8067(2)
H2 H 0.5055 1.0887 0.8561
N1 N 0.7982(4) 0.7439(3) 0.6568(3)
H3 H 0.7348 0.7356 0.6125
H4 H 0.8751 0.7009 0.6545
C1 C 0.7320(4) 0.9908(4) 0.8846(3)
C2 C 0.8556(4) 0.9194(3) 0.8776(3)
H5 H 0.9241 0.9262 0.9262
C3 C 0.6518(4) 0.8949(4) 0.7345(3)
H6 H 0.5828 0.8855 0.6871
C4 C 0.8802(4) 0.8396(4) 0.8019(3)
H7 H 0.9647 0.7956 0.7980
C5 C 0.7073(4) 1.0776(4) 0.9623(3)
C6 C 0.6314(4) 0.9778(3) 0.8090(3)
C7 C 0.7765(4) 0.8254(4) 0.7309(3)
O1 O 0.1902(3) -0.0829(3) -0.0288(2)
H1 H 0.2091 -0.1382 -0.0665
O2 O 0.3993(3) -0.1446(3) 0.0331(2)
O3 O 0.4906(3) -0.0458(3) 0.1933(2)
H2 H 0.4945 -0.0887 0.1439
N1 N 0.2018(4) 0.2561(3) 0.3432(3)
H3 H 0.2652 0.2644 0.3875
H4 H 0.1249 0.2991 0.3455
C1 C 0.2680(4) 0.0092(4) 0.1154(3)
C2 C 0.1444(4) 0.0806(3) 0.1224(3)
H5 H 0.0759 0.0738 0.0738
C3 C 0.3482(4) 0.1051(4) 0.2655(3)
H6 H 0.4172 0.1145 0.3129
C4 C 0.1198(4) 0.1604(4) 0.1981(3)
H7 H 0.0353 0.2044 0.2020
C5 C 0.2927(4) -0.0776(4) 0.0377(3)
C6 C 0.3686(4) 0.0222(3) 0.1910(3)
C7 C 0.2235(4) 0.1746(4) 0.2691(3)
N2 N 0.0665(3) 0.5858(3) 0.6208(3)
N3 N 0.2612(3) 0.4244(3) 0.5256(3)
C8 C 0.1203(4) 0.6211(4) 0.5180(3)
C9 C 0.1105(4) 0.4696(4) 0.6773(3)
C10 C 0.2071(4) 0.3897(4) 0.6279(4)
C11 C 0.2188(4) 0.5407(4) 0.4708(3)
C12 C 0.0793(4) 0.7425(4) 0.4516(4)
H8 H 0.0132 0.7952 0.4802
C13 C 0.2749(5) 0.5850(4) 0.3621(4)
H9 H 0.3407 0.5343 0.3309
C14 C 0.0593(4) 0.4269(5) 0.7870(3)
H10 H -0.0039 0.4794 0.8189
C15 C 0.2324(5) 0.7007(5) 0.3040(4)
H11 H 0.2687 0.7277 0.2324
C16 C 0.2481(5) 0.2670(4) 0.6934(4)
H12 H 0.3118 0.2126 0.6643
C17 C 0.1930(5) 0.2310(5) 0.7983(4)
H13 H 0.2178 0.1505 0.8391
C18 C 0.1344(5) 0.7820(4) 0.3489(4)
H14 H 0.1083 0.8621 0.3079
C19 C 0.1000(5) 0.3123(5) 0.8462(4)
H15 H 0.0666 0.2868 0.9188
N2 N 0.9335(3) 0.4142(3) 0.3792(3)
N3 N 0.7388(3) 0.5756(3) 0.4744(3)
C8 C 0.8797(4) 0.3789(4) 0.4820(3)
C9 C 0.8895(4) 0.5304(4) 0.3227(3)
C10 C 0.7929(4) 0.6103(4) 0.3721(4)
C11 C 0.7812(4) 0.4593(4) 0.5292(3)
C12 C 0.9207(4) 0.2575(4) 0.5484(4)
H8 H 0.9868 0.2048 0.5198
C13 C 0.7251(5) 0.4150(4) 0.6379(4)
H9 H 0.6593 0.4657 0.6691
C14 C 0.9407(4) 0.5731(5) 0.2130(3)
H10 H 1.0039 0.5206 0.1811
C15 C 0.7676(5) 0.2993(5) 0.6960(4)
H11 H 0.7313 0.2723 0.7676
C16 C 0.7519(5) 0.7330(4) 0.3066(4)
H12 H 0.6882 0.7874 0.3357
C17 C 0.8070(5) 0.7690(5) 0.2017(4)
H13 H 0.7822 0.8495 0.1609
C18 C 0.8656(5) 0.2180(4) 0.6511(4)
H14 H 0.8917 0.1379 0.6921
C19 C 0.9000(5) 0.6877(5) 0.1538(4)
H15 H 0.9334 0.7132 0.0812
N4 N 0.4254(3) 0.5700(3) 0.7353(3)
N5 N 0.2544(3) 0.7399(3) 0.8396(3)
C20 C 0.2626(5) 0.8976(4) 0.6705(4)
H16 H 0.2062 0.9548 0.7031
C21 C 0.3788(4) 0.5360(4) 0.8397(3)
C22 C 0.3011(4) 0.7735(4) 0.7338(3)
C23 C 0.2915(4) 0.6217(4) 0.8928(3)
C24 C 0.3865(4) 0.6863(4) 0.6813(3)
C25 C 0.4328(4) 0.7284(4) 0.5687(3)
H17 H 0.4903 0.6743 0.5336
C26 C 0.2440(4) 0.5780(4) 1.0042(4)
H18 H 0.1862 0.6315 1.0397
C27 C 0.4165(4) 0.4127(4) 0.9012(4)
H19 H 0.4741 0.3565 0.8683
C28 C 0.3081(5) 0.9312(4) 0.5640(4)
H20 H 0.2828 1.0117 0.5235
C29 C 0.2825(5) 0.4590(4) 1.0587(4)
H21 H 0.2510 0.4317 1.1317
C30 C 0.3694(5) 0.3764(4) 1.0070(4)
H22 H 0.3948 0.2952 1.0463
C31 C 0.3941(5) 0.8451(5) 0.5133(4)
H23 H 0.4244 0.8704 0.4398
N4 N 0.5746(3) 0.4300(3) 0.2647(3)
N5 N 0.7456(3) 0.2601(3) 0.1604(3)
C20 C 0.7374(5) 0.1024(4) 0.3295(4)
H16 H 0.7938 0.0452 0.2969
C21 C 0.6212(4) 0.4640(4) 0.1603(3)
C22 C 0.6989(4) 0.2265(4) 0.2662(3)
C23 C 0.7085(4) 0.3783(4) 0.1072(3)
C24 C 0.6135(4) 0.3137(4) 0.3187(3)
C25 C 0.5672(4) 0.2716(4) 0.4313(3)
H17 H 0.5097 0.3257 0.4664
C26 C 0.7560(4) 0.4220(4) -0.0042(4)
H18 H 0.8138 0.3685 -0.0397
C27 C 0.5835(4) 0.5873(4) 0.0988(4)
H19 H 0.5259 0.6435 0.1317
C28 C 0.6919(5) 0.0688(4) 0.4360(4)
H20 H 0.7172 -0.0117 0.4765
C29 C 0.7175(5) 0.5410(4) -0.0587(4)
H21 H 0.7490 0.5683 -0.1317
C30 C 0.6306(5) 0.6236(4) -0.0070(4)
H22 H 0.6052 0.7048 -0.0463
C31 C 0.6059(5) 0.1549(5) 0.4867(4)
H23 H 0.5756 0.1296 0.5602

#END
