./LACVUJ_from_POSCAR.cif_generated_by_CrystalShift
_symmetry_cell_setting triclinic
_symmetry_space_group_name_H-M 'P 1'
loop_
_symmetry_equiv_pos_site_id
_symmetry_equiv_pos_as_xyz
1 x,y,z
_cell_length_a 8.498500
_cell_length_b 12.547000
_cell_length_c 22.278000
_cell_angle_alpha 90.000000
_cell_angle_beta 90.000000
_cell_angle_gamma 90.000000
_cell_volume 2375.518278
loop_
_atom_site_label
_atom_site_type_symbol
_atom_site_fract_x
_atom_site_fract_y
_atom_site_fract_z
H1 H 0.464000 0.324000 0.067800
H2 H 0.545000 0.320000 0.007100
H3 H 0.549100 -0.007100 0.148200
H4 H 0.198000 0.591000 0.924100
H5 H 0.251100 0.502900 1.007700
H6 H -0.037800 0.335800 0.867600
H7 H 0.536000 0.676000 0.932200
H8 H 0.455000 0.680000 0.992900
H9 H 0.816600 0.063200 0.275900
H10 H 0.450900 1.007100 0.851800
H11 H 0.958500 0.223500 0.098000
H12 H 0.537800 0.835800 0.867600
H13 H 0.325900 0.839300 1.027800
H14 H 0.807400 0.315000 0.164700
H15 H 1.052000 -0.077000 0.180900
H16 H 0.668000 0.224000 0.297400
H17 H 0.665000 0.319000 0.257000
H18 H 0.462200 0.164200 0.132400
H19 H 0.302000 1.091000 0.924100
H20 H 0.674100 0.160700 -0.027800
H21 H 0.248900 1.002900 1.007700
H22 H 0.049100 0.507100 0.851800
H23 H -0.036000 0.324000 0.432200
H24 H 0.045000 0.320000 0.492900
H25 H 0.049100 -0.007100 0.351800
H26 H 0.683400 0.936800 0.775900
H27 H -0.037800 0.164200 0.367600
H28 H 0.541500 0.776500 0.598000
H29 H 0.174100 0.160700 0.527800
H30 H 0.198000 -0.091000 0.424100
H31 H 0.692600 0.685000 0.664700
H32 H 0.448000 1.077000 0.680900
H33 H 0.832000 0.776000 0.797400
H34 H 0.835000 0.681000 0.757000
H35 H 0.698000 -0.091000 0.075900
H36 H 0.251100 -0.002900 0.507700
H37 H 0.045000 0.180000 0.992900
H38 H 0.751100 -0.002900 -0.007700
H39 H -0.036000 0.176000 0.932200
H40 H 0.464000 0.176000 0.567800
H41 H 0.545000 0.180000 0.507100
H42 H 0.549100 0.507100 0.648200
H43 H 0.183400 0.563200 0.224100
H44 H 0.462200 0.335800 0.632400
H45 H 0.041500 0.723500 0.402000
H46 H 0.674100 0.339300 0.472200
H47 H 0.698000 0.591000 0.575900
H48 H 0.192600 0.815000 0.335300
H49 H -0.052000 0.423000 0.319100
H50 H 0.332000 0.724000 0.202600
H51 H 0.335000 0.819000 0.243000
H52 H 1.036000 0.676000 0.567800
H53 H 0.955000 0.680000 0.507100
H54 H 0.950900 1.007100 0.648200
H55 H 0.751100 0.502900 0.492300
H56 H 0.248900 0.497100 0.507700
H57 H 1.036000 0.824000 0.067800
H58 H 0.955000 0.820000 0.007100
H59 H 0.950900 0.492900 0.148200
H60 H 0.316600 0.436800 0.724100
H61 H 1.037800 0.664200 0.132400
H62 H 0.458500 0.276500 0.902000
H63 H 0.825900 0.660700 -0.027800
H64 H 0.802000 0.409000 0.075900
H65 H 0.307400 0.185000 0.835300
H66 H 0.552000 0.577000 0.819100
H67 H 0.168000 0.276000 0.702600
H68 H 0.165000 0.181000 0.743000
H69 H 1.037800 0.835800 0.632400
H70 H 0.748900 0.497100 -0.007700
H71 H 0.825900 0.839300 0.472200
H72 H 0.302000 0.409000 0.424100
H73 H 0.835000 0.819000 0.257000
H74 H 0.832000 0.724000 0.297400
H75 H 0.448000 0.423000 0.180900
H76 H 0.692600 0.815000 0.164700
H77 H 0.183400 0.936800 0.724100
H78 H 0.541500 0.723500 0.098000
H79 H 0.041500 0.776500 0.902000
H80 H 0.683400 0.563200 0.275900
H81 H 0.325900 0.660700 0.527800
H82 H 0.192600 0.685000 0.835300
H83 H -0.052000 1.077000 0.819100
H84 H 0.332000 0.776000 0.702600
H85 H 0.335000 0.681000 0.743000
H86 H 0.802000 1.091000 0.575900
H87 H 0.537800 0.664200 0.367600
H88 H 0.665000 0.181000 0.757000
H89 H 0.748900 1.002900 0.492300
H90 H 0.668000 0.276000 0.797400
H91 H 1.052000 0.577000 0.680900
H92 H 0.807400 0.185000 0.664700
H93 H 0.958500 0.276500 0.598000
H94 H 0.316600 0.063200 0.224100
H95 H 0.816600 0.436800 0.775900
H96 H 0.458500 0.223500 0.402000
H97 H 0.450900 0.492900 0.351800
H98 H 0.455000 0.820000 0.492900
H99 H 0.307400 0.315000 0.335300
H100 H 0.552000 -0.077000 0.319100
H101 H 0.168000 0.224000 0.202600
H102 H 0.165000 0.319000 0.243000
H103 H 0.536000 0.824000 0.432200
H104 H 0.174100 0.339300 1.027800
C105 C 0.593900 0.032450 0.396230
C106 C 0.426000 0.528100 0.387240
C107 C 0.797700 0.300030 0.728600
C108 C 0.989100 0.411010 0.646130
C109 C 0.941900 0.458290 0.700540
C110 C 0.847600 0.403740 0.740440
C111 C 0.432600 0.191510 0.365670
C112 C 0.932600 0.308490 0.634330
C113 C 0.347600 0.096260 0.259560
C114 C 1.093900 0.467550 0.603770
C115 C 0.841100 0.253530 0.673970
C116 C 0.441900 0.041710 0.299460
C117 C 0.489100 0.088990 0.353870
C118 C 0.297700 0.199970 0.271400
C119 C 0.939900 0.815790 0.550280
C120 C 0.837900 1.021900 0.569750
C121 C 0.477500 0.630400 0.396710
C122 C 0.158900 0.753530 0.826030
C123 C 0.351900 0.628330 0.491570
C124 C 0.702300 0.699970 0.228600
C125 C 0.510900 0.588990 0.146130
C126 C 0.558100 0.541710 0.200540
C127 C 0.652400 0.596260 0.240440
C128 C -0.093900 0.967550 0.896230
C129 C 0.567400 0.691510 0.134330
C130 C 0.067400 0.808490 0.865670
C131 C 0.406100 0.532450 0.103770
C132 C 0.658900 0.746470 0.173970
C133 C 0.152400 0.903740 0.759560
C134 C 0.058100 0.958290 0.799460
C135 C 0.010900 0.911010 0.853870
C136 C 0.202300 0.800030 0.771400
C137 C 0.851900 0.871670 0.508430
C138 C 0.337900 0.478100 0.430250
C139 C 0.977500 0.869600 0.603290
C140 C 0.939900 0.684210 0.050280
C141 C 0.837900 0.478100 0.069750
C142 C 0.341100 0.253530 0.826030
C143 C 0.851900 0.628330 0.008430
C144 C 0.593900 0.467550 0.896230
C145 C 0.977500 0.630400 0.103290
C146 C 0.432600 0.308490 0.865670
C147 C 0.926000 0.528100 0.112760
C148 C 0.347600 0.403740 0.759560
C149 C 0.441900 0.458290 0.799460
C150 C 0.489100 0.411010 0.853870
C151 C 0.439900 0.684210 0.449720
C152 C 0.297700 0.300030 0.771400
C153 C 0.926000 0.971900 0.612760
C154 C 0.560100 0.315790 0.550280
C155 C 0.662100 0.521900 0.569750
C156 C 0.158900 0.746470 0.326030
C157 C 0.648100 0.371670 0.508430
C158 C -0.093900 0.532450 0.396230
C159 C 0.522500 0.369600 0.603290
C160 C 0.067400 0.691510 0.365670
C161 C 0.574000 0.471900 0.612760
C162 C 0.152400 0.596260 0.259560
C163 C 0.058100 0.541710 0.299460
C164 C 0.010900 0.588990 0.353870
C165 C 0.202300 0.699970 0.271400
C166 C 0.560100 0.184210 0.050280
C167 C 0.662100 -0.021900 0.069750
C168 C 0.060100 0.184210 0.449720
C169 C 0.162100 -0.021900 0.430250
C170 C 0.658900 0.753530 0.673970
C171 C 0.148100 0.128330 0.491570
C172 C 0.406100 0.967550 0.603770
C173 C 0.022500 0.130400 0.396710
C174 C 0.567400 0.808490 0.634330
C175 C 0.074000 0.028100 0.387240
C176 C 0.652400 0.903740 0.740440
C177 C 0.558100 0.958290 0.700540
C178 C 0.510900 0.911010 0.646130
C179 C 0.702300 0.800030 0.728600
C180 C 0.074000 0.471900 0.887240
C181 C 0.648100 0.128330 0.008430
C182 C 0.439900 0.815790 0.949720
C183 C 0.337900 1.021900 0.930250
C184 C 0.522500 0.130400 0.103290
C185 C 0.351900 0.871670 0.991570
C186 C 0.841100 0.246470 0.173970
C187 C 0.477500 0.869600 0.896710
C188 C 1.093900 0.032450 0.103770
C189 C 0.426000 0.971900 0.887240
C190 C 0.932600 0.191510 0.134330
C191 C 0.847600 0.096260 0.240440
C192 C 0.941900 0.041710 0.200540
C193 C 0.989100 0.088990 0.146130
C194 C 0.022500 0.369600 0.896710
C195 C 0.797700 0.199970 0.228600
C196 C 0.060100 0.315790 0.949720
C197 C 0.162100 0.521900 0.930250
C198 C 0.574000 0.028100 0.112760
C199 C 0.148100 0.371670 0.991570
C200 C 0.341100 0.246470 0.326030
N201 N 0.196000 0.470710 0.980850
N202 N 0.013200 0.214700 0.960280
N203 N 0.304000 0.970710 0.980850
N204 N 0.486800 0.714700 0.960280
N205 N 0.196000 0.029290 0.480850
N206 N 0.013200 0.285300 0.460280
N207 N 0.486800 0.785300 0.460280
N208 N 0.304000 0.529290 0.480850
N209 N 0.696000 0.470710 0.519150
N210 N 0.513200 0.214700 0.539720
N211 N 0.804000 0.529290 0.019150
N212 N 0.986800 0.785300 0.039720
N213 N 0.785400 0.758000 0.269550
N214 N 0.785400 0.742000 0.769550
N215 N 0.285400 0.758000 0.230450
N216 N 0.696000 0.029290 0.019150
N217 N 0.714600 0.242000 0.769550
N218 N 0.513200 0.285300 0.039720
N219 N 0.214600 0.242000 0.730450
N220 N 0.285400 0.742000 0.730450
N221 N 0.986800 0.714700 0.539720
N222 N 0.804000 0.970710 0.519150
N223 N 0.214600 0.258000 0.230450
N224 N 0.714600 0.258000 0.269550
O225 O 0.630600 0.078750 0.444750
O226 O 0.643400 -0.059520 0.382750
O227 O 1.143400 0.559520 0.617250
O228 O 0.010500 1.058190 0.784200
O229 O -0.130600 0.921250 0.944750
O230 O -0.143400 1.059520 0.882750
O231 O 1.130600 0.421250 0.555250
O232 O 0.489500 0.558190 0.784200
O233 O 0.630600 0.421250 0.944750
O234 O 0.643400 0.559520 0.882750
O235 O 0.989500 0.558190 0.715800
O236 O 0.356600 0.440480 0.117250
O237 O 0.369400 0.578750 0.055250
O238 O 0.010500 0.441810 0.284200
O239 O -0.130600 0.578750 0.444750
O240 O -0.143400 0.440480 0.382750
O241 O 0.510500 0.441810 0.215800
O242 O 0.510500 1.058190 0.715800
O243 O 0.369400 0.921250 0.555250
O244 O 0.356600 1.059520 0.617250
O245 O 0.489500 -0.058190 0.284200
O246 O 0.989500 -0.058190 0.215800
O247 O 1.130600 0.078750 0.055250
O248 O 1.143400 -0.059520 0.117250

#END
