
#######################################################################
#
#                 Cambridge Crystallographic Data Centre
#                                CCDC 
#
#######################################################################
#
# If this CIF has been generated from an entry in the Cambridge 
# Structural Database, then it will include bibliographic, chemical, 
# crystal, experimental, refinement or atomic coordinate data resulting 
# from the CCDC's data processing and validation procedures.
#
#######################################################################

data_LACXUK
_symmetry_cell_setting           orthorhombic
_symmetry_space_group_name_H-M   'P 21 21 21'
_symmetry_Int_Tables_number      19
_space_group_name_Hall           'P 2ac 2ab'
loop_
_symmetry_equiv_pos_site_id
_symmetry_equiv_pos_as_xyz
1 x,y,z
2 1/2-x,-y,1/2+z
3 1/2+x,1/2-y,-z
4 -x,1/2+y,1/2-z
_cell_length_a                   5.9903(5)
_cell_length_b                   8.6820(8)
_cell_length_c                   27.615(3)
_cell_angle_alpha                90
_cell_angle_beta                 90
_cell_angle_gamma                90
_cell_volume                     1436.19
loop_
_atom_site_label
_atom_site_type_symbol
_atom_site_fract_x
_atom_site_fract_y
_atom_site_fract_z
C1 C 0.3799(4) 0.2210(3) 0.51970(9)
C2 C 0.3644(5) 0.0476(3) 0.52863(9)
H1 H 0.514(6) 0.013(4) 0.5286(11)
C3 C 0.2716(5) 0.0018(3) 0.57832(9)
H2 H 0.110(6) 0.017(3) 0.5779(10)
C4 C 0.3745(5) 0.1036(3) 0.61789(9)
C5 C 0.3076(5) 0.2687(3) 0.60549(9)
H3 H 0.378(5) 0.342(4) 0.6263(11)
H4 H 0.144(6) 0.277(4) 0.6054(11)
C6 C 0.6278(5) 0.0842(3) 0.62145(10)
H5 H 0.683(6) 0.136(4) 0.6495(12)
H6 H 0.660(6) -0.021(4) 0.6229(12)
H7 H 0.703(6) 0.131(4) 0.5946(12)
C7 C 0.3359(6) -0.1291(3) 0.46032(10)
H8 H 0.216(7) -0.179(4) 0.4373(12)
C8 C 0.3007(4) 0.1338(3) 0.70580(9)
C9 C 0.2311(4) 0.1076(3) 0.79262(9)
C10 C 0.0887(5) 0.2516(3) 0.79695(11)
H9 H 0.165(6) 0.343(4) 0.7807(13)
H10 H -0.059(7) 0.236(4) 0.7826(13)
H11 H 0.067(6) 0.270(4) 0.8314(13)
C11 C 0.4714(5) 0.1364(3) 0.80730(10)
H12 H 0.564(6) 0.045(4) 0.8008(12)
H13 H 0.529(6) 0.229(4) 0.7891(13)
H14 H 0.473(6) 0.162(4) 0.8417(13)
C12 C 0.1313(6) -0.0261(3) 0.82079(9)
H15 H -0.032(6) -0.055(4) 0.8100(12)
H16 H 0.221(6) -0.124(4) 0.8163(12)
H17 H 0.143(7) 0.000(4) 0.8552(13)
O1 O 0.4057(3) 0.2746(2) 0.47985(7)
O2 O 0.3846(3) 0.3158(2) 0.55768(6)
O3 O 0.5323(5) -0.1658(3) 0.46144(9)
O4 O 0.3200(3) -0.1542(2) 0.58874(7)
H18 H 0.220(7) -0.210(4) 0.5706(12)
O5 O 0.3865(4) 0.2598(2) 0.70901(6)
O6 O 0.2214(3) 0.0485(2) 0.74245(6)
N1 N 0.2431(5) -0.0272(3) 0.49015(8)
H19 H 0.104(6) -0.007(4) 0.4852(12)
N2 N 0.2634(4) 0.0591(2) 0.66303(7)
H20 H 0.228(6) -0.034(4) 0.6646(11)
C1 C 0.1201(4) 0.7790(3) 0.01970(9)
C2 C 0.1356(5) 0.9524(3) 0.02863(9)
H1 H -0.014(6) 0.987(4) 0.0286(11)
C3 C 0.2284(5) 0.9982(3) 0.07832(9)
H2 H 0.390(6) 0.983(3) 0.0779(10)
C4 C 0.1255(5) 0.8964(3) 0.11789(9)
C5 C 0.1924(5) 0.7313(3) 0.10549(9)
H3 H 0.122(5) 0.658(4) 0.1263(11)
H4 H 0.356(6) 0.723(4) 0.1054(11)
C6 C -0.1278(5) 0.9158(3) 0.12145(10)
H5 H -0.183(6) 0.864(4) 0.1495(12)
H6 H -0.160(6) 1.021(4) 0.1229(12)
H7 H -0.203(6) 0.869(4) 0.0946(12)
C7 C 0.1641(6) 1.1291(3) -0.03968(10)
H8 H 0.284(7) 1.179(4) -0.0627(12)
C8 C 0.1993(4) 0.8662(3) 0.20580(9)
C9 C 0.2689(4) 0.8924(3) 0.29262(9)
C10 C 0.4113(5) 0.7484(3) 0.29695(11)
H9 H 0.335(6) 0.657(4) 0.2807(13)
H10 H 0.559(7) 0.764(4) 0.2826(13)
H11 H 0.433(6) 0.730(4) 0.3314(13)
C11 C 0.0286(5) 0.8636(3) 0.30730(10)
H12 H -0.064(6) 0.955(4) 0.3008(12)
H13 H -0.029(6) 0.771(4) 0.2891(13)
H14 H 0.027(6) 0.838(4) 0.3417(13)
C12 C 0.3687(6) 1.0261(3) 0.32079(9)
H15 H 0.532(6) 1.055(4) 0.3100(12)
H16 H 0.279(6) 1.124(4) 0.3163(12)
H17 H 0.357(7) 1.000(4) 0.3552(13)
O1 O 0.0943(3) 0.7254(2) -0.02015(7)
O2 O 0.1154(3) 0.6842(2) 0.05768(6)
O3 O -0.0323(5) 1.1658(3) -0.03856(9)
O4 O 0.1800(3) 1.1542(2) 0.08874(7)
H18 H 0.280(7) 1.210(4) 0.0706(12)
O5 O 0.1135(4) 0.7402(2) 0.20901(6)
O6 O 0.2786(3) 0.9515(2) 0.24245(6)
N1 N 0.2569(5) 1.0272(3) -0.00985(8)
H19 H 0.396(6) 1.007(4) -0.0148(12)
N2 N 0.2366(4) 0.9409(2) 0.16303(7)
H20 H 0.272(6) 1.034(4) 0.1646(11)
C1 C 0.8799(4) 0.2790(3) 0.48030(9)
C2 C 0.8644(5) 0.4524(3) 0.47137(9)
H1 H 1.014(6) 0.487(4) 0.4714(11)
C3 C 0.7716(5) 0.4982(3) 0.42168(9)
H2 H 0.610(6) 0.483(3) 0.4221(10)
C4 C 0.8745(5) 0.3964(3) 0.38211(9)
C5 C 0.8076(5) 0.2313(3) 0.39451(9)
H3 H 0.878(5) 0.158(4) 0.3737(11)
H4 H 0.644(6) 0.223(4) 0.3946(11)
C6 C 1.1278(5) 0.4158(3) 0.37855(10)
H5 H 1.183(6) 0.364(4) 0.3505(12)
H6 H 1.160(6) 0.521(4) 0.3771(12)
H7 H 1.203(6) 0.369(4) 0.4054(12)
C7 C 0.8359(6) 0.6291(3) 0.53968(10)
H8 H 0.716(7) 0.679(4) 0.5627(12)
C8 C 0.8007(4) 0.3662(3) 0.29420(9)
C9 C 0.7311(4) 0.3924(3) 0.20738(9)
C10 C 0.5887(5) 0.2484(3) 0.20305(11)
H9 H 0.665(6) 0.157(4) 0.2193(13)
H10 H 0.441(7) 0.264(4) 0.2174(13)
H11 H 0.567(6) 0.230(4) 0.1686(13)
C11 C 0.9714(5) 0.3636(3) 0.19270(10)
H12 H 1.064(6) 0.455(4) 0.1992(12)
H13 H 1.029(6) 0.271(4) 0.2109(13)
H14 H 0.973(6) 0.338(4) 0.1583(13)
C12 C 0.6313(6) 0.5261(3) 0.17921(9)
H15 H 0.468(6) 0.555(4) 0.1900(12)
H16 H 0.721(6) 0.624(4) 0.1837(12)
H17 H 0.643(7) 0.500(4) 0.1448(13)
O1 O 0.9057(3) 0.2254(2) 0.52015(7)
O2 O 0.8846(3) 0.1842(2) 0.44232(6)
O3 O 1.0323(5) 0.6658(3) 0.53856(9)
O4 O 0.8200(3) 0.6542(2) 0.41126(7)
H18 H 0.720(7) 0.710(4) 0.4294(12)
O5 O 0.8865(4) 0.2402(2) 0.29099(6)
O6 O 0.7214(3) 0.4515(2) 0.25755(6)
N1 N 0.7431(5) 0.5272(3) 0.50985(8)
H19 H 0.604(6) 0.507(4) 0.5148(12)
N2 N 0.7634(4) 0.4409(2) 0.33697(7)
H20 H 0.728(6) 0.534(4) 0.3354(11)
C1 C 0.6201(4) 0.7210(3) 0.98030(9)
C2 C 0.6356(5) 0.5476(3) 0.97137(9)
H1 H 0.486(6) 0.513(4) 0.9714(11)
C3 C 0.7284(5) 0.5018(3) 0.92168(9)
H2 H 0.890(6) 0.517(3) 0.9221(10)
C4 C 0.6255(5) 0.6036(3) 0.88211(9)
C5 C 0.6924(5) 0.7687(3) 0.89451(9)
H3 H 0.622(5) 0.842(4) 0.8737(11)
H4 H 0.856(6) 0.777(4) 0.8946(11)
C6 C 0.3722(5) 0.5842(3) 0.87855(10)
H5 H 0.317(6) 0.636(4) 0.8505(12)
H6 H 0.340(6) 0.479(4) 0.8771(12)
H7 H 0.297(6) 0.631(4) 0.9054(12)
C7 C 0.6641(6) 0.3709(3) 1.03968(10)
H8 H 0.784(7) 0.321(4) 1.0627(12)
C8 C 0.6993(4) 0.6338(3) 0.79420(9)
C9 C 0.7689(4) 0.6076(3) 0.70738(9)
C10 C 0.9113(5) 0.7516(3) 0.70305(11)
H9 H 0.835(6) 0.843(4) 0.7193(13)
H10 H 1.059(7) 0.736(4) 0.7174(13)
H11 H 0.933(6) 0.770(4) 0.6686(13)
C11 C 0.5286(5) 0.6364(3) 0.69270(10)
H12 H 0.436(6) 0.545(4) 0.6992(12)
H13 H 0.471(6) 0.729(4) 0.7109(13)
H14 H 0.527(6) 0.662(4) 0.6583(13)
C12 C 0.8687(6) 0.4739(3) 0.67921(9)
H15 H 1.032(6) 0.445(4) 0.6900(12)
H16 H 0.779(6) 0.376(4) 0.6837(12)
H17 H 0.857(7) 0.500(4) 0.6448(13)
O1 O 0.5943(3) 0.7746(2) 1.02015(7)
O2 O 0.6154(3) 0.8158(2) 0.94232(6)
O3 O 0.4677(5) 0.3342(3) 1.03856(9)
O4 O 0.6800(3) 0.3458(2) 0.91126(7)
H18 H 0.780(7) 0.290(4) 0.9294(12)
O5 O 0.6135(4) 0.7598(2) 0.79099(6)
O6 O 0.7786(3) 0.5485(2) 0.75755(6)
N1 N 0.7569(5) 0.4728(3) 1.00985(8)
H19 H 0.896(6) 0.493(4) 1.0148(12)
N2 N 0.7366(4) 0.5591(2) 0.83697(7)
H20 H 0.772(6) 0.466(4) 0.8354(11)

#END
