
#######################################################################
#
#                 Cambridge Crystallographic Data Centre
#                                CCDC 
#
#######################################################################
#
# If this CIF has been generated from an entry in the Cambridge 
# Structural Database, then it will include bibliographic, chemical, 
# crystal, experimental, refinement or atomic coordinate data resulting 
# from the CCDC's data processing and validation procedures.
#
#######################################################################

data_LACYOF
_symmetry_cell_setting           monoclinic
_symmetry_space_group_name_H-M   'P 21/c'
_symmetry_Int_Tables_number      14
_space_group_name_Hall           '-P 2ybc'
loop_
_symmetry_equiv_pos_site_id
_symmetry_equiv_pos_as_xyz
1 x,y,z
2 -x,1/2+y,1/2-z
3 -x,-y,-z
4 x,1/2-y,1/2+z
_cell_length_a                   18.3242(5)
_cell_length_b                   7.2393(1)
_cell_length_c                   16.9758(3)
_cell_angle_alpha                90
_cell_angle_beta                 115.868(1)
_cell_angle_gamma                90
_cell_volume                     2026.28
loop_
_atom_site_label
_atom_site_type_symbol
_atom_site_fract_x
_atom_site_fract_y
_atom_site_fract_z
Cl1 Cl 1.07997(4) 1.33818(7) 0.42968(4)
N1 N 0.93570(9) 0.7724(2) 0.29172(10)
C1 C 0.93479(11) 0.9218(2) 0.33960(11)
N2 N 0.99703(9) 1.04362(19) 0.35772(10)
C2 C 0.99864(12) 1.1874(2) 0.40466(13)
C3 C 0.94206(13) 1.2299(3) 0.43687(13)
H1 H 0.9472 1.3369 0.4703
C4 C 0.88005(13) 1.1116(3) 0.41821(14)
H2 H 0.8404 1.1359 0.4380
C5 C 0.87471(11) 0.9512(2) 0.36886(12)
C6 C 0.81365(13) 0.8165(3) 0.34604(15)
H3 H 0.7721 0.8311 0.3639
C7 C 0.81374(13) 0.6659(3) 0.29879(15)
H4 H 0.7731 0.5753 0.2839
C8 C 0.87717(11) 0.6492(2) 0.27252(12)
N3 N 0.88292(10) 0.5012(2) 0.22309(10)
H5 H 0.9190(13) 0.509(3) 0.2080(14)
C9 C 0.83538(12) 0.3457(2) 0.19602(12)
O1 O 0.77888(9) 0.3179(2) 0.21399(10)
C10 C 0.85764(13) 0.2150(3) 0.14258(14)
H6 H 0.8437 0.0902 0.1518
H7 H 0.9155 0.2226 0.1599
H8 H 0.8282 0.2469 0.0811
Cl1 Cl -0.07997(4) 0.83818(7) 0.07032(4)
N1 N 0.06430(9) 0.2724(2) 0.20828(10)
C1 C 0.06521(11) 0.4218(2) 0.16040(11)
N2 N 0.00297(9) 0.54362(19) 0.14228(10)
C2 C 0.00136(12) 0.6874(2) 0.09534(13)
C3 C 0.05794(13) 0.7299(3) 0.06313(13)
H1 H 0.0528 0.8369 0.0297
C4 C 0.11995(13) 0.6116(3) 0.08179(14)
H2 H 0.1596 0.6359 0.0620
C5 C 0.12529(11) 0.4512(2) 0.13114(12)
C6 C 0.18635(13) 0.3165(3) 0.15396(15)
H3 H 0.2279 0.3311 0.1361
C7 C 0.18626(13) 0.1659(3) 0.20121(15)
H4 H 0.2269 0.0753 0.2161
C8 C 0.12283(11) 0.1492(2) 0.22748(12)
N3 N 0.11708(10) 0.0012(2) 0.27691(10)
H5 H 0.0810(13) 0.009(3) 0.2920(14)
C9 C 0.16462(12) -0.1543(2) 0.30398(12)
O1 O 0.22112(9) -0.1821(2) 0.28601(10)
C10 C 0.14236(13) -0.2850(3) 0.35742(14)
H6 H 0.1563 -0.4098 0.3482
H7 H 0.0845 -0.2774 0.3401
H8 H 0.1718 -0.2531 0.4189
Cl1 Cl -0.07997(4) -0.33818(7) 0.57032(4)
N1 N 0.06430(9) 0.2276(2) 0.70828(10)
C1 C 0.06521(11) 0.0782(2) 0.66040(11)
N2 N 0.00297(9) -0.04362(19) 0.64228(10)
C2 C 0.00136(12) -0.1874(2) 0.59534(13)
C3 C 0.05794(13) -0.2299(3) 0.56313(13)
H1 H 0.0528 -0.3369 0.5297
C4 C 0.11995(13) -0.1116(3) 0.58179(14)
H2 H 0.1596 -0.1359 0.5620
C5 C 0.12529(11) 0.0488(2) 0.63114(12)
C6 C 0.18635(13) 0.1835(3) 0.65396(15)
H3 H 0.2279 0.1689 0.6361
C7 C 0.18626(13) 0.3341(3) 0.70121(15)
H4 H 0.2269 0.4247 0.7161
C8 C 0.12283(11) 0.3508(2) 0.72748(12)
N3 N 0.11708(10) 0.4988(2) 0.77691(10)
H5 H 0.0810(13) 0.491(3) 0.7920(14)
C9 C 0.16462(12) 0.6543(2) 0.80398(12)
O1 O 0.22112(9) 0.6821(2) 0.78601(10)
C10 C 0.14236(13) 0.7850(3) 0.85742(14)
H6 H 0.1563 0.9098 0.8482
H7 H 0.0845 0.7774 0.8401
H8 H 0.1718 0.7531 0.9189
Cl1 Cl 1.07997(4) 0.16182(7) 0.92968(4)
N1 N 0.93570(9) 0.7276(2) 0.79172(10)
C1 C 0.93479(11) 0.5782(2) 0.83960(11)
N2 N 0.99703(9) 0.45638(19) 0.85772(10)
C2 C 0.99864(12) 0.3126(2) 0.90466(13)
C3 C 0.94206(13) 0.2701(3) 0.93687(13)
H1 H 0.9472 0.1631 0.9703
C4 C 0.88005(13) 0.3884(3) 0.91821(14)
H2 H 0.8404 0.3641 0.9380
C5 C 0.87471(11) 0.5488(2) 0.86886(12)
C6 C 0.81365(13) 0.6835(3) 0.84604(15)
H3 H 0.7721 0.6689 0.8639
C7 C 0.81374(13) 0.8341(3) 0.79879(15)
H4 H 0.7731 0.9247 0.7839
C8 C 0.87717(11) 0.8508(2) 0.77252(12)
N3 N 0.88292(10) 0.9988(2) 0.72309(10)
H5 H 0.9190(13) 0.991(3) 0.7080(14)
C9 C 0.83538(12) 1.1543(2) 0.69602(12)
O1 O 0.77888(9) 1.1821(2) 0.71399(10)
C10 C 0.85764(13) 1.2850(3) 0.64258(14)
H6 H 0.8437 1.4098 0.6518
H7 H 0.9155 1.2774 0.6599
H8 H 0.8282 1.2531 0.5811
Cl2 Cl 0.41096(4) 1.33574(7) 0.34625(4)
N4 N 0.56276(9) 0.77646(19) 0.35249(10)
C11 C 0.56163(10) 0.9274(2) 0.39918(11)
N5 N 0.49764(9) 1.0450(2) 0.35680(10)
C12 C 0.49375(12) 1.1896(2) 0.40017(13)
C13 C 0.54885(13) 1.2380(3) 0.48546(14)
H9 H 0.5419 1.3456 0.5124
C14 C 0.61248(13) 1.1237(3) 0.52734(14)
H10 H 0.6512 1.1511 0.5845
C15 C 0.62053(11) 0.9628(2) 0.48481(12)
C16 C 0.68364(13) 0.8327(3) 0.52150(14)
H11 H 0.7248 0.8516 0.5783
C17 C 0.68578(12) 0.6807(3) 0.47598(13)
H12 H 0.7276 0.5931 0.5005
C18 C 0.62276(11) 0.6577(2) 0.38996(11)
N6 N 0.61921(10) 0.5071(2) 0.33729(10)
H13 H 0.5785(13) 0.510(3) 0.2854(14)
C19 C 0.66762(12) 0.3525(2) 0.35813(13)
O2 O 0.72423(10) 0.3288(2) 0.42923(10)
C20 C 0.64481(12) 0.2157(3) 0.28526(14)
H14 H 0.6803 0.2303 0.2568
H15 H 0.5891 0.2365 0.2430
H16 H 0.6503 0.0916 0.3087
Cl2 Cl 0.58904(4) 0.83574(7) 0.15375(4)
N4 N 0.43724(9) 0.27646(19) 0.14751(10)
C11 C 0.43837(10) 0.4274(2) 0.10082(11)
N5 N 0.50236(9) 0.5450(2) 0.14320(10)
C12 C 0.50625(12) 0.6896(2) 0.09983(13)
C13 C 0.45115(13) 0.7380(3) 0.01454(14)
H9 H 0.4581 0.8456 -0.0124
C14 C 0.38752(13) 0.6237(3) -0.02734(14)
H10 H 0.3488 0.6511 -0.0845
C15 C 0.37947(11) 0.4628(2) 0.01519(12)
C16 C 0.31636(13) 0.3327(3) -0.02150(14)
H11 H 0.2752 0.3516 -0.0783
C17 C 0.31422(12) 0.1807(3) 0.02402(13)
H12 H 0.2724 0.0931 -0.0005
C18 C 0.37724(11) 0.1577(2) 0.11004(11)
N6 N 0.38079(10) 0.0071(2) 0.16271(10)
H13 H 0.4215(13) 0.010(3) 0.2146(14)
C19 C 0.33238(12) -0.1475(2) 0.14187(13)
O2 O 0.27577(10) -0.1712(2) 0.07077(10)
C20 C 0.35519(12) -0.2843(3) 0.21474(14)
H14 H 0.3197 -0.2697 0.2432
H15 H 0.4109 -0.2635 0.2570
H16 H 0.3497 -0.4084 0.1913
Cl2 Cl 0.58904(4) -0.33574(7) 0.65375(4)
N4 N 0.43724(9) 0.22354(19) 0.64751(10)
C11 C 0.43837(10) 0.0726(2) 0.60082(11)
N5 N 0.50236(9) -0.0450(2) 0.64320(10)
C12 C 0.50625(12) -0.1896(2) 0.59983(13)
C13 C 0.45115(13) -0.2380(3) 0.51454(14)
H9 H 0.4581 -0.3456 0.4876
C14 C 0.38752(13) -0.1237(3) 0.47266(14)
H10 H 0.3488 -0.1511 0.4155
C15 C 0.37947(11) 0.0372(2) 0.51519(12)
C16 C 0.31636(13) 0.1673(3) 0.47850(14)
H11 H 0.2752 0.1484 0.4217
C17 C 0.31422(12) 0.3193(3) 0.52402(13)
H12 H 0.2724 0.4069 0.4995
C18 C 0.37724(11) 0.3423(2) 0.61004(11)
N6 N 0.38079(10) 0.4929(2) 0.66271(10)
H13 H 0.4215(13) 0.490(3) 0.7146(14)
C19 C 0.33238(12) 0.6475(2) 0.64187(13)
O2 O 0.27577(10) 0.6712(2) 0.57077(10)
C20 C 0.35519(12) 0.7843(3) 0.71474(14)
H14 H 0.3197 0.7697 0.7432
H15 H 0.4109 0.7635 0.7570
H16 H 0.3497 0.9084 0.6913
Cl2 Cl 0.41096(4) 0.16426(7) 0.84625(4)
N4 N 0.56276(9) 0.72354(19) 0.85249(10)
C11 C 0.56163(10) 0.5726(2) 0.89918(11)
N5 N 0.49764(9) 0.4550(2) 0.85680(10)
C12 C 0.49375(12) 0.3104(2) 0.90017(13)
C13 C 0.54885(13) 0.2620(3) 0.98546(14)
H9 H 0.5419 0.1544 1.0124
C14 C 0.61248(13) 0.3763(3) 1.02734(14)
H10 H 0.6512 0.3489 1.0845
C15 C 0.62053(11) 0.5372(2) 0.98481(12)
C16 C 0.68364(13) 0.6673(3) 1.02150(14)
H11 H 0.7248 0.6484 1.0783
C17 C 0.68578(12) 0.8193(3) 0.97598(13)
H12 H 0.7276 0.9069 1.0005
C18 C 0.62276(11) 0.8423(2) 0.88996(11)
N6 N 0.61921(10) 0.9929(2) 0.83729(10)
H13 H 0.5785(13) 0.990(3) 0.7854(14)
C19 C 0.66762(12) 1.1475(2) 0.85813(13)
O2 O 0.72423(10) 1.1712(2) 0.92923(10)
C20 C 0.64481(12) 1.2843(3) 0.78526(14)
H14 H 0.6803 1.2697 0.7568
H15 H 0.5891 1.2635 0.7430
H16 H 0.6503 1.4084 0.8087

#END
