./LACYOF_from_POSCAR.cif_generated_by_CrystalShift
_symmetry_cell_setting triclinic
_symmetry_space_group_name_H-M 'P 1'
loop_
_symmetry_equiv_pos_site_id
_symmetry_equiv_pos_as_xyz
1 x,y,z
_cell_length_a 18.324200
_cell_length_b 7.239300
_cell_length_c 16.975800
_cell_angle_alpha 90.000000
_cell_angle_beta 115.868000
_cell_angle_gamma 90.000000
_cell_volume 2026.276026
loop_
_atom_site_label
_atom_site_type_symbol
_atom_site_fract_x
_atom_site_fract_y
_atom_site_fract_z
H1 H 0.650300 1.408400 0.808700
H2 H 0.680300 1.269700 0.756800
H3 H 0.578500 0.990000 0.785400
H4 H 0.727600 0.906900 1.000500
H5 H 0.724800 0.648400 1.078300
H6 H 0.651200 0.348900 1.084500
H7 H 0.947200 1.336900 0.470300
H8 H 0.541900 0.154400 1.012400
H9 H 0.840400 1.135900 0.438000
H10 H 0.349700 0.908400 0.691300
H11 H 0.410900 0.763500 0.757000
H12 H 0.772100 0.831100 0.363900
H13 H 0.319700 0.769700 0.743200
H14 H 0.773100 0.575300 0.283900
H15 H 0.421500 0.490000 0.714600
H16 H 0.272400 0.406900 0.499500
H17 H 0.919000 0.509000 0.208000
H18 H 0.275200 0.148400 0.421700
H19 H 0.348800 -0.151100 0.415500
H20 H 0.458100 -0.345600 0.487600
H21 H 0.843700 0.090200 0.151800
H22 H 0.915500 0.222600 0.159900
H23 H 0.828200 0.246900 0.081100
H24 H 0.349700 -0.408400 0.191300
H25 H 0.410900 -0.263500 0.257000
H26 H 0.319700 -0.269700 0.243200
H27 H 0.421500 0.010000 0.214600
H28 H 0.272400 0.093100 -0.000500
H29 H 0.275200 0.351600 -0.078300
H30 H 0.052800 0.836900 0.029700
H31 H 0.348800 0.651100 -0.084500
H32 H 0.159600 0.635900 0.062000
H33 H 0.458100 0.845600 -0.012400
H34 H 0.650300 0.091600 0.308700
H35 H 0.227900 0.331100 0.136100
H36 H 0.589100 0.236500 0.243000
H37 H 0.226900 0.075300 0.216100
H38 H 0.680300 0.230300 0.256800
H39 H 0.578500 0.510000 0.285400
H40 H 0.081000 0.009000 0.292000
H41 H 0.727600 0.593100 0.500500
H42 H 0.724800 0.851600 0.578300
H43 H 0.651200 1.151100 0.584500
H44 H 0.156300 -0.409800 0.348200
H45 H 0.084500 -0.277400 0.340100
H46 H 0.171800 -0.253100 0.418900
H47 H 0.541900 1.345600 0.512400
H48 H 0.828200 1.253100 0.581100
H49 H 0.915500 1.277400 0.659900
H50 H 0.843700 1.409800 0.651800
H51 H 0.919000 0.991000 0.708000
H52 H 0.773100 0.924700 0.783900
H53 H 0.052800 -0.336900 0.529700
H54 H 0.772100 0.668900 0.863900
H55 H 0.159600 -0.135900 0.562000
H56 H 0.840400 0.364100 0.938000
H57 H 0.947200 0.163100 0.970300
H58 H 0.227900 0.168900 0.636100
H59 H 0.171800 0.753100 0.918900
H60 H 0.226900 0.424700 0.716100
H61 H 0.084500 0.777400 0.840100
H62 H 0.156300 0.909800 0.848200
H63 H 0.081000 0.491000 0.792000
H64 H 0.589100 1.263500 0.743000
C65 C 0.644810 1.284300 0.785260
C66 C 0.142360 0.785000 0.857420
C67 C 0.667620 1.147500 0.858130
C68 C 0.122830 0.350800 0.727480
C69 C 0.186260 0.334100 0.701210
C70 C 0.934790 0.921800 0.339600
C71 C 0.622760 0.842300 0.889960
C72 C 0.934790 0.578200 0.839600
C73 C 0.685780 0.819300 0.975980
C74 C 0.998640 0.312600 0.904660
C75 C 0.942060 0.270100 0.936870
C76 C 0.186350 0.183500 0.653960
C77 C 0.880050 0.388400 0.918210
C78 C 0.125290 0.048800 0.631140
C79 C 0.874710 0.548800 0.868860
C80 C 0.813650 0.683500 0.846040
C81 C 0.119950 -0.111600 0.581790
C82 C 0.813740 0.834100 0.798790
C83 C 0.057940 -0.229900 0.563130
C84 C 0.877170 0.850800 0.772520
C85 C 0.998640 1.187400 0.404660
C86 C 0.001360 -0.187400 0.595340
C87 C 0.835380 1.154300 0.696020
C88 C 0.683640 0.667300 1.021500
C89 C 0.857640 1.285000 0.642580
C90 C 0.620530 0.537200 0.984810
C91 C 0.065210 0.078200 0.660400
C92 C 0.942060 1.229900 0.436870
C93 C 0.612480 0.376300 1.027340
C94 C 0.880050 1.111600 0.418210
C95 C 0.561630 0.927400 0.399180
C96 C 0.548850 0.262000 0.985460
C97 C 0.493750 1.189600 0.400170
C98 C 0.548850 1.238000 0.485460
C99 C 0.493750 0.310400 0.900170
C100 C 0.612480 1.123700 0.527340
C101 C 0.142360 -0.285000 0.357420
C102 C 0.620530 0.962800 0.484810
C103 C 0.683640 0.832700 0.521500
C104 C 0.561630 0.572600 0.899180
C105 C 0.685780 0.680700 0.475980
C106 C 0.164620 -0.154300 0.303980
C107 C 0.622760 0.657700 0.389960
C108 C 0.874710 0.951200 0.368860
C109 C 0.813650 0.816500 0.346040
C110 C 0.667620 0.352500 0.358130
C111 C 0.813740 0.665900 0.298790
C112 C 0.644810 0.215700 0.285260
C113 C 0.122830 0.149200 0.227480
C114 C 0.186260 0.165900 0.201210
C115 C 0.186350 0.316500 0.153960
C116 C 0.355190 0.784300 0.714740
C117 C 0.332380 0.647500 0.641870
C118 C 0.438370 0.427400 0.100820
C119 C 0.877170 0.649200 0.272520
C120 C 0.506250 0.689600 0.099830
C121 C 0.451150 0.738000 0.014540
C122 C 0.125290 0.451200 0.131140
C123 C 0.387520 0.623700 -0.027340
C124 C 0.119950 0.611600 0.081790
C125 C 0.379470 0.462800 0.015190
C126 C 0.316360 0.332700 -0.021500
C127 C 0.057940 0.729900 0.063130
C128 C 0.314220 0.180700 0.024020
C129 C 0.001360 0.687400 0.095340
C130 C 0.377240 0.157700 0.110040
C131 C 0.377240 0.342300 0.610040
C132 C 0.314220 0.319300 0.524020
C133 C 0.332380 -0.147500 0.141870
C134 C 0.835380 0.345700 0.196020
C135 C 0.355190 -0.284300 0.214740
C136 C 0.065210 0.421800 0.160400
C137 C 0.316360 0.167300 0.478500
C138 C 0.379470 0.037200 0.515190
C139 C 0.387520 -0.123700 0.472660
C140 C 0.857640 0.215000 0.142580
C141 C 0.438370 0.072600 0.600820
C142 C 0.451150 -0.238000 0.514540
C143 C 0.506250 -0.189600 0.599830
C144 C 0.164620 0.654300 0.803980
N145 N 0.437240 0.223540 0.647510
N146 N 0.935700 0.772400 0.291720
N147 N 0.117080 0.498800 0.776910
N148 N 0.619210 0.992900 0.837290
N149 N 0.064300 0.272400 0.208280
N150 N 0.935700 0.727600 0.791720
N151 N 0.002970 0.543620 0.142280
N152 N 0.882920 0.501200 0.223090
N153 N 0.380790 0.007100 0.162710
N154 N 0.380790 0.492900 0.662710
N155 N 0.502360 0.545000 0.143200
N156 N 0.437240 0.276460 0.147510
N157 N 0.997030 1.043620 0.357720
N158 N 0.997030 0.456380 0.857720
N159 N 0.882920 0.998800 0.723090
N160 N 0.117080 0.001200 0.276910
N161 N 0.619210 0.507100 0.337290
N162 N 0.002970 -0.043620 0.642280
N163 N 0.562760 0.723540 0.852490
N164 N 0.502360 -0.045000 0.643200
N165 N 0.497640 0.455000 0.856800
N166 N 0.064300 0.227600 0.708280
N167 N 0.497640 1.045000 0.356800
N168 N 0.562760 0.776460 0.352490
O169 O 0.275770 -0.171200 0.070770
O170 O 0.221120 0.682100 0.786010
O171 O 0.724230 1.171200 0.929230
O172 O 0.778880 1.182100 0.713990
O173 O 0.724230 0.328800 0.429230
O174 O 0.778880 0.317900 0.213990
O175 O 0.275770 0.671200 0.570770
O176 O 0.221120 -0.182100 0.286010
Cl177 Cl 1.079970 0.161820 0.929680
Cl178 Cl 0.589040 0.835740 0.153750
Cl179 Cl 0.410960 0.164260 0.846250
Cl180 Cl -0.079970 -0.338180 0.570320
Cl181 Cl 0.589040 -0.335740 0.653750
Cl182 Cl 0.410960 1.335740 0.346250
Cl183 Cl -0.079970 0.838180 0.070320
Cl184 Cl 1.079970 1.338180 0.429680

#END
