./KACGIG_from_xyz.cif_generated_by_CrystalShift
_symmetry_cell_setting triclinic
_symmetry_space_group_name_H-M 'P 1'
loop_
_symmetry_equiv_pos_site_id
_symmetry_equiv_pos_as_xyz
1 x,y,z
_cell_length_a 6.756100
_cell_length_b 14.054000
_cell_length_c 16.203000
_cell_angle_alpha 83.924000
_cell_angle_beta 83.276000
_cell_angle_gamma 79.140000
_cell_volume 1494.985463
loop_
_atom_site_label
_atom_site_type_symbol
_atom_site_fract_x
_atom_site_fract_y
_atom_site_fract_z
S1 S 0.797700 1.031460 -0.199410
S2 S 0.815400 0.262130 0.579110
O3 O 0.541900 1.056800 0.408600
N4 N 0.707400 1.176500 -0.114500
N5 N 0.765300 1.140300 -0.251900
N6 N 0.747400 1.035400 -0.025800
N7 N 0.786700 0.939300 -0.025100
N8 N 0.795000 0.774500 0.159400
N9 N 0.750300 0.867400 0.192100
N10 N 0.714000 0.790100 0.327400
N11 N 0.653900 0.965800 0.299900
N12 N 0.598600 0.891900 0.437700
H13 H 0.559700 0.895700 0.491200
N14 N 0.670100 0.724700 0.462100
N15 N 0.621000 0.735100 0.548300
N16 N 0.745000 0.477200 0.541200
N17 N 0.801400 0.431900 0.472700
N18 N 0.895300 0.161700 0.532000
N19 N 0.905000 0.277900 0.422800
N20 N 0.687600 1.034500 0.139300
H21 H 0.683700 1.078500 0.096300
H22 H 0.660000 1.052800 0.190300
N23 N 0.784700 0.598500 0.372000
H24 H 0.792400 0.640400 0.327800
H25 H 0.817400 0.535700 0.366500
C26 C 0.675000 1.314700 -0.224300
H27 H 0.804500 1.337500 -0.236300
H28 H 0.593300 1.349200 -0.178900
H29 H 0.602100 1.327200 -0.274400
C30 C 0.713500 1.206600 -0.198700
C31 C 0.747200 1.082600 -0.107000
C32 C 0.782600 0.896400 0.055600
C33 C 0.734300 0.942600 0.127400
C34 C 0.816100 0.793100 0.080500
C35 C 0.706900 0.876000 0.277600
C36 C 0.596000 0.977800 0.379800
C37 C 0.663000 0.807000 0.405800
C38 C 0.724000 0.629900 0.446500
C39 C 0.646500 0.645800 0.586000
C40 C 0.709500 0.575700 0.525100
C41 C 0.838100 0.331100 0.486800
C42 C 0.931800 0.180800 0.454300
C43 C 1.014400 0.105600 0.392800
H44 H 1.140000 0.120900 0.362200
H45 H 0.914600 0.106000 0.353500
H46 H 1.042200 0.041000 0.423000
C47 C 0.867000 0.709400 0.021400
C48 C 1.065000 0.720800 -0.031600
H49 H 1.102100 0.668700 -0.069100
H50 H 1.172600 0.717200 0.004900
H51 H 1.047300 0.783900 -0.064500
C52 C 0.896000 0.613000 0.077300
H53 H 0.782700 0.614000 0.121000
H54 H 1.023300 0.605000 0.103000
H55 H 0.901100 0.558700 0.043400
C56 C 0.690000 0.717000 -0.029300
H57 H 0.686100 0.774000 -0.069900
H58 H 0.563900 0.723600 0.008000
H59 H 0.705100 0.658200 -0.058700
C60 C 0.614700 0.631600 0.678300
C61 C 0.806100 0.576500 0.713400
H62 H 0.844600 0.513200 0.690200
H63 H 0.781800 0.566700 0.774200
H64 H 0.915600 0.613900 0.698400
C65 C 0.447700 0.570300 0.705600
H66 H 0.323200 0.601500 0.681000
H67 H 0.421800 0.565400 0.766500
H68 H 0.491900 0.505100 0.686600
C69 C 0.548800 0.730600 0.717500
H70 H 0.659900 0.767500 0.707100
H71 H 0.515100 0.718700 0.777800
H72 H 0.429700 0.767800 0.692300
S73 S 0.202300 -0.031460 1.199410
S74 S 0.184600 0.737870 0.420890
O75 O 0.458100 -0.056800 0.591400
N76 N 0.292600 -0.176500 1.114500
N77 N 0.234700 -0.140300 1.251900
N78 N 0.252600 -0.035400 1.025800
N79 N 0.213300 0.060700 1.025100
N80 N 0.205000 0.225500 0.840600
N81 N 0.249700 0.132600 0.807900
N82 N 0.286000 0.209900 0.672600
N83 N 0.346100 0.034200 0.700100
N84 N 0.401400 0.108100 0.562300
H85 H 0.440300 0.104300 0.508800
N86 N 0.329900 0.275300 0.537900
N87 N 0.379000 0.264900 0.451700
N88 N 0.255000 0.522800 0.458800
N89 N 0.198600 0.568100 0.527300
N90 N 0.104700 0.838300 0.468000
N91 N 0.095000 0.722100 0.577200
N92 N 0.312400 -0.034500 0.860700
H93 H 0.316300 -0.078500 0.903700
H94 H 0.340000 -0.052800 0.809700
N95 N 0.215300 0.401500 0.628000
H96 H 0.207600 0.359600 0.672200
H97 H 0.182600 0.464300 0.633500
C98 C 0.325000 -0.314700 1.224300
H99 H 0.195500 -0.337500 1.236300
H100 H 0.406700 -0.349200 1.178900
H101 H 0.397900 -0.327200 1.274400
C102 C 0.286500 -0.206600 1.198700
C103 C 0.252800 -0.082600 1.107000
C104 C 0.217400 0.103600 0.944400
C105 C 0.265700 0.057400 0.872600
C106 C 0.183900 0.206900 0.919500
C107 C 0.293100 0.124000 0.722400
C108 C 0.404000 0.022200 0.620200
C109 C 0.337000 0.193000 0.594200
C110 C 0.276000 0.370100 0.553500
C111 C 0.353500 0.354200 0.414000
C112 C 0.290500 0.424300 0.474900
C113 C 0.161900 0.668900 0.513200
C114 C 0.068200 0.819200 0.545700
C115 C -0.014400 0.894400 0.607200
H116 H -0.140000 0.879100 0.637800
H117 H 0.085400 0.894000 0.646500
H118 H -0.042200 0.959000 0.577000
C119 C 0.133000 0.290600 0.978600
C120 C -0.065000 0.279200 1.031600
H121 H -0.102100 0.331300 1.069100
H122 H -0.172600 0.282800 0.995100
H123 H -0.047300 0.216100 1.064500
C124 C 0.104000 0.387000 0.922700
H125 H 0.217300 0.386000 0.879000
H126 H -0.023300 0.395000 0.897000
H127 H 0.098900 0.441300 0.956600
C128 C 0.310000 0.283000 1.029300
H129 H 0.313900 0.226000 1.069900
H130 H 0.436100 0.276400 0.992000
H131 H 0.294900 0.341800 1.058700
C132 C 0.385300 0.368400 0.321700
C133 C 0.193900 0.423500 0.286600
H134 H 0.155400 0.486800 0.309800
H135 H 0.218200 0.433300 0.225800
H136 H 0.084400 0.386100 0.301600
C137 C 0.552300 0.429700 0.294400
H138 H 0.676800 0.398500 0.319000
H139 H 0.578200 0.434600 0.233500
H140 H 0.508100 0.494900 0.313400
C141 C 0.451200 0.269400 0.282500
H142 H 0.340100 0.232500 0.292900
H143 H 0.484900 0.281300 0.222200
H144 H 0.570300 0.232200 0.307700

#END
