./KACGEC_from_xyz.cif_generated_by_CrystalShift
_symmetry_cell_setting triclinic
_symmetry_space_group_name_H-M 'P 1'
loop_
_symmetry_equiv_pos_site_id
_symmetry_equiv_pos_as_xyz
1 x,y,z
_cell_length_a 12.353400
_cell_length_b 12.416900
_cell_length_c 14.711200
_cell_angle_alpha 90.757000
_cell_angle_beta 103.464000
_cell_angle_gamma 116.185000
_cell_volume 1951.868053
loop_
_atom_site_label
_atom_site_type_symbol
_atom_site_fract_x
_atom_site_fract_y
_atom_site_fract_z
Gd1 Gd 0.319897 0.390909 -0.032467
N2 N 0.107100 0.350400 -0.008020
O3 O 0.264700 -0.017300 0.433080
C4 C 0.188200 -0.004900 0.485800
H5 H 0.214700 -0.017800 0.549600
H6 H 0.102800 -0.063500 0.458500
H7 H 0.194900 0.075100 0.485400
N8 N 0.135000 0.336100 -0.185690
O9 O 0.397100 -0.057300 0.340400
C10 C 0.239600 -0.001300 0.340000
O11 O 0.269860 0.245350 0.083470
C12 C 0.151400 0.032200 0.294900
H13 H 0.104500 0.049200 0.328700
O14 O 0.234200 0.173600 -0.063110
C15 C 0.131600 0.040900 0.199600
H16 H 0.070400 0.062500 0.169400
O17 O 0.750400 0.547300 0.563300
C18 C 0.201500 0.017900 0.148300
O19 O 0.658700 0.321600 0.505730
C20 C 0.291900 -0.013100 0.194600
H21 H 0.340500 -0.027300 0.161100
O22 O 0.385100 0.517700 0.112760
C23 C 0.312100 -0.023600 0.289300
C24 C 0.483300 -0.067400 0.295500
H25 H 0.537100 -0.092000 0.338300
H26 H 0.532700 0.009500 0.277600
H27 H 0.438100 -0.126600 0.240300
O28 O 0.593610 0.626900 0.156480
O29 O 0.111800 0.736900 -0.367870
C30 C 0.182500 0.029300 0.044900
H31 H 0.093700 -0.013900 0.014000
H32 H 0.223200 -0.010100 0.018800
C33 C 0.231800 0.158200 0.021500
O34 O 0.133400 0.942400 -0.304410
O35 O 0.486490 0.599670 -0.045040
C36 C 0.793200 0.665100 0.604300
H37 H 0.853400 0.680400 0.663800
H38 H 0.724100 0.675500 0.614200
H39 H 0.831800 0.720800 0.563400
O40 O 0.293000 0.570640 -0.086850
C41 C 0.662400 0.507100 0.476700
C42 C 0.620400 0.578400 0.420900
H43 H 0.652600 0.660400 0.441400
C44 C 0.531500 0.528000 0.335600
C45 C 0.483400 0.406700 0.306300
H46 H 0.423200 0.372400 0.249000
C47 C 0.523500 0.334400 0.361300
H48 H 0.489400 0.252100 0.341100
C49 C 0.615100 0.385400 0.447100
C50 C 0.606500 0.194700 0.477200
H51 H 0.644600 0.159800 0.524000
H52 H 0.621800 0.181500 0.418000
H53 H 0.517900 0.157600 0.470400
C54 C 0.484900 0.603800 0.273300
H55 H 0.400000 0.583500 0.274900
H56 H 0.537300 0.689000 0.297300
C57 C 0.487600 0.581100 0.172300
C58 C 0.078700 0.614800 -0.396000
H59 H 0.018100 0.587400 -0.456400
H60 H 0.043500 0.565900 -0.350400
H61 H 0.151800 0.608100 -0.400400
C62 C 0.198800 0.791300 -0.283500
C63 C 0.275400 0.746400 -0.234300
H64 H 0.269100 0.673700 -0.258600
C65 C 0.362400 0.807400 -0.148600
C66 C 0.363600 0.911000 -0.113000
H67 H 0.416300 0.950100 -0.053700
C68 C 0.288500 0.959200 -0.162700
H69 H 0.293400 1.030800 -0.137400
C70 C 0.207400 0.901000 -0.248900
C71 C 0.166600 1.067100 -0.284100
H72 H 0.109200 1.086600 -0.328000
H73 H 0.250000 1.115700 -0.289400
H74 H 0.163000 1.083100 -0.221100
C75 C 0.455500 0.765600 -0.099000
H76 H 0.504600 0.819300 -0.040400
H77 H 0.512200 0.776000 -0.137800
C78 C 0.405800 0.637500 -0.076320
C79 C 0.090800 0.350200 0.077800
H80 H 0.154100 0.354200 0.128600
C81 C -0.019000 0.344300 0.095100
H82 H -0.028800 0.342400 0.155900
C83 C -0.110200 0.341400 0.021600
H84 H -0.182200 0.339700 0.032200
C85 C -0.096800 0.340900 -0.069600
C86 C -0.187800 0.340200 -0.150200
H87 H -0.259000 0.342700 -0.141800
C88 C -0.173400 0.335800 -0.237300
H89 H -0.233900 0.336700 -0.288200
C90 C -0.066300 0.329900 -0.253300
C91 C -0.050000 0.320300 -0.342600
H92 H -0.111600 0.314300 -0.395600
C93 C 0.055700 0.319500 -0.352500
H94 H 0.067500 0.312500 -0.412100
C95 C 0.146700 0.329200 -0.272000
H96 H 0.220100 0.330900 -0.279500
C97 C 0.028400 0.336100 -0.175800
C98 C 0.013600 0.342600 -0.082400
Gd99 Gd 0.680103 0.609091 0.032467
N100 N 0.892900 0.649600 0.008020
O101 O 0.735300 1.017300 -0.433080
C102 C 0.811800 1.004900 -0.485800
H103 H 0.785300 1.017800 -0.549600
H104 H 0.897200 1.063500 -0.458500
H105 H 0.805100 0.924900 -0.485400
N106 N 0.865000 0.663900 0.185690
O107 O 0.602900 1.057300 -0.340400
C108 C 0.760400 1.001300 -0.340000
O109 O 0.730140 0.754650 -0.083470
C110 C 0.848600 0.967800 -0.294900
H111 H 0.895500 0.950800 -0.328700
O112 O 0.765800 0.826400 0.063110
C113 C 0.868400 0.959100 -0.199600
H114 H 0.929600 0.937500 -0.169400
O115 O 0.249600 0.452700 -0.563300
C116 C 0.798500 0.982100 -0.148300
O117 O 0.341300 0.678400 -0.505730
C118 C 0.708100 1.013100 -0.194600
H119 H 0.659500 1.027300 -0.161100
O120 O 0.614900 0.482300 -0.112760
C121 C 0.687900 1.023600 -0.289300
C122 C 0.516700 1.067400 -0.295500
H123 H 0.462900 1.092000 -0.338300
H124 H 0.467300 0.990500 -0.277600
H125 H 0.561900 1.126600 -0.240300
O126 O 0.406390 0.373100 -0.156480
O127 O 0.888200 0.263100 0.367870
C128 C 0.817500 0.970700 -0.044900
H129 H 0.906300 1.013900 -0.014000
H130 H 0.776800 1.010100 -0.018800
C131 C 0.768200 0.841800 -0.021500
O132 O 0.866600 0.057600 0.304410
O133 O 0.513510 0.400330 0.045040
C134 C 0.206800 0.334900 -0.604300
H135 H 0.146600 0.319600 -0.663800
H136 H 0.275900 0.324500 -0.614200
H137 H 0.168200 0.279200 -0.563400
O138 O 0.707000 0.429360 0.086850
C139 C 0.337600 0.492900 -0.476700
C140 C 0.379600 0.421600 -0.420900
H141 H 0.347400 0.339600 -0.441400
C142 C 0.468500 0.472000 -0.335600
C143 C 0.516600 0.593300 -0.306300
H144 H 0.576800 0.627600 -0.249000
C145 C 0.476500 0.665600 -0.361300
H146 H 0.510600 0.747900 -0.341100
C147 C 0.384900 0.614600 -0.447100
C148 C 0.393500 0.805300 -0.477200
H149 H 0.355400 0.840200 -0.524000
H150 H 0.378200 0.818500 -0.418000
H151 H 0.482100 0.842400 -0.470400
C152 C 0.515100 0.396200 -0.273300
H153 H 0.600000 0.416500 -0.274900
H154 H 0.462700 0.311000 -0.297300
C155 C 0.512400 0.418900 -0.172300
C156 C 0.921300 0.385200 0.396000
H157 H 0.981900 0.412600 0.456400
H158 H 0.956500 0.434100 0.350400
H159 H 0.848200 0.391900 0.400400
C160 C 0.801200 0.208700 0.283500
C161 C 0.724600 0.253600 0.234300
H162 H 0.730900 0.326300 0.258600
C163 C 0.637600 0.192600 0.148600
C164 C 0.636400 0.089000 0.113000
H165 H 0.583700 0.049900 0.053700
C166 C 0.711500 0.040800 0.162700
H167 H 0.706600 -0.030800 0.137400
C168 C 0.792600 0.099000 0.248900
C169 C 0.833400 -0.067100 0.284100
H170 H 0.890800 -0.086600 0.328000
H171 H 0.750000 -0.115700 0.289400
H172 H 0.837000 -0.083100 0.221100
C173 C 0.544500 0.234400 0.099000
H174 H 0.495400 0.180700 0.040400
H175 H 0.487800 0.224000 0.137800
C176 C 0.594200 0.362500 0.076320
C177 C 0.909200 0.649800 -0.077800
H178 H 0.845900 0.645800 -0.128600
C179 C 1.019000 0.655700 -0.095100
H180 H 1.028800 0.657600 -0.155900
C181 C 1.110200 0.658600 -0.021600
H182 H 1.182200 0.660300 -0.032200
C183 C 1.096800 0.659100 0.069600
C184 C 1.187800 0.659800 0.150200
H185 H 1.259000 0.657300 0.141800
C186 C 1.173400 0.664200 0.237300
H187 H 1.233900 0.663300 0.288200
C188 C 1.066300 0.670100 0.253300
C189 C 1.050000 0.679700 0.342600
H190 H 1.111600 0.685700 0.395600
C191 C 0.944300 0.680500 0.352500
H192 H 0.932500 0.687500 0.412100
C193 C 0.853300 0.670800 0.272000
H194 H 0.779900 0.669100 0.279500
C195 C 0.971600 0.663900 0.175800
C196 C 0.986400 0.657400 0.082400
Gd197 Gd 0.319897 0.390909 0.967533
N198 N 0.107100 0.350400 0.991980
O199 O 0.264700 -0.017300 1.433080
C200 C 0.188200 -0.004900 1.485800
H201 H 0.214700 -0.017800 1.549600
H202 H 0.102800 -0.063500 1.458500
H203 H 0.194900 0.075100 1.485400
N204 N 0.135000 0.336100 0.814310
O205 O 0.397100 -0.057300 1.340400
C206 C 0.239600 -0.001300 1.340000
O207 O 0.269860 0.245350 1.083470
C208 C 0.151400 0.032200 1.294900
H209 H 0.104500 0.049200 1.328700
O210 O 0.234200 0.173600 0.936890
C211 C 0.131600 0.040900 1.199600
H212 H 0.070400 0.062500 1.169400
O213 O 0.750400 0.547300 1.563300
C214 C 0.201500 0.017900 1.148300
O215 O 0.658700 0.321600 1.505730
C216 C 0.291900 -0.013100 1.194600
H217 H 0.340500 -0.027300 1.161100
O218 O 0.385100 0.517700 1.112760
C219 C 0.312100 -0.023600 1.289300
C220 C 0.483300 -0.067400 1.295500
H221 H 0.537100 -0.092000 1.338300
H222 H 0.532700 0.009500 1.277600
H223 H 0.438100 -0.126600 1.240300
O224 O 0.593610 0.626900 1.156480
O225 O 0.111800 0.736900 0.632130
C226 C 0.182500 0.029300 1.044900
H227 H 0.093700 -0.013900 1.014000
H228 H 0.223200 -0.010100 1.018800
C229 C 0.231800 0.158200 1.021500
O230 O 0.133400 0.942400 0.695590
O231 O 0.486490 0.599670 0.954960
C232 C 0.793200 0.665100 1.604300
H233 H 0.853400 0.680400 1.663800
H234 H 0.724100 0.675500 1.614200
H235 H 0.831800 0.720800 1.563400
O236 O 0.293000 0.570640 0.913150
C237 C 0.662400 0.507100 1.476700
C238 C 0.620400 0.578400 1.420900
H239 H 0.652600 0.660400 1.441400
C240 C 0.531500 0.528000 1.335600
C241 C 0.483400 0.406700 1.306300
H242 H 0.423200 0.372400 1.249000
C243 C 0.523500 0.334400 1.361300
H244 H 0.489400 0.252100 1.341100
C245 C 0.615100 0.385400 1.447100
C246 C 0.606500 0.194700 1.477200
H247 H 0.644600 0.159800 1.524000
H248 H 0.621800 0.181500 1.418000
H249 H 0.517900 0.157600 1.470400
C250 C 0.484900 0.603800 1.273300
H251 H 0.400000 0.583500 1.274900
H252 H 0.537300 0.689000 1.297300
C253 C 0.487600 0.581100 1.172300
C254 C 0.078700 0.614800 0.604000
H255 H 0.018100 0.587400 0.543600
H256 H 0.043500 0.565900 0.649600
H257 H 0.151800 0.608100 0.599600
C258 C 0.198800 0.791300 0.716500
C259 C 0.275400 0.746400 0.765700
H260 H 0.269100 0.673700 0.741400
C261 C 0.362400 0.807400 0.851400
C262 C 0.363600 0.911000 0.887000
H263 H 0.416300 0.950100 0.946300
C264 C 0.288500 0.959200 0.837300
H265 H 0.293400 1.030800 0.862600
C266 C 0.207400 0.901000 0.751100
C267 C 0.166600 1.067100 0.715900
H268 H 0.109200 1.086600 0.672000
H269 H 0.250000 1.115700 0.710600
H270 H 0.163000 1.083100 0.778900
C271 C 0.455500 0.765600 0.901000
H272 H 0.504600 0.819300 0.959600
H273 H 0.512200 0.776000 0.862200
C274 C 0.405800 0.637500 0.923680
C275 C 0.090800 0.350200 1.077800
H276 H 0.154100 0.354200 1.128600
C277 C -0.019000 0.344300 1.095100
H278 H -0.028800 0.342400 1.155900
C279 C -0.110200 0.341400 1.021600
H280 H -0.182200 0.339700 1.032200
C281 C -0.096800 0.340900 0.930400
C282 C -0.187800 0.340200 0.849800
H283 H -0.259000 0.342700 0.858200
C284 C -0.173400 0.335800 0.762700
H285 H -0.233900 0.336700 0.711800
C286 C -0.066300 0.329900 0.746700
C287 C -0.050000 0.320300 0.657400
H288 H -0.111600 0.314300 0.604400
C289 C 0.055700 0.319500 0.647500
H290 H 0.067500 0.312500 0.587900
C291 C 0.146700 0.329200 0.728000
H292 H 0.220100 0.330900 0.720500
C293 C 0.028400 0.336100 0.824200
C294 C 0.013600 0.342600 0.917600
Gd295 Gd 0.680103 0.609091 1.032467
N296 N 0.892900 0.649600 1.008020
O297 O 0.735300 1.017300 0.566920
C298 C 0.811800 1.004900 0.514200
H299 H 0.785300 1.017800 0.450400
H300 H 0.897200 1.063500 0.541500
H301 H 0.805100 0.924900 0.514600
N302 N 0.865000 0.663900 1.185690
O303 O 0.602900 1.057300 0.659600
C304 C 0.760400 1.001300 0.660000
O305 O 0.730140 0.754650 0.916530
C306 C 0.848600 0.967800 0.705100
H307 H 0.895500 0.950800 0.671300
O308 O 0.765800 0.826400 1.063110
C309 C 0.868400 0.959100 0.800400
H310 H 0.929600 0.937500 0.830600
O311 O 0.249600 0.452700 0.436700
C312 C 0.798500 0.982100 0.851700
O313 O 0.341300 0.678400 0.494270
C314 C 0.708100 1.013100 0.805400
H315 H 0.659500 1.027300 0.838900
O316 O 0.614900 0.482300 0.887240
C317 C 0.687900 1.023600 0.710700
C318 C 0.516700 1.067400 0.704500
H319 H 0.462900 1.092000 0.661700
H320 H 0.467300 0.990500 0.722400
H321 H 0.561900 1.126600 0.759700
O322 O 0.406390 0.373100 0.843520
O323 O 0.888200 0.263100 1.367870
C324 C 0.817500 0.970700 0.955100
H325 H 0.906300 1.013900 0.986000
H326 H 0.776800 1.010100 0.981200
C327 C 0.768200 0.841800 0.978500
O328 O 0.866600 0.057600 1.304410
O329 O 0.513510 0.400330 1.045040
C330 C 0.206800 0.334900 0.395700
H331 H 0.146600 0.319600 0.336200
H332 H 0.275900 0.324500 0.385800
H333 H 0.168200 0.279200 0.436600
O334 O 0.707000 0.429360 1.086850
C335 C 0.337600 0.492900 0.523300
C336 C 0.379600 0.421600 0.579100
H337 H 0.347400 0.339600 0.558600
C338 C 0.468500 0.472000 0.664400
C339 C 0.516600 0.593300 0.693700
H340 H 0.576800 0.627600 0.751000
C341 C 0.476500 0.665600 0.638700
H342 H 0.510600 0.747900 0.658900
C343 C 0.384900 0.614600 0.552900
C344 C 0.393500 0.805300 0.522800
H345 H 0.355400 0.840200 0.476000
H346 H 0.378200 0.818500 0.582000
H347 H 0.482100 0.842400 0.529600
C348 C 0.515100 0.396200 0.726700
H349 H 0.600000 0.416500 0.725100
H350 H 0.462700 0.311000 0.702700
C351 C 0.512400 0.418900 0.827700
C352 C 0.921300 0.385200 1.396000
H353 H 0.981900 0.412600 1.456400
H354 H 0.956500 0.434100 1.350400
H355 H 0.848200 0.391900 1.400400
C356 C 0.801200 0.208700 1.283500
C357 C 0.724600 0.253600 1.234300
H358 H 0.730900 0.326300 1.258600
C359 C 0.637600 0.192600 1.148600
C360 C 0.636400 0.089000 1.113000
H361 H 0.583700 0.049900 1.053700
C362 C 0.711500 0.040800 1.162700
H363 H 0.706600 -0.030800 1.137400
C364 C 0.792600 0.099000 1.248900
C365 C 0.833400 -0.067100 1.284100
H366 H 0.890800 -0.086600 1.328000
H367 H 0.750000 -0.115700 1.289400
H368 H 0.837000 -0.083100 1.221100
C369 C 0.544500 0.234400 1.099000
H370 H 0.495400 0.180700 1.040400
H371 H 0.487800 0.224000 1.137800
C372 C 0.594200 0.362500 1.076320
C373 C 0.909200 0.649800 0.922200
H374 H 0.845900 0.645800 0.871400
C375 C 1.019000 0.655700 0.904900
H376 H 1.028800 0.657600 0.844100
C377 C 1.110200 0.658600 0.978400
H378 H 1.182200 0.660300 0.967800
C379 C 1.096800 0.659100 1.069600
C380 C 1.187800 0.659800 1.150200
H381 H 1.259000 0.657300 1.141800
C382 C 1.173400 0.664200 1.237300
H383 H 1.233900 0.663300 1.288200
C384 C 1.066300 0.670100 1.253300
C385 C 1.050000 0.679700 1.342600
H386 H 1.111600 0.685700 1.395600
C387 C 0.944300 0.680500 1.352500
H388 H 0.932500 0.687500 1.412100
C389 C 0.853300 0.670800 1.272000
H390 H 0.779900 0.669100 1.279500
C391 C 0.971600 0.663900 1.175800
C392 C 0.986400 0.657400 1.082400

#END
