./KACGIE_from_xyz.cif_generated_by_CrystalShift
_symmetry_cell_setting triclinic
_symmetry_space_group_name_H-M 'P 1'
loop_
_symmetry_equiv_pos_site_id
_symmetry_equiv_pos_as_xyz
1 x,y,z
_cell_length_a 12.499000
_cell_length_b 12.528000
_cell_length_c 12.039000
_cell_angle_alpha 116.390000
_cell_angle_beta 109.790000
_cell_angle_gamma 98.130000
_cell_volume 1490.636452
loop_
_atom_site_label
_atom_site_type_symbol
_atom_site_fract_x
_atom_site_fract_y
_atom_site_fract_z
Fe1 Fe 0.500000 0.500000 0.500000
P2 P 0.356350 0.582120 0.557880
N3 N 0.484700 0.395000 0.583100
N4 N 0.368800 0.358400 0.316300
C5 C 0.553700 0.426800 0.717000
C6 C 0.518200 0.323400 0.734000
C7 C 0.429100 0.227700 0.610800
C8 C 0.408900 0.272500 0.516700
C9 C 0.326100 0.197500 0.375600
C10 C 0.307600 0.239300 0.283000
C11 C 0.221300 0.164900 0.139600
C12 C 0.225800 0.236700 0.085800
C13 C 0.318500 0.356900 0.193800
C14 C 0.647500 0.541700 0.821900
C15 C 0.254100 0.063400 0.319000
C16 C 0.143400 0.030700 0.313900
C17 C 0.075900 -0.096100 0.255600
C18 C 0.122400 -0.187400 0.204000
C19 C 0.232200 -0.155400 0.211900
C20 C 0.298900 -0.031100 0.269300
C21 C 0.717600 0.555400 0.959100
C22 C 0.816400 0.517000 0.980700
C23 C 0.882000 0.527300 1.106200
C24 C 0.850100 0.579200 1.212400
C25 C 0.752200 0.615500 1.191300
C26 C 0.685400 0.603000 1.065100
C27 C 0.329800 0.705700 0.524700
C28 C 0.237400 0.763900 0.559500
C29 C 0.252900 0.889300 0.574500
C30 C 0.163300 0.949700 0.612700
C31 C 0.398000 0.659100 0.748500
C32 C 0.471700 0.786400 0.839100
C33 C 0.529200 0.850100 1.015100
C34 C 0.440600 0.824900 1.038300
C35 C 0.210000 0.468900 0.496300
C36 C 0.121700 0.414500 0.354800
C37 C 0.003100 0.313400 0.310400
C38 C -0.080600 0.240400 0.167500
H39 H 0.552300 0.322600 0.818800
H40 H 0.386900 0.144900 0.589600
H41 H 0.168800 0.077400 0.090400
H42 H 0.175800 0.212300 -0.008900
H43 H 0.110600 0.096400 0.351400
H44 H -0.003200 -0.118400 0.252100
H45 H 0.076000 -0.275900 0.161500
H46 H 0.265700 -0.221100 0.176600
H47 H 0.378900 -0.010200 0.274500
H48 H 0.840700 0.482100 0.907300
H49 H 0.950500 0.497900 1.119100
H50 H 0.897700 0.589800 1.301400
H51 H 0.728200 0.650500 1.265000
H52 H 0.614500 0.628400 1.051400
H53 H 0.407700 0.775300 0.577900
H54 H 0.303500 0.670400 0.425300
H55 H 0.156200 0.705800 0.485100
H56 H 0.244500 0.773100 0.647100
H57 H 0.334900 0.946700 0.647100
H58 H 0.243700 0.879600 0.486000
H59 H 0.192700 1.039900 0.645300
H60 H 0.084100 0.907300 0.530700
H61 H 0.158800 0.940100 0.686600
H62 H 0.322300 0.651600 0.756500
H63 H 0.439700 0.610700 0.781500
H64 H 0.541100 0.797600 0.818900
H65 H 0.424400 0.836600 0.817100
H66 H 0.587900 0.811600 1.042900
H67 H 0.570400 0.941900 1.063400
H68 H 0.402500 0.889700 1.045800
H69 H 0.383700 0.741600 0.965600
H70 H 0.472900 0.830500 1.128700
H71 H 0.225300 0.398800 0.507300
H72 H 0.173900 0.512300 0.556000
H73 H 0.100900 0.482800 0.343600
H74 H 0.157800 0.374200 0.293600
H75 H 0.026400 0.254300 0.338200
H76 H -0.038900 0.357700 0.361400
H77 H -0.127100 0.290700 0.144400
H78 H -0.036500 0.216700 0.111900
H79 H -0.135800 0.163600 0.148200
P80 P 0.643650 0.417880 0.442120
N81 N 0.515300 0.605000 0.416900
N82 N 0.631200 0.641600 0.683700
C83 C 0.352500 0.458300 0.178100
C84 C 0.681500 0.643100 0.806200
C85 C 0.670200 0.294300 0.475300
C86 C 0.602000 0.340900 0.251500
C87 C 0.790000 0.531100 0.503700
C88 C 0.446300 0.573200 0.283000
C89 C 0.591100 0.727500 0.483300
C90 C 0.692400 0.760700 0.717000
C91 C 0.282400 0.444600 0.040900
C92 C 0.774200 0.763300 0.914200
C93 C 0.762600 0.236100 0.440500
H94 H 0.592300 0.224700 0.422100
H95 H 0.696500 0.329600 0.574700
C96 C 0.528300 0.213600 0.160900
H97 H 0.677700 0.348400 0.243500
H98 H 0.560300 0.389300 0.218500
C99 C 0.878300 0.585500 0.645200
H100 H 0.774700 0.601200 0.492700
H101 H 0.826100 0.487700 0.444000
C102 C 0.481800 0.676600 0.266000
C103 C 0.570900 0.772300 0.389200
C104 C 0.673900 0.802500 0.624400
C105 C 0.778700 0.835100 0.860400
C106 C 0.183600 0.483000 0.019300
C107 C 0.314600 0.397000 -0.065100
H108 H 0.824200 0.787700 1.008900
C109 C 0.747100 0.110700 0.425500
H110 H 0.843800 0.294200 0.514900
H111 H 0.755500 0.226900 0.352900
C112 C 0.470800 0.149900 -0.015100
H113 H 0.458900 0.202400 0.181100
H114 H 0.575600 0.163400 0.182900
C115 C 0.996900 0.686600 0.689600
H116 H 0.899100 0.517200 0.656400
H117 H 0.842200 0.625800 0.706400
H118 H 0.447700 0.677400 0.181200
H119 H 0.613100 0.855100 0.410400
C120 C 0.745900 0.936600 0.681000
H121 H 0.831200 0.922600 0.909600
C122 C 0.118000 0.472700 -0.106200
H123 H 0.159300 0.517900 0.092700
C124 C 0.247800 0.384500 -0.191300
H125 H 0.385500 0.371600 -0.051400
C126 C 0.836700 0.050300 0.387300
H127 H 0.665100 0.053300 0.352900
H128 H 0.756300 0.120400 0.514000
C129 C 0.559400 0.175100 -0.038300
H130 H 0.412100 0.188400 -0.042900
H131 H 0.429600 0.058100 -0.063400
C132 C 1.080600 0.759600 0.832500
H133 H 0.973600 0.745700 0.661800
H134 H 1.038900 0.642300 0.638600
C135 C 0.856600 0.969300 0.686100
C136 C 0.701100 1.031100 0.730700
C137 C 0.149900 0.420800 -0.212400
H138 H 0.049500 0.502100 -0.119100
H139 H 0.271800 0.349500 -0.265000
H140 H 0.807300 -0.039900 0.354700
H141 H 0.915900 0.092700 0.469300
H142 H 0.841200 0.059900 0.313400
H143 H 0.597500 0.110300 -0.045800
H144 H 0.616300 0.258400 0.034400
H145 H 0.527100 0.169500 -0.128700
H146 H 1.127100 0.709300 0.855600
H147 H 1.036500 0.783300 0.888100
H148 H 1.135800 0.836400 0.851800
C149 C 0.924100 1.096100 0.744400
H150 H 0.889400 0.903600 0.648600
C151 C 0.767800 1.155400 0.788100
H152 H 0.621100 1.010200 0.725500
H153 H 0.102300 0.410200 -0.301400
C154 C 0.877600 1.187400 0.796000
H155 H 1.003200 1.118400 0.747900
H156 H 0.734300 1.221100 0.823400
H157 H 0.924000 1.275900 0.838500

#END
