
#######################################################################
#
#                 Cambridge Crystallographic Data Centre
#                                CCDC 
#
#######################################################################
#
# If this CIF has been generated from an entry in the Cambridge 
# Structural Database, then it will include bibliographic, chemical, 
# crystal, experimental, refinement or atomic coordinate data resulting 
# from the CCDC's data processing and validation procedures.
#
#######################################################################

data_KACGIG
_symmetry_cell_setting           triclinic
_symmetry_space_group_name_H-M   'P -1'
_symmetry_Int_Tables_number      2
_space_group_name_Hall           '-P 1'
loop_
_symmetry_equiv_pos_site_id
_symmetry_equiv_pos_as_xyz
1 x,y,z
2 -x,-y,-z
_cell_length_a                   6.7561(12)
_cell_length_b                   14.054(2)
_cell_length_c                   16.203(3)
_cell_angle_alpha                83.924(6)
_cell_angle_beta                 83.276(7)
_cell_angle_gamma                79.140(7)
_cell_volume                     1494.99
loop_
_atom_site_label
_atom_site_type_symbol
_atom_site_fract_x
_atom_site_fract_y
_atom_site_fract_z
S1 S 0.7977(5) 1.03146(18) -0.19941(17)
S2 S 0.8154(5) 0.26213(17) 0.57911(17)
O1 O 0.5419(11) 1.0568(4) 0.4086(4)
N1 N 0.7074(14) 1.1765(6) -0.1145(6)
N2 N 0.7653(15) 1.1403(6) -0.2519(5)
N3 N 0.7474(15) 1.0354(6) -0.0258(6)
N4 N 0.7867(13) 0.9393(6) -0.0251(5)
N5 N 0.7950(14) 0.7745(5) 0.1594(6)
N6 N 0.7503(13) 0.8674(6) 0.1921(6)
N7 N 0.7140(13) 0.7901(5) 0.3274(5)
N8 N 0.6539(13) 0.9658(5) 0.2999(5)
N9 N 0.5986(13) 0.8919(5) 0.4377(5)
H1 H 0.5597 0.8957 0.4912
N10 N 0.6701(13) 0.7247(5) 0.4621(6)
N11 N 0.6210(13) 0.7351(5) 0.5483(5)
N12 N 0.7450(12) 0.4772(5) 0.5412(5)
N13 N 0.8014(12) 0.4319(5) 0.4727(5)
N14 N 0.8953(13) 0.1617(5) 0.5320(5)
N15 N 0.9050(13) 0.2779(5) 0.4228(5)
N16 N 0.6876(13) 1.0345(5) 0.1393(5)
H2 H 0.6837 1.0785 0.0963
H3 H 0.6600 1.0528 0.1903
N17 N 0.7847(13) 0.5985(5) 0.3720(5)
H4 H 0.7924 0.6404 0.3278
H5 H 0.8174 0.5357 0.3665
C1 C 0.675(2) 1.3147(6) -0.2243(6)
H6 H 0.8045 1.3375 -0.2363
H7 H 0.5933 1.3492 -0.1789
H8 H 0.6021 1.3272 -0.2744
C2 C 0.7135(18) 1.2066(7) -0.1987(7)
C3 C 0.7472(17) 1.0826(8) -0.1070(7)
C4 C 0.7826(17) 0.8964(7) 0.0556(8)
C5 C 0.7343(16) 0.9426(8) 0.1274(7)
C6 C 0.8161(18) 0.7931(7) 0.0805(7)
C7 C 0.7069(16) 0.8760(8) 0.2776(8)
C8 C 0.5960(17) 0.9778(8) 0.3798(7)
C9 C 0.6630(16) 0.8070(8) 0.4058(7)
C10 C 0.7240(15) 0.6299(7) 0.4465(7)
C11 C 0.6465(16) 0.6458(6) 0.5860(6)
C12 C 0.7095(15) 0.5757(7) 0.5251(6)
C13 C 0.8381(17) 0.3311(7) 0.4868(6)
C14 C 0.9318(17) 0.1808(7) 0.4543(8)
C15 C 1.0144(18) 0.1056(6) 0.3928(6)
H9 H 1.1400 0.1209 0.3622
H10 H 0.9146 0.1060 0.3535
H11 H 1.0422 0.0410 0.4230
C16 C 0.867(3) 0.7094(7) 0.0214(8)
C17 C 1.065(2) 0.7208(7) -0.0316(7)
H12 H 1.1021 0.6687 -0.0691
H13 H 1.1726 0.7172 0.0049
H14 H 1.0473 0.7839 -0.0645
C18 C 0.896(2) 0.6130(6) 0.0773(6)
H15 H 0.7827 0.6140 0.1210
H16 H 1.0233 0.6050 0.1030
H17 H 0.9011 0.5587 0.0434
C19 C 0.690(2) 0.7170(7) -0.0293(7)
H18 H 0.6861 0.7740 -0.0699
H19 H 0.5639 0.7236 0.0080
H20 H 0.7051 0.6582 -0.0587
C20 C 0.6147(19) 0.6316(7) 0.6783(6)
C21 C 0.8061(17) 0.5765(6) 0.7134(6)
H21 H 0.8446 0.5132 0.6902
H22 H 0.7818 0.5667 0.7742
H23 H 0.9156 0.6139 0.6984
C22 C 0.4477(17) 0.5703(7) 0.7056(6)
H24 H 0.3232 0.6015 0.6810
H25 H 0.4218 0.5654 0.7665
H26 H 0.4919 0.5051 0.6866
C23 C 0.5488(18) 0.7306(6) 0.7175(5)
H27 H 0.6599 0.7675 0.7071
H28 H 0.5151 0.7187 0.7778
H29 H 0.4297 0.7678 0.6923
S1 S 0.2023(5) -0.03146(18) 1.19941(17)
S2 S 0.1846(5) 0.73787(17) 0.42089(17)
O1 O 0.4581(11) -0.0568(4) 0.5914(4)
N1 N 0.2926(14) -0.1765(6) 1.1145(6)
N2 N 0.2347(15) -0.1403(6) 1.2519(5)
N3 N 0.2526(15) -0.0354(6) 1.0258(6)
N4 N 0.2133(13) 0.0607(6) 1.0251(5)
N5 N 0.2050(14) 0.2255(5) 0.8406(6)
N6 N 0.2497(13) 0.1326(6) 0.8079(6)
N7 N 0.2860(13) 0.2099(5) 0.6726(5)
N8 N 0.3461(13) 0.0342(5) 0.7001(5)
N9 N 0.4014(13) 0.1081(5) 0.5623(5)
H1 H 0.4403 0.1043 0.5088
N10 N 0.3299(13) 0.2753(5) 0.5379(6)
N11 N 0.3790(13) 0.2649(5) 0.4517(5)
N12 N 0.2550(12) 0.5228(5) 0.4588(5)
N13 N 0.1986(12) 0.5681(5) 0.5273(5)
N14 N 0.1047(13) 0.8383(5) 0.4680(5)
N15 N 0.0950(13) 0.7221(5) 0.5772(5)
N16 N 0.3124(13) -0.0345(5) 0.8607(5)
H2 H 0.3163 -0.0785 0.9037
H3 H 0.3400 -0.0528 0.8097
N17 N 0.2153(13) 0.4015(5) 0.6280(5)
H4 H 0.2076 0.3596 0.6722
H5 H 0.1826 0.4643 0.6335
C1 C 0.325(2) -0.3147(6) 1.2243(6)
H6 H 0.1955 -0.3375 1.2363
H7 H 0.4067 -0.3492 1.1789
H8 H 0.3979 -0.3272 1.2744
C2 C 0.2865(18) -0.2066(7) 1.1987(7)
C3 C 0.2528(17) -0.0826(8) 1.1070(7)
C4 C 0.2174(17) 0.1036(7) 0.9444(8)
C5 C 0.2657(16) 0.0574(8) 0.8726(7)
C6 C 0.1839(18) 0.2069(7) 0.9195(7)
C7 C 0.2931(16) 0.1240(8) 0.7224(8)
C8 C 0.4040(17) 0.0222(8) 0.6202(7)
C9 C 0.3370(16) 0.1930(8) 0.5942(7)
C10 C 0.2760(15) 0.3701(7) 0.5535(7)
C11 C 0.3535(16) 0.3542(6) 0.4140(6)
C12 C 0.2905(15) 0.4243(7) 0.4749(6)
C13 C 0.1619(17) 0.6689(7) 0.5132(6)
C14 C 0.0682(17) 0.8192(7) 0.5457(8)
C15 C -0.0144(18) 0.8944(6) 0.6072(6)
H9 H -0.1400 0.8791 0.6378
H10 H 0.0854 0.8940 0.6465
H11 H -0.0422 0.9590 0.5770
C16 C 0.133(3) 0.2906(7) 0.9786(8)
C17 C -0.065(2) 0.2792(7) 1.0316(7)
H12 H -0.1021 0.3313 1.0691
H13 H -0.1726 0.2828 0.9951
H14 H -0.0473 0.2161 1.0645
C18 C 0.104(2) 0.3870(6) 0.9227(6)
H15 H 0.2173 0.3860 0.8790
H16 H -0.0233 0.3950 0.8970
H17 H 0.0989 0.4413 0.9566
C19 C 0.310(2) 0.2830(7) 1.0293(7)
H18 H 0.3139 0.2260 1.0699
H19 H 0.4361 0.2764 0.9920
H20 H 0.2949 0.3418 1.0587
C20 C 0.3853(19) 0.3684(7) 0.3217(6)
C21 C 0.1939(17) 0.4235(6) 0.2866(6)
H21 H 0.1554 0.4868 0.3098
H22 H 0.2182 0.4333 0.2258
H23 H 0.0844 0.3861 0.3016
C22 C 0.5523(17) 0.4297(7) 0.2944(6)
H24 H 0.6768 0.3985 0.3190
H25 H 0.5782 0.4346 0.2335
H26 H 0.5081 0.4949 0.3134
C23 C 0.4512(18) 0.2694(6) 0.2825(5)
H27 H 0.3401 0.2325 0.2929
H28 H 0.4849 0.2813 0.2222
H29 H 0.5703 0.2322 0.3077

#END
