
#######################################################################
#
#                 Cambridge Crystallographic Data Centre
#                                CCDC 
#
#######################################################################
#
# If this CIF has been generated from an entry in the Cambridge 
# Structural Database, then it will include bibliographic, chemical, 
# crystal, experimental, refinement or atomic coordinate data resulting 
# from the CCDC's data processing and validation procedures.
#
#######################################################################

data_KACGEB
_symmetry_cell_setting           triclinic
_symmetry_space_group_name_H-M   'P -1'
_symmetry_Int_Tables_number      2
_space_group_name_Hall           '-P 1'
loop_
_symmetry_equiv_pos_site_id
_symmetry_equiv_pos_as_xyz
1 x,y,z
2 -x,-y,-z
_cell_length_a                   8.337(3)
_cell_length_b                   9.142(3)
_cell_length_c                   12.414(5)
_cell_angle_alpha                98.71(2)
_cell_angle_beta                 103.99(3)
_cell_angle_gamma                89.99(2)
_cell_volume                     906.848
loop_
_atom_site_label
_atom_site_type_symbol
_atom_site_fract_x
_atom_site_fract_y
_atom_site_fract_z
Pd1 Pd 0.34308(8) 0.35264(7) 0.81265(5)
Se1 Se 0.55694(13) 0.41774(11) 0.72750(9)
Cl1 Cl 0.1501(4) 0.2667(3) 0.9007(2)
Cl2 Cl 0.3596(5) 0.1211(3) 0.7200(3)
N1 N 0.3289(9) 0.5706(8) 0.8825(6)
P1 P 0.4566(3) 0.6322(2) 0.71383(17)
C1 C 0.2634(13) 0.6109(12) 0.9730(8)
H1 H 0.2246 0.5361 1.0043
C2 C 0.2515(14) 0.7528(12) 1.0201(8)
H2 H 0.2088 0.7729 1.0832
C3 C 0.3020(13) 0.8658(13) 0.9750(9)
H3 H 0.2925 0.9637 1.0058
C4 C 0.3682(12) 0.8324(10) 0.8818(8)
H4 H 0.4047 0.9076 0.8497
C5 C 0.3787(11) 0.6842(9) 0.8373(7)
C6 C 0.2855(10) 0.6341(10) 0.5914(7)
C7 C 0.1915(12) 0.7546(11) 0.5815(8)
H5 H 0.2094 0.8343 0.6398
C8 C 0.0685(13) 0.7587(15) 0.4841(10)
H6 H 0.0041 0.8413 0.4761
C9 C 0.0437(12) 0.6387(16) 0.3998(9)
H7 H -0.0377 0.6410 0.3340
C10 C 0.1344(14) 0.5188(17) 0.4105(9)
H8 H 0.1151 0.4388 0.3525
C11 C 0.2563(11) 0.5128(11) 0.5068(7)
H9 H 0.3181 0.4287 0.5148
C12 C 0.6126(11) 0.7695(10) 0.7097(7)
C13 C 0.7413(13) 0.8041(11) 0.8031(8)
H10 H 0.7459 0.7596 0.8663
C14 C 0.8651(13) 0.9062(13) 0.8026(10)
H11 H 0.9533 0.9291 0.8653
C15 C 0.8569(15) 0.9731(13) 0.7095(11)
H12 H 0.9378 1.0430 0.7090
C16 C 0.7277(14) 0.9350(14) 0.6177(10)
H13 H 0.7242 0.9775 0.5537
C17 C 0.6009(12) 0.8349(10) 0.6162(8)
H14 H 0.5117 0.8133 0.5540
Pd1 Pd 0.65692(8) 0.64736(7) 0.18735(5)
Se1 Se 0.44306(13) 0.58226(11) 0.27250(9)
Cl1 Cl 0.8499(4) 0.7333(3) 0.0993(2)
Cl2 Cl 0.6404(5) 0.8789(3) 0.2800(3)
N1 N 0.6711(9) 0.4294(8) 0.1175(6)
P1 P 0.5434(3) 0.3678(2) 0.28617(17)
C1 C 0.7366(13) 0.3891(12) 0.0270(8)
H1 H 0.7754 0.4639 -0.0043
C2 C 0.7485(14) 0.2472(12) -0.0201(8)
H2 H 0.7912 0.2271 -0.0832
C3 C 0.6980(13) 0.1342(13) 0.0250(9)
H3 H 0.7075 0.0363 -0.0058
C4 C 0.6318(12) 0.1676(10) 0.1182(8)
H4 H 0.5953 0.0924 0.1503
C5 C 0.6213(11) 0.3158(9) 0.1627(7)
C6 C 0.7145(10) 0.3659(10) 0.4086(7)
C7 C 0.8085(12) 0.2454(11) 0.4185(8)
H5 H 0.7906 0.1657 0.3602
C8 C 0.9315(13) 0.2413(15) 0.5159(10)
H6 H 0.9959 0.1587 0.5239
C9 C 0.9563(12) 0.3613(16) 0.6002(9)
H7 H 1.0377 0.3590 0.6660
C10 C 0.8656(14) 0.4812(17) 0.5895(9)
H8 H 0.8849 0.5612 0.6475
C11 C 0.7437(11) 0.4872(11) 0.4932(7)
H9 H 0.6819 0.5713 0.4852
C12 C 0.3874(11) 0.2305(10) 0.2903(7)
C13 C 0.2587(13) 0.1959(11) 0.1969(8)
H10 H 0.2541 0.2404 0.1337
C14 C 0.1349(13) 0.0938(13) 0.1974(10)
H11 H 0.0467 0.0709 0.1347
C15 C 0.1431(15) 0.0269(13) 0.2905(11)
H12 H 0.0622 -0.0430 0.2910
C16 C 0.2723(14) 0.0650(14) 0.3823(10)
H13 H 0.2758 0.0225 0.4463
C17 C 0.3991(12) 0.1651(10) 0.3838(8)
H14 H 0.4883 0.1867 0.4460

#END
