
#######################################################################
#
#                 Cambridge Crystallographic Data Centre
#                                CCDC 
#
#######################################################################
#
# If this CIF has been generated from an entry in the Cambridge 
# Structural Database, then it will include bibliographic, chemical, 
# crystal, experimental, refinement or atomic coordinate data resulting 
# from the CCDC's data processing and validation procedures.
#
#######################################################################

data_KACGON
_symmetry_cell_setting           triclinic
_symmetry_space_group_name_H-M   'P -1'
_symmetry_Int_Tables_number      2
_space_group_name_Hall           '-P 1'
loop_
_symmetry_equiv_pos_site_id
_symmetry_equiv_pos_as_xyz
1 x,y,z
2 -x,-y,-z
_cell_length_a                   7.0645(3)
_cell_length_b                   8.5088(4)
_cell_length_c                   16.3254(7)
_cell_angle_alpha                98.908(2)
_cell_angle_beta                 96.316(2)
_cell_angle_gamma                103.939(2)
_cell_volume                     929.77
loop_
_atom_site_label
_atom_site_type_symbol
_atom_site_fract_x
_atom_site_fract_y
_atom_site_fract_z
O1 O -0.0328(3) 0.2831(2) 0.29367(11)
O2 O -0.1701(2) 0.3839(2) 0.43116(12)
O3 O 0.3455(2) 0.3141(2) 0.31970(13)
C1 C 0.0339(3) 0.0484(3) 0.34223(14)
C2 C 0.1950(3) 0.0280(3) 0.29942(14)
C3 C 0.3436(3) 0.1605(3) 0.28189(15)
C4 C -0.0777(3) -0.0831(3) 0.37120(15)
O4 O 0.6406(3) -0.0445(3) 0.16201(14)
C5 C 0.4826(3) 0.1285(3) 0.23468(16)
H1 H 0.5722 0.2156 0.2203
C6 C -0.0433(3) 0.1974(3) 0.34651(15)
C7 C -0.2314(4) -0.0605(3) 0.42443(16)
C8 C -0.1611(3) 0.2276(3) 0.41580(15)
C9 C 0.4924(4) -0.0338(3) 0.20741(16)
C10 C 0.2179(3) -0.1339(3) 0.27644(15)
C11 C 0.3653(4) -0.1631(3) 0.22922(16)
H2 H 0.3759 -0.2699 0.2130
C12 C -0.2552(4) 0.1034(3) 0.44967(16)
H3 H -0.3359 0.1224 0.4894
C13 C -0.0454(4) -0.2407(3) 0.35182(17)
H4 H -0.1188 -0.3279 0.3725
C14 C 0.0921(4) -0.2660(3) 0.30315(17)
H5 H 0.1039 -0.3725 0.2870
O5 O -0.3305(3) -0.1791(2) 0.44863(15)
C15 C -0.2859(4) 0.4270(3) 0.49388(18)
H6 H -0.4203 0.3627 0.4773
H7 H -0.2807 0.5420 0.4997
H8 H -0.2339 0.4052 0.5466
C16 C 0.4753(4) 0.4499(3) 0.29680(19)
H9 H 0.6087 0.4424 0.3083
H10 H 0.4631 0.5508 0.3286
H11 H 0.4419 0.4484 0.2380
C17 C 0.6716(6) -0.2029(4) 0.1366(2)
H12 H 0.6924 -0.2514 0.1850
H13 H 0.7855 -0.1919 0.1086
H14 H 0.5579 -0.2721 0.0989
O1 O 1.0328(3) 0.7169(2) 0.70633(11)
O2 O 1.1701(2) 0.6161(2) 0.56884(12)
O3 O 0.6545(2) 0.6859(2) 0.68030(13)
C1 C 0.9661(3) 0.9516(3) 0.65777(14)
C2 C 0.8050(3) 0.9720(3) 0.70058(14)
C3 C 0.6564(3) 0.8395(3) 0.71811(15)
C4 C 1.0777(3) 1.0831(3) 0.62880(15)
O4 O 0.3594(3) 1.0445(3) 0.83799(14)
C5 C 0.5174(3) 0.8715(3) 0.76532(16)
H1 H 0.4278 0.7844 0.7797
C6 C 1.0433(3) 0.8026(3) 0.65349(15)
C7 C 1.2314(4) 1.0605(3) 0.57557(16)
C8 C 1.1611(3) 0.7724(3) 0.58420(15)
C9 C 0.5076(4) 1.0338(3) 0.79259(16)
C10 C 0.7821(3) 1.1339(3) 0.72356(15)
C11 C 0.6347(4) 1.1631(3) 0.77078(16)
H2 H 0.6241 1.2699 0.7870
C12 C 1.2552(4) 0.8966(3) 0.55033(16)
H3 H 1.3359 0.8776 0.5106
C13 C 1.0454(4) 1.2407(3) 0.64818(17)
H4 H 1.1188 1.3279 0.6275
C14 C 0.9079(4) 1.2660(3) 0.69685(17)
H5 H 0.8961 1.3725 0.7130
O5 O 1.3305(3) 1.1791(2) 0.55137(15)
C15 C 1.2859(4) 0.5730(3) 0.50612(18)
H6 H 1.4203 0.6373 0.5227
H7 H 1.2807 0.4580 0.5003
H8 H 1.2339 0.5948 0.4534
C16 C 0.5247(4) 0.5501(3) 0.70320(19)
H9 H 0.3913 0.5576 0.6917
H10 H 0.5369 0.4492 0.6714
H11 H 0.5581 0.5516 0.7620
C17 C 0.3284(6) 1.2029(4) 0.8634(2)
H12 H 0.3076 1.2514 0.8150
H13 H 0.2145 1.1919 0.8914
H14 H 0.4421 1.2721 0.9011
C18 C 0.9057(5) 0.2617(4) 0.0859(2)
H15 H 0.8928 0.1920 0.1285
Cl1 Cl 0.8215(10) 0.1475(8) -0.0125(3)
Cl2 Cl 1.1500(11) 0.3575(18) 0.0845(5)
Cl3 Cl 0.7740(18) 0.4069(11) 0.1016(6)
C18 C 0.0943(5) 0.7383(4) 0.9141(2)
H15 H 0.1072 0.8080 0.8715
Cl1 Cl 0.1785(10) 0.8525(8) 1.0125(3)
Cl2 Cl -0.1500(11) 0.6425(18) 0.9155(5)
Cl3 Cl 0.2260(18) 0.5931(11) 0.8984(6)
Cl4? Cl 0.7688(17) 0.1317(9) -0.0055(4)
Cl5? Cl 1.1569(7) 0.3067(12) 0.0852(4)
Cl6? Cl 0.847(2) 0.4454(12) 0.1091(6)
Cl4? Cl 0.2312(17) 0.8683(9) 1.0055(4)
Cl5? Cl -0.1569(7) 0.6933(12) 0.9148(4)
Cl6? Cl 0.153(2) 0.5546(12) 0.8909(6)

#END
