./KACGEB_from_xyz.cif_generated_by_CrystalShift
_symmetry_cell_setting triclinic
_symmetry_space_group_name_H-M 'P 1'
loop_
_symmetry_equiv_pos_site_id
_symmetry_equiv_pos_as_xyz
1 x,y,z
_cell_length_a 8.337000
_cell_length_b 9.142000
_cell_length_c 12.414000
_cell_angle_alpha 98.710000
_cell_angle_beta 103.990000
_cell_angle_gamma 89.990000
_cell_volume 906.848174
loop_
_atom_site_label
_atom_site_type_symbol
_atom_site_fract_x
_atom_site_fract_y
_atom_site_fract_z
Pd1 Pd 0.343080 0.352640 0.812650
Se2 Se 0.556940 0.417740 0.727500
Cl3 Cl 0.150100 0.266700 0.900700
Cl4 Cl 0.359600 0.121100 0.720000
N5 N 0.328900 0.570600 0.882500
P6 P 0.456600 0.632200 0.713830
C7 C 0.263400 0.610900 0.973000
H8 H 0.224600 0.536100 1.004300
C9 C 0.251500 0.752800 1.020100
H10 H 0.208800 0.772900 1.083200
C11 C 0.302000 0.865800 0.975000
H12 H 0.292500 0.963700 1.005800
C13 C 0.368200 0.832400 0.881800
H14 H 0.404700 0.907600 0.849700
C15 C 0.378700 0.684200 0.837300
C16 C 0.285500 0.634100 0.591400
C17 C 0.191500 0.754600 0.581500
H18 H 0.209400 0.834300 0.639800
C19 C 0.068500 0.758700 0.484100
H20 H 0.004100 0.841300 0.476100
C21 C 0.043700 0.638700 0.399800
H22 H -0.037700 0.641000 0.334000
C23 C 0.134400 0.518800 0.410500
H24 H 0.115100 0.438800 0.352500
C25 C 0.256300 0.512800 0.506800
H26 H 0.318100 0.428700 0.514800
C27 C 0.612600 0.769500 0.709700
C28 C 0.741300 0.804100 0.803100
H29 H 0.745900 0.759600 0.866300
C30 C 0.865100 0.906200 0.802600
H31 H 0.953300 0.929100 0.865300
C32 C 0.856900 0.973100 0.709500
H33 H 0.937800 1.043000 0.709000
C34 C 0.727700 0.935000 0.617700
H35 H 0.724200 0.977500 0.553700
C36 C 0.600900 0.834900 0.616200
H37 H 0.511700 0.813300 0.554000
Pd38 Pd 0.656920 0.647360 0.187350
Se39 Se 0.443060 0.582260 0.272500
Cl40 Cl 0.849900 0.733300 0.099300
Cl41 Cl 0.640400 0.878900 0.280000
N42 N 0.671100 0.429400 0.117500
P43 P 0.543400 0.367800 0.286170
C44 C 0.736600 0.389100 0.027000
H45 H 0.775400 0.463900 -0.004300
C46 C 0.748500 0.247200 -0.020100
H47 H 0.791200 0.227100 -0.083200
C48 C 0.698000 0.134200 0.025000
H49 H 0.707500 0.036300 -0.005800
C50 C 0.631800 0.167600 0.118200
H51 H 0.595300 0.092400 0.150300
C52 C 0.621300 0.315800 0.162700
C53 C 0.714500 0.365900 0.408600
C54 C 0.808500 0.245400 0.418500
H55 H 0.790600 0.165700 0.360200
C56 C 0.931500 0.241300 0.515900
H57 H 0.995900 0.158700 0.523900
C58 C 0.956300 0.361300 0.600200
H59 H 1.037700 0.359000 0.666000
C60 C 0.865600 0.481200 0.589500
H61 H 0.884900 0.561200 0.647500
C62 C 0.743700 0.487200 0.493200
H63 H 0.681900 0.571300 0.485200
C64 C 0.387400 0.230500 0.290300
C65 C 0.258700 0.195900 0.196900
H66 H 0.254100 0.240400 0.133700
C67 C 0.134900 0.093800 0.197400
H68 H 0.046700 0.070900 0.134700
C69 C 0.143100 0.026900 0.290500
H70 H 0.062200 -0.043000 0.291000
C71 C 0.272300 0.065000 0.382300
H72 H 0.275800 0.022500 0.446300
C73 C 0.399100 0.165100 0.383800
H74 H 0.488300 0.186700 0.446000

#END
