
#######################################################################
#
#                 Cambridge Crystallographic Data Centre
#                                CCDC 
#
#######################################################################
#
# If this CIF has been generated from an entry in the Cambridge 
# Structural Database, then it will include bibliographic, chemical, 
# crystal, experimental, refinement or atomic coordinate data resulting 
# from the CCDC's data processing and validation procedures.
#
#######################################################################

data_KACGIE
_symmetry_cell_setting           triclinic
_symmetry_space_group_name_H-M   'P -1'
_symmetry_Int_Tables_number      2
_space_group_name_Hall           '-P 1'
loop_
_symmetry_equiv_pos_site_id
_symmetry_equiv_pos_as_xyz
1 x,y,z
2 -x,-y,-z
_cell_length_a                   12.499(3)
_cell_length_b                   12.528(2)
_cell_length_c                   12.039(2)
_cell_angle_alpha                116.39(1)
_cell_angle_beta                 109.79(1)
_cell_angle_gamma                98.13(1)
_cell_volume                     1490.64
loop_
_atom_site_label
_atom_site_type_symbol
_atom_site_fract_x
_atom_site_fract_y
_atom_site_fract_z
Fe1 Fe 0.50000 0.50000 0.50000
P1 P 0.35635(10) 0.58212(10) 0.55788(12)
N1 N 0.4847(3) 0.3950(3) 0.5831(3)
N2 N 0.3688(3) 0.3584(3) 0.3163(3)
C1 C 0.5537(3) 0.4268(4) 0.7170(4)
C2 C 0.5182(4) 0.3234(4) 0.7340(4)
C3 C 0.4291(4) 0.2277(4) 0.6108(4)
C4 C 0.4089(3) 0.2725(3) 0.5167(4)
C5 C 0.3261(3) 0.1975(4) 0.3756(4)
C6 C 0.3076(4) 0.2393(4) 0.2830(4)
C7 C 0.2213(4) 0.1649(4) 0.1396(4)
C8 C 0.2258(4) 0.2367(4) 0.0858(4)
C9 C 0.3185(4) 0.3569(4) 0.1938(4)
C10 C 0.6475(3) 0.5417(4) 0.8219(4)
C11 C 0.2541(4) 0.0634(4) 0.3190(4)
C12 C 0.1434(4) 0.0307(4) 0.3139(6)
C13 C 0.0759(5) -0.0961(6) 0.2556(7)
C14 C 0.1224(7) -0.1874(5) 0.2040(6)
C15 C 0.2322(7) -0.1554(5) 0.2119(8)
C16 C 0.2989(6) -0.0311(5) 0.2693(7)
C17 C 0.7176(4) 0.5554(4) 0.9591(4)
C18 C 0.8164(4) 0.5170(5) 0.9807(5)
C19 C 0.8820(4) 0.5273(6) 1.1062(6)
C20 C 0.8501(5) 0.5792(6) 1.2124(6)
C21 C 0.7522(7) 0.6155(6) 1.1913(6)
C22 C 0.6854(5) 0.6030(6) 1.0651(5)
C23 C 0.3298(4) 0.7057(5) 0.5247(5)
C24 C 0.2374(5) 0.7639(5) 0.5595(6)
C25 C 0.2529(6) 0.8893(6) 0.5745(7)
C26 C 0.1633(8) 0.9497(7) 0.6127(8)
C27 C 0.3980(6) 0.6591(6) 0.7485(7)
C28 C 0.4717(9) 0.7864(9) 0.8391(7)
C29 C 0.5292(10) 0.8501(9) 1.0151(13)
C30 C 0.4406(13) 0.8249(15) 1.0383(15)
C31 C 0.2100(5) 0.4689(5) 0.4963(6)
C32 C 0.1217(5) 0.4145(6) 0.3548(6)
C33 C 0.0031(6) 0.3134(7) 0.3104(8)
C34 C -0.0806(7) 0.2404(8) 0.1675(9)
H1 H 0.5523 0.3226 0.8188
H2 H 0.3869 0.1449 0.5896
H3 H 0.1688 0.0774 0.0904
H4 H 0.1758 0.2123 -0.0089
H5 H 0.1106 0.0964 0.3514
H6 H -0.0032 -0.1184 0.2521
H7 H 0.0760 -0.2759 0.1615
H8 H 0.2657 -0.2211 0.1766
H9 H 0.3789 -0.0102 0.2745
H10 H 0.8407 0.4821 0.9073
H11 H 0.9505 0.4979 1.1191
H12 H 0.8977 0.5898 1.3014
H13 H 0.7282 0.6505 1.2650
H14 H 0.6145 0.6284 1.0514
H15 H 0.4077 0.7753 0.5779
H16 H 0.3035 0.6704 0.4253
H17 H 0.1562 0.7058 0.4851
H18 H 0.2445 0.7731 0.6471
H19 H 0.3349 0.9467 0.6471
H20 H 0.2437 0.8796 0.4860
H21 H 0.1927 1.0399 0.6453
H22 H 0.0841 0.9073 0.5307
H23 H 0.1588 0.9401 0.6866
H24 H 0.3223 0.6516 0.7565
H25 H 0.4397 0.6107 0.7815
H26 H 0.5411 0.7976 0.8189
H27 H 0.4244 0.8366 0.8171
H28 H 0.5879 0.8116 1.0429
H29 H 0.5704 0.9419 1.0634
H30 H 0.4025 0.8897 1.0458
H31 H 0.3837 0.7416 0.9656
H32 H 0.4729 0.8305 1.1287
H33 H 0.2253 0.3988 0.5073
H34 H 0.1739 0.5123 0.5560
H35 H 0.1009 0.4828 0.3436
H36 H 0.1578 0.3742 0.2936
H37 H 0.0264 0.2543 0.3382
H38 H -0.0389 0.3577 0.3614
H39 H -0.1271 0.2907 0.1444
H40 H -0.0365 0.2167 0.1119
H41 H -0.1358 0.1636 0.1482
P1A P 0.64365(10) 0.41788(10) 0.44212(12)
N1A N 0.5153(3) 0.6050(3) 0.4169(3)
N2A N 0.6312(3) 0.6416(3) 0.6837(3)
C10A C 0.3525(3) 0.4583(4) 0.1781(4)
C9A C 0.6815(4) 0.6431(4) 0.8062(4)
C23A C 0.6702(4) 0.2943(5) 0.4753(5)
C27A C 0.6020(6) 0.3409(6) 0.2515(7)
C31A C 0.7900(5) 0.5311(5) 0.5037(6)
C1A C 0.4463(3) 0.5732(4) 0.2830(4)
C4A C 0.5911(3) 0.7275(3) 0.4833(4)
C6A C 0.6924(4) 0.7607(4) 0.7170(4)
C17A C 0.2824(4) 0.4446(4) 0.0409(4)
C8A C 0.7742(4) 0.7633(4) 0.9142(4)
C24A C 0.7626(5) 0.2361(5) 0.4405(6)
H15A H 0.5923 0.2247 0.4221
H16A H 0.6965 0.3296 0.5747
C28A C 0.5283(9) 0.2136(9) 0.1609(7)
H24A H 0.6777 0.3484 0.2435
H25A H 0.5603 0.3893 0.2185
C32A C 0.8783(5) 0.5855(6) 0.6452(6)
H33A H 0.7747 0.6012 0.4927
H34A H 0.8261 0.4877 0.4440
C2A C 0.4818(4) 0.6766(4) 0.2660(4)
C3A C 0.5709(4) 0.7723(4) 0.3892(4)
C5A C 0.6739(3) 0.8025(4) 0.6244(4)
C7A C 0.7787(4) 0.8351(4) 0.8604(4)
C18A C 0.1836(4) 0.4830(5) 0.0193(5)
C22A C 0.3146(5) 0.3970(6) -0.0651(5)
H4A H 0.8242 0.7877 1.0089
C25A C 0.7471(6) 0.1107(6) 0.4255(7)
H17A H 0.8438 0.2942 0.5149
H18A H 0.7555 0.2269 0.3529
C29A C 0.4708(10) 0.1499(9) -0.0151(13)
H26A H 0.4589 0.2024 0.1811
H27A H 0.5756 0.1634 0.1829
C33A C 0.9969(6) 0.6866(7) 0.6896(8)
H35A H 0.8991 0.5172 0.6564
H36A H 0.8422 0.6258 0.7064
H1A H 0.4477 0.6774 0.1812
H2A H 0.6131 0.8551 0.4104
C11A C 0.7459(4) 0.9366(4) 0.6810(4)
H3A H 0.8312 0.9226 0.9096
C19A C 0.1180(4) 0.4727(6) -0.1062(6)
H10A H 0.1593 0.5179 0.0927
C21A C 0.2478(7) 0.3845(6) -0.1913(6)
H14A H 0.3855 0.3716 -0.0514
C26A C 0.8367(8) 0.0503(7) 0.3873(8)
H19A H 0.6651 0.0533 0.3529
H20A H 0.7563 0.1204 0.5140
C30A C 0.5594(13) 0.1751(15) -0.0383(15)
H28A H 0.4121 0.1884 -0.0429
H29A H 0.4296 0.0581 -0.0634
C34A C 1.0806(7) 0.7596(8) 0.8325(9)
H37A H 0.9736 0.7457 0.6618
H38A H 1.0389 0.6423 0.6386
C12A C 0.8566(4) 0.9693(4) 0.6861(6)
C16A C 0.7011(6) 1.0311(5) 0.7307(7)
C20A C 0.1499(5) 0.4208(6) -0.2124(6)
H11A H 0.0495 0.5021 -0.1191
H13A H 0.2718 0.3495 -0.2650
H21A H 0.8073 -0.0399 0.3547
H22A H 0.9159 0.0927 0.4693
H23A H 0.8412 0.0599 0.3134
H30A H 0.5975 0.1103 -0.0458
H31A H 0.6163 0.2584 0.0344
H32A H 0.5271 0.1695 -0.1287
H39A H 1.1271 0.7093 0.8556
H40A H 1.0365 0.7833 0.8881
H41A H 1.1358 0.8364 0.8518
C13A C 0.9241(5) 1.0961(6) 0.7444(7)
H5A H 0.8894 0.9036 0.6486
C15A C 0.7678(7) 1.1554(5) 0.7881(8)
H9A H 0.6211 1.0102 0.7255
H12A H 0.1023 0.4102 -0.3014
C14A C 0.8776(7) 1.1874(5) 0.7960(6)
H6A H 1.0032 1.1184 0.7479
H8A H 0.7343 1.2211 0.8234
H7A H 0.9240 1.2759 0.8385

#END
