./KACHOO_from_xyz.cif_generated_by_CrystalShift
_symmetry_cell_setting triclinic
_symmetry_space_group_name_H-M 'P 1'
loop_
_symmetry_equiv_pos_site_id
_symmetry_equiv_pos_as_xyz
1 x,y,z
_cell_length_a 14.359400
_cell_length_b 22.105900
_cell_length_c 8.826400
_cell_angle_alpha 90.000000
_cell_angle_beta 104.710000
_cell_angle_gamma 90.000000
_cell_volume 2709.910290
loop_
_atom_site_label
_atom_site_type_symbol
_atom_site_fract_x
_atom_site_fract_y
_atom_site_fract_z
S1 S 0.248600 0.513620 0.762700
S2 S 0.210630 0.363010 0.544010
S3 S 0.207660 0.166770 0.598800
O4 O 0.446890 0.143140 0.982800
O5 O 0.622430 0.269300 1.353900
N6 N 0.348640 0.241220 0.825500
N7 N 0.415650 0.358010 0.935300
N8 N 0.521030 0.314170 1.146500
N9 N 0.534860 0.205310 1.171800
C10 C 0.306000 0.569700 0.717300
H11 H 0.292700 0.610100 0.742300
C12 C 0.372500 0.557400 0.643800
H13 H 0.411900 0.585800 0.608500
C14 C 0.374500 0.493400 0.627000
H15 H 0.417600 0.473900 0.576700
C16 C 0.310200 0.461760 0.687600
C17 C 0.296200 0.396150 0.696000
C18 C 0.342400 0.352410 0.797700
C19 C 0.309000 0.292200 0.749000
C20 C 0.235300 0.291130 0.612000
C21 C 0.183700 0.239700 0.530700
C22 C 0.113600 0.237500 0.392400
H23 H 0.089200 0.273000 0.335500
C24 C 0.080000 0.179670 0.339900
H25 H 0.032000 0.170900 0.246700
C26 C 0.127600 0.138590 0.444200
H27 H 0.116100 0.096400 0.430500
C28 C 0.450600 0.417620 1.001500
H29 H 0.443100 0.447400 0.915500
H30 H 0.520000 0.414700 1.054900
C31 C 0.396000 0.439590 1.117300
H32 H 0.421000 0.479100 1.158700
H33 H 0.404300 0.410600 1.203700
H34 H 0.327400 0.443200 1.064400
C35 C 0.454300 0.307180 1.016500
C36 C 0.418200 0.248570 0.951300
C37 C 0.466700 0.193740 1.033100
C38 C 0.562300 0.264150 1.228900
C39 C 0.588300 0.153590 1.256400
H40 H 0.548500 0.116600 1.230300
H41 H 0.600300 0.160600 1.370500
C42 C 0.684400 0.143670 1.215500
H43 H 0.674300 0.145600 1.100400
H44 H 0.729600 0.176400 1.262500
C45 C 0.728600 0.082730 1.274800
H46 H 0.741700 0.081700 1.390400
H47 H 0.681800 0.050200 1.232200
C48 C 0.821700 0.070730 1.227500
H49 H 0.869500 0.101800 1.276500
H50 H 0.809200 0.075300 1.112500
C51 C 0.865200 0.008480 1.273400
H52 H 0.815000 -0.022700 1.236600
H53 H 0.886600 0.005800 1.389000
C54 C 0.950500 -0.005000 1.205100
H55 H 0.927900 -0.005500 1.089400
H56 H 0.998200 0.028100 1.234600
C57 C 0.999500 -0.064100 1.259300
H58 H 1.053100 -0.070000 1.210700
H59 H 0.953300 -0.097200 1.229000
H60 H 1.024200 -0.063500 1.373500
S61 S 0.751400 1.013620 0.737300
S62 S 0.789370 0.863010 0.955990
S63 S 0.792340 0.666770 0.901200
O64 O 0.553110 0.643140 0.517200
O65 O 0.377570 0.769300 0.146100
N66 N 0.651360 0.741220 0.674500
N67 N 0.584350 0.858010 0.564700
N68 N 0.478970 0.814170 0.353500
N69 N 0.465140 0.705310 0.328200
C70 C 0.694000 1.069700 0.782700
H71 H 0.707300 1.110100 0.757700
C72 C 0.627500 1.057400 0.856200
H73 H 0.588100 1.085800 0.891500
C74 C 0.625500 0.993400 0.873000
H75 H 0.582400 0.973900 0.923300
C76 C 0.689800 0.961760 0.812400
C77 C 0.703800 0.896150 0.804000
C78 C 0.657600 0.852410 0.702300
C79 C 0.691000 0.792200 0.751000
C80 C 0.764700 0.791130 0.888000
C81 C 0.816300 0.739700 0.969300
C82 C 0.886400 0.737500 1.107600
H83 H 0.910800 0.773000 1.164500
C84 C 0.920000 0.679670 1.160100
H85 H 0.968000 0.670900 1.253300
C86 C 0.872400 0.638590 1.055800
H87 H 0.883900 0.596400 1.069500
C88 C 0.549400 0.917620 0.498500
H89 H 0.556900 0.947400 0.584500
H90 H 0.480000 0.914700 0.445100
C91 C 0.604000 0.939590 0.382700
H92 H 0.579000 0.979100 0.341300
H93 H 0.595700 0.910600 0.296300
H94 H 0.672600 0.943200 0.435600
C95 C 0.545700 0.807180 0.483500
C96 C 0.581800 0.748570 0.548700
C97 C 0.533300 0.693740 0.466900
C98 C 0.437700 0.764150 0.271100
C99 C 0.411700 0.653590 0.243600
H100 H 0.451500 0.616600 0.269700
H101 H 0.399700 0.660600 0.129500
C102 C 0.315600 0.643670 0.284500
H103 H 0.325700 0.645600 0.399600
H104 H 0.270400 0.676400 0.237500
C105 C 0.271400 0.582730 0.225200
H106 H 0.258300 0.581700 0.109600
H107 H 0.318200 0.550200 0.267800
C108 C 0.178300 0.570730 0.272500
H109 H 0.130500 0.601800 0.223500
H110 H 0.190800 0.575300 0.387500
C111 C 0.134800 0.508480 0.226600
H112 H 0.185000 0.477300 0.263400
H113 H 0.113400 0.505800 0.111000
C114 C 0.049500 0.495000 0.294900
H115 H 0.072100 0.494500 0.410600
H116 H 0.001800 0.528100 0.265400
C117 C 0.000500 0.435900 0.240700
H118 H -0.053100 0.430000 0.289300
H119 H 0.046700 0.402800 0.271000
H120 H -0.024200 0.436500 0.126500
S121 S 0.751400 0.486380 0.237300
S122 S 0.789370 0.636990 0.455990
S123 S 0.792340 0.833230 0.401200
O124 O 0.553110 0.856860 0.017200
O125 O 0.377570 0.730700 -0.353900
N126 N 0.651360 0.758780 0.174500
N127 N 0.584350 0.641990 0.064700
N128 N 0.478970 0.685830 -0.146500
N129 N 0.465140 0.794690 -0.171800
C130 C 0.694000 0.430300 0.282700
H131 H 0.707300 0.389900 0.257700
C132 C 0.627500 0.442600 0.356200
H133 H 0.588100 0.414200 0.391500
C134 C 0.625500 0.506600 0.373000
H135 H 0.582400 0.526100 0.423300
C136 C 0.689800 0.538240 0.312400
C137 C 0.703800 0.603850 0.304000
C138 C 0.657600 0.647590 0.202300
C139 C 0.691000 0.707800 0.251000
C140 C 0.764700 0.708870 0.388000
C141 C 0.816300 0.760300 0.469300
C142 C 0.886400 0.762500 0.607600
H143 H 0.910800 0.727000 0.664500
C144 C 0.920000 0.820330 0.660100
H145 H 0.968000 0.829100 0.753300
C146 C 0.872400 0.861410 0.555800
H147 H 0.883900 0.903600 0.569500
C148 C 0.549400 0.582380 -0.001500
H149 H 0.556900 0.552600 0.084500
H150 H 0.480000 0.585300 -0.054900
C151 C 0.604000 0.560410 -0.117300
H152 H 0.579000 0.520900 -0.158700
H153 H 0.595700 0.589400 -0.203700
H154 H 0.672600 0.556800 -0.064400
C155 C 0.545700 0.692820 -0.016500
C156 C 0.581800 0.751430 0.048700
C157 C 0.533300 0.806260 -0.033100
C158 C 0.437700 0.735850 -0.228900
C159 C 0.411700 0.846410 -0.256400
H160 H 0.451500 0.883400 -0.230300
H161 H 0.399700 0.839400 -0.370500
C162 C 0.315600 0.856330 -0.215500
H163 H 0.325700 0.854400 -0.100400
H164 H 0.270400 0.823600 -0.262500
C165 C 0.271400 0.917270 -0.274800
H166 H 0.258300 0.918300 -0.390400
H167 H 0.318200 0.949800 -0.232200
C168 C 0.178300 0.929270 -0.227500
H169 H 0.130500 0.898200 -0.276500
H170 H 0.190800 0.924700 -0.112500
C171 C 0.134800 0.991520 -0.273400
H172 H 0.185000 1.022700 -0.236600
H173 H 0.113400 0.994200 -0.389000
C174 C 0.049500 1.005000 -0.205100
H175 H 0.072100 1.005500 -0.089400
H176 H 0.001800 0.971900 -0.234600
C177 C 0.000500 1.064100 -0.259300
H178 H -0.053100 1.070000 -0.210700
H179 H 0.046700 1.097200 -0.229000
H180 H -0.024200 1.063500 -0.373500
S181 S 0.248600 -0.013620 0.262700
S182 S 0.210630 0.136990 0.044010
S183 S 0.207660 0.333230 0.098800
O184 O 0.446890 0.356860 0.482800
O185 O 0.622430 0.230700 0.853900
N186 N 0.348640 0.258780 0.325500
N187 N 0.415650 0.141990 0.435300
N188 N 0.521030 0.185830 0.646500
N189 N 0.534860 0.294690 0.671800
C190 C 0.306000 -0.069700 0.217300
H191 H 0.292700 -0.110100 0.242300
C192 C 0.372500 -0.057400 0.143800
H193 H 0.411900 -0.085800 0.108500
C194 C 0.374500 0.006600 0.127000
H195 H 0.417600 0.026100 0.076700
C196 C 0.310200 0.038240 0.187600
C197 C 0.296200 0.103850 0.196000
C198 C 0.342400 0.147590 0.297700
C199 C 0.309000 0.207800 0.249000
C200 C 0.235300 0.208870 0.112000
C201 C 0.183700 0.260300 0.030700
C202 C 0.113600 0.262500 -0.107600
H203 H 0.089200 0.227000 -0.164500
C204 C 0.080000 0.320330 -0.160100
H205 H 0.032000 0.329100 -0.253300
C206 C 0.127600 0.361410 -0.055800
H207 H 0.116100 0.403600 -0.069500
C208 C 0.450600 0.082380 0.501500
H209 H 0.443100 0.052600 0.415500
H210 H 0.520000 0.085300 0.554900
C211 C 0.396000 0.060410 0.617300
H212 H 0.421000 0.020900 0.658700
H213 H 0.404300 0.089400 0.703700
H214 H 0.327400 0.056800 0.564400
C215 C 0.454300 0.192820 0.516500
C216 C 0.418200 0.251430 0.451300
C217 C 0.466700 0.306260 0.533100
C218 C 0.562300 0.235850 0.728900
C219 C 0.588300 0.346410 0.756400
H220 H 0.548500 0.383400 0.730300
H221 H 0.600300 0.339400 0.870500
C222 C 0.684400 0.356330 0.715500
H223 H 0.674300 0.354400 0.600400
H224 H 0.729600 0.323600 0.762500
C225 C 0.728600 0.417270 0.774800
H226 H 0.741700 0.418300 0.890400
H227 H 0.681800 0.449800 0.732200
C228 C 0.821700 0.429270 0.727500
H229 H 0.869500 0.398200 0.776500
H230 H 0.809200 0.424700 0.612500
C231 C 0.865200 0.491520 0.773400
H232 H 0.815000 0.522700 0.736600
H233 H 0.886600 0.494200 0.889000
C234 C 0.950500 0.505000 0.705100
H235 H 0.927900 0.505500 0.589400
H236 H 0.998200 0.471900 0.734600
C237 C 0.999500 0.564100 0.759300
H238 H 1.053100 0.570000 0.710700
H239 H 0.953300 0.597200 0.729000
H240 H 1.024200 0.563500 0.873500
Cl241 Cl 0.883710 0.186210 -0.047330
Cl242 Cl 0.894460 0.310350 0.054270
C243 C 0.842500 0.240100 0.063200
H244 H 0.771700 0.243700 0.024600
H245 H 0.857200 0.226600 0.173700
Cl246 Cl 0.116290 0.686210 0.547330
Cl247 Cl 0.105540 0.810350 0.445730
C248 C 0.157500 0.740100 0.436800
H249 H 0.228300 0.743700 0.475400
H250 H 0.142800 0.726600 0.326300
Cl251 Cl 0.116290 0.813790 1.047330
Cl252 Cl 0.105540 0.689650 0.945730
C253 C 0.157500 0.759900 0.936800
H254 H 0.228300 0.756300 0.975400
H255 H 0.142800 0.773400 0.826300
Cl256 Cl 0.883710 0.313790 0.452670
Cl257 Cl 0.894460 0.189650 0.554270
C258 C 0.842500 0.259900 0.563200
H259 H 0.771700 0.256300 0.524600
H260 H 0.857200 0.273400 0.673700
C261 C 0.261000 0.506600 0.746000
C262 C 0.201400 0.180200 0.567000
S263 S 0.388100 0.492700 0.601400
S264 S 0.096300 0.249500 0.365100
C265 C 0.739000 1.006600 0.754000
C266 C 0.798600 0.680200 0.933000
S267 S 0.611900 0.992700 0.898600
S268 S 0.903700 0.749500 1.134900
C269 C 0.739000 0.493400 0.254000
C270 C 0.798600 0.819800 0.433000
S271 S 0.611900 0.507300 0.398600
S272 S 0.903700 0.750500 0.634900
C273 C 0.261000 -0.006600 0.246000
C274 C 0.201400 0.319800 0.067000
S275 S 0.388100 0.007300 0.101400
S276 S 0.096300 0.250500 -0.134900

#END
