
#######################################################################
#
#                 Cambridge Crystallographic Data Centre
#                                CCDC 
#
#######################################################################
#
# If this CIF has been generated from an entry in the Cambridge 
# Structural Database, then it will include bibliographic, chemical, 
# crystal, experimental, refinement or atomic coordinate data resulting 
# from the CCDC's data processing and validation procedures.
#
#######################################################################

data_KACJAA
_symmetry_cell_setting           tetragonal
_symmetry_space_group_name_H-M   'P 43 21 2'
_symmetry_Int_Tables_number      96
_space_group_name_Hall           'P 4nw 2abw'
loop_
_symmetry_equiv_pos_site_id
_symmetry_equiv_pos_as_xyz
1 x,y,z
2 1/2-y,1/2+x,3/4+z
3 -x,-y,1/2+z
4 1/2+y,1/2-x,1/4+z
5 1/2-x,1/2+y,3/4-z
6 y,x,-z
7 1/2+x,1/2-y,1/4-z
8 -y,-x,1/2-z
_cell_length_a                   6.830(2)
_cell_length_b                   6.830(2)
_cell_length_c                   46.829(14)
_cell_angle_alpha                90
_cell_angle_beta                 90
_cell_angle_gamma                90
_cell_volume                     2184.52
loop_
_atom_site_label
_atom_site_type_symbol
_atom_site_fract_x
_atom_site_fract_y
_atom_site_fract_z
P1 P 0.0259(4) 0.1638(5) -0.04942(6)
B1 B 0.255(3) 0.038(3) -0.0643(3)
O1 O 0.048(1) 0.269(1) -0.0182(2)
C1 C -0.071(2) 0.353(2) -0.0723(2)
C2 C 0.050(2) 0.431(2) -0.0928(3)
C3 C -0.021(4) 0.578(3) -0.1109(3)
C4 C -0.208(4) 0.642(3) -0.1075(4)
C5 C -0.320(3) 0.568(3) -0.0875(4)
C6 C -0.258(2) 0.421(2) -0.0702(3)
C7 C -0.172(2) 0.002(2) -0.0422(3)
C8 C 0.231(2) 0.339(2) -0.0093(2)
C9 C 0.294(2) 0.519(2) -0.0190(3)
C10 C 0.474(2) 0.584(2) -0.0097(3)
H1 H 0.1917 0.3769 -0.0957
H2 H 0.0628 0.6464 -0.1266
H3 H -0.2541 0.7574 -0.1210
H4 H -0.4574 0.6230 -0.0868
H5 H -0.3535 0.3614 -0.0553
H6 H -0.2909 0.0822 -0.0344
H7 H -0.2218 -0.0612 -0.0604
H8 H -0.1404 -0.0985 -0.0281
H9 H 0.2109 0.6051 -0.0329
H10 H 0.5308 0.7094 -0.0170
C8E C 0.339(2) 0.231(2) 0.0093(2)
O1E O 0.269(1) 0.048(1) 0.0182(2)
P1E P 0.1638(5) 0.0259(4) 0.04942(6)
B1E B 0.038(3) 0.255(3) 0.0643(3)
C1E C 0.353(2) -0.071(2) 0.0723(2)
C2E C 0.431(2) 0.050(2) 0.0928(3)
C3E C 0.578(3) -0.021(4) 0.1109(3)
C4E C 0.642(3) -0.208(4) 0.1075(4)
C5E C 0.568(3) -0.320(3) 0.0875(4)
C6E C 0.421(2) -0.258(2) 0.0702(3)
H5E H 0.3614 -0.3535 0.0553
H4E H 0.6230 -0.4574 0.0868
H3E H 0.7574 -0.2541 0.1210
H2E H 0.6464 0.0628 0.1266
H1E H 0.3769 0.1917 0.0957
C7E C 0.002(2) -0.172(2) 0.0422(3)
H6E H 0.0822 -0.2909 0.0344
H7E H -0.0612 -0.2218 0.0604
H8E H -0.0985 -0.1404 0.0281
C9E C 0.519(2) 0.294(2) 0.0190(3)
C10E C 0.584(2) 0.474(2) 0.0097(3)
H10E H 0.7094 0.5308 0.0170
H9E H 0.6051 0.2109 0.0329
P1 P 0.0259(4) 0.1638(5) 0.95058(6)
B1 B 0.255(3) 0.038(3) 0.9357(3)
O1 O 0.048(1) 0.269(1) 0.9818(2)
C1 C -0.071(2) 0.353(2) 0.9277(2)
C2 C 0.050(2) 0.431(2) 0.9072(3)
C3 C -0.021(4) 0.578(3) 0.8891(3)
C4 C -0.208(4) 0.642(3) 0.8925(4)
C5 C -0.320(3) 0.568(3) 0.9125(4)
C6 C -0.258(2) 0.421(2) 0.9298(3)
C7 C -0.172(2) 0.002(2) 0.9578(3)
C8 C 0.231(2) 0.339(2) 0.9907(2)
C9 C 0.294(2) 0.519(2) 0.9810(3)
C10 C 0.474(2) 0.584(2) 0.9903(3)
H1 H 0.1917 0.3769 0.9043
H2 H 0.0628 0.6464 0.8734
H3 H -0.2541 0.7574 0.8790
H4 H -0.4574 0.6230 0.9132
H5 H -0.3535 0.3614 0.9447
H6 H -0.2909 0.0822 0.9656
H7 H -0.2218 -0.0612 0.9396
H8 H -0.1404 -0.0985 0.9719
H9 H 0.2109 0.6051 0.9671
H10 H 0.5308 0.7094 0.9830
C8E C 0.339(2) 0.231(2) 1.0093(2)
O1E O 0.269(1) 0.048(1) 1.0182(2)
P1E P 0.1638(5) 0.0259(4) 1.04942(6)
B1E B 0.038(3) 0.255(3) 1.0643(3)
C1E C 0.353(2) -0.071(2) 1.0723(2)
C2E C 0.431(2) 0.050(2) 1.0928(3)
C3E C 0.578(3) -0.021(4) 1.1109(3)
C4E C 0.642(3) -0.208(4) 1.1075(4)
C5E C 0.568(3) -0.320(3) 1.0875(4)
C6E C 0.421(2) -0.258(2) 1.0702(3)
H5E H 0.3614 -0.3535 1.0553
H4E H 0.6230 -0.4574 1.0868
H3E H 0.7574 -0.2541 1.1210
H2E H 0.6464 0.0628 1.1266
H1E H 0.3769 0.1917 1.0957
C7E C 0.002(2) -0.172(2) 1.0422(3)
H6E H 0.0822 -0.2909 1.0344
H7E H -0.0612 -0.2218 1.0604
H8E H -0.0985 -0.1404 1.0281
C9E C 0.519(2) 0.294(2) 1.0190(3)
C10E C 0.584(2) 0.474(2) 1.0097(3)
H10E H 0.7094 0.5308 1.0170
H9E H 0.6051 0.2109 1.0329
P1 P 0.3362(5) 0.5259(4) 0.70058(6)
B1 B 0.462(3) 0.755(3) 0.6857(3)
O1 O 0.231(1) 0.548(1) 0.7318(2)
C1 C 0.147(2) 0.429(2) 0.6777(2)
C2 C 0.069(2) 0.550(2) 0.6572(3)
C3 C -0.078(3) 0.479(4) 0.6391(3)
C4 C -0.142(3) 0.292(4) 0.6425(4)
C5 C -0.068(3) 0.180(3) 0.6625(4)
C6 C 0.079(2) 0.242(2) 0.6798(3)
C7 C 0.498(2) 0.328(2) 0.7078(3)
C8 C 0.161(2) 0.731(2) 0.7407(2)
C9 C -0.019(2) 0.794(2) 0.7310(3)
C10 C -0.084(2) 0.974(2) 0.7403(3)
H1 H 0.1231 0.6917 0.6543
H2 H -0.1464 0.5628 0.6234
H3 H -0.2574 0.2459 0.6290
H4 H -0.1230 0.0426 0.6632
H5 H 0.1386 0.1465 0.6947
H6 H 0.4178 0.2091 0.7156
H7 H 0.5612 0.2782 0.6896
H8 H 0.5985 0.3596 0.7219
H9 H -0.1051 0.7109 0.7171
H10 H -0.2094 1.0308 0.7330
C8E C 0.269(2) 0.839(2) 0.7593(2)
O1E O 0.452(1) 0.769(1) 0.7682(2)
P1E P 0.4741(4) 0.6638(5) 0.79942(6)
B1E B 0.245(3) 0.538(3) 0.8143(3)
C1E C 0.571(2) 0.853(2) 0.8223(2)
C2E C 0.450(2) 0.931(2) 0.8428(3)
C3E C 0.521(4) 1.078(3) 0.8609(3)
C4E C 0.708(4) 1.142(3) 0.8575(4)
C5E C 0.820(3) 1.068(3) 0.8375(4)
C6E C 0.758(2) 0.921(2) 0.8202(3)
H5E H 0.8535 0.8614 0.8053
H4E H 0.9574 1.1230 0.8368
H3E H 0.7541 1.2574 0.8710
H2E H 0.4372 1.1464 0.8766
H1E H 0.3083 0.8769 0.8457
C7E C 0.672(2) 0.502(2) 0.7922(3)
H6E H 0.7909 0.5822 0.7844
H7E H 0.7218 0.4388 0.8104
H8E H 0.6404 0.4015 0.7781
C9E C 0.206(2) 1.019(2) 0.7690(3)
C10E C 0.026(2) 1.084(2) 0.7597(3)
H10E H -0.0308 1.2094 0.7670
H9E H 0.2891 1.1051 0.7829
P1 P 0.9741(4) 0.8362(5) 0.45058(6)
B1 B 0.745(3) 0.962(3) 0.4357(3)
O1 O 0.952(1) 0.731(1) 0.4818(2)
C1 C 1.071(2) 0.647(2) 0.4277(2)
C2 C 0.950(2) 0.569(2) 0.4072(3)
C3 C 1.021(4) 0.422(3) 0.3891(3)
C4 C 1.208(4) 0.358(3) 0.3925(4)
C5 C 1.320(3) 0.432(3) 0.4125(4)
C6 C 1.258(2) 0.579(2) 0.4298(3)
C7 C 1.172(2) 0.998(2) 0.4578(3)
C8 C 0.769(2) 0.661(2) 0.4907(2)
C9 C 0.706(2) 0.481(2) 0.4810(3)
C10 C 0.526(2) 0.416(2) 0.4903(3)
H1 H 0.8083 0.6231 0.4043
H2 H 0.9372 0.3536 0.3734
H3 H 1.2541 0.2426 0.3790
H4 H 1.4574 0.3770 0.4132
H5 H 1.3535 0.6386 0.4447
H6 H 1.2909 0.9178 0.4656
H7 H 1.2218 1.0612 0.4396
H8 H 1.1404 1.0985 0.4719
H9 H 0.7891 0.3949 0.4671
H10 H 0.4692 0.2906 0.4830
C8E C 0.661(2) 0.769(2) 0.5093(2)
O1E O 0.731(1) 0.952(1) 0.5182(2)
P1E P 0.8362(5) 0.9741(4) 0.54942(6)
B1E B 0.962(3) 0.745(3) 0.5643(3)
C1E C 0.647(2) 1.071(2) 0.5723(2)
C2E C 0.569(2) 0.950(2) 0.5928(3)
C3E C 0.422(3) 1.021(4) 0.6109(3)
C4E C 0.358(3) 1.208(4) 0.6075(4)
C5E C 0.432(3) 1.320(3) 0.5875(4)
C6E C 0.579(2) 1.258(2) 0.5702(3)
H5E H 0.6386 1.3535 0.5553
H4E H 0.3770 1.4574 0.5868
H3E H 0.2426 1.2541 0.6210
H2E H 0.3536 0.9372 0.6266
H1E H 0.6231 0.8083 0.5957
C7E C 0.998(2) 1.172(2) 0.5422(3)
H6E H 0.9178 1.2909 0.5344
H7E H 1.0612 1.2218 0.5604
H8E H 1.0985 1.1404 0.5281
C9E C 0.481(2) 0.706(2) 0.5190(3)
C10E C 0.416(2) 0.526(2) 0.5097(3)
H10E H 0.2906 0.4692 0.5170
H9E H 0.3949 0.7891 0.5329
P1 P 0.6638(5) 0.4741(4) 0.20058(6)
B1 B 0.538(3) 0.245(3) 0.1857(3)
O1 O 0.769(1) 0.452(1) 0.2318(2)
C1 C 0.853(2) 0.571(2) 0.1777(2)
C2 C 0.931(2) 0.450(2) 0.1572(3)
C3 C 1.078(3) 0.521(4) 0.1391(3)
C4 C 1.142(3) 0.708(4) 0.1425(4)
C5 C 1.068(3) 0.820(3) 0.1625(4)
C6 C 0.921(2) 0.758(2) 0.1798(3)
C7 C 0.502(2) 0.672(2) 0.2078(3)
C8 C 0.839(2) 0.269(2) 0.2407(2)
C9 C 1.019(2) 0.206(2) 0.2310(3)
C10 C 1.084(2) 0.026(2) 0.2403(3)
H1 H 0.8769 0.3083 0.1543
H2 H 1.1464 0.4372 0.1234
H3 H 1.2574 0.7541 0.1290
H4 H 1.1230 0.9574 0.1632
H5 H 0.8614 0.8535 0.1947
H6 H 0.5822 0.7909 0.2156
H7 H 0.4388 0.7218 0.1896
H8 H 0.4015 0.6404 0.2219
H9 H 1.1051 0.2891 0.2171
H10 H 1.2094 -0.0308 0.2330
C8E C 0.731(2) 0.161(2) 0.2593(2)
O1E O 0.548(1) 0.231(1) 0.2682(2)
P1E P 0.5259(4) 0.3362(5) 0.29942(6)
B1E B 0.755(3) 0.462(3) 0.3143(3)
C1E C 0.429(2) 0.147(2) 0.3223(2)
C2E C 0.550(2) 0.069(2) 0.3428(3)
C3E C 0.479(4) -0.078(3) 0.3609(3)
C4E C 0.292(4) -0.142(3) 0.3575(4)
C5E C 0.180(3) -0.068(3) 0.3375(4)
C6E C 0.242(2) 0.079(2) 0.3202(3)
H5E H 0.1465 0.1386 0.3053
H4E H 0.0426 -0.1230 0.3368
H3E H 0.2459 -0.2574 0.3710
H2E H 0.5628 -0.1464 0.3766
H1E H 0.6917 0.1231 0.3457
C7E C 0.328(2) 0.498(2) 0.2922(3)
H6E H 0.2091 0.4178 0.2844
H7E H 0.2782 0.5612 0.3104
H8E H 0.3596 0.5985 0.2781
C9E C 0.794(2) -0.019(2) 0.2690(3)
C10E C 0.974(2) -0.084(2) 0.2597(3)
H10E H 1.0308 -0.2094 0.2670
H9E H 0.7109 -0.1051 0.2829

#END
