
#######################################################################
#
#                 Cambridge Crystallographic Data Centre
#                                CCDC 
#
#######################################################################
#
# If this CIF has been generated from an entry in the Cambridge 
# Structural Database, then it will include bibliographic, chemical, 
# crystal, experimental, refinement or atomic coordinate data resulting 
# from the CCDC's data processing and validation procedures.
#
#######################################################################

data_KACKOO
_symmetry_cell_setting           monoclinic
_symmetry_space_group_name_H-M   'P 21/n'
_symmetry_Int_Tables_number      14
_space_group_name_Hall           '-P 2yn'
loop_
_symmetry_equiv_pos_site_id
_symmetry_equiv_pos_as_xyz
1 x,y,z
2 1/2-x,1/2+y,1/2-z
3 -x,-y,-z
4 1/2+x,1/2-y,1/2+z
_cell_length_a                   8.000(3)
_cell_length_b                   22.181(6)
_cell_length_c                   9.338(4)
_cell_angle_alpha                90
_cell_angle_beta                 114.51(3)
_cell_angle_gamma                90
_cell_volume                     1507.69
loop_
_atom_site_label
_atom_site_type_symbol
_atom_site_fract_x
_atom_site_fract_y
_atom_site_fract_z
O1 O 0.2580(5) 0.1187(2) -0.0035(4)
N1 N 0.3638(5) 0.0928(2) 0.3181(4)
N2 N -0.0554(6) 0.0302(2) 0.2702(5)
N3 N -0.1875(7) 0.2087(2) 0.1782(6)
C1 C 0.4531(5) 0.0950(2) 0.4826(5)
C2 C 0.3689(5) 0.1215(2) 0.5721(5)
C3 C 0.4608(6) 0.1230(2) 0.7345(5)
C4 C 0.6320(7) 0.0983(3) 0.8106(5)
C5 C 0.7163(6) 0.0712(2) 0.7270(5)
C6 C 0.6275(6) 0.0703(2) 0.5651(5)
C7 C 0.4720(6) 0.0709(3) 0.2348(5)
C8 C 0.3556(8) 0.0644(3) 0.0625(5)
C9 C 0.1391(8) 0.1298(3) 0.0673(6)
C10 C 0.2366(6) 0.1420(2) 0.2446(5)
C11 C 0.3368(9) 0.2026(2) 0.2777(7)
C12 C 0.0924(6) 0.1372(2) 0.3165(5)
C13 C 0.0131(6) 0.0763(2) 0.2906(5)
C14 C -0.0653(7) 0.1784(2) 0.2384(6)
C15 C 0.1813(6) 0.1509(2) 0.4955(5)
C16 C 0.0566(7) 0.1339(3) 0.5743(6)
C17 C 0.273(2) 0.2532(3) 0.206(1)
H1 H 0.398(5) 0.142(2) 0.789(4)
H2 H 0.694(5) 0.095(2) 0.928(4)
H3 H 0.844(5) 0.053(2) 0.779(4)
H4 H 0.684(4) 0.048(2) 0.520(4)
H5 H 0.506(7) 0.028(2) 0.293(5)
H6 H 0.571(4) 0.099(2) 0.259(4)
H7 H 0.443(6) 0.059(2) 0.004(5)
H8 H 0.266(5) 0.027(2) 0.047(4)
H9 H 0.074(5) 0.164(2) 0.026(5)
H10 H 0.071(6) 0.096(2) 0.057(5)
H11 H 0.384 0.209 0.388
H12 H 0.436 0.196 0.248
H13 H 0.197(4) 0.192(1) 0.506(4)
H14 H -0.068(6) 0.149(2) 0.510(5)
H15 H 0.111(6) 0.154(2) 0.673(5)
H16 H 0.03(1) 0.091(4) 0.549(9)
H17 H 0.228 0.250 0.095
H18 H 0.175 0.263 0.234
H19 H 0.363 0.284 0.242
O1 O 0.2420(5) 0.6187(2) 0.5035(4)
N1 N 0.1362(5) 0.5928(2) 0.1819(4)
N2 N 0.5554(6) 0.5302(2) 0.2298(5)
N3 N 0.6875(7) 0.7087(2) 0.3218(6)
C1 C 0.0469(5) 0.5950(2) 0.0174(5)
C2 C 0.1311(5) 0.6215(2) -0.0721(5)
C3 C 0.0392(6) 0.6230(2) -0.2345(5)
C4 C -0.1320(7) 0.5983(3) -0.3106(5)
C5 C -0.2163(6) 0.5712(2) -0.2270(5)
C6 C -0.1275(6) 0.5703(2) -0.0651(5)
C7 C 0.0280(6) 0.5709(3) 0.2652(5)
C8 C 0.1444(8) 0.5644(3) 0.4375(5)
C9 C 0.3609(8) 0.6298(3) 0.4327(6)
C10 C 0.2634(6) 0.6420(2) 0.2554(5)
C11 C 0.1632(9) 0.7026(2) 0.2223(7)
C12 C 0.4076(6) 0.6372(2) 0.1835(5)
C13 C 0.4869(6) 0.5763(2) 0.2094(5)
C14 C 0.5653(7) 0.6784(2) 0.2616(6)
C15 C 0.3187(6) 0.6509(2) 0.0045(5)
C16 C 0.4434(7) 0.6339(3) -0.0743(6)
C17 C 0.227(2) 0.7532(3) 0.294(1)
H1 H 0.102(5) 0.642(2) -0.289(4)
H2 H -0.194(5) 0.595(2) -0.428(4)
H3 H -0.344(5) 0.553(2) -0.279(4)
H4 H -0.184(4) 0.548(2) -0.020(4)
H5 H -0.006(7) 0.528(2) 0.207(5)
H6 H -0.071(4) 0.599(2) 0.241(4)
H7 H 0.057(6) 0.559(2) 0.496(5)
H8 H 0.234(5) 0.527(2) 0.453(4)
H9 H 0.426(5) 0.664(2) 0.474(5)
H10 H 0.429(6) 0.596(2) 0.443(5)
H11 H 0.116 0.709 0.112
H12 H 0.064 0.696 0.252
H13 H 0.303(4) 0.692(1) -0.006(4)
H14 H 0.568(6) 0.649(2) -0.010(5)
H15 H 0.389(6) 0.654(2) -0.173(5)
H16 H 0.47(1) 0.591(4) -0.049(9)
H17 H 0.272 0.750 0.405
H18 H 0.325 0.763 0.266
H19 H 0.137 0.784 0.258
O1 O 0.7420(5) 0.8813(2) 1.0035(4)
N1 N 0.6362(5) 0.9072(2) 0.6819(4)
N2 N 1.0554(6) 0.9698(2) 0.7298(5)
N3 N 1.1875(7) 0.7913(2) 0.8218(6)
C1 C 0.5469(5) 0.9050(2) 0.5174(5)
C2 C 0.6311(5) 0.8785(2) 0.4279(5)
C3 C 0.5392(6) 0.8770(2) 0.2655(5)
C4 C 0.3680(7) 0.9017(3) 0.1894(5)
C5 C 0.2837(6) 0.9288(2) 0.2730(5)
C6 C 0.3725(6) 0.9297(2) 0.4349(5)
C7 C 0.5280(6) 0.9291(3) 0.7652(5)
C8 C 0.6444(8) 0.9356(3) 0.9375(5)
C9 C 0.8609(8) 0.8702(3) 0.9327(6)
C10 C 0.7634(6) 0.8580(2) 0.7554(5)
C11 C 0.6632(9) 0.7974(2) 0.7223(7)
C12 C 0.9076(6) 0.8628(2) 0.6835(5)
C13 C 0.9869(6) 0.9237(2) 0.7094(5)
C14 C 1.0653(7) 0.8216(2) 0.7616(6)
C15 C 0.8187(6) 0.8491(2) 0.5045(5)
C16 C 0.9434(7) 0.8661(3) 0.4257(6)
C17 C 0.727(2) 0.7468(3) 0.794(1)
H1 H 0.602(5) 0.858(2) 0.211(4)
H2 H 0.306(5) 0.905(2) 0.072(4)
H3 H 0.156(5) 0.947(2) 0.221(4)
H4 H 0.316(4) 0.952(2) 0.480(4)
H5 H 0.494(7) 0.972(2) 0.707(5)
H6 H 0.429(4) 0.901(2) 0.741(4)
H7 H 0.557(6) 0.941(2) 0.996(5)
H8 H 0.734(5) 0.973(2) 0.953(4)
H9 H 0.926(5) 0.836(2) 0.974(5)
H10 H 0.929(6) 0.904(2) 0.943(5)
H11 H 0.616 0.791 0.612
H12 H 0.564 0.804 0.752
H13 H 0.803(4) 0.808(1) 0.494(4)
H14 H 1.068(6) 0.851(2) 0.490(5)
H15 H 0.889(6) 0.846(2) 0.327(5)
H16 H 0.97(1) 0.909(4) 0.451(9)
H17 H 0.772 0.750 0.905
H18 H 0.825 0.737 0.766
H19 H 0.637 0.716 0.758
O1 O 0.7580(5) 0.3813(2) 0.4965(4)
N1 N 0.8638(5) 0.4072(2) 0.8181(4)
N2 N 0.4446(6) 0.4698(2) 0.7702(5)
N3 N 0.3125(7) 0.2913(2) 0.6782(6)
C1 C 0.9531(5) 0.4050(2) 0.9826(5)
C2 C 0.8689(5) 0.3785(2) 1.0721(5)
C3 C 0.9608(6) 0.3770(2) 1.2345(5)
C4 C 1.1320(7) 0.4017(3) 1.3106(5)
C5 C 1.2163(6) 0.4288(2) 1.2270(5)
C6 C 1.1275(6) 0.4297(2) 1.0651(5)
C7 C 0.9720(6) 0.4291(3) 0.7348(5)
C8 C 0.8556(8) 0.4356(3) 0.5625(5)
C9 C 0.6391(8) 0.3702(3) 0.5673(6)
C10 C 0.7366(6) 0.3580(2) 0.7446(5)
C11 C 0.8368(9) 0.2974(2) 0.7777(7)
C12 C 0.5924(6) 0.3628(2) 0.8165(5)
C13 C 0.5131(6) 0.4237(2) 0.7906(5)
C14 C 0.4347(7) 0.3216(2) 0.7384(6)
C15 C 0.6813(6) 0.3491(2) 0.9955(5)
C16 C 0.5566(7) 0.3661(3) 1.0743(6)
C17 C 0.773(2) 0.2468(3) 0.706(1)
H1 H 0.898(5) 0.358(2) 1.289(4)
H2 H 1.194(5) 0.405(2) 1.428(4)
H3 H 1.344(5) 0.447(2) 1.279(4)
H4 H 1.184(4) 0.452(2) 1.020(4)
H5 H 1.006(7) 0.472(2) 0.793(5)
H6 H 1.071(4) 0.401(2) 0.759(4)
H7 H 0.943(6) 0.441(2) 0.504(5)
H8 H 0.766(5) 0.473(2) 0.547(4)
H9 H 0.574(5) 0.336(2) 0.526(5)
H10 H 0.571(6) 0.404(2) 0.557(5)
H11 H 0.884 0.291 0.888
H12 H 0.936 0.304 0.748
H13 H 0.697(4) 0.308(1) 1.006(4)
H14 H 0.432(6) 0.351(2) 1.010(5)
H15 H 0.611(6) 0.346(2) 1.173(5)
H16 H 0.53(1) 0.409(4) 1.049(9)
H17 H 0.728 0.250 0.595
H18 H 0.675 0.237 0.734
H19 H 0.863 0.216 0.742

#END
