
#######################################################################
#
#                 Cambridge Crystallographic Data Centre
#                                CCDC 
#
#######################################################################
#
# If this CIF has been generated from an entry in the Cambridge 
# Structural Database, then it will include bibliographic, chemical, 
# crystal, experimental, refinement or atomic coordinate data resulting 
# from the CCDC's data processing and validation procedures.
#
#######################################################################

data_KACKUU
_symmetry_cell_setting           triclinic
_symmetry_space_group_name_H-M   'P -1'
_symmetry_Int_Tables_number      2
_space_group_name_Hall           '-P 1'
loop_
_symmetry_equiv_pos_site_id
_symmetry_equiv_pos_as_xyz
1 x,y,z
2 -x,-y,-z
_cell_length_a                   8.683(4)
_cell_length_b                   9.878(4)
_cell_length_c                   10.070(5)
_cell_angle_alpha                61.76(3)
_cell_angle_beta                 68.53(3)
_cell_angle_gamma                61.16(4)
_cell_volume                     655.822
loop_
_atom_site_label
_atom_site_type_symbol
_atom_site_fract_x
_atom_site_fract_y
_atom_site_fract_z
O1 O 1.0647(2) 0.3707(2) 0.3966(1)
N1 N 1.0066(2) 0.1014(2) 0.6592(1)
N2 N 0.5445(2) 0.1960(2) 0.6504(2)
N3 N 0.5301(3) 0.5918(2) 0.7272(2)
C1 C 0.8989(2) 0.2712(2) 0.6488(2)
C2 C 0.8919(3) 0.3823(2) 0.4816(2)
C3 C 1.1710(3) 0.2053(2) 0.4033(2)
C4 C 1.1852(3) 0.0883(2) 0.5656(2)
C5 C 0.9878(2) -0.0303(2) 0.7964(2)
C6 C 0.8493(2) -0.0025(2) 0.9193(2)
C7 C 0.7300(2) 0.1710(2) 0.9144(2)
C8 C 0.7119(2) 0.2849(2) 0.7452(2)
C9 C 0.8284(2) -0.1395(2) 1.0464(2)
C10 C 0.9409(3) -0.2995(2) 1.0566(2)
C11 C 1.0771(3) -0.3248(2) 0.9379(2)
C12 C 1.1010(2) -0.1927(2) 0.8096(2)
C13 C 0.5496(3) 0.1899(2) 1.0207(2)
C14 C 0.6073(2) 0.4586(2) 0.7335(2)
C15 C 0.6176(2) 0.2367(2) 0.6887(2)
H1 H 0.948(2) 0.308(2) 0.688(2)
H2 H 0.834(2) 0.344(2) 0.443(2)
H3 H 0.821(2) 0.497(2) 0.470(2)
H4 H 1.120(3) 0.172(2) 0.359(2)
H5 H 1.290(3) 0.210(2) 0.345(2)
H6 H 1.250(2) 0.116(2) 0.608(2)
H7 H 1.248(2) -0.022(2) 0.568(2)
H8 H 0.786(2) 0.218(2) 0.941(2)
H9 H 0.736(2) -0.117(2) 1.125(2)
H10 H 0.923(2) -0.392(2) 1.146(2)
H11 H 1.168(2) -0.441(2) 0.938(2)
H12 H 1.189(2) -0.210(2) 0.728(2)
H13 H 0.477(2) 0.307(2) 1.008(2)
H14 H 0.485(3) 0.146(2) 0.998(2)
H15 H 0.567(2) 0.129(2) 1.130(2)
O1 O -0.0647(2) 0.6293(2) 0.6034(1)
N1 N -0.0066(2) 0.8986(2) 0.3408(1)
N2 N 0.4555(2) 0.8040(2) 0.3496(2)
N3 N 0.4699(3) 0.4082(2) 0.2728(2)
C1 C 0.1011(2) 0.7288(2) 0.3512(2)
C2 C 0.1081(3) 0.6177(2) 0.5184(2)
C3 C -0.1710(3) 0.7947(2) 0.5967(2)
C4 C -0.1852(3) 0.9117(2) 0.4344(2)
C5 C 0.0122(2) 1.0303(2) 0.2036(2)
C6 C 0.1507(2) 1.0025(2) 0.0807(2)
C7 C 0.2700(2) 0.8290(2) 0.0856(2)
C8 C 0.2881(2) 0.7151(2) 0.2548(2)
C9 C 0.1716(2) 1.1395(2) -0.0464(2)
C10 C 0.0591(3) 1.2995(2) -0.0566(2)
C11 C -0.0771(3) 1.3248(2) 0.0621(2)
C12 C -0.1010(2) 1.1927(2) 0.1904(2)
C13 C 0.4504(3) 0.8101(2) -0.0207(2)
C14 C 0.3927(2) 0.5414(2) 0.2665(2)
C15 C 0.3824(2) 0.7633(2) 0.3113(2)
H1 H 0.052(2) 0.692(2) 0.312(2)
H2 H 0.166(2) 0.656(2) 0.557(2)
H3 H 0.179(2) 0.503(2) 0.530(2)
H4 H -0.120(3) 0.828(2) 0.641(2)
H5 H -0.290(3) 0.790(2) 0.655(2)
H6 H -0.250(2) 0.884(2) 0.392(2)
H7 H -0.248(2) 1.022(2) 0.432(2)
H8 H 0.214(2) 0.782(2) 0.059(2)
H9 H 0.264(2) 1.117(2) -0.125(2)
H10 H 0.077(2) 1.392(2) -0.146(2)
H11 H -0.168(2) 1.441(2) 0.062(2)
H12 H -0.189(2) 1.210(2) 0.272(2)
H13 H 0.523(2) 0.693(2) -0.008(2)
H14 H 0.515(3) 0.854(2) 0.002(2)
H15 H 0.433(2) 0.871(2) -0.130(2)

#END
