
#######################################################################
#
#                 Cambridge Crystallographic Data Centre
#                                CCDC 
#
#######################################################################
#
# If this CIF has been generated from an entry in the Cambridge 
# Structural Database, then it will include bibliographic, chemical, 
# crystal, experimental, refinement or atomic coordinate data resulting 
# from the CCDC's data processing and validation procedures.
#
#######################################################################

data_KACKEH
_symmetry_cell_setting           monoclinic
_symmetry_space_group_name_H-M   'P 21/n'
_symmetry_Int_Tables_number      14
_space_group_name_Hall           '-P 2yn'
loop_
_symmetry_equiv_pos_site_id
_symmetry_equiv_pos_as_xyz
1 x,y,z
2 1/2-x,1/2+y,1/2-z
3 -x,-y,-z
4 1/2+x,1/2-y,1/2+z
_cell_length_a                   9.90175(13)
_cell_length_b                   8.02985(9)
_cell_length_c                   23.3685(3)
_cell_angle_alpha                90
_cell_angle_beta                 96.4448(12)
_cell_angle_gamma                90
_cell_volume                     1846.28
loop_
_atom_site_label
_atom_site_type_symbol
_atom_site_fract_x
_atom_site_fract_y
_atom_site_fract_z
Cl1 Cl 0.20152(4) 0.59190(6) 0.36571(2)
O1 O 0.33203(12) 0.34430(16) 0.26134(5)
O2 O 0.79105(11) 0.70195(15) 0.32313(5)
O3 O 0.62792(12) 1.04573(16) 0.27464(5)
H1 H 0.649(3) 1.087(3) 0.2422(12)
N1 N 0.70287(13) 0.82941(17) 0.39943(6)
N2 N 0.58237(14) 0.91377(16) 0.40996(6)
C1 C 0.43560(17) 0.3814(2) 0.24169(7)
H2 H 0.4672 0.3078 0.2155
C2 C 0.51807(16) 0.5364(2) 0.25597(7)
H3 H 0.6130 0.5040 0.2665
C3 C 0.50973(17) 0.6431(2) 0.20080(7)
H4 H 0.5442 0.5794 0.1703
H5 H 0.4155 0.6706 0.1886
C4 C 0.59217(17) 0.8035(2) 0.21096(7)
H6 H 0.6878 0.7763 0.2192
H7 H 0.5810 0.8711 0.1764
C5 C 0.54636(17) 0.9017(2) 0.26084(7)
H8 H 0.4524 0.9378 0.2501
C6 C 0.55177(15) 0.8004(2) 0.31710(7)
C7 C 0.46924(16) 0.6336(2) 0.30652(7)
H9 H 0.3742 0.6641 0.2952
C8 C 0.49876(16) 0.90188(19) 0.36420(7)
C9 C 0.69708(15) 0.7698(2) 0.34461(7)
C10 C 0.36600(16) 0.9904(2) 0.35946(7)
H10 H 0.3522 1.0371 0.3962
H11 H 0.2941 0.9133 0.3476
H12 H 0.3660 1.0780 0.3315
C11 C 0.47256(16) 0.5271(2) 0.36072(7)
C12 C 0.35897(17) 0.5037(2) 0.39045(7)
C13 C 0.36287(18) 0.4055(2) 0.43950(7)
H13 H 0.2859 0.3948 0.4586
C14 C 0.48161(18) 0.3236(2) 0.45983(7)
H14 H 0.4851 0.2578 0.4927
C15 C 0.59536(18) 0.3406(2) 0.43070(7)
H15 H 0.6752 0.2848 0.4437
C16 C 0.58994(17) 0.4408(2) 0.38222(7)
H16 H 0.6673 0.4509 0.3633
C17 C 0.80799(16) 0.8172(2) 0.44597(7)
C18 C 0.79673(17) 0.9094(2) 0.49590(7)
H17 H 0.7234 0.9808 0.4978
C19 C 0.89547(18) 0.8939(2) 0.54258(7)
H18 H 0.8878 0.9548 0.5759
C20 C 1.00518(17) 0.7887(2) 0.54014(7)
H19 H 1.0703 0.7774 0.5718
C21 C 1.01739(18) 0.7003(2) 0.49016(8)
H20 H 1.0923 0.6315 0.4882
C22 C 0.91932(17) 0.7127(2) 0.44286(7)
H21 H 0.9279 0.6520 0.4096
Cl1 Cl 1.29848(4) 0.09190(6) 0.13429(2)
O1 O 1.16797(12) -0.15570(16) 0.23866(5)
O2 O 0.70895(11) 0.20195(15) 0.17687(5)
O3 O 0.87208(12) 0.54573(16) 0.22536(5)
H1 H 0.851(3) 0.587(3) 0.2578(12)
N1 N 0.79713(13) 0.32941(17) 0.10057(6)
N2 N 0.91763(14) 0.41377(16) 0.09004(6)
C1 C 1.06440(17) -0.1186(2) 0.25831(7)
H2 H 1.0328 -0.1922 0.2845
C2 C 0.98193(16) 0.0364(2) 0.24403(7)
H3 H 0.8870 0.0040 0.2335
C3 C 0.99027(17) 0.1431(2) 0.29920(7)
H4 H 0.9558 0.0794 0.3297
H5 H 1.0845 0.1706 0.3114
C4 C 0.90783(17) 0.3035(2) 0.28904(7)
H6 H 0.8122 0.2763 0.2808
H7 H 0.9190 0.3711 0.3236
C5 C 0.95364(17) 0.4017(2) 0.23916(7)
H8 H 1.0476 0.4378 0.2499
C6 C 0.94823(15) 0.3004(2) 0.18290(7)
C7 C 1.03076(16) 0.1336(2) 0.19348(7)
H9 H 1.1258 0.1641 0.2048
C8 C 1.00124(16) 0.40188(19) 0.13580(7)
C9 C 0.80292(15) 0.2698(2) 0.15539(7)
C10 C 1.13400(16) 0.4904(2) 0.14054(7)
H10 H 1.1478 0.5371 0.1038
H11 H 1.2059 0.4133 0.1524
H12 H 1.1340 0.5780 0.1685
C11 C 1.02744(16) 0.0271(2) 0.13928(7)
C12 C 1.14103(17) 0.0037(2) 0.10955(7)
C13 C 1.13713(18) -0.0945(2) 0.06050(7)
H13 H 1.2141 -0.1052 0.0414
C14 C 1.01839(18) -0.1764(2) 0.04017(7)
H14 H 1.0149 -0.2422 0.0073
C15 C 0.90464(18) -0.1594(2) 0.06930(7)
H15 H 0.8248 -0.2152 0.0563
C16 C 0.91006(17) -0.0592(2) 0.11778(7)
H16 H 0.8327 -0.0491 0.1367
C17 C 0.69201(16) 0.3172(2) 0.05403(7)
C18 C 0.70327(17) 0.4094(2) 0.00410(7)
H17 H 0.7766 0.4808 0.0022
C19 C 0.60453(18) 0.3939(2) -0.04258(7)
H18 H 0.6122 0.4548 -0.0759
C20 C 0.49482(17) 0.2887(2) -0.04014(7)
H19 H 0.4297 0.2774 -0.0718
C21 C 0.48261(18) 0.2003(2) 0.00984(8)
H20 H 0.4077 0.1315 0.0118
C22 C 0.58068(17) 0.2127(2) 0.05714(7)
H21 H 0.5721 0.1520 0.0904
Cl1 Cl 0.79848(4) 0.40810(6) 0.63429(2)
O1 O 0.66797(12) 0.65570(16) 0.73866(5)
O2 O 0.20895(11) 0.29805(15) 0.67687(5)
O3 O 0.37208(12) -0.04573(16) 0.72536(5)
H1 H 0.351(3) -0.087(3) 0.7578(12)
N1 N 0.29713(13) 0.17059(17) 0.60057(6)
N2 N 0.41763(14) 0.08623(16) 0.59004(6)
C1 C 0.56440(17) 0.6186(2) 0.75831(7)
H2 H 0.5328 0.6922 0.7845
C2 C 0.48193(16) 0.4636(2) 0.74403(7)
H3 H 0.3870 0.4960 0.7335
C3 C 0.49027(17) 0.3569(2) 0.79920(7)
H4 H 0.4558 0.4206 0.8297
H5 H 0.5845 0.3294 0.8114
C4 C 0.40783(17) 0.1965(2) 0.78904(7)
H6 H 0.3122 0.2237 0.7808
H7 H 0.4190 0.1289 0.8236
C5 C 0.45364(17) 0.0983(2) 0.73916(7)
H8 H 0.5476 0.0622 0.7499
C6 C 0.44823(15) 0.1996(2) 0.68290(7)
C7 C 0.53076(16) 0.3664(2) 0.69348(7)
H9 H 0.6258 0.3359 0.7048
C8 C 0.50124(16) 0.09812(19) 0.63580(7)
C9 C 0.30292(15) 0.2302(2) 0.65539(7)
C10 C 0.63400(16) 0.0096(2) 0.64054(7)
H10 H 0.6478 -0.0371 0.6038
H11 H 0.7059 0.0867 0.6524
H12 H 0.6340 -0.0780 0.6685
C11 C 0.52744(16) 0.4729(2) 0.63928(7)
C12 C 0.64103(17) 0.4963(2) 0.60955(7)
C13 C 0.63713(18) 0.5945(2) 0.56050(7)
H13 H 0.7141 0.6052 0.5414
C14 C 0.51839(18) 0.6764(2) 0.54017(7)
H14 H 0.5149 0.7422 0.5073
C15 C 0.40464(18) 0.6594(2) 0.56930(7)
H15 H 0.3248 0.7152 0.5563
C16 C 0.41006(17) 0.5592(2) 0.61778(7)
H16 H 0.3327 0.5491 0.6367
C17 C 0.19201(16) 0.1828(2) 0.55403(7)
C18 C 0.20327(17) 0.0906(2) 0.50410(7)
H17 H 0.2766 0.0192 0.5022
C19 C 0.10453(18) 0.1061(2) 0.45742(7)
H18 H 0.1122 0.0452 0.4241
C20 C -0.00518(17) 0.2113(2) 0.45986(7)
H19 H -0.0703 0.2226 0.4282
C21 C -0.01739(18) 0.2997(2) 0.50984(8)
H20 H -0.0923 0.3685 0.5118
C22 C 0.08068(17) 0.2873(2) 0.55714(7)
H21 H 0.0721 0.3480 0.5904
Cl1 Cl -0.29848(4) 0.90810(6) 0.86571(2)
O1 O -0.16797(12) 1.15570(16) 0.76134(5)
O2 O 0.29105(11) 0.79805(15) 0.82313(5)
O3 O 0.12792(12) 0.45427(16) 0.77464(5)
H1 H 0.149(3) 0.413(3) 0.7422(12)
N1 N 0.20287(13) 0.67059(17) 0.89943(6)
N2 N 0.08237(14) 0.58623(16) 0.90996(6)
C1 C -0.06440(17) 1.1186(2) 0.74169(7)
H2 H -0.0328 1.1922 0.7155
C2 C 0.01807(16) 0.9636(2) 0.75597(7)
H3 H 0.1130 0.9960 0.7665
C3 C 0.00973(17) 0.8569(2) 0.70080(7)
H4 H 0.0442 0.9206 0.6703
H5 H -0.0845 0.8294 0.6886
C4 C 0.09217(17) 0.6965(2) 0.71096(7)
H6 H 0.1878 0.7237 0.7192
H7 H 0.0810 0.6289 0.6764
C5 C 0.04636(17) 0.5983(2) 0.76084(7)
H8 H -0.0476 0.5622 0.7501
C6 C 0.05177(15) 0.6996(2) 0.81710(7)
C7 C -0.03076(16) 0.8664(2) 0.80652(7)
H9 H -0.1258 0.8359 0.7952
C8 C -0.00124(16) 0.59812(19) 0.86420(7)
C9 C 0.19708(15) 0.7302(2) 0.84461(7)
C10 C -0.13400(16) 0.5096(2) 0.85946(7)
H10 H -0.1478 0.4629 0.8962
H11 H -0.2059 0.5867 0.8476
H12 H -0.1340 0.4220 0.8315
C11 C -0.02744(16) 0.9729(2) 0.86072(7)
C12 C -0.14103(17) 0.9963(2) 0.89045(7)
C13 C -0.13713(18) 1.0945(2) 0.93950(7)
H13 H -0.2141 1.1052 0.9586
C14 C -0.01839(18) 1.1764(2) 0.95983(7)
H14 H -0.0149 1.2422 0.9927
C15 C 0.09536(18) 1.1594(2) 0.93070(7)
H15 H 0.1752 1.2152 0.9437
C16 C 0.08994(17) 1.0592(2) 0.88222(7)
H16 H 0.1673 1.0491 0.8633
C17 C 0.30799(16) 0.6828(2) 0.94597(7)
C18 C 0.29673(17) 0.5906(2) 0.99590(7)
H17 H 0.2234 0.5192 0.9978
C19 C 0.39547(18) 0.6061(2) 1.04258(7)
H18 H 0.3878 0.5452 1.0759
C20 C 0.50518(17) 0.7113(2) 1.04014(7)
H19 H 0.5703 0.7226 1.0718
C21 C 0.51739(18) 0.7997(2) 0.99016(8)
H20 H 0.5923 0.8685 0.9882
C22 C 0.41932(17) 0.7873(2) 0.94286(7)
H21 H 0.4279 0.8480 0.9096

#END
