
#######################################################################
#
#                 Cambridge Crystallographic Data Centre
#                                CCDC 
#
#######################################################################
#
# If this CIF has been generated from an entry in the Cambridge 
# Structural Database, then it will include bibliographic, chemical, 
# crystal, experimental, refinement or atomic coordinate data resulting 
# from the CCDC's data processing and validation procedures.
#
#######################################################################

data_KACLAD
_symmetry_cell_setting           triclinic
_symmetry_space_group_name_H-M   'P -1'
_symmetry_Int_Tables_number      2
_space_group_name_Hall           '-P 1'
loop_
_symmetry_equiv_pos_site_id
_symmetry_equiv_pos_as_xyz
1 x,y,z
2 -x,-y,-z
_cell_length_a                   7.6562(7)
_cell_length_b                   13.8512(10)
_cell_length_c                   20.5466(11)
_cell_angle_alpha                97.616(6)
_cell_angle_beta                 95.602(7)
_cell_angle_gamma                102.434(7)
_cell_volume                     2091.05
loop_
_atom_site_label
_atom_site_type_symbol
_atom_site_fract_x
_atom_site_fract_y
_atom_site_fract_z
N1 N 0.7526(3) 0.28848(19) 0.57618(11)
C7 C 0.5840(4) 0.1093(2) 0.68574(15)
H2 H 0.5954 0.0526 0.6583
C10 C 0.4855(4) 0.1702(2) 0.79387(15)
H7 H 0.5033 0.2349 0.7840
N6 N 0.7098(4) 0.1221(2) 0.55828(13)
O1 O 0.3402(4) 0.04331(19) 0.92802(11)
C12 C 0.6950(4) 0.2006(2) 0.59973(15)
C14 C 0.8038(4) 0.2623(2) 0.51591(14)
C19 C 0.4268(5) -0.0217(2) 0.82354(16)
H9 H 0.4075 -0.0866 0.8333
C23 C 0.5170(4) 0.0936(2) 0.74824(15)
C25 C 0.4848(5) -0.0015(2) 0.76460(17)
H12 H 0.5025 -0.0539 0.7346
C28 C 0.4288(4) 0.1510(2) 0.85325(15)
H15 H 0.4107 0.2028 0.8836
C29 C 0.8663(5) 0.3322(3) 0.47410(16)
C30 C 0.6308(4) 0.1959(2) 0.66345(15)
H16 H 0.6218 0.2546 0.6893
C32 C 0.7747(4) 0.1601(3) 0.50605(15)
C33 C 0.3987(4) 0.0544(2) 0.86803(15)
C36 C 0.7665(5) 0.3898(3) 0.60894(16)
H21 H 0.8610 0.4062 0.6457
H22 H 0.6542 0.3946 0.6247
H23 H 0.7936 0.4355 0.5781
C38 C 0.8060(5) 0.0967(3) 0.44970(18)
C43 C 0.3041(6) -0.0552(3) 0.9445(2)
H31 H 0.2094 -0.0983 0.9129
H32 H 0.2680 -0.0535 0.9880
H33 H 0.4116 -0.0802 0.9436
N11 N 0.9159(5) 0.3878(3) 0.43987(16)
N12 N 0.8311(6) 0.0470(3) 0.40505(18)
N1 N 0.2474(3) 0.71152(19) 0.42382(11)
C7 C 0.4160(4) 0.8907(2) 0.31426(15)
H2 H 0.4046 0.9474 0.3417
C10 C 0.5145(4) 0.8298(2) 0.20613(15)
H7 H 0.4967 0.7651 0.2160
N6 N 0.2902(4) 0.8779(2) 0.44172(13)
O1 O 0.6598(4) 0.95669(19) 0.07198(11)
C12 C 0.3050(4) 0.7994(2) 0.40027(15)
C14 C 0.1962(4) 0.7377(2) 0.48409(14)
C19 C 0.5732(5) 1.0217(2) 0.17646(16)
H9 H 0.5925 1.0866 0.1667
C23 C 0.4830(4) 0.9064(2) 0.25176(15)
C25 C 0.5152(5) 1.0015(2) 0.23540(17)
H12 H 0.4975 1.0539 0.2654
C28 C 0.5712(4) 0.8490(2) 0.14675(15)
H15 H 0.5893 0.7972 0.1164
C29 C 0.1337(5) 0.6678(3) 0.52590(16)
C30 C 0.3692(4) 0.8041(2) 0.33655(15)
H16 H 0.3782 0.7454 0.3107
C32 C 0.2253(4) 0.8399(3) 0.49395(15)
C33 C 0.6013(4) 0.9456(2) 0.13197(15)
C36 C 0.2335(5) 0.6102(3) 0.39106(16)
H21 H 0.1390 0.5938 0.3543
H22 H 0.3458 0.6054 0.3753
H23 H 0.2064 0.5645 0.4219
C38 C 0.1940(5) 0.9033(3) 0.55030(18)
C43 C 0.6959(6) 1.0552(3) 0.0555(2)
H31 H 0.7906 1.0983 0.0871
H32 H 0.7320 1.0535 0.0120
H33 H 0.5884 1.0802 0.0564
N11 N 0.0841(5) 0.6122(3) 0.56013(16)
N12 N 0.1689(6) 0.9530(3) 0.59495(18)
N2 N 0.3049(3) 0.54921(17) -0.06595(11)
N3 N 0.3776(3) 0.40717(18) -0.10502(12)
C3 C 0.3611(4) 0.5600(2) -0.12654(14)
C5 C 0.3622(4) 0.6472(2) -0.15548(15)
C6 C 0.1596(4) 0.3389(2) 0.12573(15)
H1 H 0.1577 0.4053 0.1236
C8 C 0.2519(4) 0.3230(2) 0.01282(15)
H3 H 0.2749 0.2791 -0.0219
C9 C 0.2499(5) 0.6251(2) -0.02204(15)
H4 H 0.2509 0.6830 -0.0432
H5 H 0.3323 0.6435 0.0183
H6 H 0.1304 0.5991 -0.0122
C11 C 0.2045(4) 0.2822(2) 0.07233(14)
C15 C 0.4051(4) 0.4725(2) -0.14917(14)
C18 C 0.4743(5) 0.4499(2) -0.20998(16)
C20 C 0.3165(4) 0.4556(2) -0.05536(14)
C22 C 0.2646(4) 0.4172(2) 0.00387(14)
H10 H 0.2390 0.4614 0.0378
C27 C 0.2068(5) 0.1835(2) 0.07741(18)
H14 H 0.2361 0.1431 0.0422
C31 C 0.1187(5) 0.2027(3) 0.18565(17)
N9 N 0.5330(5) 0.4348(3) -0.25800(16)
O2 O 0.0776(4) 0.1579(2) 0.23927(14)
C37 C 0.1662(6) 0.1450(3) 0.13386(19)
H24 H 0.1715 0.0792 0.1369
C39 C 0.1160(5) 0.3005(2) 0.18180(16)
H25 H 0.0862 0.3407 0.2170
C41 C 0.0019(7) 0.2089(3) 0.2890(2)
H27 H 0.0874 0.2693 0.3095
H28 H -0.0279 0.1668 0.3218
H29 H -0.1054 0.2253 0.2699
N10 N 0.3597(5) 0.7172(2) -0.17875(15)
N2 N 0.6951(3) 0.45079(17) 1.06595(11)
N3 N 0.6224(3) 0.59283(18) 1.10502(12)
C3 C 0.6389(4) 0.4400(2) 1.12654(14)
C5 C 0.6378(4) 0.3528(2) 1.15548(15)
C6 C 0.8404(4) 0.6611(2) 0.87427(15)
H1 H 0.8423 0.5947 0.8764
C8 C 0.7481(4) 0.6770(2) 0.98718(15)
H3 H 0.7251 0.7209 1.0219
C9 C 0.7501(5) 0.3749(2) 1.02204(15)
H4 H 0.7491 0.3170 1.0432
H5 H 0.6677 0.3565 0.9817
H6 H 0.8696 0.4009 1.0122
C11 C 0.7955(4) 0.7178(2) 0.92767(14)
C15 C 0.5949(4) 0.5275(2) 1.14917(14)
C18 C 0.5257(5) 0.5501(2) 1.20998(16)
C20 C 0.6835(4) 0.5444(2) 1.05536(14)
C22 C 0.7354(4) 0.5828(2) 0.99613(14)
H10 H 0.7610 0.5386 0.9622
C27 C 0.7932(5) 0.8165(2) 0.92259(18)
H14 H 0.7639 0.8569 0.9578
C31 C 0.8813(5) 0.7973(3) 0.81435(17)
N9 N 0.4670(5) 0.5652(3) 1.25800(16)
O2 O 0.9224(4) 0.8421(2) 0.76073(14)
C37 C 0.8338(6) 0.8550(3) 0.86614(19)
H24 H 0.8285 0.9208 0.8631
C39 C 0.8840(5) 0.6995(2) 0.81820(16)
H25 H 0.9138 0.6593 0.7830
C41 C 0.9981(7) 0.7911(3) 0.7110(2)
H27 H 0.9126 0.7307 0.6905
H28 H 1.0279 0.8332 0.6782
H29 H 1.1054 0.7747 0.7301
N10 N 0.6403(5) 0.2828(2) 1.17875(15)
C1 C -0.0783(4) 0.1559(2) 0.85671(15)
N4 N 0.0279(3) 0.16001(17) 0.74776(11)
C2 C -0.0125(4) 0.3022(2) 0.79503(13)
C4 C -0.0273(4) 0.2045(2) 0.80263(13)
N5 N 0.0508(4) 0.32051(18) 0.73741(12)
C13 C -0.0610(4) 0.3758(2) 0.84022(15)
C16 C 0.1994(4) 0.2869(3) 0.61240(15)
H8 H 0.1931 0.3514 0.6298
N7 N -0.1019(5) 0.4306(2) 0.87868(15)
C17 C 0.2700(4) 0.2745(3) 0.54926(15)
C21 C 0.0759(4) 0.2331(2) 0.70999(14)
C24 C 0.1424(4) 0.2145(3) 0.64748(15)
H11 H 0.1464 0.1493 0.6309
C26 C 0.3200(5) 0.3565(3) 0.51804(19)
H13 H 0.3123 0.4193 0.5384
N8 N -0.1160(5) 0.1207(2) 0.90203(15)
C34 C 0.0248(5) 0.0538(2) 0.73275(16)
H17 H -0.0793 0.0208 0.7015
H18 H 0.0193 0.0250 0.7728
H19 H 0.1320 0.0454 0.7142
C35 C 0.2825(5) 0.1830(3) 0.51659(16)
H20 H 0.2483 0.1262 0.5361
C40 C 0.3430(5) 0.1734(4) 0.45627(18)
H26 H 0.3496 0.1105 0.4357
C42 C 0.3819(5) 0.3475(4) 0.4564(2)
H30 H 0.4142 0.4034 0.4358
O3 O 0.4562(5) 0.2376(4) 0.36666(15)
C44 C 0.3947(6) 0.2555(5) 0.42640(19)
C45 C 0.5049(8) 0.3181(6) 0.3314(2)
H34 H 0.4053 0.3493 0.3254
H35 H 0.5343 0.2933 0.2889
H36 H 0.6076 0.3662 0.3557
C1 C 1.0783(4) 0.8441(2) 0.14329(15)
N4 N 0.9721(3) 0.83999(17) 0.25224(11)
C2 C 1.0125(4) 0.6978(2) 0.20497(13)
C4 C 1.0273(4) 0.7955(2) 0.19737(13)
N5 N 0.9492(4) 0.67949(18) 0.26259(12)
C13 C 1.0610(4) 0.6242(2) 0.15978(15)
C16 C 0.8006(4) 0.7131(3) 0.38760(15)
H8 H 0.8069 0.6486 0.3702
N7 N 1.1019(5) 0.5694(2) 0.12132(15)
C17 C 0.7300(4) 0.7255(3) 0.45074(15)
C21 C 0.9241(4) 0.7669(2) 0.29001(14)
C24 C 0.8576(4) 0.7855(3) 0.35252(15)
H11 H 0.8536 0.8507 0.3691
C26 C 0.6800(5) 0.6435(3) 0.48196(19)
H13 H 0.6877 0.5807 0.4616
N8 N 1.1160(5) 0.8793(2) 0.09797(15)
C34 C 0.9752(5) 0.9462(2) 0.26725(16)
H17 H 1.0793 0.9792 0.2985
H18 H 0.9807 0.9750 0.2272
H19 H 0.8680 0.9546 0.2858
C35 C 0.7175(5) 0.8170(3) 0.48341(16)
H20 H 0.7517 0.8738 0.4639
C40 C 0.6570(5) 0.8266(4) 0.54373(18)
H26 H 0.6504 0.8895 0.5643
C42 C 0.6181(5) 0.6525(4) 0.5436(2)
H30 H 0.5858 0.5966 0.5642
O3 O 0.5438(5) 0.7624(4) 0.63334(15)
C44 C 0.6053(6) 0.7445(5) 0.57360(19)
C45 C 0.4951(8) 0.6819(6) 0.6686(2)
H34 H 0.5947 0.6507 0.6746
H35 H 0.4657 0.7067 0.7111
H36 H 0.3924 0.6338 0.6443

#END
