./KACLIL_from_xyz.cif_generated_by_CrystalShift
_symmetry_cell_setting triclinic
_symmetry_space_group_name_H-M 'P 1'
loop_
_symmetry_equiv_pos_site_id
_symmetry_equiv_pos_as_xyz
1 x,y,z
_cell_length_a 7.401000
_cell_length_b 7.679000
_cell_length_c 14.658000
_cell_angle_alpha 99.525000
_cell_angle_beta 101.340000
_cell_angle_gamma 97.890000
_cell_volume 793.005570
loop_
_atom_site_label
_atom_site_type_symbol
_atom_site_fract_x
_atom_site_fract_y
_atom_site_fract_z
N1 N 0.718340 1.077440 -0.249510
N2 N 0.865000 1.326200 -0.145330
C3 C 0.735800 0.903800 0.079180
C4 C 0.743200 1.166500 0.007750
H5 H 0.738100 1.288000 0.012600
C6 C 0.728300 1.085300 0.083880
H7 H 0.712800 1.153500 0.139500
C8 C 0.779200 0.887100 -0.080800
H9 H 0.798600 0.820000 -0.135800
C10 C 0.783300 1.157200 -0.155780
C11 C 0.714400 0.815100 0.159890
C12 C 0.765200 1.203800 -0.300380
C13 C 0.784500 0.902100 0.253360
H14 H 0.847000 1.020100 0.266200
C15 C 0.620100 0.639000 0.144260
H16 H 0.571500 0.576800 0.082200
C17 C 0.764500 0.806700 -0.004380
H18 H 0.773800 0.686100 -0.008700
C19 C 0.765600 1.066800 -0.076640
O20 O 0.637900 0.547800 0.378580
C21 C 0.853900 1.354400 -0.235190
C22 C 0.924300 1.521000 -0.257990
C23 C 0.728700 1.172600 -0.400760
C24 C 0.669400 0.643600 0.310470
C25 C 0.603200 0.900900 -0.291870
H26 H 0.682800 0.814500 -0.302500
H27 H 0.523900 0.906500 -0.351200
H28 H 0.527300 0.865900 -0.249600
C29 C 0.763600 0.817700 0.328700
H30 H 0.813300 0.878500 0.390900
N31 N 0.703900 1.150800 -0.481330
N32 N 0.973500 1.650600 -0.280820
C33 C 0.597200 0.555200 0.217620
H34 H 0.532600 0.438000 0.204800
C35 C 0.733000 0.621800 0.473780
H36 H 0.865300 0.647000 0.477500
H37 H 0.707700 0.537900 0.513400
H38 H 0.690500 0.730900 0.494900
N39 N 0.281660 -0.077440 1.249510
N40 N 0.135000 -0.326200 1.145330
C41 C 0.264200 0.096200 0.920820
C42 C 0.256800 -0.166500 0.992250
H43 H 0.261900 -0.288000 0.987400
C44 C 0.271700 -0.085300 0.916120
H45 H 0.287200 -0.153500 0.860500
C46 C 0.220800 0.112900 1.080800
H47 H 0.201400 0.180000 1.135800
C48 C 0.216700 -0.157200 1.155780
C49 C 0.285600 0.184900 0.840110
C50 C 0.234800 -0.203800 1.300380
C51 C 0.215500 0.097900 0.746640
H52 H 0.153000 -0.020100 0.733800
C53 C 0.379900 0.361000 0.855740
H54 H 0.428500 0.423200 0.917800
C55 C 0.235500 0.193300 1.004380
H56 H 0.226200 0.313900 1.008700
C57 C 0.234400 -0.066800 1.076640
O58 O 0.362100 0.452200 0.621420
C59 C 0.146100 -0.354400 1.235190
C60 C 0.075700 -0.521000 1.257990
C61 C 0.271300 -0.172600 1.400760
C62 C 0.330600 0.356400 0.689530
C63 C 0.396800 0.099100 1.291870
H64 H 0.317200 0.185500 1.302500
H65 H 0.476100 0.093500 1.351200
H66 H 0.472700 0.134100 1.249600
C67 C 0.236400 0.182300 0.671300
H68 H 0.186700 0.121500 0.609100
N69 N 0.296100 -0.150800 1.481330
N70 N 0.026500 -0.650600 1.280820
C71 C 0.402800 0.444800 0.782380
H72 H 0.467400 0.562000 0.795200
C73 C 0.267000 0.378200 0.526220
H74 H 0.134700 0.353000 0.522500
H75 H 0.292300 0.462100 0.486600
H76 H 0.309500 0.269100 0.505100

#END
