
#######################################################################
#
#                 Cambridge Crystallographic Data Centre
#                                CCDC 
#
#######################################################################
#
# If this CIF has been generated from an entry in the Cambridge 
# Structural Database, then it will include bibliographic, chemical, 
# crystal, experimental, refinement or atomic coordinate data resulting 
# from the CCDC's data processing and validation procedures.
#
#######################################################################

data_KACLIL
_symmetry_cell_setting           triclinic
_symmetry_space_group_name_H-M   'P -1'
_symmetry_Int_Tables_number      2
_space_group_name_Hall           '-P 1'
loop_
_symmetry_equiv_pos_site_id
_symmetry_equiv_pos_as_xyz
1 x,y,z
2 -x,-y,-z
_cell_length_a                   7.401(3)
_cell_length_b                   7.6790(13)
_cell_length_c                   14.658(4)
_cell_angle_alpha                99.525(14)
_cell_angle_beta                 101.34(2)
_cell_angle_gamma                97.89(2)
_cell_volume                     793.006
loop_
_atom_site_label
_atom_site_type_symbol
_atom_site_fract_x
_atom_site_fract_y
_atom_site_fract_z
N1 N 0.71834(19) 1.07744(19) -0.24951(9)
N2 N 0.8650(2) 1.3262(2) -0.14533(10)
C1 C 0.7358(2) 0.9038(2) 0.07918(11)
C2 C 0.7432(2) 1.1665(2) 0.00775(12)
H1 H 0.7381 1.2880 0.0126
C3 C 0.7283(2) 1.0853(2) 0.08388(12)
H2 H 0.7128 1.1535 0.1395
C4 C 0.7792(2) 0.8871(2) -0.08080(12)
H3 H 0.7986 0.8200 -0.1358
C5 C 0.7833(2) 1.1572(2) -0.15578(12)
C6 C 0.7144(2) 0.8151(2) 0.15989(12)
C7 C 0.7652(2) 1.2038(2) -0.30038(12)
C8 C 0.7845(2) 0.9021(3) 0.25336(12)
H4 H 0.8470 1.0201 0.2662
C9 C 0.6201(3) 0.6390(2) 0.14426(13)
H5 H 0.5715 0.5768 0.0822
C10 C 0.7645(2) 0.8067(2) -0.00438(12)
H6 H 0.7738 0.6861 -0.0087
C11 C 0.7656(2) 1.0668(2) -0.07664(11)
O1 O 0.6379(2) 0.5478(2) 0.37858(11)
C12 C 0.8539(2) 1.3544(2) -0.23519(12)
C13 C 0.9243(3) 1.5210(3) -0.25799(13)
C14 C 0.7287(3) 1.1726(3) -0.40076(13)
C15 C 0.6694(3) 0.6436(3) 0.31047(14)
C16 C 0.6032(3) 0.9009(2) -0.29187(13)
H7 H 0.6828 0.8145 -0.3025
H8 H 0.5239 0.9065 -0.3512
H9 H 0.5273 0.8659 -0.2496
C17 C 0.7636(3) 0.8177(3) 0.32870(13)
H10 H 0.8133 0.8785 0.3909
N3 N 0.7039(3) 1.1508(3) -0.48133(13)
N4 N 0.9735(3) 1.6506(2) -0.28082(13)
C18 C 0.5972(3) 0.5552(3) 0.21762(14)
H11 H 0.5326 0.4380 0.2048
C19 C 0.7330(4) 0.6218(4) 0.47378(16)
H12 H 0.8653 0.6470 0.4775
H13 H 0.7077 0.5379 0.5134
H14 H 0.6905 0.7309 0.4949
N1 N 0.28166(19) -0.07744(19) 1.24951(9)
N2 N 0.1350(2) -0.3262(2) 1.14533(10)
C1 C 0.2642(2) 0.0962(2) 0.92082(11)
C2 C 0.2568(2) -0.1665(2) 0.99225(12)
H1 H 0.2619 -0.2880 0.9874
C3 C 0.2717(2) -0.0853(2) 0.91612(12)
H2 H 0.2872 -0.1535 0.8605
C4 C 0.2208(2) 0.1129(2) 1.08080(12)
H3 H 0.2014 0.1800 1.1358
C5 C 0.2167(2) -0.1572(2) 1.15578(12)
C6 C 0.2856(2) 0.1849(2) 0.84011(12)
C7 C 0.2348(2) -0.2038(2) 1.30038(12)
C8 C 0.2155(2) 0.0979(3) 0.74664(12)
H4 H 0.1530 -0.0201 0.7338
C9 C 0.3799(3) 0.3610(2) 0.85574(13)
H5 H 0.4285 0.4232 0.9178
C10 C 0.2355(2) 0.1933(2) 1.00438(12)
H6 H 0.2262 0.3139 1.0087
C11 C 0.2344(2) -0.0668(2) 1.07664(11)
O1 O 0.3621(2) 0.4522(2) 0.62142(11)
C12 C 0.1461(2) -0.3544(2) 1.23519(12)
C13 C 0.0757(3) -0.5210(3) 1.25799(13)
C14 C 0.2713(3) -0.1726(3) 1.40076(13)
C15 C 0.3306(3) 0.3564(3) 0.68953(14)
C16 C 0.3968(3) 0.0991(2) 1.29187(13)
H7 H 0.3172 0.1855 1.3025
H8 H 0.4761 0.0935 1.3512
H9 H 0.4727 0.1341 1.2496
C17 C 0.2364(3) 0.1823(3) 0.67130(13)
H10 H 0.1867 0.1215 0.6091
N3 N 0.2961(3) -0.1508(3) 1.48133(13)
N4 N 0.0265(3) -0.6506(2) 1.28082(13)
C18 C 0.4028(3) 0.4448(3) 0.78238(14)
H11 H 0.4674 0.5620 0.7952
C19 C 0.2670(4) 0.3782(4) 0.52622(16)
H12 H 0.1347 0.3530 0.5225
H13 H 0.2923 0.4621 0.4866
H14 H 0.3095 0.2691 0.5051

#END
