./KACQUB01_from_xyz.cif_generated_by_CrystalShift
_symmetry_cell_setting triclinic
_symmetry_space_group_name_H-M 'P 1'
loop_
_symmetry_equiv_pos_site_id
_symmetry_equiv_pos_as_xyz
1 x,y,z
_cell_length_a 6.191800
_cell_length_b 14.350000
_cell_length_c 15.200800
_cell_angle_alpha 90.000000
_cell_angle_beta 90.000000
_cell_angle_gamma 90.000000
_cell_volume 1350.626498
loop_
_atom_site_label
_atom_site_type_symbol
_atom_site_fract_x
_atom_site_fract_y
_atom_site_fract_z
Si1 Si 1.102950 0.446040 0.122060
C2 C 0.919400 0.590040 -0.051380
H3 H 1.050900 0.563600 -0.071700
C4 C 0.764100 0.620110 -0.110850
H5 H 0.789600 0.613300 -0.172200
C6 C 0.570900 0.660170 -0.082030
H7 H 0.467400 0.680900 -0.123800
C8 C 0.529400 0.669890 0.007420
H9 H 0.398800 0.697600 0.027200
C10 C 0.534300 0.676540 0.223500
H11 H 0.399700 0.700100 0.203400
C12 C 0.582900 0.675140 0.312860
H13 H 0.479700 0.697000 0.354200
C14 C 0.780700 0.642040 0.342030
H15 H 0.811500 0.641900 0.403200
C16 C 0.935000 0.608970 0.283100
H17 H 1.071000 0.587500 0.303700
C18 C 1.021200 0.574510 0.116200
H19 H 1.155500 0.613100 0.113200
C20 C 0.879900 0.599240 0.038730
C21 C 0.682800 0.638350 0.067480
C22 C 0.686800 0.642790 0.163890
C23 C 0.887100 0.607890 0.193540
C24 C 1.268900 0.428480 0.223340
H25 H 1.387700 0.473600 0.224100
H26 H 1.327900 0.365100 0.223600
H27 H 1.178200 0.437500 0.275500
C28 C 0.856300 0.371140 0.124080
H29 H 0.786400 0.372700 0.066300
H30 H 0.755900 0.394500 0.168800
H31 H 0.897300 0.306900 0.138300
C32 C 1.271100 0.415710 0.023940
H33 H 1.181100 0.417400 -0.029100
H34 H 1.331200 0.353000 0.031300
H35 H 1.389100 0.460800 0.018100
Si36 Si 0.397050 0.553960 0.622060
C37 C 0.580600 0.409960 0.448620
H38 H 0.449100 0.436400 0.428300
C39 C 0.735900 0.379890 0.389150
H40 H 0.710400 0.386700 0.327800
C41 C 0.929100 0.339830 0.417970
H42 H 1.032600 0.319100 0.376200
C43 C 0.970600 0.330110 0.507420
H44 H 1.101200 0.302400 0.527200
C45 C 0.965700 0.323460 0.723500
H46 H 1.100300 0.299900 0.703400
C47 C 0.917100 0.324860 0.812860
H48 H 1.020300 0.303000 0.854200
C49 C 0.719300 0.357960 0.842030
H50 H 0.688500 0.358100 0.903200
C51 C 0.565000 0.391030 0.783100
H52 H 0.429000 0.412500 0.803700
C53 C 0.478800 0.425490 0.616200
H54 H 0.344500 0.386900 0.613200
C55 C 0.620100 0.400760 0.538730
C56 C 0.817200 0.361650 0.567480
C57 C 0.813200 0.357210 0.663890
C58 C 0.612900 0.392110 0.693540
C59 C 0.231100 0.571520 0.723340
H60 H 0.112300 0.526400 0.724100
H61 H 0.172100 0.634900 0.723600
H62 H 0.321800 0.562500 0.775500
C63 C 0.643700 0.628860 0.624080
H64 H 0.713600 0.627300 0.566300
H65 H 0.744100 0.605500 0.668800
H66 H 0.602700 0.693100 0.638300
C67 C 0.228900 0.584290 0.523940
H68 H 0.318900 0.582600 0.470900
H69 H 0.168800 0.647000 0.531300
H70 H 0.110900 0.539200 0.518100
Si71 Si -0.102950 -0.053960 0.377940
C72 C 0.080600 0.090040 0.551380
H73 H -0.050900 0.063600 0.571700
C74 C 0.235900 0.120110 0.610850
H75 H 0.210400 0.113300 0.672200
C76 C 0.429100 0.160170 0.582030
H77 H 0.532600 0.180900 0.623800
C78 C 0.470600 0.169890 0.492580
H79 H 0.601200 0.197600 0.472800
C80 C 0.465700 0.176540 0.276500
H81 H 0.600300 0.200100 0.296600
C82 C 0.417100 0.175140 0.187140
H83 H 0.520300 0.197000 0.145800
C84 C 0.219300 0.142040 0.157970
H85 H 0.188500 0.141900 0.096800
C86 C 0.065000 0.108970 0.216900
H87 H -0.071000 0.087500 0.196300
C88 C -0.021200 0.074510 0.383800
H89 H -0.155500 0.113100 0.386800
C90 C 0.120100 0.099240 0.461270
C91 C 0.317200 0.138350 0.432520
C92 C 0.313200 0.142790 0.336110
C93 C 0.112900 0.107890 0.306460
C94 C -0.268900 -0.071520 0.276660
H95 H -0.387700 -0.026400 0.275900
H96 H -0.327900 -0.134900 0.276400
H97 H -0.178200 -0.062500 0.224500
C98 C 0.143700 -0.128860 0.375920
H99 H 0.213600 -0.127300 0.433700
H100 H 0.244100 -0.105500 0.331200
H101 H 0.102700 -0.193100 0.361700
C102 C -0.271100 -0.084290 0.476060
H103 H -0.181100 -0.082600 0.529100
H104 H -0.331200 -0.147000 0.468700
H105 H -0.389100 -0.039200 0.481900
Si106 Si 0.602950 1.053960 0.877940
C107 C 0.419400 0.909960 1.051380
H108 H 0.550900 0.936400 1.071700
C109 C 0.264100 0.879890 1.110850
H110 H 0.289600 0.886700 1.172200
C111 C 0.070900 0.839830 1.082030
H112 H -0.032600 0.819100 1.123800
C113 C 0.029400 0.830110 0.992580
H114 H -0.101200 0.802400 0.972800
C115 C 0.034300 0.823460 0.776500
H116 H -0.100300 0.799900 0.796600
C117 C 0.082900 0.824860 0.687140
H118 H -0.020300 0.803000 0.645800
C119 C 0.280700 0.857960 0.657970
H120 H 0.311500 0.858100 0.596800
C121 C 0.435000 0.891030 0.716900
H122 H 0.571000 0.912500 0.696300
C123 C 0.521200 0.925490 0.883800
H124 H 0.655500 0.886900 0.886800
C125 C 0.379900 0.900760 0.961270
C126 C 0.182800 0.861650 0.932520
C127 C 0.186800 0.857210 0.836110
C128 C 0.387100 0.892110 0.806460
C129 C 0.768900 1.071520 0.776660
H130 H 0.887700 1.026400 0.775900
H131 H 0.827900 1.134900 0.776400
H132 H 0.678200 1.062500 0.724500
C133 C 0.356300 1.128860 0.875920
H134 H 0.286400 1.127300 0.933700
H135 H 0.255900 1.105500 0.831200
H136 H 0.397300 1.193100 0.861700
C137 C 0.771100 1.084290 0.976060
H138 H 0.681100 1.082600 1.029100
H139 H 0.831200 1.147000 0.968700
H140 H 0.889100 1.039200 0.981900

#END
