
#######################################################################
#
#                 Cambridge Crystallographic Data Centre
#                                CCDC 
#
#######################################################################
#
# If this CIF has been generated from an entry in the Cambridge 
# Structural Database, then it will include bibliographic, chemical, 
# crystal, experimental, refinement or atomic coordinate data resulting 
# from the CCDC's data processing and validation procedures.
#
#######################################################################

data_KACQOW
_symmetry_cell_setting           triclinic
_symmetry_space_group_name_H-M   'P -1'
_symmetry_Int_Tables_number      2
_space_group_name_Hall           '-P 1'
loop_
_symmetry_equiv_pos_site_id
_symmetry_equiv_pos_as_xyz
1 x,y,z
2 -x,-y,-z
_cell_length_a                   8.1675(2)
_cell_length_b                   8.6875(3)
_cell_length_c                   16.5972(6)
_cell_angle_alpha                92.909(2)
_cell_angle_beta                 92.682(2)
_cell_angle_gamma                106.820(2)
_cell_volume                     1123.49
loop_
_atom_site_label
_atom_site_type_symbol
_atom_site_fract_x
_atom_site_fract_y
_atom_site_fract_z
Ag1 Ag 0.04326(3) 0.18944(3) 0.445239(14)
Br1 Br 0.25164(4) 0.03410(4) 0.472014(19)
N1 N 0.0709(3) 0.5388(3) 0.40179(13)
N2 N -0.1897(3) 0.3950(3) 0.38251(13)
N3 N -0.2346(3) 0.1321(3) 0.25753(14)
C1 C -0.0321(4) 0.3866(3) 0.40574(16)
C2 C -0.0214(4) 0.6397(4) 0.37608(18)
H1 H 0.027(4) 0.741(4) 0.3742(17)
C3 C -0.1841(4) 0.5507(4) 0.36362(17)
H2 H -0.280(5) 0.573(4) 0.346(2)
C4 C 0.2571(4) 0.5883(4) 0.41665(18)
H3 H 0.284(4) 0.513(4) 0.4473(17)
H4 H 0.290(4) 0.688(4) 0.4436(18)
C5 C 0.3481(3) 0.5972(3) 0.33909(16)
C6 C 0.3104(4) 0.4640(4) 0.28372(18)
H5 H 0.241(4) 0.376(4) 0.295(2)
C7 C 0.3920(4) 0.4705(4) 0.21257(18)
H6 H 0.365(5) 0.371(5) 0.174(2)
C8 C 0.5141(4) 0.6108(4) 0.19600(19)
H7 H 0.578(4) 0.619(4) 0.149(2)
C9 C 0.5523(4) 0.7425(4) 0.2502(2)
H8 H 0.620(5) 0.827(5) 0.241(2)
C10 C 0.4699(4) 0.7368(4) 0.3217(2)
H9 H 0.495(4) 0.819(4) 0.3564(19)
C11 C -0.3432(4) 0.2569(4) 0.36889(17)
H10 H -0.330(4) 0.169(4) 0.3998(18)
H11 H -0.436(3) 0.285(3) 0.3860(15)
C12 C -0.3714(4) 0.1987(4) 0.28012(18)
H12 H -0.380(4) 0.284(4) 0.2465(18)
H13 H -0.472(4) 0.118(4) 0.2719(18)
C13 C -0.1533(3) 0.1731(3) 0.19436(16)
C14 C -0.0156(3) 0.0971(3) 0.17553(16)
C15 C 0.0598(4) 0.1132(4) 0.10177(18)
H14 H 0.029(4) 0.178(4) 0.0669(19)
C16 C 0.1845(4) 0.0382(4) 0.0848(2)
H15 H 0.234(4) 0.051(4) 0.034(2)
C17 C 0.2368(4) -0.0498(4) 0.1415(2)
H16 H 0.318(5) -0.099(5) 0.131(2)
C18 C 0.1652(4) -0.0644(4) 0.2153(2)
H17 H 0.198(5) -0.122(5) 0.252(2)
C19 C 0.0399(4) 0.0075(4) 0.23252(19)
H18 H -0.010(4) -0.001(4) 0.282(2)
C20 C -0.1911(4) 0.2863(3) 0.13522(16)
C21 C -0.0899(4) 0.4448(4) 0.1357(2)
H19 H -0.007(4) 0.479(4) 0.1721(19)
C22 C -0.1244(5) 0.5450(5) 0.0794(2)
H20 H -0.059(5) 0.640(4) 0.083(2)
C23 C -0.2565(4) 0.4899(5) 0.0220(2)
H21 H -0.280(4) 0.557(4) -0.017(2)
C24 C -0.3588(5) 0.3333(5) 0.0218(2)
H22 H -0.437(5) 0.300(4) -0.013(2)
C25 C -0.3271(4) 0.2320(4) 0.07797(19)
H23 H -0.391(4) 0.131(4) 0.0796(18)
Ag1 Ag 0.95674(3) 0.81056(3) 0.554761(14)
Br1 Br 0.74836(4) 0.96590(4) 0.527986(19)
N1 N 0.9291(3) 0.4612(3) 0.59821(13)
N2 N 1.1897(3) 0.6050(3) 0.61749(13)
N3 N 1.2346(3) 0.8679(3) 0.74247(14)
C1 C 1.0321(4) 0.6134(3) 0.59426(16)
C2 C 1.0214(4) 0.3603(4) 0.62392(18)
H1 H 0.973(4) 0.259(4) 0.6258(17)
C3 C 1.1841(4) 0.4493(4) 0.63638(17)
H2 H 1.280(5) 0.427(4) 0.654(2)
C4 C 0.7429(4) 0.4117(4) 0.58335(18)
H3 H 0.716(4) 0.487(4) 0.5527(17)
H4 H 0.710(4) 0.312(4) 0.5564(18)
C5 C 0.6519(3) 0.4028(3) 0.66091(16)
C6 C 0.6896(4) 0.5360(4) 0.71628(18)
H5 H 0.759(4) 0.624(4) 0.705(2)
C7 C 0.6080(4) 0.5295(4) 0.78743(18)
H6 H 0.635(5) 0.629(5) 0.826(2)
C8 C 0.4859(4) 0.3892(4) 0.80400(19)
H7 H 0.422(4) 0.381(4) 0.851(2)
C9 C 0.4477(4) 0.2575(4) 0.7498(2)
H8 H 0.380(5) 0.173(5) 0.759(2)
C10 C 0.5301(4) 0.2632(4) 0.6783(2)
H9 H 0.505(4) 0.181(4) 0.6436(19)
C11 C 1.3432(4) 0.7431(4) 0.63111(17)
H10 H 1.330(4) 0.831(4) 0.6002(18)
H11 H 1.436(3) 0.715(3) 0.6140(15)
C12 C 1.3714(4) 0.8013(4) 0.71988(18)
H12 H 1.380(4) 0.716(4) 0.7535(18)
H13 H 1.472(4) 0.882(4) 0.7281(18)
C13 C 1.1533(3) 0.8269(3) 0.80564(16)
C14 C 1.0156(3) 0.9029(3) 0.82447(16)
C15 C 0.9402(4) 0.8868(4) 0.89823(18)
H14 H 0.971(4) 0.822(4) 0.9331(19)
C16 C 0.8155(4) 0.9618(4) 0.9152(2)
H15 H 0.766(4) 0.949(4) 0.966(2)
C17 C 0.7632(4) 1.0498(4) 0.8585(2)
H16 H 0.682(5) 1.099(5) 0.869(2)
C18 C 0.8348(4) 1.0644(4) 0.7847(2)
H17 H 0.802(5) 1.122(5) 0.748(2)
C19 C 0.9601(4) 0.9925(4) 0.76748(19)
H18 H 1.010(4) 1.001(4) 0.718(2)
C20 C 1.1911(4) 0.7137(3) 0.86478(16)
C21 C 1.0899(4) 0.5552(4) 0.8643(2)
H19 H 1.007(4) 0.521(4) 0.8279(19)
C22 C 1.1244(5) 0.4550(5) 0.9206(2)
H20 H 1.059(5) 0.360(4) 0.917(2)
C23 C 1.2565(4) 0.5101(5) 0.9780(2)
H21 H 1.280(4) 0.443(4) 1.017(2)
C24 C 1.3588(5) 0.6667(5) 0.9782(2)
H22 H 1.437(5) 0.700(4) 1.013(2)
C25 C 1.3271(4) 0.7680(4) 0.92203(19)
H23 H 1.391(4) 0.869(4) 0.9204(18)

#END
