./KACRUE_from_xyz.cif_generated_by_CrystalShift
_symmetry_cell_setting triclinic
_symmetry_space_group_name_H-M 'P 1'
loop_
_symmetry_equiv_pos_site_id
_symmetry_equiv_pos_as_xyz
1 x,y,z
_cell_length_a 10.996000
_cell_length_b 11.434000
_cell_length_c 11.807000
_cell_angle_alpha 88.121000
_cell_angle_beta 65.554000
_cell_angle_gamma 78.930000
_cell_volume 1324.437316
loop_
_atom_site_label
_atom_site_type_symbol
_atom_site_fract_x
_atom_site_fract_y
_atom_site_fract_z
N1 N 0.092230 0.144890 0.146010
N2 N 0.498360 0.242740 -0.271990
C3 C 0.200020 0.355340 -0.002300
C4 C 0.140490 0.340730 0.124530
C5 C 0.180480 0.397380 0.206750
C6 C 0.129380 0.379720 0.336700
C7 C 0.171900 0.433500 0.411800
C8 C 0.267340 0.508140 0.361880
C9 C 0.319580 0.526600 0.237620
C10 C 0.278640 0.472100 0.156960
C11 C 0.331960 0.489440 0.027530
C12 C 0.296180 0.431760 -0.049560
C13 C 0.039400 0.259850 0.175500
C14 C 0.005520 0.066310 0.186920
C15 C -0.130950 0.098960 0.255390
C16 C -0.190050 0.221370 0.286680
C17 C -0.331810 0.263400 0.353330
C18 C -0.383980 0.382510 0.378360
C19 C -0.296940 0.465660 0.339600
C20 C -0.159460 0.428180 0.275690
C21 C -0.102230 0.305070 0.246960
C22 C 0.161630 0.302200 -0.094400
C23 C 0.258970 0.234110 -0.198770
C24 C 0.222800 0.200390 -0.294770
C25 C 0.321370 0.138080 -0.407620
C26 C 0.284160 0.107070 -0.497670
C27 C 0.147180 0.134290 -0.480060
C28 C 0.049920 0.194750 -0.373750
C29 C 0.084820 0.229930 -0.278140
C30 C -0.013350 0.293580 -0.167460
C31 C 0.024430 0.330340 -0.079790
C32 C 0.400530 0.182850 -0.211200
C33 C 0.627800 0.191200 -0.287260
C34 C 0.661320 0.084230 -0.244050
C35 C 0.559750 0.016470 -0.182200
C36 C 0.587980 -0.098870 -0.140820
C37 C 0.486710 -0.162520 -0.088620
C38 C 0.352740 -0.113290 -0.072970
C39 C 0.321750 -0.000600 -0.108890
C40 C 0.424870 0.067070 -0.165660
H41 H 0.064600 0.329700 0.372000
H42 H 0.136600 0.420300 0.498400
H43 H 0.295500 0.545800 0.414900
H44 H 0.384400 0.576800 0.204700
H45 H 0.393800 0.542200 -0.006200
H46 H 0.336100 0.442700 -0.136500
H47 H 0.043000 -0.016200 0.166200
H48 H -0.186200 0.040300 0.282000
H49 H -0.391200 0.208000 0.380900
H50 H -0.479500 0.409700 0.422200
H51 H -0.334200 0.548500 0.358100
H52 H -0.101900 0.485100 0.250300
H53 H 0.414200 0.117800 -0.420400
H54 H 0.351500 0.066700 -0.573000
H55 H 0.122200 0.110500 -0.542500
H56 H -0.042200 0.213700 -0.363300
H57 H -0.106500 0.311000 -0.153800
H58 H -0.042700 0.375700 -0.007600
H59 H 0.698800 0.233300 -0.331100
H60 H 0.752600 0.054800 -0.255200
H61 H 0.677600 -0.132100 -0.149400
H62 H 0.506700 -0.240600 -0.062600
H63 H 0.283300 -0.158700 -0.037200
H64 H 0.230500 0.032500 -0.095700
N65 N 0.907770 0.855110 0.853990
N66 N 0.501640 0.757260 1.271990
C67 C 0.799980 0.644660 1.002300
C68 C 0.859510 0.659270 0.875470
C69 C 0.819520 0.602620 0.793250
C70 C 0.870620 0.620280 0.663300
C71 C 0.828100 0.566500 0.588200
C72 C 0.732660 0.491860 0.638120
C73 C 0.680420 0.473400 0.762380
C74 C 0.721360 0.527900 0.843040
C75 C 0.668040 0.510560 0.972470
C76 C 0.703820 0.568240 1.049560
C77 C 0.960600 0.740150 0.824500
C78 C 0.994480 0.933690 0.813080
C79 C 1.130950 0.901040 0.744610
C80 C 1.190050 0.778630 0.713320
C81 C 1.331810 0.736600 0.646670
C82 C 1.383980 0.617490 0.621640
C83 C 1.296940 0.534340 0.660400
C84 C 1.159460 0.571820 0.724310
C85 C 1.102230 0.694930 0.753040
C86 C 0.838370 0.697800 1.094400
C87 C 0.741030 0.765890 1.198770
C88 C 0.777200 0.799610 1.294770
C89 C 0.678630 0.861920 1.407620
C90 C 0.715840 0.892930 1.497670
C91 C 0.852820 0.865710 1.480060
C92 C 0.950080 0.805250 1.373750
C93 C 0.915180 0.770070 1.278140
C94 C 1.013350 0.706420 1.167460
C95 C 0.975570 0.669660 1.079790
C96 C 0.599470 0.817150 1.211200
C97 C 0.372200 0.808800 1.287260
C98 C 0.338680 0.915770 1.244050
C99 C 0.440250 0.983530 1.182200
C100 C 0.412020 1.098870 1.140820
C101 C 0.513290 1.162520 1.088620
C102 C 0.647260 1.113290 1.072970
C103 C 0.678250 1.000600 1.108890
C104 C 0.575130 0.932930 1.165660
H105 H 0.935400 0.670300 0.628000
H106 H 0.863400 0.579700 0.501600
H107 H 0.704500 0.454200 0.585100
H108 H 0.615600 0.423200 0.795300
H109 H 0.606200 0.457800 1.006200
H110 H 0.663900 0.557300 1.136500
H111 H 0.957000 1.016200 0.833800
H112 H 1.186200 0.959700 0.718000
H113 H 1.391200 0.792000 0.619100
H114 H 1.479500 0.590300 0.577800
H115 H 1.334200 0.451500 0.641900
H116 H 1.101900 0.514900 0.749700
H117 H 0.585800 0.882200 1.420400
H118 H 0.648500 0.933300 1.573000
H119 H 0.877800 0.889500 1.542500
H120 H 1.042200 0.786300 1.363300
H121 H 1.106500 0.689000 1.153800
H122 H 1.042700 0.624300 1.007600
H123 H 0.301200 0.766700 1.331100
H124 H 0.247400 0.945200 1.255200
H125 H 0.322400 1.132100 1.149400
H126 H 0.493300 1.240600 1.062600
H127 H 0.716700 1.158700 1.037200
H128 H 0.769500 0.967500 1.095700

#END
