
#######################################################################
#
#                 Cambridge Crystallographic Data Centre
#                                CCDC 
#
#######################################################################
#
# If this CIF has been generated from an entry in the Cambridge 
# Structural Database, then it will include bibliographic, chemical, 
# crystal, experimental, refinement or atomic coordinate data resulting 
# from the CCDC's data processing and validation procedures.
#
#######################################################################

data_KACREM
_symmetry_cell_setting           triclinic
_symmetry_space_group_name_H-M   'P -1'
_symmetry_Int_Tables_number      2
_space_group_name_Hall           '-P 1'
loop_
_symmetry_equiv_pos_site_id
_symmetry_equiv_pos_as_xyz
1 x,y,z
2 -x,-y,-z
_cell_length_a                   10.3826(12)
_cell_length_b                   13.4036(16)
_cell_length_c                   7.7007(9)
_cell_angle_alpha                105.296(9)
_cell_angle_beta                 104.234(10)
_cell_angle_gamma                73.707(9)
_cell_volume                     974.939
loop_
_atom_site_label
_atom_site_type_symbol
_atom_site_fract_x
_atom_site_fract_y
_atom_site_fract_z
C1 C 0.1311(3) 0.0206(2) 0.5735(4)
C2 C 0.7062(3) 0.2927(2) 1.0044(5)
C3 C 0.6121(3) 0.2318(2) 0.9137(4)
C4 C 0.1123(3) -0.0683(3) 0.4352(5)
C5 C 0.8381(3) 0.2454(3) 1.0871(5)
C6 C 0.8708(3) 0.1361(3) 1.0742(5)
C7 C 0.0161(4) 0.0883(3) 0.6354(5)
C8 C 0.6479(3) 0.1216(2) 0.9026(4)
C9 C 0.7779(3) 0.0747(3) 0.9842(5)
C10 C 0.5098(3) -0.0242(3) 0.7663(5)
C11 C 0.5280(3) 0.0787(2) 0.8111(4)
C12 C 0.3817(3) -0.0420(3) 0.6876(5)
C13 C 0.2686(3) 0.0409(2) 0.6513(4)
C14 C 0.2896(3) 0.1452(2) 0.6939(4)
C15 C 0.4180(3) 0.1624(2) 0.7720(4)
C16 C 0.4634(3) 0.2674(2) 0.8226(4)
C17 C 0.4493(4) 0.3044(3) 0.6432(5)
C18 C 0.5052(5) 0.3997(3) 0.6595(6)
C19 C 0.3800(3) 0.3534(3) 0.9538(5)
C20 C 0.3848(5) 0.3241(4) 1.1330(6)
C21 C 0.9388(4) 0.3157(3) 1.1883(6)
C22 C 1.0798(5) 0.2517(4) 1.2536(8)
C23 C 0.9577(6) 0.3768(5) 1.0458(10)
C24 C 0.8778(7) 0.4044(5) 1.3295(10)
C25 C 0.8495(9) 0.3620(7) 1.4777(9)
H1 H 0.5894 -0.0833 0.7897
H2 H 0.3705 -0.1167 0.6584
H3 H 0.2108 0.2051 0.6667
H4 H 0.8007 -0.0038 0.9784
H5 H 0.9644 0.1000 1.1325
H6 H 0.6799 0.3707 1.0101
H7 H 0.9375 0.4505 1.3911
H8 H 0.7939 0.4433 1.2758
H9 H 1.0900 0.2420 1.3780
H10 H 1.0931 0.1777 1.1789
H11 H 1.1520 0.2785 1.2481
H12 H 0.9819 0.4438 1.1133
H13 H 1.0333 0.3361 0.9860
H14 H 0.8787 0.3901 0.9614
H15 H 0.3548 0.3186 0.5812
H16 H 0.4966 0.2447 0.5561
H17 H 0.5272 0.4339 0.7816
H18 H 0.5873 0.3804 0.6050
H19 H 0.4404 0.4516 0.5924
H20 H 0.8602 0.4083 1.5980
H21 H 0.7559 0.3527 1.4518
H22 H 0.9081 0.2933 1.4909
H23 H 0.2853 0.3685 0.8967
H24 H 0.4112 0.4174 0.9841
H25 H 0.2982 0.3175 1.1444
H26 H 0.4492 0.2570 1.1424
H27 H 0.4147 0.3762 1.2373
H28 H 0.2106 -0.1228 0.4038
H29 H 0.0333 0.1551 0.7451
C7A C -0.0161(4) -0.0883(3) 0.3646(5)
C1A C -0.1311(3) -0.0206(2) 0.4265(4)
C4A C -0.1123(3) 0.0683(3) 0.5648(5)
H28A H -0.2106 0.1228 0.5962
C13A C -0.2686(3) -0.0409(2) 0.3487(4)
C12A C -0.3817(3) 0.0420(3) 0.3124(5)
C10A C -0.5098(3) 0.0242(3) 0.2337(5)
C11A C -0.5280(3) -0.0787(2) 0.1889(4)
C8A C -0.6479(3) -0.1216(2) 0.0974(4)
C3A C -0.6121(3) -0.2318(2) 0.0863(4)
C2A C -0.7062(3) -0.2927(2) -0.0044(5)
C5A C -0.8381(3) -0.2454(3) -0.0871(5)
C6A C -0.8708(3) -0.1361(3) -0.0742(5)
C9A C -0.7779(3) -0.0747(3) 0.0158(5)
H4A H -0.8007 0.0038 0.0216
H5A H -0.9644 -0.1000 -0.1325
C21A C -0.9388(4) -0.3157(3) -0.1883(6)
C22A C -1.0798(5) -0.2517(4) -0.2536(8)
H9A H -1.0900 -0.2420 -0.3780
H10A H -1.0931 -0.1777 -0.1789
H11A H -1.1520 -0.2785 -0.2481
C23A C -0.9577(6) -0.3768(5) -0.0458(10)
H12A H -0.9819 -0.4438 -0.1133
H13A H -1.0333 -0.3361 0.0140
H14A H -0.8787 -0.3901 0.0386
C24A C -0.8778(7) -0.4044(5) -0.3295(10)
C25A C -0.8495(9) -0.3620(7) -0.4777(9)
H20A H -0.8602 -0.4083 -0.5980
H21A H -0.7559 -0.3527 -0.4518
H22A H -0.9081 -0.2933 -0.4909
H7A H -0.9375 -0.4505 -0.3911
H8A H -0.7939 -0.4433 -0.2758
H6A H -0.6799 -0.3707 -0.0101
C16A C -0.4634(3) -0.2674(2) 0.1774(4)
C15A C -0.4180(3) -0.1624(2) 0.2280(4)
C14A C -0.2896(3) -0.1452(2) 0.3061(4)
H3A H -0.2108 -0.2051 0.3333
C17A C -0.4493(4) -0.3044(3) 0.3568(5)
C18A C -0.5052(5) -0.3997(3) 0.3405(6)
H17A H -0.5272 -0.4339 0.2184
H18A H -0.5873 -0.3804 0.3950
H19A H -0.4404 -0.4516 0.4076
H15A H -0.3548 -0.3186 0.4188
H16A H -0.4966 -0.2447 0.4439
C19A C -0.3800(3) -0.3534(3) 0.0462(5)
C20A C -0.3848(5) -0.3241(4) -0.1330(6)
H25A H -0.2982 -0.3175 -0.1444
H26A H -0.4492 -0.2570 -0.1424
H27A H -0.4147 -0.3762 -0.2373
H23A H -0.2853 -0.3685 0.1033
H24A H -0.4112 -0.4174 0.0159
H1A H -0.5894 0.0833 0.2103
H2A H -0.3705 0.1167 0.3416
H29A H -0.0333 -0.1551 0.2549
C1 C 0.1311(3) 1.0206(2) 0.5735(4)
C2 C 0.7062(3) 1.2927(2) 1.0044(5)
C3 C 0.6121(3) 1.2318(2) 0.9137(4)
C4 C 0.1123(3) 0.9317(3) 0.4352(5)
C5 C 0.8381(3) 1.2454(3) 1.0871(5)
C6 C 0.8708(3) 1.1361(3) 1.0742(5)
C7 C 0.0161(4) 1.0883(3) 0.6354(5)
C8 C 0.6479(3) 1.1216(2) 0.9026(4)
C9 C 0.7779(3) 1.0747(3) 0.9842(5)
C10 C 0.5098(3) 0.9758(3) 0.7663(5)
C11 C 0.5280(3) 1.0787(2) 0.8111(4)
C12 C 0.3817(3) 0.9580(3) 0.6876(5)
C13 C 0.2686(3) 1.0409(2) 0.6513(4)
C14 C 0.2896(3) 1.1452(2) 0.6939(4)
C15 C 0.4180(3) 1.1624(2) 0.7720(4)
C16 C 0.4634(3) 1.2674(2) 0.8226(4)
C17 C 0.4493(4) 1.3044(3) 0.6432(5)
C18 C 0.5052(5) 1.3997(3) 0.6595(6)
C19 C 0.3800(3) 1.3534(3) 0.9538(5)
C20 C 0.3848(5) 1.3241(4) 1.1330(6)
C21 C 0.9388(4) 1.3157(3) 1.1883(6)
C22 C 1.0798(5) 1.2517(4) 1.2536(8)
C23 C 0.9577(6) 1.3768(5) 1.0458(10)
C24 C 0.8778(7) 1.4044(5) 1.3295(10)
C25 C 0.8495(9) 1.3620(7) 1.4777(9)
H1 H 0.5894 0.9167 0.7897
H2 H 0.3705 0.8833 0.6584
H3 H 0.2108 1.2051 0.6667
H4 H 0.8007 0.9962 0.9784
H5 H 0.9644 1.1000 1.1325
H6 H 0.6799 1.3707 1.0101
H7 H 0.9375 1.4505 1.3911
H8 H 0.7939 1.4433 1.2758
H9 H 1.0900 1.2420 1.3780
H10 H 1.0931 1.1777 1.1789
H11 H 1.1520 1.2785 1.2481
H12 H 0.9819 1.4438 1.1133
H13 H 1.0333 1.3361 0.9860
H14 H 0.8787 1.3901 0.9614
H15 H 0.3548 1.3186 0.5812
H16 H 0.4966 1.2447 0.5561
H17 H 0.5272 1.4339 0.7816
H18 H 0.5873 1.3804 0.6050
H19 H 0.4404 1.4516 0.5924
H20 H 0.8602 1.4083 1.5980
H21 H 0.7559 1.3527 1.4518
H22 H 0.9081 1.2933 1.4909
H23 H 0.2853 1.3685 0.8967
H24 H 0.4112 1.4174 0.9841
H25 H 0.2982 1.3175 1.1444
H26 H 0.4492 1.2570 1.1424
H27 H 0.4147 1.3762 1.2373
H28 H 0.2106 0.8772 0.4038
H29 H 0.0333 1.1551 0.7451
C7A C -0.0161(4) 0.9117(3) 0.3646(5)
C1A C -0.1311(3) 0.9794(2) 0.4265(4)
C4A C -0.1123(3) 1.0683(3) 0.5648(5)
H28A H -0.2106 1.1228 0.5962
C13A C -0.2686(3) 0.9591(2) 0.3487(4)
C12A C -0.3817(3) 1.0420(3) 0.3124(5)
C10A C -0.5098(3) 1.0242(3) 0.2337(5)
C11A C -0.5280(3) 0.9213(2) 0.1889(4)
C8A C -0.6479(3) 0.8784(2) 0.0974(4)
C3A C -0.6121(3) 0.7682(2) 0.0863(4)
C2A C -0.7062(3) 0.7073(2) -0.0044(5)
C5A C -0.8381(3) 0.7546(3) -0.0871(5)
C6A C -0.8708(3) 0.8639(3) -0.0742(5)
C9A C -0.7779(3) 0.9253(3) 0.0158(5)
H4A H -0.8007 1.0038 0.0216
H5A H -0.9644 0.9000 -0.1325
C21A C -0.9388(4) 0.6843(3) -0.1883(6)
C22A C -1.0798(5) 0.7483(4) -0.2536(8)
H9A H -1.0900 0.7580 -0.3780
H10A H -1.0931 0.8223 -0.1789
H11A H -1.1520 0.7215 -0.2481
C23A C -0.9577(6) 0.6232(5) -0.0458(10)
H12A H -0.9819 0.5562 -0.1133
H13A H -1.0333 0.6639 0.0140
H14A H -0.8787 0.6099 0.0386
C24A C -0.8778(7) 0.5956(5) -0.3295(10)
C25A C -0.8495(9) 0.6380(7) -0.4777(9)
H20A H -0.8602 0.5917 -0.5980
H21A H -0.7559 0.6473 -0.4518
H22A H -0.9081 0.7067 -0.4909
H7A H -0.9375 0.5495 -0.3911
H8A H -0.7939 0.5567 -0.2758
H6A H -0.6799 0.6293 -0.0101
C16A C -0.4634(3) 0.7326(2) 0.1774(4)
C15A C -0.4180(3) 0.8376(2) 0.2280(4)
C14A C -0.2896(3) 0.8548(2) 0.3061(4)
H3A H -0.2108 0.7949 0.3333
C17A C -0.4493(4) 0.6956(3) 0.3568(5)
C18A C -0.5052(5) 0.6003(3) 0.3405(6)
H17A H -0.5272 0.5661 0.2184
H18A H -0.5873 0.6196 0.3950
H19A H -0.4404 0.5484 0.4076
H15A H -0.3548 0.6814 0.4188
H16A H -0.4966 0.7553 0.4439
C19A C -0.3800(3) 0.6466(3) 0.0462(5)
C20A C -0.3848(5) 0.6759(4) -0.1330(6)
H25A H -0.2982 0.6825 -0.1444
H26A H -0.4492 0.7430 -0.1424
H27A H -0.4147 0.6238 -0.2373
H23A H -0.2853 0.6315 0.1033
H24A H -0.4112 0.5826 0.0159
H1A H -0.5894 1.0833 0.2103
H2A H -0.3705 1.1167 0.3416
H29A H -0.0333 0.8449 0.2549
C1 C 1.1311(3) 0.0206(2) 0.5735(4)
C2 C 1.7062(3) 0.2927(2) 1.0044(5)
C3 C 1.6121(3) 0.2318(2) 0.9137(4)
C4 C 1.1123(3) -0.0683(3) 0.4352(5)
C5 C 1.8381(3) 0.2454(3) 1.0871(5)
C6 C 1.8708(3) 0.1361(3) 1.0742(5)
C7 C 1.0161(4) 0.0883(3) 0.6354(5)
C8 C 1.6479(3) 0.1216(2) 0.9026(4)
C9 C 1.7779(3) 0.0747(3) 0.9842(5)
C10 C 1.5098(3) -0.0242(3) 0.7663(5)
C11 C 1.5280(3) 0.0787(2) 0.8111(4)
C12 C 1.3817(3) -0.0420(3) 0.6876(5)
C13 C 1.2686(3) 0.0409(2) 0.6513(4)
C14 C 1.2896(3) 0.1452(2) 0.6939(4)
C15 C 1.4180(3) 0.1624(2) 0.7720(4)
C16 C 1.4634(3) 0.2674(2) 0.8226(4)
C17 C 1.4493(4) 0.3044(3) 0.6432(5)
C18 C 1.5052(5) 0.3997(3) 0.6595(6)
C19 C 1.3800(3) 0.3534(3) 0.9538(5)
C20 C 1.3848(5) 0.3241(4) 1.1330(6)
C21 C 1.9388(4) 0.3157(3) 1.1883(6)
C22 C 2.0798(5) 0.2517(4) 1.2536(8)
C23 C 1.9577(6) 0.3768(5) 1.0458(10)
C24 C 1.8778(7) 0.4044(5) 1.3295(10)
C25 C 1.8495(9) 0.3620(7) 1.4777(9)
H1 H 1.5894 -0.0833 0.7897
H2 H 1.3705 -0.1167 0.6584
H3 H 1.2108 0.2051 0.6667
H4 H 1.8007 -0.0038 0.9784
H5 H 1.9644 0.1000 1.1325
H6 H 1.6799 0.3707 1.0101
H7 H 1.9375 0.4505 1.3911
H8 H 1.7939 0.4433 1.2758
H9 H 2.0900 0.2420 1.3780
H10 H 2.0931 0.1777 1.1789
H11 H 2.1520 0.2785 1.2481
H12 H 1.9819 0.4438 1.1133
H13 H 2.0333 0.3361 0.9860
H14 H 1.8787 0.3901 0.9614
H15 H 1.3548 0.3186 0.5812
H16 H 1.4966 0.2447 0.5561
H17 H 1.5272 0.4339 0.7816
H18 H 1.5873 0.3804 0.6050
H19 H 1.4404 0.4516 0.5924
H20 H 1.8602 0.4083 1.5980
H21 H 1.7559 0.3527 1.4518
H22 H 1.9081 0.2933 1.4909
H23 H 1.2853 0.3685 0.8967
H24 H 1.4112 0.4174 0.9841
H25 H 1.2982 0.3175 1.1444
H26 H 1.4492 0.2570 1.1424
H27 H 1.4147 0.3762 1.2373
H28 H 1.2106 -0.1228 0.4038
H29 H 1.0333 0.1551 0.7451
C7A C 0.9839(4) -0.0883(3) 0.3646(5)
C1A C 0.8689(3) -0.0206(2) 0.4265(4)
C4A C 0.8877(3) 0.0683(3) 0.5648(5)
H28A H 0.7894 0.1228 0.5962
C13A C 0.7314(3) -0.0409(2) 0.3487(4)
C12A C 0.6183(3) 0.0420(3) 0.3124(5)
C10A C 0.4902(3) 0.0242(3) 0.2337(5)
C11A C 0.4720(3) -0.0787(2) 0.1889(4)
C8A C 0.3521(3) -0.1216(2) 0.0974(4)
C3A C 0.3879(3) -0.2318(2) 0.0863(4)
C2A C 0.2938(3) -0.2927(2) -0.0044(5)
C5A C 0.1619(3) -0.2454(3) -0.0871(5)
C6A C 0.1292(3) -0.1361(3) -0.0742(5)
C9A C 0.2221(3) -0.0747(3) 0.0158(5)
H4A H 0.1993 0.0038 0.0216
H5A H 0.0356 -0.1000 -0.1325
C21A C 0.0612(4) -0.3157(3) -0.1883(6)
C22A C -0.0798(5) -0.2517(4) -0.2536(8)
H9A H -0.0900 -0.2420 -0.3780
H10A H -0.0931 -0.1777 -0.1789
H11A H -0.1520 -0.2785 -0.2481
C23A C 0.0423(6) -0.3768(5) -0.0458(10)
H12A H 0.0181 -0.4438 -0.1133
H13A H -0.0333 -0.3361 0.0140
H14A H 0.1213 -0.3901 0.0386
C24A C 0.1222(7) -0.4044(5) -0.3295(10)
C25A C 0.1505(9) -0.3620(7) -0.4777(9)
H20A H 0.1398 -0.4083 -0.5980
H21A H 0.2441 -0.3527 -0.4518
H22A H 0.0919 -0.2933 -0.4909
H7A H 0.0625 -0.4505 -0.3911
H8A H 0.2061 -0.4433 -0.2758
H6A H 0.3201 -0.3707 -0.0101
C16A C 0.5366(3) -0.2674(2) 0.1774(4)
C15A C 0.5820(3) -0.1624(2) 0.2280(4)
C14A C 0.7104(3) -0.1452(2) 0.3061(4)
H3A H 0.7892 -0.2051 0.3333
C17A C 0.5507(4) -0.3044(3) 0.3568(5)
C18A C 0.4948(5) -0.3997(3) 0.3405(6)
H17A H 0.4728 -0.4339 0.2184
H18A H 0.4127 -0.3804 0.3950
H19A H 0.5596 -0.4516 0.4076
H15A H 0.6452 -0.3186 0.4188
H16A H 0.5034 -0.2447 0.4439
C19A C 0.6200(3) -0.3534(3) 0.0462(5)
C20A C 0.6152(5) -0.3241(4) -0.1330(6)
H25A H 0.7018 -0.3175 -0.1444
H26A H 0.5508 -0.2570 -0.1424
H27A H 0.5853 -0.3762 -0.2373
H23A H 0.7147 -0.3685 0.1033
H24A H 0.5888 -0.4174 0.0159
H1A H 0.4106 0.0833 0.2103
H2A H 0.6295 0.1167 0.3416
H29A H 0.9667 -0.1551 0.2549
C1 C 1.1311(3) 1.0206(2) 0.5735(4)
C2 C 1.7062(3) 1.2927(2) 1.0044(5)
C3 C 1.6121(3) 1.2318(2) 0.9137(4)
C4 C 1.1123(3) 0.9317(3) 0.4352(5)
C5 C 1.8381(3) 1.2454(3) 1.0871(5)
C6 C 1.8708(3) 1.1361(3) 1.0742(5)
C7 C 1.0161(4) 1.0883(3) 0.6354(5)
C8 C 1.6479(3) 1.1216(2) 0.9026(4)
C9 C 1.7779(3) 1.0747(3) 0.9842(5)
C10 C 1.5098(3) 0.9758(3) 0.7663(5)
C11 C 1.5280(3) 1.0787(2) 0.8111(4)
C12 C 1.3817(3) 0.9580(3) 0.6876(5)
C13 C 1.2686(3) 1.0409(2) 0.6513(4)
C14 C 1.2896(3) 1.1452(2) 0.6939(4)
C15 C 1.4180(3) 1.1624(2) 0.7720(4)
C16 C 1.4634(3) 1.2674(2) 0.8226(4)
C17 C 1.4493(4) 1.3044(3) 0.6432(5)
C18 C 1.5052(5) 1.3997(3) 0.6595(6)
C19 C 1.3800(3) 1.3534(3) 0.9538(5)
C20 C 1.3848(5) 1.3241(4) 1.1330(6)
C21 C 1.9388(4) 1.3157(3) 1.1883(6)
C22 C 2.0798(5) 1.2517(4) 1.2536(8)
C23 C 1.9577(6) 1.3768(5) 1.0458(10)
C24 C 1.8778(7) 1.4044(5) 1.3295(10)
C25 C 1.8495(9) 1.3620(7) 1.4777(9)
H1 H 1.5894 0.9167 0.7897
H2 H 1.3705 0.8833 0.6584
H3 H 1.2108 1.2051 0.6667
H4 H 1.8007 0.9962 0.9784
H5 H 1.9644 1.1000 1.1325
H6 H 1.6799 1.3707 1.0101
H7 H 1.9375 1.4505 1.3911
H8 H 1.7939 1.4433 1.2758
H9 H 2.0900 1.2420 1.3780
H10 H 2.0931 1.1777 1.1789
H11 H 2.1520 1.2785 1.2481
H12 H 1.9819 1.4438 1.1133
H13 H 2.0333 1.3361 0.9860
H14 H 1.8787 1.3901 0.9614
H15 H 1.3548 1.3186 0.5812
H16 H 1.4966 1.2447 0.5561
H17 H 1.5272 1.4339 0.7816
H18 H 1.5873 1.3804 0.6050
H19 H 1.4404 1.4516 0.5924
H20 H 1.8602 1.4083 1.5980
H21 H 1.7559 1.3527 1.4518
H22 H 1.9081 1.2933 1.4909
H23 H 1.2853 1.3685 0.8967
H24 H 1.4112 1.4174 0.9841
H25 H 1.2982 1.3175 1.1444
H26 H 1.4492 1.2570 1.1424
H27 H 1.4147 1.3762 1.2373
H28 H 1.2106 0.8772 0.4038
H29 H 1.0333 1.1551 0.7451
C7A C 0.9839(4) 0.9117(3) 0.3646(5)
C1A C 0.8689(3) 0.9794(2) 0.4265(4)
C4A C 0.8877(3) 1.0683(3) 0.5648(5)
H28A H 0.7894 1.1228 0.5962
C13A C 0.7314(3) 0.9591(2) 0.3487(4)
C12A C 0.6183(3) 1.0420(3) 0.3124(5)
C10A C 0.4902(3) 1.0242(3) 0.2337(5)
C11A C 0.4720(3) 0.9213(2) 0.1889(4)
C8A C 0.3521(3) 0.8784(2) 0.0974(4)
C3A C 0.3879(3) 0.7682(2) 0.0863(4)
C2A C 0.2938(3) 0.7073(2) -0.0044(5)
C5A C 0.1619(3) 0.7546(3) -0.0871(5)
C6A C 0.1292(3) 0.8639(3) -0.0742(5)
C9A C 0.2221(3) 0.9253(3) 0.0158(5)
H4A H 0.1993 1.0038 0.0216
H5A H 0.0356 0.9000 -0.1325
C21A C 0.0612(4) 0.6843(3) -0.1883(6)
C22A C -0.0798(5) 0.7483(4) -0.2536(8)
H9A H -0.0900 0.7580 -0.3780
H10A H -0.0931 0.8223 -0.1789
H11A H -0.1520 0.7215 -0.2481
C23A C 0.0423(6) 0.6232(5) -0.0458(10)
H12A H 0.0181 0.5562 -0.1133
H13A H -0.0333 0.6639 0.0140
H14A H 0.1213 0.6099 0.0386
C24A C 0.1222(7) 0.5956(5) -0.3295(10)
C25A C 0.1505(9) 0.6380(7) -0.4777(9)
H20A H 0.1398 0.5917 -0.5980
H21A H 0.2441 0.6473 -0.4518
H22A H 0.0919 0.7067 -0.4909
H7A H 0.0625 0.5495 -0.3911
H8A H 0.2061 0.5567 -0.2758
H6A H 0.3201 0.6293 -0.0101
C16A C 0.5366(3) 0.7326(2) 0.1774(4)
C15A C 0.5820(3) 0.8376(2) 0.2280(4)
C14A C 0.7104(3) 0.8548(2) 0.3061(4)
H3A H 0.7892 0.7949 0.3333
C17A C 0.5507(4) 0.6956(3) 0.3568(5)
C18A C 0.4948(5) 0.6003(3) 0.3405(6)
H17A H 0.4728 0.5661 0.2184
H18A H 0.4127 0.6196 0.3950
H19A H 0.5596 0.5484 0.4076
H15A H 0.6452 0.6814 0.4188
H16A H 0.5034 0.7553 0.4439
C19A C 0.6200(3) 0.6466(3) 0.0462(5)
C20A C 0.6152(5) 0.6759(4) -0.1330(6)
H25A H 0.7018 0.6825 -0.1444
H26A H 0.5508 0.7430 -0.1424
H27A H 0.5853 0.6238 -0.2373
H23A H 0.7147 0.6315 0.1033
H24A H 0.5888 0.5826 0.0159
H1A H 0.4106 1.0833 0.2103
H2A H 0.6295 1.1167 0.3416
H29A H 0.9667 0.8449 0.2549

#END
