
#######################################################################
#
#                 Cambridge Crystallographic Data Centre
#                                CCDC 
#
#######################################################################
#
# If this CIF has been generated from an entry in the Cambridge 
# Structural Database, then it will include bibliographic, chemical, 
# crystal, experimental, refinement or atomic coordinate data resulting 
# from the CCDC's data processing and validation procedures.
#
#######################################################################

data_KACRUE
_symmetry_cell_setting           triclinic
_symmetry_space_group_name_H-M   'P -1'
_symmetry_Int_Tables_number      2
_space_group_name_Hall           '-P 1'
loop_
_symmetry_equiv_pos_site_id
_symmetry_equiv_pos_as_xyz
1 x,y,z
2 -x,-y,-z
_cell_length_a                   10.996(3)
_cell_length_b                   11.434(3)
_cell_length_c                   11.807(3)
_cell_angle_alpha                88.121(18)
_cell_angle_beta                 65.554(18)
_cell_angle_gamma                78.93(2)
_cell_volume                     1324.44
loop_
_atom_site_label
_atom_site_type_symbol
_atom_site_fract_x
_atom_site_fract_y
_atom_site_fract_z
N1 N 0.09223(10) 0.14489(9) 0.14601(9)
N2 N 0.49836(11) 0.24274(9) -0.27199(10)
C1 C 0.20002(12) 0.35534(10) -0.00230(11)
C2 C 0.14049(12) 0.34073(10) 0.12453(11)
C3 C 0.18048(12) 0.39738(10) 0.20675(11)
C4 C 0.12938(12) 0.37972(11) 0.33670(11)
C5 C 0.17190(13) 0.43350(11) 0.41180(12)
C6 C 0.26734(13) 0.50814(11) 0.36188(12)
C7 C 0.31958(13) 0.52660(11) 0.23762(12)
C8 C 0.27864(12) 0.47210(10) 0.15696(11)
C9 C 0.33196(12) 0.48944(10) 0.02753(11)
C10 C 0.29618(12) 0.43176(10) -0.04956(11)
C11 C 0.03940(12) 0.25985(10) 0.17550(11)
C12 C 0.00552(14) 0.06631(11) 0.18692(12)
C13 C -0.13095(14) 0.09896(11) 0.25539(12)
C14 C -0.19005(13) 0.22137(11) 0.28668(11)
C15 C -0.33181(14) 0.26340(12) 0.35333(12)
C16 C -0.38398(14) 0.38251(13) 0.37836(12)
C17 C -0.29694(13) 0.46566(12) 0.33960(11)
C18 C -0.15946(13) 0.42818(11) 0.27569(11)
C19 C -0.10223(12) 0.30507(11) 0.24696(10)
C20 C 0.16163(12) 0.30220(10) -0.09440(11)
C21 C 0.25897(12) 0.23411(10) -0.19877(11)
C22 C 0.22280(13) 0.20039(10) -0.29477(11)
C23 C 0.32137(14) 0.13808(11) -0.40762(11)
C24 C 0.28416(15) 0.10707(12) -0.49767(12)
C25 C 0.14718(16) 0.13429(12) -0.48006(13)
C26 C 0.04992(15) 0.19475(11) -0.37375(12)
C27 C 0.08482(13) 0.22993(10) -0.27814(11)
C28 C -0.01335(13) 0.29358(10) -0.16746(11)
C29 C 0.02443(12) 0.33034(10) -0.07979(11)
C30 C 0.40053(12) 0.18285(11) -0.21120(11)
C31 C 0.62780(14) 0.19120(12) -0.28726(13)
C32 C 0.66132(14) 0.08423(12) -0.24405(12)
C33 C 0.55975(13) 0.01647(11) -0.18220(11)
C34 C 0.58798(15) -0.09887(12) -0.14082(12)
C35 C 0.48671(15) -0.16252(12) -0.08862(12)
C36 C 0.35274(14) -0.11329(12) -0.07297(12)
C37 C 0.32175(13) -0.00060(11) -0.10889(11)
C38 C 0.42487(13) 0.06707(11) -0.16566(11)
H1 H 0.0646 0.3297 0.3720
H2 H 0.1366 0.4203 0.4984
H3 H 0.2955 0.5458 0.4149
H4 H 0.3844 0.5768 0.2047
H5 H 0.3938 0.5422 -0.0062
H6 H 0.3361 0.4427 -0.1365
H7 H 0.0430 -0.0162 0.1662
H8 H -0.1862 0.0403 0.2820
H9 H -0.3912 0.2080 0.3809
H10 H -0.4795 0.4097 0.4222
H11 H -0.3342 0.5485 0.3581
H12 H -0.1019 0.4851 0.2503
H13 H 0.4142 0.1178 -0.4204
H14 H 0.3515 0.0667 -0.5730
H15 H 0.1222 0.1105 -0.5425
H16 H -0.0422 0.2137 -0.3633
H17 H -0.1065 0.3110 -0.1538
H18 H -0.0427 0.3757 -0.0076
H19 H 0.6988 0.2333 -0.3311
H20 H 0.7526 0.0548 -0.2552
H21 H 0.6776 -0.1321 -0.1494
H22 H 0.5067 -0.2406 -0.0626
H23 H 0.2833 -0.1587 -0.0372
H24 H 0.2305 0.0325 -0.0957
N1 N 0.90777(10) 0.85511(9) 0.85399(9)
N2 N 0.50164(11) 0.75726(9) 1.27199(10)
C1 C 0.79998(12) 0.64466(10) 1.00230(11)
C2 C 0.85951(12) 0.65927(10) 0.87547(11)
C3 C 0.81952(12) 0.60262(10) 0.79325(11)
C4 C 0.87062(12) 0.62028(11) 0.66330(11)
C5 C 0.82810(13) 0.56650(11) 0.58820(12)
C6 C 0.73266(13) 0.49186(11) 0.63812(12)
C7 C 0.68042(13) 0.47340(11) 0.76238(12)
C8 C 0.72136(12) 0.52790(10) 0.84304(11)
C9 C 0.66804(12) 0.51056(10) 0.97247(11)
C10 C 0.70382(12) 0.56824(10) 1.04956(11)
C11 C 0.96060(12) 0.74015(10) 0.82450(11)
C12 C 0.99448(14) 0.93369(11) 0.81308(12)
C13 C 1.13095(14) 0.90104(11) 0.74461(12)
C14 C 1.19005(13) 0.77863(11) 0.71332(11)
C15 C 1.33181(14) 0.73660(12) 0.64667(12)
C16 C 1.38398(14) 0.61749(13) 0.62164(12)
C17 C 1.29694(13) 0.53434(12) 0.66040(11)
C18 C 1.15946(13) 0.57182(11) 0.72431(11)
C19 C 1.10223(12) 0.69493(11) 0.75304(10)
C20 C 0.83837(12) 0.69780(10) 1.09440(11)
C21 C 0.74103(12) 0.76589(10) 1.19877(11)
C22 C 0.77720(13) 0.79961(10) 1.29477(11)
C23 C 0.67863(14) 0.86192(11) 1.40762(11)
C24 C 0.71584(15) 0.89293(12) 1.49767(12)
C25 C 0.85282(16) 0.86571(12) 1.48006(13)
C26 C 0.95008(15) 0.80525(11) 1.37375(12)
C27 C 0.91518(13) 0.77007(10) 1.27814(11)
C28 C 1.01335(13) 0.70642(10) 1.16746(11)
C29 C 0.97557(12) 0.66966(10) 1.07979(11)
C30 C 0.59947(12) 0.81715(11) 1.21120(11)
C31 C 0.37220(14) 0.80880(12) 1.28726(13)
C32 C 0.33868(14) 0.91577(12) 1.24405(12)
C33 C 0.44025(13) 0.98353(11) 1.18220(11)
C34 C 0.41202(15) 1.09887(12) 1.14082(12)
C35 C 0.51329(15) 1.16252(12) 1.08862(12)
C36 C 0.64726(14) 1.11329(12) 1.07297(12)
C37 C 0.67825(13) 1.00060(11) 1.10889(11)
C38 C 0.57513(13) 0.93293(11) 1.16566(11)
H1 H 0.9354 0.6703 0.6280
H2 H 0.8634 0.5797 0.5016
H3 H 0.7045 0.4542 0.5851
H4 H 0.6156 0.4232 0.7953
H5 H 0.6062 0.4578 1.0062
H6 H 0.6639 0.5573 1.1365
H7 H 0.9570 1.0162 0.8338
H8 H 1.1862 0.9597 0.7180
H9 H 1.3912 0.7920 0.6191
H10 H 1.4795 0.5903 0.5778
H11 H 1.3342 0.4515 0.6419
H12 H 1.1019 0.5149 0.7497
H13 H 0.5858 0.8822 1.4204
H14 H 0.6485 0.9333 1.5730
H15 H 0.8778 0.8895 1.5425
H16 H 1.0422 0.7863 1.3633
H17 H 1.1065 0.6890 1.1538
H18 H 1.0427 0.6243 1.0076
H19 H 0.3012 0.7667 1.3311
H20 H 0.2474 0.9452 1.2552
H21 H 0.3224 1.1321 1.1494
H22 H 0.4933 1.2406 1.0626
H23 H 0.7167 1.1587 1.0372
H24 H 0.7695 0.9675 1.0957

#END
