./KACSOX01_from_xyz.cif_generated_by_CrystalShift
_symmetry_cell_setting triclinic
_symmetry_space_group_name_H-M 'P 1'
loop_
_symmetry_equiv_pos_site_id
_symmetry_equiv_pos_as_xyz
1 x,y,z
_cell_length_a 7.411400
_cell_length_b 10.612200
_cell_length_c 10.913700
_cell_angle_alpha 90.000000
_cell_angle_beta 103.692000
_cell_angle_gamma 90.000000
_cell_volume 833.983030
loop_
_atom_site_label
_atom_site_type_symbol
_atom_site_fract_x
_atom_site_fract_y
_atom_site_fract_z
C1 C 0.751400 0.409740 0.507010
H2 H 0.729800 0.494500 0.476300
H3 H 0.882600 0.395300 0.534900
H4 H 0.693900 0.397400 0.576200
C5 C 0.691520 0.198050 0.434260
C6 C 0.611070 0.119780 0.333030
H7 H 0.549500 0.155100 0.256500
C8 C 0.622320 -0.008590 0.345800
H9 H 0.569300 -0.061000 0.278600
C10 C 0.715140 -0.059320 0.461880
C11 C 0.791570 0.018850 0.562460
C12 C 0.781730 0.148080 0.550450
H13 H 0.833800 0.200300 0.618000
C14 C 0.748000 -0.190520 0.498320
C15 C 0.848900 -0.193950 0.636330
H16 H 0.966800 -0.237500 0.647100
H17 H 0.774700 -0.237100 0.685600
C18 C 0.879870 -0.056680 0.677900
H19 H 0.821200 -0.038600 0.746500
H20 H 1.011400 -0.038100 0.705300
O21 O 0.674210 0.323690 0.408420
O22 O 0.705150 -0.282620 0.430970
C23 C 0.248600 0.909740 0.992990
H24 H 0.270200 0.994500 1.023700
H25 H 0.117400 0.895300 0.965100
H26 H 0.306100 0.897400 0.923800
C27 C 0.308480 0.698050 1.065740
C28 C 0.388930 0.619780 1.166970
H29 H 0.450500 0.655100 1.243500
C30 C 0.377680 0.491410 1.154200
H31 H 0.430700 0.439000 1.221400
C32 C 0.284860 0.440680 1.038120
C33 C 0.208430 0.518850 0.937540
C34 C 0.218270 0.648080 0.949550
H35 H 0.166200 0.700300 0.882000
C36 C 0.252000 0.309480 1.001680
C37 C 0.151100 0.306050 0.863670
H38 H 0.033200 0.262500 0.852900
H39 H 0.225300 0.262900 0.814400
C40 C 0.120130 0.443320 0.822100
H41 H 0.178800 0.461400 0.753500
H42 H -0.011400 0.461900 0.794700
O43 O 0.325790 0.823690 1.091580
O44 O 0.294850 0.217380 1.069030
C45 C 0.248600 0.590260 0.492990
H46 H 0.270200 0.505500 0.523700
H47 H 0.117400 0.604700 0.465100
H48 H 0.306100 0.602600 0.423800
C49 C 0.308480 0.801950 0.565740
C50 C 0.388930 0.880220 0.666970
H51 H 0.450500 0.844900 0.743500
C52 C 0.377680 1.008590 0.654200
H53 H 0.430700 1.061000 0.721400
C54 C 0.284860 1.059320 0.538120
C55 C 0.208430 0.981150 0.437540
C56 C 0.218270 0.851920 0.449550
H57 H 0.166200 0.799700 0.382000
C58 C 0.252000 1.190520 0.501680
C59 C 0.151100 1.193950 0.363670
H60 H 0.033200 1.237500 0.352900
H61 H 0.225300 1.237100 0.314400
C62 C 0.120130 1.056680 0.322100
H63 H 0.178800 1.038600 0.253500
H64 H -0.011400 1.038100 0.294700
O65 O 0.325790 0.676310 0.591580
O66 O 0.294850 1.282620 0.569030
C67 C 0.751400 0.090260 0.007010
H68 H 0.729800 0.005500 -0.023700
H69 H 0.882600 0.104700 0.034900
H70 H 0.693900 0.102600 0.076200
C71 C 0.691520 0.301950 -0.065740
C72 C 0.611070 0.380220 -0.166970
H73 H 0.549500 0.344900 -0.243500
C74 C 0.622320 0.508590 -0.154200
H75 H 0.569300 0.561000 -0.221400
C76 C 0.715140 0.559320 -0.038120
C77 C 0.791570 0.481150 0.062460
C78 C 0.781730 0.351920 0.050450
H79 H 0.833800 0.299700 0.118000
C80 C 0.748000 0.690520 -0.001680
C81 C 0.848900 0.693950 0.136330
H82 H 0.966800 0.737500 0.147100
H83 H 0.774700 0.737100 0.185600
C84 C 0.879870 0.556680 0.177900
H85 H 0.821200 0.538600 0.246500
H86 H 1.011400 0.538100 0.205300
O87 O 0.674210 0.176310 -0.091580
O88 O 0.705150 0.782620 -0.069030

#END
