./KACSAL_from_xyz.cif_generated_by_CrystalShift
_symmetry_cell_setting triclinic
_symmetry_space_group_name_H-M 'P 1'
loop_
_symmetry_equiv_pos_site_id
_symmetry_equiv_pos_as_xyz
1 x,y,z
_cell_length_a 33.174500
_cell_length_b 7.786000
_cell_length_c 15.866800
_cell_angle_alpha 90.000000
_cell_angle_beta 100.688000
_cell_angle_gamma 90.000000
_cell_volume 4027.241885
loop_
_atom_site_label
_atom_site_type_symbol
_atom_site_fract_x
_atom_site_fract_y
_atom_site_fract_z
F1 F 0.235880 -0.303080 0.188750
F2 F 0.553650 0.433050 0.182650
O3 O 0.410070 -0.156210 0.049730
O4 O 0.389640 0.024410 0.309090
O5 O 0.347560 0.378380 0.084100
O6 O 0.328720 0.305220 -0.196210
N7 N 0.400630 -0.063880 0.179200
N8 N 0.368820 0.203000 0.196500
C9 C 0.309230 -0.229000 0.051030
H10 H 0.326800 -0.291500 0.023200
C11 C 0.285300 -0.314580 0.100260
H12 H 0.286500 -0.433500 0.105700
C13 C 0.259680 -0.219070 0.140890
C14 C 0.256820 -0.042960 0.135120
H15 H 0.239300 0.018100 0.163700
C16 C 0.281100 0.040500 0.084940
H17 H 0.279700 0.159400 0.079700
C18 C 0.307530 -0.050890 0.042380
C19 C 0.335390 0.037350 -0.010380
H20 H 0.344700 -0.051800 -0.046000
C21 C 0.375120 0.111580 0.048860
C22 C 0.403390 0.192840 -0.009350
H23 H 0.411000 0.099000 -0.044500
C24 C 0.381050 0.326490 -0.072150
H25 H 0.376800 0.429200 -0.040300
H26 H 0.398500 0.357100 -0.112500
C27 C 0.340220 0.267630 -0.121640
C28 C 0.312750 0.171830 -0.072010
H29 H 0.291200 0.115300 -0.112200
H30 H 0.299800 0.253800 -0.039500
C31 C 0.396990 -0.045790 0.091790
C32 C 0.386350 0.052710 0.233150
C33 C 0.363200 0.242470 0.110370
C34 C 0.443440 0.261580 0.042730
C35 C 0.448730 0.433100 0.067210
H36 H 0.427100 0.509800 0.052000
C37 C 0.485840 0.491500 0.114100
H38 H 0.489200 0.606200 0.130200
C39 C 0.517300 0.376400 0.136020
C40 C 0.513980 0.206500 0.112320
H41 H 0.535900 0.131400 0.127300
C42 C 0.476610 0.150610 0.065030
H43 H 0.473800 0.036300 0.048000
C44 C 0.418760 -0.223300 0.218890
H45 H 0.435300 -0.275600 0.182300
H46 H 0.397300 -0.300900 0.226900
H47 H 0.435600 -0.197600 0.273400
C48 C 0.353120 0.325400 0.253220
H49 H 0.368300 0.313300 0.310600
H50 H 0.324600 0.302600 0.252600
H51 H 0.356200 0.440400 0.233400
F52 F 0.764120 -0.303080 0.311250
F53 F 0.446350 0.433050 0.317350
O54 O 0.589930 -0.156210 0.450270
O55 O 0.610360 0.024410 0.190910
O56 O 0.652440 0.378380 0.415900
O57 O 0.671280 0.305220 0.696210
N58 N 0.599370 -0.063880 0.320800
N59 N 0.631180 0.203000 0.303500
C60 C 0.690770 -0.229000 0.448970
H61 H 0.673200 -0.291500 0.476800
C62 C 0.714700 -0.314580 0.399740
H63 H 0.713500 -0.433500 0.394300
C64 C 0.740320 -0.219070 0.359110
C65 C 0.743180 -0.042960 0.364880
H66 H 0.760700 0.018100 0.336300
C67 C 0.718900 0.040500 0.415060
H68 H 0.720300 0.159400 0.420300
C69 C 0.692470 -0.050890 0.457620
C70 C 0.664610 0.037350 0.510380
H71 H 0.655300 -0.051800 0.546000
C72 C 0.624880 0.111580 0.451140
C73 C 0.596610 0.192840 0.509350
H74 H 0.589000 0.099000 0.544500
C75 C 0.618950 0.326490 0.572150
H76 H 0.623200 0.429200 0.540300
H77 H 0.601500 0.357100 0.612500
C78 C 0.659780 0.267630 0.621640
C79 C 0.687250 0.171830 0.572010
H80 H 0.708800 0.115300 0.612200
H81 H 0.700200 0.253800 0.539500
C82 C 0.603010 -0.045790 0.408210
C83 C 0.613650 0.052710 0.266850
C84 C 0.636800 0.242470 0.389630
C85 C 0.556560 0.261580 0.457270
C86 C 0.551270 0.433100 0.432790
H87 H 0.572900 0.509800 0.448000
C88 C 0.514160 0.491500 0.385900
H89 H 0.510800 0.606200 0.369800
C90 C 0.482700 0.376400 0.363980
C91 C 0.486020 0.206500 0.387680
H92 H 0.464100 0.131400 0.372700
C93 C 0.523390 0.150610 0.434970
H94 H 0.526200 0.036300 0.452000
C95 C 0.581240 -0.223300 0.281110
H96 H 0.564700 -0.275600 0.317700
H97 H 0.602700 -0.300900 0.273100
H98 H 0.564400 -0.197600 0.226600
C99 C 0.646880 0.325400 0.246780
H100 H 0.631700 0.313300 0.189400
H101 H 0.675400 0.302600 0.247400
H102 H 0.643800 0.440400 0.266600
F103 F 0.735880 0.196920 0.188750
F104 F 1.053650 0.933050 0.182650
O105 O 0.910070 0.343790 0.049730
O106 O 0.889640 0.524410 0.309090
O107 O 0.847560 0.878380 0.084100
O108 O 0.828720 0.805220 -0.196210
N109 N 0.900630 0.436120 0.179200
N110 N 0.868820 0.703000 0.196500
C111 C 0.809230 0.271000 0.051030
H112 H 0.826800 0.208500 0.023200
C113 C 0.785300 0.185420 0.100260
H114 H 0.786500 0.066500 0.105700
C115 C 0.759680 0.280930 0.140890
C116 C 0.756820 0.457040 0.135120
H117 H 0.739300 0.518100 0.163700
C118 C 0.781100 0.540500 0.084940
H119 H 0.779700 0.659400 0.079700
C120 C 0.807530 0.449110 0.042380
C121 C 0.835390 0.537350 -0.010380
H122 H 0.844700 0.448200 -0.046000
C123 C 0.875120 0.611580 0.048860
C124 C 0.903390 0.692840 -0.009350
H125 H 0.911000 0.599000 -0.044500
C126 C 0.881050 0.826490 -0.072150
H127 H 0.876800 0.929200 -0.040300
H128 H 0.898500 0.857100 -0.112500
C129 C 0.840220 0.767630 -0.121640
C130 C 0.812750 0.671830 -0.072010
H131 H 0.791200 0.615300 -0.112200
H132 H 0.799800 0.753800 -0.039500
C133 C 0.896990 0.454210 0.091790
C134 C 0.886350 0.552710 0.233150
C135 C 0.863200 0.742470 0.110370
C136 C 0.943440 0.761580 0.042730
C137 C 0.948730 0.933100 0.067210
H138 H 0.927100 1.009800 0.052000
C139 C 0.985840 0.991500 0.114100
H140 H 0.989200 1.106200 0.130200
C141 C 1.017300 0.876400 0.136020
C142 C 1.013980 0.706500 0.112320
H143 H 1.035900 0.631400 0.127300
C144 C 0.976610 0.650610 0.065030
H145 H 0.973800 0.536300 0.048000
C146 C 0.918760 0.276700 0.218890
H147 H 0.935300 0.224400 0.182300
H148 H 0.897300 0.199100 0.226900
H149 H 0.935600 0.302400 0.273400
C150 C 0.853120 0.825400 0.253220
H151 H 0.868300 0.813300 0.310600
H152 H 0.824600 0.802600 0.252600
H153 H 0.856200 0.940400 0.233400
F154 F 0.264120 0.196920 0.311250
F155 F -0.053650 0.933050 0.317350
O156 O 0.089930 0.343790 0.450270
O157 O 0.110360 0.524410 0.190910
O158 O 0.152440 0.878380 0.415900
O159 O 0.171280 0.805220 0.696210
N160 N 0.099370 0.436120 0.320800
N161 N 0.131180 0.703000 0.303500
C162 C 0.190770 0.271000 0.448970
H163 H 0.173200 0.208500 0.476800
C164 C 0.214700 0.185420 0.399740
H165 H 0.213500 0.066500 0.394300
C166 C 0.240320 0.280930 0.359110
C167 C 0.243180 0.457040 0.364880
H168 H 0.260700 0.518100 0.336300
C169 C 0.218900 0.540500 0.415060
H170 H 0.220300 0.659400 0.420300
C171 C 0.192470 0.449110 0.457620
C172 C 0.164610 0.537350 0.510380
H173 H 0.155300 0.448200 0.546000
C174 C 0.124880 0.611580 0.451140
C175 C 0.096610 0.692840 0.509350
H176 H 0.089000 0.599000 0.544500
C177 C 0.118950 0.826490 0.572150
H178 H 0.123200 0.929200 0.540300
H179 H 0.101500 0.857100 0.612500
C180 C 0.159780 0.767630 0.621640
C181 C 0.187250 0.671830 0.572010
H182 H 0.208800 0.615300 0.612200
H183 H 0.200200 0.753800 0.539500
C184 C 0.103010 0.454210 0.408210
C185 C 0.113650 0.552710 0.266850
C186 C 0.136800 0.742470 0.389630
C187 C 0.056560 0.761580 0.457270
C188 C 0.051270 0.933100 0.432790
H189 H 0.072900 1.009800 0.448000
C190 C 0.014160 0.991500 0.385900
H191 H 0.010800 1.106200 0.369800
C192 C -0.017300 0.876400 0.363980
C193 C -0.013980 0.706500 0.387680
H194 H -0.035900 0.631400 0.372700
C195 C 0.023390 0.650610 0.434970
H196 H 0.026200 0.536300 0.452000
C197 C 0.081240 0.276700 0.281110
H198 H 0.064700 0.224400 0.317700
H199 H 0.102700 0.199100 0.273100
H200 H 0.064400 0.302400 0.226600
C201 C 0.146880 0.825400 0.246780
H202 H 0.131700 0.813300 0.189400
H203 H 0.175400 0.802600 0.247400
H204 H 0.143800 0.940400 0.266600
F205 F 0.764120 1.303080 0.811250
F206 F 0.446350 0.566950 0.817350
O207 O 0.589930 1.156210 0.950270
O208 O 0.610360 0.975590 0.690910
O209 O 0.652440 0.621620 0.915900
O210 O 0.671280 0.694780 1.196210
N211 N 0.599370 1.063880 0.820800
N212 N 0.631180 0.797000 0.803500
C213 C 0.690770 1.229000 0.948970
H214 H 0.673200 1.291500 0.976800
C215 C 0.714700 1.314580 0.899740
H216 H 0.713500 1.433500 0.894300
C217 C 0.740320 1.219070 0.859110
C218 C 0.743180 1.042960 0.864880
H219 H 0.760700 0.981900 0.836300
C220 C 0.718900 0.959500 0.915060
H221 H 0.720300 0.840600 0.920300
C222 C 0.692470 1.050890 0.957620
C223 C 0.664610 0.962650 1.010380
H224 H 0.655300 1.051800 1.046000
C225 C 0.624880 0.888420 0.951140
C226 C 0.596610 0.807160 1.009350
H227 H 0.589000 0.901000 1.044500
C228 C 0.618950 0.673510 1.072150
H229 H 0.623200 0.570800 1.040300
H230 H 0.601500 0.642900 1.112500
C231 C 0.659780 0.732370 1.121640
C232 C 0.687250 0.828170 1.072010
H233 H 0.708800 0.884700 1.112200
H234 H 0.700200 0.746200 1.039500
C235 C 0.603010 1.045790 0.908210
C236 C 0.613650 0.947290 0.766850
C237 C 0.636800 0.757530 0.889630
C238 C 0.556560 0.738420 0.957270
C239 C 0.551270 0.566900 0.932790
H240 H 0.572900 0.490200 0.948000
C241 C 0.514160 0.508500 0.885900
H242 H 0.510800 0.393800 0.869800
C243 C 0.482700 0.623600 0.863980
C244 C 0.486020 0.793500 0.887680
H245 H 0.464100 0.868600 0.872700
C246 C 0.523390 0.849390 0.934970
H247 H 0.526200 0.963700 0.952000
C248 C 0.581240 1.223300 0.781110
H249 H 0.564700 1.275600 0.817700
H250 H 0.602700 1.300900 0.773100
H251 H 0.564400 1.197600 0.726600
C252 C 0.646880 0.674600 0.746780
H253 H 0.631700 0.686700 0.689400
H254 H 0.675400 0.697400 0.747400
H255 H 0.643800 0.559600 0.766600
F256 F 0.235880 1.303080 0.688750
F257 F 0.553650 0.566950 0.682650
O258 O 0.410070 1.156210 0.549730
O259 O 0.389640 0.975590 0.809090
O260 O 0.347560 0.621620 0.584100
O261 O 0.328720 0.694780 0.303790
N262 N 0.400630 1.063880 0.679200
N263 N 0.368820 0.797000 0.696500
C264 C 0.309230 1.229000 0.551030
H265 H 0.326800 1.291500 0.523200
C266 C 0.285300 1.314580 0.600260
H267 H 0.286500 1.433500 0.605700
C268 C 0.259680 1.219070 0.640890
C269 C 0.256820 1.042960 0.635120
H270 H 0.239300 0.981900 0.663700
C271 C 0.281100 0.959500 0.584940
H272 H 0.279700 0.840600 0.579700
C273 C 0.307530 1.050890 0.542380
C274 C 0.335390 0.962650 0.489620
H275 H 0.344700 1.051800 0.454000
C276 C 0.375120 0.888420 0.548860
C277 C 0.403390 0.807160 0.490650
H278 H 0.411000 0.901000 0.455500
C279 C 0.381050 0.673510 0.427850
H280 H 0.376800 0.570800 0.459700
H281 H 0.398500 0.642900 0.387500
C282 C 0.340220 0.732370 0.378360
C283 C 0.312750 0.828170 0.427990
H284 H 0.291200 0.884700 0.387800
H285 H 0.299800 0.746200 0.460500
C286 C 0.396990 1.045790 0.591790
C287 C 0.386350 0.947290 0.733150
C288 C 0.363200 0.757530 0.610370
C289 C 0.443440 0.738420 0.542730
C290 C 0.448730 0.566900 0.567210
H291 H 0.427100 0.490200 0.552000
C292 C 0.485840 0.508500 0.614100
H293 H 0.489200 0.393800 0.630200
C294 C 0.517300 0.623600 0.636020
C295 C 0.513980 0.793500 0.612320
H296 H 0.535900 0.868600 0.627300
C297 C 0.476610 0.849390 0.565030
H298 H 0.473800 0.963700 0.548000
C299 C 0.418760 1.223300 0.718890
H300 H 0.435300 1.275600 0.682300
H301 H 0.397300 1.300900 0.726900
H302 H 0.435600 1.197600 0.773400
C303 C 0.353120 0.674600 0.753220
H304 H 0.368300 0.686700 0.810600
H305 H 0.324600 0.697400 0.752600
H306 H 0.356200 0.559600 0.733400
F307 F 0.264120 0.803080 0.811250
F308 F -0.053650 0.066950 0.817350
O309 O 0.089930 0.656210 0.950270
O310 O 0.110360 0.475590 0.690910
O311 O 0.152440 0.121620 0.915900
O312 O 0.171280 0.194780 1.196210
N313 N 0.099370 0.563880 0.820800
N314 N 0.131180 0.297000 0.803500
C315 C 0.190770 0.729000 0.948970
H316 H 0.173200 0.791500 0.976800
C317 C 0.214700 0.814580 0.899740
H318 H 0.213500 0.933500 0.894300
C319 C 0.240320 0.719070 0.859110
C320 C 0.243180 0.542960 0.864880
H321 H 0.260700 0.481900 0.836300
C322 C 0.218900 0.459500 0.915060
H323 H 0.220300 0.340600 0.920300
C324 C 0.192470 0.550890 0.957620
C325 C 0.164610 0.462650 1.010380
H326 H 0.155300 0.551800 1.046000
C327 C 0.124880 0.388420 0.951140
C328 C 0.096610 0.307160 1.009350
H329 H 0.089000 0.401000 1.044500
C330 C 0.118950 0.173510 1.072150
H331 H 0.123200 0.070800 1.040300
H332 H 0.101500 0.142900 1.112500
C333 C 0.159780 0.232370 1.121640
C334 C 0.187250 0.328170 1.072010
H335 H 0.208800 0.384700 1.112200
H336 H 0.200200 0.246200 1.039500
C337 C 0.103010 0.545790 0.908210
C338 C 0.113650 0.447290 0.766850
C339 C 0.136800 0.257530 0.889630
C340 C 0.056560 0.238420 0.957270
C341 C 0.051270 0.066900 0.932790
H342 H 0.072900 -0.009800 0.948000
C343 C 0.014160 0.008500 0.885900
H344 H 0.010800 -0.106200 0.869800
C345 C -0.017300 0.123600 0.863980
C346 C -0.013980 0.293500 0.887680
H347 H -0.035900 0.368600 0.872700
C348 C 0.023390 0.349390 0.934970
H349 H 0.026200 0.463700 0.952000
C350 C 0.081240 0.723300 0.781110
H351 H 0.064700 0.775600 0.817700
H352 H 0.102700 0.800900 0.773100
H353 H 0.064400 0.697600 0.726600
C354 C 0.146880 0.174600 0.746780
H355 H 0.131700 0.186700 0.689400
H356 H 0.175400 0.197400 0.747400
H357 H 0.143800 0.059600 0.766600
F358 F 0.735880 0.803080 0.688750
F359 F 1.053650 0.066950 0.682650
O360 O 0.910070 0.656210 0.549730
O361 O 0.889640 0.475590 0.809090
O362 O 0.847560 0.121620 0.584100
O363 O 0.828720 0.194780 0.303790
N364 N 0.900630 0.563880 0.679200
N365 N 0.868820 0.297000 0.696500
C366 C 0.809230 0.729000 0.551030
H367 H 0.826800 0.791500 0.523200
C368 C 0.785300 0.814580 0.600260
H369 H 0.786500 0.933500 0.605700
C370 C 0.759680 0.719070 0.640890
C371 C 0.756820 0.542960 0.635120
H372 H 0.739300 0.481900 0.663700
C373 C 0.781100 0.459500 0.584940
H374 H 0.779700 0.340600 0.579700
C375 C 0.807530 0.550890 0.542380
C376 C 0.835390 0.462650 0.489620
H377 H 0.844700 0.551800 0.454000
C378 C 0.875120 0.388420 0.548860
C379 C 0.903390 0.307160 0.490650
H380 H 0.911000 0.401000 0.455500
C381 C 0.881050 0.173510 0.427850
H382 H 0.876800 0.070800 0.459700
H383 H 0.898500 0.142900 0.387500
C384 C 0.840220 0.232370 0.378360
C385 C 0.812750 0.328170 0.427990
H386 H 0.791200 0.384700 0.387800
H387 H 0.799800 0.246200 0.460500
C388 C 0.896990 0.545790 0.591790
C389 C 0.886350 0.447290 0.733150
C390 C 0.863200 0.257530 0.610370
C391 C 0.943440 0.238420 0.542730
C392 C 0.948730 0.066900 0.567210
H393 H 0.927100 -0.009800 0.552000
C394 C 0.985840 0.008500 0.614100
H395 H 0.989200 -0.106200 0.630200
C396 C 1.017300 0.123600 0.636020
C397 C 1.013980 0.293500 0.612320
H398 H 1.035900 0.368600 0.627300
C399 C 0.976610 0.349390 0.565030
H400 H 0.973800 0.463700 0.548000
C401 C 0.918760 0.723300 0.718890
H402 H 0.935300 0.775600 0.682300
H403 H 0.897300 0.800900 0.726900
H404 H 0.935600 0.697600 0.773400
C405 C 0.853120 0.174600 0.753220
H406 H 0.868300 0.186700 0.810600
H407 H 0.824600 0.197400 0.752600
H408 H 0.856200 0.059600 0.733400

#END
