
#######################################################################
#
#                 Cambridge Crystallographic Data Centre
#                                CCDC 
#
#######################################################################
#
# If this CIF has been generated from an entry in the Cambridge 
# Structural Database, then it will include bibliographic, chemical, 
# crystal, experimental, refinement or atomic coordinate data resulting 
# from the CCDC's data processing and validation procedures.
#
#######################################################################

data_KACSAL
_symmetry_cell_setting           monoclinic
_symmetry_space_group_name_H-M   'C 2/c'
_symmetry_Int_Tables_number      15
_space_group_name_Hall           '-C 2yn'
loop_
_symmetry_equiv_pos_site_id
_symmetry_equiv_pos_as_xyz
1 x,y,z
2 -x,y,1/2-z
3 1/2+x,1/2+y,z
4 1/2-x,1/2+y,1/2-z
5 -x,-y,-z
6 x,-y,1/2+z
7 1/2-x,1/2-y,-z
8 1/2+x,1/2-y,1/2+z
_cell_length_a                   33.1745(16)
_cell_length_b                   7.7860(3)
_cell_length_c                   15.8668(7)
_cell_angle_alpha                90
_cell_angle_beta                 100.688(3)
_cell_angle_gamma                90
_cell_volume                     4027.24
loop_
_atom_site_label
_atom_site_type_symbol
_atom_site_fract_x
_atom_site_fract_y
_atom_site_fract_z
F1 F 0.23588(3) -0.30308(12) 0.18875(6)
F2 F 0.55365(3) 0.43305(16) 0.18265(8)
O1 O 0.41007(3) -0.15621(13) 0.04973(7)
O2 O 0.38964(4) 0.02441(16) 0.30909(7)
O3 O 0.34756(3) 0.37838(13) 0.08410(7)
O4 O 0.32872(4) 0.30522(17) -0.19621(7)
N1 N 0.40063(4) -0.06388(15) 0.17920(7)
N2 N 0.36882(3) 0.20300(15) 0.19650(7)
C1 C 0.30923(4) -0.22900(18) 0.05103(8)
H1 H 0.3268 -0.2915 0.0232
C2 C 0.28530(4) -0.31458(18) 0.10026(9)
H2 H 0.2865 -0.4335 0.1057
C3 C 0.25968(4) -0.21907(18) 0.14089(9)
C4 C 0.25682(4) -0.04296(18) 0.13512(9)
H3 H 0.2393 0.0181 0.1637
C5 C 0.28110(4) 0.04050(18) 0.08494(9)
H4 H 0.2797 0.1594 0.0797
C6 C 0.30753(4) -0.05089(17) 0.04238(8)
C7 C 0.33539(4) 0.03735(17) -0.01038(8)
H5 H 0.3447 -0.0518 -0.0460
C8 C 0.37512(4) 0.11158(16) 0.04886(8)
C9 C 0.40339(4) 0.19284(17) -0.00935(8)
H6 H 0.4110 0.0990 -0.0445
C10 C 0.38105(4) 0.32649(18) -0.07215(9)
H7 H 0.3768 0.4292 -0.0403
H8 H 0.3985 0.3571 -0.1125
C11 C 0.34022(4) 0.26763(19) -0.12164(9)
C12 C 0.31275(4) 0.17183(19) -0.07201(9)
H9 H 0.2912 0.1153 -0.1122
H10 H 0.2998 0.2538 -0.0395
C13 C 0.39699(4) -0.04579(16) 0.09179(8)
C14 C 0.38635(4) 0.05271(18) 0.23315(8)
C15 C 0.36320(4) 0.24247(17) 0.11037(9)
C16 C 0.44344(4) 0.26158(17) 0.04273(8)
C17 C 0.44873(5) 0.4331(2) 0.06721(11)
H11 H 0.4271 0.5098 0.0520
C18 C 0.48584(5) 0.4915(2) 0.11410(12)
H12 H 0.4892 0.6062 0.1302
C19 C 0.51730(5) 0.3764(2) 0.13602(11)
C20 C 0.51398(5) 0.2065(2) 0.11232(11)
H13 H 0.5359 0.1314 0.1273
C21 C 0.47661(4) 0.15061(19) 0.06503(10)
H14 H 0.4738 0.0363 0.0480
C22 C 0.41876(6) -0.2233(2) 0.21889(11)
H15 H 0.4353 -0.2756 0.1823
H16 H 0.3973 -0.3009 0.2269
H17 H 0.4356 -0.1976 0.2734
C23 C 0.35312(5) 0.3254(2) 0.25322(10)
H18 H 0.3683 0.3133 0.3106
H19 H 0.3246 0.3026 0.2526
H20 H 0.3562 0.4404 0.2334
F1 F 0.76412(3) -0.30308(12) 0.31125(6)
F2 F 0.44635(3) 0.43305(16) 0.31735(8)
O1 O 0.58993(3) -0.15621(13) 0.45027(7)
O2 O 0.61036(4) 0.02441(16) 0.19091(7)
O3 O 0.65244(3) 0.37838(13) 0.41590(7)
O4 O 0.67128(4) 0.30522(17) 0.69621(7)
N1 N 0.59937(4) -0.06388(15) 0.32080(7)
N2 N 0.63118(3) 0.20300(15) 0.30350(7)
C1 C 0.69077(4) -0.22900(18) 0.44897(8)
H1 H 0.6732 -0.2915 0.4768
C2 C 0.71470(4) -0.31458(18) 0.39974(9)
H2 H 0.7135 -0.4335 0.3943
C3 C 0.74032(4) -0.21907(18) 0.35911(9)
C4 C 0.74318(4) -0.04296(18) 0.36488(9)
H3 H 0.7607 0.0181 0.3363
C5 C 0.71890(4) 0.04050(18) 0.41506(9)
H4 H 0.7203 0.1594 0.4203
C6 C 0.69247(4) -0.05089(17) 0.45762(8)
C7 C 0.66461(4) 0.03735(17) 0.51038(8)
H5 H 0.6553 -0.0518 0.5460
C8 C 0.62488(4) 0.11158(16) 0.45114(8)
C9 C 0.59661(4) 0.19284(17) 0.50935(8)
H6 H 0.5890 0.0990 0.5445
C10 C 0.61895(4) 0.32649(18) 0.57215(9)
H7 H 0.6232 0.4292 0.5403
H8 H 0.6015 0.3571 0.6125
C11 C 0.65978(4) 0.26763(19) 0.62164(9)
C12 C 0.68725(4) 0.17183(19) 0.57201(9)
H9 H 0.7088 0.1153 0.6122
H10 H 0.7002 0.2538 0.5395
C13 C 0.60301(4) -0.04579(16) 0.40821(8)
C14 C 0.61365(4) 0.05271(18) 0.26685(8)
C15 C 0.63680(4) 0.24247(17) 0.38963(9)
C16 C 0.55656(4) 0.26158(17) 0.45727(8)
C17 C 0.55127(5) 0.4331(2) 0.43279(11)
H11 H 0.5729 0.5098 0.4480
C18 C 0.51416(5) 0.4915(2) 0.38590(12)
H12 H 0.5108 0.6062 0.3698
C19 C 0.48270(5) 0.3764(2) 0.36398(11)
C20 C 0.48602(5) 0.2065(2) 0.38768(11)
H13 H 0.4641 0.1314 0.3727
C21 C 0.52339(4) 0.15061(19) 0.43497(10)
H14 H 0.5262 0.0363 0.4520
C22 C 0.58124(6) -0.2233(2) 0.28111(11)
H15 H 0.5647 -0.2756 0.3177
H16 H 0.6027 -0.3009 0.2731
H17 H 0.5644 -0.1976 0.2266
C23 C 0.64688(5) 0.3254(2) 0.24678(10)
H18 H 0.6317 0.3133 0.1894
H19 H 0.6754 0.3026 0.2474
H20 H 0.6438 0.4404 0.2666
F1 F 0.73588(3) 0.19692(12) 0.18875(6)
F2 F 1.05365(3) 0.93305(16) 0.18265(8)
O1 O 0.91007(3) 0.34379(13) 0.04973(7)
O2 O 0.88964(4) 0.52441(16) 0.30909(7)
O3 O 0.84756(3) 0.87838(13) 0.08410(7)
O4 O 0.82872(4) 0.80522(17) -0.19621(7)
N1 N 0.90063(4) 0.43612(15) 0.17920(7)
N2 N 0.86882(3) 0.70300(15) 0.19650(7)
C1 C 0.80923(4) 0.27100(18) 0.05103(8)
H1 H 0.8268 0.2085 0.0232
C2 C 0.78530(4) 0.18542(18) 0.10026(9)
H2 H 0.7865 0.0665 0.1057
C3 C 0.75968(4) 0.28093(18) 0.14089(9)
C4 C 0.75682(4) 0.45704(18) 0.13512(9)
H3 H 0.7393 0.5181 0.1637
C5 C 0.78110(4) 0.54050(18) 0.08494(9)
H4 H 0.7797 0.6594 0.0797
C6 C 0.80753(4) 0.44911(17) 0.04238(8)
C7 C 0.83539(4) 0.53735(17) -0.01038(8)
H5 H 0.8447 0.4482 -0.0460
C8 C 0.87512(4) 0.61158(16) 0.04886(8)
C9 C 0.90339(4) 0.69284(17) -0.00935(8)
H6 H 0.9110 0.5990 -0.0445
C10 C 0.88105(4) 0.82649(18) -0.07215(9)
H7 H 0.8768 0.9292 -0.0403
H8 H 0.8985 0.8571 -0.1125
C11 C 0.84022(4) 0.76763(19) -0.12164(9)
C12 C 0.81275(4) 0.67183(19) -0.07201(9)
H9 H 0.7912 0.6153 -0.1122
H10 H 0.7998 0.7538 -0.0395
C13 C 0.89699(4) 0.45421(16) 0.09179(8)
C14 C 0.88635(4) 0.55271(18) 0.23315(8)
C15 C 0.86320(4) 0.74247(17) 0.11037(9)
C16 C 0.94344(4) 0.76158(17) 0.04273(8)
C17 C 0.94873(5) 0.9331(2) 0.06721(11)
H11 H 0.9271 1.0098 0.0520
C18 C 0.98584(5) 0.9915(2) 0.11410(12)
H12 H 0.9892 1.1062 0.1302
C19 C 1.01730(5) 0.8764(2) 0.13602(11)
C20 C 1.01398(5) 0.7065(2) 0.11232(11)
H13 H 1.0359 0.6314 0.1273
C21 C 0.97661(4) 0.65061(19) 0.06503(10)
H14 H 0.9738 0.5363 0.0480
C22 C 0.91876(6) 0.2767(2) 0.21889(11)
H15 H 0.9353 0.2244 0.1823
H16 H 0.8973 0.1991 0.2269
H17 H 0.9356 0.3024 0.2734
C23 C 0.85312(5) 0.8254(2) 0.25322(10)
H18 H 0.8683 0.8133 0.3106
H19 H 0.8246 0.8026 0.2526
H20 H 0.8562 0.9404 0.2334
F1 F 0.26412(3) 0.19692(12) 0.31125(6)
F2 F -0.05365(3) 0.93305(16) 0.31735(8)
O1 O 0.08993(3) 0.34379(13) 0.45027(7)
O2 O 0.11036(4) 0.52441(16) 0.19091(7)
O3 O 0.15244(3) 0.87838(13) 0.41590(7)
O4 O 0.17128(4) 0.80522(17) 0.69621(7)
N1 N 0.09937(4) 0.43612(15) 0.32080(7)
N2 N 0.13118(3) 0.70300(15) 0.30350(7)
C1 C 0.19077(4) 0.27100(18) 0.44897(8)
H1 H 0.1732 0.2085 0.4768
C2 C 0.21470(4) 0.18542(18) 0.39974(9)
H2 H 0.2135 0.0665 0.3943
C3 C 0.24032(4) 0.28093(18) 0.35911(9)
C4 C 0.24318(4) 0.45704(18) 0.36488(9)
H3 H 0.2607 0.5181 0.3363
C5 C 0.21890(4) 0.54050(18) 0.41506(9)
H4 H 0.2203 0.6594 0.4203
C6 C 0.19247(4) 0.44911(17) 0.45762(8)
C7 C 0.16461(4) 0.53735(17) 0.51038(8)
H5 H 0.1553 0.4482 0.5460
C8 C 0.12488(4) 0.61158(16) 0.45114(8)
C9 C 0.09661(4) 0.69284(17) 0.50935(8)
H6 H 0.0890 0.5990 0.5445
C10 C 0.11895(4) 0.82649(18) 0.57215(9)
H7 H 0.1232 0.9292 0.5403
H8 H 0.1015 0.8571 0.6125
C11 C 0.15978(4) 0.76763(19) 0.62164(9)
C12 C 0.18725(4) 0.67183(19) 0.57201(9)
H9 H 0.2088 0.6153 0.6122
H10 H 0.2002 0.7538 0.5395
C13 C 0.10301(4) 0.45421(16) 0.40821(8)
C14 C 0.11365(4) 0.55271(18) 0.26685(8)
C15 C 0.13680(4) 0.74247(17) 0.38963(9)
C16 C 0.05656(4) 0.76158(17) 0.45727(8)
C17 C 0.05127(5) 0.9331(2) 0.43279(11)
H11 H 0.0729 1.0098 0.4480
C18 C 0.01416(5) 0.9915(2) 0.38590(12)
H12 H 0.0108 1.1062 0.3698
C19 C -0.01730(5) 0.8764(2) 0.36398(11)
C20 C -0.01398(5) 0.7065(2) 0.38768(11)
H13 H -0.0359 0.6314 0.3727
C21 C 0.02339(4) 0.65061(19) 0.43497(10)
H14 H 0.0262 0.5363 0.4520
C22 C 0.08124(6) 0.2767(2) 0.28111(11)
H15 H 0.0647 0.2244 0.3177
H16 H 0.1027 0.1991 0.2731
H17 H 0.0644 0.3024 0.2266
C23 C 0.14688(5) 0.8254(2) 0.24678(10)
H18 H 0.1317 0.8133 0.1894
H19 H 0.1754 0.8026 0.2474
H20 H 0.1438 0.9404 0.2666
F1 F 0.76412(3) 1.30308(12) 0.81125(6)
F2 F 0.44635(3) 0.56695(16) 0.81735(8)
O1 O 0.58993(3) 1.15621(13) 0.95027(7)
O2 O 0.61036(4) 0.97559(16) 0.69091(7)
O3 O 0.65244(3) 0.62162(13) 0.91590(7)
O4 O 0.67128(4) 0.69478(17) 1.19621(7)
N1 N 0.59937(4) 1.06388(15) 0.82080(7)
N2 N 0.63118(3) 0.79700(15) 0.80350(7)
C1 C 0.69077(4) 1.22900(18) 0.94897(8)
H1 H 0.6732 1.2915 0.9768
C2 C 0.71470(4) 1.31458(18) 0.89974(9)
H2 H 0.7135 1.4335 0.8943
C3 C 0.74032(4) 1.21907(18) 0.85911(9)
C4 C 0.74318(4) 1.04296(18) 0.86488(9)
H3 H 0.7607 0.9819 0.8363
C5 C 0.71890(4) 0.95950(18) 0.91506(9)
H4 H 0.7203 0.8406 0.9203
C6 C 0.69247(4) 1.05089(17) 0.95762(8)
C7 C 0.66461(4) 0.96265(17) 1.01038(8)
H5 H 0.6553 1.0518 1.0460
C8 C 0.62488(4) 0.88842(16) 0.95114(8)
C9 C 0.59661(4) 0.80716(17) 1.00935(8)
H6 H 0.5890 0.9010 1.0445
C10 C 0.61895(4) 0.67351(18) 1.07215(9)
H7 H 0.6232 0.5708 1.0403
H8 H 0.6015 0.6429 1.1125
C11 C 0.65978(4) 0.73237(19) 1.12164(9)
C12 C 0.68725(4) 0.82817(19) 1.07201(9)
H9 H 0.7088 0.8847 1.1122
H10 H 0.7002 0.7462 1.0395
C13 C 0.60301(4) 1.04579(16) 0.90821(8)
C14 C 0.61365(4) 0.94729(18) 0.76685(8)
C15 C 0.63680(4) 0.75753(17) 0.88963(9)
C16 C 0.55656(4) 0.73842(17) 0.95727(8)
C17 C 0.55127(5) 0.5669(2) 0.93279(11)
H11 H 0.5729 0.4902 0.9480
C18 C 0.51416(5) 0.5085(2) 0.88590(12)
H12 H 0.5108 0.3938 0.8698
C19 C 0.48270(5) 0.6236(2) 0.86398(11)
C20 C 0.48602(5) 0.7935(2) 0.88768(11)
H13 H 0.4641 0.8686 0.8727
C21 C 0.52339(4) 0.84939(19) 0.93497(10)
H14 H 0.5262 0.9637 0.9520
C22 C 0.58124(6) 1.2233(2) 0.78111(11)
H15 H 0.5647 1.2756 0.8177
H16 H 0.6027 1.3009 0.7731
H17 H 0.5644 1.1976 0.7266
C23 C 0.64688(5) 0.6746(2) 0.74678(10)
H18 H 0.6317 0.6867 0.6894
H19 H 0.6754 0.6974 0.7474
H20 H 0.6438 0.5596 0.7666
F1 F 0.23588(3) 1.30308(12) 0.68875(6)
F2 F 0.55365(3) 0.56695(16) 0.68265(8)
O1 O 0.41007(3) 1.15621(13) 0.54973(7)
O2 O 0.38964(4) 0.97559(16) 0.80909(7)
O3 O 0.34756(3) 0.62162(13) 0.58410(7)
O4 O 0.32872(4) 0.69478(17) 0.30379(7)
N1 N 0.40063(4) 1.06388(15) 0.67920(7)
N2 N 0.36882(3) 0.79700(15) 0.69650(7)
C1 C 0.30923(4) 1.22900(18) 0.55103(8)
H1 H 0.3268 1.2915 0.5232
C2 C 0.28530(4) 1.31458(18) 0.60026(9)
H2 H 0.2865 1.4335 0.6057
C3 C 0.25968(4) 1.21907(18) 0.64089(9)
C4 C 0.25682(4) 1.04296(18) 0.63512(9)
H3 H 0.2393 0.9819 0.6637
C5 C 0.28110(4) 0.95950(18) 0.58494(9)
H4 H 0.2797 0.8406 0.5797
C6 C 0.30753(4) 1.05089(17) 0.54238(8)
C7 C 0.33539(4) 0.96265(17) 0.48962(8)
H5 H 0.3447 1.0518 0.4540
C8 C 0.37512(4) 0.88842(16) 0.54886(8)
C9 C 0.40339(4) 0.80716(17) 0.49065(8)
H6 H 0.4110 0.9010 0.4555
C10 C 0.38105(4) 0.67351(18) 0.42785(9)
H7 H 0.3768 0.5708 0.4597
H8 H 0.3985 0.6429 0.3875
C11 C 0.34022(4) 0.73237(19) 0.37836(9)
C12 C 0.31275(4) 0.82817(19) 0.42799(9)
H9 H 0.2912 0.8847 0.3878
H10 H 0.2998 0.7462 0.4605
C13 C 0.39699(4) 1.04579(16) 0.59179(8)
C14 C 0.38635(4) 0.94729(18) 0.73315(8)
C15 C 0.36320(4) 0.75753(17) 0.61037(9)
C16 C 0.44344(4) 0.73842(17) 0.54273(8)
C17 C 0.44873(5) 0.5669(2) 0.56721(11)
H11 H 0.4271 0.4902 0.5520
C18 C 0.48584(5) 0.5085(2) 0.61410(12)
H12 H 0.4892 0.3938 0.6302
C19 C 0.51730(5) 0.6236(2) 0.63602(11)
C20 C 0.51398(5) 0.7935(2) 0.61232(11)
H13 H 0.5359 0.8686 0.6273
C21 C 0.47661(4) 0.84939(19) 0.56503(10)
H14 H 0.4738 0.9637 0.5480
C22 C 0.41876(6) 1.2233(2) 0.71889(11)
H15 H 0.4353 1.2756 0.6823
H16 H 0.3973 1.3009 0.7269
H17 H 0.4356 1.1976 0.7734
C23 C 0.35312(5) 0.6746(2) 0.75322(10)
H18 H 0.3683 0.6867 0.8106
H19 H 0.3246 0.6974 0.7526
H20 H 0.3562 0.5596 0.7334
F1 F 0.26412(3) 0.80308(12) 0.81125(6)
F2 F -0.05365(3) 0.06695(16) 0.81735(8)
O1 O 0.08993(3) 0.65621(13) 0.95027(7)
O2 O 0.11036(4) 0.47559(16) 0.69091(7)
O3 O 0.15244(3) 0.12162(13) 0.91590(7)
O4 O 0.17128(4) 0.19478(17) 1.19621(7)
N1 N 0.09937(4) 0.56388(15) 0.82080(7)
N2 N 0.13118(3) 0.29700(15) 0.80350(7)
C1 C 0.19077(4) 0.72900(18) 0.94897(8)
H1 H 0.1732 0.7915 0.9768
C2 C 0.21470(4) 0.81458(18) 0.89974(9)
H2 H 0.2135 0.9335 0.8943
C3 C 0.24032(4) 0.71907(18) 0.85911(9)
C4 C 0.24318(4) 0.54296(18) 0.86488(9)
H3 H 0.2607 0.4819 0.8363
C5 C 0.21890(4) 0.45950(18) 0.91506(9)
H4 H 0.2203 0.3406 0.9203
C6 C 0.19247(4) 0.55089(17) 0.95762(8)
C7 C 0.16461(4) 0.46265(17) 1.01038(8)
H5 H 0.1553 0.5518 1.0460
C8 C 0.12488(4) 0.38842(16) 0.95114(8)
C9 C 0.09661(4) 0.30716(17) 1.00935(8)
H6 H 0.0890 0.4010 1.0445
C10 C 0.11895(4) 0.17351(18) 1.07215(9)
H7 H 0.1232 0.0708 1.0403
H8 H 0.1015 0.1429 1.1125
C11 C 0.15978(4) 0.23237(19) 1.12164(9)
C12 C 0.18725(4) 0.32817(19) 1.07201(9)
H9 H 0.2088 0.3847 1.1122
H10 H 0.2002 0.2462 1.0395
C13 C 0.10301(4) 0.54579(16) 0.90821(8)
C14 C 0.11365(4) 0.44729(18) 0.76685(8)
C15 C 0.13680(4) 0.25753(17) 0.88963(9)
C16 C 0.05656(4) 0.23842(17) 0.95727(8)
C17 C 0.05127(5) 0.0669(2) 0.93279(11)
H11 H 0.0729 -0.0098 0.9480
C18 C 0.01416(5) 0.0085(2) 0.88590(12)
H12 H 0.0108 -0.1062 0.8698
C19 C -0.01730(5) 0.1236(2) 0.86398(11)
C20 C -0.01398(5) 0.2935(2) 0.88768(11)
H13 H -0.0359 0.3686 0.8727
C21 C 0.02339(4) 0.34939(19) 0.93497(10)
H14 H 0.0262 0.4637 0.9520
C22 C 0.08124(6) 0.7233(2) 0.78111(11)
H15 H 0.0647 0.7756 0.8177
H16 H 0.1027 0.8009 0.7731
H17 H 0.0644 0.6976 0.7266
C23 C 0.14688(5) 0.1746(2) 0.74678(10)
H18 H 0.1317 0.1867 0.6894
H19 H 0.1754 0.1974 0.7474
H20 H 0.1438 0.0596 0.7666
F1 F 0.73588(3) 0.80308(12) 0.68875(6)
F2 F 1.05365(3) 0.06695(16) 0.68265(8)
O1 O 0.91007(3) 0.65621(13) 0.54973(7)
O2 O 0.88964(4) 0.47559(16) 0.80909(7)
O3 O 0.84756(3) 0.12162(13) 0.58410(7)
O4 O 0.82872(4) 0.19478(17) 0.30379(7)
N1 N 0.90063(4) 0.56388(15) 0.67920(7)
N2 N 0.86882(3) 0.29700(15) 0.69650(7)
C1 C 0.80923(4) 0.72900(18) 0.55103(8)
H1 H 0.8268 0.7915 0.5232
C2 C 0.78530(4) 0.81458(18) 0.60026(9)
H2 H 0.7865 0.9335 0.6057
C3 C 0.75968(4) 0.71907(18) 0.64089(9)
C4 C 0.75682(4) 0.54296(18) 0.63512(9)
H3 H 0.7393 0.4819 0.6637
C5 C 0.78110(4) 0.45950(18) 0.58494(9)
H4 H 0.7797 0.3406 0.5797
C6 C 0.80753(4) 0.55089(17) 0.54238(8)
C7 C 0.83539(4) 0.46265(17) 0.48962(8)
H5 H 0.8447 0.5518 0.4540
C8 C 0.87512(4) 0.38842(16) 0.54886(8)
C9 C 0.90339(4) 0.30716(17) 0.49065(8)
H6 H 0.9110 0.4010 0.4555
C10 C 0.88105(4) 0.17351(18) 0.42785(9)
H7 H 0.8768 0.0708 0.4597
H8 H 0.8985 0.1429 0.3875
C11 C 0.84022(4) 0.23237(19) 0.37836(9)
C12 C 0.81275(4) 0.32817(19) 0.42799(9)
H9 H 0.7912 0.3847 0.3878
H10 H 0.7998 0.2462 0.4605
C13 C 0.89699(4) 0.54579(16) 0.59179(8)
C14 C 0.88635(4) 0.44729(18) 0.73315(8)
C15 C 0.86320(4) 0.25753(17) 0.61037(9)
C16 C 0.94344(4) 0.23842(17) 0.54273(8)
C17 C 0.94873(5) 0.0669(2) 0.56721(11)
H11 H 0.9271 -0.0098 0.5520
C18 C 0.98584(5) 0.0085(2) 0.61410(12)
H12 H 0.9892 -0.1062 0.6302
C19 C 1.01730(5) 0.1236(2) 0.63602(11)
C20 C 1.01398(5) 0.2935(2) 0.61232(11)
H13 H 1.0359 0.3686 0.6273
C21 C 0.97661(4) 0.34939(19) 0.56503(10)
H14 H 0.9738 0.4637 0.5480
C22 C 0.91876(6) 0.7233(2) 0.71889(11)
H15 H 0.9353 0.7756 0.6823
H16 H 0.8973 0.8009 0.7269
H17 H 0.9356 0.6976 0.7734
C23 C 0.85312(5) 0.1746(2) 0.75322(10)
H18 H 0.8683 0.1867 0.8106
H19 H 0.8246 0.1974 0.7526
H20 H 0.8562 0.0596 0.7334

#END
