
#######################################################################
#
#                 Cambridge Crystallographic Data Centre
#                                CCDC 
#
#######################################################################
#
# If this CIF has been generated from an entry in the Cambridge 
# Structural Database, then it will include bibliographic, chemical, 
# crystal, experimental, refinement or atomic coordinate data resulting 
# from the CCDC's data processing and validation procedures.
#
#######################################################################

data_KACTAJ
_symmetry_cell_setting           orthorhombic
_symmetry_space_group_name_H-M   'P 21 21 21'
_symmetry_Int_Tables_number      19
_space_group_name_Hall           'P 2ac 2ab'
loop_
_symmetry_equiv_pos_site_id
_symmetry_equiv_pos_as_xyz
1 x,y,z
2 1/2+x,1/2-y,-z
3 -x,1/2+y,1/2-z
4 1/2-x,-y,1/2+z
_cell_length_a                   10.831(2)
_cell_length_b                   12.201(2)
_cell_length_c                   21.978(4)
_cell_angle_alpha                90
_cell_angle_beta                 90
_cell_angle_gamma                90
_cell_volume                     2904.37
loop_
_atom_site_label
_atom_site_type_symbol
_atom_site_fract_x
_atom_site_fract_y
_atom_site_fract_z
N1 N 0.2428(9) 0.3340(8) 0.6607(4)
N2 N 0.3194(9) 0.4678(9) 0.5737(4)
N3 N 0.5419(9) 0.3731(8) 0.5730(5)
N4 N 0.4640(9) 0.2359(9) 0.6658(5)
N5 N 0.0688(8) 0.4509(8) 0.6802(4)
N6 N 0.1172(8) 0.5489(8) 0.5704(4)
N7 N 0.4711(9) 0.5086(9) 0.4993(4)
N8 N 0.2878(10) 0.1830(9) 0.7243(5)
C1 C 0.2131(12) 0.2715(10) 0.7069(6)
C2 C 0.1084(10) 0.2909(9) 0.7436(5)
C3 C 0.0683(12) 0.2234(11) 0.7925(5)
C4 C -0.0349(13) 0.2498(11) 0.8255(6)
C5 C -0.0980(13) 0.3456(12) 0.8113(6)
C6 C -0.0641(12) 0.4122(11) 0.7636(6)
C7 C 0.0396(10) 0.3845(9) 0.7284(5)
C8 C 0.1688(11) 0.4180(10) 0.6489(5)
C9 C 0.2001(11) 0.4842(10) 0.5945(5)
C10 C 0.1513(11) 0.6040(10) 0.5175(5)
C11 C 0.0651(13) 0.6717(11) 0.4890(6)
C12 C 0.0981(13) 0.7257(11) 0.4378(6)
C13 C 0.2153(14) 0.7147(12) 0.4096(6)
C14 C 0.2985(12) 0.6479(12) 0.4373(6)
C15 C 0.2695(12) 0.5911(10) 0.4917(5)
C16 C 0.3511(12) 0.5198(9) 0.5250(5)
C17 C 0.5513(12) 0.4434(11) 0.5239(6)
C18 C 0.6803(12) 0.4325(11) 0.4948(6)
C19 C 0.7560(13) 0.3867(12) 0.5511(7)
C20 C 0.6559(12) 0.3295(11) 0.5868(7)
C21 C 0.6755(14) 0.2489(14) 0.6286(9)
C22 C 0.5837(13) 0.2046(11) 0.6642(7)
C23 C 0.6084(13) 0.1135(13) 0.7110(8)
C24 C 0.4803(13) 0.0731(12) 0.7240(6)
C25 C 0.4004(12) 0.1695(10) 0.7053(5)
C26 C 0.7278(13) 0.5398(14) 0.4694(7)
C27 C 0.6699(15) 0.3479(18) 0.4440(8)
C28 C 0.8018(12) 0.4838(14) 0.5911(7)
C29 C 0.8642(13) 0.3151(13) 0.5333(9)
C30 C 0.7096(14) 0.0365(13) 0.6996(8)
C31 C 0.6372(25) 0.1708(15) 0.7762(9)
C32 C 0.4575(18) -0.0212(13) 0.6727(9)
C33 C 0.4400(15) 0.0184(16) 0.7830(9)
H1 H 0.1196 0.1497 0.8036
H2 H -0.0659 0.1964 0.8620
H3 H -0.1762 0.3693 0.8395
H4 H -0.1173 0.4861 0.7528
H5 H -0.0264 0.6818 0.5087
H6 H 0.0293 0.7797 0.4166
H7 H 0.2368 0.7576 0.3677
H8 H 0.3897 0.6376 0.4173
H9 H 0.7679 0.2181 0.6337
H10 H 0.8179 0.5277 0.4489
H11 H 0.6630 0.5702 0.4356
H12 H 0.7355 0.5999 0.5063
H13 H 0.6058 0.3796 0.4101
H14 H 0.7607 0.3372 0.4234
H15 H 0.6369 0.2717 0.4623
H16 H 0.8444 0.4501 0.6323
H17 H 0.8671 0.5318 0.5661
H18 H 0.7224 0.5337 0.6044
H19 H 0.9312 0.3648 0.5079
H20 H 0.9085 0.2831 0.5741
H21 H 0.8333 0.2479 0.5049
H22 H 0.7973 0.0811 0.6969
H23 H 0.7155 -0.0255 0.7348
H24 H 0.6917 -0.0027 0.6555
H25 H 0.6406 0.1082 0.8114
H26 H 0.7224 0.2148 0.7735
H27 H 0.5601 0.2269 0.7854
H28 H 0.5098 -0.0936 0.6821
H29 H 0.3576 -0.0423 0.6714
H30 H 0.4841 0.0186 0.6308
H31 H 0.3424 -0.0031 0.7813
H32 H 0.4946 -0.0545 0.7920
H33 H 0.4568 0.0814 0.8173
N1 N 0.7428(9) 0.1660(8) 0.3393(4)
N2 N 0.8194(9) 0.0322(9) 0.4263(4)
N3 N 1.0419(9) 0.1269(8) 0.4270(5)
N4 N 0.9640(9) 0.2641(9) 0.3342(5)
N5 N 0.5688(8) 0.0491(8) 0.3198(4)
N6 N 0.6172(8) -0.0489(8) 0.4296(4)
N7 N 0.9711(9) -0.0086(9) 0.5007(4)
N8 N 0.7878(10) 0.3170(9) 0.2757(5)
C1 C 0.7131(12) 0.2285(10) 0.2931(6)
C2 C 0.6084(10) 0.2091(9) 0.2564(5)
C3 C 0.5683(12) 0.2766(11) 0.2075(5)
C4 C 0.4651(13) 0.2502(11) 0.1745(6)
C5 C 0.4020(13) 0.1544(12) 0.1887(6)
C6 C 0.4359(12) 0.0878(11) 0.2364(6)
C7 C 0.5396(10) 0.1155(9) 0.2716(5)
C8 C 0.6688(11) 0.0820(10) 0.3511(5)
C9 C 0.7001(11) 0.0158(10) 0.4055(5)
C10 C 0.6513(11) -0.1040(10) 0.4825(5)
C11 C 0.5651(13) -0.1717(11) 0.5110(6)
C12 C 0.5981(13) -0.2257(11) 0.5622(6)
C13 C 0.7153(14) -0.2147(12) 0.5904(6)
C14 C 0.7985(12) -0.1479(12) 0.5627(6)
C15 C 0.7695(12) -0.0911(10) 0.5083(5)
C16 C 0.8511(12) -0.0198(9) 0.4750(5)
C17 C 1.0513(12) 0.0566(11) 0.4761(6)
C18 C 1.1803(12) 0.0675(11) 0.5052(6)
C19 C 1.2560(13) 0.1133(12) 0.4489(7)
C20 C 1.1559(12) 0.1705(11) 0.4132(7)
C21 C 1.1755(14) 0.2511(14) 0.3714(9)
C22 C 1.0837(13) 0.2954(11) 0.3358(7)
C23 C 1.1084(13) 0.3865(13) 0.2890(8)
C24 C 0.9803(13) 0.4269(12) 0.2760(6)
C25 C 0.9004(12) 0.3305(10) 0.2947(5)
C26 C 1.2278(13) -0.0398(14) 0.5306(7)
C27 C 1.1699(15) 0.1521(18) 0.5560(8)
C28 C 1.3018(12) 0.0162(14) 0.4089(7)
C29 C 1.3642(13) 0.1849(13) 0.4667(9)
C30 C 1.2096(14) 0.4635(13) 0.3004(8)
C31 C 1.1372(25) 0.3292(15) 0.2238(9)
C32 C 0.9575(18) 0.5212(13) 0.3273(9)
C33 C 0.9400(15) 0.4816(16) 0.2170(9)
H1 H 0.6196 0.3503 0.1964
H2 H 0.4341 0.3036 0.1380
H3 H 0.3238 0.1307 0.1605
H4 H 0.3827 0.0139 0.2472
H5 H 0.4736 -0.1818 0.4913
H6 H 0.5293 -0.2797 0.5834
H7 H 0.7368 -0.2576 0.6323
H8 H 0.8897 -0.1376 0.5827
H9 H 1.2679 0.2819 0.3663
H10 H 1.3179 -0.0277 0.5511
H11 H 1.1630 -0.0702 0.5644
H12 H 1.2355 -0.0999 0.4937
H13 H 1.1058 0.1204 0.5899
H14 H 1.2607 0.1628 0.5766
H15 H 1.1369 0.2283 0.5377
H16 H 1.3444 0.0499 0.3677
H17 H 1.3671 -0.0318 0.4339
H18 H 1.2224 -0.0337 0.3956
H19 H 1.4312 0.1352 0.4921
H20 H 1.4085 0.2169 0.4259
H21 H 1.3333 0.2521 0.4951
H22 H 1.2973 0.4189 0.3031
H23 H 1.2155 0.5255 0.2652
H24 H 1.1917 0.5027 0.3445
H25 H 1.1406 0.3918 0.1886
H26 H 1.2224 0.2852 0.2265
H27 H 1.0601 0.2731 0.2146
H28 H 1.0098 0.5936 0.3179
H29 H 0.8576 0.5423 0.3286
H30 H 0.9841 0.4814 0.3692
H31 H 0.8424 0.5031 0.2187
H32 H 0.9946 0.5545 0.2080
H33 H 0.9568 0.4186 0.1827
N1 N 0.7572(9) 0.8340(8) 0.8393(4)
N2 N 0.6806(9) 0.9678(9) 0.9263(4)
N3 N 0.4581(9) 0.8731(8) 0.9270(5)
N4 N 0.5360(9) 0.7359(9) 0.8342(5)
N5 N 0.9312(8) 0.9509(8) 0.8198(4)
N6 N 0.8828(8) 1.0489(8) 0.9296(4)
N7 N 0.5289(9) 1.0086(9) 1.0007(4)
N8 N 0.7122(10) 0.6830(9) 0.7757(5)
C1 C 0.7869(12) 0.7715(10) 0.7931(6)
C2 C 0.8916(10) 0.7909(9) 0.7564(5)
C3 C 0.9317(12) 0.7234(11) 0.7075(5)
C4 C 1.0349(13) 0.7498(11) 0.6745(6)
C5 C 1.0980(13) 0.8456(12) 0.6887(6)
C6 C 1.0641(12) 0.9122(11) 0.7364(6)
C7 C 0.9604(10) 0.8845(9) 0.7716(5)
C8 C 0.8312(11) 0.9180(10) 0.8511(5)
C9 C 0.7999(11) 0.9842(10) 0.9055(5)
C10 C 0.8487(11) 1.1040(10) 0.9825(5)
C11 C 0.9349(13) 1.1717(11) 1.0110(6)
C12 C 0.9019(13) 1.2257(11) 1.0622(6)
C13 C 0.7847(14) 1.2147(12) 1.0904(6)
C14 C 0.7015(12) 1.1479(12) 1.0627(6)
C15 C 0.7305(12) 1.0911(10) 1.0083(5)
C16 C 0.6489(12) 1.0198(9) 0.9750(5)
C17 C 0.4487(12) 0.9434(11) 0.9761(6)
C18 C 0.3197(12) 0.9325(11) 1.0052(6)
C19 C 0.2440(13) 0.8867(12) 0.9489(7)
C20 C 0.3441(12) 0.8295(11) 0.9132(7)
C21 C 0.3245(14) 0.7489(14) 0.8714(9)
C22 C 0.4163(13) 0.7046(11) 0.8358(7)
C23 C 0.3916(13) 0.6135(13) 0.7890(8)
C24 C 0.5197(13) 0.5731(12) 0.7760(6)
C25 C 0.5996(12) 0.6695(10) 0.7947(5)
C26 C 0.2722(13) 1.0398(14) 1.0306(7)
C27 C 0.3301(15) 0.8479(18) 1.0560(8)
C28 C 0.1982(12) 0.9838(14) 0.9089(7)
C29 C 0.1358(13) 0.8151(13) 0.9667(9)
C30 C 0.2904(14) 0.5365(13) 0.8004(8)
C31 C 0.3628(25) 0.6708(15) 0.7238(9)
C32 C 0.5425(18) 0.4788(13) 0.8273(9)
C33 C 0.5600(15) 0.5184(16) 0.7170(9)
H1 H 0.8804 0.6497 0.6964
H2 H 1.0659 0.6964 0.6380
H3 H 1.1762 0.8693 0.6605
H4 H 1.1173 0.9861 0.7472
H5 H 1.0264 1.1818 0.9913
H6 H 0.9707 1.2797 1.0834
H7 H 0.7632 1.2576 1.1323
H8 H 0.6103 1.1376 1.0827
H9 H 0.2321 0.7181 0.8663
H10 H 0.1821 1.0277 1.0511
H11 H 0.3370 1.0702 1.0644
H12 H 0.2645 1.0999 0.9937
H13 H 0.3942 0.8796 1.0899
H14 H 0.2393 0.8372 1.0766
H15 H 0.3631 0.7717 1.0377
H16 H 0.1556 0.9501 0.8677
H17 H 0.1329 1.0318 0.9339
H18 H 0.2776 1.0337 0.8956
H19 H 0.0688 0.8648 0.9921
H20 H 0.0915 0.7831 0.9259
H21 H 0.1667 0.7479 0.9951
H22 H 0.2027 0.5811 0.8031
H23 H 0.2845 0.4745 0.7652
H24 H 0.3083 0.4973 0.8445
H25 H 0.3594 0.6082 0.6886
H26 H 0.2776 0.7148 0.7265
H27 H 0.4399 0.7269 0.7146
H28 H 0.4902 0.4064 0.8179
H29 H 0.6424 0.4577 0.8286
H30 H 0.5159 0.5186 0.8692
H31 H 0.6576 0.4969 0.7187
H32 H 0.5054 0.4455 0.7080
H33 H 0.5432 0.5814 0.6827
N1 N 0.2572(9) 0.6660(8) 0.1607(4)
N2 N 0.1806(9) 0.5322(9) 0.0737(4)
N3 N -0.0419(9) 0.6269(8) 0.0730(5)
N4 N 0.0360(9) 0.7641(9) 0.1658(5)
N5 N 0.4312(8) 0.5491(8) 0.1802(4)
N6 N 0.3828(8) 0.4511(8) 0.0704(4)
N7 N 0.0289(9) 0.4914(9) -0.0007(4)
N8 N 0.2122(10) 0.8170(9) 0.2243(5)
C1 C 0.2869(12) 0.7285(10) 0.2069(6)
C2 C 0.3916(10) 0.7091(9) 0.2436(5)
C3 C 0.4317(12) 0.7766(11) 0.2925(5)
C4 C 0.5349(13) 0.7502(11) 0.3255(6)
C5 C 0.5980(13) 0.6544(12) 0.3113(6)
C6 C 0.5641(12) 0.5878(11) 0.2636(6)
C7 C 0.4604(10) 0.6155(9) 0.2284(5)
C8 C 0.3312(11) 0.5820(10) 0.1489(5)
C9 C 0.2999(11) 0.5158(10) 0.0945(5)
C10 C 0.3487(11) 0.3960(10) 0.0175(5)
C11 C 0.4349(13) 0.3283(11) -0.0110(6)
C12 C 0.4019(13) 0.2743(11) -0.0622(6)
C13 C 0.2847(14) 0.2853(12) -0.0904(6)
C14 C 0.2015(12) 0.3521(12) -0.0627(6)
C15 C 0.2305(12) 0.4089(10) -0.0083(5)
C16 C 0.1489(12) 0.4802(9) 0.0250(5)
C17 C -0.0513(12) 0.5566(11) 0.0239(6)
C18 C -0.1803(12) 0.5675(11) -0.0052(6)
C19 C -0.2560(13) 0.6133(12) 0.0511(7)
C20 C -0.1559(12) 0.6705(11) 0.0868(7)
C21 C -0.1755(14) 0.7511(14) 0.1286(9)
C22 C -0.0837(13) 0.7954(11) 0.1642(7)
C23 C -0.1084(13) 0.8865(13) 0.2110(8)
C24 C 0.0197(13) 0.9269(12) 0.2240(6)
C25 C 0.0996(12) 0.8305(10) 0.2053(5)
C26 C -0.2278(13) 0.4602(14) -0.0306(7)
C27 C -0.1699(15) 0.6521(18) -0.0560(8)
C28 C -0.3018(12) 0.5162(14) 0.0911(7)
C29 C -0.3642(13) 0.6849(13) 0.0333(9)
C30 C -0.2096(14) 0.9635(13) 0.1996(8)
C31 C -0.1372(25) 0.8292(15) 0.2762(9)
C32 C 0.0425(18) 1.0212(13) 0.1727(9)
C33 C 0.0600(15) 0.9816(16) 0.2830(9)
H1 H 0.3804 0.8503 0.3036
H2 H 0.5659 0.8036 0.3620
H3 H 0.6762 0.6307 0.3395
H4 H 0.6173 0.5139 0.2528
H5 H 0.5264 0.3182 0.0087
H6 H 0.4707 0.2203 -0.0834
H7 H 0.2632 0.2424 -0.1323
H8 H 0.1103 0.3624 -0.0827
H9 H -0.2679 0.7819 0.1337
H10 H -0.3179 0.4723 -0.0511
H11 H -0.1630 0.4298 -0.0644
H12 H -0.2355 0.4001 0.0063
H13 H -0.1058 0.6204 -0.0899
H14 H -0.2607 0.6628 -0.0766
H15 H -0.1369 0.7283 -0.0377
H16 H -0.3444 0.5499 0.1323
H17 H -0.3671 0.4682 0.0661
H18 H -0.2224 0.4663 0.1044
H19 H -0.4312 0.6352 0.0079
H20 H -0.4085 0.7169 0.0741
H21 H -0.3333 0.7521 0.0049
H22 H -0.2973 0.9189 0.1969
H23 H -0.2155 1.0255 0.2348
H24 H -0.1917 1.0027 0.1555
H25 H -0.1406 0.8918 0.3114
H26 H -0.2224 0.7852 0.2735
H27 H -0.0601 0.7731 0.2854
H28 H -0.0098 1.0936 0.1821
H29 H 0.1424 1.0423 0.1714
H30 H 0.0159 0.9814 0.1308
H31 H 0.1576 1.0031 0.2813
H32 H 0.0054 1.0545 0.2920
H33 H 0.0432 0.9186 0.3173

#END
