./ABEGIY_from_xyz.cif_generated_by_CrystalShift
_symmetry_cell_setting triclinic
_symmetry_space_group_name_H-M 'P 1'
loop_
_symmetry_equiv_pos_site_id
_symmetry_equiv_pos_as_xyz
1 x,y,z
_cell_length_a 10.040600
_cell_length_b 13.420000
_cell_length_c 15.040000
_cell_angle_alpha 90.000000
_cell_angle_beta 90.000000
_cell_angle_gamma 90.000000
_cell_volume 2026.562574
loop_
_atom_site_label
_atom_site_type_symbol
_atom_site_fract_x
_atom_site_fract_y
_atom_site_fract_z
O1 O 0.146500 0.826540 0.085610
O2 O 0.182760 0.678930 0.026900
C3 C 0.233050 0.750460 0.061290
C4 C 0.370530 0.766550 0.080260
H5 H 0.432800 0.718700 0.063700
C6 C 0.411310 0.849180 0.121470
H7 H 0.501200 0.857800 0.134200
C8 C 0.318830 0.923710 0.145960
H9 H 0.347500 0.980800 0.175300
C10 C 0.189180 0.911480 0.126610
C11 C 0.085230 0.982750 0.144860
H12 H 0.108500 1.039600 0.176700
C13 C -0.041380 0.973840 0.119860
H14 H -0.064100 0.915700 0.089800
C15 C -0.148680 1.045890 0.134660
C16 C -0.273620 1.028250 0.097620
H17 H -0.288300 0.969900 0.065700
C18 C -0.375740 1.095930 0.107640
H19 H -0.458600 1.083000 0.082500
C20 C -0.355770 1.182400 0.154540
H21 H -0.424400 1.228400 0.160600
C22 C -0.233450 1.200480 0.192600
H23 H -0.219900 1.258700 0.224900
C24 C -0.130790 1.133060 0.183330
H25 H -0.048900 1.146000 0.209800
O26 O 0.353500 0.173460 0.585610
O27 O 0.317240 0.321070 0.526900
C28 C 0.266950 0.249540 0.561290
C29 C 0.129470 0.233450 0.580260
H30 H 0.067200 0.281300 0.563700
C31 C 0.088690 0.150820 0.621470
H32 H -0.001200 0.142200 0.634200
C33 C 0.181170 0.076290 0.645960
H34 H 0.152500 0.019200 0.675300
C35 C 0.310820 0.088520 0.626610
C36 C 0.414770 0.017250 0.644860
H37 H 0.391500 -0.039600 0.676700
C38 C 0.541380 0.026160 0.619860
H39 H 0.564100 0.084300 0.589800
C40 C 0.648680 -0.045890 0.634660
C41 C 0.773620 -0.028250 0.597620
H42 H 0.788300 0.030100 0.565700
C43 C 0.875740 -0.095930 0.607640
H44 H 0.958600 -0.083000 0.582500
C45 C 0.855770 -0.182400 0.654540
H46 H 0.924400 -0.228400 0.660600
C47 C 0.733450 -0.200480 0.692600
H48 H 0.719900 -0.258700 0.724900
C49 C 0.630790 -0.133060 0.683330
H50 H 0.548900 -0.146000 0.709800
O51 O 0.853500 0.326540 0.414390
O52 O 0.817240 0.178930 0.473100
C53 C 0.766950 0.250460 0.438710
C54 C 0.629470 0.266550 0.419740
H55 H 0.567200 0.218700 0.436300
C56 C 0.588690 0.349180 0.378530
H57 H 0.498800 0.357800 0.365800
C58 C 0.681170 0.423710 0.354040
H59 H 0.652500 0.480800 0.324700
C60 C 0.810820 0.411480 0.373390
C61 C 0.914770 0.482750 0.355140
H62 H 0.891500 0.539600 0.323300
C63 C 1.041380 0.473840 0.380140
H64 H 1.064100 0.415700 0.410200
C65 C 1.148680 0.545890 0.365340
C66 C 1.273620 0.528250 0.402380
H67 H 1.288300 0.469900 0.434300
C68 C 1.375740 0.595930 0.392360
H69 H 1.458600 0.583000 0.417500
C70 C 1.355770 0.682400 0.345460
H71 H 1.424400 0.728400 0.339400
C72 C 1.233450 0.700480 0.307400
H73 H 1.219900 0.758700 0.275100
C74 C 1.130790 0.633060 0.316670
H75 H 1.048900 0.646000 0.290200
O76 O 0.646500 0.673460 0.914390
O77 O 0.682760 0.821070 0.973100
C78 C 0.733050 0.749540 0.938710
C79 C 0.870530 0.733450 0.919740
H80 H 0.932800 0.781300 0.936300
C81 C 0.911310 0.650820 0.878530
H82 H 1.001200 0.642200 0.865800
C83 C 0.818830 0.576290 0.854040
H84 H 0.847500 0.519200 0.824700
C85 C 0.689180 0.588520 0.873390
C86 C 0.585230 0.517250 0.855140
H87 H 0.608500 0.460400 0.823300
C88 C 0.458620 0.526160 0.880140
H89 H 0.435900 0.584300 0.910200
C90 C 0.351320 0.454110 0.865340
C91 C 0.226380 0.471750 0.902380
H92 H 0.211700 0.530100 0.934300
C93 C 0.124260 0.404070 0.892360
H94 H 0.041400 0.417000 0.917500
C95 C 0.144230 0.317600 0.845460
H96 H 0.075600 0.271600 0.839400
C97 C 0.266550 0.299520 0.807400
H98 H 0.280100 0.241300 0.775100
C99 C 0.369210 0.366940 0.816670
H100 H 0.451100 0.354000 0.790200
O101 O 0.853500 0.173460 0.914390
O102 O 0.817240 0.321070 0.973100
C103 C 0.766950 0.249540 0.938710
C104 C 0.629470 0.233450 0.919740
H105 H 0.567200 0.281300 0.936300
C106 C 0.588690 0.150820 0.878530
H107 H 0.498800 0.142200 0.865800
C108 C 0.681170 0.076290 0.854040
H109 H 0.652500 0.019200 0.824700
C110 C 0.810820 0.088520 0.873390
C111 C 0.914770 0.017250 0.855140
H112 H 0.891500 -0.039600 0.823300
C113 C 1.041380 0.026160 0.880140
H114 H 1.064100 0.084300 0.910200
C115 C 1.148680 -0.045890 0.865340
C116 C 1.273620 -0.028250 0.902380
H117 H 1.288300 0.030100 0.934300
C118 C 1.375740 -0.095930 0.892360
H119 H 1.458600 -0.083000 0.917500
C120 C 1.355770 -0.182400 0.845460
H121 H 1.424400 -0.228400 0.839400
C122 C 1.233450 -0.200480 0.807400
H123 H 1.219900 -0.258700 0.775100
C124 C 1.130790 -0.133060 0.816670
H125 H 1.048900 -0.146000 0.790200
O126 O 0.646500 0.826540 0.414390
O127 O 0.682760 0.678930 0.473100
C128 C 0.733050 0.750460 0.438710
C129 C 0.870530 0.766550 0.419740
H130 H 0.932800 0.718700 0.436300
C131 C 0.911310 0.849180 0.378530
H132 H 1.001200 0.857800 0.365800
C133 C 0.818830 0.923710 0.354040
H134 H 0.847500 0.980800 0.324700
C135 C 0.689180 0.911480 0.373390
C136 C 0.585230 0.982750 0.355140
H137 H 0.608500 1.039600 0.323300
C138 C 0.458620 0.973840 0.380140
H139 H 0.435900 0.915700 0.410200
C140 C 0.351320 1.045890 0.365340
C141 C 0.226380 1.028250 0.402380
H142 H 0.211700 0.969900 0.434300
C143 C 0.124260 1.095930 0.392360
H144 H 0.041400 1.083000 0.417500
C145 C 0.144230 1.182400 0.345460
H146 H 0.075600 1.228400 0.339400
C147 C 0.266550 1.200480 0.307400
H148 H 0.280100 1.258700 0.275100
C149 C 0.369210 1.133060 0.316670
H150 H 0.451100 1.146000 0.290200
O151 O 0.146500 0.673460 0.585610
O152 O 0.182760 0.821070 0.526900
C153 C 0.233050 0.749540 0.561290
C154 C 0.370530 0.733450 0.580260
H155 H 0.432800 0.781300 0.563700
C156 C 0.411310 0.650820 0.621470
H157 H 0.501200 0.642200 0.634200
C158 C 0.318830 0.576290 0.645960
H159 H 0.347500 0.519200 0.675300
C160 C 0.189180 0.588520 0.626610
C161 C 0.085230 0.517250 0.644860
H162 H 0.108500 0.460400 0.676700
C163 C -0.041380 0.526160 0.619860
H164 H -0.064100 0.584300 0.589800
C165 C -0.148680 0.454110 0.634660
C166 C -0.273620 0.471750 0.597620
H167 H -0.288300 0.530100 0.565700
C168 C -0.375740 0.404070 0.607640
H169 H -0.458600 0.417000 0.582500
C170 C -0.355770 0.317600 0.654540
H171 H -0.424400 0.271600 0.660600
C172 C -0.233450 0.299520 0.692600
H173 H -0.219900 0.241300 0.724900
C174 C -0.130790 0.366940 0.683330
H175 H -0.048900 0.354000 0.709800
O176 O 0.353500 0.326540 0.085610
O177 O 0.317240 0.178930 0.026900
C178 C 0.266950 0.250460 0.061290
C179 C 0.129470 0.266550 0.080260
H180 H 0.067200 0.218700 0.063700
C181 C 0.088690 0.349180 0.121470
H182 H -0.001200 0.357800 0.134200
C183 C 0.181170 0.423710 0.145960
H184 H 0.152500 0.480800 0.175300
C185 C 0.310820 0.411480 0.126610
C186 C 0.414770 0.482750 0.144860
H187 H 0.391500 0.539600 0.176700
C188 C 0.541380 0.473840 0.119860
H189 H 0.564100 0.415700 0.089800
C190 C 0.648680 0.545890 0.134660
C191 C 0.773620 0.528250 0.097620
H192 H 0.788300 0.469900 0.065700
C193 C 0.875740 0.595930 0.107640
H194 H 0.958600 0.583000 0.082500
C195 C 0.855770 0.682400 0.154540
H196 H 0.924400 0.728400 0.160600
C197 C 0.733450 0.700480 0.192600
H198 H 0.719900 0.758700 0.224900
C199 C 0.630790 0.633060 0.183330
H200 H 0.548900 0.646000 0.209800

#END
