./ABEGEU_from_xyz.cif_generated_by_CrystalShift
_symmetry_cell_setting triclinic
_symmetry_space_group_name_H-M 'P 1'
loop_
_symmetry_equiv_pos_site_id
_symmetry_equiv_pos_as_xyz
1 x,y,z
_cell_length_a 6.828000
_cell_length_b 7.197000
_cell_length_c 7.384000
_cell_angle_alpha 70.220000
_cell_angle_beta 74.280000
_cell_angle_gamma 65.700000
_cell_volume 307.507898
loop_
_atom_site_label
_atom_site_type_symbol
_atom_site_fract_x
_atom_site_fract_y
_atom_site_fract_z
C1 C 0.283530 0.530330 0.279950
C2 C 0.288830 0.400260 0.468630
H3 H 0.321600 0.436600 0.566400
C4 C 0.245260 0.215810 0.511610
C5 C 0.198540 0.158030 0.370150
H6 H 0.170000 0.031300 0.401400
C7 C 0.194800 0.289710 0.183310
H8 H 0.163000 0.252900 0.085400
C9 C 0.236790 0.474660 0.137120
H10 H 0.233800 0.563400 0.008300
C11 C 0.248490 0.081550 0.707980
N12 N 0.250620 -0.024690 0.863730
O13 O 0.326170 0.710010 0.242860
H14 H 0.306000 0.789000 0.114000
C15 C 0.716470 0.469670 0.720050
C16 C 0.711170 0.599740 0.531370
H17 H 0.678400 0.563400 0.433600
C18 C 0.754740 0.784190 0.488390
C19 C 0.801460 0.841970 0.629850
H20 H 0.830000 0.968700 0.598600
C21 C 0.805200 0.710290 0.816690
H22 H 0.837000 0.747100 0.914600
C23 C 0.763210 0.525340 0.862880
H24 H 0.766200 0.436600 0.991700
C25 C 0.751510 0.918450 0.292020
N26 N 0.749380 1.024690 0.136270
O27 O 0.673830 0.289990 0.757140
H28 H 0.694000 0.211000 0.886000

#END
