
#######################################################################
#
#                 Cambridge Crystallographic Data Centre
#                                CCDC 
#
#######################################################################
#
# If this CIF has been generated from an entry in the Cambridge 
# Structural Database, then it will include bibliographic, chemical, 
# crystal, experimental, refinement or atomic coordinate data resulting 
# from the CCDC's data processing and validation procedures.
#
#######################################################################

data_ABEJEZ
_symmetry_cell_setting           monoclinic
_symmetry_space_group_name_H-M   'P 21/c'
_symmetry_Int_Tables_number      14
_space_group_name_Hall           '-P 2ybc'
loop_
_symmetry_equiv_pos_site_id
_symmetry_equiv_pos_as_xyz
1 x,y,z
2 -x,1/2+y,1/2-z
3 -x,-y,-z
4 x,1/2-y,1/2+z
_cell_length_a                   8.0327(3)
_cell_length_b                   6.8105(3)
_cell_length_c                   29.0521(7)
_cell_angle_alpha                90
_cell_angle_beta                 95.350(2)
_cell_angle_gamma                90
_cell_volume                     1582.42
loop_
_atom_site_label
_atom_site_type_symbol
_atom_site_fract_x
_atom_site_fract_y
_atom_site_fract_z
O1 O 0.3235(2) 0.5274(2) 0.04826(6)
C1 C 0.3364(3) 0.7383(4) 0.04812(8)
O2 O 0.3072(2) 0.8180(2) 0.09214(5)
C2 C 0.1693(3) 0.7602(4) 0.11181(8)
C3 C 0.1095(3) 0.5512(4) 0.10348(7)
C4 C 0.1935(3) 0.4413(4) 0.06651(8)
C5 C 0.2116(3) 0.8222(4) 0.01133(8)
H1 H 0.0985 0.7828 0.0175
H2 H 0.2356 0.7724 -0.0190
H3 H 0.2197 0.9657 0.0116
C6 C 0.5153(3) 0.7818(5) 0.04124(9)
H4 H 0.5882 0.7243 0.0667
H5 H 0.5322 0.9242 0.0407
H6 H 0.5426 0.7252 0.0118
O3 O 0.1080(2) 0.8704(3) 0.13788(6)
O4 O 0.1555(2) 0.2776(3) 0.05457(6)
C7 C 0.1506(3) 0.4376(4) 0.15009(8)
H7 H 0.0772 0.4878 0.1730
H8 H 0.1236 0.2971 0.1448
C8 C 0.3303(3) 0.4539(4) 0.17045(7)
C9 C 0.3803(3) 0.6010(4) 0.20161(7)
H9 H 0.2998 0.6917 0.2108
C10 C 0.5453(3) 0.6183(4) 0.21962(8)
H10 H 0.5766 0.7206 0.2409
C11 C 0.6645(3) 0.4889(3) 0.20698(7)
C12 C 0.6161(3) 0.3353(4) 0.17656(7)
C13 C 0.4509(3) 0.3195(3) 0.15829(7)
H11 H 0.4191 0.2164 0.1373
O5 O 0.83101(19) 0.4916(3) 0.22251(6)
C14 C 0.8846(3) 0.6402(4) 0.25525(10)
H12 H 1.0054 0.6287 0.2633
H13 H 0.8261 0.6241 0.2831
H14 H 0.8591 0.7698 0.2417
O6 O 0.7416(2) 0.2088(3) 0.16783(6)
C15 C 0.6987(4) 0.0485(5) 0.13809(12)
H15 H 0.7988 -0.0301 0.1344
H16 H 0.6526 0.0977 0.1079
H17 H 0.6151 -0.0333 0.1515
C16 C -0.0810(3) 0.5472(4) 0.09149(9)
H18 H -0.1087 0.6093 0.0613
H19 H -0.1356 0.6189 0.1152
H20 H -0.1201 0.4108 0.0903
O1 O 0.6765(2) 0.0274(2) 0.45174(6)
C1 C 0.6636(3) 0.2383(4) 0.45188(8)
O2 O 0.6928(2) 0.3180(2) 0.40786(5)
C2 C 0.8307(3) 0.2602(4) 0.38819(8)
C3 C 0.8905(3) 0.0512(4) 0.39652(7)
C4 C 0.8065(3) -0.0587(4) 0.43349(8)
C5 C 0.7884(3) 0.3222(4) 0.48867(8)
H1 H 0.9015 0.2828 0.4825
H2 H 0.7644 0.2724 0.5190
H3 H 0.7803 0.4657 0.4884
C6 C 0.4847(3) 0.2818(5) 0.45876(9)
H4 H 0.4118 0.2243 0.4333
H5 H 0.4678 0.4242 0.4593
H6 H 0.4574 0.2252 0.4882
O3 O 0.8920(2) 0.3704(3) 0.36212(6)
O4 O 0.8445(2) -0.2224(3) 0.44543(6)
C7 C 0.8494(3) -0.0624(4) 0.34991(8)
H7 H 0.9228 -0.0122 0.3270
H8 H 0.8764 -0.2029 0.3552
C8 C 0.6697(3) -0.0461(4) 0.32955(7)
C9 C 0.6197(3) 0.1010(4) 0.29839(7)
H9 H 0.7002 0.1917 0.2892
C10 C 0.4547(3) 0.1183(4) 0.28038(8)
H10 H 0.4234 0.2206 0.2591
C11 C 0.3355(3) -0.0111(3) 0.29302(7)
C12 C 0.3839(3) -0.1647(4) 0.32344(7)
C13 C 0.5491(3) -0.1805(3) 0.34171(7)
H11 H 0.5809 -0.2836 0.3627
O5 O 0.16899(19) -0.0084(3) 0.27749(6)
C14 C 0.1154(3) 0.1402(4) 0.24475(10)
H12 H -0.0054 0.1287 0.2367
H13 H 0.1739 0.1241 0.2169
H14 H 0.1409 0.2698 0.2583
O6 O 0.2584(2) -0.2912(3) 0.33217(6)
C15 C 0.3013(4) -0.4515(5) 0.36191(12)
H15 H 0.2012 -0.5301 0.3656
H16 H 0.3474 -0.4023 0.3921
H17 H 0.3849 -0.5333 0.3485
C16 C 1.0810(3) 0.0472(4) 0.40851(9)
H18 H 1.1087 0.1093 0.4387
H19 H 1.1356 0.1189 0.3848
H20 H 1.1201 -0.0892 0.4097
O1 O 0.6765(2) 0.4726(2) 0.95174(6)
C1 C 0.6636(3) 0.2617(4) 0.95188(8)
O2 O 0.6928(2) 0.1820(2) 0.90786(5)
C2 C 0.8307(3) 0.2398(4) 0.88819(8)
C3 C 0.8905(3) 0.4488(4) 0.89652(7)
C4 C 0.8065(3) 0.5587(4) 0.93349(8)
C5 C 0.7884(3) 0.1778(4) 0.98867(8)
H1 H 0.9015 0.2172 0.9825
H2 H 0.7644 0.2276 1.0190
H3 H 0.7803 0.0343 0.9884
C6 C 0.4847(3) 0.2182(5) 0.95876(9)
H4 H 0.4118 0.2757 0.9333
H5 H 0.4678 0.0758 0.9593
H6 H 0.4574 0.2748 0.9882
O3 O 0.8920(2) 0.1296(3) 0.86212(6)
O4 O 0.8445(2) 0.7224(3) 0.94543(6)
C7 C 0.8494(3) 0.5624(4) 0.84991(8)
H7 H 0.9228 0.5122 0.8270
H8 H 0.8764 0.7029 0.8552
C8 C 0.6697(3) 0.5461(4) 0.82955(7)
C9 C 0.6197(3) 0.3990(4) 0.79839(7)
H9 H 0.7002 0.3083 0.7892
C10 C 0.4547(3) 0.3817(4) 0.78038(8)
H10 H 0.4234 0.2794 0.7591
C11 C 0.3355(3) 0.5111(3) 0.79302(7)
C12 C 0.3839(3) 0.6647(4) 0.82344(7)
C13 C 0.5491(3) 0.6805(3) 0.84171(7)
H11 H 0.5809 0.7836 0.8627
O5 O 0.16899(19) 0.5084(3) 0.77749(6)
C14 C 0.1154(3) 0.3598(4) 0.74475(10)
H12 H -0.0054 0.3713 0.7367
H13 H 0.1739 0.3759 0.7169
H14 H 0.1409 0.2302 0.7583
O6 O 0.2584(2) 0.7912(3) 0.83217(6)
C15 C 0.3013(4) 0.9515(5) 0.86191(12)
H15 H 0.2012 1.0301 0.8656
H16 H 0.3474 0.9023 0.8921
H17 H 0.3849 1.0333 0.8485
C16 C 1.0810(3) 0.4528(4) 0.90851(9)
H18 H 1.1087 0.3907 0.9387
H19 H 1.1356 0.3811 0.8848
H20 H 1.1201 0.5892 0.9097
O1 O 0.3235(2) 0.9726(2) 0.54826(6)
C1 C 0.3364(3) 0.7617(4) 0.54812(8)
O2 O 0.3072(2) 0.6820(2) 0.59214(5)
C2 C 0.1693(3) 0.7398(4) 0.61181(8)
C3 C 0.1095(3) 0.9488(4) 0.60348(7)
C4 C 0.1935(3) 1.0587(4) 0.56651(8)
C5 C 0.2116(3) 0.6778(4) 0.51133(8)
H1 H 0.0985 0.7172 0.5175
H2 H 0.2356 0.7276 0.4810
H3 H 0.2197 0.5343 0.5116
C6 C 0.5153(3) 0.7182(5) 0.54124(9)
H4 H 0.5882 0.7757 0.5667
H5 H 0.5322 0.5758 0.5407
H6 H 0.5426 0.7748 0.5118
O3 O 0.1080(2) 0.6296(3) 0.63788(6)
O4 O 0.1555(2) 1.2224(3) 0.55457(6)
C7 C 0.1506(3) 1.0624(4) 0.65009(8)
H7 H 0.0772 1.0122 0.6730
H8 H 0.1236 1.2029 0.6448
C8 C 0.3303(3) 1.0461(4) 0.67045(7)
C9 C 0.3803(3) 0.8990(4) 0.70161(7)
H9 H 0.2998 0.8083 0.7108
C10 C 0.5453(3) 0.8817(4) 0.71962(8)
H10 H 0.5766 0.7794 0.7409
C11 C 0.6645(3) 1.0111(3) 0.70698(7)
C12 C 0.6161(3) 1.1647(4) 0.67656(7)
C13 C 0.4509(3) 1.1805(3) 0.65829(7)
H11 H 0.4191 1.2836 0.6373
O5 O 0.83101(19) 1.0084(3) 0.72251(6)
C14 C 0.8846(3) 0.8598(4) 0.75525(10)
H12 H 1.0054 0.8713 0.7633
H13 H 0.8261 0.8759 0.7831
H14 H 0.8591 0.7302 0.7417
O6 O 0.7416(2) 1.2912(3) 0.66783(6)
C15 C 0.6987(4) 1.4515(5) 0.63809(12)
H15 H 0.7988 1.5301 0.6344
H16 H 0.6526 1.4023 0.6079
H17 H 0.6151 1.5333 0.6515
C16 C -0.0810(3) 0.9528(4) 0.59149(9)
H18 H -0.1087 0.8907 0.5613
H19 H -0.1356 0.8811 0.6152
H20 H -0.1201 1.0892 0.5903

#END
