./ABEJIC_from_xyz.cif_generated_by_CrystalShift
_symmetry_cell_setting triclinic
_symmetry_space_group_name_H-M 'P 1'
loop_
_symmetry_equiv_pos_site_id
_symmetry_equiv_pos_as_xyz
1 x,y,z
_cell_length_a 10.437400
_cell_length_b 10.517100
_cell_length_c 11.037000
_cell_angle_alpha 104.297000
_cell_angle_beta 97.447000
_cell_angle_gamma 117.915000
_cell_volume 993.964675
loop_
_atom_site_label
_atom_site_type_symbol
_atom_site_fract_x
_atom_site_fract_y
_atom_site_fract_z
C1 C 0.174890 -0.135870 0.229170
C2 C 0.280470 -0.069560 0.354330
H3 H 0.355100 0.036900 0.386800
C4 C 0.275660 -0.157700 0.428690
H5 H 0.346700 -0.111800 0.512400
C6 C 0.165630 -0.316560 0.381640
H7 H 0.163200 -0.376800 0.433800
C8 C 0.062650 -0.383860 0.261400
H9 H -0.010600 -0.490700 0.230700
C10 C 0.063870 -0.295910 0.181740
C11 C -0.041270 -0.362930 0.056450
H12 H -0.117000 -0.469000 0.025100
C13 C -0.034850 -0.276400 -0.019940
H14 H -0.105000 -0.323400 -0.104200
C15 C 0.075140 -0.118130 0.025630
H16 H 0.079200 -0.059700 -0.028700
C17 C 0.176990 -0.047220 0.148390
C18 C 0.282900 0.115470 0.197520
C19 C 0.370980 0.251770 0.244560
C20 C 0.478200 0.413840 0.300550
C21 C 0.429600 0.518580 0.326670
H22 H 0.324400 0.481800 0.307500
C23 C 0.533470 0.675590 0.380280
H24 H 0.499100 0.745600 0.397100
C25 C 0.687980 0.730630 0.409400
H26 H 0.758800 0.838100 0.446300
C27 C 0.738750 0.628770 0.384590
H28 H 0.844300 0.667100 0.404300
C29 C 0.635510 0.469750 0.330610
C30 C 0.687020 0.363870 0.306570
C31 C 0.728650 0.273580 0.286980
C32 C 0.775910 0.164110 0.265510
C33 C 0.924660 0.210200 0.320510
H34 H 0.996000 0.315500 0.369800
C35 C 0.971540 0.102760 0.304280
H36 H 1.073600 0.136000 0.343600
C37 C 0.870490 -0.049410 0.232050
H38 H 0.903100 -0.120900 0.222500
C39 C 0.717630 -0.101430 0.171350
C40 C 0.612710 -0.257520 0.092750
H41 H 0.645100 -0.329300 0.079200
C42 C 0.465280 -0.305860 0.036220
H43 H 0.396600 -0.410400 -0.017100
C44 C 0.415110 -0.200830 0.056990
H45 H 0.312200 -0.235600 0.019000
C46 C 0.514070 -0.048700 0.131740
H47 H 0.479100 0.021000 0.144900
C48 C 0.668020 0.005160 0.189390
C49 C 0.825110 1.135870 0.770830
C50 C 0.719530 1.069560 0.645670
H51 H 0.644900 0.963100 0.613200
C52 C 0.724340 1.157700 0.571310
H53 H 0.653300 1.111800 0.487600
C54 C 0.834370 1.316560 0.618360
H55 H 0.836800 1.376800 0.566200
C56 C 0.937350 1.383860 0.738600
H57 H 1.010600 1.490700 0.769300
C58 C 0.936130 1.295910 0.818260
C59 C 1.041270 1.362930 0.943550
H60 H 1.117000 1.469000 0.974900
C61 C 1.034850 1.276400 1.019940
H62 H 1.105000 1.323400 1.104200
C63 C 0.924860 1.118130 0.974370
H64 H 0.920800 1.059700 1.028700
C65 C 0.823010 1.047220 0.851610
C66 C 0.717100 0.884530 0.802480
C67 C 0.629020 0.748230 0.755440
C68 C 0.521800 0.586160 0.699450
C69 C 0.570400 0.481420 0.673330
H70 H 0.675600 0.518200 0.692500
C71 C 0.466530 0.324410 0.619720
H72 H 0.500900 0.254400 0.602900
C73 C 0.312020 0.269370 0.590600
H74 H 0.241200 0.161900 0.553700
C75 C 0.261250 0.371230 0.615410
H76 H 0.155700 0.332900 0.595700
C77 C 0.364490 0.530250 0.669390
C78 C 0.312980 0.636130 0.693430
C79 C 0.271350 0.726420 0.713020
C80 C 0.224090 0.835890 0.734490
C81 C 0.075340 0.789800 0.679490
H82 H 0.004000 0.684500 0.630200
C83 C 0.028460 0.897240 0.695720
H84 H -0.073600 0.864000 0.656400
C85 C 0.129510 1.049410 0.767950
H86 H 0.096900 1.120900 0.777500
C87 C 0.282370 1.101430 0.828650
C88 C 0.387290 1.257520 0.907250
H89 H 0.354900 1.329300 0.920800
C90 C 0.534720 1.305860 0.963780
H91 H 0.603400 1.410400 1.017100
C92 C 0.584890 1.200830 0.943010
H93 H 0.687800 1.235600 0.981000
C94 C 0.485930 1.048700 0.868260
H95 H 0.520900 0.979000 0.855100
C96 C 0.331980 0.994840 0.810610

#END
