
#######################################################################
#
#                 Cambridge Crystallographic Data Centre
#                                CCDC 
#
#######################################################################
#
# If this CIF has been generated from an entry in the Cambridge 
# Structural Database, then it will include bibliographic, chemical, 
# crystal, experimental, refinement or atomic coordinate data resulting 
# from the CCDC's data processing and validation procedures.
#
#######################################################################

data_ABEKEY
_symmetry_cell_setting           orthorhombic
_symmetry_space_group_name_H-M   'P 21 21 21'
_symmetry_Int_Tables_number      19
_space_group_name_Hall           'P 2ac 2ab'
loop_
_symmetry_equiv_pos_site_id
_symmetry_equiv_pos_as_xyz
1 x,y,z
2 1/2-x,-y,1/2+z
3 1/2+x,1/2-y,-z
4 -x,1/2+y,1/2-z
_cell_length_a                   6.0473(6)
_cell_length_b                   7.4417(7)
_cell_length_c                   22.376(3)
_cell_angle_alpha                90
_cell_angle_beta                 90
_cell_angle_gamma                90
_cell_volume                     1006.97
loop_
_atom_site_label
_atom_site_type_symbol
_atom_site_fract_x
_atom_site_fract_y
_atom_site_fract_z
S1 S 0.64972(13) 0.72536(9) 0.15971(3)
N1 N 0.0542(4) 0.5413(3) 0.25417(11)
H1 H -0.0396 0.4707 0.2373
N2 N 0.2345(4) 0.5983(3) 0.22289(11)
C1 C 0.0196(5) 0.5951(3) 0.31248(12)
C2 C -0.1826(5) 0.5552(3) 0.33942(13)
H2 H -0.2926 0.4971 0.3177
C3 C -0.2192(5) 0.6017(4) 0.39798(14)
H3 H -0.3534 0.5732 0.4159
C4 C -0.0575(6) 0.6911(4) 0.43083(13)
H4 H -0.0825 0.7224 0.4705
C5 C 0.1417(5) 0.7328(4) 0.40332(11)
H5 H 0.2503 0.7928 0.4250
C6 C 0.1818(5) 0.6876(3) 0.34499(13)
H6 H 0.3155 0.7180 0.3271
C7 C 0.2451(5) 0.5545(3) 0.16801(13)
H7 H 0.1329 0.4848 0.1516
C8 C 0.7673(5) 0.7451(4) 0.09058(12)
H8 H 0.9016 0.8023 0.0836
C9 C 0.6436(4) 0.6683(2) 0.04706(9)
H9 H 0.6836 0.6668 0.0069
C10 C 0.4461(4) 0.5902(2) 0.06955(9)
H10 H 0.3417 0.5323 0.0459
C11 C 0.4273(5) 0.6105(3) 0.13064(12)
S1 S -0.14972(13) 0.27464(9) 0.65971(3)
N1 N 0.4458(4) 0.4587(3) 0.75417(11)
H1 H 0.5396 0.5293 0.7373
N2 N 0.2655(4) 0.4017(3) 0.72289(11)
C1 C 0.4804(5) 0.4049(3) 0.81248(12)
C2 C 0.6826(5) 0.4448(3) 0.83942(13)
H2 H 0.7926 0.5029 0.8177
C3 C 0.7192(5) 0.3983(4) 0.89798(14)
H3 H 0.8534 0.4268 0.9159
C4 C 0.5575(6) 0.3089(4) 0.93083(13)
H4 H 0.5825 0.2776 0.9705
C5 C 0.3583(5) 0.2672(4) 0.90332(11)
H5 H 0.2497 0.2072 0.9250
C6 C 0.3182(5) 0.3124(3) 0.84499(13)
H6 H 0.1845 0.2820 0.8271
C7 C 0.2549(5) 0.4455(3) 0.66801(13)
H7 H 0.3671 0.5152 0.6516
C8 C -0.2673(5) 0.2549(4) 0.59058(12)
H8 H -0.4016 0.1977 0.5836
C9 C -0.1436(4) 0.3317(2) 0.54706(9)
H9 H -0.1836 0.3332 0.5069
C10 C 0.0539(4) 0.4098(2) 0.56955(9)
H10 H 0.1583 0.4677 0.5459
C11 C 0.0727(5) 0.3895(3) 0.63064(12)
S1 S 1.14972(13) 0.77464(9) 0.84029(3)
N1 N 0.5542(4) 0.9587(3) 0.74583(11)
H1 H 0.4604 1.0293 0.7627
N2 N 0.7345(4) 0.9017(3) 0.77711(11)
C1 C 0.5196(5) 0.9049(3) 0.68752(12)
C2 C 0.3174(5) 0.9448(3) 0.66058(13)
H2 H 0.2074 1.0029 0.6823
C3 C 0.2808(5) 0.8983(4) 0.60202(14)
H3 H 0.1466 0.9268 0.5841
C4 C 0.4425(6) 0.8089(4) 0.56917(13)
H4 H 0.4175 0.7776 0.5295
C5 C 0.6417(5) 0.7672(4) 0.59668(11)
H5 H 0.7503 0.7072 0.5750
C6 C 0.6818(5) 0.8124(3) 0.65501(13)
H6 H 0.8155 0.7820 0.6729
C7 C 0.7451(5) 0.9455(3) 0.83199(13)
H7 H 0.6329 1.0152 0.8484
C8 C 1.2673(5) 0.7549(4) 0.90942(12)
H8 H 1.4016 0.6977 0.9164
C9 C 1.1436(4) 0.8317(2) 0.95294(9)
H9 H 1.1836 0.8332 0.9931
C10 C 0.9461(4) 0.9098(2) 0.93045(9)
H10 H 0.8417 0.9677 0.9541
C11 C 0.9273(5) 0.8895(3) 0.86936(12)
S1 S 0.35028(13) 0.22536(9) 0.34029(3)
N1 N 0.9458(4) 0.0413(3) 0.24583(11)
H1 H 1.0396 -0.0293 0.2627
N2 N 0.7655(4) 0.0983(3) 0.27711(11)
C1 C 0.9804(5) 0.0951(3) 0.18752(12)
C2 C 1.1826(5) 0.0552(3) 0.16058(13)
H2 H 1.2926 -0.0029 0.1823
C3 C 1.2192(5) 0.1017(4) 0.10202(14)
H3 H 1.3534 0.0732 0.0841
C4 C 1.0575(6) 0.1911(4) 0.06917(13)
H4 H 1.0825 0.2224 0.0295
C5 C 0.8583(5) 0.2328(4) 0.09668(11)
H5 H 0.7497 0.2928 0.0750
C6 C 0.8182(5) 0.1876(3) 0.15501(13)
H6 H 0.6845 0.2180 0.1729
C7 C 0.7549(5) 0.0545(3) 0.33199(13)
H7 H 0.8671 -0.0152 0.3484
C8 C 0.2327(5) 0.2451(4) 0.40942(12)
H8 H 0.0984 0.3023 0.4164
C9 C 0.3564(4) 0.1683(2) 0.45294(9)
H9 H 0.3164 0.1668 0.4931
C10 C 0.5539(4) 0.0902(2) 0.43045(9)
H10 H 0.6583 0.0323 0.4541
C11 C 0.5727(5) 0.1105(3) 0.36936(12)

#END
