
#######################################################################
#
#                 Cambridge Crystallographic Data Centre
#                                CCDC 
#
#######################################################################
#
# If this CIF has been generated from an entry in the Cambridge 
# Structural Database, then it will include bibliographic, chemical, 
# crystal, experimental, refinement or atomic coordinate data resulting 
# from the CCDC's data processing and validation procedures.
#
#######################################################################

data_ABEKUN02
_symmetry_cell_setting           monoclinic
_symmetry_space_group_name_H-M   'P 21/n'
_symmetry_Int_Tables_number      14
_space_group_name_Hall           '-P 2yn'
loop_
_symmetry_equiv_pos_site_id
_symmetry_equiv_pos_as_xyz
1 x,y,z
2 1/2-x,1/2+y,1/2-z
3 -x,-y,-z
4 1/2+x,1/2-y,1/2+z
_cell_length_a                   10.1485(4)
_cell_length_b                   7.1265(3)
_cell_length_c                   20.0717(6)
_cell_angle_alpha                90
_cell_angle_beta                 94.684(2)
_cell_angle_gamma                90
_cell_volume                     1446.8
loop_
_atom_site_label
_atom_site_type_symbol
_atom_site_fract_x
_atom_site_fract_y
_atom_site_fract_z
N1 N 0.09398(11) 0.79813(16) 0.22479(6)
C1 C 0.16268(12) 0.71424(19) 0.11667(6)
N2 N 0.83076(11) 0.78408(17) -0.03148(6)
C2 C 0.28676(12) 0.79484(18) 0.13142(6)
C3 C 0.74717(13) 0.88536(18) 0.07120(6)
C4 C 0.38721(12) 0.78409(19) 0.08226(6)
C5 C 0.61980(12) 0.82566(17) 0.05029(6)
C6 C 0.51505(13) 0.84304(19) 0.09683(6)
C7 C 0.21234(13) 0.87862(19) 0.23806(6)
C8 C 0.31080(13) 0.8812(2) 0.19407(6)
C9 C 0.60036(12) 0.74881(19) -0.01384(6)
C10 C 0.70713(13) 0.7307(2) -0.05219(6)
C11 C 0.07041(12) 0.71866(19) 0.16431(6)
C12 C 0.84789(13) 0.8629(2) 0.02918(7)
H1 H 0.1415 0.6565 0.0745
H2 H 0.7645 0.9413 0.1140
H3 H 0.3627 0.7347 0.0391
H4 H 0.5371 0.8979 0.1394
H5 H 0.2300 0.9380 0.2802
H6 H 0.3934 0.9398 0.2061
H7 H 0.5146 0.7097 -0.0309
H8 H 0.6924 0.6770 -0.0955
H9 H -0.0137 0.6629 0.1536
H10 H 0.9340 0.9053 0.0442
N1 N 0.40602(11) 0.29813(16) 0.27521(6)
C1 C 0.33732(12) 0.21424(19) 0.38333(6)
N2 N -0.33076(11) 0.28408(17) 0.53148(6)
C2 C 0.21324(12) 0.29484(18) 0.36858(6)
C3 C -0.24717(13) 0.38536(18) 0.42880(6)
C4 C 0.11279(12) 0.28409(19) 0.41774(6)
C5 C -0.11980(12) 0.32566(17) 0.44971(6)
C6 C -0.01505(13) 0.34304(19) 0.40317(6)
C7 C 0.28766(13) 0.37862(19) 0.26194(6)
C8 C 0.18920(13) 0.3812(2) 0.30593(6)
C9 C -0.10036(12) 0.24881(19) 0.51384(6)
C10 C -0.20713(13) 0.2307(2) 0.55219(6)
C11 C 0.42959(12) 0.21866(19) 0.33569(6)
C12 C -0.34789(13) 0.3629(2) 0.47082(7)
H1 H 0.3585 0.1565 0.4255
H2 H -0.2645 0.4413 0.3860
H3 H 0.1373 0.2347 0.4609
H4 H -0.0371 0.3979 0.3606
H5 H 0.2700 0.4380 0.2198
H6 H 0.1066 0.4398 0.2939
H7 H -0.0146 0.2097 0.5309
H8 H -0.1924 0.1770 0.5955
H9 H 0.5137 0.1629 0.3464
H10 H -0.4340 0.4053 0.4558
N1 N 0.90602(11) 0.20187(16) 0.77521(6)
C1 C 0.83732(12) 0.28576(19) 0.88333(6)
N2 N 0.16924(11) 0.21592(17) 1.03148(6)
C2 C 0.71324(12) 0.20516(18) 0.86858(6)
C3 C 0.25283(13) 0.11464(18) 0.92880(6)
C4 C 0.61279(12) 0.21591(19) 0.91774(6)
C5 C 0.38020(12) 0.17434(17) 0.94971(6)
C6 C 0.48495(13) 0.15696(19) 0.90317(6)
C7 C 0.78766(13) 0.12138(19) 0.76194(6)
C8 C 0.68920(13) 0.1188(2) 0.80593(6)
C9 C 0.39964(12) 0.25119(19) 1.01384(6)
C10 C 0.29287(13) 0.2693(2) 1.05219(6)
C11 C 0.92959(12) 0.28134(19) 0.83569(6)
C12 C 0.15211(13) 0.1371(2) 0.97082(7)
H1 H 0.8585 0.3435 0.9255
H2 H 0.2355 0.0587 0.8860
H3 H 0.6373 0.2653 0.9609
H4 H 0.4629 0.1021 0.8606
H5 H 0.7700 0.0620 0.7198
H6 H 0.6066 0.0602 0.7939
H7 H 0.4854 0.2903 1.0309
H8 H 0.3076 0.3230 1.0955
H9 H 1.0137 0.3371 0.8464
H10 H 0.0660 0.0947 0.9558
N1 N 0.59398(11) 0.70187(16) 0.72479(6)
C1 C 0.66268(12) 0.78576(19) 0.61667(6)
N2 N 1.33076(11) 0.71592(17) 0.46852(6)
C2 C 0.78676(12) 0.70516(18) 0.63142(6)
C3 C 1.24717(13) 0.61464(18) 0.57120(6)
C4 C 0.88721(12) 0.71591(19) 0.58226(6)
C5 C 1.11980(12) 0.67434(17) 0.55029(6)
C6 C 1.01505(13) 0.65696(19) 0.59683(6)
C7 C 0.71234(13) 0.62138(19) 0.73806(6)
C8 C 0.81080(13) 0.6188(2) 0.69407(6)
C9 C 1.10036(12) 0.75119(19) 0.48616(6)
C10 C 1.20713(13) 0.7693(2) 0.44781(6)
C11 C 0.57041(12) 0.78134(19) 0.66431(6)
C12 C 1.34789(13) 0.6371(2) 0.52918(7)
H1 H 0.6415 0.8435 0.5745
H2 H 1.2645 0.5587 0.6140
H3 H 0.8627 0.7653 0.5391
H4 H 1.0371 0.6021 0.6394
H5 H 0.7300 0.5620 0.7802
H6 H 0.8934 0.5602 0.7061
H7 H 1.0146 0.7903 0.4691
H8 H 1.1924 0.8230 0.4045
H9 H 0.4863 0.8371 0.6536
H10 H 1.4340 0.5947 0.5442
O1 O 0.95911(9) 0.84848(15) 0.33531(5)
O2 O 0.56893(9) 0.87958(14) 0.44633(5)
C13 C 0.76094(12) 0.86704(17) 0.38827(6)
C14 C 0.62756(12) 0.82564(17) 0.39047(6)
C15 C 0.75886(13) 0.71993(19) 0.27957(6)
C16 C 0.62495(13) 0.68421(19) 0.28194(7)
C17 C 0.82716(12) 0.81138(17) 0.33327(6)
C18 C 0.55741(13) 0.73504(19) 0.33699(7)
H11 H 0.8068 0.9333 0.4241
H12 H 0.8037 0.6829 0.2420
H13 H 0.5780 0.6233 0.2452
H14 H 0.4658 0.7092 0.3382
H15 H 0.9927 0.8160 0.2960
H16 H 0.4880 0.8203 0.4478
O1 O 0.54089(9) 0.34848(15) 0.16469(5)
O2 O 0.93107(9) 0.37958(14) 0.05367(5)
C13 C 0.73906(12) 0.36704(17) 0.11173(6)
C14 C 0.87244(12) 0.32564(17) 0.10953(6)
C15 C 0.74114(13) 0.21993(19) 0.22043(6)
C16 C 0.87505(13) 0.18421(19) 0.21806(7)
C17 C 0.67284(12) 0.31138(17) 0.16673(6)
C18 C 0.94259(13) 0.23504(19) 0.16301(7)
H11 H 0.6932 0.4333 0.0759
H12 H 0.6963 0.1829 0.2580
H13 H 0.9220 0.1233 0.2548
H14 H 1.0342 0.2092 0.1618
H15 H 0.5073 0.3160 0.2040
H16 H 1.0120 0.3203 0.0522
O1 O 0.04089(9) 0.15152(15) 0.66469(5)
O2 O 0.43107(9) 0.12042(14) 0.55367(5)
C13 C 0.23906(12) 0.13296(17) 0.61173(6)
C14 C 0.37244(12) 0.17436(17) 0.60953(6)
C15 C 0.24114(13) 0.28007(19) 0.72043(6)
C16 C 0.37505(13) 0.31579(19) 0.71806(7)
C17 C 0.17284(12) 0.18862(17) 0.66673(6)
C18 C 0.44259(13) 0.26496(19) 0.66301(7)
H11 H 0.1932 0.0667 0.5759
H12 H 0.1963 0.3171 0.7580
H13 H 0.4220 0.3767 0.7548
H14 H 0.5342 0.2908 0.6618
H15 H 0.0073 0.1840 0.7040
H16 H 0.5120 0.1797 0.5522
O1 O 0.45911(9) 0.65152(15) 0.83531(5)
O2 O 0.06893(9) 0.62042(14) 0.94633(5)
C13 C 0.26094(12) 0.63296(17) 0.88827(6)
C14 C 0.12756(12) 0.67436(17) 0.89047(6)
C15 C 0.25886(13) 0.78007(19) 0.77957(6)
C16 C 0.12495(13) 0.81579(19) 0.78194(7)
C17 C 0.32716(12) 0.68862(17) 0.83327(6)
C18 C 0.05741(13) 0.76496(19) 0.83699(7)
H11 H 0.3068 0.5667 0.9241
H12 H 0.3037 0.8171 0.7420
H13 H 0.0780 0.8767 0.7452
H14 H -0.0342 0.7908 0.8382
H15 H 0.4927 0.6840 0.7960
H16 H -0.0120 0.6797 0.9478

#END
