./ABEKEY_from_xyz.cif_generated_by_CrystalShift
_symmetry_cell_setting triclinic
_symmetry_space_group_name_H-M 'P 1'
loop_
_symmetry_equiv_pos_site_id
_symmetry_equiv_pos_as_xyz
1 x,y,z
_cell_length_a 6.047300
_cell_length_b 7.441700
_cell_length_c 22.376000
_cell_angle_alpha 90.000000
_cell_angle_beta 90.000000
_cell_angle_gamma 90.000000
_cell_volume 1006.969057
loop_
_atom_site_label
_atom_site_type_symbol
_atom_site_fract_x
_atom_site_fract_y
_atom_site_fract_z
S1 S 0.649720 0.725360 0.159710
N2 N 0.054200 0.541300 0.254170
H3 H -0.039600 0.470700 0.237300
N4 N 0.234500 0.598300 0.222890
C5 C 0.019600 0.595100 0.312480
C6 C -0.182600 0.555200 0.339420
H7 H -0.292600 0.497100 0.317700
C8 C -0.219200 0.601700 0.397980
H9 H -0.353400 0.573200 0.415900
C10 C -0.057500 0.691100 0.430830
H11 H -0.082500 0.722400 0.470500
C12 C 0.141700 0.732800 0.403320
H13 H 0.250300 0.792800 0.425000
C14 C 0.181800 0.687600 0.344990
H15 H 0.315500 0.718000 0.327100
C16 C 0.245100 0.554500 0.168010
H17 H 0.132900 0.484800 0.151600
C18 C 0.767300 0.745100 0.090580
H19 H 0.901600 0.802300 0.083600
C20 C 0.643600 0.668300 0.047060
H21 H 0.683600 0.666800 0.006900
C22 C 0.446100 0.590200 0.069550
H23 H 0.341700 0.532300 0.045900
C24 C 0.427300 0.610500 0.130640
S25 S -0.149720 0.274640 0.659710
N26 N 0.445800 0.458700 0.754170
H27 H 0.539600 0.529300 0.737300
N28 N 0.265500 0.401700 0.722890
C29 C 0.480400 0.404900 0.812480
C30 C 0.682600 0.444800 0.839420
H31 H 0.792600 0.502900 0.817700
C32 C 0.719200 0.398300 0.897980
H33 H 0.853400 0.426800 0.915900
C34 C 0.557500 0.308900 0.930830
H35 H 0.582500 0.277600 0.970500
C36 C 0.358300 0.267200 0.903320
H37 H 0.249700 0.207200 0.925000
C38 C 0.318200 0.312400 0.844990
H39 H 0.184500 0.282000 0.827100
C40 C 0.254900 0.445500 0.668010
H41 H 0.367100 0.515200 0.651600
C42 C -0.267300 0.254900 0.590580
H43 H -0.401600 0.197700 0.583600
C44 C -0.143600 0.331700 0.547060
H45 H -0.183600 0.333200 0.506900
C46 C 0.053900 0.409800 0.569550
H47 H 0.158300 0.467700 0.545900
C48 C 0.072700 0.389500 0.630640
S49 S 1.149720 0.774640 0.840290
N50 N 0.554200 0.958700 0.745830
H51 H 0.460400 1.029300 0.762700
N52 N 0.734500 0.901700 0.777110
C53 C 0.519600 0.904900 0.687520
C54 C 0.317400 0.944800 0.660580
H55 H 0.207400 1.002900 0.682300
C56 C 0.280800 0.898300 0.602020
H57 H 0.146600 0.926800 0.584100
C58 C 0.442500 0.808900 0.569170
H59 H 0.417500 0.777600 0.529500
C60 C 0.641700 0.767200 0.596680
H61 H 0.750300 0.707200 0.575000
C62 C 0.681800 0.812400 0.655010
H63 H 0.815500 0.782000 0.672900
C64 C 0.745100 0.945500 0.831990
H65 H 0.632900 1.015200 0.848400
C66 C 1.267300 0.754900 0.909420
H67 H 1.401600 0.697700 0.916400
C68 C 1.143600 0.831700 0.952940
H69 H 1.183600 0.833200 0.993100
C70 C 0.946100 0.909800 0.930450
H71 H 0.841700 0.967700 0.954100
C72 C 0.927300 0.889500 0.869360
S73 S 0.350280 0.225360 0.340290
N74 N 0.945800 0.041300 0.245830
H75 H 1.039600 -0.029300 0.262700
N76 N 0.765500 0.098300 0.277110
C77 C 0.980400 0.095100 0.187520
C78 C 1.182600 0.055200 0.160580
H79 H 1.292600 -0.002900 0.182300
C80 C 1.219200 0.101700 0.102020
H81 H 1.353400 0.073200 0.084100
C82 C 1.057500 0.191100 0.069170
H83 H 1.082500 0.222400 0.029500
C84 C 0.858300 0.232800 0.096680
H85 H 0.749700 0.292800 0.075000
C86 C 0.818200 0.187600 0.155010
H87 H 0.684500 0.218000 0.172900
C88 C 0.754900 0.054500 0.331990
H89 H 0.867100 -0.015200 0.348400
C90 C 0.232700 0.245100 0.409420
H91 H 0.098400 0.302300 0.416400
C92 C 0.356400 0.168300 0.452940
H93 H 0.316400 0.166800 0.493100
C94 C 0.553900 0.090200 0.430450
H95 H 0.658300 0.032300 0.454100
C96 C 0.572700 0.110500 0.369360

#END
