./ABELEA_from_xyz.cif_generated_by_CrystalShift
_symmetry_cell_setting triclinic
_symmetry_space_group_name_H-M 'P 1'
loop_
_symmetry_equiv_pos_site_id
_symmetry_equiv_pos_as_xyz
1 x,y,z
_cell_length_a 8.058200
_cell_length_b 9.918100
_cell_length_c 9.955700
_cell_angle_alpha 62.210300
_cell_angle_beta 85.971500
_cell_angle_gamma 87.936300
_cell_volume 702.165881
loop_
_atom_site_label
_atom_site_type_symbol
_atom_site_fract_x
_atom_site_fract_y
_atom_site_fract_z
N1 N 1.164200 0.324680 0.499060
C2 C 1.074670 0.195530 0.565610
C3 C 0.931300 0.177660 0.505250
C4 C 0.878670 0.295900 0.369640
C5 C 0.972700 0.429150 0.300230
C6 C 1.113390 0.439860 0.368540
C7 C 1.218330 0.579580 0.300070
C8 C 1.382380 0.570460 0.340380
C9 C 1.481900 0.699790 0.281010
C10 C 1.417490 0.840440 0.181010
C11 C 1.255530 0.850430 0.138050
C12 C 1.156660 0.721050 0.196160
C13 C 0.727470 0.281220 0.300370
C14 C 0.585400 0.208550 0.391490
C15 C 0.443740 0.196370 0.326640
C16 C 0.443020 0.256170 0.169140
C17 C 0.584870 0.326610 0.076750
C18 C 0.725940 0.338730 0.142860
C19 C 0.294240 0.248230 0.100840
N20 N 0.175000 0.243670 0.045880
C21 C 1.139390 0.069780 0.708880
H22 H 0.870200 0.083600 0.556700
H23 H 0.937700 0.513600 0.206100
H24 H 1.426300 0.474100 0.408100
H25 H 1.594400 0.691900 0.309900
H26 H 1.484100 0.930800 0.140100
H27 H 1.211400 0.946400 0.068300
H28 H 1.045700 0.731000 0.165300
H29 H 0.586200 0.168200 0.498600
H30 H 0.346400 0.148800 0.391200
H31 H 0.586200 0.365700 -0.030800
H32 H 0.823300 0.385200 0.078900
H33 H 1.062700 -0.015600 0.758100
H34 H 1.155800 0.107800 0.781900
H35 H 1.246600 0.031500 0.688300
N36 N -0.164200 0.675320 0.500940
C37 C -0.074670 0.804470 0.434390
C38 C 0.068700 0.822340 0.494750
C39 C 0.121330 0.704100 0.630360
C40 C 0.027300 0.570850 0.699770
C41 C -0.113390 0.560140 0.631460
C42 C -0.218330 0.420420 0.699930
C43 C -0.382380 0.429540 0.659620
C44 C -0.481900 0.300210 0.718990
C45 C -0.417490 0.159560 0.818990
C46 C -0.255530 0.149570 0.861950
C47 C -0.156660 0.278950 0.803840
C48 C 0.272530 0.718780 0.699630
C49 C 0.414600 0.791450 0.608510
C50 C 0.556260 0.803630 0.673360
C51 C 0.556980 0.743830 0.830860
C52 C 0.415130 0.673390 0.923250
C53 C 0.274060 0.661270 0.857140
C54 C 0.705760 0.751770 0.899160
N55 N 0.825000 0.756330 0.954120
C56 C -0.139390 0.930220 0.291120
H57 H 0.129800 0.916400 0.443300
H58 H 0.062300 0.486400 0.793900
H59 H -0.426300 0.525900 0.591900
H60 H -0.594400 0.308100 0.690100
H61 H -0.484100 0.069200 0.859900
H62 H -0.211400 0.053600 0.931700
H63 H -0.045700 0.269000 0.834700
H64 H 0.413800 0.831800 0.501400
H65 H 0.653600 0.851200 0.608800
H66 H 0.413800 0.634300 1.030800
H67 H 0.176700 0.614800 0.921100
H68 H -0.062700 1.015600 0.241900
H69 H -0.155800 0.892200 0.218100
H70 H -0.246600 0.968500 0.311700

#END
