./ABEMUS_from_xyz.cif_generated_by_CrystalShift
_symmetry_cell_setting triclinic
_symmetry_space_group_name_H-M 'P 1'
loop_
_symmetry_equiv_pos_site_id
_symmetry_equiv_pos_as_xyz
1 x,y,z
_cell_length_a 9.161900
_cell_length_b 10.216000
_cell_length_c 10.489000
_cell_angle_alpha 67.760000
_cell_angle_beta 83.945000
_cell_angle_gamma 68.570000
_cell_volume 845.275956
loop_
_atom_site_label
_atom_site_type_symbol
_atom_site_fract_x
_atom_site_fract_y
_atom_site_fract_z
O1 O 0.713450 0.346800 0.815620
O2 O 0.243500 0.576500 0.731200
C3 C 0.623600 0.291900 0.766100
C4 C 0.372900 0.289200 0.695200
H5 H 0.447000 0.192200 0.693900
C6 C 0.466400 0.360200 0.739500
C7 C 0.643800 0.483400 0.830800
C8 C 0.727600 0.150400 0.749000
C9 C 0.733200 0.133100 0.623300
H10 H 0.668100 0.209600 0.549500
C11 C 0.385600 0.506000 0.755300
C12 C 0.485400 0.565800 0.802000
C13 C 0.247400 0.253300 0.797500
H14 H 0.297000 0.188100 0.887900
H15 H 0.173400 0.346400 0.804600
C16 C 0.742400 0.534300 0.876600
H17 H 0.848300 0.476700 0.897000
C18 C 0.300100 0.381100 0.549300
H19 H 0.228300 0.479900 0.545200
H20 H 0.382300 0.395700 0.485100
C21 C 0.678400 0.672300 0.890800
H22 H 0.742300 0.709000 0.920200
C23 C 0.827700 0.035200 0.857500
H24 H 0.826200 0.045600 0.942000
C25 C 0.159600 0.176100 0.752800
H26 H 0.231300 0.077200 0.757000
H27 H 0.076800 0.161700 0.816100
C28 C 0.929300 -0.094400 0.839300
H29 H 0.996200 -0.171000 0.912000
C30 C 0.211800 0.302100 0.506500
H31 H 0.161500 0.366500 0.416200
H32 H 0.285900 0.208900 0.499800
C33 C 0.520100 0.757800 0.861900
H34 H 0.478700 0.850700 0.872300
C35 C 0.932500 -0.111200 0.715100
H36 H 1.000300 -0.199200 0.703900
C37 C 0.089200 0.267000 0.608500
H38 H 0.008000 0.360800 0.606700
H39 H 0.040900 0.210700 0.581600
C40 C 0.835100 0.002700 0.607900
H41 H 0.837900 -0.008300 0.523500
C42 C 0.424500 0.705300 0.817800
H43 H 0.318500 0.763100 0.798400
O44 O 0.286550 0.653200 0.184380
O45 O 0.756500 0.423500 0.268800
C46 C 0.376400 0.708100 0.233900
C47 C 0.627100 0.710800 0.304800
H48 H 0.553000 0.807800 0.306100
C49 C 0.533600 0.639800 0.260500
C50 C 0.356200 0.516600 0.169200
C51 C 0.272400 0.849600 0.251000
C52 C 0.266800 0.866900 0.376700
H53 H 0.331900 0.790400 0.450500
C54 C 0.614400 0.494000 0.244700
C55 C 0.514600 0.434200 0.198000
C56 C 0.752600 0.746700 0.202500
H57 H 0.703000 0.811900 0.112100
H58 H 0.826600 0.653600 0.195400
C59 C 0.257600 0.465700 0.123400
H60 H 0.151700 0.523300 0.103000
C61 C 0.699900 0.618900 0.450700
H62 H 0.771700 0.520100 0.454800
H63 H 0.617700 0.604300 0.514900
C64 C 0.321600 0.327700 0.109200
H65 H 0.257700 0.291000 0.079800
C66 C 0.172300 0.964800 0.142500
H67 H 0.173800 0.954400 0.058000
C68 C 0.840400 0.823900 0.247200
H69 H 0.768700 0.922800 0.243000
H70 H 0.923200 0.838300 0.183900
C71 C 0.070700 1.094400 0.160700
H72 H 0.003800 1.171000 0.088000
C73 C 0.788200 0.697900 0.493500
H74 H 0.838500 0.633500 0.583800
H75 H 0.714100 0.791100 0.500200
C76 C 0.479900 0.242200 0.138100
H77 H 0.521300 0.149300 0.127700
C78 C 0.067500 1.111200 0.284900
H79 H -0.000300 1.199200 0.296100
C80 C 0.910800 0.733000 0.391500
H81 H 0.992000 0.639200 0.393300
H82 H 0.959100 0.789300 0.418400
C83 C 0.164900 0.997300 0.392100
H84 H 0.162100 1.008300 0.476500
C85 C 0.575500 0.294700 0.182200
H86 H 0.681500 0.236900 0.201600

#END
