./ABENON_from_xyz.cif_generated_by_CrystalShift
_symmetry_cell_setting triclinic
_symmetry_space_group_name_H-M 'P 1'
loop_
_symmetry_equiv_pos_site_id
_symmetry_equiv_pos_as_xyz
1 x,y,z
_cell_length_a 9.998000
_cell_length_b 7.434800
_cell_length_c 14.351000
_cell_angle_alpha 90.000000
_cell_angle_beta 106.470000
_cell_angle_gamma 90.000000
_cell_volume 1022.983988
loop_
_atom_site_label
_atom_site_type_symbol
_atom_site_fract_x
_atom_site_fract_y
_atom_site_fract_z
C1 C 0.205500 0.528900 -0.225500
H2 H 0.253500 0.603800 -0.260100
H3 H 0.114400 0.577400 -0.231900
H4 H 0.196900 0.409500 -0.252000
C5 C 0.286400 0.522700 -0.120120
C6 C 0.421700 0.463200 -0.091440
H7 H 0.463300 0.425800 -0.138400
C8 C 0.497600 0.457300 0.004700
H9 H 0.589700 0.418300 0.022400
C10 C 0.434900 0.510400 0.074990
C11 C 0.298200 0.569400 0.048330
H12 H 0.255700 0.604500 0.095300
C13 C 0.226200 0.575200 -0.048310
H14 H 0.134400 0.615400 -0.066300
C15 C 0.400100 0.284500 0.282300
H16 H 0.313000 0.341900 0.247700
H17 H 0.430800 0.333500 0.347600
C18 C 0.382400 0.087600 0.285170
H19 H 0.468900 0.021500 0.314600
C20 C 0.256850 0.009300 0.305210
H21 H 0.184300 0.094500 0.310000
C22 C 0.276910 -0.015000 0.206140
H23 H 0.305000 -0.135300 0.191100
C24 C 0.183700 0.085600 0.124290
C25 C 0.100900 0.097200 -0.047130
H26 H 0.014500 0.034200 -0.072800
H27 H 0.152500 0.096900 -0.094300
H28 H 0.082200 0.219000 -0.032500
C29 C 0.383300 -0.166600 0.452300
H30 H 0.454300 -0.082600 0.473900
C31 C 0.196790 -0.294800 0.360690
C32 C 0.258900 -0.398900 0.441570
C33 C 0.192900 -0.557500 0.450540
C34 C 0.031100 -0.492800 0.307610
H35 H -0.049500 -0.529700 0.261100
C36 C 0.167100 -0.814400 0.541800
H37 H 0.078500 -0.774600 0.547600
H38 H 0.216600 -0.876300 0.600100
H39 H 0.152900 -0.894400 0.487400
N40 N 0.277450 -0.143800 0.368630
N41 N 0.377400 -0.313100 0.498950
N42 N 0.082490 -0.337400 0.290630
N43 N 0.079100 -0.606300 0.383200
O44 O 0.675050 0.508600 0.203920
O45 O 0.476300 0.633500 0.250200
O46 O 0.504650 0.312300 0.231950
O47 O 0.119180 0.217500 0.132390
O48 O 0.181770 0.008900 0.040690
O49 O 0.246700 -0.662400 0.527600
S50 S 0.531310 0.505840 0.197470
C51 C 0.794500 1.028900 1.225500
H52 H 0.746500 1.103800 1.260100
H53 H 0.885600 1.077400 1.231900
H54 H 0.803100 0.909500 1.252000
C55 C 0.713600 1.022700 1.120120
C56 C 0.578300 0.963200 1.091440
H57 H 0.536700 0.925800 1.138400
C58 C 0.502400 0.957300 0.995300
H59 H 0.410300 0.918300 0.977600
C60 C 0.565100 1.010400 0.925010
C61 C 0.701800 1.069400 0.951670
H62 H 0.744300 1.104500 0.904700
C63 C 0.773800 1.075200 1.048310
H64 H 0.865600 1.115400 1.066300
C65 C 0.599900 0.784500 0.717700
H66 H 0.687000 0.841900 0.752300
H67 H 0.569200 0.833500 0.652400
C68 C 0.617600 0.587600 0.714830
H69 H 0.531100 0.521500 0.685400
C70 C 0.743150 0.509300 0.694790
H71 H 0.815700 0.594500 0.690000
C72 C 0.723090 0.485000 0.793860
H73 H 0.695000 0.364700 0.808900
C74 C 0.816300 0.585600 0.875710
C75 C 0.899100 0.597200 1.047130
H76 H 0.985500 0.534200 1.072800
H77 H 0.847500 0.596900 1.094300
H78 H 0.917800 0.719000 1.032500
C79 C 0.616700 0.333400 0.547700
H80 H 0.545700 0.417400 0.526100
C81 C 0.803210 0.205200 0.639310
C82 C 0.741100 0.101100 0.558430
C83 C 0.807100 -0.057500 0.549460
C84 C 0.968900 0.007200 0.692390
H85 H 1.049500 -0.029700 0.738900
C86 C 0.832900 -0.314400 0.458200
H87 H 0.921500 -0.274600 0.452400
H88 H 0.783400 -0.376300 0.399900
H89 H 0.847100 -0.394400 0.512600
N90 N 0.722550 0.356200 0.631370
N91 N 0.622600 0.186900 0.501050
N92 N 0.917510 0.162600 0.709370
N93 N 0.920900 -0.106300 0.616800
O94 O 0.324950 1.008600 0.796080
O95 O 0.523700 1.133500 0.749800
O96 O 0.495350 0.812300 0.768050
O97 O 0.880820 0.717500 0.867610
O98 O 0.818230 0.508900 0.959310
O99 O 0.753300 -0.162400 0.472400
S100 S 0.468690 1.005840 0.802530

#END
