
#######################################################################
#
#                 Cambridge Crystallographic Data Centre
#                                CCDC 
#
#######################################################################
#
# If this CIF has been generated from an entry in the Cambridge 
# Structural Database, then it will include bibliographic, chemical, 
# crystal, experimental, refinement or atomic coordinate data resulting 
# from the CCDC's data processing and validation procedures.
#
#######################################################################

data_ABENON
_symmetry_cell_setting           monoclinic
_symmetry_space_group_name_H-M   'P 21'
_symmetry_Int_Tables_number      4
_space_group_name_Hall           'P 2yb'
loop_
_symmetry_equiv_pos_site_id
_symmetry_equiv_pos_as_xyz
1 x,y,z
2 -x,1/2+y,-z
_cell_length_a                   9.998(2)
_cell_length_b                   7.4348(15)
_cell_length_c                   14.351(3)
_cell_angle_alpha                90
_cell_angle_beta                 106.47(3)
_cell_angle_gamma                90
_cell_volume                     1022.98
loop_
_atom_site_label
_atom_site_type_symbol
_atom_site_fract_x
_atom_site_fract_y
_atom_site_fract_z
C1 C 0.2055(3) 0.5289(5) -0.2255(2)
H1 H 0.2535 0.6038 -0.2601
H2 H 0.1144 0.5774 -0.2319
H3 H 0.1969 0.4095 -0.2520
C2 C 0.2864(2) 0.5227(4) -0.12012(18)
C3 C 0.4217(3) 0.4632(3) -0.09144(19)
H4 H 0.4633 0.4258 -0.1384
C4 C 0.4976(3) 0.4573(3) 0.0047(2)
H5 H 0.5897 0.4183 0.0224
C5 C 0.4349(2) 0.5104(4) 0.07499(16)
C6 C 0.2982(2) 0.5694(3) 0.04833(18)
H6 H 0.2557 0.6045 0.0953
C7 C 0.2262(2) 0.5752(4) -0.04831(19)
H7 H 0.1344 0.6154 -0.0663
C8 C 0.4001(2) 0.2845(3) 0.28230(15)
H8 H 0.3130 0.3419 0.2477
H9 H 0.4308 0.3335 0.3476
C9 C 0.3824(2) 0.0876(3) 0.28517(14)
H10 H 0.4689 0.0215 0.3146
C10 C 0.25685(19) 0.0093(3) 0.30521(13)
H11 H 0.1843 0.0945 0.3100
C11 C 0.27691(19) -0.0150(3) 0.20614(13)
H12 H 0.3050 -0.1353 0.1911
C12 C 0.1837(2) 0.0856(3) 0.12429(14)
C13 C 0.1009(3) 0.0972(4) -0.04713(16)
H13 H 0.0145 0.0342 -0.0728
H14 H 0.1525 0.0969 -0.0943
H15 H 0.0822 0.2190 -0.0325
C14 C 0.3833(2) -0.1666(4) 0.45230(17)
H16 H 0.4543 -0.0826 0.4739
C15 C 0.19679(19) -0.2948(3) 0.36069(13)
C16 C 0.2589(2) -0.3989(3) 0.44157(15)
C17 C 0.1929(2) -0.5575(3) 0.45054(15)
C18 C 0.0311(2) -0.4928(4) 0.30761(16)
H17 H -0.0495 -0.5297 0.2611
C19 C 0.1671(4) -0.8144(4) 0.5418(2)
H18 H 0.0785 -0.7746 0.5476
H19 H 0.2166 -0.8763 0.6001
H20 H 0.1529 -0.8944 0.4874
N1 N 0.27745(17) -0.1438(3) 0.36863(12)
N2 N 0.3774(2) -0.3131(3) 0.49895(14)
N3 N 0.08249(19) -0.3374(3) 0.29063(12)
N4 N 0.0791(2) -0.6063(3) 0.38320(14)
O1 O 0.67505(16) 0.5086(3) 0.20392(13)
O2 O 0.47630(19) 0.6335(2) 0.25020(13)
O3 O 0.50465(18) 0.3123(2) 0.23195(14)
O4 O 0.11918(16) 0.2175(2) 0.13239(11)
O5 O 0.18177(16) 0.0089(3) 0.04069(10)
O6 O 0.2467(2) -0.6624(3) 0.52760(13)
S1 S 0.53131(5) 0.50584(8) 0.19747(4)
C1 C 0.7945(3) 1.0289(5) 1.2255(2)
H1 H 0.7465 1.1038 1.2601
H2 H 0.8856 1.0774 1.2319
H3 H 0.8031 0.9095 1.2520
C2 C 0.7136(2) 1.0227(4) 1.12012(18)
C3 C 0.5783(3) 0.9632(3) 1.09144(19)
H4 H 0.5367 0.9258 1.1384
C4 C 0.5024(3) 0.9573(3) 0.9953(2)
H5 H 0.4103 0.9183 0.9776
C5 C 0.5651(2) 1.0104(4) 0.92501(16)
C6 C 0.7018(2) 1.0694(3) 0.95167(18)
H6 H 0.7443 1.1045 0.9047
C7 C 0.7738(2) 1.0752(4) 1.04831(19)
H7 H 0.8656 1.1154 1.0663
C8 C 0.5999(2) 0.7845(3) 0.71770(15)
H8 H 0.6870 0.8419 0.7523
H9 H 0.5692 0.8335 0.6524
C9 C 0.6176(2) 0.5876(3) 0.71483(14)
H10 H 0.5311 0.5215 0.6854
C10 C 0.74315(19) 0.5093(3) 0.69479(13)
H11 H 0.8157 0.5945 0.6900
C11 C 0.72309(19) 0.4850(3) 0.79386(13)
H12 H 0.6950 0.3647 0.8089
C12 C 0.8163(2) 0.5856(3) 0.87571(14)
C13 C 0.8991(3) 0.5972(4) 1.04713(16)
H13 H 0.9855 0.5342 1.0728
H14 H 0.8475 0.5969 1.0943
H15 H 0.9178 0.7190 1.0325
C14 C 0.6167(2) 0.3334(4) 0.54770(17)
H16 H 0.5457 0.4174 0.5261
C15 C 0.80321(19) 0.2052(3) 0.63931(13)
C16 C 0.7411(2) 0.1011(3) 0.55843(15)
C17 C 0.8071(2) -0.0575(3) 0.54946(15)
C18 C 0.9689(2) 0.0072(4) 0.69239(16)
H17 H 1.0495 -0.0297 0.7389
C19 C 0.8329(4) -0.3144(4) 0.4582(2)
H18 H 0.9215 -0.2746 0.4524
H19 H 0.7834 -0.3763 0.3999
H20 H 0.8471 -0.3944 0.5126
N1 N 0.72255(17) 0.3562(3) 0.63137(12)
N2 N 0.6226(2) 0.1869(3) 0.50105(14)
N3 N 0.91751(19) 0.1626(3) 0.70937(12)
N4 N 0.9209(2) -0.1063(3) 0.61680(14)
O1 O 0.32495(16) 1.0086(3) 0.79608(13)
O2 O 0.52370(19) 1.1335(2) 0.74980(13)
O3 O 0.49535(18) 0.8123(2) 0.76805(14)
O4 O 0.88082(16) 0.7175(2) 0.86761(11)
O5 O 0.81823(16) 0.5089(3) 0.95931(10)
O6 O 0.7533(2) -0.1624(3) 0.47240(13)
S1 S 0.46869(5) 1.00584(8) 0.80253(4)

#END
