
#######################################################################
#
#                 Cambridge Crystallographic Data Centre
#                                CCDC 
#
#######################################################################
#
# If this CIF has been generated from an entry in the Cambridge 
# Structural Database, then it will include bibliographic, chemical, 
# crystal, experimental, refinement or atomic coordinate data resulting 
# from the CCDC's data processing and validation procedures.
#
#######################################################################

data_ABEWAG
_symmetry_cell_setting           tetragonal
_symmetry_space_group_name_H-M   'P 42/n'
_symmetry_Int_Tables_number      86
_space_group_name_Hall           '-P 4bc'
loop_
_symmetry_equiv_pos_site_id
_symmetry_equiv_pos_as_xyz
1 x,y,z
2 -y,1/2+x,1/2+z
3 1/2+y,-x,1/2+z
4 1/2+x,1/2+y,-z
5 -x,-y,-z
6 y,1/2-x,1/2-z
7 1/2-y,x,1/2-z
8 1/2-x,1/2-y,z
_cell_length_a                   11.3414(7)
_cell_length_b                   11.3414(7)
_cell_length_c                   4.8799(6)
_cell_angle_alpha                90
_cell_angle_beta                 90
_cell_angle_gamma                90
_cell_volume                     627.689
loop_
_atom_site_label
_atom_site_type_symbol
_atom_site_fract_x
_atom_site_fract_y
_atom_site_fract_z
O1 O 0.50024(5) 0.73370(5) 0.23289(10)
C1 C 0.57566(7) 0.72640(7) 0.00254(14)
C2 C 0.42730(10) 0.63302(10) 0.25144(17)
H1 H 0.6238(9) 0.7968(10) -0.0007(18)
H2 H 0.6255(9) 0.6589(10) 0.0123(18)
H3 H 0.4780(11) 0.5605(12) 0.269(2)
H4 H 0.5313(9) 0.7212(9) -0.160(3)
H5 H 0.3775(9) 0.6273(9) 0.088(3)
H6 H 0.3777(9) 0.6435(10) 0.413(3)
O1 O 0.26630(5) 0.00024(5) 0.73289(10)
C1 C 0.27360(7) 0.07566(7) 0.50254(14)
C2 C 0.36698(10) -0.07270(10) 0.75144(17)
H1 H 0.2032(10) 0.1238(9) 0.4993(18)
H2 H 0.3411(10) 0.1255(9) 0.5123(18)
H3 H 0.4395(12) -0.0220(11) 0.769(2)
H4 H 0.2788(9) 0.0313(9) 0.340(3)
H5 H 0.3727(9) -0.1225(9) 0.588(3)
H6 H 0.3565(10) -0.1223(9) 0.913(3)
O1 O 0.23370(5) 0.49976(5) 0.73289(10)
C1 C 0.22640(7) 0.42434(7) 0.50254(14)
C2 C 0.13302(10) 0.57270(10) 0.75144(17)
H1 H 0.2968(10) 0.3762(9) 0.4993(18)
H2 H 0.1589(10) 0.3745(9) 0.5123(18)
H3 H 0.0605(12) 0.5220(11) 0.769(2)
H4 H 0.2212(9) 0.4687(9) 0.340(3)
H5 H 0.1273(9) 0.6225(9) 0.588(3)
H6 H 0.1435(10) 0.6223(9) 0.913(3)
O1 O 0.00024(5) 0.23370(5) 0.76711(10)
C1 C 0.07566(7) 0.22640(7) 0.99746(14)
C2 C -0.07270(10) 0.13302(10) 0.74856(17)
H1 H 0.1238(9) 0.2968(10) 1.0007(18)
H2 H 0.1255(9) 0.1589(10) 0.9877(18)
H3 H -0.0220(11) 0.0605(12) 0.731(2)
H4 H 0.0313(9) 0.2212(9) 1.160(3)
H5 H -0.1225(9) 0.1273(9) 0.912(3)
H6 H -0.1223(9) 0.1435(10) 0.587(3)
O1 O 0.49976(5) 0.26630(5) 0.76711(10)
C1 C 0.42434(7) 0.27360(7) 0.99746(14)
C2 C 0.57270(10) 0.36698(10) 0.74856(17)
H1 H 0.3762(9) 0.2032(10) 1.0007(18)
H2 H 0.3745(9) 0.3411(10) 0.9877(18)
H3 H 0.5220(11) 0.4395(12) 0.731(2)
H4 H 0.4687(9) 0.2788(9) 1.160(3)
H5 H 0.6225(9) 0.3727(9) 0.912(3)
H6 H 0.6223(9) 0.3565(10) 0.587(3)
O1 O 0.73370(5) 0.99976(5) 0.26711(10)
C1 C 0.72640(7) 0.92434(7) 0.49746(14)
C2 C 0.63302(10) 1.07270(10) 0.24856(17)
H1 H 0.7968(10) 0.8762(9) 0.5007(18)
H2 H 0.6589(10) 0.8745(9) 0.4877(18)
H3 H 0.5605(12) 1.0220(11) 0.231(2)
H4 H 0.7212(9) 0.9687(9) 0.660(3)
H5 H 0.6273(9) 1.1225(9) 0.412(3)
H6 H 0.6435(10) 1.1223(9) 0.087(3)
O1 O 0.76630(5) 0.50024(5) 0.26711(10)
C1 C 0.77360(7) 0.57566(7) 0.49746(14)
C2 C 0.86698(10) 0.42730(10) 0.24856(17)
H1 H 0.7032(10) 0.6238(9) 0.5007(18)
H2 H 0.8411(10) 0.6255(9) 0.4877(18)
H3 H 0.9395(12) 0.4780(11) 0.231(2)
H4 H 0.7788(9) 0.5313(9) 0.660(3)
H5 H 0.8727(9) 0.3775(9) 0.412(3)
H6 H 0.8565(10) 0.3777(9) 0.087(3)
O1 O 0.99976(5) 0.76630(5) 0.23289(10)
C1 C 0.92434(7) 0.77360(7) 0.00254(14)
C2 C 1.07270(10) 0.86698(10) 0.25144(17)
H1 H 0.8762(9) 0.7032(10) -0.0007(18)
H2 H 0.8745(9) 0.8411(10) 0.0123(18)
H3 H 1.0220(11) 0.9395(12) 0.269(2)
H4 H 0.9687(9) 0.7788(9) -0.160(3)
H5 H 1.1225(9) 0.8727(9) 0.088(3)
H6 H 1.1223(9) 0.8565(10) 0.413(3)

#END
