
#######################################################################
#
#                 Cambridge Crystallographic Data Centre
#                                CCDC 
#
#######################################################################
#
# If this CIF has been generated from an entry in the Cambridge 
# Structural Database, then it will include bibliographic, chemical, 
# crystal, experimental, refinement or atomic coordinate data resulting 
# from the CCDC's data processing and validation procedures.
#
#######################################################################

data_ABEYIS
_symmetry_cell_setting           triclinic
_symmetry_space_group_name_H-M   'P -1'
_symmetry_Int_Tables_number      2
_space_group_name_Hall           '-P 1'
loop_
_symmetry_equiv_pos_site_id
_symmetry_equiv_pos_as_xyz
1 x,y,z
2 -x,-y,-z
_cell_length_a                   7.4752(10)
_cell_length_b                   7.7741(12)
_cell_length_c                   8.0875(12)
_cell_angle_alpha                77.452(12)
_cell_angle_beta                 69.083(11)
_cell_angle_gamma                68.367(11)
_cell_volume                     406.103
loop_
_atom_site_label
_atom_site_type_symbol
_atom_site_fract_x
_atom_site_fract_y
_atom_site_fract_z
Cu1 Cu 0.0000 0.0000 0.0000
Cl1 Cl 0.09747(15) -0.31897(13) 0.02906(12)
Cl2 Cl -0.25114(17) 0.00375(14) 0.26014(14)
Cl1A Cl -0.09747(15) 0.31897(13) -0.02906(12)
Cl2A Cl 0.25114(17) -0.00375(14) -0.26014(14)
Cu1 Cu 0.0000 0.0000 1.0000
Cl1 Cl 0.09747(15) -0.31897(13) 1.02906(12)
Cl2 Cl -0.25114(17) 0.00375(14) 1.26014(14)
Cl1A Cl -0.09747(15) 0.31897(13) 0.97094(12)
Cl2A Cl 0.25114(17) -0.00375(14) 0.73986(14)
Cu1 Cu 0.0000 1.0000 0.0000
Cl1 Cl 0.09747(15) 0.68103(13) 0.02906(12)
Cl2 Cl -0.25114(17) 1.00375(14) 0.26014(14)
Cl1A Cl -0.09747(15) 1.31897(13) -0.02906(12)
Cl2A Cl 0.25114(17) 0.99625(14) -0.26014(14)
Cu1 Cu 0.0000 1.0000 1.0000
Cl1 Cl 0.09747(15) 0.68103(13) 1.02906(12)
Cl2 Cl -0.25114(17) 1.00375(14) 1.26014(14)
Cl1A Cl -0.09747(15) 1.31897(13) 0.97094(12)
Cl2A Cl 0.25114(17) 0.99625(14) 0.73986(14)
Cu1 Cu 1.0000 0.0000 0.0000
Cl1 Cl 1.09747(15) -0.31897(13) 0.02906(12)
Cl2 Cl 0.74886(17) 0.00375(14) 0.26014(14)
Cl1A Cl 0.90253(15) 0.31897(13) -0.02906(12)
Cl2A Cl 1.25114(17) -0.00375(14) -0.26014(14)
Cu1 Cu 1.0000 0.0000 1.0000
Cl1 Cl 1.09747(15) -0.31897(13) 1.02906(12)
Cl2 Cl 0.74886(17) 0.00375(14) 1.26014(14)
Cl1A Cl 0.90253(15) 0.31897(13) 0.97094(12)
Cl2A Cl 1.25114(17) -0.00375(14) 0.73986(14)
Cu1 Cu 1.0000 1.0000 0.0000
Cl1 Cl 1.09747(15) 0.68103(13) 0.02906(12)
Cl2 Cl 0.74886(17) 1.00375(14) 0.26014(14)
Cl1A Cl 0.90253(15) 1.31897(13) -0.02906(12)
Cl2A Cl 1.25114(17) 0.99625(14) -0.26014(14)
Cu1 Cu 1.0000 1.0000 1.0000
Cl1 Cl 1.09747(15) 0.68103(13) 1.02906(12)
Cl2 Cl 0.74886(17) 1.00375(14) 1.26014(14)
Cl1A Cl 0.90253(15) 1.31897(13) 0.97094(12)
Cl2A Cl 1.25114(17) 0.99625(14) 0.73986(14)
C1 C 0.6649(7) 0.6423(6) 0.5520(6)
H1 H 0.6128 0.7721 0.5628
C2 C 0.5941(7) 0.5200(6) 0.6900(6)
H2 H 0.4921 0.5648 0.7958
C3 C 0.6748(6) 0.3312(6) 0.6712(5)
C4 C 0.8218(6) 0.2684(6) 0.5142(6)
H3 H 0.8771 0.1393 0.4997
C5 C 0.8866(7) 0.3962(7) 0.3793(5)
H4 H 0.9866 0.3556 0.2712
C6 C 0.6068(7) 0.1866(6) 0.8152(6)
N1 N 0.8076(6) 0.5763(5) 0.4026(5)
H5 H 0.8508 0.6559 0.3162
N2 N 0.4342(6) 0.2482(6) 0.9368(5)
H6 H 0.3871 0.1703 1.0230
H7 H 0.3650 0.3675 0.9327
O1 O 0.7141(6) 0.0231(5) 0.8097(5)
C1 C 0.3351(7) 0.3577(6) 0.4480(6)
H1 H 0.3872 0.2279 0.4372
C2 C 0.4059(7) 0.4800(6) 0.3100(6)
H2 H 0.5079 0.4352 0.2042
C3 C 0.3252(6) 0.6688(6) 0.3288(5)
C4 C 0.1782(6) 0.7316(6) 0.4858(6)
H3 H 0.1229 0.8607 0.5003
C5 C 0.1134(7) 0.6038(7) 0.6207(5)
H4 H 0.0134 0.6444 0.7288
C6 C 0.3932(7) 0.8134(6) 0.1848(6)
N1 N 0.1924(6) 0.4237(5) 0.5974(5)
H5 H 0.1492 0.3441 0.6838
N2 N 0.5658(6) 0.7518(6) 0.0632(5)
H6 H 0.6129 0.8297 -0.0230
H7 H 0.6350 0.6325 0.0673
O1 O 0.2859(6) 0.9769(5) 0.1903(5)

#END
