./ABEYIS_from_xyz.cif_generated_by_CrystalShift
_symmetry_cell_setting triclinic
_symmetry_space_group_name_H-M 'P 1'
loop_
_symmetry_equiv_pos_site_id
_symmetry_equiv_pos_as_xyz
1 x,y,z
_cell_length_a 7.475200
_cell_length_b 7.774100
_cell_length_c 8.087500
_cell_angle_alpha 77.452000
_cell_angle_beta 69.083000
_cell_angle_gamma 68.367000
_cell_volume 406.103455
loop_
_atom_site_label
_atom_site_type_symbol
_atom_site_fract_x
_atom_site_fract_y
_atom_site_fract_z
Cu1 Cu 0.000000 0.000000 0.000000
Cl2 Cl 0.097470 -0.318970 0.029060
Cl3 Cl -0.251140 0.003750 0.260140
Cl4 Cl -0.097470 0.318970 -0.029060
Cl5 Cl 0.251140 -0.003750 -0.260140
Cu6 Cu 0.000000 0.000000 1.000000
Cl7 Cl 0.097470 -0.318970 1.029060
Cl8 Cl -0.251140 0.003750 1.260140
Cl9 Cl -0.097470 0.318970 0.970940
Cl10 Cl 0.251140 -0.003750 0.739860
Cu11 Cu 0.000000 1.000000 0.000000
Cl12 Cl 0.097470 0.681030 0.029060
Cl13 Cl -0.251140 1.003750 0.260140
Cl14 Cl -0.097470 1.318970 -0.029060
Cl15 Cl 0.251140 0.996250 -0.260140
Cu16 Cu 0.000000 1.000000 1.000000
Cl17 Cl 0.097470 0.681030 1.029060
Cl18 Cl -0.251140 1.003750 1.260140
Cl19 Cl -0.097470 1.318970 0.970940
Cl20 Cl 0.251140 0.996250 0.739860
Cu21 Cu 1.000000 0.000000 0.000000
Cl22 Cl 1.097470 -0.318970 0.029060
Cl23 Cl 0.748860 0.003750 0.260140
Cl24 Cl 0.902530 0.318970 -0.029060
Cl25 Cl 1.251140 -0.003750 -0.260140
Cu26 Cu 1.000000 0.000000 1.000000
Cl27 Cl 1.097470 -0.318970 1.029060
Cl28 Cl 0.748860 0.003750 1.260140
Cl29 Cl 0.902530 0.318970 0.970940
Cl30 Cl 1.251140 -0.003750 0.739860
Cu31 Cu 1.000000 1.000000 0.000000
Cl32 Cl 1.097470 0.681030 0.029060
Cl33 Cl 0.748860 1.003750 0.260140
Cl34 Cl 0.902530 1.318970 -0.029060
Cl35 Cl 1.251140 0.996250 -0.260140
Cu36 Cu 1.000000 1.000000 1.000000
Cl37 Cl 1.097470 0.681030 1.029060
Cl38 Cl 0.748860 1.003750 1.260140
Cl39 Cl 0.902530 1.318970 0.970940
Cl40 Cl 1.251140 0.996250 0.739860
C41 C 0.664900 0.642300 0.552000
H42 H 0.612800 0.772100 0.562800
C43 C 0.594100 0.520000 0.690000
H44 H 0.492100 0.564800 0.795800
C45 C 0.674800 0.331200 0.671200
C46 C 0.821800 0.268400 0.514200
H47 H 0.877100 0.139300 0.499700
C48 C 0.886600 0.396200 0.379300
H49 H 0.986600 0.355600 0.271200
C50 C 0.606800 0.186600 0.815200
N51 N 0.807600 0.576300 0.402600
H52 H 0.850800 0.655900 0.316200
N53 N 0.434200 0.248200 0.936800
H54 H 0.387100 0.170300 1.023000
H55 H 0.365000 0.367500 0.932700
O56 O 0.714100 0.023100 0.809700
C57 C 0.335100 0.357700 0.448000
H58 H 0.387200 0.227900 0.437200
C59 C 0.405900 0.480000 0.310000
H60 H 0.507900 0.435200 0.204200
C61 C 0.325200 0.668800 0.328800
C62 C 0.178200 0.731600 0.485800
H63 H 0.122900 0.860700 0.500300
C64 C 0.113400 0.603800 0.620700
H65 H 0.013400 0.644400 0.728800
C66 C 0.393200 0.813400 0.184800
N67 N 0.192400 0.423700 0.597400
H68 H 0.149200 0.344100 0.683800
N69 N 0.565800 0.751800 0.063200
H70 H 0.612900 0.829700 -0.023000
H71 H 0.635000 0.632500 0.067300
O72 O 0.285900 0.976900 0.190300

#END
