./ABEYIS01_from_xyz.cif_generated_by_CrystalShift
_symmetry_cell_setting triclinic
_symmetry_space_group_name_H-M 'P 1'
loop_
_symmetry_equiv_pos_site_id
_symmetry_equiv_pos_as_xyz
1 x,y,z
_cell_length_a 3.917700
_cell_length_b 7.770500
_cell_length_c 13.777500
_cell_angle_alpha 94.069800
_cell_angle_beta 97.408100
_cell_angle_gamma 100.337800
_cell_volume 407.260408
loop_
_atom_site_label
_atom_site_type_symbol
_atom_site_fract_x
_atom_site_fract_y
_atom_site_fract_z
Cu1 Cu 0.000000 0.000000 0.000000
Cl2 Cl 0.248200 -0.239200 0.007400
Cl3 Cl -0.095400 -0.057100 -0.168280
Cl4 Cl -0.248200 0.239200 -0.007400
Cl5 Cl 0.095400 0.057100 0.168280
Cu6 Cu 0.000000 0.000000 1.000000
Cl7 Cl 0.248200 -0.239200 1.007400
Cl8 Cl -0.095400 -0.057100 0.831720
Cl9 Cl -0.248200 0.239200 0.992600
Cl10 Cl 0.095400 0.057100 1.168280
Cu11 Cu 0.000000 1.000000 0.000000
Cl12 Cl 0.248200 0.760800 0.007400
Cl13 Cl -0.095400 0.942900 -0.168280
Cl14 Cl -0.248200 1.239200 -0.007400
Cl15 Cl 0.095400 1.057100 0.168280
Cu16 Cu 0.000000 1.000000 1.000000
Cl17 Cl 0.248200 0.760800 1.007400
Cl18 Cl -0.095400 0.942900 0.831720
Cl19 Cl -0.248200 1.239200 0.992600
Cl20 Cl 0.095400 1.057100 1.168280
Cu21 Cu 1.000000 0.000000 0.000000
Cl22 Cl 1.248200 -0.239200 0.007400
Cl23 Cl 0.904600 -0.057100 -0.168280
Cl24 Cl 0.751800 0.239200 -0.007400
Cl25 Cl 1.095400 0.057100 0.168280
Cu26 Cu 1.000000 0.000000 1.000000
Cl27 Cl 1.248200 -0.239200 1.007400
Cl28 Cl 0.904600 -0.057100 0.831720
Cl29 Cl 0.751800 0.239200 0.992600
Cl30 Cl 1.095400 0.057100 1.168280
Cu31 Cu 1.000000 1.000000 0.000000
Cl32 Cl 1.248200 0.760800 0.007400
Cl33 Cl 0.904600 0.942900 -0.168280
Cl34 Cl 0.751800 1.239200 -0.007400
Cl35 Cl 1.095400 1.057100 0.168280
Cu36 Cu 1.000000 1.000000 1.000000
Cl37 Cl 1.248200 0.760800 1.007400
Cl38 Cl 0.904600 0.942900 0.831720
Cl39 Cl 0.751800 1.239200 0.992600
Cl40 Cl 1.095400 1.057100 1.168280
C41 C 0.810000 0.381000 0.304500
C42 C 0.749000 0.517200 0.369000
C43 C 0.663000 0.666000 0.332800
C44 C 0.648000 0.684400 0.234300
C45 C 0.694000 0.541000 0.170800
C46 C 0.585000 0.795800 0.407300
N47 N 0.763000 0.393900 0.211000
O48 O 0.682800 0.790600 0.499100
N49 N 0.480800 0.934000 0.372800
H50 H 0.898890 0.286590 0.328480
H51 H 0.765400 0.506090 0.435690
H52 H 0.620280 0.791000 0.209770
H53 H 0.682840 0.548500 0.103350
H54 H 0.756690 0.301410 0.171990
H55 H 0.479000 1.024080 0.412640
H56 H 0.417310 0.934510 0.310970
C57 C 0.190000 0.619000 0.695500
C58 C 0.251000 0.482800 0.631000
C59 C 0.337000 0.334000 0.667200
C60 C 0.352000 0.315600 0.765700
C61 C 0.306000 0.459000 0.829200
C62 C 0.415000 0.204200 0.592700
N63 N 0.237000 0.606100 0.789000
O64 O 0.317200 0.209400 0.500900
N65 N 0.519200 0.066000 0.627200
H66 H 0.101110 0.713410 0.671520
H67 H 0.234600 0.493910 0.564310
H68 H 0.379720 0.209000 0.790230
H69 H 0.317160 0.451500 0.896650
H70 H 0.243310 0.698590 0.828010
H71 H 0.521000 -0.024080 0.587360
H72 H 0.582690 0.065490 0.689030

#END
