
#######################################################################
#
#                 Cambridge Crystallographic Data Centre
#                                CCDC 
#
#######################################################################
#
# If this CIF has been generated from an entry in the Cambridge 
# Structural Database, then it will include bibliographic, chemical, 
# crystal, experimental, refinement or atomic coordinate data resulting 
# from the CCDC's data processing and validation procedures.
#
#######################################################################

data_ABIBIY
_symmetry_cell_setting           orthorhombic
_symmetry_space_group_name_H-M   'P 21 21 21'
_symmetry_Int_Tables_number      19
_space_group_name_Hall           'P 2ac 2ab'
loop_
_symmetry_equiv_pos_site_id
_symmetry_equiv_pos_as_xyz
1 x,y,z
2 1/2-x,-y,1/2+z
3 -x,1/2+y,1/2-z
4 1/2+x,1/2-y,-z
_cell_length_a                   9.928(3)
_cell_length_b                   10.295(3)
_cell_length_c                   17.911(5)
_cell_angle_alpha                90
_cell_angle_beta                 90
_cell_angle_gamma                90
_cell_volume                     1830.66
loop_
_atom_site_label
_atom_site_type_symbol
_atom_site_fract_x
_atom_site_fract_y
_atom_site_fract_z
O1 O 1.06208(18) 0.5156(2) 1.06230(11)
N1 N 0.8425(2) 0.4460(2) 1.05871(12)
N2 N 0.8561(2) 0.3006(2) 0.73616(12)
C1 C 0.8115(3) 0.3267(3) 1.25676(16)
H1 H 0.7756 0.4015 1.2807
C2 C 0.8324(3) 0.2143(3) 1.29759(17)
H2 H 0.8093 0.2120 1.3490
C3 C 0.8866(3) 0.1060(3) 1.26399(17)
H3 H 0.9014 0.0290 1.2921
C4 C 0.9192(3) 0.1101(3) 1.18917(17)
H4 H 0.9565 0.0356 1.1656
C5 C 0.8980(3) 0.2215(3) 1.14859(16)
H5 H 0.9219 0.2235 1.0972
C6 C 0.8423(3) 0.3313(3) 1.18134(15)
C7 C 0.8167(3) 0.4549(3) 1.13773(14)
H6 H 0.7216 0.4808 1.1451
H7 H 0.8740 0.5247 1.1587
C8 C 0.9653(3) 0.4720(3) 1.02795(15)
C9 C 0.9552(3) 0.4363(3) 0.94832(14)
C10 C 1.0511(3) 0.4385(3) 0.89251(16)
H8 H 1.1389 0.4709 0.9023
C11 C 1.0183(3) 0.3931(3) 0.82233(16)
H9 H 1.0837 0.3961 0.7837
C12 C 0.8886(3) 0.3422(3) 0.80685(15)
C13 C 0.7926(3) 0.3401(3) 0.86520(15)
H10 H 0.7045 0.3074 0.8566
C14 C 0.8283(3) 0.3860(3) 0.93438(15)
C15 C 0.7456(3) 0.3884(3) 1.00590(14)
H11 H 0.7259 0.2972 1.0215
C16 C 0.9587(3) 0.2917(4) 0.67847(16)
H12 H 1.0071 0.3744 0.6751
H13 H 0.9159 0.2725 0.6304
H14 H 1.0221 0.2221 0.6910
C17 C 0.7389(3) 0.2183(3) 0.72529(18)
H15 H 0.6584 0.2631 0.7437
H16 H 0.7510 0.1369 0.7528
H17 H 0.7282 0.1995 0.6720
C18 C 0.6107(3) 0.5852(3) 0.96904(15)
H18 H 0.6895 0.6202 0.9466
C19 C 0.4908(3) 0.6558(3) 0.96792(16)
H19 H 0.4878 0.7385 0.9445
C20 C 0.3767(3) 0.6057(3) 1.00077(16)
H20 H 0.2950 0.6536 0.9999
C21 C 0.3813(3) 0.4859(3) 1.03498(16)
H21 H 0.3027 0.4511 1.0576
C22 C 0.4997(3) 0.4166(3) 1.03639(15)
H22 H 0.5021 0.3347 1.0608
C23 C 0.6153(3) 0.4638(3) 1.00293(14)
O1 O 0.43792(18) 0.4844(2) 0.56230(11)
N1 N 0.6575(2) 0.5540(2) 0.55871(12)
N2 N 0.6439(2) 0.6994(2) 0.23616(12)
C1 C 0.6885(3) 0.6733(3) 0.75676(16)
H1 H 0.7244 0.5985 0.7807
C2 C 0.6676(3) 0.7857(3) 0.79759(17)
H2 H 0.6907 0.7880 0.8490
C3 C 0.6134(3) 0.8940(3) 0.76399(17)
H3 H 0.5986 0.9710 0.7921
C4 C 0.5808(3) 0.8899(3) 0.68917(17)
H4 H 0.5435 0.9644 0.6656
C5 C 0.6020(3) 0.7785(3) 0.64859(16)
H5 H 0.5781 0.7765 0.5972
C6 C 0.6577(3) 0.6687(3) 0.68134(15)
C7 C 0.6833(3) 0.5451(3) 0.63773(14)
H6 H 0.7784 0.5192 0.6451
H7 H 0.6260 0.4753 0.6587
C8 C 0.5347(3) 0.5280(3) 0.52795(15)
C9 C 0.5448(3) 0.5637(3) 0.44832(14)
C10 C 0.4489(3) 0.5615(3) 0.39251(16)
H8 H 0.3611 0.5291 0.4023
C11 C 0.4817(3) 0.6069(3) 0.32233(16)
H9 H 0.4163 0.6039 0.2837
C12 C 0.6114(3) 0.6578(3) 0.30685(15)
C13 C 0.7074(3) 0.6599(3) 0.36520(15)
H10 H 0.7955 0.6926 0.3566
C14 C 0.6717(3) 0.6140(3) 0.43438(15)
C15 C 0.7544(3) 0.6116(3) 0.50590(14)
H11 H 0.7741 0.7028 0.5215
C16 C 0.5413(3) 0.7083(4) 0.17847(16)
H12 H 0.4929 0.6256 0.1751
H13 H 0.5841 0.7275 0.1304
H14 H 0.4779 0.7779 0.1910
C17 C 0.7611(3) 0.7817(3) 0.22529(18)
H15 H 0.8416 0.7369 0.2437
H16 H 0.7490 0.8631 0.2528
H17 H 0.7718 0.8005 0.1720
C18 C 0.8893(3) 0.4148(3) 0.46904(15)
H18 H 0.8105 0.3798 0.4466
C19 C 1.0092(3) 0.3442(3) 0.46792(16)
H19 H 1.0122 0.2615 0.4445
C20 C 1.1233(3) 0.3943(3) 0.50077(16)
H20 H 1.2050 0.3464 0.4999
C21 C 1.1187(3) 0.5141(3) 0.53498(16)
H21 H 1.1973 0.5489 0.5576
C22 C 1.0003(3) 0.5834(3) 0.53639(15)
H22 H 0.9979 0.6653 0.5608
C23 C 0.8847(3) 0.5362(3) 0.50293(14)
O1 O -0.06208(18) 1.0156(2) 0.43770(11)
N1 N 0.1575(2) 0.9460(2) 0.44129(12)
N2 N 0.1439(2) 0.8006(2) 0.76384(12)
C1 C 0.1885(3) 0.8267(3) 0.24324(16)
H1 H 0.2244 0.9015 0.2193
C2 C 0.1676(3) 0.7143(3) 0.20241(17)
H2 H 0.1907 0.7120 0.1510
C3 C 0.1134(3) 0.6060(3) 0.23601(17)
H3 H 0.0986 0.5290 0.2079
C4 C 0.0808(3) 0.6101(3) 0.31083(17)
H4 H 0.0435 0.5356 0.3344
C5 C 0.1020(3) 0.7215(3) 0.35141(16)
H5 H 0.0781 0.7235 0.4028
C6 C 0.1577(3) 0.8313(3) 0.31866(15)
C7 C 0.1833(3) 0.9549(3) 0.36227(14)
H6 H 0.2784 0.9808 0.3549
H7 H 0.1260 1.0247 0.3413
C8 C 0.0347(3) 0.9720(3) 0.47205(15)
C9 C 0.0448(3) 0.9363(3) 0.55168(14)
C10 C -0.0511(3) 0.9385(3) 0.60749(16)
H8 H -0.1389 0.9709 0.5977
C11 C -0.0183(3) 0.8931(3) 0.67767(16)
H9 H -0.0837 0.8961 0.7163
C12 C 0.1114(3) 0.8422(3) 0.69315(15)
C13 C 0.2074(3) 0.8401(3) 0.63480(15)
H10 H 0.2955 0.8074 0.6434
C14 C 0.1717(3) 0.8860(3) 0.56562(15)
C15 C 0.2544(3) 0.8884(3) 0.49410(14)
H11 H 0.2741 0.7972 0.4785
C16 C 0.0413(3) 0.7917(4) 0.82153(16)
H12 H -0.0071 0.8744 0.8249
H13 H 0.0841 0.7725 0.8696
H14 H -0.0221 0.7221 0.8090
C17 C 0.2611(3) 0.7183(3) 0.77471(18)
H15 H 0.3416 0.7631 0.7563
H16 H 0.2490 0.6369 0.7472
H17 H 0.2718 0.6995 0.8280
C18 C 0.3893(3) 1.0852(3) 0.53096(15)
H18 H 0.3105 1.1202 0.5534
C19 C 0.5092(3) 1.1558(3) 0.53208(16)
H19 H 0.5122 1.2385 0.5555
C20 C 0.6233(3) 1.1057(3) 0.49923(16)
H20 H 0.7050 1.1536 0.5001
C21 C 0.6187(3) 0.9859(3) 0.46502(16)
H21 H 0.6973 0.9511 0.4424
C22 C 0.5003(3) 0.9166(3) 0.46361(15)
H22 H 0.4979 0.8347 0.4392
C23 C 0.3847(3) 0.9638(3) 0.49707(14)
O1 O 0.56208(18) -0.0156(2) -0.06230(11)
N1 N 0.3425(2) 0.0540(2) -0.05871(12)
N2 N 0.3561(2) 0.1994(2) 0.26384(12)
C1 C 0.3115(3) 0.1733(3) -0.25676(16)
H1 H 0.2756 0.0985 -0.2807
C2 C 0.3324(3) 0.2857(3) -0.29759(17)
H2 H 0.3093 0.2880 -0.3490
C3 C 0.3866(3) 0.3940(3) -0.26399(17)
H3 H 0.4014 0.4710 -0.2921
C4 C 0.4192(3) 0.3899(3) -0.18917(17)
H4 H 0.4565 0.4644 -0.1656
C5 C 0.3980(3) 0.2785(3) -0.14859(16)
H5 H 0.4219 0.2765 -0.0972
C6 C 0.3423(3) 0.1687(3) -0.18134(15)
C7 C 0.3167(3) 0.0451(3) -0.13773(14)
H6 H 0.2216 0.0192 -0.1451
H7 H 0.3740 -0.0247 -0.1587
C8 C 0.4653(3) 0.0280(3) -0.02795(15)
C9 C 0.4552(3) 0.0637(3) 0.05168(14)
C10 C 0.5511(3) 0.0615(3) 0.10749(16)
H8 H 0.6389 0.0291 0.0977
C11 C 0.5183(3) 0.1069(3) 0.17767(16)
H9 H 0.5837 0.1039 0.2163
C12 C 0.3886(3) 0.1578(3) 0.19315(15)
C13 C 0.2926(3) 0.1599(3) 0.13480(15)
H10 H 0.2045 0.1926 0.1434
C14 C 0.3283(3) 0.1140(3) 0.06562(15)
C15 C 0.2456(3) 0.1116(3) -0.00590(14)
H11 H 0.2259 0.2028 -0.0215
C16 C 0.4587(3) 0.2083(4) 0.32153(16)
H12 H 0.5071 0.1256 0.3249
H13 H 0.4159 0.2275 0.3696
H14 H 0.5221 0.2779 0.3090
C17 C 0.2389(3) 0.2817(3) 0.27471(18)
H15 H 0.1584 0.2369 0.2563
H16 H 0.2510 0.3631 0.2472
H17 H 0.2282 0.3005 0.3280
C18 C 0.1107(3) -0.0852(3) 0.03096(15)
H18 H 0.1895 -0.1202 0.0534
C19 C -0.0092(3) -0.1558(3) 0.03208(16)
H19 H -0.0122 -0.2385 0.0555
C20 C -0.1233(3) -0.1057(3) -0.00077(16)
H20 H -0.2050 -0.1536 0.0001
C21 C -0.1187(3) 0.0141(3) -0.03498(16)
H21 H -0.1973 0.0489 -0.0576
C22 C -0.0003(3) 0.0834(3) -0.03639(15)
H22 H 0.0021 0.1653 -0.0608
C23 C 0.1153(3) 0.0362(3) -0.00293(14)

#END
