
#######################################################################
#
#                 Cambridge Crystallographic Data Centre
#                                CCDC 
#
#######################################################################
#
# If this CIF has been generated from an entry in the Cambridge 
# Structural Database, then it will include bibliographic, chemical, 
# crystal, experimental, refinement or atomic coordinate data resulting 
# from the CCDC's data processing and validation procedures.
#
#######################################################################

data_ABIBIX
_symmetry_cell_setting           monoclinic
_symmetry_space_group_name_H-M   'A 2'
_symmetry_Int_Tables_number      5
_space_group_name_Hall           'A 2y'
loop_
_symmetry_equiv_pos_site_id
_symmetry_equiv_pos_as_xyz
1 x,y,z
2 -x,y,-z
3 x,1/2+y,1/2+z
4 -x,1/2+y,1/2-z
_cell_length_a                   14.388(8)
_cell_length_b                   5.801(3)
_cell_length_c                   19.958(12)
_cell_angle_alpha                90
_cell_angle_beta                 110.67(2)
_cell_angle_gamma                90
_cell_volume                     1558.56
loop_
_atom_site_label
_atom_site_type_symbol
_atom_site_fract_x
_atom_site_fract_y
_atom_site_fract_z
Sn1 Sn 0.0000 1.3359(5) 0.5000
O1 O 0.0836(4) 1.075(1) 0.4723(3)
O2 O -0.1160(4) 1.219(1) 0.3904(3)
N1 N 0.1136(5) 0.748(1) 0.4174(3)
N2 N 0.0649(5) 0.602(1) 0.3588(3)
C1 C -0.0254(5) 0.687(2) 0.3300(4)
C2 C -0.0404(5) 0.891(1) 0.3666(3)
C3 C 0.0538(5) 0.923(1) 0.4235(3)
C4 C -0.1221(5) 1.036(2) 0.3564(4)
C5 C 0.2130(5) 0.692(2) 0.4617(4)
C6 C 0.2700(5) 0.852(4) 0.5117(4)
C7 C 0.3695(6) 0.790(2) 0.5529(6)
C8 C 0.4091(6) 0.582(2) 0.5438(5)
C9 C 0.3505(7) 0.425(2) 0.4949(6)
C10 C 0.2498(6) 0.478(2) 0.4520(5)
C11 C -0.0931(7) 0.575(2) 0.2632(5)
C12 C -0.2244(7) 0.969(2) 0.3037(6)
C13 C -0.2891(5) 1.170(2) 0.2681(4)
C14 C -0.3362(6) 1.320(5) 0.3028(4)
C15 C -0.3972(7) 1.492(2) 0.2700(6)
C16 C -0.4112(8) 1.541(3) 0.1981(7)
C17 C -0.367(1) 1.405(3) 0.1617(5)
C18 C -0.3054(7) 1.220(3) 0.1953(5)
H1 H 0.2429 0.9976 0.5182
H2 H 0.4100 0.8962 0.5879
H3 H 0.4771 0.5457 0.5712
H4 H 0.3779 0.2784 0.4894
H5 H 0.2091 0.3691 0.4179
H6 H -0.1563 0.6520 0.2474
H7 H -0.0645 0.5852 0.2266
H8 H -0.1021 0.4161 0.2728
H9 H -0.2153 0.8735 0.2672
H10 H -0.2580 0.8820 0.3293
H11 H -0.3239 1.2942 0.3527
H12 H -0.4307 1.5804 0.2953
H13 H -0.4519 1.6689 0.1745
H14 H -0.3779 1.4380 0.1123
H15 H -0.2746 1.1273 0.1691
O1A O -0.0836(4) 1.075(1) 0.5277(3)
C3A C -0.0538(5) 0.923(1) 0.5765(3)
N1A N -0.1136(5) 0.748(1) 0.5826(3)
N2A N -0.0649(5) 0.602(1) 0.6412(3)
C1A C 0.0254(5) 0.687(2) 0.6700(4)
C2A C 0.0404(5) 0.891(1) 0.6334(3)
C4A C 0.1221(5) 1.036(2) 0.6436(4)
O2A O 0.1160(4) 1.219(1) 0.6096(3)
C12A C 0.2244(7) 0.969(2) 0.6963(6)
C13A C 0.2891(5) 1.170(2) 0.7319(4)
C14A C 0.3362(6) 1.320(5) 0.6972(4)
C15A C 0.3972(7) 1.492(2) 0.7300(6)
C16A C 0.4112(8) 1.541(3) 0.8019(7)
C17A C 0.367(1) 1.405(3) 0.8383(5)
C18A C 0.3054(7) 1.220(3) 0.8047(5)
H15A H 0.2746 1.1273 0.8309
H14A H 0.3779 1.4380 0.8877
H13A H 0.4519 1.6689 0.8255
H12A H 0.4307 1.5804 0.7047
H11A H 0.3239 1.2942 0.6473
H9A H 0.2153 0.8735 0.7328
H10A H 0.2580 0.8820 0.6707
C11A C 0.0931(7) 0.575(2) 0.7368(5)
H6A H 0.1563 0.6520 0.7526
H7A H 0.0645 0.5852 0.7734
H8A H 0.1021 0.4161 0.7272
C5A C -0.2130(5) 0.692(2) 0.5383(4)
C6A C -0.2700(5) 0.852(4) 0.4883(4)
C7A C -0.3695(6) 0.790(2) 0.4471(6)
C8A C -0.4091(6) 0.582(2) 0.4562(5)
C9A C -0.3505(7) 0.425(2) 0.5051(6)
C10A C -0.2498(6) 0.478(2) 0.5480(5)
H5A H -0.2091 0.3691 0.5821
H4A H -0.3779 0.2784 0.5106
H3A H -0.4771 0.5457 0.4288
H2A H -0.4100 0.8962 0.4121
H1A H -0.2429 0.9976 0.4818
Sn1 Sn 1.0000 1.3359(5) 0.5000
O1 O 1.0836(4) 1.075(1) 0.4723(3)
O2 O 0.8840(4) 1.219(1) 0.3904(3)
N1 N 1.1136(5) 0.748(1) 0.4174(3)
N2 N 1.0649(5) 0.602(1) 0.3588(3)
C1 C 0.9746(5) 0.687(2) 0.3300(4)
C2 C 0.9596(5) 0.891(1) 0.3666(3)
C3 C 1.0538(5) 0.923(1) 0.4235(3)
C4 C 0.8779(5) 1.036(2) 0.3564(4)
C5 C 1.2130(5) 0.692(2) 0.4617(4)
C6 C 1.2700(5) 0.852(4) 0.5117(4)
C7 C 1.3695(6) 0.790(2) 0.5529(6)
C8 C 1.4091(6) 0.582(2) 0.5438(5)
C9 C 1.3505(7) 0.425(2) 0.4949(6)
C10 C 1.2498(6) 0.478(2) 0.4520(5)
C11 C 0.9069(7) 0.575(2) 0.2632(5)
C12 C 0.7756(7) 0.969(2) 0.3037(6)
C13 C 0.7109(5) 1.170(2) 0.2681(4)
C14 C 0.6638(6) 1.320(5) 0.3028(4)
C15 C 0.6028(7) 1.492(2) 0.2700(6)
C16 C 0.5888(8) 1.541(3) 0.1981(7)
C17 C 0.633(1) 1.405(3) 0.1617(5)
C18 C 0.6946(7) 1.220(3) 0.1953(5)
H1 H 1.2429 0.9976 0.5182
H2 H 1.4100 0.8962 0.5879
H3 H 1.4771 0.5457 0.5712
H4 H 1.3779 0.2784 0.4894
H5 H 1.2091 0.3691 0.4179
H6 H 0.8437 0.6520 0.2474
H7 H 0.9355 0.5852 0.2266
H8 H 0.8979 0.4161 0.2728
H9 H 0.7847 0.8735 0.2672
H10 H 0.7420 0.8820 0.3293
H11 H 0.6761 1.2942 0.3527
H12 H 0.5693 1.5804 0.2953
H13 H 0.5481 1.6689 0.1745
H14 H 0.6221 1.4380 0.1123
H15 H 0.7254 1.1273 0.1691
O1A O 0.9164(4) 1.075(1) 0.5277(3)
C3A C 0.9462(5) 0.923(1) 0.5765(3)
N1A N 0.8864(5) 0.748(1) 0.5826(3)
N2A N 0.9351(5) 0.602(1) 0.6412(3)
C1A C 1.0254(5) 0.687(2) 0.6700(4)
C2A C 1.0404(5) 0.891(1) 0.6334(3)
C4A C 1.1221(5) 1.036(2) 0.6436(4)
O2A O 1.1160(4) 1.219(1) 0.6096(3)
C12A C 1.2244(7) 0.969(2) 0.6963(6)
C13A C 1.2891(5) 1.170(2) 0.7319(4)
C14A C 1.3362(6) 1.320(5) 0.6972(4)
C15A C 1.3972(7) 1.492(2) 0.7300(6)
C16A C 1.4112(8) 1.541(3) 0.8019(7)
C17A C 1.367(1) 1.405(3) 0.8383(5)
C18A C 1.3054(7) 1.220(3) 0.8047(5)
H15A H 1.2746 1.1273 0.8309
H14A H 1.3779 1.4380 0.8877
H13A H 1.4519 1.6689 0.8255
H12A H 1.4307 1.5804 0.7047
H11A H 1.3239 1.2942 0.6473
H9A H 1.2153 0.8735 0.7328
H10A H 1.2580 0.8820 0.6707
C11A C 1.0931(7) 0.575(2) 0.7368(5)
H6A H 1.1563 0.6520 0.7526
H7A H 1.0645 0.5852 0.7734
H8A H 1.1021 0.4161 0.7272
C5A C 0.7870(5) 0.692(2) 0.5383(4)
C6A C 0.7300(5) 0.852(4) 0.4883(4)
C7A C 0.6305(6) 0.790(2) 0.4471(6)
C8A C 0.5909(6) 0.582(2) 0.4562(5)
C9A C 0.6495(7) 0.425(2) 0.5051(6)
C10A C 0.7502(6) 0.478(2) 0.5480(5)
H5A H 0.7909 0.3691 0.5821
H4A H 0.6221 0.2784 0.5106
H3A H 0.5229 0.5457 0.4288
H2A H 0.5900 0.8962 0.4121
H1A H 0.7571 0.9976 0.4818
Sn1 Sn 0.0000 0.8359(5) 0.0000
O1 O 0.0836(4) 0.575(1) -0.0277(3)
O2 O -0.1160(4) 0.719(1) -0.1096(3)
N1 N 0.1136(5) 0.248(1) -0.0826(3)
N2 N 0.0649(5) 0.102(1) -0.1412(3)
C1 C -0.0254(5) 0.187(2) -0.1700(4)
C2 C -0.0404(5) 0.391(1) -0.1334(3)
C3 C 0.0538(5) 0.423(1) -0.0765(3)
C4 C -0.1221(5) 0.536(2) -0.1436(4)
C5 C 0.2130(5) 0.192(2) -0.0383(4)
C6 C 0.2700(5) 0.352(4) 0.0117(4)
C7 C 0.3695(6) 0.290(2) 0.0529(6)
C8 C 0.4091(6) 0.082(2) 0.0438(5)
C9 C 0.3505(7) -0.075(2) -0.0051(6)
C10 C 0.2498(6) -0.022(2) -0.0480(5)
C11 C -0.0931(7) 0.075(2) -0.2368(5)
C12 C -0.2244(7) 0.469(2) -0.1963(6)
C13 C -0.2891(5) 0.670(2) -0.2319(4)
C14 C -0.3362(6) 0.820(5) -0.1972(4)
C15 C -0.3972(7) 0.992(2) -0.2300(6)
C16 C -0.4112(8) 1.041(3) -0.3019(7)
C17 C -0.367(1) 0.905(3) -0.3383(5)
C18 C -0.3054(7) 0.720(3) -0.3047(5)
H1 H 0.2429 0.4976 0.0182
H2 H 0.4100 0.3962 0.0879
H3 H 0.4771 0.0457 0.0712
H4 H 0.3779 -0.2216 -0.0106
H5 H 0.2091 -0.1309 -0.0821
H6 H -0.1563 0.1520 -0.2526
H7 H -0.0645 0.0852 -0.2734
H8 H -0.1021 -0.0839 -0.2272
H9 H -0.2153 0.3735 -0.2328
H10 H -0.2580 0.3820 -0.1707
H11 H -0.3239 0.7942 -0.1473
H12 H -0.4307 1.0804 -0.2047
H13 H -0.4519 1.1689 -0.3255
H14 H -0.3779 0.9380 -0.3877
H15 H -0.2746 0.6273 -0.3309
O1A O -0.0836(4) 0.575(1) 0.0277(3)
C3A C -0.0538(5) 0.423(1) 0.0765(3)
N1A N -0.1136(5) 0.248(1) 0.0826(3)
N2A N -0.0649(5) 0.102(1) 0.1412(3)
C1A C 0.0254(5) 0.187(2) 0.1700(4)
C2A C 0.0404(5) 0.391(1) 0.1334(3)
C4A C 0.1221(5) 0.536(2) 0.1436(4)
O2A O 0.1160(4) 0.719(1) 0.1096(3)
C12A C 0.2244(7) 0.469(2) 0.1963(6)
C13A C 0.2891(5) 0.670(2) 0.2319(4)
C14A C 0.3362(6) 0.820(5) 0.1972(4)
C15A C 0.3972(7) 0.992(2) 0.2300(6)
C16A C 0.4112(8) 1.041(3) 0.3019(7)
C17A C 0.367(1) 0.905(3) 0.3383(5)
C18A C 0.3054(7) 0.720(3) 0.3047(5)
H15A H 0.2746 0.6273 0.3309
H14A H 0.3779 0.9380 0.3877
H13A H 0.4519 1.1689 0.3255
H12A H 0.4307 1.0804 0.2047
H11A H 0.3239 0.7942 0.1473
H9A H 0.2153 0.3735 0.2328
H10A H 0.2580 0.3820 0.1707
C11A C 0.0931(7) 0.075(2) 0.2368(5)
H6A H 0.1563 0.1520 0.2526
H7A H 0.0645 0.0852 0.2734
H8A H 0.1021 -0.0839 0.2272
C5A C -0.2130(5) 0.192(2) 0.0383(4)
C6A C -0.2700(5) 0.352(4) -0.0117(4)
C7A C -0.3695(6) 0.290(2) -0.0529(6)
C8A C -0.4091(6) 0.082(2) -0.0438(5)
C9A C -0.3505(7) -0.075(2) 0.0051(6)
C10A C -0.2498(6) -0.022(2) 0.0480(5)
H5A H -0.2091 -0.1309 0.0821
H4A H -0.3779 -0.2216 0.0106
H3A H -0.4771 0.0457 -0.0712
H2A H -0.4100 0.3962 -0.0879
H1A H -0.2429 0.4976 -0.0182
Sn1 Sn 0.0000 0.8359(5) 1.0000
O1 O 0.0836(4) 0.575(1) 0.9723(3)
O2 O -0.1160(4) 0.719(1) 0.8904(3)
N1 N 0.1136(5) 0.248(1) 0.9174(3)
N2 N 0.0649(5) 0.102(1) 0.8588(3)
C1 C -0.0254(5) 0.187(2) 0.8300(4)
C2 C -0.0404(5) 0.391(1) 0.8666(3)
C3 C 0.0538(5) 0.423(1) 0.9235(3)
C4 C -0.1221(5) 0.536(2) 0.8564(4)
C5 C 0.2130(5) 0.192(2) 0.9617(4)
C6 C 0.2700(5) 0.352(4) 1.0117(4)
C7 C 0.3695(6) 0.290(2) 1.0529(6)
C8 C 0.4091(6) 0.082(2) 1.0438(5)
C9 C 0.3505(7) -0.075(2) 0.9949(6)
C10 C 0.2498(6) -0.022(2) 0.9520(5)
C11 C -0.0931(7) 0.075(2) 0.7632(5)
C12 C -0.2244(7) 0.469(2) 0.8037(6)
C13 C -0.2891(5) 0.670(2) 0.7681(4)
C14 C -0.3362(6) 0.820(5) 0.8028(4)
C15 C -0.3972(7) 0.992(2) 0.7700(6)
C16 C -0.4112(8) 1.041(3) 0.6981(7)
C17 C -0.367(1) 0.905(3) 0.6617(5)
C18 C -0.3054(7) 0.720(3) 0.6953(5)
H1 H 0.2429 0.4976 1.0182
H2 H 0.4100 0.3962 1.0879
H3 H 0.4771 0.0457 1.0712
H4 H 0.3779 -0.2216 0.9894
H5 H 0.2091 -0.1309 0.9179
H6 H -0.1563 0.1520 0.7474
H7 H -0.0645 0.0852 0.7266
H8 H -0.1021 -0.0839 0.7728
H9 H -0.2153 0.3735 0.7672
H10 H -0.2580 0.3820 0.8293
H11 H -0.3239 0.7942 0.8527
H12 H -0.4307 1.0804 0.7953
H13 H -0.4519 1.1689 0.6745
H14 H -0.3779 0.9380 0.6123
H15 H -0.2746 0.6273 0.6691
O1A O -0.0836(4) 0.575(1) 1.0277(3)
C3A C -0.0538(5) 0.423(1) 1.0765(3)
N1A N -0.1136(5) 0.248(1) 1.0826(3)
N2A N -0.0649(5) 0.102(1) 1.1412(3)
C1A C 0.0254(5) 0.187(2) 1.1700(4)
C2A C 0.0404(5) 0.391(1) 1.1334(3)
C4A C 0.1221(5) 0.536(2) 1.1436(4)
O2A O 0.1160(4) 0.719(1) 1.1096(3)
C12A C 0.2244(7) 0.469(2) 1.1963(6)
C13A C 0.2891(5) 0.670(2) 1.2319(4)
C14A C 0.3362(6) 0.820(5) 1.1972(4)
C15A C 0.3972(7) 0.992(2) 1.2300(6)
C16A C 0.4112(8) 1.041(3) 1.3019(7)
C17A C 0.367(1) 0.905(3) 1.3383(5)
C18A C 0.3054(7) 0.720(3) 1.3047(5)
H15A H 0.2746 0.6273 1.3309
H14A H 0.3779 0.9380 1.3877
H13A H 0.4519 1.1689 1.3255
H12A H 0.4307 1.0804 1.2047
H11A H 0.3239 0.7942 1.1473
H9A H 0.2153 0.3735 1.2328
H10A H 0.2580 0.3820 1.1707
C11A C 0.0931(7) 0.075(2) 1.2368(5)
H6A H 0.1563 0.1520 1.2526
H7A H 0.0645 0.0852 1.2734
H8A H 0.1021 -0.0839 1.2272
C5A C -0.2130(5) 0.192(2) 1.0383(4)
C6A C -0.2700(5) 0.352(4) 0.9883(4)
C7A C -0.3695(6) 0.290(2) 0.9471(6)
C8A C -0.4091(6) 0.082(2) 0.9562(5)
C9A C -0.3505(7) -0.075(2) 1.0051(6)
C10A C -0.2498(6) -0.022(2) 1.0480(5)
H5A H -0.2091 -0.1309 1.0821
H4A H -0.3779 -0.2216 1.0106
H3A H -0.4771 0.0457 0.9288
H2A H -0.4100 0.3962 0.9121
H1A H -0.2429 0.4976 0.9818
Sn1 Sn 1.0000 0.8359(5) 0.0000
O1 O 1.0836(4) 0.575(1) -0.0277(3)
O2 O 0.8840(4) 0.719(1) -0.1096(3)
N1 N 1.1136(5) 0.248(1) -0.0826(3)
N2 N 1.0649(5) 0.102(1) -0.1412(3)
C1 C 0.9746(5) 0.187(2) -0.1700(4)
C2 C 0.9596(5) 0.391(1) -0.1334(3)
C3 C 1.0538(5) 0.423(1) -0.0765(3)
C4 C 0.8779(5) 0.536(2) -0.1436(4)
C5 C 1.2130(5) 0.192(2) -0.0383(4)
C6 C 1.2700(5) 0.352(4) 0.0117(4)
C7 C 1.3695(6) 0.290(2) 0.0529(6)
C8 C 1.4091(6) 0.082(2) 0.0438(5)
C9 C 1.3505(7) -0.075(2) -0.0051(6)
C10 C 1.2498(6) -0.022(2) -0.0480(5)
C11 C 0.9069(7) 0.075(2) -0.2368(5)
C12 C 0.7756(7) 0.469(2) -0.1963(6)
C13 C 0.7109(5) 0.670(2) -0.2319(4)
C14 C 0.6638(6) 0.820(5) -0.1972(4)
C15 C 0.6028(7) 0.992(2) -0.2300(6)
C16 C 0.5888(8) 1.041(3) -0.3019(7)
C17 C 0.633(1) 0.905(3) -0.3383(5)
C18 C 0.6946(7) 0.720(3) -0.3047(5)
H1 H 1.2429 0.4976 0.0182
H2 H 1.4100 0.3962 0.0879
H3 H 1.4771 0.0457 0.0712
H4 H 1.3779 -0.2216 -0.0106
H5 H 1.2091 -0.1309 -0.0821
H6 H 0.8437 0.1520 -0.2526
H7 H 0.9355 0.0852 -0.2734
H8 H 0.8979 -0.0839 -0.2272
H9 H 0.7847 0.3735 -0.2328
H10 H 0.7420 0.3820 -0.1707
H11 H 0.6761 0.7942 -0.1473
H12 H 0.5693 1.0804 -0.2047
H13 H 0.5481 1.1689 -0.3255
H14 H 0.6221 0.9380 -0.3877
H15 H 0.7254 0.6273 -0.3309
O1A O 0.9164(4) 0.575(1) 0.0277(3)
C3A C 0.9462(5) 0.423(1) 0.0765(3)
N1A N 0.8864(5) 0.248(1) 0.0826(3)
N2A N 0.9351(5) 0.102(1) 0.1412(3)
C1A C 1.0254(5) 0.187(2) 0.1700(4)
C2A C 1.0404(5) 0.391(1) 0.1334(3)
C4A C 1.1221(5) 0.536(2) 0.1436(4)
O2A O 1.1160(4) 0.719(1) 0.1096(3)
C12A C 1.2244(7) 0.469(2) 0.1963(6)
C13A C 1.2891(5) 0.670(2) 0.2319(4)
C14A C 1.3362(6) 0.820(5) 0.1972(4)
C15A C 1.3972(7) 0.992(2) 0.2300(6)
C16A C 1.4112(8) 1.041(3) 0.3019(7)
C17A C 1.367(1) 0.905(3) 0.3383(5)
C18A C 1.3054(7) 0.720(3) 0.3047(5)
H15A H 1.2746 0.6273 0.3309
H14A H 1.3779 0.9380 0.3877
H13A H 1.4519 1.1689 0.3255
H12A H 1.4307 1.0804 0.2047
H11A H 1.3239 0.7942 0.1473
H9A H 1.2153 0.3735 0.2328
H10A H 1.2580 0.3820 0.1707
C11A C 1.0931(7) 0.075(2) 0.2368(5)
H6A H 1.1563 0.1520 0.2526
H7A H 1.0645 0.0852 0.2734
H8A H 1.1021 -0.0839 0.2272
C5A C 0.7870(5) 0.192(2) 0.0383(4)
C6A C 0.7300(5) 0.352(4) -0.0117(4)
C7A C 0.6305(6) 0.290(2) -0.0529(6)
C8A C 0.5909(6) 0.082(2) -0.0438(5)
C9A C 0.6495(7) -0.075(2) 0.0051(6)
C10A C 0.7502(6) -0.022(2) 0.0480(5)
H5A H 0.7909 -0.1309 0.0821
H4A H 0.6221 -0.2216 0.0106
H3A H 0.5229 0.0457 -0.0712
H2A H 0.5900 0.3962 -0.0879
H1A H 0.7571 0.4976 -0.0182
Sn1 Sn 1.0000 0.8359(5) 1.0000
O1 O 1.0836(4) 0.575(1) 0.9723(3)
O2 O 0.8840(4) 0.719(1) 0.8904(3)
N1 N 1.1136(5) 0.248(1) 0.9174(3)
N2 N 1.0649(5) 0.102(1) 0.8588(3)
C1 C 0.9746(5) 0.187(2) 0.8300(4)
C2 C 0.9596(5) 0.391(1) 0.8666(3)
C3 C 1.0538(5) 0.423(1) 0.9235(3)
C4 C 0.8779(5) 0.536(2) 0.8564(4)
C5 C 1.2130(5) 0.192(2) 0.9617(4)
C6 C 1.2700(5) 0.352(4) 1.0117(4)
C7 C 1.3695(6) 0.290(2) 1.0529(6)
C8 C 1.4091(6) 0.082(2) 1.0438(5)
C9 C 1.3505(7) -0.075(2) 0.9949(6)
C10 C 1.2498(6) -0.022(2) 0.9520(5)
C11 C 0.9069(7) 0.075(2) 0.7632(5)
C12 C 0.7756(7) 0.469(2) 0.8037(6)
C13 C 0.7109(5) 0.670(2) 0.7681(4)
C14 C 0.6638(6) 0.820(5) 0.8028(4)
C15 C 0.6028(7) 0.992(2) 0.7700(6)
C16 C 0.5888(8) 1.041(3) 0.6981(7)
C17 C 0.633(1) 0.905(3) 0.6617(5)
C18 C 0.6946(7) 0.720(3) 0.6953(5)
H1 H 1.2429 0.4976 1.0182
H2 H 1.4100 0.3962 1.0879
H3 H 1.4771 0.0457 1.0712
H4 H 1.3779 -0.2216 0.9894
H5 H 1.2091 -0.1309 0.9179
H6 H 0.8437 0.1520 0.7474
H7 H 0.9355 0.0852 0.7266
H8 H 0.8979 -0.0839 0.7728
H9 H 0.7847 0.3735 0.7672
H10 H 0.7420 0.3820 0.8293
H11 H 0.6761 0.7942 0.8527
H12 H 0.5693 1.0804 0.7953
H13 H 0.5481 1.1689 0.6745
H14 H 0.6221 0.9380 0.6123
H15 H 0.7254 0.6273 0.6691
O1A O 0.9164(4) 0.575(1) 1.0277(3)
C3A C 0.9462(5) 0.423(1) 1.0765(3)
N1A N 0.8864(5) 0.248(1) 1.0826(3)
N2A N 0.9351(5) 0.102(1) 1.1412(3)
C1A C 1.0254(5) 0.187(2) 1.1700(4)
C2A C 1.0404(5) 0.391(1) 1.1334(3)
C4A C 1.1221(5) 0.536(2) 1.1436(4)
O2A O 1.1160(4) 0.719(1) 1.1096(3)
C12A C 1.2244(7) 0.469(2) 1.1963(6)
C13A C 1.2891(5) 0.670(2) 1.2319(4)
C14A C 1.3362(6) 0.820(5) 1.1972(4)
C15A C 1.3972(7) 0.992(2) 1.2300(6)
C16A C 1.4112(8) 1.041(3) 1.3019(7)
C17A C 1.367(1) 0.905(3) 1.3383(5)
C18A C 1.3054(7) 0.720(3) 1.3047(5)
H15A H 1.2746 0.6273 1.3309
H14A H 1.3779 0.9380 1.3877
H13A H 1.4519 1.1689 1.3255
H12A H 1.4307 1.0804 1.2047
H11A H 1.3239 0.7942 1.1473
H9A H 1.2153 0.3735 1.2328
H10A H 1.2580 0.3820 1.1707
C11A C 1.0931(7) 0.075(2) 1.2368(5)
H6A H 1.1563 0.1520 1.2526
H7A H 1.0645 0.0852 1.2734
H8A H 1.1021 -0.0839 1.2272
C5A C 0.7870(5) 0.192(2) 1.0383(4)
C6A C 0.7300(5) 0.352(4) 0.9883(4)
C7A C 0.6305(6) 0.290(2) 0.9471(6)
C8A C 0.5909(6) 0.082(2) 0.9562(5)
C9A C 0.6495(7) -0.075(2) 1.0051(6)
C10A C 0.7502(6) -0.022(2) 1.0480(5)
H5A H 0.7909 -0.1309 1.0821
H4A H 0.6221 -0.2216 1.0106
H3A H 0.5229 0.0457 0.9288
H2A H 0.5900 0.3962 0.9121
H1A H 0.7571 0.4976 0.9818

#END
