
#######################################################################
#
#                 Cambridge Crystallographic Data Centre
#                                CCDC 
#
#######################################################################
#
# If this CIF has been generated from an entry in the Cambridge 
# Structural Database, then it will include bibliographic, chemical, 
# crystal, experimental, refinement or atomic coordinate data resulting 
# from the CCDC's data processing and validation procedures.
#
#######################################################################

data_ABICOF
_symmetry_cell_setting           monoclinic
_symmetry_space_group_name_H-M   'P 21/n'
_symmetry_Int_Tables_number      14
_space_group_name_Hall           '-P 2yn'
loop_
_symmetry_equiv_pos_site_id
_symmetry_equiv_pos_as_xyz
1 x,y,z
2 1/2-x,1/2+y,1/2-z
3 -x,-y,-z
4 1/2+x,1/2-y,1/2+z
_cell_length_a                   10.841(2)
_cell_length_b                   7.1145(14)
_cell_length_c                   15.009(3)
_cell_angle_alpha                90
_cell_angle_beta                 106.96(3)
_cell_angle_gamma                90
_cell_volume                     1107.27
loop_
_atom_site_label
_atom_site_type_symbol
_atom_site_fract_x
_atom_site_fract_y
_atom_site_fract_z
Br1 Br 0.82200(6) 0.19070(9) 1.06202(4)
O1 O 0.4475(3) 0.1444(5) 0.8423(3)
H1 H 0.3775 0.1177 0.8055
O2 O 0.2745(3) 0.4490(5) 0.7621(3)
C1 C 0.8382(5) 0.2851(7) 0.9465(4)
C2 C 0.9589(5) 0.2678(9) 0.9330(5)
H2 H 1.0261 0.2107 0.9780
C3 C 0.9782(6) 0.3356(9) 0.8527(5)
H3 H 1.0584 0.3232 0.8426
C4 C 0.8779(6) 0.4229(9) 0.7865(5)
H4 H 0.8910 0.4706 0.7323
C5 C 0.7579(5) 0.4387(8) 0.8016(4)
H5 H 0.6910 0.4973 0.7570
C6 C 0.7354(4) 0.3681(7) 0.8830(3)
C7 C 0.6037(4) 0.3950(7) 0.8967(3)
H6 H 0.6037 0.3326 0.9549
C8 C 0.4880(4) 0.3209(6) 0.8190(4)
H7 H 0.5135 0.3079 0.7618
C9 C 0.3872(4) 0.4733(7) 0.8048(3)
C10 C 0.4495(5) 0.6401(7) 0.8520(4)
H8 H 0.4115 0.7584 0.8469
C11 C 0.5690(4) 0.6010(7) 0.9036(3)
C12 C 0.6623(5) 0.7351(9) 0.9631(5)
H9 H 0.6231 0.8569 0.9596
H10 H 0.7374 0.7431 0.9417
H11 H 0.6868 0.6919 1.0265
Br1 Br 0.67800(6) 0.69070(9) 0.43798(4)
O1 O 1.0525(3) 0.6444(5) 0.6577(3)
H1 H 1.1225 0.6177 0.6945
O2 O 1.2255(3) 0.9490(5) 0.7379(3)
C1 C 0.6618(5) 0.7851(7) 0.5535(4)
C2 C 0.5411(5) 0.7678(9) 0.5670(5)
H2 H 0.4739 0.7107 0.5220
C3 C 0.5218(6) 0.8356(9) 0.6473(5)
H3 H 0.4416 0.8232 0.6574
C4 C 0.6221(6) 0.9229(9) 0.7135(5)
H4 H 0.6090 0.9706 0.7677
C5 C 0.7421(5) 0.9387(8) 0.6984(4)
H5 H 0.8090 0.9973 0.7430
C6 C 0.7646(4) 0.8681(7) 0.6170(3)
C7 C 0.8963(4) 0.8950(7) 0.6033(3)
H6 H 0.8963 0.8326 0.5451
C8 C 1.0120(4) 0.8209(6) 0.6810(4)
H7 H 0.9865 0.8079 0.7382
C9 C 1.1128(4) 0.9733(7) 0.6952(3)
C10 C 1.0505(5) 1.1401(7) 0.6480(4)
H8 H 1.0885 1.2584 0.6531
C11 C 0.9310(4) 1.1010(7) 0.5964(3)
C12 C 0.8377(5) 1.2351(9) 0.5369(5)
H9 H 0.8769 1.3569 0.5404
H10 H 0.7626 1.2431 0.5583
H11 H 0.8132 1.1919 0.4735
Br1 Br 0.17800(6) 0.80930(9) -0.06202(4)
O1 O 0.5525(3) 0.8556(5) 0.1577(3)
H1 H 0.6225 0.8823 0.1945
O2 O 0.7255(3) 0.5510(5) 0.2379(3)
C1 C 0.1618(5) 0.7149(7) 0.0535(4)
C2 C 0.0411(5) 0.7322(9) 0.0670(5)
H2 H -0.0261 0.7893 0.0220
C3 C 0.0218(6) 0.6644(9) 0.1473(5)
H3 H -0.0584 0.6768 0.1574
C4 C 0.1221(6) 0.5771(9) 0.2135(5)
H4 H 0.1090 0.5294 0.2677
C5 C 0.2421(5) 0.5613(8) 0.1984(4)
H5 H 0.3090 0.5027 0.2430
C6 C 0.2646(4) 0.6319(7) 0.1170(3)
C7 C 0.3963(4) 0.6050(7) 0.1033(3)
H6 H 0.3963 0.6674 0.0451
C8 C 0.5120(4) 0.6791(6) 0.1810(4)
H7 H 0.4865 0.6921 0.2382
C9 C 0.6128(4) 0.5267(7) 0.1952(3)
C10 C 0.5505(5) 0.3599(7) 0.1480(4)
H8 H 0.5885 0.2416 0.1531
C11 C 0.4310(4) 0.3990(7) 0.0964(3)
C12 C 0.3377(5) 0.2649(9) 0.0369(5)
H9 H 0.3769 0.1431 0.0404
H10 H 0.2626 0.2569 0.0583
H11 H 0.3132 0.3081 -0.0265
Br1 Br 0.32200(6) 0.30930(9) 0.56202(4)
O1 O -0.0525(3) 0.3556(5) 0.3423(3)
H1 H -0.1225 0.3823 0.3055
O2 O -0.2255(3) 0.0510(5) 0.2621(3)
C1 C 0.3382(5) 0.2149(7) 0.4465(4)
C2 C 0.4589(5) 0.2322(9) 0.4330(5)
H2 H 0.5261 0.2893 0.4780
C3 C 0.4782(6) 0.1644(9) 0.3527(5)
H3 H 0.5584 0.1768 0.3426
C4 C 0.3779(6) 0.0771(9) 0.2865(5)
H4 H 0.3910 0.0294 0.2323
C5 C 0.2579(5) 0.0613(8) 0.3016(4)
H5 H 0.1910 0.0027 0.2570
C6 C 0.2354(4) 0.1319(7) 0.3830(3)
C7 C 0.1037(4) 0.1050(7) 0.3967(3)
H6 H 0.1037 0.1674 0.4549
C8 C -0.0120(4) 0.1791(6) 0.3190(4)
H7 H 0.0135 0.1921 0.2618
C9 C -0.1128(4) 0.0267(7) 0.3048(3)
C10 C -0.0505(5) -0.1401(7) 0.3520(4)
H8 H -0.0885 -0.2584 0.3469
C11 C 0.0690(4) -0.1010(7) 0.4036(3)
C12 C 0.1623(5) -0.2351(9) 0.4631(5)
H9 H 0.1231 -0.3569 0.4596
H10 H 0.2374 -0.2431 0.4417
H11 H 0.1868 -0.1919 0.5265

#END
