./ABICOF_from_xyz.cif_generated_by_CrystalShift
_symmetry_cell_setting triclinic
_symmetry_space_group_name_H-M 'P 1'
loop_
_symmetry_equiv_pos_site_id
_symmetry_equiv_pos_as_xyz
1 x,y,z
_cell_length_a 10.841000
_cell_length_b 7.114500
_cell_length_c 15.009000
_cell_angle_alpha 90.000000
_cell_angle_beta 106.960000
_cell_angle_gamma 90.000000
_cell_volume 1107.272152
loop_
_atom_site_label
_atom_site_type_symbol
_atom_site_fract_x
_atom_site_fract_y
_atom_site_fract_z
Br1 Br 0.822000 0.190700 1.062020
O2 O 0.447500 0.144400 0.842300
H3 H 0.377500 0.117700 0.805500
O4 O 0.274500 0.449000 0.762100
C5 C 0.838200 0.285100 0.946500
C6 C 0.958900 0.267800 0.933000
H7 H 1.026100 0.210700 0.978000
C8 C 0.978200 0.335600 0.852700
H9 H 1.058400 0.323200 0.842600
C10 C 0.877900 0.422900 0.786500
H11 H 0.891000 0.470600 0.732300
C12 C 0.757900 0.438700 0.801600
H13 H 0.691000 0.497300 0.757000
C14 C 0.735400 0.368100 0.883000
C15 C 0.603700 0.395000 0.896700
H16 H 0.603700 0.332600 0.954900
C17 C 0.488000 0.320900 0.819000
H18 H 0.513500 0.307900 0.761800
C19 C 0.387200 0.473300 0.804800
C20 C 0.449500 0.640100 0.852000
H21 H 0.411500 0.758400 0.846900
C22 C 0.569000 0.601000 0.903600
C23 C 0.662300 0.735100 0.963100
H24 H 0.623100 0.856900 0.959600
H25 H 0.737400 0.743100 0.941700
H26 H 0.686800 0.691900 1.026500
Br27 Br 0.678000 0.690700 0.437980
O28 O 1.052500 0.644400 0.657700
H29 H 1.122500 0.617700 0.694500
O30 O 1.225500 0.949000 0.737900
C31 C 0.661800 0.785100 0.553500
C32 C 0.541100 0.767800 0.567000
H33 H 0.473900 0.710700 0.522000
C34 C 0.521800 0.835600 0.647300
H35 H 0.441600 0.823200 0.657400
C36 C 0.622100 0.922900 0.713500
H37 H 0.609000 0.970600 0.767700
C38 C 0.742100 0.938700 0.698400
H39 H 0.809000 0.997300 0.743000
C40 C 0.764600 0.868100 0.617000
C41 C 0.896300 0.895000 0.603300
H42 H 0.896300 0.832600 0.545100
C43 C 1.012000 0.820900 0.681000
H44 H 0.986500 0.807900 0.738200
C45 C 1.112800 0.973300 0.695200
C46 C 1.050500 1.140100 0.648000
H47 H 1.088500 1.258400 0.653100
C48 C 0.931000 1.101000 0.596400
C49 C 0.837700 1.235100 0.536900
H50 H 0.876900 1.356900 0.540400
H51 H 0.762600 1.243100 0.558300
H52 H 0.813200 1.191900 0.473500
Br53 Br 0.178000 0.809300 -0.062020
O54 O 0.552500 0.855600 0.157700
H55 H 0.622500 0.882300 0.194500
O56 O 0.725500 0.551000 0.237900
C57 C 0.161800 0.714900 0.053500
C58 C 0.041100 0.732200 0.067000
H59 H -0.026100 0.789300 0.022000
C60 C 0.021800 0.664400 0.147300
H61 H -0.058400 0.676800 0.157400
C62 C 0.122100 0.577100 0.213500
H63 H 0.109000 0.529400 0.267700
C64 C 0.242100 0.561300 0.198400
H65 H 0.309000 0.502700 0.243000
C66 C 0.264600 0.631900 0.117000
C67 C 0.396300 0.605000 0.103300
H68 H 0.396300 0.667400 0.045100
C69 C 0.512000 0.679100 0.181000
H70 H 0.486500 0.692100 0.238200
C71 C 0.612800 0.526700 0.195200
C72 C 0.550500 0.359900 0.148000
H73 H 0.588500 0.241600 0.153100
C74 C 0.431000 0.399000 0.096400
C75 C 0.337700 0.264900 0.036900
H76 H 0.376900 0.143100 0.040400
H77 H 0.262600 0.256900 0.058300
H78 H 0.313200 0.308100 -0.026500
Br79 Br 0.322000 0.309300 0.562020
O80 O -0.052500 0.355600 0.342300
H81 H -0.122500 0.382300 0.305500
O82 O -0.225500 0.051000 0.262100
C83 C 0.338200 0.214900 0.446500
C84 C 0.458900 0.232200 0.433000
H85 H 0.526100 0.289300 0.478000
C86 C 0.478200 0.164400 0.352700
H87 H 0.558400 0.176800 0.342600
C88 C 0.377900 0.077100 0.286500
H89 H 0.391000 0.029400 0.232300
C90 C 0.257900 0.061300 0.301600
H91 H 0.191000 0.002700 0.257000
C92 C 0.235400 0.131900 0.383000
C93 C 0.103700 0.105000 0.396700
H94 H 0.103700 0.167400 0.454900
C95 C -0.012000 0.179100 0.319000
H96 H 0.013500 0.192100 0.261800
C97 C -0.112800 0.026700 0.304800
C98 C -0.050500 -0.140100 0.352000
H99 H -0.088500 -0.258400 0.346900
C100 C 0.069000 -0.101000 0.403600
C101 C 0.162300 -0.235100 0.463100
H102 H 0.123100 -0.356900 0.459600
H103 H 0.237400 -0.243100 0.441700
H104 H 0.186800 -0.191900 0.526500

#END
