
#######################################################################
#
#                 Cambridge Crystallographic Data Centre
#                                CCDC 
#
#######################################################################
#
# If this CIF has been generated from an entry in the Cambridge 
# Structural Database, then it will include bibliographic, chemical, 
# crystal, experimental, refinement or atomic coordinate data resulting 
# from the CCDC's data processing and validation procedures.
#
#######################################################################

data_ABIDAS
_symmetry_cell_setting           orthorhombic
_symmetry_space_group_name_H-M   'P 21 21 21'
_symmetry_Int_Tables_number      19
_space_group_name_Hall           'P 2ac 2ab'
loop_
_symmetry_equiv_pos_site_id
_symmetry_equiv_pos_as_xyz
1 x,y,z
2 1/2+x,1/2-y,-z
3 -x,1/2+y,1/2-z
4 1/2-x,-y,1/2+z
_cell_length_a                   6.9950(5)
_cell_length_b                   11.7494(9)
_cell_length_c                   12.5355(9)
_cell_angle_alpha                90
_cell_angle_beta                 90
_cell_angle_gamma                90
_cell_volume                     1030.26
loop_
_atom_site_label
_atom_site_type_symbol
_atom_site_fract_x
_atom_site_fract_y
_atom_site_fract_z
C1 C 1.00376(18) 0.84336(10) 0.67254(10)
H1 H 1.0277 0.9194 0.6393
C2 C 0.84212(19) 0.78516(11) 0.61107(10)
C3 C 0.66722(19) 0.80278(11) 0.67061(11)
H2 H 0.5423 0.7853 0.6458
C4 C 0.70886(19) 0.84778(10) 0.76665(11)
C5 C 0.92174(18) 0.86250(10) 0.78468(10)
H3 H 0.9681 0.8006 0.8329
C6 C 0.9667(2) 0.97786(10) 0.83555(11)
H4 H 0.9446 1.0389 0.7825
H5 H 1.1033 0.9800 0.8561
C7 C 0.8423(2) 1.00079(11) 0.93513(10)
H6 H 0.8686 1.0814 0.9562
C8 C 0.63164(19) 0.99715(11) 0.90211(11)
H7 H 0.6071 1.0590 0.8502
H8 H 0.5513 1.0116 0.9657
C9 C 0.5718(2) 0.88272(12) 0.85181(11)
H9 H 0.5674 0.8233 0.9078
H10 H 0.4421 0.8900 0.8209
C10 C 0.8966(2) 0.92816(11) 1.03126(11)
C11 C 0.7709(2) 0.87238(12) 1.09175(12)
H11 H 0.8127 0.8335 1.1539
H12 H 0.6395 0.8716 1.0727
C12 C 1.1052(2) 0.92993(14) 1.06084(13)
H13 H 1.1213 0.8988 1.1328
H14 H 1.1523 1.0085 1.0591
H15 H 1.1777 0.8837 1.0099
O1 O 1.17652(13) 0.78185(8) 0.67220(8)
O2 O 0.86558(14) 0.73625(8) 0.52564(7)
H16 H 1.214(3) 0.7801(19) 0.6073(9)
C1 C 0.50376(18) 0.65664(10) 0.32746(10)
H1 H 0.5277 0.5806 0.3607
C2 C 0.34212(19) 0.71484(11) 0.38893(10)
C3 C 0.16722(19) 0.69722(11) 0.32939(11)
H2 H 0.0423 0.7147 0.3542
C4 C 0.20886(19) 0.65222(10) 0.23335(11)
C5 C 0.42174(18) 0.63750(10) 0.21532(10)
H3 H 0.4681 0.6994 0.1671
C6 C 0.4667(2) 0.52214(10) 0.16445(11)
H4 H 0.4446 0.4611 0.2175
H5 H 0.6033 0.5200 0.1439
C7 C 0.3423(2) 0.49921(11) 0.06487(10)
H6 H 0.3686 0.4186 0.0438
C8 C 0.13164(19) 0.50285(11) 0.09789(11)
H7 H 0.1071 0.4410 0.1498
H8 H 0.0513 0.4884 0.0343
C9 C 0.0718(2) 0.61728(12) 0.14819(11)
H9 H 0.0674 0.6767 0.0922
H10 H -0.0579 0.6100 0.1791
C10 C 0.3966(2) 0.57184(11) -0.03126(11)
C11 C 0.2709(2) 0.62762(12) -0.09175(12)
H11 H 0.3127 0.6665 -0.1539
H12 H 0.1395 0.6284 -0.0727
C12 C 0.6052(2) 0.57007(14) -0.06084(13)
H13 H 0.6213 0.6012 -0.1328
H14 H 0.6523 0.4915 -0.0591
H15 H 0.6777 0.6163 -0.0099
O1 O 0.67652(13) 0.71815(8) 0.32780(8)
O2 O 0.36558(14) 0.76375(8) 0.47436(7)
H16 H 0.714(3) 0.7199(19) 0.3927(9)
C1 C -0.00376(18) 0.34336(10) 0.82746(10)
H1 H -0.0277 0.4194 0.8607
C2 C 0.15788(19) 0.28516(11) 0.88893(10)
C3 C 0.33278(19) 0.30278(11) 0.82939(11)
H2 H 0.4577 0.2853 0.8542
C4 C 0.29114(19) 0.34778(10) 0.73335(11)
C5 C 0.07826(18) 0.36250(10) 0.71532(10)
H3 H 0.0319 0.3006 0.6671
C6 C 0.0333(2) 0.47786(10) 0.66445(11)
H4 H 0.0554 0.5389 0.7175
H5 H -0.1033 0.4800 0.6439
C7 C 0.1577(2) 0.50079(11) 0.56487(10)
H6 H 0.1314 0.5814 0.5438
C8 C 0.36836(19) 0.49715(11) 0.59789(11)
H7 H 0.3929 0.5590 0.6498
H8 H 0.4487 0.5116 0.5343
C9 C 0.4282(2) 0.38272(12) 0.64819(11)
H9 H 0.4326 0.3233 0.5922
H10 H 0.5579 0.3900 0.6791
C10 C 0.1034(2) 0.42816(11) 0.46874(11)
C11 C 0.2291(2) 0.37238(12) 0.40825(12)
H11 H 0.1873 0.3335 0.3461
H12 H 0.3605 0.3716 0.4273
C12 C -0.1052(2) 0.42993(14) 0.43916(13)
H13 H -0.1213 0.3988 0.3672
H14 H -0.1523 0.5085 0.4409
H15 H -0.1777 0.3837 0.4901
O1 O -0.17652(13) 0.28185(8) 0.82780(8)
O2 O 0.13442(14) 0.23625(8) 0.97436(7)
H16 H -0.214(3) 0.2801(19) 0.8927(9)
C1 C 0.49624(18) 0.15664(10) 0.17254(10)
H1 H 0.4723 0.0806 0.1393
C2 C 0.65788(19) 0.21484(11) 0.11107(10)
C3 C 0.83278(19) 0.19722(11) 0.17061(11)
H2 H 0.9577 0.2147 0.1458
C4 C 0.79114(19) 0.15222(10) 0.26665(11)
C5 C 0.57826(18) 0.13750(10) 0.28468(10)
H3 H 0.5319 0.1994 0.3329
C6 C 0.5333(2) 0.02214(10) 0.33555(11)
H4 H 0.5554 -0.0389 0.2825
H5 H 0.3967 0.0200 0.3561
C7 C 0.6577(2) -0.00079(11) 0.43513(10)
H6 H 0.6314 -0.0814 0.4562
C8 C 0.86836(19) 0.00285(11) 0.40211(11)
H7 H 0.8929 -0.0590 0.3502
H8 H 0.9487 -0.0116 0.4657
C9 C 0.9282(2) 0.11728(12) 0.35181(11)
H9 H 0.9326 0.1767 0.4078
H10 H 1.0579 0.1100 0.3209
C10 C 0.6034(2) 0.07184(11) 0.53126(11)
C11 C 0.7291(2) 0.12762(12) 0.59175(12)
H11 H 0.6873 0.1665 0.6539
H12 H 0.8605 0.1284 0.5727
C12 C 0.3948(2) 0.07007(14) 0.56084(13)
H13 H 0.3787 0.1012 0.6328
H14 H 0.3477 -0.0085 0.5591
H15 H 0.3223 0.1163 0.5099
O1 O 0.32348(13) 0.21815(8) 0.17220(8)
O2 O 0.63442(14) 0.26375(8) 0.02564(7)
H16 H 0.286(3) 0.2199(19) 0.1073(9)

#END
