./ABIHIC_from_xyz.cif_generated_by_CrystalShift
_symmetry_cell_setting triclinic
_symmetry_space_group_name_H-M 'P 1'
loop_
_symmetry_equiv_pos_site_id
_symmetry_equiv_pos_as_xyz
1 x,y,z
_cell_length_a 9.655000
_cell_length_b 11.115000
_cell_length_c 11.345000
_cell_angle_alpha 72.950000
_cell_angle_beta 73.980000
_cell_angle_gamma 87.950000
_cell_volume 1117.428903
loop_
_atom_site_label
_atom_site_type_symbol
_atom_site_fract_x
_atom_site_fract_y
_atom_site_fract_z
Si1 Si 0.127800 0.602200 0.151000
C2 C 0.129600 0.447000 0.263800
O3 O 0.429300 0.867300 0.108600
O4 O 0.274200 0.623400 0.031300
O5 O -0.012200 0.604700 0.094700
O6 O 0.117900 0.719900 0.211700
C7 C 0.435600 0.746100 0.185000
C8 C 0.358700 0.720000 0.313900
C9 C 0.368900 0.601400 0.396900
C10 C 0.449900 0.511000 0.351000
C11 C 0.516100 0.536500 0.221000
C12 C 0.508100 0.653800 0.135000
C13 C 0.341700 0.716900 -0.079200
C14 C 0.487300 0.749000 -0.097300
C15 C 0.555900 0.845400 -0.206700
C16 C 0.486400 0.904400 -0.298400
C17 C 0.346700 0.864500 -0.282700
C18 C 0.271800 0.769700 -0.174900
C19 C -0.058000 0.723300 0.040800
C20 C 0.001800 0.783500 -0.089500
C21 C -0.047100 0.902400 -0.140200
C22 C -0.148600 0.957600 -0.062200
C23 C -0.202500 0.897000 0.067800
C24 C -0.156900 0.778400 0.122000
C25 C 0.032200 0.755500 0.314700
C26 C -0.119400 0.755300 0.340500
C27 C -0.197100 0.801200 0.440800
C28 C -0.129900 0.845900 0.512700
C29 C 0.018900 0.844800 0.486400
C30 C 0.102800 0.801100 0.387600
C31 C 0.574800 0.678600 -0.007600
C32 C 0.122500 0.724100 -0.167500
C33 C -0.204100 0.711100 0.264800
C34 C 0.266200 0.817800 0.360200
H35 H 0.468700 0.870100 0.035300
H36 H 0.044300 0.432900 0.334800
H37 H 0.213300 0.442900 0.294600
H38 H 0.132200 0.383600 0.221300
H39 H 0.315300 0.588000 0.485200
H40 H 0.458600 0.431400 0.409500
H41 H 0.563300 0.472800 0.185100
H42 H 0.654500 0.870400 -0.217600
H43 H 0.534900 0.973600 -0.374700
H44 H 0.298800 0.907500 -0.351600
H45 H -0.005900 0.946600 -0.229400
H46 H -0.181200 1.038400 -0.100200
H47 H -0.273200 0.937800 0.127100
H48 H -0.302200 0.802500 0.457700
H49 H -0.181200 0.877900 0.575300
H50 H 0.066700 0.873900 0.537500
H51 H 0.595700 0.595100 -0.021600
H52 H 0.666500 0.723600 -0.032800
H53 H 0.114100 0.631600 -0.134000
H54 H 0.116900 0.746700 -0.260000
H55 H -0.198700 0.619600 0.276700
H56 H -0.305800 0.726400 0.301300
H57 H 0.282300 0.816100 0.444800
H58 H 0.293300 0.902400 0.294800
Si59 Si 0.872200 0.397800 0.849000
C60 C 0.870400 0.553000 0.736200
O61 O 0.570700 0.132700 0.891400
O62 O 0.725800 0.376600 0.968700
O63 O 1.012200 0.395300 0.905300
O64 O 0.882100 0.280100 0.788300
C65 C 0.564400 0.253900 0.815000
C66 C 0.641300 0.280000 0.686100
C67 C 0.631100 0.398600 0.603100
C68 C 0.550100 0.489000 0.649000
C69 C 0.483900 0.463500 0.779000
C70 C 0.491900 0.346200 0.865000
C71 C 0.658300 0.283100 1.079200
C72 C 0.512700 0.251000 1.097300
C73 C 0.444100 0.154600 1.206700
C74 C 0.513600 0.095600 1.298400
C75 C 0.653300 0.135500 1.282700
C76 C 0.728200 0.230300 1.174900
C77 C 1.058000 0.276700 0.959200
C78 C 0.998200 0.216500 1.089500
C79 C 1.047100 0.097600 1.140200
C80 C 1.148600 0.042400 1.062200
C81 C 1.202500 0.103000 0.932200
C82 C 1.156900 0.221600 0.878000
C83 C 0.967800 0.244500 0.685300
C84 C 1.119400 0.244700 0.659500
C85 C 1.197100 0.198800 0.559200
C86 C 1.129900 0.154100 0.487300
C87 C 0.981100 0.155200 0.513600
C88 C 0.897200 0.198900 0.612400
C89 C 0.425200 0.321400 1.007600
C90 C 0.877500 0.275900 1.167500
C91 C 1.204100 0.288900 0.735200
C92 C 0.733800 0.182200 0.639800
H93 H 0.531300 0.129900 0.964700
H94 H 0.955700 0.567100 0.665200
H95 H 0.786700 0.557100 0.705400
H96 H 0.867800 0.616400 0.778700
H97 H 0.684700 0.412000 0.514800
H98 H 0.541400 0.568600 0.590500
H99 H 0.436700 0.527200 0.814900
H100 H 0.345500 0.129600 1.217600
H101 H 0.465100 0.026400 1.374700
H102 H 0.701200 0.092500 1.351600
H103 H 1.005900 0.053400 1.229400
H104 H 1.181200 -0.038400 1.100200
H105 H 1.273200 0.062200 0.872900
H106 H 1.302200 0.197500 0.542300
H107 H 1.181200 0.122100 0.424700
H108 H 0.933300 0.126100 0.462500
H109 H 0.404300 0.404900 1.021600
H110 H 0.333500 0.276400 1.032800
H111 H 0.885900 0.368400 1.134000
H112 H 0.883100 0.253300 1.260000
H113 H 1.198700 0.380400 0.723300
H114 H 1.305800 0.273600 0.698700
H115 H 0.717700 0.183900 0.555200
H116 H 0.706700 0.097600 0.705200

#END
