./ABIHAX_from_xyz.cif_generated_by_CrystalShift
_symmetry_cell_setting triclinic
_symmetry_space_group_name_H-M 'P 1'
loop_
_symmetry_equiv_pos_site_id
_symmetry_equiv_pos_as_xyz
1 x,y,z
_cell_length_a 8.415300
_cell_length_b 9.376000
_cell_length_c 12.299100
_cell_angle_alpha 110.449400
_cell_angle_beta 98.729600
_cell_angle_gamma 106.566500
_cell_volume 836.682936
loop_
_atom_site_label
_atom_site_type_symbol
_atom_site_fract_x
_atom_site_fract_y
_atom_site_fract_z
C1 C 0.244000 0.735500 0.461910
O2 O 0.298570 0.714870 0.372650
N3 N 0.079100 0.653000 0.452430
H4 H 0.036000 0.667000 0.511000
C5 C -0.022500 0.522700 0.337800
C6 C 0.055300 0.395300 0.291680
O7 O 0.087400 0.324610 0.355790
N8 N 0.077300 0.355600 0.181120
C9 C 0.067800 0.450100 0.110600
H10 H 0.177300 0.483400 0.091000
H11 H 0.045900 0.547600 0.157400
H12 H -0.026200 0.383400 0.035600
C13 C 0.136300 0.221100 0.131100
H14 H 0.071800 0.155600 0.045800
H15 H 0.117200 0.152300 0.175900
H16 H 0.259800 0.265100 0.138100
C17 C -0.182100 0.497700 0.283770
H18 H -0.236100 0.404400 0.208900
C19 C -0.288400 0.598100 0.325900
H20 H -0.211900 0.705400 0.393300
C21 C -0.422200 0.506800 0.372100
H22 H -0.503900 0.562500 0.388900
H23 H -0.364400 0.504300 0.446400
H24 H -0.484700 0.394700 0.310800
C25 C -0.374300 0.628700 0.221600
H26 H -0.444900 0.693400 0.249300
H27 H -0.447800 0.523800 0.154700
H28 H -0.285200 0.688400 0.194100
C29 C 0.366200 0.850000 0.584820
C30 C 0.541000 0.900100 0.590240
H31 H 0.576300 0.865200 0.518700
C32 C 0.662400 1.000900 0.700300
C33 C 0.617800 1.055400 0.806000
H34 H 0.702600 1.124700 0.881200
C35 C 0.443800 1.004700 0.797630
C36 C 0.315800 0.903100 0.690080
H37 H 0.197300 0.870700 0.688200
N38 N 0.846400 1.053300 0.704400
O39 O 0.884600 1.010100 0.609580
O40 O 0.951400 1.138000 0.803670
N41 N 0.391900 1.060200 0.909860
O42 O 0.500600 1.170300 1.000130
O43 O 0.244700 0.989800 0.907230
C44 C 0.756000 0.264500 0.538090
O45 O 0.701430 0.285130 0.627350
N46 N 0.920900 0.347000 0.547570
H47 H 0.964000 0.333000 0.489000
C48 C 1.022500 0.477300 0.662200
C49 C 0.944700 0.604700 0.708320
O50 O 0.912600 0.675390 0.644210
N51 N 0.922700 0.644400 0.818880
C52 C 0.932200 0.549900 0.889400
H53 H 0.822700 0.516600 0.909000
H54 H 0.954100 0.452400 0.842600
H55 H 1.026200 0.616600 0.964400
C56 C 0.863700 0.778900 0.868900
H57 H 0.928200 0.844400 0.954200
H58 H 0.882800 0.847700 0.824100
H59 H 0.740200 0.734900 0.861900
C60 C 1.182100 0.502300 0.716230
H61 H 1.236100 0.595600 0.791100
C62 C 1.288400 0.401900 0.674100
H63 H 1.211900 0.294600 0.606700
C64 C 1.422200 0.493200 0.627900
H65 H 1.503900 0.437500 0.611100
H66 H 1.364400 0.495700 0.553600
H67 H 1.484700 0.605300 0.689200
C68 C 1.374300 0.371300 0.778400
H69 H 1.444900 0.306600 0.750700
H70 H 1.447800 0.476200 0.845300
H71 H 1.285200 0.311600 0.805900
C72 C 0.633800 0.150000 0.415180
C73 C 0.459000 0.099900 0.409760
H74 H 0.423700 0.134800 0.481300
C75 C 0.337600 -0.000900 0.299700
C76 C 0.382200 -0.055400 0.194000
H77 H 0.297400 -0.124700 0.118800
C78 C 0.556200 -0.004700 0.202370
C79 C 0.684200 0.096900 0.309920
H80 H 0.802700 0.129300 0.311800
N81 N 0.153600 -0.053300 0.295600
O82 O 0.115400 -0.010100 0.390420
O83 O 0.048600 -0.138000 0.196330
N84 N 0.608100 -0.060200 0.090140
O85 O 0.499400 -0.170300 -0.000130
O86 O 0.755300 0.010200 0.092770

#END
