
#######################################################################
#
#                 Cambridge Crystallographic Data Centre
#                                CCDC 
#
#######################################################################
#
# If this CIF has been generated from an entry in the Cambridge 
# Structural Database, then it will include bibliographic, chemical, 
# crystal, experimental, refinement or atomic coordinate data resulting 
# from the CCDC's data processing and validation procedures.
#
#######################################################################

data_ABIHOL
_symmetry_cell_setting           monoclinic
_symmetry_space_group_name_H-M   'P 21'
_symmetry_Int_Tables_number      4
_space_group_name_Hall           'P 2yb'
loop_
_symmetry_equiv_pos_site_id
_symmetry_equiv_pos_as_xyz
1 x,y,z
2 -x,1/2+y,-z
_cell_length_a                   7.4098(13)
_cell_length_b                   16.824(3)
_cell_length_c                   8.2667(15)
_cell_angle_alpha                90
_cell_angle_beta                 98.120(3)
_cell_angle_gamma                90
_cell_volume                     1020.22
loop_
_atom_site_label
_atom_site_type_symbol
_atom_site_fract_x
_atom_site_fract_y
_atom_site_fract_z
F1 F -0.40510(13) 0.28127(6) 0.61606(13)
F2 F -0.30300(13) 0.32539(6) 0.40285(11)
F3 F -0.22581(15) 0.38179(6) 0.63330(13)
O1 O 0.06816(15) 0.33455(6) 0.80742(13)
O2 O 0.35102(14) 0.23679(6) 0.83435(13)
H1 H 0.4365 0.2047 0.8280
O3 O 0.36057(14) 0.10632(7) 0.64195(13)
O4 O -0.26882(15) 0.09758(7) 0.30586(14)
C1 C 0.0599(2) 0.27067(9) 0.70381(18)
C2 C 0.2092(2) 0.21896(9) 0.71980(18)
C3 C 0.2053(2) 0.15083(9) 0.61991(18)
C4 C 0.0496(2) 0.13319(9) 0.51349(19)
H2 H 0.0454 0.0864 0.4488
C5 C -0.0957(2) 0.25407(9) 0.59172(17)
C6 C -0.2550(2) 0.31086(9) 0.56338(19)
C7 C 0.1767(2) 0.39918(10) 0.7613(2)
H3 H 0.3004 0.3803 0.7544
H4 H 0.1814 0.4415 0.8432
H5 H 0.1222 0.4199 0.6547
C8 C 0.3551(2) 0.03329(10) 0.5503(2)
H6 H 0.2582 -0.0009 0.5805
H7 H 0.4726 0.0060 0.5748
H8 H 0.3309 0.0452 0.4332
C9 C -0.1021(2) 0.18351(9) 0.49981(18)
C10 C -0.2664(2) 0.15660(10) 0.39031(19)
H9 H -0.3749 0.1870 0.3861
F1 F 1.40510(13) 0.78127(6) 0.38394(13)
F2 F 1.30300(13) 0.82539(6) 0.59715(11)
F3 F 1.22581(15) 0.88179(6) 0.36670(13)
O1 O 0.93184(15) 0.83455(6) 0.19258(13)
O2 O 0.64898(14) 0.73679(6) 0.16565(13)
H1 H 0.5635 0.7047 0.1720
O3 O 0.63943(14) 0.60632(7) 0.35805(13)
O4 O 1.26882(15) 0.59758(7) 0.69414(14)
C1 C 0.9401(2) 0.77067(9) 0.29619(18)
C2 C 0.7908(2) 0.71896(9) 0.28020(18)
C3 C 0.7947(2) 0.65083(9) 0.38009(18)
C4 C 0.9504(2) 0.63319(9) 0.48651(19)
H2 H 0.9546 0.5864 0.5512
C5 C 1.0957(2) 0.75407(9) 0.40828(17)
C6 C 1.2550(2) 0.81086(9) 0.43662(19)
C7 C 0.8233(2) 0.89918(10) 0.2387(2)
H3 H 0.6996 0.8803 0.2456
H4 H 0.8186 0.9415 0.1568
H5 H 0.8778 0.9199 0.3453
C8 C 0.6449(2) 0.53329(10) 0.4497(2)
H6 H 0.7418 0.4991 0.4195
H7 H 0.5274 0.5060 0.4252
H8 H 0.6691 0.5452 0.5668
C9 C 1.1021(2) 0.68351(9) 0.50019(18)
C10 C 1.2664(2) 0.65660(10) 0.60969(19)
H9 H 1.3749 0.6870 0.6139
F4 F 1.02806(13) 0.38858(6) 0.27250(14)
F5 F 1.17179(14) 0.49079(6) 0.37665(11)
F6 F 1.25960(13) 0.43163(6) 0.17115(12)
O5 O 0.52996(14) 0.52733(7) -0.09407(13)
H10 H 0.4817 0.5621 -0.1592
O6 O 0.71929(14) 0.43227(7) 0.12477(12)
O7 O 0.67091(14) 0.66346(7) -0.19691(13)
O8 O 1.32272(15) 0.66858(7) 0.08840(14)
C11 C 1.0708(2) 0.58072(9) 0.06772(18)
C12 C 0.9925(2) 0.51011(9) 0.11907(18)
C13 C 0.8084(2) 0.49397(9) 0.06417(17)
C14 C 0.7057(2) 0.54632(9) -0.04526(18)
C15 C 0.7854(2) 0.61616(9) -0.09485(18)
C16 C 0.9654(2) 0.63306(9) -0.03766(18)
H11 H 1.0182 0.6808 -0.0703
C17 C 1.1093(2) 0.45474(9) 0.23367(19)
C18 C 0.7347(2) 0.74288(9) -0.22060(19)
H12 H 0.7714 0.7680 -0.1141
H13 H 0.6367 0.7739 -0.2830
H14 H 0.8394 0.7407 -0.2808
C19 C 0.6844(2) 0.36542(10) 0.0178(2)
H15 H 0.6114 0.3824 -0.0845
H16 H 0.6176 0.3248 0.0702
H17 H 0.8003 0.3433 -0.0056
C20 C 1.2614(2) 0.60468(10) 0.12339(18)
H18 H 1.3392 0.5688 0.1891
F4 F -0.02806(13) -0.11142(6) 0.72750(14)
F5 F -0.17179(14) -0.00921(6) 0.62335(11)
F6 F -0.25960(13) -0.06837(6) 0.82885(12)
O5 O 0.47004(14) 0.02733(7) 1.09407(13)
H10 H 0.5183 0.0621 1.1592
O6 O 0.28071(14) -0.06773(7) 0.87523(12)
O7 O 0.32909(14) 0.16346(7) 1.19691(13)
O8 O -0.32272(15) 0.16858(7) 0.91160(14)
C11 C -0.0708(2) 0.08072(9) 0.93228(18)
C12 C 0.0075(2) 0.01011(9) 0.88093(18)
C13 C 0.1916(2) -0.00603(9) 0.93583(17)
C14 C 0.2943(2) 0.04632(9) 1.04526(18)
C15 C 0.2146(2) 0.11616(9) 1.09485(18)
C16 C 0.0346(2) 0.13306(9) 1.03766(18)
H11 H -0.0182 0.1808 1.0703
C17 C -0.1093(2) -0.04526(9) 0.76633(19)
C18 C 0.2653(2) 0.24288(9) 1.22060(19)
H12 H 0.2286 0.2680 1.1141
H13 H 0.3633 0.2739 1.2830
H14 H 0.1606 0.2407 1.2808
C19 C 0.3156(2) -0.13458(10) 0.9822(2)
H15 H 0.3886 -0.1176 1.0845
H16 H 0.3824 -0.1752 0.9298
H17 H 0.1997 -0.1567 1.0056
C20 C -0.2614(2) 0.10468(10) 0.87661(18)
H18 H -0.3392 0.0688 0.8109

#END
