
#######################################################################
#
#                 Cambridge Crystallographic Data Centre
#                                CCDC 
#
#######################################################################
#
# If this CIF has been generated from an entry in the Cambridge 
# Structural Database, then it will include bibliographic, chemical, 
# crystal, experimental, refinement or atomic coordinate data resulting 
# from the CCDC's data processing and validation procedures.
#
#######################################################################

data_ABIJON
_symmetry_cell_setting           monoclinic
_symmetry_space_group_name_H-M   'P 21/c'
_symmetry_Int_Tables_number      14
_space_group_name_Hall           '-P 2ybc'
loop_
_symmetry_equiv_pos_site_id
_symmetry_equiv_pos_as_xyz
1 x,y,z
2 -x,1/2+y,1/2-z
3 -x,-y,-z
4 x,1/2-y,1/2+z
_cell_length_a                   17.6278(10)
_cell_length_b                   8.0278(5)
_cell_length_c                   12.3398(7)
_cell_angle_alpha                90
_cell_angle_beta                 104.078(4)
_cell_angle_gamma                90
_cell_volume                     1693.79
loop_
_atom_site_label
_atom_site_type_symbol
_atom_site_fract_x
_atom_site_fract_y
_atom_site_fract_z
C1 C 0.41667(16) 0.6048(4) 0.7487(2)
H1 H 0.4214 0.6913 0.6935
H2 H 0.4684 0.5937 0.8019
C2 C 0.39621(19) 0.4394(4) 0.6874(3)
H3 H 0.4369 0.4105 0.6489
H4 H 0.3458 0.4497 0.6326
H5 H 0.3928 0.3519 0.7414
C3 C 0.31517(17) 0.5021(4) 0.9069(2)
H6 H 0.2691 0.5363 0.9340
H7 H 0.2996 0.4056 0.8564
C4 C 0.38066(18) 0.4491(4) 1.0064(2)
H8 H 0.3626 0.3563 1.0452
H9 H 0.3952 0.5432 1.0578
H10 H 0.4262 0.4137 0.9799
C5 C 0.38612(17) 0.8548(4) 0.9205(2)
H11 H 0.3526 0.8739 0.9731
H12 H 0.4386 0.8225 0.9653
C6 C 0.39338(19) 1.0179(4) 0.8606(3)
H13 H 0.4157 1.1036 0.9157
H14 H 0.3415 1.0534 0.8179
H15 H 0.4276 1.0016 0.8097
C7 C 0.25720(15) 0.7647(4) 0.7146(2)
C8 C 0.18989(15) 0.8446(4) 0.7441(2)
C9 C 0.17439(16) 0.8475(4) 0.8451(2)
H16 H 0.2074 0.7992 0.9100
C10 C 0.09918(16) 0.9354(4) 0.8444(2)
H17 H 0.1047 1.0079 0.9108
H18 H 0.0561 0.8552 0.8417
C11 C 0.08529(17) 1.0393(4) 0.7358(2)
H19 H 0.0281 1.0568 0.7032
C12 C 0.12795(18) 1.2052(4) 0.7598(2)
H20 H 0.0975 1.2799 0.7970
H21 H 0.1794 1.1860 0.8124
C13 C 0.14089(18) 1.2920(4) 0.6563(3)
H22 H 0.1694 1.3978 0.6780
H23 H 0.0898 1.3184 0.6050
C14 C 0.18823(18) 1.1791(4) 0.5969(2)
H24 H 0.1979 1.2367 0.5306
H25 H 0.2394 1.1522 0.6480
C15 C 0.14265(16) 1.0225(4) 0.5620(2)
C16 C 0.12168(15) 0.9258(4) 0.6578(2)
C17 C 0.06600(17) 0.7929(4) 0.6095(2)
N1 N 0.02305(17) 0.6882(4) 0.5766(2)
O1 O 0.25908(11) 0.7600(3) 0.61549(15)
O2 O 0.11759(12) 0.9801(3) 0.46573(16)
Si1 Si 0.34469(4) 0.67763(10) 0.82672(6)
C1 C 0.58333(16) 0.1048(4) 0.7513(2)
H1 H 0.5786 0.1913 0.8065
H2 H 0.5316 0.0937 0.6981
C2 C 0.60379(19) -0.0606(4) 0.8126(3)
H3 H 0.5631 -0.0895 0.8511
H4 H 0.6542 -0.0503 0.8674
H5 H 0.6072 -0.1481 0.7586
C3 C 0.68483(17) 0.0021(4) 0.5931(2)
H6 H 0.7309 0.0363 0.5660
H7 H 0.7004 -0.0944 0.6436
C4 C 0.61934(18) -0.0509(4) 0.4936(2)
H8 H 0.6374 -0.1437 0.4548
H9 H 0.6048 0.0432 0.4422
H10 H 0.5738 -0.0863 0.5201
C5 C 0.61388(17) 0.3548(4) 0.5795(2)
H11 H 0.6474 0.3739 0.5269
H12 H 0.5614 0.3225 0.5347
C6 C 0.60662(19) 0.5179(4) 0.6394(3)
H13 H 0.5843 0.6036 0.5843
H14 H 0.6585 0.5534 0.6821
H15 H 0.5724 0.5016 0.6903
C7 C 0.74280(15) 0.2647(4) 0.7854(2)
C8 C 0.81011(15) 0.3446(4) 0.7559(2)
C9 C 0.82561(16) 0.3475(4) 0.6549(2)
H16 H 0.7926 0.2992 0.5900
C10 C 0.90082(16) 0.4354(4) 0.6556(2)
H17 H 0.8953 0.5079 0.5892
H18 H 0.9439 0.3552 0.6583
C11 C 0.91471(17) 0.5393(4) 0.7642(2)
H19 H 0.9719 0.5568 0.7968
C12 C 0.87205(18) 0.7052(4) 0.7402(2)
H20 H 0.9025 0.7799 0.7030
H21 H 0.8206 0.6860 0.6876
C13 C 0.85911(18) 0.7920(4) 0.8437(3)
H22 H 0.8306 0.8978 0.8220
H23 H 0.9102 0.8184 0.8950
C14 C 0.81177(18) 0.6791(4) 0.9031(2)
H24 H 0.8021 0.7367 0.9694
H25 H 0.7606 0.6522 0.8520
C15 C 0.85735(16) 0.5225(4) 0.9380(2)
C16 C 0.87832(15) 0.4258(4) 0.8422(2)
C17 C 0.93400(17) 0.2929(4) 0.8905(2)
N1 N 0.97695(17) 0.1882(4) 0.9234(2)
O1 O 0.74092(11) 0.2600(3) 0.88451(15)
O2 O 0.88241(12) 0.4801(3) 1.03427(16)
Si1 Si 0.65531(4) 0.17763(10) 0.67328(6)
C1 C 0.58333(16) 0.3952(4) 0.2513(2)
H1 H 0.5786 0.3087 0.3065
H2 H 0.5316 0.4063 0.1981
C2 C 0.60379(19) 0.5606(4) 0.3126(3)
H3 H 0.5631 0.5895 0.3511
H4 H 0.6542 0.5503 0.3674
H5 H 0.6072 0.6481 0.2586
C3 C 0.68483(17) 0.4979(4) 0.0931(2)
H6 H 0.7309 0.4637 0.0660
H7 H 0.7004 0.5944 0.1436
C4 C 0.61934(18) 0.5509(4) -0.0064(2)
H8 H 0.6374 0.6437 -0.0452
H9 H 0.6048 0.4568 -0.0578
H10 H 0.5738 0.5863 0.0201
C5 C 0.61388(17) 0.1452(4) 0.0795(2)
H11 H 0.6474 0.1261 0.0269
H12 H 0.5614 0.1775 0.0347
C6 C 0.60662(19) -0.0179(4) 0.1394(3)
H13 H 0.5843 -0.1036 0.0843
H14 H 0.6585 -0.0534 0.1821
H15 H 0.5724 -0.0016 0.1903
C7 C 0.74280(15) 0.2353(4) 0.2854(2)
C8 C 0.81011(15) 0.1554(4) 0.2559(2)
C9 C 0.82561(16) 0.1525(4) 0.1549(2)
H16 H 0.7926 0.2008 0.0900
C10 C 0.90082(16) 0.0646(4) 0.1556(2)
H17 H 0.8953 -0.0079 0.0892
H18 H 0.9439 0.1448 0.1583
C11 C 0.91471(17) -0.0393(4) 0.2642(2)
H19 H 0.9719 -0.0568 0.2968
C12 C 0.87205(18) -0.2052(4) 0.2402(2)
H20 H 0.9025 -0.2799 0.2030
H21 H 0.8206 -0.1860 0.1876
C13 C 0.85911(18) -0.2920(4) 0.3437(3)
H22 H 0.8306 -0.3978 0.3220
H23 H 0.9102 -0.3184 0.3950
C14 C 0.81177(18) -0.1791(4) 0.4031(2)
H24 H 0.8021 -0.2367 0.4694
H25 H 0.7606 -0.1522 0.3520
C15 C 0.85735(16) -0.0225(4) 0.4380(2)
C16 C 0.87832(15) 0.0742(4) 0.3422(2)
C17 C 0.93400(17) 0.2071(4) 0.3905(2)
N1 N 0.97695(17) 0.3118(4) 0.4234(2)
O1 O 0.74092(11) 0.2400(3) 0.38451(15)
O2 O 0.88241(12) 0.0199(3) 0.53427(16)
Si1 Si 0.65531(4) 0.32237(10) 0.17328(6)
C1 C 0.41667(16) 0.8952(4) 0.2487(2)
H1 H 0.4214 0.8087 0.1935
H2 H 0.4684 0.9063 0.3019
C2 C 0.39621(19) 1.0606(4) 0.1874(3)
H3 H 0.4369 1.0895 0.1489
H4 H 0.3458 1.0503 0.1326
H5 H 0.3928 1.1481 0.2414
C3 C 0.31517(17) 0.9979(4) 0.4069(2)
H6 H 0.2691 0.9637 0.4340
H7 H 0.2996 1.0944 0.3564
C4 C 0.38066(18) 1.0509(4) 0.5064(2)
H8 H 0.3626 1.1437 0.5452
H9 H 0.3952 0.9568 0.5578
H10 H 0.4262 1.0863 0.4799
C5 C 0.38612(17) 0.6452(4) 0.4205(2)
H11 H 0.3526 0.6261 0.4731
H12 H 0.4386 0.6775 0.4653
C6 C 0.39338(19) 0.4821(4) 0.3606(3)
H13 H 0.4157 0.3964 0.4157
H14 H 0.3415 0.4466 0.3179
H15 H 0.4276 0.4984 0.3097
C7 C 0.25720(15) 0.7353(4) 0.2146(2)
C8 C 0.18989(15) 0.6554(4) 0.2441(2)
C9 C 0.17439(16) 0.6525(4) 0.3451(2)
H16 H 0.2074 0.7008 0.4100
C10 C 0.09918(16) 0.5646(4) 0.3444(2)
H17 H 0.1047 0.4921 0.4108
H18 H 0.0561 0.6448 0.3417
C11 C 0.08529(17) 0.4607(4) 0.2358(2)
H19 H 0.0281 0.4432 0.2032
C12 C 0.12795(18) 0.2948(4) 0.2598(2)
H20 H 0.0975 0.2201 0.2970
H21 H 0.1794 0.3140 0.3124
C13 C 0.14089(18) 0.2080(4) 0.1563(3)
H22 H 0.1694 0.1022 0.1780
H23 H 0.0898 0.1816 0.1050
C14 C 0.18823(18) 0.3209(4) 0.0969(2)
H24 H 0.1979 0.2633 0.0306
H25 H 0.2394 0.3478 0.1480
C15 C 0.14265(16) 0.4775(4) 0.0620(2)
C16 C 0.12168(15) 0.5742(4) 0.1578(2)
C17 C 0.06600(17) 0.7071(4) 0.1095(2)
N1 N 0.02305(17) 0.8118(4) 0.0766(2)
O1 O 0.25908(11) 0.7400(3) 0.11549(15)
O2 O 0.11759(12) 0.5199(3) -0.03427(16)
Si1 Si 0.34469(4) 0.82237(10) 0.32672(6)

#END
