
#######################################################################
#
#                 Cambridge Crystallographic Data Centre
#                                CCDC 
#
#######################################################################
#
# If this CIF has been generated from an entry in the Cambridge 
# Structural Database, then it will include bibliographic, chemical, 
# crystal, experimental, refinement or atomic coordinate data resulting 
# from the CCDC's data processing and validation procedures.
#
#######################################################################

data_ABIKUS
_symmetry_cell_setting           monoclinic
_symmetry_space_group_name_H-M   'C 2/c'
_symmetry_Int_Tables_number      15
_space_group_name_Hall           '-C 2yn'
loop_
_symmetry_equiv_pos_site_id
_symmetry_equiv_pos_as_xyz
1 x,y,z
2 1/2+x,1/2+y,z
3 x,-y,1/2+z
4 1/2+x,1/2-y,1/2+z
5 -x,-y,-z
6 1/2-x,1/2-y,-z
7 -x,y,1/2-z
8 1/2-x,1/2+y,1/2-z
_cell_length_a                   9.0195(4)
_cell_length_b                   11.7805(3)
_cell_length_c                   11.5337(5)
_cell_angle_alpha                90
_cell_angle_beta                 99.592(2)
_cell_angle_gamma                90
_cell_volume                     1208.37
loop_
_atom_site_label
_atom_site_type_symbol
_atom_site_fract_x
_atom_site_fract_y
_atom_site_fract_z
Mo1 Mo 0.5000 0.22755(2) 0.7500
Cl1 Cl 0.33223(5) 0.18502(4) 0.88003(4)
S1 S 0.37275(5) 0.04715(4) 0.62097(4)
C1 C 0.4829(2) -0.07334(18) 0.68318(18)
H1 H 0.4290 -0.1424 0.6571
H2 H 0.5770 -0.0742 0.6530
C2 C 0.1886(2) 0.0126(2) 0.65512(19)
H3 H 0.1531 -0.0580 0.6169
H4 H 0.1952 0.0027 0.7393
O1 O 0.38048(19) 0.31356(14) 0.66156(14)
C3 C 0.0790(2) 0.1075(2) 0.6129(2)
H5 H -0.0183 0.0891 0.6310
H6 H 0.0720 0.1165 0.5294
H7 H 0.1139 0.1770 0.6515
Cl1F Cl 0.66777(5) 0.18502(4) 0.61997(4)
C1F C 0.5171(2) -0.07334(18) 0.81682(18)
S1F S 0.62725(5) 0.04715(4) 0.87903(4)
O1F O 0.61952(19) 0.31356(14) 0.83844(14)
C2F C 0.8114(2) 0.0126(2) 0.84488(19)
H3F H 0.8469 -0.0580 0.8831
H4F H 0.8048 0.0027 0.7607
C3F C 0.9210(2) 0.1075(2) 0.8871(2)
H5F H 1.0183 0.0891 0.8690
H6F H 0.9280 0.1165 0.9706
H7F H 0.8861 0.1770 0.8485
H1F H 0.5710 -0.1424 0.8429
H2F H 0.4230 -0.0742 0.8470
Mo1 Mo 0.0000 0.72755(2) 0.7500
Cl1 Cl -0.16777(5) 0.68502(4) 0.88003(4)
S1 S -0.12725(5) 0.54715(4) 0.62097(4)
C1 C -0.0171(2) 0.42666(18) 0.68318(18)
H1 H -0.0710 0.3576 0.6571
H2 H 0.0770 0.4258 0.6530
C2 C -0.3114(2) 0.5126(2) 0.65512(19)
H3 H -0.3469 0.4420 0.6169
H4 H -0.3048 0.5027 0.7393
O1 O -0.11952(19) 0.81356(14) 0.66156(14)
C3 C -0.4210(2) 0.6075(2) 0.6129(2)
H5 H -0.5183 0.5891 0.6310
H6 H -0.4280 0.6165 0.5294
H7 H -0.3861 0.6770 0.6515
Cl1F Cl 0.16777(5) 0.68502(4) 0.61997(4)
C1F C 0.0171(2) 0.42666(18) 0.81682(18)
S1F S 0.12725(5) 0.54715(4) 0.87903(4)
O1F O 0.11952(19) 0.81356(14) 0.83844(14)
C2F C 0.3114(2) 0.5126(2) 0.84488(19)
H3F H 0.3469 0.4420 0.8831
H4F H 0.3048 0.5027 0.7607
C3F C 0.4210(2) 0.6075(2) 0.8871(2)
H5F H 0.5183 0.5891 0.8690
H6F H 0.4280 0.6165 0.9706
H7F H 0.3861 0.6770 0.8485
H1F H 0.0710 0.3576 0.8429
H2F H -0.0770 0.4258 0.8470
Mo1 Mo 1.0000 0.72755(2) 0.7500
Cl1 Cl 0.83223(5) 0.68502(4) 0.88003(4)
S1 S 0.87275(5) 0.54715(4) 0.62097(4)
C1 C 0.9829(2) 0.42666(18) 0.68318(18)
H1 H 0.9290 0.3576 0.6571
H2 H 1.0770 0.4258 0.6530
C2 C 0.6886(2) 0.5126(2) 0.65512(19)
H3 H 0.6531 0.4420 0.6169
H4 H 0.6952 0.5027 0.7393
O1 O 0.88048(19) 0.81356(14) 0.66156(14)
C3 C 0.5790(2) 0.6075(2) 0.6129(2)
H5 H 0.4817 0.5891 0.6310
H6 H 0.5720 0.6165 0.5294
H7 H 0.6139 0.6770 0.6515
Cl1F Cl 1.16777(5) 0.68502(4) 0.61997(4)
C1F C 1.0171(2) 0.42666(18) 0.81682(18)
S1F S 1.12725(5) 0.54715(4) 0.87903(4)
O1F O 1.11952(19) 0.81356(14) 0.83844(14)
C2F C 1.3114(2) 0.5126(2) 0.84488(19)
H3F H 1.3469 0.4420 0.8831
H4F H 1.3048 0.5027 0.7607
C3F C 1.4210(2) 0.6075(2) 0.8871(2)
H5F H 1.5183 0.5891 0.8690
H6F H 1.4280 0.6165 0.9706
H7F H 1.3861 0.6770 0.8485
H1F H 1.0710 0.3576 0.8429
H2F H 0.9230 0.4258 0.8470
Mo1 Mo 0.5000 0.77245(2) 0.2500
Cl1 Cl 0.33223(5) 0.81498(4) 0.38003(4)
S1 S 0.37275(5) 0.95285(4) 0.12097(4)
C1 C 0.4829(2) 1.07334(18) 0.18318(18)
H1 H 0.4290 1.1424 0.1571
H2 H 0.5770 1.0742 0.1530
C2 C 0.1886(2) 0.9874(2) 0.15512(19)
H3 H 0.1531 1.0580 0.1169
H4 H 0.1952 0.9973 0.2393
O1 O 0.38048(19) 0.68644(14) 0.16156(14)
C3 C 0.0790(2) 0.8925(2) 0.1129(2)
H5 H -0.0183 0.9109 0.1310
H6 H 0.0720 0.8835 0.0294
H7 H 0.1139 0.8230 0.1515
Cl1F Cl 0.66777(5) 0.81498(4) 0.11997(4)
C1F C 0.5171(2) 1.07334(18) 0.31682(18)
S1F S 0.62725(5) 0.95285(4) 0.37903(4)
O1F O 0.61952(19) 0.68644(14) 0.33844(14)
C2F C 0.8114(2) 0.9874(2) 0.34488(19)
H3F H 0.8469 1.0580 0.3831
H4F H 0.8048 0.9973 0.2607
C3F C 0.9210(2) 0.8925(2) 0.3871(2)
H5F H 1.0183 0.9109 0.3690
H6F H 0.9280 0.8835 0.4706
H7F H 0.8861 0.8230 0.3485
H1F H 0.5710 1.1424 0.3429
H2F H 0.4230 1.0742 0.3470
Mo1 Mo 0.0000 0.27245(2) 0.2500
Cl1 Cl -0.16777(5) 0.31498(4) 0.38003(4)
S1 S -0.12725(5) 0.45285(4) 0.12097(4)
C1 C -0.0171(2) 0.57334(18) 0.18318(18)
H1 H -0.0710 0.6424 0.1571
H2 H 0.0770 0.5742 0.1530
C2 C -0.3114(2) 0.4874(2) 0.15512(19)
H3 H -0.3469 0.5580 0.1169
H4 H -0.3048 0.4973 0.2393
O1 O -0.11952(19) 0.18644(14) 0.16156(14)
C3 C -0.4210(2) 0.3925(2) 0.1129(2)
H5 H -0.5183 0.4109 0.1310
H6 H -0.4280 0.3835 0.0294
H7 H -0.3861 0.3230 0.1515
Cl1F Cl 0.16777(5) 0.31498(4) 0.11997(4)
C1F C 0.0171(2) 0.57334(18) 0.31682(18)
S1F S 0.12725(5) 0.45285(4) 0.37903(4)
O1F O 0.11952(19) 0.18644(14) 0.33844(14)
C2F C 0.3114(2) 0.4874(2) 0.34488(19)
H3F H 0.3469 0.5580 0.3831
H4F H 0.3048 0.4973 0.2607
C3F C 0.4210(2) 0.3925(2) 0.3871(2)
H5F H 0.5183 0.4109 0.3690
H6F H 0.4280 0.3835 0.4706
H7F H 0.3861 0.3230 0.3485
H1F H 0.0710 0.6424 0.3429
H2F H -0.0770 0.5742 0.3470
Mo1 Mo 1.0000 0.27245(2) 0.2500
Cl1 Cl 0.83223(5) 0.31498(4) 0.38003(4)
S1 S 0.87275(5) 0.45285(4) 0.12097(4)
C1 C 0.9829(2) 0.57334(18) 0.18318(18)
H1 H 0.9290 0.6424 0.1571
H2 H 1.0770 0.5742 0.1530
C2 C 0.6886(2) 0.4874(2) 0.15512(19)
H3 H 0.6531 0.5580 0.1169
H4 H 0.6952 0.4973 0.2393
O1 O 0.88048(19) 0.18644(14) 0.16156(14)
C3 C 0.5790(2) 0.3925(2) 0.1129(2)
H5 H 0.4817 0.4109 0.1310
H6 H 0.5720 0.3835 0.0294
H7 H 0.6139 0.3230 0.1515
Cl1F Cl 1.16777(5) 0.31498(4) 0.11997(4)
C1F C 1.0171(2) 0.57334(18) 0.31682(18)
S1F S 1.12725(5) 0.45285(4) 0.37903(4)
O1F O 1.11952(19) 0.18644(14) 0.33844(14)
C2F C 1.3114(2) 0.4874(2) 0.34488(19)
H3F H 1.3469 0.5580 0.3831
H4F H 1.3048 0.4973 0.2607
C3F C 1.4210(2) 0.3925(2) 0.3871(2)
H5F H 1.5183 0.4109 0.3690
H6F H 1.4280 0.3835 0.4706
H7F H 1.3861 0.3230 0.3485
H1F H 1.0710 0.6424 0.3429
H2F H 0.9230 0.5742 0.3470

#END
