./ABIKIF_from_xyz.cif_generated_by_CrystalShift
_symmetry_cell_setting triclinic
_symmetry_space_group_name_H-M 'P 1'
loop_
_symmetry_equiv_pos_site_id
_symmetry_equiv_pos_as_xyz
1 x,y,z
_cell_length_a 11.585000
_cell_length_b 9.033000
_cell_length_c 13.235000
_cell_angle_alpha 90.000000
_cell_angle_beta 111.134000
_cell_angle_gamma 90.000000
_cell_volume 1291.851202
loop_
_atom_site_label
_atom_site_type_symbol
_atom_site_fract_x
_atom_site_fract_y
_atom_site_fract_z
O1 O 0.260300 0.058100 0.836150
O2 O 0.047000 0.260800 0.630900
O3 O 0.380000 -0.094900 1.031700
O4 O 0.439300 0.371200 0.906300
O5 O 0.339400 0.509400 0.991400
O6 O -0.017500 0.390600 1.248700
C7 C 0.200100 0.043100 0.913800
C8 C 0.062300 0.034000 0.853300
C9 C 0.011100 0.099400 0.757900
C10 C 0.088200 0.192400 0.716000
C11 C 0.222900 0.201900 0.790900
C12 C 0.232300 0.302700 0.888400
C13 C 0.237500 0.189700 0.979700
C14 C 0.249800 -0.096000 0.979400
C15 C 0.347500 0.396500 0.927600
C16 C 0.165200 0.232100 1.050600
C17 C 0.216200 0.209400 1.161900
C18 C 0.156700 0.258500 1.230800
C19 C 0.044900 0.332000 1.188100
C20 C -0.010500 0.349200 1.076700
C21 C 0.049400 0.299900 1.009300
O22 O 0.239700 0.558100 0.663850
O23 O 0.453000 0.760800 0.869100
O24 O 0.120000 0.405100 0.468300
O25 O 0.060700 0.871200 0.593700
O26 O 0.160600 1.009400 0.508600
O27 O 0.517500 0.890600 0.251300
C28 C 0.299900 0.543100 0.586200
C29 C 0.437700 0.534000 0.646700
C30 C 0.488900 0.599400 0.742100
C31 C 0.411800 0.692400 0.784000
C32 C 0.277100 0.701900 0.709100
C33 C 0.267700 0.802700 0.611600
C34 C 0.262500 0.689700 0.520300
C35 C 0.250200 0.404000 0.520600
C36 C 0.152500 0.896500 0.572400
C37 C 0.334800 0.732100 0.449400
C38 C 0.283800 0.709400 0.338100
C39 C 0.343300 0.758500 0.269200
C40 C 0.455100 0.832000 0.311900
C41 C 0.510500 0.849200 0.423300
C42 C 0.450600 0.799900 0.490700
O43 O 0.739700 0.941900 0.163850
O44 O 0.953000 0.739200 0.369100
O45 O 0.620000 1.094900 -0.031700
O46 O 0.560700 0.628800 0.093700
O47 O 0.660600 0.490600 0.008600
O48 O 1.017500 0.609400 -0.248700
C49 C 0.799900 0.956900 0.086200
C50 C 0.937700 0.966000 0.146700
C51 C 0.988900 0.900600 0.242100
C52 C 0.911800 0.807600 0.284000
C53 C 0.777100 0.798100 0.209100
C54 C 0.767700 0.697300 0.111600
C55 C 0.762500 0.810300 0.020300
C56 C 0.750200 1.096000 0.020600
C57 C 0.652500 0.603500 0.072400
C58 C 0.834800 0.767900 -0.050600
C59 C 0.783800 0.790600 -0.161900
C60 C 0.843300 0.741500 -0.230800
C61 C 0.955100 0.668000 -0.188100
C62 C 1.010500 0.650800 -0.076700
C63 C 0.950600 0.700100 -0.009300
O64 O 0.760300 0.441900 0.336150
O65 O 0.547000 0.239200 0.130900
O66 O 0.880000 0.594900 0.531700
O67 O 0.939300 0.128800 0.406300
O68 O 0.839400 -0.009400 0.491400
O69 O 0.482500 0.109400 0.748700
C70 C 0.700100 0.456900 0.413800
C71 C 0.562300 0.466000 0.353300
C72 C 0.511100 0.400600 0.257900
C73 C 0.588200 0.307600 0.216000
C74 C 0.722900 0.298100 0.290900
C75 C 0.732300 0.197300 0.388400
C76 C 0.737500 0.310300 0.479700
C77 C 0.749800 0.596000 0.479400
C78 C 0.847500 0.103500 0.427600
C79 C 0.665200 0.267900 0.550600
C80 C 0.716200 0.290600 0.661900
C81 C 0.656700 0.241500 0.730800
C82 C 0.544900 0.168000 0.688100
C83 C 0.489500 0.150800 0.576700
C84 C 0.549400 0.200100 0.509300

#END
