./ABIKII_from_xyz.cif_generated_by_CrystalShift
_symmetry_cell_setting triclinic
_symmetry_space_group_name_H-M 'P 1'
loop_
_symmetry_equiv_pos_site_id
_symmetry_equiv_pos_as_xyz
1 x,y,z
_cell_length_a 7.729000
_cell_length_b 7.756000
_cell_length_c 12.500000
_cell_angle_alpha 88.700000
_cell_angle_beta 77.130000
_cell_angle_gamma 87.280000
_cell_volume 729.622451
loop_
_atom_site_label
_atom_site_type_symbol
_atom_site_fract_x
_atom_site_fract_y
_atom_site_fract_z
C1 C 0.447400 0.217600 0.064000
C2 C 0.300100 0.184300 0.158400
C3 C 0.231900 0.358200 0.213200
C4 C 0.125700 0.472400 0.155300
H5 H 0.200200 0.510000 0.084400
H6 H 0.083400 0.576500 0.199700
C7 C -0.031700 0.379800 0.135300
H8 H -0.103400 0.458500 0.097100
H9 H -0.107800 0.344500 0.206200
C10 C 0.033100 0.220500 0.065300
H11 H -0.070800 0.159700 0.053700
H12 H 0.102100 0.257600 -0.007400
C13 C 0.146700 0.098500 0.117600
H14 H 0.203600 0.011900 0.061000
C15 C 0.058600 -0.000300 0.218100
H16 H -0.034600 0.072600 0.265900
H17 H 0.004200 -0.104300 0.197900
C18 C 0.205300 -0.048900 0.274100
H19 H 0.200400 -0.138800 0.327500
C20 C 0.344900 0.050100 0.239900
C21 C 0.514300 0.040000 0.271800
C22 C 0.576900 -0.120800 0.324700
C23 C 0.672300 -0.106200 0.404800
H24 H 0.690400 0.004600 0.430100
C25 C 0.742500 -0.253300 0.448600
H26 H 0.810700 -0.245600 0.502700
C27 C 0.707800 -0.413900 0.409200
C28 C 0.785300 -0.572100 0.453300
C29 C 0.611200 -0.428000 0.332500
H30 H 0.589300 -0.538800 0.308700
C31 C 0.544100 -0.280200 0.288400
H32 H 0.476600 -0.288700 0.234000
N33 N 0.555700 0.251800 -0.010000
N34 N 0.843000 -0.696900 0.481400
O35 O 0.256600 0.385000 0.301100
O36 O 0.612000 0.164000 0.255400
C37 C 0.552600 0.782400 0.936000
C38 C 0.699900 0.815700 0.841600
C39 C 0.768100 0.641800 0.786800
C40 C 0.874300 0.527600 0.844700
H41 H 0.799800 0.490000 0.915600
H42 H 0.916600 0.423500 0.800300
C43 C 1.031700 0.620200 0.864700
H44 H 1.103400 0.541500 0.902900
H45 H 1.107800 0.655500 0.793800
C46 C 0.966900 0.779500 0.934700
H47 H 1.070800 0.840300 0.946300
H48 H 0.897900 0.742400 1.007400
C49 C 0.853300 0.901500 0.882400
H50 H 0.796400 0.988100 0.939000
C51 C 0.941400 1.000300 0.781900
H52 H 1.034600 0.927400 0.734100
H53 H 0.995800 1.104300 0.802100
C54 C 0.794700 1.048900 0.725900
H55 H 0.799600 1.138800 0.672500
C56 C 0.655100 0.949900 0.760100
C57 C 0.485700 0.960000 0.728200
C58 C 0.423100 1.120800 0.675300
C59 C 0.327700 1.106200 0.595200
H60 H 0.309600 0.995400 0.569900
C61 C 0.257500 1.253300 0.551400
H62 H 0.189300 1.245600 0.497300
C63 C 0.292200 1.413900 0.590800
C64 C 0.214700 1.572100 0.546700
C65 C 0.388800 1.428000 0.667500
H66 H 0.410700 1.538800 0.691300
C67 C 0.455900 1.280200 0.711600
H68 H 0.523400 1.288700 0.766000
N69 N 0.444300 0.748200 1.010000
N70 N 0.157000 1.696900 0.518600
O71 O 0.743400 0.615000 0.698900
O72 O 0.388000 0.836000 0.744600

#END
