
#######################################################################
#
#                 Cambridge Crystallographic Data Centre
#                                CCDC 
#
#######################################################################
#
# If this CIF has been generated from an entry in the Cambridge 
# Structural Database, then it will include bibliographic, chemical, 
# crystal, experimental, refinement or atomic coordinate data resulting 
# from the CCDC's data processing and validation procedures.
#
#######################################################################

data_ABILAC10
_symmetry_cell_setting           orthorhombic
_symmetry_space_group_name_H-M   'P 21 21 21'
_symmetry_Int_Tables_number      19
_space_group_name_Hall           'P 2ac 2ab'
loop_
_symmetry_equiv_pos_site_id
_symmetry_equiv_pos_as_xyz
1 x,y,z
2 1/2+x,1/2-y,-z
3 -x,1/2+y,1/2-z
4 1/2-x,-y,1/2+z
_cell_length_a                   6.633(3)
_cell_length_b                   11.761(6)
_cell_length_c                   35.009(19)
_cell_angle_alpha                90
_cell_angle_beta                 90
_cell_angle_gamma                90
_cell_volume                     2731.08
loop_
_atom_site_label
_atom_site_type_symbol
_atom_site_fract_x
_atom_site_fract_y
_atom_site_fract_z
C1 C 0.96750 0.67940 0.85250
C2 C 1.03770 0.80150 0.85450
C3 C 0.81500 0.80480 0.91780
C4 C 0.82220 0.84430 0.96160
C5 C 0.93990 0.95650 0.96740
C6 C 0.90420 1.03500 0.93210
C7 C 1.00840 1.14570 0.94530
C8 C 0.95120 1.15190 0.98910
C9 C 0.87030 1.03400 1.00060
C10 C 1.17010 0.93410 0.97300
C11 C 1.27200 0.80570 0.85060
C12 C 0.99060 0.62860 0.81110
C13 C 0.93110 0.99890 1.04150
C14 C 0.85620 0.87850 1.05260
C15 C 0.84510 1.08980 1.06970
C16 C 0.90660 1.07000 1.11150
C17 C 0.83970 1.16350 1.13710
C18 C 1.00100 1.21190 1.15350
C19 C 1.01310 1.31100 1.18080
C20 C 1.17800 1.15450 1.13970
C21 C 0.67890 1.06230 0.92710
C22 C 0.57090 0.57610 0.78830
C23 C 0.86300 0.69660 0.78380
C24 C 1.11710 0.83100 0.75840
C25 C 0.75600 0.88840 0.75960
C26 C 0.91890 0.82160 0.78250
C27 C 0.92940 0.87320 0.82390
C28 C 1.01530 0.99300 0.82440
C29 C 0.99880 1.04590 0.86360
C30 C 0.97890 0.98210 0.89470
C31 C 0.99220 0.85280 0.89510
O1 O 0.65260 0.68650 0.79480
O2 O 1.12270 1.07130 1.11420
O3 O 1.35150 1.17010 1.14800
C1 C 0.46750 0.82060 0.14750
C2 C 0.53770 0.69850 0.14550
C3 C 0.31500 0.69520 0.08220
C4 C 0.32220 0.65570 0.03840
C5 C 0.43990 0.54350 0.03260
C6 C 0.40420 0.46500 0.06790
C7 C 0.50840 0.35430 0.05470
C8 C 0.45120 0.34810 0.01090
C9 C 0.37030 0.46600 -0.00060
C10 C 0.67010 0.56590 0.02700
C11 C 0.77200 0.69430 0.14940
C12 C 0.49060 0.87140 0.18890
C13 C 0.43110 0.50110 -0.04150
C14 C 0.35620 0.62150 -0.05260
C15 C 0.34510 0.41020 -0.06970
C16 C 0.40660 0.43000 -0.11150
C17 C 0.33970 0.33650 -0.13710
C18 C 0.50100 0.28810 -0.15350
C19 C 0.51310 0.18900 -0.18080
C20 C 0.67800 0.34550 -0.13970
C21 C 0.17890 0.43770 0.07290
C22 C 0.07090 0.92390 0.21170
C23 C 0.36300 0.80340 0.21620
C24 C 0.61710 0.66900 0.24160
C25 C 0.25600 0.61160 0.24040
C26 C 0.41890 0.67840 0.21750
C27 C 0.42940 0.62680 0.17610
C28 C 0.51530 0.50700 0.17560
C29 C 0.49880 0.45410 0.13640
C30 C 0.47890 0.51790 0.10530
C31 C 0.49220 0.64720 0.10490
O1 O 0.15260 0.81350 0.20520
O2 O 0.62270 0.42870 -0.11420
O3 O 0.85150 0.32990 -0.14800
C1 C 0.03250 0.17940 0.64750
C2 C -0.03770 0.30150 0.64550
C3 C 0.18500 0.30480 0.58220
C4 C 0.17780 0.34430 0.53840
C5 C 0.06010 0.45650 0.53260
C6 C 0.09580 0.53500 0.56790
C7 C -0.00840 0.64570 0.55470
C8 C 0.04880 0.65190 0.51090
C9 C 0.12970 0.53400 0.49940
C10 C -0.17010 0.43410 0.52700
C11 C -0.27200 0.30570 0.64940
C12 C 0.00940 0.12860 0.68890
C13 C 0.06890 0.49890 0.45850
C14 C 0.14380 0.37850 0.44740
C15 C 0.15490 0.58980 0.43030
C16 C 0.09340 0.57000 0.38850
C17 C 0.16030 0.66350 0.36290
C18 C -0.00100 0.71190 0.34650
C19 C -0.01310 0.81100 0.31920
C20 C -0.17800 0.65450 0.36030
C21 C 0.32110 0.56230 0.57290
C22 C 0.42910 0.07610 0.71170
C23 C 0.13700 0.19660 0.71620
C24 C -0.11710 0.33100 0.74160
C25 C 0.24400 0.38840 0.74040
C26 C 0.08110 0.32160 0.71750
C27 C 0.07060 0.37320 0.67610
C28 C -0.01530 0.49300 0.67560
C29 C 0.00120 0.54590 0.63640
C30 C 0.02110 0.48210 0.60530
C31 C 0.00780 0.35280 0.60490
O1 O 0.34740 0.18650 0.70520
O2 O -0.12270 0.57130 0.38580
O3 O -0.35150 0.67010 0.35200
C1 C 0.53250 0.32060 0.35250
C2 C 0.46230 0.19850 0.35450
C3 C 0.68500 0.19520 0.41780
C4 C 0.67780 0.15570 0.46160
C5 C 0.56010 0.04350 0.46740
C6 C 0.59580 -0.03500 0.43210
C7 C 0.49160 -0.14570 0.44530
C8 C 0.54880 -0.15190 0.48910
C9 C 0.62970 -0.03400 0.50060
C10 C 0.32990 0.06590 0.47300
C11 C 0.22800 0.19430 0.35060
C12 C 0.50940 0.37140 0.31110
C13 C 0.56890 0.00110 0.54150
C14 C 0.64380 0.12150 0.55260
C15 C 0.65490 -0.08980 0.56970
C16 C 0.59340 -0.07000 0.61150
C17 C 0.66030 -0.16350 0.63710
C18 C 0.49900 -0.21190 0.65350
C19 C 0.48690 -0.31100 0.68080
C20 C 0.32200 -0.15450 0.63970
C21 C 0.82110 -0.06230 0.42710
C22 C 0.92910 0.42390 0.28830
C23 C 0.63700 0.30340 0.28380
C24 C 0.38290 0.16900 0.25840
C25 C 0.74400 0.11160 0.25960
C26 C 0.58110 0.17840 0.28250
C27 C 0.57060 0.12680 0.32390
C28 C 0.48470 0.00700 0.32440
C29 C 0.50120 -0.04590 0.36360
C30 C 0.52110 0.01790 0.39470
C31 C 0.50780 0.14720 0.39510
O1 O 0.84740 0.31350 0.29480
O2 O 0.37730 -0.07130 0.61420
O3 O 0.14850 -0.17010 0.64800

#END
