
#######################################################################
#
#                 Cambridge Crystallographic Data Centre
#                                CCDC 
#
#######################################################################
#
# If this CIF has been generated from an entry in the Cambridge 
# Structural Database, then it will include bibliographic, chemical, 
# crystal, experimental, refinement or atomic coordinate data resulting 
# from the CCDC's data processing and validation procedures.
#
#######################################################################

data_ABILAC11
_symmetry_cell_setting           orthorhombic
_symmetry_space_group_name_H-M   'P 21 21 21'
_symmetry_Int_Tables_number      19
_space_group_name_Hall           'P 2ac 2ab'
loop_
_symmetry_equiv_pos_site_id
_symmetry_equiv_pos_as_xyz
1 x,y,z
2 1/2+x,1/2-y,-z
3 -x,1/2+y,1/2-z
4 1/2-x,-y,1/2+z
_cell_length_a                   6.6474(4)
_cell_length_b                   11.7700(8)
_cell_length_c                   35.166(2)
_cell_angle_alpha                90
_cell_angle_beta                 90
_cell_angle_gamma                90
_cell_volume                     2751.38
loop_
_atom_site_label
_atom_site_type_symbol
_atom_site_fract_x
_atom_site_fract_y
_atom_site_fract_z
O1 O 0.8454(3) 0.80553(16) 0.79439(6)
O2 O 0.3781(3) 0.43291(18) 1.11493(6)
O3 O 0.1487(3) 0.3341(2) 1.14750(7)
C1 C 0.4884(5) 0.1969(3) 1.18106(9)
H1 H 0.6204 0.1671 1.1859
H2 H 0.4042 0.1378 1.1710
H3 H 0.4317 0.2248 1.2044
C2 C 0.5021(4) 0.2905(3) 1.15331(8)
C3 C 0.6595(5) 0.3416(3) 1.13800(8)
H4 H 0.7927 0.3228 1.1431
C4 C 0.5953(4) 0.4333(3) 1.11152(8)
H5 H 0.6482 0.5063 1.1204
C5 C 0.6555(5) 0.4151(3) 1.07065(8)
H6 H 0.6106 0.3402 1.0629
H7 H 0.8012 0.4159 1.0691
C6 C 0.5730(5) 0.5021(2) 1.04257(7)
H8 H 0.4259 0.5013 1.0445
C7 C 0.6301(4) 0.4675(2) 1.00140(8)
H9 H 0.7772 0.4634 1.0002
C8 C 0.5595(4) 0.5433(2) 0.96769(8)
C9 C 0.5959(4) 0.4627(2) 0.93321(8)
C10 C 0.5224(4) 0.5156(2) 0.89619(7)
C11 C 0.5078(4) 0.6438(2) 0.89532(7)
H10 H 0.3875 0.6608 0.9104
C12 C 0.4594(4) 0.6931(2) 0.85500(7)
C13 C 0.5683(4) 0.6211(2) 0.82436(7)
H11 H 0.7081 0.6148 0.8329
C14 C 0.5788(4) 0.6714(2) 0.78330(8)
C15 C 0.6377(4) 0.7968(2) 0.78420(8)
H12 H 0.6199 0.8285 0.7587
C16 C 0.9283(5) 0.9135(3) 0.78786(11)
H13 H 0.9001 0.9366 0.7622
H14 H 1.0712 0.9106 0.7916
H15 H 0.8702 0.9672 0.8053
C17 C 0.7416(5) 0.6050(3) 0.76110(9)
H16 H 0.7634 0.6406 0.7369
H17 H 0.6977 0.5281 0.7573
H18 H 0.8649 0.6051 0.7753
C18 C 0.3812(5) 0.6613(3) 0.76005(9)
H19 H 0.2792 0.7079 0.7715
H20 H 0.3373 0.5836 0.7599
H21 H 0.4047 0.6860 0.7344
C19 C 0.5006(5) 0.4527(2) 0.86488(8)
H22 H 0.4957 0.3742 0.8677
C20 C 0.4836(5) 0.5000(2) 0.82560(8)
H23 H 0.3435 0.5007 0.8179
H24 H 0.5573 0.4521 0.8080
C21 C 0.3231(5) 0.3499(3) 1.13950(9)
C22 C 0.5477(5) 0.3484(2) 0.99018(8)
H25 H 0.6482 0.2904 0.9951
H26 H 0.4283 0.3306 1.0049
C23 C 0.4961(5) 0.3526(2) 0.94706(8)
H27 H 0.5507 0.2871 0.9339
H28 H 0.3517 0.3550 0.9431
C24 C 0.6751(5) 0.6550(2) 0.96055(8)
H29 H 0.8122 0.6456 0.9694
H30 H 0.6137 0.7147 0.9756
C25 C 0.6809(5) 0.6940(2) 0.91858(8)
H31 H 0.6734 0.7763 0.9176
H32 H 0.8078 0.6711 0.9073
C26 C 0.3327(4) 0.5664(2) 0.97338(8)
H33 H 0.3153 0.6354 0.9875
H34 H 0.2732 0.5044 0.9871
H35 H 0.2686 0.5737 0.9490
C27 C 0.8221(5) 0.4363(3) 0.92781(9)
H36 H 0.8729 0.3990 0.9501
H37 H 0.8944 0.5058 0.9238
H38 H 0.8392 0.3875 0.9062
C28 C 0.5320(4) 0.8167(2) 0.85195(8)
H39 H 0.4557 0.8634 0.8695
H40 H 0.6724 0.8205 0.8594
C29 C 0.5091(4) 0.8645(2) 0.81185(8)
H41 H 0.3691 0.8606 0.8042
H42 H 0.5502 0.9435 0.8115
C30 C 0.2287(4) 0.6896(3) 0.85108(8)
H43 H 0.1696 0.7433 0.8683
H44 H 0.1811 0.6146 0.8570
H45 H 0.1916 0.7087 0.8255
C31 C 0.6454(7) 0.6215(3) 1.05266(9)
H46 H 0.6021 0.6404 1.0779
H47 H 0.5901 0.6751 1.0349
H48 H 0.7896 0.6241 1.0515
O1 O 0.3454(3) 0.69447(16) 0.20561(6)
O2 O -0.1219(3) 1.06709(18) -0.11493(6)
O3 O -0.3513(3) 1.1659(2) -0.14750(7)
C1 C -0.0116(5) 1.3031(3) -0.18106(9)
H1 H 0.1204 1.3329 -0.1859
H2 H -0.0958 1.3622 -0.1710
H3 H -0.0683 1.2752 -0.2044
C2 C 0.0021(4) 1.2095(3) -0.15331(8)
C3 C 0.1595(5) 1.1584(3) -0.13800(8)
H4 H 0.2927 1.1772 -0.1431
C4 C 0.0953(4) 1.0667(3) -0.11152(8)
H5 H 0.1482 0.9937 -0.1204
C5 C 0.1555(5) 1.0849(3) -0.07065(8)
H6 H 0.1106 1.1598 -0.0629
H7 H 0.3012 1.0841 -0.0691
C6 C 0.0730(5) 0.9979(2) -0.04257(7)
H8 H -0.0741 0.9987 -0.0445
C7 C 0.1301(4) 1.0325(2) -0.00140(8)
H9 H 0.2772 1.0366 -0.0002
C8 C 0.0595(4) 0.9567(2) 0.03231(8)
C9 C 0.0959(4) 1.0373(2) 0.06679(8)
C10 C 0.0224(4) 0.9844(2) 0.10381(7)
C11 C 0.0078(4) 0.8562(2) 0.10468(7)
H10 H -0.1125 0.8392 0.0896
C12 C -0.0406(4) 0.8069(2) 0.14500(7)
C13 C 0.0683(4) 0.8789(2) 0.17564(7)
H11 H 0.2081 0.8852 0.1671
C14 C 0.0788(4) 0.8286(2) 0.21670(8)
C15 C 0.1377(4) 0.7032(2) 0.21580(8)
H12 H 0.1199 0.6715 0.2413
C16 C 0.4283(5) 0.5865(3) 0.21214(11)
H13 H 0.4001 0.5634 0.2378
H14 H 0.5712 0.5894 0.2084
H15 H 0.3702 0.5328 0.1947
C17 C 0.2416(5) 0.8950(3) 0.23890(9)
H16 H 0.2634 0.8594 0.2631
H17 H 0.1977 0.9719 0.2427
H18 H 0.3649 0.8949 0.2247
C18 C -0.1188(5) 0.8387(3) 0.23995(9)
H19 H -0.2208 0.7921 0.2285
H20 H -0.1627 0.9164 0.2401
H21 H -0.0953 0.8140 0.2656
C19 C 0.0006(5) 1.0473(2) 0.13512(8)
H22 H -0.0043 1.1258 0.1323
C20 C -0.0164(5) 1.0000(2) 0.17440(8)
H23 H -0.1565 0.9993 0.1821
H24 H 0.0573 1.0479 0.1920
C21 C -0.1769(5) 1.1501(3) -0.13950(9)
C22 C 0.0477(5) 1.1516(2) 0.00982(8)
H25 H 0.1482 1.2096 0.0049
H26 H -0.0717 1.1694 -0.0049
C23 C -0.0039(5) 1.1474(2) 0.05294(8)
H27 H 0.0507 1.2129 0.0661
H28 H -0.1483 1.1450 0.0569
C24 C 0.1751(5) 0.8450(2) 0.03945(8)
H29 H 0.3122 0.8544 0.0306
H30 H 0.1137 0.7853 0.0244
C25 C 0.1809(5) 0.8060(2) 0.08142(8)
H31 H 0.1734 0.7237 0.0824
H32 H 0.3078 0.8289 0.0927
C26 C -0.1673(4) 0.9336(2) 0.02662(8)
H33 H -0.1847 0.8646 0.0125
H34 H -0.2268 0.9956 0.0129
H35 H -0.2314 0.9263 0.0510
C27 C 0.3221(5) 1.0637(3) 0.07219(9)
H36 H 0.3729 1.1010 0.0499
H37 H 0.3944 0.9942 0.0762
H38 H 0.3392 1.1125 0.0938
C28 C 0.0320(4) 0.6833(2) 0.14805(8)
H39 H -0.0443 0.6366 0.1305
H40 H 0.1724 0.6795 0.1406
C29 C 0.0091(4) 0.6355(2) 0.18815(8)
H41 H -0.1309 0.6394 0.1958
H42 H 0.0502 0.5565 0.1885
C30 C -0.2713(4) 0.8104(3) 0.14892(8)
H43 H -0.3304 0.7567 0.1317
H44 H -0.3189 0.8854 0.1430
H45 H -0.3084 0.7913 0.1745
C31 C 0.1454(7) 0.8785(3) -0.05266(9)
H46 H 0.1021 0.8596 -0.0779
H47 H 0.0901 0.8249 -0.0349
H48 H 0.2896 0.8759 -0.0515
O1 O 0.1546(3) 0.30553(16) 0.70561(6)
O2 O 0.6219(3) -0.06709(18) 0.38507(6)
O3 O 0.8513(3) -0.1659(2) 0.35250(7)
C1 C 0.5116(5) -0.3031(3) 0.31894(9)
H1 H 0.3796 -0.3329 0.3141
H2 H 0.5958 -0.3622 0.3290
H3 H 0.5683 -0.2752 0.2956
C2 C 0.4979(4) -0.2095(3) 0.34669(8)
C3 C 0.3405(5) -0.1584(3) 0.36200(8)
H4 H 0.2073 -0.1772 0.3569
C4 C 0.4047(4) -0.0667(3) 0.38848(8)
H5 H 0.3518 0.0063 0.3796
C5 C 0.3445(5) -0.0849(3) 0.42935(8)
H6 H 0.3894 -0.1598 0.4371
H7 H 0.1988 -0.0841 0.4309
C6 C 0.4270(5) 0.0021(2) 0.45743(7)
H8 H 0.5741 0.0013 0.4555
C7 C 0.3699(4) -0.0325(2) 0.49860(8)
H9 H 0.2228 -0.0366 0.4998
C8 C 0.4405(4) 0.0433(2) 0.53231(8)
C9 C 0.4041(4) -0.0373(2) 0.56679(8)
C10 C 0.4776(4) 0.0156(2) 0.60381(7)
C11 C 0.4922(4) 0.1438(2) 0.60468(7)
H10 H 0.6125 0.1608 0.5896
C12 C 0.5406(4) 0.1931(2) 0.64500(7)
C13 C 0.4317(4) 0.1211(2) 0.67564(7)
H11 H 0.2919 0.1148 0.6671
C14 C 0.4212(4) 0.1714(2) 0.71670(8)
C15 C 0.3623(4) 0.2968(2) 0.71580(8)
H12 H 0.3801 0.3285 0.7413
C16 C 0.0717(5) 0.4135(3) 0.71214(11)
H13 H 0.0999 0.4366 0.7378
H14 H -0.0712 0.4106 0.7084
H15 H 0.1298 0.4672 0.6947
C17 C 0.2584(5) 0.1050(3) 0.73890(9)
H16 H 0.2366 0.1406 0.7631
H17 H 0.3023 0.0281 0.7427
H18 H 0.1351 0.1051 0.7247
C18 C 0.6188(5) 0.1613(3) 0.73995(9)
H19 H 0.7208 0.2079 0.7285
H20 H 0.6627 0.0836 0.7401
H21 H 0.5953 0.1860 0.7656
C19 C 0.4994(5) -0.0473(2) 0.63512(8)
H22 H 0.5043 -0.1258 0.6323
C20 C 0.5164(5) 0.0000(2) 0.67440(8)
H23 H 0.6565 0.0007 0.6821
H24 H 0.4427 -0.0479 0.6920
C21 C 0.6769(5) -0.1501(3) 0.36050(9)
C22 C 0.4523(5) -0.1516(2) 0.50982(8)
H25 H 0.3518 -0.2096 0.5049
H26 H 0.5717 -0.1694 0.4951
C23 C 0.5039(5) -0.1474(2) 0.55294(8)
H27 H 0.4493 -0.2129 0.5661
H28 H 0.6483 -0.1450 0.5569
C24 C 0.3249(5) 0.1550(2) 0.53945(8)
H29 H 0.1878 0.1456 0.5306
H30 H 0.3863 0.2147 0.5244
C25 C 0.3191(5) 0.1940(2) 0.58142(8)
H31 H 0.3266 0.2763 0.5824
H32 H 0.1922 0.1711 0.5927
C26 C 0.6673(4) 0.0664(2) 0.52662(8)
H33 H 0.6847 0.1354 0.5125
H34 H 0.7268 0.0044 0.5129
H35 H 0.7314 0.0737 0.5510
C27 C 0.1779(5) -0.0637(3) 0.57219(9)
H36 H 0.1271 -0.1010 0.5499
H37 H 0.1056 0.0058 0.5762
H38 H 0.1608 -0.1125 0.5938
C28 C 0.4680(4) 0.3167(2) 0.64805(8)
H39 H 0.5443 0.3634 0.6305
H40 H 0.3276 0.3205 0.6406
C29 C 0.4909(4) 0.3645(2) 0.68815(8)
H41 H 0.6309 0.3606 0.6958
H42 H 0.4498 0.4435 0.6885
C30 C 0.7713(4) 0.1896(3) 0.64892(8)
H43 H 0.8304 0.2433 0.6317
H44 H 0.8189 0.1146 0.6430
H45 H 0.8084 0.2087 0.6745
C31 C 0.3546(7) 0.1215(3) 0.44734(9)
H46 H 0.3979 0.1404 0.4221
H47 H 0.4099 0.1751 0.4651
H48 H 0.2104 0.1241 0.4485
O1 O 0.6546(3) 0.19447(16) 0.29439(6)
O2 O 1.1219(3) 0.56709(18) 0.61493(6)
O3 O 1.3513(3) 0.6659(2) 0.64750(7)
C1 C 1.0116(5) 0.8031(3) 0.68106(9)
H1 H 0.8796 0.8329 0.6859
H2 H 1.0958 0.8622 0.6710
H3 H 1.0683 0.7752 0.7044
C2 C 0.9979(4) 0.7095(3) 0.65331(8)
C3 C 0.8405(5) 0.6584(3) 0.63800(8)
H4 H 0.7073 0.6772 0.6431
C4 C 0.9047(4) 0.5667(3) 0.61152(8)
H5 H 0.8518 0.4937 0.6204
C5 C 0.8445(5) 0.5849(3) 0.57065(8)
H6 H 0.8894 0.6598 0.5629
H7 H 0.6988 0.5841 0.5691
C6 C 0.9270(5) 0.4979(2) 0.54257(7)
H8 H 1.0741 0.4987 0.5445
C7 C 0.8699(4) 0.5325(2) 0.50140(8)
H9 H 0.7228 0.5366 0.5002
C8 C 0.9405(4) 0.4567(2) 0.46769(8)
C9 C 0.9041(4) 0.5373(2) 0.43321(8)
C10 C 0.9776(4) 0.4844(2) 0.39619(7)
C11 C 0.9922(4) 0.3562(2) 0.39532(7)
H10 H 1.1125 0.3392 0.4104
C12 C 1.0406(4) 0.3069(2) 0.35500(7)
C13 C 0.9317(4) 0.3789(2) 0.32436(7)
H11 H 0.7919 0.3852 0.3329
C14 C 0.9212(4) 0.3286(2) 0.28330(8)
C15 C 0.8623(4) 0.2032(2) 0.28420(8)
H12 H 0.8801 0.1715 0.2587
C16 C 0.5717(5) 0.0865(3) 0.28786(11)
H13 H 0.5999 0.0634 0.2622
H14 H 0.4288 0.0894 0.2916
H15 H 0.6298 0.0328 0.3053
C17 C 0.7584(5) 0.3950(3) 0.26110(9)
H16 H 0.7366 0.3594 0.2369
H17 H 0.8023 0.4719 0.2573
H18 H 0.6351 0.3949 0.2753
C18 C 1.1188(5) 0.3387(3) 0.26005(9)
H19 H 1.2208 0.2921 0.2715
H20 H 1.1627 0.4164 0.2599
H21 H 1.0953 0.3140 0.2344
C19 C 0.9994(5) 0.5473(2) 0.36488(8)
H22 H 1.0043 0.6258 0.3677
C20 C 1.0164(5) 0.5000(2) 0.32560(8)
H23 H 1.1565 0.4993 0.3179
H24 H 0.9427 0.5479 0.3080
C21 C 1.1769(5) 0.6501(3) 0.63950(9)
C22 C 0.9523(5) 0.6516(2) 0.49018(8)
H25 H 0.8518 0.7096 0.4951
H26 H 1.0717 0.6694 0.5049
C23 C 1.0039(5) 0.6474(2) 0.44706(8)
H27 H 0.9493 0.7129 0.4339
H28 H 1.1483 0.6450 0.4431
C24 C 0.8249(5) 0.3450(2) 0.46055(8)
H29 H 0.6878 0.3544 0.4694
H30 H 0.8863 0.2853 0.4756
C25 C 0.8191(5) 0.3060(2) 0.41858(8)
H31 H 0.8266 0.2237 0.4176
H32 H 0.6922 0.3289 0.4073
C26 C 1.1673(4) 0.4336(2) 0.47338(8)
H33 H 1.1847 0.3646 0.4875
H34 H 1.2268 0.4956 0.4871
H35 H 1.2314 0.4263 0.4490
C27 C 0.6779(5) 0.5637(3) 0.42781(9)
H36 H 0.6271 0.6010 0.4501
H37 H 0.6056 0.4942 0.4238
H38 H 0.6608 0.6125 0.4062
C28 C 0.9680(4) 0.1833(2) 0.35195(8)
H39 H 1.0443 0.1366 0.3695
H40 H 0.8276 0.1795 0.3594
C29 C 0.9909(4) 0.1355(2) 0.31185(8)
H41 H 1.1309 0.1394 0.3042
H42 H 0.9498 0.0565 0.3115
C30 C 1.2713(4) 0.3104(3) 0.35108(8)
H43 H 1.3304 0.2567 0.3683
H44 H 1.3189 0.3854 0.3570
H45 H 1.3084 0.2913 0.3255
C31 C 0.8546(7) 0.3785(3) 0.55266(9)
H46 H 0.8979 0.3596 0.5779
H47 H 0.9099 0.3249 0.5349
H48 H 0.7104 0.3759 0.5515

#END
