./ABIMAZ_from_xyz.cif_generated_by_CrystalShift
_symmetry_cell_setting triclinic
_symmetry_space_group_name_H-M 'P 1'
loop_
_symmetry_equiv_pos_site_id
_symmetry_equiv_pos_as_xyz
1 x,y,z
_cell_length_a 9.465000
_cell_length_b 13.310000
_cell_length_c 9.111000
_cell_angle_alpha 90.000000
_cell_angle_beta 90.000000
_cell_angle_gamma 90.000000
_cell_volume 1147.796036
loop_
_atom_site_label
_atom_site_type_symbol
_atom_site_fract_x
_atom_site_fract_y
_atom_site_fract_z
Br1 Br 0.590500 0.315600 -0.054500
C2 C 0.417000 0.511000 0.423000
C3 C 0.271000 0.529000 0.463000
C4 C 0.528000 0.518000 0.531000
C5 C 0.508000 0.343000 0.127000
C6 C 0.400000 0.325300 0.325000
C7 C 0.439000 0.424200 0.317000
C8 C 0.575000 0.520800 0.125000
C9 C 0.397000 0.236500 0.558000
C10 C 0.305000 0.190000 0.679000
N11 N 0.509400 0.433200 0.189000
N12 N 0.442200 0.270200 0.208500
N13 N 0.327200 0.274800 0.445000
O14 O 0.524500 0.240100 0.568800
Br15 Br 1.090500 0.184400 1.054500
C16 C 0.917000 -0.011000 0.577000
C17 C 0.771000 -0.029000 0.537000
C18 C 1.028000 -0.018000 0.469000
C19 C 1.008000 0.157000 0.873000
C20 C 0.900000 0.174700 0.675000
C21 C 0.939000 0.075800 0.683000
C22 C 1.075000 -0.020800 0.875000
C23 C 0.897000 0.263500 0.442000
C24 C 0.805000 0.310000 0.321000
N25 N 1.009400 0.066800 0.811000
N26 N 0.942200 0.229800 0.791500
N27 N 0.827200 0.225200 0.555000
O28 O 1.024500 0.259900 0.431200
Br29 Br 0.409500 0.815600 0.554500
C30 C 0.583000 1.011000 0.077000
C31 C 0.729000 1.029000 0.037000
C32 C 0.472000 1.018000 -0.031000
C33 C 0.492000 0.843000 0.373000
C34 C 0.600000 0.825300 0.175000
C35 C 0.561000 0.924200 0.183000
C36 C 0.425000 1.020800 0.375000
C37 C 0.603000 0.736500 -0.058000
C38 C 0.695000 0.690000 -0.179000
N39 N 0.490600 0.933200 0.311000
N40 N 0.557800 0.770200 0.291500
N41 N 0.672800 0.774800 0.055000
O42 O 0.475500 0.740100 -0.068800
Br43 Br -0.090500 0.684400 0.445500
C44 C 0.083000 0.489000 0.923000
C45 C 0.229000 0.471000 0.963000
C46 C -0.028000 0.482000 1.031000
C47 C -0.008000 0.657000 0.627000
C48 C 0.100000 0.674700 0.825000
C49 C 0.061000 0.575800 0.817000
C50 C -0.075000 0.479200 0.625000
C51 C 0.103000 0.763500 1.058000
C52 C 0.195000 0.810000 1.179000
N53 N -0.009400 0.566800 0.689000
N54 N 0.057800 0.729800 0.708500
N55 N 0.172800 0.725200 0.945000
O56 O -0.024500 0.759900 1.068800

#END
