
#######################################################################
#
#                 Cambridge Crystallographic Data Centre
#                                CCDC 
#
#######################################################################
#
# If this CIF has been generated from an entry in the Cambridge 
# Structural Database, then it will include bibliographic, chemical, 
# crystal, experimental, refinement or atomic coordinate data resulting 
# from the CCDC's data processing and validation procedures.
#
#######################################################################

data_ABINOS01
_symmetry_cell_setting           orthorhombic
_symmetry_space_group_name_H-M   'P 21 21 21'
_symmetry_Int_Tables_number      19
_space_group_name_Hall           'P 2ac 2ab'
loop_
_symmetry_equiv_pos_site_id
_symmetry_equiv_pos_as_xyz
1 x,y,z
2 1/2+x,1/2-y,-z
3 -x,1/2+y,1/2-z
4 1/2-x,-y,1/2+z
_cell_length_a                   6.514(2)
_cell_length_b                   19.453(4)
_cell_length_c                   4.836(1)
_cell_angle_alpha                90
_cell_angle_beta                 90
_cell_angle_gamma                90
_cell_volume                     612.803
loop_
_atom_site_label
_atom_site_type_symbol
_atom_site_fract_x
_atom_site_fract_y
_atom_site_fract_z
C1 C 0.74386 0.41714 0.19021
C2 C 0.68154 0.34626 0.29619
C3 C 0.49853 0.31985 0.13306
C4 C 0.32250 0.37179 0.14786
C5 C 0.40011 0.44153 0.05374
O1 O 0.81483 0.41002 -0.08116
O2 O 0.85460 0.30199 0.27115
O3 O 0.43902 0.25464 0.23669
O4 O 0.24624 0.37734 0.42224
O5 O 0.57532 0.46298 0.21049
H1 H 0.86347 0.43920 0.32467
H2 H 0.63934 0.35189 0.51496
H3 H 0.54378 0.31404 -0.08515
H4 H 0.20071 0.35596 0.00644
H5 H 0.28313 0.48097 0.08321
H6 H 0.43973 0.43909 -0.16706
H7 H 0.86758 0.45297 -0.14326
H8 H 0.86576 0.27370 0.43787
H9 H 0.40421 0.22625 0.07717
H10 H 0.13735 0.34753 0.44009
C1 C 0.24386 0.08286 0.80979
C2 C 0.18154 0.15374 0.70381
C3 C -0.00147 0.18015 0.86694
C4 C -0.17750 0.12821 0.85214
C5 C -0.09989 0.05847 0.94626
O1 O 0.31483 0.08998 1.08116
O2 O 0.35460 0.19801 0.72885
O3 O -0.06098 0.24536 0.76331
O4 O -0.25376 0.12266 0.57776
O5 O 0.07532 0.03702 0.78951
H1 H 0.36347 0.06080 0.67533
H2 H 0.13934 0.14811 0.48504
H3 H 0.04378 0.18596 1.08515
H4 H -0.29929 0.14404 0.99356
H5 H -0.21687 0.01903 0.91679
H6 H -0.06027 0.06091 1.16706
H7 H 0.36758 0.04703 1.14326
H8 H 0.36576 0.22630 0.56213
H9 H -0.09579 0.27375 0.92283
H10 H -0.36265 0.15247 0.55991
C1 C 0.25614 0.91714 0.30979
C2 C 0.31846 0.84626 0.20381
C3 C 0.50147 0.81985 0.36694
C4 C 0.67750 0.87179 0.35214
C5 C 0.59989 0.94153 0.44626
O1 O 0.18517 0.91002 0.58116
O2 O 0.14540 0.80199 0.22885
O3 O 0.56098 0.75464 0.26331
O4 O 0.75376 0.87734 0.07776
O5 O 0.42468 0.96298 0.28951
H1 H 0.13653 0.93920 0.17533
H2 H 0.36066 0.85189 -0.01496
H3 H 0.45622 0.81404 0.58515
H4 H 0.79929 0.85596 0.49356
H5 H 0.71687 0.98097 0.41679
H6 H 0.56027 0.93909 0.66706
H7 H 0.13242 0.95297 0.64326
H8 H 0.13424 0.77370 0.06213
H9 H 0.59579 0.72625 0.42283
H10 H 0.86265 0.84753 0.05991
C1 C 0.75614 0.58286 0.69021
C2 C 0.81846 0.65374 0.79619
C3 C 1.00147 0.68015 0.63306
C4 C 1.17750 0.62821 0.64786
C5 C 1.09989 0.55847 0.55374
O1 O 0.68517 0.58998 0.41884
O2 O 0.64540 0.69801 0.77115
O3 O 1.06098 0.74536 0.73669
O4 O 1.25376 0.62266 0.92224
O5 O 0.92468 0.53702 0.71049
H1 H 0.63653 0.56080 0.82467
H2 H 0.86066 0.64811 1.01496
H3 H 0.95622 0.68596 0.41485
H4 H 1.29929 0.64404 0.50644
H5 H 1.21687 0.51903 0.58321
H6 H 1.06027 0.56091 0.33294
H7 H 0.63242 0.54703 0.35674
H8 H 0.63424 0.72630 0.93787
H9 H 1.09579 0.77375 0.57717
H10 H 1.36265 0.65247 0.94009

#END
