
#######################################################################
#
#                 Cambridge Crystallographic Data Centre
#                                CCDC 
#
#######################################################################
#
# If this CIF has been generated from an entry in the Cambridge 
# Structural Database, then it will include bibliographic, chemical, 
# crystal, experimental, refinement or atomic coordinate data resulting 
# from the CCDC's data processing and validation procedures.
#
#######################################################################

data_ABINOR01
_symmetry_cell_setting           monoclinic
_symmetry_space_group_name_H-M   'P 21/c'
_symmetry_Int_Tables_number      14
_space_group_name_Hall           '-P 2ybc'
loop_
_symmetry_equiv_pos_site_id
_symmetry_equiv_pos_as_xyz
1 x,y,z
2 -x,1/2+y,1/2-z
3 -x,-y,-z
4 x,1/2-y,1/2+z
_cell_length_a                   5.916(3)
_cell_length_b                   7.813(3)
_cell_length_c                   13.339(6)
_cell_angle_alpha                90
_cell_angle_beta                 99.57(1)
_cell_angle_gamma                90
_cell_volume                     607.971
loop_
_atom_site_label
_atom_site_type_symbol
_atom_site_fract_x
_atom_site_fract_y
_atom_site_fract_z
C1 C 0.93729 0.06863 0.62858
C2 C 0.82956 0.13572 0.71761
C3 C 0.58431 0.19402 0.67806
C4 C 0.58496 0.33049 0.59570
C5 C 0.70459 0.25834 0.51255
O1 O 0.82053 -0.07830 0.59071
O2 O 0.84065 0.01208 0.79583
O3 O 0.47704 0.26031 0.75736
O4 O 0.68582 0.48710 0.63538
O5 O 0.93308 0.19977 0.55370
H1 H 1.12162 0.04260 0.65384
H2 H 0.93151 0.24566 0.75100
H3 H 0.48687 0.08309 0.64260
H4 H 0.40691 0.36111 0.56198
H5 H 0.60368 0.15330 0.47336
H6 H 0.72859 0.35692 0.45696
H7 H 0.90517 -0.13521 0.54389
H8 H 0.73545 -0.08285 0.77232
H9 H 0.43742 0.16692 0.79947
H10 H 0.85295 0.47805 0.64911
C1 C 0.06271 0.56863 0.87142
C2 C 0.17044 0.63572 0.78239
C3 C 0.41569 0.69402 0.82194
C4 C 0.41504 0.83049 0.90430
C5 C 0.29541 0.75834 0.98745
O1 O 0.17947 0.42170 0.90929
O2 O 0.15935 0.51208 0.70417
O3 O 0.52296 0.76031 0.74264
O4 O 0.31418 0.98710 0.86462
O5 O 0.06692 0.69977 0.94630
H1 H -0.12162 0.54260 0.84616
H2 H 0.06849 0.74566 0.74900
H3 H 0.51313 0.58309 0.85740
H4 H 0.59309 0.86111 0.93802
H5 H 0.39632 0.65330 1.02664
H6 H 0.27141 0.85692 1.04304
H7 H 0.09483 0.36479 0.95611
H8 H 0.26455 0.41715 0.72768
H9 H 0.56258 0.66692 0.70053
H10 H 0.14705 0.97805 0.85089
C1 C 0.06271 0.93137 0.37142
C2 C 0.17044 0.86428 0.28239
C3 C 0.41569 0.80598 0.32194
C4 C 0.41504 0.66951 0.40430
C5 C 0.29541 0.74166 0.48745
O1 O 0.17947 1.07830 0.40929
O2 O 0.15935 0.98792 0.20417
O3 O 0.52296 0.73969 0.24264
O4 O 0.31418 0.51290 0.36462
O5 O 0.06692 0.80023 0.44630
H1 H -0.12162 0.95740 0.34616
H2 H 0.06849 0.75434 0.24900
H3 H 0.51313 0.91691 0.35740
H4 H 0.59309 0.63889 0.43802
H5 H 0.39632 0.84670 0.52664
H6 H 0.27141 0.64308 0.54304
H7 H 0.09483 1.13521 0.45611
H8 H 0.26455 1.08285 0.22768
H9 H 0.56258 0.83308 0.20053
H10 H 0.14705 0.52195 0.35089
C1 C 0.93729 0.43137 0.12858
C2 C 0.82956 0.36428 0.21761
C3 C 0.58431 0.30598 0.17806
C4 C 0.58496 0.16951 0.09570
C5 C 0.70459 0.24166 0.01255
O1 O 0.82053 0.57830 0.09071
O2 O 0.84065 0.48792 0.29583
O3 O 0.47704 0.23969 0.25736
O4 O 0.68582 0.01290 0.13538
O5 O 0.93308 0.30023 0.05370
H1 H 1.12162 0.45740 0.15384
H2 H 0.93151 0.25434 0.25100
H3 H 0.48687 0.41691 0.14260
H4 H 0.40691 0.13889 0.06198
H5 H 0.60368 0.34670 -0.02664
H6 H 0.72859 0.14308 -0.04304
H7 H 0.90517 0.63521 0.04389
H8 H 0.73545 0.58285 0.27232
H9 H 0.43742 0.33308 0.29947
H10 H 0.85295 0.02195 0.14911

#END
