
#######################################################################
#
#                 Cambridge Crystallographic Data Centre
#                                CCDC 
#
#######################################################################
#
# If this CIF has been generated from an entry in the Cambridge 
# Structural Database, then it will include bibliographic, chemical, 
# crystal, experimental, refinement or atomic coordinate data resulting 
# from the CCDC's data processing and validation procedures.
#
#######################################################################

data_ABINOO
_symmetry_cell_setting           orthorhombic
_symmetry_space_group_name_H-M   'P 21 21 21'
_symmetry_Int_Tables_number      19
_space_group_name_Hall           'P 2ac 2ab'
loop_
_symmetry_equiv_pos_site_id
_symmetry_equiv_pos_as_xyz
1 x,y,z
2 1/2-x,-y,1/2+z
3 1/2+x,1/2-y,-z
4 -x,1/2+y,1/2-z
_cell_length_a                   8.154(6)
_cell_length_b                   9.773(4)
_cell_length_c                   27.519(18)
_cell_angle_alpha                90
_cell_angle_beta                 90
_cell_angle_gamma                90
_cell_volume                     2192.96
loop_
_atom_site_label
_atom_site_type_symbol
_atom_site_fract_x
_atom_site_fract_y
_atom_site_fract_z
C1 C 0.5372(3) 0.9361(3) 0.68923(12)
H1 H 0.4841(3) 0.9894(3) 0.66603(12)
C2 C 0.4526(3) 0.9224(3) 0.72995(13)
H2 H 0.3577(3) 0.9749(3) 0.73179(13)
C3 C 0.4854(3) 0.8373(3) 0.77241(13)
C4 C 0.7888(3) 0.8652(3) 0.76645(11)
C5 C 0.8144(3) 0.8250(2) 0.71302(10)
C6 C 0.9803(3) 0.7829(3) 0.69889(10)
H3 H 1.0613(37) 0.7859(28) 0.7238(11)
C7 C 1.0497(3) 0.7822(3) 0.64875(11)
C8 C 0.7963(3) 0.7226(3) 0.60029(10)
C9 C 0.6612(3) 0.7765(3) 0.63256(10)
H4 H 0.5875(3) 0.8252(3) 0.61035(10)
C10 C 0.7027(3) 0.8832(3) 0.67248(10)
C11 C 0.5603(3) 0.6504(3) 0.64970(11)
H5 H 0.6303(3) 0.5893(3) 0.66817(11)
H6 H 0.4717(3) 0.6803(3) 0.67070(11)
C12 C 0.4900(3) 0.5748(3) 0.60598(12)
H7 H 0.4113(3) 0.6339(3) 0.58995(12)
H8 H 0.4314(3) 0.4947(3) 0.61746(12)
C13 C 0.6186(3) 0.5289(3) 0.56846(11)
C14 C 0.7327(3) 0.6505(3) 0.55630(10)
H9 H 0.8268(3) 0.6152(3) 0.53802(10)
C15 C 0.6266(4) 0.7329(4) 0.52170(12)
C16 C 0.5327(4) 0.5089(4) 0.51840(13)
H10 H 0.4217(4) 0.4741(4) 0.52420(13)
C17 C 0.7124(5) 0.4042(3) 0.58590(14)
H11 H 0.8028(18) 0.3870(15) 0.5644(5)
H12 H 0.6407(9) 0.3263(6) 0.5862(8)
H13 H 0.7530(25) 0.4205(10) 0.6181(4)
C18 C 0.7862(4) 1.0091(3) 0.64856(13)
H14 H 0.8952(10) 0.9850(7) 0.6385(7)
H15 H 0.7915(22) 1.0827(7) 0.6716(3)
H16 H 0.7236(14) 1.0375(13) 0.6208(5)
C19 C 0.6144(5) 0.4183(4) 0.48179(14)
C20 C 0.5959(7) 0.2804(6) 0.4768(2)
H17 H 0.5292(7) 0.2251(6) 0.4959(2)
C21 C 0.7320(7) 0.4531(5) 0.4462(2)
H18 H 0.7754(7) 0.5400(5) 0.4412(2)
C22 C 0.7701(7) 0.3437(5) 0.4213(2)
H19 H 0.8421(7) 0.3423(5) 0.3951(2)
C23 C 0.9144(4) 0.8017(4) 0.80073(13)
H20 H 1.0200(7) 0.8420(18) 0.7949(6)
H21 H 0.9201(21) 0.7049(6) 0.7951(6)
H22 H 0.8822(16) 0.8184(22) 0.83376(13)
C24 C 0.7875(4) 1.0176(3) 0.77437(13)
H23 H 0.8931(9) 1.0546(4) 0.7663(8)
H24 H 0.7632(27) 1.0368(3) 0.8078(2)
H25 H 0.7055(19) 1.0586(4) 0.7540(6)
C25 C 0.9593(3) 0.7261(3) 0.60742(10)
H26 H 1.0229(3) 0.6878(3) 0.58287(10)
O1 O 0.3757(3) 0.7931(3) 0.79751(11)
O2 O 0.6383(2) 0.7992(2) 0.78422(8)
O3 O 0.8561(2) 0.6808(2) 0.70963(8)
O4 O 1.1915(2) 0.8184(3) 0.64383(9)
O5 O 0.6308(3) 0.8512(3) 0.51215(9)
O6 O 0.5198(3) 0.6472(3) 0.49910(9)
O7 O 0.6930(6) 0.2357(5) 0.4384(2)
C1 C 0.9628(3) 0.0639(3) 0.18923(12)
H1 H 1.0159(3) 0.0106(3) 0.16603(12)
C2 C 1.0474(3) 0.0776(3) 0.22995(13)
H2 H 1.1423(3) 0.0251(3) 0.23179(13)
C3 C 1.0146(3) 0.1627(3) 0.27241(13)
C4 C 0.7112(3) 0.1348(3) 0.26645(11)
C5 C 0.6856(3) 0.1750(2) 0.21302(10)
C6 C 0.5197(3) 0.2171(3) 0.19889(10)
H3 H 0.4387(37) 0.2141(28) 0.2238(11)
C7 C 0.4503(3) 0.2178(3) 0.14875(11)
C8 C 0.7037(3) 0.2774(3) 0.10029(10)
C9 C 0.8388(3) 0.2235(3) 0.13256(10)
H4 H 0.9125(3) 0.1748(3) 0.11035(10)
C10 C 0.7973(3) 0.1168(3) 0.17248(10)
C11 C 0.9397(3) 0.3496(3) 0.14970(11)
H5 H 0.8697(3) 0.4107(3) 0.16817(11)
H6 H 1.0283(3) 0.3197(3) 0.17070(11)
C12 C 1.0100(3) 0.4252(3) 0.10598(12)
H7 H 1.0887(3) 0.3661(3) 0.08995(12)
H8 H 1.0686(3) 0.5053(3) 0.11746(12)
C13 C 0.8814(3) 0.4711(3) 0.06846(11)
C14 C 0.7673(3) 0.3495(3) 0.05630(10)
H9 H 0.6732(3) 0.3848(3) 0.03802(10)
C15 C 0.8734(4) 0.2671(4) 0.02170(12)
C16 C 0.9673(4) 0.4911(4) 0.01840(13)
H10 H 1.0783(4) 0.5259(4) 0.02420(13)
C17 C 0.7876(5) 0.5958(3) 0.08590(14)
H11 H 0.6972(18) 0.6130(15) 0.0644(5)
H12 H 0.8593(9) 0.6737(6) 0.0862(8)
H13 H 0.7470(25) 0.5795(10) 0.1181(4)
C18 C 0.7138(4) -0.0091(3) 0.14856(13)
H14 H 0.6048(10) 0.0150(7) 0.1385(7)
H15 H 0.7085(22) -0.0827(7) 0.1716(3)
H16 H 0.7764(14) -0.0375(13) 0.1208(5)
C19 C 0.8856(5) 0.5817(4) -0.01821(14)
C20 C 0.9041(7) 0.7196(6) -0.0232(2)
H17 H 0.9708(7) 0.7749(6) -0.0041(2)
C21 C 0.7680(7) 0.5469(5) -0.0538(2)
H18 H 0.7246(7) 0.4600(5) -0.0588(2)
C22 C 0.7299(7) 0.6563(5) -0.0787(2)
H19 H 0.6579(7) 0.6577(5) -0.1049(2)
C23 C 0.5856(4) 0.1983(4) 0.30073(13)
H20 H 0.4800(7) 0.1580(18) 0.2949(6)
H21 H 0.5799(21) 0.2951(6) 0.2951(6)
H22 H 0.6178(16) 0.1816(22) 0.33376(13)
C24 C 0.7125(4) -0.0176(3) 0.27437(13)
H23 H 0.6069(9) -0.0546(4) 0.2663(8)
H24 H 0.7368(27) -0.0368(3) 0.3078(2)
H25 H 0.7945(19) -0.0586(4) 0.2540(6)
C25 C 0.5407(3) 0.2739(3) 0.10742(10)
H26 H 0.4771(3) 0.3122(3) 0.08287(10)
O1 O 1.1243(3) 0.2069(3) 0.29751(11)
O2 O 0.8617(2) 0.2008(2) 0.28422(8)
O3 O 0.6439(2) 0.3192(2) 0.20963(8)
O4 O 0.3085(2) 0.1816(3) 0.14383(9)
O5 O 0.8692(3) 0.1488(3) 0.01215(9)
O6 O 0.9802(3) 0.3528(3) -0.00090(9)
O7 O 0.8070(6) 0.7643(5) -0.0616(2)
C1 C 0.0372(3) 0.5639(3) 0.31077(12)
H1 H -0.0159(3) 0.5106(3) 0.33397(12)
C2 C -0.0474(3) 0.5776(3) 0.27005(13)
H2 H -0.1423(3) 0.5251(3) 0.26821(13)
C3 C -0.0146(3) 0.6627(3) 0.22759(13)
C4 C 0.2888(3) 0.6348(3) 0.23355(11)
C5 C 0.3144(3) 0.6750(2) 0.28698(10)
C6 C 0.4803(3) 0.7171(3) 0.30111(10)
H3 H 0.5613(37) 0.7141(28) 0.2762(11)
C7 C 0.5497(3) 0.7178(3) 0.35125(11)
C8 C 0.2963(3) 0.7774(3) 0.39971(10)
C9 C 0.1612(3) 0.7235(3) 0.36744(10)
H4 H 0.0875(3) 0.6748(3) 0.38965(10)
C10 C 0.2027(3) 0.6168(3) 0.32752(10)
C11 C 0.0603(3) 0.8496(3) 0.35030(11)
H5 H 0.1303(3) 0.9107(3) 0.33183(11)
H6 H -0.0283(3) 0.8197(3) 0.32930(11)
C12 C -0.0100(3) 0.9252(3) 0.39402(12)
H7 H -0.0887(3) 0.8661(3) 0.41005(12)
H8 H -0.0686(3) 1.0053(3) 0.38254(12)
C13 C 0.1186(3) 0.9711(3) 0.43154(11)
C14 C 0.2327(3) 0.8495(3) 0.44370(10)
H9 H 0.3268(3) 0.8848(3) 0.46198(10)
C15 C 0.1266(4) 0.7671(4) 0.47830(12)
C16 C 0.0327(4) 0.9911(4) 0.48160(13)
H10 H -0.0783(4) 1.0259(4) 0.47580(13)
C17 C 0.2124(5) 1.0958(3) 0.41410(14)
H11 H 0.3028(18) 1.1130(15) 0.4356(5)
H12 H 0.1407(9) 1.1737(6) 0.4138(8)
H13 H 0.2530(25) 1.0795(10) 0.3819(4)
C18 C 0.2862(4) 0.4909(3) 0.35144(13)
H14 H 0.3952(10) 0.5150(7) 0.3615(7)
H15 H 0.2915(22) 0.4173(7) 0.3284(3)
H16 H 0.2236(14) 0.4625(13) 0.3792(5)
C19 C 0.1144(5) 1.0817(4) 0.51821(14)
C20 C 0.0959(7) 1.2196(6) 0.5232(2)
H17 H 0.0292(7) 1.2749(6) 0.5041(2)
C21 C 0.2320(7) 1.0469(5) 0.5538(2)
H18 H 0.2754(7) 0.9600(5) 0.5588(2)
C22 C 0.2701(7) 1.1563(5) 0.5787(2)
H19 H 0.3421(7) 1.1577(5) 0.6049(2)
C23 C 0.4144(4) 0.6983(4) 0.19927(13)
H20 H 0.5200(7) 0.6580(18) 0.2051(6)
H21 H 0.4201(21) 0.7951(6) 0.2049(6)
H22 H 0.3822(16) 0.6816(22) 0.16624(13)
C24 C 0.2875(4) 0.4824(3) 0.22563(13)
H23 H 0.3931(9) 0.4454(4) 0.2337(8)
H24 H 0.2632(27) 0.4632(3) 0.1922(2)
H25 H 0.2055(19) 0.4414(4) 0.2460(6)
C25 C 0.4593(3) 0.7739(3) 0.39258(10)
H26 H 0.5229(3) 0.8122(3) 0.41713(10)
O1 O -0.1243(3) 0.7069(3) 0.20249(11)
O2 O 0.1383(2) 0.7008(2) 0.21578(8)
O3 O 0.3561(2) 0.8192(2) 0.29037(8)
O4 O 0.6915(2) 0.6816(3) 0.35617(9)
O5 O 0.1308(3) 0.6488(3) 0.48785(9)
O6 O 0.0198(3) 0.8528(3) 0.50090(9)
O7 O 0.1930(6) 1.2643(5) 0.5616(2)
C1 C 0.4628(3) 0.4361(3) 0.81077(12)
H1 H 0.5159(3) 0.4894(3) 0.83397(12)
C2 C 0.5474(3) 0.4224(3) 0.77005(13)
H2 H 0.6423(3) 0.4749(3) 0.76821(13)
C3 C 0.5146(3) 0.3373(3) 0.72759(13)
C4 C 0.2112(3) 0.3652(3) 0.73355(11)
C5 C 0.1856(3) 0.3250(2) 0.78698(10)
C6 C 0.0197(3) 0.2829(3) 0.80111(10)
H3 H -0.0613(37) 0.2859(28) 0.7762(11)
C7 C -0.0497(3) 0.2822(3) 0.85125(11)
C8 C 0.2037(3) 0.2226(3) 0.89971(10)
C9 C 0.3388(3) 0.2765(3) 0.86744(10)
H4 H 0.4125(3) 0.3252(3) 0.88965(10)
C10 C 0.2973(3) 0.3832(3) 0.82752(10)
C11 C 0.4397(3) 0.1504(3) 0.85030(11)
H5 H 0.3697(3) 0.0893(3) 0.83183(11)
H6 H 0.5283(3) 0.1803(3) 0.82930(11)
C12 C 0.5100(3) 0.0748(3) 0.89402(12)
H7 H 0.5887(3) 0.1339(3) 0.91005(12)
H8 H 0.5686(3) -0.0053(3) 0.88254(12)
C13 C 0.3814(3) 0.0289(3) 0.93154(11)
C14 C 0.2673(3) 0.1505(3) 0.94370(10)
H9 H 0.1732(3) 0.1152(3) 0.96198(10)
C15 C 0.3734(4) 0.2329(4) 0.97830(12)
C16 C 0.4673(4) 0.0089(4) 0.98160(13)
H10 H 0.5783(4) -0.0259(4) 0.97580(13)
C17 C 0.2876(5) -0.0958(3) 0.91410(14)
H11 H 0.1972(18) -0.1130(15) 0.9356(5)
H12 H 0.3593(9) -0.1737(6) 0.9138(8)
H13 H 0.2470(25) -0.0795(10) 0.8819(4)
C18 C 0.2138(4) 0.5091(3) 0.85144(13)
H14 H 0.1048(10) 0.4850(7) 0.8615(7)
H15 H 0.2085(22) 0.5827(7) 0.8284(3)
H16 H 0.2764(14) 0.5375(13) 0.8792(5)
C19 C 0.3856(5) -0.0817(4) 1.01821(14)
C20 C 0.4041(7) -0.2196(6) 1.0232(2)
H17 H 0.4708(7) -0.2749(6) 1.0041(2)
C21 C 0.2680(7) -0.0469(5) 1.0538(2)
H18 H 0.2246(7) 0.0400(5) 1.0588(2)
C22 C 0.2299(7) -0.1563(5) 1.0787(2)
H19 H 0.1579(7) -0.1577(5) 1.1049(2)
C23 C 0.0856(4) 0.3017(4) 0.69927(13)
H20 H -0.0200(7) 0.3420(18) 0.7051(6)
H21 H 0.0799(21) 0.2049(6) 0.7049(6)
H22 H 0.1178(16) 0.3184(22) 0.66624(13)
C24 C 0.2125(4) 0.5176(3) 0.72563(13)
H23 H 0.1069(9) 0.5546(4) 0.7337(8)
H24 H 0.2368(27) 0.5368(3) 0.6922(2)
H25 H 0.2945(19) 0.5586(4) 0.7460(6)
C25 C 0.0407(3) 0.2261(3) 0.89258(10)
H26 H -0.0229(3) 0.1878(3) 0.91713(10)
O1 O 0.6243(3) 0.2931(3) 0.70249(11)
O2 O 0.3617(2) 0.2992(2) 0.71578(8)
O3 O 0.1439(2) 0.1808(2) 0.79037(8)
O4 O -0.1915(2) 0.3184(3) 0.85617(9)
O5 O 0.3692(3) 0.3512(3) 0.98785(9)
O6 O 0.4802(3) 0.1472(3) 1.00090(9)
O7 O 0.3070(6) -0.2643(5) 1.0616(2)

#END
