./ABINOR_from_xyz.cif_generated_by_CrystalShift
_symmetry_cell_setting triclinic
_symmetry_space_group_name_H-M 'P 1'
loop_
_symmetry_equiv_pos_site_id
_symmetry_equiv_pos_as_xyz
1 x,y,z
_cell_length_a 5.925000
_cell_length_b 7.820000
_cell_length_c 13.354000
_cell_angle_alpha 90.000000
_cell_angle_beta 99.450000
_cell_angle_gamma 90.000000
_cell_volume 610.340817
loop_
_atom_site_label
_atom_site_type_symbol
_atom_site_fract_x
_atom_site_fract_y
_atom_site_fract_z
C1 C 0.937500 0.068000 0.628500
C2 C 0.830000 0.135000 0.717400
C3 C 0.585200 0.193700 0.677900
C4 C 0.585700 0.330200 0.595700
C5 C 0.704600 0.258900 0.512800
H6 H 1.105000 0.033000 0.646000
H7 H 0.921000 -0.120000 0.555000
H8 H 0.930000 0.228000 0.747000
H9 H 0.720000 -0.080000 0.776000
H10 H 0.514000 0.099000 0.650000
H11 H 0.456000 0.157000 0.770000
H12 H 0.430000 0.362000 0.566000
H13 H 0.830000 0.490000 0.643000
H14 H 0.620000 0.168000 0.477000
H15 H 0.720000 0.350000 0.470000
O16 O 0.819100 -0.078400 0.590500
O17 O 0.840000 0.011200 0.795600
O18 O 0.477500 0.261000 0.757700
O19 O 0.686100 0.486900 0.635600
O20 O 0.933200 0.200000 0.553600
C21 C 0.062500 0.568000 0.871500
C22 C 0.170000 0.635000 0.782600
C23 C 0.414800 0.693700 0.822100
C24 C 0.414300 0.830200 0.904300
C25 C 0.295400 0.758900 0.987200
H26 H -0.105000 0.533000 0.854000
H27 H 0.079000 0.380000 0.945000
H28 H 0.070000 0.728000 0.753000
H29 H 0.280000 0.420000 0.724000
H30 H 0.486000 0.599000 0.850000
H31 H 0.544000 0.657000 0.730000
H32 H 0.570000 0.862000 0.934000
H33 H 0.170000 0.990000 0.857000
H34 H 0.380000 0.668000 1.023000
H35 H 0.280000 0.850000 1.030000
O36 O 0.180900 0.421600 0.909500
O37 O 0.160000 0.511200 0.704400
O38 O 0.522500 0.761000 0.742300
O39 O 0.313900 0.986900 0.864400
O40 O 0.066800 0.700000 0.946400
C41 C 0.062500 0.932000 0.371500
C42 C 0.170000 0.865000 0.282600
C43 C 0.414800 0.806300 0.322100
C44 C 0.414300 0.669800 0.404300
C45 C 0.295400 0.741100 0.487200
H46 H -0.105000 0.967000 0.354000
H47 H 0.079000 1.120000 0.445000
H48 H 0.070000 0.772000 0.253000
H49 H 0.280000 1.080000 0.224000
H50 H 0.486000 0.901000 0.350000
H51 H 0.544000 0.843000 0.230000
H52 H 0.570000 0.638000 0.434000
H53 H 0.170000 0.510000 0.357000
H54 H 0.380000 0.832000 0.523000
H55 H 0.280000 0.650000 0.530000
O56 O 0.180900 1.078400 0.409500
O57 O 0.160000 0.988800 0.204400
O58 O 0.522500 0.739000 0.242300
O59 O 0.313900 0.513100 0.364400
O60 O 0.066800 0.800000 0.446400
C61 C 0.937500 0.432000 0.128500
C62 C 0.830000 0.365000 0.217400
C63 C 0.585200 0.306300 0.177900
C64 C 0.585700 0.169800 0.095700
C65 C 0.704600 0.241100 0.012800
H66 H 1.105000 0.467000 0.146000
H67 H 0.921000 0.620000 0.055000
H68 H 0.930000 0.272000 0.247000
H69 H 0.720000 0.580000 0.276000
H70 H 0.514000 0.401000 0.150000
H71 H 0.456000 0.343000 0.270000
H72 H 0.430000 0.138000 0.066000
H73 H 0.830000 0.010000 0.143000
H74 H 0.620000 0.332000 -0.023000
H75 H 0.720000 0.150000 -0.030000
O76 O 0.819100 0.578400 0.090500
O77 O 0.840000 0.488800 0.295600
O78 O 0.477500 0.239000 0.257700
O79 O 0.686100 0.013100 0.135600
O80 O 0.933200 0.300000 0.053600

#END
