./ABINOO_from_xyz.cif_generated_by_CrystalShift
_symmetry_cell_setting triclinic
_symmetry_space_group_name_H-M 'P 1'
loop_
_symmetry_equiv_pos_site_id
_symmetry_equiv_pos_as_xyz
1 x,y,z
_cell_length_a 8.154000
_cell_length_b 9.773000
_cell_length_c 27.519000
_cell_angle_alpha 90.000000
_cell_angle_beta 90.000000
_cell_angle_gamma 90.000000
_cell_volume 2192.962747
loop_
_atom_site_label
_atom_site_type_symbol
_atom_site_fract_x
_atom_site_fract_y
_atom_site_fract_z
C1 C 0.537200 0.936100 0.689230
H2 H 0.484100 0.989400 0.666030
C3 C 0.452600 0.922400 0.729950
H4 H 0.357700 0.974900 0.731790
C5 C 0.485400 0.837300 0.772410
C6 C 0.788800 0.865200 0.766450
C7 C 0.814400 0.825000 0.713020
C8 C 0.980300 0.782900 0.698890
H9 H 1.061300 0.785900 0.723800
C10 C 1.049700 0.782200 0.648750
C11 C 0.796300 0.722600 0.600290
C12 C 0.661200 0.776500 0.632560
H13 H 0.587500 0.825200 0.610350
C14 C 0.702700 0.883200 0.672480
C15 C 0.560300 0.650400 0.649700
H16 H 0.630300 0.589300 0.668170
H17 H 0.471700 0.680300 0.670700
C18 C 0.490000 0.574800 0.605980
H19 H 0.411300 0.633900 0.589950
H20 H 0.431400 0.494700 0.617460
C21 C 0.618600 0.528900 0.568460
C22 C 0.732700 0.650500 0.556300
H23 H 0.826800 0.615200 0.538020
C24 C 0.626600 0.732900 0.521700
C25 C 0.532700 0.508900 0.518400
H26 H 0.421700 0.474100 0.524200
C27 C 0.712400 0.404200 0.585900
H28 H 0.802800 0.387000 0.564400
H29 H 0.640700 0.326300 0.586200
H30 H 0.753000 0.420500 0.618100
C31 C 0.786200 1.009100 0.648560
H32 H 0.895200 0.985000 0.638500
H33 H 0.791500 1.082700 0.671600
H34 H 0.723600 1.037500 0.620800
C35 C 0.614400 0.418300 0.481790
C36 C 0.595900 0.280400 0.476800
H37 H 0.529200 0.225100 0.495900
C38 C 0.732000 0.453100 0.446200
H39 H 0.775400 0.540000 0.441200
C40 C 0.770100 0.343700 0.421300
H41 H 0.842100 0.342300 0.395100
C42 C 0.914400 0.801700 0.800730
H43 H 1.020000 0.842000 0.794900
H44 H 0.920100 0.704900 0.795100
H45 H 0.882200 0.818400 0.833760
C46 C 0.787500 1.017600 0.774370
H47 H 0.893100 1.054600 0.766300
H48 H 0.763200 1.036800 0.807800
H49 H 0.705500 1.058600 0.754000
C50 C 0.959300 0.726100 0.607420
H51 H 1.022900 0.687800 0.582870
O52 O 0.375700 0.793100 0.797510
O53 O 0.638300 0.799200 0.784220
O54 O 0.856100 0.680800 0.709630
O55 O 1.191500 0.818400 0.643830
O56 O 0.630800 0.851200 0.512150
O57 O 0.519800 0.647200 0.499100
O58 O 0.693000 0.235700 0.438400
C59 C 0.962800 0.063900 0.189230
H60 H 1.015900 0.010600 0.166030
C61 C 1.047400 0.077600 0.229950
H62 H 1.142300 0.025100 0.231790
C63 C 1.014600 0.162700 0.272410
C64 C 0.711200 0.134800 0.266450
C65 C 0.685600 0.175000 0.213020
C66 C 0.519700 0.217100 0.198890
H67 H 0.438700 0.214100 0.223800
C68 C 0.450300 0.217800 0.148750
C69 C 0.703700 0.277400 0.100290
C70 C 0.838800 0.223500 0.132560
H71 H 0.912500 0.174800 0.110350
C72 C 0.797300 0.116800 0.172480
C73 C 0.939700 0.349600 0.149700
H74 H 0.869700 0.410700 0.168170
H75 H 1.028300 0.319700 0.170700
C76 C 1.010000 0.425200 0.105980
H77 H 1.088700 0.366100 0.089950
H78 H 1.068600 0.505300 0.117460
C79 C 0.881400 0.471100 0.068460
C80 C 0.767300 0.349500 0.056300
H81 H 0.673200 0.384800 0.038020
C82 C 0.873400 0.267100 0.021700
C83 C 0.967300 0.491100 0.018400
H84 H 1.078300 0.525900 0.024200
C85 C 0.787600 0.595800 0.085900
H86 H 0.697200 0.613000 0.064400
H87 H 0.859300 0.673700 0.086200
H88 H 0.747000 0.579500 0.118100
C89 C 0.713800 -0.009100 0.148560
H90 H 0.604800 0.015000 0.138500
H91 H 0.708500 -0.082700 0.171600
H92 H 0.776400 -0.037500 0.120800
C93 C 0.885600 0.581700 -0.018210
C94 C 0.904100 0.719600 -0.023200
H95 H 0.970800 0.774900 -0.004100
C96 C 0.768000 0.546900 -0.053800
H97 H 0.724600 0.460000 -0.058800
C98 C 0.729900 0.656300 -0.078700
H99 H 0.657900 0.657700 -0.104900
C100 C 0.585600 0.198300 0.300730
H101 H 0.480000 0.158000 0.294900
H102 H 0.579900 0.295100 0.295100
H103 H 0.617800 0.181600 0.333760
C104 C 0.712500 -0.017600 0.274370
H105 H 0.606900 -0.054600 0.266300
H106 H 0.736800 -0.036800 0.307800
H107 H 0.794500 -0.058600 0.254000
C108 C 0.540700 0.273900 0.107420
H109 H 0.477100 0.312200 0.082870
O110 O 1.124300 0.206900 0.297510
O111 O 0.861700 0.200800 0.284220
O112 O 0.643900 0.319200 0.209630
O113 O 0.308500 0.181600 0.143830
O114 O 0.869200 0.148800 0.012150
O115 O 0.980200 0.352800 -0.000900
O116 O 0.807000 0.764300 -0.061600
C117 C 0.037200 0.563900 0.310770
H118 H -0.015900 0.510600 0.333970
C119 C -0.047400 0.577600 0.270050
H120 H -0.142300 0.525100 0.268210
C121 C -0.014600 0.662700 0.227590
C122 C 0.288800 0.634800 0.233550
C123 C 0.314400 0.675000 0.286980
C124 C 0.480300 0.717100 0.301110
H125 H 0.561300 0.714100 0.276200
C126 C 0.549700 0.717800 0.351250
C127 C 0.296300 0.777400 0.399710
C128 C 0.161200 0.723500 0.367440
H129 H 0.087500 0.674800 0.389650
C130 C 0.202700 0.616800 0.327520
C131 C 0.060300 0.849600 0.350300
H132 H 0.130300 0.910700 0.331830
H133 H -0.028300 0.819700 0.329300
C134 C -0.010000 0.925200 0.394020
H135 H -0.088700 0.866100 0.410050
H136 H -0.068600 1.005300 0.382540
C137 C 0.118600 0.971100 0.431540
C138 C 0.232700 0.849500 0.443700
H139 H 0.326800 0.884800 0.461980
C140 C 0.126600 0.767100 0.478300
C141 C 0.032700 0.991100 0.481600
H142 H -0.078300 1.025900 0.475800
C143 C 0.212400 1.095800 0.414100
H144 H 0.302800 1.113000 0.435600
H145 H 0.140700 1.173700 0.413800
H146 H 0.253000 1.079500 0.381900
C147 C 0.286200 0.490900 0.351440
H148 H 0.395200 0.515000 0.361500
H149 H 0.291500 0.417300 0.328400
H150 H 0.223600 0.462500 0.379200
C151 C 0.114400 1.081700 0.518210
C152 C 0.095900 1.219600 0.523200
H153 H 0.029200 1.274900 0.504100
C154 C 0.232000 1.046900 0.553800
H155 H 0.275400 0.960000 0.558800
C156 C 0.270100 1.156300 0.578700
H157 H 0.342100 1.157700 0.604900
C158 C 0.414400 0.698300 0.199270
H159 H 0.520000 0.658000 0.205100
H160 H 0.420100 0.795100 0.204900
H161 H 0.382200 0.681600 0.166240
C162 C 0.287500 0.482400 0.225630
H163 H 0.393100 0.445400 0.233700
H164 H 0.263200 0.463200 0.192200
H165 H 0.205500 0.441400 0.246000
C166 C 0.459300 0.773900 0.392580
H167 H 0.522900 0.812200 0.417130
O168 O -0.124300 0.706900 0.202490
O169 O 0.138300 0.700800 0.215780
O170 O 0.356100 0.819200 0.290370
O171 O 0.691500 0.681600 0.356170
O172 O 0.130800 0.648800 0.487850
O173 O 0.019800 0.852800 0.500900
O174 O 0.193000 1.264300 0.561600
C175 C 0.462800 0.436100 0.810770
H176 H 0.515900 0.489400 0.833970
C177 C 0.547400 0.422400 0.770050
H178 H 0.642300 0.474900 0.768210
C179 C 0.514600 0.337300 0.727590
C180 C 0.211200 0.365200 0.733550
C181 C 0.185600 0.325000 0.786980
C182 C 0.019700 0.282900 0.801110
H183 H -0.061300 0.285900 0.776200
C184 C -0.049700 0.282200 0.851250
C185 C 0.203700 0.222600 0.899710
C186 C 0.338800 0.276500 0.867440
H187 H 0.412500 0.325200 0.889650
C188 C 0.297300 0.383200 0.827520
C189 C 0.439700 0.150400 0.850300
H190 H 0.369700 0.089300 0.831830
H191 H 0.528300 0.180300 0.829300
C192 C 0.510000 0.074800 0.894020
H193 H 0.588700 0.133900 0.910050
H194 H 0.568600 -0.005300 0.882540
C195 C 0.381400 0.028900 0.931540
C196 C 0.267300 0.150500 0.943700
H197 H 0.173200 0.115200 0.961980
C198 C 0.373400 0.232900 0.978300
C199 C 0.467300 0.008900 0.981600
H200 H 0.578300 -0.025900 0.975800
C201 C 0.287600 -0.095800 0.914100
H202 H 0.197200 -0.113000 0.935600
H203 H 0.359300 -0.173700 0.913800
H204 H 0.247000 -0.079500 0.881900
C205 C 0.213800 0.509100 0.851440
H206 H 0.104800 0.485000 0.861500
H207 H 0.208500 0.582700 0.828400
H208 H 0.276400 0.537500 0.879200
C209 C 0.385600 -0.081700 1.018210
C210 C 0.404100 -0.219600 1.023200
H211 H 0.470800 -0.274900 1.004100
C212 C 0.268000 -0.046900 1.053800
H213 H 0.224600 0.040000 1.058800
C214 C 0.229900 -0.156300 1.078700
H215 H 0.157900 -0.157700 1.104900
C216 C 0.085600 0.301700 0.699270
H217 H -0.020000 0.342000 0.705100
H218 H 0.079900 0.204900 0.704900
H219 H 0.117800 0.318400 0.666240
C220 C 0.212500 0.517600 0.725630
H221 H 0.106900 0.554600 0.733700
H222 H 0.236800 0.536800 0.692200
H223 H 0.294500 0.558600 0.746000
C224 C 0.040700 0.226100 0.892580
H225 H -0.022900 0.187800 0.917130
O226 O 0.624300 0.293100 0.702490
O227 O 0.361700 0.299200 0.715780
O228 O 0.143900 0.180800 0.790370
O229 O -0.191500 0.318400 0.856170
O230 O 0.369200 0.351200 0.987850
O231 O 0.480200 0.147200 1.000900
O232 O 0.307000 -0.264300 1.061600

#END
