
#######################################################################
#
#                 Cambridge Crystallographic Data Centre
#                                CCDC 
#
#######################################################################
#
# If this CIF has been generated from an entry in the Cambridge 
# Structural Database, then it will include bibliographic, chemical, 
# crystal, experimental, refinement or atomic coordinate data resulting 
# from the CCDC's data processing and validation procedures.
#
#######################################################################

data_ABIPIL
_symmetry_cell_setting           orthorhombic
_symmetry_space_group_name_H-M   'P 21 21 21'
_symmetry_Int_Tables_number      19
_space_group_name_Hall           'P 2ac 2ab'
loop_
_symmetry_equiv_pos_site_id
_symmetry_equiv_pos_as_xyz
1 x,y,z
2 1/2-x,-y,1/2+z
3 -x,1/2+y,1/2-z
4 1/2+x,1/2-y,-z
_cell_length_a                   7.6502(3)
_cell_length_b                   8.2000(3)
_cell_length_c                   21.3263(6)
_cell_angle_alpha                90
_cell_angle_beta                 90
_cell_angle_gamma                90
_cell_volume                     1337.83
loop_
_atom_site_label
_atom_site_type_symbol
_atom_site_fract_x
_atom_site_fract_y
_atom_site_fract_z
S1 S 0.28507(6) 0.96057(6) 0.80634(2)
O1 O 0.50848(17) 0.98303(18) 0.71276(6)
O2 O 0.1004(2) 0.75209(19) 0.70562(7)
H1 H 0.001(4) 0.810(4) 0.7107(13)
O3 O 0.17480(19) 0.8264(2) 0.57563(6)
H2 H 0.0930 0.7609 0.5830
O4 O 0.5471(2) 0.8526(2) 0.55009(7)
H3 H 0.472(4) 0.843(4) 0.5189(13)
O5 O 0.8692(2) 1.0049(2) 0.69955(8)
H4 H 0.849(4) 1.071(4) 0.7290(14)
O6 O 0.1708(2) 1.1402(2) 0.93907(7)
H5 H 0.259(4) 1.199(3) 0.9481(13)
C1 C 0.3754(3) 0.8765(3) 0.73550(10)
H6 H 0.426(3) 0.769(3) 0.7454(11)
C2 C 0.2306(3) 0.8653(3) 0.68631(9)
H7 H 0.175(3) 0.966(3) 0.6828(9)
C3 C 0.3043(3) 0.8123(3) 0.62337(9)
H8 H 0.341(3) 0.693(3) 0.6268(9)
C4 C 0.4615(3) 0.9160(3) 0.60471(9)
H9 H 0.419(3) 1.029(3) 0.5966(10)
C5 C 0.5929(3) 0.9155(3) 0.65829(9)
H10 H 0.629(3) 0.794(3) 0.6665(10)
C6 C 0.7540(3) 1.0181(3) 0.64746(11)
H11 H 0.821(3) 0.974(3) 0.6097(12)
H12 H 0.714(3) 1.132(3) 0.6392(10)
C7 C 0.4523(3) 0.9219(3) 0.86171(9)
C8 C 0.6239(3) 0.8806(3) 0.84458(11)
H13 H 0.656(3) 0.862(3) 0.7983(11)
C9 C 0.7516(3) 0.8590(3) 0.89032(11)
H14 H 0.868(4) 0.831(3) 0.8756(11)
C10 C 0.7114(3) 0.8824(3) 0.95311(11)
H15 H 0.796(4) 0.863(4) 0.9825(14)
C11 C 0.5420(3) 0.9205(3) 0.97025(11)
H16 H 0.513(3) 0.928(3) 1.0171(11)
C12 C 0.4096(3) 0.9392(3) 0.92569(10)
C13 C 0.2257(3) 0.9740(3) 0.94729(10)
H17 H 0.219(3) 0.948(3) 0.9920(10)
H18 H 0.142(4) 0.903(3) 0.9230(11)
S1 S 0.21493(6) 0.03943(6) 0.30634(2)
O1 O -0.00848(17) 0.01697(18) 0.21276(6)
O2 O 0.3996(2) 0.24791(19) 0.20562(7)
H1 H 0.499(4) 0.190(4) 0.2107(13)
O3 O 0.32520(19) 0.1736(2) 0.07563(6)
H2 H 0.4070 0.2391 0.0830
O4 O -0.0471(2) 0.1474(2) 0.05009(7)
H3 H 0.028(4) 0.157(4) 0.0189(13)
O5 O -0.3692(2) -0.0049(2) 0.19955(8)
H4 H -0.349(4) -0.071(4) 0.2290(14)
O6 O 0.3292(2) -0.1402(2) 0.43907(7)
H5 H 0.241(4) -0.199(3) 0.4481(13)
C1 C 0.1246(3) 0.1235(3) 0.23550(10)
H6 H 0.074(3) 0.231(3) 0.2454(11)
C2 C 0.2694(3) 0.1347(3) 0.18631(9)
H7 H 0.325(3) 0.034(3) 0.1828(9)
C3 C 0.1957(3) 0.1877(3) 0.12337(9)
H8 H 0.159(3) 0.307(3) 0.1268(9)
C4 C 0.0385(3) 0.0840(3) 0.10471(9)
H9 H 0.081(3) -0.029(3) 0.0966(10)
C5 C -0.0929(3) 0.0845(3) 0.15829(9)
H10 H -0.129(3) 0.206(3) 0.1665(10)
C6 C -0.2540(3) -0.0181(3) 0.14746(11)
H11 H -0.321(3) 0.026(3) 0.1097(12)
H12 H -0.214(3) -0.132(3) 0.1392(10)
C7 C 0.0477(3) 0.0781(3) 0.36171(9)
C8 C -0.1239(3) 0.1194(3) 0.34458(11)
H13 H -0.156(3) 0.138(3) 0.2983(11)
C9 C -0.2516(3) 0.1410(3) 0.39032(11)
H14 H -0.368(4) 0.169(3) 0.3756(11)
C10 C -0.2114(3) 0.1176(3) 0.45311(11)
H15 H -0.296(4) 0.137(4) 0.4825(14)
C11 C -0.0420(3) 0.0795(3) 0.47025(11)
H16 H -0.013(3) 0.072(3) 0.5171(11)
C12 C 0.0904(3) 0.0608(3) 0.42569(10)
C13 C 0.2743(3) 0.0260(3) 0.44729(10)
H17 H 0.281(3) 0.052(3) 0.4920(10)
H18 H 0.358(4) 0.097(3) 0.4230(11)
S1 S 0.71493(6) 0.46057(6) 0.69366(2)
O1 O 0.49152(17) 0.48303(18) 0.78724(6)
O2 O 0.8996(2) 0.25209(19) 0.79438(7)
H1 H 0.999(4) 0.310(4) 0.7893(13)
O3 O 0.82520(19) 0.3264(2) 0.92437(6)
H2 H 0.9070 0.2609 0.9170
O4 O 0.4529(2) 0.3526(2) 0.94991(7)
H3 H 0.528(4) 0.343(4) 0.9811(13)
O5 O 0.1308(2) 0.5049(2) 0.80045(8)
H4 H 0.151(4) 0.571(4) 0.7710(14)
O6 O 0.8292(2) 0.6402(2) 0.56093(7)
H5 H 0.741(4) 0.699(3) 0.5519(13)
C1 C 0.6246(3) 0.3765(3) 0.76450(10)
H6 H 0.574(3) 0.269(3) 0.7546(11)
C2 C 0.7694(3) 0.3653(3) 0.81369(9)
H7 H 0.825(3) 0.466(3) 0.8172(9)
C3 C 0.6957(3) 0.3123(3) 0.87663(9)
H8 H 0.659(3) 0.193(3) 0.8732(9)
C4 C 0.5385(3) 0.4160(3) 0.89529(9)
H9 H 0.581(3) 0.529(3) 0.9034(10)
C5 C 0.4071(3) 0.4155(3) 0.84171(9)
H10 H 0.371(3) 0.294(3) 0.8335(10)
C6 C 0.2460(3) 0.5181(3) 0.85254(11)
H11 H 0.179(3) 0.474(3) 0.8903(12)
H12 H 0.286(3) 0.632(3) 0.8608(10)
C7 C 0.5477(3) 0.4219(3) 0.63829(9)
C8 C 0.3761(3) 0.3806(3) 0.65542(11)
H13 H 0.344(3) 0.362(3) 0.7017(11)
C9 C 0.2484(3) 0.3590(3) 0.60968(11)
H14 H 0.132(4) 0.331(3) 0.6244(11)
C10 C 0.2886(3) 0.3824(3) 0.54689(11)
H15 H 0.204(4) 0.363(4) 0.5175(14)
C11 C 0.4580(3) 0.4205(3) 0.52975(11)
H16 H 0.487(3) 0.428(3) 0.4829(11)
C12 C 0.5904(3) 0.4392(3) 0.57431(10)
C13 C 0.7743(3) 0.4740(3) 0.55271(10)
H17 H 0.781(3) 0.448(3) 0.5080(10)
H18 H 0.858(4) 0.403(3) 0.5770(11)
S1 S 0.78507(6) 0.53943(6) 0.19366(2)
O1 O 1.00848(17) 0.51697(18) 0.28724(6)
O2 O 0.6004(2) 0.74791(19) 0.29438(7)
H1 H 0.501(4) 0.690(4) 0.2893(13)
O3 O 0.67480(19) 0.6736(2) 0.42437(6)
H2 H 0.5930 0.7391 0.4170
O4 O 1.0471(2) 0.6474(2) 0.44991(7)
H3 H 0.972(4) 0.657(4) 0.4811(13)
O5 O 1.3692(2) 0.4951(2) 0.30045(8)
H4 H 1.349(4) 0.429(4) 0.2710(14)
O6 O 0.6708(2) 0.3598(2) 0.06093(7)
H5 H 0.759(4) 0.301(3) 0.0519(13)
C1 C 0.8754(3) 0.6235(3) 0.26450(10)
H6 H 0.926(3) 0.731(3) 0.2546(11)
C2 C 0.7306(3) 0.6347(3) 0.31369(9)
H7 H 0.675(3) 0.534(3) 0.3172(9)
C3 C 0.8043(3) 0.6877(3) 0.37663(9)
H8 H 0.841(3) 0.807(3) 0.3732(9)
C4 C 0.9615(3) 0.5840(3) 0.39529(9)
H9 H 0.919(3) 0.471(3) 0.4034(10)
C5 C 1.0929(3) 0.5845(3) 0.34171(9)
H10 H 1.129(3) 0.706(3) 0.3335(10)
C6 C 1.2540(3) 0.4819(3) 0.35254(11)
H11 H 1.321(3) 0.526(3) 0.3903(12)
H12 H 1.214(3) 0.368(3) 0.3608(10)
C7 C 0.9523(3) 0.5781(3) 0.13829(9)
C8 C 1.1239(3) 0.6194(3) 0.15542(11)
H13 H 1.156(3) 0.638(3) 0.2017(11)
C9 C 1.2516(3) 0.6410(3) 0.10968(11)
H14 H 1.368(4) 0.669(3) 0.1244(11)
C10 C 1.2114(3) 0.6176(3) 0.04689(11)
H15 H 1.296(4) 0.637(4) 0.0175(14)
C11 C 1.0420(3) 0.5795(3) 0.02975(11)
H16 H 1.013(3) 0.572(3) -0.0171(11)
C12 C 0.9096(3) 0.5608(3) 0.07431(10)
C13 C 0.7257(3) 0.5260(3) 0.05271(10)
H17 H 0.719(3) 0.552(3) 0.0080(10)
H18 H 0.642(4) 0.597(3) 0.0770(11)

#END
