
#######################################################################
#
#                 Cambridge Crystallographic Data Centre
#                                CCDC 
#
#######################################################################
#
# If this CIF has been generated from an entry in the Cambridge 
# Structural Database, then it will include bibliographic, chemical, 
# crystal, experimental, refinement or atomic coordinate data resulting 
# from the CCDC's data processing and validation procedures.
#
#######################################################################

data_ABIPIM
_symmetry_cell_setting           monoclinic
_symmetry_space_group_name_H-M   'P 21'
_symmetry_Int_Tables_number      4
_space_group_name_Hall           'P 2yb'
loop_
_symmetry_equiv_pos_site_id
_symmetry_equiv_pos_as_xyz
1 x,y,z
2 -x,1/2+y,-z
_cell_length_a                   7.29(1)
_cell_length_b                   13.88(1)
_cell_length_c                   11.27(1)
_cell_angle_alpha                90
_cell_angle_beta                 106.6(1)
_cell_angle_gamma                90
_cell_volume                     1092.83
loop_
_atom_site_label
_atom_site_type_symbol
_atom_site_fract_x
_atom_site_fract_y
_atom_site_fract_z
Br1 Br 0.39230 0.25000 1.12840
C1 C 0.20490 0.25670 0.71900
C2 C 0.42250 0.26890 0.75860
C3 C 0.41390 0.31490 0.98020
C4 C 0.51690 0.40750 1.03020
C5 C 0.73530 0.40740 1.07340
C6 C 0.81540 0.32100 1.02080
C7 C 0.80130 0.40700 1.21790
C8 C 1.01300 0.41730 1.27390
C9 C 0.80610 0.50180 1.02200
C10 C 0.50670 0.06920 0.52360
C11 C 0.48500 0.24930 0.47800
C12 C 0.12250 0.23770 0.57660
C13 C 0.47420 0.37110 0.72890
C14 C 0.00440 0.08030 0.35750
C15 C -0.07220 0.08680 0.21420
C16 C 0.20990 0.16000 0.53080
C17 C 0.43180 0.16910 0.55650
C18 C 0.51240 0.18370 0.70180
C19 C 0.73590 0.18940 0.74400
C20 C 0.80810 0.18170 0.88680
C21 C 0.71620 0.25400 0.94470
C22 C 0.50170 0.24870 0.90310
H1 H 0.29100 0.33200 0.91700
H2 H 0.95800 0.31400 1.04600
H3 H 0.79000 0.13500 0.70600
H4 H 0.77700 0.11600 0.91200
H5 H -0.01700 0.22300 0.55900
H6 H 0.17200 0.20100 0.76500
H7 H 0.14600 0.31700 0.74000
H8 H 0.14100 0.29800 0.53200
H9 H 0.76100 0.34400 1.24700
H10 H 0.73700 0.46200 1.24800
H11 H 0.18400 0.10200 0.57600
H12 H 0.46900 0.12400 0.73600
H13 H 0.77800 0.25200 0.71700
H14 H 0.95000 0.19200 0.91400
H15 H 0.46200 0.18200 0.91700
O1 O 0.12970 0.15200 0.39870
O2 O 0.42810 0.48100 1.03660
O3 O -0.04830 0.02750 0.41990
Br1 Br 0.60770 0.75000 -0.12840
C1 C 0.79510 0.75670 0.28100
C2 C 0.57750 0.76890 0.24140
C3 C 0.58610 0.81490 0.01980
C4 C 0.48310 0.90750 -0.03020
C5 C 0.26470 0.90740 -0.07340
C6 C 0.18460 0.82100 -0.02080
C7 C 0.19870 0.90700 -0.21790
C8 C -0.01300 0.91730 -0.27390
C9 C 0.19390 1.00180 -0.02200
C10 C 0.49330 0.56920 0.47640
C11 C 0.51500 0.74930 0.52200
C12 C 0.87750 0.73770 0.42340
C13 C 0.52580 0.87110 0.27110
C14 C 0.99560 0.58030 0.64250
C15 C 1.07220 0.58680 0.78580
C16 C 0.79010 0.66000 0.46920
C17 C 0.56820 0.66910 0.44350
C18 C 0.48760 0.68370 0.29820
C19 C 0.26410 0.68940 0.25600
C20 C 0.19190 0.68170 0.11320
C21 C 0.28380 0.75400 0.05530
C22 C 0.49830 0.74870 0.09690
H1 H 0.70900 0.83200 0.08300
H2 H 0.04200 0.81400 -0.04600
H3 H 0.21000 0.63500 0.29400
H4 H 0.22300 0.61600 0.08800
H5 H 1.01700 0.72300 0.44100
H6 H 0.82800 0.70100 0.23500
H7 H 0.85400 0.81700 0.26000
H8 H 0.85900 0.79800 0.46800
H9 H 0.23900 0.84400 -0.24700
H10 H 0.26300 0.96200 -0.24800
H11 H 0.81600 0.60200 0.42400
H12 H 0.53100 0.62400 0.26400
H13 H 0.22200 0.75200 0.28300
H14 H 0.05000 0.69200 0.08600
H15 H 0.53800 0.68200 0.08300
O1 O 0.87030 0.65200 0.60130
O2 O 0.57190 0.98100 -0.03660
O3 O 1.04830 0.52750 0.58010

#END
