
#######################################################################
#
#                 Cambridge Crystallographic Data Centre
#                                CCDC 
#
#######################################################################
#
# If this CIF has been generated from an entry in the Cambridge 
# Structural Database, then it will include bibliographic, chemical, 
# crystal, experimental, refinement or atomic coordinate data resulting 
# from the CCDC's data processing and validation procedures.
#
#######################################################################

data_ABIPOQ
_symmetry_cell_setting           orthorhombic
_symmetry_space_group_name_H-M   'P 21 21 21'
_symmetry_Int_Tables_number      19
_space_group_name_Hall           'P 2ac 2ab'
loop_
_symmetry_equiv_pos_site_id
_symmetry_equiv_pos_as_xyz
1 x,y,z
2 -x,1/2+y,1/2-z
3 1/2+x,1/2-y,-z
4 1/2-x,-y,1/2+z
_cell_length_a                   8.114(9)
_cell_length_b                   10.473(12)
_cell_length_c                   26.74(3)
_cell_angle_alpha                90
_cell_angle_beta                 90
_cell_angle_gamma                90
_cell_volume                     2272.31
loop_
_atom_site_label
_atom_site_type_symbol
_atom_site_fract_x
_atom_site_fract_y
_atom_site_fract_z
O1 O 0.3002(3) 0.9204(3) 0.80001(10)
C1 C 0.4326(5) 0.9817(5) 0.78159(14)
O2 O 0.4207(4) 1.0939(4) 0.77019(11)
C2 C 0.5888(4) 0.9082(4) 0.77668(14)
H1 H 0.5863 0.8597 0.7458
H2 H 0.6806 0.9673 0.7749
N1 N 0.6146(3) 0.8202(3) 0.81892(10)
C3 C 0.7716(5) 0.7803(4) 0.82876(13)
O3 O 0.8894(3) 0.8215(3) 0.80380(10)
C4 C 0.7971(5) 0.6906(5) 0.87070(16)
H3 H 0.7415 0.7220 0.8999
H4 H 0.9129 0.6832 0.8775
H5 H 0.7536 0.6084 0.8619
C5 C 0.4696(4) 0.7647(4) 0.84387(12)
H6 H 0.4868 0.6725 0.8473
C6 C 0.3236(4) 0.7867(4) 0.80938(13)
H7 H 0.3421 0.7427 0.7780
H8 H 0.2249 0.7516 0.8245
C7 C 0.4395(4) 0.8207(4) 0.89565(12)
C8 C 0.3376(5) 0.7517(5) 0.92794(13)
H9 H 0.2925 0.6745 0.9176
C9 C 0.3035(6) 0.7983(6) 0.97542(15)
H10 H 0.2369 0.7514 0.9970
C10 C 0.3671(6) 0.9127(6) 0.99072(15)
H11 H 0.3428 0.9432 1.0225
C11 C 0.4669(5) 0.9830(5) 0.95946(16)
H12 H 0.5095 1.0611 0.9697
C12 C 0.5031(5) 0.9343(4) 0.91168(13)
H13 H 0.5718 0.9806 0.8905
O1 O 0.6998(3) 0.4204(3) 0.69999(10)
C1 C 0.5674(5) 0.4817(5) 0.71841(14)
O2 O 0.5793(4) 0.5939(4) 0.72981(11)
C2 C 0.4112(4) 0.4082(4) 0.72332(14)
H1 H 0.4137 0.3597 0.7542
H2 H 0.3194 0.4673 0.7251
N1 N 0.3854(3) 0.3202(3) 0.68108(10)
C3 C 0.2284(5) 0.2803(4) 0.67124(13)
O3 O 0.1106(3) 0.3215(3) 0.69620(10)
C4 C 0.2029(5) 0.1906(5) 0.62930(16)
H3 H 0.2585 0.2220 0.6001
H4 H 0.0871 0.1832 0.6225
H5 H 0.2464 0.1084 0.6381
C5 C 0.5304(4) 0.2647(4) 0.65613(12)
H6 H 0.5132 0.1725 0.6527
C6 C 0.6764(4) 0.2867(4) 0.69062(13)
H7 H 0.6579 0.2427 0.7220
H8 H 0.7751 0.2516 0.6755
C7 C 0.5605(4) 0.3207(4) 0.60435(12)
C8 C 0.6624(5) 0.2517(5) 0.57206(13)
H9 H 0.7075 0.1745 0.5824
C9 C 0.6965(6) 0.2983(6) 0.52458(15)
H10 H 0.7631 0.2514 0.5030
C10 C 0.6329(6) 0.4127(6) 0.50928(15)
H11 H 0.6572 0.4432 0.4775
C11 C 0.5331(5) 0.4830(5) 0.54054(16)
H12 H 0.4905 0.5611 0.5303
C12 C 0.4969(5) 0.4343(4) 0.58832(13)
H13 H 0.4282 0.4806 0.6095
O1 O -0.1998(3) 0.5796(3) 0.19999(10)
C1 C -0.0674(5) 0.5183(5) 0.21841(14)
O2 O -0.0793(4) 0.4061(4) 0.22981(11)
C2 C 0.0888(4) 0.5918(4) 0.22332(14)
H1 H 0.0863 0.6403 0.2542
H2 H 0.1806 0.5327 0.2251
N1 N 0.1146(3) 0.6798(3) 0.18108(10)
C3 C 0.2716(5) 0.7197(4) 0.17124(13)
O3 O 0.3894(3) 0.6785(3) 0.19620(10)
C4 C 0.2971(5) 0.8094(5) 0.12930(16)
H3 H 0.2415 0.7780 0.1001
H4 H 0.4129 0.8168 0.1225
H5 H 0.2536 0.8916 0.1381
C5 C -0.0304(4) 0.7353(4) 0.15613(12)
H6 H -0.0132 0.8275 0.1527
C6 C -0.1764(4) 0.7133(4) 0.19062(13)
H7 H -0.1579 0.7573 0.2220
H8 H -0.2751 0.7484 0.1755
C7 C -0.0605(4) 0.6793(4) 0.10435(12)
C8 C -0.1624(5) 0.7483(5) 0.07206(13)
H9 H -0.2075 0.8255 0.0824
C9 C -0.1965(6) 0.7017(6) 0.02458(15)
H10 H -0.2631 0.7486 0.0030
C10 C -0.1329(6) 0.5873(6) 0.00928(15)
H11 H -0.1572 0.5568 -0.0225
C11 C -0.0331(5) 0.5170(5) 0.04054(16)
H12 H 0.0095 0.4389 0.0303
C12 C 0.0031(5) 0.5657(4) 0.08832(13)
H13 H 0.0718 0.5194 0.1095
O1 O 1.1998(3) 0.0796(3) 0.30001(10)
C1 C 1.0674(5) 0.0183(5) 0.28159(14)
O2 O 1.0793(4) -0.0939(4) 0.27019(11)
C2 C 0.9112(4) 0.0918(4) 0.27668(14)
H1 H 0.9137 0.1403 0.2458
H2 H 0.8194 0.0327 0.2749
N1 N 0.8854(3) 0.1798(3) 0.31892(10)
C3 C 0.7284(5) 0.2197(4) 0.32876(13)
O3 O 0.6106(3) 0.1785(3) 0.30380(10)
C4 C 0.7029(5) 0.3094(5) 0.37070(16)
H3 H 0.7585 0.2780 0.3999
H4 H 0.5871 0.3168 0.3775
H5 H 0.7464 0.3916 0.3619
C5 C 1.0304(4) 0.2353(4) 0.34387(12)
H6 H 1.0132 0.3275 0.3473
C6 C 1.1764(4) 0.2133(4) 0.30938(13)
H7 H 1.1579 0.2573 0.2780
H8 H 1.2751 0.2484 0.3245
C7 C 1.0605(4) 0.1793(4) 0.39565(12)
C8 C 1.1624(5) 0.2483(5) 0.42794(13)
H9 H 1.2075 0.3255 0.4176
C9 C 1.1965(6) 0.2017(6) 0.47542(15)
H10 H 1.2631 0.2486 0.4970
C10 C 1.1329(6) 0.0873(6) 0.49072(15)
H11 H 1.1572 0.0568 0.5225
C11 C 1.0331(5) 0.0170(5) 0.45946(16)
H12 H 0.9905 -0.0611 0.4697
C12 C 0.9969(5) 0.0657(4) 0.41168(13)
H13 H 0.9282 0.0194 0.3905
C13 C 0.0004(6) 0.1389(5) 0.80305(16)
H14 H 0.0542 0.1586 0.7716
H15 H -0.0133 0.0471 0.8051
C14 C -0.1579(5) 0.3255(7) 0.81092(14)
C15 C 0.0069(5) 0.3932(5) 0.81297(17)
H16 H 0.0442 0.4097 0.7791
H17 H -0.0073 0.4750 0.8295
N2 N 0.1337(4) 0.3201(3) 0.83945(10)
C16 C 0.1062(5) 0.1850(4) 0.84610(13)
H18 H 0.2129 0.1414 0.8442
O4 O -0.1582(4) 0.1999(4) 0.80475(10)
O5 O -0.2849(5) 0.3859(4) 0.81310(12)
C17 C 0.0251(4) 0.1502(4) 0.89590(13)
C18 C -0.0529(6) 0.2410(5) 0.92573(14)
H19 H -0.0540 0.3264 0.9163
C19 C -0.1295(7) 0.2023(7) 0.97001(16)
H20 H -0.1834 0.2624 0.9897
C20 C -0.1261(8) 0.0776(8) 0.98478(19)
H21 H -0.1772 0.0528 1.0144
C21 C -0.0469(7) -0.0107(7) 0.9556(2)
H22 H -0.0437 -0.0956 0.9657
C22 C 0.0283(5) 0.0249(5) 0.91162(18)
H23 H 0.0817 -0.0362 0.8923
O6 O 0.2799(5) 0.4992(4) 0.85052(15)
C23 C 0.3982(5) 0.3072(6) 0.88261(17)
H24 H 0.3484 0.2537 0.9075
H25 H 0.4755 0.3639 0.8982
H26 H 0.4545 0.2550 0.8585
C24 C 0.2679(6) 0.3832(5) 0.85696(14)
C13 C 0.9996(6) 0.6389(5) 0.69695(16)
H14 H 0.9458 0.6586 0.7284
H15 H 1.0133 0.5471 0.6949
C14 C 1.1579(5) 0.8255(7) 0.68908(14)
C15 C 0.9931(5) 0.8932(5) 0.68703(17)
H16 H 0.9558 0.9097 0.7209
H17 H 1.0073 0.9750 0.6705
N2 N 0.8663(4) 0.8201(3) 0.66055(10)
C16 C 0.8938(5) 0.6850(4) 0.65390(13)
H18 H 0.7871 0.6414 0.6558
O4 O 1.1582(4) 0.6999(4) 0.69525(10)
O5 O 1.2849(5) 0.8859(4) 0.68690(12)
C17 C 0.9749(4) 0.6502(4) 0.60410(13)
C18 C 1.0529(6) 0.7410(5) 0.57427(14)
H19 H 1.0540 0.8264 0.5837
C19 C 1.1295(7) 0.7023(7) 0.52999(16)
H20 H 1.1834 0.7624 0.5103
C20 C 1.1261(8) 0.5776(8) 0.51522(19)
H21 H 1.1772 0.5528 0.4856
C21 C 1.0469(7) 0.4893(7) 0.5444(2)
H22 H 1.0437 0.4044 0.5343
C22 C 0.9717(5) 0.5249(5) 0.58838(18)
H23 H 0.9183 0.4638 0.6077
O6 O 0.7201(5) 0.9992(4) 0.64948(15)
C23 C 0.6018(5) 0.8072(6) 0.61739(17)
H24 H 0.6516 0.7537 0.5925
H25 H 0.5245 0.8639 0.6018
H26 H 0.5455 0.7550 0.6415
C24 C 0.7321(6) 0.8832(5) 0.64304(14)
C13 C 0.5004(6) 0.3611(5) 0.19695(16)
H14 H 0.5542 0.3414 0.2284
H15 H 0.4867 0.4529 0.1949
C14 C 0.3421(5) 0.1745(7) 0.18908(14)
C15 C 0.5069(5) 0.1068(5) 0.18703(17)
H16 H 0.5442 0.0903 0.2209
H17 H 0.4927 0.0250 0.1705
N2 N 0.6337(4) 0.1799(3) 0.16055(10)
C16 C 0.6062(5) 0.3150(4) 0.15390(13)
H18 H 0.7129 0.3586 0.1558
O4 O 0.3418(4) 0.3001(4) 0.19525(10)
O5 O 0.2151(5) 0.1141(4) 0.18690(12)
C17 C 0.5251(4) 0.3498(4) 0.10410(13)
C18 C 0.4471(6) 0.2590(5) 0.07427(14)
H19 H 0.4460 0.1736 0.0837
C19 C 0.3705(7) 0.2977(7) 0.02999(16)
H20 H 0.3166 0.2376 0.0103
C20 C 0.3739(8) 0.4224(8) 0.01522(19)
H21 H 0.3228 0.4472 -0.0144
C21 C 0.4531(7) 0.5107(7) 0.0444(2)
H22 H 0.4563 0.5956 0.0343
C22 C 0.5283(5) 0.4751(5) 0.08838(18)
H23 H 0.5817 0.5362 0.1077
O6 O 0.7799(5) 0.0008(4) 0.14948(15)
C23 C 0.8982(5) 0.1928(6) 0.11739(17)
H24 H 0.8484 0.2463 0.0925
H25 H 0.9755 0.1361 0.1018
H26 H 0.9545 0.2450 0.1415
C24 C 0.7679(6) 0.1168(5) 0.14304(14)
C13 C 0.4996(6) 0.8611(5) 0.30305(16)
H14 H 0.4458 0.8414 0.2716
H15 H 0.5133 0.9529 0.3051
C14 C 0.6579(5) 0.6745(7) 0.31092(14)
C15 C 0.4931(5) 0.6068(5) 0.31297(17)
H16 H 0.4558 0.5903 0.2791
H17 H 0.5073 0.5250 0.3295
N2 N 0.3663(4) 0.6799(3) 0.33945(10)
C16 C 0.3938(5) 0.8150(4) 0.34610(13)
H18 H 0.2871 0.8586 0.3442
O4 O 0.6582(4) 0.8001(4) 0.30475(10)
O5 O 0.7849(5) 0.6141(4) 0.31310(12)
C17 C 0.4749(4) 0.8498(4) 0.39590(13)
C18 C 0.5529(6) 0.7590(5) 0.42573(14)
H19 H 0.5540 0.6736 0.4163
C19 C 0.6295(7) 0.7977(7) 0.47001(16)
H20 H 0.6834 0.7376 0.4897
C20 C 0.6261(8) 0.9224(8) 0.48478(19)
H21 H 0.6772 0.9472 0.5144
C21 C 0.5469(7) 1.0107(7) 0.4556(2)
H22 H 0.5437 1.0956 0.4657
C22 C 0.4717(5) 0.9751(5) 0.41162(18)
H23 H 0.4183 1.0362 0.3923
O6 O 0.2201(5) 0.5008(4) 0.35052(15)
C23 C 0.1018(5) 0.6928(6) 0.38261(17)
H24 H 0.1516 0.7463 0.4075
H25 H 0.0245 0.6361 0.3982
H26 H 0.0455 0.7450 0.3585
C24 C 0.2321(6) 0.6168(5) 0.35696(14)

#END
