
#######################################################################
#
#                 Cambridge Crystallographic Data Centre
#                                CCDC 
#
#######################################################################
#
# If this CIF has been generated from an entry in the Cambridge 
# Structural Database, then it will include bibliographic, chemical, 
# crystal, experimental, refinement or atomic coordinate data resulting 
# from the CCDC's data processing and validation procedures.
#
#######################################################################

data_ABIPEG
_symmetry_cell_setting           orthorhombic
_symmetry_space_group_name_H-M   'P 21 21 21'
_symmetry_Int_Tables_number      19
_space_group_name_Hall           'P 2ac 2ab'
loop_
_symmetry_equiv_pos_site_id
_symmetry_equiv_pos_as_xyz
1 x,y,z
2 1/2-x,-y,1/2+z
3 1/2+x,1/2-y,-z
4 -x,1/2+y,1/2-z
_cell_length_a                   8.9120(10)
_cell_length_b                   8.9050(10)
_cell_length_c                   46.3080(10)
_cell_angle_alpha                90
_cell_angle_beta                 90
_cell_angle_gamma                90
_cell_volume                     3675.07
loop_
_atom_site_label
_atom_site_type_symbol
_atom_site_fract_x
_atom_site_fract_y
_atom_site_fract_z
S1 S 1.0483(8) 0.2530(9) 0.38998(15)
N1 N 1.0053(9) 0.2994(9) 0.35900(16)
O1 O 1.2796(11) -0.0841(11) 0.4589(2)
O2 O 0.8551(9) 0.2877(10) 0.3064(2)
O3 O 1.1493(11) -0.3351(10) 0.4371(2)
O4 O 0.6628(10) 0.5311(11) 0.2906(2)
O5 O 1.0377(11) 0.1042(10) 0.4434(2)
O6 O 0.9092(11) -0.2150(10) 0.4013(2)
O7 O 0.5342(11) 0.1609(12) 0.3482(2)
O8 O 0.4170(10) 0.3977(11) 0.3132(2)
O9 O 1.3615(11) -0.2654(13) 0.4895(2)
O10 O 0.4834(12) 0.6146(11) 0.2607(2)
O11 O 0.8151(10) 0.3909(11) 0.2323(2)
O12 O 1.1399(11) 0.0655(11) 0.5171(2)
O13 O 0.2663(12) 0.3062(15) 0.2790(3)
N2 N 0.8423(13) 0.0926(12) 0.3751(3)
C1 C 1.1436(19) -0.4666(16) 0.4520(4)
O14 O 1.0554(15) -0.4864(12) 0.4704(2)
C2 C 0.5402(14) 0.2994(15) 0.3047(3)
H1 H 0.4997 0.2055 0.297
C3 C 0.6218(14) 0.2678(15) 0.3332(3)
H2 H 0.6314 0.3601 0.3445
C4 C 0.7753(14) 0.2020(15) 0.3268(3)
H3 H 0.763 0.0996 0.3195
O15 O 1.2224(18) 0.2778(15) 0.5364(3)
C5 C 0.8749(17) 0.1977(18) 0.3543(3)
C6 C 0.7777(14) 0.2972(18) 0.2788(3)
H4 H 0.7575 0.1949 0.272
C7 C 0.9394(16) 0.1154(13) 0.3965(3)
C8 C 0.6343(16) 0.3754(15) 0.2822(3)
H5 H 0.5805 0.3742 0.2637
C9 C 1.0222(17) -0.1322(14) 0.4180(3)
H6 H 1.1149 -0.1214 0.4068
C10 C 1.1259(14) -0.1185(15) 0.4673(3)
H7 H 1.1255 -0.1701 0.486
O16 O 1.0255(13) 0.4746(17) 0.2135(3)
C11 C 1.0521(15) -0.2143(15) 0.4452(3)
H8 H 0.958 -0.2547 0.453
C12 C 0.9493(16) 0.0268(14) 0.4238(3)
H9 H 0.8485 0.0134 0.4318
C13 C 0.5776(17) 0.6421(17) 0.2782(3)
C14 C 1.0436(19) 0.0332(14) 0.4700(3)
H10 H 0.9409 0.0147 0.4767
O17 O 0.5024(19) 0.317(3) 0.3844(3)
O18 O 1.054(2) -0.238(2) 0.3635(3)
C15 C 1.1186(18) 0.1431(16) 0.4905(3)
H11 H 1.2143 0.1758 0.4827
H12 H 1.0556 0.2307 0.4934
C16 C 0.8898(16) 0.3685(18) 0.2587(3)
H13 H 0.9243 0.4635 0.2665
H14 H 0.9757 0.3031 0.2561
C17 C 0.8991(19) 0.4454(19) 0.2111(4)
C18 C 1.3908(18) -0.1671(19) 0.4726(4)
C19 C 0.803(2) 0.4764(19) 0.1847(3)
H15 H 0.7024 0.4415 0.1882
H16 H 0.8438 0.4249 0.1683
H17 H 0.801 0.5824 0.181
C20 C 1.203(2) 0.146(2) 0.5381(3)
C21 C 0.1875(17) 0.5195(19) 0.3067(4)
H18 H 0.2308 0.5695 0.323
H19 H 0.0915 0.4789 0.3119
H20 H 0.1752 0.5899 0.2912
C22 C 0.811(2) -0.330(2) 0.3614(4)
H21 H 0.7323 -0.3429 0.3754
H22 H 0.8378 -0.4263 0.3536
H23 H 0.7763 -0.266 0.3461
C23 C 1.2687(18) -0.5632(19) 0.4446(3)
H24 H 1.3304 -0.5143 0.4304
H25 H 1.2315 -0.656 0.4369
H26 H 1.3271 -0.5832 0.4616
C24 C 1.2272(19) 0.055(2) 0.5652(3)
H27 H 1.1997 -0.0478 0.5616
H28 H 1.1665 0.0943 0.5805
H29 H 1.331 0.0595 0.5706
C25 C 0.625(2) 0.7899(15) 0.2883(3)
H30 H 0.7069 0.7789 0.3015
H31 H 0.5425 0.8386 0.2978
H32 H 0.6564 0.8496 0.2721
C26 C 1.5408(16) -0.122(2) 0.4619(3)
H33 H 1.5297 -0.0425 0.4479
H34 H 1.5892 -0.2061 0.453
H35 H 1.6006 -0.0865 0.4777
C27 C 0.416(2) 0.062(3) 0.3893(4)
H36 H 0.3876 0.0934 0.4084
H37 H 0.4857 -0.0202 0.3907
H38 H 0.3286 0.0298 0.3789
C28 C 0.489(2) 0.191(3) 0.3736(5)
C29 C 0.2894(18) 0.3943(19) 0.2971(3)
C30 C 0.948(3) -0.259(2) 0.3759(4)
S1 S 0.4517(8) 0.7470(9) 0.88998(15)
N1 N 0.4947(9) 0.7006(9) 0.85900(16)
O1 O 0.2204(11) 1.0841(11) 0.9589(2)
O2 O 0.6449(9) 0.7123(10) 0.8064(2)
O3 O 0.3507(11) 1.3351(10) 0.9371(2)
O4 O 0.8372(10) 0.4689(11) 0.7906(2)
O5 O 0.4623(11) 0.8958(10) 0.9434(2)
O6 O 0.5908(11) 1.2150(10) 0.9013(2)
O7 O 0.9658(11) 0.8391(12) 0.8482(2)
O8 O 1.0830(10) 0.6023(11) 0.8132(2)
O9 O 0.1385(11) 1.2654(13) 0.9895(2)
O10 O 1.0166(12) 0.3854(11) 0.7607(2)
O11 O 0.6849(10) 0.6091(11) 0.7323(2)
O12 O 0.3601(11) 0.9345(11) 1.0171(2)
O13 O 1.2337(12) 0.6938(15) 0.7790(3)
N2 N 0.6577(13) 0.9074(12) 0.8751(3)
C1 C 0.3564(19) 1.4666(16) 0.9520(4)
O14 O 0.4446(15) 1.4864(12) 0.9704(2)
C2 C 0.9598(14) 0.7006(15) 0.8047(3)
H1 H 1.0003 0.7945 0.797
C3 C 0.8782(14) 0.7322(15) 0.8332(3)
H2 H 0.8686 0.6399 0.8445
C4 C 0.7247(14) 0.7980(15) 0.8268(3)
H3 H 0.737 0.9004 0.8195
O15 O 0.2776(18) 0.7222(15) 1.0364(3)
C5 C 0.6251(17) 0.8023(18) 0.8543(3)
C6 C 0.7223(14) 0.7028(18) 0.7788(3)
H4 H 0.7425 0.8051 0.772
C7 C 0.5606(16) 0.8846(13) 0.8965(3)
C8 C 0.8657(16) 0.6246(15) 0.7822(3)
H5 H 0.9195 0.6258 0.7637
C9 C 0.4778(17) 1.1322(14) 0.9180(3)
H6 H 0.3851 1.1214 0.9068
C10 C 0.3741(14) 1.1185(15) 0.9673(3)
H7 H 0.3745 1.1701 0.986
O16 O 0.4745(13) 0.5254(17) 0.7135(3)
C11 C 0.4479(15) 1.2143(15) 0.9452(3)
H8 H 0.542 1.2547 0.953
C12 C 0.5507(16) 0.9732(14) 0.9238(3)
H9 H 0.6515 0.9866 0.9318
C13 C 0.9224(17) 0.3579(17) 0.7782(3)
C14 C 0.4564(19) 0.9668(14) 0.9700(3)
H10 H 0.5591 0.9853 0.9767
O17 O 0.9976(19) 0.683(3) 0.8844(3)
O18 O 0.446(2) 1.238(2) 0.8635(3)
C15 C 0.3814(18) 0.8569(16) 0.9905(3)
H11 H 0.2857 0.8242 0.9827
H12 H 0.4444 0.7693 0.9934
C16 C 0.6102(16) 0.6315(18) 0.7587(3)
H13 H 0.5757 0.5365 0.7665
H14 H 0.5243 0.6969 0.7561
C17 C 0.6009(19) 0.5546(19) 0.7111(4)
C18 C 0.1092(18) 1.1671(19) 0.9726(4)
C19 C 0.697(2) 0.5236(19) 0.6847(3)
H15 H 0.7976 0.5585 0.6882
H16 H 0.6562 0.5751 0.6683
H17 H 0.699 0.4176 0.681
C20 C 0.297(2) 0.854(2) 1.0381(3)
C21 C 1.3125(17) 0.4805(19) 0.8067(4)
H18 H 1.2692 0.4305 0.823
H19 H 1.4085 0.5211 0.8119
H20 H 1.3248 0.4101 0.7912
C22 C 0.689(2) 1.330(2) 0.8614(4)
H21 H 0.7677 1.3429 0.8754
H22 H 0.6622 1.4263 0.8536
H23 H 0.7237 1.266 0.8461
C23 C 0.2313(18) 1.5632(19) 0.9446(3)
H24 H 0.1696 1.5143 0.9304
H25 H 0.2685 1.656 0.9369
H26 H 0.1729 1.5832 0.9616
C24 C 0.2728(19) 0.945(2) 1.0652(3)
H27 H 0.3003 1.0478 1.0616
H28 H 0.3335 0.9057 1.0805
H29 H 0.169 0.9405 1.0706
C25 C 0.875(2) 0.2101(15) 0.7883(3)
H30 H 0.7931 0.2211 0.8015
H31 H 0.9575 0.1614 0.7978
H32 H 0.8436 0.1504 0.7721
C26 C -0.0408(16) 1.122(2) 0.9619(3)
H33 H -0.0297 1.0425 0.9479
H34 H -0.0892 1.2061 0.953
H35 H -0.1006 1.0865 0.9777
C27 C 1.084(2) 0.938(3) 0.8893(4)
H36 H 1.1124 0.9066 0.9084
H37 H 1.0143 1.0202 0.8907
H38 H 1.1714 0.9702 0.8789
C28 C 1.011(2) 0.809(3) 0.8736(5)
C29 C 1.2106(18) 0.6057(19) 0.7971(3)
C30 C 0.552(3) 1.259(2) 0.8759(4)
S1 S 0.5483(8) 0.2470(9) 0.61002(15)
N1 N 0.5053(9) 0.2006(9) 0.64100(16)
O1 O 0.7796(11) 0.5841(11) 0.5411(2)
O2 O 0.3551(9) 0.2123(10) 0.6936(2)
O3 O 0.6493(11) 0.8351(10) 0.5629(2)
O4 O 0.1628(10) -0.0311(11) 0.7094(2)
O5 O 0.5377(11) 0.3958(10) 0.5566(2)
O6 O 0.4092(11) 0.7150(10) 0.5987(2)
O7 O 0.0342(11) 0.3391(12) 0.6518(2)
O8 O -0.0830(10) 0.1023(11) 0.6868(2)
O9 O 0.8615(11) 0.7654(13) 0.5105(2)
O10 O -0.0166(12) -0.1146(11) 0.7393(2)
O11 O 0.3151(10) 0.1091(11) 0.7677(2)
O12 O 0.6399(11) 0.4345(11) 0.4829(2)
O13 O -0.2337(12) 0.1938(15) 0.7210(3)
N2 N 0.3423(13) 0.4074(12) 0.6249(3)
C1 C 0.6436(19) 0.9666(16) 0.5480(4)
O14 O 0.5554(15) 0.9864(12) 0.5296(2)
C2 C 0.0402(14) 0.2006(15) 0.6953(3)
H1 H -0.0003 0.2945 0.703
C3 C 0.1218(14) 0.2322(15) 0.6668(3)
H2 H 0.1314 0.1399 0.6555
C4 C 0.2753(14) 0.2980(15) 0.6732(3)
H3 H 0.263 0.4004 0.6805
O15 O 0.7224(18) 0.2222(15) 0.4636(3)
C5 C 0.3749(17) 0.3023(18) 0.6457(3)
C6 C 0.2777(14) 0.2028(18) 0.7212(3)
H4 H 0.2575 0.3051 0.728
C7 C 0.4394(16) 0.3846(13) 0.6035(3)
C8 C 0.1343(16) 0.1246(15) 0.7178(3)
H5 H 0.0805 0.1258 0.7363
C9 C 0.5222(17) 0.6322(14) 0.5820(3)
H6 H 0.6149 0.6214 0.5932
C10 C 0.6259(14) 0.6185(15) 0.5327(3)
H7 H 0.6255 0.6701 0.514
O16 O 0.5255(13) 0.0254(17) 0.7865(3)
C11 C 0.5521(15) 0.7143(15) 0.5548(3)
H8 H 0.458 0.7547 0.547
C12 C 0.4493(16) 0.4732(14) 0.5762(3)
H9 H 0.3485 0.4866 0.5682
C13 C 0.0776(17) -0.1421(17) 0.7218(3)
C14 C 0.5436(19) 0.4668(14) 0.5300(3)
H10 H 0.4409 0.4853 0.5233
O17 O 0.0024(19) 0.183(3) 0.6156(3)
O18 O 0.554(2) 0.738(2) 0.6365(3)
C15 C 0.6186(18) 0.3569(16) 0.5095(3)
H11 H 0.7143 0.3242 0.5173
H12 H 0.5556 0.2693 0.5066
C16 C 0.3898(16) 0.1315(18) 0.7413(3)
H13 H 0.4243 0.0365 0.7335
H14 H 0.4757 0.1969 0.7439
C17 C 0.3991(19) 0.0546(19) 0.7889(4)
C18 C 0.8908(18) 0.6671(19) 0.5274(4)
C19 C 0.303(2) 0.0236(19) 0.8153(3)
H15 H 0.2024 0.0585 0.8118
H16 H 0.3438 0.0751 0.8317
H17 H 0.301 -0.0824 0.819
C20 C 0.703(2) 0.354(2) 0.4619(3)
C21 C -0.3125(17) -0.0195(19) 0.6933(4)
H18 H -0.2692 -0.0695 0.677
H19 H -0.4085 0.0211 0.6881
H20 H -0.3248 -0.0899 0.7088
C22 C 0.311(2) 0.830(2) 0.6386(4)
H21 H 0.2323 0.8429 0.6246
H22 H 0.3378 0.9263 0.6464
H23 H 0.2763 0.766 0.6539
C23 C 0.7687(18) 1.0632(19) 0.5554(3)
H24 H 0.8304 1.0143 0.5696
H25 H 0.7315 1.156 0.5631
H26 H 0.8271 1.0832 0.5384
C24 C 0.7272(19) 0.445(2) 0.4348(3)
H27 H 0.6997 0.5478 0.4384
H28 H 0.6665 0.4057 0.4195
H29 H 0.831 0.4405 0.4294
C25 C 0.125(2) -0.2899(15) 0.7117(3)
H30 H 0.2069 -0.2789 0.6985
H31 H 0.0425 -0.3386 0.7022
H32 H 0.1564 -0.3496 0.7279
C26 C 1.0408(16) 0.622(2) 0.5381(3)
H33 H 1.0297 0.5425 0.5521
H34 H 1.0892 0.7061 0.547
H35 H 1.1006 0.5865 0.5223
C27 C -0.084(2) 0.438(3) 0.6107(4)
H36 H -0.1124 0.4066 0.5916
H37 H -0.0143 0.5202 0.6093
H38 H -0.1714 0.4702 0.6211
C28 C -0.011(2) 0.309(3) 0.6264(5)
C29 C -0.2106(18) 0.1057(19) 0.7029(3)
C30 C 0.448(3) 0.759(2) 0.6241(4)
S1 S -0.0483(8) 0.7530(9) 0.11002(15)
N1 N -0.0053(9) 0.7994(9) 0.14100(16)
O1 O -0.2796(11) 0.4159(11) 0.0411(2)
O2 O 0.1449(9) 0.7877(10) 0.1936(2)
O3 O -0.1493(11) 0.1649(10) 0.0629(2)
O4 O 0.3372(10) 1.0311(11) 0.2094(2)
O5 O -0.0377(11) 0.6042(10) 0.0566(2)
O6 O 0.0908(11) 0.2850(10) 0.0987(2)
O7 O 0.4658(11) 0.6609(12) 0.1518(2)
O8 O 0.5830(10) 0.8977(11) 0.1868(2)
O9 O -0.3615(11) 0.2346(13) 0.0105(2)
O10 O 0.5166(12) 1.1146(11) 0.2393(2)
O11 O 0.1849(10) 0.8909(11) 0.2677(2)
O12 O -0.1399(11) 0.5655(11) -0.0171(2)
O13 O 0.7337(12) 0.8062(15) 0.2210(3)
N2 N 0.1577(13) 0.5926(12) 0.1249(3)
C1 C -0.1436(19) 0.0334(16) 0.0480(4)
O14 O -0.0554(15) 0.0136(12) 0.0296(2)
C2 C 0.4598(14) 0.7994(15) 0.1953(3)
H1 H 0.5003 0.7055 0.203
C3 C 0.3782(14) 0.7678(15) 0.1668(3)
H2 H 0.3686 0.8601 0.1555
C4 C 0.2247(14) 0.7020(15) 0.1732(3)
H3 H 0.237 0.5996 0.1805
O15 O -0.2224(18) 0.7778(15) -0.0364(3)
C5 C 0.1251(17) 0.6977(18) 0.1457(3)
C6 C 0.2223(14) 0.7972(18) 0.2212(3)
H4 H 0.2425 0.6949 0.228
C7 C 0.0606(16) 0.6154(13) 0.1035(3)
C8 C 0.3657(16) 0.8754(15) 0.2178(3)
H5 H 0.4195 0.8742 0.2363
C9 C -0.0222(17) 0.3678(14) 0.0820(3)
H6 H -0.1149 0.3786 0.0932
C10 C -0.1259(14) 0.3815(15) 0.0327(3)
H7 H -0.1255 0.3299 0.014
O16 O -0.0255(13) 0.9746(17) 0.2865(3)
C11 C -0.0521(15) 0.2857(15) 0.0548(3)
H8 H 0.042 0.2453 0.047
C12 C 0.0507(16) 0.5268(14) 0.0762(3)
H9 H 0.1515 0.5134 0.0682
C13 C 0.4224(17) 1.1421(17) 0.2218(3)
C14 C -0.0436(19) 0.5332(14) 0.0300(3)
H10 H 0.0591 0.5147 0.0233
O17 O 0.4976(19) 0.817(3) 0.1156(3)
O18 O -0.054(2) 0.262(2) 0.1365(3)
C15 C -0.1186(18) 0.6431(16) 0.0095(3)
H11 H -0.2143 0.6758 0.0173
H12 H -0.0556 0.7307 0.0066
C16 C 0.1102(16) 0.8685(18) 0.2413(3)
H13 H 0.0757 0.9635 0.2335
H14 H 0.0243 0.8031 0.2439
C17 C 0.1009(19) 0.9454(19) 0.2889(4)
C18 C -0.3908(18) 0.3329(19) 0.0274(4)
C19 C 0.197(2) 0.9764(19) 0.3153(3)
H15 H 0.2976 0.9415 0.3118
H16 H 0.1562 0.9249 0.3317
H17 H 0.199 1.0824 0.319
C20 C -0.203(2) 0.646(2) -0.0381(3)
C21 C 0.8125(17) 1.0195(19) 0.1933(4)
H18 H 0.7692 1.0695 0.177
H19 H 0.9085 0.9789 0.1881
H20 H 0.8248 1.0899 0.2088
C22 C 0.189(2) 0.170(2) 0.1386(4)
H21 H 0.2677 0.1571 0.1246
H22 H 0.1622 0.0737 0.1464
H23 H 0.2237 0.234 0.1539
C23 C -0.2687(18) -0.0632(19) 0.0554(3)
H24 H -0.3304 -0.0143 0.0696
H25 H -0.2315 -0.156 0.0631
H26 H -0.3271 -0.0832 0.0384
C24 C -0.2272(19) 0.555(2) -0.0652(3)
H27 H -0.1997 0.4522 -0.0616
H28 H -0.1665 0.5943 -0.0805
H29 H -0.331 0.5595 -0.0706
C25 C 0.375(2) 1.2899(15) 0.2117(3)
H30 H 0.2931 1.2789 0.1985
H31 H 0.4575 1.3386 0.2022
H32 H 0.3436 1.3496 0.2279
C26 C -0.5408(16) 0.378(2) 0.0381(3)
H33 H -0.5297 0.4575 0.0521
H34 H -0.5892 0.2939 0.047
H35 H -0.6006 0.4135 0.0223
C27 C 0.584(2) 0.562(3) 0.1107(4)
H36 H 0.6124 0.5934 0.0916
H37 H 0.5143 0.4798 0.1093
H38 H 0.6714 0.5298 0.1211
C28 C 0.511(2) 0.691(3) 0.1264(5)
C29 C 0.7106(18) 0.8943(19) 0.2029(3)
C30 C 0.052(3) 0.241(2) 0.1241(4)

#END
