
#######################################################################
#
#                 Cambridge Crystallographic Data Centre
#                                CCDC 
#
#######################################################################
#
# If this CIF has been generated from an entry in the Cambridge 
# Structural Database, then it will include bibliographic, chemical, 
# crystal, experimental, refinement or atomic coordinate data resulting 
# from the CCDC's data processing and validation procedures.
#
#######################################################################

data_ABIQUX
_symmetry_cell_setting           monoclinic
_symmetry_space_group_name_H-M   'P 21/c'
_symmetry_Int_Tables_number      14
_space_group_name_Hall           '-P 2ybc'
loop_
_symmetry_equiv_pos_site_id
_symmetry_equiv_pos_as_xyz
1 x,y,z
2 x,1/2-y,1/2+z
3 -x,-y,-z
4 -x,1/2+y,1/2-z
_cell_length_a                   16.804(4)
_cell_length_b                   11.226(3)
_cell_length_c                   13.603(3)
_cell_angle_alpha                90
_cell_angle_beta                 103.91(3)
_cell_angle_gamma                90
_cell_volume                     2490.84
loop_
_atom_site_label
_atom_site_type_symbol
_atom_site_fract_x
_atom_site_fract_y
_atom_site_fract_z
Ti1 Ti 0.27389(4) 0.00019(6) 0.26357(4)
N1 N 0.3745(2) 0.0371(3) 0.2744(2)
N2 N 0.2842(2) -0.1407(3) 0.3878(2)
N3 N 0.2597(2) 0.0554(3) 0.4217(2)
N4 N 0.1541(2) -0.0612(3) 0.3281(2)
C1 C 0.1960(2) -0.1703(3) 0.3695(3)
C2 C 0.3048(2) -0.0507(3) 0.4675(2)
C3 C 0.1712(2) 0.0333(3) 0.4042(3)
C4 C 0.4591(2) 0.0649(3) 0.2781(3)
C5 C 0.4652(3) 0.1120(4) 0.1745(3)
C6 C 0.5109(2) -0.0479(4) 0.3054(4)
C7 C 0.4900(2) 0.1588(4) 0.3600(3)
C8 C 0.3379(2) -0.2455(3) 0.4071(3)
C9 C 0.2862(2) 0.1637(3) 0.4825(3)
C10 C 0.0655(2) -0.0790(4) 0.2869(3)
C11 C 0.2564(2) -0.1375(4) 0.1438(3)
C12 C 0.1743(2) -0.1900(3) 0.1058(3)
C13 C 0.1545(3) -0.3050(4) 0.1314(3)
C14 C 0.0748(3) -0.3503(4) 0.0966(3)
C15 C 0.0149(3) -0.2841(5) 0.0339(3)
C16 C 0.0338(3) -0.1708(5) 0.0069(3)
C17 C 0.1117(2) -0.1240(4) 0.0420(3)
C18 C 0.2034(2) 0.1486(3) 0.1766(3)
C19 C 0.2075(2) 0.2620(3) 0.2324(3)
C20 C 0.1399(2) 0.3042(3) 0.2674(3)
C21 C 0.1457(2) 0.4048(4) 0.3279(3)
C22 C 0.2186(2) 0.4688(3) 0.3554(3)
C23 C 0.2849(2) 0.4306(3) 0.3198(3)
C24 C 0.2798(2) 0.3299(3) 0.2597(3)
H1 H 0.272(3) -0.089(4) 0.093(3)
H2 H 0.298(2) -0.191(3) 0.165(3)
H3 H 0.230(3) 0.154(4) 0.123(3)
H4 H 0.146(3) 0.120(4) 0.153(3)
H5 H 0.1820(2) -0.1921(3) 0.4315(3)
H6 H 0.1822(2) -0.2344(3) 0.3217(3)
H7 H 0.3628(2) -0.0358(3) 0.4852(2)
H8 H 0.2875(2) -0.0753(3) 0.5267(2)
H9 H 0.1577(2) 0.0078(3) 0.4655(3)
H10 H 0.1405(2) 0.1039(3) 0.3794(3)
H11 H 0.5211(3) 0.1310(4) 0.1759(3)
H12 H 0.4321(3) 0.1823(4) 0.1587(3)
H13 H 0.4456(3) 0.0524(4) 0.1239(3)
H14 H 0.5672(2) -0.0301(4) 0.3081(4)
H15 H 0.5061(2) -0.0762(4) 0.3703(4)
H16 H 0.4917(2) -0.1082(4) 0.2552(4)
H17 H 0.5462(2) 0.1775(4) 0.3627(3)
H18 H 0.4857(2) 0.1281(4) 0.4244(3)
H19 H 0.4573(2) 0.2295(4) 0.3444(3)
H20 H 0.3940(2) -0.2207(3) 0.4184(3)
H21 H 0.3299(2) -0.2866(3) 0.4659(3)
H22 H 0.3247(2) -0.2978(3) 0.3496(3)
H23 H 0.2553(2) 0.2308(3) 0.4501(3)
H24 H 0.2772(2) 0.1536(3) 0.5490(3)
H25 H 0.3435(2) 0.1772(3) 0.4876(3)
H26 H 0.0408(2) -0.0049(4) 0.2607(3)
H27 H 0.0411(2) -0.1068(4) 0.3396(3)
H28 H 0.0570(2) -0.1369(4) 0.2334(3)
H29 H 0.1962(3) -0.3536(4) 0.1733(3)
H30 H 0.0620(3) -0.4284(4) 0.1170(3)
H31 H -0.0391(3) -0.3164(5) 0.0090(3)
H32 H -0.0080(3) -0.1237(5) -0.0364(3)
H33 H 0.1236(2) -0.0453(4) 0.0219(3)
H34 H 0.0888(2) 0.2622(3) 0.2485(3)
H35 H 0.0989(2) 0.4306(4) 0.3512(3)
H36 H 0.2230(2) 0.5377(3) 0.3982(3)
H37 H 0.3353(2) 0.4746(3) 0.3373(3)
H38 H 0.3267(2) 0.3059(3) 0.2358(3)
Ti1 Ti 0.27389(4) 0.49981(6) 0.76357(4)
N1 N 0.3745(2) 0.4629(3) 0.7744(2)
N2 N 0.2842(2) 0.6407(3) 0.8878(2)
N3 N 0.2597(2) 0.4446(3) 0.9217(2)
N4 N 0.1541(2) 0.5612(3) 0.8281(2)
C1 C 0.1960(2) 0.6703(3) 0.8695(3)
C2 C 0.3048(2) 0.5507(3) 0.9675(2)
C3 C 0.1712(2) 0.4667(3) 0.9042(3)
C4 C 0.4591(2) 0.4351(3) 0.7781(3)
C5 C 0.4652(3) 0.3880(4) 0.6745(3)
C6 C 0.5109(2) 0.5479(4) 0.8054(4)
C7 C 0.4900(2) 0.3412(4) 0.8600(3)
C8 C 0.3379(2) 0.7455(3) 0.9071(3)
C9 C 0.2862(2) 0.3363(3) 0.9825(3)
C10 C 0.0655(2) 0.5790(4) 0.7869(3)
C11 C 0.2564(2) 0.6375(4) 0.6438(3)
C12 C 0.1743(2) 0.6900(3) 0.6058(3)
C13 C 0.1545(3) 0.8050(4) 0.6314(3)
C14 C 0.0748(3) 0.8503(4) 0.5966(3)
C15 C 0.0149(3) 0.7841(5) 0.5339(3)
C16 C 0.0338(3) 0.6708(5) 0.5069(3)
C17 C 0.1117(2) 0.6240(4) 0.5420(3)
C18 C 0.2034(2) 0.3514(3) 0.6766(3)
C19 C 0.2075(2) 0.2380(3) 0.7324(3)
C20 C 0.1399(2) 0.1958(3) 0.7674(3)
C21 C 0.1457(2) 0.0952(4) 0.8279(3)
C22 C 0.2186(2) 0.0312(3) 0.8554(3)
C23 C 0.2849(2) 0.0694(3) 0.8198(3)
C24 C 0.2798(2) 0.1701(3) 0.7597(3)
H1 H 0.272(3) 0.589(4) 0.593(3)
H2 H 0.298(2) 0.691(3) 0.665(3)
H3 H 0.230(3) 0.346(4) 0.623(3)
H4 H 0.146(3) 0.380(4) 0.653(3)
H5 H 0.1820(2) 0.6921(3) 0.9315(3)
H6 H 0.1822(2) 0.7344(3) 0.8217(3)
H7 H 0.3628(2) 0.5358(3) 0.9852(2)
H8 H 0.2875(2) 0.5753(3) 1.0267(2)
H9 H 0.1577(2) 0.4922(3) 0.9655(3)
H10 H 0.1405(2) 0.3961(3) 0.8794(3)
H11 H 0.5211(3) 0.3690(4) 0.6759(3)
H12 H 0.4321(3) 0.3177(4) 0.6587(3)
H13 H 0.4456(3) 0.4476(4) 0.6239(3)
H14 H 0.5672(2) 0.5301(4) 0.8081(4)
H15 H 0.5061(2) 0.5762(4) 0.8703(4)
H16 H 0.4917(2) 0.6082(4) 0.7552(4)
H17 H 0.5462(2) 0.3225(4) 0.8627(3)
H18 H 0.4857(2) 0.3719(4) 0.9244(3)
H19 H 0.4573(2) 0.2705(4) 0.8444(3)
H20 H 0.3940(2) 0.7207(3) 0.9184(3)
H21 H 0.3299(2) 0.7866(3) 0.9659(3)
H22 H 0.3247(2) 0.7978(3) 0.8496(3)
H23 H 0.2553(2) 0.2692(3) 0.9501(3)
H24 H 0.2772(2) 0.3464(3) 1.0490(3)
H25 H 0.3435(2) 0.3228(3) 0.9876(3)
H26 H 0.0408(2) 0.5049(4) 0.7607(3)
H27 H 0.0411(2) 0.6068(4) 0.8396(3)
H28 H 0.0570(2) 0.6369(4) 0.7334(3)
H29 H 0.1962(3) 0.8536(4) 0.6733(3)
H30 H 0.0620(3) 0.9284(4) 0.6170(3)
H31 H -0.0391(3) 0.8164(5) 0.5090(3)
H32 H -0.0080(3) 0.6237(5) 0.4636(3)
H33 H 0.1236(2) 0.5453(4) 0.5219(3)
H34 H 0.0888(2) 0.2378(3) 0.7485(3)
H35 H 0.0989(2) 0.0694(4) 0.8512(3)
H36 H 0.2230(2) -0.0377(3) 0.8982(3)
H37 H 0.3353(2) 0.0254(3) 0.8373(3)
H38 H 0.3267(2) 0.1941(3) 0.7358(3)
Ti1 Ti 0.72611(4) 0.99981(6) 0.73643(4)
N1 N 0.6255(2) 0.9629(3) 0.7256(2)
N2 N 0.7158(2) 1.1407(3) 0.6122(2)
N3 N 0.7403(2) 0.9446(3) 0.5783(2)
N4 N 0.8459(2) 1.0612(3) 0.6719(2)
C1 C 0.8040(2) 1.1703(3) 0.6305(3)
C2 C 0.6952(2) 1.0507(3) 0.5325(2)
C3 C 0.8288(2) 0.9667(3) 0.5958(3)
C4 C 0.5409(2) 0.9351(3) 0.7219(3)
C5 C 0.5348(3) 0.8880(4) 0.8255(3)
C6 C 0.4891(2) 1.0479(4) 0.6946(4)
C7 C 0.5100(2) 0.8412(4) 0.6400(3)
C8 C 0.6621(2) 1.2455(3) 0.5929(3)
C9 C 0.7138(2) 0.8363(3) 0.5175(3)
C10 C 0.9345(2) 1.0790(4) 0.7131(3)
C11 C 0.7436(2) 1.1375(4) 0.8562(3)
C12 C 0.8257(2) 1.1900(3) 0.8942(3)
C13 C 0.8455(3) 1.3050(4) 0.8686(3)
C14 C 0.9252(3) 1.3503(4) 0.9034(3)
C15 C 0.9851(3) 1.2841(5) 0.9661(3)
C16 C 0.9662(3) 1.1708(5) 0.9931(3)
C17 C 0.8883(2) 1.1240(4) 0.9580(3)
C18 C 0.7966(2) 0.8514(3) 0.8234(3)
C19 C 0.7925(2) 0.7380(3) 0.7676(3)
C20 C 0.8601(2) 0.6958(3) 0.7326(3)
C21 C 0.8543(2) 0.5952(4) 0.6721(3)
C22 C 0.7814(2) 0.5312(3) 0.6446(3)
C23 C 0.7151(2) 0.5694(3) 0.6802(3)
C24 C 0.7202(2) 0.6701(3) 0.7403(3)
H1 H 0.728(3) 1.089(4) 0.907(3)
H2 H 0.702(2) 1.191(3) 0.835(3)
H3 H 0.770(3) 0.846(4) 0.877(3)
H4 H 0.854(3) 0.880(4) 0.847(3)
H5 H 0.8180(2) 1.1921(3) 0.5685(3)
H6 H 0.8178(2) 1.2344(3) 0.6783(3)
H7 H 0.6372(2) 1.0358(3) 0.5148(2)
H8 H 0.7125(2) 1.0753(3) 0.4733(2)
H9 H 0.8423(2) 0.9922(3) 0.5345(3)
H10 H 0.8595(2) 0.8961(3) 0.6206(3)
H11 H 0.4789(3) 0.8690(4) 0.8241(3)
H12 H 0.5679(3) 0.8177(4) 0.8413(3)
H13 H 0.5544(3) 0.9476(4) 0.8761(3)
H14 H 0.4328(2) 1.0301(4) 0.6919(4)
H15 H 0.4939(2) 1.0762(4) 0.6297(4)
H16 H 0.5083(2) 1.1082(4) 0.7448(4)
H17 H 0.4538(2) 0.8225(4) 0.6373(3)
H18 H 0.5143(2) 0.8719(4) 0.5756(3)
H19 H 0.5427(2) 0.7705(4) 0.6556(3)
H20 H 0.6060(2) 1.2207(3) 0.5816(3)
H21 H 0.6701(2) 1.2866(3) 0.5341(3)
H22 H 0.6753(2) 1.2978(3) 0.6504(3)
H23 H 0.7447(2) 0.7692(3) 0.5499(3)
H24 H 0.7228(2) 0.8464(3) 0.4510(3)
H25 H 0.6565(2) 0.8228(3) 0.5124(3)
H26 H 0.9592(2) 1.0049(4) 0.7393(3)
H27 H 0.9589(2) 1.1068(4) 0.6604(3)
H28 H 0.9430(2) 1.1369(4) 0.7666(3)
H29 H 0.8038(3) 1.3536(4) 0.8267(3)
H30 H 0.9380(3) 1.4284(4) 0.8830(3)
H31 H 1.0391(3) 1.3164(5) 0.9910(3)
H32 H 1.0080(3) 1.1237(5) 1.0364(3)
H33 H 0.8764(2) 1.0453(4) 0.9781(3)
H34 H 0.9112(2) 0.7378(3) 0.7515(3)
H35 H 0.9011(2) 0.5694(4) 0.6488(3)
H36 H 0.7770(2) 0.4623(3) 0.6018(3)
H37 H 0.6647(2) 0.5254(3) 0.6627(3)
H38 H 0.6733(2) 0.6941(3) 0.7642(3)
Ti1 Ti 0.72611(4) 0.50019(6) 0.23643(4)
N1 N 0.6255(2) 0.5371(3) 0.2256(2)
N2 N 0.7158(2) 0.3593(3) 0.1122(2)
N3 N 0.7403(2) 0.5554(3) 0.0783(2)
N4 N 0.8459(2) 0.4388(3) 0.1719(2)
C1 C 0.8040(2) 0.3297(3) 0.1305(3)
C2 C 0.6952(2) 0.4493(3) 0.0325(2)
C3 C 0.8288(2) 0.5333(3) 0.0958(3)
C4 C 0.5409(2) 0.5649(3) 0.2219(3)
C5 C 0.5348(3) 0.6120(4) 0.3255(3)
C6 C 0.4891(2) 0.4521(4) 0.1946(4)
C7 C 0.5100(2) 0.6588(4) 0.1400(3)
C8 C 0.6621(2) 0.2545(3) 0.0929(3)
C9 C 0.7138(2) 0.6637(3) 0.0175(3)
C10 C 0.9345(2) 0.4210(4) 0.2131(3)
C11 C 0.7436(2) 0.3625(4) 0.3562(3)
C12 C 0.8257(2) 0.3100(3) 0.3942(3)
C13 C 0.8455(3) 0.1950(4) 0.3686(3)
C14 C 0.9252(3) 0.1497(4) 0.4034(3)
C15 C 0.9851(3) 0.2159(5) 0.4661(3)
C16 C 0.9662(3) 0.3292(5) 0.4931(3)
C17 C 0.8883(2) 0.3760(4) 0.4580(3)
C18 C 0.7966(2) 0.6486(3) 0.3234(3)
C19 C 0.7925(2) 0.7620(3) 0.2676(3)
C20 C 0.8601(2) 0.8042(3) 0.2326(3)
C21 C 0.8543(2) 0.9048(4) 0.1721(3)
C22 C 0.7814(2) 0.9688(3) 0.1446(3)
C23 C 0.7151(2) 0.9306(3) 0.1802(3)
C24 C 0.7202(2) 0.8299(3) 0.2403(3)
H1 H 0.728(3) 0.411(4) 0.407(3)
H2 H 0.702(2) 0.309(3) 0.335(3)
H3 H 0.770(3) 0.654(4) 0.377(3)
H4 H 0.854(3) 0.620(4) 0.347(3)
H5 H 0.8180(2) 0.3079(3) 0.0685(3)
H6 H 0.8178(2) 0.2656(3) 0.1783(3)
H7 H 0.6372(2) 0.4642(3) 0.0148(2)
H8 H 0.7125(2) 0.4247(3) -0.0267(2)
H9 H 0.8423(2) 0.5078(3) 0.0345(3)
H10 H 0.8595(2) 0.6039(3) 0.1206(3)
H11 H 0.4789(3) 0.6310(4) 0.3241(3)
H12 H 0.5679(3) 0.6823(4) 0.3413(3)
H13 H 0.5544(3) 0.5524(4) 0.3761(3)
H14 H 0.4328(2) 0.4699(4) 0.1919(4)
H15 H 0.4939(2) 0.4238(4) 0.1297(4)
H16 H 0.5083(2) 0.3918(4) 0.2448(4)
H17 H 0.4538(2) 0.6775(4) 0.1373(3)
H18 H 0.5143(2) 0.6281(4) 0.0756(3)
H19 H 0.5427(2) 0.7295(4) 0.1556(3)
H20 H 0.6060(2) 0.2793(3) 0.0816(3)
H21 H 0.6701(2) 0.2134(3) 0.0341(3)
H22 H 0.6753(2) 0.2022(3) 0.1504(3)
H23 H 0.7447(2) 0.7308(3) 0.0499(3)
H24 H 0.7228(2) 0.6536(3) -0.0490(3)
H25 H 0.6565(2) 0.6772(3) 0.0124(3)
H26 H 0.9592(2) 0.4951(4) 0.2393(3)
H27 H 0.9589(2) 0.3932(4) 0.1604(3)
H28 H 0.9430(2) 0.3631(4) 0.2666(3)
H29 H 0.8038(3) 0.1464(4) 0.3267(3)
H30 H 0.9380(3) 0.0716(4) 0.3830(3)
H31 H 1.0391(3) 0.1836(5) 0.4910(3)
H32 H 1.0080(3) 0.3763(5) 0.5364(3)
H33 H 0.8764(2) 0.4547(4) 0.4781(3)
H34 H 0.9112(2) 0.7622(3) 0.2515(3)
H35 H 0.9011(2) 0.9306(4) 0.1488(3)
H36 H 0.7770(2) 1.0377(3) 0.1018(3)
H37 H 0.6647(2) 0.9746(3) 0.1627(3)
H38 H 0.6733(2) 0.8059(3) 0.2642(3)

#END
