./ABIRUZ_from_xyz.cif_generated_by_CrystalShift
_symmetry_cell_setting triclinic
_symmetry_space_group_name_H-M 'P 1'
loop_
_symmetry_equiv_pos_site_id
_symmetry_equiv_pos_as_xyz
1 x,y,z
_cell_length_a 7.044100
_cell_length_b 9.738000
_cell_length_c 17.841000
_cell_angle_alpha 90.000000
_cell_angle_beta 90.000000
_cell_angle_gamma 90.000000
_cell_volume 1223.811349
loop_
_atom_site_label
_atom_site_type_symbol
_atom_site_fract_x
_atom_site_fract_y
_atom_site_fract_z
O1 O 0.329800 0.180600 0.600100
O2 O 0.171400 0.184900 0.337800
N3 N 0.246200 0.037200 0.470700
C4 C 0.146700 -0.160000 0.546600
C5 C 0.117200 -0.214900 0.614800
C6 C 0.157800 -0.134000 0.679500
C7 C 0.223200 -0.003400 0.673600
C8 C 0.259800 0.046200 0.604500
C9 C 0.223500 -0.026300 0.536300
C10 C 0.253500 0.181500 0.469600
C11 C 0.296700 0.254000 0.535700
C12 C 0.282300 0.399700 0.533300
C13 C 0.256200 0.466300 0.464700
C14 C 0.212700 0.391000 0.400900
C15 C 0.221500 0.253900 0.405100
C16 C 0.347600 -0.155500 0.389600
C17 C 0.381600 -0.209300 0.316300
C18 C 0.343100 -0.139900 0.254900
C19 C 0.266100 -0.005600 0.264100
C20 C 0.238800 0.053700 0.334600
C21 C 0.276000 -0.028200 0.397200
H22 H 0.111700 -0.208100 0.505000
H23 H 0.077200 -0.304400 0.617300
H24 H 0.142700 -0.171500 0.728300
H25 H 0.264600 0.044900 0.714800
H26 H 0.315700 0.444400 0.583300
H27 H 0.256600 0.566200 0.469800
H28 H 0.194600 0.440600 0.357200
H29 H 0.369400 -0.217500 0.436700
H30 H 0.437900 -0.305500 0.308400
H31 H 0.373000 -0.180000 0.204100
H32 H 0.257200 0.054500 0.218000
O33 O 0.170200 0.680600 1.100100
O34 O 0.328600 0.684900 0.837800
N35 N 0.253800 0.537200 0.970700
C36 C 0.353300 0.340000 1.046600
C37 C 0.382800 0.285100 1.114800
C38 C 0.342200 0.366000 1.179500
C39 C 0.276800 0.496600 1.173600
C40 C 0.240200 0.546200 1.104500
C41 C 0.276500 0.473700 1.036300
C42 C 0.246500 0.681500 0.969600
C43 C 0.203300 0.754000 1.035700
C44 C 0.217700 0.899700 1.033300
C45 C 0.243800 0.966300 0.964700
C46 C 0.287300 0.891000 0.900900
C47 C 0.278500 0.753900 0.905100
C48 C 0.152400 0.344500 0.889600
C49 C 0.118400 0.290700 0.816300
C50 C 0.156900 0.360100 0.754900
C51 C 0.233900 0.494400 0.764100
C52 C 0.261200 0.553700 0.834600
C53 C 0.224000 0.471800 0.897200
H54 H 0.388300 0.291900 1.005000
H55 H 0.422800 0.195600 1.117300
H56 H 0.357300 0.328500 1.228300
H57 H 0.235400 0.544900 1.214800
H58 H 0.184300 0.944400 1.083300
H59 H 0.243400 1.066200 0.969800
H60 H 0.305400 0.940600 0.857200
H61 H 0.130600 0.282500 0.936700
H62 H 0.062100 0.194500 0.808400
H63 H 0.127000 0.320000 0.704100
H64 H 0.242800 0.554500 0.718000
O65 O 0.829800 0.319400 0.600100
O66 O 0.671400 0.315100 0.337800
N67 N 0.746200 0.462800 0.470700
C68 C 0.646700 0.660000 0.546600
C69 C 0.617200 0.714900 0.614800
C70 C 0.657800 0.634000 0.679500
C71 C 0.723200 0.503400 0.673600
C72 C 0.759800 0.453800 0.604500
C73 C 0.723500 0.526300 0.536300
C74 C 0.753500 0.318500 0.469600
C75 C 0.796700 0.246000 0.535700
C76 C 0.782300 0.100300 0.533300
C77 C 0.756200 0.033700 0.464700
C78 C 0.712700 0.109000 0.400900
C79 C 0.721500 0.246100 0.405100
C80 C 0.847600 0.655500 0.389600
C81 C 0.881600 0.709300 0.316300
C82 C 0.843100 0.639900 0.254900
C83 C 0.766100 0.505600 0.264100
C84 C 0.738800 0.446300 0.334600
C85 C 0.776000 0.528200 0.397200
H86 H 0.611700 0.708100 0.505000
H87 H 0.577200 0.804400 0.617300
H88 H 0.642700 0.671500 0.728300
H89 H 0.764600 0.455100 0.714800
H90 H 0.815700 0.055600 0.583300
H91 H 0.756600 -0.066200 0.469800
H92 H 0.694600 0.059400 0.357200
H93 H 0.869400 0.717500 0.436700
H94 H 0.937900 0.805500 0.308400
H95 H 0.873000 0.680000 0.204100
H96 H 0.757200 0.445500 0.218000
O97 O 0.670200 0.819400 1.100100
O98 O 0.828600 0.815100 0.837800
N99 N 0.753800 0.962800 0.970700
C100 C 0.853300 1.160000 1.046600
C101 C 0.882800 1.214900 1.114800
C102 C 0.842200 1.134000 1.179500
C103 C 0.776800 1.003400 1.173600
C104 C 0.740200 0.953800 1.104500
C105 C 0.776500 1.026300 1.036300
C106 C 0.746500 0.818500 0.969600
C107 C 0.703300 0.746000 1.035700
C108 C 0.717700 0.600300 1.033300
C109 C 0.743800 0.533700 0.964700
C110 C 0.787300 0.609000 0.900900
C111 C 0.778500 0.746100 0.905100
C112 C 0.652400 1.155500 0.889600
C113 C 0.618400 1.209300 0.816300
C114 C 0.656900 1.139900 0.754900
C115 C 0.733900 1.005600 0.764100
C116 C 0.761200 0.946300 0.834600
C117 C 0.724000 1.028200 0.897200
H118 H 0.888300 1.208100 1.005000
H119 H 0.922800 1.304400 1.117300
H120 H 0.857300 1.171500 1.228300
H121 H 0.735400 0.955100 1.214800
H122 H 0.684300 0.555600 1.083300
H123 H 0.743400 0.433800 0.969800
H124 H 0.805400 0.559400 0.857200
H125 H 0.630600 1.217500 0.936700
H126 H 0.562100 1.305500 0.808400
H127 H 0.627000 1.180000 0.704100
H128 H 0.742800 0.945500 0.718000

#END
