
#######################################################################
#
#                 Cambridge Crystallographic Data Centre
#                                CCDC 
#
#######################################################################
#
# If this CIF has been generated from an entry in the Cambridge 
# Structural Database, then it will include bibliographic, chemical, 
# crystal, experimental, refinement or atomic coordinate data resulting 
# from the CCDC's data processing and validation procedures.
#
#######################################################################

data_ABIVIQ
_symmetry_cell_setting           monoclinic
_symmetry_space_group_name_H-M   'C 2/c'
_symmetry_Int_Tables_number      15
_space_group_name_Hall           '-C 2yn'
loop_
_symmetry_equiv_pos_site_id
_symmetry_equiv_pos_as_xyz
1 x,y,z
2 1/2+x,1/2+y,z
3 x,-y,1/2+z
4 1/2+x,1/2-y,1/2+z
5 -x,-y,-z
6 1/2-x,1/2-y,-z
7 -x,y,1/2-z
8 1/2-x,1/2+y,1/2-z
_cell_length_a                   10.379(16)
_cell_length_b                   8.943(15)
_cell_length_c                   8.477(13)
_cell_angle_alpha                90
_cell_angle_beta                 114.22(6)
_cell_angle_gamma                90
_cell_volume                     717.571
loop_
_atom_site_label
_atom_site_type_symbol
_atom_site_fract_x
_atom_site_fract_y
_atom_site_fract_z
O1 O 0.59843(12) 0.86693(13) 0.91727(15)
C1 C 0.64032(17) 0.86605(17) 0.7841(2)
O2 O 0.74181(13) 0.93174(15) 0.78842(17)
C2 C 0.46914(16) 0.77194(18) 0.8606(2)
C3 C 0.5000 0.6540(2) 0.7500
H1 H 0.587(2) 0.594(2) 0.817(2)
C4 C 0.4374(2) 0.7336(2) 1.0121(2)
H2 H 0.357(2) 0.664(3) 0.975(3)
H3 H 0.522(2) 0.683(3) 1.100(3)
H4 H 0.416(2) 0.825(3) 1.062(3)
C2F C 0.53086(16) 0.77194(18) 0.6394(2)
O1F O 0.40157(12) 0.86693(13) 0.58273(15)
C1F C 0.35968(17) 0.86605(17) 0.7159(2)
O2F O 0.25819(13) 0.93174(15) 0.71158(17)
C4F C 0.5626(2) 0.7336(2) 0.4879(2)
H2F H 0.643(2) 0.664(3) 0.525(3)
H3F H 0.478(2) 0.683(3) 0.400(3)
H4F H 0.584(2) 0.825(3) 0.438(3)
H1F H 0.413(2) 0.594(2) 0.683(2)
O1 O 0.09843(12) 0.36693(13) 0.91727(15)
C1 C 0.14032(17) 0.36605(17) 0.7841(2)
O2 O 0.24181(13) 0.43174(15) 0.78842(17)
C2 C -0.03086(16) 0.27194(18) 0.8606(2)
C3 C 0.0000 0.1540(2) 0.7500
H1 H 0.087(2) 0.094(2) 0.817(2)
C4 C -0.0626(2) 0.2336(2) 1.0121(2)
H2 H -0.143(2) 0.164(3) 0.975(3)
H3 H 0.022(2) 0.183(3) 1.100(3)
H4 H -0.084(2) 0.325(3) 1.062(3)
C2F C 0.03086(16) 0.27194(18) 0.6394(2)
O1F O -0.09843(12) 0.36693(13) 0.58273(15)
C1F C -0.14032(17) 0.36605(17) 0.7159(2)
O2F O -0.24181(13) 0.43174(15) 0.71158(17)
C4F C 0.0626(2) 0.2336(2) 0.4879(2)
H2F H 0.143(2) 0.164(3) 0.525(3)
H3F H -0.022(2) 0.183(3) 0.400(3)
H4F H 0.084(2) 0.325(3) 0.438(3)
H1F H -0.087(2) 0.094(2) 0.683(2)
O1 O 1.09843(12) 0.36693(13) 0.91727(15)
C1 C 1.14032(17) 0.36605(17) 0.7841(2)
O2 O 1.24181(13) 0.43174(15) 0.78842(17)
C2 C 0.96914(16) 0.27194(18) 0.8606(2)
C3 C 1.0000 0.1540(2) 0.7500
H1 H 1.087(2) 0.094(2) 0.817(2)
C4 C 0.9374(2) 0.2336(2) 1.0121(2)
H2 H 0.857(2) 0.164(3) 0.975(3)
H3 H 1.022(2) 0.183(3) 1.100(3)
H4 H 0.916(2) 0.325(3) 1.062(3)
C2F C 1.03086(16) 0.27194(18) 0.6394(2)
O1F O 0.90157(12) 0.36693(13) 0.58273(15)
C1F C 0.85968(17) 0.36605(17) 0.7159(2)
O2F O 0.75819(13) 0.43174(15) 0.71158(17)
C4F C 1.0626(2) 0.2336(2) 0.4879(2)
H2F H 1.143(2) 0.164(3) 0.525(3)
H3F H 0.978(2) 0.183(3) 0.400(3)
H4F H 1.084(2) 0.325(3) 0.438(3)
H1F H 0.913(2) 0.094(2) 0.683(2)
O1 O 0.59843(12) 0.13307(13) 0.41727(15)
C1 C 0.64032(17) 0.13395(17) 0.2841(2)
O2 O 0.74181(13) 0.06826(15) 0.28842(17)
C2 C 0.46914(16) 0.22806(18) 0.3606(2)
C3 C 0.5000 0.3460(2) 0.2500
H1 H 0.587(2) 0.406(2) 0.317(2)
C4 C 0.4374(2) 0.2664(2) 0.5121(2)
H2 H 0.357(2) 0.336(3) 0.475(3)
H3 H 0.522(2) 0.317(3) 0.600(3)
H4 H 0.416(2) 0.175(3) 0.562(3)
C2F C 0.53086(16) 0.22806(18) 0.1394(2)
O1F O 0.40157(12) 0.13307(13) 0.08273(15)
C1F C 0.35968(17) 0.13395(17) 0.2159(2)
O2F O 0.25819(13) 0.06826(15) 0.21158(17)
C4F C 0.5626(2) 0.2664(2) -0.0121(2)
H2F H 0.643(2) 0.336(3) 0.025(3)
H3F H 0.478(2) 0.317(3) -0.100(3)
H4F H 0.584(2) 0.175(3) -0.062(3)
H1F H 0.413(2) 0.406(2) 0.183(2)
O1 O 0.09843(12) 0.63307(13) 0.41727(15)
C1 C 0.14032(17) 0.63395(17) 0.2841(2)
O2 O 0.24181(13) 0.56826(15) 0.28842(17)
C2 C -0.03086(16) 0.72806(18) 0.3606(2)
C3 C 0.0000 0.8460(2) 0.2500
H1 H 0.087(2) 0.906(2) 0.317(2)
C4 C -0.0626(2) 0.7664(2) 0.5121(2)
H2 H -0.143(2) 0.836(3) 0.475(3)
H3 H 0.022(2) 0.817(3) 0.600(3)
H4 H -0.084(2) 0.675(3) 0.562(3)
C2F C 0.03086(16) 0.72806(18) 0.1394(2)
O1F O -0.09843(12) 0.63307(13) 0.08273(15)
C1F C -0.14032(17) 0.63395(17) 0.2159(2)
O2F O -0.24181(13) 0.56826(15) 0.21158(17)
C4F C 0.0626(2) 0.7664(2) -0.0121(2)
H2F H 0.143(2) 0.836(3) 0.025(3)
H3F H -0.022(2) 0.817(3) -0.100(3)
H4F H 0.084(2) 0.675(3) -0.062(3)
H1F H -0.087(2) 0.906(2) 0.183(2)
O1 O 1.09843(12) 0.63307(13) 0.41727(15)
C1 C 1.14032(17) 0.63395(17) 0.2841(2)
O2 O 1.24181(13) 0.56826(15) 0.28842(17)
C2 C 0.96914(16) 0.72806(18) 0.3606(2)
C3 C 1.0000 0.8460(2) 0.2500
H1 H 1.087(2) 0.906(2) 0.317(2)
C4 C 0.9374(2) 0.7664(2) 0.5121(2)
H2 H 0.857(2) 0.836(3) 0.475(3)
H3 H 1.022(2) 0.817(3) 0.600(3)
H4 H 0.916(2) 0.675(3) 0.562(3)
C2F C 1.03086(16) 0.72806(18) 0.1394(2)
O1F O 0.90157(12) 0.63307(13) 0.08273(15)
C1F C 0.85968(17) 0.63395(17) 0.2159(2)
O2F O 0.75819(13) 0.56826(15) 0.21158(17)
C4F C 1.0626(2) 0.7664(2) -0.0121(2)
H2F H 1.143(2) 0.836(3) 0.025(3)
H3F H 0.978(2) 0.817(3) -0.100(3)
H4F H 1.084(2) 0.675(3) -0.062(3)
H1F H 0.913(2) 0.906(2) 0.183(2)

#END
