./ABIVIQ_from_xyz.cif_generated_by_CrystalShift
_symmetry_cell_setting triclinic
_symmetry_space_group_name_H-M 'P 1'
loop_
_symmetry_equiv_pos_site_id
_symmetry_equiv_pos_as_xyz
1 x,y,z
_cell_length_a 10.379000
_cell_length_b 8.943000
_cell_length_c 8.477000
_cell_angle_alpha 90.000000
_cell_angle_beta 114.220000
_cell_angle_gamma 90.000000
_cell_volume 717.570886
loop_
_atom_site_label
_atom_site_type_symbol
_atom_site_fract_x
_atom_site_fract_y
_atom_site_fract_z
O1 O 0.598430 0.866930 0.917270
C2 C 0.640320 0.866050 0.784100
O3 O 0.741810 0.931740 0.788420
C4 C 0.469140 0.771940 0.860600
C5 C 0.500000 0.654000 0.750000
H6 H 0.587000 0.594000 0.817000
C7 C 0.437400 0.733600 1.012100
H8 H 0.357000 0.664000 0.975000
H9 H 0.522000 0.683000 1.100000
H10 H 0.416000 0.825000 1.062000
C11 C 0.530860 0.771940 0.639400
O12 O 0.401570 0.866930 0.582730
C13 C 0.359680 0.866050 0.715900
O14 O 0.258190 0.931740 0.711580
C15 C 0.562600 0.733600 0.487900
H16 H 0.643000 0.664000 0.525000
H17 H 0.478000 0.683000 0.400000
H18 H 0.584000 0.825000 0.438000
H19 H 0.413000 0.594000 0.683000
O20 O 0.098430 0.366930 0.917270
C21 C 0.140320 0.366050 0.784100
O22 O 0.241810 0.431740 0.788420
C23 C -0.030860 0.271940 0.860600
C24 C 0.000000 0.154000 0.750000
H25 H 0.087000 0.094000 0.817000
C26 C -0.062600 0.233600 1.012100
H27 H -0.143000 0.164000 0.975000
H28 H 0.022000 0.183000 1.100000
H29 H -0.084000 0.325000 1.062000
C30 C 0.030860 0.271940 0.639400
O31 O -0.098430 0.366930 0.582730
C32 C -0.140320 0.366050 0.715900
O33 O -0.241810 0.431740 0.711580
C34 C 0.062600 0.233600 0.487900
H35 H 0.143000 0.164000 0.525000
H36 H -0.022000 0.183000 0.400000
H37 H 0.084000 0.325000 0.438000
H38 H -0.087000 0.094000 0.683000
O39 O 1.098430 0.366930 0.917270
C40 C 1.140320 0.366050 0.784100
O41 O 1.241810 0.431740 0.788420
C42 C 0.969140 0.271940 0.860600
C43 C 1.000000 0.154000 0.750000
H44 H 1.087000 0.094000 0.817000
C45 C 0.937400 0.233600 1.012100
H46 H 0.857000 0.164000 0.975000
H47 H 1.022000 0.183000 1.100000
H48 H 0.916000 0.325000 1.062000
C49 C 1.030860 0.271940 0.639400
O50 O 0.901570 0.366930 0.582730
C51 C 0.859680 0.366050 0.715900
O52 O 0.758190 0.431740 0.711580
C53 C 1.062600 0.233600 0.487900
H54 H 1.143000 0.164000 0.525000
H55 H 0.978000 0.183000 0.400000
H56 H 1.084000 0.325000 0.438000
H57 H 0.913000 0.094000 0.683000
O58 O 0.598430 0.133070 0.417270
C59 C 0.640320 0.133950 0.284100
O60 O 0.741810 0.068260 0.288420
C61 C 0.469140 0.228060 0.360600
C62 C 0.500000 0.346000 0.250000
H63 H 0.587000 0.406000 0.317000
C64 C 0.437400 0.266400 0.512100
H65 H 0.357000 0.336000 0.475000
H66 H 0.522000 0.317000 0.600000
H67 H 0.416000 0.175000 0.562000
C68 C 0.530860 0.228060 0.139400
O69 O 0.401570 0.133070 0.082730
C70 C 0.359680 0.133950 0.215900
O71 O 0.258190 0.068260 0.211580
C72 C 0.562600 0.266400 -0.012100
H73 H 0.643000 0.336000 0.025000
H74 H 0.478000 0.317000 -0.100000
H75 H 0.584000 0.175000 -0.062000
H76 H 0.413000 0.406000 0.183000
O77 O 0.098430 0.633070 0.417270
C78 C 0.140320 0.633950 0.284100
O79 O 0.241810 0.568260 0.288420
C80 C -0.030860 0.728060 0.360600
C81 C -0.000000 0.846000 0.250000
H82 H 0.087000 0.906000 0.317000
C83 C -0.062600 0.766400 0.512100
H84 H -0.143000 0.836000 0.475000
H85 H 0.022000 0.817000 0.600000
H86 H -0.084000 0.675000 0.562000
C87 C 0.030860 0.728060 0.139400
O88 O -0.098430 0.633070 0.082730
C89 C -0.140320 0.633950 0.215900
O90 O -0.241810 0.568260 0.211580
C91 C 0.062600 0.766400 -0.012100
H92 H 0.143000 0.836000 0.025000
H93 H -0.022000 0.817000 -0.100000
H94 H 0.084000 0.675000 -0.062000
H95 H -0.087000 0.906000 0.183000
O96 O 1.098430 0.633070 0.417270
C97 C 1.140320 0.633950 0.284100
O98 O 1.241810 0.568260 0.288420
C99 C 0.969140 0.728060 0.360600
C100 C 1.000000 0.846000 0.250000
H101 H 1.087000 0.906000 0.317000
C102 C 0.937400 0.766400 0.512100
H103 H 0.857000 0.836000 0.475000
H104 H 1.022000 0.817000 0.600000
H105 H 0.916000 0.675000 0.562000
C106 C 1.030860 0.728060 0.139400
O107 O 0.901570 0.633070 0.082730
C108 C 0.859680 0.633950 0.215900
O109 O 0.758190 0.568260 0.211580
C110 C 1.062600 0.766400 -0.012100
H111 H 1.143000 0.836000 0.025000
H112 H 0.978000 0.817000 -0.100000
H113 H 1.084000 0.675000 -0.062000
H114 H 0.913000 0.906000 0.183000

#END
