
#######################################################################
#
#                 Cambridge Crystallographic Data Centre
#                                CCDC 
#
#######################################################################
#
# If this CIF has been generated from an entry in the Cambridge 
# Structural Database, then it will include bibliographic, chemical, 
# crystal, experimental, refinement or atomic coordinate data resulting 
# from the CCDC's data processing and validation procedures.
#
#######################################################################

data_ABIYOC
_symmetry_cell_setting           monoclinic
_symmetry_space_group_name_H-M   'P 21/c'
_symmetry_Int_Tables_number      14
_space_group_name_Hall           '-P 2ybc'
loop_
_symmetry_equiv_pos_site_id
_symmetry_equiv_pos_as_xyz
1 x,y,z
2 -x,1/2+y,1/2-z
3 -x,-y,-z
4 x,1/2-y,1/2+z
_cell_length_a                   10.8712(2)
_cell_length_b                   12.2577(3)
_cell_length_c                   15.5456(3)
_cell_angle_alpha                90
_cell_angle_beta                 90.4588(19)
_cell_angle_gamma                90
_cell_volume                     2071.48
loop_
_atom_site_label
_atom_site_type_symbol
_atom_site_fract_x
_atom_site_fract_y
_atom_site_fract_z
I1 I 0.87768(3) 0.74770(3) 0.381245(16)
I2 I 1.14423(3) 0.63438(3) 0.491108(19)
N1 N 0.8490(3) 0.6026(3) 0.66902(18)
C1 C 0.8142(4) 0.5316(3) 0.7316(2)
C2 C 0.8855(4) 0.4594(4) 0.7811(2)
H1 H 0.9700 0.4538 0.7736
C3 C 0.8252(5) 0.3974(4) 0.8412(3)
H2 H 0.8702 0.3499 0.8758
C4 C 0.6982(5) 0.4042(4) 0.8512(3)
H3 H 0.6598 0.3608 0.8921
C5 C 0.6299(4) 0.4733(4) 0.8021(2)
H4 H 0.5452 0.4771 0.8095
C6 C 0.6864(4) 0.5386(4) 0.7408(2)
C7 C 0.6428(4) 0.6186(4) 0.6799(2)
C8 C 0.7447(4) 0.6549(3) 0.6364(2)
C9 C 0.7601(4) 0.7394(4) 0.5656(2)
C10 C 0.8767(4) 0.7081(4) 0.5129(2)
C11 C 0.9731(4) 0.6614(4) 0.5501(2)
C12 C 0.9725(4) 0.6225(4) 0.6410(2)
H5 H 1.0201 0.5558 0.6457
H6 H 1.0106 0.6769 0.6778
C13 C 0.5104(4) 0.6574(4) 0.6758(3)
H7 H 0.4723 0.6311 0.6239
H8 H 0.5085 0.7357 0.6762
H9 H 0.4666 0.6300 0.7246
C14 C 0.6446(4) 0.7364(4) 0.5072(2)
C15 C 0.6112(4) 0.6375(4) 0.4703(3)
H10 H 0.6570 0.5752 0.4825
C16 C 0.5104(4) 0.6307(4) 0.4155(3)
H11 H 0.4895 0.5643 0.3905
C17 C 0.4408(4) 0.7224(5) 0.3981(3)
H12 H 0.3730 0.7180 0.3615
C18 C 0.4723(4) 0.8202(5) 0.4351(3)
H13 H 0.4254 0.8820 0.4237
C19 C 0.5741(4) 0.8273(4) 0.4896(3)
H14 H 0.5948 0.8940 0.5143
C20 C 0.7792(4) 0.8547(4) 0.6052(2)
C21 C 0.7405(4) 0.8775(4) 0.6877(3)
H15 H 0.7067 0.8221 0.7209
C22 C 0.7513(4) 0.9824(5) 0.7219(3)
H16 H 0.7241 0.9965 0.7774
C23 C 0.8016(5) 1.0645(4) 0.6745(3)
H17 H 0.8089 1.1343 0.6974
C24 C 0.8414(5) 1.0432(4) 0.5924(3)
H18 H 0.8752 1.0989 0.5594
C25 C 0.8312(4) 0.9397(4) 0.5591(3)
H19 H 0.8602 0.9262 0.5040
I1 I 0.12232(3) 0.24770(3) 1.118755(16)
I2 I -0.14423(3) 0.13438(3) 1.008892(19)
N1 N 0.1510(3) 0.1026(3) 0.83098(18)
C1 C 0.1858(4) 0.0316(3) 0.7684(2)
C2 C 0.1145(4) -0.0406(4) 0.7189(2)
H1 H 0.0300 -0.0462 0.7264
C3 C 0.1748(5) -0.1026(4) 0.6588(3)
H2 H 0.1298 -0.1501 0.6242
C4 C 0.3018(5) -0.0958(4) 0.6488(3)
H3 H 0.3402 -0.1392 0.6079
C5 C 0.3701(4) -0.0267(4) 0.6979(2)
H4 H 0.4548 -0.0229 0.6905
C6 C 0.3136(4) 0.0386(4) 0.7592(2)
C7 C 0.3572(4) 0.1186(4) 0.8201(2)
C8 C 0.2553(4) 0.1549(3) 0.8636(2)
C9 C 0.2399(4) 0.2394(4) 0.9344(2)
C10 C 0.1233(4) 0.2081(4) 0.9871(2)
C11 C 0.0269(4) 0.1614(4) 0.9499(2)
C12 C 0.0275(4) 0.1225(4) 0.8590(2)
H5 H -0.0201 0.0558 0.8543
H6 H -0.0106 0.1769 0.8222
C13 C 0.4896(4) 0.1574(4) 0.8242(3)
H7 H 0.5277 0.1311 0.8761
H8 H 0.4915 0.2357 0.8238
H9 H 0.5334 0.1300 0.7754
C14 C 0.3554(4) 0.2364(4) 0.9928(2)
C15 C 0.3888(4) 0.1375(4) 1.0297(3)
H10 H 0.3430 0.0752 1.0175
C16 C 0.4896(4) 0.1307(4) 1.0845(3)
H11 H 0.5105 0.0643 1.1095
C17 C 0.5592(4) 0.2224(5) 1.1019(3)
H12 H 0.6270 0.2180 1.1385
C18 C 0.5277(4) 0.3202(5) 1.0649(3)
H13 H 0.5746 0.3820 1.0763
C19 C 0.4259(4) 0.3273(4) 1.0104(3)
H14 H 0.4052 0.3940 0.9857
C20 C 0.2208(4) 0.3547(4) 0.8948(2)
C21 C 0.2595(4) 0.3775(4) 0.8123(3)
H15 H 0.2933 0.3221 0.7791
C22 C 0.2487(4) 0.4824(5) 0.7781(3)
H16 H 0.2759 0.4965 0.7226
C23 C 0.1984(5) 0.5645(4) 0.8255(3)
H17 H 0.1911 0.6343 0.8026
C24 C 0.1586(5) 0.5432(4) 0.9076(3)
H18 H 0.1248 0.5989 0.9406
C25 C 0.1688(4) 0.4397(4) 0.9409(3)
H19 H 0.1398 0.4262 0.9960
I1 I 0.12232(3) 0.25230(3) 0.618755(16)
I2 I -0.14423(3) 0.36562(3) 0.508892(19)
N1 N 0.1510(3) 0.3974(3) 0.33098(18)
C1 C 0.1858(4) 0.4684(3) 0.2684(2)
C2 C 0.1145(4) 0.5406(4) 0.2189(2)
H1 H 0.0300 0.5462 0.2264
C3 C 0.1748(5) 0.6026(4) 0.1588(3)
H2 H 0.1298 0.6501 0.1242
C4 C 0.3018(5) 0.5958(4) 0.1488(3)
H3 H 0.3402 0.6392 0.1079
C5 C 0.3701(4) 0.5267(4) 0.1979(2)
H4 H 0.4548 0.5229 0.1905
C6 C 0.3136(4) 0.4614(4) 0.2592(2)
C7 C 0.3572(4) 0.3814(4) 0.3201(2)
C8 C 0.2553(4) 0.3451(3) 0.3636(2)
C9 C 0.2399(4) 0.2606(4) 0.4344(2)
C10 C 0.1233(4) 0.2919(4) 0.4871(2)
C11 C 0.0269(4) 0.3386(4) 0.4499(2)
C12 C 0.0275(4) 0.3775(4) 0.3590(2)
H5 H -0.0201 0.4442 0.3543
H6 H -0.0106 0.3231 0.3222
C13 C 0.4896(4) 0.3426(4) 0.3242(3)
H7 H 0.5277 0.3689 0.3761
H8 H 0.4915 0.2643 0.3238
H9 H 0.5334 0.3700 0.2754
C14 C 0.3554(4) 0.2636(4) 0.4928(2)
C15 C 0.3888(4) 0.3625(4) 0.5297(3)
H10 H 0.3430 0.4248 0.5175
C16 C 0.4896(4) 0.3693(4) 0.5845(3)
H11 H 0.5105 0.4357 0.6095
C17 C 0.5592(4) 0.2776(5) 0.6019(3)
H12 H 0.6270 0.2820 0.6385
C18 C 0.5277(4) 0.1798(5) 0.5649(3)
H13 H 0.5746 0.1180 0.5763
C19 C 0.4259(4) 0.1727(4) 0.5104(3)
H14 H 0.4052 0.1060 0.4857
C20 C 0.2208(4) 0.1453(4) 0.3948(2)
C21 C 0.2595(4) 0.1225(4) 0.3123(3)
H15 H 0.2933 0.1779 0.2791
C22 C 0.2487(4) 0.0176(5) 0.2781(3)
H16 H 0.2759 0.0035 0.2226
C23 C 0.1984(5) -0.0645(4) 0.3255(3)
H17 H 0.1911 -0.1343 0.3026
C24 C 0.1586(5) -0.0432(4) 0.4076(3)
H18 H 0.1248 -0.0989 0.4406
C25 C 0.1688(4) 0.0603(4) 0.4409(3)
H19 H 0.1398 0.0738 0.4960
I1 I 0.87768(3) 0.75230(3) -0.118755(16)
I2 I 1.14423(3) 0.86562(3) -0.008892(19)
N1 N 0.8490(3) 0.8974(3) 0.16902(18)
C1 C 0.8142(4) 0.9684(3) 0.2316(2)
C2 C 0.8855(4) 1.0406(4) 0.2811(2)
H1 H 0.9700 1.0462 0.2736
C3 C 0.8252(5) 1.1026(4) 0.3412(3)
H2 H 0.8702 1.1501 0.3758
C4 C 0.6982(5) 1.0958(4) 0.3512(3)
H3 H 0.6598 1.1392 0.3921
C5 C 0.6299(4) 1.0267(4) 0.3021(2)
H4 H 0.5452 1.0229 0.3095
C6 C 0.6864(4) 0.9614(4) 0.2408(2)
C7 C 0.6428(4) 0.8814(4) 0.1799(2)
C8 C 0.7447(4) 0.8451(3) 0.1364(2)
C9 C 0.7601(4) 0.7606(4) 0.0656(2)
C10 C 0.8767(4) 0.7919(4) 0.0129(2)
C11 C 0.9731(4) 0.8386(4) 0.0501(2)
C12 C 0.9725(4) 0.8775(4) 0.1410(2)
H5 H 1.0201 0.9442 0.1457
H6 H 1.0106 0.8231 0.1778
C13 C 0.5104(4) 0.8426(4) 0.1758(3)
H7 H 0.4723 0.8689 0.1239
H8 H 0.5085 0.7643 0.1762
H9 H 0.4666 0.8700 0.2246
C14 C 0.6446(4) 0.7636(4) 0.0072(2)
C15 C 0.6112(4) 0.8625(4) -0.0297(3)
H10 H 0.6570 0.9248 -0.0175
C16 C 0.5104(4) 0.8693(4) -0.0845(3)
H11 H 0.4895 0.9357 -0.1095
C17 C 0.4408(4) 0.7776(5) -0.1019(3)
H12 H 0.3730 0.7820 -0.1385
C18 C 0.4723(4) 0.6798(5) -0.0649(3)
H13 H 0.4254 0.6180 -0.0763
C19 C 0.5741(4) 0.6727(4) -0.0104(3)
H14 H 0.5948 0.6060 0.0143
C20 C 0.7792(4) 0.6453(4) 0.1052(2)
C21 C 0.7405(4) 0.6225(4) 0.1877(3)
H15 H 0.7067 0.6779 0.2209
C22 C 0.7513(4) 0.5176(5) 0.2219(3)
H16 H 0.7241 0.5035 0.2774
C23 C 0.8016(5) 0.4355(4) 0.1745(3)
H17 H 0.8089 0.3657 0.1974
C24 C 0.8414(5) 0.4568(4) 0.0924(3)
H18 H 0.8752 0.4011 0.0594
C25 C 0.8312(4) 0.5603(4) 0.0591(3)
H19 H 0.8602 0.5738 0.0040

#END
