
#######################################################################
#
#                 Cambridge Crystallographic Data Centre
#                                CCDC 
#
#######################################################################
#
# If this CIF has been generated from an entry in the Cambridge 
# Structural Database, then it will include bibliographic, chemical, 
# crystal, experimental, refinement or atomic coordinate data resulting 
# from the CCDC's data processing and validation procedures.
#
#######################################################################

data_ABMIAL
_symmetry_cell_setting           monoclinic
_symmetry_space_group_name_H-M   'P 21/n'
_symmetry_Int_Tables_number      14
_space_group_name_Hall           '-P 2yn'
loop_
_symmetry_equiv_pos_site_id
_symmetry_equiv_pos_as_xyz
1 x,y,z
2 1/2-x,1/2+y,1/2-z
3 -x,-y,-z
4 1/2+x,1/2-y,1/2+z
_cell_length_a                   13.259(3)
_cell_length_b                   7.361(4)
_cell_length_c                   18.320(6)
_cell_angle_alpha                90
_cell_angle_beta                 91.04(3)
_cell_angle_gamma                90
_cell_volume                     1787.73
loop_
_atom_site_label
_atom_site_type_symbol
_atom_site_fract_x
_atom_site_fract_y
_atom_site_fract_z
Br1 Br 0.43540 0.77880 0.26400
C1 C 0.21760 0.53600 0.40090
C2 C 0.12240 0.76900 0.33080
C3 C -0.05000 0.24800 0.44000
C4 C 0.34550 0.25300 0.52820
C5 C 0.26840 0.27900 0.58650
C6 C 0.64130 0.16300 0.32790
C7 C 0.61930 0.50300 0.24560
C8 C 0.03630 0.52000 0.39460
C9 C 0.32350 0.79400 0.42950
C10 C 0.13670 0.26400 0.44490
C11 C 0.22410 0.37200 0.43670
C12 C 0.39820 0.35200 0.40610
C13 C 0.48090 0.23500 0.39290
C14 C 0.55230 0.29000 0.34270
C15 C 0.54110 0.45200 0.30360
C16 C 0.46000 0.56400 0.31860
C17 C 0.38550 0.51800 0.37030
N1 N 0.12610 0.60000 0.37760
N2 N 0.30300 0.63100 0.38410
N3 N 0.04590 0.34400 0.42710
N4 N 0.32160 0.30400 0.45780
O1 O -0.04560 0.57600 0.37640
O2 O 0.13500 0.10200 0.46530
O3 O 0.42950 0.19600 0.54350
Br1 Br 0.06460 1.27880 0.23600
C1 C 0.28240 1.03600 0.09910
C2 C 0.37760 1.26900 0.16920
C3 C 0.55000 0.74800 0.06000
C4 C 0.15450 0.75300 -0.02820
C5 C 0.23160 0.77900 -0.08650
C6 C -0.14130 0.66300 0.17210
C7 C -0.11930 1.00300 0.25440
C8 C 0.46370 1.02000 0.10540
C9 C 0.17650 1.29400 0.07050
C10 C 0.36330 0.76400 0.05510
C11 C 0.27590 0.87200 0.06330
C12 C 0.10180 0.85200 0.09390
C13 C 0.01910 0.73500 0.10710
C14 C -0.05230 0.79000 0.15730
C15 C -0.04110 0.95200 0.19640
C16 C 0.04000 1.06400 0.18140
C17 C 0.11450 1.01800 0.12970
N1 N 0.37390 1.10000 0.12240
N2 N 0.19700 1.13100 0.11590
N3 N 0.45410 0.84400 0.07290
N4 N 0.17840 0.80400 0.04220
O1 O 0.54560 1.07600 0.12360
O2 O 0.36500 0.60200 0.03470
O3 O 0.07050 0.69600 -0.04350
Br1 Br 0.56460 0.22120 0.73600
C1 C 0.78240 0.46400 0.59910
C2 C 0.87760 0.23100 0.66920
C3 C 1.05000 0.75200 0.56000
C4 C 0.65450 0.74700 0.47180
C5 C 0.73160 0.72100 0.41350
C6 C 0.35870 0.83700 0.67210
C7 C 0.38070 0.49700 0.75440
C8 C 0.96370 0.48000 0.60540
C9 C 0.67650 0.20600 0.57050
C10 C 0.86330 0.73600 0.55510
C11 C 0.77590 0.62800 0.56330
C12 C 0.60180 0.64800 0.59390
C13 C 0.51910 0.76500 0.60710
C14 C 0.44770 0.71000 0.65730
C15 C 0.45890 0.54800 0.69640
C16 C 0.54000 0.43600 0.68140
C17 C 0.61450 0.48200 0.62970
N1 N 0.87390 0.40000 0.62240
N2 N 0.69700 0.36900 0.61590
N3 N 0.95410 0.65600 0.57290
N4 N 0.67840 0.69600 0.54220
O1 O 1.04560 0.42400 0.62360
O2 O 0.86500 0.89800 0.53470
O3 O 0.57050 0.80400 0.45650
Br1 Br 0.93540 -0.27880 0.76400
C1 C 0.71760 -0.03600 0.90090
C2 C 0.62240 -0.26900 0.83080
C3 C 0.45000 0.25200 0.94000
C4 C 0.84550 0.24700 1.02820
C5 C 0.76840 0.22100 1.08650
C6 C 1.14130 0.33700 0.82790
C7 C 1.11930 -0.00300 0.74560
C8 C 0.53630 -0.02000 0.89460
C9 C 0.82350 -0.29400 0.92950
C10 C 0.63670 0.23600 0.94490
C11 C 0.72410 0.12800 0.93670
C12 C 0.89820 0.14800 0.90610
C13 C 0.98090 0.26500 0.89290
C14 C 1.05230 0.21000 0.84270
C15 C 1.04110 0.04800 0.80360
C16 C 0.96000 -0.06400 0.81860
C17 C 0.88550 -0.01800 0.87030
N1 N 0.62610 -0.10000 0.87760
N2 N 0.80300 -0.13100 0.88410
N3 N 0.54590 0.15600 0.92710
N4 N 0.82160 0.19600 0.95780
O1 O 0.45440 -0.07600 0.87640
O2 O 0.63500 0.39800 0.96530
O3 O 0.92950 0.30400 1.04350

#END
