./ABMIAL_from_xyz.cif_generated_by_CrystalShift
_symmetry_cell_setting triclinic
_symmetry_space_group_name_H-M 'P 1'
loop_
_symmetry_equiv_pos_site_id
_symmetry_equiv_pos_as_xyz
1 x,y,z
_cell_length_a 13.259000
_cell_length_b 7.361000
_cell_length_c 18.320000
_cell_angle_alpha 90.000000
_cell_angle_beta 91.040000
_cell_angle_gamma 90.000000
_cell_volume 1787.728266
loop_
_atom_site_label
_atom_site_type_symbol
_atom_site_fract_x
_atom_site_fract_y
_atom_site_fract_z
Br1 Br 0.435400 0.778800 0.264000
C2 C 0.217600 0.536000 0.400900
C3 C 0.122400 0.769000 0.330800
C4 C -0.050000 0.248000 0.440000
C5 C 0.345500 0.253000 0.528200
C6 C 0.268400 0.279000 0.586500
C7 C 0.641300 0.163000 0.327900
C8 C 0.619300 0.503000 0.245600
C9 C 0.036300 0.520000 0.394600
C10 C 0.323500 0.794000 0.429500
C11 C 0.136700 0.264000 0.444900
C12 C 0.224100 0.372000 0.436700
C13 C 0.398200 0.352000 0.406100
C14 C 0.480900 0.235000 0.392900
C15 C 0.552300 0.290000 0.342700
C16 C 0.541100 0.452000 0.303600
C17 C 0.460000 0.564000 0.318600
C18 C 0.385500 0.518000 0.370300
N19 N 0.126100 0.600000 0.377600
N20 N 0.303000 0.631000 0.384100
N21 N 0.045900 0.344000 0.427100
N22 N 0.321600 0.304000 0.457800
O23 O -0.045600 0.576000 0.376400
O24 O 0.135000 0.102000 0.465300
O25 O 0.429500 0.196000 0.543500
Br26 Br 0.064600 1.278800 0.236000
C27 C 0.282400 1.036000 0.099100
C28 C 0.377600 1.269000 0.169200
C29 C 0.550000 0.748000 0.060000
C30 C 0.154500 0.753000 -0.028200
C31 C 0.231600 0.779000 -0.086500
C32 C -0.141300 0.663000 0.172100
C33 C -0.119300 1.003000 0.254400
C34 C 0.463700 1.020000 0.105400
C35 C 0.176500 1.294000 0.070500
C36 C 0.363300 0.764000 0.055100
C37 C 0.275900 0.872000 0.063300
C38 C 0.101800 0.852000 0.093900
C39 C 0.019100 0.735000 0.107100
C40 C -0.052300 0.790000 0.157300
C41 C -0.041100 0.952000 0.196400
C42 C 0.040000 1.064000 0.181400
C43 C 0.114500 1.018000 0.129700
N44 N 0.373900 1.100000 0.122400
N45 N 0.197000 1.131000 0.115900
N46 N 0.454100 0.844000 0.072900
N47 N 0.178400 0.804000 0.042200
O48 O 0.545600 1.076000 0.123600
O49 O 0.365000 0.602000 0.034700
O50 O 0.070500 0.696000 -0.043500
Br51 Br 0.564600 0.221200 0.736000
C52 C 0.782400 0.464000 0.599100
C53 C 0.877600 0.231000 0.669200
C54 C 1.050000 0.752000 0.560000
C55 C 0.654500 0.747000 0.471800
C56 C 0.731600 0.721000 0.413500
C57 C 0.358700 0.837000 0.672100
C58 C 0.380700 0.497000 0.754400
C59 C 0.963700 0.480000 0.605400
C60 C 0.676500 0.206000 0.570500
C61 C 0.863300 0.736000 0.555100
C62 C 0.775900 0.628000 0.563300
C63 C 0.601800 0.648000 0.593900
C64 C 0.519100 0.765000 0.607100
C65 C 0.447700 0.710000 0.657300
C66 C 0.458900 0.548000 0.696400
C67 C 0.540000 0.436000 0.681400
C68 C 0.614500 0.482000 0.629700
N69 N 0.873900 0.400000 0.622400
N70 N 0.697000 0.369000 0.615900
N71 N 0.954100 0.656000 0.572900
N72 N 0.678400 0.696000 0.542200
O73 O 1.045600 0.424000 0.623600
O74 O 0.865000 0.898000 0.534700
O75 O 0.570500 0.804000 0.456500
Br76 Br 0.935400 -0.278800 0.764000
C77 C 0.717600 -0.036000 0.900900
C78 C 0.622400 -0.269000 0.830800
C79 C 0.450000 0.252000 0.940000
C80 C 0.845500 0.247000 1.028200
C81 C 0.768400 0.221000 1.086500
C82 C 1.141300 0.337000 0.827900
C83 C 1.119300 -0.003000 0.745600
C84 C 0.536300 -0.020000 0.894600
C85 C 0.823500 -0.294000 0.929500
C86 C 0.636700 0.236000 0.944900
C87 C 0.724100 0.128000 0.936700
C88 C 0.898200 0.148000 0.906100
C89 C 0.980900 0.265000 0.892900
C90 C 1.052300 0.210000 0.842700
C91 C 1.041100 0.048000 0.803600
C92 C 0.960000 -0.064000 0.818600
C93 C 0.885500 -0.018000 0.870300
N94 N 0.626100 -0.100000 0.877600
N95 N 0.803000 -0.131000 0.884100
N96 N 0.545900 0.156000 0.927100
N97 N 0.821600 0.196000 0.957800
O98 O 0.454400 -0.076000 0.876400
O99 O 0.635000 0.398000 0.965300
O100 O 0.929500 0.304000 1.043500

#END
