
#######################################################################
#
#                 Cambridge Crystallographic Data Centre
#                                CCDC 
#
#######################################################################
#
# If this CIF has been generated from an entry in the Cambridge 
# Structural Database, then it will include bibliographic, chemical, 
# crystal, experimental, refinement or atomic coordinate data resulting 
# from the CCDC's data processing and validation procedures.
#
#######################################################################

data_ABMQZD
_symmetry_cell_setting           triclinic
_symmetry_space_group_name_H-M   'P -1'
_symmetry_Int_Tables_number      2
_space_group_name_Hall           '-P 1'
loop_
_symmetry_equiv_pos_site_id
_symmetry_equiv_pos_as_xyz
1 x,y,z
2 -x,-y,-z
_cell_length_a                   6.826(1)
_cell_length_b                   8.091(1)
_cell_length_c                   9.538(2)
_cell_angle_alpha                93.88(2)
_cell_angle_beta                 109.60(2)
_cell_angle_gamma                104.02(2)
_cell_volume                     475.035
loop_
_atom_site_label
_atom_site_type_symbol
_atom_site_fract_x
_atom_site_fract_y
_atom_site_fract_z
Br1 Br -0.09990 0.70280 -0.00200
N1 N 0.33370 0.95480 0.67160
C1 C 0.40410 1.12810 0.73020
N2 N 0.36670 1.24070 0.62580
C2 C 0.27070 1.19760 0.47240
C3 C 0.10090 0.95370 0.26250
C4 C 0.03710 0.78000 0.20920
C5 C 0.07460 0.66170 0.30680
C6 C 0.17270 0.71750 0.46010
C7 C 0.23700 0.89450 0.51820
C8 C 0.20100 1.01140 0.41720
C9 C 0.36670 0.83480 0.78060
O1 O 0.49170 1.18420 0.86380
N3 N 0.42820 1.41870 0.68670
O2 O 0.25040 1.30750 0.39110
H1 H 0.07600 1.04300 0.19800
H2 H 0.02100 0.53100 0.26800
H3 H 0.19600 0.64100 0.52600
H4 H 0.45000 0.76000 0.76300
H5 H 0.22200 0.73900 0.76000
H6 H 0.43500 0.90300 0.87400
H7 H 0.49100 1.42100 0.78300
H8 H 0.52600 1.46700 0.65500
Br1 Br 1.09990 0.29720 1.00200
N1 N 0.66630 0.04520 0.32840
C1 C 0.59590 -0.12810 0.26980
N2 N 0.63330 -0.24070 0.37420
C2 C 0.72930 -0.19760 0.52760
C3 C 0.89910 0.04630 0.73750
C4 C 0.96290 0.22000 0.79080
C5 C 0.92540 0.33830 0.69320
C6 C 0.82730 0.28250 0.53990
C7 C 0.76300 0.10550 0.48180
C8 C 0.79900 -0.01140 0.58280
C9 C 0.63330 0.16520 0.21940
O1 O 0.50830 -0.18420 0.13620
N3 N 0.57180 -0.41870 0.31330
O2 O 0.74960 -0.30750 0.60890
H1 H 0.92400 -0.04300 0.80200
H2 H 0.97900 0.46900 0.73200
H3 H 0.80400 0.35900 0.47400
H4 H 0.55000 0.24000 0.23700
H5 H 0.77800 0.26100 0.24000
H6 H 0.56500 0.09700 0.12600
H7 H 0.50900 -0.42100 0.21700
H8 H 0.47400 -0.46700 0.34500

#END
