
#######################################################################
#
#                 Cambridge Crystallographic Data Centre
#                                CCDC 
#
#######################################################################
#
# If this CIF has been generated from an entry in the Cambridge 
# Structural Database, then it will include bibliographic, chemical, 
# crystal, experimental, refinement or atomic coordinate data resulting 
# from the CCDC's data processing and validation procedures.
#
#######################################################################

data_ABOFEF
_symmetry_cell_setting           monoclinic
_symmetry_space_group_name_H-M   'P 21/n'
_symmetry_Int_Tables_number      14
_space_group_name_Hall           '-P 2yn'
loop_
_symmetry_equiv_pos_site_id
_symmetry_equiv_pos_as_xyz
1 x,y,z
2 1/2-x,1/2+y,1/2-z
3 -x,-y,-z
4 1/2+x,1/2-y,1/2+z
_cell_length_a                   11.006(7)
_cell_length_b                   9.632(5)
_cell_length_c                   16.438(9)
_cell_angle_alpha                90
_cell_angle_beta                 101.05(2)
_cell_angle_gamma                90
_cell_volume                     1710.28
loop_
_atom_site_label
_atom_site_type_symbol
_atom_site_fract_x
_atom_site_fract_y
_atom_site_fract_z
O1 O 0.45066(11) -0.23007(12) 0.57936(8)
C1 C 0.38317(16) -0.12920(18) 0.53204(12)
O2 O 0.32645(12) -0.16392(13) 0.46489(8)
C2 C 0.38547(15) 0.00799(17) 0.56716(11)
H1 H 0.3382 0.0768 0.5363
C3 C 0.45212(14) 0.04266(16) 0.64218(10)
C4 C 0.45669(15) 0.19549(15) 0.66983(10)
H2 H 0.5352 0.2314 0.6586
C5 C 0.45722(16) 0.23190(16) 0.76024(11)
C6 C 0.54944(18) 0.31770(18) 0.80260(12)
H3 H 0.6147 0.3436 0.7773
C7 C 0.5465(2) 0.3656(2) 0.88155(13)
H4 H 0.6089 0.4231 0.9092
C8 C 0.4502(3) 0.3268(2) 0.91830(14)
H5 H 0.4468 0.3586 0.9712
C9 C 0.3580(2) 0.2408(2) 0.87738(14)
H6 H 0.2937 0.2148 0.9035
C10 C 0.35953(18) 0.19220(17) 0.79785(12)
C11 C 0.25548(17) 0.1065(2) 0.75012(12)
H7 H 0.2047 0.0721 0.7879
H8 H 0.2899 0.0269 0.7263
C12 C 0.17451(17) 0.1884(2) 0.68122(13)
H9 H 0.1197 0.1225 0.6478
H10 H 0.1227 0.2490 0.7072
C13 C 0.23152(16) 0.27661(17) 0.62229(11)
C14 C 0.14902(17) 0.35973(19) 0.56853(12)
H11 H 0.0658 0.3582 0.5724
C15 C 0.1852(2) 0.4438(2) 0.51016(13)
H12 H 0.1271 0.4965 0.4746
C16 C 0.3081(2) 0.4492(2) 0.50483(13)
H13 H 0.3344 0.5064 0.4661
C17 C 0.39153(17) 0.36914(18) 0.55742(11)
H14 H 0.4747 0.3736 0.5537
C18 C 0.35654(15) 0.28191(15) 0.61575(10)
C19 C 0.52588(14) -0.06646(16) 0.69011(10)
C20 C 0.60112(15) -0.05027(17) 0.76808(11)
H15 H 0.6093 0.0373 0.7924
C21 C 0.66380(16) -0.16120(18) 0.81013(12)
H16 H 0.7127 -0.1479 0.8623
C22 C 0.65393(17) -0.29217(17) 0.77460(12)
H17 H 0.6957 -0.3668 0.8031
C23 C 0.58277(17) -0.31175(18) 0.69774(12)
H18 H 0.5765 -0.3993 0.6734
C24 C 0.52015(15) -0.20002(17) 0.65636(11)
O1 O 0.04934(11) 0.26993(12) 0.92064(8)
C1 C 0.11683(16) 0.37080(18) 0.96796(12)
O2 O 0.17355(12) 0.33608(13) 1.03511(8)
C2 C 0.11453(15) 0.50799(17) 0.93284(11)
H1 H 0.1618 0.5768 0.9637
C3 C 0.04788(14) 0.54266(16) 0.85782(10)
C4 C 0.04331(15) 0.69549(15) 0.83017(10)
H2 H -0.0352 0.7314 0.8414
C5 C 0.04278(16) 0.73190(16) 0.73976(11)
C6 C -0.04944(18) 0.81770(18) 0.69740(12)
H3 H -0.1147 0.8436 0.7227
C7 C -0.0465(2) 0.8656(2) 0.61845(13)
H4 H -0.1089 0.9231 0.5908
C8 C 0.0498(3) 0.8268(2) 0.58170(14)
H5 H 0.0532 0.8586 0.5288
C9 C 0.1420(2) 0.7408(2) 0.62262(14)
H6 H 0.2063 0.7148 0.5965
C10 C 0.14047(18) 0.69220(17) 0.70215(12)
C11 C 0.24452(17) 0.6065(2) 0.74988(12)
H7 H 0.2953 0.5721 0.7121
H8 H 0.2101 0.5269 0.7737
C12 C 0.32549(17) 0.6884(2) 0.81878(13)
H9 H 0.3803 0.6225 0.8522
H10 H 0.3773 0.7490 0.7928
C13 C 0.26848(16) 0.77661(17) 0.87771(11)
C14 C 0.35098(17) 0.85973(19) 0.93147(12)
H11 H 0.4342 0.8582 0.9276
C15 C 0.3148(2) 0.9438(2) 0.98984(13)
H12 H 0.3729 0.9965 1.0254
C16 C 0.1919(2) 0.9492(2) 0.99517(13)
H13 H 0.1656 1.0064 1.0339
C17 C 0.10847(17) 0.86914(18) 0.94258(11)
H14 H 0.0253 0.8736 0.9463
C18 C 0.14346(15) 0.78191(15) 0.88425(10)
C19 C -0.02588(14) 0.43354(16) 0.80989(10)
C20 C -0.10112(15) 0.44973(17) 0.73192(11)
H15 H -0.1093 0.5373 0.7076
C21 C -0.16380(16) 0.33880(18) 0.68987(12)
H16 H -0.2127 0.3521 0.6377
C22 C -0.15393(17) 0.20783(17) 0.72540(12)
H17 H -0.1957 0.1332 0.6969
C23 C -0.08277(17) 0.18825(18) 0.80226(12)
H18 H -0.0765 0.1007 0.8266
C24 C -0.02015(15) 0.29998(17) 0.84364(11)
O1 O 0.54934(11) 1.23007(12) 0.42064(8)
C1 C 0.61683(16) 1.12920(18) 0.46796(12)
O2 O 0.67355(12) 1.16392(13) 0.53511(8)
C2 C 0.61453(15) 0.99201(17) 0.43284(11)
H1 H 0.6618 0.9232 0.4637
C3 C 0.54788(14) 0.95734(16) 0.35782(10)
C4 C 0.54331(15) 0.80451(15) 0.33017(10)
H2 H 0.4648 0.7686 0.3414
C5 C 0.54278(16) 0.76810(16) 0.23976(11)
C6 C 0.45056(18) 0.68230(18) 0.19740(12)
H3 H 0.3853 0.6564 0.2227
C7 C 0.4535(2) 0.6344(2) 0.11845(13)
H4 H 0.3911 0.5769 0.0908
C8 C 0.5498(3) 0.6732(2) 0.08170(14)
H5 H 0.5532 0.6414 0.0288
C9 C 0.6420(2) 0.7592(2) 0.12262(14)
H6 H 0.7063 0.7852 0.0965
C10 C 0.64047(18) 0.80780(17) 0.20215(12)
C11 C 0.74452(17) 0.8935(2) 0.24988(12)
H7 H 0.7953 0.9279 0.2121
H8 H 0.7101 0.9731 0.2737
C12 C 0.82549(17) 0.8116(2) 0.31878(13)
H9 H 0.8803 0.8775 0.3522
H10 H 0.8773 0.7510 0.2928
C13 C 0.76848(16) 0.72339(17) 0.37771(11)
C14 C 0.85098(17) 0.64027(19) 0.43147(12)
H11 H 0.9342 0.6418 0.4276
C15 C 0.8148(2) 0.5562(2) 0.48984(13)
H12 H 0.8729 0.5035 0.5254
C16 C 0.6919(2) 0.5508(2) 0.49517(13)
H13 H 0.6656 0.4936 0.5339
C17 C 0.60847(17) 0.63086(18) 0.44258(11)
H14 H 0.5253 0.6264 0.4463
C18 C 0.64346(15) 0.71809(15) 0.38425(10)
C19 C 0.47412(14) 1.06646(16) 0.30989(10)
C20 C 0.39888(15) 1.05027(17) 0.23192(11)
H15 H 0.3907 0.9627 0.2076
C21 C 0.33620(16) 1.16120(18) 0.18987(12)
H16 H 0.2873 1.1479 0.1377
C22 C 0.34607(17) 1.29217(17) 0.22540(12)
H17 H 0.3043 1.3668 0.1969
C23 C 0.41723(17) 1.31175(18) 0.30226(12)
H18 H 0.4235 1.3993 0.3266
C24 C 0.47985(15) 1.20002(17) 0.34364(11)
O1 O 0.95066(11) 0.73007(12) 0.07936(8)
C1 C 0.88317(16) 0.62920(18) 0.03204(12)
O2 O 0.82645(12) 0.66392(13) -0.03511(8)
C2 C 0.88547(15) 0.49201(17) 0.06716(11)
H1 H 0.8382 0.4232 0.0363
C3 C 0.95212(14) 0.45734(16) 0.14218(10)
C4 C 0.95669(15) 0.30451(15) 0.16983(10)
H2 H 1.0352 0.2686 0.1586
C5 C 0.95722(16) 0.26810(16) 0.26024(11)
C6 C 1.04944(18) 0.18230(18) 0.30260(12)
H3 H 1.1147 0.1564 0.2773
C7 C 1.0465(2) 0.1344(2) 0.38155(13)
H4 H 1.1089 0.0769 0.4092
C8 C 0.9502(3) 0.1732(2) 0.41830(14)
H5 H 0.9468 0.1414 0.4712
C9 C 0.8580(2) 0.2592(2) 0.37738(14)
H6 H 0.7937 0.2852 0.4035
C10 C 0.85953(18) 0.30780(17) 0.29785(12)
C11 C 0.75548(17) 0.3935(2) 0.25012(12)
H7 H 0.7047 0.4279 0.2879
H8 H 0.7899 0.4731 0.2263
C12 C 0.67451(17) 0.3116(2) 0.18122(13)
H9 H 0.6197 0.3775 0.1478
H10 H 0.6227 0.2510 0.2072
C13 C 0.73152(16) 0.22339(17) 0.12229(11)
C14 C 0.64902(17) 0.14027(19) 0.06853(12)
H11 H 0.5658 0.1418 0.0724
C15 C 0.6852(2) 0.0562(2) 0.01016(13)
H12 H 0.6271 0.0035 -0.0254
C16 C 0.8081(2) 0.0508(2) 0.00483(13)
H13 H 0.8344 -0.0064 -0.0339
C17 C 0.89153(17) 0.13086(18) 0.05742(11)
H14 H 0.9747 0.1264 0.0537
C18 C 0.85654(15) 0.21809(15) 0.11575(10)
C19 C 1.02588(14) 0.56646(16) 0.19011(10)
C20 C 1.10112(15) 0.55027(17) 0.26808(11)
H15 H 1.1093 0.4627 0.2924
C21 C 1.16380(16) 0.66120(18) 0.31013(12)
H16 H 1.2127 0.6479 0.3623
C22 C 1.15393(17) 0.79217(17) 0.27460(12)
H17 H 1.1957 0.8668 0.3031
C23 C 1.08277(17) 0.81175(18) 0.19774(12)
H18 H 1.0765 0.8993 0.1734
C24 C 1.02015(15) 0.70002(17) 0.15636(11)

#END
