
#######################################################################
#
#                 Cambridge Crystallographic Data Centre
#                                CCDC 
#
#######################################################################
#
# If this CIF has been generated from an entry in the Cambridge 
# Structural Database, then it will include bibliographic, chemical, 
# crystal, experimental, refinement or atomic coordinate data resulting 
# from the CCDC's data processing and validation procedures.
#
#######################################################################

data_ABOGUU
_symmetry_cell_setting           orthorhombic
_symmetry_space_group_name_H-M   'P 21 21 21'
_symmetry_Int_Tables_number      19
_space_group_name_Hall           'P 2ac 2ab'
loop_
_symmetry_equiv_pos_site_id
_symmetry_equiv_pos_as_xyz
1 x,y,z
2 1/2+x,1/2-y,-z
3 -x,1/2+y,1/2-z
4 1/2-x,-y,1/2+z
_cell_length_a                   7.335(2)
_cell_length_b                   18.293(4)
_cell_length_c                   19.405(5)
_cell_angle_alpha                90
_cell_angle_beta                 90
_cell_angle_gamma                90
_cell_volume                     2603.75
loop_
_atom_site_label
_atom_site_type_symbol
_atom_site_fract_x
_atom_site_fract_y
_atom_site_fract_z
O1 O 0.4013(6) 0.1558(2) -0.0100(1)
O2 O 0.4358(5) -0.0501(2) 0.1174(2)
O3 O 0.4030(5) -0.0279(2) 0.3780(2)
O4 O 0.4564(5) 0.0053(2) 0.5059(2)
O5 O 0.3067(4) 0.2163(1) 0.4642(1)
O6 O 0.2616(5) 0.1692(1) 0.2273(1)
C1 C 0.3241(7) 0.1284(3) 0.1722(2)
C2 C 0.3346(7) 0.1753(3) 0.1084(2)
C3 C 0.4157(9) 0.1317(3) 0.0482(3)
C4 C 0.5244(8) 0.0618(3) 0.0619(3)
C5 C 0.4331(8) 0.0171(3) 0.1187(3)
C6 C 0.3553(8) 0.0567(3) 0.1772(3)
C7 C 0.2983(8) 0.0151(3) 0.2420(3)
C8 C 0.0969(9) -0.0091(3) 0.2332(3)
C9 C 0.0150(8) -0.0522(3) 0.2935(3)
C10 C 0.099(1) -0.1279(4) 0.3023(4)
C11 C -0.191(1) -0.0585(4) 0.2851(4)
C12 C 0.141(1) 0.1962(5) 0.0892(4)
C13 C 0.450(1) 0.2447(4) 0.1187(3)
C14 C 0.712(1) 0.0858(4) 0.0901(4)
C15 C 0.548(1) 0.0171(4) -0.0037(3)
C16 C 0.2793(9) 0.1845(3) 0.5318(2)
C17 C 0.4286(9) 0.1286(3) 0.5454(3)
C18 C 0.4171(8) 0.0695(3) 0.4921(3)
C19 C 0.3607(7) 0.0929(3) 0.4239(3)
C20 C 0.3597(8) 0.0437(3) 0.3678(3)
C21 C 0.3193(8) 0.0668(3) 0.3015(3)
C22 C 0.2900(8) 0.1408(3) 0.2935(3)
C23 C 0.2850(8) 0.1933(3) 0.3457(2)
C24 C 0.3171(8) 0.1666(3) 0.4109(3)
C25 C 0.246(1) 0.2716(3) 0.3317(3)
C26 C 0.2756(7) 0.2448(3) 0.5844(3)
C27 C 0.3318(8) 0.3155(3) 0.5712(3)
C28 C 0.3309(8) 0.3678(3) 0.6239(3)
C29 C 0.2764(9) 0.3480(3) 0.6894(3)
C30 C 0.2190(9) 0.2781(3) 0.7029(3)
C31 C 0.2181(8) 0.2259(3) 0.6509(3)
H1 H 0.053(8) 0.155(3) 0.075(3)
H2 H 0.136(8) 0.226(3) 0.048(2)
H3 H 0.083(8) 0.226(3) 0.127(3)
H4 H 0.584(6) 0.233(2) 0.133(2)
H5 H 0.391(8) 0.272(3) 0.160(3)
H6 H 0.458(6) 0.273(2) 0.073(2)
H7 H 0.703(9) 0.117(3) 0.140(3)
H8 H 0.790(6) 0.041(2) 0.093(2)
H9 H 0.777(8) 0.115(3) 0.056(2)
H10 H 0.621(7) -0.027(2) 0.008(2)
H11 H 0.602(9) 0.050(3) -0.039(3)
H12 H 0.420(7) 0.006(2) -0.024(2)
H13 H 0.383(6) -0.033(2) 0.248(2)
H14 H 0.083(6) -0.042(2) 0.189(2)
H15 H 0.021(6) 0.035(2) 0.225(2)
H16 H 0.047(6) -0.022(2) 0.340(2)
H17 H 0.236(5) -0.127(2) 0.307(2)
H18 H 0.061(8) -0.160(3) 0.257(3)
H19 H 0.049(8) -0.154(3) 0.350(2)
H20 H -0.257(8) -0.006(3) 0.284(3)
H21 H -0.246(7) -0.087(3) 0.322(2)
H22 H -0.219(7) -0.081(2) 0.238(2)
H23 H 0.147(6) 0.159(2) 0.534(2)
H24 H 0.416(7) 0.105(2) 0.595(2)
H25 H 0.547(5) 0.152(2) 0.537(2)
H26 H 0.430(9) -0.036(3) 0.425(3)
H27 H 0.308(7) 0.305(2) 0.366(2)
H28 H 0.126(9) 0.281(3) 0.334(3)
H29 H 0.296(7) 0.286(2) 0.288(2)
H30 H 0.370(6) 0.331(2) 0.523(2)
H31 H 0.384(7) 0.418(2) 0.609(2)
H32 H 0.272(6) 0.384(2) 0.728(2)
H33 H 0.178(6) 0.262(2) 0.753(2)
H34 H 0.168(6) 0.175(2) 0.660(2)
O1 O 0.9013(6) 0.3442(2) 1.0100(1)
O2 O 0.9358(5) 0.5501(2) 0.8826(2)
O3 O 0.9030(5) 0.5279(2) 0.6220(2)
O4 O 0.9564(5) 0.4947(2) 0.4941(2)
O5 O 0.8067(4) 0.2837(1) 0.5358(1)
O6 O 0.7616(5) 0.3308(1) 0.7727(1)
C1 C 0.8241(7) 0.3716(3) 0.8278(2)
C2 C 0.8346(7) 0.3247(3) 0.8916(2)
C3 C 0.9157(9) 0.3683(3) 0.9518(3)
C4 C 1.0244(8) 0.4382(3) 0.9381(3)
C5 C 0.9331(8) 0.4829(3) 0.8813(3)
C6 C 0.8553(8) 0.4433(3) 0.8228(3)
C7 C 0.7983(8) 0.4849(3) 0.7580(3)
C8 C 0.5969(9) 0.5091(3) 0.7668(3)
C9 C 0.5150(8) 0.5522(3) 0.7065(3)
C10 C 0.599(1) 0.6279(4) 0.6977(4)
C11 C 0.309(1) 0.5585(4) 0.7149(4)
C12 C 0.641(1) 0.3038(5) 0.9108(4)
C13 C 0.950(1) 0.2553(4) 0.8813(3)
C14 C 1.212(1) 0.4142(4) 0.9099(4)
C15 C 1.048(1) 0.4829(4) 1.0037(3)
C16 C 0.7793(9) 0.3155(3) 0.4682(2)
C17 C 0.9286(9) 0.3714(3) 0.4546(3)
C18 C 0.9171(8) 0.4305(3) 0.5079(3)
C19 C 0.8607(7) 0.4071(3) 0.5761(3)
C20 C 0.8597(8) 0.4563(3) 0.6322(3)
C21 C 0.8193(8) 0.4332(3) 0.6985(3)
C22 C 0.7900(8) 0.3592(3) 0.7065(3)
C23 C 0.7850(8) 0.3067(3) 0.6543(2)
C24 C 0.8171(8) 0.3334(3) 0.5891(3)
C25 C 0.746(1) 0.2284(3) 0.6683(3)
C26 C 0.7756(7) 0.2552(3) 0.4156(3)
C27 C 0.8318(8) 0.1845(3) 0.4288(3)
C28 C 0.8309(8) 0.1322(3) 0.3761(3)
C29 C 0.7764(9) 0.1520(3) 0.3106(3)
C30 C 0.7190(9) 0.2219(3) 0.2971(3)
C31 C 0.7181(8) 0.2741(3) 0.3491(3)
H1 H 0.553(8) 0.345(3) 0.925(3)
H2 H 0.636(8) 0.274(3) 0.952(2)
H3 H 0.583(8) 0.274(3) 0.873(3)
H4 H 1.084(6) 0.267(2) 0.867(2)
H5 H 0.891(8) 0.228(3) 0.840(3)
H6 H 0.958(6) 0.227(2) 0.927(2)
H7 H 1.203(9) 0.383(3) 0.860(3)
H8 H 1.290(6) 0.459(2) 0.907(2)
H9 H 1.277(8) 0.385(3) 0.944(2)
H10 H 1.121(7) 0.527(2) 0.992(2)
H11 H 1.102(9) 0.450(3) 1.039(3)
H12 H 0.920(7) 0.494(2) 1.024(2)
H13 H 0.883(6) 0.533(2) 0.752(2)
H14 H 0.583(6) 0.542(2) 0.811(2)
H15 H 0.521(6) 0.465(2) 0.775(2)
H16 H 0.547(6) 0.522(2) 0.660(2)
H17 H 0.736(5) 0.627(2) 0.693(2)
H18 H 0.561(8) 0.660(3) 0.743(3)
H19 H 0.549(8) 0.654(3) 0.650(2)
H20 H 0.243(8) 0.506(3) 0.716(3)
H21 H 0.254(7) 0.587(3) 0.678(2)
H22 H 0.281(7) 0.581(2) 0.762(2)
H23 H 0.647(6) 0.341(2) 0.466(2)
H24 H 0.916(7) 0.395(2) 0.405(2)
H25 H 1.047(5) 0.348(2) 0.463(2)
H26 H 0.930(9) 0.536(3) 0.575(3)
H27 H 0.808(7) 0.195(2) 0.634(2)
H28 H 0.626(9) 0.219(3) 0.666(3)
H29 H 0.796(7) 0.214(2) 0.712(2)
H30 H 0.870(6) 0.169(2) 0.477(2)
H31 H 0.884(7) 0.082(2) 0.391(2)
H32 H 0.772(6) 0.116(2) 0.272(2)
H33 H 0.678(6) 0.238(2) 0.247(2)
H34 H 0.668(6) 0.325(2) 0.340(2)
O1 O 0.5987(6) 0.6558(2) 0.5100(1)
O2 O 0.5642(5) 0.4499(2) 0.3826(2)
O3 O 0.5970(5) 0.4721(2) 0.1220(2)
O4 O 0.5436(5) 0.5053(2) -0.0059(2)
O5 O 0.6933(4) 0.7163(1) 0.0358(1)
O6 O 0.7384(5) 0.6692(1) 0.2727(1)
C1 C 0.6759(7) 0.6284(3) 0.3278(2)
C2 C 0.6654(7) 0.6753(3) 0.3916(2)
C3 C 0.5843(9) 0.6317(3) 0.4518(3)
C4 C 0.4756(8) 0.5618(3) 0.4381(3)
C5 C 0.5669(8) 0.5171(3) 0.3813(3)
C6 C 0.6447(8) 0.5567(3) 0.3228(3)
C7 C 0.7017(8) 0.5151(3) 0.2580(3)
C8 C 0.9031(9) 0.4909(3) 0.2668(3)
C9 C 0.9850(8) 0.4478(3) 0.2065(3)
C10 C 0.901(1) 0.3721(4) 0.1977(4)
C11 C 1.191(1) 0.4415(4) 0.2149(4)
C12 C 0.859(1) 0.6962(5) 0.4108(4)
C13 C 0.550(1) 0.7447(4) 0.3813(3)
C14 C 0.288(1) 0.5858(4) 0.4099(4)
C15 C 0.452(1) 0.5171(4) 0.5037(3)
C16 C 0.7207(9) 0.6845(3) -0.0318(2)
C17 C 0.5714(9) 0.6286(3) -0.0454(3)
C18 C 0.5829(8) 0.5695(3) 0.0079(3)
C19 C 0.6393(7) 0.5929(3) 0.0761(3)
C20 C 0.6403(8) 0.5437(3) 0.1322(3)
C21 C 0.6807(8) 0.5668(3) 0.1985(3)
C22 C 0.7100(8) 0.6408(3) 0.2065(3)
C23 C 0.7150(8) 0.6933(3) 0.1543(2)
C24 C 0.6829(8) 0.6666(3) 0.0891(3)
C25 C 0.754(1) 0.7716(3) 0.1683(3)
C26 C 0.7244(7) 0.7448(3) -0.0844(3)
C27 C 0.6682(8) 0.8155(3) -0.0712(3)
C28 C 0.6691(8) 0.8678(3) -0.1239(3)
C29 C 0.7236(9) 0.8480(3) -0.1894(3)
C30 C 0.7810(9) 0.7781(3) -0.2029(3)
C31 C 0.7819(8) 0.7259(3) -0.1509(3)
H1 H 0.947(8) 0.655(3) 0.425(3)
H2 H 0.864(8) 0.726(3) 0.452(2)
H3 H 0.917(8) 0.726(3) 0.373(3)
H4 H 0.416(6) 0.733(2) 0.367(2)
H5 H 0.609(8) 0.772(3) 0.340(3)
H6 H 0.542(6) 0.773(2) 0.427(2)
H7 H 0.297(9) 0.617(3) 0.360(3)
H8 H 0.210(6) 0.541(2) 0.407(2)
H9 H 0.223(8) 0.615(3) 0.444(2)
H10 H 0.379(7) 0.473(2) 0.492(2)
H11 H 0.398(9) 0.550(3) 0.539(3)
H12 H 0.580(7) 0.506(2) 0.524(2)
H13 H 0.617(6) 0.467(2) 0.252(2)
H14 H 0.917(6) 0.458(2) 0.311(2)
H15 H 0.979(6) 0.535(2) 0.275(2)
H16 H 0.953(6) 0.478(2) 0.160(2)
H17 H 0.764(5) 0.373(2) 0.193(2)
H18 H 0.939(8) 0.340(3) 0.243(3)
H19 H 0.951(8) 0.346(3) 0.150(2)
H20 H 1.257(8) 0.494(3) 0.216(3)
H21 H 1.246(7) 0.413(3) 0.178(2)
H22 H 1.219(7) 0.419(2) 0.262(2)
H23 H 0.853(6) 0.659(2) -0.034(2)
H24 H 0.584(7) 0.605(2) -0.095(2)
H25 H 0.453(5) 0.652(2) -0.037(2)
H26 H 0.570(9) 0.464(3) 0.075(3)
H27 H 0.692(7) 0.805(2) 0.134(2)
H28 H 0.874(9) 0.781(3) 0.166(3)
H29 H 0.704(7) 0.786(2) 0.212(2)
H30 H 0.630(6) 0.831(2) -0.023(2)
H31 H 0.616(7) 0.918(2) -0.109(2)
H32 H 0.728(6) 0.884(2) -0.228(2)
H33 H 0.822(6) 0.762(2) -0.253(2)
H34 H 0.832(6) 0.675(2) -0.160(2)
O1 O 0.0987(6) 0.8442(2) 0.4900(1)
O2 O 0.0642(5) 1.0501(2) 0.6174(2)
O3 O 0.0970(5) 1.0279(2) 0.8780(2)
O4 O 0.0436(5) 0.9947(2) 1.0059(2)
O5 O 0.1933(4) 0.7837(1) 0.9642(1)
O6 O 0.2384(5) 0.8308(1) 0.7273(1)
C1 C 0.1759(7) 0.8716(3) 0.6722(2)
C2 C 0.1654(7) 0.8247(3) 0.6084(2)
C3 C 0.0843(9) 0.8683(3) 0.5482(3)
C4 C -0.0244(8) 0.9382(3) 0.5619(3)
C5 C 0.0669(8) 0.9829(3) 0.6187(3)
C6 C 0.1447(8) 0.9433(3) 0.6772(3)
C7 C 0.2017(8) 0.9849(3) 0.7420(3)
C8 C 0.4031(9) 1.0091(3) 0.7332(3)
C9 C 0.4850(8) 1.0522(3) 0.7935(3)
C10 C 0.401(1) 1.1279(4) 0.8023(4)
C11 C 0.691(1) 1.0585(4) 0.7851(4)
C12 C 0.359(1) 0.8038(5) 0.5892(4)
C13 C 0.050(1) 0.7553(4) 0.6187(3)
C14 C -0.212(1) 0.9142(4) 0.5901(4)
C15 C -0.048(1) 0.9829(4) 0.4963(3)
C16 C 0.2207(9) 0.8155(3) 1.0318(2)
C17 C 0.0714(9) 0.8714(3) 1.0454(3)
C18 C 0.0829(8) 0.9305(3) 0.9921(3)
C19 C 0.1393(7) 0.9071(3) 0.9239(3)
C20 C 0.1403(8) 0.9563(3) 0.8678(3)
C21 C 0.1807(8) 0.9332(3) 0.8015(3)
C22 C 0.2100(8) 0.8592(3) 0.7935(3)
C23 C 0.2150(8) 0.8067(3) 0.8457(2)
C24 C 0.1829(8) 0.8334(3) 0.9109(3)
C25 C 0.254(1) 0.7284(3) 0.8317(3)
C26 C 0.2244(7) 0.7552(3) 1.0844(3)
C27 C 0.1682(8) 0.6845(3) 1.0712(3)
C28 C 0.1691(8) 0.6322(3) 1.1239(3)
C29 C 0.2236(9) 0.6520(3) 1.1894(3)
C30 C 0.2810(9) 0.7219(3) 1.2029(3)
C31 C 0.2819(8) 0.7741(3) 1.1509(3)
H1 H 0.447(8) 0.845(3) 0.575(3)
H2 H 0.364(8) 0.774(3) 0.548(2)
H3 H 0.417(8) 0.774(3) 0.627(3)
H4 H -0.084(6) 0.767(2) 0.633(2)
H5 H 0.109(8) 0.728(3) 0.660(3)
H6 H 0.042(6) 0.727(2) 0.573(2)
H7 H -0.203(9) 0.883(3) 0.640(3)
H8 H -0.290(6) 0.959(2) 0.593(2)
H9 H -0.277(8) 0.885(3) 0.556(2)
H10 H -0.121(7) 1.027(2) 0.508(2)
H11 H -0.102(9) 0.950(3) 0.461(3)
H12 H 0.080(7) 0.994(2) 0.476(2)
H13 H 0.117(6) 1.033(2) 0.748(2)
H14 H 0.417(6) 1.042(2) 0.689(2)
H15 H 0.479(6) 0.965(2) 0.725(2)
H16 H 0.453(6) 1.022(2) 0.840(2)
H17 H 0.264(5) 1.127(2) 0.807(2)
H18 H 0.439(8) 1.160(3) 0.757(3)
H19 H 0.451(8) 1.154(3) 0.850(2)
H20 H 0.757(8) 1.006(3) 0.784(3)
H21 H 0.746(7) 1.087(3) 0.822(2)
H22 H 0.719(7) 1.081(2) 0.738(2)
H23 H 0.353(6) 0.841(2) 1.034(2)
H24 H 0.084(7) 0.895(2) 1.095(2)
H25 H -0.047(5) 0.848(2) 1.037(2)
H26 H 0.070(9) 1.036(3) 0.925(3)
H27 H 0.192(7) 0.695(2) 0.866(2)
H28 H 0.374(9) 0.719(3) 0.834(3)
H29 H 0.204(7) 0.714(2) 0.788(2)
H30 H 0.130(6) 0.669(2) 1.023(2)
H31 H 0.116(7) 0.582(2) 1.109(2)
H32 H 0.228(6) 0.616(2) 1.228(2)
H33 H 0.322(6) 0.738(2) 1.253(2)
H34 H 0.332(6) 0.825(2) 1.160(2)

#END
