./ABOKOT_from_xyz.cif_generated_by_CrystalShift
_symmetry_cell_setting triclinic
_symmetry_space_group_name_H-M 'P 1'
loop_
_symmetry_equiv_pos_site_id
_symmetry_equiv_pos_as_xyz
1 x,y,z
_cell_length_a 11.092000
_cell_length_b 12.371000
_cell_length_c 15.530000
_cell_angle_alpha 100.918000
_cell_angle_beta 105.277000
_cell_angle_gamma 95.784000
_cell_volume 1992.795037
loop_
_atom_site_label
_atom_site_type_symbol
_atom_site_fract_x
_atom_site_fract_y
_atom_site_fract_z
Zn1 Zn 0.246340 0.013790 -0.241790
S2 S 0.371050 0.468810 0.114630
N3 N 0.123800 0.500100 0.165300
O4 O 0.588700 0.878300 0.219120
O5 O 0.695300 1.091500 0.337750
O6 O 0.076200 -0.085000 -0.259240
C7 C 0.580600 1.167400 0.435800
O8 O 0.203400 0.121400 -0.140760
N9 N 0.143700 0.095000 -0.350500
C10 C 0.214000 0.291500 -0.001800
H11 H 0.282900 0.282800 -0.024600
C12 C 0.004800 0.025200 -0.145000
H13 H -0.059800 0.027500 -0.117100
C14 C 0.395900 0.792500 0.229200
C15 C 0.415300 0.690500 0.184200
H16 H 0.490700 0.686400 0.169000
C17 C -0.121900 -0.155900 -0.247100
C18 C 0.499900 0.982400 0.324700
H19 H 0.429400 0.981800 0.346500
N20 N 0.340500 -0.079600 -0.138000
C21 C 0.117900 0.403800 0.098400
C22 C 0.106200 0.210900 -0.037000
C23 C 0.210900 0.596800 0.181500
C24 C 0.278100 0.795500 0.245500
H25 H 0.259900 0.862700 0.273600
C26 C -0.006100 -0.067100 -0.216600
C27 C 0.326800 0.594600 0.161000
C28 C 0.106700 0.114400 -0.112300
C29 C 0.594800 1.076500 0.361900
C30 C 0.009200 0.323200 0.061900
H31 H -0.061700 0.333400 0.082000
C32 C 0.004700 0.228800 -0.003500
H33 H -0.068600 0.176100 -0.025400
C34 C 0.020600 0.505200 0.208900
H35 H 0.053000 0.554700 0.269100
H36 H -0.004800 0.431500 0.217300
C37 C 0.221700 0.384200 0.066100
C38 C 0.188200 0.700900 0.220900
H39 H 0.109900 0.706800 0.231000
C40 C 0.282700 -0.124300 -0.085400
H41 H 0.197300 -0.119800 -0.093700
C42 C 0.501700 0.889600 0.257900
C43 C 0.463500 -0.086000 -0.123300
H44 H 0.506200 -0.055000 -0.159000
C45 C 0.468600 -0.181900 -0.004700
H46 H 0.511800 -0.215600 0.040200
C47 C 0.530100 -0.135900 -0.058300
H48 H 0.615700 -0.138400 -0.050700
C49 C -0.120800 -0.253300 -0.306600
H50 H -0.048900 -0.263300 -0.325400
C51 C -0.332900 -0.324100 -0.313100
H52 H -0.403300 -0.379900 -0.335300
C53 C 0.107800 0.130000 -0.499800
H54 H 0.134800 0.126600 -0.552000
C55 C 0.667000 1.264000 0.463200
H56 H 0.732300 1.270600 0.436400
C57 C -0.095400 0.544800 0.155900
H58 H -0.071300 0.616800 0.145400
H59 H -0.155500 0.549800 0.190400
H60 H -0.132900 0.492800 0.098100
C61 C -0.334300 -0.228400 -0.254300
H62 H -0.406500 -0.219000 -0.235800
C63 C 0.479700 1.248500 0.546400
H64 H 0.415500 1.242200 0.574300
C65 C 0.176300 0.093200 -0.426700
H66 H 0.249800 0.065300 -0.431100
C67 C 0.341900 -0.177100 -0.019000
H68 H 0.297000 -0.208700 0.015400
C69 C 0.000200 0.171600 -0.495400
H70 H -0.048100 0.196600 -0.544100
C71 C -0.230800 -0.144900 -0.221600
H72 H -0.234500 -0.080000 -0.181500
C73 C 0.488000 1.160700 0.479500
H74 H 0.429600 1.095500 0.463700
C75 C -0.034700 0.175400 -0.416800
H76 H -0.107500 0.203600 -0.411000
C77 C -0.225700 -0.336900 -0.338900
H78 H -0.222900 -0.402500 -0.378600
C79 C 0.658000 1.351300 0.530100
H80 H 0.716700 1.416400 0.547000
C81 C 0.039300 0.137100 -0.346400
H82 H 0.014900 0.140900 -0.293200
C83 C 0.564800 1.343800 0.571500
H84 H 0.559400 1.403100 0.616500
Zn85 Zn 0.753660 0.986210 0.241790
S86 S 0.628950 0.531190 -0.114630
N87 N 0.876200 0.499900 -0.165300
O88 O 0.411300 0.121700 -0.219120
O89 O 0.304700 -0.091500 -0.337750
O90 O 0.923800 1.085000 0.259240
C91 C 0.419400 -0.167400 -0.435800
O92 O 0.796600 0.878600 0.140760
N93 N 0.856300 0.905000 0.350500
C94 C 0.786000 0.708500 0.001800
H95 H 0.717100 0.717200 0.024600
C96 C 0.995200 0.974800 0.145000
H97 H 1.059800 0.972500 0.117100
C98 C 0.604100 0.207500 -0.229200
C99 C 0.584700 0.309500 -0.184200
H100 H 0.509300 0.313600 -0.169000
C101 C 1.121900 1.155900 0.247100
C102 C 0.500100 0.017600 -0.324700
H103 H 0.570600 0.018200 -0.346500
N104 N 0.659500 1.079600 0.138000
C105 C 0.882100 0.596200 -0.098400
C106 C 0.893800 0.789100 0.037000
C107 C 0.789100 0.403200 -0.181500
C108 C 0.721900 0.204500 -0.245500
H109 H 0.740100 0.137300 -0.273600
C110 C 1.006100 1.067100 0.216600
C111 C 0.673200 0.405400 -0.161000
C112 C 0.893300 0.885600 0.112300
C113 C 0.405200 -0.076500 -0.361900
C114 C 0.990800 0.676800 -0.061900
H115 H 1.061700 0.666600 -0.082000
C116 C 0.995300 0.771200 0.003500
H117 H 1.068600 0.823900 0.025400
C118 C 0.979400 0.494800 -0.208900
H119 H 0.947000 0.445300 -0.269100
H120 H 1.004800 0.568500 -0.217300
C121 C 0.778300 0.615800 -0.066100
C122 C 0.811800 0.299100 -0.220900
H123 H 0.890100 0.293200 -0.231000
C124 C 0.717300 1.124300 0.085400
H125 H 0.802700 1.119800 0.093700
C126 C 0.498300 0.110400 -0.257900
C127 C 0.536500 1.086000 0.123300
H128 H 0.493800 1.055000 0.159000
C129 C 0.531400 1.181900 0.004700
H130 H 0.488200 1.215600 -0.040200
C131 C 0.469900 1.135900 0.058300
H132 H 0.384300 1.138400 0.050700
C133 C 1.120800 1.253300 0.306600
H134 H 1.048900 1.263300 0.325400
C135 C 1.332900 1.324100 0.313100
H136 H 1.403300 1.379900 0.335300
C137 C 0.892200 0.870000 0.499800
H138 H 0.865200 0.873400 0.552000
C139 C 0.333000 -0.264000 -0.463200
H140 H 0.267700 -0.270600 -0.436400
C141 C 1.095400 0.455200 -0.155900
H142 H 1.071300 0.383200 -0.145400
H143 H 1.155500 0.450200 -0.190400
H144 H 1.132900 0.507200 -0.098100
C145 C 1.334300 1.228400 0.254300
H146 H 1.406500 1.219000 0.235800
C147 C 0.520300 -0.248500 -0.546400
H148 H 0.584500 -0.242200 -0.574300
C149 C 0.823700 0.906800 0.426700
H150 H 0.750200 0.934700 0.431100
C151 C 0.658100 1.177100 0.019000
H152 H 0.703000 1.208700 -0.015400
C153 C 0.999800 0.828400 0.495400
H154 H 1.048100 0.803400 0.544100
C155 C 1.230800 1.144900 0.221600
H156 H 1.234500 1.080000 0.181500
C157 C 0.512000 -0.160700 -0.479500
H158 H 0.570400 -0.095500 -0.463700
C159 C 1.034700 0.824600 0.416800
H160 H 1.107500 0.796400 0.411000
C161 C 1.225700 1.336900 0.338900
H162 H 1.222900 1.402500 0.378600
C163 C 0.342000 -0.351300 -0.530100
H164 H 0.283300 -0.416400 -0.547000
C165 C 0.960700 0.862900 0.346400
H166 H 0.985100 0.859100 0.293200
C167 C 0.435200 -0.343800 -0.571500
H168 H 0.440600 -0.403100 -0.616500
Zn169 Zn 0.246340 0.013790 0.758210
S170 S 0.371050 0.468810 1.114630
N171 N 0.123800 0.500100 1.165300
O172 O 0.588700 0.878300 1.219120
O173 O 0.695300 1.091500 1.337750
O174 O 0.076200 -0.085000 0.740760
C175 C 0.580600 1.167400 1.435800
O176 O 0.203400 0.121400 0.859240
N177 N 0.143700 0.095000 0.649500
C178 C 0.214000 0.291500 0.998200
H179 H 0.282900 0.282800 0.975400
C180 C 0.004800 0.025200 0.855000
H181 H -0.059800 0.027500 0.882900
C182 C 0.395900 0.792500 1.229200
C183 C 0.415300 0.690500 1.184200
H184 H 0.490700 0.686400 1.169000
C185 C -0.121900 -0.155900 0.752900
C186 C 0.499900 0.982400 1.324700
H187 H 0.429400 0.981800 1.346500
N188 N 0.340500 -0.079600 0.862000
C189 C 0.117900 0.403800 1.098400
C190 C 0.106200 0.210900 0.963000
C191 C 0.210900 0.596800 1.181500
C192 C 0.278100 0.795500 1.245500
H193 H 0.259900 0.862700 1.273600
C194 C -0.006100 -0.067100 0.783400
C195 C 0.326800 0.594600 1.161000
C196 C 0.106700 0.114400 0.887700
C197 C 0.594800 1.076500 1.361900
C198 C 0.009200 0.323200 1.061900
H199 H -0.061700 0.333400 1.082000
C200 C 0.004700 0.228800 0.996500
H201 H -0.068600 0.176100 0.974600
C202 C 0.020600 0.505200 1.208900
H203 H 0.053000 0.554700 1.269100
H204 H -0.004800 0.431500 1.217300
C205 C 0.221700 0.384200 1.066100
C206 C 0.188200 0.700900 1.220900
H207 H 0.109900 0.706800 1.231000
C208 C 0.282700 -0.124300 0.914600
H209 H 0.197300 -0.119800 0.906300
C210 C 0.501700 0.889600 1.257900
C211 C 0.463500 -0.086000 0.876700
H212 H 0.506200 -0.055000 0.841000
C213 C 0.468600 -0.181900 0.995300
H214 H 0.511800 -0.215600 1.040200
C215 C 0.530100 -0.135900 0.941700
H216 H 0.615700 -0.138400 0.949300
C217 C -0.120800 -0.253300 0.693400
H218 H -0.048900 -0.263300 0.674600
C219 C -0.332900 -0.324100 0.686900
H220 H -0.403300 -0.379900 0.664700
C221 C 0.107800 0.130000 0.500200
H222 H 0.134800 0.126600 0.448000
C223 C 0.667000 1.264000 1.463200
H224 H 0.732300 1.270600 1.436400
C225 C -0.095400 0.544800 1.155900
H226 H -0.071300 0.616800 1.145400
H227 H -0.155500 0.549800 1.190400
H228 H -0.132900 0.492800 1.098100
C229 C -0.334300 -0.228400 0.745700
H230 H -0.406500 -0.219000 0.764200
C231 C 0.479700 1.248500 1.546400
H232 H 0.415500 1.242200 1.574300
C233 C 0.176300 0.093200 0.573300
H234 H 0.249800 0.065300 0.568900
C235 C 0.341900 -0.177100 0.981000
H236 H 0.297000 -0.208700 1.015400
C237 C 0.000200 0.171600 0.504600
H238 H -0.048100 0.196600 0.455900
C239 C -0.230800 -0.144900 0.778400
H240 H -0.234500 -0.080000 0.818500
C241 C 0.488000 1.160700 1.479500
H242 H 0.429600 1.095500 1.463700
C243 C -0.034700 0.175400 0.583200
H244 H -0.107500 0.203600 0.589000
C245 C -0.225700 -0.336900 0.661100
H246 H -0.222900 -0.402500 0.621400
C247 C 0.658000 1.351300 1.530100
H248 H 0.716700 1.416400 1.547000
C249 C 0.039300 0.137100 0.653600
H250 H 0.014900 0.140900 0.706800
C251 C 0.564800 1.343800 1.571500
H252 H 0.559400 1.403100 1.616500
Zn253 Zn 0.753660 0.986210 1.241790
S254 S 0.628950 0.531190 0.885370
N255 N 0.876200 0.499900 0.834700
O256 O 0.411300 0.121700 0.780880
O257 O 0.304700 -0.091500 0.662250
O258 O 0.923800 1.085000 1.259240
C259 C 0.419400 -0.167400 0.564200
O260 O 0.796600 0.878600 1.140760
N261 N 0.856300 0.905000 1.350500
C262 C 0.786000 0.708500 1.001800
H263 H 0.717100 0.717200 1.024600
C264 C 0.995200 0.974800 1.145000
H265 H 1.059800 0.972500 1.117100
C266 C 0.604100 0.207500 0.770800
C267 C 0.584700 0.309500 0.815800
H268 H 0.509300 0.313600 0.831000
C269 C 1.121900 1.155900 1.247100
C270 C 0.500100 0.017600 0.675300
H271 H 0.570600 0.018200 0.653500
N272 N 0.659500 1.079600 1.138000
C273 C 0.882100 0.596200 0.901600
C274 C 0.893800 0.789100 1.037000
C275 C 0.789100 0.403200 0.818500
C276 C 0.721900 0.204500 0.754500
H277 H 0.740100 0.137300 0.726400
C278 C 1.006100 1.067100 1.216600
C279 C 0.673200 0.405400 0.839000
C280 C 0.893300 0.885600 1.112300
C281 C 0.405200 -0.076500 0.638100
C282 C 0.990800 0.676800 0.938100
H283 H 1.061700 0.666600 0.918000
C284 C 0.995300 0.771200 1.003500
H285 H 1.068600 0.823900 1.025400
C286 C 0.979400 0.494800 0.791100
H287 H 0.947000 0.445300 0.730900
H288 H 1.004800 0.568500 0.782700
C289 C 0.778300 0.615800 0.933900
C290 C 0.811800 0.299100 0.779100
H291 H 0.890100 0.293200 0.769000
C292 C 0.717300 1.124300 1.085400
H293 H 0.802700 1.119800 1.093700
C294 C 0.498300 0.110400 0.742100
C295 C 0.536500 1.086000 1.123300
H296 H 0.493800 1.055000 1.159000
C297 C 0.531400 1.181900 1.004700
H298 H 0.488200 1.215600 0.959800
C299 C 0.469900 1.135900 1.058300
H300 H 0.384300 1.138400 1.050700
C301 C 1.120800 1.253300 1.306600
H302 H 1.048900 1.263300 1.325400
C303 C 1.332900 1.324100 1.313100
H304 H 1.403300 1.379900 1.335300
C305 C 0.892200 0.870000 1.499800
H306 H 0.865200 0.873400 1.552000
C307 C 0.333000 -0.264000 0.536800
H308 H 0.267700 -0.270600 0.563600
C309 C 1.095400 0.455200 0.844100
H310 H 1.071300 0.383200 0.854600
H311 H 1.155500 0.450200 0.809600
H312 H 1.132900 0.507200 0.901900
C313 C 1.334300 1.228400 1.254300
H314 H 1.406500 1.219000 1.235800
C315 C 0.520300 -0.248500 0.453600
H316 H 0.584500 -0.242200 0.425700
C317 C 0.823700 0.906800 1.426700
H318 H 0.750200 0.934700 1.431100
C319 C 0.658100 1.177100 1.019000
H320 H 0.703000 1.208700 0.984600
C321 C 0.999800 0.828400 1.495400
H322 H 1.048100 0.803400 1.544100
C323 C 1.230800 1.144900 1.221600
H324 H 1.234500 1.080000 1.181500
C325 C 0.512000 -0.160700 0.520500
H326 H 0.570400 -0.095500 0.536300
C327 C 1.034700 0.824600 1.416800
H328 H 1.107500 0.796400 1.411000
C329 C 1.225700 1.336900 1.338900
H330 H 1.222900 1.402500 1.378600
C331 C 0.342000 -0.351300 0.469900
H332 H 0.283300 -0.416400 0.453000
C333 C 0.960700 0.862900 1.346400
H334 H 0.985100 0.859100 1.293200
C335 C 0.435200 -0.343800 0.428500
H336 H 0.440600 -0.403100 0.383500
N337 N 0.112000 0.582600 0.626600
C338 C 0.204200 0.642700 0.698700
H339 H 0.193800 0.714100 0.724300
C340 C 0.312700 0.605200 0.736900
H341 H 0.373800 0.650100 0.787600
C342 C 0.132300 0.480900 0.591200
H343 H 0.070600 0.436600 0.540500
C344 C 0.238000 0.439900 0.625900
H345 H 0.247700 0.368900 0.598700
C346 C 0.330700 0.500900 0.700000
H347 H 0.403600 0.472900 0.724600
N348 N 0.888000 0.417400 0.373400
C349 C 0.795800 0.357300 0.301300
H350 H 0.806200 0.285900 0.275700
C351 C 0.687300 0.394800 0.263100
H352 H 0.626200 0.349900 0.212400
C353 C 0.867700 0.519100 0.408800
H354 H 0.929400 0.563400 0.459500
C355 C 0.762000 0.560100 0.374100
H356 H 0.752300 0.631100 0.401300
C357 C 0.669300 0.499100 0.300000
H358 H 0.596400 0.527100 0.275400

#END
