./ABONIQ_from_xyz.cif_generated_by_CrystalShift
_symmetry_cell_setting triclinic
_symmetry_space_group_name_H-M 'P 1'
loop_
_symmetry_equiv_pos_site_id
_symmetry_equiv_pos_as_xyz
1 x,y,z
_cell_length_a 9.283900
_cell_length_b 10.498000
_cell_length_c 13.759800
_cell_angle_alpha 96.530000
_cell_angle_beta 101.059000
_cell_angle_gamma 100.442000
_cell_volume 1278.952843
loop_
_atom_site_label
_atom_site_type_symbol
_atom_site_fract_x
_atom_site_fract_y
_atom_site_fract_z
P1 P 1.074730 0.842150 0.285850
O2 O 1.156390 0.573120 0.177900
N3 N 0.920160 0.863320 0.303550
C4 C 1.100530 0.835920 0.159350
H5 H 1.025000 0.764400 0.115900
H6 H 1.201000 0.820800 0.157100
H7 H 1.089700 0.919200 0.136100
C8 C 1.127380 0.698070 0.332230
C9 C 1.131150 0.691280 0.433990
H10 H 1.111400 0.763000 0.474400
C11 C 1.162590 0.583900 0.477820
H12 H 1.164500 0.584000 0.547100
C13 C 1.191230 0.476890 0.422230
H14 H 1.213000 0.403700 0.452600
C15 C 1.187470 0.478520 0.320980
C16 C 1.156100 0.588490 0.279210
C17 C 1.209690 0.388630 0.239950
C18 C 1.249750 0.266970 0.230970
H19 H 1.263200 0.221400 0.286800
C20 C 1.269440 0.214290 0.139240
H21 H 1.297400 0.131600 0.132200
C22 C 1.249340 0.279440 0.056830
H23 H 1.263900 0.240500 -0.005400
C24 C 1.208460 0.400140 0.063680
H25 H 1.193800 0.445200 0.007700
C26 C 1.190320 0.451100 0.156040
C27 C 1.219920 0.972830 0.362070
C28 C 1.366880 0.993240 0.347440
H29 H 1.392500 0.938000 0.296700
C30 C 1.474950 1.095010 0.407750
H31 H 1.574100 1.110800 0.396600
C32 C 1.440540 1.173230 0.483420
H33 H 1.515700 1.242200 0.524400
C34 C 1.295910 1.151350 0.499980
H35 H 1.272300 1.203800 0.553300
C36 C 1.186140 1.052650 0.438430
H37 H 1.086500 1.039400 0.448600
C38 C 0.780980 0.842960 0.235360
C39 C 0.676930 0.722510 0.220570
C40 C 0.536890 0.709180 0.157180
H41 H 0.466600 0.628300 0.146500
C42 C 0.498190 0.810640 0.109710
H43 H 0.402000 0.799500 0.066900
C44 C 0.599680 0.928640 0.124600
H45 H 0.572000 0.998400 0.092000
C46 C 0.741800 0.947300 0.186400
C47 C 0.717500 0.608010 0.269270
H48 H 0.802400 0.643600 0.328400
C49 C 0.588480 0.530670 0.306950
H50 H 0.548600 0.591000 0.349200
H51 H 0.625400 0.466300 0.346100
H52 H 0.508800 0.485200 0.249600
C53 C 0.771480 0.515080 0.197230
H54 H 0.688500 0.474800 0.140400
H55 H 0.806600 0.446500 0.232300
H56 H 0.854000 0.564300 0.172900
C57 C 0.851000 1.078140 0.203210
H58 H 0.954400 1.059800 0.216800
C59 C 0.836800 1.164380 0.296000
H60 H 0.739400 1.190100 0.283600
H61 H 0.917400 1.243000 0.311400
H62 H 0.844600 1.115600 0.352800
C63 C 0.837300 1.150530 0.112890
H64 H 0.843200 1.092200 0.053500
H65 H 0.919100 1.227900 0.125800
H66 H 0.740700 1.177900 0.101300
P67 P -0.074730 0.157850 0.714150
O68 O -0.156390 0.426880 0.822100
N69 N 0.079840 0.136680 0.696450
C70 C -0.100530 0.164080 0.840650
H71 H -0.025000 0.235600 0.884100
H72 H -0.201000 0.179200 0.842900
H73 H -0.089700 0.080800 0.863900
C74 C -0.127380 0.301930 0.667770
C75 C -0.131150 0.308720 0.566010
H76 H -0.111400 0.237000 0.525600
C77 C -0.162590 0.416100 0.522180
H78 H -0.164500 0.416000 0.452900
C79 C -0.191230 0.523110 0.577770
H80 H -0.213000 0.596300 0.547400
C81 C -0.187470 0.521480 0.679020
C82 C -0.156100 0.411510 0.720790
C83 C -0.209690 0.611370 0.760050
C84 C -0.249750 0.733030 0.769030
H85 H -0.263200 0.778600 0.713200
C86 C -0.269440 0.785710 0.860760
H87 H -0.297400 0.868400 0.867800
C88 C -0.249340 0.720560 0.943170
H89 H -0.263900 0.759500 1.005400
C90 C -0.208460 0.599860 0.936320
H91 H -0.193800 0.554800 0.992300
C92 C -0.190320 0.548900 0.843960
C93 C -0.219920 0.027170 0.637930
C94 C -0.366880 0.006760 0.652560
H95 H -0.392500 0.062000 0.703300
C96 C -0.474950 -0.095010 0.592250
H97 H -0.574100 -0.110800 0.603400
C98 C -0.440540 -0.173230 0.516580
H99 H -0.515700 -0.242200 0.475600
C100 C -0.295910 -0.151350 0.500020
H101 H -0.272300 -0.203800 0.446700
C102 C -0.186140 -0.052650 0.561570
H103 H -0.086500 -0.039400 0.551400
C104 C 0.219020 0.157040 0.764640
C105 C 0.323070 0.277490 0.779430
C106 C 0.463110 0.290820 0.842820
H107 H 0.533400 0.371700 0.853500
C108 C 0.501810 0.189360 0.890290
H109 H 0.598000 0.200500 0.933100
C110 C 0.400320 0.071360 0.875400
H111 H 0.428000 0.001600 0.908000
C112 C 0.258200 0.052700 0.813600
C113 C 0.282500 0.391990 0.730730
H114 H 0.197600 0.356400 0.671600
C115 C 0.411520 0.469330 0.693050
H116 H 0.451400 0.409000 0.650800
H117 H 0.374600 0.533700 0.653900
H118 H 0.491200 0.514800 0.750400
C119 C 0.228520 0.484920 0.802770
H120 H 0.311500 0.525200 0.859600
H121 H 0.193400 0.553500 0.767700
H122 H 0.146000 0.435700 0.827100
C123 C 0.149000 -0.078140 0.796790
H124 H 0.045600 -0.059800 0.783200
C125 C 0.163200 -0.164380 0.704000
H126 H 0.260600 -0.190100 0.716400
H127 H 0.082600 -0.243000 0.688600
H128 H 0.155400 -0.115600 0.647200
C129 C 0.162700 -0.150530 0.887110
H130 H 0.156800 -0.092200 0.946500
H131 H 0.080900 -0.227900 0.874200
H132 H 0.259300 -0.177900 0.898700

#END
