./ABONEK_from_xyz.cif_generated_by_CrystalShift
_symmetry_cell_setting triclinic
_symmetry_space_group_name_H-M 'P 1'
loop_
_symmetry_equiv_pos_site_id
_symmetry_equiv_pos_as_xyz
1 x,y,z
_cell_length_a 23.039000
_cell_length_b 11.340000
_cell_length_c 21.010000
_cell_angle_alpha 90.000000
_cell_angle_beta 90.000000
_cell_angle_gamma 90.000000
_cell_volume 5489.120083
loop_
_atom_site_label
_atom_site_type_symbol
_atom_site_fract_x
_atom_site_fract_y
_atom_site_fract_z
N1 N 0.623940 0.082700 0.186270
N2 N 0.434670 -0.110500 0.214020
N3 N 0.668190 0.105200 0.304340
H4 H 0.633000 0.081400 0.294400
N5 N 0.512090 -0.019600 0.163930
H6 H 0.532100 -0.034800 0.198600
N7 N 0.636070 0.166500 0.401300
N8 N 0.361430 -0.206500 0.267800
H9 H 0.380100 -0.192600 0.303600
H10 H 0.328200 -0.244900 0.268500
N11 N 0.431000 0.348100 0.307600
N12 N 0.592920 0.224700 0.492730
H13 H 0.563000 0.234800 0.467300
N14 N 0.425990 0.383700 0.416050
H15 H 0.460000 0.348400 0.416700
N16 N 0.495100 0.341700 0.516150
N17 N 0.439200 0.297100 0.200400
H18 H 0.424100 0.289100 0.162100
H19 H 0.475200 0.275300 0.207500
C20 C 0.600320 0.078900 0.127850
C21 C 0.456920 -0.072700 0.158020
C22 C 0.383910 -0.168400 0.211320
C23 C 0.430780 -0.090900 0.099580
H24 H 0.447800 -0.063700 0.061100
C25 C 0.353990 -0.189600 0.154910
H26 H 0.317800 -0.229700 0.154900
C27 C 0.680270 0.111000 0.190070
C28 C 0.705930 0.122100 0.255800
C29 C 0.536950 0.053900 0.119720
C30 C 0.632120 0.099000 0.073550
H31 H 0.613800 0.095100 0.033100
C32 C 0.378290 -0.151100 0.100160
H33 H 0.358900 -0.165600 0.061000
C34 C 0.680290 0.122300 0.368890
C35 C 0.399000 0.387600 0.357000
C36 C 0.714630 0.132400 0.137260
H37 H 0.754400 0.152200 0.142200
C38 C 0.642800 0.178900 0.464300
C39 C 0.690300 0.124700 0.077500
H40 H 0.713000 0.136600 0.040200
C41 C 0.446800 0.399300 0.527000
C42 C 0.406700 0.343400 0.248400
C43 C 0.407700 0.426200 0.472600
C44 C 0.738700 0.109100 0.460300
H45 H 0.774400 0.090200 0.480400
C46 C 0.694000 0.153300 0.495500
H47 H 0.698000 0.166000 0.540000
C48 C 0.732510 0.091900 0.396300
H49 H 0.763200 0.060100 0.371600
C50 C 0.528800 0.316600 0.566000
C51 C 0.428100 0.439500 0.585500
H52 H 0.393000 0.482500 0.590400
C53 C 0.342400 0.424000 0.349800
H54 H 0.320600 0.452900 0.384800
C55 C 0.513900 0.351400 0.627900
H56 H 0.538100 0.332800 0.663100
C57 C 0.318200 0.416700 0.288400
H58 H 0.278900 0.439300 0.282300
C59 C 0.462900 0.414000 0.635900
H60 H 0.452000 0.439500 0.677300
C61 C 0.349500 0.378100 0.237200
H62 H 0.333000 0.375000 0.195800
C63 C 0.584500 0.255600 0.553900
O64 O 0.756840 0.147400 0.263130
O65 O 0.511240 0.093900 0.074180
O66 O 0.362540 0.482000 0.478370
O67 O 0.619520 0.236400 0.596280
N68 N 0.123940 0.582700 0.313730
N69 N -0.065330 0.389500 0.285980
N70 N 0.168190 0.605200 0.195660
H71 H 0.133000 0.581400 0.205600
N72 N 0.012090 0.480400 0.336070
H73 H 0.032100 0.465200 0.301400
N74 N 0.136070 0.666500 0.098700
N75 N -0.138570 0.293500 0.232200
H76 H -0.119900 0.307400 0.196400
H77 H -0.171800 0.255100 0.231500
N78 N -0.069000 0.848100 0.192400
N79 N 0.092920 0.724700 0.007270
H80 H 0.063000 0.734800 0.032700
N81 N -0.074010 0.883700 0.083950
H82 H -0.040000 0.848400 0.083300
N83 N -0.004900 0.841700 -0.016150
N84 N -0.060800 0.797100 0.299600
H85 H -0.075900 0.789100 0.337900
H86 H -0.024800 0.775300 0.292500
C87 C 0.100320 0.578900 0.372150
C88 C -0.043080 0.427300 0.341980
C89 C -0.116090 0.331600 0.288680
C90 C -0.069220 0.409100 0.400420
H91 H -0.052200 0.436300 0.438900
C92 C -0.146010 0.310400 0.345090
H93 H -0.182200 0.270300 0.345100
C94 C 0.180270 0.611000 0.309930
C95 C 0.205930 0.622100 0.244200
C96 C 0.036950 0.553900 0.380280
C97 C 0.132120 0.599000 0.426450
H98 H 0.113800 0.595100 0.466900
C99 C -0.121710 0.348900 0.399840
H100 H -0.141100 0.334400 0.439000
C101 C 0.180290 0.622300 0.131110
C102 C -0.101000 0.887600 0.143000
C103 C 0.214630 0.632400 0.362740
H104 H 0.254400 0.652200 0.357800
C105 C 0.142800 0.678900 0.035700
C106 C 0.190300 0.624700 0.422500
H107 H 0.213000 0.636600 0.459800
C108 C -0.053200 0.899300 -0.027000
C109 C -0.093300 0.843400 0.251600
C110 C -0.092300 0.926200 0.027400
C111 C 0.238700 0.609100 0.039700
H112 H 0.274400 0.590200 0.019600
C113 C 0.194000 0.653300 0.004500
H114 H 0.198000 0.666000 -0.040000
C115 C 0.232510 0.591900 0.103700
H116 H 0.263200 0.560100 0.128400
C117 C 0.028800 0.816600 -0.066000
C118 C -0.071900 0.939500 -0.085500
H119 H -0.107000 0.982500 -0.090400
C120 C -0.157600 0.924000 0.150200
H121 H -0.179400 0.952900 0.115200
C122 C 0.013900 0.851400 -0.127900
H123 H 0.038100 0.832800 -0.163100
C124 C -0.181800 0.916700 0.211600
H125 H -0.221100 0.939300 0.217700
C126 C -0.037100 0.914000 -0.135900
H127 H -0.048000 0.939500 -0.177300
C128 C -0.150500 0.878100 0.262800
H129 H -0.167000 0.875000 0.304200
C130 C 0.084500 0.755600 -0.053900
O131 O 0.256840 0.647400 0.236870
O132 O 0.011240 0.593900 0.425820
O133 O -0.137460 0.982000 0.021630
O134 O 0.119520 0.736400 -0.096280
N135 N 0.623940 0.917300 0.686270
N136 N 0.434670 1.110500 0.714020
N137 N 0.668190 0.894800 0.804340
H138 H 0.633000 0.918600 0.794400
N139 N 0.512090 1.019600 0.663930
H140 H 0.532100 1.034800 0.698600
N141 N 0.636070 0.833500 0.901300
N142 N 0.361430 1.206500 0.767800
H143 H 0.380100 1.192600 0.803600
H144 H 0.328200 1.244900 0.768500
N145 N 0.431000 0.651900 0.807600
N146 N 0.592920 0.775300 0.992730
H147 H 0.563000 0.765200 0.967300
N148 N 0.425990 0.616300 0.916050
H149 H 0.460000 0.651600 0.916700
N150 N 0.495100 0.658300 1.016150
N151 N 0.439200 0.702900 0.700400
H152 H 0.424100 0.710900 0.662100
H153 H 0.475200 0.724700 0.707500
C154 C 0.600320 0.921100 0.627850
C155 C 0.456920 1.072700 0.658020
C156 C 0.383910 1.168400 0.711320
C157 C 0.430780 1.090900 0.599580
H158 H 0.447800 1.063700 0.561100
C159 C 0.353990 1.189600 0.654910
H160 H 0.317800 1.229700 0.654900
C161 C 0.680270 0.889000 0.690070
C162 C 0.705930 0.877900 0.755800
C163 C 0.536950 0.946100 0.619720
C164 C 0.632120 0.901000 0.573550
H165 H 0.613800 0.904900 0.533100
C166 C 0.378290 1.151100 0.600160
H167 H 0.358900 1.165600 0.561000
C168 C 0.680290 0.877700 0.868890
C169 C 0.399000 0.612400 0.857000
C170 C 0.714630 0.867600 0.637260
H171 H 0.754400 0.847800 0.642200
C172 C 0.642800 0.821100 0.964300
C173 C 0.690300 0.875300 0.577500
H174 H 0.713000 0.863400 0.540200
C175 C 0.446800 0.600700 1.027000
C176 C 0.406700 0.656600 0.748400
C177 C 0.407700 0.573800 0.972600
C178 C 0.738700 0.890900 0.960300
H179 H 0.774400 0.909800 0.980400
C180 C 0.694000 0.846700 0.995500
H181 H 0.698000 0.834000 1.040000
C182 C 0.732510 0.908100 0.896300
H183 H 0.763200 0.939900 0.871600
C184 C 0.528800 0.683400 1.066000
C185 C 0.428100 0.560500 1.085500
H186 H 0.393000 0.517500 1.090400
C187 C 0.342400 0.576000 0.849800
H188 H 0.320600 0.547100 0.884800
C189 C 0.513900 0.648600 1.127900
H190 H 0.538100 0.667200 1.163100
C191 C 0.318200 0.583300 0.788400
H192 H 0.278900 0.560700 0.782300
C193 C 0.462900 0.586000 1.135900
H194 H 0.452000 0.560500 1.177300
C195 C 0.349500 0.621900 0.737200
H196 H 0.333000 0.625000 0.695800
C197 C 0.584500 0.744400 1.053900
O198 O 0.756840 0.852600 0.763130
O199 O 0.511240 0.906100 0.574180
O200 O 0.362540 0.518000 0.978370
O201 O 0.619520 0.763600 1.096280
N202 N 0.876060 0.582700 0.186270
N203 N 1.065330 0.389500 0.214020
N204 N 0.831810 0.605200 0.304340
H205 H 0.867000 0.581400 0.294400
N206 N 0.987910 0.480400 0.163930
H207 H 0.967900 0.465200 0.198600
N208 N 0.863930 0.666500 0.401300
N209 N 1.138570 0.293500 0.267800
H210 H 1.119900 0.307400 0.303600
H211 H 1.171800 0.255100 0.268500
N212 N 1.069000 0.848100 0.307600
N213 N 0.907080 0.724700 0.492730
H214 H 0.937000 0.734800 0.467300
N215 N 1.074010 0.883700 0.416050
H216 H 1.040000 0.848400 0.416700
N217 N 1.004900 0.841700 0.516150
N218 N 1.060800 0.797100 0.200400
H219 H 1.075900 0.789100 0.162100
H220 H 1.024800 0.775300 0.207500
C221 C 0.899680 0.578900 0.127850
C222 C 1.043080 0.427300 0.158020
C223 C 1.116090 0.331600 0.211320
C224 C 1.069220 0.409100 0.099580
H225 H 1.052200 0.436300 0.061100
C226 C 1.146010 0.310400 0.154910
H227 H 1.182200 0.270300 0.154900
C228 C 0.819730 0.611000 0.190070
C229 C 0.794070 0.622100 0.255800
C230 C 0.963050 0.553900 0.119720
C231 C 0.867880 0.599000 0.073550
H232 H 0.886200 0.595100 0.033100
C233 C 1.121710 0.348900 0.100160
H234 H 1.141100 0.334400 0.061000
C235 C 0.819710 0.622300 0.368890
C236 C 1.101000 0.887600 0.357000
C237 C 0.785370 0.632400 0.137260
H238 H 0.745600 0.652200 0.142200
C239 C 0.857200 0.678900 0.464300
C240 C 0.809700 0.624700 0.077500
H241 H 0.787000 0.636600 0.040200
C242 C 1.053200 0.899300 0.527000
C243 C 1.093300 0.843400 0.248400
C244 C 1.092300 0.926200 0.472600
C245 C 0.761300 0.609100 0.460300
H246 H 0.725600 0.590200 0.480400
C247 C 0.806000 0.653300 0.495500
H248 H 0.802000 0.666000 0.540000
C249 C 0.767490 0.591900 0.396300
H250 H 0.736800 0.560100 0.371600
C251 C 0.971200 0.816600 0.566000
C252 C 1.071900 0.939500 0.585500
H253 H 1.107000 0.982500 0.590400
C254 C 1.157600 0.924000 0.349800
H255 H 1.179400 0.952900 0.384800
C256 C 0.986100 0.851400 0.627900
H257 H 0.961900 0.832800 0.663100
C258 C 1.181800 0.916700 0.288400
H259 H 1.221100 0.939300 0.282300
C260 C 1.037100 0.914000 0.635900
H261 H 1.048000 0.939500 0.677300
C262 C 1.150500 0.878100 0.237200
H263 H 1.167000 0.875000 0.195800
C264 C 0.915500 0.755600 0.553900
O265 O 0.743160 0.647400 0.263130
O266 O 0.988760 0.593900 0.074180
O267 O 1.137460 0.982000 0.478370
O268 O 0.880480 0.736400 0.596280
N269 N 0.376060 0.917300 0.813730
N270 N 0.565330 1.110500 0.785980
N271 N 0.331810 0.894800 0.695660
H272 H 0.367000 0.918600 0.705600
N273 N 0.487910 1.019600 0.836070
H274 H 0.467900 1.034800 0.801400
N275 N 0.363930 0.833500 0.598700
N276 N 0.638570 1.206500 0.732200
H277 H 0.619900 1.192600 0.696400
H278 H 0.671800 1.244900 0.731500
N279 N 0.569000 0.651900 0.692400
N280 N 0.407080 0.775300 0.507270
H281 H 0.437000 0.765200 0.532700
N282 N 0.574010 0.616300 0.583950
H283 H 0.540000 0.651600 0.583300
N284 N 0.504900 0.658300 0.483850
N285 N 0.560800 0.702900 0.799600
H286 H 0.575900 0.710900 0.837900
H287 H 0.524800 0.724700 0.792500
C288 C 0.399680 0.921100 0.872150
C289 C 0.543080 1.072700 0.841980
C290 C 0.616090 1.168400 0.788680
C291 C 0.569220 1.090900 0.900420
H292 H 0.552200 1.063700 0.938900
C293 C 0.646010 1.189600 0.845090
H294 H 0.682200 1.229700 0.845100
C295 C 0.319730 0.889000 0.809930
C296 C 0.294070 0.877900 0.744200
C297 C 0.463050 0.946100 0.880280
C298 C 0.367880 0.901000 0.926450
H299 H 0.386200 0.904900 0.966900
C300 C 0.621710 1.151100 0.899840
H301 H 0.641100 1.165600 0.939000
C302 C 0.319710 0.877700 0.631110
C303 C 0.601000 0.612400 0.643000
C304 C 0.285370 0.867600 0.862740
H305 H 0.245600 0.847800 0.857800
C306 C 0.357200 0.821100 0.535700
C307 C 0.309700 0.875300 0.922500
H308 H 0.287000 0.863400 0.959800
C309 C 0.553200 0.600700 0.473000
C310 C 0.593300 0.656600 0.751600
C311 C 0.592300 0.573800 0.527400
C312 C 0.261300 0.890900 0.539700
H313 H 0.225600 0.909800 0.519600
C314 C 0.306000 0.846700 0.504500
H315 H 0.302000 0.834000 0.460000
C316 C 0.267490 0.908100 0.603700
H317 H 0.236800 0.939900 0.628400
C318 C 0.471200 0.683400 0.434000
C319 C 0.571900 0.560500 0.414500
H320 H 0.607000 0.517500 0.409600
C321 C 0.657600 0.576000 0.650200
H322 H 0.679400 0.547100 0.615200
C323 C 0.486100 0.648600 0.372100
H324 H 0.461900 0.667200 0.336900
C325 C 0.681800 0.583300 0.711600
H326 H 0.721100 0.560700 0.717700
C327 C 0.537100 0.586000 0.364100
H328 H 0.548000 0.560500 0.322700
C329 C 0.650500 0.621900 0.762800
H330 H 0.667000 0.625000 0.804200
C331 C 0.415500 0.744400 0.446100
O332 O 0.243160 0.852600 0.736870
O333 O 0.488760 0.906100 0.925820
O334 O 0.637460 0.518000 0.521630
O335 O 0.380480 0.763600 0.403720
N336 N 0.876060 0.417300 0.686270
N337 N 1.065330 0.610500 0.714020
N338 N 0.831810 0.394800 0.804340
H339 H 0.867000 0.418600 0.794400
N340 N 0.987910 0.519600 0.663930
H341 H 0.967900 0.534800 0.698600
N342 N 0.863930 0.333500 0.901300
N343 N 1.138570 0.706500 0.767800
H344 H 1.119900 0.692600 0.803600
H345 H 1.171800 0.744900 0.768500
N346 N 1.069000 0.151900 0.807600
N347 N 0.907080 0.275300 0.992730
H348 H 0.937000 0.265200 0.967300
N349 N 1.074010 0.116300 0.916050
H350 H 1.040000 0.151600 0.916700
N351 N 1.004900 0.158300 1.016150
N352 N 1.060800 0.202900 0.700400
H353 H 1.075900 0.210900 0.662100
H354 H 1.024800 0.224700 0.707500
C355 C 0.899680 0.421100 0.627850
C356 C 1.043080 0.572700 0.658020
C357 C 1.116090 0.668400 0.711320
C358 C 1.069220 0.590900 0.599580
H359 H 1.052200 0.563700 0.561100
C360 C 1.146010 0.689600 0.654910
H361 H 1.182200 0.729700 0.654900
C362 C 0.819730 0.389000 0.690070
C363 C 0.794070 0.377900 0.755800
C364 C 0.963050 0.446100 0.619720
C365 C 0.867880 0.401000 0.573550
H366 H 0.886200 0.404900 0.533100
C367 C 1.121710 0.651100 0.600160
H368 H 1.141100 0.665600 0.561000
C369 C 0.819710 0.377700 0.868890
C370 C 1.101000 0.112400 0.857000
C371 C 0.785370 0.367600 0.637260
H372 H 0.745600 0.347800 0.642200
C373 C 0.857200 0.321100 0.964300
C374 C 0.809700 0.375300 0.577500
H375 H 0.787000 0.363400 0.540200
C376 C 1.053200 0.100700 1.027000
C377 C 1.093300 0.156600 0.748400
C378 C 1.092300 0.073800 0.972600
C379 C 0.761300 0.390900 0.960300
H380 H 0.725600 0.409800 0.980400
C381 C 0.806000 0.346700 0.995500
H382 H 0.802000 0.334000 1.040000
C383 C 0.767490 0.408100 0.896300
H384 H 0.736800 0.439900 0.871600
C385 C 0.971200 0.183400 1.066000
C386 C 1.071900 0.060500 1.085500
H387 H 1.107000 0.017500 1.090400
C388 C 1.157600 0.076000 0.849800
H389 H 1.179400 0.047100 0.884800
C390 C 0.986100 0.148600 1.127900
H391 H 0.961900 0.167200 1.163100
C392 C 1.181800 0.083300 0.788400
H393 H 1.221100 0.060700 0.782300
C394 C 1.037100 0.086000 1.135900
H395 H 1.048000 0.060500 1.177300
C396 C 1.150500 0.121900 0.737200
H397 H 1.167000 0.125000 0.695800
C398 C 0.915500 0.244400 1.053900
O399 O 0.743160 0.352600 0.763130
O400 O 0.988760 0.406100 0.574180
O401 O 1.137460 0.018000 0.978370
O402 O 0.880480 0.263600 1.096280
N403 N 0.376060 0.082700 0.313730
N404 N 0.565330 -0.110500 0.285980
N405 N 0.331810 0.105200 0.195660
H406 H 0.367000 0.081400 0.205600
N407 N 0.487910 -0.019600 0.336070
H408 H 0.467900 -0.034800 0.301400
N409 N 0.363930 0.166500 0.098700
N410 N 0.638570 -0.206500 0.232200
H411 H 0.619900 -0.192600 0.196400
H412 H 0.671800 -0.244900 0.231500
N413 N 0.569000 0.348100 0.192400
N414 N 0.407080 0.224700 0.007270
H415 H 0.437000 0.234800 0.032700
N416 N 0.574010 0.383700 0.083950
H417 H 0.540000 0.348400 0.083300
N418 N 0.504900 0.341700 -0.016150
N419 N 0.560800 0.297100 0.299600
H420 H 0.575900 0.289100 0.337900
H421 H 0.524800 0.275300 0.292500
C422 C 0.399680 0.078900 0.372150
C423 C 0.543080 -0.072700 0.341980
C424 C 0.616090 -0.168400 0.288680
C425 C 0.569220 -0.090900 0.400420
H426 H 0.552200 -0.063700 0.438900
C427 C 0.646010 -0.189600 0.345090
H428 H 0.682200 -0.229700 0.345100
C429 C 0.319730 0.111000 0.309930
C430 C 0.294070 0.122100 0.244200
C431 C 0.463050 0.053900 0.380280
C432 C 0.367880 0.099000 0.426450
H433 H 0.386200 0.095100 0.466900
C434 C 0.621710 -0.151100 0.399840
H435 H 0.641100 -0.165600 0.439000
C436 C 0.319710 0.122300 0.131110
C437 C 0.601000 0.387600 0.143000
C438 C 0.285370 0.132400 0.362740
H439 H 0.245600 0.152200 0.357800
C440 C 0.357200 0.178900 0.035700
C441 C 0.309700 0.124700 0.422500
H442 H 0.287000 0.136600 0.459800
C443 C 0.553200 0.399300 -0.027000
C444 C 0.593300 0.343400 0.251600
C445 C 0.592300 0.426200 0.027400
C446 C 0.261300 0.109100 0.039700
H447 H 0.225600 0.090200 0.019600
C448 C 0.306000 0.153300 0.004500
H449 H 0.302000 0.166000 -0.040000
C450 C 0.267490 0.091900 0.103700
H451 H 0.236800 0.060100 0.128400
C452 C 0.471200 0.316600 -0.066000
C453 C 0.571900 0.439500 -0.085500
H454 H 0.607000 0.482500 -0.090400
C455 C 0.657600 0.424000 0.150200
H456 H 0.679400 0.452900 0.115200
C457 C 0.486100 0.351400 -0.127900
H458 H 0.461900 0.332800 -0.163100
C459 C 0.681800 0.416700 0.211600
H460 H 0.721100 0.439300 0.217700
C461 C 0.537100 0.414000 -0.135900
H462 H 0.548000 0.439500 -0.177300
C463 C 0.650500 0.378100 0.262800
H464 H 0.667000 0.375000 0.304200
C465 C 0.415500 0.255600 -0.053900
O466 O 0.243160 0.147400 0.236870
O467 O 0.488760 0.093900 0.425820
O468 O 0.637460 0.482000 0.021630
O469 O 0.380480 0.236400 -0.096280
N470 N 0.123940 0.417300 0.813730
N471 N -0.065330 0.610500 0.785980
N472 N 0.168190 0.394800 0.695660
H473 H 0.133000 0.418600 0.705600
N474 N 0.012090 0.519600 0.836070
H475 H 0.032100 0.534800 0.801400
N476 N 0.136070 0.333500 0.598700
N477 N -0.138570 0.706500 0.732200
H478 H -0.119900 0.692600 0.696400
H479 H -0.171800 0.744900 0.731500
N480 N -0.069000 0.151900 0.692400
N481 N 0.092920 0.275300 0.507270
H482 H 0.063000 0.265200 0.532700
N483 N -0.074010 0.116300 0.583950
H484 H -0.040000 0.151600 0.583300
N485 N -0.004900 0.158300 0.483850
N486 N -0.060800 0.202900 0.799600
H487 H -0.075900 0.210900 0.837900
H488 H -0.024800 0.224700 0.792500
C489 C 0.100320 0.421100 0.872150
C490 C -0.043080 0.572700 0.841980
C491 C -0.116090 0.668400 0.788680
C492 C -0.069220 0.590900 0.900420
H493 H -0.052200 0.563700 0.938900
C494 C -0.146010 0.689600 0.845090
H495 H -0.182200 0.729700 0.845100
C496 C 0.180270 0.389000 0.809930
C497 C 0.205930 0.377900 0.744200
C498 C 0.036950 0.446100 0.880280
C499 C 0.132120 0.401000 0.926450
H500 H 0.113800 0.404900 0.966900
C501 C -0.121710 0.651100 0.899840
H502 H -0.141100 0.665600 0.939000
C503 C 0.180290 0.377700 0.631110
C504 C -0.101000 0.112400 0.643000
C505 C 0.214630 0.367600 0.862740
H506 H 0.254400 0.347800 0.857800
C507 C 0.142800 0.321100 0.535700
C508 C 0.190300 0.375300 0.922500
H509 H 0.213000 0.363400 0.959800
C510 C -0.053200 0.100700 0.473000
C511 C -0.093300 0.156600 0.751600
C512 C -0.092300 0.073800 0.527400
C513 C 0.238700 0.390900 0.539700
H514 H 0.274400 0.409800 0.519600
C515 C 0.194000 0.346700 0.504500
H516 H 0.198000 0.334000 0.460000
C517 C 0.232510 0.408100 0.603700
H518 H 0.263200 0.439900 0.628400
C519 C 0.028800 0.183400 0.434000
C520 C -0.071900 0.060500 0.414500
H521 H -0.107000 0.017500 0.409600
C522 C -0.157600 0.076000 0.650200
H523 H -0.179400 0.047100 0.615200
C524 C 0.013900 0.148600 0.372100
H525 H 0.038100 0.167200 0.336900
C526 C -0.181800 0.083300 0.711600
H527 H -0.221100 0.060700 0.717700
C528 C -0.037100 0.086000 0.364100
H529 H -0.048000 0.060500 0.322700
C530 C -0.150500 0.121900 0.762800
H531 H -0.167000 0.125000 0.804200
C532 C 0.084500 0.244400 0.446100
O533 O 0.256840 0.352600 0.736870
O534 O 0.011240 0.406100 0.925820
O535 O -0.137460 0.018000 0.521630
O536 O 0.119520 0.263600 0.403720

#END
