./LIBJEN_from_POSCAR.cif_generated_by_CrystalShift
_symmetry_cell_setting triclinic
_symmetry_space_group_name_H-M 'P 1'
loop_
_symmetry_equiv_pos_site_id
_symmetry_equiv_pos_as_xyz
1 x,y,z
_cell_length_a 9.033000
_cell_length_b 9.512000
_cell_length_c 12.370000
_cell_angle_alpha 101.182000
_cell_angle_beta 99.171000
_cell_angle_gamma 95.491000
_cell_volume 1020.516010
loop_
_atom_site_label
_atom_site_type_symbol
_atom_site_fract_x
_atom_site_fract_y
_atom_site_fract_z
H1 H 0.121000 -0.060000 0.029600
H2 H 0.789200 0.523400 0.358000
H3 H 0.766200 1.242700 1.033400
H4 H 1.040800 0.590000 0.434800
H5 H 0.590900 1.216600 1.027500
H6 H 1.202400 0.689500 0.338600
H7 H 0.449800 0.649000 0.589800
H8 H 1.115600 0.721200 0.163000
H9 H 0.485700 0.641100 0.408400
H10 H 0.863500 0.653500 0.082800
H11 H 0.633900 0.824400 0.367500
H12 H 0.743800 1.020700 0.506900
H13 H 0.608200 0.558500 0.087700
H14 H 0.713300 1.026600 0.689100
H15 H 0.199600 0.392100 0.167400
H16 H 0.329600 0.406300 0.270800
H17 H 0.471500 0.771500 0.777000
H18 H 0.528500 0.228500 0.223000
H19 H 0.670400 0.593700 0.729200
H20 H 0.800400 0.607900 0.832600
H21 H 0.391800 0.441500 0.912300
H22 H 0.136500 0.346500 0.917200
H23 H -0.115600 0.278800 0.837000
H24 H 0.286700 -0.026600 0.310900
H25 H -0.202400 0.310500 0.661400
H26 H 0.256200 -0.020700 0.493100
H27 H -0.040800 0.410000 0.565200
H28 H 0.366100 0.175600 0.632500
H29 H 0.210800 0.476600 0.642000
H30 H 0.514300 0.358900 0.591600
H31 H 0.103700 0.985200 0.813200
H32 H 0.550200 0.351000 0.410200
H33 H 0.130100 1.036400 0.703200
H34 H 0.409100 -0.216600 -0.027500
H35 H 0.233800 -0.242700 -0.033400
H36 H 0.343600 -0.280600 0.065200
H37 H 0.059600 0.747600 0.714200
H38 H -0.056000 0.838600 0.660400
H39 H 0.896300 0.014800 0.186800
H40 H 0.869900 -0.036400 0.296800
H41 H 0.083200 0.799900 0.604800
H42 H 0.940400 0.252400 0.285800
H43 H 1.056000 0.161400 0.339600
H44 H 0.916800 0.200100 0.395200
H45 H 0.656400 1.280600 0.934800
H46 H 0.879000 1.060000 0.970400
C47 C 0.951500 0.175500 0.325300
C48 C 0.861600 0.042000 0.257300
C49 C 0.604900 -0.030700 0.168220
C50 C 0.048500 0.824500 0.674700
C51 C 0.330000 -0.214600 0.015910
C52 C 0.488900 0.276100 0.426010
C53 C 0.145900 0.437000 0.682600
C54 C 0.468100 0.280600 0.535000
C55 C -0.004700 0.396700 0.636700
C56 C 0.380900 0.171700 0.559300
C57 C -0.100900 0.337900 0.693700
C58 C 0.314200 0.055500 0.476200
C59 C -0.049500 0.319100 0.797400
C60 C 0.333400 0.052000 0.367190
C61 C 0.101900 0.359800 0.845500
C62 C 0.419700 0.161800 0.340440
C63 C 0.200600 0.418900 0.788860
C64 C 0.359200 0.459300 0.841610
C65 C 0.185900 0.133800 0.096520
C66 C 0.697700 0.626900 0.809890
C67 C 0.335200 -0.064800 0.083560
C68 C 0.454700 0.017400 0.153420
C69 C 0.563000 0.837400 0.779680
C70 C 0.437000 0.162600 0.220320
C71 C 0.545300 0.982600 0.846580
C72 C 0.664800 1.064800 0.916440
C73 C 0.814100 0.866200 0.903480
C74 C 0.580300 0.838200 0.659560
C75 C 0.666600 0.948000 0.632810
C76 C 0.302300 0.373100 0.190110
C77 C 0.685800 0.944500 0.523800
C78 C 0.640800 0.540700 0.158390
C79 C 0.619100 0.828300 0.440700
C80 C 0.799400 0.581100 0.211140
C81 C 0.531900 0.719400 0.465000
C82 C 0.898100 0.640200 0.154500
C83 C 0.511100 0.723900 0.573990
C84 C 1.049500 0.680900 0.202600
C85 C 0.670000 1.214600 0.984090
C86 C 1.100900 0.662100 0.306300
C87 C 1.004700 0.603300 0.363300
C88 C 0.854100 0.563000 0.317400
C89 C 0.395100 1.030700 0.831780
C90 C 0.138400 0.958000 0.742700
N91 N 0.453100 0.518150 0.793090
N92 N 0.692930 0.779860 0.837900
N93 N 0.546900 0.481850 0.206910
N94 N 0.307070 0.220140 0.162100
N95 N 0.199200 -0.009650 0.069840
N96 N 0.800800 1.009650 0.930160
O97 O 0.706560 0.072560 0.237810
O98 O 0.637780 -0.144680 0.124690
O99 O 0.067460 0.179080 0.061210
O100 O 0.400090 0.452440 0.138890
O101 O 0.599910 0.547560 0.861110
O102 O 0.932540 0.820920 0.938790
O103 O 0.362220 1.144680 0.875310
O104 O 0.293440 0.927440 0.762190

#END
