
#######################################################################
#
#                 Cambridge Crystallographic Data Centre
#                                CCDC 
#
#######################################################################
#
# If this CIF has been generated from an entry in the Cambridge 
# Structural Database, then it will include bibliographic, chemical, 
# crystal, experimental, refinement or atomic coordinate data resulting 
# from the CCDC's data processing and validation procedures.
#
#######################################################################

data_LIBJEL
_symmetry_cell_setting           monoclinic
_symmetry_space_group_name_H-M   'P 21'
_symmetry_Int_Tables_number      4
_space_group_name_Hall           'P 2yb'
loop_
_symmetry_equiv_pos_site_id
_symmetry_equiv_pos_as_xyz
1 x,y,z
2 -x,1/2+y,-z
_cell_length_a                   5.122(3)
_cell_length_b                   9.093(2)
_cell_length_c                   23.276(4)
_cell_angle_alpha                90
_cell_angle_beta                 94.17(4)
_cell_angle_gamma                90
_cell_volume                     1081.19
loop_
_atom_site_label
_atom_site_type_symbol
_atom_site_fract_x
_atom_site_fract_y
_atom_site_fract_z
O1 O 1.3709(24) 0.9746 0.2150(5)
O2 O 1.0283(22) 0.9719(18) 0.2719(5)
O3 O 0.5990(23) 1.1467(18) 0.1065(5)
O4 O 0.8284(20) 1.1059(18) 0.0305(5)
O5 O 0.2555(25) 0.4434 0.0925(5)
O6 O 0.4827(22) 0.4900(20) 0.1755(5)
N1 N 0.895(3) 0.7837(20) 0.0843(6)
N2 N 0.5657(24) 0.6665(20) 0.0399(5)
N3 N 0.9536(24) 1.0099(19) 0.1780(5)
C1 C 0.741(3) 0.7648(24) 0.0324(7)
C2 C 0.598(4) 0.6168(25) 0.0970(8)
C3 C 0.800(3) 0.692(3) 0.1230(7)
C4 C 1.110(3) 0.8979(24) 0.0922(7)
C5 C 1.019(3) 1.0322(22) 0.1202(7)
C6 C 1.137(3) 0.9808(25) 0.2234(7)
C7 C 1.216(4) 0.944(3) 0.3221(9)
C8 C 1.065(4) 0.925(3) 0.3719(9)
C9 C 1.124(5) 1.009(3) 0.4188(13)
C10 C 0.985(6) 0.990(4) 0.4678(11)
C11 C 0.800(5) 0.898(4) 0.4703(12)
C12 C 0.744(6) 0.804(4) 0.4236(12)
C13 C 0.882(4) 0.822(3) 0.3750(8)
C14 C 0.794(4) 1.1048(25) 0.0834(8)
C15 C 0.431(4) 0.509(3) 0.1180(9)
C16 C 0.329(4) 0.381(3) 0.2036(9)
C17 C 0.408(4) 0.378(3) 0.2666(8)
C18 C 0.607(5) 0.301(3) 0.2867(11)
C19 C 0.680(5) 0.305(4) 0.3486(13)
C20 C 0.542(5) 0.385(3) 0.3800(10)
C21 C 0.347(6) 0.475(4) 0.3609(12)
C22 C 0.276(5) 0.467(4) 0.3025(12)
H1 H 0.7745 1.0153 0.1859
H2 H 0.7631 0.8161 -0.0025
H3 H 0.8638 0.6815 0.1621
H4 H 1.2521 0.8574 0.1154
H5 H 1.1665 0.9232 0.0555
H6 H 1.1608 1.0996 0.1218
H7 H 1.3147 0.8579 0.3159
H8 H 1.3318 1.0256 0.3279
H9 H 1.2590 1.0809 0.4185
H10 H 1.0322 1.0484 0.5008
H11 H 0.7017 0.8934 0.5033
H12 H 0.6148 0.7288 0.4251
H13 H 0.8434 0.7598 0.3427
H14 H 0.9917 1.1711 0.0271
H15 H 0.1490 0.4063 0.1981
H16 H 0.3575 0.2875 0.1875
H17 H 0.7045 0.2429 0.2618
H18 H 0.8252 0.2507 0.3651
H19 H 0.5786 0.3791 0.4205
H20 H 0.2640 0.5402 0.3857
H21 H 0.1329 0.5244 0.2869
O1 O -0.3709(24) 0.4746 0.7850(5)
O2 O -0.0283(22) 0.4719(18) 0.7281(5)
O3 O 0.4010(23) 0.6467(18) 0.8935(5)
O4 O 0.1716(20) 0.6059(18) 0.9695(5)
O5 O 0.7445(25) -0.0566 0.9075(5)
O6 O 0.5173(22) -0.0100(20) 0.8245(5)
N1 N 0.105(3) 0.2837(20) 0.9157(6)
N2 N 0.4343(24) 0.1665(20) 0.9601(5)
N3 N 0.0464(24) 0.5099(19) 0.8220(5)
C1 C 0.259(3) 0.2648(24) 0.9676(7)
C2 C 0.402(4) 0.1168(25) 0.9030(8)
C3 C 0.200(3) 0.192(3) 0.8770(7)
C4 C -0.110(3) 0.3979(24) 0.9078(7)
C5 C -0.019(3) 0.5322(22) 0.8798(7)
C6 C -0.137(3) 0.4808(25) 0.7766(7)
C7 C -0.216(4) 0.444(3) 0.6779(9)
C8 C -0.065(4) 0.425(3) 0.6281(9)
C9 C -0.124(5) 0.509(3) 0.5812(13)
C10 C 0.015(6) 0.490(4) 0.5322(11)
C11 C 0.200(5) 0.398(4) 0.5297(12)
C12 C 0.256(6) 0.304(4) 0.5764(12)
C13 C 0.118(4) 0.322(3) 0.6250(8)
C14 C 0.206(4) 0.6048(25) 0.9166(8)
C15 C 0.569(4) 0.009(3) 0.8820(9)
C16 C 0.671(4) -0.119(3) 0.7964(9)
C17 C 0.592(4) -0.122(3) 0.7334(8)
C18 C 0.393(5) -0.199(3) 0.7133(11)
C19 C 0.320(5) -0.195(4) 0.6514(13)
C20 C 0.458(5) -0.115(3) 0.6200(10)
C21 C 0.653(6) -0.025(4) 0.6391(12)
C22 C 0.724(5) -0.033(4) 0.6975(12)
H1 H 0.2255 0.5153 0.8141
H2 H 0.2369 0.3161 1.0025
H3 H 0.1362 0.1815 0.8379
H4 H -0.2521 0.3574 0.8846
H5 H -0.1665 0.4232 0.9445
H6 H -0.1608 0.5996 0.8782
H7 H -0.3147 0.3579 0.6841
H8 H -0.3318 0.5256 0.6721
H9 H -0.2590 0.5809 0.5815
H10 H -0.0322 0.5484 0.4992
H11 H 0.2983 0.3934 0.4967
H12 H 0.3852 0.2288 0.5749
H13 H 0.1566 0.2598 0.6573
H14 H 0.0083 0.6711 0.9729
H15 H 0.8510 -0.0937 0.8019
H16 H 0.6425 -0.2125 0.8125
H17 H 0.2955 -0.2571 0.7382
H18 H 0.1748 -0.2493 0.6349
H19 H 0.4214 -0.1209 0.5795
H20 H 0.7360 0.0402 0.6143
H21 H 0.8671 0.0244 0.7131

#END
