./LIBJOV01_from_POSCAR.cif_generated_by_CrystalShift
_symmetry_cell_setting triclinic
_symmetry_space_group_name_H-M 'P 1'
loop_
_symmetry_equiv_pos_site_id
_symmetry_equiv_pos_as_xyz
1 x,y,z
_cell_length_a 11.349500
_cell_length_b 11.621100
_cell_length_c 17.311300
_cell_angle_alpha 90.000000
_cell_angle_beta 90.000000
_cell_angle_gamma 90.000000
_cell_volume 2283.250967
loop_
_atom_site_label
_atom_site_type_symbol
_atom_site_fract_x
_atom_site_fract_y
_atom_site_fract_z
H1 H 0.415400 0.444200 0.631300
H2 H 0.511000 0.545400 0.634500
H3 H 0.417300 0.386400 0.798300
H4 H 0.419600 0.289500 0.732700
H5 H 0.239800 0.373700 0.401100
H6 H 0.519900 0.291900 0.797600
H7 H 0.102300 0.320800 0.295700
H8 H 0.576600 0.536800 0.800200
H9 H 0.677700 0.441400 0.793100
H10 H 0.285700 0.020400 0.517600
H11 H 0.405000 0.067100 0.555600
H12 H 0.398200 0.045400 0.464400
H13 H 0.669500 0.542900 0.730800
H14 H 0.172000 0.179100 0.573200
H15 H 0.211200 0.309600 0.558600
H16 H 0.288100 0.228600 0.613900
H17 H 0.889000 0.147200 0.517100
H18 H 0.460200 0.252100 0.440600
H19 H 0.469800 0.267200 0.532200
H20 H 0.389000 0.352800 0.482900
H21 H 0.969800 0.232800 0.467800
H22 H 0.960200 0.247900 0.559400
H23 H 0.169500 -0.042900 0.269200
H24 H 0.177700 0.058600 0.206900
H25 H 0.076600 -0.036800 0.199800
H26 H 0.788100 0.271400 0.386100
H27 H 0.019900 0.208100 0.202400
H28 H -0.080400 0.210500 0.267300
H29 H -0.082700 0.113600 0.201700
H30 H 0.711200 0.190400 0.441400
H31 H 0.011000 -0.045400 0.365500
H32 H -0.089200 -0.037500 0.300700
H33 H -0.084600 0.055800 0.368700
H34 H 0.672000 0.320900 0.426800
H35 H 0.898200 0.454600 0.535600
H36 H 0.905000 0.432900 0.444400
H37 H 0.785700 0.479600 0.482400
H38 H 0.739800 0.373700 0.098900
H39 H 0.602300 0.179200 0.704300
H40 H 0.602300 0.320800 0.204300
H41 H 0.739800 0.126300 0.598900
H42 H 1.084600 0.555800 0.131300
H43 H 0.785700 0.020400 -0.017600
H44 H 0.905000 0.067100 -0.055600
H45 H 0.898200 0.045400 0.035600
H46 H 1.089200 0.462500 0.199300
H47 H 0.672000 0.179100 -0.073200
H48 H 0.711200 0.309600 -0.058600
H49 H 0.788100 0.228600 -0.113900
H50 H 0.989000 0.454600 0.134500
H51 H 0.960200 0.252100 0.059400
H52 H 0.969800 0.267200 -0.032200
H53 H 0.889000 0.352800 0.017100
H54 H 1.082700 0.613600 0.298300
H55 H 1.080400 0.710500 0.232700
H56 H 0.669500 -0.042900 0.230800
H57 H 0.677700 0.058600 0.293100
H58 H 0.576600 -0.036800 0.300200
H59 H 0.980100 0.708100 0.297600
H60 H 0.519900 0.208100 0.297600
H61 H 0.419600 0.210500 0.232700
H62 H 0.417300 0.113600 0.298300
H63 H 0.923400 0.463200 0.300200
H64 H 0.511000 -0.045400 0.134500
H65 H 0.410800 -0.037500 0.199300
H66 H 0.415400 0.055800 0.131300
H67 H 0.822300 0.558600 0.293100
H68 H 0.830500 0.457100 0.230800
H69 H 0.611000 0.852800 0.017100
H70 H 0.530200 0.767200 -0.032200
H71 H 0.239800 0.126300 0.901100
H72 H 0.539800 0.752100 0.059400
H73 H 0.102300 0.179200 0.795700
H74 H 0.711900 0.728600 -0.113900
H75 H 0.788800 0.809600 -0.058600
H76 H 0.285700 0.479600 1.017600
H77 H 0.405000 0.432900 1.055600
H78 H 0.398200 0.454600 0.964400
H79 H 0.828000 0.679100 -0.073200
H80 H 0.172000 0.320900 1.073200
H81 H 0.211200 0.190400 1.058600
H82 H 0.288100 0.271400 1.113900
H83 H 0.601800 0.545400 0.035600
H84 H 0.460200 0.247900 0.940600
H85 H 0.469800 0.232800 1.032200
H86 H 0.389000 0.147200 0.982900
H87 H 0.595000 0.567100 -0.055600
H88 H 0.714300 0.520400 -0.017600
H89 H 0.169500 0.542900 0.769200
H90 H 0.177700 0.441400 0.706900
H91 H 0.076600 0.536800 0.699800
H92 H 0.897700 0.820800 0.204300
H93 H 0.019900 0.291900 0.702400
H94 H -0.080400 0.289500 0.767300
H95 H -0.082700 0.386400 0.701700
H96 H 0.760200 0.873700 0.098900
H97 H 0.011000 0.545400 0.865500
H98 H -0.089200 0.537500 0.800700
H99 H -0.084600 0.444200 0.868700
H100 H 0.584600 0.944200 0.868700
H101 H 0.589200 1.037500 0.800700
H102 H 0.489000 1.045400 0.865500
H103 H 0.582700 0.886400 0.701700
H104 H 0.260200 0.873700 0.401100
H105 H 0.580400 0.789500 0.767300
H106 H 0.397700 0.820800 0.295700
H107 H 0.480100 0.791900 0.702400
H108 H 0.423400 1.036800 0.699800
H109 H 0.214300 0.520400 0.517600
H110 H 0.095000 0.567100 0.555600
H111 H 0.101800 0.545400 0.464400
H112 H 0.322300 0.941400 0.706900
H113 H 0.328000 0.679100 0.573200
H114 H 0.288800 0.809600 0.558600
H115 H 0.211900 0.728600 0.613900
H116 H 0.330500 1.042900 0.769200
H117 H 0.039800 0.752100 0.440600
H118 H 0.030200 0.767200 0.532200
H119 H 0.111000 0.852800 0.482900
H120 H 0.111000 0.647200 0.982900
H121 H 0.030200 0.732800 1.032200
H122 H 0.330500 0.457100 0.269200
H123 H 0.322300 0.558600 0.206900
H124 H 0.423400 0.463200 0.199800
H125 H 0.039800 0.747900 0.940600
H126 H 0.480100 0.708100 0.202400
H127 H 0.580400 0.710500 0.267300
H128 H 0.582700 0.613600 0.201700
H129 H 0.211900 0.771400 1.113900
H130 H 0.489000 0.454600 0.365500
H131 H 0.589200 0.462500 0.300700
H132 H 0.584600 0.555800 0.368700
H133 H 0.288800 0.690400 1.058600
H134 H 0.328000 0.820900 1.073200
H135 H 0.101800 0.954600 0.964400
H136 H 0.095000 0.932900 1.055600
H137 H 0.760200 0.626300 0.598900
H138 H 0.214300 0.979600 1.017600
H139 H 0.897700 0.679200 0.704300
H140 H 0.397700 0.679200 0.795700
H141 H 0.260200 0.626300 0.901100
H142 H 0.714300 0.979600 0.482400
H143 H 0.595000 0.932900 0.444400
H144 H 0.601800 0.954600 0.535600
H145 H 1.084600 0.944200 0.631300
H146 H 0.828000 0.820900 0.426800
H147 H 0.788800 0.690400 0.441400
H148 H 0.711900 0.771400 0.386100
H149 H 1.089200 1.037500 0.699300
H150 H 0.539800 0.747900 0.559400
H151 H 0.530200 0.732800 0.467800
H152 H 0.611000 0.647200 0.517100
H153 H 0.989000 1.045400 0.634500
H154 H 1.082700 0.886400 0.798300
H155 H 0.830500 1.042900 0.730800
H156 H 0.822300 0.941400 0.793100
H157 H 0.923400 1.036800 0.800200
H158 H 1.080400 0.789500 0.732700
H159 H 0.980100 0.791900 0.797600
H160 H 0.410800 0.537500 0.699300
C161 C 0.876110 0.991190 0.764080
C162 C 1.037060 0.992830 0.665570
C163 C 0.957160 0.917430 0.714520
C164 C 0.582780 0.726600 0.512460
C165 C 0.760480 0.769110 0.432910
C166 C 0.180610 0.104840 0.397300
C167 C 0.319390 0.895160 0.897300
C168 C 0.462940 0.492830 0.665570
C169 C 0.289020 0.701090 0.889490
C170 C 0.646000 0.929250 0.490010
C171 C 0.363790 0.729810 0.832630
C172 C 0.687380 0.807140 0.501750
C173 C 0.187380 0.807140 0.998250
C174 C 0.146000 0.929250 1.009990
C175 C 0.863790 0.729810 0.667370
C176 C 0.789020 0.701090 0.610510
C177 C 0.210980 0.298910 0.389490
C178 C 0.260480 0.769110 1.067090
C179 C 0.819390 0.895160 0.602700
C180 C 0.136210 0.270190 0.332630
C181 C 0.537060 0.507170 0.334430
C182 C 0.082780 0.726600 0.987540
C183 C 0.531750 0.660660 0.234710
C184 C 0.376110 0.508810 0.235920
C185 C 0.457160 0.582570 0.285480
C186 C 0.457160 0.917430 0.785480
C187 C 0.376110 0.991190 0.735920
C188 C 0.082780 0.773400 0.487540
C189 C 0.260480 0.730890 0.567090
C190 C 0.146000 0.570750 0.509990
C191 C 0.531750 0.839340 0.734710
C192 C 0.187380 0.692860 0.498250
C193 C 0.363790 0.770190 0.332630
C194 C 0.289020 0.798910 0.389490
C195 C 0.537060 0.992830 0.834430
C196 C 0.468250 0.339340 0.765290
C197 C 0.319390 0.604840 0.397300
C198 C 0.312620 0.192860 0.498250
C199 C 0.354000 0.070750 0.509990
C200 C 0.819390 0.604840 0.102700
C201 C 0.239520 0.230890 0.567090
C202 C 0.789020 0.798910 0.110510
C203 C -0.037060 0.492830 0.834430
C204 C 0.863790 0.770190 0.167370
C205 C -0.031750 0.339340 0.734710
C206 C 0.687380 0.692860 0.001750
C207 C 0.646000 0.570750 -0.009990
C208 C 0.123890 0.491190 0.735920
C209 C 0.042840 0.417430 0.785480
C210 C 0.417220 0.226600 0.987540
C211 C 0.760480 0.730890 -0.067090
C212 C 0.239520 0.269110 1.067090
C213 C 0.354000 0.429250 1.009990
C214 C 0.312620 0.307140 0.998250
C215 C 0.582780 0.773400 0.012460
C216 C 0.136210 0.229810 0.832630
C217 C 0.210980 0.201090 0.889490
C218 C 0.623890 0.491190 0.764080
C219 C 0.957160 0.582570 0.214520
C220 C 0.876110 0.508810 0.264080
C221 C 0.180610 0.395160 0.897300
C222 C 0.542840 0.417430 0.714520
C223 C 0.462940 0.007170 0.165570
C224 C 1.031750 0.660660 0.265290
C225 C 0.468250 0.160660 0.265290
C226 C 0.623890 0.008810 0.264080
C227 C 0.542840 0.082570 0.214520
C228 C 1.037060 0.507170 0.165570
C229 C 0.917220 0.273400 0.012460
C230 C 0.739520 0.230890 -0.067090
C231 C 0.854000 0.070750 -0.009990
C232 C 0.417220 0.273400 0.487540
C233 C 0.680610 0.395160 0.602700
C234 C 0.042840 0.082570 0.285480
C235 C 0.710980 0.201090 0.610510
C236 C 0.812620 0.192860 0.001750
C237 C 0.636210 0.229810 0.667370
C238 C 0.636210 0.270190 0.167370
C239 C 0.812620 0.307140 0.501750
C240 C 0.854000 0.429250 0.490010
C241 C 0.710980 0.298910 0.110510
C242 C 0.123890 0.008810 0.235920
C243 C 0.680610 0.104840 0.102700
C244 C 0.739520 0.269110 0.432910
C245 C 0.917220 0.226600 0.512460
C246 C -0.037060 0.007170 0.334430
C247 C -0.031750 0.160660 0.234710
C248 C 1.031750 0.839340 0.765290
N249 N 0.618020 0.152990 0.161840
N250 N 0.618020 0.347010 0.661840
N251 N 0.737530 0.302020 0.572210
N252 N 0.237530 0.302020 0.927790
N253 N 0.118020 0.347010 0.838160
N254 N 0.881980 0.652990 0.161840
N255 N 0.762470 0.697980 0.072210
N256 N 0.262470 0.697980 0.427790
N257 N 0.381980 0.652990 0.338160
N258 N 0.762470 0.802020 0.572210
N259 N 0.881980 0.847010 0.661840
N260 N 0.118020 0.152990 0.338160
N261 N 0.381980 0.847010 0.838160
N262 N 0.262470 0.802020 0.927790
N263 N 0.737530 0.197980 0.072210
N264 N 0.237530 0.197980 0.427790

#END
