./LIBNAN_from_POSCAR.cif_generated_by_CrystalShift
_symmetry_cell_setting triclinic
_symmetry_space_group_name_H-M 'P 1'
loop_
_symmetry_equiv_pos_site_id
_symmetry_equiv_pos_as_xyz
1 x,y,z
_cell_length_a 11.398000
_cell_length_b 12.638000
_cell_length_c 20.547000
_cell_angle_alpha 107.151000
_cell_angle_beta 96.768000
_cell_angle_gamma 103.674000
_cell_volume 2691.319067
loop_
_atom_site_label
_atom_site_type_symbol
_atom_site_fract_x
_atom_site_fract_y
_atom_site_fract_z
H1 H 0.469300 0.922200 0.446000
H2 H 0.177600 0.949800 0.335200
H3 H 0.057700 0.788900 0.349500
H4 H 0.144900 0.696900 0.416800
H5 H 0.424000 0.909300 0.193700
H6 H 0.127200 0.359000 0.368700
H7 H 0.574600 1.076100 0.253400
H8 H 0.111100 0.176600 0.293600
H9 H 0.605100 1.229700 0.210800
H10 H 0.286200 0.121200 0.275900
H11 H 0.480500 1.217500 0.112800
H12 H 0.477300 0.242900 0.333700
H13 H 0.494200 0.426900 0.406500
H14 H -0.002700 0.349200 0.498100
H15 H -0.054300 0.149700 0.462200
H16 H 0.099900 0.059500 0.460700
H17 H -0.027000 0.758100 -0.117400
H18 H 0.302000 0.166900 0.499000
H19 H 0.024300 0.723900 -0.004700
H20 H 0.352900 0.364900 0.534300
H21 H 0.145500 1.084300 0.622200
H22 H 0.160300 1.275200 0.666100
H23 H 0.344200 1.408800 0.726000
H24 H 0.347500 0.516500 0.089300
H25 H 0.512900 1.346000 0.740700
H26 H 0.358600 0.373000 0.135000
H27 H 0.502300 1.155600 0.700000
H28 H 0.287400 0.375300 0.235500
H29 H 0.458300 0.784900 0.503700
H30 H 0.196300 0.509500 0.286000
H31 H 0.430400 0.622400 0.393000
H32 H 0.180000 0.651100 0.238500
H33 H 0.104500 0.434600 0.634500
H34 H 0.056800 0.535100 0.733200
H35 H 0.485900 1.128400 -0.024600
H36 H 0.088900 0.730900 0.763200
H37 H 0.529500 1.287700 -0.062300
H38 H 0.184500 0.829300 0.697500
H39 H 0.384400 1.386100 -0.066500
H40 H 0.530700 0.077800 0.554000
H41 H 0.206000 1.334400 -0.030400
H42 H 0.617200 -0.012000 0.620000
H43 H 0.166500 1.182500 0.012900
H44 H 0.822400 0.050200 0.664800
H45 H 0.942300 0.211100 0.650500
H46 H 0.255700 0.978000 -0.149600
H47 H 0.855100 0.303100 0.583200
H48 H 0.228800 1.084500 -0.222300
H49 H 0.872800 0.641000 0.631300
H50 H 0.047600 1.136100 -0.235400
H51 H 0.888900 0.823400 0.706400
H52 H -0.103600 1.082200 -0.178100
H53 H 0.713800 0.878800 0.724100
H54 H -0.076800 0.975500 -0.106800
H55 H 0.522700 0.757100 0.666300
H56 H 0.505800 0.573100 0.593500
H57 H 0.283000 0.724200 -0.086200
H58 H 1.002700 0.650800 0.501900
H59 H 0.334100 0.562100 -0.148700
H60 H 1.054300 0.850300 0.537800
H61 H 0.204800 0.380000 -0.169600
H62 H 0.900100 0.940500 0.539300
H63 H 0.029500 0.360500 -0.124400
H64 H 0.698000 0.833100 0.501000
H65 H -0.020700 0.520600 -0.060200
H66 H 0.647100 0.635100 0.465700
H67 H 0.854500 -0.084300 0.377800
H68 H 0.839700 -0.275200 0.333900
H69 H 0.655800 -0.408800 0.274000
H70 H 0.576000 0.090700 0.806300
H71 H 0.487100 -0.346000 0.259300
H72 H 0.425400 -0.076100 0.746600
H73 H 0.497700 -0.155600 0.300000
H74 H 0.394900 -0.229700 0.789200
H75 H 0.541700 0.215100 0.496300
H76 H 0.519500 -0.217500 0.887200
H77 H 0.569600 0.377600 0.607000
H78 H 0.895500 0.565400 0.365500
H79 H 0.943200 0.464900 0.266800
H80 H 0.911100 0.269100 0.236800
H81 H 0.815500 0.170700 0.302500
H82 H 1.027000 0.241900 1.117400
H83 H 1.020700 0.479400 1.060200
H84 H 0.975700 0.276100 1.004700
H85 H 0.970500 0.639500 1.124400
H86 H 0.795200 0.620000 1.169600
H87 H 0.665900 0.437900 1.148700
H88 H 0.717000 0.275800 1.086200
H89 H 0.652500 0.483500 0.910700
H90 H 1.076800 0.024500 1.106800
H91 H 0.641400 0.627000 0.865000
H92 H 1.103600 -0.082200 1.178100
H93 H 0.712600 0.624700 0.764500
H94 H 0.952400 -0.136100 1.235400
H95 H 0.803700 0.490500 0.714000
H96 H 0.771200 -0.084500 1.222300
H97 H 0.820000 0.348900 0.761500
H98 H 0.744300 0.022000 1.149600
H99 H 0.833500 -0.182500 0.987100
H100 H 0.514100 -0.128400 1.024600
H101 H 0.794000 -0.334400 1.030400
H102 H 0.470500 -0.287700 1.062300
H103 H 0.615600 -0.386100 1.066500
H104 H 0.382800 1.012000 0.380000
C105 C 0.736500 -0.293600 1.028300
C106 C 0.544400 -0.265400 1.048200
C107 C 0.760900 -0.201900 1.002900
C108 C 0.570300 -0.171100 1.024500
C109 C 0.907400 0.031400 1.120000
C110 C 0.816500 0.000500 1.155100
C111 C 0.677000 -0.140300 1.001300
C112 C 0.832500 -0.062900 1.198700
C113 C 0.783700 0.405200 0.782600
C114 C 0.941100 -0.093400 1.206500
C115 C 0.773600 0.489200 0.754000
C116 C 1.031000 -0.061500 1.172500
C117 C 0.720300 0.568600 0.784200
C118 C 1.014500 0.001800 1.129500
C119 C 0.676400 0.569700 0.843800
C120 C 0.874000 0.360000 1.066700
C121 C 0.768700 0.349000 1.093500
C122 C 0.685000 0.485300 0.871400
C123 C 0.738200 0.446500 1.131500
C124 C 0.740100 0.404100 0.842500
C125 C 0.814400 0.554900 1.143500
C126 C 0.748900 0.314600 0.872200
C127 C 0.918900 0.566100 1.116700
C128 C 0.749500 0.242400 0.898200
C129 C 0.949400 0.470100 1.078300
C130 C 0.911600 0.255500 1.030400
C131 C 0.697500 0.309300 0.474100
C132 C 0.730700 0.248100 0.416200
C133 C 0.796300 0.308300 0.376600
C134 C 0.830900 0.250500 0.316100
C135 C 0.957500 0.203400 1.082200
C136 C 0.887200 0.309000 0.276400
C137 C 0.888800 0.097900 1.072200
C138 C 0.908100 0.426000 0.294900
C139 C 0.791000 0.060400 1.008700
C140 C 0.878200 0.485600 0.353500
C141 C 0.700000 -0.041600 0.974900
C142 C 0.821500 0.430900 0.397600
C143 C 0.788100 0.494000 0.459500
C144 C 0.727800 0.432200 0.497100
C145 C 0.675300 0.469400 0.559000
C146 C 0.613800 0.374800 0.571500
C147 C 0.623400 -0.050700 0.911500
C148 C 0.623900 0.264200 0.522400
C149 C 0.530500 -0.154000 0.872200
C150 C 0.704000 0.125900 0.394500
C151 C 0.688500 0.022900 0.373000
C152 C 0.676800 -0.097700 0.345600
C153 C 0.568000 -0.178700 0.308200
C154 C 0.457500 -0.161900 0.813200
C155 C 0.562500 -0.292600 0.283200
C156 C 0.475000 -0.069600 0.787700
C157 C 0.661200 -0.330700 0.291800
C158 C 0.564800 0.029400 0.823400
C159 C 0.769600 -0.250900 0.327400
C160 C 0.641800 0.042600 0.885700
C161 C 0.778600 -0.136700 0.353800
C162 C 0.735500 0.147100 0.923500
C163 C 0.819500 0.621800 0.481200
C164 C 0.729600 0.678100 0.480600
C165 C 0.807200 0.154200 0.983100
C166 C 0.759700 0.796500 0.501800
C167 C 0.050600 0.529900 -0.078300
C168 C 0.879900 0.860200 0.523900
C169 C 0.081100 0.433900 -0.116700
C170 C 0.972000 0.806700 0.523600
C171 C 0.185600 0.445100 -0.143500
C172 C 0.940700 0.687300 0.502100
C173 C 0.261800 0.553500 -0.131500
C174 C 0.688200 0.589100 0.604500
C175 C 0.583200 0.624000 0.615800
C176 C 0.231300 0.651000 -0.093500
C177 C 0.592900 0.733200 0.659800
C178 C 0.126000 0.640000 -0.066700
C179 C 0.706900 0.805700 0.693600
C180 C -0.014500 0.998200 -0.129500
C181 C 0.811800 0.772700 0.683300
C182 C -0.031000 1.061500 -0.172500
C183 C 0.802100 0.663700 0.638400
C184 C 0.058900 1.093400 -0.206500
C185 C 0.683700 0.200800 0.561600
C186 C 0.805800 0.239000 0.590300
C187 C 0.167500 1.062900 -0.198700
C188 C 0.858700 0.183400 0.630400
C189 C 0.183500 0.999500 -0.155100
C190 C 0.787400 0.089000 0.639600
C191 C 0.092600 0.968600 -0.120000
C192 C 0.666300 0.051400 0.612300
C193 C 0.239100 1.201900 -0.002900
C194 C 0.614600 0.105800 0.573200
C195 C 0.263500 1.293600 -0.028300
C196 C 0.302500 0.690700 0.525900
C197 C 0.269300 0.751900 0.583800
C198 C 0.203700 0.691700 0.623400
C199 C 0.169100 0.749500 0.683900
C200 C 0.369600 1.324000 -0.050000
C201 C 0.112800 0.691000 0.723600
C202 C 0.455600 1.265400 -0.048200
C203 C 0.091900 0.574000 0.705100
C204 C 0.429700 1.171100 -0.024500
C205 C 0.121800 0.514400 0.646500
C206 C 0.323000 1.140300 -0.001300
C207 C 0.178500 0.569100 0.602400
C208 C 0.211900 0.506000 0.540500
C209 C 0.272200 0.567800 0.502900
C210 C 0.324700 0.530600 0.441000
C211 C 0.386200 0.625200 0.428500
C212 C 0.216300 0.594800 0.217400
C213 C 0.376100 0.735800 0.477600
C214 C 0.226400 0.510800 0.246000
C215 C 0.296000 0.874100 0.605500
C216 C 0.311500 0.977100 0.627000
C217 C 0.323200 1.097700 0.654400
C218 C 0.432000 1.178700 0.691800
C219 C 0.279700 0.431400 0.215800
C220 C 0.437500 1.292600 0.716800
C221 C 0.323600 0.430300 0.156200
C222 C 0.338800 1.330700 0.708200
C223 C 0.315000 0.514700 0.128600
C224 C 0.230400 1.250900 0.672600
C225 C 0.259900 0.595900 0.157500
C226 C 0.221400 1.136700 0.646200
C227 C 0.251100 0.685400 0.127800
C228 C 0.180500 0.378200 0.518800
C229 C 0.270400 0.321900 0.519400
C230 C 0.250500 0.757600 0.101800
C231 C 0.240300 0.203500 0.498200
C232 C 0.088400 0.744500 -0.030400
C233 C 0.120100 0.139800 0.476100
C234 C 0.042500 0.796600 -0.082200
C235 C 0.028000 0.193300 0.476400
C236 C 0.111200 0.902100 -0.072200
C237 C 0.059300 0.312700 0.497900
C238 C 0.209000 0.939600 -0.008700
C239 C 0.311800 0.410900 0.395500
C240 C 0.416800 0.376000 0.384200
C241 C 0.300000 1.041600 0.025100
C242 C 0.407100 0.266800 0.340200
C243 C 0.376600 1.050700 0.088500
C244 C 0.293100 0.194300 0.306400
C245 C 0.469500 1.154000 0.127800
C246 C 0.188200 0.227300 0.316700
C247 C 0.542500 1.161900 0.186800
C248 C 0.197900 0.336300 0.361600
C249 C 0.525000 1.069600 0.212300
C250 C 0.316300 0.799200 0.438400
C251 C 0.194200 0.761000 0.409700
C252 C 0.435200 0.970600 0.176600
C253 C 0.141300 0.816600 0.369600
C254 C 0.358200 0.957400 0.114300
C255 C 0.212600 0.911000 0.360400
C256 C 0.264500 0.852900 0.076500
C257 C 0.333700 0.948600 0.387700
C258 C 0.630400 -0.324000 1.050000
C259 C 0.385400 0.894200 0.426800
C260 C 0.192800 0.845800 0.016900

#END
