
#######################################################################
#
#                 Cambridge Crystallographic Data Centre
#                                CCDC 
#
#######################################################################
#
# If this CIF has been generated from an entry in the Cambridge 
# Structural Database, then it will include bibliographic, chemical, 
# crystal, experimental, refinement or atomic coordinate data resulting 
# from the CCDC's data processing and validation procedures.
#
#######################################################################

data_LIBZUS
_symmetry_cell_setting           triclinic
_symmetry_space_group_name_H-M   'P -1'
_symmetry_Int_Tables_number      2
_space_group_name_Hall           '-P 1'
loop_
_symmetry_equiv_pos_site_id
_symmetry_equiv_pos_as_xyz
1 x,y,z
2 -x,-y,-z
_cell_length_a                   7.09130(10)
_cell_length_b                   10.54350(10)
_cell_length_c                   11.28080(10)
_cell_angle_alpha                79.5500(10)
_cell_angle_beta                 86.6800(10)
_cell_angle_gamma                79.7370(10)
_cell_volume                     815.887
loop_
_atom_site_label
_atom_site_type_symbol
_atom_site_fract_x
_atom_site_fract_y
_atom_site_fract_z
O1 O 0.41352(9) 0.75927(6) 0.75540(6)
O2 O 0.09286(10) 0.79122(7) 0.74184(6)
O3 O 0.17552(11) 0.43053(7) 1.29997(6)
O4 O 0.19806(11) 0.89083(6) 0.99306(6)
N1 N 0.24201(10) 0.44546(7) 1.03308(6)
C1 C 0.24795(12) 0.31201(8) 1.07331(8)
H1 H 0.2247 0.2803 1.1543
C2 C 0.28782(13) 0.22918(8) 0.99338(8)
H2 H 0.2932 0.1399 1.0204
C3 C 0.32215(12) 0.27594(8) 0.86759(8)
C4 C 0.36546(13) 0.18835(9) 0.78525(8)
H3 H 0.3752 0.0988 0.8126
C5 C 0.39345(14) 0.23508(9) 0.66405(8)
H4 H 0.4221 0.1767 0.6102
C6 C 0.37890(14) 0.37010(9) 0.62164(8)
H5 H 0.3971 0.4007 0.5399
C7 C 0.33762(13) 0.45779(8) 0.70086(8)
H6 H 0.3285 0.5471 0.6722
C8 C 0.30928(12) 0.41209(8) 0.82520(7)
C9 C 0.26685(12) 0.49918(8) 0.91175(7)
C10 C 0.24443(12) 0.63503(8) 0.90328(7)
C11 C 0.20917(12) 0.66228(8) 1.02069(7)
C12 C 0.18228(12) 0.78886(8) 1.06206(7)
C13 C 0.13789(12) 0.78356(8) 1.19364(7)
C14 C 0.09389(13) 0.90051(8) 1.23892(8)
H7 H 0.0899 0.9801 1.1869
C15 C 0.05599(13) 0.89813(9) 1.36174(8)
H8 H 0.0270 0.9763 1.3914
C16 C 0.06134(13) 0.77918(9) 1.44050(8)
H9 H 0.0381 0.7779 1.5227
C17 C 0.10168(13) 0.66215(9) 1.39566(8)
H10 H 0.1035 0.5829 1.4480
C18 C 0.13925(12) 0.66312(8) 1.27281(7)
C19 C 0.17588(12) 0.53431(8) 1.22967(7)
C20 C 0.20749(12) 0.54474(8) 1.10029(7)
C21 C 0.23822(12) 0.73651(8) 0.79232(7)
C22 C 0.42074(13) 0.86031(9) 0.64970(8)
H11 H 0.3328 0.9395 0.6602
H12 H 0.3855 0.8310 0.5786
C23 C 0.62385(13) 0.88583(9) 0.63636(9)
H13 H 0.6368 0.9489 0.5648
H14 H 0.7098 0.8057 0.6305
H15 H 0.6545 0.9191 0.7053
O1 O 0.58648(9) 0.24073(6) 0.24460(6)
O2 O 0.90714(10) 0.20878(7) 0.25816(6)
O3 O 0.82448(11) 0.56947(7) -0.29997(6)
O4 O 0.80194(11) 0.10917(6) 0.00694(6)
N1 N 0.75799(10) 0.55454(7) -0.03308(6)
C1 C 0.75205(12) 0.68799(8) -0.07331(8)
H1 H 0.7753 0.7197 -0.1543
C2 C 0.71218(13) 0.77082(8) 0.00662(8)
H2 H 0.7068 0.8601 -0.0204
C3 C 0.67785(12) 0.72406(8) 0.13241(8)
C4 C 0.63454(13) 0.81165(9) 0.21475(8)
H3 H 0.6248 0.9012 0.1874
C5 C 0.60655(14) 0.76492(9) 0.33595(8)
H4 H 0.5779 0.8233 0.3898
C6 C 0.62110(14) 0.62990(9) 0.37836(8)
H5 H 0.6029 0.5993 0.4601
C7 C 0.66238(13) 0.54221(8) 0.29914(8)
H6 H 0.6715 0.4529 0.3278
C8 C 0.69072(12) 0.58791(8) 0.17480(7)
C9 C 0.73315(12) 0.50082(8) 0.08825(7)
C10 C 0.75557(12) 0.36497(8) 0.09672(7)
C11 C 0.79083(12) 0.33772(8) -0.02069(7)
C12 C 0.81772(12) 0.21114(8) -0.06206(7)
C13 C 0.86211(12) 0.21644(8) -0.19364(7)
C14 C 0.90611(13) 0.09949(8) -0.23892(8)
H7 H 0.9101 0.0199 -0.1869
C15 C 0.94401(13) 0.10187(9) -0.36174(8)
H8 H 0.9730 0.0237 -0.3914
C16 C 0.93866(13) 0.22082(9) -0.44050(8)
H9 H 0.9619 0.2221 -0.5227
C17 C 0.89832(13) 0.33785(9) -0.39566(8)
H10 H 0.8965 0.4171 -0.4480
C18 C 0.86075(12) 0.33688(8) -0.27281(7)
C19 C 0.82412(12) 0.46569(8) -0.22967(7)
C20 C 0.79251(12) 0.45526(8) -0.10029(7)
C21 C 0.76178(12) 0.26349(8) 0.20768(7)
C22 C 0.57926(13) 0.13969(9) 0.35030(8)
H11 H 0.6672 0.0605 0.3398
H12 H 0.6145 0.1690 0.4214
C23 C 0.37615(13) 0.11417(9) 0.36364(9)
H13 H 0.3632 0.0511 0.4352
H14 H 0.2902 0.1943 0.3695
H15 H 0.3455 0.0809 0.2947

#END
