./LICBII_from_POSCAR.cif_generated_by_CrystalShift
_symmetry_cell_setting triclinic
_symmetry_space_group_name_H-M 'P 1'
loop_
_symmetry_equiv_pos_site_id
_symmetry_equiv_pos_as_xyz
1 x,y,z
_cell_length_a 24.215000
_cell_length_b 8.967000
_cell_length_c 15.006000
_cell_angle_alpha 90.000000
_cell_angle_beta 115.570000
_cell_angle_gamma 90.000000
_cell_volume 2939.215011
loop_
_atom_site_label
_atom_site_type_symbol
_atom_site_fract_x
_atom_site_fract_y
_atom_site_fract_z
H1 H 0.578000 0.661000 0.651000
H2 H 0.493000 1.055000 0.605000
H3 H 0.571000 1.140000 0.751000
H4 H 0.647000 0.980000 0.851000
H5 H 0.749000 0.932000 0.818000
H6 H 0.719000 0.849000 0.722000
H7 H 0.830000 0.889000 0.766000
H8 H 0.807000 0.715000 0.743000
H9 H 0.857000 0.869000 0.934000
H10 H 0.897000 0.757000 0.897000
H11 H 0.865000 0.611000 0.991000
H12 H 0.854000 0.537000 0.897000
H13 H 0.723000 0.310000 1.035000
H14 H 0.621000 0.262000 1.004000
H15 H 0.564000 0.614000 0.824000
H16 H 0.422000 0.661000 0.849000
H17 H 0.498000 0.805000 0.947000
H18 H 0.507000 1.055000 0.895000
H19 H 0.429000 1.140000 0.749000
H20 H 0.353000 0.980000 0.649000
H21 H 0.251000 0.932000 0.682000
H22 H 0.064000 0.886000 0.324000
H23 H 0.121000 1.238000 0.504000
H24 H 0.223000 1.190000 0.535000
H25 H 0.354000 0.963000 0.397000
H26 H 0.365000 0.889000 0.491000
H27 H 0.397000 0.743000 0.397000
H28 H 0.357000 0.631000 0.434000
H29 H 0.307000 0.785000 0.243000
H30 H 0.330000 0.611000 0.266000
H31 H 0.219000 0.651000 0.222000
H32 H 0.249000 0.568000 0.318000
H33 H 0.147000 0.520000 0.351000
H34 H 0.071000 0.360000 0.251000
H35 H -0.007000 0.445000 0.105000
H36 H 0.002000 0.695000 0.053000
H37 H 0.078000 0.839000 0.151000
H38 H 0.281000 0.849000 0.778000
H39 H 0.170000 0.889000 0.734000
H40 H 0.193000 0.715000 0.757000
H41 H 0.143000 0.869000 0.566000
H42 H 0.103000 0.757000 0.603000
H43 H 0.135000 0.611000 0.509000
H44 H 0.146000 0.537000 0.603000
H45 H 0.277000 0.310000 0.465000
H46 H 0.379000 0.262000 0.496000
H47 H 0.436000 0.614000 0.676000
H48 H 0.078000 0.161000 0.651000
H49 H 0.002000 0.305000 0.553000
H50 H -0.007000 0.555000 0.605000
H51 H 0.071000 0.640000 0.751000
H52 H 0.147000 0.480000 0.851000
H53 H 0.249000 0.432000 0.818000
H54 H 0.219000 0.349000 0.722000
H55 H 0.330000 0.389000 0.766000
H56 H 0.307000 0.215000 0.743000
H57 H 0.357000 0.369000 0.934000
H58 H 0.397000 0.257000 0.897000
H59 H 0.936000 0.886000 0.176000
H60 H 0.879000 1.238000 -0.004000
H61 H 0.777000 1.190000 -0.035000
H62 H 0.646000 0.963000 0.103000
H63 H 0.635000 0.889000 0.009000
H64 H 0.603000 0.743000 0.103000
H65 H 0.643000 0.631000 0.066000
H66 H 0.693000 0.785000 0.257000
H67 H 0.670000 0.611000 0.234000
H68 H 0.781000 0.651000 0.278000
H69 H 0.751000 0.568000 0.182000
H70 H 0.853000 0.520000 0.149000
H71 H 0.929000 0.360000 0.249000
H72 H 1.007000 0.445000 0.395000
H73 H 0.998000 0.695000 0.447000
H74 H 0.922000 0.839000 0.349000
H75 H 0.365000 0.111000 0.991000
H76 H 0.354000 0.037000 0.897000
H77 H 0.223000 -0.190000 1.035000
H78 H 0.121000 -0.238000 1.004000
H79 H 0.064000 0.114000 0.824000
H80 H 0.922000 0.161000 0.849000
H81 H 0.998000 0.305000 0.947000
H82 H 1.007000 0.555000 0.895000
H83 H 0.929000 0.640000 0.749000
H84 H 0.853000 0.480000 0.649000
H85 H 0.751000 0.432000 0.682000
H86 H 0.781000 0.349000 0.778000
H87 H 0.670000 0.389000 0.734000
H88 H 0.693000 0.215000 0.757000
H89 H 0.643000 0.369000 0.566000
H90 H 0.603000 0.257000 0.603000
H91 H 0.635000 0.111000 0.509000
H92 H 0.646000 0.037000 0.603000
H93 H 0.777000 -0.190000 0.465000
H94 H 0.879000 -0.238000 0.496000
H95 H 0.936000 0.114000 0.676000
H96 H 0.564000 0.386000 0.324000
H97 H 0.621000 0.738000 0.504000
H98 H 0.723000 0.690000 0.535000
H99 H 0.854000 0.463000 0.397000
H100 H 0.865000 0.389000 0.491000
H101 H 0.897000 0.243000 0.397000
H102 H 0.857000 0.131000 0.434000
H103 H 0.807000 0.285000 0.243000
H104 H 0.830000 0.111000 0.266000
H105 H 0.719000 0.151000 0.222000
H106 H 0.749000 0.068000 0.318000
H107 H 0.647000 0.020000 0.351000
H108 H 0.571000 -0.140000 0.251000
H109 H 0.493000 -0.055000 0.105000
H110 H 0.502000 0.195000 0.053000
H111 H 0.578000 0.339000 0.151000
H112 H 0.422000 0.339000 0.349000
H113 H 0.498000 0.195000 0.447000
H114 H 0.507000 -0.055000 0.395000
H115 H 0.429000 -0.140000 0.249000
H116 H 0.353000 0.020000 0.149000
H117 H 0.251000 0.068000 0.182000
H118 H 0.281000 0.151000 0.278000
H119 H 0.170000 0.111000 0.234000
H120 H 0.193000 0.285000 0.257000
H121 H 0.143000 0.131000 0.066000
H122 H 0.103000 0.243000 0.103000
H123 H 0.135000 0.389000 0.009000
H124 H 0.146000 0.463000 0.103000
H125 H 0.277000 0.690000 -0.035000
H126 H 0.379000 0.738000 -0.004000
H127 H 0.436000 0.386000 0.176000
H128 H 0.502000 0.805000 0.553000
C129 C 0.428700 -0.039100 0.265800
C130 C 0.472600 0.011400 0.354100
C131 C 0.469300 0.152900 0.384400
C132 C 0.421900 0.246200 0.326300
C133 C 0.377600 0.197000 0.236300
C134 C 0.250700 0.167600 0.210800
C135 C 0.189900 0.196200 0.213200
C136 C 0.141700 0.230500 0.109800
C137 C 0.158100 0.372000 0.072700
C138 C 0.223800 0.382100 0.089200
C139 C 0.268600 0.283900 0.156500
C140 C 0.328700 0.299100 0.170800
C141 C 0.343900 0.416100 0.121300
C142 C 0.296200 0.507600 0.056800
C143 C 0.309900 0.626400 0.007800
C144 C 0.368600 0.656100 0.024800
C145 C 0.415400 0.564600 0.089000
C146 C 0.404600 0.447100 0.135500
C147 C 0.095400 0.947100 0.364500
C148 C 0.084600 1.064600 0.411000
C149 C 0.131400 1.156100 0.475200
C150 C 0.190100 1.126400 0.492200
C151 C 0.904600 0.052900 0.635500
C152 C 0.915400 -0.064600 0.589000
C153 C 0.868600 -0.156100 0.524800
C154 C 0.809900 -0.126400 0.507800
C155 C 0.796200 -0.007600 0.556800
C156 C 0.843900 0.083900 0.621300
C157 C 0.828700 0.200900 0.670800
C158 C 0.768600 0.216100 0.656500
C159 C 0.723800 0.117900 0.589200
C160 C 0.658100 0.128000 0.572700
C161 C 0.641700 0.269500 0.609800
C162 C 0.689900 0.303800 0.713200
C163 C 0.750700 0.332400 0.710800
C164 C 0.877600 0.303000 0.736300
C165 C 0.881400 0.447800 0.707400
C166 C 0.928700 0.539100 0.765800
C167 C 0.972600 0.488600 0.854100
C168 C 0.969300 0.347100 0.884400
C169 C 0.921900 0.253800 0.826300
C170 C 0.578100 0.246200 0.173700
C171 C 0.530700 0.152900 0.115600
C172 C 0.527400 0.011400 0.145900
C173 C 0.571300 -0.039100 0.234200
C174 C 0.618600 0.052200 0.292600
C175 C 0.622400 0.197000 0.263700
C176 C 0.749300 0.167600 0.289200
C177 C 0.810100 0.196200 0.286800
C178 C 0.858300 0.230500 0.390200
C179 C 0.841900 0.372000 0.427300
C180 C 0.776200 0.382100 0.410800
C181 C 0.731400 0.283900 0.343500
C182 C 0.671300 0.299100 0.329200
C183 C 0.656100 0.416100 0.378700
C184 C 0.703800 0.507600 0.443200
C185 C 0.690100 0.626400 0.492200
C186 C 0.203800 1.007600 0.443200
C187 C 0.156100 0.916100 0.378700
C188 C 0.095400 0.052900 0.864500
C189 C 0.084600 -0.064600 0.911000
C190 C 0.131400 -0.156100 0.975200
C191 C 0.190100 -0.126400 0.992200
C192 C 0.203800 -0.007600 0.943200
C193 C 0.156100 0.083900 0.878700
C194 C 0.171300 0.200900 0.829200
C195 C 0.231400 0.216100 0.843500
C196 C 0.276200 0.117900 0.910800
C197 C 0.341900 0.128000 0.927300
C198 C 0.358300 0.269500 0.890200
C199 C 0.310100 0.303800 0.786800
C200 C 0.249300 0.332400 0.789200
C201 C 0.122400 0.303000 0.763700
C202 C 0.118600 0.447800 0.792600
C203 C 0.071300 0.539100 0.734200
C204 C 0.027400 0.488600 0.645900
C205 C 0.030700 0.347100 0.615600
C206 C 0.078100 0.253800 0.673700
C207 C 0.631400 0.656100 0.475200
C208 C 0.584600 0.564600 0.411000
C209 C 0.595400 0.447100 0.364500
C210 C 0.171300 0.799100 0.329200
C211 C 0.231400 0.783900 0.343500
C212 C 0.921900 0.746200 0.326300
C213 C 0.969300 0.652900 0.384400
C214 C 0.972600 0.511400 0.354100
C215 C 0.928700 0.460900 0.265800
C216 C 0.881400 0.552200 0.207400
C217 C 0.877600 0.697000 0.236300
C218 C 0.750700 0.667600 0.210800
C219 C 0.689900 0.696200 0.213200
C220 C 0.641700 0.730500 0.109800
C221 C 0.658100 0.872000 0.072700
C222 C 0.723800 0.882100 0.089200
C223 C 0.276200 0.882100 0.410800
C224 C 0.341900 0.872000 0.427300
C225 C 0.404600 0.552900 0.635500
C226 C 0.415400 0.435400 0.589000
C227 C 0.368600 0.343900 0.524800
C228 C 0.309900 0.373600 0.507800
C229 C 0.296200 0.492400 0.556800
C230 C 0.343900 0.583900 0.621300
C231 C 0.328700 0.700900 0.670800
C232 C 0.268600 0.716100 0.656500
C233 C 0.223800 0.617900 0.589200
C234 C 0.158100 0.628000 0.572700
C235 C 0.141700 0.769500 0.609800
C236 C 0.189900 0.803800 0.713200
C237 C 0.250700 0.832400 0.710800
C238 C 0.377600 0.803000 0.736300
C239 C 0.381400 0.947800 0.707400
C240 C 0.428700 1.039100 0.765800
C241 C 0.472600 0.988600 0.854100
C242 C 0.469300 0.847100 0.884400
C243 C 0.421900 0.753800 0.826300
C244 C 0.768600 0.783900 0.156500
C245 C 0.828700 0.799100 0.170800
C246 C 0.843900 0.916100 0.121300
C247 C 0.796200 1.007600 0.056800
C248 C 0.809900 1.126400 0.007800
C249 C 0.868600 1.156100 0.024800
C250 C 0.915400 1.064600 0.089000
C251 C 0.904600 0.947100 0.135500
C252 C 0.358300 0.730500 0.390200
C253 C 0.310100 0.696200 0.286800
C254 C 0.078100 0.746200 0.173700
C255 C 0.030700 0.652900 0.115600
C256 C 0.027400 0.511400 0.145900
C257 C 0.071300 0.460900 0.234200
C258 C 0.118600 0.552200 0.292600
C259 C 0.122400 0.697000 0.263700
C260 C 0.249300 0.667600 0.289200
C261 C 0.578100 0.753800 0.673700
C262 C 0.595400 0.552900 0.864500
C263 C 0.584600 0.435400 0.911000
C264 C 0.631400 0.343900 0.975200
C265 C 0.690100 0.373600 0.992200
C266 C 0.703800 0.492400 0.943200
C267 C 0.656100 0.583900 0.878700
C268 C 0.671300 0.700900 0.829200
C269 C 0.731400 0.716100 0.843500
C270 C 0.776200 0.617900 0.910800
C271 C 0.841900 0.628000 0.927300
C272 C 0.858300 0.769500 0.890200
C273 C 0.810100 0.803800 0.786800
C274 C 0.749300 0.832400 0.789200
C275 C 0.622400 0.803000 0.763700
C276 C 0.618600 0.947800 0.792600
C277 C 0.571300 1.039100 0.734200
C278 C 0.527400 0.988600 0.645900
C279 C 0.530700 0.847100 0.615600
C280 C 0.381400 0.052200 0.207400
N281 N 0.263600 0.988700 0.459100
N282 N 0.236400 0.488700 0.040900
N283 N 0.736400 0.988700 0.040900
N284 N 0.236400 0.511300 0.540900
N285 N 0.736400 0.011300 0.540900
N286 N 0.263600 0.011300 0.959100
N287 N 0.763600 0.488700 0.459100
N288 N 0.763600 0.511300 0.959100
Cl289 Cl 0.490200 0.397200 0.608600
Cl290 Cl 0.990200 -0.102800 0.608600
Cl291 Cl 0.490200 0.602800 0.108600
Cl292 Cl 0.990200 1.102800 0.108600
Cl293 Cl 0.509800 0.397200 0.891400
Cl294 Cl 0.009800 -0.102800 0.891400
Cl295 Cl 0.509800 0.602800 0.391400
Cl296 Cl 0.009800 1.102800 0.391400

#END
