
#######################################################################
#
#                 Cambridge Crystallographic Data Centre
#                                CCDC 
#
#######################################################################
#
# If this CIF has been generated from an entry in the Cambridge 
# Structural Database, then it will include bibliographic, chemical, 
# crystal, experimental, refinement or atomic coordinate data resulting 
# from the CCDC's data processing and validation procedures.
#
#######################################################################

data_LICFOU
_symmetry_cell_setting           monoclinic
_symmetry_space_group_name_H-M   'P 21/c'
_symmetry_Int_Tables_number      14
_space_group_name_Hall           '-P 2ybc'
loop_
_symmetry_equiv_pos_site_id
_symmetry_equiv_pos_as_xyz
1 x,y,z
2 -x,1/2+y,1/2-z
3 -x,-y,-z
4 x,1/2-y,1/2+z
_cell_length_a                   19.9356(13)
_cell_length_b                   12.4389(8)
_cell_length_c                   9.5992(5)
_cell_angle_alpha                90
_cell_angle_beta                 90.524(2)
_cell_angle_gamma                90
_cell_volume                     2380.28
loop_
_atom_site_label
_atom_site_type_symbol
_atom_site_fract_x
_atom_site_fract_y
_atom_site_fract_z
C1 C 0.63420(18) 0.1196(3) 1.4112(4)
H1 H 0.6334 0.1067 1.5066
C2 C 0.58026(18) 0.1661(2) 1.3497(4)
H2 H 0.5433 0.1859 1.4023
C3 C 0.58076(16) 0.1841(2) 1.2070(4)
H3 H 0.5438 0.2162 1.1641
C4 C 0.63468(15) 0.1552(2) 1.1286(3)
H4 H 0.6335 0.1678 1.0331
C5 C 0.69224(14) 0.1067(2) 1.1887(3)
C6 C 0.74865(14) 0.0729(2) 1.1079(3)
C7 C 0.80175(15) 0.0246(3) 1.1777(4)
C8 C 0.80104(19) 0.0100(3) 1.3230(4)
H5 H 0.8379 -0.0211 1.3676
C9 C 0.74779(19) 0.0404(3) 1.3981(4)
H6 H 0.7479 0.0283 1.4937
C10 C 0.69190(16) 0.0900(2) 1.3354(3)
C11 C 0.74550(13) 0.0844(2) 0.9512(3)
H7 H 0.7253 0.1541 0.9287
C12 C 0.70290(13) -0.0038(2) 0.8842(3)
C13 C 0.71330(15) -0.1108(2) 0.9126(4)
H8 H 0.7464 -0.1297 0.9769
C14 C 0.67647(15) -0.1912(2) 0.8492(4)
H9 H 0.6850 -0.2630 0.8700
C15 C 0.62711(15) -0.1641(2) 0.7550(3)
C16 C 0.61551(16) -0.0574(2) 0.7250(4)
H10 H 0.5821 -0.0384 0.6613
C17 C 0.65346(15) 0.0215(2) 0.7896(3)
H11 H 0.6453 0.0933 0.7683
C18 C 0.82675(15) 0.1439(2) 0.7915(3)
H12 H 0.7944 0.1936 0.7641
C19 C 0.89097(14) 0.1433(2) 0.7187(3)
C20 C 0.90243(17) 0.2162(3) 0.6149(4)
H13 H 0.8689 0.2652 0.5918
C21 C 0.96221(17) 0.2195(3) 0.5432(4)
H14 H 0.9686 0.2699 0.4730
C22 C 1.01210(15) 0.1476(2) 0.5766(3)
C23 C 1.00162(15) 0.0744(2) 0.6812(4)
H15 H 1.0355 0.0264 0.7055
C24 C 0.94199(15) 0.0712(2) 0.7501(4)
H16 H 0.9355 0.0199 0.8191
C25 C 0.59309(17) -0.3471(2) 0.7162(4)
H17 H 0.5847 -0.3605 0.8141
H18 H 0.6380 -0.3717 0.6949
C26 C 0.5424(2) -0.4046(3) 0.6272(6)
H19 H 0.4988 -0.3742 0.6422
H20 H 0.5419 -0.4795 0.6514
H21 H 0.5541 -0.3969 0.5309
C27 C 1.08648(18) 0.2157(3) 0.4013(4)
H22 H 1.0840 0.2896 0.4334
H23 H 1.0537 0.2059 0.3270
C28 C 1.1553(2) 0.1916(3) 0.3496(5)
H24 H 1.1565 0.1196 0.3137
H25 H 1.1870 0.1984 0.4248
H26 H 1.1665 0.2413 0.2769
N1 N 0.81319(11) 0.08038(19) 0.8894(3)
O1 O 0.85716(11) -0.0137(2) 1.1122(3)
O2 O 0.58657(10) -0.23616(17) 0.6864(3)
O3 O 1.07300(10) 0.14374(18) 0.5133(3)
H27 H 0.8490(16) 0.010(3) 1.023(4)
C1 C 0.36580(18) 0.6196(3) 0.0888(4)
H1 H 0.3666 0.6067 -0.0066
C2 C 0.41974(18) 0.6661(2) 0.1503(4)
H2 H 0.4567 0.6859 0.0977
C3 C 0.41924(16) 0.6841(2) 0.2930(4)
H3 H 0.4562 0.7162 0.3359
C4 C 0.36532(15) 0.6552(2) 0.3714(3)
H4 H 0.3665 0.6678 0.4669
C5 C 0.30776(14) 0.6067(2) 0.3113(3)
C6 C 0.25135(14) 0.5729(2) 0.3921(3)
C7 C 0.19825(15) 0.5246(3) 0.3223(4)
C8 C 0.19896(19) 0.5100(3) 0.1770(4)
H5 H 0.1621 0.4789 0.1324
C9 C 0.25221(19) 0.5404(3) 0.1019(4)
H6 H 0.2521 0.5283 0.0063
C10 C 0.30810(16) 0.5900(2) 0.1646(3)
C11 C 0.25450(13) 0.5844(2) 0.5488(3)
H7 H 0.2747 0.6541 0.5713
C12 C 0.29710(13) 0.4962(2) 0.6158(3)
C13 C 0.28670(15) 0.3892(2) 0.5874(4)
H8 H 0.2536 0.3703 0.5231
C14 C 0.32353(15) 0.3088(2) 0.6508(4)
H9 H 0.3150 0.2370 0.6300
C15 C 0.37289(15) 0.3359(2) 0.7450(3)
C16 C 0.38449(16) 0.4426(2) 0.7750(4)
H10 H 0.4179 0.4616 0.8387
C17 C 0.34654(15) 0.5215(2) 0.7104(3)
H11 H 0.3547 0.5933 0.7317
C18 C 0.17325(15) 0.6439(2) 0.7085(3)
H12 H 0.2056 0.6936 0.7359
C19 C 0.10903(14) 0.6433(2) 0.7813(3)
C20 C 0.09757(17) 0.7162(3) 0.8851(4)
H13 H 0.1311 0.7652 0.9082
C21 C 0.03779(17) 0.7195(3) 0.9568(4)
H14 H 0.0314 0.7699 1.0270
C22 C -0.01210(15) 0.6476(2) 0.9234(3)
C23 C -0.00162(15) 0.5744(2) 0.8188(4)
H15 H -0.0355 0.5264 0.7945
C24 C 0.05801(15) 0.5712(2) 0.7499(4)
H16 H 0.0645 0.5199 0.6809
C25 C 0.40691(17) 0.1529(2) 0.7838(4)
H17 H 0.4153 0.1395 0.6859
H18 H 0.3620 0.1283 0.8051
C26 C 0.4576(2) 0.0954(3) 0.8728(6)
H19 H 0.5012 0.1258 0.8578
H20 H 0.4581 0.0205 0.8486
H21 H 0.4459 0.1031 0.9691
C27 C -0.08648(18) 0.7157(3) 1.0987(4)
H22 H -0.0840 0.7896 1.0666
H23 H -0.0537 0.7059 1.1730
C28 C -0.1553(2) 0.6916(3) 1.1504(5)
H24 H -0.1565 0.6196 1.1863
H25 H -0.1870 0.6984 1.0752
H26 H -0.1665 0.7413 1.2231
N1 N 0.18681(11) 0.58038(19) 0.6106(3)
O1 O 0.14284(11) 0.4863(2) 0.3878(3)
O2 O 0.41343(10) 0.26384(17) 0.8136(3)
O3 O -0.07300(10) 0.64374(18) 0.9867(3)
H27 H 0.1510(16) 0.510(3) 0.477(4)
C1 C 0.36580(18) 0.8804(3) -0.4112(4)
H1 H 0.3666 0.8933 -0.5066
C2 C 0.41974(18) 0.8339(2) -0.3497(4)
H2 H 0.4567 0.8141 -0.4023
C3 C 0.41924(16) 0.8159(2) -0.2070(4)
H3 H 0.4562 0.7838 -0.1641
C4 C 0.36532(15) 0.8448(2) -0.1286(3)
H4 H 0.3665 0.8322 -0.0331
C5 C 0.30776(14) 0.8933(2) -0.1887(3)
C6 C 0.25135(14) 0.9271(2) -0.1079(3)
C7 C 0.19825(15) 0.9754(3) -0.1777(4)
C8 C 0.19896(19) 0.9900(3) -0.3230(4)
H5 H 0.1621 1.0211 -0.3676
C9 C 0.25221(19) 0.9596(3) -0.3981(4)
H6 H 0.2521 0.9717 -0.4937
C10 C 0.30810(16) 0.9100(2) -0.3354(3)
C11 C 0.25450(13) 0.9156(2) 0.0488(3)
H7 H 0.2747 0.8459 0.0713
C12 C 0.29710(13) 1.0038(2) 0.1158(3)
C13 C 0.28670(15) 1.1108(2) 0.0874(4)
H8 H 0.2536 1.1297 0.0231
C14 C 0.32353(15) 1.1912(2) 0.1508(4)
H9 H 0.3150 1.2630 0.1300
C15 C 0.37289(15) 1.1641(2) 0.2450(3)
C16 C 0.38449(16) 1.0574(2) 0.2750(4)
H10 H 0.4179 1.0384 0.3387
C17 C 0.34654(15) 0.9785(2) 0.2104(3)
H11 H 0.3547 0.9067 0.2317
C18 C 0.17325(15) 0.8561(2) 0.2085(3)
H12 H 0.2056 0.8064 0.2359
C19 C 0.10903(14) 0.8567(2) 0.2813(3)
C20 C 0.09757(17) 0.7838(3) 0.3851(4)
H13 H 0.1311 0.7348 0.4082
C21 C 0.03779(17) 0.7805(3) 0.4568(4)
H14 H 0.0314 0.7301 0.5270
C22 C -0.01210(15) 0.8524(2) 0.4234(3)
C23 C -0.00162(15) 0.9256(2) 0.3188(4)
H15 H -0.0355 0.9736 0.2945
C24 C 0.05801(15) 0.9288(2) 0.2499(4)
H16 H 0.0645 0.9801 0.1809
C25 C 0.40691(17) 1.3471(2) 0.2838(4)
H17 H 0.4153 1.3605 0.1859
H18 H 0.3620 1.3717 0.3051
C26 C 0.4576(2) 1.4046(3) 0.3728(6)
H19 H 0.5012 1.3742 0.3578
H20 H 0.4581 1.4795 0.3486
H21 H 0.4459 1.3969 0.4691
C27 C -0.08648(18) 0.7843(3) 0.5987(4)
H22 H -0.0840 0.7104 0.5666
H23 H -0.0537 0.7941 0.6730
C28 C -0.1553(2) 0.8084(3) 0.6504(5)
H24 H -0.1565 0.8804 0.6863
H25 H -0.1870 0.8016 0.5752
H26 H -0.1665 0.7587 0.7231
N1 N 0.18681(11) 0.91962(19) 0.1106(3)
O1 O 0.14284(11) 1.0137(2) -0.1122(3)
O2 O 0.41343(10) 1.23616(17) 0.3136(3)
O3 O -0.07300(10) 0.85626(18) 0.4867(3)
H27 H 0.1510(16) 0.990(3) -0.023(4)
C1 C 0.63420(18) 0.3804(3) 0.9112(4)
H1 H 0.6334 0.3933 1.0066
C2 C 0.58026(18) 0.3339(2) 0.8497(4)
H2 H 0.5433 0.3141 0.9023
C3 C 0.58076(16) 0.3159(2) 0.7070(4)
H3 H 0.5438 0.2838 0.6641
C4 C 0.63468(15) 0.3448(2) 0.6286(3)
H4 H 0.6335 0.3322 0.5331
C5 C 0.69224(14) 0.3933(2) 0.6887(3)
C6 C 0.74865(14) 0.4271(2) 0.6079(3)
C7 C 0.80175(15) 0.4754(3) 0.6777(4)
C8 C 0.80104(19) 0.4900(3) 0.8230(4)
H5 H 0.8379 0.5211 0.8676
C9 C 0.74779(19) 0.4596(3) 0.8981(4)
H6 H 0.7479 0.4717 0.9937
C10 C 0.69190(16) 0.4100(2) 0.8354(3)
C11 C 0.74550(13) 0.4156(2) 0.4512(3)
H7 H 0.7253 0.3459 0.4287
C12 C 0.70290(13) 0.5038(2) 0.3842(3)
C13 C 0.71330(15) 0.6108(2) 0.4126(4)
H8 H 0.7464 0.6297 0.4769
C14 C 0.67647(15) 0.6912(2) 0.3492(4)
H9 H 0.6850 0.7630 0.3700
C15 C 0.62711(15) 0.6641(2) 0.2550(3)
C16 C 0.61551(16) 0.5574(2) 0.2250(4)
H10 H 0.5821 0.5384 0.1613
C17 C 0.65346(15) 0.4785(2) 0.2896(3)
H11 H 0.6453 0.4067 0.2683
C18 C 0.82675(15) 0.3561(2) 0.2915(3)
H12 H 0.7944 0.3064 0.2641
C19 C 0.89097(14) 0.3567(2) 0.2187(3)
C20 C 0.90243(17) 0.2838(3) 0.1149(4)
H13 H 0.8689 0.2348 0.0918
C21 C 0.96221(17) 0.2805(3) 0.0432(4)
H14 H 0.9686 0.2301 -0.0270
C22 C 1.01210(15) 0.3524(2) 0.0766(3)
C23 C 1.00162(15) 0.4256(2) 0.1812(4)
H15 H 1.0355 0.4736 0.2055
C24 C 0.94199(15) 0.4288(2) 0.2501(4)
H16 H 0.9355 0.4801 0.3191
C25 C 0.59309(17) 0.8471(2) 0.2162(4)
H17 H 0.5847 0.8605 0.3141
H18 H 0.6380 0.8717 0.1949
C26 C 0.5424(2) 0.9046(3) 0.1272(6)
H19 H 0.4988 0.8742 0.1422
H20 H 0.5419 0.9795 0.1514
H21 H 0.5541 0.8969 0.0309
C27 C 1.08648(18) 0.2843(3) -0.0987(4)
H22 H 1.0840 0.2104 -0.0666
H23 H 1.0537 0.2941 -0.1730
C28 C 1.1553(2) 0.3084(3) -0.1504(5)
H24 H 1.1565 0.3804 -0.1863
H25 H 1.1870 0.3016 -0.0752
H26 H 1.1665 0.2587 -0.2231
N1 N 0.81319(11) 0.41962(19) 0.3894(3)
O1 O 0.85716(11) 0.5137(2) 0.6122(3)
O2 O 0.58657(10) 0.73616(17) 0.1864(3)
O3 O 1.07300(10) 0.35626(18) 0.0133(3)
H27 H 0.8490(16) 0.490(3) 0.523(4)

#END
