./LICGEK_from_POSCAR.cif_generated_by_CrystalShift
_symmetry_cell_setting triclinic
_symmetry_space_group_name_H-M 'P 1'
loop_
_symmetry_equiv_pos_site_id
_symmetry_equiv_pos_as_xyz
1 x,y,z
_cell_length_a 4.121600
_cell_length_b 15.247400
_cell_length_c 11.075100
_cell_angle_alpha 90.000000
_cell_angle_beta 90.707000
_cell_angle_gamma 90.000000
_cell_volume 695.947096
loop_
_atom_site_label
_atom_site_type_symbol
_atom_site_fract_x
_atom_site_fract_y
_atom_site_fract_z
H1 H 0.175600 0.499300 0.863700
H2 H -0.094300 0.285500 0.583200
H3 H 0.523600 -0.213800 0.548900
H4 H 0.111200 0.154100 0.660900
H5 H 0.476400 0.286200 0.951100
H6 H 0.888800 -0.345900 0.839100
H7 H 0.824400 0.500700 0.136300
H8 H 1.094300 -0.214500 0.916800
H9 H 1.025300 0.583600 0.311700
H10 H 1.025300 -0.083600 0.811700
H11 H 1.094300 0.714500 0.416800
H12 H 0.824400 -0.000700 0.636300
H13 H 0.824400 0.500700 1.136300
H14 H 0.888800 0.845900 0.339100
H15 H 0.523600 0.713800 0.048900
H16 H 0.523600 0.713800 1.048900
H17 H 0.476400 0.213800 0.451100
H18 H 0.175600 0.499300 -0.136300
H19 H -0.025300 0.416400 -0.311700
H20 H 0.111200 0.345900 0.160900
H21 H -0.094300 0.285500 -0.416800
H22 H -0.094300 0.214500 0.083200
H23 H 0.111200 0.154100 -0.339100
H24 H -0.025300 0.083600 0.188300
H25 H 0.476400 0.286200 -0.048900
H26 H 0.175600 0.000700 0.363700
H27 H 1.025300 0.583600 1.311700
H28 H 0.888800 0.845900 1.339100
H29 H 0.175600 1.000700 0.363700
H30 H -0.025300 1.083600 0.188300
H31 H 0.523600 0.786200 0.548900
H32 H -0.094300 1.214500 0.083200
H33 H 0.111200 1.345900 0.160900
H34 H 0.888800 0.654100 0.839100
H35 H 0.476400 1.213800 0.451100
H36 H 1.094300 0.785500 0.916800
H37 H 1.094300 0.714500 1.416800
H38 H 1.025300 0.916400 0.811700
H39 H 0.824400 0.999300 0.636300
H40 H -0.025300 0.416400 0.688300
C41 C 0.936700 0.863580 0.779890
C42 C 0.979900 0.714520 1.341800
C43 C 0.236700 1.135190 0.329140
C44 C 0.359200 1.213700 0.376710
C45 C 0.979900 0.785480 0.841800
C46 C 0.308100 1.291000 0.314450
C47 C 0.141000 1.292520 0.203770
C48 C 0.859000 0.707480 0.796230
C49 C 0.020100 1.214520 0.158200
C50 C 0.691900 0.709000 0.685550
C51 C 0.063300 1.136420 0.220110
C52 C 0.640800 0.786300 0.623290
C53 C 0.291800 1.051080 0.390510
C54 C 0.763300 0.864810 0.670860
C55 C 0.936700 0.636420 1.279890
C56 C 0.859000 0.792520 1.296230
C57 C 0.236700 0.364810 -0.170860
C58 C 0.359200 0.286300 -0.123290
C59 C 0.291800 0.051080 0.390510
C60 C 0.308100 0.209000 -0.185550
C61 C 0.141000 0.207480 -0.296230
C62 C 0.063300 0.136420 0.220110
C63 C 0.020100 0.285480 -0.341800
C64 C 0.020100 0.214520 0.158200
C65 C 0.063300 0.363580 -0.279890
C66 C 0.141000 0.292520 0.203770
C67 C 0.291800 0.448920 -0.109490
C68 C 0.308100 0.291000 0.314450
C69 C 0.691900 0.791000 1.185550
C70 C 0.359200 0.213700 0.376710
C71 C 0.763300 0.635190 0.170860
C72 C 0.640800 0.713700 0.123290
C73 C 0.236700 0.135190 0.329140
C74 C 0.691900 0.791000 0.185550
C75 C 0.859000 0.792520 0.296230
C76 C 0.708200 0.551080 1.109490
C77 C 0.979900 0.714520 0.341800
C78 C 0.708200 -0.051080 0.609490
C79 C 0.936700 0.636420 0.279890
C80 C 0.936700 -0.136420 0.779890
C81 C 0.708200 0.551080 0.109490
C82 C 0.979900 -0.214520 0.841800
C83 C 0.640800 0.713700 1.123290
C84 C 0.763300 0.635190 1.170860
C85 C 0.236700 0.364810 0.829140
C86 C 0.359200 0.286300 0.876710
C87 C 0.859000 -0.292520 0.796230
C88 C 0.308100 0.209000 0.814450
C89 C 0.141000 0.207480 0.703770
C90 C 0.691900 -0.291000 0.685550
C91 C 0.020100 0.285480 0.658200
C92 C 0.640800 -0.213700 0.623290
C93 C 0.063300 0.363580 0.720110
C94 C 0.708200 0.948920 0.609490
C95 C 0.291800 0.448920 0.890510
C96 C 0.763300 -0.135190 0.670860
N97 N 0.508400 0.956180 0.521130
N98 N 0.491600 0.456180 0.978870
N99 N 0.508400 0.543820 0.021130
N100 N 0.508400 -0.043820 0.521130
N101 N 0.491600 0.456180 -0.021130
N102 N 0.491600 0.043820 0.478870
N103 N 0.491600 1.043820 0.478870
N104 N 0.508400 0.543820 1.021130
I105 I 0.512430 0.591153 0.613685
I106 I 0.487570 0.091153 -0.113685
I107 I 0.487570 0.408847 0.386315
I108 I 0.512430 0.908847 0.113685
I109 I 0.512430 -0.408847 0.613685
I110 I 0.512430 0.908847 1.113685
I111 I 0.487570 0.091153 0.886315
I112 I 0.487570 1.408847 0.386315

#END
