./LICHOV_from_POSCAR.cif_generated_by_CrystalShift
_symmetry_cell_setting triclinic
_symmetry_space_group_name_H-M 'P 1'
loop_
_symmetry_equiv_pos_site_id
_symmetry_equiv_pos_as_xyz
1 x,y,z
_cell_length_a 8.252600
_cell_length_b 6.521000
_cell_length_c 19.770700
_cell_angle_alpha 90.000000
_cell_angle_beta 90.000000
_cell_angle_gamma 90.000000
_cell_volume 1063.964266
loop_
_atom_site_label
_atom_site_type_symbol
_atom_site_fract_x
_atom_site_fract_y
_atom_site_fract_z
H1 H 0.816800 0.737600 0.695300
H2 H 0.683200 0.262400 0.195300
H3 H 0.316800 0.762400 0.804700
H4 H 0.183200 0.237600 0.304700
H5 H 0.933200 0.250000 0.408600
H6 H 0.693800 0.250000 0.346700
H7 H 0.294700 0.250000 0.503900
H8 H 0.674500 0.250000 0.583000
H9 H 0.179800 0.373300 0.702100
H10 H 0.179800 0.126700 0.702100
H11 H -0.083600 0.250000 0.726100
H12 H 0.028600 0.872900 -0.206500
H13 H 0.028600 0.627100 -0.206500
H14 H 0.584600 0.627300 0.156000
H15 H 0.584600 0.872700 0.156000
H16 H 0.583600 0.750000 0.226100
H17 H 0.705300 0.750000 0.496100
H18 H 0.306200 0.750000 0.653300
H19 H 0.066800 0.750000 0.591400
H20 H 0.078600 0.750000 0.472900
H21 H 0.325500 0.750000 0.417000
H22 H 0.820200 0.873300 0.297900
H23 H 0.820200 0.626700 0.297900
H24 H 1.083600 0.750000 0.273900
H25 H 1.084600 0.627300 0.344000
H26 H 1.084600 0.872700 0.344000
H27 H 0.528600 0.872900 0.706500
H28 H 0.528600 0.627100 0.706500
H29 H 0.183200 0.262400 0.304700
H30 H 0.316800 0.737600 0.804700
H31 H 0.683200 0.237600 0.195300
H32 H 0.816800 0.762400 0.695300
H33 H 0.320200 0.873300 0.202100
H34 H 0.320200 0.626700 0.202100
H35 H -0.174500 0.750000 0.083000
H36 H -0.421400 0.750000 0.027100
H37 H -0.433200 0.750000 -0.091400
H38 H -0.193800 0.750000 -0.153300
H39 H 0.205300 0.750000 0.003900
H40 H -0.084600 0.127300 0.656000
H41 H -0.084600 0.372700 0.656000
H42 H 0.471400 0.372900 0.293500
H43 H 0.471400 0.127100 0.293500
H44 H 0.971400 0.372900 1.206500
H45 H 0.794700 0.250000 0.996100
H46 H 1.193800 0.250000 1.153300
H47 H 1.433200 0.250000 1.091400
H48 H 1.421400 0.250000 0.972900
H49 H 1.174500 0.250000 0.917000
H50 H 0.679800 0.126700 0.797900
H51 H 0.679800 0.373300 0.797900
H52 H 0.416400 0.250000 0.773900
H53 H 0.415400 0.372700 0.844000
H54 H 0.415400 0.127300 0.844000
H55 H 0.971400 0.127100 1.206500
H56 H 0.921400 0.250000 0.527100
C57 C 0.890600 0.250000 1.115910
C58 C 0.455300 0.250000 0.820770
C59 C 0.637800 0.250000 0.821240
C60 C 0.849600 0.250000 0.901500
C61 C 0.469000 0.750000 0.501340
C62 C -0.031000 0.750000 -0.001340
C63 C -0.036890 0.750000 -0.073330
C64 C -0.189000 0.750000 -0.105280
C65 C -0.331500 0.750000 -0.068900
C66 C -0.323800 0.750000 0.001580
C67 C -0.176800 0.750000 0.034960
C68 C 0.150400 0.750000 0.098500
C69 C 0.362200 0.750000 0.178760
C70 C 0.544700 0.750000 0.179230
C71 C 0.109400 0.750000 -0.115910
C72 C 0.090400 0.750000 -0.192380
C73 C 1.176800 0.250000 0.965040
C74 C 1.323800 0.250000 0.998420
C75 C 1.331500 0.250000 1.068900
C76 C 1.189000 0.250000 1.105280
C77 C 1.036890 0.250000 1.073330
C78 C 1.031000 0.250000 1.001340
C79 C 0.463110 0.750000 0.573330
C80 C 0.590400 0.750000 0.692380
C81 C 0.609400 0.750000 0.615910
C82 C 1.044700 0.750000 0.320770
C83 C 0.862200 0.750000 0.321240
C84 C 0.650400 0.750000 0.401500
C85 C 0.323200 0.750000 0.465040
C86 C 0.176200 0.750000 0.498420
C87 C 0.168500 0.750000 0.568900
C88 C 0.311000 0.750000 0.605280
C89 C 0.409600 0.250000 0.307620
C90 C 0.531000 0.250000 0.498660
C91 C 0.536890 0.250000 0.426670
C92 C 0.689000 0.250000 0.394720
C93 C 0.831500 0.250000 0.431100
C94 C 0.823800 0.250000 0.501580
C95 C 0.676800 0.250000 0.534960
C96 C 0.349600 0.250000 0.598500
C97 C 0.137800 0.250000 0.678760
C98 C -0.044700 0.250000 0.679230
C99 C 0.390600 0.250000 0.384090
C100 C 0.909600 0.250000 1.192380
N101 N 0.119980 0.750000 0.030590
N102 N 0.619980 0.750000 0.469410
N103 N 0.880020 0.250000 0.969410
N104 N 0.380020 0.250000 0.530590
O105 O 0.256460 0.250000 0.275450
O106 O 0.250870 0.250000 0.406330
O107 O 0.187970 0.250000 0.608220
O108 O 0.448470 0.250000 0.644090
O109 O 0.243540 0.750000 -0.224550
O110 O 0.249130 0.750000 -0.093670
O111 O 0.312030 0.750000 0.108220
O112 O 0.051530 0.750000 0.144090
O113 O 0.756460 0.250000 1.224550
O114 O 0.750870 0.250000 1.093670
O115 O 0.687970 0.250000 0.891780
O116 O 0.948470 0.250000 0.855910
O117 O 0.743540 0.750000 0.724550
O118 O 0.749130 0.750000 0.593670
O119 O 0.812030 0.750000 0.391780
O120 O 0.551530 0.750000 0.355910

#END
