./LICJUD_from_POSCAR.cif_generated_by_CrystalShift
_symmetry_cell_setting triclinic
_symmetry_space_group_name_H-M 'P 1'
loop_
_symmetry_equiv_pos_site_id
_symmetry_equiv_pos_as_xyz
1 x,y,z
_cell_length_a 10.780000
_cell_length_b 11.880000
_cell_length_c 11.470000
_cell_angle_alpha 90.000000
_cell_angle_beta 114.820000
_cell_angle_gamma 90.000000
_cell_volume 1333.238798
loop_
_atom_site_label
_atom_site_type_symbol
_atom_site_fract_x
_atom_site_fract_y
_atom_site_fract_z
H1 H 1.026600 0.883100 1.164400
H2 H 0.973400 0.116900 0.835600
H3 H 0.198300 0.395900 0.061500
H4 H 1.098700 0.965700 1.364500
H5 H 0.194400 0.699100 0.207300
H6 H 0.901300 0.034300 0.635500
H7 H 0.961100 -0.186900 0.986200
H8 H 0.892400 -0.264800 0.785000
H9 H 1.038900 0.186900 1.013800
H10 H 0.294000 0.718000 0.523400
H11 H 1.026600 -0.116900 0.164400
H12 H 0.383100 0.637800 0.747600
H13 H 1.098700 -0.034300 0.364500
H14 H 0.456600 0.485100 0.882100
H15 H 1.038900 0.186900 0.013800
H16 H 0.469600 0.305700 0.802700
H17 H 1.107600 0.264800 0.215000
H18 H 0.409900 0.280900 0.586100
H19 H 1.098700 -0.034300 1.364500
H20 H 0.326700 0.360900 0.367000
H21 H 0.973400 0.116900 -0.164400
H22 H 0.901300 0.034300 -0.364500
H23 H 0.961100 -0.186900 -0.013800
H24 H 1.038900 1.186900 1.013800
H25 H 0.801700 -0.104100 0.438500
H26 H 0.892400 -0.264800 -0.215000
H27 H 0.805600 0.199100 0.292700
H28 H 1.026600 -0.116900 1.164400
H29 H 0.026600 0.883100 1.164400
H30 H 0.098700 0.965700 1.364500
H31 H 0.038900 1.186900 1.013800
H32 H 0.706000 0.218000 -0.023400
H33 H 0.107600 1.264800 1.215000
H34 H 0.616900 0.137800 -0.247600
H35 H -0.026600 1.116900 0.835600
H36 H 0.543400 -0.014900 -0.382100
H37 H -0.098700 1.034300 0.635500
H38 H 0.530400 -0.194300 -0.302700
H39 H -0.038900 0.813100 0.986200
H40 H 0.590100 -0.219100 -0.086100
H41 H -0.107600 0.735200 0.785000
H42 H 0.673300 -0.139100 0.133000
H43 H 0.892400 0.735200 -0.215000
H44 H 0.026600 0.883100 0.164400
H45 H 1.107600 1.264800 1.215000
H46 H 0.098700 0.965700 0.364500
H47 H 0.801700 0.604100 0.938500
H48 H 0.038900 1.186900 0.013800
H49 H 0.805600 0.300900 0.792700
H50 H 0.107600 1.264800 0.215000
H51 H 0.961100 0.813100 -0.013800
H52 H -0.026600 1.116900 -0.164400
H53 H -0.098700 1.034300 -0.364500
H54 H 0.706000 0.282000 0.476600
H55 H -0.038900 0.813100 -0.013800
H56 H 0.616900 0.362200 0.252400
H57 H -0.107600 0.735200 -0.215000
H58 H 0.543400 0.514900 0.117900
H59 H 0.901300 1.034300 -0.364500
H60 H 0.530400 0.694300 0.197300
H61 H 0.026600 -0.116900 1.164400
H62 H 0.590100 0.719100 0.413900
H63 H 0.098700 -0.034300 1.364500
H64 H 0.673300 0.639100 0.633000
H65 H 0.038900 0.186900 1.013800
H66 H 0.107600 0.264800 1.215000
H67 H 0.973400 1.116900 0.835600
H68 H 0.973400 1.116900 -0.164400
H69 H 0.198300 1.104100 0.561500
H70 H 0.901300 1.034300 0.635500
H71 H 0.194400 0.800900 0.707300
H72 H -0.026600 0.116900 0.835600
H73 H -0.098700 0.034300 0.635500
H74 H -0.038900 -0.186900 0.986200
H75 H -0.107600 -0.264800 0.785000
H76 H 0.294000 0.782000 1.023400
H77 H 1.107600 1.264800 0.215000
H78 H 0.383100 0.862200 1.247600
H79 H 0.026600 -0.116900 0.164400
H80 H 0.456600 1.014900 1.382100
H81 H 0.098700 -0.034300 0.364500
H82 H 0.469600 1.194300 1.302700
H83 H 0.038900 0.186900 0.013800
H84 H 0.409900 1.219100 1.086100
H85 H 0.107600 0.264800 0.215000
H86 H 0.326700 1.139100 0.867000
H87 H 1.038900 1.186900 0.013800
H88 H -0.026600 0.116900 -0.164400
H89 H -0.098700 0.034300 -0.364500
H90 H 0.961100 0.813100 0.986200
H91 H -0.038900 -0.186900 -0.013800
H92 H 0.107600 0.235200 0.715000
H93 H -0.107600 -0.264800 -0.215000
H94 H 0.038900 0.313100 0.513800
H95 H 1.098700 0.965700 0.364500
H96 H 0.098700 0.534300 0.864500
H97 H 0.973400 0.383100 0.335600
H98 H 0.026600 0.616900 0.664400
H99 H 0.901300 0.465700 0.135500
H100 H 1.107600 0.264800 1.215000
H101 H 0.892400 0.735200 0.785000
H102 H 0.961100 0.686900 0.486200
H103 H -0.107600 0.764800 0.285000
H104 H 0.892400 0.764800 0.285000
H105 H -0.038900 0.686900 0.486200
H106 H 1.026600 0.883100 0.164400
H107 H -0.098700 0.465700 0.135500
H108 H 1.026600 0.616900 0.664400
H109 H -0.026600 0.383100 0.335600
H110 H 1.098700 0.534300 0.864500
H111 H 1.038900 0.313100 0.513800
H112 H 1.107600 0.235200 0.715000
C113 C 1.090750 0.313870 0.703890
C114 C 1.023290 1.025350 0.064460
C115 C 1.049630 0.360080 0.584410
C116 C 0.909250 0.813870 0.796110
C117 C 1.085200 0.489190 0.791760
C118 C -0.023290 0.525350 0.435540
C119 C 1.042880 0.538110 0.672920
C120 C -0.042880 0.461890 0.327080
C121 C 1.023290 0.474650 0.564460
C122 C -0.085200 0.510810 0.208240
C123 C 1.042880 0.961890 0.172920
C124 C 0.909250 0.686130 0.296110
C125 C -0.049630 0.639920 0.415590
C126 C 0.950370 0.639920 0.415590
C127 C -0.090750 0.686130 0.296110
C128 C 0.950370 0.860080 0.915590
C129 C 0.023290 0.474650 0.564460
C130 C 0.957120 0.461890 0.327080
C131 C 0.042880 0.538110 0.672920
C132 C 0.976710 0.525350 0.435540
C133 C 0.085200 0.489190 0.791760
C134 C 1.085200 1.010810 0.291760
C135 C -0.090750 -0.186130 -0.203890
C136 C 0.049630 0.360080 0.584410
C137 C -0.049630 -0.139920 -0.084410
C138 C 0.090750 0.313870 0.703890
C139 C -0.085200 -0.010810 -0.291760
C140 C 0.914800 0.989190 0.708240
C141 C -0.042880 0.038110 -0.172920
C142 C 0.349090 0.945750 1.079410
C143 C -0.023290 -0.025350 -0.064460
C144 C 0.358240 1.054240 1.031900
C145 C 1.049630 1.139920 0.084410
C146 C 0.090750 0.186130 0.203890
C147 C 0.319360 1.066950 0.899280
C148 C 0.049630 0.139920 0.084410
C149 C 0.403930 1.146390 1.117950
C150 C 0.085200 0.010810 0.291760
C151 C 0.439410 1.131900 1.245700
C152 C 0.042880 -0.038110 0.172920
C153 C 0.431200 1.024600 1.292800
C154 C 0.023290 0.025350 0.064460
C155 C 0.387700 0.934000 1.213200
C156 C 1.090750 1.186130 0.203890
C157 C -0.090750 -0.186130 0.796110
C158 C 0.300150 0.854860 0.992050
C159 C -0.049630 -0.139920 0.915590
C160 C 0.261630 0.870100 0.863580
C161 C -0.085200 -0.010810 0.708240
C162 C 0.271130 0.978480 0.814650
C163 C -0.042880 0.038110 0.827080
C164 C 0.226270 0.995000 0.675310
C165 C -0.023290 -0.025350 0.935540
C166 C 0.976710 0.974650 -0.064460
C167 C 0.957120 1.038110 0.827080
C168 C 0.090750 0.186130 1.203890
C169 C 0.650910 0.445750 0.420590
C170 C 0.049630 0.139920 1.084410
C171 C 0.641760 0.554240 0.468100
C172 C 0.085200 0.010810 1.291760
C173 C 0.680640 0.566950 0.600720
C174 C 0.042880 -0.038110 1.172920
C175 C 0.596070 0.646390 0.382050
C176 C 0.023290 0.025350 1.064460
C177 C 0.957120 1.038110 -0.172920
C178 C 0.560590 0.631900 0.254300
C179 C -0.090750 0.813870 -0.203890
C180 C 0.568800 0.524600 0.207200
C181 C -0.049630 0.860080 -0.084410
C182 C 0.612300 0.434000 0.286800
C183 C -0.085200 0.989190 -0.291760
C184 C 0.699850 0.354860 0.507950
C185 C -0.042880 1.038110 -0.172920
C186 C 0.738370 0.370100 0.636420
C187 C -0.023290 0.974650 -0.064460
C188 C 0.914800 0.989190 -0.291760
C189 C 0.728870 0.478480 0.685350
C190 C 0.090750 1.186130 0.203890
C191 C 0.773730 0.495000 0.824690
C192 C 0.049630 1.139920 0.084410
C193 C 0.976710 0.974650 0.935540
C194 C 0.085200 1.010810 0.291760
C195 C 1.090750 1.186130 1.203890
C196 C 0.042880 0.961890 0.172920
C197 C 0.650910 0.054250 -0.079410
C198 C 0.023290 1.025350 0.064460
C199 C 0.950370 0.860080 -0.084410
C200 C 0.641760 -0.054240 -0.031900
C201 C -0.090750 0.813870 0.796110
C202 C 0.680640 -0.066950 0.100720
C203 C -0.049630 0.860080 0.915590
C204 C 0.596070 -0.146390 -0.117950
C205 C -0.085200 0.989190 0.708240
C206 C 0.560590 -0.131900 -0.245700
C207 C -0.042880 1.038110 0.827080
C208 C 0.568800 -0.024600 -0.292800
C209 C -0.023290 0.974650 0.935540
C210 C 0.909250 0.813870 -0.203890
C211 C 1.023290 0.025350 1.064460
C212 C 0.090750 1.186130 1.203890
C213 C 0.612300 0.066000 -0.213200
C214 C 0.049630 1.139920 1.084410
C215 C 0.699850 0.145140 0.007950
C216 C 0.085200 1.010810 1.291760
C217 C 0.738370 0.129900 0.136420
C218 C 0.042880 0.961890 1.172920
C219 C 0.728870 0.021520 0.185350
C220 C 0.023290 1.025350 1.064460
C221 C 0.773730 0.005000 0.324690
C222 C 1.042880 -0.038110 1.172920
C223 C 0.909250 -0.186130 -0.203890
C224 C 1.049630 1.139920 1.084410
C225 C 0.950370 -0.139920 -0.084410
C226 C 1.085200 1.010810 1.291760
C227 C 0.914800 -0.010810 -0.291760
C228 C 0.349090 0.554250 0.579410
C229 C 0.957120 0.038110 -0.172920
C230 C 0.358240 0.445760 0.531900
C231 C 0.976710 -0.025350 -0.064460
C232 C 0.319360 0.433050 0.399280
C233 C 1.085200 0.010810 1.291760
C234 C 1.090750 0.186130 0.203890
C235 C 0.403930 0.353610 0.617950
C236 C 1.049630 0.139920 0.084410
C237 C 0.439410 0.368100 0.745700
C238 C 1.085200 0.010810 0.291760
C239 C 0.431200 0.475400 0.792800
C240 C 1.042880 -0.038110 0.172920
C241 C 0.387700 0.566000 0.713200
C242 C 1.023290 0.025350 0.064460
C243 C 0.300150 0.645140 0.492050
C244 C 1.049630 0.139920 1.084410
C245 C 0.909250 -0.186130 0.796110
C246 C 0.261630 0.629900 0.363580
C247 C 0.950370 -0.139920 0.915590
C248 C 0.271130 0.521520 0.314650
C249 C 0.914800 -0.010810 0.708240
C250 C 0.226270 0.505000 0.175310
C251 C 0.957120 0.038110 0.827080
C252 C 1.042880 0.961890 1.172920
C253 C 0.976710 -0.025350 0.935540
C254 C 0.914800 0.510810 0.208240
C255 C 1.090750 0.186130 1.203890
C256 C 1.023290 1.025350 1.064460
N257 N 1.107630 1.122220 1.305600
N258 N 0.892370 -0.122220 0.694400
N259 N 0.107630 0.377780 0.805600
N260 N 1.107630 0.122220 0.305600
N261 N -0.107630 0.622220 0.194400
N262 N 0.892370 -0.122220 -0.305600
N263 N 0.892370 0.877780 0.694400
N264 N 0.107630 1.122220 1.305600
N265 N 1.107630 0.377780 0.805600
N266 N 0.892370 0.877780 -0.305600
N267 N 0.892370 0.622220 0.194400
N268 N -0.107630 0.877780 0.694400
N269 N -0.107630 -0.122220 -0.305600
N270 N 0.107630 1.122220 0.305600
N271 N 0.107630 0.122220 0.305600
N272 N -0.107630 0.877780 -0.305600
N273 N -0.107630 -0.122220 0.694400
N274 N 0.107630 0.122220 1.305600
N275 N 1.107630 1.122220 0.305600
N276 N 1.107630 0.122220 1.305600
O277 O 0.145520 0.172610 1.418430
O278 O -0.145520 0.827390 -0.418430
O279 O -0.145520 -0.172610 0.581570
O280 O 0.145520 1.172610 0.418430
O281 O 0.145520 0.172610 0.418430
O282 O -0.145520 0.827390 0.581570
O283 O -0.145520 -0.172610 -0.418430
O284 O 0.145520 1.172610 1.418430
O285 O 0.854480 0.672610 0.081570
O286 O 0.854480 0.827390 -0.418430
O287 O 0.854480 0.827390 0.581570
O288 O 0.854480 -0.172610 -0.418430
O289 O 1.145520 0.327390 0.918430
O290 O 1.145520 0.172610 0.418430
O291 O -0.145520 0.672610 0.081570
O292 O 0.854480 -0.172610 0.581570
O293 O 0.145520 0.327390 0.918430
O294 O 0.212400 0.780690 0.782900
O295 O 0.232900 1.099180 0.641990
O296 O 0.184580 0.917860 0.597200
O297 O 0.787600 0.280690 0.717100
O298 O 1.145520 1.172610 1.418430
O299 O 1.145520 0.172610 1.418430
O300 O 0.767100 0.599180 0.858010
O301 O 0.815420 0.417860 0.902800
O302 O 0.787600 0.219310 0.217100
O303 O 0.767100 -0.099180 0.358010
O304 O 0.815420 0.082140 0.402800
O305 O 0.212400 0.719310 0.282900
O306 O 0.232900 0.400820 0.141990
O307 O 1.145520 1.172610 0.418430
O308 O 0.184580 0.582140 0.097200

#END
