./LICLOA_from_POSCAR.cif_generated_by_CrystalShift
_symmetry_cell_setting triclinic
_symmetry_space_group_name_H-M 'P 1'
loop_
_symmetry_equiv_pos_site_id
_symmetry_equiv_pos_as_xyz
1 x,y,z
_cell_length_a 9.836100
_cell_length_b 14.579800
_cell_length_c 15.688200
_cell_angle_alpha 114.634000
_cell_angle_beta 91.671000
_cell_angle_gamma 109.150000
_cell_volume 1895.496735
loop_
_atom_site_label
_atom_site_type_symbol
_atom_site_fract_x
_atom_site_fract_y
_atom_site_fract_z
H1 H 1.020700 0.141800 0.953500
H2 H 1.375700 0.725800 0.565000
H3 H 1.274800 0.836600 0.921800
H4 H 1.442500 0.905600 0.940500
H5 H 0.555500 0.876800 0.493400
H6 H 1.390500 0.784300 0.922900
H7 H 0.611200 0.742400 0.513000
H8 H 1.161000 0.648000 0.836000
H9 H 0.652400 0.607900 0.387700
H10 H 1.190000 0.544200 0.518200
H11 H 0.640200 0.600100 0.236000
H12 H 1.024400 0.425700 0.561200
H13 H 0.565800 0.630700 0.608900
H14 H 0.685100 0.577600 0.611300
H15 H 0.804800 0.540200 0.680300
H16 H 0.776600 1.044900 0.336700
H17 H 0.693900 0.552900 0.968000
H18 H 0.867800 0.483900 0.904600
H19 H 1.119600 0.259100 0.819300
H20 H 0.818500 0.979200 0.026600
H21 H 1.025100 0.074200 0.718900
H22 H 0.633700 0.857000 0.055400
H23 H 0.848500 0.001900 0.584500
H24 H 0.761000 0.111800 0.545900
H25 H 0.436100 0.996300 0.217100
H26 H -0.423700 0.192600 0.332400
H27 H -0.375700 0.274200 0.435000
H28 H -0.274800 0.163400 0.078200
H29 H 0.105700 0.652500 0.014200
H30 H -0.442500 0.094400 0.059500
H31 H 0.329300 0.673300 0.085600
H32 H -0.390500 0.215700 0.077100
H33 H 0.301200 1.101200 0.279500
H34 H 0.228600 1.151100 0.229000
H35 H 0.367100 1.125200 0.197800
H36 H -0.161000 0.352000 0.164000
H37 H 0.917300 1.215700 0.440000
H38 H 1.087500 1.278000 0.460700
H39 H 1.022200 1.151300 0.422200
H40 H -0.190000 0.455800 0.481800
H41 H 1.022200 1.158600 0.092100
H42 H 1.071400 1.226200 0.197400
H43 H -0.024400 0.574300 0.438800
H44 H -0.063900 0.738100 -0.007400
H45 H -0.020700 0.858200 0.046500
H46 H 0.434200 0.369300 0.391100
H47 H 0.314900 0.422400 0.388700
H48 H 0.195200 0.459800 0.319700
H49 H 0.306100 0.447100 0.032000
H50 H 0.132200 0.516100 0.095400
H51 H -0.119600 0.740900 0.180700
H52 H -0.025100 0.925800 0.281100
H53 H 0.151500 0.998100 0.415500
H54 H 0.444500 0.123200 0.506600
H55 H 0.239000 0.888200 0.454100
H56 H 0.388800 0.257600 0.487000
H57 H 1.423700 0.807400 0.667600
H58 H 0.347600 0.392100 0.612300
H59 H 1.063900 0.261900 1.007400
H60 H 0.359800 0.399900 0.764000
H61 H -0.071400 -0.226200 0.802600
H62 H -0.022200 -0.158600 0.907900
H63 H -0.022200 -0.151300 0.577800
H64 H -0.087500 -0.278000 0.539300
H65 H 0.223400 -0.044900 0.663300
H66 H 0.082700 -0.215700 0.560000
H67 H 0.632900 -0.125200 0.802200
H68 H 0.771400 -0.151100 0.771000
H69 H 0.181500 0.020800 0.973400
H70 H 0.698800 -0.101200 0.720500
H71 H 0.366300 0.143000 0.944600
H72 H 0.670700 0.326700 0.914400
H73 H 0.894300 0.347500 0.985800
H74 H 0.563900 0.003700 0.782900
C75 C 0.766340 0.086800 0.863300
C76 C 0.867930 0.190430 0.925140
C77 C 0.828860 0.278150 0.943730
C78 C 0.631250 0.073430 0.822330
C79 C 0.693960 0.265890 0.901220
C80 C 0.594150 0.163140 0.839250
C81 C 0.721800 -0.101880 0.780100
C82 C 0.302110 0.079810 0.893360
C83 C 0.191080 0.005970 0.910740
C84 C 0.093930 -0.089650 0.836450
C85 C -0.007200 -0.211910 0.580510
C86 C 0.105540 -0.105020 0.743830
C87 C 0.216850 -0.031830 0.726060
C88 C 0.319290 0.061130 0.800900
C89 C 0.544490 0.896330 0.322400
C90 C 0.417570 0.247200 0.809800
C91 C 0.407310 0.262970 0.723410
C92 C 0.568520 0.818600 0.352460
C93 C 0.375720 0.344700 0.712970
C94 C 0.369300 0.339380 0.622220
C95 C 0.573320 0.822540 0.442580
C96 C 0.606000 0.741760 0.453420
C97 C 1.367500 0.834370 0.905960
C98 C 0.630700 0.660620 0.377780
C99 C 0.042100 0.549440 0.265260
C100 C 0.137890 0.660050 0.350720
C101 C 0.107150 0.747350 0.340040
C102 C 0.167000 0.858810 0.400220
C103 C 0.394000 0.258240 0.546580
C104 C 0.114700 0.923440 0.376330
C105 C 0.426680 0.177460 0.557420
C106 C 0.008000 0.879840 0.295050
C107 C 0.431480 0.181400 0.647540
C108 C -0.048890 0.770120 0.235290
C109 C 0.455510 0.103670 0.677600
C110 C 0.002540 0.704210 0.258910
C111 C -0.038220 0.585520 0.206280
C112 C 0.145120 0.496320 0.214490
C113 C 0.179770 0.491470 0.128280
C114 C 0.447040 0.142170 0.784810
C115 C 0.284820 0.450220 0.090340
C116 C 1.165640 0.627100 0.771770
C117 C 0.358800 0.413490 0.138080
C118 C 0.323160 0.418640 0.225190
C119 C 0.218200 0.458220 0.262100
C120 C 1.264960 0.697880 0.745700
C121 C 0.381600 0.392650 0.359770
C122 C 1.272290 0.669230 0.648850
C123 C 0.624280 0.655300 0.287030
C124 C -0.071600 0.476150 0.297520
C125 C -0.083770 0.505480 0.391900
C126 C 1.183320 0.566270 0.582190
C127 C -0.183320 0.433730 0.417810
C128 C 0.592690 0.737030 0.276590
C129 C -0.272290 0.330770 0.351150
C130 C -0.264960 0.302120 0.254300
C131 C -0.165640 0.372900 0.228230
C132 C 1.007200 1.211910 0.419490
C133 C -0.367500 0.165630 0.094040
C134 C 0.278200 1.101880 0.219900
C135 C 0.306040 0.734110 0.098780
C136 C 0.171140 0.721850 0.056270
C137 C 1.083770 0.494520 0.608100
C138 C 1.071600 0.523850 0.702480
C139 C 0.132070 0.809570 0.074860
C140 C 0.233660 0.913200 0.136700
C141 C 0.582430 0.752800 0.190200
C142 C 0.680710 0.938870 0.199100
C143 C 0.618400 0.607350 0.640230
C144 C 0.783150 1.031830 0.273940
C145 C 0.957900 0.450560 0.734740
C146 C 0.862110 0.339950 0.649280
C147 C 0.892850 0.252650 0.659960
C148 C 0.833000 0.141190 0.599780
C149 C 0.368750 0.926570 0.177670
C150 C 0.885300 0.076560 0.623670
C151 C 0.405850 0.836860 0.160750
C152 C 0.992000 0.120160 0.704950
C153 C 0.697890 0.920190 0.106640
C154 C 1.048890 0.229880 0.764710
C155 C 0.808920 0.994030 0.089260
C156 C 0.997460 0.295790 0.741090
C157 C 1.038220 0.414480 0.793720
C158 C 0.854880 0.503680 0.785510
C159 C 0.820230 0.508530 0.871720
C160 C 0.906070 1.089650 0.163550
C161 C 0.715180 0.549780 0.909660
C162 C 0.894460 1.105020 0.256170
C163 C 0.641200 0.586510 0.861920
C164 C 0.676840 0.581360 0.774810
C165 C 0.781800 0.541780 0.737900
C166 C 0.552960 0.857830 0.215190
N167 N 1.369640 0.743650 0.624000
N168 N 0.531830 0.624920 0.895750
N169 N 1.001220 0.199140 0.967400
N170 N -0.369640 0.256350 0.376000
N171 N 0.468170 0.375080 0.104250
N172 N 1.013410 1.168020 0.149190
N173 N -0.001220 0.800860 0.032600
N174 N -0.013410 -0.168020 0.850810
O175 O 0.597340 0.694020 0.112860
O176 O 0.524130 0.977920 0.373060
O177 O 0.186080 0.995820 0.151360
O178 O 0.813920 0.004180 0.848640
O179 O 0.000770 -0.198440 0.674510
O180 O 0.402660 0.305980 0.887140
O181 O 0.475870 0.022080 0.626940
O182 O 0.223250 0.672300 0.414780
O183 O -0.121350 0.526050 0.130130
O184 O 0.403080 0.383080 0.268560
O185 O 0.999230 1.198440 0.325490
O186 O -0.359880 0.200020 0.193120
O187 O 0.776750 0.327700 0.585220
O188 O 1.121350 0.473950 0.869870
O189 O 0.596920 0.616920 0.731440
O190 O 1.359880 0.799980 0.806880

#END
