./LABBUO_from_xyz.cif_generated_by_CrystalShift
_symmetry_cell_setting triclinic
_symmetry_space_group_name_H-M 'P 1'
loop_
_symmetry_equiv_pos_site_id
_symmetry_equiv_pos_as_xyz
1 x,y,z
_cell_length_a 6.507900
_cell_length_b 21.597700
_cell_length_c 23.101400
_cell_angle_alpha 90.000000
_cell_angle_beta 90.000000
_cell_angle_gamma 90.000000
_cell_volume 3247.032797
loop_
_atom_site_label
_atom_site_type_symbol
_atom_site_fract_x
_atom_site_fract_y
_atom_site_fract_z
Cl1 Cl 0.358830 0.992180 1.206310
O2 O 1.049300 1.222110 0.960570
H3 H 1.124000 1.217600 0.982700
O4 O 0.307300 0.740890 0.880270
O5 O 1.098300 1.126330 1.040780
C6 C 0.907900 1.053050 0.975270
H7 H 0.876000 1.028800 1.007600
H8 H 1.038000 1.037300 0.959800
C9 C 0.953900 1.118900 0.993410
C10 C 1.007200 1.160050 0.942800
H11 H 1.141000 1.139200 0.925400
C12 C 0.847100 1.160910 0.893650
C13 C 0.790700 1.092130 0.879620
H14 H 0.925000 1.072600 0.863800
C15 C 0.730600 1.049690 0.931310
C16 C 0.719800 0.981380 0.908270
H17 H 0.863000 0.973700 0.897300
C18 C 0.586000 0.969350 0.853050
C19 C 0.639600 1.018330 0.807240
H20 H 0.769000 1.012300 0.794200
H21 H 0.559000 1.014000 0.775600
C22 C 0.637300 1.084770 0.829680
H23 H 0.496000 1.098500 0.841400
H24 H 0.675000 1.112700 0.797800
C25 C 0.669800 0.933630 0.955010
H26 H 0.524000 0.937000 0.966800
H27 H 0.759000 0.940100 0.990600
C28 C 0.704400 0.867480 0.933350
H29 H 0.658000 0.839200 0.962300
H30 H 0.854000 0.862400 0.926600
C31 C 0.586600 0.853790 0.878160
H32 H 0.444000 0.855400 0.886000
C33 C 0.634500 0.901500 0.829870
C34 C 0.501300 0.885540 0.776500
H35 H 0.534000 0.914100 0.743800
H36 H 0.354000 0.890100 0.785500
C37 C 0.534900 0.819800 0.753830
H38 H 0.441000 0.810500 0.723600
H39 H 0.663000 0.817700 0.735300
C40 C 0.516300 0.770220 0.800360
C41 C 0.621800 0.786670 0.857860
H42 H 0.764000 0.781500 0.856500
C43 C 0.521600 0.738040 0.896640
H44 H 0.535000 0.748000 0.939800
C45 C 0.603800 0.672130 0.885620
C46 C 0.561200 0.655710 0.821870
H47 H 0.634000 0.622600 0.814400
H48 H 0.417000 0.640600 0.818200
C49 C 0.604400 0.708160 0.779850
H50 H 0.551000 0.695400 0.741900
H51 H 0.759000 0.716500 0.775500
C52 C 0.662600 1.202150 0.908900
H53 H 0.611000 1.195700 0.949400
H54 H 0.554000 1.195900 0.879200
H55 H 0.696000 1.244000 0.909600
C56 C 0.954000 1.189460 0.840540
H57 H 0.867000 1.196200 0.808500
H58 H 1.087000 1.161400 0.829000
H59 H 1.017000 1.231700 0.850400
C60 C 0.531400 1.069670 0.962310
H61 H 0.553000 1.105000 0.987200
H62 H 0.423000 1.078700 0.933900
H63 H 0.472000 1.037000 0.986200
C64 C 0.354000 0.975650 0.865680
H65 H 0.284000 0.967300 0.829800
H66 H 0.318000 1.016800 0.874600
H67 H 0.300000 0.951000 0.897000
C68 C 0.861400 0.895470 0.811260
H69 H 0.898000 0.853600 0.801700
H70 H 0.893000 0.920400 0.781700
H71 H 0.952000 0.904400 0.840800
C72 C 0.296200 0.760930 0.821480
H73 H 0.200000 0.735600 0.798000
H74 H 0.194000 0.800200 0.817200
C75 C 0.832700 0.668520 0.900530
H76 H 0.869000 0.626500 0.900000
H77 H 0.850000 0.686100 0.940600
H78 H 0.916000 0.688200 0.874200
C79 C 0.488900 0.626990 0.925030
H80 H 0.344000 0.632400 0.918000
H81 H 0.532000 0.631900 0.962800
H82 H 0.528000 0.582100 0.913500
C83 C 0.887100 1.144440 1.050020
H84 H 0.865000 1.190000 1.050700
C85 C 0.767100 1.108210 1.092640
C86 C 0.570700 1.128390 1.107070
H87 H 0.520000 1.166300 1.089600
C88 C 0.446400 1.093010 1.142080
H89 H 0.309000 1.105200 1.153700
C90 C 0.518900 1.037980 1.163380
C91 C 0.715600 1.017910 1.151910
H92 H 0.759000 0.982300 1.166500
C93 C 0.839800 1.053320 1.116570
H94 H 0.978000 1.041500 1.107600
Cl95 Cl 1.141170 0.007820 0.706310
O96 O 0.450700 -0.222110 0.460570
H97 H 0.376000 -0.217600 0.482700
O98 O 1.192700 0.259110 0.380270
O99 O 0.401700 -0.126330 0.540780
C100 C 0.592100 -0.053050 0.475270
H101 H 0.624000 -0.028800 0.507600
H102 H 0.462000 -0.037300 0.459800
C103 C 0.546100 -0.118900 0.493410
C104 C 0.492800 -0.160050 0.442800
H105 H 0.359000 -0.139200 0.425400
C106 C 0.652900 -0.160910 0.393650
C107 C 0.709300 -0.092130 0.379620
H108 H 0.575000 -0.072600 0.363800
C109 C 0.769400 -0.049690 0.431310
C110 C 0.780200 0.018620 0.408270
H111 H 0.637000 0.026300 0.397300
C112 C 0.914000 0.030650 0.353050
C113 C 0.860400 -0.018330 0.307240
H114 H 0.731000 -0.012300 0.294200
H115 H 0.941000 -0.014000 0.275600
C116 C 0.862700 -0.084770 0.329680
H117 H 1.004000 -0.098500 0.341400
H118 H 0.825000 -0.112700 0.297800
C119 C 0.830200 0.066370 0.455010
H120 H 0.976000 0.063000 0.466800
H121 H 0.741000 0.059900 0.490600
C122 C 0.795600 0.132520 0.433350
H123 H 0.842000 0.160800 0.462300
H124 H 0.646000 0.137600 0.426600
C125 C 0.913400 0.146210 0.378160
H126 H 1.056000 0.144600 0.386000
C127 C 0.865500 0.098500 0.329870
C128 C 0.998700 0.114460 0.276500
H129 H 0.966000 0.085900 0.243800
H130 H 1.146000 0.109900 0.285500
C131 C 0.965100 0.180200 0.253830
H132 H 1.059000 0.189500 0.223600
H133 H 0.837000 0.182300 0.235300
C134 C 0.983700 0.229780 0.300360
C135 C 0.878200 0.213330 0.357860
H136 H 0.736000 0.218500 0.356500
C137 C 0.978400 0.261960 0.396640
H138 H 0.965000 0.252000 0.439800
C139 C 0.896200 0.327870 0.385620
C140 C 0.938800 0.344290 0.321870
H141 H 0.866000 0.377400 0.314400
H142 H 1.083000 0.359400 0.318200
C143 C 0.895600 0.291840 0.279850
H144 H 0.949000 0.304600 0.241900
H145 H 0.741000 0.283500 0.275500
C146 C 0.837400 -0.202150 0.408900
H147 H 0.889000 -0.195700 0.449400
H148 H 0.946000 -0.195900 0.379200
H149 H 0.804000 -0.244000 0.409600
C150 C 0.546000 -0.189460 0.340540
H151 H 0.633000 -0.196200 0.308500
H152 H 0.413000 -0.161400 0.329000
H153 H 0.483000 -0.231700 0.350400
C154 C 0.968600 -0.069670 0.462310
H155 H 0.947000 -0.105000 0.487200
H156 H 1.077000 -0.078700 0.433900
H157 H 1.028000 -0.037000 0.486200
C158 C 1.146000 0.024350 0.365680
H159 H 1.216000 0.032700 0.329800
H160 H 1.182000 -0.016800 0.374600
H161 H 1.200000 0.049000 0.397000
C162 C 0.638600 0.104530 0.311260
H163 H 0.602000 0.146400 0.301700
H164 H 0.607000 0.079600 0.281700
H165 H 0.548000 0.095600 0.340800
C166 C 1.203800 0.239070 0.321480
H167 H 1.300000 0.264400 0.298000
H168 H 1.306000 0.199800 0.317200
C169 C 0.667300 0.331480 0.400530
H170 H 0.631000 0.373500 0.400000
H171 H 0.650000 0.313900 0.440600
H172 H 0.584000 0.311800 0.374200
C173 C 1.011100 0.373010 0.425030
H174 H 1.156000 0.367600 0.418000
H175 H 0.968000 0.368100 0.462800
H176 H 0.972000 0.417900 0.413500
C177 C 0.612900 -0.144440 0.550020
H178 H 0.635000 -0.190000 0.550700
C179 C 0.732900 -0.108210 0.592640
C180 C 0.929300 -0.128390 0.607070
H181 H 0.980000 -0.166300 0.589600
C182 C 1.053600 -0.093010 0.642080
H183 H 1.191000 -0.105200 0.653700
C184 C 0.981100 -0.037980 0.663380
C185 C 0.784400 -0.017910 0.651910
H186 H 0.741000 0.017700 0.666500
C187 C 0.660200 -0.053320 0.616570
H188 H 0.522000 -0.041500 0.607600
Cl189 Cl 0.641170 0.492180 0.293690
O190 O -0.049300 0.722110 0.539430
H191 H -0.124000 0.717600 0.517300
O192 O 0.692700 0.240890 0.619730
O193 O -0.098300 0.626330 0.459220
C194 C 0.092100 0.553050 0.524730
H195 H 0.124000 0.528800 0.492400
H196 H -0.038000 0.537300 0.540200
C197 C 0.046100 0.618900 0.506590
C198 C -0.007200 0.660050 0.557200
H199 H -0.141000 0.639200 0.574600
C200 C 0.152900 0.660910 0.606350
C201 C 0.209300 0.592130 0.620380
H202 H 0.075000 0.572600 0.636200
C203 C 0.269400 0.549690 0.568690
C204 C 0.280200 0.481380 0.591730
H205 H 0.137000 0.473700 0.602700
C206 C 0.414000 0.469350 0.646950
C207 C 0.360400 0.518330 0.692760
H208 H 0.231000 0.512300 0.705800
H209 H 0.441000 0.514000 0.724400
C210 C 0.362700 0.584770 0.670320
H211 H 0.504000 0.598500 0.658600
H212 H 0.325000 0.612700 0.702200
C213 C 0.330200 0.433630 0.544990
H214 H 0.476000 0.437000 0.533200
H215 H 0.241000 0.440100 0.509400
C216 C 0.295600 0.367480 0.566650
H217 H 0.342000 0.339200 0.537700
H218 H 0.146000 0.362400 0.573400
C219 C 0.413400 0.353790 0.621840
H220 H 0.556000 0.355400 0.614000
C221 C 0.365500 0.401500 0.670130
C222 C 0.498700 0.385540 0.723500
H223 H 0.466000 0.414100 0.756200
H224 H 0.646000 0.390100 0.714500
C225 C 0.465100 0.319800 0.746170
H226 H 0.559000 0.310500 0.776400
H227 H 0.337000 0.317700 0.764700
C228 C 0.483700 0.270220 0.699640
C229 C 0.378200 0.286670 0.642140
H230 H 0.236000 0.281500 0.643500
C231 C 0.478400 0.238040 0.603360
H232 H 0.465000 0.248000 0.560200
C233 C 0.396200 0.172130 0.614380
C234 C 0.438800 0.155710 0.678130
H235 H 0.366000 0.122600 0.685600
H236 H 0.583000 0.140600 0.681800
C237 C 0.395600 0.208160 0.720150
H238 H 0.449000 0.195400 0.758100
H239 H 0.241000 0.216500 0.724500
C240 C 0.337400 0.702150 0.591100
H241 H 0.389000 0.695700 0.550600
H242 H 0.446000 0.695900 0.620800
H243 H 0.304000 0.744000 0.590400
C244 C 0.046000 0.689460 0.659460
H245 H 0.133000 0.696200 0.691500
H246 H -0.087000 0.661400 0.671000
H247 H -0.017000 0.731700 0.649600
C248 C 0.468600 0.569670 0.537690
H249 H 0.447000 0.605000 0.512800
H250 H 0.577000 0.578700 0.566100
H251 H 0.528000 0.537000 0.513800
C252 C 0.646000 0.475650 0.634320
H253 H 0.716000 0.467300 0.670200
H254 H 0.682000 0.516800 0.625400
H255 H 0.700000 0.451000 0.603000
C256 C 0.138600 0.395470 0.688740
H257 H 0.102000 0.353600 0.698300
H258 H 0.107000 0.420400 0.718300
H259 H 0.048000 0.404400 0.659200
C260 C 0.703800 0.260930 0.678520
H261 H 0.800000 0.235600 0.702000
H262 H 0.806000 0.300200 0.682800
C263 C 0.167300 0.168520 0.599470
H264 H 0.131000 0.126500 0.600000
H265 H 0.150000 0.186100 0.559400
H266 H 0.084000 0.188200 0.625800
C267 C 0.511100 0.126990 0.574970
H268 H 0.656000 0.132400 0.582000
H269 H 0.468000 0.131900 0.537200
H270 H 0.472000 0.082100 0.586500
C271 C 0.112900 0.644440 0.449980
H272 H 0.135000 0.690000 0.449300
C273 C 0.232900 0.608210 0.407360
C274 C 0.429300 0.628390 0.392930
H275 H 0.480000 0.666300 0.410400
C276 C 0.553600 0.593010 0.357920
H277 H 0.691000 0.605200 0.346300
C278 C 0.481100 0.537980 0.336620
C279 C 0.284400 0.517910 0.348090
H280 H 0.241000 0.482300 0.333500
C281 C 0.160200 0.553320 0.383430
H282 H 0.022000 0.541500 0.392400
Cl283 Cl -0.141170 0.507820 -0.206310
O284 O 0.549300 0.277890 0.039430
H285 H 0.624000 0.282400 0.017300
O286 O -0.192700 0.759110 0.119730
O287 O 0.598300 0.373670 -0.040780
C288 C 0.407900 0.446950 0.024730
H289 H 0.376000 0.471200 -0.007600
H290 H 0.538000 0.462700 0.040200
C291 C 0.453900 0.381100 0.006590
C292 C 0.507200 0.339950 0.057200
H293 H 0.641000 0.360800 0.074600
C294 C 0.347100 0.339090 0.106350
C295 C 0.290700 0.407870 0.120380
H296 H 0.425000 0.427400 0.136200
C297 C 0.230600 0.450310 0.068690
C298 C 0.219800 0.518620 0.091730
H299 H 0.363000 0.526300 0.102700
C300 C 0.086000 0.530650 0.146950
C301 C 0.139600 0.481670 0.192760
H302 H 0.269000 0.487700 0.205800
H303 H 0.059000 0.486000 0.224400
C304 C 0.137300 0.415230 0.170320
H305 H -0.004000 0.401500 0.158600
H306 H 0.175000 0.387300 0.202200
C307 C 0.169800 0.566370 0.044990
H308 H 0.024000 0.563000 0.033200
H309 H 0.259000 0.559900 0.009400
C310 C 0.204400 0.632520 0.066650
H311 H 0.158000 0.660800 0.037700
H312 H 0.354000 0.637600 0.073400
C313 C 0.086600 0.646210 0.121840
H314 H -0.056000 0.644600 0.114000
C315 C 0.134500 0.598500 0.170130
C316 C 0.001300 0.614460 0.223500
H317 H 0.034000 0.585900 0.256200
H318 H -0.146000 0.609900 0.214500
C319 C 0.034900 0.680200 0.246170
H320 H -0.059000 0.689500 0.276400
H321 H 0.163000 0.682300 0.264700
C322 C 0.016300 0.729780 0.199640
C323 C 0.121800 0.713330 0.142140
H324 H 0.264000 0.718500 0.143500
C325 C 0.021600 0.761960 0.103360
H326 H 0.035000 0.752000 0.060200
C327 C 0.103800 0.827870 0.114380
C328 C 0.061200 0.844290 0.178130
H329 H 0.134000 0.877400 0.185600
H330 H -0.083000 0.859400 0.181800
C331 C 0.104400 0.791840 0.220150
H332 H 0.051000 0.804600 0.258100
H333 H 0.259000 0.783500 0.224500
C334 C 0.162600 0.297850 0.091100
H335 H 0.111000 0.304300 0.050600
H336 H 0.054000 0.304100 0.120800
H337 H 0.196000 0.256000 0.090400
C338 C 0.454000 0.310540 0.159460
H339 H 0.367000 0.303800 0.191500
H340 H 0.587000 0.338600 0.171000
H341 H 0.517000 0.268300 0.149600
C342 C 0.031400 0.430330 0.037690
H343 H 0.053000 0.395000 0.012800
H344 H -0.077000 0.421300 0.066100
H345 H -0.028000 0.463000 0.013800
C346 C -0.146000 0.524350 0.134320
H347 H -0.216000 0.532700 0.170200
H348 H -0.182000 0.483200 0.125400
H349 H -0.200000 0.549000 0.103000
C350 C 0.361400 0.604530 0.188740
H351 H 0.398000 0.646400 0.198300
H352 H 0.393000 0.579600 0.218300
H353 H 0.452000 0.595600 0.159200
C354 C -0.203800 0.739070 0.178520
H355 H -0.300000 0.764400 0.202000
H356 H -0.306000 0.699800 0.182800
C357 C 0.332700 0.831480 0.099470
H358 H 0.369000 0.873500 0.100000
H359 H 0.350000 0.813900 0.059400
H360 H 0.416000 0.811800 0.125800
C361 C -0.011100 0.873010 0.074970
H362 H -0.156000 0.867600 0.082000
H363 H 0.032000 0.868100 0.037200
H364 H 0.028000 0.917900 0.086500
C365 C 0.387100 0.355560 -0.050020
H366 H 0.365000 0.310000 -0.050700
C367 C 0.267100 0.391790 -0.092640
C368 C 0.070700 0.371610 -0.107070
H369 H 0.020000 0.333700 -0.089600
C370 C -0.053600 0.406990 -0.142080
H371 H -0.191000 0.394800 -0.153700
C372 C 0.018900 0.462020 -0.163380
C373 C 0.215600 0.482090 -0.151910
H374 H 0.259000 0.517700 -0.166500
C375 C 0.339800 0.446680 -0.116570
H376 H 0.478000 0.458500 -0.107600

#END
