
#######################################################################
#
#                 Cambridge Crystallographic Data Centre
#                                CCDC 
#
#######################################################################
#
# If this CIF has been generated from an entry in the Cambridge 
# Structural Database, then it will include bibliographic, chemical, 
# crystal, experimental, refinement or atomic coordinate data resulting 
# from the CCDC's data processing and validation procedures.
#
#######################################################################

data_LABBEW
_symmetry_cell_setting           monoclinic
_symmetry_space_group_name_H-M   'P 21'
_symmetry_Int_Tables_number      4
_space_group_name_Hall           'P 2yb'
loop_
_symmetry_equiv_pos_site_id
_symmetry_equiv_pos_as_xyz
1 x,y,z
2 -x,1/2+y,-z
_cell_length_a                   6.3780(10)
_cell_length_b                   19.449(5)
_cell_length_c                   11.752(3)
_cell_angle_alpha                90
_cell_angle_beta                 103.00(2)
_cell_angle_gamma                90
_cell_volume                     1420.42
loop_
_atom_site_label
_atom_site_type_symbol
_atom_site_fract_x
_atom_site_fract_y
_atom_site_fract_z
Si1 Si 0.1995(3) 0.96663(10) 0.55013(16)
O1 O 0.1024(6) 0.68376(19) 0.7961(3)
O2 O 0.3837(10) 0.6117(3) 0.8247(6)
O3 O 0.3870(7) 0.7665(2) 0.9347(3)
O4 O 0.2457(7) 0.8689(2) 0.8574(3)
O5 O 0.1098(6) 0.9022(2) 0.6189(3)
O6 O -0.0448(5) 0.7587(2) 0.5551(3)
O7 O -0.3529(7) 0.7502(4) 0.6136(4)
C1 C 0.2188(9) 0.7276(3) 0.7347(4)
H1 H 0.2781 0.7002 0.6793
C2 C 0.4022(9) 0.7676(3) 0.8161(4)
H2 H 0.5435 0.7516 0.8077
C3 C 0.3648(9) 0.8426(3) 0.7786(5)
H3 H 0.4991 0.8677 0.7817
C4 C 0.2208(8) 0.8401(3) 0.6565(5)
H4 H 0.3064 0.8267 0.6006
C5 C 0.0677(9) 0.7825(3) 0.6684(4)
H5 H -0.0344 0.7977 0.7142
C6 C 0.2122(10) 0.6275(3) 0.8443(5)
C7 C 0.1067(10) 0.5910(3) 0.9267(5)
C8 C 0.2077(13) 0.5341(4) 0.9853(7)
H6 H 0.3360 0.5187 0.9691
C9 C 0.1240(19) 0.5002(4) 1.0655(8)
H7 H 0.1957 0.4629 1.1059
C10 C -0.072(2) 0.5225(5) 1.0863(8)
H8 H -0.1307 0.5000 1.1417
C11 C -0.1777(15) 0.5759(5) 1.0275(7)
H9 H -0.3109 0.5890 1.0403
C12 C -0.0880(11) 0.6121(4) 0.9470(5)
H10 H -0.1590 0.6499 0.9077
C13 C 0.3028(10) 0.8301(3) 0.9632(5)
C14 C 0.1019(12) 0.8175(5) 1.0069(7)
H11 H -0.0001 0.7927 0.9490
H12 H 0.0408 0.8608 1.0219
H13 H 0.1369 0.7912 1.0777
C15 C 0.4751(12) 0.8671(4) 1.0531(6)
H14 H 0.5128 0.8398 1.1228
H15 H 0.4209 0.9108 1.0713
H16 H 0.6003 0.8740 1.0219
C16 C 0.1594(14) 0.9456(4) 0.3912(7)
C17 C 0.286(2) 0.8794(6) 0.3742(8)
H17 H 0.2666 0.8699 0.2924
H18 H 0.2336 0.8413 0.4119
H19 H 0.4364 0.8861 0.4080
C18 C -0.0776(18) 0.9326(7) 0.3365(9)
H20 H -0.0916 0.9142 0.2594
H21 H -0.1558 0.9751 0.3320
H22 H -0.1346 0.9004 0.3836
C19 C 0.2489(19) 1.0092(7) 0.3328(11)
H23 H 0.4019 1.0124 0.3617
H24 H 0.1821 1.0506 0.3517
H25 H 0.2171 1.0033 0.2496
C20 C 0.0315(18) 1.0430(4) 0.5653(10)
H26 H -0.1165 1.0294 0.5535
H27 H 0.0457 1.0769 0.5081
H28 H 0.0787 1.0621 0.6421
C21 C 0.4832(16) 0.9844(6) 0.6186(10)
H29 H 0.5001 0.9882 0.7016
H30 H 0.5261 1.0267 0.5885
H31 H 0.5715 0.9476 0.6015
C22 C -0.2540(9) 0.7443(3) 0.5394(5)
C23 C -0.3521(9) 0.7214(3) 0.4189(5)
C24 C -0.2421(11) 0.7276(4) 0.3295(5)
H32 H -0.1033 0.7453 0.3442
C25 C -0.3443(14) 0.7066(4) 0.2180(6)
H33 H -0.2733 0.7105 0.1574
C26 C -0.5458(15) 0.6806(5) 0.1964(7)
H34 H -0.6124 0.6675 0.1208
C27 C -0.6543(13) 0.6730(5) 0.2850(8)
H35 H -0.7911 0.6536 0.2696
C28 C -0.5583(10) 0.6944(4) 0.3961(6)
H36 H -0.6318 0.6908 0.4558
Si1 Si 0.8005(3) 0.46663(10) 0.44987(16)
O1 O 0.8976(6) 0.18376(19) 0.2039(3)
O2 O 0.6163(10) 0.1117(3) 0.1753(6)
O3 O 0.6130(7) 0.2665(2) 0.0653(3)
O4 O 0.7543(7) 0.3689(2) 0.1426(3)
O5 O 0.8902(6) 0.4022(2) 0.3811(3)
O6 O 1.0448(5) 0.2587(2) 0.4449(3)
O7 O 1.3529(7) 0.2502(4) 0.3864(4)
C1 C 0.7812(9) 0.2276(3) 0.2653(4)
H1 H 0.7219 0.2002 0.3207
C2 C 0.5978(9) 0.2676(3) 0.1839(4)
H2 H 0.4565 0.2516 0.1923
C3 C 0.6352(9) 0.3426(3) 0.2214(5)
H3 H 0.5009 0.3677 0.2183
C4 C 0.7792(8) 0.3401(3) 0.3435(5)
H4 H 0.6936 0.3267 0.3994
C5 C 0.9323(9) 0.2825(3) 0.3316(4)
H5 H 1.0344 0.2977 0.2858
C6 C 0.7878(10) 0.1275(3) 0.1557(5)
C7 C 0.8933(10) 0.0910(3) 0.0733(5)
C8 C 0.7923(13) 0.0341(4) 0.0147(7)
H6 H 0.6640 0.0187 0.0309
C9 C 0.8760(19) 0.0002(4) -0.0655(8)
H7 H 0.8043 -0.0371 -0.1059
C10 C 1.072(2) 0.0225(5) -0.0863(8)
H8 H 1.1307 0.0000 -0.1417
C11 C 1.1777(15) 0.0759(5) -0.0275(7)
H9 H 1.3109 0.0890 -0.0403
C12 C 1.0880(11) 0.1121(4) 0.0530(5)
H10 H 1.1590 0.1499 0.0923
C13 C 0.6972(10) 0.3301(3) 0.0368(5)
C14 C 0.8981(12) 0.3175(5) -0.0069(7)
H11 H 1.0001 0.2927 0.0510
H12 H 0.9592 0.3608 -0.0219
H13 H 0.8631 0.2912 -0.0777
C15 C 0.5249(12) 0.3671(4) -0.0531(6)
H14 H 0.4872 0.3398 -0.1228
H15 H 0.5791 0.4108 -0.0713
H16 H 0.3997 0.3740 -0.0219
C16 C 0.8406(14) 0.4456(4) 0.6088(7)
C17 C 0.714(2) 0.3794(6) 0.6258(8)
H17 H 0.7334 0.3699 0.7076
H18 H 0.7664 0.3413 0.5881
H19 H 0.5636 0.3861 0.5920
C18 C 1.0776(18) 0.4326(7) 0.6635(9)
H20 H 1.0916 0.4142 0.7406
H21 H 1.1558 0.4751 0.6680
H22 H 1.1346 0.4004 0.6164
C19 C 0.7511(19) 0.5092(7) 0.6672(11)
H23 H 0.5981 0.5124 0.6383
H24 H 0.8179 0.5506 0.6483
H25 H 0.7829 0.5033 0.7504
C20 C 0.9685(18) 0.5430(4) 0.4347(10)
H26 H 1.1165 0.5294 0.4465
H27 H 0.9543 0.5769 0.4919
H28 H 0.9213 0.5621 0.3579
C21 C 0.5168(16) 0.4844(6) 0.3814(10)
H29 H 0.4999 0.4882 0.2984
H30 H 0.4739 0.5267 0.4115
H31 H 0.4285 0.4476 0.3985
C22 C 1.2540(9) 0.2443(3) 0.4606(5)
C23 C 1.3521(9) 0.2214(3) 0.5811(5)
C24 C 1.2421(11) 0.2276(4) 0.6705(5)
H32 H 1.1033 0.2453 0.6558
C25 C 1.3443(14) 0.2066(4) 0.7820(6)
H33 H 1.2733 0.2105 0.8426
C26 C 1.5458(15) 0.1806(5) 0.8036(7)
H34 H 1.6124 0.1675 0.8792
C27 C 1.6543(13) 0.1730(5) 0.7150(8)
H35 H 1.7911 0.1536 0.7304
C28 C 1.5583(10) 0.1944(4) 0.6039(6)
H36 H 1.6318 0.1908 0.5442

#END
