
#######################################################################
#
#                 Cambridge Crystallographic Data Centre
#                                CCDC 
#
#######################################################################
#
# If this CIF has been generated from an entry in the Cambridge 
# Structural Database, then it will include bibliographic, chemical, 
# crystal, experimental, refinement or atomic coordinate data resulting 
# from the CCDC's data processing and validation procedures.
#
#######################################################################

data_LABBEY
_symmetry_cell_setting           triclinic
_symmetry_space_group_name_H-M   'P -1'
_symmetry_Int_Tables_number      2
_space_group_name_Hall           '-P 1'
loop_
_symmetry_equiv_pos_site_id
_symmetry_equiv_pos_as_xyz
1 x,y,z
2 -x,-y,-z
_cell_length_a                   6.2122(9)
_cell_length_b                   10.4065(16)
_cell_length_c                   16.550(3)
_cell_angle_alpha                107.774(4)
_cell_angle_beta                 92.959(5)
_cell_angle_gamma                100.506(4)
_cell_volume                     995.165
loop_
_atom_site_label
_atom_site_type_symbol
_atom_site_fract_x
_atom_site_fract_y
_atom_site_fract_z
P1 P 0.804448(19) 0.575994(12) 0.266064(8)
O1 O 1.03839(6) 0.60586(4) 0.30071(3)
O2 O 0.66591(7) 0.62282(4) 0.41477(3)
O3 O 0.75225(7) 1.23104(4) 0.38123(3)
F1 F 0.37790(5) 0.52590(4) 0.15357(3)
F2 F 0.29437(6) 0.61735(4) 0.02237(3)
F3 F 0.62620(8) 0.77212(5) -0.02929(3)
F4 F 1.04059(7) 0.83540(4) 0.05183(3)
F5 F 1.12671(5) 0.75064(4) 0.18368(3)
F6 F 0.35681(6) 0.39487(4) 0.29280(3)
F7 F 0.21840(6) 0.12499(4) 0.22857(3)
F8 F 0.47285(7) -0.03446(4) 0.13092(3)
F9 F 0.86247(7) 0.08470(4) 0.09333(3)
F10 F 0.99841(6) 0.36030(4) 0.15069(3)
C1 C 0.75547(7) 0.63317(4) 0.17395(3)
C2 C 0.54457(7) 0.60305(5) 0.13037(3)
C3 C 0.49839(8) 0.64912(5) 0.06268(3)
C4 C 0.66738(9) 0.72735(5) 0.03582(3)
C5 C 0.87905(8) 0.75962(5) 0.07726(3)
C6 C 0.92055(7) 0.71335(5) 0.14570(3)
C7 C 0.68748(7) 0.39069(4) 0.22595(3)
C8 C 0.48750(7) 0.32454(5) 0.24343(3)
C9 C 0.41255(8) 0.18291(5) 0.21076(3)
C10 C 0.54106(8) 0.10180(5) 0.16129(4)
C11 C 0.74123(8) 0.16302(5) 0.14254(3)
C12 C 0.80986(7) 0.30518(5) 0.17375(3)
C13 C 0.62558(7) 0.66059(5) 0.34049(3)
H1 H 0.4778(18) 0.6239(11) 0.3158(7)
C14 C 0.50879(11) 0.66016(7) 0.47320(4)
H2 H 0.5207(19) 0.7552(12) 0.4897(7)
H3 H 0.5390(19) 0.6326(12) 0.5212(7)
H4 H 0.360(2) 0.6159(13) 0.4457(8)
C15 C 0.67167(7) 0.81403(5) 0.35512(3)
C16 C 0.49621(8) 0.87275(5) 0.33814(3)
H5 H 0.3588(19) 0.8201(11) 0.3199(7)
C17 C 0.52816(8) 1.01231(5) 0.34860(4)
H6 H 0.407(2) 1.0505(13) 0.3385(8)
C18 C 0.73816(8) 1.09647(5) 0.37589(3)
C19 C 0.91412(8) 1.04033(5) 0.39562(4)
H7 H 1.057(2) 1.0980(13) 0.4167(8)
C20 C 0.87963(8) 0.89943(5) 0.38508(4)
H8 H 1.0003(19) 0.8605(12) 0.3991(7)
C21 C 0.96047(11) 1.32353(6) 0.41192(5)
H9 H 1.005(2) 1.3323(13) 0.4675(9)
H10 H 0.940(2) 1.4125(13) 0.4112(8)
H11 H 1.070(2) 1.2955(13) 0.3743(8)
P1 P 0.195552(19) 0.424006(12) 0.733936(8)
O1 O -0.03839(6) 0.39414(4) 0.69929(3)
O2 O 0.33409(7) 0.37718(4) 0.58523(3)
O3 O 0.24775(7) -0.23104(4) 0.61877(3)
F1 F 0.62210(5) 0.47410(4) 0.84643(3)
F2 F 0.70563(6) 0.38265(4) 0.97763(3)
F3 F 0.37380(8) 0.22788(5) 1.02929(3)
F4 F -0.04059(7) 0.16460(4) 0.94817(3)
F5 F -0.12671(5) 0.24936(4) 0.81632(3)
F6 F 0.64319(6) 0.60513(4) 0.70720(3)
F7 F 0.78160(6) 0.87501(4) 0.77143(3)
F8 F 0.52715(7) 1.03446(4) 0.86908(3)
F9 F 0.13753(7) 0.91530(4) 0.90667(3)
F10 F 0.00159(6) 0.63970(4) 0.84931(3)
C1 C 0.24453(7) 0.36683(4) 0.82605(3)
C2 C 0.45543(7) 0.39695(5) 0.86963(3)
C3 C 0.50161(8) 0.35088(5) 0.93732(3)
C4 C 0.33262(9) 0.27265(5) 0.96418(3)
C5 C 0.12095(8) 0.24038(5) 0.92274(3)
C6 C 0.07945(7) 0.28665(5) 0.85430(3)
C7 C 0.31252(7) 0.60931(4) 0.77405(3)
C8 C 0.51250(7) 0.67546(5) 0.75657(3)
C9 C 0.58745(8) 0.81709(5) 0.78924(3)
C10 C 0.45894(8) 0.89820(5) 0.83871(4)
C11 C 0.25877(8) 0.83698(5) 0.85746(3)
C12 C 0.19014(7) 0.69482(5) 0.82625(3)
C13 C 0.37442(7) 0.33941(5) 0.65951(3)
H1 H 0.5222(18) 0.3761(11) 0.6842(7)
C14 C 0.49121(11) 0.33984(7) 0.52680(4)
H2 H 0.4793(19) 0.2448(12) 0.5103(7)
H3 H 0.4610(19) 0.3674(12) 0.4788(7)
H4 H 0.640(2) 0.3841(13) 0.5543(8)
C15 C 0.32833(7) 0.18597(5) 0.64488(3)
C16 C 0.50379(8) 0.12725(5) 0.66186(3)
H5 H 0.6412(19) 0.1799(11) 0.6801(7)
C17 C 0.47184(8) -0.01231(5) 0.65140(4)
H6 H 0.593(2) -0.0505(13) 0.6615(8)
C18 C 0.26184(8) -0.09647(5) 0.62411(3)
C19 C 0.08588(8) -0.04033(5) 0.60438(4)
H7 H -0.057(2) -0.0980(13) 0.5833(8)
C20 C 0.12037(8) 0.10057(5) 0.61492(4)
H8 H -0.0003(19) 0.1395(12) 0.6009(7)
C21 C 0.03953(11) -0.32353(6) 0.58808(5)
H9 H -0.005(2) -0.3323(13) 0.5325(9)
H10 H 0.060(2) -0.4125(13) 0.5888(8)
H11 H -0.070(2) -0.2955(13) 0.6257(8)

#END
