
#######################################################################
#
#                 Cambridge Crystallographic Data Centre
#                                CCDC 
#
#######################################################################
#
# If this CIF has been generated from an entry in the Cambridge 
# Structural Database, then it will include bibliographic, chemical, 
# crystal, experimental, refinement or atomic coordinate data resulting 
# from the CCDC's data processing and validation procedures.
#
#######################################################################

data_LABBIC
_symmetry_cell_setting           monoclinic
_symmetry_space_group_name_H-M   'P 21'
_symmetry_Int_Tables_number      4
_space_group_name_Hall           'P 2yb'
loop_
_symmetry_equiv_pos_site_id
_symmetry_equiv_pos_as_xyz
1 x,y,z
2 -x,1/2+y,-z
_cell_length_a                   14.851(2)
_cell_length_b                   6.4337(9)
_cell_length_c                   17.181(2)
_cell_angle_alpha                90
_cell_angle_beta                 108.498(15)
_cell_angle_gamma                90
_cell_volume                     1556.78
loop_
_atom_site_label
_atom_site_type_symbol
_atom_site_fract_x
_atom_site_fract_y
_atom_site_fract_z
Cl1 Cl 0.59843(11) -0.0864(3) 0.62173(8)
O1 O 0.9622(2) 0.7419(7) 0.45295(18)
O2 O 0.22840(19) 1.3055(4) 0.11923(16)
C1 C 0.7080(2) 0.7254(7) 0.3939(2)
H1 H 0.6854 0.8009 0.4330
H2 H 0.6669 0.6059 0.3757
C2 C 0.8061(3) 0.6491(7) 0.4374(2)
C3 C 0.8834(3) 0.7191(7) 0.4065(2)
C4 C 0.8630(3) 0.7405(7) 0.3141(2)
C5 C 0.7543(2) 0.7610(6) 0.2689(2)
H3 H 0.7305 0.6179 0.2610
C6 C 0.6978(2) 0.8684(6) 0.31867(19)
C7 C 0.5909(2) 0.8700(6) 0.26788(16)
H4 H 0.5719 0.7235 0.2640
C8 C 0.5624(2) 0.9459(6) 0.17712(18)
C9 C 0.6270(2) 0.8327(7) 0.13606(19)
H5 H 0.6096 0.6869 0.1300
H6 H 0.6159 0.8897 0.0815
C10 C 0.7311(2) 0.8503(7) 0.1833(2)
H7 H 0.7496 0.9954 0.1870
H8 H 0.7674 0.7772 0.1538
C11 C 0.5288(3) 0.9751(7) 0.31215(19)
H9 H 0.5402 1.1238 0.3143
H10 H 0.5461 0.9239 0.3681
C12 C 0.4232(2) 0.9331(7) 0.26865(18)
H11 H 0.4107 0.7858 0.2716
H12 H 0.3858 1.0076 0.2966
C13 C 0.3931(2) 1.0003(6) 0.17894(18)
H13 H 0.4049 1.1499 0.1779
C14 C 0.4543(2) 0.8908(6) 0.13360(17)
C15 C 0.4197(3) 0.9685(7) 0.04336(17)
H14 H 0.4300 1.1173 0.0427
H15 H 0.4572 0.9025 0.0133
C16 C 0.3158(3) 0.9232(8) 0.00049(19)
H16 H 0.3069 0.7739 -0.0053
H17 H 0.2974 0.9828 -0.0542
C17 C 0.2510(3) 1.0089(6) 0.0460(2)
C18 C 0.2876(2) 0.9660(6) 0.13874(18)
H18 H 0.2709 0.8239 0.1496
C19 C 0.2258(3) 1.1214(6) 0.1665(2)
H19 H 0.2524 1.1495 0.2254
C20 C 0.1223(3) 1.0432(7) 0.1445(3)
C21 C 0.0825(3) 1.0177(8) 0.0511(2)
H20 H 0.0255 0.9333 0.0381
H21 H 0.0644 1.1535 0.0266
C22 C 0.1503(3) 0.9196(8) 0.0127(2)
H22 H 0.1265 0.9407 -0.0462
H23 H 0.1528 0.7710 0.0228
C23 C 0.8995(3) 0.5420(9) 0.2858(3)
H24 H 0.8703 0.4235 0.3019
H25 H 0.9672 0.5337 0.3106
H26 H 0.8841 0.5438 0.2272
C24 C 0.9223(3) 0.9232(8) 0.3006(2)
H27 H 0.9012 1.0492 0.3193
H28 H 0.9150 0.9349 0.2433
H29 H 0.9880 0.9000 0.3309
C25 C 0.7382(3) 1.0815(6) 0.3507(2)
H30 H 0.7988 1.0645 0.3921
H31 H 0.6955 1.1511 0.3739
H32 H 0.7456 1.1627 0.3063
C26 C 0.5801(3) 1.1775(6) 0.1717(2)
H33 H 0.6469 1.2052 0.1943
H34 H 0.5466 1.2530 0.2022
H35 H 0.5580 1.2205 0.1153
C27 C 0.4369(3) 0.6560(6) 0.1303(2)
H36 H 0.3699 0.6295 0.1140
H37 H 0.4670 0.5969 0.1835
H38 H 0.4630 0.5943 0.0913
C28 C 0.2441(3) 1.2447(7) 0.0445(2)
H39 H 0.3024 1.3058 0.0409
H40 H 0.1919 1.2904 -0.0024
C29 C 0.1183(3) 0.8411(8) 0.1892(3)
H41 H 0.1550 0.8550 0.2460
H42 H 0.1439 0.7304 0.1651
H43 H 0.0536 0.8102 0.1846
C30 C 0.0639(3) 1.2049(8) 0.1729(3)
H44 H 0.0892 1.2208 0.2314
H45 H -0.0009 1.1598 0.1583
H46 H 0.0669 1.3357 0.1469
C31 C 0.8302(3) 0.5013(7) 0.4955(2)
H47 H 0.8952 0.4785 0.5178
C32 C 0.7715(3) 0.3696(7) 0.5298(2)
C33 C 0.8099(3) 0.1857(8) 0.5677(2)
H48 H 0.8730 0.1560 0.5737
C34 C 0.7589(4) 0.0451(8) 0.5970(3)
H49 H 0.7869 -0.0769 0.6224
C35 C 0.6661(4) 0.0890(8) 0.5879(2)
C36 C 0.6250(3) 0.2686(8) 0.5534(2)
H50 H 0.5621 0.2964 0.5487
C37 C 0.6776(3) 0.4117(8) 0.5248(2)
H51 H 0.6498 0.5366 0.5022
Cl1 Cl 0.40157(11) -0.5864(3) 0.37827(8)
O1 O 0.0378(2) 0.2419(7) 0.54705(18)
O2 O 0.77160(19) 0.8055(4) 0.88077(16)
C1 C 0.2920(2) 0.2254(7) 0.6061(2)
H1 H 0.3146 0.3009 0.5670
H2 H 0.3331 0.1059 0.6243
C2 C 0.1939(3) 0.1491(7) 0.5626(2)
C3 C 0.1166(3) 0.2191(7) 0.5935(2)
C4 C 0.1370(3) 0.2405(7) 0.6859(2)
C5 C 0.2457(2) 0.2610(6) 0.7311(2)
H3 H 0.2695 0.1179 0.7390
C6 C 0.3022(2) 0.3684(6) 0.68133(19)
C7 C 0.4091(2) 0.3700(6) 0.73212(16)
H4 H 0.4281 0.2235 0.7360
C8 C 0.4376(2) 0.4459(6) 0.82288(18)
C9 C 0.3730(2) 0.3327(7) 0.86394(19)
H5 H 0.3904 0.1869 0.8700
H6 H 0.3841 0.3897 0.9185
C10 C 0.2689(2) 0.3503(7) 0.8167(2)
H7 H 0.2504 0.4954 0.8130
H8 H 0.2326 0.2772 0.8462
C11 C 0.4712(3) 0.4751(7) 0.68785(19)
H9 H 0.4598 0.6238 0.6857
H10 H 0.4539 0.4239 0.6319
C12 C 0.5768(2) 0.4331(7) 0.73135(18)
H11 H 0.5893 0.2858 0.7284
H12 H 0.6142 0.5076 0.7034
C13 C 0.6069(2) 0.5003(6) 0.82106(18)
H13 H 0.5951 0.6499 0.8221
C14 C 0.5457(2) 0.3908(6) 0.86640(17)
C15 C 0.5803(3) 0.4685(7) 0.95664(17)
H14 H 0.5700 0.6173 0.9573
H15 H 0.5428 0.4025 0.9867
C16 C 0.6842(3) 0.4232(8) 0.99951(19)
H16 H 0.6931 0.2739 1.0053
H17 H 0.7026 0.4828 1.0542
C17 C 0.7490(3) 0.5089(6) 0.9540(2)
C18 C 0.7124(2) 0.4660(6) 0.86126(18)
H18 H 0.7291 0.3239 0.8504
C19 C 0.7742(3) 0.6214(6) 0.8335(2)
H19 H 0.7476 0.6495 0.7746
C20 C 0.8777(3) 0.5432(7) 0.8555(3)
C21 C 0.9175(3) 0.5177(8) 0.9489(2)
H20 H 0.9745 0.4333 0.9619
H21 H 0.9356 0.6535 0.9734
C22 C 0.8497(3) 0.4196(8) 0.9873(2)
H22 H 0.8735 0.4407 1.0462
H23 H 0.8472 0.2710 0.9772
C23 C 0.1005(3) 0.0420(9) 0.7142(3)
H24 H 0.1297 -0.0765 0.6981
H25 H 0.0328 0.0337 0.6894
H26 H 0.1159 0.0438 0.7728
C24 C 0.0777(3) 0.4232(8) 0.6994(2)
H27 H 0.0988 0.5492 0.6807
H28 H 0.0850 0.4349 0.7567
H29 H 0.0120 0.4000 0.6691
C25 C 0.2618(3) 0.5815(6) 0.6493(2)
H30 H 0.2012 0.5645 0.6079
H31 H 0.3045 0.6511 0.6261
H32 H 0.2544 0.6627 0.6937
C26 C 0.4199(3) 0.6775(6) 0.8283(2)
H33 H 0.3531 0.7052 0.8057
H34 H 0.4534 0.7530 0.7978
H35 H 0.4420 0.7205 0.8847
C27 C 0.5631(3) 0.1560(6) 0.8697(2)
H36 H 0.6301 0.1295 0.8860
H37 H 0.5330 0.0969 0.8165
H38 H 0.5370 0.0943 0.9087
C28 C 0.7559(3) 0.7447(7) 0.9555(2)
H39 H 0.6976 0.8058 0.9591
H40 H 0.8081 0.7904 1.0024
C29 C 0.8817(3) 0.3411(8) 0.8108(3)
H41 H 0.8450 0.3550 0.7540
H42 H 0.8561 0.2304 0.8349
H43 H 0.9464 0.3102 0.8154
C30 C 0.9361(3) 0.7049(8) 0.8271(3)
H44 H 0.9108 0.7208 0.7686
H45 H 1.0009 0.6598 0.8417
H46 H 0.9331 0.8357 0.8531
C31 C 0.1698(3) 0.0013(7) 0.5045(2)
H47 H 0.1048 -0.0215 0.4822
C32 C 0.2285(3) -0.1304(7) 0.4702(2)
C33 C 0.1901(3) -0.3143(8) 0.4323(2)
H48 H 0.1270 -0.3440 0.4263
C34 C 0.2411(4) -0.4549(8) 0.4030(3)
H49 H 0.2131 -0.5769 0.3776
C35 C 0.3339(4) -0.4110(8) 0.4121(2)
C36 C 0.3750(3) -0.2314(8) 0.4466(2)
H50 H 0.4379 -0.2036 0.4513
C37 C 0.3224(3) -0.0883(8) 0.4752(2)
H51 H 0.3502 0.0366 0.4978

#END
