
#######################################################################
#
#                 Cambridge Crystallographic Data Centre
#                                CCDC 
#
#######################################################################
#
# If this CIF has been generated from an entry in the Cambridge 
# Structural Database, then it will include bibliographic, chemical, 
# crystal, experimental, refinement or atomic coordinate data resulting 
# from the CCDC's data processing and validation procedures.
#
#######################################################################

data_LABCUP
_symmetry_cell_setting           orthorhombic
_symmetry_space_group_name_H-M   'P 21 21 21'
_symmetry_Int_Tables_number      19
_space_group_name_Hall           'P 2ac 2ab'
loop_
_symmetry_equiv_pos_site_id
_symmetry_equiv_pos_as_xyz
1 x,y,z
2 1/2+x,1/2-y,-z
3 -x,1/2+y,1/2-z
4 1/2-x,-y,1/2+z
_cell_length_a                   7.9008(4)
_cell_length_b                   9.1343(5)
_cell_length_c                   25.7027(16)
_cell_angle_alpha                90
_cell_angle_beta                 90
_cell_angle_gamma                90
_cell_volume                     1854.92
loop_
_atom_site_label
_atom_site_type_symbol
_atom_site_fract_x
_atom_site_fract_y
_atom_site_fract_z
O1 O 0.36106(14) 0.48622(12) 0.04958(4)
O2 O 0.45144(19) 0.60238(13) 0.11900(5)
O3 O 0.2686(2) 0.07407(13) -0.02809(4)
O4 O 0.24530(16) -0.01370(12) 0.05243(4)
C1 C 0.4350(2) 0.48630(18) 0.09867(6)
C2 C 0.4882(2) 0.33867(18) 0.11895(6)
H1 H 0.5940 0.3113 0.0999
C3 C 0.3537(2) 0.22611(18) 0.10372(6)
H2 H 0.3903 0.1271 0.1147
H3 H 0.2458 0.2490 0.1215
C4 C 0.3278(2) 0.22916(18) 0.04543(6)
C5 C 0.33515(19) 0.35806(16) 0.02100(6)
C6 C 0.5323(2) 0.34080(18) 0.17682(6)
C7 C 0.4268(2) 0.2761(2) 0.21239(6)
H4 H 0.3223 0.2361 0.2010
C8 C 0.4700(3) 0.2675(2) 0.26579(7)
H5 H 0.3947 0.2223 0.2897
C9 C 0.6189(3) 0.3236(2) 0.28273(6)
H6 H 0.6477 0.3168 0.3185
C10 C 0.7316(2) 0.39215(19) 0.24783(6)
C11 C 0.8893(3) 0.4483(2) 0.26527(7)
H7 H 0.9185 0.4403 0.3010
C12 C 0.9993(3) 0.5132(3) 0.23184(8)
H8 H 1.1036 0.5514 0.2442
C13 C 0.9575(3) 0.5237(2) 0.17851(7)
H9 H 1.0353 0.5677 0.1550
C14 C 0.8072(2) 0.4714(2) 0.16028(6)
H10 H 0.7809 0.4814 0.1244
C15 C 0.6891(2) 0.40219(18) 0.19391(6)
C16 C 0.2799(2) 0.09175(17) 0.01825(6)
C17 C 0.1888(3) -0.15370(19) 0.03143(6)
H11 H 0.2873 -0.2134 0.0205
H12 H 0.1150 -0.1380 0.0008
C18 C 0.0936(2) -0.2292(2) 0.07349(7)
H13 H -0.0034 -0.1691 0.0839
H14 H 0.1681 -0.2442 0.1035
H15 H 0.0534 -0.3243 0.0608
C19 C 0.3059(2) 0.39936(17) -0.03419(6)
C20 C 0.3955(2) 0.33545(18) -0.07496(6)
H16 H 0.4752 0.2601 -0.0680
C21 C 0.3688(2) 0.38141(19) -0.12578(6)
H17 H 0.4306 0.3376 -0.1534
C22 C 0.2522(2) 0.4910(2) -0.13647(6)
H18 H 0.2338 0.5217 -0.1713
C23 C 0.1626(2) 0.55576(19) -0.09624(7)
H19 H 0.0825 0.6307 -0.1034
C24 C 0.1904(2) 0.51051(18) -0.04522(6)
H20 H 0.1300 0.5559 -0.0176
O1 O 0.86106(14) 0.01378(12) 0.95042(4)
O2 O 0.95144(19) -0.10238(13) 0.88100(5)
O3 O 0.7686(2) 0.42593(13) 1.02809(4)
O4 O 0.74530(16) 0.51370(12) 0.94757(4)
C1 C 0.9350(2) 0.01370(18) 0.90133(6)
C2 C 0.9882(2) 0.16133(18) 0.88105(6)
H1 H 1.0940 0.1887 0.9001
C3 C 0.8537(2) 0.27389(18) 0.89628(6)
H2 H 0.8903 0.3729 0.8853
H3 H 0.7458 0.2510 0.8785
C4 C 0.8278(2) 0.27084(18) 0.95457(6)
C5 C 0.83515(19) 0.14194(16) 0.97900(6)
C6 C 1.0323(2) 0.15920(18) 0.82318(6)
C7 C 0.9268(2) 0.2239(2) 0.78761(6)
H4 H 0.8223 0.2639 0.7990
C8 C 0.9700(3) 0.2325(2) 0.73421(7)
H5 H 0.8947 0.2777 0.7103
C9 C 1.1189(3) 0.1764(2) 0.71727(6)
H6 H 1.1477 0.1832 0.6815
C10 C 1.2316(2) 0.10785(19) 0.75217(6)
C11 C 1.3893(3) 0.0517(2) 0.73473(7)
H7 H 1.4185 0.0597 0.6990
C12 C 1.4993(3) -0.0132(3) 0.76816(8)
H8 H 1.6036 -0.0514 0.7558
C13 C 1.4575(3) -0.0237(2) 0.82149(7)
H9 H 1.5353 -0.0677 0.8450
C14 C 1.3072(2) 0.0286(2) 0.83972(6)
H10 H 1.2809 0.0186 0.8756
C15 C 1.1891(2) 0.09781(18) 0.80609(6)
C16 C 0.7799(2) 0.40825(17) 0.98175(6)
C17 C 0.6888(3) 0.65370(19) 0.96857(6)
H11 H 0.7873 0.7134 0.9795
H12 H 0.6150 0.6380 0.9992
C18 C 0.5936(2) 0.7292(2) 0.92651(7)
H13 H 0.4966 0.6691 0.9161
H14 H 0.6681 0.7442 0.8965
H15 H 0.5534 0.8243 0.9392
C19 C 0.8059(2) 0.10064(17) 1.03419(6)
C20 C 0.8955(2) 0.16455(18) 1.07496(6)
H16 H 0.9752 0.2399 1.0680
C21 C 0.8688(2) 0.11859(19) 1.12578(6)
H17 H 0.9306 0.1624 1.1534
C22 C 0.7522(2) 0.0090(2) 1.13647(6)
H18 H 0.7338 -0.0217 1.1713
C23 C 0.6626(2) -0.05576(19) 1.09624(7)
H19 H 0.5825 -0.1307 1.1034
C24 C 0.6904(2) -0.01051(18) 1.04522(6)
H20 H 0.6300 -0.0559 1.0176
O1 O 0.63894(14) 0.98622(12) 0.45042(4)
O2 O 0.54856(19) 1.10238(13) 0.38100(5)
O3 O 0.7314(2) 0.57407(13) 0.52809(4)
O4 O 0.75470(16) 0.48630(12) 0.44757(4)
C1 C 0.5650(2) 0.98630(18) 0.40133(6)
C2 C 0.5118(2) 0.83867(18) 0.38105(6)
H1 H 0.4060 0.8113 0.4001
C3 C 0.6463(2) 0.72611(18) 0.39628(6)
H2 H 0.6097 0.6271 0.3853
H3 H 0.7542 0.7490 0.3785
C4 C 0.6722(2) 0.72916(18) 0.45457(6)
C5 C 0.66485(19) 0.85806(16) 0.47900(6)
C6 C 0.4677(2) 0.84080(18) 0.32318(6)
C7 C 0.5732(2) 0.7761(2) 0.28761(6)
H4 H 0.6777 0.7361 0.2990
C8 C 0.5300(3) 0.7675(2) 0.23421(7)
H5 H 0.6053 0.7223 0.2103
C9 C 0.3811(3) 0.8236(2) 0.21727(6)
H6 H 0.3523 0.8168 0.1815
C10 C 0.2684(2) 0.89215(19) 0.25217(6)
C11 C 0.1107(3) 0.9483(2) 0.23473(7)
H7 H 0.0815 0.9403 0.1990
C12 C 0.0007(3) 1.0132(3) 0.26816(8)
H8 H -0.1036 1.0514 0.2558
C13 C 0.0425(3) 1.0237(2) 0.32149(7)
H9 H -0.0353 1.0677 0.3450
C14 C 0.1928(2) 0.9714(2) 0.33972(6)
H10 H 0.2191 0.9814 0.3756
C15 C 0.3109(2) 0.90219(18) 0.30609(6)
C16 C 0.7201(2) 0.59175(17) 0.48175(6)
C17 C 0.8112(3) 0.34630(19) 0.46857(6)
H11 H 0.7127 0.2866 0.4795
H12 H 0.8850 0.3620 0.4992
C18 C 0.9064(2) 0.2708(2) 0.42651(7)
H13 H 1.0034 0.3309 0.4161
H14 H 0.8319 0.2558 0.3965
H15 H 0.9466 0.1757 0.4392
C19 C 0.6941(2) 0.89936(17) 0.53419(6)
C20 C 0.6045(2) 0.83545(18) 0.57496(6)
H16 H 0.5248 0.7601 0.5680
C21 C 0.6312(2) 0.88141(19) 0.62578(6)
H17 H 0.5694 0.8376 0.6534
C22 C 0.7478(2) 0.9910(2) 0.63647(6)
H18 H 0.7662 1.0217 0.6713
C23 C 0.8374(2) 1.05576(19) 0.59624(7)
H19 H 0.9175 1.1307 0.6034
C24 C 0.8096(2) 1.01051(18) 0.54522(6)
H20 H 0.8700 1.0559 0.5176
O1 O 0.13894(14) 0.51378(12) 0.54958(4)
O2 O 0.04856(19) 0.39762(13) 0.61900(5)
O3 O 0.2314(2) 0.92593(13) 0.47191(4)
O4 O 0.25470(16) 1.01370(12) 0.55243(4)
C1 C 0.0650(2) 0.51370(18) 0.59867(6)
C2 C 0.0118(2) 0.66133(18) 0.61895(6)
H1 H -0.0940 0.6887 0.5999
C3 C 0.1463(2) 0.77389(18) 0.60372(6)
H2 H 0.1097 0.8729 0.6147
H3 H 0.2542 0.7510 0.6215
C4 C 0.1722(2) 0.77084(18) 0.54543(6)
C5 C 0.16485(19) 0.64194(16) 0.52100(6)
C6 C -0.0323(2) 0.65920(18) 0.67682(6)
C7 C 0.0732(2) 0.7239(2) 0.71239(6)
H4 H 0.1777 0.7639 0.7010
C8 C 0.0300(3) 0.7325(2) 0.76579(7)
H5 H 0.1053 0.7777 0.7897
C9 C -0.1189(3) 0.6764(2) 0.78273(6)
H6 H -0.1477 0.6832 0.8185
C10 C -0.2316(2) 0.60785(19) 0.74783(6)
C11 C -0.3893(3) 0.5517(2) 0.76527(7)
H7 H -0.4185 0.5597 0.8010
C12 C -0.4993(3) 0.4868(3) 0.73184(8)
H8 H -0.6036 0.4486 0.7442
C13 C -0.4575(3) 0.4763(2) 0.67851(7)
H9 H -0.5353 0.4323 0.6550
C14 C -0.3072(2) 0.5286(2) 0.66028(6)
H10 H -0.2809 0.5186 0.6244
C15 C -0.1891(2) 0.59781(18) 0.69391(6)
C16 C 0.2201(2) 0.90825(17) 0.51825(6)
C17 C 0.3112(3) 1.15370(19) 0.53143(6)
H11 H 0.2127 1.2134 0.5205
H12 H 0.3850 1.1380 0.5008
C18 C 0.4064(2) 1.2292(2) 0.57349(7)
H13 H 0.5034 1.1691 0.5839
H14 H 0.3319 1.2442 0.6035
H15 H 0.4466 1.3243 0.5608
C19 C 0.1941(2) 0.60064(17) 0.46581(6)
C20 C 0.1045(2) 0.66455(18) 0.42504(6)
H16 H 0.0248 0.7399 0.4320
C21 C 0.1312(2) 0.61859(19) 0.37422(6)
H17 H 0.0694 0.6624 0.3466
C22 C 0.2478(2) 0.5090(2) 0.36353(6)
H18 H 0.2662 0.4783 0.3287
C23 C 0.3374(2) 0.44424(19) 0.40376(7)
H19 H 0.4175 0.3693 0.3966
C24 C 0.3096(2) 0.48949(18) 0.45478(6)
H20 H 0.3700 0.4441 0.4824

#END
