./LABCUP_from_xyz.cif_generated_by_CrystalShift
_symmetry_cell_setting triclinic
_symmetry_space_group_name_H-M 'P 1'
loop_
_symmetry_equiv_pos_site_id
_symmetry_equiv_pos_as_xyz
1 x,y,z
_cell_length_a 7.900800
_cell_length_b 9.134300
_cell_length_c 25.702700
_cell_angle_alpha 90.000000
_cell_angle_beta 90.000000
_cell_angle_gamma 90.000000
_cell_volume 1854.919585
loop_
_atom_site_label
_atom_site_type_symbol
_atom_site_fract_x
_atom_site_fract_y
_atom_site_fract_z
O1 O 0.361060 0.486220 0.049580
O2 O 0.451440 0.602380 0.119000
O3 O 0.268600 0.074070 -0.028090
O4 O 0.245300 -0.013700 0.052430
C5 C 0.435000 0.486300 0.098670
C6 C 0.488200 0.338670 0.118950
H7 H 0.594000 0.311300 0.099900
C8 C 0.353700 0.226110 0.103720
H9 H 0.390300 0.127100 0.114700
H10 H 0.245800 0.249000 0.121500
C11 C 0.327800 0.229160 0.045430
C12 C 0.335150 0.358060 0.021000
C13 C 0.532300 0.340800 0.176820
C14 C 0.426800 0.276100 0.212390
H15 H 0.322300 0.236100 0.201000
C16 C 0.470000 0.267500 0.265790
H17 H 0.394700 0.222300 0.289700
C18 C 0.618900 0.323600 0.282730
H19 H 0.647700 0.316800 0.318500
C20 C 0.731600 0.392150 0.247830
C21 C 0.889300 0.448300 0.265270
H22 H 0.918500 0.440300 0.301000
C23 C 0.999300 0.513200 0.231840
H24 H 1.103600 0.551400 0.244200
C25 C 0.957500 0.523700 0.178510
H26 H 1.035300 0.567700 0.155000
C27 C 0.807200 0.471400 0.160280
H28 H 0.780900 0.481400 0.124400
C29 C 0.689100 0.402190 0.193910
C30 C 0.279900 0.091750 0.018250
C31 C 0.188800 -0.153700 0.031430
H32 H 0.287300 -0.213400 0.020500
H33 H 0.115000 -0.138000 0.000800
C34 C 0.093600 -0.229200 0.073490
H35 H -0.003400 -0.169100 0.083900
H36 H 0.168100 -0.244200 0.103500
H37 H 0.053400 -0.324300 0.060800
C38 C 0.305900 0.399360 -0.034190
C39 C 0.395500 0.335450 -0.074960
H40 H 0.475200 0.260100 -0.068000
C41 C 0.368800 0.381410 -0.125780
H42 H 0.430600 0.337600 -0.153400
C43 C 0.252200 0.491000 -0.136470
H44 H 0.233800 0.521700 -0.171300
C45 C 0.162600 0.555760 -0.096240
H46 H 0.082500 0.630700 -0.103400
C47 C 0.190400 0.510510 -0.045220
H48 H 0.130000 0.555900 -0.017600
O49 O 0.861060 0.013780 0.950420
O50 O 0.951440 -0.102380 0.881000
O51 O 0.768600 0.425930 1.028090
O52 O 0.745300 0.513700 0.947570
C53 C 0.935000 0.013700 0.901330
C54 C 0.988200 0.161330 0.881050
H55 H 1.094000 0.188700 0.900100
C56 C 0.853700 0.273890 0.896280
H57 H 0.890300 0.372900 0.885300
H58 H 0.745800 0.251000 0.878500
C59 C 0.827800 0.270840 0.954570
C60 C 0.835150 0.141940 0.979000
C61 C 1.032300 0.159200 0.823180
C62 C 0.926800 0.223900 0.787610
H63 H 0.822300 0.263900 0.799000
C64 C 0.970000 0.232500 0.734210
H65 H 0.894700 0.277700 0.710300
C66 C 1.118900 0.176400 0.717270
H67 H 1.147700 0.183200 0.681500
C68 C 1.231600 0.107850 0.752170
C69 C 1.389300 0.051700 0.734730
H70 H 1.418500 0.059700 0.699000
C71 C 1.499300 -0.013200 0.768160
H72 H 1.603600 -0.051400 0.755800
C73 C 1.457500 -0.023700 0.821490
H74 H 1.535300 -0.067700 0.845000
C75 C 1.307200 0.028600 0.839720
H76 H 1.280900 0.018600 0.875600
C77 C 1.189100 0.097810 0.806090
C78 C 0.779900 0.408250 0.981750
C79 C 0.688800 0.653700 0.968570
H80 H 0.787300 0.713400 0.979500
H81 H 0.615000 0.638000 0.999200
C82 C 0.593600 0.729200 0.926510
H83 H 0.496600 0.669100 0.916100
H84 H 0.668100 0.744200 0.896500
H85 H 0.553400 0.824300 0.939200
C86 C 0.805900 0.100640 1.034190
C87 C 0.895500 0.164550 1.074960
H88 H 0.975200 0.239900 1.068000
C89 C 0.868800 0.118590 1.125780
H90 H 0.930600 0.162400 1.153400
C91 C 0.752200 0.009000 1.136470
H92 H 0.733800 -0.021700 1.171300
C93 C 0.662600 -0.055760 1.096240
H94 H 0.582500 -0.130700 1.103400
C95 C 0.690400 -0.010510 1.045220
H96 H 0.630000 -0.055900 1.017600
O97 O 0.638940 0.986220 0.450420
O98 O 0.548560 1.102380 0.381000
O99 O 0.731400 0.574070 0.528090
O100 O 0.754700 0.486300 0.447570
C101 C 0.565000 0.986300 0.401330
C102 C 0.511800 0.838670 0.381050
H103 H 0.406000 0.811300 0.400100
C104 C 0.646300 0.726110 0.396280
H105 H 0.609700 0.627100 0.385300
H106 H 0.754200 0.749000 0.378500
C107 C 0.672200 0.729160 0.454570
C108 C 0.664850 0.858060 0.479000
C109 C 0.467700 0.840800 0.323180
C110 C 0.573200 0.776100 0.287610
H111 H 0.677700 0.736100 0.299000
C112 C 0.530000 0.767500 0.234210
H113 H 0.605300 0.722300 0.210300
C114 C 0.381100 0.823600 0.217270
H115 H 0.352300 0.816800 0.181500
C116 C 0.268400 0.892150 0.252170
C117 C 0.110700 0.948300 0.234730
H118 H 0.081500 0.940300 0.199000
C119 C 0.000700 1.013200 0.268160
H120 H -0.103600 1.051400 0.255800
C121 C 0.042500 1.023700 0.321490
H122 H -0.035300 1.067700 0.345000
C123 C 0.192800 0.971400 0.339720
H124 H 0.219100 0.981400 0.375600
C125 C 0.310900 0.902190 0.306090
C126 C 0.720100 0.591750 0.481750
C127 C 0.811200 0.346300 0.468570
H128 H 0.712700 0.286600 0.479500
H129 H 0.885000 0.362000 0.499200
C130 C 0.906400 0.270800 0.426510
H131 H 1.003400 0.330900 0.416100
H132 H 0.831900 0.255800 0.396500
H133 H 0.946600 0.175700 0.439200
C134 C 0.694100 0.899360 0.534190
C135 C 0.604500 0.835450 0.574960
H136 H 0.524800 0.760100 0.568000
C137 C 0.631200 0.881410 0.625780
H138 H 0.569400 0.837600 0.653400
C139 C 0.747800 0.991000 0.636470
H140 H 0.766200 1.021700 0.671300
C141 C 0.837400 1.055760 0.596240
H142 H 0.917500 1.130700 0.603400
C143 C 0.809600 1.010510 0.545220
H144 H 0.870000 1.055900 0.517600
O145 O 0.138940 0.513780 0.549580
O146 O 0.048560 0.397620 0.619000
O147 O 0.231400 0.925930 0.471910
O148 O 0.254700 1.013700 0.552430
C149 C 0.065000 0.513700 0.598670
C150 C 0.011800 0.661330 0.618950
H151 H -0.094000 0.688700 0.599900
C152 C 0.146300 0.773890 0.603720
H153 H 0.109700 0.872900 0.614700
H154 H 0.254200 0.751000 0.621500
C155 C 0.172200 0.770840 0.545430
C156 C 0.164850 0.641940 0.521000
C157 C -0.032300 0.659200 0.676820
C158 C 0.073200 0.723900 0.712390
H159 H 0.177700 0.763900 0.701000
C160 C 0.030000 0.732500 0.765790
H161 H 0.105300 0.777700 0.789700
C162 C -0.118900 0.676400 0.782730
H163 H -0.147700 0.683200 0.818500
C164 C -0.231600 0.607850 0.747830
C165 C -0.389300 0.551700 0.765270
H166 H -0.418500 0.559700 0.801000
C167 C -0.499300 0.486800 0.731840
H168 H -0.603600 0.448600 0.744200
C169 C -0.457500 0.476300 0.678510
H170 H -0.535300 0.432300 0.655000
C171 C -0.307200 0.528600 0.660280
H172 H -0.280900 0.518600 0.624400
C173 C -0.189100 0.597810 0.693910
C174 C 0.220100 0.908250 0.518250
C175 C 0.311200 1.153700 0.531430
H176 H 0.212700 1.213400 0.520500
H177 H 0.385000 1.138000 0.500800
C178 C 0.406400 1.229200 0.573490
H179 H 0.503400 1.169100 0.583900
H180 H 0.331900 1.244200 0.603500
H181 H 0.446600 1.324300 0.560800
C182 C 0.194100 0.600640 0.465810
C183 C 0.104500 0.664550 0.425040
H184 H 0.024800 0.739900 0.432000
C185 C 0.131200 0.618590 0.374220
H186 H 0.069400 0.662400 0.346600
C187 C 0.247800 0.509000 0.363530
H188 H 0.266200 0.478300 0.328700
C189 C 0.337400 0.444240 0.403760
H190 H 0.417500 0.369300 0.396600
C191 C 0.309600 0.489490 0.454780
H192 H 0.370000 0.444100 0.482400

#END
