
#######################################################################
#
#                 Cambridge Crystallographic Data Centre
#                                CCDC 
#
#######################################################################
#
# If this CIF has been generated from an entry in the Cambridge 
# Structural Database, then it will include bibliographic, chemical, 
# crystal, experimental, refinement or atomic coordinate data resulting 
# from the CCDC's data processing and validation procedures.
#
#######################################################################

data_LABDIE
_symmetry_cell_setting           monoclinic
_symmetry_space_group_name_H-M   'C c'
_symmetry_Int_Tables_number      9
_space_group_name_Hall           'C -2yc'
loop_
_symmetry_equiv_pos_site_id
_symmetry_equiv_pos_as_xyz
1 x,y,z
2 x,-y,1/2+z
3 1/2+x,1/2+y,z
4 1/2+x,1/2-y,1/2+z
_cell_length_a                   17.6428(8)
_cell_length_b                   8.7914(4)
_cell_length_c                   9.1043(4)
_cell_angle_alpha                90
_cell_angle_beta                 96.9550(17)
_cell_angle_gamma                90
_cell_volume                     1401.73
loop_
_atom_site_label
_atom_site_type_symbol
_atom_site_fract_x
_atom_site_fract_y
_atom_site_fract_z
C1 C -0.08867(12) 0.2370(3) -0.0108(2)
H1 H -0.1295 0.2948 -0.0605
C2 C -0.08123(12) 0.0850(3) -0.0551(3)
H2 H -0.1161 0.0422 -0.1317
C3 C -0.02280(11) 0.0006(2) 0.0143(2)
H3 H -0.0164 -0.1022 -0.0136
C4 C 0.02824(10) 0.06706(19) 0.1281(2)
C5 C 0.09043(11) -0.0134(2) 0.2051(2)
H4 H 0.0996 -0.116 0.1798
C6 C 0.13713(11) 0.0562(2) 0.3156(2)
H5 H 0.1789 0.0019 0.3665
C7 C 0.12371(10) 0.2092(2) 0.35470(18)
H6 H 0.1565 0.2557 0.4324
C8 C 0.06433(9) 0.29148(18) 0.28268(17)
C9 C 0.01541(9) 0.22122(18) 0.16627(18)
C10 C 0.04758(9) 0.45282(19) 0.32812(19)
H7 H 0.0255 0.5099 0.2394
H8 H 0.0088 0.4497 0.398
C11 C 0.16182(9) 0.60233(18) 0.31410(17)
C12 C 0.22688(9) 0.69028(18) 0.39252(17)
C13 C 0.28416(9) 0.7399(2) 0.3103(2)
H9 H 0.2822 0.7122 0.209
C14 C 0.34372(10) 0.8291(2) 0.3754(2)
H10 H 0.3826 0.8615 0.319
C15 C 0.34669(10) 0.8713(2) 0.5230(2)
H11 H 0.3875 0.9326 0.5676
C16 C 0.28966(11) 0.8233(2) 0.6052(2)
H12 H 0.2913 0.8526 0.706
C17 C 0.23025(10) 0.7327(2) 0.54066(19)
H13 H 0.1917 0.6995 0.5977
N1 N -0.04328(8) 0.30503(18) 0.09434(17)
N2 N 0.11403(8) 0.53399(16) 0.39706(15)
O1 O 0.15155(8) 0.59791(14) 0.17683(14)
H14 H 0.1268(14) 0.524(3) 0.490(3)
C1 C -0.08867(12) 0.7630(3) 0.4892(2)
H1 H -0.1295 0.7052 0.4395
C2 C -0.08123(12) 0.9150(3) 0.4449(3)
H2 H -0.1161 0.9578 0.3683
C3 C -0.02280(11) 0.9994(2) 0.5143(2)
H3 H -0.0164 1.1022 0.4864
C4 C 0.02824(10) 0.93294(19) 0.6281(2)
C5 C 0.09043(11) 1.0134(2) 0.7051(2)
H4 H 0.0996 1.116 0.6798
C6 C 0.13713(11) 0.9438(2) 0.8156(2)
H5 H 0.1789 0.9981 0.8665
C7 C 0.12371(10) 0.7908(2) 0.85470(18)
H6 H 0.1565 0.7443 0.9324
C8 C 0.06433(9) 0.70852(18) 0.78268(17)
C9 C 0.01541(9) 0.77878(18) 0.66627(18)
C10 C 0.04758(9) 0.54718(19) 0.82812(19)
H7 H 0.0255 0.4901 0.7394
H8 H 0.0088 0.5503 0.898
C11 C 0.16182(9) 0.39767(18) 0.81410(17)
C12 C 0.22688(9) 0.30972(18) 0.89252(17)
C13 C 0.28416(9) 0.2601(2) 0.8103(2)
H9 H 0.2822 0.2878 0.709
C14 C 0.34372(10) 0.1709(2) 0.8754(2)
H10 H 0.3826 0.1385 0.819
C15 C 0.34669(10) 0.1287(2) 1.0230(2)
H11 H 0.3875 0.0674 1.0676
C16 C 0.28966(11) 0.1767(2) 1.1052(2)
H12 H 0.2913 0.1474 1.206
C17 C 0.23025(10) 0.2673(2) 1.04066(19)
H13 H 0.1917 0.3005 1.0977
N1 N -0.04328(8) 0.69497(18) 0.59434(17)
N2 N 0.11403(8) 0.46601(16) 0.89706(15)
O1 O 0.15155(8) 0.40209(14) 0.67683(14)
H14 H 0.1268(14) 0.476(3) 0.990(3)
C1 C 0.41133(12) 0.7370(3) -0.0108(2)
H1 H 0.3705 0.7948 -0.0605
C2 C 0.41877(12) 0.5850(3) -0.0551(3)
H2 H 0.3839 0.5422 -0.1317
C3 C 0.47720(11) 0.5006(2) 0.0143(2)
H3 H 0.4836 0.3978 -0.0136
C4 C 0.52824(10) 0.56706(19) 0.1281(2)
C5 C 0.59043(11) 0.4866(2) 0.2051(2)
H4 H 0.5996 0.384 0.1798
C6 C 0.63713(11) 0.5562(2) 0.3156(2)
H5 H 0.6789 0.5019 0.3665
C7 C 0.62371(10) 0.7092(2) 0.35470(18)
H6 H 0.6565 0.7557 0.4324
C8 C 0.56433(9) 0.79148(18) 0.28268(17)
C9 C 0.51541(9) 0.72122(18) 0.16627(18)
C10 C 0.54758(9) 0.95282(19) 0.32812(19)
H7 H 0.5255 1.0099 0.2394
H8 H 0.5088 0.9497 0.398
C11 C 0.66182(9) 1.10233(18) 0.31410(17)
C12 C 0.72688(9) 1.19028(18) 0.39252(17)
C13 C 0.78416(9) 1.2399(2) 0.3103(2)
H9 H 0.7822 1.2122 0.209
C14 C 0.84372(10) 1.3291(2) 0.3754(2)
H10 H 0.8826 1.3615 0.319
C15 C 0.84669(10) 1.3713(2) 0.5230(2)
H11 H 0.8875 1.4326 0.5676
C16 C 0.78966(11) 1.3233(2) 0.6052(2)
H12 H 0.7913 1.3526 0.706
C17 C 0.73025(10) 1.2327(2) 0.54066(19)
H13 H 0.6917 1.1995 0.5977
N1 N 0.45672(8) 0.80503(18) 0.09434(17)
N2 N 0.61403(8) 1.03399(16) 0.39706(15)
O1 O 0.65155(8) 1.09791(14) 0.17683(14)
H14 H 0.6268(14) 1.024(3) 0.490(3)
C1 C 0.41133(12) 0.2630(3) 0.4892(2)
H1 H 0.3705 0.2052 0.4395
C2 C 0.41877(12) 0.4150(3) 0.4449(3)
H2 H 0.3839 0.4578 0.3683
C3 C 0.47720(11) 0.4994(2) 0.5143(2)
H3 H 0.4836 0.6022 0.4864
C4 C 0.52824(10) 0.43294(19) 0.6281(2)
C5 C 0.59043(11) 0.5134(2) 0.7051(2)
H4 H 0.5996 0.616 0.6798
C6 C 0.63713(11) 0.4438(2) 0.8156(2)
H5 H 0.6789 0.4981 0.8665
C7 C 0.62371(10) 0.2908(2) 0.85470(18)
H6 H 0.6565 0.2443 0.9324
C8 C 0.56433(9) 0.20852(18) 0.78268(17)
C9 C 0.51541(9) 0.27878(18) 0.66627(18)
C10 C 0.54758(9) 0.04718(19) 0.82812(19)
H7 H 0.5255 -0.0099 0.7394
H8 H 0.5088 0.0503 0.898
C11 C 0.66182(9) -0.10233(18) 0.81410(17)
C12 C 0.72688(9) -0.19028(18) 0.89252(17)
C13 C 0.78416(9) -0.2399(2) 0.8103(2)
H9 H 0.7822 -0.2122 0.709
C14 C 0.84372(10) -0.3291(2) 0.8754(2)
H10 H 0.8826 -0.3615 0.819
C15 C 0.84669(10) -0.3713(2) 1.0230(2)
H11 H 0.8875 -0.4326 1.0676
C16 C 0.78966(11) -0.3233(2) 1.1052(2)
H12 H 0.7913 -0.3526 1.206
C17 C 0.73025(10) -0.2327(2) 1.04066(19)
H13 H 0.6917 -0.1995 1.0977
N1 N 0.45672(8) 0.19497(18) 0.59434(17)
N2 N 0.61403(8) -0.03399(16) 0.89706(15)
O1 O 0.65155(8) -0.09791(14) 0.67683(14)
H14 H 0.6268(14) -0.024(3) 0.990(3)

#END
