./LABHEE_from_xyz.cif_generated_by_CrystalShift
_symmetry_cell_setting triclinic
_symmetry_space_group_name_H-M 'P 1'
loop_
_symmetry_equiv_pos_site_id
_symmetry_equiv_pos_as_xyz
1 x,y,z
_cell_length_a 31.530000
_cell_length_b 4.779000
_cell_length_c 12.837000
_cell_angle_alpha 90.000000
_cell_angle_beta 100.970000
_cell_angle_gamma 90.000000
_cell_volume 1898.957568
loop_
_atom_site_label
_atom_site_type_symbol
_atom_site_fract_x
_atom_site_fract_y
_atom_site_fract_z
N1 N 0.156200 0.587000 0.324100
H2 H 0.150000 0.630000 0.401000
C3 C 0.140800 0.303000 0.292500
H4 H 0.162200 0.170500 0.333700
C5 C 0.142900 0.261000 0.176700
H6 H 0.134200 0.063400 0.157700
C7 C 0.114200 0.452000 0.097700
H8 H 0.088100 0.352200 0.061100
H9 H 0.105200 0.619400 0.133700
C10 C 0.143100 0.533000 0.020600
H11 H 0.133300 0.635300 -0.042800
C12 C 0.183600 0.444000 0.051100
H13 H 0.205700 0.469500 0.010900
C14 C 0.190100 0.301000 0.155700
H15 H 0.203900 0.114800 0.150800
C16 C 0.218200 0.479000 0.242500
C17 C 0.262500 0.515000 0.242200
H18 H 0.275300 0.421500 0.190700
C19 C 0.287200 0.684000 0.315400
C20 C 0.270900 0.826000 0.390100
H21 H 0.288900 0.943700 0.439300
C22 C 0.226600 0.796000 0.393500
H23 H 0.214500 0.892600 0.445400
C24 C 0.201300 0.625000 0.321200
C25 C 0.097400 0.238000 0.323300
H26 H 0.086800 0.053600 0.291500
O27 O 0.065800 0.457000 0.279200
C28 C 0.024400 0.392000 0.300800
H29 H 0.015400 0.204000 0.270000
O30 O 0.024400 0.387000 0.408800
C31 C 0.052700 0.172000 0.460800
H32 H 0.042600 -0.013600 0.431700
H33 H 0.052300 0.171900 0.537700
C34 C 0.098400 0.226000 0.443100
H35 H 0.109800 0.405200 0.477700
C36 C -0.007900 0.612000 0.247600
C37 C -0.038200 0.714000 0.300900
H38 H -0.038800 0.651500 0.370900
C39 C -0.068400 0.911000 0.251800
H40 H -0.089300 0.985600 0.288700
C41 C -0.067700 0.996000 0.150900
H42 H -0.088200 1.129200 0.117900
C43 C -0.037300 0.890000 0.094900
H44 H -0.036800 0.951000 0.024700
C45 C -0.007400 0.692000 0.146000
H46 H 0.013200 0.612500 0.109300
O47 O 0.125900 -0.003000 0.484200
H48 H 0.132000 -0.010000 0.555000
O49 O 0.333000 0.691000 0.315600
C50 C 0.346500 0.949000 0.276500
H51 H 0.377700 0.944400 0.278700
H52 H 0.339600 1.103700 0.320700
H53 H 0.331300 0.977100 0.203100
N54 N 0.843800 0.587000 0.675900
H55 H 0.850000 0.630000 0.599000
C56 C 0.859200 0.303000 0.707500
H57 H 0.837800 0.170500 0.666300
C58 C 0.857100 0.261000 0.823300
H59 H 0.865800 0.063400 0.842300
C60 C 0.885800 0.452000 0.902300
H61 H 0.911900 0.352200 0.938900
H62 H 0.894800 0.619400 0.866300
C63 C 0.856900 0.533000 0.979400
H64 H 0.866700 0.635300 1.042800
C65 C 0.816400 0.444000 0.948900
H66 H 0.794300 0.469500 0.989100
C67 C 0.809900 0.301000 0.844300
H68 H 0.796100 0.114800 0.849200
C69 C 0.781800 0.479000 0.757500
C70 C 0.737500 0.515000 0.757800
H71 H 0.724700 0.421500 0.809300
C72 C 0.712800 0.684000 0.684600
C73 C 0.729100 0.826000 0.609900
H74 H 0.711100 0.943700 0.560700
C75 C 0.773400 0.796000 0.606500
H76 H 0.785500 0.892600 0.554600
C77 C 0.798700 0.625000 0.678800
C78 C 0.902600 0.238000 0.676700
H79 H 0.913200 0.053600 0.708500
O80 O 0.934200 0.457000 0.720800
C81 C 0.975600 0.392000 0.699200
H82 H 0.984600 0.204000 0.730000
O83 O 0.975600 0.387000 0.591200
C84 C 0.947300 0.172000 0.539200
H85 H 0.957400 -0.013600 0.568300
H86 H 0.947700 0.171900 0.462300
C87 C 0.901600 0.226000 0.556900
H88 H 0.890200 0.405200 0.522300
C89 C 1.007900 0.612000 0.752400
C90 C 1.038200 0.714000 0.699100
H91 H 1.038800 0.651500 0.629100
C92 C 1.068400 0.911000 0.748200
H93 H 1.089300 0.985600 0.711300
C94 C 1.067700 0.996000 0.849100
H95 H 1.088200 1.129200 0.882100
C96 C 1.037300 0.890000 0.905100
H97 H 1.036800 0.951000 0.975300
C98 C 1.007400 0.692000 0.854000
H99 H 0.986800 0.612500 0.890700
O100 O 0.874100 -0.003000 0.515800
H101 H 0.868000 -0.010000 0.445000
O102 O 0.667000 0.691000 0.684400
C103 C 0.653500 0.949000 0.723500
H104 H 0.622300 0.944400 0.721300
H105 H 0.660400 1.103700 0.679300
H106 H 0.668700 0.977100 0.796900
N107 N 0.656200 0.087000 0.324100
H108 H 0.650000 0.130000 0.401000
C109 C 0.640800 -0.197000 0.292500
H110 H 0.662200 -0.329500 0.333700
C111 C 0.642900 -0.239000 0.176700
H112 H 0.634200 -0.436600 0.157700
C113 C 0.614200 -0.048000 0.097700
H114 H 0.588100 -0.147800 0.061100
H115 H 0.605200 0.119400 0.133700
C116 C 0.643100 0.033000 0.020600
H117 H 0.633300 0.135300 -0.042800
C118 C 0.683600 -0.056000 0.051100
H119 H 0.705700 -0.030500 0.010900
C120 C 0.690100 -0.199000 0.155700
H121 H 0.703900 -0.385200 0.150800
C122 C 0.718200 -0.021000 0.242500
C123 C 0.762500 0.015000 0.242200
H124 H 0.775300 -0.078500 0.190700
C125 C 0.787200 0.184000 0.315400
C126 C 0.770900 0.326000 0.390100
H127 H 0.788900 0.443700 0.439300
C128 C 0.726600 0.296000 0.393500
H129 H 0.714500 0.392600 0.445400
C130 C 0.701300 0.125000 0.321200
C131 C 0.597400 -0.262000 0.323300
H132 H 0.586800 -0.446400 0.291500
O133 O 0.565800 -0.043000 0.279200
C134 C 0.524400 -0.108000 0.300800
H135 H 0.515400 -0.296000 0.270000
O136 O 0.524400 -0.113000 0.408800
C137 C 0.552700 -0.328000 0.460800
H138 H 0.542600 -0.513600 0.431700
H139 H 0.552300 -0.328100 0.537700
C140 C 0.598400 -0.274000 0.443100
H141 H 0.609800 -0.094800 0.477700
C142 C 0.492100 0.112000 0.247600
C143 C 0.461800 0.214000 0.300900
H144 H 0.461200 0.151500 0.370900
C145 C 0.431600 0.411000 0.251800
H146 H 0.410700 0.485600 0.288700
C147 C 0.432300 0.496000 0.150900
H148 H 0.411800 0.629200 0.117900
C149 C 0.462700 0.390000 0.094900
H150 H 0.463200 0.451000 0.024700
C151 C 0.492600 0.192000 0.146000
H152 H 0.513200 0.112500 0.109300
O153 O 0.625900 -0.503000 0.484200
H154 H 0.632000 -0.510000 0.555000
O155 O 0.833000 0.191000 0.315600
C156 C 0.846500 0.449000 0.276500
H157 H 0.877700 0.444400 0.278700
H158 H 0.839600 0.603700 0.320700
H159 H 0.831300 0.477100 0.203100
N160 N 0.343800 0.087000 0.675900
H161 H 0.350000 0.130000 0.599000
C162 C 0.359200 -0.197000 0.707500
H163 H 0.337800 -0.329500 0.666300
C164 C 0.357100 -0.239000 0.823300
H165 H 0.365800 -0.436600 0.842300
C166 C 0.385800 -0.048000 0.902300
H167 H 0.411900 -0.147800 0.938900
H168 H 0.394800 0.119400 0.866300
C169 C 0.356900 0.033000 0.979400
H170 H 0.366700 0.135300 1.042800
C171 C 0.316400 -0.056000 0.948900
H172 H 0.294300 -0.030500 0.989100
C173 C 0.309900 -0.199000 0.844300
H174 H 0.296100 -0.385200 0.849200
C175 C 0.281800 -0.021000 0.757500
C176 C 0.237500 0.015000 0.757800
H177 H 0.224700 -0.078500 0.809300
C178 C 0.212800 0.184000 0.684600
C179 C 0.229100 0.326000 0.609900
H180 H 0.211100 0.443700 0.560700
C181 C 0.273400 0.296000 0.606500
H182 H 0.285500 0.392600 0.554600
C183 C 0.298700 0.125000 0.678800
C184 C 0.402600 -0.262000 0.676700
H185 H 0.413200 -0.446400 0.708500
O186 O 0.434200 -0.043000 0.720800
C187 C 0.475600 -0.108000 0.699200
H188 H 0.484600 -0.296000 0.730000
O189 O 0.475600 -0.113000 0.591200
C190 C 0.447300 -0.328000 0.539200
H191 H 0.457400 -0.513600 0.568300
H192 H 0.447700 -0.328100 0.462300
C193 C 0.401600 -0.274000 0.556900
H194 H 0.390200 -0.094800 0.522300
C195 C 0.507900 0.112000 0.752400
C196 C 0.538200 0.214000 0.699100
H197 H 0.538800 0.151500 0.629100
C198 C 0.568400 0.411000 0.748200
H199 H 0.589300 0.485600 0.711300
C200 C 0.567700 0.496000 0.849100
H201 H 0.588200 0.629200 0.882100
C202 C 0.537300 0.390000 0.905100
H203 H 0.536800 0.451000 0.975300
C204 C 0.507400 0.192000 0.854000
H205 H 0.486800 0.112500 0.890700
O206 O 0.374100 -0.503000 0.515800
H207 H 0.368000 -0.510000 0.445000
O208 O 0.167000 0.191000 0.684400
C209 C 0.153500 0.449000 0.723500
H210 H 0.122300 0.444400 0.721300
H211 H 0.160400 0.603700 0.679300
H212 H 0.168700 0.477100 0.796900

#END
