
#######################################################################
#
#                 Cambridge Crystallographic Data Centre
#                                CCDC 
#
#######################################################################
#
# If this CIF has been generated from an entry in the Cambridge 
# Structural Database, then it will include bibliographic, chemical, 
# crystal, experimental, refinement or atomic coordinate data resulting 
# from the CCDC's data processing and validation procedures.
#
#######################################################################

data_LABHEE
_symmetry_cell_setting           monoclinic
_symmetry_space_group_name_H-M   'C 2'
_symmetry_Int_Tables_number      5
_space_group_name_Hall           'C 2y'
loop_
_symmetry_equiv_pos_site_id
_symmetry_equiv_pos_as_xyz
1 x,y,z
2 -x,y,-z
3 1/2+x,1/2+y,z
4 1/2-x,1/2+y,-z
_cell_length_a                   31.53(3)
_cell_length_b                   4.779(5)
_cell_length_c                   12.837(11)
_cell_angle_alpha                90
_cell_angle_beta                 100.97(4)
_cell_angle_gamma                90
_cell_volume                     1898.96
loop_
_atom_site_label
_atom_site_type_symbol
_atom_site_fract_x
_atom_site_fract_y
_atom_site_fract_z
N1 N 0.1562(4) 0.587(3) 0.3241(12)
H1 H 0.150(4) 0.63(3) 0.401(12)
C1 C 0.1408(5) 0.303(3) 0.2925(13)
H2 H 0.1622 0.1705 0.3337
C2 C 0.1429(5) 0.261(4) 0.1767(13)
H3 H 0.1342 0.0634 0.1577
C3 C 0.1142(5) 0.452(4) 0.0977(12)
H4 H 0.0881 0.3522 0.0611
H5 H 0.1052 0.6194 0.1337
C4 C 0.1431(5) 0.533(3) 0.0206(14)
H6 H 0.1333 0.6353 -0.0428
C5 C 0.1836(5) 0.444(4) 0.0511(12)
H7 H 0.2057 0.4695 0.0109
C6 C 0.1901(5) 0.301(4) 0.1557(13)
H8 H 0.2039 0.1148 0.1508
C7 C 0.2182(5) 0.479(4) 0.2425(12)
C8 C 0.2625(5) 0.515(3) 0.2422(13)
H9 H 0.2753 0.4215 0.1907
C9 C 0.2872(5) 0.684(4) 0.3154(13)
C10 C 0.2709(5) 0.826(3) 0.3901(14)
H10 H 0.2889 0.9437 0.4393
C11 C 0.2266(5) 0.796(3) 0.3935(13)
H11 H 0.2145 0.8926 0.4454
C12 C 0.2013(5) 0.625(3) 0.3212(14)
C13 C 0.0974(5) 0.238(4) 0.3233(13)
H12 H 0.0868 0.0536 0.2915
O1 O 0.0658(3) 0.457(2) 0.2792(8)
C14 C 0.0244(5) 0.392(4) 0.3008(13)
H13 H 0.0154 0.204 0.27
O2 O 0.0244(3) 0.387(2) 0.4088(8)
C15 C 0.0527(5) 0.172(4) 0.4608(14)
H14 H 0.0426 -0.0136 0.4317
H15 H 0.0523 0.1719 0.5377
C16 C 0.0984(5) 0.226(4) 0.4431(13)
H16 H 0.1098 0.4052 0.4777
C17 C -0.0079(5) 0.612(3) 0.2476(14)
C18 C -0.0382(5) 0.714(3) 0.3009(14)
H17 H -0.0388 0.6515 0.3709
C19 C -0.0684(5) 0.911(3) 0.2518(13)
H18 H -0.0893 0.9856 0.2887
C20 C -0.0677(5) 0.996(3) 0.1509(13)
H19 H -0.0882 1.1292 0.1179
C21 C -0.0373(5) 0.890(4) 0.0949(13)
H20 H -0.0368 0.951 0.0247
C22 C -0.0074(5) 0.692(4) 0.1460(14)
H21 H 0.0132 0.6125 0.1093
O3 O 0.1259(3) -0.003(2) 0.4842(9)
H22 H 0.132(5) -0.01(3) 0.555(12)
O4 O 0.3330(3) 0.691(2) 0.3156(8)
C23 C 0.3465(5) 0.949(4) 0.2765(13)
H23 H 0.3777 0.9444 0.2787
H24 H 0.3396 1.1037 0.3207
H25 H 0.3313 0.9771 0.2031
N1 N 0.8438(4) 0.587(3) 0.6759(12)
H1 H 0.850(4) 0.63(3) 0.599(12)
C1 C 0.8592(5) 0.303(3) 0.7075(13)
H2 H 0.8378 0.1705 0.6663
C2 C 0.8571(5) 0.261(4) 0.8233(13)
H3 H 0.8658 0.0634 0.8423
C3 C 0.8858(5) 0.452(4) 0.9023(12)
H4 H 0.9119 0.3522 0.9389
H5 H 0.8948 0.6194 0.8663
C4 C 0.8569(5) 0.533(3) 0.9794(14)
H6 H 0.8667 0.6353 1.0428
C5 C 0.8164(5) 0.444(4) 0.9489(12)
H7 H 0.7943 0.4695 0.9891
C6 C 0.8099(5) 0.301(4) 0.8443(13)
H8 H 0.7961 0.1148 0.8492
C7 C 0.7818(5) 0.479(4) 0.7575(12)
C8 C 0.7375(5) 0.515(3) 0.7578(13)
H9 H 0.7247 0.4215 0.8093
C9 C 0.7128(5) 0.684(4) 0.6846(13)
C10 C 0.7291(5) 0.826(3) 0.6099(14)
H10 H 0.7111 0.9437 0.5607
C11 C 0.7734(5) 0.796(3) 0.6065(13)
H11 H 0.7855 0.8926 0.5546
C12 C 0.7987(5) 0.625(3) 0.6788(14)
C13 C 0.9026(5) 0.238(4) 0.6767(13)
H12 H 0.9132 0.0536 0.7085
O1 O 0.9342(3) 0.457(2) 0.7208(8)
C14 C 0.9756(5) 0.392(4) 0.6992(13)
H13 H 0.9846 0.204 0.73
O2 O 0.9756(3) 0.387(2) 0.5912(8)
C15 C 0.9473(5) 0.172(4) 0.5392(14)
H14 H 0.9574 -0.0136 0.5683
H15 H 0.9477 0.1719 0.4623
C16 C 0.9016(5) 0.226(4) 0.5569(13)
H16 H 0.8902 0.4052 0.5223
C17 C 1.0079(5) 0.612(3) 0.7524(14)
C18 C 1.0382(5) 0.714(3) 0.6991(14)
H17 H 1.0388 0.6515 0.6291
C19 C 1.0684(5) 0.911(3) 0.7482(13)
H18 H 1.0893 0.9856 0.7113
C20 C 1.0677(5) 0.996(3) 0.8491(13)
H19 H 1.0882 1.1292 0.8821
C21 C 1.0373(5) 0.890(4) 0.9051(13)
H20 H 1.0368 0.951 0.9753
C22 C 1.0074(5) 0.692(4) 0.8540(14)
H21 H 0.9868 0.6125 0.8907
O3 O 0.8741(3) -0.003(2) 0.5158(9)
H22 H 0.868(5) -0.01(3) 0.445(12)
O4 O 0.6670(3) 0.691(2) 0.6844(8)
C23 C 0.6535(5) 0.949(4) 0.7235(13)
H23 H 0.6223 0.9444 0.7213
H24 H 0.6604 1.1037 0.6793
H25 H 0.6687 0.9771 0.7969
N1 N 0.6562(4) 0.087(3) 0.3241(12)
H1 H 0.650(4) 0.13(3) 0.401(12)
C1 C 0.6408(5) -0.197(3) 0.2925(13)
H2 H 0.6622 -0.3295 0.3337
C2 C 0.6429(5) -0.239(4) 0.1767(13)
H3 H 0.6342 -0.4366 0.1577
C3 C 0.6142(5) -0.048(4) 0.0977(12)
H4 H 0.5881 -0.1478 0.0611
H5 H 0.6052 0.1194 0.1337
C4 C 0.6431(5) 0.033(3) 0.0206(14)
H6 H 0.6333 0.1353 -0.0428
C5 C 0.6836(5) -0.056(4) 0.0511(12)
H7 H 0.7057 -0.0305 0.0109
C6 C 0.6901(5) -0.199(4) 0.1557(13)
H8 H 0.7039 -0.3852 0.1508
C7 C 0.7182(5) -0.021(4) 0.2425(12)
C8 C 0.7625(5) 0.015(3) 0.2422(13)
H9 H 0.7753 -0.0785 0.1907
C9 C 0.7872(5) 0.184(4) 0.3154(13)
C10 C 0.7709(5) 0.326(3) 0.3901(14)
H10 H 0.7889 0.4437 0.4393
C11 C 0.7266(5) 0.296(3) 0.3935(13)
H11 H 0.7145 0.3926 0.4454
C12 C 0.7013(5) 0.125(3) 0.3212(14)
C13 C 0.5974(5) -0.262(4) 0.3233(13)
H12 H 0.5868 -0.4464 0.2915
O1 O 0.5658(3) -0.043(2) 0.2792(8)
C14 C 0.5244(5) -0.108(4) 0.3008(13)
H13 H 0.5154 -0.296 0.27
O2 O 0.5244(3) -0.113(2) 0.4088(8)
C15 C 0.5527(5) -0.328(4) 0.4608(14)
H14 H 0.5426 -0.5136 0.4317
H15 H 0.5523 -0.3281 0.5377
C16 C 0.5984(5) -0.274(4) 0.4431(13)
H16 H 0.6098 -0.0948 0.4777
C17 C 0.4921(5) 0.112(3) 0.2476(14)
C18 C 0.4618(5) 0.214(3) 0.3009(14)
H17 H 0.4612 0.1515 0.3709
C19 C 0.4316(5) 0.411(3) 0.2518(13)
H18 H 0.4107 0.4856 0.2887
C20 C 0.4323(5) 0.496(3) 0.1509(13)
H19 H 0.4118 0.6292 0.1179
C21 C 0.4627(5) 0.390(4) 0.0949(13)
H20 H 0.4632 0.451 0.0247
C22 C 0.4926(5) 0.192(4) 0.1460(14)
H21 H 0.5132 0.1125 0.1093
O3 O 0.6259(3) -0.503(2) 0.4842(9)
H22 H 0.632(5) -0.51(3) 0.555(12)
O4 O 0.8330(3) 0.191(2) 0.3156(8)
C23 C 0.8465(5) 0.449(4) 0.2765(13)
H23 H 0.8777 0.4444 0.2787
H24 H 0.8396 0.6037 0.3207
H25 H 0.8313 0.4771 0.2031
N1 N 0.3438(4) 0.087(3) 0.6759(12)
H1 H 0.350(4) 0.13(3) 0.599(12)
C1 C 0.3592(5) -0.197(3) 0.7075(13)
H2 H 0.3378 -0.3295 0.6663
C2 C 0.3571(5) -0.239(4) 0.8233(13)
H3 H 0.3658 -0.4366 0.8423
C3 C 0.3858(5) -0.048(4) 0.9023(12)
H4 H 0.4119 -0.1478 0.9389
H5 H 0.3948 0.1194 0.8663
C4 C 0.3569(5) 0.033(3) 0.9794(14)
H6 H 0.3667 0.1353 1.0428
C5 C 0.3164(5) -0.056(4) 0.9489(12)
H7 H 0.2943 -0.0305 0.9891
C6 C 0.3099(5) -0.199(4) 0.8443(13)
H8 H 0.2961 -0.3852 0.8492
C7 C 0.2818(5) -0.021(4) 0.7575(12)
C8 C 0.2375(5) 0.015(3) 0.7578(13)
H9 H 0.2247 -0.0785 0.8093
C9 C 0.2128(5) 0.184(4) 0.6846(13)
C10 C 0.2291(5) 0.326(3) 0.6099(14)
H10 H 0.2111 0.4437 0.5607
C11 C 0.2734(5) 0.296(3) 0.6065(13)
H11 H 0.2855 0.3926 0.5546
C12 C 0.2987(5) 0.125(3) 0.6788(14)
C13 C 0.4026(5) -0.262(4) 0.6767(13)
H12 H 0.4132 -0.4464 0.7085
O1 O 0.4342(3) -0.043(2) 0.7208(8)
C14 C 0.4756(5) -0.108(4) 0.6992(13)
H13 H 0.4846 -0.296 0.73
O2 O 0.4756(3) -0.113(2) 0.5912(8)
C15 C 0.4473(5) -0.328(4) 0.5392(14)
H14 H 0.4574 -0.5136 0.5683
H15 H 0.4477 -0.3281 0.4623
C16 C 0.4016(5) -0.274(4) 0.5569(13)
H16 H 0.3902 -0.0948 0.5223
C17 C 0.5079(5) 0.112(3) 0.7524(14)
C18 C 0.5382(5) 0.214(3) 0.6991(14)
H17 H 0.5388 0.1515 0.6291
C19 C 0.5684(5) 0.411(3) 0.7482(13)
H18 H 0.5893 0.4856 0.7113
C20 C 0.5677(5) 0.496(3) 0.8491(13)
H19 H 0.5882 0.6292 0.8821
C21 C 0.5373(5) 0.390(4) 0.9051(13)
H20 H 0.5368 0.451 0.9753
C22 C 0.5074(5) 0.192(4) 0.8540(14)
H21 H 0.4868 0.1125 0.8907
O3 O 0.3741(3) -0.503(2) 0.5158(9)
H22 H 0.368(5) -0.51(3) 0.445(12)
O4 O 0.1670(3) 0.191(2) 0.6844(8)
C23 C 0.1535(5) 0.449(4) 0.7235(13)
H23 H 0.1223 0.4444 0.7213
H24 H 0.1604 0.6037 0.6793
H25 H 0.1687 0.4771 0.7969

#END
