./LABHUR_from_xyz.cif_generated_by_CrystalShift
_symmetry_cell_setting triclinic
_symmetry_space_group_name_H-M 'P 1'
loop_
_symmetry_equiv_pos_site_id
_symmetry_equiv_pos_as_xyz
1 x,y,z
_cell_length_a 6.421000
_cell_length_b 10.872000
_cell_length_c 10.564000
_cell_angle_alpha 90.000000
_cell_angle_beta 91.050000
_cell_angle_gamma 90.000000
_cell_volume 737.339618
loop_
_atom_site_label
_atom_site_type_symbol
_atom_site_fract_x
_atom_site_fract_y
_atom_site_fract_z
O1 O 0.374600 0.540600 1.195700
O2 O -0.220600 0.312300 1.192600
O3 O 0.142200 0.231000 0.540700
O4 O 0.467900 0.283500 0.585100
N5 N 0.188400 0.444100 1.033700
N6 N 0.057600 0.444800 1.225200
N7 N -0.000500 0.372700 1.031800
C8 C 0.268900 0.379100 0.827200
C9 C 0.356800 0.382300 0.962600
C10 C 0.379000 0.253600 1.018600
C11 C 0.204200 0.188800 1.016800
C12 C 0.022400 0.255900 0.958600
C13 C 0.065200 0.302200 0.823800
C14 C -0.114100 0.353300 0.752900
C15 C -0.098700 0.457500 0.687800
C16 C 0.090800 0.530100 0.691400
C17 C 0.258200 0.497200 0.759100
C18 C 0.259600 0.257100 0.757700
C19 C 0.226200 0.482000 1.156900
C20 C -0.072000 0.369200 1.156100
C21 C 0.022800 0.472400 1.358000
C22 C 0.276300 0.257400 0.616600
C23 C 0.522900 0.275400 0.452800
H24 H 0.489000 0.440000 0.974000
H25 H 0.505000 0.227000 1.056000
H26 H 0.195000 0.113000 1.055000
H27 H -0.117000 0.210000 0.956000
H28 H -0.252000 0.307000 0.763000
H29 H -0.224000 0.483000 0.638000
H30 H 0.094000 0.605000 0.646000
H31 H 0.399000 0.548000 0.766000
H32 H 0.338000 0.187000 0.795000
H33 H 0.095000 0.542000 1.379000
H34 H -0.126000 0.508000 1.364000
H35 H 0.065000 0.414000 1.406000
H36 H 0.449000 0.348000 0.422000
H37 H 0.687000 0.296000 0.458000
H38 H 0.452000 0.218000 0.414000
O39 O 0.625400 1.040600 -0.195700
O40 O 1.220600 0.812300 -0.192600
O41 O 0.857800 0.731000 0.459300
O42 O 0.532100 0.783500 0.414900
N43 N 0.811600 0.944100 -0.033700
N44 N 0.942400 0.944800 -0.225200
N45 N 1.000500 0.872700 -0.031800
C46 C 0.731100 0.879100 0.172800
C47 C 0.643200 0.882300 0.037400
C48 C 0.621000 0.753600 -0.018600
C49 C 0.795800 0.688800 -0.016800
C50 C 0.977600 0.755900 0.041400
C51 C 0.934800 0.802200 0.176200
C52 C 1.114100 0.853300 0.247100
C53 C 1.098700 0.957500 0.312200
C54 C 0.909200 1.030100 0.308600
C55 C 0.741800 0.997200 0.240900
C56 C 0.740400 0.757100 0.242300
C57 C 0.773800 0.982000 -0.156900
C58 C 1.072000 0.869200 -0.156100
C59 C 0.977200 0.972400 -0.358000
C60 C 0.723700 0.757400 0.383400
C61 C 0.477100 0.775400 0.547200
H62 H 0.511000 0.940000 0.026000
H63 H 0.495000 0.727000 -0.056000
H64 H 0.805000 0.613000 -0.055000
H65 H 1.117000 0.710000 0.044000
H66 H 1.252000 0.807000 0.237000
H67 H 1.224000 0.983000 0.362000
H68 H 0.906000 1.105000 0.354000
H69 H 0.601000 1.048000 0.234000
H70 H 0.662000 0.687000 0.205000
H71 H 0.905000 1.042000 -0.379000
H72 H 1.126000 1.008000 -0.364000
H73 H 0.935000 0.914000 -0.406000
H74 H 0.551000 0.848000 0.578000
H75 H 0.313000 0.796000 0.542000
H76 H 0.548000 0.718000 0.586000

#END
