./LABJON01_from_xyz.cif_generated_by_CrystalShift
_symmetry_cell_setting triclinic
_symmetry_space_group_name_H-M 'P 1'
loop_
_symmetry_equiv_pos_site_id
_symmetry_equiv_pos_as_xyz
1 x,y,z
_cell_length_a 6.774000
_cell_length_b 7.795000
_cell_length_c 9.803000
_cell_angle_alpha 106.680000
_cell_angle_beta 104.090000
_cell_angle_gamma 92.290000
_cell_volume 477.560428
loop_
_atom_site_label
_atom_site_type_symbol
_atom_site_fract_x
_atom_site_fract_y
_atom_site_fract_z
O1 O 0.629400 0.179800 0.649500
C2 C 0.748300 0.211700 0.562500
C3 C 0.945400 0.183700 0.616800
C4 C 0.951800 0.130200 0.743500
C5 C 0.759100 0.131200 0.756500
N6 N 0.667900 0.092700 0.863000
O7 O 0.748500 0.056400 0.975500
O8 O 0.483700 0.098100 0.846400
C9 C 0.648800 0.267200 0.437600
N10 N 0.456000 0.280600 0.414200
N11 N 0.364300 0.332400 0.295400
C12 C 0.157900 0.347500 0.267800
N13 N 0.109800 0.407900 0.144900
C14 C 0.273300 0.435500 0.093900
C15 C 0.456300 0.384100 0.190800
O16 O 0.042000 0.316700 0.335300
O17 O 0.270300 0.491900 -0.009600
H18 H 1.063200 0.198300 0.574700
H19 H 1.073200 0.098700 0.809000
H20 H 0.727700 0.294400 0.370800
H21 H -0.016000 0.428600 0.104100
H22 H 0.565700 0.488600 0.242000
H23 H 0.514700 0.280900 0.132800
O24 O 0.370600 0.820200 0.350500
C25 C 0.251700 0.788300 0.437500
C26 C 0.054600 0.816300 0.383200
C27 C 0.048200 0.869800 0.256500
C28 C 0.240900 0.868800 0.243500
N29 N 0.332100 0.907300 0.137000
O30 O 0.251500 0.943600 0.024500
O31 O 0.516300 0.901900 0.153600
C32 C 0.351200 0.732800 0.562400
N33 N 0.544000 0.719400 0.585800
N34 N 0.635700 0.667600 0.704600
C35 C 0.842100 0.652500 0.732200
N36 N 0.890200 0.592100 0.855100
C37 C 0.726700 0.564500 0.906100
C38 C 0.543700 0.615900 0.809200
O39 O 0.958000 0.683300 0.664700
O40 O 0.729700 0.508100 1.009600
H41 H -0.063200 0.801700 0.425300
H42 H -0.073200 0.901300 0.191000
H43 H 0.272300 0.705600 0.629200
H44 H 1.016000 0.571400 0.895900
H45 H 0.434300 0.511400 0.758000
H46 H 0.485300 0.719100 0.867200

#END
