./LABJIH_from_xyz.cif_generated_by_CrystalShift
_symmetry_cell_setting triclinic
_symmetry_space_group_name_H-M 'P 1'
loop_
_symmetry_equiv_pos_site_id
_symmetry_equiv_pos_as_xyz
1 x,y,z
_cell_length_a 6.919600
_cell_length_b 7.673000
_cell_length_c 18.554000
_cell_angle_alpha 90.000000
_cell_angle_beta 92.547000
_cell_angle_gamma 90.000000
_cell_volume 984.134599
loop_
_atom_site_label
_atom_site_type_symbol
_atom_site_fract_x
_atom_site_fract_y
_atom_site_fract_z
C1 C 0.728100 0.138400 0.159400
C2 C 0.904300 0.212300 0.137900
C3 C 1.044000 0.251500 0.190700
C4 C 1.013600 0.219200 0.262400
C5 C 0.841400 0.148600 0.283300
C6 C 0.700600 0.109000 0.232300
N7 N 0.583200 0.095500 0.110100
C8 C 0.937800 0.246100 0.059600
N9 N 1.161800 0.262900 0.316400
O10 O 1.128000 0.241100 0.380100
O11 O 1.315300 0.319700 0.298100
H12 H 1.159000 0.295000 0.179000
H13 H 0.833000 0.140000 0.331000
H14 H 0.580000 0.068000 0.244000
H15 H 0.626000 0.113000 0.066000
H16 H 0.451000 0.050000 0.127000
H17 H 0.835000 0.325000 0.041000
H18 H 0.956000 0.130000 0.030000
H19 H 1.072000 0.271000 0.051000
C20 C 0.271900 0.638400 0.840600
C21 C 0.095700 0.712300 0.862100
C22 C -0.044000 0.751500 0.809300
C23 C -0.013600 0.719200 0.737600
C24 C 0.158600 0.648600 0.716700
C25 C 0.299400 0.609000 0.767700
N26 N 0.416800 0.595500 0.889900
C27 C 0.062200 0.746100 0.940400
N28 N -0.161800 0.762900 0.683600
O29 O -0.128000 0.741100 0.619900
O30 O -0.315300 0.819700 0.701900
H31 H -0.159000 0.795000 0.821000
H32 H 0.167000 0.640000 0.669000
H33 H 0.420000 0.568000 0.756000
H34 H 0.374000 0.613000 0.934000
H35 H 0.549000 0.550000 0.873000
H36 H 0.165000 0.825000 0.959000
H37 H 0.044000 0.630000 0.970000
H38 H -0.072000 0.771000 0.949000
C39 C -0.031600 0.697800 0.268000
C40 C -0.209200 0.615500 0.282000
C41 C -0.345500 0.580800 0.229600
C42 C -0.313100 0.627200 0.158900
C43 C -0.146400 0.706800 0.141100
C44 C -0.005200 0.742700 0.194200
N45 N 0.102300 0.730200 0.320900
C46 C 0.087900 0.688400 0.396300
C47 C -0.042500 0.816100 0.435400
C48 C 0.291900 0.695400 0.429500
O49 O 0.430200 0.742100 0.398600
O50 O 0.296300 0.649200 0.497700
C51 C 0.480500 0.665000 0.538400
N52 N 0.164900 0.830400 0.171800
O53 O 0.297900 0.861100 0.216600
O54 O 0.175200 0.874200 0.108500
N55 N -0.459400 0.589200 0.101700
O56 O -0.425500 0.629000 0.040500
O57 O -0.610600 0.520600 0.118600
H58 H -0.234000 0.584000 0.329000
H59 H -0.466000 0.538000 0.241000
H60 H -0.122000 0.736000 0.098000
H61 H 0.216000 0.776000 0.306000
H62 H 0.039000 0.576000 0.403000
H63 H -0.178000 0.808000 0.418000
H64 H -0.043000 0.787000 0.486000
H65 H 0.016000 0.929000 0.434000
H66 H 0.460000 0.624000 0.582000
H67 H 0.523000 0.780000 0.535000
H68 H 0.575000 0.599000 0.512000
C69 C 1.031600 0.197800 0.732000
C70 C 1.209200 0.115500 0.718000
C71 C 1.345500 0.080800 0.770400
C72 C 1.313100 0.127200 0.841100
C73 C 1.146400 0.206800 0.858900
C74 C 1.005200 0.242700 0.805800
N75 N 0.897700 0.230200 0.679100
C76 C 0.912100 0.188400 0.603700
C77 C 1.042500 0.316100 0.564600
C78 C 0.708100 0.195400 0.570500
O79 O 0.569800 0.242100 0.601400
O80 O 0.703700 0.149200 0.502300
C81 C 0.519500 0.165000 0.461600
N82 N 0.835100 0.330400 0.828200
O83 O 0.702100 0.361100 0.783400
O84 O 0.824800 0.374200 0.891500
N85 N 1.459400 0.089200 0.898300
O86 O 1.425500 0.129000 0.959500
O87 O 1.610600 0.020600 0.881400
H88 H 1.234000 0.084000 0.671000
H89 H 1.466000 0.038000 0.759000
H90 H 1.122000 0.236000 0.902000
H91 H 0.784000 0.276000 0.694000
H92 H 0.961000 0.076000 0.597000
H93 H 1.178000 0.308000 0.582000
H94 H 1.043000 0.287000 0.514000
H95 H 0.984000 0.429000 0.566000
H96 H 0.540000 0.124000 0.418000
H97 H 0.477000 0.280000 0.465000
H98 H 0.425000 0.099000 0.488000

#END
