./LABKEE_from_xyz.cif_generated_by_CrystalShift
_symmetry_cell_setting triclinic
_symmetry_space_group_name_H-M 'P 1'
loop_
_symmetry_equiv_pos_site_id
_symmetry_equiv_pos_as_xyz
1 x,y,z
_cell_length_a 9.564000
_cell_length_b 11.305000
_cell_length_c 20.389000
_cell_angle_alpha 90.000000
_cell_angle_beta 91.270000
_cell_angle_gamma 90.000000
_cell_volume 2203.937899
loop_
_atom_site_label
_atom_site_type_symbol
_atom_site_fract_x
_atom_site_fract_y
_atom_site_fract_z
O1 O 0.153800 1.259200 0.015200
O2 O 0.545000 0.870800 -0.078000
N3 N 0.184400 1.058300 0.018500
N4 N 0.289200 1.176100 -0.063300
N5 N 0.097800 1.041300 0.073500
N6 N -0.135900 1.079000 0.366200
C7 C 0.206500 1.172100 -0.009300
C8 C 0.353300 1.080400 -0.084900
C9 C 0.333400 0.966400 -0.056400
C10 C 0.243100 0.959400 -0.005300
C11 C 0.418800 0.860500 -0.070600
C12 C 0.139300 1.102200 0.123700
C13 C -0.107500 1.170200 0.417100
C14 C -0.238600 0.986900 0.379900
C15 C 0.444700 1.098800 -0.142100
C16 C 0.524100 1.201500 -0.146300
C17 C 0.613300 1.218400 -0.197900
C18 C 0.623700 1.133700 -0.246200
C19 C 0.544600 1.030900 -0.243700
C20 C 0.455400 1.013400 -0.191900
C21 C 0.351400 0.742600 -0.073500
C22 C 0.209400 0.728500 -0.088700
C23 C 0.153100 0.615300 -0.093500
C24 C 0.236700 0.517200 -0.082800
C25 C 0.377400 0.531300 -0.067500
C26 C 0.434800 0.642900 -0.062900
C27 C 0.066300 1.093500 0.185300
C28 C 0.106700 1.166700 0.237100
C29 C 0.041700 1.163700 0.296600
C30 C -0.068500 1.083700 0.307300
C31 C -0.106400 1.007700 0.255400
C32 C -0.042000 1.013500 0.196200
H33 H 0.220700 0.890700 0.015600
H34 H 0.220700 1.140600 0.115200
H35 H 0.514600 1.262300 -0.112100
H36 H 0.672300 1.290800 -0.199800
H37 H 0.687900 1.143600 -0.282100
H38 H 0.553500 0.972700 -0.278400
H39 H 0.399600 0.940300 -0.190000
H40 H 0.148800 0.797100 -0.096600
H41 H 0.054300 0.604600 -0.105800
H42 H 0.194100 0.438100 -0.085500
H43 H 0.438000 0.462300 -0.060000
H44 H 0.533500 0.653900 -0.051700
H45 H 0.182600 1.222500 0.230100
H46 H 0.071900 1.217000 0.332000
H47 H -0.179400 0.949100 0.261600
H48 H -0.073800 0.962900 0.160700
H49 H -0.016600 1.158600 0.435700
H50 H -0.174900 1.164100 0.450300
H51 H -0.112800 1.244600 0.397600
H52 H -0.318000 0.996900 0.351500
H53 H -0.198300 0.911400 0.372700
H54 H -0.266300 0.993000 0.424100
O55 O 0.846200 0.759200 0.484800
O56 O 0.455000 0.370800 0.578000
N57 N 0.815600 0.558300 0.481500
N58 N 0.710800 0.676100 0.563300
N59 N 0.902200 0.541300 0.426500
N60 N 1.135900 0.579000 0.133800
C61 C 0.793500 0.672100 0.509300
C62 C 0.646700 0.580400 0.584900
C63 C 0.666600 0.466400 0.556400
C64 C 0.756900 0.459400 0.505300
C65 C 0.581200 0.360500 0.570600
C66 C 0.860700 0.602200 0.376300
C67 C 1.107500 0.670200 0.082900
C68 C 1.238600 0.486900 0.120100
C69 C 0.555300 0.598800 0.642100
C70 C 0.475900 0.701500 0.646300
C71 C 0.386700 0.718400 0.697900
C72 C 0.376300 0.633700 0.746200
C73 C 0.455400 0.530900 0.743700
C74 C 0.544600 0.513400 0.691900
C75 C 0.648600 0.242600 0.573500
C76 C 0.790600 0.228500 0.588700
C77 C 0.846900 0.115300 0.593500
C78 C 0.763300 0.017200 0.582800
C79 C 0.622600 0.031300 0.567500
C80 C 0.565200 0.142900 0.562900
C81 C 0.933700 0.593500 0.314700
C82 C 0.893300 0.666700 0.262900
C83 C 0.958300 0.663700 0.203400
C84 C 1.068500 0.583700 0.192700
C85 C 1.106400 0.507700 0.244600
C86 C 1.042000 0.513500 0.303800
H87 H 0.779300 0.390700 0.484400
H88 H 0.779300 0.640600 0.384800
H89 H 0.485400 0.762300 0.612100
H90 H 0.327700 0.790800 0.699800
H91 H 0.312100 0.643600 0.782100
H92 H 0.446500 0.472700 0.778400
H93 H 0.600400 0.440300 0.690000
H94 H 0.851200 0.297100 0.596600
H95 H 0.945700 0.104600 0.605800
H96 H 0.805900 -0.061900 0.585500
H97 H 0.562000 -0.037700 0.560000
H98 H 0.466500 0.153900 0.551700
H99 H 0.817400 0.722500 0.269900
H100 H 0.928100 0.717000 0.168000
H101 H 1.179400 0.449100 0.238400
H102 H 1.073800 0.462900 0.339300
H103 H 1.016600 0.658600 0.064300
H104 H 1.174900 0.664100 0.049700
H105 H 1.112800 0.744600 0.102400
H106 H 1.318000 0.496900 0.148500
H107 H 1.198300 0.411400 0.127300
H108 H 1.266300 0.493000 0.075900
O109 O 0.846200 -0.259200 0.984800
O110 O 0.455000 0.129200 1.078000
N111 N 0.815600 -0.058300 0.981500
N112 N 0.710800 -0.176100 1.063300
N113 N 0.902200 -0.041300 0.926500
N114 N 1.135900 -0.079000 0.633800
C115 C 0.793500 -0.172100 1.009300
C116 C 0.646700 -0.080400 1.084900
C117 C 0.666600 0.033600 1.056400
C118 C 0.756900 0.040600 1.005300
C119 C 0.581200 0.139500 1.070600
C120 C 0.860700 -0.102200 0.876300
C121 C 1.107500 -0.170200 0.582900
C122 C 1.238600 0.013100 0.620100
C123 C 0.555300 -0.098800 1.142100
C124 C 0.475900 -0.201500 1.146300
C125 C 0.386700 -0.218400 1.197900
C126 C 0.376300 -0.133700 1.246200
C127 C 0.455400 -0.030900 1.243700
C128 C 0.544600 -0.013400 1.191900
C129 C 0.648600 0.257400 1.073500
C130 C 0.790600 0.271500 1.088700
C131 C 0.846900 0.384700 1.093500
C132 C 0.763300 0.482800 1.082800
C133 C 0.622600 0.468700 1.067500
C134 C 0.565200 0.357100 1.062900
C135 C 0.933700 -0.093500 0.814700
C136 C 0.893300 -0.166700 0.762900
C137 C 0.958300 -0.163700 0.703400
C138 C 1.068500 -0.083700 0.692700
C139 C 1.106400 -0.007700 0.744600
C140 C 1.042000 -0.013500 0.803800
H141 H 0.779300 0.109300 0.984400
H142 H 0.779300 -0.140600 0.884800
H143 H 0.485400 -0.262300 1.112100
H144 H 0.327700 -0.290800 1.199800
H145 H 0.312100 -0.143600 1.282100
H146 H 0.446500 0.027300 1.278400
H147 H 0.600400 0.059700 1.190000
H148 H 0.851200 0.202900 1.096600
H149 H 0.945700 0.395400 1.105800
H150 H 0.805900 0.561900 1.085500
H151 H 0.562000 0.537700 1.060000
H152 H 0.466500 0.346100 1.051700
H153 H 0.817400 -0.222500 0.769900
H154 H 0.928100 -0.217000 0.668000
H155 H 1.179400 0.050900 0.738400
H156 H 1.073800 0.037100 0.839300
H157 H 1.016600 -0.158600 0.564300
H158 H 1.174900 -0.164100 0.549700
H159 H 1.112800 -0.244600 0.602400
H160 H 1.318000 0.003100 0.648500
H161 H 1.198300 0.088600 0.627300
H162 H 1.266300 0.007000 0.575900
O163 O 0.153800 0.240800 0.515200
O164 O 0.545000 0.629200 0.422000
N165 N 0.184400 0.441700 0.518500
N166 N 0.289200 0.323900 0.436700
N167 N 0.097800 0.458700 0.573500
N168 N -0.135900 0.421000 0.866200
C169 C 0.206500 0.327900 0.490700
C170 C 0.353300 0.419600 0.415100
C171 C 0.333400 0.533600 0.443600
C172 C 0.243100 0.540600 0.494700
C173 C 0.418800 0.639500 0.429400
C174 C 0.139300 0.397800 0.623700
C175 C -0.107500 0.329800 0.917100
C176 C -0.238600 0.513100 0.879900
C177 C 0.444700 0.401200 0.357900
C178 C 0.524100 0.298500 0.353700
C179 C 0.613300 0.281600 0.302100
C180 C 0.623700 0.366300 0.253800
C181 C 0.544600 0.469100 0.256300
C182 C 0.455400 0.486600 0.308100
C183 C 0.351400 0.757400 0.426500
C184 C 0.209400 0.771500 0.411300
C185 C 0.153100 0.884700 0.406500
C186 C 0.236700 0.982800 0.417200
C187 C 0.377400 0.968700 0.432500
C188 C 0.434800 0.857100 0.437100
C189 C 0.066300 0.406500 0.685300
C190 C 0.106700 0.333300 0.737100
C191 C 0.041700 0.336300 0.796600
C192 C -0.068500 0.416300 0.807300
C193 C -0.106400 0.492300 0.755400
C194 C -0.042000 0.486500 0.696200
H195 H 0.220700 0.609300 0.515600
H196 H 0.220700 0.359400 0.615200
H197 H 0.514600 0.237700 0.387900
H198 H 0.672300 0.209200 0.300200
H199 H 0.687900 0.356400 0.217900
H200 H 0.553500 0.527300 0.221600
H201 H 0.399600 0.559700 0.310000
H202 H 0.148800 0.702900 0.403400
H203 H 0.054300 0.895400 0.394200
H204 H 0.194100 1.061900 0.414500
H205 H 0.438000 1.037700 0.440000
H206 H 0.533500 0.846100 0.448300
H207 H 0.182600 0.277500 0.730100
H208 H 0.071900 0.283000 0.832000
H209 H -0.179400 0.550900 0.761600
H210 H -0.073800 0.537100 0.660700
H211 H -0.016600 0.341400 0.935700
H212 H -0.174900 0.335900 0.950300
H213 H -0.112800 0.255400 0.897600
H214 H -0.318000 0.503100 0.851500
H215 H -0.198300 0.588600 0.872700
H216 H -0.266300 0.507000 0.924100

#END
