./LABMEH_from_xyz.cif_generated_by_CrystalShift
_symmetry_cell_setting triclinic
_symmetry_space_group_name_H-M 'P 1'
loop_
_symmetry_equiv_pos_site_id
_symmetry_equiv_pos_as_xyz
1 x,y,z
_cell_length_a 13.724400
_cell_length_b 23.829000
_cell_length_c 16.401300
_cell_angle_alpha 90.000000
_cell_angle_beta 91.404000
_cell_angle_gamma 90.000000
_cell_volume 5362.249944
loop_
_atom_site_label
_atom_site_type_symbol
_atom_site_fract_x
_atom_site_fract_y
_atom_site_fract_z
Pd1 Pd 0.240540 0.367970 0.357950
Br2 Br 0.240780 0.424560 0.480920
Br3 Br 0.243780 0.448300 0.265510
S4 S 0.241120 0.312400 0.243140
C5 C 0.243100 0.248900 0.285600
C6 C 0.245600 0.239700 0.374900
S7 S 0.240840 0.291860 0.441130
N8 N 0.245700 0.198900 0.251300
C9 C 0.249100 0.156300 0.311000
S10 S 0.248420 0.088740 0.297930
N11 N 0.251200 0.185000 0.386600
C12 C 0.243600 0.187800 0.162600
H13 H 0.267500 0.149300 0.152500
H14 H 0.287600 0.214400 0.135300
C15 C 0.141600 0.193800 0.126700
H16 H 0.142100 0.185800 0.068200
H17 H 0.118500 0.232300 0.135300
H18 H 0.098000 0.167400 0.153600
C19 C 0.250400 0.156900 0.465800
H20 H 0.287900 0.179500 0.506300
H21 H 0.282700 0.119900 0.461400
C22 C 0.148000 0.148500 0.495300
H23 H 0.150500 0.130000 0.548700
H24 H 0.111300 0.125100 0.456200
H25 H 0.115900 0.185100 0.500200
Pd26 Pd 0.740540 0.132030 0.857950
Br27 Br 0.740780 0.075440 0.980920
Br28 Br 0.743780 0.051700 0.765510
S29 S 0.741120 0.187600 0.743140
C30 C 0.743100 0.251100 0.785600
C31 C 0.745600 0.260300 0.874900
S32 S 0.740840 0.208140 0.941130
N33 N 0.745700 0.301100 0.751300
C34 C 0.749100 0.343700 0.811000
S35 S 0.748420 0.411260 0.797930
N36 N 0.751200 0.315000 0.886600
C37 C 0.743600 0.312200 0.662600
H38 H 0.767500 0.350700 0.652500
H39 H 0.787600 0.285600 0.635300
C40 C 0.641600 0.306200 0.626700
H41 H 0.642100 0.314200 0.568200
H42 H 0.618500 0.267700 0.635300
H43 H 0.598000 0.332600 0.653600
C44 C 0.750400 0.343100 0.965800
H45 H 0.787900 0.320500 1.006300
H46 H 0.782700 0.380100 0.961400
C47 C 0.648000 0.351500 0.995300
H48 H 0.650500 0.370000 1.048700
H49 H 0.611300 0.374900 0.956200
H50 H 0.615900 0.314900 1.000200
Pd51 Pd 0.759460 0.632030 0.642050
Br52 Br 0.759220 0.575440 0.519080
Br53 Br 0.756220 0.551700 0.734490
S54 S 0.758880 0.687600 0.756860
C55 C 0.756900 0.751100 0.714400
C56 C 0.754400 0.760300 0.625100
S57 S 0.759160 0.708140 0.558870
N58 N 0.754300 0.801100 0.748700
C59 C 0.750900 0.843700 0.689000
S60 S 0.751580 0.911260 0.702070
N61 N 0.748800 0.815000 0.613400
C62 C 0.756400 0.812200 0.837400
H63 H 0.732500 0.850700 0.847500
H64 H 0.712400 0.785600 0.864700
C65 C 0.858400 0.806200 0.873300
H66 H 0.857900 0.814200 0.931800
H67 H 0.881500 0.767700 0.864700
H68 H 0.902000 0.832600 0.846400
C69 C 0.749600 0.843100 0.534200
H70 H 0.712100 0.820500 0.493700
H71 H 0.717300 0.880100 0.538600
C72 C 0.852000 0.851500 0.504700
H73 H 0.849500 0.870000 0.451300
H74 H 0.888700 0.874900 0.543800
H75 H 0.884100 0.814900 0.499800
Pd76 Pd 0.259460 0.867970 0.142050
Br77 Br 0.259220 0.924560 0.019080
Br78 Br 0.256220 0.948300 0.234490
S79 S 0.258880 0.812400 0.256860
C80 C 0.256900 0.748900 0.214400
C81 C 0.254400 0.739700 0.125100
S82 S 0.259160 0.791860 0.058870
N83 N 0.254300 0.698900 0.248700
C84 C 0.250900 0.656300 0.189000
S85 S 0.251580 0.588740 0.202070
N86 N 0.248800 0.685000 0.113400
C87 C 0.256400 0.687800 0.337400
H88 H 0.232500 0.649300 0.347500
H89 H 0.212400 0.714400 0.364700
C90 C 0.358400 0.693800 0.373300
H91 H 0.357900 0.685800 0.431800
H92 H 0.381500 0.732300 0.364700
H93 H 0.402000 0.667400 0.346400
C94 C 0.249600 0.656900 0.034200
H95 H 0.212100 0.679500 -0.006300
H96 H 0.217300 0.619900 0.038600
C97 C 0.352000 0.648500 0.004700
H98 H 0.349500 0.630000 -0.048700
H99 H 0.388700 0.625100 0.043800
H100 H 0.384100 0.685100 -0.000200
Pd101 Pd 0.490730 0.297580 0.322480
Br102 Br 0.493270 0.249900 0.453600
Br103 Br 0.496260 0.210130 0.248080
S104 S 0.485170 0.341080 0.198660
C105 C 0.487900 0.406800 0.225500
C106 C 0.496500 0.426000 0.311500
S107 S 0.491930 0.382370 0.389060
N108 N 0.489800 0.455000 0.180400
C109 C 0.498000 0.501400 0.229800
S110 S 0.504940 0.567110 0.198520
N111 N 0.502000 0.483400 0.309300
C112 C 0.476400 0.455300 0.090400
H113 H 0.494900 0.418200 0.068400
H114 H 0.519800 0.483900 0.066700
C115 C 0.369800 0.468300 0.065400
H116 H 0.363100 0.468700 0.005800
H117 H 0.351500 0.505000 0.087100
H118 H 0.327100 0.439400 0.087400
C119 C 0.511600 0.520000 0.381300
H120 H 0.554700 0.552100 0.369000
H121 H 0.541300 0.498800 0.427400
C122 C 0.412200 0.541500 0.404500
H123 H 0.419100 0.566000 0.452400
H124 H 0.370000 0.509700 0.417300
H125 H 0.383300 0.562800 0.358900
Pd126 Pd 0.990730 0.202420 0.822480
Br127 Br 0.993270 0.250100 0.953600
Br128 Br 0.996260 0.289870 0.748080
S129 S 0.985170 0.158920 0.698660
C130 C 0.987900 0.093200 0.725500
C131 C 0.996500 0.074000 0.811500
S132 S 0.991930 0.117630 0.889060
N133 N 0.989800 0.045000 0.680400
C134 C 0.998000 -0.001400 0.729800
S135 S 1.004940 -0.067110 0.698520
N136 N 1.002000 0.016600 0.809300
C137 C 0.976400 0.044700 0.590400
H138 H 0.994900 0.081800 0.568400
H139 H 1.019800 0.016100 0.566700
C140 C 0.869800 0.031700 0.565400
H141 H 0.863100 0.031300 0.505800
H142 H 0.851500 -0.005000 0.587100
H143 H 0.827100 0.060600 0.587400
C144 C 1.011600 -0.020000 0.881300
H145 H 1.054700 -0.052100 0.869000
H146 H 1.041300 0.001200 0.927400
C147 C 0.912200 -0.041500 0.904500
H148 H 0.919100 -0.066000 0.952400
H149 H 0.870000 -0.009700 0.917300
H150 H 0.883300 -0.062800 0.858900
Pd151 Pd 0.509270 0.702420 0.677520
Br152 Br 0.506730 0.750100 0.546400
Br153 Br 0.503740 0.789870 0.751920
S154 S 0.514830 0.658920 0.801340
C155 C 0.512100 0.593200 0.774500
C156 C 0.503500 0.574000 0.688500
S157 S 0.508070 0.617630 0.610940
N158 N 0.510200 0.545000 0.819600
C159 C 0.502000 0.498600 0.770200
S160 S 0.495060 0.432890 0.801480
N161 N 0.498000 0.516600 0.690700
C162 C 0.523600 0.544700 0.909600
H163 H 0.505100 0.581800 0.931600
H164 H 0.480200 0.516100 0.933300
C165 C 0.630200 0.531700 0.934600
H166 H 0.636900 0.531300 0.994200
H167 H 0.648500 0.495000 0.912900
H168 H 0.672900 0.560600 0.912600
C169 C 0.488400 0.480000 0.618700
H170 H 0.445300 0.447900 0.631000
H171 H 0.458700 0.501200 0.572600
C172 C 0.587800 0.458500 0.595500
H173 H 0.580900 0.434000 0.547600
H174 H 0.630000 0.490300 0.582700
H175 H 0.616700 0.437200 0.641100
Pd176 Pd 0.009270 0.797580 0.177520
Br177 Br 0.006730 0.749900 0.046400
Br178 Br 0.003740 0.710130 0.251920
S179 S 0.014830 0.841080 0.301340
C180 C 0.012100 0.906800 0.274500
C181 C 0.003500 0.926000 0.188500
S182 S 0.008070 0.882370 0.110940
N183 N 0.010200 0.955000 0.319600
C184 C 0.002000 1.001400 0.270200
S185 S -0.004940 1.067110 0.301480
N186 N -0.002000 0.983400 0.190700
C187 C 0.023600 0.955300 0.409600
H188 H 0.005100 0.918200 0.431600
H189 H -0.019800 0.983900 0.433300
C190 C 0.130200 0.968300 0.434600
H191 H 0.136900 0.968700 0.494200
H192 H 0.148500 1.005000 0.412900
H193 H 0.172900 0.939400 0.412600
C194 C -0.011600 1.020000 0.118700
H195 H -0.054700 1.052100 0.131000
H196 H -0.041300 0.998800 0.072600
C197 C 0.087800 1.041500 0.095500
H198 H 0.080900 1.066000 0.047600
H199 H 0.130000 1.009700 0.082700
H200 H 0.116700 1.062800 0.141100
Pd201 Pd 0.247060 0.121980 0.787780
Br202 Br 0.244870 0.056350 0.673150
Br203 Br 0.244830 0.047520 0.888000
S204 S 0.245960 0.183060 0.894680
C205 C 0.243100 0.243400 0.845800
C206 C 0.252500 0.249800 0.758200
S207 S 0.250940 0.194660 0.695620
N208 N 0.240800 0.297100 0.874700
C209 C 0.245800 0.338000 0.811600
S210 S 0.245420 0.403740 0.819780
N211 N 0.251500 0.304400 0.741200
C212 C 0.234600 0.313100 0.962700
H213 H 0.202800 0.282500 0.992800
H214 H 0.193700 0.347100 0.967400
C215 C 0.333500 0.324400 1.000800
H216 H 0.326300 0.335500 1.057900
H217 H 0.365300 0.354800 0.971100
H218 H 0.373400 0.290400 0.998200
C219 C 0.258800 0.328800 0.658600
H220 H 0.235100 0.368100 0.658700
H221 H 0.217700 0.307100 0.619400
C222 C 0.363900 0.327300 0.633000
H223 H 0.368700 0.342900 0.577900
H224 H 0.387100 0.288400 0.633400
H225 H 0.403900 0.349700 0.671200
Pd226 Pd 0.747060 0.378020 0.287780
Br227 Br 0.744870 0.443650 0.173150
Br228 Br 0.744830 0.452480 0.388000
S229 S 0.745960 0.316940 0.394680
C230 C 0.743100 0.256600 0.345800
C231 C 0.752500 0.250200 0.258200
S232 S 0.750940 0.305340 0.195620
N233 N 0.740800 0.202900 0.374700
C234 C 0.745800 0.162000 0.311600
S235 S 0.745420 0.096260 0.319780
N236 N 0.751500 0.195600 0.241200
C237 C 0.734600 0.186900 0.462700
H238 H 0.702800 0.217500 0.492800
H239 H 0.693700 0.152900 0.467400
C240 C 0.833500 0.175600 0.500800
H241 H 0.826300 0.164500 0.557900
H242 H 0.865300 0.145200 0.471100
H243 H 0.873400 0.209600 0.498200
C244 C 0.758800 0.171200 0.158600
H245 H 0.735100 0.131900 0.158700
H246 H 0.717700 0.192900 0.119400
C247 C 0.863900 0.172700 0.133000
H248 H 0.868700 0.157100 0.077900
H249 H 0.887100 0.211600 0.133400
H250 H 0.903900 0.150300 0.171200
Pd251 Pd 0.752940 0.878020 0.212220
Br252 Br 0.755130 0.943650 0.326850
Br253 Br 0.755170 0.952480 0.112000
S254 S 0.754040 0.816940 0.105320
C255 C 0.756900 0.756600 0.154200
C256 C 0.747500 0.750200 0.241800
S257 S 0.749060 0.805340 0.304380
N258 N 0.759200 0.702900 0.125300
C259 C 0.754200 0.662000 0.188400
S260 S 0.754580 0.596260 0.180220
N261 N 0.748500 0.695600 0.258800
C262 C 0.765400 0.686900 0.037300
H263 H 0.797200 0.717500 0.007200
H264 H 0.806300 0.652900 0.032600
C265 C 0.666500 0.675600 -0.000800
H266 H 0.673700 0.664500 -0.057900
H267 H 0.634700 0.645200 0.028900
H268 H 0.626600 0.709600 0.001800
C269 C 0.741200 0.671200 0.341400
H270 H 0.764900 0.631900 0.341300
H271 H 0.782300 0.692900 0.380600
C272 C 0.636100 0.672700 0.367000
H273 H 0.631300 0.657100 0.422100
H274 H 0.612900 0.711600 0.366600
H275 H 0.596100 0.650300 0.328800
Pd276 Pd 0.252940 0.621980 0.712220
Br277 Br 0.255130 0.556350 0.826850
Br278 Br 0.255170 0.547520 0.612000
S279 S 0.254040 0.683060 0.605320
C280 C 0.256900 0.743400 0.654200
C281 C 0.247500 0.749800 0.741800
S282 S 0.249060 0.694660 0.804380
N283 N 0.259200 0.797100 0.625300
C284 C 0.254200 0.838000 0.688400
S285 S 0.254580 0.903740 0.680220
N286 N 0.248500 0.804400 0.758800
C287 C 0.265400 0.813100 0.537300
H288 H 0.297200 0.782500 0.507200
H289 H 0.306300 0.847100 0.532600
C290 C 0.166500 0.824400 0.499200
H291 H 0.173700 0.835500 0.442100
H292 H 0.134700 0.854800 0.528900
H293 H 0.126600 0.790400 0.501800
C294 C 0.241200 0.828800 0.841400
H295 H 0.264900 0.868100 0.841300
H296 H 0.282300 0.807100 0.880600
C297 C 0.136100 0.827300 0.867000
H298 H 0.131300 0.842900 0.922100
H299 H 0.112900 0.788400 0.866600
H300 H 0.096100 0.849700 0.828800
Pd301 Pd 0.499140 0.177530 0.869270
Br302 Br 0.502970 0.197480 1.014680
Br303 Br 0.497530 0.276020 0.827440
S304 S 0.498130 0.155100 0.732820
C305 C 0.497500 0.085100 0.737300
C306 C 0.493300 0.053900 0.814900
S307 S 0.497720 0.085290 0.905730
N308 N 0.495300 0.046800 0.679600
C309 C 0.494200 -0.006200 0.711500
S310 S 0.497610 -0.066170 0.661730
N311 N 0.489300 0.000300 0.795900
C312 C 0.497300 0.059100 0.592000
H313 H 0.463500 0.095100 0.580700
H314 H 0.462600 0.029100 0.561200
C315 C 0.604800 0.062900 0.563700
H316 H 0.605400 0.070600 0.505000
H317 H 0.638100 0.027200 0.575000
H318 H 0.638500 0.093200 0.593300
C319 C 0.492200 -0.047500 0.856500
H320 H 0.448000 -0.038800 0.901600
H321 H 0.468100 -0.082100 0.829300
C322 C 0.591000 -0.058000 0.890800
H323 H 0.588800 -0.089100 0.929700
H324 H 0.615000 -0.024200 0.918700
H325 H 0.634900 -0.067600 0.846600
Pd326 Pd -0.000860 0.322470 0.369270
Br327 Br 0.002970 0.302520 0.514680
Br328 Br -0.002470 0.223980 0.327440
S329 S -0.001870 0.344900 0.232820
C330 C -0.002500 0.414900 0.237300
C331 C -0.006700 0.446100 0.314900
S332 S -0.002280 0.414710 0.405730
N333 N -0.004700 0.453200 0.179600
C334 C -0.005800 0.506200 0.211500
S335 S -0.002390 0.566170 0.161730
N336 N -0.010700 0.499700 0.295900
C337 C -0.002700 0.440900 0.092000
H338 H -0.036500 0.404900 0.080700
H339 H -0.037400 0.470900 0.061200
C340 C 0.104800 0.437100 0.063700
H341 H 0.105400 0.429400 0.005000
H342 H 0.138100 0.472800 0.075000
H343 H 0.138500 0.406800 0.093300
C344 C -0.007800 0.547500 0.356500
H345 H -0.052000 0.538800 0.401600
H346 H -0.031900 0.582100 0.329300
C347 C 0.091000 0.558000 0.390800
H348 H 0.088800 0.589100 0.429700
H349 H 0.115000 0.524200 0.418700
H350 H 0.134900 0.567600 0.346600
Pd351 Pd 0.500860 0.822470 0.130730
Br352 Br 0.497030 0.802520 -0.014680
Br353 Br 0.502470 0.723980 0.172560
S354 S 0.501870 0.844900 0.267180
C355 C 0.502500 0.914900 0.262700
C356 C 0.506700 0.946100 0.185100
S357 S 0.502280 0.914710 0.094270
N358 N 0.504700 0.953200 0.320400
C359 C 0.505800 1.006200 0.288500
S360 S 0.502390 1.066170 0.338270
N361 N 0.510700 0.999700 0.204100
C362 C 0.502700 0.940900 0.408000
H363 H 0.536500 0.904900 0.419300
H364 H 0.537400 0.970900 0.438800
C365 C 0.395200 0.937100 0.436300
H366 H 0.394600 0.929400 0.495000
H367 H 0.361900 0.972800 0.425000
H368 H 0.361500 0.906800 0.406700
C369 C 0.507800 1.047500 0.143500
H370 H 0.552000 1.038800 0.098400
H371 H 0.531900 1.082100 0.170700
C372 C 0.409000 1.058000 0.109200
H373 H 0.411200 1.089100 0.070300
H374 H 0.385000 1.024200 0.081300
H375 H 0.365100 1.067600 0.153400
Pd376 Pd 1.000860 0.677530 0.630730
Br377 Br 0.997030 0.697480 0.485320
Br378 Br 1.002470 0.776020 0.672560
S379 S 1.001870 0.655100 0.767180
C380 C 1.002500 0.585100 0.762700
C381 C 1.006700 0.553900 0.685100
S382 S 1.002280 0.585290 0.594270
N383 N 1.004700 0.546800 0.820400
C384 C 1.005800 0.493800 0.788500
S385 S 1.002390 0.433830 0.838270
N386 N 1.010700 0.500300 0.704100
C387 C 1.002700 0.559100 0.908000
H388 H 1.036500 0.595100 0.919300
H389 H 1.037400 0.529100 0.938800
C390 C 0.895200 0.562900 0.936300
H391 H 0.894600 0.570600 0.995000
H392 H 0.861900 0.527200 0.925000
H393 H 0.861500 0.593200 0.906700
C394 C 1.007800 0.452500 0.643500
H395 H 1.052000 0.461200 0.598400
H396 H 1.031900 0.417900 0.670700
C397 C 0.909000 0.442000 0.609200
H398 H 0.911200 0.410900 0.570300
H399 H 0.885000 0.475800 0.581300
H400 H 0.865100 0.432400 0.653400

#END
