./LABNIL_from_xyz.cif_generated_by_CrystalShift
_symmetry_cell_setting triclinic
_symmetry_space_group_name_H-M 'P 1'
loop_
_symmetry_equiv_pos_site_id
_symmetry_equiv_pos_as_xyz
1 x,y,z
_cell_length_a 10.402000
_cell_length_b 15.025000
_cell_length_c 9.467000
_cell_angle_alpha 90.000000
_cell_angle_beta 96.240000
_cell_angle_gamma 90.000000
_cell_volume 1470.831751
loop_
_atom_site_label
_atom_site_type_symbol
_atom_site_fract_x
_atom_site_fract_y
_atom_site_fract_z
O1 O 0.500600 0.423400 0.223200
O2 O 0.519800 0.356100 0.436400
N3 N 0.300900 0.314600 0.127200
N4 N 0.203200 0.255900 0.114300
C5 C 0.357900 0.307300 0.260300
C6 C 0.294900 0.241900 0.335900
C7 C 0.194000 0.210400 0.237700
C8 C 0.105700 0.146200 0.274000
C9 C 0.123400 0.113500 0.410800
C10 C 0.224700 0.144500 0.510400
C11 C 0.309800 0.207600 0.476400
C12 C 0.467300 0.364000 0.314700
H13 H 0.577000 0.460000 0.268000
H14 H 0.153000 0.255000 0.032000
H15 H 0.034000 0.126000 0.203000
H16 H 0.062000 0.071000 0.438000
H17 H 0.232000 0.116000 0.605000
H18 H 0.380000 0.229000 0.548000
O19 O -0.000600 0.923400 0.276800
O20 O -0.019800 0.856100 0.063600
N21 N 0.199100 0.814600 0.372800
N22 N 0.296800 0.755900 0.385700
C23 C 0.142100 0.807300 0.239700
C24 C 0.205100 0.741900 0.164100
C25 C 0.306000 0.710400 0.262300
C26 C 0.394300 0.646200 0.226000
C27 C 0.376600 0.613500 0.089200
C28 C 0.275300 0.644500 -0.010400
C29 C 0.190200 0.707600 0.023600
C30 C 0.032700 0.864000 0.185300
H31 H -0.077000 0.960000 0.232000
H32 H 0.347000 0.755000 0.468000
H33 H 0.466000 0.626000 0.297000
H34 H 0.438000 0.571000 0.062000
H35 H 0.268000 0.616000 -0.105000
H36 H 0.120000 0.729000 -0.048000
O37 O 0.499400 0.576600 0.776800
O38 O 0.480200 0.643900 0.563600
N39 N 0.699100 0.685400 0.872800
N40 N 0.796800 0.744100 0.885700
C41 C 0.642100 0.692700 0.739700
C42 C 0.705100 0.758100 0.664100
C43 C 0.806000 0.789600 0.762300
C44 C 0.894300 0.853800 0.726000
C45 C 0.876600 0.886500 0.589200
C46 C 0.775300 0.855500 0.489600
C47 C 0.690200 0.792400 0.523600
C48 C 0.532700 0.636000 0.685300
H49 H 0.423000 0.540000 0.732000
H50 H 0.847000 0.745000 0.968000
H51 H 0.966000 0.874000 0.797000
H52 H 0.938000 0.929000 0.562000
H53 H 0.768000 0.884000 0.395000
H54 H 0.620000 0.771000 0.452000
O55 O 1.000600 0.076600 0.723200
O56 O 1.019800 0.143900 0.936400
N57 N 0.800900 0.185400 0.627200
N58 N 0.703200 0.244100 0.614300
C59 C 0.857900 0.192700 0.760300
C60 C 0.794900 0.258100 0.835900
C61 C 0.694000 0.289600 0.737700
C62 C 0.605700 0.353800 0.774000
C63 C 0.623400 0.386500 0.910800
C64 C 0.724700 0.355500 1.010400
C65 C 0.809800 0.292400 0.976400
C66 C 0.967300 0.136000 0.814700
H67 H 1.077000 0.040000 0.768000
H68 H 0.653000 0.245000 0.532000
H69 H 0.534000 0.374000 0.703000
H70 H 0.562000 0.429000 0.938000
H71 H 0.732000 0.384000 1.105000
H72 H 0.880000 0.271000 1.048000
N73 N 0.302200 0.486900 0.634600
N74 N 0.277100 0.513700 0.497900
O75 O 0.147900 0.318700 0.815700
O76 O 0.304200 0.415500 0.891400
C77 C 0.216300 0.424300 0.654400
C78 C 0.131200 0.409700 0.527700
C79 C 0.174600 0.469700 0.428200
C80 C 0.115800 0.476700 0.288000
C81 C 0.012600 0.422300 0.251700
C82 C -0.032600 0.362000 0.348600
C83 C 0.024700 0.354400 0.486900
C84 C 0.218100 0.380200 0.794300
H85 H 0.306000 0.375000 0.979000
H86 H 0.328000 0.558000 0.470000
H87 H -0.034000 0.428000 0.156000
H88 H 0.148000 0.521000 0.224000
H89 H -0.105000 0.323000 0.324000
H90 H -0.007000 0.314000 0.556000
N91 N 0.197800 0.986900 0.865400
N92 N 0.222900 1.013700 1.002100
O93 O 0.352100 0.818700 0.684300
O94 O 0.195800 0.915500 0.608600
C95 C 0.283700 0.924300 0.845600
C96 C 0.368800 0.909700 0.972300
C97 C 0.325400 0.969700 1.071800
C98 C 0.384200 0.976700 1.212000
C99 C 0.487400 0.922300 1.248300
C100 C 0.532600 0.862000 1.151400
C101 C 0.475300 0.854400 1.013100
C102 C 0.281900 0.880200 0.705700
H103 H 0.194000 0.875000 0.521000
H104 H 0.172000 1.058000 1.030000
H105 H 0.534000 0.928000 1.344000
H106 H 0.352000 1.021000 1.276000
H107 H 0.605000 0.823000 1.176000
H108 H 0.507000 0.814000 0.944000
N109 N 0.697800 0.513100 0.365400
N110 N 0.722900 0.486300 0.502100
O111 O 0.852100 0.681300 0.184300
O112 O 0.695800 0.584500 0.108600
C113 C 0.783700 0.575700 0.345600
C114 C 0.868800 0.590300 0.472300
C115 C 0.825400 0.530300 0.571800
C116 C 0.884200 0.523300 0.712000
C117 C 0.987400 0.577700 0.748300
C118 C 1.032600 0.638000 0.651400
C119 C 0.975300 0.645600 0.513100
C120 C 0.781900 0.619800 0.205700
H121 H 0.694000 0.625000 0.021000
H122 H 0.672000 0.442000 0.530000
H123 H 1.034000 0.572000 0.844000
H124 H 0.852000 0.479000 0.776000
H125 H 1.105000 0.677000 0.676000
H126 H 1.007000 0.686000 0.444000
N127 N 0.802200 0.013100 0.134600
N128 N 0.777100 -0.013700 -0.002100
O129 O 0.647900 0.181300 0.315700
O130 O 0.804200 0.084500 0.391400
C131 C 0.716300 0.075700 0.154400
C132 C 0.631200 0.090300 0.027700
C133 C 0.674600 0.030300 -0.071800
C134 C 0.615800 0.023300 -0.212000
C135 C 0.512600 0.077700 -0.248300
C136 C 0.467400 0.138000 -0.151400
C137 C 0.524700 0.145600 -0.013100
C138 C 0.718100 0.119800 0.294300
H139 H 0.806000 0.125000 0.479000
H140 H 0.828000 -0.058000 -0.030000
H141 H 0.466000 0.072000 -0.344000
H142 H 0.648000 -0.021000 -0.276000
H143 H 0.395000 0.177000 -0.176000
H144 H 0.493000 0.186000 0.056000

#END
