./LABNEH_from_xyz.cif_generated_by_CrystalShift
_symmetry_cell_setting triclinic
_symmetry_space_group_name_H-M 'P 1'
loop_
_symmetry_equiv_pos_site_id
_symmetry_equiv_pos_as_xyz
1 x,y,z
_cell_length_a 12.780000
_cell_length_b 6.478000
_cell_length_c 16.832000
_cell_angle_alpha 90.000000
_cell_angle_beta 93.000000
_cell_angle_gamma 90.000000
_cell_volume 1391.591982
loop_
_atom_site_label
_atom_site_type_symbol
_atom_site_fract_x
_atom_site_fract_y
_atom_site_fract_z
O1 O 0.274100 1.173790 0.706700
O2 O 0.320500 0.992100 0.814400
O3 O 0.143200 0.954500 0.596200
O4 O 0.475500 0.705800 0.771400
O5 O 0.595400 0.726800 0.922800
O6 O 0.653700 0.981900 1.001200
O7 O 0.538400 0.386000 0.786800
C8 C 0.278700 1.009600 0.740000
C9 C 0.242200 0.803200 0.707900
C10 C 0.251600 0.661500 0.779500
C11 C 0.321500 0.779900 0.840200
C12 C 0.133500 0.818400 0.662300
C13 C 0.100500 0.608400 0.627300
C14 C -0.009700 0.621000 0.587600
C15 C -0.090000 0.704200 0.641400
C16 C -0.059500 0.913700 0.676100
C17 C 0.050900 0.899800 0.716500
C18 C -0.137100 1.000600 0.732200
C19 C -0.159300 1.197000 0.729600
C20 C -0.182600 0.872000 0.788700
C21 C 0.176500 0.521500 0.569700
C22 C 0.433900 0.704500 0.849700
C23 C 0.501200 0.842500 0.903700
C24 C 0.664600 0.812100 0.974100
C25 C 0.753900 0.673100 0.994900
C26 C 0.765000 0.482700 0.958600
C27 C 0.848300 0.356800 0.980200
C28 C 0.920400 0.416000 1.038000
C29 C 0.910300 0.602000 1.074300
C30 C 0.828200 0.734300 1.053900
C31 C 0.525700 0.537300 0.747300
C32 C 0.562800 0.568500 0.665300
C33 C 0.555900 0.754600 0.626400
C34 C 0.593800 0.769000 0.551000
C35 C 0.636400 0.614000 0.516600
C36 C 0.647200 0.430000 0.552200
C37 C 0.608500 0.401400 0.629800
H38 H 0.162000 1.063000 0.606000
H39 H 0.289000 0.762000 0.669000
H40 H 0.289000 0.543000 0.769000
H41 H 0.188000 0.632000 0.798000
H42 H 0.296000 0.778000 0.889000
H43 H 0.099000 0.516000 0.672000
H44 H 0.001000 0.703000 0.541000
H45 H -0.024000 0.468000 0.567000
H46 H -0.091000 0.616000 0.684000
H47 H -0.169000 0.690000 0.619000
H48 H -0.053000 1.002000 0.635000
H49 H 0.051000 0.804000 0.763000
H50 H 0.067000 1.034000 0.731000
H51 H -0.126570 1.285010 0.692340
H52 H -0.208500 1.253090 0.764910
H53 H -0.158110 0.732870 0.782540
H54 H -0.163070 0.919860 0.841340
H55 H -0.257480 0.875040 0.780560
H56 H 0.150000 0.383000 0.546000
H57 H 0.247000 0.500000 0.594000
H58 H 0.187000 0.612000 0.528000
H59 H 0.432000 0.573000 0.869000
H60 H 0.469000 0.858000 0.952000
H61 H 0.508000 0.990000 0.871000
H62 H 0.717000 0.437000 0.918000
H63 H 0.855000 0.206000 0.962000
H64 H 0.970000 0.336000 1.057000
H65 H 0.960000 0.636000 1.110000
H66 H 0.830000 0.884000 1.073000
H67 H 0.525350 0.872440 0.650880
H68 H 0.588160 0.898190 0.523270
H69 H 0.661050 0.631700 0.464120
H70 H 0.680660 0.318530 0.525960
H71 H 0.614230 0.270260 0.656280
O72 O 0.725900 0.673790 0.293300
O73 O 0.679500 0.492100 0.185600
O74 O 0.856800 0.454500 0.403800
O75 O 0.524500 0.205800 0.228600
O76 O 0.404600 0.226800 0.077200
O77 O 0.346300 0.481900 -0.001200
O78 O 0.461600 -0.114000 0.213200
C79 C 0.721300 0.509600 0.260000
C80 C 0.757800 0.303200 0.292100
C81 C 0.748400 0.161500 0.220500
C82 C 0.678500 0.279900 0.159800
C83 C 0.866500 0.318400 0.337700
C84 C 0.899500 0.108400 0.372700
C85 C 1.009700 0.121000 0.412400
C86 C 1.090000 0.204200 0.358600
C87 C 1.059500 0.413700 0.323900
C88 C 0.949100 0.399800 0.283500
C89 C 1.137100 0.500600 0.267800
C90 C 1.159300 0.697000 0.270400
C91 C 1.182600 0.372000 0.211300
C92 C 0.823500 0.021500 0.430300
C93 C 0.566100 0.204500 0.150300
C94 C 0.498800 0.342500 0.096300
C95 C 0.335400 0.312100 0.025900
C96 C 0.246100 0.173100 0.005100
C97 C 0.235000 -0.017300 0.041400
C98 C 0.151700 -0.143200 0.019800
C99 C 0.079600 -0.084000 -0.038000
C100 C 0.089700 0.102000 -0.074300
C101 C 0.171800 0.234300 -0.053900
C102 C 0.474300 0.037300 0.252700
C103 C 0.437200 0.068500 0.334700
C104 C 0.444100 0.254600 0.373600
C105 C 0.406200 0.269000 0.449000
C106 C 0.363600 0.114000 0.483400
C107 C 0.352800 -0.070000 0.447800
C108 C 0.391500 -0.098600 0.370200
H109 H 0.838000 0.563000 0.394000
H110 H 0.711000 0.262000 0.331000
H111 H 0.711000 0.043000 0.231000
H112 H 0.812000 0.132000 0.202000
H113 H 0.704000 0.278000 0.111000
H114 H 0.901000 0.016000 0.328000
H115 H 0.999000 0.203000 0.459000
H116 H 1.024000 -0.032000 0.433000
H117 H 1.091000 0.116000 0.316000
H118 H 1.169000 0.190000 0.381000
H119 H 1.053000 0.502000 0.365000
H120 H 0.949000 0.304000 0.237000
H121 H 0.933000 0.534000 0.269000
H122 H 1.126570 0.785010 0.307660
H123 H 1.208500 0.753090 0.235090
H124 H 1.158110 0.232870 0.217460
H125 H 1.163070 0.419860 0.158660
H126 H 1.257480 0.375040 0.219440
H127 H 0.850000 -0.117000 0.454000
H128 H 0.753000 0.000000 0.406000
H129 H 0.813000 0.112000 0.472000
H130 H 0.568000 0.073000 0.131000
H131 H 0.531000 0.358000 0.048000
H132 H 0.492000 0.490000 0.129000
H133 H 0.283000 -0.063000 0.082000
H134 H 0.145000 -0.294000 0.038000
H135 H 0.030000 -0.164000 -0.057000
H136 H 0.040000 0.136000 -0.110000
H137 H 0.170000 0.384000 -0.073000
H138 H 0.474650 0.372440 0.349120
H139 H 0.411840 0.398190 0.476730
H140 H 0.338950 0.131700 0.535880
H141 H 0.319340 -0.181470 0.474040
H142 H 0.385770 -0.229740 0.343720

#END
