
#######################################################################
#
#                 Cambridge Crystallographic Data Centre
#                                CCDC 
#
#######################################################################
#
# If this CIF has been generated from an entry in the Cambridge 
# Structural Database, then it will include bibliographic, chemical, 
# crystal, experimental, refinement or atomic coordinate data resulting 
# from the CCDC's data processing and validation procedures.
#
#######################################################################

data_LABNIL
_symmetry_cell_setting           monoclinic
_symmetry_space_group_name_H-M   'P 21/n'
_symmetry_Int_Tables_number      14
_space_group_name_Hall           '-P 2yn'
loop_
_symmetry_equiv_pos_site_id
_symmetry_equiv_pos_as_xyz
1 x,y,z
2 1/2-x,1/2+y,1/2-z
3 -x,-y,-z
4 1/2+x,1/2-y,1/2+z
_cell_length_a                   10.402(2)
_cell_length_b                   15.025(3)
_cell_length_c                   9.467(2)
_cell_angle_alpha                90
_cell_angle_beta                 96.24(3)
_cell_angle_gamma                90
_cell_volume                     1470.83
loop_
_atom_site_label
_atom_site_type_symbol
_atom_site_fract_x
_atom_site_fract_y
_atom_site_fract_z
O1 O 0.5006(1) 0.4234(1) 0.2232(1)
O2 O 0.5198(1) 0.3561(1) 0.4364(1)
N1 N 0.3009(1) 0.3146(1) 0.1272(1)
N2 N 0.2032(1) 0.2559(1) 0.1143(2)
C1 C 0.3579(2) 0.3073(1) 0.2603(2)
C2 C 0.2949(2) 0.2419(1) 0.3359(2)
C3 C 0.1940(2) 0.2104(1) 0.2377(2)
C4 C 0.1057(2) 0.1462(1) 0.2740(2)
C5 C 0.1234(2) 0.1135(1) 0.4108(2)
C6 C 0.2247(2) 0.1445(1) 0.5104(2)
C7 C 0.3098(2) 0.2076(1) 0.4764(2)
C8 C 0.4673(2) 0.3640(1) 0.3147(2)
H1 H 0.577(3) 0.460(2) 0.268(3)
H2 H 0.153(2) 0.255(2) 0.032(3)
H3 H 0.034(2) 0.126(1) 0.203(2)
H4 H 0.062(2) 0.071(1) 0.438(2)
H5 H 0.232(2) 0.116(1) 0.605(3)
H6 H 0.380(2) 0.229(1) 0.548(2)
O1 O -0.0006(1) 0.9234(1) 0.2768(1)
O2 O -0.0198(1) 0.8561(1) 0.0636(1)
N1 N 0.1991(1) 0.8146(1) 0.3728(1)
N2 N 0.2968(1) 0.7559(1) 0.3857(2)
C1 C 0.1421(2) 0.8073(1) 0.2397(2)
C2 C 0.2051(2) 0.7419(1) 0.1641(2)
C3 C 0.3060(2) 0.7104(1) 0.2623(2)
C4 C 0.3943(2) 0.6462(1) 0.2260(2)
C5 C 0.3766(2) 0.6135(1) 0.0892(2)
C6 C 0.2753(2) 0.6445(1) -0.0104(2)
C7 C 0.1902(2) 0.7076(1) 0.0236(2)
C8 C 0.0327(2) 0.8640(1) 0.1853(2)
H1 H -0.077(3) 0.960(2) 0.232(3)
H2 H 0.347(2) 0.755(2) 0.468(3)
H3 H 0.466(2) 0.626(1) 0.297(2)
H4 H 0.438(2) 0.571(1) 0.062(2)
H5 H 0.268(2) 0.616(1) -0.105(3)
H6 H 0.120(2) 0.729(1) -0.048(2)
O1 O 0.4994(1) 0.5766(1) 0.7768(1)
O2 O 0.4802(1) 0.6439(1) 0.5636(1)
N1 N 0.6991(1) 0.6854(1) 0.8728(1)
N2 N 0.7968(1) 0.7441(1) 0.8857(2)
C1 C 0.6421(2) 0.6927(1) 0.7397(2)
C2 C 0.7051(2) 0.7581(1) 0.6641(2)
C3 C 0.8060(2) 0.7896(1) 0.7623(2)
C4 C 0.8943(2) 0.8538(1) 0.7260(2)
C5 C 0.8766(2) 0.8865(1) 0.5892(2)
C6 C 0.7753(2) 0.8555(1) 0.4896(2)
C7 C 0.6902(2) 0.7924(1) 0.5236(2)
C8 C 0.5327(2) 0.6360(1) 0.6853(2)
H1 H 0.423(3) 0.540(2) 0.732(3)
H2 H 0.847(2) 0.745(2) 0.968(3)
H3 H 0.966(2) 0.874(1) 0.797(2)
H4 H 0.938(2) 0.929(1) 0.562(2)
H5 H 0.768(2) 0.884(1) 0.395(3)
H6 H 0.620(2) 0.771(1) 0.452(2)
O1 O 1.0006(1) 0.0766(1) 0.7232(1)
O2 O 1.0198(1) 0.1439(1) 0.9364(1)
N1 N 0.8009(1) 0.1854(1) 0.6272(1)
N2 N 0.7032(1) 0.2441(1) 0.6143(2)
C1 C 0.8579(2) 0.1927(1) 0.7603(2)
C2 C 0.7949(2) 0.2581(1) 0.8359(2)
C3 C 0.6940(2) 0.2896(1) 0.7377(2)
C4 C 0.6057(2) 0.3538(1) 0.7740(2)
C5 C 0.6234(2) 0.3865(1) 0.9108(2)
C6 C 0.7247(2) 0.3555(1) 1.0104(2)
C7 C 0.8098(2) 0.2924(1) 0.9764(2)
C8 C 0.9673(2) 0.1360(1) 0.8147(2)
H1 H 1.077(3) 0.040(2) 0.768(3)
H2 H 0.653(2) 0.245(2) 0.532(3)
H3 H 0.534(2) 0.374(1) 0.703(2)
H4 H 0.562(2) 0.429(1) 0.938(2)
H5 H 0.732(2) 0.384(1) 1.105(3)
H6 H 0.880(2) 0.271(1) 1.048(2)
N3 N 0.3022(1) 0.4869(1) 0.6346(1)
N4 N 0.2771(2) 0.5137(1) 0.4979(2)
O3 O 0.1479(2) 0.3187(1) 0.8157(2)
O4 O 0.3042(1) 0.4155(1) 0.8914(1)
C9 C 0.2163(2) 0.4243(1) 0.6544(2)
C10 C 0.1312(2) 0.4097(1) 0.5277(2)
C11 C 0.1746(2) 0.4697(1) 0.4282(2)
C12 C 0.1158(2) 0.4767(1) 0.2880(2)
C13 C 0.0126(2) 0.4223(1) 0.2517(2)
C14 C -0.0326(2) 0.3620(1) 0.3486(2)
C15 C 0.0247(2) 0.3544(1) 0.4869(2)
C16 C 0.2181(2) 0.3802(1) 0.7943(2)
H7 H 0.306(3) 0.375(2) 0.979(3)
H8 H 0.328(2) 0.558(2) 0.470(2)
H9 H -0.034(3) 0.428(2) 0.156(3)
H10 H 0.148(2) 0.521(1) 0.224(2)
H11 H -0.105(2) 0.323(2) 0.324(3)
H12 H -0.007(2) 0.314(2) 0.556(3)
N3 N 0.1978(1) 0.9869(1) 0.8654(1)
N4 N 0.2229(2) 1.0137(1) 1.0021(2)
O3 O 0.3521(2) 0.8187(1) 0.6843(2)
O4 O 0.1958(1) 0.9155(1) 0.6086(1)
C9 C 0.2837(2) 0.9243(1) 0.8456(2)
C10 C 0.3688(2) 0.9097(1) 0.9723(2)
C11 C 0.3254(2) 0.9697(1) 1.0718(2)
C12 C 0.3842(2) 0.9767(1) 1.2120(2)
C13 C 0.4874(2) 0.9223(1) 1.2483(2)
C14 C 0.5326(2) 0.8620(1) 1.1514(2)
C15 C 0.4753(2) 0.8544(1) 1.0131(2)
C16 C 0.2819(2) 0.8802(1) 0.7057(2)
H7 H 0.194(3) 0.875(2) 0.521(3)
H8 H 0.172(2) 1.058(2) 1.030(2)
H9 H 0.534(3) 0.928(2) 1.344(3)
H10 H 0.352(2) 1.021(1) 1.276(2)
H11 H 0.605(2) 0.823(2) 1.176(3)
H12 H 0.507(2) 0.814(2) 0.944(3)
N3 N 0.6978(1) 0.5131(1) 0.3654(1)
N4 N 0.7229(2) 0.4863(1) 0.5021(2)
O3 O 0.8521(2) 0.6813(1) 0.1843(2)
O4 O 0.6958(1) 0.5845(1) 0.1086(1)
C9 C 0.7837(2) 0.5757(1) 0.3456(2)
C10 C 0.8688(2) 0.5903(1) 0.4723(2)
C11 C 0.8254(2) 0.5303(1) 0.5718(2)
C12 C 0.8842(2) 0.5233(1) 0.7120(2)
C13 C 0.9874(2) 0.5777(1) 0.7483(2)
C14 C 1.0326(2) 0.6380(1) 0.6514(2)
C15 C 0.9753(2) 0.6456(1) 0.5131(2)
C16 C 0.7819(2) 0.6198(1) 0.2057(2)
H7 H 0.694(3) 0.625(2) 0.021(3)
H8 H 0.672(2) 0.442(2) 0.530(2)
H9 H 1.034(3) 0.572(2) 0.844(3)
H10 H 0.852(2) 0.479(1) 0.776(2)
H11 H 1.105(2) 0.677(2) 0.676(3)
H12 H 1.007(2) 0.686(2) 0.444(3)
N3 N 0.8022(1) 0.0131(1) 0.1346(1)
N4 N 0.7771(2) -0.0137(1) -0.0021(2)
O3 O 0.6479(2) 0.1813(1) 0.3157(2)
O4 O 0.8042(1) 0.0845(1) 0.3914(1)
C9 C 0.7163(2) 0.0757(1) 0.1544(2)
C10 C 0.6312(2) 0.0903(1) 0.0277(2)
C11 C 0.6746(2) 0.0303(1) -0.0718(2)
C12 C 0.6158(2) 0.0233(1) -0.2120(2)
C13 C 0.5126(2) 0.0777(1) -0.2483(2)
C14 C 0.4674(2) 0.1380(1) -0.1514(2)
C15 C 0.5247(2) 0.1456(1) -0.0131(2)
C16 C 0.7181(2) 0.1198(1) 0.2943(2)
H7 H 0.806(3) 0.125(2) 0.479(3)
H8 H 0.828(2) -0.058(2) -0.030(2)
H9 H 0.466(3) 0.072(2) -0.344(3)
H10 H 0.648(2) -0.021(1) -0.276(2)
H11 H 0.395(2) 0.177(2) -0.176(3)
H12 H 0.493(2) 0.186(2) 0.056(3)

#END
