
#######################################################################
#
#                 Cambridge Crystallographic Data Centre
#                                CCDC 
#
#######################################################################
#
# If this CIF has been generated from an entry in the Cambridge 
# Structural Database, then it will include bibliographic, chemical, 
# crystal, experimental, refinement or atomic coordinate data resulting 
# from the CCDC's data processing and validation procedures.
#
#######################################################################

data_LABNEH
_symmetry_cell_setting           monoclinic
_symmetry_space_group_name_H-M   'P 21'
_symmetry_Int_Tables_number      4
_space_group_name_Hall           'P 2yb'
loop_
_symmetry_equiv_pos_site_id
_symmetry_equiv_pos_as_xyz
1 x,y,z
2 -x,1/2+y,-z
_cell_length_a                   12.780(1)
_cell_length_b                   6.478(1)
_cell_length_c                   16.832(2)
_cell_angle_alpha                90
_cell_angle_beta                 93.00(1)
_cell_angle_gamma                90
_cell_volume                     1391.59
loop_
_atom_site_label
_atom_site_type_symbol
_atom_site_fract_x
_atom_site_fract_y
_atom_site_fract_z
O1 O 0.2741(3) 1.17379 0.7067(2)
O2 O 0.3205(2) 0.9921(7) 0.8144(2)
O3 O 0.1432(3) 0.9545(7) 0.5962(2)
O4 O 0.4755(2) 0.7058(7) 0.7714(2)
O5 O 0.5954(2) 0.7268(8) 0.9228(2)
O6 O 0.6537(3) 0.9819(9) 1.0012(2)
O7 O 0.5384(3) 0.3860(9) 0.7868(3)
C1 C 0.2787(3) 1.0096(8) 0.7400(3)
C2 C 0.2422(3) 0.8032(8) 0.7079(2)
C3 C 0.2516(4) 0.6615(9) 0.7795(2)
C4 C 0.3215(3) 0.7799(8) 0.8402(3)
C5 C 0.1335(3) 0.8184(8) 0.6623(2)
C6 C 0.1005(4) 0.6084(8) 0.6273(3)
C7 C -0.0097(5) 0.6210(12) 0.5876(3)
C8 C -0.0900(5) 0.7042(12) 0.6414(4)
C9 C -0.0595(3) 0.9137(10) 0.6761(3)
C10 C 0.0509(3) 0.8998(10) 0.7165(3)
C11 C -0.1371(4) 1.0006(12) 0.7322(3)
C12 C -0.1593(8) 1.197(2) 0.7296(6)
C13 C -0.1826(5) 0.872(2) 0.7887(4)
C14 C 0.1765(6) 0.5215(11) 0.5697(3)
C15 C 0.4339(3) 0.7045(10) 0.8497(2)
C16 C 0.5012(4) 0.8425(10) 0.9037(3)
C17 C 0.6646(3) 0.8121(10) 0.9741(2)
C18 C 0.7539(3) 0.6731(10) 0.9949(2)
C19 C 0.7650(3) 0.4827(11) 0.9586(3)
C20 C 0.8483(4) 0.3568(13) 0.9802(4)
C21 C 0.9204(5) 0.416(2) 1.0380(4)
C22 C 0.9103(5) 0.602(2) 1.0743(3)
C23 C 0.8282(4) 0.7343(13) 1.0539(3)
C24 C 0.5257(3) 0.5373(9) 0.7473(3)
C25 C 0.5628(3) 0.5685(11) 0.6653(3)
C26 C 0.5559(5) 0.7546(14) 0.6264(4)
C27 C 0.5938(5) 0.769(2) 0.5510(4)
C28 C 0.6364(6) 0.614(2) 0.5166(6)
C29 C 0.6472(7) 0.430(2) 0.5522(6)
C30 C 0.6085(5) 0.4014(14) 0.6298(4)
H1 H 0.162(6) 1.063(13) 0.606(4)
H2 H 0.289(3) 0.762(7) 0.669(2)
H3 H 0.289(3) 0.543(7) 0.769(2)
H4 H 0.188(3) 0.632(6) 0.798(2)
H5 H 0.296(2) 0.778(5) 0.889(2)
H6 H 0.099(3) 0.516(6) 0.672(2)
H7 H 0.001(4) 0.703(10) 0.541(3)
H8 H -0.024(4) 0.468(9) 0.567(3)
H9 H -0.091(3) 0.616(8) 0.684(3)
H10 H -0.169(5) 0.690(12) 0.619(3)
H11 H -0.053(3) 1.002(6) 0.635(2)
H12 H 0.051(3) 0.804(7) 0.763(2)
H13 H 0.067(3) 1.034(8) 0.731(2)
H14 H -0.12657 1.28501 0.69234
H15 H -0.2085 1.25309 0.76491
H16 H -0.15811 0.73287 0.78254
H17 H -0.16307 0.91986 0.84134
H18 H -0.25748 0.87504 0.78056
H19 H 0.150(3) 0.383(8) 0.546(2)
H20 H 0.247(4) 0.500(8) 0.594(3)
H21 H 0.187(4) 0.612(10) 0.528(3)
H22 H 0.432(3) 0.573(7) 0.869(2)
H23 H 0.469(3) 0.858(7) 0.952(2)
H24 H 0.508(4) 0.990(11) 0.871(3)
H25 H 0.717(4) 0.437(8) 0.918(3)
H26 H 0.855(4) 0.206(10) 0.962(3)
H27 H 0.970(5) 0.336(11) 1.057(4)
H28 H 0.960(4) 0.636(7) 1.110(3)
H29 H 0.830(4) 0.884(11) 1.073(3)
H30 H 0.52535 0.87244 0.65088
H31 H 0.58816 0.89819 0.52327
H32 H 0.66105 0.6317 0.46412
H33 H 0.68066 0.31853 0.52596
H34 H 0.61423 0.27026 0.65628
O1 O 0.7259(3) 0.67379 0.2933(2)
O2 O 0.6795(2) 0.4921(7) 0.1856(2)
O3 O 0.8568(3) 0.4545(7) 0.4038(2)
O4 O 0.5245(2) 0.2058(7) 0.2286(2)
O5 O 0.4046(2) 0.2268(8) 0.0772(2)
O6 O 0.3463(3) 0.4819(9) -0.0012(2)
O7 O 0.4616(3) -0.1140(9) 0.2132(3)
C1 C 0.7213(3) 0.5096(8) 0.2600(3)
C2 C 0.7578(3) 0.3032(8) 0.2921(2)
C3 C 0.7484(4) 0.1615(9) 0.2205(2)
C4 C 0.6785(3) 0.2799(8) 0.1598(3)
C5 C 0.8665(3) 0.3184(8) 0.3377(2)
C6 C 0.8995(4) 0.1084(8) 0.3727(3)
C7 C 1.0097(5) 0.1210(12) 0.4124(3)
C8 C 1.0900(5) 0.2042(12) 0.3586(4)
C9 C 1.0595(3) 0.4137(10) 0.3239(3)
C10 C 0.9491(3) 0.3998(10) 0.2835(3)
C11 C 1.1371(4) 0.5006(12) 0.2678(3)
C12 C 1.1593(8) 0.697(2) 0.2704(6)
C13 C 1.1826(5) 0.372(2) 0.2113(4)
C14 C 0.8235(6) 0.0215(11) 0.4303(3)
C15 C 0.5661(3) 0.2045(10) 0.1503(2)
C16 C 0.4988(4) 0.3425(10) 0.0963(3)
C17 C 0.3354(3) 0.3121(10) 0.0259(2)
C18 C 0.2461(3) 0.1731(10) 0.0051(2)
C19 C 0.2350(3) -0.0173(11) 0.0414(3)
C20 C 0.1517(4) -0.1432(13) 0.0198(4)
C21 C 0.0796(5) -0.084(2) -0.0380(4)
C22 C 0.0897(5) 0.102(2) -0.0743(3)
C23 C 0.1718(4) 0.2343(13) -0.0539(3)
C24 C 0.4743(3) 0.0373(9) 0.2527(3)
C25 C 0.4372(3) 0.0685(11) 0.3347(3)
C26 C 0.4441(5) 0.2546(14) 0.3736(4)
C27 C 0.4062(5) 0.269(2) 0.4490(4)
C28 C 0.3636(6) 0.114(2) 0.4834(6)
C29 C 0.3528(7) -0.070(2) 0.4478(6)
C30 C 0.3915(5) -0.0986(14) 0.3702(4)
H1 H 0.838(6) 0.563(13) 0.394(4)
H2 H 0.711(3) 0.262(7) 0.331(2)
H3 H 0.711(3) 0.043(7) 0.231(2)
H4 H 0.812(3) 0.132(6) 0.202(2)
H5 H 0.704(2) 0.278(5) 0.111(2)
H6 H 0.901(3) 0.016(6) 0.328(2)
H7 H 0.999(4) 0.203(10) 0.459(3)
H8 H 1.024(4) -0.032(9) 0.433(3)
H9 H 1.091(3) 0.116(8) 0.316(3)
H10 H 1.169(5) 0.190(12) 0.381(3)
H11 H 1.053(3) 0.502(6) 0.365(2)
H12 H 0.949(3) 0.304(7) 0.237(2)
H13 H 0.933(3) 0.534(8) 0.269(2)
H14 H 1.12657 0.78501 0.30766
H15 H 1.2085 0.75309 0.23509
H16 H 1.15811 0.23287 0.21746
H17 H 1.16307 0.41986 0.15866
H18 H 1.25748 0.37504 0.21944
H19 H 0.850(3) -0.117(8) 0.454(2)
H20 H 0.753(4) 0.000(8) 0.406(3)
H21 H 0.813(4) 0.112(10) 0.472(3)
H22 H 0.568(3) 0.073(7) 0.131(2)
H23 H 0.531(3) 0.358(7) 0.048(2)
H24 H 0.492(4) 0.490(11) 0.129(3)
H25 H 0.283(4) -0.063(8) 0.082(3)
H26 H 0.145(4) -0.294(10) 0.038(3)
H27 H 0.030(5) -0.164(11) -0.057(4)
H28 H 0.040(4) 0.136(7) -0.110(3)
H29 H 0.170(4) 0.384(11) -0.073(3)
H30 H 0.47465 0.37244 0.34912
H31 H 0.41184 0.39819 0.47673
H32 H 0.33895 0.1317 0.53588
H33 H 0.31934 -0.18147 0.47404
H34 H 0.38577 -0.22974 0.34372

#END
