
#######################################################################
#
#                 Cambridge Crystallographic Data Centre
#                                CCDC 
#
#######################################################################
#
# If this CIF has been generated from an entry in the Cambridge 
# Structural Database, then it will include bibliographic, chemical, 
# crystal, experimental, refinement or atomic coordinate data resulting 
# from the CCDC's data processing and validation procedures.
#
#######################################################################

data_LABQEK
_symmetry_cell_setting           monoclinic
_symmetry_space_group_name_H-M   'P 21/c'
_symmetry_Int_Tables_number      14
_space_group_name_Hall           '-P 2ybc'
loop_
_symmetry_equiv_pos_site_id
_symmetry_equiv_pos_as_xyz
1 x,y,z
2 -x,1/2+y,1/2-z
3 -x,-y,-z
4 x,1/2-y,1/2+z
_cell_length_a                   11.381(2)
_cell_length_b                   8.915(2)
_cell_length_c                   18.918(4)
_cell_angle_alpha                90
_cell_angle_beta                 96.22(1)
_cell_angle_gamma                90
_cell_volume                     1908.15
loop_
_atom_site_label
_atom_site_type_symbol
_atom_site_fract_x
_atom_site_fract_y
_atom_site_fract_z
C1 C 0.4851(2) 0.5013(3) 0.1795(1)
C2 C 0.4192(2) 0.6265(3) 0.1805(1)
N1 N 0.4489(2) 0.7260(2) 0.1279(1)
C3 C 0.5377(2) 0.6580(3) 0.0921(1)
C4 C 0.5959(2) 0.7074(3) 0.0354(1)
C5 C 0.6792(2) 0.6108(3) 0.0130(1)
C6 C 0.7049(2) 0.4708(3) 0.0438(1)
C7 C 0.7975(2) 0.3724(3) 0.0143(1)
C8 C 0.8456(2) 0.2519(3) 0.0672(1)
C9 C 0.7417(2) 0.1661(3) 0.0943(1)
C10 C 0.6663(2) 0.2705(3) 0.1344(1)
C11 C 0.6453(2) 0.4210(3) 0.0995(1)
C12 C 0.5610(2) 0.5179(3) 0.1236(1)
C13 C 0.4000(2) 0.8657(3) 0.1124(1)
O1 O 0.4276(2) 0.9466(2) 0.06638(9)
O2 O 0.3184(1) 0.8930(2) 0.15683(9)
C14 C 0.2504(2) 1.0356(3) 0.1524(1)
C15 C 0.3333(2) 1.1680(3) 0.1625(2)
C16 C 0.1721(2) 1.0407(3) 0.0823(1)
C17 C 0.1783(2) 1.0207(3) 0.2148(1)
C18 C 0.9288(2) 0.3113(3) 0.1290(1)
O3 O 0.9381(1) 0.2573(2) 0.18782(9)
O4 O 0.9938(1) 0.4262(2) 0.11045(9)
C19 C 1.0781(2) 0.4868(3) 0.1663(2)
C20 C 0.7752(2) 0.0272(3) 0.1365(1)
O5 O 0.7356(2) -0.0105(2) 0.19032(9)
O6 O 0.8516(2) -0.0578(2) 0.10450(9)
C21 C 0.8816(3) -0.1999(3) 0.1377(2)
H1 H 0.4817 0.4159 0.2101
H2 H 0.3608 0.6452 0.2124
H3 H 0.5786 0.8028 0.0131
H4 H 0.7220 0.6411 -0.0256
H5 H 0.8614 0.4341 0.0021
H6 H 0.7624 0.3249 -0.0284
H7 H 0.8893 0.1814 0.0419
H8 H 0.6919 0.1335 0.0530
H9 H 0.7052 0.2846 0.1815
H10 H 0.5913 0.2238 0.1384
H11 H 0.3713 1.1850 0.1204
H12 H 0.3908 1.1483 0.2024
H13 H 0.2891 1.2548 0.1738
H14 H 0.2185 1.0479 0.0430
H15 H 0.1199 1.1251 0.0833
H16 H 0.1241 0.9519 0.0787
H17 H 0.2282 1.0190 0.2591
H18 H 0.1326 0.9303 0.2085
H19 H 0.1239 1.1032 0.2134
H20 H 1.1266 0.4081 0.1885
H21 H 1.0358 0.5363 0.2009
H22 H 1.1263 0.5603 0.1462
H23 H 0.8109 -0.2488 0.1491
H24 H 0.9339 -0.1847 0.1804
H25 H 0.9209 -0.2624 0.1062
C1 C 0.5149(2) 0.0013(3) 0.3205(1)
C2 C 0.5808(2) 0.1265(3) 0.3195(1)
N1 N 0.5511(2) 0.2260(2) 0.3721(1)
C3 C 0.4623(2) 0.1580(3) 0.4079(1)
C4 C 0.4041(2) 0.2074(3) 0.4646(1)
C5 C 0.3208(2) 0.1108(3) 0.4870(1)
C6 C 0.2951(2) -0.0292(3) 0.4562(1)
C7 C 0.2025(2) -0.1276(3) 0.4857(1)
C8 C 0.1544(2) -0.2481(3) 0.4328(1)
C9 C 0.2583(2) -0.3339(3) 0.4057(1)
C10 C 0.3337(2) -0.2295(3) 0.3656(1)
C11 C 0.3547(2) -0.0790(3) 0.4005(1)
C12 C 0.4390(2) 0.0179(3) 0.3764(1)
C13 C 0.6000(2) 0.3657(3) 0.3876(1)
O1 O 0.5724(2) 0.4466(2) 0.43362(9)
O2 O 0.6816(1) 0.3930(2) 0.34317(9)
C14 C 0.7496(2) 0.5356(3) 0.3476(1)
C15 C 0.6667(2) 0.6680(3) 0.3375(2)
C16 C 0.8279(2) 0.5407(3) 0.4177(1)
C17 C 0.8217(2) 0.5207(3) 0.2852(1)
C18 C 0.0712(2) -0.1887(3) 0.3710(1)
O3 O 0.0619(1) -0.2427(2) 0.31218(9)
O4 O 0.0062(1) -0.0738(2) 0.38955(9)
C19 C -0.0781(2) -0.0132(3) 0.3337(2)
C20 C 0.2248(2) -0.4728(3) 0.3635(1)
O5 O 0.2644(2) -0.5105(2) 0.30968(9)
O6 O 0.1484(2) -0.5578(2) 0.39550(9)
C21 C 0.1184(3) -0.6999(3) 0.3623(2)
H1 H 0.5183 -0.0841 0.2899
H2 H 0.6392 0.1452 0.2876
H3 H 0.4214 0.3028 0.4869
H4 H 0.2780 0.1411 0.5256
H5 H 0.1386 -0.0659 0.4979
H6 H 0.2376 -0.1751 0.5284
H7 H 0.1107 -0.3186 0.4581
H8 H 0.3081 -0.3665 0.4470
H9 H 0.2948 -0.2154 0.3185
H10 H 0.4087 -0.2762 0.3616
H11 H 0.6287 0.6850 0.3796
H12 H 0.6092 0.6483 0.2976
H13 H 0.7109 0.7548 0.3262
H14 H 0.7815 0.5479 0.4570
H15 H 0.8801 0.6251 0.4167
H16 H 0.8759 0.4519 0.4213
H17 H 0.7718 0.5190 0.2409
H18 H 0.8674 0.4303 0.2915
H19 H 0.8761 0.6032 0.2866
H20 H -0.1266 -0.0919 0.3115
H21 H -0.0358 0.0363 0.2991
H22 H -0.1263 0.0603 0.3538
H23 H 0.1891 -0.7488 0.3509
H24 H 0.0661 -0.6847 0.3196
H25 H 0.0791 -0.7624 0.3938
C1 C 0.5149(2) 0.4987(3) 0.8205(1)
C2 C 0.5808(2) 0.3735(3) 0.8195(1)
N1 N 0.5511(2) 0.2740(2) 0.8721(1)
C3 C 0.4623(2) 0.3420(3) 0.9079(1)
C4 C 0.4041(2) 0.2926(3) 0.9646(1)
C5 C 0.3208(2) 0.3892(3) 0.9870(1)
C6 C 0.2951(2) 0.5292(3) 0.9562(1)
C7 C 0.2025(2) 0.6276(3) 0.9857(1)
C8 C 0.1544(2) 0.7481(3) 0.9328(1)
C9 C 0.2583(2) 0.8339(3) 0.9057(1)
C10 C 0.3337(2) 0.7295(3) 0.8656(1)
C11 C 0.3547(2) 0.5790(3) 0.9005(1)
C12 C 0.4390(2) 0.4821(3) 0.8764(1)
C13 C 0.6000(2) 0.1343(3) 0.8876(1)
O1 O 0.5724(2) 0.0534(2) 0.93362(9)
O2 O 0.6816(1) 0.1070(2) 0.84317(9)
C14 C 0.7496(2) -0.0356(3) 0.8476(1)
C15 C 0.6667(2) -0.1680(3) 0.8375(2)
C16 C 0.8279(2) -0.0407(3) 0.9177(1)
C17 C 0.8217(2) -0.0207(3) 0.7852(1)
C18 C 0.0712(2) 0.6887(3) 0.8710(1)
O3 O 0.0619(1) 0.7427(2) 0.81218(9)
O4 O 0.0062(1) 0.5738(2) 0.88955(9)
C19 C -0.0781(2) 0.5132(3) 0.8337(2)
C20 C 0.2248(2) 0.9728(3) 0.8635(1)
O5 O 0.2644(2) 1.0105(2) 0.80968(9)
O6 O 0.1484(2) 1.0578(2) 0.89550(9)
C21 C 0.1184(3) 1.1999(3) 0.8623(2)
H1 H 0.5183 0.5841 0.7899
H2 H 0.6392 0.3548 0.7876
H3 H 0.4214 0.1972 0.9869
H4 H 0.2780 0.3589 1.0256
H5 H 0.1386 0.5659 0.9979
H6 H 0.2376 0.6751 1.0284
H7 H 0.1107 0.8186 0.9581
H8 H 0.3081 0.8665 0.9470
H9 H 0.2948 0.7154 0.8185
H10 H 0.4087 0.7762 0.8616
H11 H 0.6287 -0.1850 0.8796
H12 H 0.6092 -0.1483 0.7976
H13 H 0.7109 -0.2548 0.8262
H14 H 0.7815 -0.0479 0.9570
H15 H 0.8801 -0.1251 0.9167
H16 H 0.8759 0.0481 0.9213
H17 H 0.7718 -0.0190 0.7409
H18 H 0.8674 0.0697 0.7915
H19 H 0.8761 -0.1032 0.7866
H20 H -0.1266 0.5919 0.8115
H21 H -0.0358 0.4637 0.7991
H22 H -0.1263 0.4397 0.8538
H23 H 0.1891 1.2488 0.8509
H24 H 0.0661 1.1847 0.8196
H25 H 0.0791 1.2624 0.8938
C1 C 0.4851(2) 0.9987(3) 0.6795(1)
C2 C 0.4192(2) 0.8735(3) 0.6805(1)
N1 N 0.4489(2) 0.7740(2) 0.6279(1)
C3 C 0.5377(2) 0.8420(3) 0.5921(1)
C4 C 0.5959(2) 0.7926(3) 0.5354(1)
C5 C 0.6792(2) 0.8892(3) 0.5130(1)
C6 C 0.7049(2) 1.0292(3) 0.5438(1)
C7 C 0.7975(2) 1.1276(3) 0.5143(1)
C8 C 0.8456(2) 1.2481(3) 0.5672(1)
C9 C 0.7417(2) 1.3339(3) 0.5943(1)
C10 C 0.6663(2) 1.2295(3) 0.6344(1)
C11 C 0.6453(2) 1.0790(3) 0.5995(1)
C12 C 0.5610(2) 0.9821(3) 0.6236(1)
C13 C 0.4000(2) 0.6343(3) 0.6124(1)
O1 O 0.4276(2) 0.5534(2) 0.56638(9)
O2 O 0.3184(1) 0.6070(2) 0.65683(9)
C14 C 0.2504(2) 0.4644(3) 0.6524(1)
C15 C 0.3333(2) 0.3320(3) 0.6625(2)
C16 C 0.1721(2) 0.4593(3) 0.5823(1)
C17 C 0.1783(2) 0.4793(3) 0.7148(1)
C18 C 0.9288(2) 1.1887(3) 0.6290(1)
O3 O 0.9381(1) 1.2427(2) 0.68782(9)
O4 O 0.9938(1) 1.0738(2) 0.61045(9)
C19 C 1.0781(2) 1.0132(3) 0.6663(2)
C20 C 0.7752(2) 1.4728(3) 0.6365(1)
O5 O 0.7356(2) 1.5105(2) 0.69032(9)
O6 O 0.8516(2) 1.5578(2) 0.60450(9)
C21 C 0.8816(3) 1.6999(3) 0.6377(2)
H1 H 0.4817 1.0841 0.7101
H2 H 0.3608 0.8548 0.7124
H3 H 0.5786 0.6972 0.5131
H4 H 0.7220 0.8589 0.4744
H5 H 0.8614 1.0659 0.5021
H6 H 0.7624 1.1751 0.4716
H7 H 0.8893 1.3186 0.5419
H8 H 0.6919 1.3665 0.5530
H9 H 0.7052 1.2154 0.6815
H10 H 0.5913 1.2762 0.6384
H11 H 0.3713 0.3150 0.6204
H12 H 0.3908 0.3517 0.7024
H13 H 0.2891 0.2452 0.6738
H14 H 0.2185 0.4521 0.5430
H15 H 0.1199 0.3749 0.5833
H16 H 0.1241 0.5481 0.5787
H17 H 0.2282 0.4810 0.7591
H18 H 0.1326 0.5697 0.7085
H19 H 0.1239 0.3968 0.7134
H20 H 1.1266 1.0919 0.6885
H21 H 1.0358 0.9637 0.7009
H22 H 1.1263 0.9397 0.6462
H23 H 0.8109 1.7488 0.6491
H24 H 0.9339 1.6847 0.6804
H25 H 0.9209 1.7624 0.6062

#END
