
#######################################################################
#
#                 Cambridge Crystallographic Data Centre
#                                CCDC 
#
#######################################################################
#
# If this CIF has been generated from an entry in the Cambridge 
# Structural Database, then it will include bibliographic, chemical, 
# crystal, experimental, refinement or atomic coordinate data resulting 
# from the CCDC's data processing and validation procedures.
#
#######################################################################

data_LABRIQ
_symmetry_cell_setting           monoclinic
_symmetry_space_group_name_H-M   'P 21/n'
_symmetry_Int_Tables_number      14
_space_group_name_Hall           '-P 2yn'
loop_
_symmetry_equiv_pos_site_id
_symmetry_equiv_pos_as_xyz
1 x,y,z
2 1/2+x,1/2-y,1/2+z
3 -x,-y,-z
4 1/2-x,1/2+y,1/2-z
_cell_length_a                   7.6258(11)
_cell_length_b                   5.6926(9)
_cell_length_c                   8.2861(13)
_cell_angle_alpha                90
_cell_angle_beta                 103.594(3)
_cell_angle_gamma                90
_cell_volume                     349.628
loop_
_atom_site_label
_atom_site_type_symbol
_atom_site_fract_x
_atom_site_fract_y
_atom_site_fract_z
F1 F 0.23912(10) 0.11827(13) 0.65611(10)
F2 F 0.52175(10) 0.39556(13) 0.68506(10)
O1 O 0.16602(13) -0.48748(19) 0.40722(13)
H1 H 0.090(2) -0.220(3) 0.518(2)
C1 C 0.36678(16) 0.0579(2) 0.57640(15)
C2 C 0.51388(16) 0.2034(2) 0.59179(15)
C3 C 0.34808(16) -0.1480(2) 0.48486(16)
C4 C 0.18457(17) -0.2972(2) 0.47093(16)
C3B C 0.65192(16) 0.1480(2) 0.51514(16)
C1B C 0.63322(16) -0.0579(2) 0.42360(15)
F1B F 0.76088(10) -0.11827(13) 0.34389(10)
C2B C 0.48612(16) -0.2034(2) 0.40821(15)
F2B F 0.47825(10) -0.39556(13) 0.31494(10)
C4B C 0.81543(17) 0.2972(2) 0.52907(16)
O1B O 0.83398(13) 0.48748(19) 0.59278(13)
H1B H 0.910(2) 0.220(3) 0.482(2)
F1 F 0.23912(10) 1.11827(13) 0.65611(10)
F2 F 0.52175(10) 1.39556(13) 0.68506(10)
O1 O 0.16602(13) 0.51252(19) 0.40722(13)
H1 H 0.090(2) 0.780(3) 0.518(2)
C1 C 0.36678(16) 1.0579(2) 0.57640(15)
C2 C 0.51388(16) 1.2034(2) 0.59179(15)
C3 C 0.34808(16) 0.8520(2) 0.48486(16)
C4 C 0.18457(17) 0.7028(2) 0.47093(16)
C3B C 0.65192(16) 1.1480(2) 0.51514(16)
C1B C 0.63322(16) 0.9421(2) 0.42360(15)
F1B F 0.76088(10) 0.88173(13) 0.34389(10)
C2B C 0.48612(16) 0.7966(2) 0.40821(15)
F2B F 0.47825(10) 0.60444(13) 0.31494(10)
C4B C 0.81543(17) 1.2972(2) 0.52907(16)
O1B O 0.83398(13) 1.48748(19) 0.59278(13)
H1B H 0.910(2) 1.220(3) 0.482(2)
F1 F -0.26088(10) 0.38173(13) 0.15611(10)
F2 F 0.02175(10) 0.10444(13) 0.18506(10)
O1 O -0.33398(13) 0.98748(19) -0.09278(13)
H1 H -0.410(2) 0.720(3) 0.018(2)
C1 C -0.13322(16) 0.4421(2) 0.07640(15)
C2 C 0.01388(16) 0.2966(2) 0.09179(15)
C3 C -0.15192(16) 0.6480(2) -0.01514(16)
C4 C -0.31543(17) 0.7972(2) -0.02907(16)
C3B C 0.15192(16) 0.3520(2) 0.01514(16)
C1B C 0.13322(16) 0.5579(2) -0.07640(15)
F1B F 0.26088(10) 0.61827(13) -0.15611(10)
C2B C -0.01388(16) 0.7034(2) -0.09179(15)
F2B F -0.02175(10) 0.89556(13) -0.18506(10)
C4B C 0.31543(17) 0.2028(2) 0.02907(16)
O1B O 0.33398(13) 0.01252(19) 0.09278(13)
H1B H 0.410(2) 0.280(3) -0.018(2)
F1 F -0.26088(10) 0.38173(13) 1.15611(10)
F2 F 0.02175(10) 0.10444(13) 1.18506(10)
O1 O -0.33398(13) 0.98748(19) 0.90722(13)
H1 H -0.410(2) 0.720(3) 1.018(2)
C1 C -0.13322(16) 0.4421(2) 1.07640(15)
C2 C 0.01388(16) 0.2966(2) 1.09179(15)
C3 C -0.15192(16) 0.6480(2) 0.98486(16)
C4 C -0.31543(17) 0.7972(2) 0.97093(16)
C3B C 0.15192(16) 0.3520(2) 1.01514(16)
C1B C 0.13322(16) 0.5579(2) 0.92360(15)
F1B F 0.26088(10) 0.61827(13) 0.84389(10)
C2B C -0.01388(16) 0.7034(2) 0.90821(15)
F2B F -0.02175(10) 0.89556(13) 0.81494(10)
C4B C 0.31543(17) 0.2028(2) 1.02907(16)
O1B O 0.33398(13) 0.01252(19) 1.09278(13)
H1B H 0.410(2) 0.280(3) 0.982(2)
F1 F 0.73912(10) 0.38173(13) 0.15611(10)
F2 F 1.02175(10) 0.10444(13) 0.18506(10)
O1 O 0.66602(13) 0.98748(19) -0.09278(13)
H1 H 0.590(2) 0.720(3) 0.018(2)
C1 C 0.86678(16) 0.4421(2) 0.07640(15)
C2 C 1.01388(16) 0.2966(2) 0.09179(15)
C3 C 0.84808(16) 0.6480(2) -0.01514(16)
C4 C 0.68457(17) 0.7972(2) -0.02907(16)
C3B C 1.15192(16) 0.3520(2) 0.01514(16)
C1B C 1.13322(16) 0.5579(2) -0.07640(15)
F1B F 1.26088(10) 0.61827(13) -0.15611(10)
C2B C 0.98612(16) 0.7034(2) -0.09179(15)
F2B F 0.97825(10) 0.89556(13) -0.18506(10)
C4B C 1.31543(17) 0.2028(2) 0.02907(16)
O1B O 1.33398(13) 0.01252(19) 0.09278(13)
H1B H 1.410(2) 0.280(3) -0.018(2)
F1 F 0.73912(10) 0.38173(13) 1.15611(10)
F2 F 1.02175(10) 0.10444(13) 1.18506(10)
O1 O 0.66602(13) 0.98748(19) 0.90722(13)
H1 H 0.590(2) 0.720(3) 1.018(2)
C1 C 0.86678(16) 0.4421(2) 1.07640(15)
C2 C 1.01388(16) 0.2966(2) 1.09179(15)
C3 C 0.84808(16) 0.6480(2) 0.98486(16)
C4 C 0.68457(17) 0.7972(2) 0.97093(16)
C3B C 1.15192(16) 0.3520(2) 1.01514(16)
C1B C 1.13322(16) 0.5579(2) 0.92360(15)
F1B F 1.26088(10) 0.61827(13) 0.84389(10)
C2B C 0.98612(16) 0.7034(2) 0.90821(15)
F2B F 0.97825(10) 0.89556(13) 0.81494(10)
C4B C 1.31543(17) 0.2028(2) 1.02907(16)
O1B O 1.33398(13) 0.01252(19) 1.09278(13)
H1B H 1.410(2) 0.280(3) 0.982(2)

#END
