./LABRIQ_from_xyz.cif_generated_by_CrystalShift
_symmetry_cell_setting triclinic
_symmetry_space_group_name_H-M 'P 1'
loop_
_symmetry_equiv_pos_site_id
_symmetry_equiv_pos_as_xyz
1 x,y,z
_cell_length_a 7.625800
_cell_length_b 5.692600
_cell_length_c 8.286100
_cell_angle_alpha 90.000000
_cell_angle_beta 103.594000
_cell_angle_gamma 90.000000
_cell_volume 349.627904
loop_
_atom_site_label
_atom_site_type_symbol
_atom_site_fract_x
_atom_site_fract_y
_atom_site_fract_z
F1 F 0.239120 0.118270 0.656110
F2 F 0.521750 0.395560 0.685060
O3 O 0.166020 -0.487480 0.407220
H4 H 0.090000 -0.220000 0.518000
C5 C 0.366780 0.057900 0.576400
C6 C 0.513880 0.203400 0.591790
C7 C 0.348080 -0.148000 0.484860
C8 C 0.184570 -0.297200 0.470930
C9 C 0.651920 0.148000 0.515140
C10 C 0.633220 -0.057900 0.423600
F11 F 0.760880 -0.118270 0.343890
C12 C 0.486120 -0.203400 0.408210
F13 F 0.478250 -0.395560 0.314940
C14 C 0.815430 0.297200 0.529070
O15 O 0.833980 0.487480 0.592780
H16 H 0.910000 0.220000 0.482000
F17 F 0.239120 1.118270 0.656110
F18 F 0.521750 1.395560 0.685060
O19 O 0.166020 0.512520 0.407220
H20 H 0.090000 0.780000 0.518000
C21 C 0.366780 1.057900 0.576400
C22 C 0.513880 1.203400 0.591790
C23 C 0.348080 0.852000 0.484860
C24 C 0.184570 0.702800 0.470930
C25 C 0.651920 1.148000 0.515140
C26 C 0.633220 0.942100 0.423600
F27 F 0.760880 0.881730 0.343890
C28 C 0.486120 0.796600 0.408210
F29 F 0.478250 0.604440 0.314940
C30 C 0.815430 1.297200 0.529070
O31 O 0.833980 1.487480 0.592780
H32 H 0.910000 1.220000 0.482000
F33 F -0.260880 0.381730 0.156110
F34 F 0.021750 0.104440 0.185060
O35 O -0.333980 0.987480 -0.092780
H36 H -0.410000 0.720000 0.018000
C37 C -0.133220 0.442100 0.076400
C38 C 0.013880 0.296600 0.091790
C39 C -0.151920 0.648000 -0.015140
C40 C -0.315430 0.797200 -0.029070
C41 C 0.151920 0.352000 0.015140
C42 C 0.133220 0.557900 -0.076400
F43 F 0.260880 0.618270 -0.156110
C44 C -0.013880 0.703400 -0.091790
F45 F -0.021750 0.895560 -0.185060
C46 C 0.315430 0.202800 0.029070
O47 O 0.333980 0.012520 0.092780
H48 H 0.410000 0.280000 -0.018000
F49 F -0.260880 0.381730 1.156110
F50 F 0.021750 0.104440 1.185060
O51 O -0.333980 0.987480 0.907220
H52 H -0.410000 0.720000 1.018000
C53 C -0.133220 0.442100 1.076400
C54 C 0.013880 0.296600 1.091790
C55 C -0.151920 0.648000 0.984860
C56 C -0.315430 0.797200 0.970930
C57 C 0.151920 0.352000 1.015140
C58 C 0.133220 0.557900 0.923600
F59 F 0.260880 0.618270 0.843890
C60 C -0.013880 0.703400 0.908210
F61 F -0.021750 0.895560 0.814940
C62 C 0.315430 0.202800 1.029070
O63 O 0.333980 0.012520 1.092780
H64 H 0.410000 0.280000 0.982000
F65 F 0.739120 0.381730 0.156110
F66 F 1.021750 0.104440 0.185060
O67 O 0.666020 0.987480 -0.092780
H68 H 0.590000 0.720000 0.018000
C69 C 0.866780 0.442100 0.076400
C70 C 1.013880 0.296600 0.091790
C71 C 0.848080 0.648000 -0.015140
C72 C 0.684570 0.797200 -0.029070
C73 C 1.151920 0.352000 0.015140
C74 C 1.133220 0.557900 -0.076400
F75 F 1.260880 0.618270 -0.156110
C76 C 0.986120 0.703400 -0.091790
F77 F 0.978250 0.895560 -0.185060
C78 C 1.315430 0.202800 0.029070
O79 O 1.333980 0.012520 0.092780
H80 H 1.410000 0.280000 -0.018000
F81 F 0.739120 0.381730 1.156110
F82 F 1.021750 0.104440 1.185060
O83 O 0.666020 0.987480 0.907220
H84 H 0.590000 0.720000 1.018000
C85 C 0.866780 0.442100 1.076400
C86 C 1.013880 0.296600 1.091790
C87 C 0.848080 0.648000 0.984860
C88 C 0.684570 0.797200 0.970930
C89 C 1.151920 0.352000 1.015140
C90 C 1.133220 0.557900 0.923600
F91 F 1.260880 0.618270 0.843890
C92 C 0.986120 0.703400 0.908210
F93 F 0.978250 0.895560 0.814940
C94 C 1.315430 0.202800 1.029070
O95 O 1.333980 0.012520 1.092780
H96 H 1.410000 0.280000 0.982000

#END
