
#######################################################################
#
#                 Cambridge Crystallographic Data Centre
#                                CCDC 
#
#######################################################################
#
# If this CIF has been generated from an entry in the Cambridge 
# Structural Database, then it will include bibliographic, chemical, 
# crystal, experimental, refinement or atomic coordinate data resulting 
# from the CCDC's data processing and validation procedures.
#
#######################################################################

data_LABSIT
_symmetry_cell_setting           monoclinic
_symmetry_space_group_name_H-M   'P 21/n'
_symmetry_Int_Tables_number      14
_space_group_name_Hall           '-P 2yn'
loop_
_symmetry_equiv_pos_site_id
_symmetry_equiv_pos_as_xyz
1 x,y,z
2 1/2-x,1/2+y,1/2-z
3 -x,-y,-z
4 1/2+x,1/2-y,1/2+z
_cell_length_a                   14.381(4)
_cell_length_b                   8.0213(19)
_cell_length_c                   14.732(4)
_cell_angle_alpha                90
_cell_angle_beta                 116.182(5)
_cell_angle_gamma                90
_cell_volume                     1525.04
loop_
_atom_site_label
_atom_site_type_symbol
_atom_site_fract_x
_atom_site_fract_y
_atom_site_fract_z
O1 O 0.84692(9) 0.26313(15) 1.11403(9)
H1 H 0.8368 0.3548 1.1371
C1 C 0.89337(13) 0.1921(2) 0.91783(14)
H2 H 0.9543 0.2541 0.9670
H3 H 0.9118 0.1443 0.8660
C2 C 0.86722(12) 0.0451(2) 0.97476(13)
H4 H 0.8633 -0.0609 0.9388
H5 H 0.9240 0.0348 1.0440
C3 C 0.76620(11) 0.07233(19) 0.98104(12)
C4 C 0.75652(12) 0.19952(19) 1.03993(11)
C5 C 0.66136(12) 0.2706(2) 1.01665(11)
H6 H 0.6567 0.3592 1.0572
C6 C 0.57196(11) 0.2149(2) 0.93480(11)
C7 C 0.57674(11) 0.06372(19) 0.88942(11)
C8 C 0.67468(12) -0.00305(19) 0.91317(12)
H7 H 0.6789 -0.1042 0.8816
C9 C 0.48399(12) 0.3383(2) 0.88539(13)
H8 H 0.4659 0.3854 0.9377
H9 H 0.4223 0.2787 0.8355
C10 C 0.51153(14) 0.4856(2) 0.83030(15)
H10 H 0.4550 0.4978 0.7610
H11 H 0.5158 0.5908 0.8671
C11 C 0.61225(13) 0.4591(2) 0.82396(13)
C12 C 0.70423(14) 0.5304(2) 0.89380(13)
H12 H 0.7020 0.6303 0.9274
C13 C 0.79916(13) 0.4579(2) 0.91513(13)
H13 H 0.8612 0.5088 0.9627
C14 C 0.80409(12) 0.3117(2) 0.86754(12)
C15 C 0.71472(13) 0.2615(2) 0.78333(12)
H14 H 0.7188 0.1764 0.7404
C16 C 0.62025(13) 0.3347(2) 0.76199(12)
H15 H 0.5600 0.2997 0.7042
C17 C 0.48328(12) -0.01941(19) 0.81159(12)
C18 C 0.48399(12) -0.0934(2) 0.72623(12)
H16 H 0.5446 -0.0868 0.7159
C19 C 0.39732(13) -0.1766(2) 0.65610(13)
H17 H 0.3993 -0.2278 0.5988
C20 C 0.30785(13) -0.1850(2) 0.66954(13)
H18 H 0.2484 -0.2410 0.6213
C21 C 0.30562(13) -0.1118(2) 0.75329(13)
H19 H 0.2442 -0.1162 0.7623
C22 C 0.39305(12) -0.0316(2) 0.82441(12)
H20 H 0.3914 0.0158 0.8828
O1 O 0.65308(9) 0.76313(15) 0.38597(9)
H1 H 0.6632 0.8548 0.3629
C1 C 0.60663(13) 0.6921(2) 0.58217(14)
H2 H 0.5457 0.7541 0.5330
H3 H 0.5882 0.6443 0.6340
C2 C 0.63278(12) 0.5451(2) 0.52524(13)
H4 H 0.6367 0.4391 0.5612
H5 H 0.5760 0.5348 0.4560
C3 C 0.73380(11) 0.57233(19) 0.51896(12)
C4 C 0.74348(12) 0.69952(19) 0.46007(11)
C5 C 0.83864(12) 0.7706(2) 0.48335(11)
H6 H 0.8433 0.8592 0.4428
C6 C 0.92804(11) 0.7149(2) 0.56520(11)
C7 C 0.92326(11) 0.56372(19) 0.61058(11)
C8 C 0.82532(12) 0.49695(19) 0.58683(12)
H7 H 0.8211 0.3958 0.6184
C9 C 1.01601(12) 0.8383(2) 0.61461(13)
H8 H 1.0341 0.8854 0.5623
H9 H 1.0777 0.7787 0.6645
C10 C 0.98847(14) 0.9856(2) 0.66970(15)
H10 H 1.0450 0.9978 0.7390
H11 H 0.9842 1.0908 0.6329
C11 C 0.88775(13) 0.9591(2) 0.67604(13)
C12 C 0.79577(14) 1.0304(2) 0.60620(13)
H12 H 0.7980 1.1303 0.5726
C13 C 0.70084(13) 0.9579(2) 0.58487(13)
H13 H 0.6388 1.0088 0.5373
C14 C 0.69591(12) 0.8117(2) 0.63246(12)
C15 C 0.78528(13) 0.7615(2) 0.71667(12)
H14 H 0.7812 0.6764 0.7596
C16 C 0.87975(13) 0.8347(2) 0.73801(12)
H15 H 0.9400 0.7997 0.7958
C17 C 1.01672(12) 0.48059(19) 0.68841(12)
C18 C 1.01601(12) 0.4066(2) 0.77377(12)
H16 H 0.9554 0.4132 0.7841
C19 C 1.10268(13) 0.3234(2) 0.84390(13)
H17 H 1.1007 0.2722 0.9012
C20 C 1.19215(13) 0.3150(2) 0.83046(13)
H18 H 1.2516 0.2590 0.8787
C21 C 1.19438(13) 0.3882(2) 0.74671(13)
H19 H 1.2558 0.3838 0.7377
C22 C 1.10695(12) 0.4684(2) 0.67559(12)
H20 H 1.1086 0.5158 0.6172
O1 O 0.15308(9) 0.73687(15) -0.11403(9)
H1 H 0.1632 0.6452 -0.1371
C1 C 0.10663(13) 0.8079(2) 0.08217(14)
H2 H 0.0457 0.7459 0.0330
H3 H 0.0882 0.8557 0.1340
C2 C 0.13278(12) 0.9549(2) 0.02524(13)
H4 H 0.1367 1.0609 0.0612
H5 H 0.0760 0.9652 -0.0440
C3 C 0.23380(11) 0.92767(19) 0.01896(12)
C4 C 0.24348(12) 0.80048(19) -0.03993(11)
C5 C 0.33864(12) 0.7294(2) -0.01665(11)
H6 H 0.3433 0.6408 -0.0572
C6 C 0.42804(11) 0.7851(2) 0.06520(11)
C7 C 0.42326(11) 0.93628(19) 0.11058(11)
C8 C 0.32532(12) 1.00305(19) 0.08683(12)
H7 H 0.3211 1.1042 0.1184
C9 C 0.51601(12) 0.6617(2) 0.11461(13)
H8 H 0.5341 0.6146 0.0623
H9 H 0.5777 0.7213 0.1645
C10 C 0.48847(14) 0.5144(2) 0.16970(15)
H10 H 0.5450 0.5022 0.2390
H11 H 0.4842 0.4092 0.1329
C11 C 0.38775(13) 0.5409(2) 0.17604(13)
C12 C 0.29577(14) 0.4696(2) 0.10620(13)
H12 H 0.2980 0.3697 0.0726
C13 C 0.20084(13) 0.5421(2) 0.08487(13)
H13 H 0.1388 0.4912 0.0373
C14 C 0.19591(12) 0.6883(2) 0.13246(12)
C15 C 0.28528(13) 0.7385(2) 0.21667(12)
H14 H 0.2812 0.8236 0.2596
C16 C 0.37975(13) 0.6653(2) 0.23801(12)
H15 H 0.4400 0.7003 0.2958
C17 C 0.51672(12) 1.01941(19) 0.18841(12)
C18 C 0.51601(12) 1.0934(2) 0.27377(12)
H16 H 0.4554 1.0868 0.2841
C19 C 0.60268(13) 1.1766(2) 0.34390(13)
H17 H 0.6007 1.2278 0.4012
C20 C 0.69215(13) 1.1850(2) 0.33046(13)
H18 H 0.7516 1.2410 0.3787
C21 C 0.69438(13) 1.1118(2) 0.24671(13)
H19 H 0.7558 1.1162 0.2377
C22 C 0.60695(12) 1.0316(2) 0.17559(12)
H20 H 0.6086 0.9842 0.1172
O1 O 0.34692(9) 0.23687(15) 0.61403(9)
H1 H 0.3368 0.1452 0.6371
C1 C 0.39337(13) 0.3079(2) 0.41783(14)
H2 H 0.4543 0.2459 0.4670
H3 H 0.4118 0.3557 0.3660
C2 C 0.36722(12) 0.4549(2) 0.47476(13)
H4 H 0.3633 0.5609 0.4388
H5 H 0.4240 0.4652 0.5440
C3 C 0.26620(11) 0.42767(19) 0.48104(12)
C4 C 0.25652(12) 0.30048(19) 0.53993(11)
C5 C 0.16136(12) 0.2294(2) 0.51665(11)
H6 H 0.1567 0.1408 0.5572
C6 C 0.07196(11) 0.2851(2) 0.43480(11)
C7 C 0.07674(11) 0.43628(19) 0.38942(11)
C8 C 0.17468(12) 0.50305(19) 0.41317(12)
H7 H 0.1789 0.6042 0.3816
C9 C -0.01601(12) 0.1617(2) 0.38539(13)
H8 H -0.0341 0.1146 0.4377
H9 H -0.0777 0.2213 0.3355
C10 C 0.01153(14) 0.0144(2) 0.33030(15)
H10 H -0.0450 0.0022 0.2610
H11 H 0.0158 -0.0908 0.3671
C11 C 0.11225(13) 0.0409(2) 0.32396(13)
C12 C 0.20423(14) -0.0304(2) 0.39380(13)
H12 H 0.2020 -0.1303 0.4274
C13 C 0.29916(13) 0.0421(2) 0.41513(13)
H13 H 0.3612 -0.0088 0.4627
C14 C 0.30409(12) 0.1883(2) 0.36754(12)
C15 C 0.21472(13) 0.2385(2) 0.28333(12)
H14 H 0.2188 0.3236 0.2404
C16 C 0.12025(13) 0.1653(2) 0.26199(12)
H15 H 0.0600 0.2003 0.2042
C17 C -0.01672(12) 0.51941(19) 0.31159(12)
C18 C -0.01601(12) 0.5934(2) 0.22623(12)
H16 H 0.0446 0.5868 0.2159
C19 C -0.10268(13) 0.6766(2) 0.15610(13)
H17 H -0.1007 0.7278 0.0988
C20 C -0.19215(13) 0.6850(2) 0.16954(13)
H18 H -0.2516 0.7410 0.1213
C21 C -0.19438(13) 0.6118(2) 0.25329(13)
H19 H -0.2558 0.6162 0.2623
C22 C -0.10695(12) 0.5316(2) 0.32441(12)
H20 H -0.1086 0.4842 0.3828

#END
