./LABVAO_from_xyz.cif_generated_by_CrystalShift
_symmetry_cell_setting triclinic
_symmetry_space_group_name_H-M 'P 1'
loop_
_symmetry_equiv_pos_site_id
_symmetry_equiv_pos_as_xyz
1 x,y,z
_cell_length_a 23.420000
_cell_length_b 4.971000
_cell_length_c 11.635100
_cell_angle_alpha 90.000000
_cell_angle_beta 90.000000
_cell_angle_gamma 90.000000
_cell_volume 1354.567883
loop_
_atom_site_label
_atom_site_type_symbol
_atom_site_fract_x
_atom_site_fract_y
_atom_site_fract_z
O1 O 0.444400 1.386800 0.598500
H2 H 0.414900 1.337200 0.633500
O3 O 0.362340 1.071600 0.648000
O4 O 0.263710 0.298600 0.402590
O5 O 0.169960 0.220500 0.698260
C6 C 0.451160 1.235400 0.502400
C7 C 0.495620 1.305400 0.427400
H8 H 0.519600 1.454400 0.444300
C9 C 0.504450 1.156500 0.328500
H10 H 0.534300 1.206300 0.277500
C11 C 0.470680 0.936200 0.302700
H12 H 0.477800 0.832400 0.235600
C13 C 0.426360 0.869800 0.376100
H14 H 0.402700 0.720600 0.357900
C15 C 0.415500 1.016000 0.476300
C16 C 0.368060 0.944600 0.555700
C17 C 0.327840 0.727400 0.526600
H18 H 0.330300 0.639000 0.454300
C19 C 0.287470 0.655100 0.603300
H20 H 0.287100 0.754800 0.673000
C21 C 0.244400 0.444500 0.593600
C22 C 0.235030 0.278300 0.491100
C23 C 0.188170 0.080500 0.502600
C24 C 0.157890 0.057900 0.605800
C25 C 0.114800 -0.129800 0.621200
H26 H 0.095300 -0.142000 0.692600
C27 C 0.100740 -0.298100 0.531700
H28 H 0.071300 -0.427800 0.541300
C29 C 0.129640 -0.278900 0.426500
H30 H 0.119500 -0.394200 0.364700
C31 C 0.172600 -0.093400 0.412900
H32 H 0.192100 -0.082600 0.341500
C33 C 0.210970 0.406200 0.687800
H34 H 0.217300 0.521300 0.751700
O35 O 0.555600 -0.386800 0.098500
H36 H 0.585100 -0.337200 0.133500
O37 O 0.637660 -0.071600 0.148000
O38 O 0.736290 0.701400 -0.097410
O39 O 0.830040 0.779500 0.198260
C40 C 0.548840 -0.235400 0.002400
C41 C 0.504380 -0.305400 -0.072600
H42 H 0.480400 -0.454400 -0.055700
C43 C 0.495550 -0.156500 -0.171500
H44 H 0.465700 -0.206300 -0.222500
C45 C 0.529320 0.063800 -0.197300
H46 H 0.522200 0.167600 -0.264400
C47 C 0.573640 0.130200 -0.123900
H48 H 0.597300 0.279400 -0.142100
C49 C 0.584500 -0.016000 -0.023700
C50 C 0.631940 0.055400 0.055700
C51 C 0.672160 0.272600 0.026600
H52 H 0.669700 0.361000 -0.045700
C53 C 0.712530 0.344900 0.103300
H54 H 0.712900 0.245200 0.173000
C55 C 0.755600 0.555500 0.093600
C56 C 0.764970 0.721700 -0.008900
C57 C 0.811830 0.919500 0.002600
C58 C 0.842110 0.942100 0.105800
C59 C 0.885200 1.129800 0.121200
H60 H 0.904700 1.142000 0.192600
C61 C 0.899260 1.298100 0.031700
H62 H 0.928700 1.427800 0.041300
C63 C 0.870360 1.278900 -0.073500
H64 H 0.880500 1.394200 -0.135300
C65 C 0.827400 1.093400 -0.087100
H66 H 0.807900 1.082600 -0.158500
C67 C 0.789030 0.593800 0.187800
H68 H 0.782700 0.478700 0.251700
O69 O 0.944400 0.113200 0.598500
H70 H 0.914900 0.162800 0.633500
O71 O 0.862340 0.428400 0.648000
O72 O 0.763710 1.201400 0.402590
O73 O 0.669960 1.279500 0.698260
C74 C 0.951160 0.264600 0.502400
C75 C 0.995620 0.194600 0.427400
H76 H 1.019600 0.045600 0.444300
C77 C 1.004450 0.343500 0.328500
H78 H 1.034300 0.293700 0.277500
C79 C 0.970680 0.563800 0.302700
H80 H 0.977800 0.667600 0.235600
C81 C 0.926360 0.630200 0.376100
H82 H 0.902700 0.779400 0.357900
C83 C 0.915500 0.484000 0.476300
C84 C 0.868060 0.555400 0.555700
C85 C 0.827840 0.772600 0.526600
H86 H 0.830300 0.861000 0.454300
C87 C 0.787470 0.844900 0.603300
H88 H 0.787100 0.745200 0.673000
C89 C 0.744400 1.055500 0.593600
C90 C 0.735030 1.221700 0.491100
C91 C 0.688170 1.419500 0.502600
C92 C 0.657890 1.442100 0.605800
C93 C 0.614800 1.629800 0.621200
H94 H 0.595300 1.642000 0.692600
C95 C 0.600740 1.798100 0.531700
H96 H 0.571300 1.927800 0.541300
C97 C 0.629640 1.778900 0.426500
H98 H 0.619500 1.894200 0.364700
C99 C 0.672600 1.593400 0.412900
H100 H 0.692100 1.582600 0.341500
C101 C 0.710970 1.093800 0.687800
H102 H 0.717300 0.978700 0.751700
O103 O 0.055600 0.886800 0.098500
H104 H 0.085100 0.837200 0.133500
O105 O 0.137660 0.571600 0.148000
O106 O 0.236290 -0.201400 -0.097410
O107 O 0.330040 -0.279500 0.198260
C108 C 0.048840 0.735400 0.002400
C109 C 0.004380 0.805400 -0.072600
H110 H -0.019600 0.954400 -0.055700
C111 C -0.004450 0.656500 -0.171500
H112 H -0.034300 0.706300 -0.222500
C113 C 0.029320 0.436200 -0.197300
H114 H 0.022200 0.332400 -0.264400
C115 C 0.073640 0.369800 -0.123900
H116 H 0.097300 0.220600 -0.142100
C117 C 0.084500 0.516000 -0.023700
C118 C 0.131940 0.444600 0.055700
C119 C 0.172160 0.227400 0.026600
H120 H 0.169700 0.139000 -0.045700
C121 C 0.212530 0.155100 0.103300
H122 H 0.212900 0.254800 0.173000
C123 C 0.255600 -0.055500 0.093600
C124 C 0.264970 -0.221700 -0.008900
C125 C 0.311830 -0.419500 0.002600
C126 C 0.342110 -0.442100 0.105800
C127 C 0.385200 -0.629800 0.121200
H128 H 0.404700 -0.642000 0.192600
C129 C 0.399260 -0.798100 0.031700
H130 H 0.428700 -0.927800 0.041300
C131 C 0.370360 -0.778900 -0.073500
H132 H 0.380500 -0.894200 -0.135300
C133 C 0.327400 -0.593400 -0.087100
H134 H 0.307900 -0.582600 -0.158500
C135 C 0.289030 -0.093800 0.187800
H136 H 0.282700 0.021300 0.251700

#END
