
#######################################################################
#
#                 Cambridge Crystallographic Data Centre
#                                CCDC 
#
#######################################################################
#
# If this CIF has been generated from an entry in the Cambridge 
# Structural Database, then it will include bibliographic, chemical, 
# crystal, experimental, refinement or atomic coordinate data resulting 
# from the CCDC's data processing and validation procedures.
#
#######################################################################

data_LABVIU
_symmetry_cell_setting           orthorhombic
_symmetry_space_group_name_H-M   'P 21 21 21'
_symmetry_Int_Tables_number      19
_space_group_name_Hall           'P 2ac 2ab'
loop_
_symmetry_equiv_pos_site_id
_symmetry_equiv_pos_as_xyz
1 x,y,z
2 1/2-x,-y,1/2+z
3 -x,1/2+y,1/2-z
4 1/2+x,1/2-y,-z
_cell_length_a                   6.9561(4)
_cell_length_b                   10.1328(6)
_cell_length_c                   11.8650(7)
_cell_angle_alpha                90
_cell_angle_beta                 90
_cell_angle_gamma                90
_cell_volume                     836.302
loop_
_atom_site_label
_atom_site_type_symbol
_atom_site_fract_x
_atom_site_fract_y
_atom_site_fract_z
S1 S 0.31390(5) 0.75616(3) 0.84450(3)
O1 O 0.1862(2) 0.71935(13) 0.93506(11)
O2 O 0.24197(19) 0.72523(13) 0.73240(10)
O3 O 0.3930(2) 0.88857(12) 0.85211(13)
O4 O 0.9491(2) 0.30587(15) 0.98954(14)
O5 O 1.1188(2) 0.39952(17) 0.85758(14)
N1 N 0.5060(2) 0.55299(13) 0.93789(11)
H3 H 0.413(4) 0.547(3) 0.977(2)
N2 N 0.9744(2) 0.38895(15) 0.91566(14)
C1 C 0.5183(2) 0.64970(15) 0.86038(12)
C2 C 0.6833(3) 0.66513(15) 0.79648(13)
H4 H 0.695(4) 0.738(2) 0.743(2)
C3 C 0.8373(2) 0.58031(16) 0.81386(14)
H5 H 0.951(3) 0.584(2) 0.775(2)
C4 C 0.8174(2) 0.48265(14) 0.89511(13)
C5 C 0.6510(2) 0.46939(15) 0.95725(14)
H6 H 0.637(4) 0.406(2) 1.014(2)
S1 S 1.18610(5) 0.24384(3) 0.34450(3)
O1 O 1.3138(2) 0.28065(13) 0.43506(11)
O2 O 1.25803(19) 0.27477(13) 0.23240(10)
O3 O 1.1070(2) 0.11143(12) 0.35211(13)
O4 O 0.5509(2) 0.69413(15) 0.48954(14)
O5 O 0.3812(2) 0.60048(17) 0.35758(14)
N1 N 0.9940(2) 0.44701(13) 0.43789(11)
H3 H 1.087(4) 0.453(3) 0.477(2)
N2 N 0.5256(2) 0.61105(15) 0.41566(14)
C1 C 0.9817(2) 0.35030(15) 0.36038(12)
C2 C 0.8167(3) 0.33487(15) 0.29648(13)
H4 H 0.805(4) 0.262(2) 0.243(2)
C3 C 0.6627(2) 0.41969(16) 0.31386(14)
H5 H 0.549(3) 0.416(2) 0.275(2)
C4 C 0.6826(2) 0.51735(14) 0.39511(13)
C5 C 0.8490(2) 0.53061(15) 0.45725(14)
H6 H 0.863(4) 0.594(2) 0.514(2)
S1 S 0.68610(5) 0.25616(3) 0.65550(3)
O1 O 0.8138(2) 0.21935(13) 0.56494(11)
O2 O 0.75803(19) 0.22523(13) 0.76760(10)
O3 O 0.6070(2) 0.38857(12) 0.64789(13)
O4 O 0.0509(2) -0.19413(15) 0.51046(14)
O5 O -0.1188(2) -0.10048(17) 0.64242(14)
N1 N 0.4940(2) 0.05299(13) 0.56211(11)
H3 H 0.587(4) 0.047(3) 0.523(2)
N2 N 0.0256(2) -0.11105(15) 0.58434(14)
C1 C 0.4817(2) 0.14970(15) 0.63962(12)
C2 C 0.3167(3) 0.16513(15) 0.70352(13)
H4 H 0.305(4) 0.238(2) 0.757(2)
C3 C 0.1627(2) 0.08031(16) 0.68614(14)
H5 H 0.049(3) 0.084(2) 0.725(2)
C4 C 0.1826(2) -0.01735(14) 0.60489(13)
C5 C 0.3490(2) -0.03061(15) 0.54275(14)
H6 H 0.363(4) -0.094(2) 0.486(2)
S1 S -0.18610(5) 0.74384(3) 0.15550(3)
O1 O -0.3138(2) 0.78065(13) 0.06494(11)
O2 O -0.25803(19) 0.77477(13) 0.26760(10)
O3 O -0.1070(2) 0.61143(12) 0.14789(13)
O4 O 0.4491(2) 1.19413(15) 0.01046(14)
O5 O 0.6188(2) 1.10048(17) 0.14242(14)
N1 N 0.0060(2) 0.94701(13) 0.06211(11)
H3 H -0.087(4) 0.953(3) 0.023(2)
N2 N 0.4744(2) 1.11105(15) 0.08434(14)
C1 C 0.0183(2) 0.85030(15) 0.13962(12)
C2 C 0.1833(3) 0.83487(15) 0.20352(13)
H4 H 0.195(4) 0.762(2) 0.257(2)
C3 C 0.3373(2) 0.91969(16) 0.18614(14)
H5 H 0.451(3) 0.916(2) 0.225(2)
C4 C 0.3174(2) 1.01735(14) 0.10489(13)
C5 C 0.1510(2) 1.03061(15) 0.04275(14)
H6 H 0.137(4) 1.094(2) -0.014(2)
O6 O 0.2551(2) 0.50207(17) 0.09805(13)
H1 H 0.244(5) 0.436(3) 0.130(3)
H2 H 0.166(5) 0.542(3) 0.111(3)
O6 O 0.2449(2) 0.49793(17) 0.59805(13)
H1 H 0.256(5) 0.564(3) 0.630(3)
H2 H 0.334(5) 0.458(3) 0.611(3)
O6 O 0.7449(2) 1.00207(17) 0.40195(13)
H1 H 0.756(5) 0.936(3) 0.370(3)
H2 H 0.834(5) 1.042(3) 0.389(3)
O6 O 0.7551(2) -0.00207(17) 0.90195(13)
H1 H 0.744(5) 0.064(3) 0.870(3)
H2 H 0.666(5) -0.042(3) 0.889(3)

#END
