
#######################################################################
#
#                 Cambridge Crystallographic Data Centre
#                                CCDC 
#
#######################################################################
#
# If this CIF has been generated from an entry in the Cambridge 
# Structural Database, then it will include bibliographic, chemical, 
# crystal, experimental, refinement or atomic coordinate data resulting 
# from the CCDC's data processing and validation procedures.
#
#######################################################################

data_LABVEQ
_symmetry_cell_setting           monoclinic
_symmetry_space_group_name_H-M   'P 21/n'
_symmetry_Int_Tables_number      14
_space_group_name_Hall           '-P 2yn'
loop_
_symmetry_equiv_pos_site_id
_symmetry_equiv_pos_as_xyz
1 x,y,z
2 1/2+x,1/2-y,1/2+z
3 -x,-y,-z
4 1/2-x,1/2+y,1/2-z
_cell_length_a                   7.6845(7)
_cell_length_b                   8.5751(6)
_cell_length_c                   22.339(2)
_cell_angle_alpha                90
_cell_angle_beta                 94.613(7)
_cell_angle_gamma                90
_cell_volume                     1467.27
loop_
_atom_site_label
_atom_site_type_symbol
_atom_site_fract_x
_atom_site_fract_y
_atom_site_fract_z
C1 C 0.6523(3) 0.5672(3) -0.04711(10)
C2 C 0.5948(3) 0.7231(3) -0.02580(9)
C3 C 0.6408(3) 0.7786(3) 0.02960(10)
H1 H 0.6011(33) 0.8784(32) 0.0388(10)
C4 C 0.7495(3) 0.6823(3) 0.06958(10)
C5 C 0.8054(3) 0.5301(3) 0.04890(10)
C6 C 0.7621(3) 0.4719(3) -0.00528(11)
H2 H 0.8034(34) 0.3671(33) -0.0188(11)
C7 C 0.9201(4) 0.5573(3) 0.14359(11)
C8 C 0.8192(3) 0.6987(3) 0.12690(9)
C9 C 0.8599(3) 0.7941(3) 0.27184(9)
C10 C 0.9958(4) 0.8932(3) 0.25200(11)
H3 H 1.0817(34) 0.9318(30) 0.2801(11)
C11 C 0.9756(3) 0.9107(3) 0.19273(10)
C12 C 0.8048(3) 0.8307(3) 0.17041(9)
C13 C 1.0975(3) 0.9901(3) 0.15236(10)
C14 C 1.2338(5) 0.8701(6) 0.1369(2)
H4 H 1.3147(49) 0.9262(42) 0.1056(15)
H5 H 1.1733(47) 0.7817(43) 0.1045(15)
H6 H 1.2923(52) 0.8574(52) 0.1686(17)
C15 C 1.1862(5) 1.1277(4) 0.1861(2)
H7 H 1.2631(43) 1.1808(39) 0.1548(14)
H8 H 1.0952(46) 1.2068(41) 0.1890(15)
H9 H 1.2706(44) 1.0801(41) 0.2168(14)
C16 C 1.0044(5) 1.0523(5) 0.09406(14)
H10 H 0.9490(42) 0.9642(41) 0.0673(13)
H11 H 1.0973(42) 1.1061(37) 0.0681(13)
H12 H 0.9080(42) 1.1309(39) 0.0966(14)
O1 O 0.6053(3) 0.5270(2) -0.09827(7)
O2 O 0.4910(3) 0.8061(2) -0.06486(7)
H13 H 0.4764(41) 0.7620(38) -0.0931(13)
O3 O 0.9082(2) 0.4568(2) 0.09336(7)
O4 O 1.0026(3) 0.5203(2) 0.18877(8)
O5 O 0.7453(2) 0.7587(2) 0.22505(6)
O6 O 0.8396(3) 0.7410(2) 0.32144(7)
O7 O 0.6776(2) 0.9304(2) 0.14649(7)
H14 H 0.6896(36) 1.0192(31) 0.1628(12)
C1 C 0.1523(3) 0.9328(3) 0.45289(10)
C2 C 0.0948(3) 0.7769(3) 0.47420(9)
C3 C 0.1408(3) 0.7214(3) 0.52960(10)
H1 H 0.1011(33) 0.6216(32) 0.5388(10)
C4 C 0.2495(3) 0.8177(3) 0.56958(10)
C5 C 0.3054(3) 0.9699(3) 0.54890(10)
C6 C 0.2621(3) 1.0281(3) 0.49472(11)
H2 H 0.3034(34) 1.1329(33) 0.4812(11)
C7 C 0.4201(4) 0.9427(3) 0.64359(11)
C8 C 0.3192(3) 0.8013(3) 0.62690(9)
C9 C 0.3599(3) 0.7059(3) 0.77184(9)
C10 C 0.4958(4) 0.6068(3) 0.75200(11)
H3 H 0.5817(34) 0.5682(30) 0.7801(11)
C11 C 0.4756(3) 0.5893(3) 0.69273(10)
C12 C 0.3048(3) 0.6693(3) 0.67041(9)
C13 C 0.5975(3) 0.5099(3) 0.65236(10)
C14 C 0.7338(5) 0.6299(6) 0.6369(2)
H4 H 0.8147(49) 0.5738(42) 0.6056(15)
H5 H 0.6733(47) 0.7183(43) 0.6045(15)
H6 H 0.7923(52) 0.6426(52) 0.6686(17)
C15 C 0.6862(5) 0.3723(4) 0.6861(2)
H7 H 0.7631(43) 0.3192(39) 0.6548(14)
H8 H 0.5952(46) 0.2932(41) 0.6890(15)
H9 H 0.7706(44) 0.4199(41) 0.7168(14)
C16 C 0.5044(5) 0.4477(5) 0.59406(14)
H10 H 0.4490(42) 0.5358(41) 0.5673(13)
H11 H 0.5973(42) 0.3939(37) 0.5681(13)
H12 H 0.4080(42) 0.3691(39) 0.5966(14)
O1 O 0.1053(3) 0.9730(2) 0.40173(7)
O2 O -0.0090(3) 0.6939(2) 0.43514(7)
H13 H -0.0236(41) 0.7380(38) 0.4069(13)
O3 O 0.4082(2) 1.0432(2) 0.59336(7)
O4 O 0.5026(3) 0.9797(2) 0.68877(8)
O5 O 0.2453(2) 0.7413(2) 0.72505(6)
O6 O 0.3396(3) 0.7590(2) 0.82144(7)
O7 O 0.1776(2) 0.5696(2) 0.64649(7)
H14 H 0.1896(36) 0.4808(31) 0.6628(12)
C1 C 0.3477(3) 0.4328(3) 1.04711(10)
C2 C 0.4052(3) 0.2769(3) 1.02580(9)
C3 C 0.3592(3) 0.2214(3) 0.97040(10)
H1 H 0.3989(33) 0.1216(32) 0.9612(10)
C4 C 0.2505(3) 0.3177(3) 0.93042(10)
C5 C 0.1946(3) 0.4699(3) 0.95110(10)
C6 C 0.2379(3) 0.5281(3) 1.00528(11)
H2 H 0.1966(34) 0.6329(33) 1.0188(11)
C7 C 0.0799(4) 0.4427(3) 0.85641(11)
C8 C 0.1808(3) 0.3013(3) 0.87310(9)
C9 C 0.1401(3) 0.2059(3) 0.72816(9)
C10 C 0.0042(4) 0.1068(3) 0.74800(11)
H3 H -0.0817(34) 0.0682(30) 0.7199(11)
C11 C 0.0244(3) 0.0893(3) 0.80727(10)
C12 C 0.1952(3) 0.1693(3) 0.82959(9)
C13 C -0.0975(3) 0.0099(3) 0.84764(10)
C14 C -0.2338(5) 0.1299(6) 0.8631(2)
H4 H -0.3147(49) 0.0738(42) 0.8944(15)
H5 H -0.1733(47) 0.2183(43) 0.8955(15)
H6 H -0.2923(52) 0.1426(52) 0.8314(17)
C15 C -0.1862(5) -0.1277(4) 0.8139(2)
H7 H -0.2631(43) -0.1808(39) 0.8452(14)
H8 H -0.0952(46) -0.2068(41) 0.8110(15)
H9 H -0.2706(44) -0.0801(41) 0.7832(14)
C16 C -0.0044(5) -0.0523(5) 0.90594(14)
H10 H 0.0510(42) 0.0358(41) 0.9327(13)
H11 H -0.0973(42) -0.1061(37) 0.9319(13)
H12 H 0.0920(42) -0.1309(39) 0.9034(14)
O1 O 0.3947(3) 0.4730(2) 1.09827(7)
O2 O 0.5090(3) 0.1939(2) 1.06486(7)
H13 H 0.5236(41) 0.2380(38) 1.0931(13)
O3 O 0.0918(2) 0.5432(2) 0.90664(7)
O4 O -0.0026(3) 0.4797(2) 0.81123(8)
O5 O 0.2547(2) 0.2413(2) 0.77495(6)
O6 O 0.1604(3) 0.2590(2) 0.67856(7)
O7 O 0.3224(2) 0.0696(2) 0.85351(7)
H14 H 0.3104(36) -0.0192(31) 0.8372(12)
C1 C 0.8477(3) 0.0672(3) 0.54711(10)
C2 C 0.9052(3) 0.2231(3) 0.52580(9)
C3 C 0.8592(3) 0.2786(3) 0.47040(10)
H1 H 0.8989(33) 0.3784(32) 0.4612(10)
C4 C 0.7505(3) 0.1823(3) 0.43042(10)
C5 C 0.6946(3) 0.0301(3) 0.45110(10)
C6 C 0.7379(3) -0.0281(3) 0.50528(11)
H2 H 0.6966(34) -0.1329(33) 0.5188(11)
C7 C 0.5799(4) 0.0573(3) 0.35641(11)
C8 C 0.6808(3) 0.1987(3) 0.37310(9)
C9 C 0.6401(3) 0.2941(3) 0.22816(9)
C10 C 0.5042(4) 0.3932(3) 0.24800(11)
H3 H 0.4183(34) 0.4318(30) 0.2199(11)
C11 C 0.5244(3) 0.4107(3) 0.30727(10)
C12 C 0.6952(3) 0.3307(3) 0.32959(9)
C13 C 0.4025(3) 0.4901(3) 0.34764(10)
C14 C 0.2662(5) 0.3701(6) 0.3631(2)
H4 H 0.1853(49) 0.4262(42) 0.3944(15)
H5 H 0.3267(47) 0.2817(43) 0.3955(15)
H6 H 0.2077(52) 0.3574(52) 0.3314(17)
C15 C 0.3138(5) 0.6277(4) 0.3139(2)
H7 H 0.2369(43) 0.6808(39) 0.3452(14)
H8 H 0.4048(46) 0.7068(41) 0.3110(15)
H9 H 0.2294(44) 0.5801(41) 0.2832(14)
C16 C 0.4956(5) 0.5523(5) 0.40594(14)
H10 H 0.5510(42) 0.4642(41) 0.4327(13)
H11 H 0.4027(42) 0.6061(37) 0.4319(13)
H12 H 0.5920(42) 0.6309(39) 0.4034(14)
O1 O 0.8947(3) 0.0270(2) 0.59827(7)
O2 O 1.0090(3) 0.3061(2) 0.56486(7)
H13 H 1.0236(41) 0.2620(38) 0.5931(13)
O3 O 0.5918(2) -0.0432(2) 0.40664(7)
O4 O 0.4974(3) 0.0203(2) 0.31123(8)
O5 O 0.7547(2) 0.2587(2) 0.27495(6)
O6 O 0.6604(3) 0.2410(2) 0.17856(7)
O7 O 0.8224(2) 0.4304(2) 0.35351(7)
H14 H 0.8104(36) 0.5192(31) 0.3372(12)

#END
