
#######################################################################
#
#                 Cambridge Crystallographic Data Centre
#                                CCDC 
#
#######################################################################
#
# If this CIF has been generated from an entry in the Cambridge 
# Structural Database, then it will include bibliographic, chemical, 
# crystal, experimental, refinement or atomic coordinate data resulting 
# from the CCDC's data processing and validation procedures.
#
#######################################################################

data_LABVUF
_symmetry_cell_setting           triclinic
_symmetry_space_group_name_H-M   'P -1'
_symmetry_Int_Tables_number      2
_space_group_name_Hall           '-P 1'
loop_
_symmetry_equiv_pos_site_id
_symmetry_equiv_pos_as_xyz
1 x,y,z
2 -x,-y,-z
_cell_length_a                   8.350(2)
_cell_length_b                   8.769(3)
_cell_length_c                   10.1473(6)
_cell_angle_alpha                103.11(1)
_cell_angle_beta                 94.98(2)
_cell_angle_gamma                96.45(3)
_cell_volume                     714.195
loop_
_atom_site_label
_atom_site_type_symbol
_atom_site_fract_x
_atom_site_fract_y
_atom_site_fract_z
C1 C 0.1385(6) 0.7942(6) 0.1817(5)
N1 N 0.1217(5) 0.6448(5) 0.2258(5)
C2 C 0.2414(7) 0.5374(7) 0.2341(6)
C3 C 0.1281(8) 0.3812(7) 0.2201(6)
N2 N -0.0376(6) 0.4076(6) 0.1681(5)
C4 C -0.0247(7) 0.5555(6) 0.1775(5)
C5 C -0.1353(6) 0.6631(6) 0.1419(5)
C6 C -0.3020(7) 0.6420(7) 0.1099(6)
C7 C -0.3744(7) 0.7705(8) 0.0836(6)
C8 C -0.2814(7) 0.9127(7) 0.0913(5)
C9 C -0.1125(7) 0.9349(6) 0.1243(6)
C10 C -0.0407(6) 0.8060(6) 0.1489(5)
C11 C 0.2282(6) 0.9307(6) 0.2948(5)
C12 C 0.3493(7) 1.0360(6) 0.2680(5)
C13 C 0.4266(7) 1.1594(7) 0.3728(5)
C14 C 0.3840(8) 1.1796(8) 0.5027(6)
C15 C 0.2649(9) 1.0737(9) 0.5293(6)
C16 C 0.1861(8) 0.9485(8) 0.4265(6)
O1 O 0.2218(4) 0.7857(5) 0.0658(4)
I1 I 0.61867(5) 1.31050(5) 0.32851(4)
H1 H 0.308 0.567 0.319
H2 H 0.308 0.531 0.162
H3 H 0.126 0.355 0.306
H4 H 0.164 0.298 0.157
H5 H -0.365 0.544 0.106
H6 H -0.488 0.759 0.061
H7 H -0.333 0.998 0.074
H8 H -0.049 1.034 0.129
H9 H 0.379 1.024 0.178
H10 H 0.436 1.266 0.573
H11 H 0.236 1.086 0.619
H12 H 0.104 0.875 0.446
H13 H 0.172 0.730 0.003
C1 C 0.8615(6) 0.2058(6) 0.8183(5)
N1 N 0.8783(5) 0.3552(5) 0.7742(5)
C2 C 0.7586(7) 0.4626(7) 0.7659(6)
C3 C 0.8719(8) 0.6188(7) 0.7799(6)
N2 N 1.0376(6) 0.5924(6) 0.8319(5)
C4 C 1.0247(7) 0.4445(6) 0.8225(5)
C5 C 1.1353(6) 0.3369(6) 0.8581(5)
C6 C 1.3020(7) 0.3580(7) 0.8901(6)
C7 C 1.3744(7) 0.2295(8) 0.9164(6)
C8 C 1.2814(7) 0.0873(7) 0.9087(5)
C9 C 1.1125(7) 0.0651(6) 0.8757(6)
C10 C 1.0407(6) 0.1940(6) 0.8511(5)
C11 C 0.7718(6) 0.0693(6) 0.7052(5)
C12 C 0.6507(7) -0.0360(6) 0.7320(5)
C13 C 0.5734(7) -0.1594(7) 0.6272(5)
C14 C 0.6160(8) -0.1796(8) 0.4973(6)
C15 C 0.7351(9) -0.0737(9) 0.4707(6)
C16 C 0.8139(8) 0.0515(8) 0.5735(6)
O1 O 0.7782(4) 0.2143(5) 0.9342(4)
I1 I 0.38133(5) -0.31050(5) 0.67149(4)
H1 H 0.692 0.433 0.681
H2 H 0.692 0.469 0.838
H3 H 0.874 0.645 0.694
H4 H 0.836 0.702 0.843
H5 H 1.365 0.456 0.894
H6 H 1.488 0.241 0.939
H7 H 1.333 0.002 0.926
H8 H 1.049 -0.034 0.871
H9 H 0.621 -0.024 0.822
H10 H 0.564 -0.266 0.427
H11 H 0.764 -0.086 0.381
H12 H 0.896 0.125 0.554
H13 H 0.828 0.270 0.997

#END
