
#######################################################################
#
#                 Cambridge Crystallographic Data Centre
#                                CCDC 
#
#######################################################################
#
# If this CIF has been generated from an entry in the Cambridge 
# Structural Database, then it will include bibliographic, chemical, 
# crystal, experimental, refinement or atomic coordinate data resulting 
# from the CCDC's data processing and validation procedures.
#
#######################################################################

data_LABXOC
_symmetry_cell_setting           orthorhombic
_symmetry_space_group_name_H-M   'P 21 21 21'
_symmetry_Int_Tables_number      19
_space_group_name_Hall           'P 2ac 2ab'
loop_
_symmetry_equiv_pos_site_id
_symmetry_equiv_pos_as_xyz
1 x,y,z
2 1/2-x,-y,1/2+z
3 -x,1/2+y,1/2-z
4 1/2+x,1/2-y,-z
_cell_length_a                   5.7624(9)
_cell_length_b                   12.2485(19)
_cell_length_c                   22.486(4)
_cell_angle_alpha                90
_cell_angle_beta                 90
_cell_angle_gamma                90
_cell_volume                     1587.08
loop_
_atom_site_label
_atom_site_type_symbol
_atom_site_fract_x
_atom_site_fract_y
_atom_site_fract_z
C1 C 0.4966(3) 0.08967(12) 0.78494(7)
H1 H 0.4976 0.0961 0.8288
H2 H 0.6385 0.0504 0.7723
C2 C 0.4861(3) 0.20301(12) 0.75607(6)
H3 H 0.6480 0.2253 0.7456
C3 C 0.1954(3) 0.10404(12) 0.70002(6)
C4 C 0.3899(3) 0.25700(12) 0.65251(6)
C5 C 0.3529(3) 0.24592(12) 0.58644(6)
H4 H 0.1861 0.2527 0.5747
C6 C 0.4821(3) 0.35858(12) 0.58783(6)
H5 H 0.6396 0.3531 0.5694
C7 C 0.3513(3) 0.45563(12) 0.56449(6)
C8 C 0.4311(3) 0.50979(13) 0.51407(7)
H6 H 0.5743 0.4888 0.4965
C9 C 0.3024(3) 0.59457(13) 0.48917(8)
H7 H 0.3580 0.6311 0.4547
C10 C 0.0938(4) 0.62565(14) 0.51449(8)
H8 H 0.0054 0.6830 0.4973
C11 C 0.0141(3) 0.57279(14) 0.56512(8)
H9 H -0.1286 0.5945 0.5827
C12 C 0.1419(3) 0.48835(13) 0.59021(7)
H10 H 0.0867 0.4527 0.6250
C13 C 0.4744(3) 0.15189(13) 0.55570(7)
H11 H 0.6393 0.1523 0.5663
H12 H 0.4582 0.1597 0.5125
H13 H 0.4043 0.0828 0.5684
C14 C 0.3770(3) 0.29466(12) 0.79353(7)
H14 H 0.3909 0.3632 0.7697
C15 C 0.1194(3) 0.27896(13) 0.80649(8)
H15 H 0.0976 0.2125 0.8301
H16 H 0.0343 0.2722 0.7689
H17 H 0.0609 0.3420 0.8287
C16 C 0.5119(3) 0.31348(17) 0.85098(7)
H18 H 0.4541 0.3795 0.8706
H19 H 0.6771 0.3224 0.8418
H20 H 0.4913 0.2506 0.8774
N1 N 0.3553(2) 0.18618(10) 0.69978(5)
N2 N 0.4947(2) 0.35004(11) 0.65499(5)
S1 S 0.23829(7) 0.01727(3) 0.760051(16)
S2 S -0.01911(7) 0.08471(3) 0.652247(17)
C1 C 0.0034(3) 0.91033(12) 0.28494(7)
H1 H 0.0024 0.9039 0.3288
H2 H -0.1385 0.9496 0.2723
C2 C 0.0139(3) 0.79699(12) 0.25607(6)
H3 H -0.1480 0.7747 0.2456
C3 C 0.3046(3) 0.89596(12) 0.20002(6)
C4 C 0.1101(3) 0.74300(12) 0.15251(6)
C5 C 0.1471(3) 0.75408(12) 0.08644(6)
H4 H 0.3139 0.7473 0.0747
C6 C 0.0179(3) 0.64142(12) 0.08783(6)
H5 H -0.1396 0.6469 0.0694
C7 C 0.1487(3) 0.54437(12) 0.06449(6)
C8 C 0.0689(3) 0.49021(13) 0.01407(7)
H6 H -0.0743 0.5112 -0.0035
C9 C 0.1976(3) 0.40543(13) -0.01083(8)
H7 H 0.1420 0.3689 -0.0453
C10 C 0.4062(4) 0.37435(14) 0.01449(8)
H8 H 0.4946 0.3170 -0.0027
C11 C 0.4859(3) 0.42721(14) 0.06512(8)
H9 H 0.6286 0.4055 0.0827
C12 C 0.3581(3) 0.51165(13) 0.09021(7)
H10 H 0.4133 0.5473 0.1250
C13 C 0.0256(3) 0.84811(13) 0.05570(7)
H11 H -0.1393 0.8477 0.0663
H12 H 0.0418 0.8403 0.0125
H13 H 0.0957 0.9172 0.0684
C14 C 0.1230(3) 0.70534(12) 0.29353(7)
H14 H 0.1091 0.6368 0.2697
C15 C 0.3806(3) 0.72104(13) 0.30649(8)
H15 H 0.4024 0.7875 0.3301
H16 H 0.4657 0.7278 0.2689
H17 H 0.4391 0.6580 0.3287
C16 C -0.0119(3) 0.68652(17) 0.35098(7)
H18 H 0.0459 0.6205 0.3706
H19 H -0.1771 0.6776 0.3418
H20 H 0.0087 0.7494 0.3774
N1 N 0.1447(2) 0.81382(10) 0.19978(5)
N2 N 0.0053(2) 0.64996(11) 0.15499(5)
S1 S 0.26171(7) 0.98273(3) 0.260051(16)
S2 S 0.51911(7) 0.91529(3) 0.152247(17)
C1 C 0.5034(3) 0.58967(12) 0.71506(7)
H1 H 0.5024 0.5961 0.6712
H2 H 0.3615 0.5504 0.7277
C2 C 0.5139(3) 0.70301(12) 0.74393(6)
H3 H 0.3520 0.7253 0.7544
C3 C 0.8046(3) 0.60404(12) 0.79998(6)
C4 C 0.6101(3) 0.75700(12) 0.84749(6)
C5 C 0.6471(3) 0.74592(12) 0.91356(6)
H4 H 0.8139 0.7527 0.9253
C6 C 0.5179(3) 0.85858(12) 0.91217(6)
H5 H 0.3604 0.8531 0.9306
C7 C 0.6487(3) 0.95563(12) 0.93551(6)
C8 C 0.5689(3) 1.00979(13) 0.98593(7)
H6 H 0.4257 0.9888 1.0035
C9 C 0.6976(3) 1.09457(13) 1.01083(8)
H7 H 0.6420 1.1311 1.0453
C10 C 0.9062(4) 1.12565(14) 0.98551(8)
H8 H 0.9946 1.1830 1.0027
C11 C 0.9859(3) 1.07279(14) 0.93488(8)
H9 H 1.1286 1.0945 0.9173
C12 C 0.8581(3) 0.98835(13) 0.90979(7)
H10 H 0.9133 0.9527 0.8750
C13 C 0.5256(3) 0.65189(13) 0.94430(7)
H11 H 0.3607 0.6523 0.9337
H12 H 0.5418 0.6597 0.9875
H13 H 0.5957 0.5828 0.9316
C14 C 0.6230(3) 0.79466(12) 0.70647(7)
H14 H 0.6091 0.8632 0.7303
C15 C 0.8806(3) 0.77896(13) 0.69351(8)
H15 H 0.9024 0.7125 0.6699
H16 H 0.9657 0.7722 0.7311
H17 H 0.9391 0.8420 0.6713
C16 C 0.4881(3) 0.81348(17) 0.64902(7)
H18 H 0.5459 0.8795 0.6294
H19 H 0.3229 0.8224 0.6582
H20 H 0.5087 0.7506 0.6226
N1 N 0.6447(2) 0.68618(10) 0.80022(5)
N2 N 0.5053(2) 0.85004(11) 0.84501(5)
S1 S 0.76171(7) 0.51727(3) 0.739949(16)
S2 S 1.01911(7) 0.58471(3) 0.847753(17)
C1 C 0.9966(3) 0.41033(12) 0.21506(7)
H1 H 0.9976 0.4039 0.1712
H2 H 1.1385 0.4496 0.2277
C2 C 0.9861(3) 0.29699(12) 0.24393(6)
H3 H 1.1480 0.2747 0.2544
C3 C 0.6954(3) 0.39596(12) 0.29998(6)
C4 C 0.8899(3) 0.24300(12) 0.34749(6)
C5 C 0.8529(3) 0.25408(12) 0.41356(6)
H4 H 0.6861 0.2473 0.4253
C6 C 0.9821(3) 0.14142(12) 0.41217(6)
H5 H 1.1396 0.1469 0.4306
C7 C 0.8513(3) 0.04437(12) 0.43551(6)
C8 C 0.9311(3) -0.00979(13) 0.48593(7)
H6 H 1.0743 0.0112 0.5035
C9 C 0.8024(3) -0.09457(13) 0.51083(8)
H7 H 0.8580 -0.1311 0.5453
C10 C 0.5938(4) -0.12565(14) 0.48551(8)
H8 H 0.5054 -0.1830 0.5027
C11 C 0.5141(3) -0.07279(14) 0.43488(8)
H9 H 0.3714 -0.0945 0.4173
C12 C 0.6419(3) 0.01165(13) 0.40979(7)
H10 H 0.5867 0.0473 0.3750
C13 C 0.9744(3) 0.34811(13) 0.44430(7)
H11 H 1.1393 0.3477 0.4337
H12 H 0.9582 0.3403 0.4875
H13 H 0.9043 0.4172 0.4316
C14 C 0.8770(3) 0.20534(12) 0.20647(7)
H14 H 0.8909 0.1368 0.2303
C15 C 0.6194(3) 0.22104(13) 0.19351(8)
H15 H 0.5976 0.2875 0.1699
H16 H 0.5343 0.2278 0.2311
H17 H 0.5609 0.1580 0.1713
C16 C 1.0119(3) 0.18652(17) 0.14902(7)
H18 H 0.9541 0.1205 0.1294
H19 H 1.1771 0.1776 0.1582
H20 H 0.9913 0.2494 0.1226
N1 N 0.8553(2) 0.31382(10) 0.30022(5)
N2 N 0.9947(2) 0.14996(11) 0.34501(5)
S1 S 0.73829(7) 0.48273(3) 0.239949(16)
S2 S 0.48089(7) 0.41529(3) 0.347753(17)

#END
