./LABXOC_from_xyz.cif_generated_by_CrystalShift
_symmetry_cell_setting triclinic
_symmetry_space_group_name_H-M 'P 1'
loop_
_symmetry_equiv_pos_site_id
_symmetry_equiv_pos_as_xyz
1 x,y,z
_cell_length_a 5.762400
_cell_length_b 12.248500
_cell_length_c 22.486000
_cell_angle_alpha 90.000000
_cell_angle_beta 90.000000
_cell_angle_gamma 90.000000
_cell_volume 1587.078888
loop_
_atom_site_label
_atom_site_type_symbol
_atom_site_fract_x
_atom_site_fract_y
_atom_site_fract_z
C1 C 0.496600 0.089670 0.784940
H2 H 0.497600 0.096100 0.828800
H3 H 0.638500 0.050400 0.772300
C4 C 0.486100 0.203010 0.756070
H5 H 0.648000 0.225300 0.745600
C6 C 0.195400 0.104040 0.700020
C7 C 0.389900 0.257000 0.652510
C8 C 0.352900 0.245920 0.586440
H9 H 0.186100 0.252700 0.574700
C10 C 0.482100 0.358580 0.587830
H11 H 0.639600 0.353100 0.569400
C12 C 0.351300 0.455630 0.564490
C13 C 0.431100 0.509790 0.514070
H14 H 0.574300 0.488800 0.496500
C15 C 0.302400 0.594570 0.489170
H16 H 0.358000 0.631100 0.454700
C17 C 0.093800 0.625650 0.514490
H18 H 0.005400 0.683000 0.497300
C19 C 0.014100 0.572790 0.565120
H20 H -0.128600 0.594500 0.582700
C21 C 0.141900 0.488350 0.590210
H22 H 0.086700 0.452700 0.625000
C23 C 0.474400 0.151890 0.555700
H24 H 0.639300 0.152300 0.566300
H25 H 0.458200 0.159700 0.512500
H26 H 0.404300 0.082800 0.568400
C27 C 0.377000 0.294660 0.793530
H28 H 0.390900 0.363200 0.769700
C29 C 0.119400 0.278960 0.806490
H30 H 0.097600 0.212500 0.830100
H31 H 0.034300 0.272200 0.768900
H32 H 0.060900 0.342000 0.828700
C33 C 0.511900 0.313480 0.850980
H34 H 0.454100 0.379500 0.870600
H35 H 0.677100 0.322400 0.841800
H36 H 0.491300 0.250600 0.877400
N37 N 0.355300 0.186180 0.699780
N38 N 0.494700 0.350040 0.654990
S39 S 0.238290 0.017270 0.760051
S40 S -0.019110 0.084710 0.652247
C41 C 0.003400 0.910330 0.284940
H42 H 0.002400 0.903900 0.328800
H43 H -0.138500 0.949600 0.272300
C44 C 0.013900 0.796990 0.256070
H45 H -0.148000 0.774700 0.245600
C46 C 0.304600 0.895960 0.200020
C47 C 0.110100 0.743000 0.152510
C48 C 0.147100 0.754080 0.086440
H49 H 0.313900 0.747300 0.074700
C50 C 0.017900 0.641420 0.087830
H51 H -0.139600 0.646900 0.069400
C52 C 0.148700 0.544370 0.064490
C53 C 0.068900 0.490210 0.014070
H54 H -0.074300 0.511200 -0.003500
C55 C 0.197600 0.405430 -0.010830
H56 H 0.142000 0.368900 -0.045300
C57 C 0.406200 0.374350 0.014490
H58 H 0.494600 0.317000 -0.002700
C59 C 0.485900 0.427210 0.065120
H60 H 0.628600 0.405500 0.082700
C61 C 0.358100 0.511650 0.090210
H62 H 0.413300 0.547300 0.125000
C63 C 0.025600 0.848110 0.055700
H64 H -0.139300 0.847700 0.066300
H65 H 0.041800 0.840300 0.012500
H66 H 0.095700 0.917200 0.068400
C67 C 0.123000 0.705340 0.293530
H68 H 0.109100 0.636800 0.269700
C69 C 0.380600 0.721040 0.306490
H70 H 0.402400 0.787500 0.330100
H71 H 0.465700 0.727800 0.268900
H72 H 0.439100 0.658000 0.328700
C73 C -0.011900 0.686520 0.350980
H74 H 0.045900 0.620500 0.370600
H75 H -0.177100 0.677600 0.341800
H76 H 0.008700 0.749400 0.377400
N77 N 0.144700 0.813820 0.199780
N78 N 0.005300 0.649960 0.154990
S79 S 0.261710 0.982730 0.260051
S80 S 0.519110 0.915290 0.152247
C81 C 0.503400 0.589670 0.715060
H82 H 0.502400 0.596100 0.671200
H83 H 0.361500 0.550400 0.727700
C84 C 0.513900 0.703010 0.743930
H85 H 0.352000 0.725300 0.754400
C86 C 0.804600 0.604040 0.799980
C87 C 0.610100 0.757000 0.847490
C88 C 0.647100 0.745920 0.913560
H89 H 0.813900 0.752700 0.925300
C90 C 0.517900 0.858580 0.912170
H91 H 0.360400 0.853100 0.930600
C92 C 0.648700 0.955630 0.935510
C93 C 0.568900 1.009790 0.985930
H94 H 0.425700 0.988800 1.003500
C95 C 0.697600 1.094570 1.010830
H96 H 0.642000 1.131100 1.045300
C97 C 0.906200 1.125650 0.985510
H98 H 0.994600 1.183000 1.002700
C99 C 0.985900 1.072790 0.934880
H100 H 1.128600 1.094500 0.917300
C101 C 0.858100 0.988350 0.909790
H102 H 0.913300 0.952700 0.875000
C103 C 0.525600 0.651890 0.944300
H104 H 0.360700 0.652300 0.933700
H105 H 0.541800 0.659700 0.987500
H106 H 0.595700 0.582800 0.931600
C107 C 0.623000 0.794660 0.706470
H108 H 0.609100 0.863200 0.730300
C109 C 0.880600 0.778960 0.693510
H110 H 0.902400 0.712500 0.669900
H111 H 0.965700 0.772200 0.731100
H112 H 0.939100 0.842000 0.671300
C113 C 0.488100 0.813480 0.649020
H114 H 0.545900 0.879500 0.629400
H115 H 0.322900 0.822400 0.658200
H116 H 0.508700 0.750600 0.622600
N117 N 0.644700 0.686180 0.800220
N118 N 0.505300 0.850040 0.845010
S119 S 0.761710 0.517270 0.739949
S120 S 1.019110 0.584710 0.847753
C121 C 0.996600 0.410330 0.215060
H122 H 0.997600 0.403900 0.171200
H123 H 1.138500 0.449600 0.227700
C124 C 0.986100 0.296990 0.243930
H125 H 1.148000 0.274700 0.254400
C126 C 0.695400 0.395960 0.299980
C127 C 0.889900 0.243000 0.347490
C128 C 0.852900 0.254080 0.413560
H129 H 0.686100 0.247300 0.425300
C130 C 0.982100 0.141420 0.412170
H131 H 1.139600 0.146900 0.430600
C132 C 0.851300 0.044370 0.435510
C133 C 0.931100 -0.009790 0.485930
H134 H 1.074300 0.011200 0.503500
C135 C 0.802400 -0.094570 0.510830
H136 H 0.858000 -0.131100 0.545300
C137 C 0.593800 -0.125650 0.485510
H138 H 0.505400 -0.183000 0.502700
C139 C 0.514100 -0.072790 0.434880
H140 H 0.371400 -0.094500 0.417300
C141 C 0.641900 0.011650 0.409790
H142 H 0.586700 0.047300 0.375000
C143 C 0.974400 0.348110 0.444300
H144 H 1.139300 0.347700 0.433700
H145 H 0.958200 0.340300 0.487500
H146 H 0.904300 0.417200 0.431600
C147 C 0.877000 0.205340 0.206470
H148 H 0.890900 0.136800 0.230300
C149 C 0.619400 0.221040 0.193510
H150 H 0.597600 0.287500 0.169900
H151 H 0.534300 0.227800 0.231100
H152 H 0.560900 0.158000 0.171300
C153 C 1.011900 0.186520 0.149020
H154 H 0.954100 0.120500 0.129400
H155 H 1.177100 0.177600 0.158200
H156 H 0.991300 0.249400 0.122600
N157 N 0.855300 0.313820 0.300220
N158 N 0.994700 0.149960 0.345010
S159 S 0.738290 0.482730 0.239949
S160 S 0.480890 0.415290 0.347753

#END
