./LABYUJ_from_xyz.cif_generated_by_CrystalShift
_symmetry_cell_setting triclinic
_symmetry_space_group_name_H-M 'P 1'
loop_
_symmetry_equiv_pos_site_id
_symmetry_equiv_pos_as_xyz
1 x,y,z
_cell_length_a 15.034100
_cell_length_b 9.607600
_cell_length_c 17.351400
_cell_angle_alpha 90.000000
_cell_angle_beta 114.670000
_cell_angle_gamma 90.000000
_cell_volume 2277.509663
loop_
_atom_site_label
_atom_site_type_symbol
_atom_site_fract_x
_atom_site_fract_y
_atom_site_fract_z
N1 N 0.016340 0.072790 0.126150
N2 N -0.067870 0.064080 0.138640
C3 C -0.093250 0.188070 0.150970
C4 C -0.024240 0.299980 0.147180
H5 H -0.002000 0.357900 0.196800
H6 H -0.055100 0.357100 0.097700
C7 C 0.061260 0.214840 0.143190
H8 H 0.074300 0.245200 0.096200
C9 C 0.054850 -0.046180 0.107550
C10 C 0.140790 -0.042140 0.094340
H11 H 0.172700 0.045200 0.096200
C12 C 0.179390 -0.162930 0.078680
H13 H 0.238200 -0.159200 0.069700
C14 C 0.134050 -0.291040 0.075670
C15 C 0.046780 -0.293980 0.086110
H16 H 0.014300 -0.381200 0.082900
C17 C 0.006970 -0.174220 0.100830
H18 H -0.053800 -0.177700 0.106600
C19 C -0.178580 0.213070 0.168600
C20 C -0.230530 0.103500 0.184670
H21 H -0.213200 0.008800 0.179800
C22 C -0.306610 0.132040 0.207490
H23 H -0.341500 0.057200 0.219100
C24 C -0.332400 0.270060 0.213540
C25 C -0.283740 0.378640 0.194480
H26 H -0.302800 0.473300 0.196800
C27 C -0.207640 0.348930 0.172160
H28 H -0.174200 0.423900 0.158900
C29 C 0.153630 0.220690 0.224280
C30 C 0.150140 0.195520 0.302480
H31 H 0.088800 0.170100 0.303400
C32 C 0.231820 0.206090 0.378150
H33 H 0.226000 0.189800 0.430400
C34 C 0.324140 0.240550 0.380120
C35 C 0.327670 0.262890 0.300860
H36 H 0.389200 0.283800 0.299100
C37 C 0.243850 0.255180 0.225720
H38 H 0.248400 0.274300 0.173200
N39 N 0.405910 0.251320 0.455410
C40 C 0.501200 0.287700 0.458460
H41 H 0.538300 0.335800 0.510600
H42 H 0.492300 0.350300 0.412700
C43 C 0.558780 0.162400 0.452240
H44 H 0.567300 0.098800 0.497500
H45 H 0.621700 0.191900 0.456500
H46 H 0.523900 0.116900 0.398800
C47 C 0.400800 0.228000 0.536380
H48 H 0.464100 0.199400 0.577400
H49 H 0.355700 0.153600 0.530100
C50 C 0.368680 0.355800 0.569460
H51 H 0.413700 0.430600 0.576300
H52 H 0.367700 0.334800 0.623200
H53 H 0.304300 0.382900 0.529800
C54 C -0.406070 0.303040 0.243510
N55 N -0.463200 0.332960 0.268530
C56 C 0.174070 -0.418900 0.060970
N57 N 0.201540 -0.524060 0.047360
N58 N 0.016340 0.427210 0.626150
N59 N -0.067870 0.435920 0.638640
C60 C -0.093250 0.311930 0.650970
C61 C -0.024240 0.200020 0.647180
H62 H -0.002000 0.142100 0.696800
H63 H -0.055100 0.142900 0.597700
C64 C 0.061260 0.285160 0.643190
H65 H 0.074300 0.254800 0.596200
C66 C 0.054850 0.546180 0.607550
C67 C 0.140790 0.542140 0.594340
H68 H 0.172700 0.454800 0.596200
C69 C 0.179390 0.662930 0.578680
H70 H 0.238200 0.659200 0.569700
C71 C 0.134050 0.791040 0.575670
C72 C 0.046780 0.793980 0.586110
H73 H 0.014300 0.881200 0.582900
C74 C 0.006970 0.674220 0.600830
H75 H -0.053800 0.677700 0.606600
C76 C -0.178580 0.286930 0.668600
C77 C -0.230530 0.396500 0.684670
H78 H -0.213200 0.491200 0.679800
C79 C -0.306610 0.367960 0.707490
H80 H -0.341500 0.442800 0.719100
C81 C -0.332400 0.229940 0.713540
C82 C -0.283740 0.121360 0.694480
H83 H -0.302800 0.026700 0.696800
C84 C -0.207640 0.151070 0.672160
H85 H -0.174200 0.076100 0.658900
C86 C 0.153630 0.279310 0.724280
C87 C 0.150140 0.304480 0.802480
H88 H 0.088800 0.329900 0.803400
C89 C 0.231820 0.293910 0.878150
H90 H 0.226000 0.310200 0.930400
C91 C 0.324140 0.259450 0.880120
C92 C 0.327670 0.237110 0.800860
H93 H 0.389200 0.216200 0.799100
C94 C 0.243850 0.244820 0.725720
H95 H 0.248400 0.225700 0.673200
N96 N 0.405910 0.248680 0.955410
C97 C 0.501200 0.212300 0.958460
H98 H 0.538300 0.164200 1.010600
H99 H 0.492300 0.149700 0.912700
C100 C 0.558780 0.337600 0.952240
H101 H 0.567300 0.401200 0.997500
H102 H 0.621700 0.308100 0.956500
H103 H 0.523900 0.383100 0.898800
C104 C 0.400800 0.272000 1.036380
H105 H 0.464100 0.300600 1.077400
H106 H 0.355700 0.346400 1.030100
C107 C 0.368680 0.144200 1.069460
H108 H 0.413700 0.069400 1.076300
H109 H 0.367700 0.165200 1.123200
H110 H 0.304300 0.117100 1.029800
C111 C -0.406070 0.196960 0.743510
N112 N -0.463200 0.167040 0.768530
C113 C 0.174070 0.918900 0.560970
N114 N 0.201540 1.024060 0.547360
N115 N 0.983660 0.927210 0.873850
N116 N 1.067870 0.935920 0.861360
C117 C 1.093250 0.811930 0.849030
C118 C 1.024240 0.700020 0.852820
H119 H 1.002000 0.642100 0.803200
H120 H 1.055100 0.642900 0.902300
C121 C 0.938740 0.785160 0.856810
H122 H 0.925700 0.754800 0.903800
C123 C 0.945150 1.046180 0.892450
C124 C 0.859210 1.042140 0.905660
H125 H 0.827300 0.954800 0.903800
C126 C 0.820610 1.162930 0.921320
H127 H 0.761800 1.159200 0.930300
C128 C 0.865950 1.291040 0.924330
C129 C 0.953220 1.293980 0.913890
H130 H 0.985700 1.381200 0.917100
C131 C 0.993030 1.174220 0.899170
H132 H 1.053800 1.177700 0.893400
C133 C 1.178580 0.786930 0.831400
C134 C 1.230530 0.896500 0.815330
H135 H 1.213200 0.991200 0.820200
C136 C 1.306610 0.867960 0.792510
H137 H 1.341500 0.942800 0.780900
C138 C 1.332400 0.729940 0.786460
C139 C 1.283740 0.621360 0.805520
H140 H 1.302800 0.526700 0.803200
C141 C 1.207640 0.651070 0.827840
H142 H 1.174200 0.576100 0.841100
C143 C 0.846370 0.779310 0.775720
C144 C 0.849860 0.804480 0.697520
H145 H 0.911200 0.829900 0.696600
C146 C 0.768180 0.793910 0.621850
H147 H 0.774000 0.810200 0.569600
C148 C 0.675860 0.759450 0.619880
C149 C 0.672330 0.737110 0.699140
H150 H 0.610800 0.716200 0.700900
C151 C 0.756150 0.744820 0.774280
H152 H 0.751600 0.725700 0.826800
N153 N 0.594090 0.748680 0.544590
C154 C 0.498800 0.712300 0.541540
H155 H 0.461700 0.664200 0.489400
H156 H 0.507700 0.649700 0.587300
C157 C 0.441220 0.837600 0.547760
H158 H 0.432700 0.901200 0.502500
H159 H 0.378300 0.808100 0.543500
H160 H 0.476100 0.883100 0.601200
C161 C 0.599200 0.772000 0.463620
H162 H 0.535900 0.800600 0.422600
H163 H 0.644300 0.846400 0.469900
C164 C 0.631320 0.644200 0.430540
H165 H 0.586300 0.569400 0.423700
H166 H 0.632300 0.665200 0.376800
H167 H 0.695700 0.617100 0.470200
C168 C 1.406070 0.696960 0.756490
N169 N 1.463200 0.667040 0.731470
C170 C 0.825930 1.418900 0.939030
N171 N 0.798460 1.524060 0.952640
N172 N 0.983660 0.572790 0.373850
N173 N 1.067870 0.564080 0.361360
C174 C 1.093250 0.688070 0.349030
C175 C 1.024240 0.799980 0.352820
H176 H 1.002000 0.857900 0.303200
H177 H 1.055100 0.857100 0.402300
C178 C 0.938740 0.714840 0.356810
H179 H 0.925700 0.745200 0.403800
C180 C 0.945150 0.453820 0.392450
C181 C 0.859210 0.457860 0.405660
H182 H 0.827300 0.545200 0.403800
C183 C 0.820610 0.337070 0.421320
H184 H 0.761800 0.340800 0.430300
C185 C 0.865950 0.208960 0.424330
C186 C 0.953220 0.206020 0.413890
H187 H 0.985700 0.118800 0.417100
C188 C 0.993030 0.325780 0.399170
H189 H 1.053800 0.322300 0.393400
C190 C 1.178580 0.713070 0.331400
C191 C 1.230530 0.603500 0.315330
H192 H 1.213200 0.508800 0.320200
C193 C 1.306610 0.632040 0.292510
H194 H 1.341500 0.557200 0.280900
C195 C 1.332400 0.770060 0.286460
C196 C 1.283740 0.878640 0.305520
H197 H 1.302800 0.973300 0.303200
C198 C 1.207640 0.848930 0.327840
H199 H 1.174200 0.923900 0.341100
C200 C 0.846370 0.720690 0.275720
C201 C 0.849860 0.695520 0.197520
H202 H 0.911200 0.670100 0.196600
C203 C 0.768180 0.706090 0.121850
H204 H 0.774000 0.689800 0.069600
C205 C 0.675860 0.740550 0.119880
C206 C 0.672330 0.762890 0.199140
H207 H 0.610800 0.783800 0.200900
C208 C 0.756150 0.755180 0.274280
H209 H 0.751600 0.774300 0.326800
N210 N 0.594090 0.751320 0.044590
C211 C 0.498800 0.787700 0.041540
H212 H 0.461700 0.835800 -0.010600
H213 H 0.507700 0.850300 0.087300
C214 C 0.441220 0.662400 0.047760
H215 H 0.432700 0.598800 0.002500
H216 H 0.378300 0.691900 0.043500
H217 H 0.476100 0.616900 0.101200
C218 C 0.599200 0.728000 -0.036380
H219 H 0.535900 0.699400 -0.077400
H220 H 0.644300 0.653600 -0.030100
C221 C 0.631320 0.855800 -0.069460
H222 H 0.586300 0.930600 -0.076300
H223 H 0.632300 0.834800 -0.123200
H224 H 0.695700 0.882900 -0.029800
C225 C 1.406070 0.803040 0.256490
N226 N 1.463200 0.832960 0.231470
C227 C 0.825930 0.081100 0.439030
N228 N 0.798460 -0.024060 0.452640

#END
