./LACBIA_from_xyz.cif_generated_by_CrystalShift
_symmetry_cell_setting triclinic
_symmetry_space_group_name_H-M 'P 1'
loop_
_symmetry_equiv_pos_site_id
_symmetry_equiv_pos_as_xyz
1 x,y,z
_cell_length_a 6.843000
_cell_length_b 6.997000
_cell_length_c 9.837000
_cell_angle_alpha 89.720000
_cell_angle_beta 87.780000
_cell_angle_gamma 75.690000
_cell_volume 456.038394
loop_
_atom_site_label
_atom_site_type_symbol
_atom_site_fract_x
_atom_site_fract_y
_atom_site_fract_z
O1 O 0.365800 0.703700 1.240600
N2 N 0.182100 0.719700 0.687100
N3 N 0.342000 0.726100 1.099300
C4 C 0.326900 0.749100 0.577100
C5 C -0.028400 0.838700 0.665800
C6 C -0.172800 0.775400 0.766300
C7 C -0.093800 0.750800 0.906200
C8 C 0.096600 0.745700 0.932600
C9 C 0.251500 0.759700 0.823600
C10 C 0.162200 0.725300 1.072400
H11 H 0.175380 0.598360 0.687970
H12 H 0.274340 0.716820 0.493110
H13 H 0.321630 0.890200 0.579070
H14 H 0.457560 0.652580 0.589860
H15 H -0.061490 0.822400 0.569430
H16 H -0.028140 0.979640 0.679300
H17 H -0.299600 0.878270 0.768790
H18 H -0.196360 0.650150 0.731370
H19 H -0.175600 0.728340 0.977880
H20 H 0.277300 0.890270 0.822910
H21 H 0.376490 0.656410 0.840290
H22 H 0.075150 0.710600 1.140660
H23 H 0.486040 0.719670 1.253820
O24 O 0.634200 0.296300 -0.240600
N25 N 0.817900 0.280300 0.312900
N26 N 0.658000 0.273900 -0.099300
C27 C 0.673100 0.250900 0.422900
C28 C 1.028400 0.161300 0.334200
C29 C 1.172800 0.224600 0.233700
C30 C 1.093800 0.249200 0.093800
C31 C 0.903400 0.254300 0.067400
C32 C 0.748500 0.240300 0.176400
C33 C 0.837800 0.274700 -0.072400
H34 H 0.824620 0.401640 0.312030
H35 H 0.725660 0.283180 0.506890
H36 H 0.678370 0.109800 0.420930
H37 H 0.542440 0.347420 0.410140
H38 H 1.061490 0.177600 0.430570
H39 H 1.028140 0.020360 0.320700
H40 H 1.299600 0.121730 0.231210
H41 H 1.196360 0.349850 0.268630
H42 H 1.175600 0.271660 0.022120
H43 H 0.722700 0.109730 0.177090
H44 H 0.623510 0.343590 0.159710
H45 H 0.924850 0.289400 -0.140660
H46 H 0.513960 0.280330 -0.253820
Cl47 Cl 0.224350 0.275130 0.661770
Cl48 Cl 0.775650 0.724870 0.338230

#END
