./LACCEX_from_xyz.cif_generated_by_CrystalShift
_symmetry_cell_setting triclinic
_symmetry_space_group_name_H-M 'P 1'
loop_
_symmetry_equiv_pos_site_id
_symmetry_equiv_pos_as_xyz
1 x,y,z
_cell_length_a 11.134000
_cell_length_b 7.689000
_cell_length_c 15.548000
_cell_angle_alpha 90.000000
_cell_angle_beta 95.620000
_cell_angle_gamma 90.000000
_cell_volume 1324.655788
loop_
_atom_site_label
_atom_site_type_symbol
_atom_site_fract_x
_atom_site_fract_y
_atom_site_fract_z
N1 N 1.008700 0.791400 -0.033900
C2 C 0.896900 0.721000 -0.059100
C3 C 0.853100 0.640800 0.009000
C4 C 0.941600 0.663000 0.080800
C5 C 0.950000 0.608000 0.167400
C6 C 1.052900 0.651100 0.220100
C7 C 1.146200 0.746600 0.190000
C8 C 1.140700 0.802300 0.105900
C9 C 1.038500 0.757900 0.052200
C10 C 0.735500 0.547300 0.011500
C11 C 0.656100 0.625000 0.075500
O12 O 0.590600 0.535000 0.117600
N13 N 0.660900 0.797600 0.082600
C14 C 0.638000 1.093300 0.120100
C15 C 0.600000 0.907600 0.141900
C16 C 0.462900 0.885500 0.127400
C17 C 0.648100 0.872000 0.235500
O18 O 0.564400 1.210900 0.144600
O19 O 0.728900 1.123900 0.086300
H20 H 1.068100 0.851200 -0.069100
H21 H 0.862000 0.732900 -0.119800
H22 H 0.879500 0.536400 0.189800
H23 H 1.057400 0.606600 0.276800
H24 H 1.216900 0.787100 0.232100
H25 H 1.204800 0.874900 0.080800
H26 H 0.753500 0.412900 0.028400
H27 H 0.687000 0.554000 -0.052100
H28 H 0.720800 0.851800 0.056300
H29 H 0.443200 0.770400 0.139600
H30 H 0.423500 0.964800 0.170100
H31 H 0.436900 0.916700 0.065700
H32 H 0.609400 0.953000 0.272000
H33 H 0.628400 0.748800 0.251500
H34 H 0.742500 0.885800 0.246200
H35 H 0.588700 1.329800 0.130700
N36 N -0.008700 0.291400 0.533900
C37 C 0.103100 0.221000 0.559100
C38 C 0.146900 0.140800 0.491000
C39 C 0.058400 0.163000 0.419200
C40 C 0.050000 0.108000 0.332600
C41 C -0.052900 0.151100 0.279900
C42 C -0.146200 0.246600 0.310000
C43 C -0.140700 0.302300 0.394100
C44 C -0.038500 0.257900 0.447800
C45 C 0.264500 0.047300 0.488500
C46 C 0.343900 0.125000 0.424500
O47 O 0.409400 0.035000 0.382400
N48 N 0.339100 0.297600 0.417400
C49 C 0.362000 0.593300 0.379900
C50 C 0.400000 0.407600 0.358100
C51 C 0.537100 0.385500 0.372600
C52 C 0.351900 0.372000 0.264500
O53 O 0.435600 0.710900 0.355400
O54 O 0.271100 0.623900 0.413700
H55 H -0.068100 0.351200 0.569100
H56 H 0.138000 0.232900 0.619800
H57 H 0.120500 0.036400 0.310200
H58 H -0.057400 0.106600 0.223200
H59 H -0.216900 0.287100 0.267900
H60 H -0.204800 0.374900 0.419200
H61 H 0.246500 -0.087100 0.471600
H62 H 0.313000 0.054000 0.552100
H63 H 0.279200 0.351800 0.443700
H64 H 0.556800 0.270400 0.360400
H65 H 0.576500 0.464800 0.329900
H66 H 0.563100 0.416700 0.434300
H67 H 0.390600 0.453000 0.228000
H68 H 0.371600 0.248800 0.248500
H69 H 0.257500 0.385800 0.253800
H70 H 0.411300 0.829800 0.369300
N71 N -0.008700 0.208600 1.033900
C72 C 0.103100 0.279000 1.059100
C73 C 0.146900 0.359200 0.991000
C74 C 0.058400 0.337000 0.919200
C75 C 0.050000 0.392000 0.832600
C76 C -0.052900 0.348900 0.779900
C77 C -0.146200 0.253400 0.810000
C78 C -0.140700 0.197700 0.894100
C79 C -0.038500 0.242100 0.947800
C80 C 0.264500 0.452700 0.988500
C81 C 0.343900 0.375000 0.924500
O82 O 0.409400 0.465000 0.882400
N83 N 0.339100 0.202400 0.917400
C84 C 0.362000 -0.093300 0.879900
C85 C 0.400000 0.092400 0.858100
C86 C 0.537100 0.114500 0.872600
C87 C 0.351900 0.128000 0.764500
O88 O 0.435600 -0.210900 0.855400
O89 O 0.271100 -0.123900 0.913700
H90 H -0.068100 0.148800 1.069100
H91 H 0.138000 0.267100 1.119800
H92 H 0.120500 0.463600 0.810200
H93 H -0.057400 0.393400 0.723200
H94 H -0.216900 0.212900 0.767900
H95 H -0.204800 0.125100 0.919200
H96 H 0.246500 0.587100 0.971600
H97 H 0.313000 0.446000 1.052100
H98 H 0.279200 0.148200 0.943700
H99 H 0.556800 0.229600 0.860400
H100 H 0.576500 0.035200 0.829900
H101 H 0.563100 0.083300 0.934300
H102 H 0.390600 0.047000 0.728000
H103 H 0.371600 0.251200 0.748500
H104 H 0.257500 0.114200 0.753800
H105 H 0.411300 -0.329800 0.869300
N106 N 1.008700 0.708600 0.466100
C107 C 0.896900 0.779000 0.440900
C108 C 0.853100 0.859200 0.509000
C109 C 0.941600 0.837000 0.580800
C110 C 0.950000 0.892000 0.667400
C111 C 1.052900 0.848900 0.720100
C112 C 1.146200 0.753400 0.690000
C113 C 1.140700 0.697700 0.605900
C114 C 1.038500 0.742100 0.552200
C115 C 0.735500 0.952700 0.511500
C116 C 0.656100 0.875000 0.575500
O117 O 0.590600 0.965000 0.617600
N118 N 0.660900 0.702400 0.582600
C119 C 0.638000 0.406700 0.620100
C120 C 0.600000 0.592400 0.641900
C121 C 0.462900 0.614500 0.627400
C122 C 0.648100 0.628000 0.735500
O123 O 0.564400 0.289100 0.644600
O124 O 0.728900 0.376100 0.586300
H125 H 1.068100 0.648800 0.430900
H126 H 0.862000 0.767100 0.380200
H127 H 0.879500 0.963600 0.689800
H128 H 1.057400 0.893400 0.776800
H129 H 1.216900 0.712900 0.732100
H130 H 1.204800 0.625100 0.580800
H131 H 0.753500 1.087100 0.528400
H132 H 0.687000 0.946000 0.447900
H133 H 0.720800 0.648200 0.556300
H134 H 0.443200 0.729600 0.639600
H135 H 0.423500 0.535200 0.670100
H136 H 0.436900 0.583300 0.565700
H137 H 0.609400 0.547000 0.772000
H138 H 0.628400 0.751200 0.751500
H139 H 0.742500 0.614200 0.746200
H140 H 0.588700 0.170200 0.630700

#END
