./LACCAT_from_xyz.cif_generated_by_CrystalShift
_symmetry_cell_setting triclinic
_symmetry_space_group_name_H-M 'P 1'
loop_
_symmetry_equiv_pos_site_id
_symmetry_equiv_pos_as_xyz
1 x,y,z
_cell_length_a 7.185000
_cell_length_b 10.850000
_cell_length_c 9.600000
_cell_angle_alpha 90.000000
_cell_angle_beta 105.800000
_cell_angle_gamma 90.000000
_cell_volume 720.113960
loop_
_atom_site_label
_atom_site_type_symbol
_atom_site_fract_x
_atom_site_fract_y
_atom_site_fract_z
N1 N 0.847300 0.271700 0.643700
C2 C 0.706700 0.313100 0.526500
C3 C 0.786700 0.395600 0.449900
C4 C 0.988700 0.403700 0.525800
C5 C 1.141400 0.474100 0.505700
C6 C 1.321100 0.466100 0.605500
C7 C 1.351200 0.386800 0.723000
C8 C 1.205100 0.315100 0.746300
C9 C 1.020900 0.325100 0.647000
C10 C 0.686900 0.464800 0.316400
C11 C 0.726700 0.421400 0.177300
O12 O 0.669300 0.480900 0.063200
N13 N 0.825400 0.317700 0.181400
C14 C 0.721500 0.171900 -0.024700
C15 C 0.872900 0.263700 0.057700
C16 C 1.074500 0.202900 0.101100
C17 C 1.087300 0.098200 0.208300
C18 C 1.231100 0.298400 0.158800
O19 O 0.588600 0.144500 0.040500
O20 O 0.728100 0.129700 -0.139300
H21 H 0.828600 0.219900 0.722800
H22 H 0.536500 0.291800 0.512400
H23 H 1.140500 0.522400 0.421900
H24 H 1.438900 0.522500 0.591800
H25 H 1.493500 0.381300 0.798100
H26 H 1.230600 0.253000 0.837400
H27 H 0.533000 0.458200 0.302900
H28 H 0.731200 0.560000 0.332500
H29 H 0.849100 0.265500 0.271500
H30 H 0.874400 0.339500 -0.015000
H31 H 1.090400 0.158400 -0.010300
H32 H 1.073500 0.134700 0.309700
H33 H 1.225400 0.052600 0.225900
H34 H 0.972400 0.033000 0.165700
H35 H 1.214300 0.337000 0.258300
H36 H 1.219200 0.370800 0.079700
H37 H 1.371400 0.255200 0.179000
H38 H 0.520500 0.080000 -0.021900
N39 N 0.152700 0.771700 0.356300
C40 C 0.293300 0.813100 0.473500
C41 C 0.213300 0.895600 0.550100
C42 C 0.011300 0.903700 0.474200
C43 C -0.141400 0.974100 0.494300
C44 C -0.321100 0.966100 0.394500
C45 C -0.351200 0.886800 0.277000
C46 C -0.205100 0.815100 0.253700
C47 C -0.020900 0.825100 0.353000
C48 C 0.313100 0.964800 0.683600
C49 C 0.273300 0.921400 0.822700
O50 O 0.330700 0.980900 0.936800
N51 N 0.174600 0.817700 0.818600
C52 C 0.278500 0.671900 1.024700
C53 C 0.127100 0.763700 0.942300
C54 C -0.074500 0.702900 0.898900
C55 C -0.087300 0.598200 0.791700
C56 C -0.231100 0.798400 0.841200
O57 O 0.411400 0.644500 0.959500
O58 O 0.271900 0.629700 1.139300
H59 H 0.171400 0.719900 0.277200
H60 H 0.463500 0.791800 0.487600
H61 H -0.140500 1.022400 0.578100
H62 H -0.438900 1.022500 0.408200
H63 H -0.493500 0.881300 0.201900
H64 H -0.230600 0.753000 0.162600
H65 H 0.467000 0.958200 0.697100
H66 H 0.268800 1.060000 0.667500
H67 H 0.150900 0.765500 0.728500
H68 H 0.125600 0.839500 1.015000
H69 H -0.090400 0.658400 1.010300
H70 H -0.073500 0.634700 0.690300
H71 H -0.225400 0.552600 0.774100
H72 H 0.027600 0.533000 0.834300
H73 H -0.214300 0.837000 0.741700
H74 H -0.219200 0.870800 0.920300
H75 H -0.371400 0.755200 0.821000
H76 H 0.479500 0.580000 1.021900

#END
