
#######################################################################
#
#                 Cambridge Crystallographic Data Centre
#                                CCDC 
#
#######################################################################
#
# If this CIF has been generated from an entry in the Cambridge 
# Structural Database, then it will include bibliographic, chemical, 
# crystal, experimental, refinement or atomic coordinate data resulting 
# from the CCDC's data processing and validation procedures.
#
#######################################################################

data_LACCEX
_symmetry_cell_setting           monoclinic
_symmetry_space_group_name_H-M   'P 21/c'
_symmetry_Int_Tables_number      14
_space_group_name_Hall           '-P 2ybc'
loop_
_symmetry_equiv_pos_site_id
_symmetry_equiv_pos_as_xyz
1 x,y,z
2 -x,1/2+y,1/2-z
3 -x,-y,-z
4 x,1/2-y,1/2+z
_cell_length_a                   11.134(7)
_cell_length_b                   7.689(2)
_cell_length_c                   15.548(10)
_cell_angle_alpha                90
_cell_angle_beta                 95.62(3)
_cell_angle_gamma                90
_cell_volume                     1324.66
loop_
_atom_site_label
_atom_site_type_symbol
_atom_site_fract_x
_atom_site_fract_y
_atom_site_fract_z
N1 N 1.0087(2) 0.7914(3) -0.0339(2)
C1 C 0.8969(3) 0.7210(4) -0.0591(2)
C2 C 0.8531(2) 0.6408(3) 0.0090(2)
C3 C 0.9416(2) 0.6630(3) 0.0808(2)
C4 C 0.9500(3) 0.6080(5) 0.1674(2)
C5 C 1.0529(4) 0.6511(5) 0.2201(2)
C6 C 1.1462(4) 0.7466(5) 0.1900(3)
C7 C 1.1407(3) 0.8023(4) 0.1059(2)
C8 C 1.0385(3) 0.7579(3) 0.0522(2)
C9 C 0.7355(2) 0.5473(4) 0.0115(2)
C10 C 0.6561(3) 0.6250(4) 0.0755(2)
O1 O 0.5906(2) 0.5350(2) 0.1176(1)
N2 N 0.6609(2) 0.7976(3) 0.0826(1)
C11 C 0.6380(3) 1.0933(3) 0.1201(2)
C12 C 0.6000(2) 0.9076(3) 0.1419(2)
C13 C 0.4629(3) 0.8855(5) 0.1274(3)
C14 C 0.6481(4) 0.8720(5) 0.2355(2)
O2 O 0.5644(2) 1.2109(3) 0.1446(1)
O3 O 0.7289(2) 1.1239(2) 0.0863(1)
H1 H 1.0681(29) 0.8512(43) -0.0691(20)
H2 H 0.8620(22) 0.7329(33) -0.1198(16)
H3 H 0.8795(26) 0.5364(38) 0.1898(18)
H4 H 1.0574(28) 0.6066(41) 0.2768(19)
H5 H 1.2169(29) 0.7871(40) 0.2321(19)
H6 H 1.2048(28) 0.8749(39) 0.0808(19)
H7 H 0.7535(2) 0.4129(4) 0.0284(2)
H8 H 0.6870(2) 0.5540(4) -0.0521(2)
H9 H 0.7208(26) 0.8518(37) 0.0563(17)
H10 H 0.4432(26) 0.7704(39) 0.1396(18)
H11 H 0.4235(27) 0.9648(41) 0.1701(20)
H12 H 0.4369(29) 0.9167(42) 0.0657(21)
H13 H 0.6094(26) 0.9530(39) 0.2720(18)
H14 H 0.6284(25) 0.7488(38) 0.2515(7)
H15 H 0.7425(29) 0.8858(40) 0.2462(19)
H16 H 0.5887(31) 1.3298(47) 0.1307(22)
N1 N -0.0087(2) 0.2914(3) 0.5339(2)
C1 C 0.1031(3) 0.2210(4) 0.5591(2)
C2 C 0.1469(2) 0.1408(3) 0.4910(2)
C3 C 0.0584(2) 0.1630(3) 0.4192(2)
C4 C 0.0500(3) 0.1080(5) 0.3326(2)
C5 C -0.0529(4) 0.1511(5) 0.2799(2)
C6 C -0.1462(4) 0.2466(5) 0.3100(3)
C7 C -0.1407(3) 0.3023(4) 0.3941(2)
C8 C -0.0385(3) 0.2579(3) 0.4478(2)
C9 C 0.2645(2) 0.0473(4) 0.4885(2)
C10 C 0.3439(3) 0.1250(4) 0.4245(2)
O1 O 0.4094(2) 0.0350(2) 0.3824(1)
N2 N 0.3391(2) 0.2976(3) 0.4174(1)
C11 C 0.3620(3) 0.5933(3) 0.3799(2)
C12 C 0.4000(2) 0.4076(3) 0.3581(2)
C13 C 0.5371(3) 0.3855(5) 0.3726(3)
C14 C 0.3519(4) 0.3720(5) 0.2645(2)
O2 O 0.4356(2) 0.7109(3) 0.3554(1)
O3 O 0.2711(2) 0.6239(2) 0.4137(1)
H1 H -0.0681(29) 0.3512(43) 0.5691(20)
H2 H 0.1380(22) 0.2329(33) 0.6198(16)
H3 H 0.1205(26) 0.0364(38) 0.3102(18)
H4 H -0.0574(28) 0.1066(41) 0.2232(19)
H5 H -0.2169(29) 0.2871(40) 0.2679(19)
H6 H -0.2048(28) 0.3749(39) 0.4192(19)
H7 H 0.2465(2) -0.0871(4) 0.4716(2)
H8 H 0.3130(2) 0.0540(4) 0.5521(2)
H9 H 0.2792(26) 0.3518(37) 0.4437(17)
H10 H 0.5568(26) 0.2704(39) 0.3604(18)
H11 H 0.5765(27) 0.4648(41) 0.3299(20)
H12 H 0.5631(29) 0.4167(42) 0.4343(21)
H13 H 0.3906(26) 0.4530(39) 0.2280(18)
H14 H 0.3716(25) 0.2488(38) 0.2485(7)
H15 H 0.2575(29) 0.3858(40) 0.2538(19)
H16 H 0.4113(31) 0.8298(47) 0.3693(22)
N1 N -0.0087(2) 0.2086(3) 1.0339(2)
C1 C 0.1031(3) 0.2790(4) 1.0591(2)
C2 C 0.1469(2) 0.3592(3) 0.9910(2)
C3 C 0.0584(2) 0.3370(3) 0.9192(2)
C4 C 0.0500(3) 0.3920(5) 0.8326(2)
C5 C -0.0529(4) 0.3489(5) 0.7799(2)
C6 C -0.1462(4) 0.2534(5) 0.8100(3)
C7 C -0.1407(3) 0.1977(4) 0.8941(2)
C8 C -0.0385(3) 0.2421(3) 0.9478(2)
C9 C 0.2645(2) 0.4527(4) 0.9885(2)
C10 C 0.3439(3) 0.3750(4) 0.9245(2)
O1 O 0.4094(2) 0.4650(2) 0.8824(1)
N2 N 0.3391(2) 0.2024(3) 0.9174(1)
C11 C 0.3620(3) -0.0933(3) 0.8799(2)
C12 C 0.4000(2) 0.0924(3) 0.8581(2)
C13 C 0.5371(3) 0.1145(5) 0.8726(3)
C14 C 0.3519(4) 0.1280(5) 0.7645(2)
O2 O 0.4356(2) -0.2109(3) 0.8554(1)
O3 O 0.2711(2) -0.1239(2) 0.9137(1)
H1 H -0.0681(29) 0.1488(43) 1.0691(20)
H2 H 0.1380(22) 0.2671(33) 1.1198(16)
H3 H 0.1205(26) 0.4636(38) 0.8102(18)
H4 H -0.0574(28) 0.3934(41) 0.7232(19)
H5 H -0.2169(29) 0.2129(40) 0.7679(19)
H6 H -0.2048(28) 0.1251(39) 0.9192(19)
H7 H 0.2465(2) 0.5871(4) 0.9716(2)
H8 H 0.3130(2) 0.4460(4) 1.0521(2)
H9 H 0.2792(26) 0.1482(37) 0.9437(17)
H10 H 0.5568(26) 0.2296(39) 0.8604(18)
H11 H 0.5765(27) 0.0352(41) 0.8299(20)
H12 H 0.5631(29) 0.0833(42) 0.9343(21)
H13 H 0.3906(26) 0.0470(39) 0.7280(18)
H14 H 0.3716(25) 0.2512(38) 0.7485(7)
H15 H 0.2575(29) 0.1142(40) 0.7538(19)
H16 H 0.4113(31) -0.3298(47) 0.8693(22)
N1 N 1.0087(2) 0.7086(3) 0.4661(2)
C1 C 0.8969(3) 0.7790(4) 0.4409(2)
C2 C 0.8531(2) 0.8592(3) 0.5090(2)
C3 C 0.9416(2) 0.8370(3) 0.5808(2)
C4 C 0.9500(3) 0.8920(5) 0.6674(2)
C5 C 1.0529(4) 0.8489(5) 0.7201(2)
C6 C 1.1462(4) 0.7534(5) 0.6900(3)
C7 C 1.1407(3) 0.6977(4) 0.6059(2)
C8 C 1.0385(3) 0.7421(3) 0.5522(2)
C9 C 0.7355(2) 0.9527(4) 0.5115(2)
C10 C 0.6561(3) 0.8750(4) 0.5755(2)
O1 O 0.5906(2) 0.9650(2) 0.6176(1)
N2 N 0.6609(2) 0.7024(3) 0.5826(1)
C11 C 0.6380(3) 0.4067(3) 0.6201(2)
C12 C 0.6000(2) 0.5924(3) 0.6419(2)
C13 C 0.4629(3) 0.6145(5) 0.6274(3)
C14 C 0.6481(4) 0.6280(5) 0.7355(2)
O2 O 0.5644(2) 0.2891(3) 0.6446(1)
O3 O 0.7289(2) 0.3761(2) 0.5863(1)
H1 H 1.0681(29) 0.6488(43) 0.4309(20)
H2 H 0.8620(22) 0.7671(33) 0.3802(16)
H3 H 0.8795(26) 0.9636(38) 0.6898(18)
H4 H 1.0574(28) 0.8934(41) 0.7768(19)
H5 H 1.2169(29) 0.7129(40) 0.7321(19)
H6 H 1.2048(28) 0.6251(39) 0.5808(19)
H7 H 0.7535(2) 1.0871(4) 0.5284(2)
H8 H 0.6870(2) 0.9460(4) 0.4479(2)
H9 H 0.7208(26) 0.6482(37) 0.5563(17)
H10 H 0.4432(26) 0.7296(39) 0.6396(18)
H11 H 0.4235(27) 0.5352(41) 0.6701(20)
H12 H 0.4369(29) 0.5833(42) 0.5657(21)
H13 H 0.6094(26) 0.5470(39) 0.7720(18)
H14 H 0.6284(25) 0.7512(38) 0.7515(7)
H15 H 0.7425(29) 0.6142(40) 0.7462(19)
H16 H 0.5887(31) 0.1702(47) 0.6307(22)

#END
