./LACDUO_from_xyz.cif_generated_by_CrystalShift
_symmetry_cell_setting triclinic
_symmetry_space_group_name_H-M 'P 1'
loop_
_symmetry_equiv_pos_site_id
_symmetry_equiv_pos_as_xyz
1 x,y,z
_cell_length_a 8.899000
_cell_length_b 13.709000
_cell_length_c 4.895000
_cell_angle_alpha 96.200000
_cell_angle_beta 89.900000
_cell_angle_gamma 107.200000
_cell_volume 566.842445
loop_
_atom_site_label
_atom_site_type_symbol
_atom_site_fract_x
_atom_site_fract_y
_atom_site_fract_z
Br1 Br 0.093400 -0.363700 0.039300
C2 C 0.160800 -0.224600 -0.012000
C3 C 0.100400 -0.155200 0.145800
C4 C 0.152800 -0.051400 0.111200
C5 C 0.265600 -0.016900 -0.081200
C6 C 0.326100 -0.086200 -0.239100
C7 C 0.273700 -0.190000 -0.204500
C8 C 0.326400 0.093500 -0.133000
O9 O 0.378800 0.116700 -0.355500
N10 N 0.319100 0.163000 0.075500
C11 C 0.363600 0.269300 0.075400
C12 C 0.464900 0.323500 -0.090800
C13 C 0.280000 0.318500 0.290600
O14 O 0.176300 0.270700 0.420900
O15 O 0.333700 0.421500 0.314800
C16 C 0.259500 0.474800 0.520600
H17 H 0.024800 -0.178300 0.274500
H18 H 0.112300 -0.005000 0.216800
H19 H 0.401600 -0.063100 -0.367800
H20 H 0.314200 -0.236400 -0.310100
H21 H 0.283100 0.139600 0.226200
H22 H 0.513600 0.290400 -0.223000
H23 H 0.487200 0.394600 -0.075200
H24 H 0.306300 0.547600 0.523600
H25 H 0.274100 0.454500 0.698000
H26 H 0.149000 0.457400 0.476400

#END
