
#######################################################################
#
#                 Cambridge Crystallographic Data Centre
#                                CCDC 
#
#######################################################################
#
# If this CIF has been generated from an entry in the Cambridge 
# Structural Database, then it will include bibliographic, chemical, 
# crystal, experimental, refinement or atomic coordinate data resulting 
# from the CCDC's data processing and validation procedures.
#
#######################################################################

data_LACDUP
_symmetry_cell_setting           monoclinic
_symmetry_space_group_name_H-M   'P 21/n'
_symmetry_Int_Tables_number      14
_space_group_name_Hall           '-P 2yn'
loop_
_symmetry_equiv_pos_site_id
_symmetry_equiv_pos_as_xyz
1 x,y,z
2 1/2+x,1/2-y,1/2+z
3 -x,-y,-z
4 1/2-x,1/2+y,1/2-z
_cell_length_a                   14.767(3)
_cell_length_b                   6.3780(10)
_cell_length_c                   18.641(4)
_cell_angle_alpha                90.00
_cell_angle_beta                 107.69(3)
_cell_angle_gamma                90.00
_cell_volume                     1672.66
loop_
_atom_site_label
_atom_site_type_symbol
_atom_site_fract_x
_atom_site_fract_y
_atom_site_fract_z
N1 N 0.9807(2) 0.2071(5) 0.2856(2)
H1 H 0.9419(27) 0.0999(60) 0.2809(22)
N2 N 1.0405(3) 0.2172(6) 0.0477(2)
N3 N 0.8723(2) -0.0942(5) 0.1957(2)
N4 N 0.8910(2) -0.1273(5) 0.0818(2)
H2 H 0.9133(20) -0.1143(51) 0.0441(18)
C1 C 1.0065(2) 0.2736(6) 0.2263(2)
C2 C 1.0701(2) 0.4570(6) 0.2389(2)
C3 C 1.0739(3) 0.5908(6) 0.1803(2)
H3 H 1.0341(3) 0.5623(6) 0.1301(2)
C4 C 1.1348(3) 0.7620(6) 0.1951(3)
H4 H 1.1383(3) 0.8525(6) 0.1548(3)
C5 C 1.1902(3) 0.8028(7) 0.2674(3)
H5 H 1.2323(3) 0.9212(7) 0.2772(3)
C6 C 1.1860(3) 0.6732(7) 0.3259(3)
H6 H 1.2248(3) 0.7027(7) 0.3763(3)
C7 C 1.1262(3) 0.5013(6) 0.3120(2)
C8 C 1.1182(3) 0.3604(7) 0.3743(2)
H7 H 1.1416(3) 0.4322(7) 0.4216(2)
H8 H 1.1566(3) 0.2379(7) 0.3760(2)
C9 C 1.0161(3) 0.2928(6) 0.3617(2)
C10 C 1.0113(3) 0.1198(7) 0.4166(2)
H9 H 0.9465(3) 0.0787(7) 0.4085(2)
H10 H 1.0471(3) 0.0019(7) 0.4079(2)
H11 H 1.0381(3) 0.1676(7) 0.4675(2)
C11 C 0.9546(3) 0.4791(7) 0.3699(2)
H12 H 0.8903(3) 0.4326(7) 0.3610(2)
H13 H 0.9784(3) 0.5355(7) 0.4198(2)
H14 H 0.9563(3) 0.5855(7) 0.3339(2)
C12 C 0.9749(2) 0.1655(6) 0.1591(2)
C13 C 0.9125(2) -0.0145(6) 0.1469(2)
C14 C 0.8237(2) -0.2712(6) 0.1608(2)
C15 C 0.7706(2) -0.4185(7) 0.1853(2)
H15 H 0.7589(2) -0.4009(7) 0.2329(2)
C16 C 0.7348(3) -0.5866(7) 0.1401(2)
H16 H 0.6992(3) -0.6904(7) 0.1574(2)
C17 C 0.7492(3) -0.6113(7) 0.0707(2)
H17 H 0.7230(3) -0.7322(7) 0.0409(2)
C18 C 0.7999(3) -0.4643(7) 0.0436(2)
H18 H 0.8095(3) -0.4801(7) -0.0048(2)
C19 C 0.8359(2) -0.2955(6) 0.0895(2)
C20 C 1.0131(3) 0.2048(6) 0.0988(2)
N1 N 0.4807(2) 0.2929(5) 0.7856(2)
H1 H 0.4419(27) 0.4001(60) 0.7809(22)
N2 N 0.5405(3) 0.2828(6) 0.5477(2)
N3 N 0.3723(2) 0.5942(5) 0.6957(2)
N4 N 0.3910(2) 0.6273(5) 0.5818(2)
H2 H 0.4133(20) 0.6143(51) 0.5441(18)
C1 C 0.5065(2) 0.2264(6) 0.7263(2)
C2 C 0.5701(2) 0.0430(6) 0.7389(2)
C3 C 0.5739(3) -0.0908(6) 0.6803(2)
H3 H 0.5341(3) -0.0623(6) 0.6301(2)
C4 C 0.6348(3) -0.2620(6) 0.6951(3)
H4 H 0.6383(3) -0.3525(6) 0.6548(3)
C5 C 0.6902(3) -0.3028(7) 0.7674(3)
H5 H 0.7323(3) -0.4212(7) 0.7772(3)
C6 C 0.6860(3) -0.1732(7) 0.8259(3)
H6 H 0.7248(3) -0.2027(7) 0.8763(3)
C7 C 0.6262(3) -0.0013(6) 0.8120(2)
C8 C 0.6182(3) 0.1396(7) 0.8743(2)
H7 H 0.6416(3) 0.0678(7) 0.9216(2)
H8 H 0.6566(3) 0.2621(7) 0.8760(2)
C9 C 0.5161(3) 0.2072(6) 0.8617(2)
C10 C 0.5113(3) 0.3802(7) 0.9166(2)
H9 H 0.4465(3) 0.4213(7) 0.9085(2)
H10 H 0.5471(3) 0.4981(7) 0.9079(2)
H11 H 0.5381(3) 0.3324(7) 0.9675(2)
C11 C 0.4546(3) 0.0209(7) 0.8699(2)
H12 H 0.3903(3) 0.0674(7) 0.8610(2)
H13 H 0.4784(3) -0.0355(7) 0.9198(2)
H14 H 0.4563(3) -0.0855(7) 0.8339(2)
C12 C 0.4749(2) 0.3345(6) 0.6591(2)
C13 C 0.4125(2) 0.5145(6) 0.6469(2)
C14 C 0.3237(2) 0.7712(6) 0.6608(2)
C15 C 0.2706(2) 0.9185(7) 0.6853(2)
H15 H 0.2589(2) 0.9009(7) 0.7329(2)
C16 C 0.2348(3) 1.0866(7) 0.6401(2)
H16 H 0.1992(3) 1.1904(7) 0.6574(2)
C17 C 0.2492(3) 1.1113(7) 0.5707(2)
H17 H 0.2230(3) 1.2322(7) 0.5409(2)
C18 C 0.2999(3) 0.9643(7) 0.5436(2)
H18 H 0.3095(3) 0.9801(7) 0.4952(2)
C19 C 0.3359(2) 0.7955(6) 0.5895(2)
C20 C 0.5131(3) 0.2952(6) 0.5988(2)
N1 N 0.0193(2) 0.7929(5) 0.7144(2)
H1 H 0.0581(27) 0.9001(60) 0.7191(22)
N2 N -0.0405(3) 0.7828(6) 0.9523(2)
N3 N 0.1277(2) 1.0942(5) 0.8043(2)
N4 N 0.1090(2) 1.1273(5) 0.9182(2)
H2 H 0.0867(20) 1.1143(51) 0.9559(18)
C1 C -0.0065(2) 0.7264(6) 0.7737(2)
C2 C -0.0701(2) 0.5430(6) 0.7611(2)
C3 C -0.0739(3) 0.4092(6) 0.8197(2)
H3 H -0.0341(3) 0.4377(6) 0.8699(2)
C4 C -0.1348(3) 0.2380(6) 0.8049(3)
H4 H -0.1383(3) 0.1475(6) 0.8452(3)
C5 C -0.1902(3) 0.1972(7) 0.7326(3)
H5 H -0.2323(3) 0.0788(7) 0.7228(3)
C6 C -0.1860(3) 0.3268(7) 0.6741(3)
H6 H -0.2248(3) 0.2973(7) 0.6237(3)
C7 C -0.1262(3) 0.4987(6) 0.6880(2)
C8 C -0.1182(3) 0.6396(7) 0.6257(2)
H7 H -0.1416(3) 0.5678(7) 0.5784(2)
H8 H -0.1566(3) 0.7621(7) 0.6240(2)
C9 C -0.0161(3) 0.7072(6) 0.6383(2)
C10 C -0.0113(3) 0.8802(7) 0.5834(2)
H9 H 0.0535(3) 0.9213(7) 0.5915(2)
H10 H -0.0471(3) 0.9981(7) 0.5921(2)
H11 H -0.0381(3) 0.8324(7) 0.5325(2)
C11 C 0.0454(3) 0.5209(7) 0.6301(2)
H12 H 0.1097(3) 0.5674(7) 0.6390(2)
H13 H 0.0216(3) 0.4645(7) 0.5802(2)
H14 H 0.0437(3) 0.4145(7) 0.6661(2)
C12 C 0.0251(2) 0.8345(6) 0.8409(2)
C13 C 0.0875(2) 1.0145(6) 0.8531(2)
C14 C 0.1763(2) 1.2712(6) 0.8392(2)
C15 C 0.2294(2) 1.4185(7) 0.8147(2)
H15 H 0.2411(2) 1.4009(7) 0.7671(2)
C16 C 0.2652(3) 1.5866(7) 0.8599(2)
H16 H 0.3008(3) 1.6904(7) 0.8426(2)
C17 C 0.2508(3) 1.6113(7) 0.9293(2)
H17 H 0.2770(3) 1.7322(7) 0.9591(2)
C18 C 0.2001(3) 1.4643(7) 0.9564(2)
H18 H 0.1905(3) 1.4801(7) 1.0048(2)
C19 C 0.1641(2) 1.2955(6) 0.9105(2)
C20 C -0.0131(3) 0.7952(6) 0.9012(2)
N1 N 0.5193(2) 0.7071(5) 0.2144(2)
H1 H 0.5581(27) 0.5999(60) 0.2191(22)
N2 N 0.4595(3) 0.7172(6) 0.4523(2)
N3 N 0.6277(2) 0.4058(5) 0.3043(2)
N4 N 0.6090(2) 0.3727(5) 0.4182(2)
H2 H 0.5867(20) 0.3857(51) 0.4559(18)
C1 C 0.4935(2) 0.7736(6) 0.2737(2)
C2 C 0.4299(2) 0.9570(6) 0.2611(2)
C3 C 0.4261(3) 1.0908(6) 0.3197(2)
H3 H 0.4659(3) 1.0623(6) 0.3699(2)
C4 C 0.3652(3) 1.2620(6) 0.3049(3)
H4 H 0.3617(3) 1.3525(6) 0.3452(3)
C5 C 0.3098(3) 1.3028(7) 0.2326(3)
H5 H 0.2677(3) 1.4212(7) 0.2228(3)
C6 C 0.3140(3) 1.1732(7) 0.1741(3)
H6 H 0.2752(3) 1.2027(7) 0.1237(3)
C7 C 0.3738(3) 1.0013(6) 0.1880(2)
C8 C 0.3818(3) 0.8604(7) 0.1257(2)
H7 H 0.3584(3) 0.9322(7) 0.0784(2)
H8 H 0.3434(3) 0.7379(7) 0.1240(2)
C9 C 0.4839(3) 0.7928(6) 0.1383(2)
C10 C 0.4887(3) 0.6198(7) 0.0834(2)
H9 H 0.5535(3) 0.5787(7) 0.0915(2)
H10 H 0.4529(3) 0.5019(7) 0.0921(2)
H11 H 0.4619(3) 0.6676(7) 0.0325(2)
C11 C 0.5454(3) 0.9791(7) 0.1301(2)
H12 H 0.6097(3) 0.9326(7) 0.1390(2)
H13 H 0.5216(3) 1.0355(7) 0.0802(2)
H14 H 0.5437(3) 1.0855(7) 0.1661(2)
C12 C 0.5251(2) 0.6655(6) 0.3409(2)
C13 C 0.5875(2) 0.4855(6) 0.3531(2)
C14 C 0.6763(2) 0.2288(6) 0.3392(2)
C15 C 0.7294(2) 0.0815(7) 0.3147(2)
H15 H 0.7411(2) 0.0991(7) 0.2671(2)
C16 C 0.7652(3) -0.0866(7) 0.3599(2)
H16 H 0.8008(3) -0.1904(7) 0.3426(2)
C17 C 0.7508(3) -0.1113(7) 0.4293(2)
H17 H 0.7770(3) -0.2322(7) 0.4591(2)
C18 C 0.7001(3) 0.0357(7) 0.4564(2)
H18 H 0.6905(3) 0.0199(7) 0.5048(2)
C19 C 0.6641(2) 0.2045(6) 0.4105(2)
C20 C 0.4869(3) 0.7048(6) 0.4012(2)

#END
