
#######################################################################
#
#                 Cambridge Crystallographic Data Centre
#                                CCDC 
#
#######################################################################
#
# If this CIF has been generated from an entry in the Cambridge 
# Structural Database, then it will include bibliographic, chemical, 
# crystal, experimental, refinement or atomic coordinate data resulting 
# from the CCDC's data processing and validation procedures.
#
#######################################################################

data_LACFEB
_symmetry_cell_setting           orthorhombic
_symmetry_space_group_name_H-M   'P 21 21 21'
_symmetry_Int_Tables_number      19
_space_group_name_Hall           'P 2ac 2ab'
loop_
_symmetry_equiv_pos_site_id
_symmetry_equiv_pos_as_xyz
1 x,y,z
2 1/2-x,-y,1/2+z
3 1/2+x,1/2-y,-z
4 -x,1/2+y,1/2-z
_cell_length_a                   10.930(5)
_cell_length_b                   6.030(5)
_cell_length_c                   28.642(8)
_cell_angle_alpha                90
_cell_angle_beta                 90
_cell_angle_gamma                90
_cell_volume                     1887.73
loop_
_atom_site_label
_atom_site_type_symbol
_atom_site_fract_x
_atom_site_fract_y
_atom_site_fract_z
Cl1 Cl 0.2597(4) 0.3793(8) -0.0086(1)
Cl3 Cl 0.1098(3) -0.0689(8) 0.0157(2)
S2 S 0.3470(3) 0.3662(7) 0.0892(2)
O1 O 0.4730(8) 0.393(2) 0.0905(4)
O5 O 0.4430(9) -0.080(2) 0.0508(4)
O6 O 0.4516(9) 0.080(2) -0.0163(3)
O8 O 0.135(1) -0.115(2) 0.1684(4)
O10 O 0.0216(9) -0.164(2) 0.1100(5)
O12 O 0.2671(9) 0.560(2) 0.0909(5)
N1 N 0.414(1) 0.061(2) 0.0215(4)
N3 N 0.110(1) -0.098(2) 0.1262(5)
C1 C 0.298(1) 0.204(2) 0.0367(4)
C3 C 0.198(1) 0.065(2) 0.0544(5)
C6 C 0.197(1) 0.039(3) 0.1017(5)
C8 C 0.292(1) 0.172(3) 0.1296(5)
H1 H 0.2373 0.2135 0.1631
H3 H 0.3657 0.0999 0.1437
Cl1 Cl 0.2403(4) 0.6207(8) 0.4914(1)
Cl3 Cl 0.3902(3) 1.0689(8) 0.5157(2)
S2 S 0.1530(3) 0.6338(7) 0.5892(2)
O1 O 0.0270(8) 0.607(2) 0.5905(4)
O5 O 0.0570(9) 1.080(2) 0.5508(4)
O6 O 0.0484(9) 0.920(2) 0.4837(3)
O8 O 0.365(1) 1.115(2) 0.6684(4)
O10 O 0.4784(9) 1.164(2) 0.6100(5)
O12 O 0.2329(9) 0.440(2) 0.5909(5)
N1 N 0.086(1) 0.939(2) 0.5215(4)
N3 N 0.390(1) 1.098(2) 0.6262(5)
C1 C 0.202(1) 0.796(2) 0.5367(4)
C3 C 0.302(1) 0.935(2) 0.5544(5)
C6 C 0.303(1) 0.961(3) 0.6017(5)
C8 C 0.208(1) 0.828(3) 0.6296(5)
H1 H 0.2627 0.7865 0.6631
H3 H 0.1343 0.9001 0.6437
Cl1 Cl 0.7597(4) 0.1207(8) 1.0086(1)
Cl3 Cl 0.6098(3) 0.5689(8) 0.9843(2)
S2 S 0.8470(3) 0.1338(7) 0.9108(2)
O1 O 0.9730(8) 0.107(2) 0.9095(4)
O5 O 0.9430(9) 0.580(2) 0.9492(4)
O6 O 0.9516(9) 0.420(2) 1.0163(3)
O8 O 0.635(1) 0.615(2) 0.8316(4)
O10 O 0.5216(9) 0.664(2) 0.8900(5)
O12 O 0.7671(9) -0.060(2) 0.9091(5)
N1 N 0.914(1) 0.439(2) 0.9785(4)
N3 N 0.610(1) 0.598(2) 0.8738(5)
C1 C 0.798(1) 0.296(2) 0.9633(4)
C3 C 0.698(1) 0.435(2) 0.9456(5)
C6 C 0.697(1) 0.461(3) 0.8983(5)
C8 C 0.792(1) 0.328(3) 0.8704(5)
H1 H 0.7373 0.2865 0.8369
H3 H 0.8657 0.4001 0.8563
Cl1 Cl 0.7403(4) 0.8793(8) 0.5086(1)
Cl3 Cl 0.8902(3) 0.4311(8) 0.4843(2)
S2 S 0.6530(3) 0.8662(7) 0.4108(2)
O1 O 0.5270(8) 0.893(2) 0.4095(4)
O5 O 0.5570(9) 0.420(2) 0.4492(4)
O6 O 0.5484(9) 0.580(2) 0.5163(3)
O8 O 0.865(1) 0.385(2) 0.3316(4)
O10 O 0.9784(9) 0.336(2) 0.3900(5)
O12 O 0.7329(9) 1.060(2) 0.4091(5)
N1 N 0.586(1) 0.561(2) 0.4785(4)
N3 N 0.890(1) 0.402(2) 0.3738(5)
C1 C 0.702(1) 0.704(2) 0.4633(4)
C3 C 0.802(1) 0.565(2) 0.4456(5)
C6 C 0.803(1) 0.539(3) 0.3983(5)
C8 C 0.708(1) 0.672(3) 0.3704(5)
H1 H 0.7627 0.7135 0.3369
H3 H 0.6343 0.5999 0.3563
Cl2 Cl 0.6511(4) 1.0556(8) 0.1443(2)
Cl4 Cl 0.7400(3) 0.6106(8) 0.0922(1)
S1 S 0.7762(3) 0.8806(7) 0.2288(1)
O2 O 0.6990(8) 0.871(2) 0.2676(4)
O3 O 0.8478(8) 1.081(2) 0.2182(3)
O4 O 0.5911(9) 0.515(2) 0.2091(5)
O7 O 0.4743(8) 0.777(2) 0.1847(5)
O9 O 1.0421(7) 0.386(2) 0.1820(4)
O11 O 0.939(1) 0.336(2) 0.1207(4)
N2 N 0.5670(8) 0.695(2) 0.1897(4)
N4 N 0.9518(8) 0.420(2) 0.1582(4)
C2 C 0.686(1) 0.811(3) 0.1756(5)
C4 C 0.771(1) 0.659(2) 0.1488(5)
C5 C 0.860(1) 0.579(2) 0.1754(5)
C7 C 0.873(1) 0.627(3) 0.2241(5)
H2 H 0.9817 0.6720 0.2380
H4 H 0.8551 0.4973 0.2430
Cl2 Cl 0.8489(4) -0.0556(8) 0.6443(2)
Cl4 Cl 0.7600(3) 0.3894(8) 0.5922(1)
S1 S 0.7238(3) 0.1194(7) 0.7288(1)
O2 O 0.8010(8) 0.129(2) 0.7676(4)
O3 O 0.6522(8) -0.081(2) 0.7182(3)
O4 O 0.9089(9) 0.485(2) 0.7091(5)
O7 O 1.0257(8) 0.223(2) 0.6847(5)
O9 O 0.4579(7) 0.614(2) 0.6820(4)
O11 O 0.561(1) 0.664(2) 0.6207(4)
N2 N 0.9330(8) 0.305(2) 0.6897(4)
N4 N 0.5482(8) 0.580(2) 0.6582(4)
C2 C 0.814(1) 0.189(3) 0.6756(5)
C4 C 0.729(1) 0.341(2) 0.6488(5)
C5 C 0.640(1) 0.421(2) 0.6754(5)
C7 C 0.627(1) 0.373(3) 0.7241(5)
H2 H 0.5183 0.3280 0.7380
H4 H 0.6449 0.5027 0.7430
Cl2 Cl 0.1511(4) 0.4444(8) 0.8557(2)
Cl4 Cl 0.2400(3) 0.8894(8) 0.9078(1)
S1 S 0.2762(3) 0.6194(7) 0.7712(1)
O2 O 0.1990(8) 0.629(2) 0.7324(4)
O3 O 0.3478(8) 0.419(2) 0.7818(3)
O4 O 0.0911(9) 0.985(2) 0.7909(5)
O7 O -0.0257(8) 0.723(2) 0.8153(5)
O9 O 0.5421(7) 1.114(2) 0.8180(4)
O11 O 0.439(1) 1.164(2) 0.8793(4)
N2 N 0.0670(8) 0.805(2) 0.8103(4)
N4 N 0.4518(8) 1.080(2) 0.8418(4)
C2 C 0.186(1) 0.689(3) 0.8244(5)
C4 C 0.271(1) 0.841(2) 0.8512(5)
C5 C 0.360(1) 0.921(2) 0.8246(5)
C7 C 0.373(1) 0.873(3) 0.7759(5)
H2 H 0.4817 0.8280 0.7620
H4 H 0.3551 1.0027 0.7570
Cl2 Cl 0.3489(4) 0.5556(8) 0.3557(2)
Cl4 Cl 0.2600(3) 0.1106(8) 0.4078(1)
S1 S 0.2238(3) 0.3806(7) 0.2712(1)
O2 O 0.3010(8) 0.371(2) 0.2324(4)
O3 O 0.1522(8) 0.581(2) 0.2818(3)
O4 O 0.4089(9) 0.015(2) 0.2909(5)
O7 O 0.5257(8) 0.277(2) 0.3153(5)
O9 O -0.0421(7) -0.114(2) 0.3180(4)
O11 O 0.061(1) -0.164(2) 0.3793(4)
N2 N 0.4330(8) 0.195(2) 0.3103(4)
N4 N 0.0482(8) -0.080(2) 0.3418(4)
C2 C 0.314(1) 0.311(3) 0.3244(5)
C4 C 0.229(1) 0.159(2) 0.3512(5)
C5 C 0.140(1) 0.079(2) 0.3246(5)
C7 C 0.127(1) 0.127(3) 0.2759(5)
H2 H 0.0183 0.1720 0.2620
H4 H 0.1449 -0.0027 0.2570

#END
