
#######################################################################
#
#                 Cambridge Crystallographic Data Centre
#                                CCDC 
#
#######################################################################
#
# If this CIF has been generated from an entry in the Cambridge 
# Structural Database, then it will include bibliographic, chemical, 
# crystal, experimental, refinement or atomic coordinate data resulting 
# from the CCDC's data processing and validation procedures.
#
#######################################################################

data_LACFUQ
_symmetry_cell_setting           triclinic
_symmetry_space_group_name_H-M   'P -1'
_symmetry_Int_Tables_number      2
_space_group_name_Hall           '-P 1'
loop_
_symmetry_equiv_pos_site_id
_symmetry_equiv_pos_as_xyz
1 x,y,z
2 -x,-y,-z
_cell_length_a                   9.937(2)
_cell_length_b                   11.187(2)
_cell_length_c                   6.743(1)
_cell_angle_alpha                102.3(1)
_cell_angle_beta                 94.2(1)
_cell_angle_gamma                93.7(1)
_cell_volume                     727.94
loop_
_atom_site_label
_atom_site_type_symbol
_atom_site_fract_x
_atom_site_fract_y
_atom_site_fract_z
Br1 Br 1.4078(1) 0.5581(1) 1.3101(1)
C1 C 1.2602(4) 0.5870(5) 1.1421(7)
C2 C 1.1561(5) 0.6506(4) 1.2297(5)
C3 C 1.0499(4) 0.6790(4) 1.1065(6)
C4 C 1.0478(4) 0.6437(4) 0.8957(6)
C5 C 1.1519(5) 0.5801(4) 0.8081(5)
C6 C 1.2581(4) 0.5517(4) 0.9313(7)
C7 C 0.9430(8) 0.6786(7) 0.7547(13)
O1 O 0.9591(6) 0.6755(6) 0.5784(8)
N1 N 0.8274(6) 0.7169(5) 0.8376(9)
C8 C 0.7146(7) 0.7627(7) 0.7453(11)
C9 C 0.7054(8) 0.7804(8) 0.5568(12)
C10 C 0.6116(7) 0.7918(7) 0.8953(11)
O2 O 0.6422(5) 0.7937(5) 1.0757(8)
N2 N 0.4921(6) 0.8192(5) 0.8224(9)
C11 C 0.3845(7) 0.8669(6) 0.9281(11)
C12 C 0.3749(8) 0.8819(7) 1.1255(12)
C13 C 0.2808(8) 0.9028(7) 0.7874(12)
O3 O 0.2946(6) 0.8917(6) 0.6083(9)
O4 O 0.1756(5) 0.9455(5) 0.8747(8)
C14 C 0.0743(8) 0.9855(9) 0.7393(14)
H1 H 1.1575(7) 0.6742(7) 1.3707(5)
H2 H 0.9802(5) 0.7216(6) 1.1651(8)
H3 H 1.1505(7) 0.5565(6) 0.6671(5)
H4 H 1.3278(5) 0.5091(6) 0.8727(9)
H5 H 0.8225(6) 0.7127(5) 0.9627(9)
H6 H 0.7761(8) 0.7624(8) 0.4752(12)
H7 H 0.6283(8) 0.8107(8) 0.5062(12)
H8 H 0.4792(6) 0.8056(5) 0.6918(9)
H9 H 0.4439(8) 0.8600(7) 1.2080(12)
H10 H 0.2992(8) 0.9145(7) 1.1823(12)
H11 H 0.0007(8) 1.0155(9) 0.8150(14)
H12 H 0.0408(8) 0.9175(9) 0.6306(14)
H13 H 0.1149(8) 1.0498(9) 0.6835(14)
Br1 Br -0.4078(1) 0.4419(1) -0.3101(1)
C1 C -0.2602(4) 0.4130(5) -0.1421(7)
C2 C -0.1561(5) 0.3494(4) -0.2297(5)
C3 C -0.0499(4) 0.3210(4) -0.1065(6)
C4 C -0.0478(4) 0.3563(4) 0.1043(6)
C5 C -0.1519(5) 0.4199(4) 0.1919(5)
C6 C -0.2581(4) 0.4483(4) 0.0687(7)
C7 C 0.0570(8) 0.3214(7) 0.2453(13)
O1 O 0.0409(6) 0.3245(6) 0.4216(8)
N1 N 0.1726(6) 0.2831(5) 0.1624(9)
C8 C 0.2854(7) 0.2373(7) 0.2547(11)
C9 C 0.2946(8) 0.2196(8) 0.4432(12)
C10 C 0.3884(7) 0.2082(7) 0.1047(11)
O2 O 0.3578(5) 0.2063(5) -0.0757(8)
N2 N 0.5079(6) 0.1808(5) 0.1776(9)
C11 C 0.6155(7) 0.1331(6) 0.0719(11)
C12 C 0.6251(8) 0.1181(7) -0.1255(12)
C13 C 0.7192(8) 0.0972(7) 0.2126(12)
O3 O 0.7054(6) 0.1083(6) 0.3917(9)
O4 O 0.8244(5) 0.0545(5) 0.1253(8)
C14 C 0.9257(8) 0.0145(9) 0.2607(14)
H1 H -0.1575(7) 0.3258(7) -0.3707(5)
H2 H 0.0198(5) 0.2784(6) -0.1651(8)
H3 H -0.1505(7) 0.4435(6) 0.3329(5)
H4 H -0.3278(5) 0.4909(6) 0.1273(9)
H5 H 0.1775(6) 0.2873(5) 0.0373(9)
H6 H 0.2239(8) 0.2376(8) 0.5248(12)
H7 H 0.3717(8) 0.1893(8) 0.4938(12)
H8 H 0.5208(6) 0.1944(5) 0.3082(9)
H9 H 0.5561(8) 0.1400(7) -0.2080(12)
H10 H 0.7008(8) 0.0855(7) -0.1823(12)
H11 H 0.9993(8) -0.0155(9) 0.1850(14)
H12 H 0.9592(8) 0.0825(9) 0.3694(14)
H13 H 0.8851(8) -0.0498(9) 0.3165(14)

#END
