
#######################################################################
#
#                 Cambridge Crystallographic Data Centre
#                                CCDC 
#
#######################################################################
#
# If this CIF has been generated from an entry in the Cambridge 
# Structural Database, then it will include bibliographic, chemical, 
# crystal, experimental, refinement or atomic coordinate data resulting 
# from the CCDC's data processing and validation procedures.
#
#######################################################################

data_LACGOL
_symmetry_cell_setting           monoclinic
_symmetry_space_group_name_H-M   'P 21/c'
_symmetry_Int_Tables_number      14
_space_group_name_Hall           '-P 2ybc'
loop_
_symmetry_equiv_pos_site_id
_symmetry_equiv_pos_as_xyz
1 x,y,z
2 -x,1/2+y,1/2-z
3 -x,-y,-z
4 x,1/2-y,1/2+z
_cell_length_a                   9.885(1)
_cell_length_b                   6.779(1)
_cell_length_c                   26.339(2)
_cell_angle_alpha                90
_cell_angle_beta                 98.3(1)
_cell_angle_gamma                90
_cell_volume                     1746.5
loop_
_atom_site_label
_atom_site_type_symbol
_atom_site_fract_x
_atom_site_fract_y
_atom_site_fract_z
Br1 Br 0.4442(1) -0.2951(1) 0.4561(1)
C1 C 0.4279(2) -0.1259(3) 0.3993(1)
C2 C 0.3731(2) -0.1986(3) 0.3514(1)
C3 C 0.3559(2) -0.0740(3) 0.3091(1)
C4 C 0.3935(2) 0.1233(3) 0.3146(1)
C5 C 0.4483(2) 0.1960(3) 0.3626(1)
C6 C 0.4655(2) 0.0714(3) 0.4049(1)
C7 C 0.3685(4) 0.2705(6) 0.2714(1)
O1 O 0.3756(4) 0.4458(4) 0.2791(1)
N1 N 0.3325(3) 0.1961(4) 0.2239(1)
C8 C 0.2857(3) 0.2939(5) 0.1784(1)
C9 C 0.2650(4) 0.4863(6) 0.1735(1)
C10 C 0.2546(3) 0.1474(6) 0.1357(1)
O2 O 0.2610(3) -0.0292(4) 0.1449(1)
N2 N 0.2238(3) 0.2223(4) 0.0879(1)
C11 C 0.1912(3) 0.1220(6) 0.0417(1)
C12 C 0.1798(4) -0.0719(6) 0.0363(1)
C13 C 0.1684(4) 0.2700(6) -0.0017(1)
O3 O 0.1738(3) 0.4453(4) 0.0078(1)
N3 N 0.1426(3) 0.1941(5) -0.0491(1)
C14 C 0.1034(3) 0.2955(6) -0.0957(1)
C15 C 0.0891(4) 0.4882(6) -0.1015(1)
C16 C 0.0758(4) 0.1516(6) -0.1382(1)
O4 O 0.0865(3) -0.0234(5) -0.1319(1)
O5 O 0.0382(3) 0.2347(4) -0.1839(1)
C17 C 0.0076(5) 0.1007(7) -0.2261(1)
H1 H 0.3479(4) -0.3305(3) 0.3477(1)
H2 H 0.3192(3) -0.1226(4) 0.2770(1)
H3 H 0.4734(4) 0.3280(3) 0.3663(1)
H4 H 0.5022(3) 0.1200(4) 0.4370(1)
H5 H 0.3395(3) 0.0701(4) 0.2214(1)
H6 H 0.2821(4) 0.5678(6) 0.2021(1)
H7 H 0.2334(4) 0.5399(6) 0.1415(1)
H8 H 0.2244(3) 0.3489(4) 0.0857(1)
H9 H 0.1941(4) -0.1531(6) 0.0651(1)
H10 H 0.1576(4) -0.1269(6) 0.0039(1)
H11 H 0.1509(3) 0.0682(5) -0.0514(1)
H12 H 0.1054(4) 0.5708(6) -0.0731(1)
H13 H 0.0627(4) 0.5413(6) -0.1340(1)
H14 H -0.0242(5) 0.1735(7) -0.2567(1)
H15 H -0.0620(58) 0.0101(7) -0.2191(1)
H16 H 0.0886(5) 0.0288(7) -0.2307(1)
Br1 Br 0.5558(1) 0.2049(1) 0.0439(1)
C1 C 0.5721(2) 0.3741(3) 0.1007(1)
C2 C 0.6269(2) 0.3014(3) 0.1486(1)
C3 C 0.6441(2) 0.4260(3) 0.1909(1)
C4 C 0.6065(2) 0.6233(3) 0.1854(1)
C5 C 0.5517(2) 0.6960(3) 0.1374(1)
C6 C 0.5345(2) 0.5714(3) 0.0951(1)
C7 C 0.6315(4) 0.7705(6) 0.2286(1)
O1 O 0.6244(4) 0.9458(4) 0.2209(1)
N1 N 0.6675(3) 0.6961(4) 0.2761(1)
C8 C 0.7143(3) 0.7939(5) 0.3216(1)
C9 C 0.7350(4) 0.9863(6) 0.3265(1)
C10 C 0.7454(3) 0.6474(6) 0.3643(1)
O2 O 0.7390(3) 0.4708(4) 0.3551(1)
N2 N 0.7762(3) 0.7223(4) 0.4121(1)
C11 C 0.8088(3) 0.6220(6) 0.4583(1)
C12 C 0.8202(4) 0.4281(6) 0.4637(1)
C13 C 0.8316(4) 0.7700(6) 0.5017(1)
O3 O 0.8262(3) 0.9453(4) 0.4922(1)
N3 N 0.8574(3) 0.6941(5) 0.5491(1)
C14 C 0.8966(3) 0.7955(6) 0.5957(1)
C15 C 0.9109(4) 0.9882(6) 0.6015(1)
C16 C 0.9242(4) 0.6516(6) 0.6382(1)
O4 O 0.9135(3) 0.4766(5) 0.6319(1)
O5 O 0.9618(3) 0.7347(4) 0.6839(1)
C17 C 0.9924(5) 0.6007(7) 0.7261(1)
H1 H 0.6521(4) 0.1695(3) 0.1523(1)
H2 H 0.6808(3) 0.3774(4) 0.2230(1)
H3 H 0.5266(4) 0.8280(3) 0.1337(1)
H4 H 0.4978(3) 0.6200(4) 0.0630(1)
H5 H 0.6605(3) 0.5701(4) 0.2786(1)
H6 H 0.7179(4) 1.0678(6) 0.2979(1)
H7 H 0.7666(4) 1.0399(6) 0.3585(1)
H8 H 0.7756(3) 0.8489(4) 0.4143(1)
H9 H 0.8059(4) 0.3469(6) 0.4349(1)
H10 H 0.8424(4) 0.3731(6) 0.4961(1)
H11 H 0.8491(3) 0.5682(5) 0.5514(1)
H12 H 0.8946(4) 1.0708(6) 0.5731(1)
H13 H 0.9373(4) 1.0413(6) 0.6340(1)
H14 H 1.0242(5) 0.6735(7) 0.7567(1)
H15 H 1.0620(58) 0.5101(7) 0.7191(1)
H16 H 0.9114(5) 0.5288(7) 0.7307(1)
Br1 Br 0.5558(1) 1.2951(1) 0.5439(1)
C1 C 0.5721(2) 1.1259(3) 0.6007(1)
C2 C 0.6269(2) 1.1986(3) 0.6486(1)
C3 C 0.6441(2) 1.0740(3) 0.6909(1)
C4 C 0.6065(2) 0.8767(3) 0.6854(1)
C5 C 0.5517(2) 0.8040(3) 0.6374(1)
C6 C 0.5345(2) 0.9286(3) 0.5951(1)
C7 C 0.6315(4) 0.7295(6) 0.7286(1)
O1 O 0.6244(4) 0.5542(4) 0.7209(1)
N1 N 0.6675(3) 0.8039(4) 0.7761(1)
C8 C 0.7143(3) 0.7061(5) 0.8216(1)
C9 C 0.7350(4) 0.5137(6) 0.8265(1)
C10 C 0.7454(3) 0.8526(6) 0.8643(1)
O2 O 0.7390(3) 1.0292(4) 0.8551(1)
N2 N 0.7762(3) 0.7777(4) 0.9121(1)
C11 C 0.8088(3) 0.8780(6) 0.9583(1)
C12 C 0.8202(4) 1.0719(6) 0.9637(1)
C13 C 0.8316(4) 0.7300(6) 1.0017(1)
O3 O 0.8262(3) 0.5547(4) 0.9922(1)
N3 N 0.8574(3) 0.8059(5) 1.0491(1)
C14 C 0.8966(3) 0.7045(6) 1.0957(1)
C15 C 0.9109(4) 0.5118(6) 1.1015(1)
C16 C 0.9242(4) 0.8484(6) 1.1382(1)
O4 O 0.9135(3) 1.0234(5) 1.1319(1)
O5 O 0.9618(3) 0.7653(4) 1.1839(1)
C17 C 0.9924(5) 0.8993(7) 1.2261(1)
H1 H 0.6521(4) 1.3305(3) 0.6523(1)
H2 H 0.6808(3) 1.1226(4) 0.7230(1)
H3 H 0.5266(4) 0.6720(3) 0.6337(1)
H4 H 0.4978(3) 0.8800(4) 0.5630(1)
H5 H 0.6605(3) 0.9299(4) 0.7786(1)
H6 H 0.7179(4) 0.4322(6) 0.7979(1)
H7 H 0.7666(4) 0.4601(6) 0.8585(1)
H8 H 0.7756(3) 0.6511(4) 0.9143(1)
H9 H 0.8059(4) 1.1531(6) 0.9349(1)
H10 H 0.8424(4) 1.1269(6) 0.9961(1)
H11 H 0.8491(3) 0.9318(5) 1.0514(1)
H12 H 0.8946(4) 0.4292(6) 1.0731(1)
H13 H 0.9373(4) 0.4587(6) 1.1340(1)
H14 H 1.0242(5) 0.8265(7) 1.2567(1)
H15 H 1.0620(58) 0.9899(7) 1.2191(1)
H16 H 0.9114(5) 0.9712(7) 1.2307(1)
Br1 Br 0.4442(1) 0.7951(1) 0.9561(1)
C1 C 0.4279(2) 0.6259(3) 0.8993(1)
C2 C 0.3731(2) 0.6986(3) 0.8514(1)
C3 C 0.3559(2) 0.5740(3) 0.8091(1)
C4 C 0.3935(2) 0.3767(3) 0.8146(1)
C5 C 0.4483(2) 0.3040(3) 0.8626(1)
C6 C 0.4655(2) 0.4286(3) 0.9049(1)
C7 C 0.3685(4) 0.2295(6) 0.7714(1)
O1 O 0.3756(4) 0.0542(4) 0.7791(1)
N1 N 0.3325(3) 0.3039(4) 0.7239(1)
C8 C 0.2857(3) 0.2061(5) 0.6784(1)
C9 C 0.2650(4) 0.0137(6) 0.6735(1)
C10 C 0.2546(3) 0.3526(6) 0.6357(1)
O2 O 0.2610(3) 0.5292(4) 0.6449(1)
N2 N 0.2238(3) 0.2777(4) 0.5879(1)
C11 C 0.1912(3) 0.3780(6) 0.5417(1)
C12 C 0.1798(4) 0.5719(6) 0.5363(1)
C13 C 0.1684(4) 0.2300(6) 0.4983(1)
O3 O 0.1738(3) 0.0547(4) 0.5078(1)
N3 N 0.1426(3) 0.3059(5) 0.4509(1)
C14 C 0.1034(3) 0.2045(6) 0.4043(1)
C15 C 0.0891(4) 0.0118(6) 0.3985(1)
C16 C 0.0758(4) 0.3484(6) 0.3618(1)
O4 O 0.0865(3) 0.5234(5) 0.3681(1)
O5 O 0.0382(3) 0.2653(4) 0.3161(1)
C17 C 0.0076(5) 0.3993(7) 0.2739(1)
H1 H 0.3479(4) 0.8305(3) 0.8477(1)
H2 H 0.3192(3) 0.6226(4) 0.7770(1)
H3 H 0.4734(4) 0.1720(3) 0.8663(1)
H4 H 0.5022(3) 0.3800(4) 0.9370(1)
H5 H 0.3395(3) 0.4299(4) 0.7214(1)
H6 H 0.2821(4) -0.0678(6) 0.7021(1)
H7 H 0.2334(4) -0.0399(6) 0.6415(1)
H8 H 0.2244(3) 0.1511(4) 0.5857(1)
H9 H 0.1941(4) 0.6531(6) 0.5651(1)
H10 H 0.1576(4) 0.6269(6) 0.5039(1)
H11 H 0.1509(3) 0.4318(5) 0.4486(1)
H12 H 0.1054(4) -0.0708(6) 0.4269(1)
H13 H 0.0627(4) -0.0413(6) 0.3660(1)
H14 H -0.0242(5) 0.3265(7) 0.2433(1)
H15 H -0.0620(58) 0.4899(7) 0.2809(1)
H16 H 0.0886(5) 0.4712(7) 0.2693(1)

#END
