./LACGAA01_from_xyz.cif_generated_by_CrystalShift
_symmetry_cell_setting triclinic
_symmetry_space_group_name_H-M 'P 1'
loop_
_symmetry_equiv_pos_site_id
_symmetry_equiv_pos_as_xyz
1 x,y,z
_cell_length_a 8.863700
_cell_length_b 7.326000
_cell_length_c 23.370700
_cell_angle_alpha 90.000000
_cell_angle_beta 98.550000
_cell_angle_gamma 90.000000
_cell_volume 1500.721611
loop_
_atom_site_label
_atom_site_type_symbol
_atom_site_fract_x
_atom_site_fract_y
_atom_site_fract_z
Zn1 Zn 0.036870 0.245980 0.363610
O2 O 0.183000 0.459700 0.362600
H3 H 0.275800 0.442100 0.357400
H4 H 0.203000 0.527300 0.391600
C5 C 0.111000 -0.058300 0.295860
C6 C -0.153500 0.481700 0.223470
H7 H -0.145700 0.522000 0.262900
H8 H -0.259100 0.469700 0.207300
H9 H -0.105500 0.569200 0.201500
C10 C -0.076600 0.302500 0.221580
C11 C -0.070000 0.190500 0.173620
H12 H -0.099500 0.220300 0.134300
C13 C 0.007800 0.033700 0.192620
N14 N -0.006900 0.226500 0.269770
N15 N 0.046000 0.060200 0.252580
N16 N 0.123600 0.000000 0.348580
H17 H 0.160100 -0.097600 0.373100
N18 N 0.152400 -0.221000 0.277360
H19 H 0.138300 -0.236200 0.240200
H20 H 0.187800 -0.304000 0.305500
O21 O 0.043900 -0.111800 0.167180
C22 C -0.206600 0.311600 0.427880
C23 C 0.309600 0.168800 0.503620
H24 H 0.321200 0.125200 0.465800
H25 H 0.342400 0.076100 0.531800
H26 H 0.370400 0.276400 0.512300
C27 C 0.146000 0.213100 0.505200
C28 C 0.069100 0.228800 0.552660
H29 H 0.105000 0.214700 0.593600
C30 C -0.082400 0.268200 0.531470
N31 N 0.054100 0.242700 0.455750
N32 N -0.086900 0.276300 0.471850
N33 N -0.175500 0.311600 0.375640
H34 H -0.262500 0.344600 0.348100
N35 N -0.342300 0.342000 0.444220
H36 H -0.420200 0.347300 0.414700
H37 H -0.355900 0.322600 0.480400
O38 O -0.201900 0.293400 0.555580
Zn39 Zn 0.463130 0.745980 0.136390
O40 O 0.317000 0.959700 0.137400
H41 H 0.224200 0.942100 0.142600
H42 H 0.297000 1.027300 0.108400
C43 C 0.389000 0.441700 0.204140
C44 C 0.653500 0.981700 0.276530
H45 H 0.645700 1.022000 0.237100
H46 H 0.759100 0.969700 0.292700
H47 H 0.605500 1.069200 0.298500
C48 C 0.576600 0.802500 0.278420
C49 C 0.570000 0.690500 0.326380
H50 H 0.599500 0.720300 0.365700
C51 C 0.492200 0.533700 0.307380
N52 N 0.506900 0.726500 0.230230
N53 N 0.454000 0.560200 0.247420
N54 N 0.376400 0.500000 0.151420
H55 H 0.339900 0.402400 0.126900
N56 N 0.347600 0.279000 0.222640
H57 H 0.361700 0.263800 0.259800
H58 H 0.312200 0.196000 0.194500
O59 O 0.456100 0.388200 0.332820
C60 C 0.706600 0.811600 0.072120
C61 C 0.190400 0.668800 -0.003620
H62 H 0.178800 0.625200 0.034200
H63 H 0.157600 0.576100 -0.031800
H64 H 0.129600 0.776400 -0.012300
C65 C 0.354000 0.713100 -0.005200
C66 C 0.430900 0.728800 -0.052660
H67 H 0.395000 0.714700 -0.093600
C68 C 0.582400 0.768200 -0.031470
N69 N 0.445900 0.742700 0.044250
N70 N 0.586900 0.776300 0.028150
N71 N 0.675500 0.811600 0.124360
H72 H 0.762500 0.844600 0.151900
N73 N 0.842300 0.842000 0.055780
H74 H 0.920200 0.847300 0.085300
H75 H 0.855900 0.822600 0.019600
O76 O 0.701900 0.793400 -0.055580
Zn77 Zn 0.963130 0.754020 0.636390
O78 O 0.817000 0.540300 0.637400
H79 H 0.724200 0.557900 0.642600
H80 H 0.797000 0.472700 0.608400
C81 C 0.889000 1.058300 0.704140
C82 C 1.153500 0.518300 0.776530
H83 H 1.145700 0.478000 0.737100
H84 H 1.259100 0.530300 0.792700
H85 H 1.105500 0.430800 0.798500
C86 C 1.076600 0.697500 0.778420
C87 C 1.070000 0.809500 0.826380
H88 H 1.099500 0.779700 0.865700
C89 C 0.992200 0.966300 0.807380
N90 N 1.006900 0.773500 0.730230
N91 N 0.954000 0.939800 0.747420
N92 N 0.876400 1.000000 0.651420
H93 H 0.839900 1.097600 0.626900
N94 N 0.847600 1.221000 0.722640
H95 H 0.861700 1.236200 0.759800
H96 H 0.812200 1.304000 0.694500
O97 O 0.956100 1.111800 0.832820
C98 C 1.206600 0.688400 0.572120
C99 C 0.690400 0.831200 0.496380
H100 H 0.678800 0.874800 0.534200
H101 H 0.657600 0.923900 0.468200
H102 H 0.629600 0.723600 0.487700
C103 C 0.854000 0.786900 0.494800
C104 C 0.930900 0.771200 0.447340
H105 H 0.895000 0.785300 0.406400
C106 C 1.082400 0.731800 0.468530
N107 N 0.945900 0.757300 0.544250
N108 N 1.086900 0.723700 0.528150
N109 N 1.175500 0.688400 0.624360
H110 H 1.262500 0.655400 0.651900
N111 N 1.342300 0.658000 0.555780
H112 H 1.420200 0.652700 0.585300
H113 H 1.355900 0.677400 0.519600
O114 O 1.201900 0.706600 0.444420
Zn115 Zn 0.536870 0.254020 0.863610
O116 O 0.683000 0.040300 0.862600
H117 H 0.775800 0.057900 0.857400
H118 H 0.703000 -0.027300 0.891600
C119 C 0.611000 0.558300 0.795860
C120 C 0.346500 0.018300 0.723470
H121 H 0.354300 -0.022000 0.762900
H122 H 0.240900 0.030300 0.707300
H123 H 0.394500 -0.069200 0.701500
C124 C 0.423400 0.197500 0.721580
C125 C 0.430000 0.309500 0.673620
H126 H 0.400500 0.279700 0.634300
C127 C 0.507800 0.466300 0.692620
N128 N 0.493100 0.273500 0.769770
N129 N 0.546000 0.439800 0.752580
N130 N 0.623600 0.500000 0.848580
H131 H 0.660100 0.597600 0.873100
N132 N 0.652400 0.721000 0.777360
H133 H 0.638300 0.736200 0.740200
H134 H 0.687800 0.804000 0.805500
O135 O 0.543900 0.611800 0.667180
C136 C 0.293400 0.188400 0.927880
C137 C 0.809600 0.331200 1.003620
H138 H 0.821200 0.374800 0.965800
H139 H 0.842400 0.423900 1.031800
H140 H 0.870400 0.223600 1.012300
C141 C 0.646000 0.286900 1.005200
C142 C 0.569100 0.271200 1.052660
H143 H 0.605000 0.285300 1.093600
C144 C 0.417600 0.231800 1.031470
N145 N 0.554100 0.257300 0.955750
N146 N 0.413100 0.223700 0.971850
N147 N 0.324500 0.188400 0.875640
H148 H 0.237500 0.155400 0.848100
N149 N 0.157700 0.158000 0.944220
H150 H 0.079800 0.152700 0.914700
H151 H 0.144100 0.177400 0.980400
O152 O 0.298100 0.206600 1.055580

#END
