./LACGII_from_xyz.cif_generated_by_CrystalShift
_symmetry_cell_setting triclinic
_symmetry_space_group_name_H-M 'P 1'
loop_
_symmetry_equiv_pos_site_id
_symmetry_equiv_pos_as_xyz
1 x,y,z
_cell_length_a 7.767000
_cell_length_b 8.102000
_cell_length_c 10.966000
_cell_angle_alpha 90.000000
_cell_angle_beta 90.000000
_cell_angle_gamma 90.000000
_cell_volume 690.071014
loop_
_atom_site_label
_atom_site_type_symbol
_atom_site_fract_x
_atom_site_fract_y
_atom_site_fract_z
O1 O 0.288100 0.166000 0.308900
N2 N 0.210800 0.004800 0.139500
N3 N 0.074900 -0.012500 0.056600
N4 N 0.370300 -0.190200 0.037400
H5 H 0.443300 -0.263900 0.037200
H6 H 0.288400 -0.184600 -0.025200
N7 N 0.456600 -0.100800 0.226500
H8 H 0.539700 -0.176200 0.222100
H9 H 0.433700 -0.033700 0.291000
C10 C 0.177000 0.129600 0.226500
C11 C -0.037000 0.098100 0.093900
C12 C 0.349300 -0.098000 0.133400
C13 C -0.205000 0.117000 0.028400
H14 H -0.296500 0.076300 0.079000
H15 H -0.201800 0.055300 -0.046300
H16 H -0.224400 0.231500 0.010600
C17 C 0.017700 0.187100 0.196500
H18 H -0.048600 0.279700 0.233300
O19 O 0.211900 0.834000 0.808900
N20 N 0.289200 0.995200 0.639500
N21 N 0.425100 1.012500 0.556600
N22 N 0.129700 1.190200 0.537400
H23 H 0.056700 1.263900 0.537200
H24 H 0.211600 1.184600 0.474800
N25 N 0.043400 1.100800 0.726500
H26 H -0.039700 1.176200 0.722100
H27 H 0.066300 1.033700 0.791000
C28 C 0.323000 0.870400 0.726500
C29 C 0.537000 0.901900 0.593900
C30 C 0.150700 1.098000 0.633400
C31 C 0.705000 0.883000 0.528400
H32 H 0.796500 0.923700 0.579000
H33 H 0.701800 0.944700 0.453700
H34 H 0.724400 0.768500 0.510600
C35 C 0.482300 0.812900 0.696500
H36 H 0.548600 0.720300 0.733300
O37 O 0.788100 0.334000 0.691100
N38 N 0.710800 0.495200 0.860500
N39 N 0.574900 0.512500 0.943400
N40 N 0.870300 0.690200 0.962600
H41 H 0.943300 0.763900 0.962800
H42 H 0.788400 0.684600 1.025200
N43 N 0.956600 0.600800 0.773500
H44 H 1.039700 0.676200 0.777900
H45 H 0.933700 0.533700 0.709000
C46 C 0.677000 0.370400 0.773500
C47 C 0.463000 0.401900 0.906100
C48 C 0.849300 0.598000 0.866600
C49 C 0.295000 0.383000 0.971600
H50 H 0.203500 0.423700 0.921000
H51 H 0.298200 0.444700 1.046300
H52 H 0.275600 0.268500 0.989400
C53 C 0.517700 0.312900 0.803500
H54 H 0.451400 0.220300 0.766700
O55 O 0.711900 0.666000 0.191100
N56 N 0.789200 0.504800 0.360500
N57 N 0.925100 0.487500 0.443400
N58 N 0.629700 0.309800 0.462600
H59 H 0.556700 0.236100 0.462800
H60 H 0.711600 0.315400 0.525200
N61 N 0.543400 0.399200 0.273500
H62 H 0.460300 0.323800 0.277900
H63 H 0.566300 0.466300 0.209000
C64 C 0.823000 0.629600 0.273500
C65 C 1.037000 0.598100 0.406100
C66 C 0.650700 0.402000 0.366600
C67 C 1.205000 0.617000 0.471600
H68 H 1.296500 0.576300 0.421000
H69 H 1.201800 0.555300 0.546300
H70 H 1.224400 0.731500 0.489400
C71 C 0.982300 0.687100 0.303500
H72 H 1.048600 0.779700 0.266700

#END
