
#######################################################################
#
#                 Cambridge Crystallographic Data Centre
#                                CCDC 
#
#######################################################################
#
# If this CIF has been generated from an entry in the Cambridge 
# Structural Database, then it will include bibliographic, chemical, 
# crystal, experimental, refinement or atomic coordinate data resulting 
# from the CCDC's data processing and validation procedures.
#
#######################################################################

data_LACGUR
_symmetry_cell_setting           triclinic
_symmetry_space_group_name_H-M   'P -1'
_symmetry_Int_Tables_number      2
_space_group_name_Hall           '-P 1'
loop_
_symmetry_equiv_pos_site_id
_symmetry_equiv_pos_as_xyz
1 x,y,z
2 -x,-y,-z
_cell_length_a                   4.829(3)
_cell_length_b                   6.04(1)
_cell_length_c                   14.047(3)
_cell_angle_alpha                97.73(1)
_cell_angle_beta                 98.37(4)
_cell_angle_gamma                94.34(4)
_cell_volume                     399.763
loop_
_atom_site_label
_atom_site_type_symbol
_atom_site_fract_x
_atom_site_fract_y
_atom_site_fract_z
F1 F 0.8590(5) -0.5737(6) -0.4262(2)
F2 F 0.8989(4) -0.9048(4) -0.4012(2)
F3 F 0.4968(5) -0.7865(5) -0.4259(2)
O1 O 0.7798(5) -0.6733(4) -0.2907(2)
N1 N 0.0800(5) -0.0859(4) -0.0174(2)
C1 C 0.7555(6) -0.7344(6) -0.3834(2)
C2 C 0.6062(6) -0.5190(5) -0.2494(2)
C3 C 0.5204(7) -0.3387(6) -0.2921(2)
C4 C 0.3588(7) -0.1944(5) -0.2423(2)
C5 C 0.2874(6) -0.2299(5) -0.1544(2)
C6 C 0.3756(6) -0.4171(5) -0.1149(2)
C7 C 0.5357(6) -0.5609(5) -0.1630(2)
C8 C 0.1254(6) -0.0722(5) -0.1030(2)
H1 H 0.568(6) -0.303(5) -0.353(2)
H2 H 0.290(8) -0.056(6) -0.276(3)
H3 H 0.319(6) -0.454(5) -0.064(2)
H4 H 0.577(7) -0.685(5) -0.137(3)
H5 H 0.079(6) 0.040(5) -0.126(2)
N1A N -0.0800(5) 0.0859(4) 0.0174(2)
C8A C -0.1254(6) 0.0722(5) 0.1030(2)
C5A C -0.2874(6) 0.2299(5) 0.1544(2)
H5A H -0.079(6) -0.040(5) 0.126(2)
C4A C -0.3588(7) 0.1944(5) 0.2423(2)
C6A C -0.3756(6) 0.4171(5) 0.1149(2)
C3A C -0.5204(7) 0.3387(6) 0.2921(2)
H2A H -0.290(8) 0.056(6) 0.276(3)
C7A C -0.5357(6) 0.5609(5) 0.1630(2)
H3A H -0.319(6) 0.454(5) 0.064(2)
C2A C -0.6062(6) 0.5190(5) 0.2494(2)
H1A H -0.568(6) 0.303(5) 0.353(2)
H4A H -0.577(7) 0.685(5) 0.137(3)
O1A O -0.7798(5) 0.6733(4) 0.2907(2)
C1A C -0.7555(6) 0.7344(6) 0.3834(2)
F1A F -0.8590(5) 0.5737(6) 0.4262(2)
F2A F -0.8989(4) 0.9048(4) 0.4012(2)
F3A F -0.4968(5) 0.7865(5) 0.4259(2)
F1 F 0.8590(5) -0.5737(6) 0.5738(2)
F2 F 0.8989(4) -0.9048(4) 0.5988(2)
F3 F 0.4968(5) -0.7865(5) 0.5741(2)
O1 O 0.7798(5) -0.6733(4) 0.7093(2)
N1 N 0.0800(5) -0.0859(4) 0.9826(2)
C1 C 0.7555(6) -0.7344(6) 0.6166(2)
C2 C 0.6062(6) -0.5190(5) 0.7506(2)
C3 C 0.5204(7) -0.3387(6) 0.7079(2)
C4 C 0.3588(7) -0.1944(5) 0.7577(2)
C5 C 0.2874(6) -0.2299(5) 0.8456(2)
C6 C 0.3756(6) -0.4171(5) 0.8851(2)
C7 C 0.5357(6) -0.5609(5) 0.8370(2)
C8 C 0.1254(6) -0.0722(5) 0.8970(2)
H1 H 0.568(6) -0.303(5) 0.647(2)
H2 H 0.290(8) -0.056(6) 0.724(3)
H3 H 0.319(6) -0.454(5) 0.936(2)
H4 H 0.577(7) -0.685(5) 0.863(3)
H5 H 0.079(6) 0.040(5) 0.874(2)
N1A N -0.0800(5) 0.0859(4) 1.0174(2)
C8A C -0.1254(6) 0.0722(5) 1.1030(2)
C5A C -0.2874(6) 0.2299(5) 1.1544(2)
H5A H -0.079(6) -0.040(5) 1.126(2)
C4A C -0.3588(7) 0.1944(5) 1.2423(2)
C6A C -0.3756(6) 0.4171(5) 1.1149(2)
C3A C -0.5204(7) 0.3387(6) 1.2921(2)
H2A H -0.290(8) 0.056(6) 1.276(3)
C7A C -0.5357(6) 0.5609(5) 1.1630(2)
H3A H -0.319(6) 0.454(5) 1.064(2)
C2A C -0.6062(6) 0.5190(5) 1.2494(2)
H1A H -0.568(6) 0.303(5) 1.353(2)
H4A H -0.577(7) 0.685(5) 1.137(3)
O1A O -0.7798(5) 0.6733(4) 1.2907(2)
C1A C -0.7555(6) 0.7344(6) 1.3834(2)
F1A F -0.8590(5) 0.5737(6) 1.4262(2)
F2A F -0.8989(4) 0.9048(4) 1.4012(2)
F3A F -0.4968(5) 0.7865(5) 1.4259(2)
F1 F 0.8590(5) 0.4263(6) -0.4262(2)
F2 F 0.8989(4) 0.0952(4) -0.4012(2)
F3 F 0.4968(5) 0.2135(5) -0.4259(2)
O1 O 0.7798(5) 0.3267(4) -0.2907(2)
N1 N 0.0800(5) 0.9141(4) -0.0174(2)
C1 C 0.7555(6) 0.2656(6) -0.3834(2)
C2 C 0.6062(6) 0.4810(5) -0.2494(2)
C3 C 0.5204(7) 0.6613(6) -0.2921(2)
C4 C 0.3588(7) 0.8056(5) -0.2423(2)
C5 C 0.2874(6) 0.7701(5) -0.1544(2)
C6 C 0.3756(6) 0.5829(5) -0.1149(2)
C7 C 0.5357(6) 0.4391(5) -0.1630(2)
C8 C 0.1254(6) 0.9278(5) -0.1030(2)
H1 H 0.568(6) 0.697(5) -0.353(2)
H2 H 0.290(8) 0.944(6) -0.276(3)
H3 H 0.319(6) 0.546(5) -0.064(2)
H4 H 0.577(7) 0.315(5) -0.137(3)
H5 H 0.079(6) 1.040(5) -0.126(2)
N1A N -0.0800(5) 1.0859(4) 0.0174(2)
C8A C -0.1254(6) 1.0722(5) 0.1030(2)
C5A C -0.2874(6) 1.2299(5) 0.1544(2)
H5A H -0.079(6) 0.960(5) 0.126(2)
C4A C -0.3588(7) 1.1944(5) 0.2423(2)
C6A C -0.3756(6) 1.4171(5) 0.1149(2)
C3A C -0.5204(7) 1.3387(6) 0.2921(2)
H2A H -0.290(8) 1.056(6) 0.276(3)
C7A C -0.5357(6) 1.5609(5) 0.1630(2)
H3A H -0.319(6) 1.454(5) 0.064(2)
C2A C -0.6062(6) 1.5190(5) 0.2494(2)
H1A H -0.568(6) 1.303(5) 0.353(2)
H4A H -0.577(7) 1.685(5) 0.137(3)
O1A O -0.7798(5) 1.6733(4) 0.2907(2)
C1A C -0.7555(6) 1.7344(6) 0.3834(2)
F1A F -0.8590(5) 1.5737(6) 0.4262(2)
F2A F -0.8989(4) 1.9048(4) 0.4012(2)
F3A F -0.4968(5) 1.7865(5) 0.4259(2)
F1 F 0.8590(5) 0.4263(6) 0.5738(2)
F2 F 0.8989(4) 0.0952(4) 0.5988(2)
F3 F 0.4968(5) 0.2135(5) 0.5741(2)
O1 O 0.7798(5) 0.3267(4) 0.7093(2)
N1 N 0.0800(5) 0.9141(4) 0.9826(2)
C1 C 0.7555(6) 0.2656(6) 0.6166(2)
C2 C 0.6062(6) 0.4810(5) 0.7506(2)
C3 C 0.5204(7) 0.6613(6) 0.7079(2)
C4 C 0.3588(7) 0.8056(5) 0.7577(2)
C5 C 0.2874(6) 0.7701(5) 0.8456(2)
C6 C 0.3756(6) 0.5829(5) 0.8851(2)
C7 C 0.5357(6) 0.4391(5) 0.8370(2)
C8 C 0.1254(6) 0.9278(5) 0.8970(2)
H1 H 0.568(6) 0.697(5) 0.647(2)
H2 H 0.290(8) 0.944(6) 0.724(3)
H3 H 0.319(6) 0.546(5) 0.936(2)
H4 H 0.577(7) 0.315(5) 0.863(3)
H5 H 0.079(6) 1.040(5) 0.874(2)
N1A N -0.0800(5) 1.0859(4) 1.0174(2)
C8A C -0.1254(6) 1.0722(5) 1.1030(2)
C5A C -0.2874(6) 1.2299(5) 1.1544(2)
H5A H -0.079(6) 0.960(5) 1.126(2)
C4A C -0.3588(7) 1.1944(5) 1.2423(2)
C6A C -0.3756(6) 1.4171(5) 1.1149(2)
C3A C -0.5204(7) 1.3387(6) 1.2921(2)
H2A H -0.290(8) 1.056(6) 1.276(3)
C7A C -0.5357(6) 1.5609(5) 1.1630(2)
H3A H -0.319(6) 1.454(5) 1.064(2)
C2A C -0.6062(6) 1.5190(5) 1.2494(2)
H1A H -0.568(6) 1.303(5) 1.353(2)
H4A H -0.577(7) 1.685(5) 1.137(3)
O1A O -0.7798(5) 1.6733(4) 1.2907(2)
C1A C -0.7555(6) 1.7344(6) 1.3834(2)
F1A F -0.8590(5) 1.5737(6) 1.4262(2)
F2A F -0.8989(4) 1.9048(4) 1.4012(2)
F3A F -0.4968(5) 1.7865(5) 1.4259(2)
F1 F 1.8590(5) -0.5737(6) -0.4262(2)
F2 F 1.8989(4) -0.9048(4) -0.4012(2)
F3 F 1.4968(5) -0.7865(5) -0.4259(2)
O1 O 1.7798(5) -0.6733(4) -0.2907(2)
N1 N 1.0800(5) -0.0859(4) -0.0174(2)
C1 C 1.7555(6) -0.7344(6) -0.3834(2)
C2 C 1.6062(6) -0.5190(5) -0.2494(2)
C3 C 1.5204(7) -0.3387(6) -0.2921(2)
C4 C 1.3588(7) -0.1944(5) -0.2423(2)
C5 C 1.2874(6) -0.2299(5) -0.1544(2)
C6 C 1.3756(6) -0.4171(5) -0.1149(2)
C7 C 1.5357(6) -0.5609(5) -0.1630(2)
C8 C 1.1254(6) -0.0722(5) -0.1030(2)
H1 H 1.568(6) -0.303(5) -0.353(2)
H2 H 1.290(8) -0.056(6) -0.276(3)
H3 H 1.319(6) -0.454(5) -0.064(2)
H4 H 1.577(7) -0.685(5) -0.137(3)
H5 H 1.079(6) 0.040(5) -0.126(2)
N1A N 0.9200(5) 0.0859(4) 0.0174(2)
C8A C 0.8746(6) 0.0722(5) 0.1030(2)
C5A C 0.7126(6) 0.2299(5) 0.1544(2)
H5A H 0.921(6) -0.040(5) 0.126(2)
C4A C 0.6412(7) 0.1944(5) 0.2423(2)
C6A C 0.6244(6) 0.4171(5) 0.1149(2)
C3A C 0.4796(7) 0.3387(6) 0.2921(2)
H2A H 0.710(8) 0.056(6) 0.276(3)
C7A C 0.4643(6) 0.5609(5) 0.1630(2)
H3A H 0.681(6) 0.454(5) 0.064(2)
C2A C 0.3938(6) 0.5190(5) 0.2494(2)
H1A H 0.432(6) 0.303(5) 0.353(2)
H4A H 0.423(7) 0.685(5) 0.137(3)
O1A O 0.2202(5) 0.6733(4) 0.2907(2)
C1A C 0.2445(6) 0.7344(6) 0.3834(2)
F1A F 0.1410(5) 0.5737(6) 0.4262(2)
F2A F 0.1011(4) 0.9048(4) 0.4012(2)
F3A F 0.5032(5) 0.7865(5) 0.4259(2)
F1 F 1.8590(5) -0.5737(6) 0.5738(2)
F2 F 1.8989(4) -0.9048(4) 0.5988(2)
F3 F 1.4968(5) -0.7865(5) 0.5741(2)
O1 O 1.7798(5) -0.6733(4) 0.7093(2)
N1 N 1.0800(5) -0.0859(4) 0.9826(2)
C1 C 1.7555(6) -0.7344(6) 0.6166(2)
C2 C 1.6062(6) -0.5190(5) 0.7506(2)
C3 C 1.5204(7) -0.3387(6) 0.7079(2)
C4 C 1.3588(7) -0.1944(5) 0.7577(2)
C5 C 1.2874(6) -0.2299(5) 0.8456(2)
C6 C 1.3756(6) -0.4171(5) 0.8851(2)
C7 C 1.5357(6) -0.5609(5) 0.8370(2)
C8 C 1.1254(6) -0.0722(5) 0.8970(2)
H1 H 1.568(6) -0.303(5) 0.647(2)
H2 H 1.290(8) -0.056(6) 0.724(3)
H3 H 1.319(6) -0.454(5) 0.936(2)
H4 H 1.577(7) -0.685(5) 0.863(3)
H5 H 1.079(6) 0.040(5) 0.874(2)
N1A N 0.9200(5) 0.0859(4) 1.0174(2)
C8A C 0.8746(6) 0.0722(5) 1.1030(2)
C5A C 0.7126(6) 0.2299(5) 1.1544(2)
H5A H 0.921(6) -0.040(5) 1.126(2)
C4A C 0.6412(7) 0.1944(5) 1.2423(2)
C6A C 0.6244(6) 0.4171(5) 1.1149(2)
C3A C 0.4796(7) 0.3387(6) 1.2921(2)
H2A H 0.710(8) 0.056(6) 1.276(3)
C7A C 0.4643(6) 0.5609(5) 1.1630(2)
H3A H 0.681(6) 0.454(5) 1.064(2)
C2A C 0.3938(6) 0.5190(5) 1.2494(2)
H1A H 0.432(6) 0.303(5) 1.353(2)
H4A H 0.423(7) 0.685(5) 1.137(3)
O1A O 0.2202(5) 0.6733(4) 1.2907(2)
C1A C 0.2445(6) 0.7344(6) 1.3834(2)
F1A F 0.1410(5) 0.5737(6) 1.4262(2)
F2A F 0.1011(4) 0.9048(4) 1.4012(2)
F3A F 0.5032(5) 0.7865(5) 1.4259(2)
F1 F 1.8590(5) 0.4263(6) -0.4262(2)
F2 F 1.8989(4) 0.0952(4) -0.4012(2)
F3 F 1.4968(5) 0.2135(5) -0.4259(2)
O1 O 1.7798(5) 0.3267(4) -0.2907(2)
N1 N 1.0800(5) 0.9141(4) -0.0174(2)
C1 C 1.7555(6) 0.2656(6) -0.3834(2)
C2 C 1.6062(6) 0.4810(5) -0.2494(2)
C3 C 1.5204(7) 0.6613(6) -0.2921(2)
C4 C 1.3588(7) 0.8056(5) -0.2423(2)
C5 C 1.2874(6) 0.7701(5) -0.1544(2)
C6 C 1.3756(6) 0.5829(5) -0.1149(2)
C7 C 1.5357(6) 0.4391(5) -0.1630(2)
C8 C 1.1254(6) 0.9278(5) -0.1030(2)
H1 H 1.568(6) 0.697(5) -0.353(2)
H2 H 1.290(8) 0.944(6) -0.276(3)
H3 H 1.319(6) 0.546(5) -0.064(2)
H4 H 1.577(7) 0.315(5) -0.137(3)
H5 H 1.079(6) 1.040(5) -0.126(2)
N1A N 0.9200(5) 1.0859(4) 0.0174(2)
C8A C 0.8746(6) 1.0722(5) 0.1030(2)
C5A C 0.7126(6) 1.2299(5) 0.1544(2)
H5A H 0.921(6) 0.960(5) 0.126(2)
C4A C 0.6412(7) 1.1944(5) 0.2423(2)
C6A C 0.6244(6) 1.4171(5) 0.1149(2)
C3A C 0.4796(7) 1.3387(6) 0.2921(2)
H2A H 0.710(8) 1.056(6) 0.276(3)
C7A C 0.4643(6) 1.5609(5) 0.1630(2)
H3A H 0.681(6) 1.454(5) 0.064(2)
C2A C 0.3938(6) 1.5190(5) 0.2494(2)
H1A H 0.432(6) 1.303(5) 0.353(2)
H4A H 0.423(7) 1.685(5) 0.137(3)
O1A O 0.2202(5) 1.6733(4) 0.2907(2)
C1A C 0.2445(6) 1.7344(6) 0.3834(2)
F1A F 0.1410(5) 1.5737(6) 0.4262(2)
F2A F 0.1011(4) 1.9048(4) 0.4012(2)
F3A F 0.5032(5) 1.7865(5) 0.4259(2)
F1 F 1.8590(5) 0.4263(6) 0.5738(2)
F2 F 1.8989(4) 0.0952(4) 0.5988(2)
F3 F 1.4968(5) 0.2135(5) 0.5741(2)
O1 O 1.7798(5) 0.3267(4) 0.7093(2)
N1 N 1.0800(5) 0.9141(4) 0.9826(2)
C1 C 1.7555(6) 0.2656(6) 0.6166(2)
C2 C 1.6062(6) 0.4810(5) 0.7506(2)
C3 C 1.5204(7) 0.6613(6) 0.7079(2)
C4 C 1.3588(7) 0.8056(5) 0.7577(2)
C5 C 1.2874(6) 0.7701(5) 0.8456(2)
C6 C 1.3756(6) 0.5829(5) 0.8851(2)
C7 C 1.5357(6) 0.4391(5) 0.8370(2)
C8 C 1.1254(6) 0.9278(5) 0.8970(2)
H1 H 1.568(6) 0.697(5) 0.647(2)
H2 H 1.290(8) 0.944(6) 0.724(3)
H3 H 1.319(6) 0.546(5) 0.936(2)
H4 H 1.577(7) 0.315(5) 0.863(3)
H5 H 1.079(6) 1.040(5) 0.874(2)
N1A N 0.9200(5) 1.0859(4) 1.0174(2)
C8A C 0.8746(6) 1.0722(5) 1.1030(2)
C5A C 0.7126(6) 1.2299(5) 1.1544(2)
H5A H 0.921(6) 0.960(5) 1.126(2)
C4A C 0.6412(7) 1.1944(5) 1.2423(2)
C6A C 0.6244(6) 1.4171(5) 1.1149(2)
C3A C 0.4796(7) 1.3387(6) 1.2921(2)
H2A H 0.710(8) 1.056(6) 1.276(3)
C7A C 0.4643(6) 1.5609(5) 1.1630(2)
H3A H 0.681(6) 1.454(5) 1.064(2)
C2A C 0.3938(6) 1.5190(5) 1.2494(2)
H1A H 0.432(6) 1.303(5) 1.353(2)
H4A H 0.423(7) 1.685(5) 1.137(3)
O1A O 0.2202(5) 1.6733(4) 1.2907(2)
C1A C 0.2445(6) 1.7344(6) 1.3834(2)
F1A F 0.1410(5) 1.5737(6) 1.4262(2)
F2A F 0.1011(4) 1.9048(4) 1.4012(2)
F3A F 0.5032(5) 1.7865(5) 1.4259(2)

#END
