
#######################################################################
#
#                 Cambridge Crystallographic Data Centre
#                                CCDC 
#
#######################################################################
#
# If this CIF has been generated from an entry in the Cambridge 
# Structural Database, then it will include bibliographic, chemical, 
# crystal, experimental, refinement or atomic coordinate data resulting 
# from the CCDC's data processing and validation procedures.
#
#######################################################################

data_LACHUV
_symmetry_cell_setting           monoclinic
_symmetry_space_group_name_H-M   'P 21/n'
_symmetry_Int_Tables_number      14
_space_group_name_Hall           '-P 2yn'
loop_
_symmetry_equiv_pos_site_id
_symmetry_equiv_pos_as_xyz
1 x,y,z
2 1/2-x,1/2+y,1/2-z
3 -x,-y,-z
4 1/2+x,1/2-y,1/2+z
_cell_length_a                   7.1596(4)
_cell_length_b                   13.3572(7)
_cell_length_c                   13.0999(6)
_cell_angle_alpha                90
_cell_angle_beta                 98.358(4)
_cell_angle_gamma                90
_cell_volume                     1239.47
loop_
_atom_site_label
_atom_site_type_symbol
_atom_site_fract_x
_atom_site_fract_y
_atom_site_fract_z
C1 C 0.4378(2) 0.37929(14) 0.67388(12)
C2 C 0.5567(3) 0.40192(15) 0.76417(13)
H1 H 0.5865 0.4682 0.7809
C3 C 0.3945(3) 0.28005(15) 0.64990(15)
H2 H 0.3149 0.2643 0.5894
C4 C 0.6311(3) 0.32551(16) 0.82945(15)
H3 H 0.7110 0.3409 0.8899
C5 C 0.5877(3) 0.22758(17) 0.80548(17)
H4 H 0.6379 0.1767 0.8496
C6 C 0.4693(3) 0.20453(15) 0.71556(18)
H5 H 0.4399 0.1381 0.6992
O1 O 0.08672(17) 0.67786(9) 0.37475(9)
C7 C 0.2922(2) 0.60942(13) 0.55139(12)
C8 C 0.2777(2) 0.71523(13) 0.54079(13)
C9 C 0.2162(2) 0.54306(13) 0.47941(12)
C10 C 0.3575(2) 0.45737(13) 0.60226(13)
C11 C 0.1687(2) 0.74528(13) 0.44846(13)
C12 C 0.1389(3) 0.84540(14) 0.42510(15)
H6 H 0.0658 0.8647 0.3637
C13 C 0.1049(3) 0.57480(13) 0.38400(14)
C14 C 0.3289(3) 0.88806(15) 0.58657(16)
H7 H 0.3827 0.9367 0.6325
C15 C 0.3572(3) 0.78877(14) 0.60952(14)
H8 H 0.4299 0.7701 0.6713
C16 C 0.2196(3) 0.91617(15) 0.49447(16)
H9 H 0.2006 0.9838 0.4795
N1 N 0.2584(2) 0.44540(11) 0.51197(11)
O2 O 0.0293(2) 0.52390(10) 0.31439(9)
O3 O 0.38562(16) 0.55650(9) 0.63248(8)
C1 C 0.0622(2) -0.12071(14) 0.82612(12)
C2 C -0.0567(3) -0.09808(15) 0.73583(13)
H1 H -0.0865 -0.0318 0.7191
C3 C 0.1055(3) -0.21995(15) 0.85010(15)
H2 H 0.1851 -0.2357 0.9106
C4 C -0.1311(3) -0.17449(16) 0.67055(15)
H3 H -0.2110 -0.1591 0.6101
C5 C -0.0877(3) -0.27242(17) 0.69452(17)
H4 H -0.1379 -0.3233 0.6504
C6 C 0.0307(3) -0.29547(15) 0.78444(18)
H5 H 0.0601 -0.3619 0.8008
O1 O 0.41328(17) 0.17786(9) 1.12525(9)
C7 C 0.2078(2) 0.10942(13) 0.94861(12)
C8 C 0.2223(2) 0.21523(13) 0.95921(13)
C9 C 0.2838(2) 0.04306(13) 1.02059(12)
C10 C 0.1425(2) -0.04263(13) 0.89774(13)
C11 C 0.3313(2) 0.24528(13) 1.05154(13)
C12 C 0.3611(3) 0.34540(14) 1.07490(15)
H6 H 0.4342 0.3647 1.1363
C13 C 0.3951(3) 0.07480(13) 1.11600(14)
C14 C 0.1711(3) 0.38806(15) 0.91343(16)
H7 H 0.1173 0.4367 0.8675
C15 C 0.1428(3) 0.28877(14) 0.89048(14)
H8 H 0.0701 0.2701 0.8287
C16 C 0.2804(3) 0.41617(15) 1.00553(16)
H9 H 0.2994 0.4838 1.0205
N1 N 0.2416(2) -0.05460(11) 0.98803(11)
O2 O 0.4707(2) 0.02390(10) 1.18561(9)
O3 O 0.11438(16) 0.05650(9) 0.86752(8)
C1 C 0.5622(2) 0.62071(14) 0.32612(12)
C2 C 0.4433(3) 0.59808(15) 0.23583(13)
H1 H 0.4135 0.5318 0.2191
C3 C 0.6055(3) 0.71995(15) 0.35010(15)
H2 H 0.6851 0.7357 0.4106
C4 C 0.3689(3) 0.67449(16) 0.17055(15)
H3 H 0.2890 0.6591 0.1101
C5 C 0.4123(3) 0.77242(17) 0.19452(17)
H4 H 0.3621 0.8233 0.1504
C6 C 0.5307(3) 0.79547(15) 0.28444(18)
H5 H 0.5601 0.8619 0.3008
O1 O 0.91328(17) 0.32214(9) 0.62525(9)
C7 C 0.7078(2) 0.39058(13) 0.44861(12)
C8 C 0.7223(2) 0.28477(13) 0.45921(13)
C9 C 0.7838(2) 0.45694(13) 0.52059(12)
C10 C 0.6425(2) 0.54263(13) 0.39774(13)
C11 C 0.8313(2) 0.25472(13) 0.55154(13)
C12 C 0.8611(3) 0.15460(14) 0.57490(15)
H6 H 0.9342 0.1353 0.6363
C13 C 0.8951(3) 0.42520(13) 0.61600(14)
C14 C 0.6711(3) 0.11194(15) 0.41343(16)
H7 H 0.6173 0.0633 0.3675
C15 C 0.6428(3) 0.21123(14) 0.39048(14)
H8 H 0.5701 0.2299 0.3287
C16 C 0.7804(3) 0.08383(15) 0.50553(16)
H9 H 0.7994 0.0162 0.5205
N1 N 0.7416(2) 0.55460(11) 0.48803(11)
O2 O 0.9707(2) 0.47610(10) 0.68561(9)
O3 O 0.61438(16) 0.44350(9) 0.36752(8)
C1 C 0.9378(2) 1.12071(14) 0.17388(12)
C2 C 1.0567(3) 1.09808(15) 0.26417(13)
H1 H 1.0865 1.0318 0.2809
C3 C 0.8945(3) 1.21995(15) 0.14990(15)
H2 H 0.8149 1.2357 0.0894
C4 C 1.1311(3) 1.17449(16) 0.32945(15)
H3 H 1.2110 1.1591 0.3899
C5 C 1.0877(3) 1.27242(17) 0.30548(17)
H4 H 1.1379 1.3233 0.3496
C6 C 0.9693(3) 1.29547(15) 0.21556(18)
H5 H 0.9399 1.3619 0.1992
O1 O 0.58672(17) 0.82214(9) -0.12525(9)
C7 C 0.7922(2) 0.89058(13) 0.05139(12)
C8 C 0.7777(2) 0.78477(13) 0.04079(13)
C9 C 0.7162(2) 0.95694(13) -0.02059(12)
C10 C 0.8575(2) 1.04263(13) 0.10226(13)
C11 C 0.6687(2) 0.75472(13) -0.05154(13)
C12 C 0.6389(3) 0.65460(14) -0.07490(15)
H6 H 0.5658 0.6353 -0.1363
C13 C 0.6049(3) 0.92520(13) -0.11600(14)
C14 C 0.8289(3) 0.61194(15) 0.08657(16)
H7 H 0.8827 0.5633 0.1325
C15 C 0.8572(3) 0.71123(14) 0.10952(14)
H8 H 0.9299 0.7299 0.1713
C16 C 0.7196(3) 0.58383(15) -0.00553(16)
H9 H 0.7006 0.5162 -0.0205
N1 N 0.7584(2) 1.05460(11) 0.01197(11)
O2 O 0.5293(2) 0.97610(10) -0.18561(9)
O3 O 0.88562(16) 0.94350(9) 0.13248(8)

#END
