
#######################################################################
#
#                 Cambridge Crystallographic Data Centre
#                                CCDC 
#
#######################################################################
#
# If this CIF has been generated from an entry in the Cambridge 
# Structural Database, then it will include bibliographic, chemical, 
# crystal, experimental, refinement or atomic coordinate data resulting 
# from the CCDC's data processing and validation procedures.
#
#######################################################################

data_LACJEE
_symmetry_cell_setting           monoclinic
_symmetry_space_group_name_H-M   'P 21/n'
_symmetry_Int_Tables_number      14
_space_group_name_Hall           '-P 2yn'
loop_
_symmetry_equiv_pos_site_id
_symmetry_equiv_pos_as_xyz
1 x,y,z
2 1/2-x,1/2+y,1/2-z
3 -x,-y,-z
4 1/2+x,1/2-y,1/2+z
_cell_length_a                   5.231(1)
_cell_length_b                   15.19(1)
_cell_length_c                   5.3966(9)
_cell_angle_alpha                90
_cell_angle_beta                 117.07(2)
_cell_angle_gamma                90
_cell_volume                     381.832
loop_
_atom_site_label
_atom_site_type_symbol
_atom_site_fract_x
_atom_site_fract_y
_atom_site_fract_z
O1 O 1.0264(6) 0.1638(3) 0.1392(7)
O2 O 0.5645(6) 0.1319(2) -0.0195(6)
N1 N 0.5981(7) 0.1197(2) 0.4938(7)
C1 C 0.6286(9) 0.0219(3) 0.4978(10)
C2 C 0.8308(9) 0.1650(3) 0.4602(8)
C3 C 0.8060(8) 0.1520(3) 0.1701(8)
H1 H 0.602(9) 0.130(3) 0.672(10)
H2 H 0.432(12) 0.128(3) 0.381(13)
H3 H 0.651(9) 0.003(3) 0.344(10)
H4 H 0.792(8) 0.006(3) 0.638(8)
H5 H 0.809(8) 0.225(3) 0.484(8)
H6 H 1.011(10) 0.144(3) 0.615(11)
C1B C 0.3714(9) -0.0219(3) 0.5022(10)
N1B N 0.4019(7) -0.1197(2) 0.5062(7)
H3B H 0.349(9) -0.003(3) 0.656(10)
H4B H 0.208(8) -0.006(3) 0.362(8)
C2B C 0.1692(9) -0.1650(3) 0.5398(8)
H1B H 0.398(9) -0.130(3) 0.328(10)
H2B H 0.568(12) -0.128(3) 0.619(13)
C3B C 0.1940(8) -0.1520(3) 0.8299(8)
H5B H 0.191(8) -0.225(3) 0.516(8)
H6B H -0.011(10) -0.144(3) 0.385(11)
O1B O -0.0264(6) -0.1638(3) 0.8608(7)
O2B O 0.4355(6) -0.1319(2) 1.0195(6)
O1 O 1.0264(6) 1.1638(3) 0.1392(7)
O2 O 0.5645(6) 1.1319(2) -0.0195(6)
N1 N 0.5981(7) 1.1197(2) 0.4938(7)
C1 C 0.6286(9) 1.0219(3) 0.4978(10)
C2 C 0.8308(9) 1.1650(3) 0.4602(8)
C3 C 0.8060(8) 1.1520(3) 0.1701(8)
H1 H 0.602(9) 1.130(3) 0.672(10)
H2 H 0.432(12) 1.128(3) 0.381(13)
H3 H 0.651(9) 1.003(3) 0.344(10)
H4 H 0.792(8) 1.006(3) 0.638(8)
H5 H 0.809(8) 1.225(3) 0.484(8)
H6 H 1.011(10) 1.144(3) 0.615(11)
C1B C 0.3714(9) 0.9781(3) 0.5022(10)
N1B N 0.4019(7) 0.8803(2) 0.5062(7)
H3B H 0.349(9) 0.997(3) 0.656(10)
H4B H 0.208(8) 0.994(3) 0.362(8)
C2B C 0.1692(9) 0.8350(3) 0.5398(8)
H1B H 0.398(9) 0.870(3) 0.328(10)
H2B H 0.568(12) 0.872(3) 0.619(13)
C3B C 0.1940(8) 0.8480(3) 0.8299(8)
H5B H 0.191(8) 0.775(3) 0.516(8)
H6B H -0.011(10) 0.856(3) 0.385(11)
O1B O -0.0264(6) 0.8362(3) 0.8608(7)
O2B O 0.4355(6) 0.8681(2) 1.0195(6)
O1 O -0.5264(6) 0.6638(3) 0.3608(7)
O2 O -0.0645(6) 0.6319(2) 0.5195(6)
N1 N -0.0981(7) 0.6197(2) 0.0062(7)
C1 C -0.1286(9) 0.5219(3) 0.0022(10)
C2 C -0.3308(9) 0.6650(3) 0.0398(8)
C3 C -0.3060(8) 0.6520(3) 0.3299(8)
H1 H -0.102(9) 0.630(3) -0.172(10)
H2 H 0.068(12) 0.628(3) 0.119(13)
H3 H -0.151(9) 0.503(3) 0.156(10)
H4 H -0.292(8) 0.506(3) -0.138(8)
H5 H -0.309(8) 0.725(3) 0.016(8)
H6 H -0.511(10) 0.644(3) -0.115(11)
C1B C 0.1286(9) 0.4781(3) -0.0022(10)
N1B N 0.0981(7) 0.3803(2) -0.0062(7)
H3B H 0.151(9) 0.497(3) -0.156(10)
H4B H 0.292(8) 0.494(3) 0.138(8)
C2B C 0.3308(9) 0.3350(3) -0.0398(8)
H1B H 0.102(9) 0.370(3) 0.172(10)
H2B H -0.068(12) 0.372(3) -0.119(13)
C3B C 0.3060(8) 0.3480(3) -0.3299(8)
H5B H 0.309(8) 0.275(3) -0.016(8)
H6B H 0.511(10) 0.356(3) 0.115(11)
O1B O 0.5264(6) 0.3362(3) -0.3608(7)
O2B O 0.0645(6) 0.3681(2) -0.5195(6)
O1 O -0.5264(6) 0.6638(3) 1.3608(7)
O2 O -0.0645(6) 0.6319(2) 1.5195(6)
N1 N -0.0981(7) 0.6197(2) 1.0062(7)
C1 C -0.1286(9) 0.5219(3) 1.0022(10)
C2 C -0.3308(9) 0.6650(3) 1.0398(8)
C3 C -0.3060(8) 0.6520(3) 1.3299(8)
H1 H -0.102(9) 0.630(3) 0.828(10)
H2 H 0.068(12) 0.628(3) 1.119(13)
H3 H -0.151(9) 0.503(3) 1.156(10)
H4 H -0.292(8) 0.506(3) 0.862(8)
H5 H -0.309(8) 0.725(3) 1.016(8)
H6 H -0.511(10) 0.644(3) 0.885(11)
C1B C 0.1286(9) 0.4781(3) 0.9978(10)
N1B N 0.0981(7) 0.3803(2) 0.9938(7)
H3B H 0.151(9) 0.497(3) 0.844(10)
H4B H 0.292(8) 0.494(3) 1.138(8)
C2B C 0.3308(9) 0.3350(3) 0.9602(8)
H1B H 0.102(9) 0.370(3) 1.172(10)
H2B H -0.068(12) 0.372(3) 0.881(13)
C3B C 0.3060(8) 0.3480(3) 0.6701(8)
H5B H 0.309(8) 0.275(3) 0.984(8)
H6B H 0.511(10) 0.356(3) 1.115(11)
O1B O 0.5264(6) 0.3362(3) 0.6392(7)
O2B O 0.0645(6) 0.3681(2) 0.4805(6)
O1 O 0.4736(6) 0.6638(3) 0.3608(7)
O2 O 0.9355(6) 0.6319(2) 0.5195(6)
N1 N 0.9019(7) 0.6197(2) 0.0062(7)
C1 C 0.8714(9) 0.5219(3) 0.0022(10)
C2 C 0.6692(9) 0.6650(3) 0.0398(8)
C3 C 0.6940(8) 0.6520(3) 0.3299(8)
H1 H 0.898(9) 0.630(3) -0.172(10)
H2 H 1.068(12) 0.628(3) 0.119(13)
H3 H 0.849(9) 0.503(3) 0.156(10)
H4 H 0.708(8) 0.506(3) -0.138(8)
H5 H 0.691(8) 0.725(3) 0.016(8)
H6 H 0.489(10) 0.644(3) -0.115(11)
C1B C 1.1286(9) 0.4781(3) -0.0022(10)
N1B N 1.0981(7) 0.3803(2) -0.0062(7)
H3B H 1.151(9) 0.497(3) -0.156(10)
H4B H 1.292(8) 0.494(3) 0.138(8)
C2B C 1.3308(9) 0.3350(3) -0.0398(8)
H1B H 1.102(9) 0.370(3) 0.172(10)
H2B H 0.932(12) 0.372(3) -0.119(13)
C3B C 1.3060(8) 0.3480(3) -0.3299(8)
H5B H 1.309(8) 0.275(3) -0.016(8)
H6B H 1.511(10) 0.356(3) 0.115(11)
O1B O 1.5264(6) 0.3362(3) -0.3608(7)
O2B O 1.0645(6) 0.3681(2) -0.5195(6)
O1 O 0.4736(6) 0.6638(3) 1.3608(7)
O2 O 0.9355(6) 0.6319(2) 1.5195(6)
N1 N 0.9019(7) 0.6197(2) 1.0062(7)
C1 C 0.8714(9) 0.5219(3) 1.0022(10)
C2 C 0.6692(9) 0.6650(3) 1.0398(8)
C3 C 0.6940(8) 0.6520(3) 1.3299(8)
H1 H 0.898(9) 0.630(3) 0.828(10)
H2 H 1.068(12) 0.628(3) 1.119(13)
H3 H 0.849(9) 0.503(3) 1.156(10)
H4 H 0.708(8) 0.506(3) 0.862(8)
H5 H 0.691(8) 0.725(3) 1.016(8)
H6 H 0.489(10) 0.644(3) 0.885(11)
C1B C 1.1286(9) 0.4781(3) 0.9978(10)
N1B N 1.0981(7) 0.3803(2) 0.9938(7)
H3B H 1.151(9) 0.497(3) 0.844(10)
H4B H 1.292(8) 0.494(3) 1.138(8)
C2B C 1.3308(9) 0.3350(3) 0.9602(8)
H1B H 1.102(9) 0.370(3) 1.172(10)
H2B H 0.932(12) 0.372(3) 0.881(13)
C3B C 1.3060(8) 0.3480(3) 0.6701(8)
H5B H 1.309(8) 0.275(3) 0.984(8)
H6B H 1.511(10) 0.356(3) 1.115(11)
O1B O 1.5264(6) 0.3362(3) 0.6392(7)
O2B O 1.0645(6) 0.3681(2) 0.4805(6)

#END
