./LACJEE_from_xyz.cif_generated_by_CrystalShift
_symmetry_cell_setting triclinic
_symmetry_space_group_name_H-M 'P 1'
loop_
_symmetry_equiv_pos_site_id
_symmetry_equiv_pos_as_xyz
1 x,y,z
_cell_length_a 5.231000
_cell_length_b 15.190000
_cell_length_c 5.396600
_cell_angle_alpha 90.000000
_cell_angle_beta 117.070000
_cell_angle_gamma 90.000000
_cell_volume 381.832465
loop_
_atom_site_label
_atom_site_type_symbol
_atom_site_fract_x
_atom_site_fract_y
_atom_site_fract_z
O1 O 1.026400 0.163800 0.139200
O2 O 0.564500 0.131900 -0.019500
N3 N 0.598100 0.119700 0.493800
C4 C 0.628600 0.021900 0.497800
C5 C 0.830800 0.165000 0.460200
C6 C 0.806000 0.152000 0.170100
H7 H 0.602000 0.130000 0.672000
H8 H 0.432000 0.128000 0.381000
H9 H 0.651000 0.003000 0.344000
H10 H 0.792000 0.006000 0.638000
H11 H 0.809000 0.225000 0.484000
H12 H 1.011000 0.144000 0.615000
C13 C 0.371400 -0.021900 0.502200
N14 N 0.401900 -0.119700 0.506200
H15 H 0.349000 -0.003000 0.656000
H16 H 0.208000 -0.006000 0.362000
C17 C 0.169200 -0.165000 0.539800
H18 H 0.398000 -0.130000 0.328000
H19 H 0.568000 -0.128000 0.619000
C20 C 0.194000 -0.152000 0.829900
H21 H 0.191000 -0.225000 0.516000
H22 H -0.011000 -0.144000 0.385000
O23 O -0.026400 -0.163800 0.860800
O24 O 0.435500 -0.131900 1.019500
O25 O 1.026400 1.163800 0.139200
O26 O 0.564500 1.131900 -0.019500
N27 N 0.598100 1.119700 0.493800
C28 C 0.628600 1.021900 0.497800
C29 C 0.830800 1.165000 0.460200
C30 C 0.806000 1.152000 0.170100
H31 H 0.602000 1.130000 0.672000
H32 H 0.432000 1.128000 0.381000
H33 H 0.651000 1.003000 0.344000
H34 H 0.792000 1.006000 0.638000
H35 H 0.809000 1.225000 0.484000
H36 H 1.011000 1.144000 0.615000
C37 C 0.371400 0.978100 0.502200
N38 N 0.401900 0.880300 0.506200
H39 H 0.349000 0.997000 0.656000
H40 H 0.208000 0.994000 0.362000
C41 C 0.169200 0.835000 0.539800
H42 H 0.398000 0.870000 0.328000
H43 H 0.568000 0.872000 0.619000
C44 C 0.194000 0.848000 0.829900
H45 H 0.191000 0.775000 0.516000
H46 H -0.011000 0.856000 0.385000
O47 O -0.026400 0.836200 0.860800
O48 O 0.435500 0.868100 1.019500
O49 O -0.526400 0.663800 0.360800
O50 O -0.064500 0.631900 0.519500
N51 N -0.098100 0.619700 0.006200
C52 C -0.128600 0.521900 0.002200
C53 C -0.330800 0.665000 0.039800
C54 C -0.306000 0.652000 0.329900
H55 H -0.102000 0.630000 -0.172000
H56 H 0.068000 0.628000 0.119000
H57 H -0.151000 0.503000 0.156000
H58 H -0.292000 0.506000 -0.138000
H59 H -0.309000 0.725000 0.016000
H60 H -0.511000 0.644000 -0.115000
C61 C 0.128600 0.478100 -0.002200
N62 N 0.098100 0.380300 -0.006200
H63 H 0.151000 0.497000 -0.156000
H64 H 0.292000 0.494000 0.138000
C65 C 0.330800 0.335000 -0.039800
H66 H 0.102000 0.370000 0.172000
H67 H -0.068000 0.372000 -0.119000
C68 C 0.306000 0.348000 -0.329900
H69 H 0.309000 0.275000 -0.016000
H70 H 0.511000 0.356000 0.115000
O71 O 0.526400 0.336200 -0.360800
O72 O 0.064500 0.368100 -0.519500
O73 O -0.526400 0.663800 1.360800
O74 O -0.064500 0.631900 1.519500
N75 N -0.098100 0.619700 1.006200
C76 C -0.128600 0.521900 1.002200
C77 C -0.330800 0.665000 1.039800
C78 C -0.306000 0.652000 1.329900
H79 H -0.102000 0.630000 0.828000
H80 H 0.068000 0.628000 1.119000
H81 H -0.151000 0.503000 1.156000
H82 H -0.292000 0.506000 0.862000
H83 H -0.309000 0.725000 1.016000
H84 H -0.511000 0.644000 0.885000
C85 C 0.128600 0.478100 0.997800
N86 N 0.098100 0.380300 0.993800
H87 H 0.151000 0.497000 0.844000
H88 H 0.292000 0.494000 1.138000
C89 C 0.330800 0.335000 0.960200
H90 H 0.102000 0.370000 1.172000
H91 H -0.068000 0.372000 0.881000
C92 C 0.306000 0.348000 0.670100
H93 H 0.309000 0.275000 0.984000
H94 H 0.511000 0.356000 1.115000
O95 O 0.526400 0.336200 0.639200
O96 O 0.064500 0.368100 0.480500
O97 O 0.473600 0.663800 0.360800
O98 O 0.935500 0.631900 0.519500
N99 N 0.901900 0.619700 0.006200
C100 C 0.871400 0.521900 0.002200
C101 C 0.669200 0.665000 0.039800
C102 C 0.694000 0.652000 0.329900
H103 H 0.898000 0.630000 -0.172000
H104 H 1.068000 0.628000 0.119000
H105 H 0.849000 0.503000 0.156000
H106 H 0.708000 0.506000 -0.138000
H107 H 0.691000 0.725000 0.016000
H108 H 0.489000 0.644000 -0.115000
C109 C 1.128600 0.478100 -0.002200
N110 N 1.098100 0.380300 -0.006200
H111 H 1.151000 0.497000 -0.156000
H112 H 1.292000 0.494000 0.138000
C113 C 1.330800 0.335000 -0.039800
H114 H 1.102000 0.370000 0.172000
H115 H 0.932000 0.372000 -0.119000
C116 C 1.306000 0.348000 -0.329900
H117 H 1.309000 0.275000 -0.016000
H118 H 1.511000 0.356000 0.115000
O119 O 1.526400 0.336200 -0.360800
O120 O 1.064500 0.368100 -0.519500
O121 O 0.473600 0.663800 1.360800
O122 O 0.935500 0.631900 1.519500
N123 N 0.901900 0.619700 1.006200
C124 C 0.871400 0.521900 1.002200
C125 C 0.669200 0.665000 1.039800
C126 C 0.694000 0.652000 1.329900
H127 H 0.898000 0.630000 0.828000
H128 H 1.068000 0.628000 1.119000
H129 H 0.849000 0.503000 1.156000
H130 H 0.708000 0.506000 0.862000
H131 H 0.691000 0.725000 1.016000
H132 H 0.489000 0.644000 0.885000
C133 C 1.128600 0.478100 0.997800
N134 N 1.098100 0.380300 0.993800
H135 H 1.151000 0.497000 0.844000
H136 H 1.292000 0.494000 1.138000
C137 C 1.330800 0.335000 0.960200
H138 H 1.102000 0.370000 1.172000
H139 H 0.932000 0.372000 0.881000
C140 C 1.306000 0.348000 0.670100
H141 H 1.309000 0.275000 0.984000
H142 H 1.511000 0.356000 1.115000
O143 O 1.526400 0.336200 0.639200
O144 O 1.064500 0.368100 0.480500

#END
