./LACLAD_from_xyz.cif_generated_by_CrystalShift
_symmetry_cell_setting triclinic
_symmetry_space_group_name_H-M 'P 1'
loop_
_symmetry_equiv_pos_site_id
_symmetry_equiv_pos_as_xyz
1 x,y,z
_cell_length_a 8.932000
_cell_length_b 10.008000
_cell_length_c 19.404000
_cell_angle_alpha 90.000000
_cell_angle_beta 93.560000
_cell_angle_gamma 90.000000
_cell_volume 1731.204728
loop_
_atom_site_label
_atom_site_type_symbol
_atom_site_fract_x
_atom_site_fract_y
_atom_site_fract_z
O1 O 0.439780 -0.010180 0.389440
O2 O 0.020430 -0.170300 0.235550
C3 C 0.294000 -0.140400 0.307920
C4 C 0.206900 -0.113500 0.374220
C5 C 0.087900 -0.072400 0.217730
C6 C 0.233900 0.132200 0.346740
C7 C 0.247300 -0.042800 0.247320
C8 C 0.275100 0.101400 0.273300
C9 C 0.292700 -0.281200 0.286440
N10 N 0.570200 -0.144900 0.315100
C11 C 0.452300 -0.100700 0.337250
C12 C 0.042000 -0.100300 0.369330
C13 C 0.344300 -0.069700 0.184550
C14 C 0.304600 0.265100 0.369790
C15 C 0.283200 0.021500 0.397740
C16 C 0.243300 -0.220800 0.425340
C17 C 0.032100 0.016000 0.159020
C18 C 0.263000 0.057100 0.472250
C19 C 0.298500 0.018900 0.122980
C20 C 0.271200 0.301100 0.443430
N21 N -0.083000 -0.087500 0.373980
N22 N 0.296500 -0.390200 0.270910
C23 C 0.329500 0.192200 0.492620
C24 C 0.135500 -0.001000 0.099230
N25 N 0.272200 -0.304000 0.463490
H26 H 0.125100 0.138900 0.347700
H27 H 0.384000 0.120300 0.269100
H28 H 0.414900 0.256900 0.366300
H29 H 0.224200 0.165600 0.241700
H30 H 0.334000 -0.166500 0.170000
H31 H 0.302200 -0.011200 0.501200
H32 H -0.068100 -0.009500 0.144800
H33 H 0.150500 0.060800 0.477100
H34 H 0.452300 -0.056100 0.201300
H35 H 0.267200 0.333800 0.336400
H36 H 0.311500 0.212700 0.539700
H37 H 0.318000 0.114300 0.135100
H38 H 0.433300 0.183400 0.491300
H39 H 0.362200 -0.005800 0.085000
H40 H 0.033900 0.114100 0.174700
H41 H 0.122000 -0.092800 0.079700
H42 H 0.160700 0.316400 0.447300
H43 H 0.103800 0.061600 0.062500
H44 H 0.646800 -0.106100 0.334700
H45 H 0.315800 0.387400 0.455400
O46 O 0.439780 0.510180 0.889440
O47 O 0.020430 0.670300 0.735550
C48 C 0.294000 0.640400 0.807920
C49 C 0.206900 0.613500 0.874220
C50 C 0.087900 0.572400 0.717730
C51 C 0.233900 0.367800 0.846740
C52 C 0.247300 0.542800 0.747320
C53 C 0.275100 0.398600 0.773300
C54 C 0.292700 0.781200 0.786440
N55 N 0.570200 0.644900 0.815100
C56 C 0.452300 0.600700 0.837250
C57 C 0.042000 0.600300 0.869330
C58 C 0.344300 0.569700 0.684550
C59 C 0.304600 0.234900 0.869790
C60 C 0.283200 0.478500 0.897740
C61 C 0.243300 0.720800 0.925340
C62 C 0.032100 0.484000 0.659020
C63 C 0.263000 0.442900 0.972250
C64 C 0.298500 0.481100 0.622980
C65 C 0.271200 0.198900 0.943430
N66 N -0.083000 0.587500 0.873980
N67 N 0.296500 0.890200 0.770910
C68 C 0.329500 0.307800 0.992620
C69 C 0.135500 0.501000 0.599230
N70 N 0.272200 0.804000 0.963490
H71 H 0.125100 0.361100 0.847700
H72 H 0.384000 0.379700 0.769100
H73 H 0.414900 0.243100 0.866300
H74 H 0.224200 0.334400 0.741700
H75 H 0.334000 0.666500 0.670000
H76 H 0.302200 0.511200 1.001200
H77 H -0.068100 0.509500 0.644800
H78 H 0.150500 0.439200 0.977100
H79 H 0.452300 0.556100 0.701300
H80 H 0.267200 0.166200 0.836400
H81 H 0.311500 0.287300 1.039700
H82 H 0.318000 0.385700 0.635100
H83 H 0.433300 0.316600 0.991300
H84 H 0.362200 0.505800 0.585000
H85 H 0.033900 0.385900 0.674700
H86 H 0.122000 0.592800 0.579700
H87 H 0.160700 0.183600 0.947300
H88 H 0.103800 0.438400 0.562500
H89 H 0.646800 0.606100 0.834700
H90 H 0.315800 0.112600 0.955400
O91 O 0.560220 1.010180 0.610560
O92 O 0.979570 1.170300 0.764450
C93 C 0.706000 1.140400 0.692080
C94 C 0.793100 1.113500 0.625780
C95 C 0.912100 1.072400 0.782270
C96 C 0.766100 0.867800 0.653260
C97 C 0.752700 1.042800 0.752680
C98 C 0.724900 0.898600 0.726700
C99 C 0.707300 1.281200 0.713560
N100 N 0.429800 1.144900 0.684900
C101 C 0.547700 1.100700 0.662750
C102 C 0.958000 1.100300 0.630670
C103 C 0.655700 1.069700 0.815450
C104 C 0.695400 0.734900 0.630210
C105 C 0.716800 0.978500 0.602260
C106 C 0.756700 1.220800 0.574660
C107 C 0.967900 0.984000 0.840980
C108 C 0.737000 0.942900 0.527750
C109 C 0.701500 0.981100 0.877020
C110 C 0.728800 0.698900 0.556570
N111 N 1.083000 1.087500 0.626020
N112 N 0.703500 1.390200 0.729090
C113 C 0.670500 0.807800 0.507380
C114 C 0.864500 1.001000 0.900770
N115 N 0.727800 1.304000 0.536510
H116 H 0.874900 0.861100 0.652300
H117 H 0.616000 0.879700 0.730900
H118 H 0.585100 0.743100 0.633700
H119 H 0.775800 0.834400 0.758300
H120 H 0.666000 1.166500 0.830000
H121 H 0.697800 1.011200 0.498800
H122 H 1.068100 1.009500 0.855200
H123 H 0.849500 0.939200 0.522900
H124 H 0.547700 1.056100 0.798700
H125 H 0.732800 0.666200 0.663600
H126 H 0.688500 0.787300 0.460300
H127 H 0.682000 0.885700 0.864900
H128 H 0.566700 0.816600 0.508700
H129 H 0.637800 1.005800 0.915000
H130 H 0.966100 0.885900 0.825300
H131 H 0.878000 1.092800 0.920300
H132 H 0.839300 0.683600 0.552700
H133 H 0.896200 0.938400 0.937500
H134 H 0.353200 1.106100 0.665300
H135 H 0.684200 0.612600 0.544600
O136 O 0.560220 0.489820 0.110560
O137 O 0.979570 0.329700 0.264450
C138 C 0.706000 0.359600 0.192080
C139 C 0.793100 0.386500 0.125780
C140 C 0.912100 0.427600 0.282270
C141 C 0.766100 0.632200 0.153260
C142 C 0.752700 0.457200 0.252680
C143 C 0.724900 0.601400 0.226700
C144 C 0.707300 0.218800 0.213560
N145 N 0.429800 0.355100 0.184900
C146 C 0.547700 0.399300 0.162750
C147 C 0.958000 0.399700 0.130670
C148 C 0.655700 0.430300 0.315450
C149 C 0.695400 0.765100 0.130210
C150 C 0.716800 0.521500 0.102260
C151 C 0.756700 0.279200 0.074660
C152 C 0.967900 0.516000 0.340980
C153 C 0.737000 0.557100 0.027750
C154 C 0.701500 0.518900 0.377020
C155 C 0.728800 0.801100 0.056570
N156 N 1.083000 0.412500 0.126020
N157 N 0.703500 0.109800 0.229090
C158 C 0.670500 0.692200 0.007380
C159 C 0.864500 0.499000 0.400770
N160 N 0.727800 0.196000 0.036510
H161 H 0.874900 0.638900 0.152300
H162 H 0.616000 0.620300 0.230900
H163 H 0.585100 0.756900 0.133700
H164 H 0.775800 0.665600 0.258300
H165 H 0.666000 0.333500 0.330000
H166 H 0.697800 0.488800 -0.001200
H167 H 1.068100 0.490500 0.355200
H168 H 0.849500 0.560800 0.022900
H169 H 0.547700 0.443900 0.298700
H170 H 0.732800 0.833800 0.163600
H171 H 0.688500 0.712700 -0.039700
H172 H 0.682000 0.614300 0.364900
H173 H 0.566700 0.683400 0.008700
H174 H 0.637800 0.494200 0.415000
H175 H 0.966100 0.614100 0.325300
H176 H 0.878000 0.407200 0.420300
H177 H 0.839300 0.816400 0.052700
H178 H 0.896200 0.561600 0.437500
H179 H 0.353200 0.393900 0.165300
H180 H 0.684200 0.887400 0.044600

#END
