./LACPEK_from_xyz.cif_generated_by_CrystalShift
_symmetry_cell_setting triclinic
_symmetry_space_group_name_H-M 'P 1'
loop_
_symmetry_equiv_pos_site_id
_symmetry_equiv_pos_as_xyz
1 x,y,z
_cell_length_a 7.607000
_cell_length_b 11.248000
_cell_length_c 12.150000
_cell_angle_alpha 114.360000
_cell_angle_beta 94.700000
_cell_angle_gamma 91.690000
_cell_volume 941.562964
loop_
_atom_site_label
_atom_site_type_symbol
_atom_site_fract_x
_atom_site_fract_y
_atom_site_fract_z
O1 O 1.087800 0.197600 1.027100
O2 O 1.014100 0.368000 0.996800
O3 O 0.140600 0.613000 0.747800
N4 N 0.692200 0.382500 0.897900
N5 N 0.978400 0.254800 0.988800
N6 N 0.235700 0.140500 0.768400
N7 N 0.305600 0.038500 0.789900
N8 N 0.314200 -0.175800 0.551200
C9 C 0.809900 0.194200 0.935500
C10 C 0.767200 0.064700 0.924400
C11 C 0.606800 -0.001500 0.877000
C12 C 0.476600 0.064800 0.837600
C13 C 0.520100 0.190000 0.848500
C14 C 0.241700 0.420500 0.772000
C15 C 0.267000 0.546000 0.780600
C16 C 0.430600 0.615500 0.827400
C17 C 0.569100 0.561400 0.865500
C18 C 0.546600 0.433800 0.856800
C19 C 0.682200 0.260700 0.895800
C20 C 0.369200 0.232200 0.805700
C21 C 0.381600 0.363100 0.810000
C22 C 0.196700 -0.083300 0.751400
C23 C 0.155500 -0.149400 0.614500
C24 C 0.280800 -0.181400 0.428100
C25 C 0.255100 -0.049700 0.426700
C26 C 0.390200 -0.295600 0.548200
C27 C 0.586400 -0.294700 0.539100
C28 C -0.024700 0.544200 0.691400
H29 H 0.863000 0.027000 0.954000
H30 H 0.583000 -0.088000 0.871000
H31 H 0.132000 0.370000 0.740000
H32 H 0.445000 0.703000 0.835000
H33 H 0.683000 0.610000 0.898000
H34 H 0.790000 0.430000 0.928000
H35 H 0.086000 -0.064000 0.791000
H36 H 0.264000 -0.139000 0.784000
H37 H 0.072000 -0.230000 0.597000
H38 H 0.080000 -0.090000 0.592000
H39 H 0.164000 -0.241000 0.385000
H40 H 0.384000 -0.219000 0.385000
H41 H 0.220000 -0.055000 0.350000
H42 H 0.174000 -0.005000 0.473000
H43 H 0.369000 0.008000 0.457000
H44 H 0.331000 -0.379000 0.474000
H45 H 0.365000 -0.302000 0.629000
H46 H 0.631000 -0.377000 0.539000
H47 H 0.615000 -0.281000 0.472000
H48 H 0.653000 -0.220000 0.606000
H49 H -0.095000 0.602000 0.672000
H50 H -0.011000 0.467000 0.613000
H51 H -0.084000 0.512000 0.745000
O52 O -0.087800 0.802400 -0.027100
O53 O -0.014100 0.632000 0.003200
O54 O 0.859400 0.387000 0.252200
N55 N 0.307800 0.617500 0.102100
N56 N 0.021600 0.745200 0.011200
N57 N 0.764300 0.859500 0.231600
N58 N 0.694400 0.961500 0.210100
N59 N 0.685800 1.175800 0.448800
C60 C 0.190100 0.805800 0.064500
C61 C 0.232800 0.935300 0.075600
C62 C 0.393200 1.001500 0.123000
C63 C 0.523400 0.935200 0.162400
C64 C 0.479900 0.810000 0.151500
C65 C 0.758300 0.579500 0.228000
C66 C 0.733000 0.454000 0.219400
C67 C 0.569400 0.384500 0.172600
C68 C 0.430900 0.438600 0.134500
C69 C 0.453400 0.566200 0.143200
C70 C 0.317800 0.739300 0.104200
C71 C 0.630800 0.767800 0.194300
C72 C 0.618400 0.636900 0.190000
C73 C 0.803300 1.083300 0.248600
C74 C 0.844500 1.149400 0.385500
C75 C 0.719200 1.181400 0.571900
C76 C 0.744900 1.049700 0.573300
C77 C 0.609800 1.295600 0.451800
C78 C 0.413600 1.294700 0.460900
C79 C 1.024700 0.455800 0.308600
H80 H 0.137000 0.973000 0.046000
H81 H 0.417000 1.088000 0.129000
H82 H 0.868000 0.630000 0.260000
H83 H 0.555000 0.297000 0.165000
H84 H 0.317000 0.390000 0.102000
H85 H 0.210000 0.570000 0.072000
H86 H 0.914000 1.064000 0.209000
H87 H 0.736000 1.139000 0.216000
H88 H 0.928000 1.230000 0.403000
H89 H 0.920000 1.090000 0.408000
H90 H 0.836000 1.241000 0.615000
H91 H 0.616000 1.219000 0.615000
H92 H 0.780000 1.055000 0.650000
H93 H 0.826000 1.005000 0.527000
H94 H 0.631000 0.992000 0.543000
H95 H 0.669000 1.379000 0.526000
H96 H 0.635000 1.302000 0.371000
H97 H 0.369000 1.377000 0.461000
H98 H 0.385000 1.281000 0.528000
H99 H 0.347000 1.220000 0.394000
H100 H 1.095000 0.398000 0.328000
H101 H 1.011000 0.533000 0.387000
H102 H 1.084000 0.488000 0.255000

#END
