
#######################################################################
#
#                 Cambridge Crystallographic Data Centre
#                                CCDC 
#
#######################################################################
#
# If this CIF has been generated from an entry in the Cambridge 
# Structural Database, then it will include bibliographic, chemical, 
# crystal, experimental, refinement or atomic coordinate data resulting 
# from the CCDC's data processing and validation procedures.
#
#######################################################################

data_LACROW
_symmetry_cell_setting           monoclinic
_symmetry_space_group_name_H-M   'P 21'
_symmetry_Int_Tables_number      4
_space_group_name_Hall           'P 2yb'
loop_
_symmetry_equiv_pos_site_id
_symmetry_equiv_pos_as_xyz
1 x,y,z
2 -x,1/2+y,-z
_cell_length_a                   11.724(2)
_cell_length_b                   9.667(2)
_cell_length_c                   12.508(3)
_cell_angle_alpha                90
_cell_angle_beta                 117.57(1)
_cell_angle_gamma                90
_cell_volume                     1256.63
loop_
_atom_site_label
_atom_site_type_symbol
_atom_site_fract_x
_atom_site_fract_y
_atom_site_fract_z
C1 C -0.2481(5) 0.5176(6) 0.2342(4)
O1 O -0.1711(3) 0.5422(4) 0.1775(3)
C2 C -0.0619(4) 0.6146(5) 0.2608(4)
C3 C -0.0769(4) 0.7703(5) 0.2464(4)
N1 N 0.0320(4) 0.8437(4) 0.3129(3)
C4 C 0.1592(4) 0.7818(5) 0.3872(4)
C5 C 0.1814(4) 0.7213(5) 0.5091(4)
N2 N 0.1788(3) 0.5697(4) 0.5156(3)
C6 C 0.0716(4) 0.4913(5) 0.4628(4)
C7 C -0.0513(4) 0.5731(5) 0.3874(4)
O2 O -0.1600(3) 0.4871(4) 0.3567(3)
O3 O -0.1801(3) 0.8241(4) 0.1811(3)
O4 O 0.0700(3) 0.3653(4) 0.4698(3)
C8 C -0.3337(4) 0.3918(6) 0.1786(4)
C9 C -0.4655(5) 0.4095(6) 0.1342(4)
C10 C -0.5469(5) 0.2981(8) 0.0839(4)
C11 C -0.4971(6) 0.1713(7) 0.0791(4)
C12 C -0.3658(6) 0.1553(7) 0.1230(4)
C13 C -0.2854(5) 0.2654(6) 0.1716(4)
C14 C 0.0230(4) 0.9954(5) 0.3121(4)
C15 C 0.0579(4) 1.0627(5) 0.2221(4)
C16 C 0.0749(4) 0.9878(6) 0.1360(4)
C17 C 0.1106(5) 1.0532(6) 0.0565(4)
C18 C 0.1278(4) 1.1941(6) 0.0625(4)
C19 C 0.1098(5) 1.2716(6) 0.1470(5)
C20 C 0.0744(5) 1.2061(5) 0.2265(4)
C21 C 0.3033(4) 0.4994(6) 0.5900(4)
C22 C 0.3940(4) 0.5089(5) 0.5359(4)
C23 C 0.3622(5) 0.4472(6) 0.4257(4)
C24 C 0.4464(5) 0.4522(6) 0.3765(5)
C25 C 0.5631(5) 0.5170(6) 0.4366(5)
C26 C 0.5958(5) 0.5803(6) 0.5456(5)
C27 C 0.5120(5) 0.5751(6) 0.5955(5)
H1 H -0.300(5) 0.610(7) 0.230(5)
H2 H 0.019(6) 0.578(8) 0.253(6)
H3 H 0.215(6) 0.857(7) 0.393(5)
H4 H 0.177(5) 0.720(6) 0.342(5)
H5 H 0.122(4) 0.762(5) 0.537(4)
H6 H 0.261(6) 0.749(6) 0.566(5)
H7 H -0.056(4) 0.657(7) 0.429(4)
H8 H -0.494(6) 0.494(7) 0.130(5)
H9 H -0.632(6) 0.318(7) 0.053(5)
H10 H -0.559(9) 0.080(11) 0.051(8)
H11 H -0.332(7) 0.070(9) 0.124(7)
H12 H -0.187(7) 0.255(8) 0.206(6)
H13 H 0.083(5) 1.019(7) 0.390(5)
H14 H -0.063(6) 1.021(8) 0.289(5)
H15 H 0.063(5) 0.892(6) 0.130(5)
H16 H 0.122(5) 0.997(7) 0.002(5)
H17 H 0.157(5) 1.235(5) 0.014(4)
H18 H 0.120(6) 1.382(7) 0.153(5)
H19 H 0.064(5) 1.257(6) 0.283(5)
H20 H 0.286(5) 0.402(6) 0.605(5)
H21 H 0.344(5) 0.546(6) 0.670(4)
H22 H 0.287(7) 0.407(8) 0.391(6)
H23 H 0.422(5) 0.412(6) 0.306(5)
H24 H 0.621(8) 0.516(10) 0.400(7)
H25 H 0.671(6) 0.639(7) 0.590(5)
H26 H 0.539(6) 0.621(8) 0.672(6)
C1 C 1.2481(5) 0.0176(6) 0.7658(4)
O1 O 1.1711(3) 0.0422(4) 0.8225(3)
C2 C 1.0619(4) 0.1146(5) 0.7392(4)
C3 C 1.0769(4) 0.2703(5) 0.7536(4)
N1 N 0.9680(4) 0.3437(4) 0.6871(3)
C4 C 0.8408(4) 0.2818(5) 0.6128(4)
C5 C 0.8186(4) 0.2213(5) 0.4909(4)
N2 N 0.8212(3) 0.0697(4) 0.4844(3)
C6 C 0.9284(4) -0.0087(5) 0.5372(4)
C7 C 1.0513(4) 0.0731(5) 0.6126(4)
O2 O 1.1600(3) -0.0129(4) 0.6433(3)
O3 O 1.1801(3) 0.3241(4) 0.8189(3)
O4 O 0.9300(3) -0.1347(4) 0.5302(3)
C8 C 1.3337(4) -0.1082(6) 0.8214(4)
C9 C 1.4655(5) -0.0905(6) 0.8658(4)
C10 C 1.5469(5) -0.2019(8) 0.9161(4)
C11 C 1.4971(6) -0.3287(7) 0.9209(4)
C12 C 1.3658(6) -0.3447(7) 0.8770(4)
C13 C 1.2854(5) -0.2346(6) 0.8284(4)
C14 C 0.9770(4) 0.4954(5) 0.6879(4)
C15 C 0.9421(4) 0.5627(5) 0.7779(4)
C16 C 0.9251(4) 0.4878(6) 0.8640(4)
C17 C 0.8894(5) 0.5532(6) 0.9435(4)
C18 C 0.8722(4) 0.6941(6) 0.9375(4)
C19 C 0.8902(5) 0.7716(6) 0.8530(5)
C20 C 0.9256(5) 0.7061(5) 0.7735(4)
C21 C 0.6967(4) -0.0006(6) 0.4100(4)
C22 C 0.6060(4) 0.0089(5) 0.4641(4)
C23 C 0.6378(5) -0.0528(6) 0.5743(4)
C24 C 0.5536(5) -0.0478(6) 0.6235(5)
C25 C 0.4369(5) 0.0170(6) 0.5634(5)
C26 C 0.4042(5) 0.0803(6) 0.4544(5)
C27 C 0.4880(5) 0.0751(6) 0.4045(5)
H1 H 1.300(5) 0.110(7) 0.770(5)
H2 H 0.981(6) 0.078(8) 0.747(6)
H3 H 0.785(6) 0.357(7) 0.607(5)
H4 H 0.823(5) 0.220(6) 0.658(5)
H5 H 0.878(4) 0.262(5) 0.463(4)
H6 H 0.739(6) 0.249(6) 0.434(5)
H7 H 1.056(4) 0.157(7) 0.571(4)
H8 H 1.494(6) -0.006(7) 0.870(5)
H9 H 1.632(6) -0.182(7) 0.947(5)
H10 H 1.559(9) -0.420(11) 0.949(8)
H11 H 1.332(7) -0.430(9) 0.876(7)
H12 H 1.187(7) -0.245(8) 0.794(6)
H13 H 0.917(5) 0.519(7) 0.610(5)
H14 H 1.063(6) 0.521(8) 0.711(5)
H15 H 0.937(5) 0.392(6) 0.870(5)
H16 H 0.878(5) 0.497(7) 0.998(5)
H17 H 0.843(5) 0.735(5) 0.986(4)
H18 H 0.880(6) 0.882(7) 0.847(5)
H19 H 0.936(5) 0.757(6) 0.717(5)
H20 H 0.714(5) -0.098(6) 0.395(5)
H21 H 0.656(5) 0.046(6) 0.330(4)
H22 H 0.713(7) -0.093(8) 0.609(6)
H23 H 0.578(5) -0.088(6) 0.694(5)
H24 H 0.379(8) 0.016(10) 0.600(7)
H25 H 0.329(6) 0.139(7) 0.410(5)
H26 H 0.461(6) 0.121(8) 0.328(6)
Cl1 Cl 0.4720(1) 0.8024 0.1751(1)
C28 C 0.3521(5) 0.7739(6) 0.2203(4)
Cl2 Cl 0.2295(1) 0.6628(2) 0.1189(1)
H27 H 0.314(7) 0.871(8) 0.221(6)
H28 H 0.395(5) 0.735(6) 0.294(5)
Cl1 Cl 0.5280(1) 0.3024 0.8249(1)
C28 C 0.6479(5) 0.2739(6) 0.7797(4)
Cl2 Cl 0.7705(1) 0.1628(2) 0.8811(1)
H27 H 0.686(7) 0.371(8) 0.779(6)
H28 H 0.605(5) 0.235(6) 0.706(5)

#END
