./LACROW_from_xyz.cif_generated_by_CrystalShift
_symmetry_cell_setting triclinic
_symmetry_space_group_name_H-M 'P 1'
loop_
_symmetry_equiv_pos_site_id
_symmetry_equiv_pos_as_xyz
1 x,y,z
_cell_length_a 11.724000
_cell_length_b 9.667000
_cell_length_c 12.508000
_cell_angle_alpha 90.000000
_cell_angle_beta 117.570000
_cell_angle_gamma 90.000000
_cell_volume 1256.630807
loop_
_atom_site_label
_atom_site_type_symbol
_atom_site_fract_x
_atom_site_fract_y
_atom_site_fract_z
C1 C -0.248100 0.517600 0.234200
O2 O -0.171100 0.542200 0.177500
C3 C -0.061900 0.614600 0.260800
C4 C -0.076900 0.770300 0.246400
N5 N 0.032000 0.843700 0.312900
C6 C 0.159200 0.781800 0.387200
C7 C 0.181400 0.721300 0.509100
N8 N 0.178800 0.569700 0.515600
C9 C 0.071600 0.491300 0.462800
C10 C -0.051300 0.573100 0.387400
O11 O -0.160000 0.487100 0.356700
O12 O -0.180100 0.824100 0.181100
O13 O 0.070000 0.365300 0.469800
C14 C -0.333700 0.391800 0.178600
C15 C -0.465500 0.409500 0.134200
C16 C -0.546900 0.298100 0.083900
C17 C -0.497100 0.171300 0.079100
C18 C -0.365800 0.155300 0.123000
C19 C -0.285400 0.265400 0.171600
C20 C 0.023000 0.995400 0.312100
C21 C 0.057900 1.062700 0.222100
C22 C 0.074900 0.987800 0.136000
C23 C 0.110600 1.053200 0.056500
C24 C 0.127800 1.194100 0.062500
C25 C 0.109800 1.271600 0.147000
C26 C 0.074400 1.206100 0.226500
C27 C 0.303300 0.499400 0.590000
C28 C 0.394000 0.508900 0.535900
C29 C 0.362200 0.447200 0.425700
C30 C 0.446400 0.452200 0.376500
C31 C 0.563100 0.517000 0.436600
C32 C 0.595800 0.580300 0.545600
C33 C 0.512000 0.575100 0.595500
H34 H -0.300000 0.610000 0.230000
H35 H 0.019000 0.578000 0.253000
H36 H 0.215000 0.857000 0.393000
H37 H 0.177000 0.720000 0.342000
H38 H 0.122000 0.762000 0.537000
H39 H 0.261000 0.749000 0.566000
H40 H -0.056000 0.657000 0.429000
H41 H -0.494000 0.494000 0.130000
H42 H -0.632000 0.318000 0.053000
H43 H -0.559000 0.080000 0.051000
H44 H -0.332000 0.070000 0.124000
H45 H -0.187000 0.255000 0.206000
H46 H 0.083000 1.019000 0.390000
H47 H -0.063000 1.021000 0.289000
H48 H 0.063000 0.892000 0.130000
H49 H 0.122000 0.997000 0.002000
H50 H 0.157000 1.235000 0.014000
H51 H 0.120000 1.382000 0.153000
H52 H 0.064000 1.257000 0.283000
H53 H 0.286000 0.402000 0.605000
H54 H 0.344000 0.546000 0.670000
H55 H 0.287000 0.407000 0.391000
H56 H 0.422000 0.412000 0.306000
H57 H 0.621000 0.516000 0.400000
H58 H 0.671000 0.639000 0.590000
H59 H 0.539000 0.621000 0.672000
C60 C 1.248100 0.017600 0.765800
O61 O 1.171100 0.042200 0.822500
C62 C 1.061900 0.114600 0.739200
C63 C 1.076900 0.270300 0.753600
N64 N 0.968000 0.343700 0.687100
C65 C 0.840800 0.281800 0.612800
C66 C 0.818600 0.221300 0.490900
N67 N 0.821200 0.069700 0.484400
C68 C 0.928400 -0.008700 0.537200
C69 C 1.051300 0.073100 0.612600
O70 O 1.160000 -0.012900 0.643300
O71 O 1.180100 0.324100 0.818900
O72 O 0.930000 -0.134700 0.530200
C73 C 1.333700 -0.108200 0.821400
C74 C 1.465500 -0.090500 0.865800
C75 C 1.546900 -0.201900 0.916100
C76 C 1.497100 -0.328700 0.920900
C77 C 1.365800 -0.344700 0.877000
C78 C 1.285400 -0.234600 0.828400
C79 C 0.977000 0.495400 0.687900
C80 C 0.942100 0.562700 0.777900
C81 C 0.925100 0.487800 0.864000
C82 C 0.889400 0.553200 0.943500
C83 C 0.872200 0.694100 0.937500
C84 C 0.890200 0.771600 0.853000
C85 C 0.925600 0.706100 0.773500
C86 C 0.696700 -0.000600 0.410000
C87 C 0.606000 0.008900 0.464100
C88 C 0.637800 -0.052800 0.574300
C89 C 0.553600 -0.047800 0.623500
C90 C 0.436900 0.017000 0.563400
C91 C 0.404200 0.080300 0.454400
C92 C 0.488000 0.075100 0.404500
H93 H 1.300000 0.110000 0.770000
H94 H 0.981000 0.078000 0.747000
H95 H 0.785000 0.357000 0.607000
H96 H 0.823000 0.220000 0.658000
H97 H 0.878000 0.262000 0.463000
H98 H 0.739000 0.249000 0.434000
H99 H 1.056000 0.157000 0.571000
H100 H 1.494000 -0.006000 0.870000
H101 H 1.632000 -0.182000 0.947000
H102 H 1.559000 -0.420000 0.949000
H103 H 1.332000 -0.430000 0.876000
H104 H 1.187000 -0.245000 0.794000
H105 H 0.917000 0.519000 0.610000
H106 H 1.063000 0.521000 0.711000
H107 H 0.937000 0.392000 0.870000
H108 H 0.878000 0.497000 0.998000
H109 H 0.843000 0.735000 0.986000
H110 H 0.880000 0.882000 0.847000
H111 H 0.936000 0.757000 0.717000
H112 H 0.714000 -0.098000 0.395000
H113 H 0.656000 0.046000 0.330000
H114 H 0.713000 -0.093000 0.609000
H115 H 0.578000 -0.088000 0.694000
H116 H 0.379000 0.016000 0.600000
H117 H 0.329000 0.139000 0.410000
H118 H 0.461000 0.121000 0.328000
Cl119 Cl 0.472000 0.802400 0.175100
C120 C 0.352100 0.773900 0.220300
Cl121 Cl 0.229500 0.662800 0.118900
H122 H 0.314000 0.871000 0.221000
H123 H 0.395000 0.735000 0.294000
Cl124 Cl 0.528000 0.302400 0.824900
C125 C 0.647900 0.273900 0.779700
Cl126 Cl 0.770500 0.162800 0.881100
H127 H 0.686000 0.371000 0.779000
H128 H 0.605000 0.235000 0.706000

#END
