./LACRUC_from_xyz.cif_generated_by_CrystalShift
_symmetry_cell_setting triclinic
_symmetry_space_group_name_H-M 'P 1'
loop_
_symmetry_equiv_pos_site_id
_symmetry_equiv_pos_as_xyz
1 x,y,z
_cell_length_a 8.463000
_cell_length_b 8.302000
_cell_length_c 17.771000
_cell_angle_alpha 90.000000
_cell_angle_beta 90.000000
_cell_angle_gamma 90.000000
_cell_volume 1248.587368
loop_
_atom_site_label
_atom_site_type_symbol
_atom_site_fract_x
_atom_site_fract_y
_atom_site_fract_z
O1 O 0.964900 0.394600 0.364600
C2 C 0.832400 0.501800 0.367800
O3 O 0.847900 0.602200 0.302500
C4 C 1.006700 0.595800 0.277100
C5 C 1.091000 0.486800 0.335000
C6 C 0.681900 0.407400 0.368000
C7 C 0.611400 0.371300 0.436400
C8 C 0.476600 0.274500 0.438600
C9 C 0.412900 0.218300 0.372200
C10 C 0.482300 0.254700 0.303900
C11 C 0.616900 0.350100 0.301400
C12 C 1.016500 0.528400 0.198200
O13 O 0.908000 0.481000 0.160800
O14 O 1.167400 0.528800 0.176900
C15 C 1.201100 0.473100 0.101700
C16 C 1.173800 0.587200 0.395100
O17 O 1.128300 0.606900 0.458100
O18 O 1.304400 0.650600 0.365500
C19 C 1.392600 0.757300 0.414100
H20 H 0.843000 0.566000 0.415000
H21 H 1.049000 0.699000 0.275000
H22 H 1.170000 0.415000 0.313000
H23 H 0.654000 0.409000 0.482000
H24 H 0.433000 0.247000 0.485000
H25 H 0.323000 0.152000 0.371000
H26 H 0.440000 0.218000 0.255000
H27 H 0.672000 0.377000 0.250000
H28 H 1.190000 0.371000 0.099000
H29 H 1.125000 0.530000 0.066000
H30 H 1.310000 0.504000 0.086000
H31 H 1.441000 0.706000 0.456000
H32 H 1.483000 0.804000 0.379000
H33 H 1.321000 0.845000 0.435000
O34 O 0.464900 0.105400 0.635400
C35 C 0.332400 -0.001800 0.632200
O36 O 0.347900 -0.102200 0.697500
C37 C 0.506700 -0.095800 0.722900
C38 C 0.591000 0.013200 0.665000
C39 C 0.181900 0.092600 0.632000
C40 C 0.111400 0.128700 0.563600
C41 C -0.023400 0.225500 0.561400
C42 C -0.087100 0.281700 0.627800
C43 C -0.017700 0.245300 0.696100
C44 C 0.116900 0.149900 0.698600
C45 C 0.516500 -0.028400 0.801800
O46 O 0.408000 0.019000 0.839200
O47 O 0.667400 -0.028800 0.823100
C48 C 0.701100 0.026900 0.898300
C49 C 0.673800 -0.087200 0.604900
O50 O 0.628300 -0.106900 0.541900
O51 O 0.804400 -0.150600 0.634500
C52 C 0.892600 -0.257300 0.585900
H53 H 0.343000 -0.066000 0.585000
H54 H 0.549000 -0.199000 0.725000
H55 H 0.670000 0.085000 0.687000
H56 H 0.154000 0.091000 0.518000
H57 H -0.067000 0.253000 0.515000
H58 H -0.177000 0.348000 0.629000
H59 H -0.060000 0.282000 0.745000
H60 H 0.172000 0.123000 0.750000
H61 H 0.690000 0.129000 0.901000
H62 H 0.625000 -0.030000 0.934000
H63 H 0.810000 -0.004000 0.914000
H64 H 0.941000 -0.206000 0.544000
H65 H 0.983000 -0.304000 0.621000
H66 H 0.821000 -0.345000 0.565000
O67 O 0.035100 0.894600 0.135400
C68 C 0.167600 1.001800 0.132200
O69 O 0.152100 1.102200 0.197500
C70 C -0.006700 1.095800 0.222900
C71 C -0.091000 0.986800 0.165000
C72 C 0.318100 0.907400 0.132000
C73 C 0.388600 0.871300 0.063600
C74 C 0.523400 0.774500 0.061400
C75 C 0.587100 0.718300 0.127800
C76 C 0.517700 0.754700 0.196100
C77 C 0.383100 0.850100 0.198600
C78 C -0.016500 1.028400 0.301800
O79 O 0.092000 0.981000 0.339200
O80 O -0.167400 1.028800 0.323100
C81 C -0.201100 0.973100 0.398300
C82 C -0.173800 1.087200 0.104900
O83 O -0.128300 1.106900 0.041900
O84 O -0.304400 1.150600 0.134500
C85 C -0.392600 1.257300 0.085900
H86 H 0.157000 1.066000 0.085000
H87 H -0.049000 1.199000 0.225000
H88 H -0.170000 0.915000 0.187000
H89 H 0.346000 0.909000 0.018000
H90 H 0.567000 0.747000 0.015000
H91 H 0.677000 0.652000 0.129000
H92 H 0.560000 0.718000 0.245000
H93 H 0.328000 0.877000 0.250000
H94 H -0.190000 0.871000 0.401000
H95 H -0.125000 1.030000 0.434000
H96 H -0.310000 1.004000 0.414000
H97 H -0.441000 1.206000 0.044000
H98 H -0.483000 1.304000 0.121000
H99 H -0.321000 1.345000 0.065000
O100 O 0.535100 0.605400 0.864600
C101 C 0.667600 0.498200 0.867800
O102 O 0.652100 0.397800 0.802500
C103 C 0.493300 0.404200 0.777100
C104 C 0.409000 0.513200 0.835000
C105 C 0.818100 0.592600 0.868000
C106 C 0.888600 0.628700 0.936400
C107 C 1.023400 0.725500 0.938600
C108 C 1.087100 0.781700 0.872200
C109 C 1.017700 0.745300 0.803900
C110 C 0.883100 0.649900 0.801400
C111 C 0.483500 0.471600 0.698200
O112 O 0.592000 0.519000 0.660800
O113 O 0.332600 0.471200 0.676900
C114 C 0.298900 0.526900 0.601700
C115 C 0.326200 0.412800 0.895100
O116 O 0.371700 0.393100 0.958100
O117 O 0.195600 0.349400 0.865500
C118 C 0.107400 0.242700 0.914100
H119 H 0.657000 0.434000 0.915000
H120 H 0.451000 0.301000 0.775000
H121 H 0.330000 0.585000 0.813000
H122 H 0.846000 0.591000 0.982000
H123 H 1.067000 0.753000 0.985000
H124 H 1.177000 0.848000 0.871000
H125 H 1.060000 0.782000 0.755000
H126 H 0.828000 0.623000 0.750000
H127 H 0.310000 0.629000 0.599000
H128 H 0.375000 0.470000 0.566000
H129 H 0.190000 0.496000 0.586000
H130 H 0.059000 0.294000 0.956000
H131 H 0.017000 0.196000 0.879000
H132 H 0.179000 0.155000 0.935000

#END
