./LACSUG_from_xyz.cif_generated_by_CrystalShift
_symmetry_cell_setting triclinic
_symmetry_space_group_name_H-M 'P 1'
loop_
_symmetry_equiv_pos_site_id
_symmetry_equiv_pos_as_xyz
1 x,y,z
_cell_length_a 8.487000
_cell_length_b 12.008000
_cell_length_c 10.786000
_cell_angle_alpha 90.000000
_cell_angle_beta 102.885000
_cell_angle_gamma 90.000000
_cell_volume 1071.542847
loop_
_atom_site_label
_atom_site_type_symbol
_atom_site_fract_x
_atom_site_fract_y
_atom_site_fract_z
O1 O 0.366800 1.093850 1.032950
H2 H 0.408700 1.151700 1.015800
O3 O 0.253000 1.101500 0.825600
O4 O 0.033500 0.958810 0.728710
H5 H 0.095200 1.011500 0.729800
N6 N -0.091900 0.671910 0.992700
H7 H -0.162000 0.645500 0.929400
H8 H -0.077000 0.640300 1.065900
C9 C 0.267500 1.055600 0.930100
C10 C 0.177500 0.955300 0.948400
C11 C 0.062000 0.910760 0.845300
C12 C -0.026100 0.816930 0.859300
H13 H -0.100600 0.788900 0.789700
C14 C -0.004700 0.763680 0.977000
C15 C 0.109100 0.807900 1.081000
H16 H 0.124800 0.773900 1.160300
C17 C 0.196500 0.900900 1.065900
H18 H 0.270700 0.928800 1.135700
O19 O 0.633200 0.593850 0.467050
H20 H 0.591300 0.651700 0.484200
O21 O 0.747000 0.601500 0.674400
O22 O 0.966500 0.458810 0.771290
H23 H 0.904800 0.511500 0.770200
N24 N 1.091900 0.171910 0.507300
H25 H 1.162000 0.145500 0.570600
H26 H 1.077000 0.140300 0.434100
C27 C 0.732500 0.555600 0.569900
C28 C 0.822500 0.455300 0.551600
C29 C 0.938000 0.410760 0.654700
C30 C 1.026100 0.316930 0.640700
H31 H 1.100600 0.288900 0.710300
C32 C 1.004700 0.263680 0.523000
C33 C 0.890900 0.307900 0.419000
H34 H 0.875200 0.273900 0.339700
C35 C 0.803500 0.400900 0.434100
H36 H 0.729300 0.428800 0.364300
O37 O 0.633200 -0.093850 -0.032950
H38 H 0.591300 -0.151700 -0.015800
O39 O 0.747000 -0.101500 0.174400
O40 O 0.966500 0.041190 0.271290
H41 H 0.904800 -0.011500 0.270200
N42 N 1.091900 0.328090 0.007300
H43 H 1.162000 0.354500 0.070600
H44 H 1.077000 0.359700 -0.065900
C45 C 0.732500 -0.055600 0.069900
C46 C 0.822500 0.044700 0.051600
C47 C 0.938000 0.089240 0.154700
C48 C 1.026100 0.183070 0.140700
H49 H 1.100600 0.211100 0.210300
C50 C 1.004700 0.236320 0.023000
C51 C 0.890900 0.192100 -0.081000
H52 H 0.875200 0.226100 -0.160300
C53 C 0.803500 0.099100 -0.065900
H54 H 0.729300 0.071200 -0.135700
O55 O 0.366800 0.406150 0.532950
H56 H 0.408700 0.348300 0.515800
O57 O 0.253000 0.398500 0.325600
O58 O 0.033500 0.541190 0.228710
H59 H 0.095200 0.488500 0.229800
N60 N -0.091900 0.828090 0.492700
H61 H -0.162000 0.854500 0.429400
H62 H -0.077000 0.859700 0.565900
C63 C 0.267500 0.444400 0.430100
C64 C 0.177500 0.544700 0.448400
C65 C 0.062000 0.589240 0.345300
C66 C -0.026100 0.683070 0.359300
H67 H -0.100600 0.711100 0.289700
C68 C -0.004700 0.736320 0.477000
C69 C 0.109100 0.692100 0.581000
H70 H 0.124800 0.726100 0.660300
C71 C 0.196500 0.599100 0.565900
H72 H 0.270700 0.571200 0.635700
N73 N 0.513400 0.221340 0.481100
N74 N 0.680100 0.031750 0.431100
C75 C 0.623200 0.171400 0.571200
H76 H 0.645200 0.200000 0.653300
C77 C 0.705300 0.078100 0.545800
H78 H 0.781600 0.046200 0.611600
C79 C 0.570200 0.082700 0.340400
H80 H 0.548900 0.054100 0.258200
C81 C 0.487400 0.176600 0.365100
H82 H 0.411800 0.209100 0.299300
N83 N 0.486600 0.721340 0.018900
N84 N 0.319900 0.531750 0.068900
C85 C 0.376800 0.671400 -0.071200
H86 H 0.354800 0.700000 -0.153300
C87 C 0.294700 0.578100 -0.045800
H88 H 0.218400 0.546200 -0.111600
C89 C 0.429800 0.582700 0.159600
H90 H 0.451100 0.554100 0.241800
C91 C 0.512600 0.676600 0.134900
H92 H 0.588200 0.709100 0.200700
N93 N 0.486600 0.778660 0.518900
N94 N 0.319900 0.968250 0.568900
C95 C 0.376800 0.828600 0.428800
H96 H 0.354800 0.800000 0.346700
C97 C 0.294700 0.921900 0.454200
H98 H 0.218400 0.953800 0.388400
C99 C 0.429800 0.917300 0.659600
H100 H 0.451100 0.945900 0.741800
C101 C 0.512600 0.823400 0.634900
H102 H 0.588200 0.790900 0.700700
N103 N 0.513400 0.278660 0.981100
N104 N 0.680100 0.468250 0.931100
C105 C 0.623200 0.328600 1.071200
H106 H 0.645200 0.300000 1.153300
C107 C 0.705300 0.421900 1.045800
H108 H 0.781600 0.453800 1.111600
C109 C 0.570200 0.417300 0.840400
H110 H 0.548900 0.445900 0.758200
C111 C 0.487400 0.323400 0.865100
H112 H 0.411800 0.290900 0.799300

#END
