
#######################################################################
#
#                 Cambridge Crystallographic Data Centre
#                                CCDC 
#
#######################################################################
#
# If this CIF has been generated from an entry in the Cambridge 
# Structural Database, then it will include bibliographic, chemical, 
# crystal, experimental, refinement or atomic coordinate data resulting 
# from the CCDC's data processing and validation procedures.
#
#######################################################################

data_LACVUJ
_symmetry_cell_setting           orthorhombic
_symmetry_space_group_name_H-M   'P b c a'
_symmetry_Int_Tables_number      61
_space_group_name_Hall           '-P 2ac 2ab'
loop_
_symmetry_equiv_pos_site_id
_symmetry_equiv_pos_as_xyz
1 x,y,z
2 1/2-x,-y,1/2+z
3 -x,1/2+y,1/2-z
4 1/2+x,1/2-y,-z
5 -x,-y,-z
6 1/2+x,y,1/2-z
7 x,1/2-y,1/2+z
8 1/2-x,1/2+y,z
_cell_length_a                   8.4985(19)
_cell_length_b                   12.547(3)
_cell_length_c                   22.278(5)
_cell_angle_alpha                90
_cell_angle_beta                 90
_cell_angle_gamma                90
_cell_volume                     2375.52
loop_
_atom_site_label
_atom_site_type_symbol
_atom_site_fract_x
_atom_site_fract_y
_atom_site_fract_z
O1 O 1.1434(2) -0.05952(13) 0.11725(8)
O2 O 1.1306(2) 0.07875(14) 0.05525(8)
O3 O 0.9895(2) -0.05819(12) 0.21580(8)
N1 N 0.7146(3) 0.2580(2) 0.26955(11)
C1 C 0.7977(3) 0.19997(17) 0.22860(10)
C2 C 0.9891(3) 0.08899(17) 0.14613(10)
C3 C 0.9419(3) 0.04171(16) 0.20054(10)
C4 C 0.8476(3) 0.09626(17) 0.24044(10)
H1 H 0.8166 0.0632 0.2759
C5 C 0.9326(3) 0.19151(18) 0.13433(10)
H2 H 0.9585 0.2235 0.0980
C6 C 1.0939(3) 0.03245(19) 0.10377(11)
C7 C 0.8411(3) 0.24647(18) 0.17397(10)
H3 H 0.8074 0.3150 0.1647
H4 H 1.052(4) -0.077(2) 0.1809(15)
H5 H 0.668(3) 0.224(2) 0.2974(12)
H6 H 0.665(3) 0.319(2) 0.2570(13)
O1 O 0.3566(2) 1.05952(13) 0.61725(8)
O2 O 0.3694(2) 0.92125(14) 0.55525(8)
O3 O 0.5105(2) 1.05819(12) 0.71580(8)
N1 N 0.7854(3) 0.7420(2) 0.76955(11)
C1 C 0.7023(3) 0.80003(17) 0.72860(10)
C2 C 0.5109(3) 0.91101(17) 0.64613(10)
C3 C 0.5581(3) 0.95829(16) 0.70054(10)
C4 C 0.6524(3) 0.90374(17) 0.74044(10)
H1 H 0.6834 0.9368 0.7759
C5 C 0.5674(3) 0.80849(18) 0.63433(10)
H2 H 0.5415 0.7765 0.5980
C6 C 0.4061(3) 0.96755(19) 0.60377(11)
C7 C 0.6589(3) 0.75353(18) 0.67397(10)
H3 H 0.6926 0.6850 0.6647
H4 H 0.448(4) 1.077(2) 0.6809(15)
H5 H 0.832(3) 0.776(2) 0.7974(12)
H6 H 0.835(3) 0.681(2) 0.7570(13)
O1 O -0.1434(2) 0.44048(13) 0.38275(8)
O2 O -0.1306(2) 0.57875(14) 0.44475(8)
O3 O 0.0105(2) 0.44181(12) 0.28420(8)
N1 N 0.2854(3) 0.7580(2) 0.23045(11)
C1 C 0.2023(3) 0.69997(17) 0.27140(10)
C2 C 0.0109(3) 0.58899(17) 0.35387(10)
C3 C 0.0581(3) 0.54171(16) 0.29946(10)
C4 C 0.1524(3) 0.59626(17) 0.25956(10)
H1 H 0.1834 0.5632 0.2241
C5 C 0.0674(3) 0.69151(18) 0.36567(10)
H2 H 0.0415 0.7235 0.4020
C6 C -0.0939(3) 0.53245(19) 0.39623(11)
C7 C 0.1589(3) 0.74647(18) 0.32603(10)
H3 H 0.1926 0.8150 0.3353
H4 H -0.052(4) 0.423(2) 0.3191(15)
H5 H 0.332(3) 0.724(2) 0.2026(12)
H6 H 0.335(3) 0.819(2) 0.2430(13)
O1 O 0.6434(2) 0.55952(13) 0.88275(8)
O2 O 0.6306(2) 0.42125(14) 0.94475(8)
O3 O 0.4895(2) 0.55819(12) 0.78420(8)
N1 N 0.2146(3) 0.2420(2) 0.73045(11)
C1 C 0.2977(3) 0.30003(17) 0.77140(10)
C2 C 0.4891(3) 0.41101(17) 0.85387(10)
C3 C 0.4419(3) 0.45829(16) 0.79946(10)
C4 C 0.3476(3) 0.40374(17) 0.75956(10)
H1 H 0.3166 0.4368 0.7241
C5 C 0.4326(3) 0.30849(18) 0.86567(10)
H2 H 0.4585 0.2765 0.9020
C6 C 0.5939(3) 0.46755(19) 0.89623(11)
C7 C 0.3411(3) 0.25353(18) 0.82603(10)
H3 H 0.3074 0.1850 0.8353
H4 H 0.552(4) 0.577(2) 0.8191(15)
H5 H 0.168(3) 0.276(2) 0.7026(12)
H6 H 0.165(3) 0.181(2) 0.7430(13)
O1 O -0.1434(2) 1.05952(13) 0.88275(8)
O2 O -0.1306(2) 0.92125(14) 0.94475(8)
O3 O 0.0105(2) 1.05819(12) 0.78420(8)
N1 N 0.2854(3) 0.7420(2) 0.73045(11)
C1 C 0.2023(3) 0.80003(17) 0.77140(10)
C2 C 0.0109(3) 0.91101(17) 0.85387(10)
C3 C 0.0581(3) 0.95829(16) 0.79946(10)
C4 C 0.1524(3) 0.90374(17) 0.75956(10)
H1 H 0.1834 0.9368 0.7241
C5 C 0.0674(3) 0.80849(18) 0.86567(10)
H2 H 0.0415 0.7765 0.9020
C6 C -0.0939(3) 0.96755(19) 0.89623(11)
C7 C 0.1589(3) 0.75353(18) 0.82603(10)
H3 H 0.1926 0.6850 0.8353
H4 H -0.052(4) 1.077(2) 0.8191(15)
H5 H 0.332(3) 0.776(2) 0.7026(12)
H6 H 0.335(3) 0.681(2) 0.7430(13)
O1 O 0.6434(2) -0.05952(13) 0.38275(8)
O2 O 0.6306(2) 0.07875(14) 0.44475(8)
O3 O 0.4895(2) -0.05819(12) 0.28420(8)
N1 N 0.2146(3) 0.2580(2) 0.23045(11)
C1 C 0.2977(3) 0.19997(17) 0.27140(10)
C2 C 0.4891(3) 0.08899(17) 0.35387(10)
C3 C 0.4419(3) 0.04171(16) 0.29946(10)
C4 C 0.3476(3) 0.09626(17) 0.25956(10)
H1 H 0.3166 0.0632 0.2241
C5 C 0.4326(3) 0.19151(18) 0.36567(10)
H2 H 0.4585 0.2235 0.4020
C6 C 0.5939(3) 0.03245(19) 0.39623(11)
C7 C 0.3411(3) 0.24647(18) 0.32603(10)
H3 H 0.3074 0.3150 0.3353
H4 H 0.552(4) -0.077(2) 0.3191(15)
H5 H 0.168(3) 0.224(2) 0.2026(12)
H6 H 0.165(3) 0.319(2) 0.2430(13)
O1 O 1.1434(2) 0.55952(13) 0.61725(8)
O2 O 1.1306(2) 0.42125(14) 0.55525(8)
O3 O 0.9895(2) 0.55819(12) 0.71580(8)
N1 N 0.7146(3) 0.2420(2) 0.76955(11)
C1 C 0.7977(3) 0.30003(17) 0.72860(10)
C2 C 0.9891(3) 0.41101(17) 0.64613(10)
C3 C 0.9419(3) 0.45829(16) 0.70054(10)
C4 C 0.8476(3) 0.40374(17) 0.74044(10)
H1 H 0.8166 0.4368 0.7759
C5 C 0.9326(3) 0.30849(18) 0.63433(10)
H2 H 0.9585 0.2765 0.5980
C6 C 1.0939(3) 0.46755(19) 0.60377(11)
C7 C 0.8411(3) 0.25353(18) 0.67397(10)
H3 H 0.8074 0.1850 0.6647
H4 H 1.052(4) 0.577(2) 0.6809(15)
H5 H 0.668(3) 0.276(2) 0.7974(12)
H6 H 0.665(3) 0.181(2) 0.7570(13)
O1 O 0.3566(2) 0.44048(13) 0.11725(8)
O2 O 0.3694(2) 0.57875(14) 0.05525(8)
O3 O 0.5105(2) 0.44181(12) 0.21580(8)
N1 N 0.7854(3) 0.7580(2) 0.26955(11)
C1 C 0.7023(3) 0.69997(17) 0.22860(10)
C2 C 0.5109(3) 0.58899(17) 0.14613(10)
C3 C 0.5581(3) 0.54171(16) 0.20054(10)
C4 C 0.6524(3) 0.59626(17) 0.24044(10)
H1 H 0.6834 0.5632 0.2759
C5 C 0.5674(3) 0.69151(18) 0.13433(10)
H2 H 0.5415 0.7235 0.0980
C6 C 0.4061(3) 0.53245(19) 0.10377(11)
C7 C 0.6589(3) 0.74647(18) 0.17397(10)
H3 H 0.6926 0.8150 0.1647
H4 H 0.448(4) 0.423(2) 0.1809(15)
H5 H 0.832(3) 0.724(2) 0.2974(12)
H6 H 0.835(3) 0.819(2) 0.2570(13)
N2 N 0.9868(3) 0.7853(2) 0.03972(14)
N3 N 0.8040(2) 0.52929(15) 0.01915(9)
H7 H 0.7489 0.4971 -0.0077
C8 C 0.9399(3) 0.68421(19) 0.05028(10)
C9 C 0.8379(3) 0.4781(2) 0.06975(12)
H8 H 0.8020 0.4090 0.0759
C10 C 0.8519(3) 0.62833(19) 0.00843(11)
H9 H 0.8259 0.6607 -0.0278
C11 C 0.9775(3) 0.63040(19) 0.10329(11)
H10 H 1.0378 0.6642 0.1324
C12 C 0.9260(3) 0.5281(2) 0.11276(12)
H11 H 0.9509 0.4929 0.1482
H12 H 0.955(4) 0.820(2) 0.0071(14)
H13 H 1.036(3) 0.824(2) 0.0678(13)
N2 N 0.5132(3) 0.2147(2) 0.53972(14)
N3 N 0.6960(2) 0.47071(15) 0.51915(9)
H7 H 0.7511 0.5029 0.4923
C8 C 0.5601(3) 0.31579(19) 0.55028(10)
C9 C 0.6621(3) 0.5219(2) 0.56975(12)
H8 H 0.6980 0.5910 0.5759
C10 C 0.6481(3) 0.37167(19) 0.50843(11)
H9 H 0.6741 0.3393 0.4722
C11 C 0.5225(3) 0.36960(19) 0.60329(11)
H10 H 0.4622 0.3358 0.6324
C12 C 0.5740(3) 0.4719(2) 0.61276(12)
H11 H 0.5491 0.5071 0.6482
H12 H 0.545(4) 0.180(2) 0.5071(14)
H13 H 0.464(3) 0.176(2) 0.5678(13)
N2 N 0.0132(3) 0.2853(2) 0.46028(14)
N3 N 0.1960(2) 0.02929(15) 0.48085(9)
H7 H 0.2511 -0.0029 0.5077
C8 C 0.0601(3) 0.18421(19) 0.44972(10)
C9 C 0.1621(3) -0.0219(2) 0.43025(12)
H8 H 0.1980 -0.0910 0.4241
C10 C 0.1481(3) 0.12833(19) 0.49157(11)
H9 H 0.1741 0.1607 0.5278
C11 C 0.0225(3) 0.13040(19) 0.39671(11)
H10 H -0.0378 0.1642 0.3676
C12 C 0.0740(3) 0.0281(2) 0.38724(12)
H11 H 0.0491 -0.0071 0.3518
H12 H 0.045(4) 0.320(2) 0.4929(14)
H13 H -0.036(3) 0.324(2) 0.4322(13)
N2 N 0.4868(3) 0.7147(2) 0.96028(14)
N3 N 0.3040(2) 0.97071(15) 0.98085(9)
H7 H 0.2489 1.0029 1.0077
C8 C 0.4399(3) 0.81579(19) 0.94972(10)
C9 C 0.3379(3) 1.0219(2) 0.93025(12)
H8 H 0.3020 1.0910 0.9241
C10 C 0.3519(3) 0.87167(19) 0.99157(11)
H9 H 0.3259 0.8393 1.0278
C11 C 0.4775(3) 0.86960(19) 0.89671(11)
H10 H 0.5378 0.8358 0.8676
C12 C 0.4260(3) 0.9719(2) 0.88724(12)
H11 H 0.4509 1.0071 0.8518
H12 H 0.455(4) 0.680(2) 0.9929(14)
H13 H 0.536(3) 0.676(2) 0.9322(13)
N2 N 0.0132(3) 0.2147(2) 0.96028(14)
N3 N 0.1960(2) 0.47071(15) 0.98085(9)
H7 H 0.2511 0.5029 1.0077
C8 C 0.0601(3) 0.31579(19) 0.94972(10)
C9 C 0.1621(3) 0.5219(2) 0.93025(12)
H8 H 0.1980 0.5910 0.9241
C10 C 0.1481(3) 0.37167(19) 0.99157(11)
H9 H 0.1741 0.3393 1.0278
C11 C 0.0225(3) 0.36960(19) 0.89671(11)
H10 H -0.0378 0.3358 0.8676
C12 C 0.0740(3) 0.4719(2) 0.88724(12)
H11 H 0.0491 0.5071 0.8518
H12 H 0.045(4) 0.180(2) 0.9929(14)
H13 H -0.036(3) 0.176(2) 0.9322(13)
N2 N 0.4868(3) 0.7853(2) 0.46028(14)
N3 N 0.3040(2) 0.52929(15) 0.48085(9)
H7 H 0.2489 0.4971 0.5077
C8 C 0.4399(3) 0.68421(19) 0.44972(10)
C9 C 0.3379(3) 0.4781(2) 0.43025(12)
H8 H 0.3020 0.4090 0.4241
C10 C 0.3519(3) 0.62833(19) 0.49157(11)
H9 H 0.3259 0.6607 0.5278
C11 C 0.4775(3) 0.63040(19) 0.39671(11)
H10 H 0.5378 0.6642 0.3676
C12 C 0.4260(3) 0.5281(2) 0.38724(12)
H11 H 0.4509 0.4929 0.3518
H12 H 0.455(4) 0.820(2) 0.4929(14)
H13 H 0.536(3) 0.824(2) 0.4322(13)
N2 N 0.9868(3) 0.7147(2) 0.53972(14)
N3 N 0.8040(2) 0.97071(15) 0.51915(9)
H7 H 0.7489 1.0029 0.4923
C8 C 0.9399(3) 0.81579(19) 0.55028(10)
C9 C 0.8379(3) 1.0219(2) 0.56975(12)
H8 H 0.8020 1.0910 0.5759
C10 C 0.8519(3) 0.87167(19) 0.50843(11)
H9 H 0.8259 0.8393 0.4722
C11 C 0.9775(3) 0.86960(19) 0.60329(11)
H10 H 1.0378 0.8358 0.6324
C12 C 0.9260(3) 0.9719(2) 0.61276(12)
H11 H 0.9509 1.0071 0.6482
H12 H 0.955(4) 0.680(2) 0.5071(14)
H13 H 1.036(3) 0.676(2) 0.5678(13)
N2 N 0.5132(3) 0.2853(2) 0.03972(14)
N3 N 0.6960(2) 0.02929(15) 0.01915(9)
H7 H 0.7511 -0.0029 -0.0077
C8 C 0.5601(3) 0.18421(19) 0.05028(10)
C9 C 0.6621(3) -0.0219(2) 0.06975(12)
H8 H 0.6980 -0.0910 0.0759
C10 C 0.6481(3) 0.12833(19) 0.00843(11)
H9 H 0.6741 0.1607 -0.0278
C11 C 0.5225(3) 0.13040(19) 0.10329(11)
H10 H 0.4622 0.1642 0.1324
C12 C 0.5740(3) 0.0281(2) 0.11276(12)
H11 H 0.5491 -0.0071 0.1482
H12 H 0.545(4) 0.320(2) 0.0071(14)
H13 H 0.464(3) 0.324(2) 0.0678(13)

#END
