./LACWAQ_from_xyz.cif_generated_by_CrystalShift
_symmetry_cell_setting triclinic
_symmetry_space_group_name_H-M 'P 1'
loop_
_symmetry_equiv_pos_site_id
_symmetry_equiv_pos_as_xyz
1 x,y,z
_cell_length_a 7.337000
_cell_length_b 12.266000
_cell_length_c 18.761000
_cell_angle_alpha 90.000000
_cell_angle_beta 97.433000
_cell_angle_gamma 90.000000
_cell_volume 1674.220247
loop_
_atom_site_label
_atom_site_type_symbol
_atom_site_fract_x
_atom_site_fract_y
_atom_site_fract_z
O1 O 0.828400 0.308650 0.197170
H2 H 0.825900 0.253000 0.172900
O3 O 0.696800 0.142410 0.131400
O4 O 0.395900 0.106300 0.120740
N5 N 0.439700 0.533000 0.317160
H6 H 0.333400 0.548500 0.329000
H7 H 0.534700 0.569800 0.334900
C8 C 0.530300 0.165100 0.141880
C9 C 0.505800 0.266900 0.183430
C10 C 0.656200 0.332700 0.210930
C11 C 0.633600 0.421500 0.253820
H12 H 0.734900 0.463100 0.272100
C13 C 0.457900 0.449400 0.269940
C14 C 0.306900 0.388400 0.240380
H15 H 0.189200 0.408100 0.248900
C16 C 0.332000 0.299600 0.198870
H17 H 0.229700 0.259100 0.180100
O18 O 0.671600 0.808650 0.302830
H19 H 0.674100 0.753000 0.327100
O20 O 0.803200 0.642410 0.368600
O21 O 1.104100 0.606300 0.379260
N22 N 1.060300 1.033000 0.182840
H23 H 1.166600 1.048500 0.171000
H24 H 0.965300 1.069800 0.165100
C25 C 0.969700 0.665100 0.358120
C26 C 0.994200 0.766900 0.316570
C27 C 0.843800 0.832700 0.289070
C28 C 0.866400 0.921500 0.246180
H29 H 0.765100 0.963100 0.227900
C30 C 1.042100 0.949400 0.230060
C31 C 1.193100 0.888400 0.259620
H32 H 1.310800 0.908100 0.251100
C33 C 1.168000 0.799600 0.301130
H34 H 1.270300 0.759100 0.319900
O35 O 0.171600 0.691350 0.802830
H36 H 0.174100 0.747000 0.827100
O37 O 0.303200 0.857590 0.868600
O38 O 0.604100 0.893700 0.879260
N39 N 0.560300 0.467000 0.682840
H40 H 0.666600 0.451500 0.671000
H41 H 0.465300 0.430200 0.665100
C42 C 0.469700 0.834900 0.858120
C43 C 0.494200 0.733100 0.816570
C44 C 0.343800 0.667300 0.789070
C45 C 0.366400 0.578500 0.746180
H46 H 0.265100 0.536900 0.727900
C47 C 0.542100 0.550600 0.730060
C48 C 0.693100 0.611600 0.759620
H49 H 0.810800 0.591900 0.751100
C50 C 0.668000 0.700400 0.801130
H51 H 0.770300 0.740900 0.819900
O52 O 0.328400 0.191350 0.697170
H53 H 0.325900 0.247000 0.672900
O54 O 0.196800 0.357590 0.631400
O55 O -0.104100 0.393700 0.620740
N56 N -0.060300 -0.033000 0.817160
H57 H -0.166600 -0.048500 0.829000
H58 H 0.034700 -0.069800 0.834900
C59 C 0.030300 0.334900 0.641880
C60 C 0.005800 0.233100 0.683430
C61 C 0.156200 0.167300 0.710930
C62 C 0.133600 0.078500 0.753820
H63 H 0.234900 0.036900 0.772100
C64 C -0.042100 0.050600 0.769940
C65 C -0.193100 0.111600 0.740380
H66 H -0.310800 0.091900 0.748900
C67 C -0.168000 0.200400 0.698870
H68 H -0.270300 0.240900 0.680100
N69 N 0.650300 0.091600 0.973410
H70 H 0.708000 0.083600 1.016000
H71 H 0.612300 0.035400 0.948400
N72 N 0.655200 0.383900 0.957300
H73 H 0.694500 0.438700 0.983500
C74 C 0.619400 0.192600 0.945800
C75 C 0.679200 0.284100 0.985010
H76 H 0.737500 0.275900 1.031700
C77 C 0.573200 0.402500 0.890900
H78 H 0.558600 0.473200 0.873200
C79 C 0.511700 0.316200 0.849900
H80 H 0.454800 0.327200 0.803200
C81 C 0.532900 0.212600 0.876900
H82 H 0.488000 0.154100 0.848300
N83 N 0.849700 0.591600 0.526590
H84 H 0.792000 0.583600 0.484000
H85 H 0.887700 0.535400 0.551600
N86 N 0.844800 0.883900 0.542700
H87 H 0.805500 0.938700 0.516500
C88 C 0.880600 0.692600 0.554200
C89 C 0.820800 0.784100 0.514990
H90 H 0.762500 0.775900 0.468300
C91 C 0.926800 0.902500 0.609100
H92 H 0.941400 0.973200 0.626800
C93 C 0.988300 0.816200 0.650100
H94 H 1.045200 0.827200 0.696800
C95 C 0.967100 0.712600 0.623100
H96 H 1.012000 0.654100 0.651700
N97 N 0.349700 0.908400 0.026590
H98 H 0.292000 0.916400 -0.016000
H99 H 0.387700 0.964600 0.051600
N100 N 0.344800 0.616100 0.042700
H101 H 0.305500 0.561300 0.016500
C102 C 0.380600 0.807400 0.054200
C103 C 0.320800 0.715900 0.014990
H104 H 0.262500 0.724100 -0.031700
C105 C 0.426800 0.597500 0.109100
H106 H 0.441400 0.526800 0.126800
C107 C 0.488300 0.683800 0.150100
H108 H 0.545200 0.672800 0.196800
C109 C 0.467100 0.787400 0.123100
H110 H 0.512000 0.845900 0.151700
N111 N 0.150300 0.408400 0.473410
H112 H 0.208000 0.416400 0.516000
H113 H 0.112300 0.464600 0.448400
N114 N 0.155200 0.116100 0.457300
H115 H 0.194500 0.061300 0.483500
C116 C 0.119400 0.307400 0.445800
C117 C 0.179200 0.215900 0.485010
H118 H 0.237500 0.224100 0.531700
C119 C 0.073200 0.097500 0.390900
H120 H 0.058600 0.026800 0.373200
C121 C 0.011700 0.183800 0.349900
H122 H -0.045200 0.172800 0.303200
C123 C 0.032900 0.287400 0.376900
H124 H -0.012000 0.345900 0.348300
N125 N 0.807400 0.553400 0.034560
N126 N 0.869000 0.843300 0.012800
H127 H 0.920300 0.898500 0.035600
H128 H 0.810700 0.851700 -0.029600
C129 C 0.896500 0.537600 0.100500
H130 H 0.902500 0.467800 0.120100
C131 C 0.978200 0.621500 0.139400
H132 H 1.039300 0.608700 0.185200
C133 C 0.971800 0.724000 0.112000
H134 H 1.028600 0.781200 0.138900
C135 C 0.880200 0.742900 0.044000
C136 C 0.800900 0.653100 0.007400
H137 H 0.739900 0.663400 -0.038700
N138 N 0.692600 0.053400 0.465440
N139 N 0.631000 0.343300 0.487200
H140 H 0.579700 0.398500 0.464400
H141 H 0.689300 0.351700 0.529600
C142 C 0.603500 0.037600 0.399500
H143 H 0.597500 -0.032200 0.379900
C144 C 0.521800 0.121500 0.360600
H145 H 0.460700 0.108700 0.314800
C146 C 0.528200 0.224000 0.388000
H147 H 0.471400 0.281200 0.361100
C148 C 0.619800 0.242900 0.456000
C149 C 0.699100 0.153100 0.492600
H150 H 0.760100 0.163400 0.538700
N151 N 0.192600 0.446600 0.965440
N152 N 0.131000 0.156700 0.987200
H153 H 0.079700 0.101500 0.964400
H154 H 0.189300 0.148300 1.029600
C155 C 0.103500 0.462400 0.899500
H156 H 0.097500 0.532200 0.879900
C157 C 0.021800 0.378500 0.860600
H158 H -0.039300 0.391300 0.814800
C159 C 0.028200 0.276000 0.888000
H160 H -0.028600 0.218800 0.861100
C161 C 0.119800 0.257100 0.956000
C162 C 0.199100 0.346900 0.992600
H163 H 0.260100 0.336600 1.038700
N164 N 0.307400 0.946600 0.534560
N165 N 0.369000 0.656700 0.512800
H166 H 0.420300 0.601500 0.535600
H167 H 0.310700 0.648300 0.470400
C168 C 0.396500 0.962400 0.600500
H169 H 0.402500 1.032200 0.620100
C170 C 0.478200 0.878500 0.639400
H171 H 0.539300 0.891300 0.685200
C172 C 0.471800 0.776000 0.612000
H173 H 0.528600 0.718800 0.638900
C174 C 0.380200 0.757100 0.544000
C175 C 0.300900 0.846900 0.507400
H176 H 0.239900 0.836600 0.461300

#END
