
#######################################################################
#
#                 Cambridge Crystallographic Data Centre
#                                CCDC 
#
#######################################################################
#
# If this CIF has been generated from an entry in the Cambridge 
# Structural Database, then it will include bibliographic, chemical, 
# crystal, experimental, refinement or atomic coordinate data resulting 
# from the CCDC's data processing and validation procedures.
#
#######################################################################

data_LACWAQ
_symmetry_cell_setting           monoclinic
_symmetry_space_group_name_H-M   'P 21/n'
_symmetry_Int_Tables_number      14
_space_group_name_Hall           '-P 2yn'
loop_
_symmetry_equiv_pos_site_id
_symmetry_equiv_pos_as_xyz
1 x,y,z
2 1/2-x,1/2+y,1/2-z
3 -x,-y,-z
4 1/2+x,1/2-y,1/2+z
_cell_length_a                   7.337(4)
_cell_length_b                   12.266(7)
_cell_length_c                   18.761(10)
_cell_angle_alpha                90
_cell_angle_beta                 97.433(10)
_cell_angle_gamma                90
_cell_volume                     1674.22
loop_
_atom_site_label
_atom_site_type_symbol
_atom_site_fract_x
_atom_site_fract_y
_atom_site_fract_z
O1 O 0.8284(3) 0.30865(19) 0.19717(15)
H1 H 0.8259 0.2530 0.1729
O2 O 0.6968(3) 0.14241(18) 0.13140(13)
O3 O 0.3959(3) 0.1063(2) 0.12074(15)
N1 N 0.4397(4) 0.5330(2) 0.31716(18)
H2 H 0.3334 0.5485 0.3290
H3 H 0.5347 0.5698 0.3349
C1 C 0.5303(5) 0.1651(3) 0.14188(19)
C2 C 0.5058(4) 0.2669(2) 0.18343(18)
C3 C 0.6562(4) 0.3327(3) 0.21093(18)
C4 C 0.6336(4) 0.4215(2) 0.25382(19)
H4 H 0.7349 0.4631 0.2721
C5 C 0.4579(4) 0.4494(2) 0.26994(19)
C6 C 0.3069(4) 0.3884(3) 0.24038(19)
H5 H 0.1892 0.4081 0.2489
C7 C 0.3320(4) 0.2996(2) 0.19887(19)
H6 H 0.2297 0.2591 0.1801
O1 O 0.6716(3) 0.80865(19) 0.30283(15)
H1 H 0.6741 0.7530 0.3271
O2 O 0.8032(3) 0.64241(18) 0.36860(13)
O3 O 1.1041(3) 0.6063(2) 0.37926(15)
N1 N 1.0603(4) 1.0330(2) 0.18284(18)
H2 H 1.1666 1.0485 0.1710
H3 H 0.9653 1.0698 0.1651
C1 C 0.9697(5) 0.6651(3) 0.35812(19)
C2 C 0.9942(4) 0.7669(2) 0.31657(18)
C3 C 0.8438(4) 0.8327(3) 0.28907(18)
C4 C 0.8664(4) 0.9215(2) 0.24618(19)
H4 H 0.7651 0.9631 0.2279
C5 C 1.0421(4) 0.9494(2) 0.23006(19)
C6 C 1.1931(4) 0.8884(3) 0.25962(19)
H5 H 1.3108 0.9081 0.2511
C7 C 1.1680(4) 0.7996(2) 0.30113(19)
H6 H 1.2703 0.7591 0.3199
O1 O 0.1716(3) 0.69135(19) 0.80283(15)
H1 H 0.1741 0.7470 0.8271
O2 O 0.3032(3) 0.85759(18) 0.86860(13)
O3 O 0.6041(3) 0.8937(2) 0.87926(15)
N1 N 0.5603(4) 0.4670(2) 0.68284(18)
H2 H 0.6666 0.4515 0.6710
H3 H 0.4653 0.4302 0.6651
C1 C 0.4697(5) 0.8349(3) 0.85812(19)
C2 C 0.4942(4) 0.7331(2) 0.81657(18)
C3 C 0.3438(4) 0.6673(3) 0.78907(18)
C4 C 0.3664(4) 0.5785(2) 0.74618(19)
H4 H 0.2651 0.5369 0.7279
C5 C 0.5421(4) 0.5506(2) 0.73006(19)
C6 C 0.6931(4) 0.6116(3) 0.75962(19)
H5 H 0.8108 0.5919 0.7511
C7 C 0.6680(4) 0.7004(2) 0.80113(19)
H6 H 0.7703 0.7409 0.8199
O1 O 0.3284(3) 0.19135(19) 0.69717(15)
H1 H 0.3259 0.2470 0.6729
O2 O 0.1968(3) 0.35759(18) 0.63140(13)
O3 O -0.1041(3) 0.3937(2) 0.62074(15)
N1 N -0.0603(4) -0.0330(2) 0.81716(18)
H2 H -0.1666 -0.0485 0.8290
H3 H 0.0347 -0.0698 0.8349
C1 C 0.0303(5) 0.3349(3) 0.64188(19)
C2 C 0.0058(4) 0.2331(2) 0.68343(18)
C3 C 0.1562(4) 0.1673(3) 0.71093(18)
C4 C 0.1336(4) 0.0785(2) 0.75382(19)
H4 H 0.2349 0.0369 0.7721
C5 C -0.0421(4) 0.0506(2) 0.76994(19)
C6 C -0.1931(4) 0.1116(3) 0.74038(19)
H5 H -0.3108 0.0919 0.7489
C7 C -0.1680(4) 0.2004(2) 0.69887(19)
H6 H -0.2703 0.2409 0.6801
N2 N 0.6503(4) 0.0916(2) 0.97341(19)
H7 H 0.7080 0.0836 1.0160
H8 H 0.6123 0.0354 0.9484
N3 N 0.6552(3) 0.3839(2) 0.95730(16)
H9 H 0.6945 0.4387 0.9835
C8 C 0.6194(5) 0.1926(3) 0.9458(2)
C9 C 0.6792(4) 0.2841(3) 0.98501(19)
H10 H 0.7375 0.2759 1.0317
C10 C 0.5732(5) 0.4025(3) 0.8909(2)
H11 H 0.5586 0.4732 0.8732
C11 C 0.5117(5) 0.3162(4) 0.8499(2)
H12 H 0.4548 0.3272 0.8032
C12 C 0.5329(5) 0.2126(3) 0.8769(2)
H13 H 0.4880 0.1541 0.8483
N2 N 0.8497(4) 0.5916(2) 0.52659(19)
H7 H 0.7920 0.5836 0.4840
H8 H 0.8877 0.5354 0.5516
N3 N 0.8448(3) 0.8839(2) 0.54270(16)
H9 H 0.8055 0.9387 0.5165
C8 C 0.8806(5) 0.6926(3) 0.5542(2)
C9 C 0.8208(4) 0.7841(3) 0.51499(19)
H10 H 0.7625 0.7759 0.4683
C10 C 0.9268(5) 0.9025(3) 0.6091(2)
H11 H 0.9414 0.9732 0.6268
C11 C 0.9883(5) 0.8162(4) 0.6501(2)
H12 H 1.0452 0.8272 0.6968
C12 C 0.9671(5) 0.7126(3) 0.6231(2)
H13 H 1.0120 0.6541 0.6517
N2 N 0.3497(4) 0.9084(2) 0.02659(19)
H7 H 0.2920 0.9164 -0.0160
H8 H 0.3877 0.9646 0.0516
N3 N 0.3448(3) 0.6161(2) 0.04270(16)
H9 H 0.3055 0.5613 0.0165
C8 C 0.3806(5) 0.8074(3) 0.0542(2)
C9 C 0.3208(4) 0.7159(3) 0.01499(19)
H10 H 0.2625 0.7241 -0.0317
C10 C 0.4268(5) 0.5975(3) 0.1091(2)
H11 H 0.4414 0.5268 0.1268
C11 C 0.4883(5) 0.6838(4) 0.1501(2)
H12 H 0.5452 0.6728 0.1968
C12 C 0.4671(5) 0.7874(3) 0.1231(2)
H13 H 0.5120 0.8459 0.1517
N2 N 0.1503(4) 0.4084(2) 0.47341(19)
H7 H 0.2080 0.4164 0.5160
H8 H 0.1123 0.4646 0.4484
N3 N 0.1552(3) 0.1161(2) 0.45730(16)
H9 H 0.1945 0.0613 0.4835
C8 C 0.1194(5) 0.3074(3) 0.4458(2)
C9 C 0.1792(4) 0.2159(3) 0.48501(19)
H10 H 0.2375 0.2241 0.5317
C10 C 0.0732(5) 0.0975(3) 0.3909(2)
H11 H 0.0586 0.0268 0.3732
C11 C 0.0117(5) 0.1838(4) 0.3499(2)
H12 H -0.0452 0.1728 0.3032
C12 C 0.0329(5) 0.2874(3) 0.3769(2)
H13 H -0.0120 0.3459 0.3483
N4 N 0.8074(4) 0.5534(2) 0.03456(18)
N5 N 0.8690(5) 0.8433(3) 0.0128(3)
H14 H 0.9203 0.8985 0.0356
H15 H 0.8107 0.8517 -0.0296
C13 C 0.8965(5) 0.5376(3) 0.1005(2)
H16 H 0.9025 0.4678 0.1201
C14 C 0.9782(5) 0.6215(4) 0.1394(2)
H17 H 1.0393 0.6087 0.1852
C15 C 0.9718(5) 0.7240(3) 0.1120(3)
H18 H 1.0286 0.7812 0.1389
C16 C 0.8802(5) 0.7429(3) 0.0440(3)
C17 C 0.8009(4) 0.6531(3) 0.0074(2)
H19 H 0.7399 0.6634 -0.0387
N4 N 0.6926(4) 0.0534(2) 0.46544(18)
N5 N 0.6310(5) 0.3433(3) 0.4872(3)
H14 H 0.5797 0.3985 0.4644
H15 H 0.6893 0.3517 0.5296
C13 C 0.6035(5) 0.0376(3) 0.3995(2)
H16 H 0.5975 -0.0322 0.3799
C14 C 0.5218(5) 0.1215(4) 0.3606(2)
H17 H 0.4607 0.1087 0.3148
C15 C 0.5282(5) 0.2240(3) 0.3880(3)
H18 H 0.4714 0.2812 0.3611
C16 C 0.6198(5) 0.2429(3) 0.4560(3)
C17 C 0.6991(4) 0.1531(3) 0.4926(2)
H19 H 0.7601 0.1634 0.5387
N4 N 0.1926(4) 0.4466(2) 0.96544(18)
N5 N 0.1310(5) 0.1567(3) 0.9872(3)
H14 H 0.0797 0.1015 0.9644
H15 H 0.1893 0.1483 1.0296
C13 C 0.1035(5) 0.4624(3) 0.8995(2)
H16 H 0.0975 0.5322 0.8799
C14 C 0.0218(5) 0.3785(4) 0.8606(2)
H17 H -0.0393 0.3913 0.8148
C15 C 0.0282(5) 0.2760(3) 0.8880(3)
H18 H -0.0286 0.2188 0.8611
C16 C 0.1198(5) 0.2571(3) 0.9560(3)
C17 C 0.1991(4) 0.3469(3) 0.9926(2)
H19 H 0.2601 0.3366 1.0387
N4 N 0.3074(4) 0.9466(2) 0.53456(18)
N5 N 0.3690(5) 0.6567(3) 0.5128(3)
H14 H 0.4203 0.6015 0.5356
H15 H 0.3107 0.6483 0.4704
C13 C 0.3965(5) 0.9624(3) 0.6005(2)
H16 H 0.4025 1.0322 0.6201
C14 C 0.4782(5) 0.8785(4) 0.6394(2)
H17 H 0.5393 0.8913 0.6852
C15 C 0.4718(5) 0.7760(3) 0.6120(3)
H18 H 0.5286 0.7188 0.6389
C16 C 0.3802(5) 0.7571(3) 0.5440(3)
C17 C 0.3009(4) 0.8469(3) 0.5074(2)
H19 H 0.2399 0.8366 0.4613

#END
