
#######################################################################
#
#                 Cambridge Crystallographic Data Centre
#                                CCDC 
#
#######################################################################
#
# If this CIF has been generated from an entry in the Cambridge 
# Structural Database, then it will include bibliographic, chemical, 
# crystal, experimental, refinement or atomic coordinate data resulting 
# from the CCDC's data processing and validation procedures.
#
#######################################################################

data_LACXOC
_symmetry_cell_setting           monoclinic
_symmetry_space_group_name_H-M   'P 21/c'
_symmetry_Int_Tables_number      14
_space_group_name_Hall           '-P 2ybc'
loop_
_symmetry_equiv_pos_site_id
_symmetry_equiv_pos_as_xyz
1 x,y,z
2 -x,1/2+y,1/2-z
3 -x,-y,-z
4 x,1/2-y,1/2+z
_cell_length_a                   9.412(5)
_cell_length_b                   9.116(4)
_cell_length_c                   21.358(11)
_cell_angle_alpha                90
_cell_angle_beta                 94.76
_cell_angle_gamma                90
_cell_volume                     1826.19
loop_
_atom_site_label
_atom_site_type_symbol
_atom_site_fract_x
_atom_site_fract_y
_atom_site_fract_z
S1 S 0.3201(1) 0.4291(1) 0.6053(1)
S2 S 0.1791(1) 0.4254(1) 0.4140(1)
O1 O 0.1698(2) 0.3968(2) 0.5953(1)
O2 O 0.4236(2) 0.3154(2) 0.5970(1)
O3 O 0.3299(2) 0.4008(2) 0.4278(1)
O4 O 0.0807(2) 0.3079(2) 0.4226(1)
N1 N 0.3600(2) 0.5614(2) 0.5603(1)
N2 N 0.1327(2) 0.5609(2) 0.4565(1)
C1 C 0.2691(2) 0.6901(2) 0.5442(1)
C2 C 0.3510(3) 0.8305(3) 0.5633(1)
C3 C 0.2696(3) 0.9692(3) 0.5419(1)
C4 C 0.2316(3) 0.9668(3) 0.4713(1)
C5 C 0.1453(3) 0.8300(3) 0.4522(1)
C6 C 0.2247(2) 0.6892(2) 0.4731(1)
C7 C 0.3507(2) 0.4877(2) 0.6849(1)
C8 C 0.4681(2) 0.5753(3) 0.7028(1)
C9 C 0.5004(3) 0.6067(3) 0.7662(1)
C10 C 0.4170(3) 0.5483(3) 0.8109(1)
C11 C 0.2998(3) 0.4616(3) 0.7927(1)
C12 C 0.2653(3) 0.4315(3) 0.7294(1)
C13 C 0.1553(2) 0.4760(2) 0.3334(1)
C14 C 0.2261(3) 0.5973(3) 0.3118(1)
C15 C 0.2086(3) 0.6318(3) 0.2480(1)
C16 C 0.1255(3) 0.5436(3) 0.2070(1)
C17 C 0.0573(3) 0.4227(3) 0.2289(1)
C18 C 0.0710(3) 0.3881(3) 0.2924(1)
H1 H 0.1817(2) 0.6844(2) 0.5677(1)
H2 H 0.4440(3) 0.8293(3) 0.5448(1)
H3 H 0.3701(3) 0.8326(3) 0.6096(1)
H4 H 0.1813(3) 0.9765(3) 0.5639(1)
H5 H 0.3289(3) 1.0565(3) 0.5531(1)
H6 H 0.3201(3) 0.9683(3) 0.4493(1)
H7 H 0.1756(3) 1.0554(3) 0.4588(1)
H8 H 0.1250(3) 0.8289(3) 0.4060(1)
H9 H 0.0530(3) 0.8335(3) 0.4713(1)
H10 H 0.3127(2) 0.6816(2) 0.4500(1)
H11 H 0.5257(2) 0.6134(3) 0.6721(1)
H12 H 0.5793(3) 0.6679(3) 0.7789(1)
H13 H 0.4406(3) 0.5679(3) 0.8542(1)
H14 H 0.2429(3) 0.4227(3) 0.8235(1)
H15 H 0.1844(3) 0.3732(3) 0.7167(1)
H16 H 0.2856(3) 0.6557(3) 0.3399(1)
H17 H 0.2538(3) 0.7162(3) 0.2327(1)
H18 H 0.1155(3) 0.5666(3) 0.1634(1)
H19 H 0.0006(3) 0.3625(3) 0.2004(1)
H20 H 0.0232(3) 0.3052(3) 0.3076(1)
S1 S 0.6799(1) -0.0709(1) 0.8947(1)
S2 S 0.8209(1) -0.0746(1) 1.0860(1)
O1 O 0.8302(2) -0.1032(2) 0.9047(1)
O2 O 0.5764(2) -0.1846(2) 0.9030(1)
O3 O 0.6701(2) -0.0992(2) 1.0722(1)
O4 O 0.9193(2) -0.1921(2) 1.0774(1)
N1 N 0.6400(2) 0.0614(2) 0.9397(1)
N2 N 0.8673(2) 0.0609(2) 1.0435(1)
C1 C 0.7309(2) 0.1901(2) 0.9558(1)
C2 C 0.6490(3) 0.3305(3) 0.9367(1)
C3 C 0.7304(3) 0.4692(3) 0.9581(1)
C4 C 0.7684(3) 0.4668(3) 1.0287(1)
C5 C 0.8547(3) 0.3300(3) 1.0478(1)
C6 C 0.7753(2) 0.1892(2) 1.0269(1)
C7 C 0.6493(2) -0.0123(2) 0.8151(1)
C8 C 0.5319(2) 0.0753(3) 0.7972(1)
C9 C 0.4996(3) 0.1067(3) 0.7338(1)
C10 C 0.5830(3) 0.0483(3) 0.6891(1)
C11 C 0.7002(3) -0.0384(3) 0.7073(1)
C12 C 0.7347(3) -0.0685(3) 0.7706(1)
C13 C 0.8447(2) -0.0240(2) 1.1666(1)
C14 C 0.7739(3) 0.0973(3) 1.1882(1)
C15 C 0.7914(3) 0.1318(3) 1.2520(1)
C16 C 0.8745(3) 0.0436(3) 1.2930(1)
C17 C 0.9427(3) -0.0773(3) 1.2711(1)
C18 C 0.9290(3) -0.1119(3) 1.2076(1)
H1 H 0.8183(2) 0.1844(2) 0.9323(1)
H2 H 0.5560(3) 0.3293(3) 0.9552(1)
H3 H 0.6299(3) 0.3326(3) 0.8904(1)
H4 H 0.8187(3) 0.4765(3) 0.9361(1)
H5 H 0.6711(3) 0.5565(3) 0.9469(1)
H6 H 0.6799(3) 0.4683(3) 1.0507(1)
H7 H 0.8244(3) 0.5554(3) 1.0412(1)
H8 H 0.8750(3) 0.3289(3) 1.0940(1)
H9 H 0.9470(3) 0.3335(3) 1.0287(1)
H10 H 0.6873(2) 0.1816(2) 1.0500(1)
H11 H 0.4743(2) 0.1134(3) 0.8279(1)
H12 H 0.4207(3) 0.1679(3) 0.7211(1)
H13 H 0.5594(3) 0.0679(3) 0.6458(1)
H14 H 0.7571(3) -0.0773(3) 0.6765(1)
H15 H 0.8156(3) -0.1268(3) 0.7833(1)
H16 H 0.7144(3) 0.1557(3) 1.1601(1)
H17 H 0.7462(3) 0.2162(3) 1.2673(1)
H18 H 0.8845(3) 0.0666(3) 1.3366(1)
H19 H 0.9994(3) -0.1375(3) 1.2996(1)
H20 H 0.9768(3) -0.1948(3) 1.1924(1)
S1 S 0.6799(1) 0.5709(1) 0.3947(1)
S2 S 0.8209(1) 0.5746(1) 0.5860(1)
O1 O 0.8302(2) 0.6032(2) 0.4047(1)
O2 O 0.5764(2) 0.6846(2) 0.4030(1)
O3 O 0.6701(2) 0.5992(2) 0.5722(1)
O4 O 0.9193(2) 0.6921(2) 0.5774(1)
N1 N 0.6400(2) 0.4386(2) 0.4397(1)
N2 N 0.8673(2) 0.4391(2) 0.5435(1)
C1 C 0.7309(2) 0.3099(2) 0.4558(1)
C2 C 0.6490(3) 0.1695(3) 0.4367(1)
C3 C 0.7304(3) 0.0308(3) 0.4581(1)
C4 C 0.7684(3) 0.0332(3) 0.5287(1)
C5 C 0.8547(3) 0.1700(3) 0.5478(1)
C6 C 0.7753(2) 0.3108(2) 0.5269(1)
C7 C 0.6493(2) 0.5123(2) 0.3151(1)
C8 C 0.5319(2) 0.4247(3) 0.2972(1)
C9 C 0.4996(3) 0.3933(3) 0.2338(1)
C10 C 0.5830(3) 0.4517(3) 0.1891(1)
C11 C 0.7002(3) 0.5384(3) 0.2073(1)
C12 C 0.7347(3) 0.5685(3) 0.2706(1)
C13 C 0.8447(2) 0.5240(2) 0.6666(1)
C14 C 0.7739(3) 0.4027(3) 0.6882(1)
C15 C 0.7914(3) 0.3682(3) 0.7520(1)
C16 C 0.8745(3) 0.4564(3) 0.7930(1)
C17 C 0.9427(3) 0.5773(3) 0.7711(1)
C18 C 0.9290(3) 0.6119(3) 0.7076(1)
H1 H 0.8183(2) 0.3156(2) 0.4323(1)
H2 H 0.5560(3) 0.1707(3) 0.4552(1)
H3 H 0.6299(3) 0.1674(3) 0.3904(1)
H4 H 0.8187(3) 0.0235(3) 0.4361(1)
H5 H 0.6711(3) -0.0565(3) 0.4469(1)
H6 H 0.6799(3) 0.0317(3) 0.5507(1)
H7 H 0.8244(3) -0.0554(3) 0.5412(1)
H8 H 0.8750(3) 0.1711(3) 0.5940(1)
H9 H 0.9470(3) 0.1665(3) 0.5287(1)
H10 H 0.6873(2) 0.3184(2) 0.5500(1)
H11 H 0.4743(2) 0.3866(3) 0.3279(1)
H12 H 0.4207(3) 0.3321(3) 0.2211(1)
H13 H 0.5594(3) 0.4321(3) 0.1458(1)
H14 H 0.7571(3) 0.5773(3) 0.1765(1)
H15 H 0.8156(3) 0.6268(3) 0.2833(1)
H16 H 0.7144(3) 0.3443(3) 0.6601(1)
H17 H 0.7462(3) 0.2838(3) 0.7673(1)
H18 H 0.8845(3) 0.4334(3) 0.8366(1)
H19 H 0.9994(3) 0.6375(3) 0.7996(1)
H20 H 0.9768(3) 0.6948(3) 0.6924(1)
S1 S 0.3201(1) 1.0709(1) 0.1053(1)
S2 S 0.1791(1) 1.0746(1) -0.0860(1)
O1 O 0.1698(2) 1.1032(2) 0.0953(1)
O2 O 0.4236(2) 1.1846(2) 0.0970(1)
O3 O 0.3299(2) 1.0992(2) -0.0722(1)
O4 O 0.0807(2) 1.1921(2) -0.0774(1)
N1 N 0.3600(2) 0.9386(2) 0.0603(1)
N2 N 0.1327(2) 0.9391(2) -0.0435(1)
C1 C 0.2691(2) 0.8099(2) 0.0442(1)
C2 C 0.3510(3) 0.6695(3) 0.0633(1)
C3 C 0.2696(3) 0.5308(3) 0.0419(1)
C4 C 0.2316(3) 0.5332(3) -0.0287(1)
C5 C 0.1453(3) 0.6700(3) -0.0478(1)
C6 C 0.2247(2) 0.8108(2) -0.0269(1)
C7 C 0.3507(2) 1.0123(2) 0.1849(1)
C8 C 0.4681(2) 0.9247(3) 0.2028(1)
C9 C 0.5004(3) 0.8933(3) 0.2662(1)
C10 C 0.4170(3) 0.9517(3) 0.3109(1)
C11 C 0.2998(3) 1.0384(3) 0.2927(1)
C12 C 0.2653(3) 1.0685(3) 0.2294(1)
C13 C 0.1553(2) 1.0240(2) -0.1666(1)
C14 C 0.2261(3) 0.9027(3) -0.1882(1)
C15 C 0.2086(3) 0.8682(3) -0.2520(1)
C16 C 0.1255(3) 0.9564(3) -0.2930(1)
C17 C 0.0573(3) 1.0773(3) -0.2711(1)
C18 C 0.0710(3) 1.1119(3) -0.2076(1)
H1 H 0.1817(2) 0.8156(2) 0.0677(1)
H2 H 0.4440(3) 0.6707(3) 0.0448(1)
H3 H 0.3701(3) 0.6674(3) 0.1096(1)
H4 H 0.1813(3) 0.5235(3) 0.0639(1)
H5 H 0.3289(3) 0.4435(3) 0.0531(1)
H6 H 0.3201(3) 0.5317(3) -0.0507(1)
H7 H 0.1756(3) 0.4446(3) -0.0412(1)
H8 H 0.1250(3) 0.6711(3) -0.0940(1)
H9 H 0.0530(3) 0.6665(3) -0.0287(1)
H10 H 0.3127(2) 0.8184(2) -0.0500(1)
H11 H 0.5257(2) 0.8866(3) 0.1721(1)
H12 H 0.5793(3) 0.8321(3) 0.2789(1)
H13 H 0.4406(3) 0.9321(3) 0.3542(1)
H14 H 0.2429(3) 1.0773(3) 0.3235(1)
H15 H 0.1844(3) 1.1268(3) 0.2167(1)
H16 H 0.2856(3) 0.8443(3) -0.1601(1)
H17 H 0.2538(3) 0.7838(3) -0.2673(1)
H18 H 0.1155(3) 0.9334(3) -0.3366(1)
H19 H 0.0006(3) 1.1375(3) -0.2996(1)
H20 H 0.0232(3) 1.1948(3) -0.1924(1)

#END
