./LACXEU_from_xyz.cif_generated_by_CrystalShift
_symmetry_cell_setting triclinic
_symmetry_space_group_name_H-M 'P 1'
loop_
_symmetry_equiv_pos_site_id
_symmetry_equiv_pos_as_xyz
1 x,y,z
_cell_length_a 11.221100
_cell_length_b 11.818900
_cell_length_c 13.442600
_cell_angle_alpha 110.193000
_cell_angle_beta 110.006000
_cell_angle_gamma 92.350000
_cell_volume 1546.432357
loop_
_atom_site_label
_atom_site_type_symbol
_atom_site_fract_x
_atom_site_fract_y
_atom_site_fract_z
N1 N 0.804060 -0.067700 0.181570
N2 N 0.665470 0.057380 0.128260
N3 N 0.515500 0.172370 0.074060
H4 H 0.460700 0.104100 0.026800
H5 H 0.489900 0.247600 0.088200
C6 C 0.911780 -0.085900 0.248160
C7 C 1.004410 0.011940 0.346860
C8 C 1.111240 -0.011530 0.425780
H9 H 1.120800 -0.098000 0.411500
C10 C 1.195460 0.082240 0.521800
H11 H 1.260900 0.062800 0.571300
C12 C 1.172850 0.202490 0.544240
H13 H 1.229700 0.267600 0.616800
C14 C 1.070160 0.228260 0.469220
H15 H 1.051800 0.311700 0.488400
C16 C 0.985130 0.134120 0.365040
C17 C 0.877500 0.154490 0.280770
C18 C 0.857580 0.270900 0.269070
C19 C 0.955010 0.375980 0.319160
H20 H 1.038500 0.372700 0.363100
C21 C 0.931460 0.480580 0.298710
H22 H 1.001700 0.547000 0.332300
C23 C 0.809580 0.486420 0.227990
H24 H 0.793700 0.559500 0.213400
C25 C 0.713270 0.385480 0.176020
H26 H 0.631300 0.388800 0.126000
C27 C 0.735710 0.276920 0.194600
C28 C 0.637520 0.165850 0.132610
C29 C 0.784670 0.051370 0.199140
C30 C 0.939080 -0.214440 0.214000
H31 H 0.858200 -0.270300 0.159200
H32 H 0.972200 -0.238500 0.282100
C33 C 1.035620 -0.226200 0.154630
H34 H 0.995400 -0.221800 0.076200
H35 H 1.110500 -0.160700 0.202000
C36 C 1.081400 -0.348140 0.128090
H37 H 1.004000 -0.413000 0.089200
H38 H 1.134000 -0.359900 0.206200
C39 C 1.158300 -0.361800 0.051840
H40 H 1.099000 -0.355000 -0.026000
H41 H 1.192000 -0.446000 0.034100
H42 H 1.230000 -0.285000 0.084400
N43 N 0.195940 1.067700 0.818430
N44 N 0.334530 0.942620 0.871740
N45 N 0.484500 0.827630 0.925940
H46 H 0.539300 0.895900 0.973200
H47 H 0.510100 0.752400 0.911800
C48 C 0.088220 1.085900 0.751840
C49 C -0.004410 0.988060 0.653140
C50 C -0.111240 1.011530 0.574220
H51 H -0.120800 1.098000 0.588500
C52 C -0.195460 0.917760 0.478200
H53 H -0.260900 0.937200 0.428700
C54 C -0.172850 0.797510 0.455760
H55 H -0.229700 0.732400 0.383200
C56 C -0.070160 0.771740 0.530780
H57 H -0.051800 0.688300 0.511600
C58 C 0.014870 0.865880 0.634960
C59 C 0.122500 0.845510 0.719230
C60 C 0.142420 0.729100 0.730930
C61 C 0.044990 0.624020 0.680840
H62 H -0.038500 0.627300 0.636900
C63 C 0.068540 0.519420 0.701290
H64 H -0.001700 0.453000 0.667700
C65 C 0.190420 0.513580 0.772010
H66 H 0.206300 0.440500 0.786600
C67 C 0.286730 0.614520 0.823980
H68 H 0.368700 0.611200 0.874000
C69 C 0.264290 0.723080 0.805400
C70 C 0.362480 0.834150 0.867390
C71 C 0.215330 0.948630 0.800860
C72 C 0.060920 1.214440 0.786000
H73 H 0.141800 1.270300 0.840800
H74 H 0.027800 1.238500 0.717900
C75 C -0.035620 1.226200 0.845370
H76 H 0.004600 1.221800 0.923800
H77 H -0.110500 1.160700 0.798000
C78 C -0.081400 1.348140 0.871910
H79 H -0.004000 1.413000 0.910800
H80 H -0.134000 1.359900 0.793800
C81 C -0.158300 1.361800 0.948160
H82 H -0.099000 1.355000 1.026000
H83 H -0.192000 1.446000 0.965900
H84 H -0.230000 1.285000 0.915600
N85 N 0.400250 0.414390 0.194260
N86 N 0.484570 0.550000 0.138150
N87 N 0.595360 0.671780 0.087420
H88 H 0.592000 0.603600 0.027000
H89 H 0.631500 0.741800 0.094500
C90 C 0.356900 0.387050 0.263950
C91 C 0.348160 0.479270 0.363210
C92 C 0.311360 0.447500 0.442210
H93 H 0.285500 0.359800 0.426200
C94 C 0.310020 0.535530 0.539510
H95 H 0.284700 0.512000 0.591100
C96 C 0.352010 0.658500 0.563960
H97 H 0.354400 0.721500 0.634400
C98 C 0.388820 0.692680 0.489750
H99 H 0.425900 0.778300 0.513700
C100 C 0.383150 0.604550 0.384310
C101 C 0.418670 0.633680 0.301170
C102 C 0.440210 0.754750 0.299240
C103 C 0.393650 0.857020 0.355940
H104 H 0.340000 0.843100 0.396900
C105 C 0.416240 0.968790 0.348950
H106 H 0.380300 1.038900 0.388600
C107 C 0.483940 0.984340 0.283820
H108 H 0.500400 1.063300 0.278700
C109 C 0.524070 0.885010 0.221930
H110 H 0.563300 0.894000 0.172300
C111 C 0.501780 0.770010 0.227320
C112 C 0.528250 0.661590 0.151410
C113 C 0.433350 0.535840 0.213270
C114 C 0.319260 0.253240 0.236700
H115 H 0.354400 0.229600 0.306100
H116 H 0.361100 0.206900 0.185800
C117 C 0.174910 0.205970 0.177550
H118 H 0.143200 0.223400 0.105000
H119 H 0.128000 0.256900 0.226900
C120 C 0.140800 0.069410 0.150950
H121 H 0.176800 0.053000 0.228800
H122 H 0.038000 0.047000 0.120700
C123 C 0.192200 -0.010700 0.064930
H124 H 0.168000 0.014000 -0.008000
H125 H 0.153000 -0.109000 0.031700
H126 H 0.299000 -0.002000 0.095000
N127 N 0.599750 0.585610 0.805740
N128 N 0.515430 0.450000 0.861850
N129 N 0.404640 0.328220 0.912580
H130 H 0.408000 0.396400 0.973000
H131 H 0.368500 0.258200 0.905500
C132 C 0.643100 0.612950 0.736050
C133 C 0.651840 0.520730 0.636790
C134 C 0.688640 0.552500 0.557790
H135 H 0.714500 0.640200 0.573800
C136 C 0.689980 0.464470 0.460490
H137 H 0.715300 0.488000 0.408900
C138 C 0.647990 0.341500 0.436040
H139 H 0.645600 0.278500 0.365600
C140 C 0.611180 0.307320 0.510250
H141 H 0.574100 0.221700 0.486300
C142 C 0.616850 0.395450 0.615690
C143 C 0.581330 0.366320 0.698830
C144 C 0.559790 0.245250 0.700760
C145 C 0.606350 0.142980 0.644060
H146 H 0.660000 0.156900 0.603100
C147 C 0.583760 0.031210 0.651050
H148 H 0.619700 -0.038900 0.611400
C149 C 0.516060 0.015660 0.716180
H150 H 0.499600 -0.063300 0.721300
C151 C 0.475930 0.114990 0.778070
H152 H 0.436700 0.106000 0.827700
C153 C 0.498220 0.229990 0.772680
C154 C 0.471750 0.338410 0.848590
C155 C 0.566650 0.464160 0.786730
C156 C 0.680740 0.746760 0.763300
H157 H 0.645600 0.770400 0.693900
H158 H 0.638900 0.793100 0.814200
C159 C 0.825090 0.794030 0.822450
H160 H 0.856800 0.776600 0.895000
H161 H 0.872000 0.743100 0.773100
C162 C 0.859200 0.930590 0.849050
H163 H 0.823200 0.947000 0.771200
H164 H 0.962000 0.953000 0.879300
C165 C 0.807800 1.010700 0.935070
H166 H 0.832000 0.986000 1.008000
H167 H 0.847000 1.109000 0.968300
H168 H 0.701000 1.002000 0.905000

#END
