./LADCIE_from_xyz.cif_generated_by_CrystalShift
_symmetry_cell_setting triclinic
_symmetry_space_group_name_H-M 'P 1'
loop_
_symmetry_equiv_pos_site_id
_symmetry_equiv_pos_as_xyz
1 x,y,z
_cell_length_a 4.833300
_cell_length_b 9.592300
_cell_length_c 23.790100
_cell_angle_alpha 90.000000
_cell_angle_beta 90.961000
_cell_angle_gamma 90.000000
_cell_volume 1102.812516
loop_
_atom_site_label
_atom_site_type_symbol
_atom_site_fract_x
_atom_site_fract_y
_atom_site_fract_z
Br1 Br 0.779170 -0.140736 0.417648
N2 N 0.315600 0.214170 0.405960
C3 C 0.418900 0.090270 0.420560
H4 H 0.344900 0.043300 0.452100
C5 C 0.628400 0.028480 0.391550
C6 C 0.729800 0.093580 0.344370
H7 H 0.869500 0.050400 0.322800
C8 C 0.626200 0.221240 0.329150
H9 H 0.693600 0.268300 0.297000
C10 C 0.420200 0.280840 0.361640
N11 N 0.305800 0.410180 0.351900
H12 H 0.186000 0.426000 0.371500
C13 C 0.398100 0.512600 0.316570
O14 O 0.589000 0.496820 0.284630
C15 C 0.236500 0.645510 0.321320
H16 H 0.232100 0.673900 0.361300
H17 H 0.043500 0.628500 0.308500
C18 C 0.356500 0.762760 0.287210
H19 H 0.250700 0.848300 0.293700
H20 H 0.346600 0.738600 0.247200
H21 H 0.550100 0.777600 0.298600
Br22 Br -0.279170 0.359264 0.082352
N23 N 0.184400 0.714170 0.094040
C24 C 0.081100 0.590270 0.079440
H25 H 0.155100 0.543300 0.047900
C26 C -0.128400 0.528480 0.108450
C27 C -0.229800 0.593580 0.155630
H28 H -0.369500 0.550400 0.177200
C29 C -0.126200 0.721240 0.170850
H30 H -0.193600 0.768300 0.203000
C31 C 0.079800 0.780840 0.138360
N32 N 0.194200 0.910180 0.148100
H33 H 0.314000 0.926000 0.128500
C34 C 0.101900 1.012600 0.183430
O35 O -0.089000 0.996820 0.215370
C36 C 0.263500 1.145510 0.178680
H37 H 0.267900 1.173900 0.138700
H38 H 0.456500 1.128500 0.191500
C39 C 0.143500 1.262760 0.212790
H40 H 0.249300 1.348300 0.206300
H41 H 0.153400 1.238600 0.252800
H42 H -0.050100 1.277600 0.201400
Br43 Br 0.220830 1.140736 0.582352
N44 N 0.684400 0.785830 0.594040
C45 C 0.581100 0.909730 0.579440
H46 H 0.655100 0.956700 0.547900
C47 C 0.371600 0.971520 0.608450
C48 C 0.270200 0.906420 0.655630
H49 H 0.130500 0.949600 0.677200
C50 C 0.373800 0.778760 0.670850
H51 H 0.306400 0.731700 0.703000
C52 C 0.579800 0.719160 0.638360
N53 N 0.694200 0.589820 0.648100
H54 H 0.814000 0.574000 0.628500
C55 C 0.601900 0.487400 0.683430
O56 O 0.411000 0.503180 0.715370
C57 C 0.763500 0.354490 0.678680
H58 H 0.767900 0.326100 0.638700
H59 H 0.956500 0.371500 0.691500
C60 C 0.643500 0.237240 0.712790
H61 H 0.749300 0.151700 0.706300
H62 H 0.653400 0.261400 0.752800
H63 H 0.449900 0.222400 0.701400
Br64 Br 1.279170 0.640736 0.917648
N65 N 0.815600 0.285830 0.905960
C66 C 0.918900 0.409730 0.920560
H67 H 0.844900 0.456700 0.952100
C68 C 1.128400 0.471520 0.891550
C69 C 1.229800 0.406420 0.844370
H70 H 1.369500 0.449600 0.822800
C71 C 1.126200 0.278760 0.829150
H72 H 1.193600 0.231700 0.797000
C73 C 0.920200 0.219160 0.861640
N74 N 0.805800 0.089820 0.851900
H75 H 0.686000 0.074000 0.871500
C76 C 0.898100 -0.012600 0.816570
O77 O 1.089000 0.003180 0.784630
C78 C 0.736500 -0.145510 0.821320
H79 H 0.732100 -0.173900 0.861300
H80 H 0.543500 -0.128500 0.808500
C81 C 0.856500 -0.262760 0.787210
H82 H 0.750700 -0.348300 0.793700
H83 H 0.846600 -0.238600 0.747200
H84 H 1.050100 -0.277600 0.798600
C85 C 0.798600 0.409070 0.463680
O86 O 0.905200 0.285840 0.472800
H87 H 1.015000 0.276000 0.452500
O88 O 0.875300 0.489950 0.427850
C89 C 0.570600 0.441660 0.502150
H90 H 0.525100 0.376700 0.530700
C91 C 0.201400 0.590930 0.536320
O92 O 0.094800 0.714160 0.527200
H93 H -0.015000 0.724000 0.547500
O94 O 0.124700 0.510050 0.572150
C95 C 0.429400 0.558340 0.497850
H96 H 0.474900 0.623300 0.469300
C97 C -0.298600 -0.090930 0.036320
O98 O -0.405200 -0.214160 0.027200
H99 H -0.515000 -0.224000 0.047500
O100 O -0.375300 -0.010050 0.072150
C101 C -0.070600 -0.058340 -0.002150
H102 H -0.025100 -0.123300 -0.030700
C103 C 0.298600 0.090930 -0.036320
O104 O 0.405200 0.214160 -0.027200
H105 H 0.515000 0.224000 -0.047500
O106 O 0.375300 0.010050 -0.072150
C107 C 0.070600 0.058340 0.002150
H108 H 0.025100 0.123300 0.030700
C109 C -0.298600 -0.090930 1.036320
O110 O -0.405200 -0.214160 1.027200
H111 H -0.515000 -0.224000 1.047500
O112 O -0.375300 -0.010050 1.072150
C113 C -0.070600 -0.058340 0.997850
H114 H -0.025100 -0.123300 0.969300
C115 C 0.298600 0.090930 0.963680
O116 O 0.405200 0.214160 0.972800
H117 H 0.515000 0.224000 0.952500
O118 O 0.375300 0.010050 0.927850
C119 C 0.070600 0.058340 1.002150
H120 H 0.025100 0.123300 1.030700
C121 C -0.298600 0.909070 0.036320
O122 O -0.405200 0.785840 0.027200
H123 H -0.515000 0.776000 0.047500
O124 O -0.375300 0.989950 0.072150
C125 C -0.070600 0.941660 -0.002150
H126 H -0.025100 0.876700 -0.030700
C127 C 0.298600 1.090930 -0.036320
O128 O 0.405200 1.214160 -0.027200
H129 H 0.515000 1.224000 -0.047500
O130 O 0.375300 1.010050 -0.072150
C131 C 0.070600 1.058340 0.002150
H132 H 0.025100 1.123300 0.030700
C133 C -0.298600 0.909070 1.036320
O134 O -0.405200 0.785840 1.027200
H135 H -0.515000 0.776000 1.047500
O136 O -0.375300 0.989950 1.072150
C137 C -0.070600 0.941660 0.997850
H138 H -0.025100 0.876700 0.969300
C139 C 0.298600 1.090930 0.963680
O140 O 0.405200 1.214160 0.972800
H141 H 0.515000 1.224000 0.952500
O142 O 0.375300 1.010050 0.927850
C143 C 0.070600 1.058340 1.002150
H144 H 0.025100 1.123300 1.030700
C145 C 0.701400 -0.090930 0.036320
O146 O 0.594800 -0.214160 0.027200
H147 H 0.485000 -0.224000 0.047500
O148 O 0.624700 -0.010050 0.072150
C149 C 0.929400 -0.058340 -0.002150
H150 H 0.974900 -0.123300 -0.030700
C151 C 1.298600 0.090930 -0.036320
O152 O 1.405200 0.214160 -0.027200
H153 H 1.515000 0.224000 -0.047500
O154 O 1.375300 0.010050 -0.072150
C155 C 1.070600 0.058340 0.002150
H156 H 1.025100 0.123300 0.030700
C157 C 0.701400 -0.090930 1.036320
O158 O 0.594800 -0.214160 1.027200
H159 H 0.485000 -0.224000 1.047500
O160 O 0.624700 -0.010050 1.072150
C161 C 0.929400 -0.058340 0.997850
H162 H 0.974900 -0.123300 0.969300
C163 C 1.298600 0.090930 0.963680
O164 O 1.405200 0.214160 0.972800
H165 H 1.515000 0.224000 0.952500
O166 O 1.375300 0.010050 0.927850
C167 C 1.070600 0.058340 1.002150
H168 H 1.025100 0.123300 1.030700
C169 C 0.701400 0.909070 0.036320
O170 O 0.594800 0.785840 0.027200
H171 H 0.485000 0.776000 0.047500
O172 O 0.624700 0.989950 0.072150
C173 C 0.929400 0.941660 -0.002150
H174 H 0.974900 0.876700 -0.030700
C175 C 1.298600 1.090930 -0.036320
O176 O 1.405200 1.214160 -0.027200
H177 H 1.515000 1.224000 -0.047500
O178 O 1.375300 1.010050 -0.072150
C179 C 1.070600 1.058340 0.002150
H180 H 1.025100 1.123300 0.030700
C181 C 0.701400 0.909070 1.036320
O182 O 0.594800 0.785840 1.027200
H183 H 0.485000 0.776000 1.047500
O184 O 0.624700 0.989950 1.072150
C185 C 0.929400 0.941660 0.997850
H186 H 0.974900 0.876700 0.969300
C187 C 1.298600 1.090930 0.963680
O188 O 1.405200 1.214160 0.972800
H189 H 1.515000 1.224000 0.952500
O190 O 1.375300 1.010050 0.927850
C191 C 1.070600 1.058340 1.002150
H192 H 1.025100 1.123300 1.030700

#END
