
#######################################################################
#
#                 Cambridge Crystallographic Data Centre
#                                CCDC 
#
#######################################################################
#
# If this CIF has been generated from an entry in the Cambridge 
# Structural Database, then it will include bibliographic, chemical, 
# crystal, experimental, refinement or atomic coordinate data resulting 
# from the CCDC's data processing and validation procedures.
#
#######################################################################

data_LADDOM
_symmetry_cell_setting           monoclinic
_symmetry_space_group_name_H-M   'P 21/a'
_symmetry_Int_Tables_number      14
_space_group_name_Hall           '-P 2yab'
loop_
_symmetry_equiv_pos_site_id
_symmetry_equiv_pos_as_xyz
1 x,y,z
2 1/2-x,1/2+y,-z
3 -x,-y,-z
4 1/2+x,1/2-y,z
_cell_length_a                   13.6898(2)
_cell_length_b                   15.5527(2)
_cell_length_c                   14.5021(2)
_cell_angle_alpha                90
_cell_angle_beta                 117.901(2)
_cell_angle_gamma                90
_cell_volume                     2728.77
loop_
_atom_site_label
_atom_site_type_symbol
_atom_site_fract_x
_atom_site_fract_y
_atom_site_fract_z
N1 N 0.96654(7) 0.72541(6) 0.24311(7)
N2 N 0.99518(7) 0.79906(6) 0.73163(7)
N3 N 0.97911(8) 0.71239(6) 0.50694(7)
N4 N 1.11093(8) 0.83716(7) 0.67632(8)
N5 N 1.10374(8) 0.71194(7) 0.39887(7)
N6 N 1.06188(8) 0.73342(7) 0.23620(8)
N7 N 1.09029(8) 0.82298(6) 0.81572(7)
N8 N 1.15875(8) 0.84517(7) 0.78158(8)
N9 N 1.14261(8) 0.72562(7) 0.32940(8)
C1 C 0.87853(8) 0.67101(7) 0.71412(8)
H1 H 0.8674 0.6677 0.6431
H2 H 0.8083 0.6564 0.7113
C2 C 0.87257(12) 0.94609(8) 0.49404(11)
H3 H 0.801 0.9304 0.4855
H4 H 0.8652 0.9932 0.4484
H5 H 0.9191 0.963 0.5651
C3 C 0.81676(13) 0.56234(10) 0.41498(11)
H6 H 0.8331 0.5856 0.482
H7 H 0.8147 0.5007 0.4176
H8 H 0.7463 0.5834 0.3634
C4 C 0.93338(9) 0.78923(7) 0.53259(8)
H9 H 0.86 0.7752 0.5245
C5 C 0.95983(9) 0.59753(7) 0.77535(9)
C6 C 0.90566(10) 0.58973(7) 0.38645(9)
H10 H 0.8843 0.5723 0.3153
H11 H 0.9743 0.5608 0.432
C7 C 0.99467(9) 0.71151(7) 0.34480(8)
C8 C 0.87267(10) 0.90688(8) 0.12224(9)
C9 C 1.00976(9) 0.80809(7) 0.64618(8)
C10 C 0.90616(11) 0.51482(8) 0.71546(11)
H12 H 0.898 0.5185 0.6461
H13 H 0.8348 0.5077 0.7119
H14 H 0.9521 0.4665 0.7509
C11 C 0.87677(18) 0.96384(10) 0.03780(12)
H15 H 0.88 1.0232 0.0573
H16 H 0.8117 0.9543 -0.0274
H17 H 0.9412 0.9498 0.0306
C12 C 0.86088(9) 0.73216(7) 0.14208(8)
C13 C 0.89998(9) 0.76647(7) 0.74607(8)
C14 C 0.77311(15) 0.93381(11) 0.1359(2)
H18 H 0.7737 0.9031 0.1936
H19 H 0.7064 0.9208 0.0735
H20 H 0.7766 0.9945 0.1493
C15 C 0.92407(10) 0.86948(7) 0.46735(9)
H21 H 0.9973 0.8854 0.4783
H22 H 0.8797 0.8557 0.394
C16 C 0.92418(9) 0.68758(7) 0.39623(8)
H23 H 0.8527 0.7169 0.3603
C17 C 0.86516(10) 0.81337(7) 0.08220(8)
H24 H 0.7998 0.8112 0.0147
H25 H 0.9279 0.8057 0.0691
C18 C 0.97697(12) 0.92442(9) 0.22360(10)
H26 H 0.9809 0.9845 0.2401
H27 H 1.0405 0.9084 0.2159
H28 H 0.9754 0.8914 0.2788
C19 C 1.07250(10) 0.60808(8) 0.77912(12)
H29 H 1.1159 0.5572 0.8083
H30 H 1.1099 0.6568 0.8217
H31 H 1.0626 0.6168 0.7098
C20 C 0.97275(14) 0.58505(10) 0.88542(10)
H32 H 1.0051 0.5298 0.9117
H33 H 0.9015 0.5882 0.8829
H34 H 1.0197 0.6293 0.9306
C21 C 0.79742(9) 0.81939(8) 0.67530(10)
H35 H 0.8152 0.8795 0.6853
H36 H 0.7391 0.8073 0.6925
H37 H 0.7738 0.8044 0.6037
C22 C 0.85783(11) 0.65367(8) 0.07669(9)
H38 H 0.9223 0.6536 0.0667
H39 H 0.7928 0.6562 0.0101
H40 H 0.8564 0.6021 0.1124
C23 C 0.76021(10) 0.72947(9) 0.16053(10)
H41 H 0.7562 0.6744 0.1884
H42 H 0.6946 0.7386 0.0957
H43 H 0.7664 0.7737 0.2091
C24 C 0.92481(11) 0.78444(8) 0.85865(9)
H44 H 0.9949 0.7597 0.9056
H45 H 0.868 0.7595 0.8712
H46 H 0.9271 0.8454 0.8698
H47 H 1.0507(14) 0.7220(10) 0.5286(12)
N1 N 0.53346(7) 0.22541(6) 0.75689(7)
N2 N 0.50482(7) 0.29906(6) 0.26837(7)
N3 N 0.52089(8) 0.21239(6) 0.49306(7)
N4 N 0.38907(8) 0.33716(7) 0.32368(8)
N5 N 0.39626(8) 0.21194(7) 0.60113(7)
N6 N 0.43812(8) 0.23342(7) 0.76380(8)
N7 N 0.40971(8) 0.32298(6) 0.18428(7)
N8 N 0.34125(8) 0.34517(7) 0.21842(8)
N9 N 0.35739(8) 0.22562(7) 0.67060(8)
C1 C 0.62147(8) 0.17101(7) 0.28588(8)
H1 H 0.6326 0.1677 0.3569
H2 H 0.6917 0.1564 0.2887
C2 C 0.62743(12) 0.44609(8) 0.50596(11)
H3 H 0.699 0.4304 0.5145
H4 H 0.6348 0.4932 0.5516
H5 H 0.5809 0.463 0.4349
C3 C 0.68324(13) 0.06234(10) 0.58502(11)
H6 H 0.6669 0.0856 0.518
H7 H 0.6853 0.0007 0.5824
H8 H 0.7537 0.0834 0.6366
C4 C 0.56662(9) 0.28923(7) 0.46741(8)
H9 H 0.64 0.2752 0.4755
C5 C 0.54017(9) 0.09753(7) 0.22465(9)
C6 C 0.59434(10) 0.08973(7) 0.61355(9)
H10 H 0.6157 0.0723 0.6847
H11 H 0.5257 0.0608 0.568
C7 C 0.50533(9) 0.21151(7) 0.65520(8)
C8 C 0.62733(10) 0.40688(8) 0.87776(9)
C9 C 0.49024(9) 0.30809(7) 0.35382(8)
C10 C 0.59384(11) 0.01482(8) 0.28454(11)
H12 H 0.602 0.0185 0.3539
H13 H 0.6652 0.0077 0.2881
H14 H 0.5479 -0.0335 0.2491
C11 C 0.62323(18) 0.46384(10) 0.96220(12)
H15 H 0.62 0.5232 0.9427
H16 H 0.6883 0.4543 1.0274
H17 H 0.5588 0.4498 0.9694
C12 C 0.63912(9) 0.23216(7) 0.85792(8)
C13 C 0.60002(9) 0.26647(7) 0.25393(8)
C14 C 0.72689(15) 0.43381(11) 0.8641(2)
H18 H 0.7263 0.4031 0.8064
H19 H 0.7936 0.4208 0.9265
H20 H 0.7234 0.4945 0.8507
C15 C 0.57593(10) 0.36948(7) 0.53265(9)
H21 H 0.5027 0.3854 0.5217
H22 H 0.6203 0.3557 0.606
C16 C 0.57582(9) 0.18758(7) 0.60377(8)
H23 H 0.6473 0.2169 0.6397
C17 C 0.63484(10) 0.31337(7) 0.91780(8)
H24 H 0.7002 0.3112 0.9853
H25 H 0.5721 0.3057 0.9309
C18 C 0.52303(12) 0.42442(9) 0.77640(10)
H26 H 0.5191 0.4845 0.7599
H27 H 0.4595 0.4084 0.7841
H28 H 0.5246 0.3914 0.7212
C19 C 0.42750(10) 0.10808(8) 0.22088(12)
H29 H 0.3841 0.0572 0.1917
H30 H 0.3901 0.1568 0.1783
H31 H 0.4374 0.1168 0.2902
C20 C 0.52725(14) 0.08505(10) 0.11458(10)
H32 H 0.4949 0.0298 0.0883
H33 H 0.5985 0.0882 0.1171
H34 H 0.4803 0.1293 0.0694
C21 C 0.70258(9) 0.31939(8) 0.32470(10)
H35 H 0.6848 0.3795 0.3147
H36 H 0.7609 0.3073 0.3075
H37 H 0.7262 0.3044 0.3963
C22 C 0.64217(11) 0.15367(8) 0.92331(9)
H38 H 0.5777 0.1536 0.9333
H39 H 0.7072 0.1562 0.9899
H40 H 0.6436 0.1021 0.8876
C23 C 0.73979(10) 0.22947(9) 0.83947(10)
H41 H 0.7438 0.1744 0.8116
H42 H 0.8054 0.2386 0.9043
H43 H 0.7336 0.2737 0.7909
C24 C 0.57519(11) 0.28444(8) 0.14135(9)
H44 H 0.5051 0.2597 0.0944
H45 H 0.632 0.2595 0.1288
H46 H 0.5729 0.3454 0.1302
H47 H 0.4493(14) 0.2220(10) 0.4714(12)
N1 N 0.03346(7) 0.27459(6) 0.75689(7)
N2 N 0.00482(7) 0.20094(6) 0.26837(7)
N3 N 0.02089(8) 0.28761(6) 0.49306(7)
N4 N -0.11093(8) 0.16284(7) 0.32368(8)
N5 N -0.10374(8) 0.28806(7) 0.60113(7)
N6 N -0.06188(8) 0.26658(7) 0.76380(8)
N7 N -0.09029(8) 0.17702(6) 0.18428(7)
N8 N -0.15875(8) 0.15483(7) 0.21842(8)
N9 N -0.14261(8) 0.27438(7) 0.67060(8)
C1 C 0.12147(8) 0.32899(7) 0.28588(8)
H1 H 0.1326 0.3323 0.3569
H2 H 0.1917 0.3436 0.2887
C2 C 0.12743(12) 0.05391(8) 0.50596(11)
H3 H 0.199 0.0696 0.5145
H4 H 0.1348 0.0068 0.5516
H5 H 0.0809 0.037 0.4349
C3 C 0.18324(13) 0.43766(10) 0.58502(11)
H6 H 0.1669 0.4144 0.518
H7 H 0.1853 0.4993 0.5824
H8 H 0.2537 0.4166 0.6366
C4 C 0.06662(9) 0.21077(7) 0.46741(8)
H9 H 0.14 0.2248 0.4755
C5 C 0.04017(9) 0.40247(7) 0.22465(9)
C6 C 0.09434(10) 0.41027(7) 0.61355(9)
H10 H 0.1157 0.4277 0.6847
H11 H 0.0257 0.4392 0.568
C7 C 0.00533(9) 0.28849(7) 0.65520(8)
C8 C 0.12733(10) 0.09312(8) 0.87776(9)
C9 C -0.00976(9) 0.19191(7) 0.35382(8)
C10 C 0.09384(11) 0.48518(8) 0.28454(11)
H12 H 0.102 0.4815 0.3539
H13 H 0.1652 0.4923 0.2881
H14 H 0.0479 0.5335 0.2491
C11 C 0.12323(18) 0.03616(10) 0.96220(12)
H15 H 0.12 -0.0232 0.9427
H16 H 0.1883 0.0457 1.0274
H17 H 0.0588 0.0502 0.9694
C12 C 0.13912(9) 0.26784(7) 0.85792(8)
C13 C 0.10002(9) 0.23353(7) 0.25393(8)
C14 C 0.22689(15) 0.06619(11) 0.8641(2)
H18 H 0.2263 0.0969 0.8064
H19 H 0.2936 0.0792 0.9265
H20 H 0.2234 0.0055 0.8507
C15 C 0.07593(10) 0.13052(7) 0.53265(9)
H21 H 0.0027 0.1146 0.5217
H22 H 0.1203 0.1443 0.606
C16 C 0.07582(9) 0.31242(7) 0.60377(8)
H23 H 0.1473 0.2831 0.6397
C17 C 0.13484(10) 0.18663(7) 0.91780(8)
H24 H 0.2002 0.1888 0.9853
H25 H 0.0721 0.1943 0.9309
C18 C 0.02303(12) 0.07558(9) 0.77640(10)
H26 H 0.0191 0.0155 0.7599
H27 H -0.0405 0.0916 0.7841
H28 H 0.0246 0.1086 0.7212
C19 C -0.07250(10) 0.39192(8) 0.22088(12)
H29 H -0.1159 0.4428 0.1917
H30 H -0.1099 0.3432 0.1783
H31 H -0.0626 0.3832 0.2902
C20 C 0.02725(14) 0.41495(10) 0.11458(10)
H32 H -0.0051 0.4702 0.0883
H33 H 0.0985 0.4118 0.1171
H34 H -0.0197 0.3707 0.0694
C21 C 0.20258(9) 0.18061(8) 0.32470(10)
H35 H 0.1848 0.1205 0.3147
H36 H 0.2609 0.1927 0.3075
H37 H 0.2262 0.1956 0.3963
C22 C 0.14217(11) 0.34633(8) 0.92331(9)
H38 H 0.0777 0.3464 0.9333
H39 H 0.2072 0.3438 0.9899
H40 H 0.1436 0.3979 0.8876
C23 C 0.23979(10) 0.27053(9) 0.83947(10)
H41 H 0.2438 0.3256 0.8116
H42 H 0.3054 0.2614 0.9043
H43 H 0.2336 0.2263 0.7909
C24 C 0.07519(11) 0.21556(8) 0.14135(9)
H44 H 0.0051 0.2403 0.0944
H45 H 0.132 0.2405 0.1288
H46 H 0.0729 0.1546 0.1302
H47 H -0.0507(14) 0.2780(10) 0.4714(12)
N1 N 0.46654(7) 0.77459(6) 0.24311(7)
N2 N 0.49518(7) 0.70094(6) 0.73163(7)
N3 N 0.47911(8) 0.78761(6) 0.50694(7)
N4 N 0.61093(8) 0.66284(7) 0.67632(8)
N5 N 0.60374(8) 0.78806(7) 0.39887(7)
N6 N 0.56188(8) 0.76658(7) 0.23620(8)
N7 N 0.59029(8) 0.67702(6) 0.81572(7)
N8 N 0.65875(8) 0.65483(7) 0.78158(8)
N9 N 0.64261(8) 0.77438(7) 0.32940(8)
C1 C 0.37853(8) 0.82899(7) 0.71412(8)
H1 H 0.3674 0.8323 0.6431
H2 H 0.3083 0.8436 0.7113
C2 C 0.37257(12) 0.55391(8) 0.49404(11)
H3 H 0.301 0.5696 0.4855
H4 H 0.3652 0.5068 0.4484
H5 H 0.4191 0.537 0.5651
C3 C 0.31676(13) 0.93766(10) 0.41498(11)
H6 H 0.3331 0.9144 0.482
H7 H 0.3147 0.9993 0.4176
H8 H 0.2463 0.9166 0.3634
C4 C 0.43338(9) 0.71077(7) 0.53259(8)
H9 H 0.36 0.7248 0.5245
C5 C 0.45983(9) 0.90247(7) 0.77535(9)
C6 C 0.40566(10) 0.91027(7) 0.38645(9)
H10 H 0.3843 0.9277 0.3153
H11 H 0.4743 0.9392 0.432
C7 C 0.49467(9) 0.78849(7) 0.34480(8)
C8 C 0.37267(10) 0.59312(8) 0.12224(9)
C9 C 0.50976(9) 0.69191(7) 0.64618(8)
C10 C 0.40616(11) 0.98518(8) 0.71546(11)
H12 H 0.398 0.9815 0.6461
H13 H 0.3348 0.9923 0.7119
H14 H 0.4521 1.0335 0.7509
C11 C 0.37677(18) 0.53616(10) 0.03780(12)
H15 H 0.38 0.4768 0.0573
H16 H 0.3117 0.5457 -0.0274
H17 H 0.4412 0.5502 0.0306
C12 C 0.36088(9) 0.76784(7) 0.14208(8)
C13 C 0.39998(9) 0.73353(7) 0.74607(8)
C14 C 0.27311(15) 0.56619(11) 0.1359(2)
H18 H 0.2737 0.5969 0.1936
H19 H 0.2064 0.5792 0.0735
H20 H 0.2766 0.5055 0.1493
C15 C 0.42407(10) 0.63052(7) 0.46735(9)
H21 H 0.4973 0.6146 0.4783
H22 H 0.3797 0.6443 0.394
C16 C 0.42418(9) 0.81242(7) 0.39623(8)
H23 H 0.3527 0.7831 0.3603
C17 C 0.36516(10) 0.68663(7) 0.08220(8)
H24 H 0.2998 0.6888 0.0147
H25 H 0.4279 0.6943 0.0691
C18 C 0.47697(12) 0.57558(9) 0.22360(10)
H26 H 0.4809 0.5155 0.2401
H27 H 0.5405 0.5916 0.2159
H28 H 0.4754 0.6086 0.2788
C19 C 0.57250(10) 0.89192(8) 0.77912(12)
H29 H 0.6159 0.9428 0.8083
H30 H 0.6099 0.8432 0.8217
H31 H 0.5626 0.8832 0.7098
C20 C 0.47275(14) 0.91495(10) 0.88542(10)
H32 H 0.5051 0.9702 0.9117
H33 H 0.4015 0.9118 0.8829
H34 H 0.5197 0.8707 0.9306
C21 C 0.29742(9) 0.68061(8) 0.67530(10)
H35 H 0.3152 0.6205 0.6853
H36 H 0.2391 0.6927 0.6925
H37 H 0.2738 0.6956 0.6037
C22 C 0.35783(11) 0.84633(8) 0.07669(9)
H38 H 0.4223 0.8464 0.0667
H39 H 0.2928 0.8438 0.0101
H40 H 0.3564 0.8979 0.1124
C23 C 0.26021(10) 0.77053(9) 0.16053(10)
H41 H 0.2562 0.8256 0.1884
H42 H 0.1946 0.7614 0.0957
H43 H 0.2664 0.7263 0.2091
C24 C 0.42481(11) 0.71556(8) 0.85865(9)
H44 H 0.4949 0.7403 0.9056
H45 H 0.368 0.7405 0.8712
H46 H 0.4271 0.6546 0.8698
H47 H 0.5507(14) 0.7780(10) 0.5286(12)

#END
