
#######################################################################
#
#                 Cambridge Crystallographic Data Centre
#                                CCDC 
#
#######################################################################
#
# If this CIF has been generated from an entry in the Cambridge 
# Structural Database, then it will include bibliographic, chemical, 
# crystal, experimental, refinement or atomic coordinate data resulting 
# from the CCDC's data processing and validation procedures.
#
#######################################################################

data_LADREQ
_symmetry_cell_setting           monoclinic
_symmetry_space_group_name_H-M   'P 21/c'
_symmetry_Int_Tables_number      14
_space_group_name_Hall           '-P 2ybc'
loop_
_symmetry_equiv_pos_site_id
_symmetry_equiv_pos_as_xyz
1 x,y,z
2 -x,1/2+y,1/2-z
3 -x,-y,-z
4 x,1/2-y,1/2+z
_cell_length_a                   11.8406(4)
_cell_length_b                   7.8608(2)
_cell_length_c                   19.1589(6)
_cell_angle_alpha                90
_cell_angle_beta                 103.064(3)
_cell_angle_gamma                90
_cell_volume                     1737.09
loop_
_atom_site_label
_atom_site_type_symbol
_atom_site_fract_x
_atom_site_fract_y
_atom_site_fract_z
C1 C 0.13302(12) 0.79242(17) 0.36433(7)
H1 H 0.1207 0.9167 0.3663
H2 H 0.056 0.737 0.3512
N1 N 0.35081(11) 1.12145(14) 0.44649(6)
C2 C 0.13397(13) 0.80198(16) 0.23191(8)
N2 N 0.37725(12) 0.72134(16) 0.53057(7)
N3 N 0.26615(11) 1.06061(14) 0.53210(6)
C3 C 0.28269(13) 1.03440(17) 0.66239(8)
C4 C 0.20119(12) 0.75311(17) 0.30665(7)
H3 H 0.2131 0.6272 0.3067
C5 C 0.38645(13) 0.77981(18) 0.40315(8)
H4 H 0.46 0.8443 0.416
H5 H 0.4064 0.6578 0.4014
N4 N 0.27457(11) 1.23242(15) 0.53004(7)
C6 C 0.17706(13) 0.91492(18) 0.18810(8)
H6 H 0.2505 0.9666 0.2056
C7 C 0.00700(14) 0.88041(18) 0.09249(8)
H7 H -0.0359 0.9069 0.0456
N5 N 0.32491(11) 1.26735(15) 0.47859(7)
C8 C 0.23072(16) 1.13926(18) 0.70447(9)
H8 H 0.1545 1.1813 0.6862
C9 C 0.21675(13) 0.98212(19) 0.58869(8)
H9 H 0.2191 0.8567 0.5844
H10 H 0.1346 1.0168 0.582
C10 C -0.03705(14) 0.76780(19) 0.13538(8)
H11 H -0.1109 0.7173 0.1178
C11 C 0.19751(13) 0.72951(17) 0.43786(8)
H12 H 0.2039 0.604 0.4364
H13 H 0.1515 0.7583 0.4734
C12 C 0.11435(14) 0.95353(18) 0.11906(8)
H14 H 0.1456 1.0305 0.0902
C13 C 0.02602(14) 0.72825(18) 0.20393(8)
H15 H -0.005 0.6495 0.2322
C14 C 0.40103(18) 1.1222(2) 0.79994(9)
H16 H 0.4416 1.1524 0.8469
C15 C 0.39363(15) 0.9736(2) 0.68941(9)
H17 H 0.4293 0.9017 0.6608
C16 C 0.32120(12) 0.83507(18) 0.32826(7)
H18 H 0.3126 0.9604 0.3272
H19 H 0.3671 0.8033 0.293
C17 C 0.31303(11) 0.99415(17) 0.48015(7)
C18 C 0.31980(13) 0.80548(16) 0.46288(7)
C19 C 0.45297(16) 1.0175(2) 0.75812(9)
H20 H 0.5292 0.9757 0.7765
C20 C 0.29005(18) 1.1826(2) 0.77311(9)
H21 H 0.2543 1.254 0.8018
H22 H 0.376(2) 0.604(3) 0.5221(12)
H23 H 0.453(2) 0.747(2) 0.5407(12)
C1 C 0.86698(12) 0.29242(17) 0.13567(7)
H1 H 0.8793 0.4167 0.1337
H2 H 0.944 0.237 0.1488
N1 N 0.64919(11) 0.62145(14) 0.05351(6)
C2 C 0.86603(13) 0.30198(16) 0.26809(8)
N2 N 0.62275(12) 0.22134(16) -0.03057(7)
N3 N 0.73385(11) 0.56061(14) -0.03210(6)
C3 C 0.71731(13) 0.53440(17) -0.16239(8)
C4 C 0.79881(12) 0.25311(17) 0.19335(7)
H3 H 0.7869 0.1272 0.1933
C5 C 0.61355(13) 0.27981(18) 0.09685(8)
H4 H 0.54 0.3443 0.084
H5 H 0.5936 0.1578 0.0986
N4 N 0.72543(11) 0.73242(15) -0.03004(7)
C6 C 0.82294(13) 0.41492(18) 0.31190(8)
H6 H 0.7495 0.4666 0.2944
C7 C 0.99300(14) 0.38041(18) 0.40751(8)
H7 H 1.0359 0.4069 0.4544
N5 N 0.67509(11) 0.76735(15) 0.02141(7)
C8 C 0.76928(16) 0.63926(18) -0.20447(9)
H8 H 0.8455 0.6813 -0.1862
C9 C 0.78325(13) 0.48212(19) -0.08869(8)
H9 H 0.7809 0.3567 -0.0844
H10 H 0.8654 0.5168 -0.082
C10 C 1.03705(14) 0.26780(19) 0.36462(8)
H11 H 1.1109 0.2173 0.3822
C11 C 0.80249(13) 0.22951(17) 0.06214(8)
H12 H 0.7961 0.104 0.0636
H13 H 0.8485 0.2583 0.0266
C12 C 0.88565(14) 0.45353(18) 0.38094(8)
H14 H 0.8544 0.5305 0.4098
C13 C 0.97398(14) 0.22825(18) 0.29607(8)
H15 H 1.005 0.1495 0.2678
C14 C 0.59897(18) 0.6222(2) -0.29994(9)
H16 H 0.5584 0.6524 -0.3469
C15 C 0.60637(15) 0.4736(2) -0.18941(9)
H17 H 0.5707 0.4017 -0.1608
C16 C 0.67880(12) 0.33507(18) 0.17174(7)
H18 H 0.6874 0.4604 0.1728
H19 H 0.6329 0.3033 0.207
C17 C 0.68697(11) 0.49415(17) 0.01985(7)
C18 C 0.68020(13) 0.30548(16) 0.03712(7)
C19 C 0.54703(16) 0.5175(2) -0.25812(9)
H20 H 0.4708 0.4757 -0.2765
C20 C 0.70995(18) 0.6826(2) -0.27311(9)
H21 H 0.7457 0.754 -0.3018
H22 H 0.624(2) 0.104(3) -0.0221(12)
H23 H 0.547(2) 0.247(2) -0.0407(12)
C1 C 0.86698(12) 0.20758(17) 0.63567(7)
H1 H 0.8793 0.0833 0.6337
H2 H 0.944 0.263 0.6488
N1 N 0.64919(11) -0.12145(14) 0.55351(6)
C2 C 0.86603(13) 0.19802(16) 0.76809(8)
N2 N 0.62275(12) 0.27866(16) 0.46943(7)
N3 N 0.73385(11) -0.06061(14) 0.46790(6)
C3 C 0.71731(13) -0.03440(17) 0.33761(8)
C4 C 0.79881(12) 0.24689(17) 0.69335(7)
H3 H 0.7869 0.3728 0.6933
C5 C 0.61355(13) 0.22019(18) 0.59685(8)
H4 H 0.54 0.1557 0.584
H5 H 0.5936 0.3422 0.5986
N4 N 0.72543(11) -0.23242(15) 0.46996(7)
C6 C 0.82294(13) 0.08508(18) 0.81190(8)
H6 H 0.7495 0.0334 0.7944
C7 C 0.99300(14) 0.11959(18) 0.90751(8)
H7 H 1.0359 0.0931 0.9544
N5 N 0.67509(11) -0.26735(15) 0.52141(7)
C8 C 0.76928(16) -0.13926(18) 0.29553(9)
H8 H 0.8455 -0.1813 0.3138
C9 C 0.78325(13) 0.01788(19) 0.41131(8)
H9 H 0.7809 0.1433 0.4156
H10 H 0.8654 -0.0168 0.418
C10 C 1.03705(14) 0.23220(19) 0.86462(8)
H11 H 1.1109 0.2827 0.8822
C11 C 0.80249(13) 0.27049(17) 0.56214(8)
H12 H 0.7961 0.396 0.5636
H13 H 0.8485 0.2417 0.5266
C12 C 0.88565(14) 0.04647(18) 0.88094(8)
H14 H 0.8544 -0.0305 0.9098
C13 C 0.97398(14) 0.27175(18) 0.79607(8)
H15 H 1.005 0.3505 0.7678
C14 C 0.59897(18) -0.1222(2) 0.20006(9)
H16 H 0.5584 -0.1524 0.1531
C15 C 0.60637(15) 0.0264(2) 0.31059(9)
H17 H 0.5707 0.0983 0.3392
C16 C 0.67880(12) 0.16493(18) 0.67174(7)
H18 H 0.6874 0.0396 0.6728
H19 H 0.6329 0.1967 0.707
C17 C 0.68697(11) 0.00585(17) 0.51985(7)
C18 C 0.68020(13) 0.19452(16) 0.53712(7)
C19 C 0.54703(16) -0.0175(2) 0.24188(9)
H20 H 0.4708 0.0243 0.2235
C20 C 0.70995(18) -0.1826(2) 0.22689(9)
H21 H 0.7457 -0.254 0.1982
H22 H 0.624(2) 0.396(3) 0.4779(12)
H23 H 0.547(2) 0.253(2) 0.4593(12)
C1 C 0.13302(12) 0.70758(17) 0.86433(7)
H1 H 0.1207 0.5833 0.8663
H2 H 0.056 0.763 0.8512
N1 N 0.35081(11) 0.37855(14) 0.94649(6)
C2 C 0.13397(13) 0.69802(16) 0.73191(8)
N2 N 0.37725(12) 0.77866(16) 1.03057(7)
N3 N 0.26615(11) 0.43939(14) 1.03210(6)
C3 C 0.28269(13) 0.46560(17) 1.16239(8)
C4 C 0.20119(12) 0.74689(17) 0.80665(7)
H3 H 0.2131 0.8728 0.8067
C5 C 0.38645(13) 0.72019(18) 0.90315(8)
H4 H 0.46 0.6557 0.916
H5 H 0.4064 0.8422 0.9014
N4 N 0.27457(11) 0.26758(15) 1.03004(7)
C6 C 0.17706(13) 0.58508(18) 0.68810(8)
H6 H 0.2505 0.5334 0.7056
C7 C 0.00700(14) 0.61959(18) 0.59249(8)
H7 H -0.0359 0.5931 0.5456
N5 N 0.32491(11) 0.23265(15) 0.97859(7)
C8 C 0.23072(16) 0.36074(18) 1.20447(9)
H8 H 0.1545 0.3187 1.1862
C9 C 0.21675(13) 0.51788(19) 1.08869(8)
H9 H 0.2191 0.6433 1.0844
H10 H 0.1346 0.4832 1.082
C10 C -0.03705(14) 0.73220(19) 0.63538(8)
H11 H -0.1109 0.7827 0.6178
C11 C 0.19751(13) 0.77049(17) 0.93786(8)
H12 H 0.2039 0.896 0.9364
H13 H 0.1515 0.7417 0.9734
C12 C 0.11435(14) 0.54647(18) 0.61906(8)
H14 H 0.1456 0.4695 0.5902
C13 C 0.02602(14) 0.77175(18) 0.70393(8)
H15 H -0.005 0.8505 0.7322
C14 C 0.40103(18) 0.3778(2) 1.29994(9)
H16 H 0.4416 0.3476 1.3469
C15 C 0.39363(15) 0.5264(2) 1.18941(9)
H17 H 0.4293 0.5983 1.1608
C16 C 0.32120(12) 0.66493(18) 0.82826(7)
H18 H 0.3126 0.5396 0.8272
H19 H 0.3671 0.6967 0.793
C17 C 0.31303(11) 0.50585(17) 0.98015(7)
C18 C 0.31980(13) 0.69452(16) 0.96288(7)
C19 C 0.45297(16) 0.4825(2) 1.25812(9)
H20 H 0.5292 0.5243 1.2765
C20 C 0.29005(18) 0.3174(2) 1.27311(9)
H21 H 0.2543 0.246 1.3018
H22 H 0.376(2) 0.896(3) 1.0221(12)
H23 H 0.453(2) 0.753(2) 1.0407(12)

#END
