./LAFDED_from_xyz.cif_generated_by_CrystalShift
_symmetry_cell_setting triclinic
_symmetry_space_group_name_H-M 'P 1'
loop_
_symmetry_equiv_pos_site_id
_symmetry_equiv_pos_as_xyz
1 x,y,z
_cell_length_a 8.133100
_cell_length_b 20.693800
_cell_length_c 8.349600
_cell_angle_alpha 90.000000
_cell_angle_beta 109.930000
_cell_angle_gamma 90.000000
_cell_volume 1321.114995
loop_
_atom_site_label
_atom_site_type_symbol
_atom_site_fract_x
_atom_site_fract_y
_atom_site_fract_z
Br1 Br 0.359500 0.207849 0.970020
Br2 Br 0.140500 0.707849 0.529980
Br3 Br 0.640500 0.792151 0.029980
Br4 Br 0.859500 0.292151 0.470020
C5 C 0.543800 0.531270 0.532200
N6 N 0.705700 0.647040 0.650000
C7 C 0.706700 0.545670 0.526400
C8 C 0.786700 0.711460 0.704800
C9 C 0.704100 0.762220 0.572700
C10 C 0.785800 0.827620 0.626100
C11 C 0.466400 0.577000 0.601900
O12 O 0.640700 0.989390 0.273900
C13 C 0.549700 0.634260 0.660600
C14 C 0.784900 0.603350 0.585400
O15 O 0.748900 1.055190 0.490500
C16 C 0.706400 0.879340 0.494800
C17 C 0.776900 0.945210 0.551800
C18 C 0.713300 0.997510 0.422700
H19 H 0.350000 0.572000 0.609000
H20 H 0.504000 0.664700 0.703000
H21 H 0.760000 0.519300 0.483000
H22 H 0.895000 0.615100 0.587000
H23 H 0.902000 0.706300 0.717000
H24 H 0.777000 0.721700 0.814000
H25 H 0.715000 0.750200 0.464000
H26 H 0.911000 0.826500 0.654000
H27 H 0.778000 0.840500 0.732000
H28 H 0.721000 0.869400 0.386000
H29 H 0.583000 0.764100 0.556000
H30 H 0.583000 0.881700 0.462000
H31 H 0.914000 0.943300 0.605000
H32 H 0.733000 1.084000 0.411000
H33 H 0.752000 0.956100 0.646000
C34 C 0.456200 0.468730 0.467800
N35 N 0.294300 0.352960 0.350000
C36 C 0.293300 0.454330 0.473600
C37 C 0.213300 0.288540 0.295200
C38 C 0.295900 0.237780 0.427300
C39 C 0.214200 0.172380 0.373900
C40 C 0.533600 0.423000 0.398100
O41 O 0.359300 0.010610 0.726100
C42 C 0.450300 0.365740 0.339400
C43 C 0.215100 0.396650 0.414600
O44 O 0.251100 -0.055190 0.509500
C45 C 0.293600 0.120660 0.505200
C46 C 0.223100 0.054790 0.448200
C47 C 0.286700 0.002490 0.577300
H48 H 0.650000 0.428000 0.391000
H49 H 0.496000 0.335300 0.297000
H50 H 0.240000 0.480700 0.517000
H51 H 0.105000 0.384900 0.413000
H52 H 0.098000 0.293700 0.283000
H53 H 0.223000 0.278300 0.186000
H54 H 0.285000 0.249800 0.536000
H55 H 0.089000 0.173500 0.346000
H56 H 0.222000 0.159500 0.268000
H57 H 0.279000 0.130600 0.614000
H58 H 0.417000 0.235900 0.444000
H59 H 0.417000 0.118300 0.538000
H60 H 0.086000 0.056700 0.395000
H61 H 0.267000 -0.084000 0.589000
H62 H 0.248000 0.043900 0.354000
C63 C -0.043800 0.031270 -0.032200
N64 N -0.205700 0.147040 -0.150000
C65 C -0.206700 0.045670 -0.026400
C66 C -0.286700 0.211460 -0.204800
C67 C -0.204100 0.262220 -0.072700
C68 C -0.285800 0.327620 -0.126100
C69 C 0.033600 0.077000 -0.101900
O70 O -0.140700 0.489390 0.226100
C71 C -0.049700 0.134260 -0.160600
C72 C -0.284900 0.103350 -0.085400
O73 O -0.248900 0.555190 0.009500
C74 C -0.206400 0.379340 0.005200
C75 C -0.276900 0.445210 -0.051800
C76 C -0.213300 0.497510 0.077300
H77 H 0.150000 0.072000 -0.109000
H78 H -0.004000 0.164700 -0.203000
H79 H -0.260000 0.019300 0.017000
H80 H -0.395000 0.115100 -0.087000
H81 H -0.402000 0.206300 -0.217000
H82 H -0.277000 0.221700 -0.314000
H83 H -0.215000 0.250200 0.036000
H84 H -0.411000 0.326500 -0.154000
H85 H -0.278000 0.340500 -0.232000
H86 H -0.221000 0.369400 0.114000
H87 H -0.083000 0.264100 -0.056000
H88 H -0.083000 0.381700 0.038000
H89 H -0.414000 0.443300 -0.105000
H90 H -0.233000 0.584000 0.089000
H91 H -0.252000 0.456100 -0.146000
C92 C 0.043800 -0.031270 0.032200
N93 N 0.205700 -0.147040 0.150000
C94 C 0.206700 -0.045670 0.026400
C95 C 0.286700 -0.211460 0.204800
C96 C 0.204100 -0.262220 0.072700
C97 C 0.285800 -0.327620 0.126100
C98 C -0.033600 -0.077000 0.101900
O99 O 0.140700 -0.489390 -0.226100
C100 C 0.049700 -0.134260 0.160600
C101 C 0.284900 -0.103350 0.085400
O102 O 0.248900 -0.555190 -0.009500
C103 C 0.206400 -0.379340 -0.005200
C104 C 0.276900 -0.445210 0.051800
C105 C 0.213300 -0.497510 -0.077300
H106 H -0.150000 -0.072000 0.109000
H107 H 0.004000 -0.164700 0.203000
H108 H 0.260000 -0.019300 -0.017000
H109 H 0.395000 -0.115100 0.087000
H110 H 0.402000 -0.206300 0.217000
H111 H 0.277000 -0.221700 0.314000
H112 H 0.215000 -0.250200 -0.036000
H113 H 0.411000 -0.326500 0.154000
H114 H 0.278000 -0.340500 0.232000
H115 H 0.221000 -0.369400 -0.114000
H116 H 0.083000 -0.264100 0.056000
H117 H 0.083000 -0.381700 -0.038000
H118 H 0.414000 -0.443300 0.105000
H119 H 0.233000 -0.584000 -0.089000
H120 H 0.252000 -0.456100 0.146000
C121 C -0.043800 0.031270 0.967800
N122 N -0.205700 0.147040 0.850000
C123 C -0.206700 0.045670 0.973600
C124 C -0.286700 0.211460 0.795200
C125 C -0.204100 0.262220 0.927300
C126 C -0.285800 0.327620 0.873900
C127 C 0.033600 0.077000 0.898100
O128 O -0.140700 0.489390 1.226100
C129 C -0.049700 0.134260 0.839400
C130 C -0.284900 0.103350 0.914600
O131 O -0.248900 0.555190 1.009500
C132 C -0.206400 0.379340 1.005200
C133 C -0.276900 0.445210 0.948200
C134 C -0.213300 0.497510 1.077300
H135 H 0.150000 0.072000 0.891000
H136 H -0.004000 0.164700 0.797000
H137 H -0.260000 0.019300 1.017000
H138 H -0.395000 0.115100 0.913000
H139 H -0.402000 0.206300 0.783000
H140 H -0.277000 0.221700 0.686000
H141 H -0.215000 0.250200 1.036000
H142 H -0.411000 0.326500 0.846000
H143 H -0.278000 0.340500 0.768000
H144 H -0.221000 0.369400 1.114000
H145 H -0.083000 0.264100 0.944000
H146 H -0.083000 0.381700 1.038000
H147 H -0.414000 0.443300 0.895000
H148 H -0.233000 0.584000 1.089000
H149 H -0.252000 0.456100 0.854000
C150 C 0.043800 -0.031270 1.032200
N151 N 0.205700 -0.147040 1.150000
C152 C 0.206700 -0.045670 1.026400
C153 C 0.286700 -0.211460 1.204800
C154 C 0.204100 -0.262220 1.072700
C155 C 0.285800 -0.327620 1.126100
C156 C -0.033600 -0.077000 1.101900
O157 O 0.140700 -0.489390 0.773900
C158 C 0.049700 -0.134260 1.160600
C159 C 0.284900 -0.103350 1.085400
O160 O 0.248900 -0.555190 0.990500
C161 C 0.206400 -0.379340 0.994800
C162 C 0.276900 -0.445210 1.051800
C163 C 0.213300 -0.497510 0.922700
H164 H -0.150000 -0.072000 1.109000
H165 H 0.004000 -0.164700 1.203000
H166 H 0.260000 -0.019300 0.983000
H167 H 0.395000 -0.115100 1.087000
H168 H 0.402000 -0.206300 1.217000
H169 H 0.277000 -0.221700 1.314000
H170 H 0.215000 -0.250200 0.964000
H171 H 0.411000 -0.326500 1.154000
H172 H 0.278000 -0.340500 1.232000
H173 H 0.221000 -0.369400 0.886000
H174 H 0.083000 -0.264100 1.056000
H175 H 0.083000 -0.381700 0.962000
H176 H 0.414000 -0.443300 1.105000
H177 H 0.233000 -0.584000 0.911000
H178 H 0.252000 -0.456100 1.146000
C179 C -0.043800 1.031270 -0.032200
N180 N -0.205700 1.147040 -0.150000
C181 C -0.206700 1.045670 -0.026400
C182 C -0.286700 1.211460 -0.204800
C183 C -0.204100 1.262220 -0.072700
C184 C -0.285800 1.327620 -0.126100
C185 C 0.033600 1.077000 -0.101900
O186 O -0.140700 1.489390 0.226100
C187 C -0.049700 1.134260 -0.160600
C188 C -0.284900 1.103350 -0.085400
O189 O -0.248900 1.555190 0.009500
C190 C -0.206400 1.379340 0.005200
C191 C -0.276900 1.445210 -0.051800
C192 C -0.213300 1.497510 0.077300
H193 H 0.150000 1.072000 -0.109000
H194 H -0.004000 1.164700 -0.203000
H195 H -0.260000 1.019300 0.017000
H196 H -0.395000 1.115100 -0.087000
H197 H -0.402000 1.206300 -0.217000
H198 H -0.277000 1.221700 -0.314000
H199 H -0.215000 1.250200 0.036000
H200 H -0.411000 1.326500 -0.154000
H201 H -0.278000 1.340500 -0.232000
H202 H -0.221000 1.369400 0.114000
H203 H -0.083000 1.264100 -0.056000
H204 H -0.083000 1.381700 0.038000
H205 H -0.414000 1.443300 -0.105000
H206 H -0.233000 1.584000 0.089000
H207 H -0.252000 1.456100 -0.146000
C208 C 0.043800 0.968730 0.032200
N209 N 0.205700 0.852960 0.150000
C210 C 0.206700 0.954330 0.026400
C211 C 0.286700 0.788540 0.204800
C212 C 0.204100 0.737780 0.072700
C213 C 0.285800 0.672380 0.126100
C214 C -0.033600 0.923000 0.101900
O215 O 0.140700 0.510610 -0.226100
C216 C 0.049700 0.865740 0.160600
C217 C 0.284900 0.896650 0.085400
O218 O 0.248900 0.444810 -0.009500
C219 C 0.206400 0.620660 -0.005200
C220 C 0.276900 0.554790 0.051800
C221 C 0.213300 0.502490 -0.077300
H222 H -0.150000 0.928000 0.109000
H223 H 0.004000 0.835300 0.203000
H224 H 0.260000 0.980700 -0.017000
H225 H 0.395000 0.884900 0.087000
H226 H 0.402000 0.793700 0.217000
H227 H 0.277000 0.778300 0.314000
H228 H 0.215000 0.749800 -0.036000
H229 H 0.411000 0.673500 0.154000
H230 H 0.278000 0.659500 0.232000
H231 H 0.221000 0.630600 -0.114000
H232 H 0.083000 0.735900 0.056000
H233 H 0.083000 0.618300 -0.038000
H234 H 0.414000 0.556700 0.105000
H235 H 0.233000 0.416000 -0.089000
H236 H 0.252000 0.543900 0.146000
C237 C -0.043800 1.031270 0.967800
N238 N -0.205700 1.147040 0.850000
C239 C -0.206700 1.045670 0.973600
C240 C -0.286700 1.211460 0.795200
C241 C -0.204100 1.262220 0.927300
C242 C -0.285800 1.327620 0.873900
C243 C 0.033600 1.077000 0.898100
O244 O -0.140700 1.489390 1.226100
C245 C -0.049700 1.134260 0.839400
C246 C -0.284900 1.103350 0.914600
O247 O -0.248900 1.555190 1.009500
C248 C -0.206400 1.379340 1.005200
C249 C -0.276900 1.445210 0.948200
C250 C -0.213300 1.497510 1.077300
H251 H 0.150000 1.072000 0.891000
H252 H -0.004000 1.164700 0.797000
H253 H -0.260000 1.019300 1.017000
H254 H -0.395000 1.115100 0.913000
H255 H -0.402000 1.206300 0.783000
H256 H -0.277000 1.221700 0.686000
H257 H -0.215000 1.250200 1.036000
H258 H -0.411000 1.326500 0.846000
H259 H -0.278000 1.340500 0.768000
H260 H -0.221000 1.369400 1.114000
H261 H -0.083000 1.264100 0.944000
H262 H -0.083000 1.381700 1.038000
H263 H -0.414000 1.443300 0.895000
H264 H -0.233000 1.584000 1.089000
H265 H -0.252000 1.456100 0.854000
C266 C 0.043800 0.968730 1.032200
N267 N 0.205700 0.852960 1.150000
C268 C 0.206700 0.954330 1.026400
C269 C 0.286700 0.788540 1.204800
C270 C 0.204100 0.737780 1.072700
C271 C 0.285800 0.672380 1.126100
C272 C -0.033600 0.923000 1.101900
O273 O 0.140700 0.510610 0.773900
C274 C 0.049700 0.865740 1.160600
C275 C 0.284900 0.896650 1.085400
O276 O 0.248900 0.444810 0.990500
C277 C 0.206400 0.620660 0.994800
C278 C 0.276900 0.554790 1.051800
C279 C 0.213300 0.502490 0.922700
H280 H -0.150000 0.928000 1.109000
H281 H 0.004000 0.835300 1.203000
H282 H 0.260000 0.980700 0.983000
H283 H 0.395000 0.884900 1.087000
H284 H 0.402000 0.793700 1.217000
H285 H 0.277000 0.778300 1.314000
H286 H 0.215000 0.749800 0.964000
H287 H 0.411000 0.673500 1.154000
H288 H 0.278000 0.659500 1.232000
H289 H 0.221000 0.630600 0.886000
H290 H 0.083000 0.735900 1.056000
H291 H 0.083000 0.618300 0.962000
H292 H 0.414000 0.556700 1.105000
H293 H 0.233000 0.416000 0.911000
H294 H 0.252000 0.543900 1.146000
C295 C 0.956200 0.031270 -0.032200
N296 N 0.794300 0.147040 -0.150000
C297 C 0.793300 0.045670 -0.026400
C298 C 0.713300 0.211460 -0.204800
C299 C 0.795900 0.262220 -0.072700
C300 C 0.714200 0.327620 -0.126100
C301 C 1.033600 0.077000 -0.101900
O302 O 0.859300 0.489390 0.226100
C303 C 0.950300 0.134260 -0.160600
C304 C 0.715100 0.103350 -0.085400
O305 O 0.751100 0.555190 0.009500
C306 C 0.793600 0.379340 0.005200
C307 C 0.723100 0.445210 -0.051800
C308 C 0.786700 0.497510 0.077300
H309 H 1.150000 0.072000 -0.109000
H310 H 0.996000 0.164700 -0.203000
H311 H 0.740000 0.019300 0.017000
H312 H 0.605000 0.115100 -0.087000
H313 H 0.598000 0.206300 -0.217000
H314 H 0.723000 0.221700 -0.314000
H315 H 0.785000 0.250200 0.036000
H316 H 0.589000 0.326500 -0.154000
H317 H 0.722000 0.340500 -0.232000
H318 H 0.779000 0.369400 0.114000
H319 H 0.917000 0.264100 -0.056000
H320 H 0.917000 0.381700 0.038000
H321 H 0.586000 0.443300 -0.105000
H322 H 0.767000 0.584000 0.089000
H323 H 0.748000 0.456100 -0.146000
C324 C 1.043800 -0.031270 0.032200
N325 N 1.205700 -0.147040 0.150000
C326 C 1.206700 -0.045670 0.026400
C327 C 1.286700 -0.211460 0.204800
C328 C 1.204100 -0.262220 0.072700
C329 C 1.285800 -0.327620 0.126100
C330 C 0.966400 -0.077000 0.101900
O331 O 1.140700 -0.489390 -0.226100
C332 C 1.049700 -0.134260 0.160600
C333 C 1.284900 -0.103350 0.085400
O334 O 1.248900 -0.555190 -0.009500
C335 C 1.206400 -0.379340 -0.005200
C336 C 1.276900 -0.445210 0.051800
C337 C 1.213300 -0.497510 -0.077300
H338 H 0.850000 -0.072000 0.109000
H339 H 1.004000 -0.164700 0.203000
H340 H 1.260000 -0.019300 -0.017000
H341 H 1.395000 -0.115100 0.087000
H342 H 1.402000 -0.206300 0.217000
H343 H 1.277000 -0.221700 0.314000
H344 H 1.215000 -0.250200 -0.036000
H345 H 1.411000 -0.326500 0.154000
H346 H 1.278000 -0.340500 0.232000
H347 H 1.221000 -0.369400 -0.114000
H348 H 1.083000 -0.264100 0.056000
H349 H 1.083000 -0.381700 -0.038000
H350 H 1.414000 -0.443300 0.105000
H351 H 1.233000 -0.584000 -0.089000
H352 H 1.252000 -0.456100 0.146000
C353 C 0.956200 0.031270 0.967800
N354 N 0.794300 0.147040 0.850000
C355 C 0.793300 0.045670 0.973600
C356 C 0.713300 0.211460 0.795200
C357 C 0.795900 0.262220 0.927300
C358 C 0.714200 0.327620 0.873900
C359 C 1.033600 0.077000 0.898100
O360 O 0.859300 0.489390 1.226100
C361 C 0.950300 0.134260 0.839400
C362 C 0.715100 0.103350 0.914600
O363 O 0.751100 0.555190 1.009500
C364 C 0.793600 0.379340 1.005200
C365 C 0.723100 0.445210 0.948200
C366 C 0.786700 0.497510 1.077300
H367 H 1.150000 0.072000 0.891000
H368 H 0.996000 0.164700 0.797000
H369 H 0.740000 0.019300 1.017000
H370 H 0.605000 0.115100 0.913000
H371 H 0.598000 0.206300 0.783000
H372 H 0.723000 0.221700 0.686000
H373 H 0.785000 0.250200 1.036000
H374 H 0.589000 0.326500 0.846000
H375 H 0.722000 0.340500 0.768000
H376 H 0.779000 0.369400 1.114000
H377 H 0.917000 0.264100 0.944000
H378 H 0.917000 0.381700 1.038000
H379 H 0.586000 0.443300 0.895000
H380 H 0.767000 0.584000 1.089000
H381 H 0.748000 0.456100 0.854000
C382 C 1.043800 -0.031270 1.032200
N383 N 1.205700 -0.147040 1.150000
C384 C 1.206700 -0.045670 1.026400
C385 C 1.286700 -0.211460 1.204800
C386 C 1.204100 -0.262220 1.072700
C387 C 1.285800 -0.327620 1.126100
C388 C 0.966400 -0.077000 1.101900
O389 O 1.140700 -0.489390 0.773900
C390 C 1.049700 -0.134260 1.160600
C391 C 1.284900 -0.103350 1.085400
O392 O 1.248900 -0.555190 0.990500
C393 C 1.206400 -0.379340 0.994800
C394 C 1.276900 -0.445210 1.051800
C395 C 1.213300 -0.497510 0.922700
H396 H 0.850000 -0.072000 1.109000
H397 H 1.004000 -0.164700 1.203000
H398 H 1.260000 -0.019300 0.983000
H399 H 1.395000 -0.115100 1.087000
H400 H 1.402000 -0.206300 1.217000
H401 H 1.277000 -0.221700 1.314000
H402 H 1.215000 -0.250200 0.964000
H403 H 1.411000 -0.326500 1.154000
H404 H 1.278000 -0.340500 1.232000
H405 H 1.221000 -0.369400 0.886000
H406 H 1.083000 -0.264100 1.056000
H407 H 1.083000 -0.381700 0.962000
H408 H 1.414000 -0.443300 1.105000
H409 H 1.233000 -0.584000 0.911000
H410 H 1.252000 -0.456100 1.146000
C411 C 0.956200 1.031270 -0.032200
N412 N 0.794300 1.147040 -0.150000
C413 C 0.793300 1.045670 -0.026400
C414 C 0.713300 1.211460 -0.204800
C415 C 0.795900 1.262220 -0.072700
C416 C 0.714200 1.327620 -0.126100
C417 C 1.033600 1.077000 -0.101900
O418 O 0.859300 1.489390 0.226100
C419 C 0.950300 1.134260 -0.160600
C420 C 0.715100 1.103350 -0.085400
O421 O 0.751100 1.555190 0.009500
C422 C 0.793600 1.379340 0.005200
C423 C 0.723100 1.445210 -0.051800
C424 C 0.786700 1.497510 0.077300
H425 H 1.150000 1.072000 -0.109000
H426 H 0.996000 1.164700 -0.203000
H427 H 0.740000 1.019300 0.017000
H428 H 0.605000 1.115100 -0.087000
H429 H 0.598000 1.206300 -0.217000
H430 H 0.723000 1.221700 -0.314000
H431 H 0.785000 1.250200 0.036000
H432 H 0.589000 1.326500 -0.154000
H433 H 0.722000 1.340500 -0.232000
H434 H 0.779000 1.369400 0.114000
H435 H 0.917000 1.264100 -0.056000
H436 H 0.917000 1.381700 0.038000
H437 H 0.586000 1.443300 -0.105000
H438 H 0.767000 1.584000 0.089000
H439 H 0.748000 1.456100 -0.146000
C440 C 1.043800 0.968730 0.032200
N441 N 1.205700 0.852960 0.150000
C442 C 1.206700 0.954330 0.026400
C443 C 1.286700 0.788540 0.204800
C444 C 1.204100 0.737780 0.072700
C445 C 1.285800 0.672380 0.126100
C446 C 0.966400 0.923000 0.101900
O447 O 1.140700 0.510610 -0.226100
C448 C 1.049700 0.865740 0.160600
C449 C 1.284900 0.896650 0.085400
O450 O 1.248900 0.444810 -0.009500
C451 C 1.206400 0.620660 -0.005200
C452 C 1.276900 0.554790 0.051800
C453 C 1.213300 0.502490 -0.077300
H454 H 0.850000 0.928000 0.109000
H455 H 1.004000 0.835300 0.203000
H456 H 1.260000 0.980700 -0.017000
H457 H 1.395000 0.884900 0.087000
H458 H 1.402000 0.793700 0.217000
H459 H 1.277000 0.778300 0.314000
H460 H 1.215000 0.749800 -0.036000
H461 H 1.411000 0.673500 0.154000
H462 H 1.278000 0.659500 0.232000
H463 H 1.221000 0.630600 -0.114000
H464 H 1.083000 0.735900 0.056000
H465 H 1.083000 0.618300 -0.038000
H466 H 1.414000 0.556700 0.105000
H467 H 1.233000 0.416000 -0.089000
H468 H 1.252000 0.543900 0.146000
C469 C 0.956200 1.031270 0.967800
N470 N 0.794300 1.147040 0.850000
C471 C 0.793300 1.045670 0.973600
C472 C 0.713300 1.211460 0.795200
C473 C 0.795900 1.262220 0.927300
C474 C 0.714200 1.327620 0.873900
C475 C 1.033600 1.077000 0.898100
O476 O 0.859300 1.489390 1.226100
C477 C 0.950300 1.134260 0.839400
C478 C 0.715100 1.103350 0.914600
O479 O 0.751100 1.555190 1.009500
C480 C 0.793600 1.379340 1.005200
C481 C 0.723100 1.445210 0.948200
C482 C 0.786700 1.497510 1.077300
H483 H 1.150000 1.072000 0.891000
H484 H 0.996000 1.164700 0.797000
H485 H 0.740000 1.019300 1.017000
H486 H 0.605000 1.115100 0.913000
H487 H 0.598000 1.206300 0.783000
H488 H 0.723000 1.221700 0.686000
H489 H 0.785000 1.250200 1.036000
H490 H 0.589000 1.326500 0.846000
H491 H 0.722000 1.340500 0.768000
H492 H 0.779000 1.369400 1.114000
H493 H 0.917000 1.264100 0.944000
H494 H 0.917000 1.381700 1.038000
H495 H 0.586000 1.443300 0.895000
H496 H 0.767000 1.584000 1.089000
H497 H 0.748000 1.456100 0.854000
C498 C 1.043800 0.968730 1.032200
N499 N 1.205700 0.852960 1.150000
C500 C 1.206700 0.954330 1.026400
C501 C 1.286700 0.788540 1.204800
C502 C 1.204100 0.737780 1.072700
C503 C 1.285800 0.672380 1.126100
C504 C 0.966400 0.923000 1.101900
O505 O 1.140700 0.510610 0.773900
C506 C 1.049700 0.865740 1.160600
C507 C 1.284900 0.896650 1.085400
O508 O 1.248900 0.444810 0.990500
C509 C 1.206400 0.620660 0.994800
C510 C 1.276900 0.554790 1.051800
C511 C 1.213300 0.502490 0.922700
H512 H 0.850000 0.928000 1.109000
H513 H 1.004000 0.835300 1.203000
H514 H 1.260000 0.980700 0.983000
H515 H 1.395000 0.884900 1.087000
H516 H 1.402000 0.793700 1.217000
H517 H 1.277000 0.778300 1.314000
H518 H 1.215000 0.749800 0.964000
H519 H 1.411000 0.673500 1.154000
H520 H 1.278000 0.659500 1.232000
H521 H 1.221000 0.630600 0.886000
H522 H 1.083000 0.735900 1.056000
H523 H 1.083000 0.618300 0.962000
H524 H 1.414000 0.556700 1.105000
H525 H 1.233000 0.416000 0.911000
H526 H 1.252000 0.543900 1.146000
O527 O 0.684200 0.155850 0.297000
H528 H 0.610000 0.169000 0.220000
H529 H 0.736000 0.182600 0.342000
O530 O 0.815800 0.655850 0.203000
H531 H 0.890000 0.669000 0.280000
H532 H 0.764000 0.682600 0.158000
O533 O 0.315800 0.844150 0.703000
H534 H 0.390000 0.831000 0.780000
H535 H 0.264000 0.817400 0.658000
O536 O 0.184200 0.344150 0.797000
H537 H 0.110000 0.331000 0.720000
H538 H 0.236000 0.317400 0.842000

#END
