./ACICEV01_from_xyz.cif_generated_by_CrystalShift
_symmetry_cell_setting triclinic
_symmetry_space_group_name_H-M 'P 1'
loop_
_symmetry_equiv_pos_site_id
_symmetry_equiv_pos_as_xyz
1 x,y,z
_cell_length_a 10.117700
_cell_length_b 11.481300
_cell_length_c 17.795800
_cell_angle_alpha 90.000000
_cell_angle_beta 104.033000
_cell_angle_gamma 90.000000
_cell_volume 2005.543333
loop_
_atom_site_label
_atom_site_type_symbol
_atom_site_fract_x
_atom_site_fract_y
_atom_site_fract_z
N1 N 0.477220 0.545320 0.138520
N2 N 0.409050 0.360360 0.116020
H3 H 0.408800 0.289100 0.101200
N4 N 0.736910 0.293940 0.009450
C5 C 0.831500 0.375600 0.013520
H6 H 0.905100 0.360100 -0.007700
C7 C 0.632680 0.318190 0.040230
H8 H 0.565700 0.261700 0.037100
C9 C 0.617640 0.422430 0.076710
C10 C 0.718100 0.506380 0.079730
H11 H 0.712400 0.578000 0.103100
C12 C 0.825000 0.482340 0.047910
H13 H 0.892900 0.537500 0.049400
C14 C 0.502250 0.444090 0.110110
C15 C 0.315840 0.412070 0.150220
C16 C 0.199600 0.371300 0.169650
H17 H 0.170600 0.294700 0.160100
C18 C 0.129100 0.449800 0.203830
H19 H 0.050900 0.425300 0.217900
C20 C 0.172200 0.564900 0.217800
H21 H 0.121900 0.615400 0.240900
C22 C 0.286500 0.605300 0.198290
H23 H 0.314400 0.682200 0.207700
C24 C 0.359970 0.527680 0.163940
N25 N 0.022780 1.045320 0.361480
N26 N 0.090950 0.860360 0.383980
H27 H 0.091200 0.789100 0.398800
N28 N -0.236910 0.793940 0.490550
C29 C -0.331500 0.875600 0.486480
H30 H -0.405100 0.860100 0.507700
C31 C -0.132680 0.818190 0.459770
H32 H -0.065700 0.761700 0.462900
C33 C -0.117640 0.922430 0.423290
C34 C -0.218100 1.006380 0.420270
H35 H -0.212400 1.078000 0.396900
C36 C -0.325000 0.982340 0.452090
H37 H -0.392900 1.037500 0.450600
C38 C -0.002250 0.944090 0.389890
C39 C 0.184160 0.912070 0.349780
C40 C 0.300400 0.871300 0.330350
H41 H 0.329400 0.794700 0.339900
C42 C 0.370900 0.949800 0.296170
H43 H 0.449100 0.925300 0.282100
C44 C 0.327800 1.064900 0.282200
H45 H 0.378100 1.115400 0.259100
C46 C 0.213500 1.105300 0.301710
H47 H 0.185600 1.182200 0.292300
C48 C 0.140030 1.027680 0.336060
N49 N 0.522780 0.454680 0.861480
N50 N 0.590950 0.639640 0.883980
H51 H 0.591200 0.710900 0.898800
N52 N 0.263090 0.706060 0.990550
C53 C 0.168500 0.624400 0.986480
H54 H 0.094900 0.639900 1.007700
C55 C 0.367320 0.681810 0.959770
H56 H 0.434300 0.738300 0.962900
C57 C 0.382360 0.577570 0.923290
C58 C 0.281900 0.493620 0.920270
H59 H 0.287600 0.422000 0.896900
C60 C 0.175000 0.517660 0.952090
H61 H 0.107100 0.462500 0.950600
C62 C 0.497750 0.555910 0.889890
C63 C 0.684160 0.587930 0.849780
C64 C 0.800400 0.628700 0.830350
H65 H 0.829400 0.705300 0.839900
C66 C 0.870900 0.550200 0.796170
H67 H 0.949100 0.574700 0.782100
C68 C 0.827800 0.435100 0.782200
H69 H 0.878100 0.384600 0.759100
C70 C 0.713500 0.394700 0.801710
H71 H 0.685600 0.317800 0.792300
C72 C 0.640030 0.472320 0.836060
N73 N 0.977220 -0.045320 0.638520
N74 N 0.909050 0.139640 0.616020
H75 H 0.908800 0.210900 0.601200
N76 N 1.236910 0.206060 0.509450
C77 C 1.331500 0.124400 0.513520
H78 H 1.405100 0.139900 0.492300
C79 C 1.132680 0.181810 0.540230
H80 H 1.065700 0.238300 0.537100
C81 C 1.117640 0.077570 0.576710
C82 C 1.218100 -0.006380 0.579730
H83 H 1.212400 -0.078000 0.603100
C84 C 1.325000 0.017660 0.547910
H85 H 1.392900 -0.037500 0.549400
C86 C 1.002250 0.055910 0.610110
C87 C 0.815840 0.087930 0.650220
C88 C 0.699600 0.128700 0.669650
H89 H 0.670600 0.205300 0.660100
C90 C 0.629100 0.050200 0.703830
H91 H 0.550900 0.074700 0.717900
C92 C 0.672200 -0.064900 0.717800
H93 H 0.621900 -0.115400 0.740900
C94 C 0.786500 -0.105300 0.698290
H95 H 0.814400 -0.182200 0.707700
C96 C 0.859970 -0.027680 0.663940
N97 N 0.646170 1.072450 0.944160
H98 H 0.690500 1.133700 0.963600
N99 N 0.597590 0.884500 0.922010
N100 N 0.954000 0.778300 1.084400
C101 C 1.030400 0.858000 1.125600
H102 H 1.107200 0.834000 1.162600
C103 C 0.844900 0.812600 1.032640
H104 H 0.789700 0.756000 1.003400
C105 C 0.806850 0.929670 1.018990
C106 C 0.892800 1.011200 1.064590
H107 H 0.874300 1.090500 1.058900
C108 C 1.005000 0.971500 1.117890
H109 H 1.063800 1.024200 1.148800
C110 C 0.682300 0.961390 0.960140
C111 C 0.491700 0.953100 0.875680
C112 C 0.374000 0.920100 0.824420
H113 H 0.354400 0.841600 0.814900
C114 C 0.286200 1.002500 0.787610
H115 H 0.205800 0.980500 0.752800
C116 C 0.316400 1.122800 0.801980
H117 H 0.255400 1.179000 0.776700
C118 C 0.437100 1.156700 0.853730
H119 H 0.459600 1.234600 0.863800
C120 C 0.520300 1.068260 0.888760
N121 N 0.853830 0.572450 0.555840
H122 H 0.809500 0.633700 0.536400
N123 N 0.902410 0.384500 0.577990
N124 N 0.546000 0.278300 0.415600
C125 C 0.469600 0.358000 0.374400
H126 H 0.392800 0.334000 0.337400
C127 C 0.655100 0.312600 0.467360
H128 H 0.710300 0.256000 0.496600
C129 C 0.693150 0.429670 0.481010
C130 C 0.607200 0.511200 0.435410
H131 H 0.625700 0.590500 0.441100
C132 C 0.495000 0.471500 0.382110
H133 H 0.436200 0.524200 0.351200
C134 C 0.817700 0.461390 0.539860
C135 C 1.008300 0.453100 0.624320
C136 C 1.126000 0.420100 0.675580
H137 H 1.145600 0.341600 0.685100
C138 C 1.213800 0.502500 0.712390
H139 H 1.294200 0.480500 0.747200
C140 C 1.183600 0.622800 0.698020
H141 H 1.244600 0.679000 0.723300
C142 C 1.062900 0.656700 0.646270
H143 H 1.040400 0.734600 0.636200
C144 C 0.979700 0.568260 0.611240
N145 N 0.353830 -0.072450 0.055840
H146 H 0.309500 -0.133700 0.036400
N147 N 0.402410 0.115500 0.077990
N148 N 0.046000 0.221700 -0.084400
C149 C -0.030400 0.142000 -0.125600
H150 H -0.107200 0.166000 -0.162600
C151 C 0.155100 0.187400 -0.032640
H152 H 0.210300 0.244000 -0.003400
C153 C 0.193150 0.070330 -0.018990
C154 C 0.107200 -0.011200 -0.064590
H155 H 0.125700 -0.090500 -0.058900
C156 C -0.005000 0.028500 -0.117890
H157 H -0.063800 -0.024200 -0.148800
C158 C 0.317700 0.038610 0.039860
C159 C 0.508300 0.046900 0.124320
C160 C 0.626000 0.079900 0.175580
H161 H 0.645600 0.158400 0.185100
C162 C 0.713800 -0.002500 0.212390
H163 H 0.794200 0.019500 0.247200
C164 C 0.683600 -0.122800 0.198020
H165 H 0.744600 -0.179000 0.223300
C166 C 0.562900 -0.156700 0.146270
H167 H 0.540400 -0.234600 0.136200
C168 C 0.479700 -0.068260 0.111240
N169 N 0.146170 0.427550 0.444160
H170 H 0.190500 0.366300 0.463600
N171 N 0.097590 0.615500 0.422010
N172 N 0.454000 0.721700 0.584400
C173 C 0.530400 0.642000 0.625600
H174 H 0.607200 0.666000 0.662600
C175 C 0.344900 0.687400 0.532640
H176 H 0.289700 0.744000 0.503400
C177 C 0.306850 0.570330 0.518990
C178 C 0.392800 0.488800 0.564590
H179 H 0.374300 0.409500 0.558900
C180 C 0.505000 0.528500 0.617890
H181 H 0.563800 0.475800 0.648800
C182 C 0.182300 0.538610 0.460140
C183 C -0.008300 0.546900 0.375680
C184 C -0.126000 0.579900 0.324420
H185 H -0.145600 0.658400 0.314900
C186 C -0.213800 0.497500 0.287610
H187 H -0.294200 0.519500 0.252800
C188 C -0.183600 0.377200 0.301980
H189 H -0.244600 0.321000 0.276700
C190 C -0.062900 0.343300 0.353730
H191 H -0.040400 0.265400 0.363800
C192 C 0.020300 0.431740 0.388760

#END
