./ACICEV_from_xyz.cif_generated_by_CrystalShift
_symmetry_cell_setting triclinic
_symmetry_space_group_name_H-M 'P 1'
loop_
_symmetry_equiv_pos_site_id
_symmetry_equiv_pos_as_xyz
1 x,y,z
_cell_length_a 10.146900
_cell_length_b 11.492000
_cell_length_c 17.774000
_cell_angle_alpha 90.000000
_cell_angle_beta 103.931000
_cell_angle_gamma 90.000000
_cell_volume 2011.631178
loop_
_atom_site_label
_atom_site_type_symbol
_atom_site_fract_x
_atom_site_fract_y
_atom_site_fract_z
N1 N 0.145650 0.572710 0.943840
N2 N 0.097200 0.384750 0.921750
N3 N 0.452700 0.277100 1.084040
C4 C 0.021400 0.569060 0.889180
C5 C -0.063100 0.657500 0.853160
C6 C -0.181600 0.622100 0.801870
C7 C -0.212300 0.503500 0.787630
C8 C -0.126100 0.419300 0.823940
C9 C -0.007700 0.453000 0.875560
C10 C 0.182600 0.461190 0.960530
C11 C 0.306930 0.429640 1.018970
C12 C 0.391300 0.511200 1.064150
C13 C 0.504200 0.472200 1.118190
C14 C 0.529600 0.357600 1.125610
C15 C 0.344200 0.313400 1.032400
H16 H 0.196000 0.639000 0.968200
H17 H -0.040000 0.739000 0.864800
H18 H -0.246000 0.673000 0.778200
H19 H -0.299000 0.481000 0.755400
H20 H -0.147000 0.331000 0.815600
H21 H 0.371000 0.592000 1.057600
H22 H 0.564000 0.528000 1.147900
H23 H 0.612000 0.327000 1.165000
H24 H 0.284000 0.255000 1.002800
N25 N 0.354350 1.072710 0.556160
N26 N 0.402800 0.884750 0.578250
N27 N 0.047300 0.777100 0.415960
C28 C 0.478600 1.069060 0.610820
C29 C 0.563100 1.157500 0.646840
C30 C 0.681600 1.122100 0.698130
C31 C 0.712300 1.003500 0.712370
C32 C 0.626100 0.919300 0.676060
C33 C 0.507700 0.953000 0.624440
C34 C 0.317400 0.961190 0.539470
C35 C 0.193070 0.929640 0.481030
C36 C 0.108700 1.011200 0.435850
C37 C -0.004200 0.972200 0.381810
C38 C -0.029600 0.857600 0.374390
C39 C 0.155800 0.813400 0.467600
H40 H 0.304000 1.139000 0.531800
H41 H 0.540000 1.239000 0.635200
H42 H 0.746000 1.173000 0.721800
H43 H 0.799000 0.981000 0.744600
H44 H 0.647000 0.831000 0.684400
H45 H 0.129000 1.092000 0.442400
H46 H -0.064000 1.028000 0.352100
H47 H -0.112000 0.827000 0.335000
H48 H 0.216000 0.755000 0.497200
N49 N 0.854350 0.427290 0.056160
N50 N 0.902800 0.615250 0.078250
N51 N 0.547300 0.722900 -0.084040
C52 C 0.978600 0.430940 0.110820
C53 C 1.063100 0.342500 0.146840
C54 C 1.181600 0.377900 0.198130
C55 C 1.212300 0.496500 0.212370
C56 C 1.126100 0.580700 0.176060
C57 C 1.007700 0.547000 0.124440
C58 C 0.817400 0.538810 0.039470
C59 C 0.693070 0.570360 -0.018970
C60 C 0.608700 0.488800 -0.064150
C61 C 0.495800 0.527800 -0.118190
C62 C 0.470400 0.642400 -0.125610
C63 C 0.655800 0.686600 -0.032400
H64 H 0.804000 0.361000 0.031800
H65 H 1.040000 0.261000 0.135200
H66 H 1.246000 0.327000 0.221800
H67 H 1.299000 0.519000 0.244600
H68 H 1.147000 0.669000 0.184400
H69 H 0.629000 0.408000 -0.057600
H70 H 0.436000 0.472000 -0.147900
H71 H 0.388000 0.673000 -0.165000
H72 H 0.716000 0.745000 -0.002800
N73 N 0.645650 -0.072710 0.443840
N74 N 0.597200 0.115250 0.421750
N75 N 0.952700 0.222900 0.584040
C76 C 0.521400 -0.069060 0.389180
C77 C 0.436900 -0.157500 0.353160
C78 C 0.318400 -0.122100 0.301870
C79 C 0.287700 -0.003500 0.287630
C80 C 0.373900 0.080700 0.323940
C81 C 0.492300 0.047000 0.375560
C82 C 0.682600 0.038810 0.460530
C83 C 0.806930 0.070360 0.518970
C84 C 0.891300 -0.011200 0.564150
C85 C 1.004200 0.027800 0.618190
C86 C 1.029600 0.142400 0.625610
C87 C 0.844200 0.186600 0.532400
H88 H 0.696000 -0.139000 0.468200
H89 H 0.460000 -0.239000 0.364800
H90 H 0.254000 -0.173000 0.278200
H91 H 0.201000 0.019000 0.255400
H92 H 0.353000 0.169000 0.315600
H93 H 0.871000 -0.092000 0.557600
H94 H 1.064000 -0.028000 0.647900
H95 H 1.112000 0.173000 0.665000
H96 H 0.784000 0.245000 0.502800
N97 N 0.977940 1.045580 0.138550
N98 N 0.910090 0.860530 0.116030
N99 N 1.237780 0.793410 0.009280
C100 C 0.861000 1.028060 0.164070
C101 C 0.787100 1.105800 0.197830
C102 C 0.673000 1.066100 0.217300
C103 C 0.629900 0.951200 0.203700
C104 C 0.700300 0.872200 0.169340
C105 C 0.816700 0.912730 0.150240
C106 C 1.003440 0.944220 0.110400
C107 C 1.118750 0.922400 0.076480
C108 C 1.218300 1.006190 0.079360
C109 C 1.325200 0.982260 0.047230
C110 C 1.332000 0.875720 0.013150
C111 C 1.133800 0.818050 0.040590
H112 H 0.906000 0.785000 0.101300
H113 H 0.818000 1.186000 0.207300
H114 H 0.618000 1.120000 0.242100
H115 H 0.550000 0.928000 0.216600
H116 H 0.674000 0.791000 0.158400
H117 H 1.210000 1.082300 0.103100
H118 H 1.397000 1.038600 0.050200
H119 H 1.406000 0.854600 -0.010200
H120 H 1.063000 0.756400 0.035400
N121 N 0.522060 0.545580 0.361450
N122 N 0.589910 0.360530 0.383970
N123 N 0.262220 0.293410 0.490720
C124 C 0.639000 0.528060 0.335930
C125 C 0.712900 0.605800 0.302170
C126 C 0.827000 0.566100 0.282700
C127 C 0.870100 0.451200 0.296300
C128 C 0.799700 0.372200 0.330660
C129 C 0.683300 0.412730 0.349760
C130 C 0.496560 0.444220 0.389600
C131 C 0.381250 0.422400 0.423520
C132 C 0.281700 0.506190 0.420640
C133 C 0.174800 0.482260 0.452770
C134 C 0.168000 0.375720 0.486850
C135 C 0.366200 0.318050 0.459410
H136 H 0.594000 0.285000 0.398700
H137 H 0.682000 0.686000 0.292700
H138 H 0.882000 0.620000 0.257900
H139 H 0.950000 0.428000 0.283400
H140 H 0.826000 0.291000 0.341600
H141 H 0.290000 0.582300 0.396900
H142 H 0.103000 0.538600 0.449800
H143 H 0.094000 0.354600 0.510200
H144 H 0.437000 0.256400 0.464600
N145 N 0.022060 -0.045580 0.861450
N146 N 0.089910 0.139470 0.883970
N147 N -0.237780 0.206590 0.990720
C148 C 0.139000 -0.028060 0.835930
C149 C 0.212900 -0.105800 0.802170
C150 C 0.327000 -0.066100 0.782700
C151 C 0.370100 0.048800 0.796300
C152 C 0.299700 0.127800 0.830660
C153 C 0.183300 0.087270 0.849760
C154 C -0.003440 0.055780 0.889600
C155 C -0.118750 0.077600 0.923520
C156 C -0.218300 -0.006190 0.920640
C157 C -0.325200 0.017740 0.952770
C158 C -0.332000 0.124280 0.986850
C159 C -0.133800 0.181950 0.959410
H160 H 0.094000 0.215000 0.898700
H161 H 0.182000 -0.186000 0.792700
H162 H 0.382000 -0.120000 0.757900
H163 H 0.450000 0.072000 0.783400
H164 H 0.326000 0.209000 0.841600
H165 H -0.210000 -0.082300 0.896900
H166 H -0.397000 -0.038600 0.949800
H167 H -0.406000 0.145400 1.010200
H168 H -0.063000 0.243600 0.964600
N169 N 0.477940 0.454420 0.638550
N170 N 0.410090 0.639470 0.616030
N171 N 0.737780 0.706590 0.509280
C172 C 0.361000 0.471940 0.664070
C173 C 0.287100 0.394200 0.697830
C174 C 0.173000 0.433900 0.717300
C175 C 0.129900 0.548800 0.703700
C176 C 0.200300 0.627800 0.669340
C177 C 0.316700 0.587270 0.650240
C178 C 0.503440 0.555780 0.610400
C179 C 0.618750 0.577600 0.576480
C180 C 0.718300 0.493810 0.579360
C181 C 0.825200 0.517740 0.547230
C182 C 0.832000 0.624280 0.513150
C183 C 0.633800 0.681950 0.540590
H184 H 0.406000 0.715000 0.601300
H185 H 0.318000 0.314000 0.707300
H186 H 0.118000 0.380000 0.742100
H187 H 0.050000 0.572000 0.716600
H188 H 0.174000 0.709000 0.658400
H189 H 0.710000 0.417700 0.603100
H190 H 0.897000 0.461400 0.550200
H191 H 0.906000 0.645400 0.489800
H192 H 0.563000 0.743600 0.535400

#END
