./ACIDEV01_from_xyz.cif_generated_by_CrystalShift
_symmetry_cell_setting triclinic
_symmetry_space_group_name_H-M 'P 1'
loop_
_symmetry_equiv_pos_site_id
_symmetry_equiv_pos_as_xyz
1 x,y,z
_cell_length_a 15.347700
_cell_length_b 5.873300
_cell_length_c 8.962000
_cell_angle_alpha 90.000000
_cell_angle_beta 90.119000
_cell_angle_gamma 90.000000
_cell_volume 807.847722
loop_
_atom_site_label
_atom_site_type_symbol
_atom_site_fract_x
_atom_site_fract_y
_atom_site_fract_z
C1 C 0.255920 -0.134630 0.231120
O2 O 0.176950 -0.213130 0.189730
H3 H 0.149300 -0.082000 0.124000
C4 C 0.307450 -0.267200 0.325210
H5 H 0.283100 -0.413000 0.359000
C6 C 0.388300 -0.191900 0.368920
H7 H 0.423800 -0.292000 0.438400
C8 C 0.419860 0.015000 0.320700
H9 H 0.478700 0.068000 0.349300
C10 C 0.369150 0.148300 0.228670
H11 H 0.388500 0.297000 0.192600
C12 C 0.286250 0.077970 0.183350
C13 C 0.232600 0.226120 0.090790
H14 H 0.258000 0.378000 0.060200
N15 N 0.155850 0.168930 0.051620
C16 C 0.105290 0.331500 -0.037440
H17 H 0.087900 0.252000 -0.129400
H18 H 0.143100 0.474000 -0.066600
C19 C 0.025480 0.413200 0.045250
H20 H -0.012300 0.282000 0.068100
H21 H 0.043900 0.483000 0.141700
C22 C -0.255920 1.134630 -0.231120
O23 O -0.176950 1.213130 -0.189730
H24 H -0.149300 1.082000 -0.124000
C25 C -0.307450 1.267200 -0.325210
H26 H -0.283100 1.413000 -0.359000
C27 C -0.388300 1.191900 -0.368920
H28 H -0.423800 1.292000 -0.438400
C29 C -0.419860 0.985000 -0.320700
H30 H -0.478700 0.932000 -0.349300
C31 C -0.369150 0.851700 -0.228670
H32 H -0.388500 0.703000 -0.192600
C33 C -0.286250 0.922030 -0.183350
C34 C -0.232600 0.773880 -0.090790
H35 H -0.258000 0.622000 -0.060200
N36 N -0.155850 0.831070 -0.051620
C37 C -0.105290 0.668500 0.037440
H38 H -0.087900 0.748000 0.129400
H39 H -0.143100 0.526000 0.066600
C40 C -0.025480 0.586800 -0.045250
H41 H 0.012300 0.718000 -0.068100
H42 H -0.043900 0.517000 -0.141700
C43 C 0.255920 -0.134630 1.231120
O44 O 0.176950 -0.213130 1.189730
H45 H 0.149300 -0.082000 1.124000
C46 C 0.307450 -0.267200 1.325210
H47 H 0.283100 -0.413000 1.359000
C48 C 0.388300 -0.191900 1.368920
H49 H 0.423800 -0.292000 1.438400
C50 C 0.419860 0.015000 1.320700
H51 H 0.478700 0.068000 1.349300
C52 C 0.369150 0.148300 1.228670
H53 H 0.388500 0.297000 1.192600
C54 C 0.286250 0.077970 1.183350
C55 C 0.232600 0.226120 1.090790
H56 H 0.258000 0.378000 1.060200
N57 N 0.155850 0.168930 1.051620
C58 C 0.105290 0.331500 0.962560
H59 H 0.087900 0.252000 0.870600
H60 H 0.143100 0.474000 0.933400
C61 C 0.025480 0.413200 1.045250
H62 H -0.012300 0.282000 1.068100
H63 H 0.043900 0.483000 1.141700
C64 C -0.255920 1.134630 0.768880
O65 O -0.176950 1.213130 0.810270
H66 H -0.149300 1.082000 0.876000
C67 C -0.307450 1.267200 0.674790
H68 H -0.283100 1.413000 0.641000
C69 C -0.388300 1.191900 0.631080
H70 H -0.423800 1.292000 0.561600
C71 C -0.419860 0.985000 0.679300
H72 H -0.478700 0.932000 0.650700
C73 C -0.369150 0.851700 0.771330
H74 H -0.388500 0.703000 0.807400
C75 C -0.286250 0.922030 0.816650
C76 C -0.232600 0.773880 0.909210
H77 H -0.258000 0.622000 0.939800
N78 N -0.155850 0.831070 0.948380
C79 C -0.105290 0.668500 1.037440
H80 H -0.087900 0.748000 1.129400
H81 H -0.143100 0.526000 1.066600
C82 C -0.025480 0.586800 0.954750
H83 H 0.012300 0.718000 0.931900
H84 H -0.043900 0.517000 0.858300
C85 C 1.255920 -0.134630 0.231120
O86 O 1.176950 -0.213130 0.189730
H87 H 1.149300 -0.082000 0.124000
C88 C 1.307450 -0.267200 0.325210
H89 H 1.283100 -0.413000 0.359000
C90 C 1.388300 -0.191900 0.368920
H91 H 1.423800 -0.292000 0.438400
C92 C 1.419860 0.015000 0.320700
H93 H 1.478700 0.068000 0.349300
C94 C 1.369150 0.148300 0.228670
H95 H 1.388500 0.297000 0.192600
C96 C 1.286250 0.077970 0.183350
C97 C 1.232600 0.226120 0.090790
H98 H 1.258000 0.378000 0.060200
N99 N 1.155850 0.168930 0.051620
C100 C 1.105290 0.331500 -0.037440
H101 H 1.087900 0.252000 -0.129400
H102 H 1.143100 0.474000 -0.066600
C103 C 1.025480 0.413200 0.045250
H104 H 0.987700 0.282000 0.068100
H105 H 1.043900 0.483000 0.141700
C106 C 0.744080 1.134630 -0.231120
O107 O 0.823050 1.213130 -0.189730
H108 H 0.850700 1.082000 -0.124000
C109 C 0.692550 1.267200 -0.325210
H110 H 0.716900 1.413000 -0.359000
C111 C 0.611700 1.191900 -0.368920
H112 H 0.576200 1.292000 -0.438400
C113 C 0.580140 0.985000 -0.320700
H114 H 0.521300 0.932000 -0.349300
C115 C 0.630850 0.851700 -0.228670
H116 H 0.611500 0.703000 -0.192600
C117 C 0.713750 0.922030 -0.183350
C118 C 0.767400 0.773880 -0.090790
H119 H 0.742000 0.622000 -0.060200
N120 N 0.844150 0.831070 -0.051620
C121 C 0.894710 0.668500 0.037440
H122 H 0.912100 0.748000 0.129400
H123 H 0.856900 0.526000 0.066600
C124 C 0.974520 0.586800 -0.045250
H125 H 1.012300 0.718000 -0.068100
H126 H 0.956100 0.517000 -0.141700
C127 C 1.255920 -0.134630 1.231120
O128 O 1.176950 -0.213130 1.189730
H129 H 1.149300 -0.082000 1.124000
C130 C 1.307450 -0.267200 1.325210
H131 H 1.283100 -0.413000 1.359000
C132 C 1.388300 -0.191900 1.368920
H133 H 1.423800 -0.292000 1.438400
C134 C 1.419860 0.015000 1.320700
H135 H 1.478700 0.068000 1.349300
C136 C 1.369150 0.148300 1.228670
H137 H 1.388500 0.297000 1.192600
C138 C 1.286250 0.077970 1.183350
C139 C 1.232600 0.226120 1.090790
H140 H 1.258000 0.378000 1.060200
N141 N 1.155850 0.168930 1.051620
C142 C 1.105290 0.331500 0.962560
H143 H 1.087900 0.252000 0.870600
H144 H 1.143100 0.474000 0.933400
C145 C 1.025480 0.413200 1.045250
H146 H 0.987700 0.282000 1.068100
H147 H 1.043900 0.483000 1.141700
C148 C 0.744080 1.134630 0.768880
O149 O 0.823050 1.213130 0.810270
H150 H 0.850700 1.082000 0.876000
C151 C 0.692550 1.267200 0.674790
H152 H 0.716900 1.413000 0.641000
C153 C 0.611700 1.191900 0.631080
H154 H 0.576200 1.292000 0.561600
C155 C 0.580140 0.985000 0.679300
H156 H 0.521300 0.932000 0.650700
C157 C 0.630850 0.851700 0.771330
H158 H 0.611500 0.703000 0.807400
C159 C 0.713750 0.922030 0.816650
C160 C 0.767400 0.773880 0.909210
H161 H 0.742000 0.622000 0.939800
N162 N 0.844150 0.831070 0.948380
C163 C 0.894710 0.668500 1.037440
H164 H 0.912100 0.748000 1.129400
H165 H 0.856900 0.526000 1.066600
C166 C 0.974520 0.586800 0.954750
H167 H 1.012300 0.718000 0.931900
H168 H 0.956100 0.517000 0.858300
C169 C -0.255920 -0.634630 0.268880
O170 O -0.176950 -0.713130 0.310270
H171 H -0.149300 -0.582000 0.376000
C172 C -0.307450 -0.767200 0.174790
H173 H -0.283100 -0.913000 0.141000
C174 C -0.388300 -0.691900 0.131080
H175 H -0.423800 -0.792000 0.061600
C176 C -0.419860 -0.485000 0.179300
H177 H -0.478700 -0.432000 0.150700
C178 C -0.369150 -0.351700 0.271330
H179 H -0.388500 -0.203000 0.307400
C180 C -0.286250 -0.422030 0.316650
C181 C -0.232600 -0.273880 0.409210
H182 H -0.258000 -0.122000 0.439800
N183 N -0.155850 -0.331070 0.448380
C184 C -0.105290 -0.168500 0.537440
H185 H -0.087900 -0.248000 0.629400
H186 H -0.143100 -0.026000 0.566600
C187 C -0.025480 -0.086800 0.454750
H188 H 0.012300 -0.218000 0.431900
H189 H -0.043900 -0.017000 0.358300
C190 C 0.255920 0.634630 0.731120
O191 O 0.176950 0.713130 0.689730
H192 H 0.149300 0.582000 0.624000
C193 C 0.307450 0.767200 0.825210
H194 H 0.283100 0.913000 0.859000
C195 C 0.388300 0.691900 0.868920
H196 H 0.423800 0.792000 0.938400
C197 C 0.419860 0.485000 0.820700
H198 H 0.478700 0.432000 0.849300
C199 C 0.369150 0.351700 0.728670
H200 H 0.388500 0.203000 0.692600
C201 C 0.286250 0.422030 0.683350
C202 C 0.232600 0.273880 0.590790
H203 H 0.258000 0.122000 0.560200
N204 N 0.155850 0.331070 0.551620
C205 C 0.105290 0.168500 0.462560
H206 H 0.087900 0.248000 0.370600
H207 H 0.143100 0.026000 0.433400
C208 C 0.025480 0.086800 0.545250
H209 H -0.012300 0.218000 0.568100
H210 H 0.043900 0.017000 0.641700
C211 C -0.255920 0.365370 0.268880
O212 O -0.176950 0.286870 0.310270
H213 H -0.149300 0.418000 0.376000
C214 C -0.307450 0.232800 0.174790
H215 H -0.283100 0.087000 0.141000
C216 C -0.388300 0.308100 0.131080
H217 H -0.423800 0.208000 0.061600
C218 C -0.419860 0.515000 0.179300
H219 H -0.478700 0.568000 0.150700
C220 C -0.369150 0.648300 0.271330
H221 H -0.388500 0.797000 0.307400
C222 C -0.286250 0.577970 0.316650
C223 C -0.232600 0.726120 0.409210
H224 H -0.258000 0.878000 0.439800
N225 N -0.155850 0.668930 0.448380
C226 C -0.105290 0.831500 0.537440
H227 H -0.087900 0.752000 0.629400
H228 H -0.143100 0.974000 0.566600
C229 C -0.025480 0.913200 0.454750
H230 H 0.012300 0.782000 0.431900
H231 H -0.043900 0.983000 0.358300
C232 C 0.255920 1.634630 0.731120
O233 O 0.176950 1.713130 0.689730
H234 H 0.149300 1.582000 0.624000
C235 C 0.307450 1.767200 0.825210
H236 H 0.283100 1.913000 0.859000
C237 C 0.388300 1.691900 0.868920
H238 H 0.423800 1.792000 0.938400
C239 C 0.419860 1.485000 0.820700
H240 H 0.478700 1.432000 0.849300
C241 C 0.369150 1.351700 0.728670
H242 H 0.388500 1.203000 0.692600
C243 C 0.286250 1.422030 0.683350
C244 C 0.232600 1.273880 0.590790
H245 H 0.258000 1.122000 0.560200
N246 N 0.155850 1.331070 0.551620
C247 C 0.105290 1.168500 0.462560
H248 H 0.087900 1.248000 0.370600
H249 H 0.143100 1.026000 0.433400
C250 C 0.025480 1.086800 0.545250
H251 H -0.012300 1.218000 0.568100
H252 H 0.043900 1.017000 0.641700
C253 C 0.744080 -0.634630 0.268880
O254 O 0.823050 -0.713130 0.310270
H255 H 0.850700 -0.582000 0.376000
C256 C 0.692550 -0.767200 0.174790
H257 H 0.716900 -0.913000 0.141000
C258 C 0.611700 -0.691900 0.131080
H259 H 0.576200 -0.792000 0.061600
C260 C 0.580140 -0.485000 0.179300
H261 H 0.521300 -0.432000 0.150700
C262 C 0.630850 -0.351700 0.271330
H263 H 0.611500 -0.203000 0.307400
C264 C 0.713750 -0.422030 0.316650
C265 C 0.767400 -0.273880 0.409210
H266 H 0.742000 -0.122000 0.439800
N267 N 0.844150 -0.331070 0.448380
C268 C 0.894710 -0.168500 0.537440
H269 H 0.912100 -0.248000 0.629400
H270 H 0.856900 -0.026000 0.566600
C271 C 0.974520 -0.086800 0.454750
H272 H 1.012300 -0.218000 0.431900
H273 H 0.956100 -0.017000 0.358300
C274 C 1.255920 0.634630 0.731120
O275 O 1.176950 0.713130 0.689730
H276 H 1.149300 0.582000 0.624000
C277 C 1.307450 0.767200 0.825210
H278 H 1.283100 0.913000 0.859000
C279 C 1.388300 0.691900 0.868920
H280 H 1.423800 0.792000 0.938400
C281 C 1.419860 0.485000 0.820700
H282 H 1.478700 0.432000 0.849300
C283 C 1.369150 0.351700 0.728670
H284 H 1.388500 0.203000 0.692600
C285 C 1.286250 0.422030 0.683350
C286 C 1.232600 0.273880 0.590790
H287 H 1.258000 0.122000 0.560200
N288 N 1.155850 0.331070 0.551620
C289 C 1.105290 0.168500 0.462560
H290 H 1.087900 0.248000 0.370600
H291 H 1.143100 0.026000 0.433400
C292 C 1.025480 0.086800 0.545250
H293 H 0.987700 0.218000 0.568100
H294 H 1.043900 0.017000 0.641700
C295 C 0.744080 0.365370 0.268880
O296 O 0.823050 0.286870 0.310270
H297 H 0.850700 0.418000 0.376000
C298 C 0.692550 0.232800 0.174790
H299 H 0.716900 0.087000 0.141000
C300 C 0.611700 0.308100 0.131080
H301 H 0.576200 0.208000 0.061600
C302 C 0.580140 0.515000 0.179300
H303 H 0.521300 0.568000 0.150700
C304 C 0.630850 0.648300 0.271330
H305 H 0.611500 0.797000 0.307400
C306 C 0.713750 0.577970 0.316650
C307 C 0.767400 0.726120 0.409210
H308 H 0.742000 0.878000 0.439800
N309 N 0.844150 0.668930 0.448380
C310 C 0.894710 0.831500 0.537440
H311 H 0.912100 0.752000 0.629400
H312 H 0.856900 0.974000 0.566600
C313 C 0.974520 0.913200 0.454750
H314 H 1.012300 0.782000 0.431900
H315 H 0.956100 0.983000 0.358300
C316 C 1.255920 1.634630 0.731120
O317 O 1.176950 1.713130 0.689730
H318 H 1.149300 1.582000 0.624000
C319 C 1.307450 1.767200 0.825210
H320 H 1.283100 1.913000 0.859000
C321 C 1.388300 1.691900 0.868920
H322 H 1.423800 1.792000 0.938400
C323 C 1.419860 1.485000 0.820700
H324 H 1.478700 1.432000 0.849300
C325 C 1.369150 1.351700 0.728670
H326 H 1.388500 1.203000 0.692600
C327 C 1.286250 1.422030 0.683350
C328 C 1.232600 1.273880 0.590790
H329 H 1.258000 1.122000 0.560200
N330 N 1.155850 1.331070 0.551620
C331 C 1.105290 1.168500 0.462560
H332 H 1.087900 1.248000 0.370600
H333 H 1.143100 1.026000 0.433400
C334 C 1.025480 1.086800 0.545250
H335 H 0.987700 1.218000 0.568100
H336 H 1.043900 1.017000 0.641700

#END
