
#######################################################################
#
#                 Cambridge Crystallographic Data Centre
#                                CCDC 
#
#######################################################################
#
# If this CIF has been generated from an entry in the Cambridge 
# Structural Database, then it will include bibliographic, chemical, 
# crystal, experimental, refinement or atomic coordinate data resulting 
# from the CCDC's data processing and validation procedures.
#
#######################################################################

data_ACIDEV01
_symmetry_cell_setting           monoclinic
_symmetry_space_group_name_H-M   'P 21/c'
_symmetry_Int_Tables_number      14
_space_group_name_Hall           '-P 2ybc'
loop_
_symmetry_equiv_pos_site_id
_symmetry_equiv_pos_as_xyz
1 x,y,z
2 -x,1/2+y,1/2-z
3 -x,-y,-z
4 x,1/2-y,1/2+z
_cell_length_a                   15.3477(11)
_cell_length_b                   5.8733(5)
_cell_length_c                   8.9620(7)
_cell_angle_alpha                90
_cell_angle_beta                 90.119(6)
_cell_angle_gamma                90
_cell_volume                     807.848
loop_
_atom_site_label
_atom_site_type_symbol
_atom_site_fract_x
_atom_site_fract_y
_atom_site_fract_z
C1 C 0.25592(7) -0.13463(18) 0.23112(12)
O1 O 0.17695(5) -0.21313(15) 0.18973(10)
H1 H 0.1493(11) -0.082(3) 0.124(2)
C2 C 0.30745(9) -0.2672(2) 0.32521(14)
H2 H 0.2831(8) -0.413(2) 0.3590(14)
C3 C 0.38830(9) -0.1919(2) 0.36892(16)
H3 H 0.4238(9) -0.292(3) 0.4384(16)
C4 C 0.41986(8) 0.0150(3) 0.32070(16)
H4 H 0.4787(9) 0.068(3) 0.3493(16)
C5 C 0.36915(7) 0.1483(2) 0.22867(15)
H5 H 0.3885(8) 0.297(2) 0.1926(14)
C6 C 0.28625(6) 0.07797(17) 0.18335(11)
C7 C 0.23260(7) 0.22612(19) 0.09079(12)
H6 H 0.2580(7) 0.378(2) 0.0602(13)
N1 N 0.15585(6) 0.16893(17) 0.05162(10)
C8 C 0.10529(8) 0.3315(3) -0.03744(14)
H7 H 0.0879(9) 0.252(3) -0.1294(18)
H8 H 0.1431(10) 0.474(3) -0.0666(17)
C9 C 0.02548(7) 0.4132(2) 0.04525(13)
H9 H -0.0123(8) 0.282(2) 0.0681(13)
H10 H 0.0439(8) 0.483(2) 0.1417(15)
C1B C -0.25592(7) 1.13463(18) -0.23112(12)
O1B O -0.17695(5) 1.21313(15) -0.18973(10)
H1B H -0.1493(11) 1.082(3) -0.124(2)
C2B C -0.30745(9) 1.2672(2) -0.32521(14)
H2B H -0.2831(8) 1.413(2) -0.3590(14)
C3B C -0.38830(9) 1.1919(2) -0.36892(16)
H3B H -0.4238(9) 1.292(3) -0.4384(16)
C4B C -0.41986(8) 0.9850(3) -0.32070(16)
H4B H -0.4787(9) 0.932(3) -0.3493(16)
C5B C -0.36915(7) 0.8517(2) -0.22867(15)
H5B H -0.3885(8) 0.703(2) -0.1926(14)
C6B C -0.28625(6) 0.92203(17) -0.18335(11)
C7B C -0.23260(7) 0.77388(19) -0.09079(12)
H6B H -0.2580(7) 0.622(2) -0.0602(13)
N1B N -0.15585(6) 0.83107(17) -0.05162(10)
C8B C -0.10529(8) 0.6685(3) 0.03744(14)
H7B H -0.0879(9) 0.748(3) 0.1294(18)
H8B H -0.1431(10) 0.526(3) 0.0666(17)
C9B C -0.02548(7) 0.5868(2) -0.04525(13)
H9B H 0.0123(8) 0.718(2) -0.0681(13)
H10B H -0.0439(8) 0.517(2) -0.1417(15)
C1 C 0.25592(7) -0.13463(18) 1.23112(12)
O1 O 0.17695(5) -0.21313(15) 1.18973(10)
H1 H 0.1493(11) -0.082(3) 1.124(2)
C2 C 0.30745(9) -0.2672(2) 1.32521(14)
H2 H 0.2831(8) -0.413(2) 1.3590(14)
C3 C 0.38830(9) -0.1919(2) 1.36892(16)
H3 H 0.4238(9) -0.292(3) 1.4384(16)
C4 C 0.41986(8) 0.0150(3) 1.32070(16)
H4 H 0.4787(9) 0.068(3) 1.3493(16)
C5 C 0.36915(7) 0.1483(2) 1.22867(15)
H5 H 0.3885(8) 0.297(2) 1.1926(14)
C6 C 0.28625(6) 0.07797(17) 1.18335(11)
C7 C 0.23260(7) 0.22612(19) 1.09079(12)
H6 H 0.2580(7) 0.378(2) 1.0602(13)
N1 N 0.15585(6) 0.16893(17) 1.05162(10)
C8 C 0.10529(8) 0.3315(3) 0.96256(14)
H7 H 0.0879(9) 0.252(3) 0.8706(18)
H8 H 0.1431(10) 0.474(3) 0.9334(17)
C9 C 0.02548(7) 0.4132(2) 1.04525(13)
H9 H -0.0123(8) 0.282(2) 1.0681(13)
H10 H 0.0439(8) 0.483(2) 1.1417(15)
C1B C -0.25592(7) 1.13463(18) 0.76888(12)
O1B O -0.17695(5) 1.21313(15) 0.81027(10)
H1B H -0.1493(11) 1.082(3) 0.876(2)
C2B C -0.30745(9) 1.2672(2) 0.67479(14)
H2B H -0.2831(8) 1.413(2) 0.6410(14)
C3B C -0.38830(9) 1.1919(2) 0.63108(16)
H3B H -0.4238(9) 1.292(3) 0.5616(16)
C4B C -0.41986(8) 0.9850(3) 0.67930(16)
H4B H -0.4787(9) 0.932(3) 0.6507(16)
C5B C -0.36915(7) 0.8517(2) 0.77133(15)
H5B H -0.3885(8) 0.703(2) 0.8074(14)
C6B C -0.28625(6) 0.92203(17) 0.81665(11)
C7B C -0.23260(7) 0.77388(19) 0.90921(12)
H6B H -0.2580(7) 0.622(2) 0.9398(13)
N1B N -0.15585(6) 0.83107(17) 0.94838(10)
C8B C -0.10529(8) 0.6685(3) 1.03744(14)
H7B H -0.0879(9) 0.748(3) 1.1294(18)
H8B H -0.1431(10) 0.526(3) 1.0666(17)
C9B C -0.02548(7) 0.5868(2) 0.95475(13)
H9B H 0.0123(8) 0.718(2) 0.9319(13)
H10B H -0.0439(8) 0.517(2) 0.8583(15)
C1 C 1.25592(7) -0.13463(18) 0.23112(12)
O1 O 1.17695(5) -0.21313(15) 0.18973(10)
H1 H 1.1493(11) -0.082(3) 0.124(2)
C2 C 1.30745(9) -0.2672(2) 0.32521(14)
H2 H 1.2831(8) -0.413(2) 0.3590(14)
C3 C 1.38830(9) -0.1919(2) 0.36892(16)
H3 H 1.4238(9) -0.292(3) 0.4384(16)
C4 C 1.41986(8) 0.0150(3) 0.32070(16)
H4 H 1.4787(9) 0.068(3) 0.3493(16)
C5 C 1.36915(7) 0.1483(2) 0.22867(15)
H5 H 1.3885(8) 0.297(2) 0.1926(14)
C6 C 1.28625(6) 0.07797(17) 0.18335(11)
C7 C 1.23260(7) 0.22612(19) 0.09079(12)
H6 H 1.2580(7) 0.378(2) 0.0602(13)
N1 N 1.15585(6) 0.16893(17) 0.05162(10)
C8 C 1.10529(8) 0.3315(3) -0.03744(14)
H7 H 1.0879(9) 0.252(3) -0.1294(18)
H8 H 1.1431(10) 0.474(3) -0.0666(17)
C9 C 1.02548(7) 0.4132(2) 0.04525(13)
H9 H 0.9877(8) 0.282(2) 0.0681(13)
H10 H 1.0439(8) 0.483(2) 0.1417(15)
C1B C 0.74408(7) 1.13463(18) -0.23112(12)
O1B O 0.82305(5) 1.21313(15) -0.18973(10)
H1B H 0.8507(11) 1.082(3) -0.124(2)
C2B C 0.69255(9) 1.2672(2) -0.32521(14)
H2B H 0.7169(8) 1.413(2) -0.3590(14)
C3B C 0.61170(9) 1.1919(2) -0.36892(16)
H3B H 0.5762(9) 1.292(3) -0.4384(16)
C4B C 0.58014(8) 0.9850(3) -0.32070(16)
H4B H 0.5213(9) 0.932(3) -0.3493(16)
C5B C 0.63085(7) 0.8517(2) -0.22867(15)
H5B H 0.6115(8) 0.703(2) -0.1926(14)
C6B C 0.71375(6) 0.92203(17) -0.18335(11)
C7B C 0.76740(7) 0.77388(19) -0.09079(12)
H6B H 0.7420(7) 0.622(2) -0.0602(13)
N1B N 0.84415(6) 0.83107(17) -0.05162(10)
C8B C 0.89471(8) 0.6685(3) 0.03744(14)
H7B H 0.9121(9) 0.748(3) 0.1294(18)
H8B H 0.8569(10) 0.526(3) 0.0666(17)
C9B C 0.97452(7) 0.5868(2) -0.04525(13)
H9B H 1.0123(8) 0.718(2) -0.0681(13)
H10B H 0.9561(8) 0.517(2) -0.1417(15)
C1 C 1.25592(7) -0.13463(18) 1.23112(12)
O1 O 1.17695(5) -0.21313(15) 1.18973(10)
H1 H 1.1493(11) -0.082(3) 1.124(2)
C2 C 1.30745(9) -0.2672(2) 1.32521(14)
H2 H 1.2831(8) -0.413(2) 1.3590(14)
C3 C 1.38830(9) -0.1919(2) 1.36892(16)
H3 H 1.4238(9) -0.292(3) 1.4384(16)
C4 C 1.41986(8) 0.0150(3) 1.32070(16)
H4 H 1.4787(9) 0.068(3) 1.3493(16)
C5 C 1.36915(7) 0.1483(2) 1.22867(15)
H5 H 1.3885(8) 0.297(2) 1.1926(14)
C6 C 1.28625(6) 0.07797(17) 1.18335(11)
C7 C 1.23260(7) 0.22612(19) 1.09079(12)
H6 H 1.2580(7) 0.378(2) 1.0602(13)
N1 N 1.15585(6) 0.16893(17) 1.05162(10)
C8 C 1.10529(8) 0.3315(3) 0.96256(14)
H7 H 1.0879(9) 0.252(3) 0.8706(18)
H8 H 1.1431(10) 0.474(3) 0.9334(17)
C9 C 1.02548(7) 0.4132(2) 1.04525(13)
H9 H 0.9877(8) 0.282(2) 1.0681(13)
H10 H 1.0439(8) 0.483(2) 1.1417(15)
C1B C 0.74408(7) 1.13463(18) 0.76888(12)
O1B O 0.82305(5) 1.21313(15) 0.81027(10)
H1B H 0.8507(11) 1.082(3) 0.876(2)
C2B C 0.69255(9) 1.2672(2) 0.67479(14)
H2B H 0.7169(8) 1.413(2) 0.6410(14)
C3B C 0.61170(9) 1.1919(2) 0.63108(16)
H3B H 0.5762(9) 1.292(3) 0.5616(16)
C4B C 0.58014(8) 0.9850(3) 0.67930(16)
H4B H 0.5213(9) 0.932(3) 0.6507(16)
C5B C 0.63085(7) 0.8517(2) 0.77133(15)
H5B H 0.6115(8) 0.703(2) 0.8074(14)
C6B C 0.71375(6) 0.92203(17) 0.81665(11)
C7B C 0.76740(7) 0.77388(19) 0.90921(12)
H6B H 0.7420(7) 0.622(2) 0.9398(13)
N1B N 0.84415(6) 0.83107(17) 0.94838(10)
C8B C 0.89471(8) 0.6685(3) 1.03744(14)
H7B H 0.9121(9) 0.748(3) 1.1294(18)
H8B H 0.8569(10) 0.526(3) 1.0666(17)
C9B C 0.97452(7) 0.5868(2) 0.95475(13)
H9B H 1.0123(8) 0.718(2) 0.9319(13)
H10B H 0.9561(8) 0.517(2) 0.8583(15)
C1 C -0.25592(7) -0.63463(18) 0.26888(12)
O1 O -0.17695(5) -0.71313(15) 0.31027(10)
H1 H -0.1493(11) -0.582(3) 0.376(2)
C2 C -0.30745(9) -0.7672(2) 0.17479(14)
H2 H -0.2831(8) -0.913(2) 0.1410(14)
C3 C -0.38830(9) -0.6919(2) 0.13108(16)
H3 H -0.4238(9) -0.792(3) 0.0616(16)
C4 C -0.41986(8) -0.4850(3) 0.17930(16)
H4 H -0.4787(9) -0.432(3) 0.1507(16)
C5 C -0.36915(7) -0.3517(2) 0.27133(15)
H5 H -0.3885(8) -0.203(2) 0.3074(14)
C6 C -0.28625(6) -0.42203(17) 0.31665(11)
C7 C -0.23260(7) -0.27388(19) 0.40921(12)
H6 H -0.2580(7) -0.122(2) 0.4398(13)
N1 N -0.15585(6) -0.33107(17) 0.44838(10)
C8 C -0.10529(8) -0.1685(3) 0.53744(14)
H7 H -0.0879(9) -0.248(3) 0.6294(18)
H8 H -0.1431(10) -0.026(3) 0.5666(17)
C9 C -0.02548(7) -0.0868(2) 0.45475(13)
H9 H 0.0123(8) -0.218(2) 0.4319(13)
H10 H -0.0439(8) -0.017(2) 0.3583(15)
C1B C 0.25592(7) 0.63463(18) 0.73112(12)
O1B O 0.17695(5) 0.71313(15) 0.68973(10)
H1B H 0.1493(11) 0.582(3) 0.624(2)
C2B C 0.30745(9) 0.7672(2) 0.82521(14)
H2B H 0.2831(8) 0.913(2) 0.8590(14)
C3B C 0.38830(9) 0.6919(2) 0.86892(16)
H3B H 0.4238(9) 0.792(3) 0.9384(16)
C4B C 0.41986(8) 0.4850(3) 0.82070(16)
H4B H 0.4787(9) 0.432(3) 0.8493(16)
C5B C 0.36915(7) 0.3517(2) 0.72867(15)
H5B H 0.3885(8) 0.203(2) 0.6926(14)
C6B C 0.28625(6) 0.42203(17) 0.68335(11)
C7B C 0.23260(7) 0.27388(19) 0.59079(12)
H6B H 0.2580(7) 0.122(2) 0.5602(13)
N1B N 0.15585(6) 0.33107(17) 0.55162(10)
C8B C 0.10529(8) 0.1685(3) 0.46256(14)
H7B H 0.0879(9) 0.248(3) 0.3706(18)
H8B H 0.1431(10) 0.026(3) 0.4334(17)
C9B C 0.02548(7) 0.0868(2) 0.54525(13)
H9B H -0.0123(8) 0.218(2) 0.5681(13)
H10B H 0.0439(8) 0.017(2) 0.6417(15)
C1 C -0.25592(7) 0.36537(18) 0.26888(12)
O1 O -0.17695(5) 0.28687(15) 0.31027(10)
H1 H -0.1493(11) 0.418(3) 0.376(2)
C2 C -0.30745(9) 0.2328(2) 0.17479(14)
H2 H -0.2831(8) 0.087(2) 0.1410(14)
C3 C -0.38830(9) 0.3081(2) 0.13108(16)
H3 H -0.4238(9) 0.208(3) 0.0616(16)
C4 C -0.41986(8) 0.5150(3) 0.17930(16)
H4 H -0.4787(9) 0.568(3) 0.1507(16)
C5 C -0.36915(7) 0.6483(2) 0.27133(15)
H5 H -0.3885(8) 0.797(2) 0.3074(14)
C6 C -0.28625(6) 0.57797(17) 0.31665(11)
C7 C -0.23260(7) 0.72612(19) 0.40921(12)
H6 H -0.2580(7) 0.878(2) 0.4398(13)
N1 N -0.15585(6) 0.66893(17) 0.44838(10)
C8 C -0.10529(8) 0.8315(3) 0.53744(14)
H7 H -0.0879(9) 0.752(3) 0.6294(18)
H8 H -0.1431(10) 0.974(3) 0.5666(17)
C9 C -0.02548(7) 0.9132(2) 0.45475(13)
H9 H 0.0123(8) 0.782(2) 0.4319(13)
H10 H -0.0439(8) 0.983(2) 0.3583(15)
C1B C 0.25592(7) 1.63463(18) 0.73112(12)
O1B O 0.17695(5) 1.71313(15) 0.68973(10)
H1B H 0.1493(11) 1.582(3) 0.624(2)
C2B C 0.30745(9) 1.7672(2) 0.82521(14)
H2B H 0.2831(8) 1.913(2) 0.8590(14)
C3B C 0.38830(9) 1.6919(2) 0.86892(16)
H3B H 0.4238(9) 1.792(3) 0.9384(16)
C4B C 0.41986(8) 1.4850(3) 0.82070(16)
H4B H 0.4787(9) 1.432(3) 0.8493(16)
C5B C 0.36915(7) 1.3517(2) 0.72867(15)
H5B H 0.3885(8) 1.203(2) 0.6926(14)
C6B C 0.28625(6) 1.42203(17) 0.68335(11)
C7B C 0.23260(7) 1.27388(19) 0.59079(12)
H6B H 0.2580(7) 1.122(2) 0.5602(13)
N1B N 0.15585(6) 1.33107(17) 0.55162(10)
C8B C 0.10529(8) 1.1685(3) 0.46256(14)
H7B H 0.0879(9) 1.248(3) 0.3706(18)
H8B H 0.1431(10) 1.026(3) 0.4334(17)
C9B C 0.02548(7) 1.0868(2) 0.54525(13)
H9B H -0.0123(8) 1.218(2) 0.5681(13)
H10B H 0.0439(8) 1.017(2) 0.6417(15)
C1 C 0.74408(7) -0.63463(18) 0.26888(12)
O1 O 0.82305(5) -0.71313(15) 0.31027(10)
H1 H 0.8507(11) -0.582(3) 0.376(2)
C2 C 0.69255(9) -0.7672(2) 0.17479(14)
H2 H 0.7169(8) -0.913(2) 0.1410(14)
C3 C 0.61170(9) -0.6919(2) 0.13108(16)
H3 H 0.5762(9) -0.792(3) 0.0616(16)
C4 C 0.58014(8) -0.4850(3) 0.17930(16)
H4 H 0.5213(9) -0.432(3) 0.1507(16)
C5 C 0.63085(7) -0.3517(2) 0.27133(15)
H5 H 0.6115(8) -0.203(2) 0.3074(14)
C6 C 0.71375(6) -0.42203(17) 0.31665(11)
C7 C 0.76740(7) -0.27388(19) 0.40921(12)
H6 H 0.7420(7) -0.122(2) 0.4398(13)
N1 N 0.84415(6) -0.33107(17) 0.44838(10)
C8 C 0.89471(8) -0.1685(3) 0.53744(14)
H7 H 0.9121(9) -0.248(3) 0.6294(18)
H8 H 0.8569(10) -0.026(3) 0.5666(17)
C9 C 0.97452(7) -0.0868(2) 0.45475(13)
H9 H 1.0123(8) -0.218(2) 0.4319(13)
H10 H 0.9561(8) -0.017(2) 0.3583(15)
C1B C 1.25592(7) 0.63463(18) 0.73112(12)
O1B O 1.17695(5) 0.71313(15) 0.68973(10)
H1B H 1.1493(11) 0.582(3) 0.624(2)
C2B C 1.30745(9) 0.7672(2) 0.82521(14)
H2B H 1.2831(8) 0.913(2) 0.8590(14)
C3B C 1.38830(9) 0.6919(2) 0.86892(16)
H3B H 1.4238(9) 0.792(3) 0.9384(16)
C4B C 1.41986(8) 0.4850(3) 0.82070(16)
H4B H 1.4787(9) 0.432(3) 0.8493(16)
C5B C 1.36915(7) 0.3517(2) 0.72867(15)
H5B H 1.3885(8) 0.203(2) 0.6926(14)
C6B C 1.28625(6) 0.42203(17) 0.68335(11)
C7B C 1.23260(7) 0.27388(19) 0.59079(12)
H6B H 1.2580(7) 0.122(2) 0.5602(13)
N1B N 1.15585(6) 0.33107(17) 0.55162(10)
C8B C 1.10529(8) 0.1685(3) 0.46256(14)
H7B H 1.0879(9) 0.248(3) 0.3706(18)
H8B H 1.1431(10) 0.026(3) 0.4334(17)
C9B C 1.02548(7) 0.0868(2) 0.54525(13)
H9B H 0.9877(8) 0.218(2) 0.5681(13)
H10B H 1.0439(8) 0.017(2) 0.6417(15)
C1 C 0.74408(7) 0.36537(18) 0.26888(12)
O1 O 0.82305(5) 0.28687(15) 0.31027(10)
H1 H 0.8507(11) 0.418(3) 0.376(2)
C2 C 0.69255(9) 0.2328(2) 0.17479(14)
H2 H 0.7169(8) 0.087(2) 0.1410(14)
C3 C 0.61170(9) 0.3081(2) 0.13108(16)
H3 H 0.5762(9) 0.208(3) 0.0616(16)
C4 C 0.58014(8) 0.5150(3) 0.17930(16)
H4 H 0.5213(9) 0.568(3) 0.1507(16)
C5 C 0.63085(7) 0.6483(2) 0.27133(15)
H5 H 0.6115(8) 0.797(2) 0.3074(14)
C6 C 0.71375(6) 0.57797(17) 0.31665(11)
C7 C 0.76740(7) 0.72612(19) 0.40921(12)
H6 H 0.7420(7) 0.878(2) 0.4398(13)
N1 N 0.84415(6) 0.66893(17) 0.44838(10)
C8 C 0.89471(8) 0.8315(3) 0.53744(14)
H7 H 0.9121(9) 0.752(3) 0.6294(18)
H8 H 0.8569(10) 0.974(3) 0.5666(17)
C9 C 0.97452(7) 0.9132(2) 0.45475(13)
H9 H 1.0123(8) 0.782(2) 0.4319(13)
H10 H 0.9561(8) 0.983(2) 0.3583(15)
C1B C 1.25592(7) 1.63463(18) 0.73112(12)
O1B O 1.17695(5) 1.71313(15) 0.68973(10)
H1B H 1.1493(11) 1.582(3) 0.624(2)
C2B C 1.30745(9) 1.7672(2) 0.82521(14)
H2B H 1.2831(8) 1.913(2) 0.8590(14)
C3B C 1.38830(9) 1.6919(2) 0.86892(16)
H3B H 1.4238(9) 1.792(3) 0.9384(16)
C4B C 1.41986(8) 1.4850(3) 0.82070(16)
H4B H 1.4787(9) 1.432(3) 0.8493(16)
C5B C 1.36915(7) 1.3517(2) 0.72867(15)
H5B H 1.3885(8) 1.203(2) 0.6926(14)
C6B C 1.28625(6) 1.42203(17) 0.68335(11)
C7B C 1.23260(7) 1.27388(19) 0.59079(12)
H6B H 1.2580(7) 1.122(2) 0.5602(13)
N1B N 1.15585(6) 1.33107(17) 0.55162(10)
C8B C 1.10529(8) 1.1685(3) 0.46256(14)
H7B H 1.0879(9) 1.248(3) 0.3706(18)
H8B H 1.1431(10) 1.026(3) 0.4334(17)
C9B C 1.02548(7) 1.0868(2) 0.54525(13)
H9B H 0.9877(8) 1.218(2) 0.5681(13)
H10B H 1.0439(8) 1.017(2) 0.6417(15)

#END
