./ACIDUN_from_xyz.cif_generated_by_CrystalShift
_symmetry_cell_setting triclinic
_symmetry_space_group_name_H-M 'P 1'
loop_
_symmetry_equiv_pos_site_id
_symmetry_equiv_pos_as_xyz
1 x,y,z
_cell_length_a 28.801000
_cell_length_b 5.709000
_cell_length_c 18.589000
_cell_angle_alpha 90.000000
_cell_angle_beta 115.851000
_cell_angle_gamma 90.000000
_cell_volume 2750.634377
loop_
_atom_site_label
_atom_site_type_symbol
_atom_site_fract_x
_atom_site_fract_y
_atom_site_fract_z
C1 C 0.399830 1.108100 0.368510
H2 H 0.372500 1.036200 0.379100
H3 H 0.384400 1.217900 0.323700
H4 H 0.423700 1.192500 0.416200
C5 C 0.450730 0.740600 0.415260
H6 H 0.470500 0.621800 0.402500
H7 H 0.422300 0.665200 0.422000
H8 H 0.473300 0.820700 0.464900
C9 C 0.428990 0.918200 0.347530
C10 C 0.472850 1.033600 0.336230
H11 H 0.495200 1.117800 0.385100
H12 H 0.458700 1.144000 0.291500
H13 H 0.493000 0.913400 0.324800
C14 C 0.393970 0.788700 0.272310
C15 C 0.407190 0.670700 0.217630
H16 H 0.440600 0.661500 0.219200
C17 C 0.362610 0.570600 0.161220
C18 C 0.354420 0.430900 0.087130
C19 C 0.328220 0.194100 0.083370
H20 H 0.348000 0.106600 0.132800
H21 H 0.326900 0.104200 0.037600
H22 H 0.293100 0.220300 0.077300
C23 C 0.322890 0.572800 0.011230
H24 H 0.289500 0.614300 0.009800
H25 H 0.317400 0.478700 -0.035900
H26 H 0.341700 0.715900 0.011400
C27 C 0.407230 0.379800 0.089770
H28 H 0.424500 0.527800 0.089700
H29 H 0.402800 0.287200 0.042800
H30 H 0.428300 0.291800 0.138400
C31 C 0.270680 0.568900 0.149940
H32 H 0.258700 0.523200 0.093300
H33 H 0.250400 0.707000 0.151700
C34 C 0.260960 0.367500 0.195480
H35 H 0.284600 0.235800 0.200900
H36 H 0.267100 0.419700 0.249700
N37 N 0.343660 0.764600 0.251250
N38 N 0.324920 0.632300 0.183110
O39 O 0.209190 0.295100 0.152080
H40 H 0.194200 0.299700 0.181900
C41 C 0.600170 1.108100 0.131490
H42 H 0.627500 1.036200 0.120900
H43 H 0.615600 1.217900 0.176300
H44 H 0.576300 1.192500 0.083800
C45 C 0.549270 0.740600 0.084740
H46 H 0.529500 0.621800 0.097500
H47 H 0.577700 0.665200 0.078000
H48 H 0.526700 0.820700 0.035100
C49 C 0.571010 0.918200 0.152470
C50 C 0.527150 1.033600 0.163770
H51 H 0.504800 1.117800 0.114900
H52 H 0.541300 1.144000 0.208500
H53 H 0.507000 0.913400 0.175200
C54 C 0.606030 0.788700 0.227690
C55 C 0.592810 0.670700 0.282370
H56 H 0.559400 0.661500 0.280800
C57 C 0.637390 0.570600 0.338780
C58 C 0.645580 0.430900 0.412870
C59 C 0.671780 0.194100 0.416630
H60 H 0.652000 0.106600 0.367200
H61 H 0.673100 0.104200 0.462400
H62 H 0.706900 0.220300 0.422700
C63 C 0.677110 0.572800 0.488770
H64 H 0.710500 0.614300 0.490200
H65 H 0.682600 0.478700 0.535900
H66 H 0.658300 0.715900 0.488600
C67 C 0.592770 0.379800 0.410230
H68 H 0.575500 0.527800 0.410300
H69 H 0.597200 0.287200 0.457200
H70 H 0.571700 0.291800 0.361600
C71 C 0.729320 0.568900 0.350060
H72 H 0.741300 0.523200 0.406700
H73 H 0.749600 0.707000 0.348300
C74 C 0.739040 0.367500 0.304520
H75 H 0.715400 0.235800 0.299100
H76 H 0.732900 0.419700 0.250300
N77 N 0.656340 0.764600 0.248750
N78 N 0.675080 0.632300 0.316890
O79 O 0.790810 0.295100 0.347920
H80 H 0.805800 0.299700 0.318100
C81 C 0.899830 0.608100 0.368510
H82 H 0.872500 0.536200 0.379100
H83 H 0.884400 0.717900 0.323700
H84 H 0.923700 0.692500 0.416200
C85 C 0.950730 0.240600 0.415260
H86 H 0.970500 0.121800 0.402500
H87 H 0.922300 0.165200 0.422000
H88 H 0.973300 0.320700 0.464900
C89 C 0.928990 0.418200 0.347530
C90 C 0.972850 0.533600 0.336230
H91 H 0.995200 0.617800 0.385100
H92 H 0.958700 0.644000 0.291500
H93 H 0.993000 0.413400 0.324800
C94 C 0.893970 0.288700 0.272310
C95 C 0.907190 0.170700 0.217630
H96 H 0.940600 0.161500 0.219200
C97 C 0.862610 0.070600 0.161220
C98 C 0.854420 -0.069100 0.087130
C99 C 0.828220 -0.305900 0.083370
H100 H 0.848000 -0.393400 0.132800
H101 H 0.826900 -0.395800 0.037600
H102 H 0.793100 -0.279700 0.077300
C103 C 0.822890 0.072800 0.011230
H104 H 0.789500 0.114300 0.009800
H105 H 0.817400 -0.021300 -0.035900
H106 H 0.841700 0.215900 0.011400
C107 C 0.907230 -0.120200 0.089770
H108 H 0.924500 0.027800 0.089700
H109 H 0.902800 -0.212800 0.042800
H110 H 0.928300 -0.208200 0.138400
C111 C 0.770680 0.068900 0.149940
H112 H 0.758700 0.023200 0.093300
H113 H 0.750400 0.207000 0.151700
C114 C 0.760960 -0.132500 0.195480
H115 H 0.784600 -0.264200 0.200900
H116 H 0.767100 -0.080300 0.249700
N117 N 0.843660 0.264600 0.251250
N118 N 0.824920 0.132300 0.183110
O119 O 0.709190 -0.204900 0.152080
H120 H 0.694200 -0.200300 0.181900
C121 C 0.100170 0.608100 0.131490
H122 H 0.127500 0.536200 0.120900
H123 H 0.115600 0.717900 0.176300
H124 H 0.076300 0.692500 0.083800
C125 C 0.049270 0.240600 0.084740
H126 H 0.029500 0.121800 0.097500
H127 H 0.077700 0.165200 0.078000
H128 H 0.026700 0.320700 0.035100
C129 C 0.071010 0.418200 0.152470
C130 C 0.027150 0.533600 0.163770
H131 H 0.004800 0.617800 0.114900
H132 H 0.041300 0.644000 0.208500
H133 H 0.007000 0.413400 0.175200
C134 C 0.106030 0.288700 0.227690
C135 C 0.092810 0.170700 0.282370
H136 H 0.059400 0.161500 0.280800
C137 C 0.137390 0.070600 0.338780
C138 C 0.145580 -0.069100 0.412870
C139 C 0.171780 -0.305900 0.416630
H140 H 0.152000 -0.393400 0.367200
H141 H 0.173100 -0.395800 0.462400
H142 H 0.206900 -0.279700 0.422700
C143 C 0.177110 0.072800 0.488770
H144 H 0.210500 0.114300 0.490200
H145 H 0.182600 -0.021300 0.535900
H146 H 0.158300 0.215900 0.488600
C147 C 0.092770 -0.120200 0.410230
H148 H 0.075500 0.027800 0.410300
H149 H 0.097200 -0.212800 0.457200
H150 H 0.071700 -0.208200 0.361600
C151 C 0.229320 0.068900 0.350060
H152 H 0.241300 0.023200 0.406700
H153 H 0.249600 0.207000 0.348300
C154 C 0.239040 -0.132500 0.304520
H155 H 0.215400 -0.264200 0.299100
H156 H 0.232900 -0.080300 0.250300
N157 N 0.156340 0.264600 0.248750
N158 N 0.175080 0.132300 0.316890
O159 O 0.290810 -0.204900 0.347920
H160 H 0.305800 -0.200300 0.318100
C161 C 0.600170 -0.108100 0.631490
H162 H 0.627500 -0.036200 0.620900
H163 H 0.615600 -0.217900 0.676300
H164 H 0.576300 -0.192500 0.583800
C165 C 0.549270 0.259400 0.584740
H166 H 0.529500 0.378200 0.597500
H167 H 0.577700 0.334800 0.578000
H168 H 0.526700 0.179300 0.535100
C169 C 0.571010 0.081800 0.652470
C170 C 0.527150 -0.033600 0.663770
H171 H 0.504800 -0.117800 0.614900
H172 H 0.541300 -0.144000 0.708500
H173 H 0.507000 0.086600 0.675200
C174 C 0.606030 0.211300 0.727690
C175 C 0.592810 0.329300 0.782370
H176 H 0.559400 0.338500 0.780800
C177 C 0.637390 0.429400 0.838780
C178 C 0.645580 0.569100 0.912870
C179 C 0.671780 0.805900 0.916630
H180 H 0.652000 0.893400 0.867200
H181 H 0.673100 0.895800 0.962400
H182 H 0.706900 0.779700 0.922700
C183 C 0.677110 0.427200 0.988770
H184 H 0.710500 0.385700 0.990200
H185 H 0.682600 0.521300 1.035900
H186 H 0.658300 0.284100 0.988600
C187 C 0.592770 0.620200 0.910230
H188 H 0.575500 0.472200 0.910300
H189 H 0.597200 0.712800 0.957200
H190 H 0.571700 0.708200 0.861600
C191 C 0.729320 0.431100 0.850060
H192 H 0.741300 0.476800 0.906700
H193 H 0.749600 0.293000 0.848300
C194 C 0.739040 0.632500 0.804520
H195 H 0.715400 0.764200 0.799100
H196 H 0.732900 0.580300 0.750300
N197 N 0.656340 0.235400 0.748750
N198 N 0.675080 0.367700 0.816890
O199 O 0.790810 0.704900 0.847920
H200 H 0.805800 0.700300 0.818100
C201 C 0.399830 -0.108100 0.868510
H202 H 0.372500 -0.036200 0.879100
H203 H 0.384400 -0.217900 0.823700
H204 H 0.423700 -0.192500 0.916200
C205 C 0.450730 0.259400 0.915260
H206 H 0.470500 0.378200 0.902500
H207 H 0.422300 0.334800 0.922000
H208 H 0.473300 0.179300 0.964900
C209 C 0.428990 0.081800 0.847530
C210 C 0.472850 -0.033600 0.836230
H211 H 0.495200 -0.117800 0.885100
H212 H 0.458700 -0.144000 0.791500
H213 H 0.493000 0.086600 0.824800
C214 C 0.393970 0.211300 0.772310
C215 C 0.407190 0.329300 0.717630
H216 H 0.440600 0.338500 0.719200
C217 C 0.362610 0.429400 0.661220
C218 C 0.354420 0.569100 0.587130
C219 C 0.328220 0.805900 0.583370
H220 H 0.348000 0.893400 0.632800
H221 H 0.326900 0.895800 0.537600
H222 H 0.293100 0.779700 0.577300
C223 C 0.322890 0.427200 0.511230
H224 H 0.289500 0.385700 0.509800
H225 H 0.317400 0.521300 0.464100
H226 H 0.341700 0.284100 0.511400
C227 C 0.407230 0.620200 0.589770
H228 H 0.424500 0.472200 0.589700
H229 H 0.402800 0.712800 0.542800
H230 H 0.428300 0.708200 0.638400
C231 C 0.270680 0.431100 0.649940
H232 H 0.258700 0.476800 0.593300
H233 H 0.250400 0.293000 0.651700
C234 C 0.260960 0.632500 0.695480
H235 H 0.284600 0.764200 0.700900
H236 H 0.267100 0.580300 0.749700
N237 N 0.343660 0.235400 0.751250
N238 N 0.324920 0.367700 0.683110
O239 O 0.209190 0.704900 0.652080
H240 H 0.194200 0.700300 0.681900
C241 C 0.100170 0.391900 0.631490
H242 H 0.127500 0.463800 0.620900
H243 H 0.115600 0.282100 0.676300
H244 H 0.076300 0.307500 0.583800
C245 C 0.049270 0.759400 0.584740
H246 H 0.029500 0.878200 0.597500
H247 H 0.077700 0.834800 0.578000
H248 H 0.026700 0.679300 0.535100
C249 C 0.071010 0.581800 0.652470
C250 C 0.027150 0.466400 0.663770
H251 H 0.004800 0.382200 0.614900
H252 H 0.041300 0.356000 0.708500
H253 H 0.007000 0.586600 0.675200
C254 C 0.106030 0.711300 0.727690
C255 C 0.092810 0.829300 0.782370
H256 H 0.059400 0.838500 0.780800
C257 C 0.137390 0.929400 0.838780
C258 C 0.145580 1.069100 0.912870
C259 C 0.171780 1.305900 0.916630
H260 H 0.152000 1.393400 0.867200
H261 H 0.173100 1.395800 0.962400
H262 H 0.206900 1.279700 0.922700
C263 C 0.177110 0.927200 0.988770
H264 H 0.210500 0.885700 0.990200
H265 H 0.182600 1.021300 1.035900
H266 H 0.158300 0.784100 0.988600
C267 C 0.092770 1.120200 0.910230
H268 H 0.075500 0.972200 0.910300
H269 H 0.097200 1.212800 0.957200
H270 H 0.071700 1.208200 0.861600
C271 C 0.229320 0.931100 0.850060
H272 H 0.241300 0.976800 0.906700
H273 H 0.249600 0.793000 0.848300
C274 C 0.239040 1.132500 0.804520
H275 H 0.215400 1.264200 0.799100
H276 H 0.232900 1.080300 0.750300
N277 N 0.156340 0.735400 0.748750
N278 N 0.175080 0.867700 0.816890
O279 O 0.290810 1.204900 0.847920
H280 H 0.305800 1.200300 0.818100
C281 C 0.899830 0.391900 0.868510
H282 H 0.872500 0.463800 0.879100
H283 H 0.884400 0.282100 0.823700
H284 H 0.923700 0.307500 0.916200
C285 C 0.950730 0.759400 0.915260
H286 H 0.970500 0.878200 0.902500
H287 H 0.922300 0.834800 0.922000
H288 H 0.973300 0.679300 0.964900
C289 C 0.928990 0.581800 0.847530
C290 C 0.972850 0.466400 0.836230
H291 H 0.995200 0.382200 0.885100
H292 H 0.958700 0.356000 0.791500
H293 H 0.993000 0.586600 0.824800
C294 C 0.893970 0.711300 0.772310
C295 C 0.907190 0.829300 0.717630
H296 H 0.940600 0.838500 0.719200
C297 C 0.862610 0.929400 0.661220
C298 C 0.854420 1.069100 0.587130
C299 C 0.828220 1.305900 0.583370
H300 H 0.848000 1.393400 0.632800
H301 H 0.826900 1.395800 0.537600
H302 H 0.793100 1.279700 0.577300
C303 C 0.822890 0.927200 0.511230
H304 H 0.789500 0.885700 0.509800
H305 H 0.817400 1.021300 0.464100
H306 H 0.841700 0.784100 0.511400
C307 C 0.907230 1.120200 0.589770
H308 H 0.924500 0.972200 0.589700
H309 H 0.902800 1.212800 0.542800
H310 H 0.928300 1.208200 0.638400
C311 C 0.770680 0.931100 0.649940
H312 H 0.758700 0.976800 0.593300
H313 H 0.750400 0.793000 0.651700
C314 C 0.760960 1.132500 0.695480
H315 H 0.784600 1.264200 0.700900
H316 H 0.767100 1.080300 0.749700
N317 N 0.843660 0.735400 0.751250
N318 N 0.824920 0.867700 0.683110
O319 O 0.709190 1.204900 0.652080
H320 H 0.694200 1.200300 0.681900

#END
