./ACIGID_from_xyz.cif_generated_by_CrystalShift
_symmetry_cell_setting triclinic
_symmetry_space_group_name_H-M 'P 1'
loop_
_symmetry_equiv_pos_site_id
_symmetry_equiv_pos_as_xyz
1 x,y,z
_cell_length_a 9.934000
_cell_length_b 13.082000
_cell_length_c 12.666000
_cell_angle_alpha 90.000000
_cell_angle_beta 97.810000
_cell_angle_gamma 90.000000
_cell_volume 1630.761804
loop_
_atom_site_label
_atom_site_type_symbol
_atom_site_fract_x
_atom_site_fract_y
_atom_site_fract_z
S1 S 0.715570 0.529620 0.076250
C2 C 0.629100 0.427400 0.122100
N3 N 0.571200 0.440320 0.204170
N4 N 0.587900 0.543080 0.239510
C5 C 0.704400 0.597900 0.201700
C6 C 0.687100 0.714500 0.178500
H7 H 0.688300 0.728900 0.103500
H8 H 0.602600 0.739700 0.199200
C9 C 0.809600 0.762700 0.246600
H10 H 0.832000 0.831200 0.223000
C11 C 0.783900 0.758800 0.360400
H12 H 0.693100 0.782500 0.367700
H13 H 0.849800 0.799500 0.405900
C14 C 0.800700 0.642400 0.386800
H15 H 0.872600 0.631200 0.445600
H16 H 0.716800 0.613800 0.405200
C17 C 0.837400 0.594400 0.283100
C18 C 0.922700 0.685600 0.243500
N19 N 0.625400 0.332420 0.074780
H20 H 0.593000 0.282000 0.110000
C21 C 0.666200 0.313600 -0.022000
O22 O 0.704300 0.382500 -0.074850
C23 C 0.660400 0.204800 -0.056200
H24 H 0.627400 0.163700 -0.002400
H25 H 0.749700 0.182200 -0.066300
H26 H 0.600300 0.198200 -0.121900
C27 C 0.488200 0.580300 0.290600
O28 O 0.489700 0.668450 0.324200
C29 C 0.374600 0.508900 0.306700
H30 H 0.389600 0.443900 0.275100
H31 H 0.289900 0.537000 0.273700
H32 H 0.371600 0.500200 0.381600
C33 C 0.905700 0.491900 0.298200
H34 H 0.985800 0.497700 0.349600
H35 H 0.930500 0.468800 0.231600
H36 H 0.844400 0.443600 0.323200
C37 C 1.053200 0.709100 0.320500
H38 H 1.119500 0.656900 0.314200
H39 H 1.032400 0.710800 0.392300
H40 H 1.088700 0.774200 0.302800
C41 C 0.967400 0.673800 0.132600
H42 H 0.889500 0.659200 0.081200
H43 H 1.031500 0.618700 0.133800
H44 H 1.009100 0.736100 0.113400
S45 S 0.284430 0.029620 0.423750
C46 C 0.370900 -0.072600 0.377900
N47 N 0.428800 -0.059680 0.295830
N48 N 0.412100 0.043080 0.260490
C49 C 0.295600 0.097900 0.298300
C50 C 0.312900 0.214500 0.321500
H51 H 0.311700 0.228900 0.396500
H52 H 0.397400 0.239700 0.300800
C53 C 0.190400 0.262700 0.253400
H54 H 0.168000 0.331200 0.277000
C55 C 0.216100 0.258800 0.139600
H56 H 0.306900 0.282500 0.132300
H57 H 0.150200 0.299500 0.094100
C58 C 0.199300 0.142400 0.113200
H59 H 0.127400 0.131200 0.054400
H60 H 0.283200 0.113800 0.094800
C61 C 0.162600 0.094400 0.216900
C62 C 0.077300 0.185600 0.256500
N63 N 0.374600 -0.167580 0.425220
H64 H 0.407000 -0.218000 0.390000
C65 C 0.333800 -0.186400 0.522000
O66 O 0.295700 -0.117500 0.574850
C67 C 0.339600 -0.295200 0.556200
H68 H 0.372600 -0.336300 0.502400
H69 H 0.250300 -0.317800 0.566300
H70 H 0.399700 -0.301800 0.621900
C71 C 0.511800 0.080300 0.209400
O72 O 0.510300 0.168450 0.175800
C73 C 0.625400 0.008900 0.193300
H74 H 0.610400 -0.056100 0.224900
H75 H 0.710100 0.037000 0.226300
H76 H 0.628400 0.000200 0.118400
C77 C 0.094300 -0.008100 0.201800
H78 H 0.014200 -0.002300 0.150400
H79 H 0.069500 -0.031200 0.268400
H80 H 0.155600 -0.056400 0.176800
C81 C -0.053200 0.209100 0.179500
H82 H -0.119500 0.156900 0.185800
H83 H -0.032400 0.210800 0.107700
H84 H -0.088700 0.274200 0.197200
C85 C 0.032600 0.173800 0.367400
H86 H 0.110500 0.159200 0.418800
H87 H -0.031500 0.118700 0.366200
H88 H -0.009100 0.236100 0.386600
S89 S 0.284430 0.470380 0.923750
C90 C 0.370900 0.572600 0.877900
N91 N 0.428800 0.559680 0.795830
N92 N 0.412100 0.456920 0.760490
C93 C 0.295600 0.402100 0.798300
C94 C 0.312900 0.285500 0.821500
H95 H 0.311700 0.271100 0.896500
H96 H 0.397400 0.260300 0.800800
C97 C 0.190400 0.237300 0.753400
H98 H 0.168000 0.168800 0.777000
C99 C 0.216100 0.241200 0.639600
H100 H 0.306900 0.217500 0.632300
H101 H 0.150200 0.200500 0.594100
C102 C 0.199300 0.357600 0.613200
H103 H 0.127400 0.368800 0.554400
H104 H 0.283200 0.386200 0.594800
C105 C 0.162600 0.405600 0.716900
C106 C 0.077300 0.314400 0.756500
N107 N 0.374600 0.667580 0.925220
H108 H 0.407000 0.718000 0.890000
C109 C 0.333800 0.686400 1.022000
O110 O 0.295700 0.617500 1.074850
C111 C 0.339600 0.795200 1.056200
H112 H 0.372600 0.836300 1.002400
H113 H 0.250300 0.817800 1.066300
H114 H 0.399700 0.801800 1.121900
C115 C 0.511800 0.419700 0.709400
O116 O 0.510300 0.331550 0.675800
C117 C 0.625400 0.491100 0.693300
H118 H 0.610400 0.556100 0.724900
H119 H 0.710100 0.463000 0.726300
H120 H 0.628400 0.499800 0.618400
C121 C 0.094300 0.508100 0.701800
H122 H 0.014200 0.502300 0.650400
H123 H 0.069500 0.531200 0.768400
H124 H 0.155600 0.556400 0.676800
C125 C -0.053200 0.290900 0.679500
H126 H -0.119500 0.343100 0.685800
H127 H -0.032400 0.289200 0.607700
H128 H -0.088700 0.225800 0.697200
C129 C 0.032600 0.326200 0.867400
H130 H 0.110500 0.340800 0.918800
H131 H -0.031500 0.381300 0.866200
H132 H -0.009100 0.263900 0.886600
S133 S 0.715570 0.970380 0.576250
C134 C 0.629100 1.072600 0.622100
N135 N 0.571200 1.059680 0.704170
N136 N 0.587900 0.956920 0.739510
C137 C 0.704400 0.902100 0.701700
C138 C 0.687100 0.785500 0.678500
H139 H 0.688300 0.771100 0.603500
H140 H 0.602600 0.760300 0.699200
C141 C 0.809600 0.737300 0.746600
H142 H 0.832000 0.668800 0.723000
C143 C 0.783900 0.741200 0.860400
H144 H 0.693100 0.717500 0.867700
H145 H 0.849800 0.700500 0.905900
C146 C 0.800700 0.857600 0.886800
H147 H 0.872600 0.868800 0.945600
H148 H 0.716800 0.886200 0.905200
C149 C 0.837400 0.905600 0.783100
C150 C 0.922700 0.814400 0.743500
N151 N 0.625400 1.167580 0.574780
H152 H 0.593000 1.218000 0.610000
C153 C 0.666200 1.186400 0.478000
O154 O 0.704300 1.117500 0.425150
C155 C 0.660400 1.295200 0.443800
H156 H 0.627400 1.336300 0.497600
H157 H 0.749700 1.317800 0.433700
H158 H 0.600300 1.301800 0.378100
C159 C 0.488200 0.919700 0.790600
O160 O 0.489700 0.831550 0.824200
C161 C 0.374600 0.991100 0.806700
H162 H 0.389600 1.056100 0.775100
H163 H 0.289900 0.963000 0.773700
H164 H 0.371600 0.999800 0.881600
C165 C 0.905700 1.008100 0.798200
H166 H 0.985800 1.002300 0.849600
H167 H 0.930500 1.031200 0.731600
H168 H 0.844400 1.056400 0.823200
C169 C 1.053200 0.790900 0.820500
H170 H 1.119500 0.843100 0.814200
H171 H 1.032400 0.789200 0.892300
H172 H 1.088700 0.725800 0.802800
C173 C 0.967400 0.826200 0.632600
H174 H 0.889500 0.840800 0.581200
H175 H 1.031500 0.881300 0.633800
H176 H 1.009100 0.763900 0.613400

#END
