
#######################################################################
#
#                 Cambridge Crystallographic Data Centre
#                                CCDC 
#
#######################################################################
#
# If this CIF has been generated from an entry in the Cambridge 
# Structural Database, then it will include bibliographic, chemical, 
# crystal, experimental, refinement or atomic coordinate data resulting 
# from the CCDC's data processing and validation procedures.
#
#######################################################################

data_ACIJIF
_symmetry_cell_setting           monoclinic
_symmetry_space_group_name_H-M   'P 21/n'
_symmetry_Int_Tables_number      14
_space_group_name_Hall           '-P 2yn'
loop_
_symmetry_equiv_pos_site_id
_symmetry_equiv_pos_as_xyz
1 x,y,z
2 1/2+x,1/2-y,1/2+z
3 -x,-y,-z
4 1/2-x,1/2+y,1/2-z
_cell_length_a                   10.6443(2)
_cell_length_b                   15.0593(3)
_cell_length_c                   12.8699(2)
_cell_angle_alpha                90
_cell_angle_beta                 91.498(1)
_cell_angle_gamma                90
_cell_volume                     2062.28
loop_
_atom_site_label
_atom_site_type_symbol
_atom_site_fract_x
_atom_site_fract_y
_atom_site_fract_z
P1 P 0.49306(3) 0.41457(2) 0.35372(3)
C1 C 0.46355(11) 0.52154(7) 0.30236(8)
C2 C 0.57764(10) 0.56790(7) 0.28252(8)
C3 C 0.59396(11) 0.65443(8) 0.24273(8)
H1 H 0.5226 0.6894 0.2239
C4 C 0.71279(11) 0.68826(9) 0.23120(9)
H2 H 0.7229 0.7469 0.2055
C5 C 0.81922(12) 0.63701(10) 0.25705(10)
H3 H 0.9007 0.6612 0.2482
C6 C 0.80676(12) 0.55213(10) 0.29511(10)
H4 H 0.8795 0.5179 0.3117
C7 C 0.68593(11) 0.51574(8) 0.30953(8)
C8 C 0.65242(13) 0.43105(8) 0.34882(10)
H5 H 0.7125 0.3877 0.3703
P2 P 0.31643(3) 0.566454(18) 0.27876(2)
C9 C 0.29735(10) 0.59927(7) 0.14350(8)
C10 C 0.24151(12) 0.67880(8) 0.11095(10)
H6 H 0.2103 0.7193 0.1606
C11 C 0.23175(13) 0.69840(9) 0.00518(10)
H7 H 0.1943 0.7527 -0.0171
C12 C 0.27628(13) 0.63928(10) -0.06760(10)
H8 H 0.2683 0.6528 -0.1396
C13 C 0.33247(13) 0.56052(9) -0.03574(10)
H9 H 0.3629 0.5200 -0.0858
C14 C 0.34428(12) 0.54086(8) 0.06945(9)
H10 H 0.3845 0.4874 0.0913
C15 C 0.28351(10) 0.66241(7) 0.35790(8)
C16 C 0.16234(12) 0.69790(9) 0.35768(11)
H11 H 0.0972 0.6713 0.3165
C17 C 0.13705(14) 0.77212(10) 0.41786(11)
H12 H 0.0549 0.7968 0.4171
C18 C 0.23097(15) 0.80990(9) 0.47855(10)
H13 H 0.2135 0.8610 0.5191
C19 C 0.35089(14) 0.77404(8) 0.48104(9)
H14 H 0.4149 0.8000 0.5240
C20 C 0.37745(11) 0.70014(7) 0.42070(8)
H15 H 0.4596 0.6755 0.4224
C21 C 0.19803(10) 0.48574(7) 0.30909(9)
C22 C 0.17988(12) 0.46654(8) 0.41408(9)
H16 H 0.2275 0.4969 0.4665
C23 C 0.09219(13) 0.40311(8) 0.44130(10)
H17 H 0.0799 0.3899 0.5125
C24 C 0.02250(12) 0.35894(8) 0.36492(10)
H18 H -0.0377 0.3157 0.3839
C25 C 0.04031(11) 0.37762(8) 0.26074(9)
H19 H -0.0074 0.3470 0.2086
C26 C 0.12797(11) 0.44117(8) 0.23248(9)
H20 H 0.1400 0.4541 0.1612
P1 P 0.99306(3) 1.08543(2) 0.85372(3)
C1 C 0.96355(11) 0.97846(7) 0.80236(8)
C2 C 1.07764(10) 0.93210(7) 0.78252(8)
C3 C 1.09396(11) 0.84557(8) 0.74273(8)
H1 H 1.0226 0.8106 0.7239
C4 C 1.21279(11) 0.81174(9) 0.73120(9)
H2 H 1.2229 0.7531 0.7055
C5 C 1.31922(12) 0.86299(10) 0.75705(10)
H3 H 1.4007 0.8388 0.7482
C6 C 1.30676(12) 0.94787(10) 0.79511(10)
H4 H 1.3795 0.9821 0.8117
C7 C 1.18593(11) 0.98426(8) 0.80953(8)
C8 C 1.15242(13) 1.06895(8) 0.84882(10)
H5 H 1.2125 1.1123 0.8703
P2 P 0.81643(3) 0.933546(18) 0.77876(2)
C9 C 0.79735(10) 0.90073(7) 0.64350(8)
C10 C 0.74151(12) 0.82120(8) 0.61095(10)
H6 H 0.7103 0.7807 0.6606
C11 C 0.73175(13) 0.80160(9) 0.50518(10)
H7 H 0.6943 0.7473 0.4829
C12 C 0.77628(13) 0.86072(10) 0.43240(10)
H8 H 0.7683 0.8472 0.3604
C13 C 0.83247(13) 0.93948(9) 0.46426(10)
H9 H 0.8629 0.9800 0.4142
C14 C 0.84428(12) 0.95914(8) 0.56945(9)
H10 H 0.8845 1.0126 0.5913
C15 C 0.78351(10) 0.83759(7) 0.85790(8)
C16 C 0.66234(12) 0.80210(9) 0.85768(11)
H11 H 0.5972 0.8287 0.8165
C17 C 0.63705(14) 0.72788(10) 0.91786(11)
H12 H 0.5549 0.7032 0.9171
C18 C 0.73097(15) 0.69010(9) 0.97855(10)
H13 H 0.7135 0.6390 1.0191
C19 C 0.85089(14) 0.72596(8) 0.98104(9)
H14 H 0.9149 0.7000 1.0240
C20 C 0.87745(11) 0.79986(7) 0.92070(8)
H15 H 0.9596 0.8245 0.9224
C21 C 0.69803(10) 1.01426(7) 0.80909(9)
C22 C 0.67988(12) 1.03346(8) 0.91408(9)
H16 H 0.7275 1.0031 0.9665
C23 C 0.59219(13) 1.09689(8) 0.94130(10)
H17 H 0.5799 1.1101 1.0125
C24 C 0.52250(12) 1.14106(8) 0.86492(10)
H18 H 0.4623 1.1843 0.8839
C25 C 0.54031(11) 1.12238(8) 0.76074(9)
H19 H 0.4926 1.1530 0.7086
C26 C 0.62797(11) 1.05883(8) 0.73248(9)
H20 H 0.6400 1.0459 0.6612
P1 P 0.50694(3) 0.58543(2) 0.64628(3)
C1 C 0.53645(11) 0.47846(7) 0.69764(8)
C2 C 0.42236(10) 0.43210(7) 0.71748(8)
C3 C 0.40604(11) 0.34557(8) 0.75727(8)
H1 H 0.4774 0.3106 0.7761
C4 C 0.28721(11) 0.31174(9) 0.76880(9)
H2 H 0.2771 0.2531 0.7945
C5 C 0.18078(12) 0.36299(10) 0.74295(10)
H3 H 0.0993 0.3388 0.7518
C6 C 0.19324(12) 0.44787(10) 0.70489(10)
H4 H 0.1205 0.4821 0.6883
C7 C 0.31407(11) 0.48426(8) 0.69047(8)
C8 C 0.34758(13) 0.56895(8) 0.65118(10)
H5 H 0.2875 0.6123 0.6297
P2 P 0.68357(3) 0.433546(18) 0.72124(2)
C9 C 0.70265(10) 0.40073(7) 0.85650(8)
C10 C 0.75849(12) 0.32120(8) 0.88905(10)
H6 H 0.7897 0.2807 0.8394
C11 C 0.76825(13) 0.30160(9) 0.99482(10)
H7 H 0.8057 0.2473 1.0171
C12 C 0.72372(13) 0.36072(10) 1.06760(10)
H8 H 0.7317 0.3472 1.1396
C13 C 0.66753(13) 0.43948(9) 1.03574(10)
H9 H 0.6371 0.4800 1.0858
C14 C 0.65572(12) 0.45914(8) 0.93055(9)
H10 H 0.6155 0.5126 0.9087
C15 C 0.71649(10) 0.33759(7) 0.64210(8)
C16 C 0.83766(12) 0.30210(9) 0.64232(11)
H11 H 0.9028 0.3287 0.6835
C17 C 0.86295(14) 0.22788(10) 0.58214(11)
H12 H 0.9451 0.2032 0.5829
C18 C 0.76903(15) 0.19010(9) 0.52145(10)
H13 H 0.7865 0.1390 0.4809
C19 C 0.64911(14) 0.22596(8) 0.51896(9)
H14 H 0.5851 0.2000 0.4760
C20 C 0.62255(11) 0.29986(7) 0.57930(8)
H15 H 0.5404 0.3245 0.5776
C21 C 0.80197(10) 0.51426(7) 0.69091(9)
C22 C 0.82012(12) 0.53346(8) 0.58592(9)
H16 H 0.7725 0.5031 0.5335
C23 C 0.90781(13) 0.59689(8) 0.55870(10)
H17 H 0.9201 0.6101 0.4875
C24 C 0.97750(12) 0.64106(8) 0.63508(10)
H18 H 1.0377 0.6843 0.6161
C25 C 0.95969(11) 0.62238(8) 0.73926(9)
H19 H 1.0074 0.6530 0.7914
C26 C 0.87203(11) 0.55883(8) 0.76752(9)
H20 H 0.8600 0.5459 0.8388
P1 P 0.00694(3) -0.08543(2) 0.14628(3)
C1 C 0.03645(11) 0.02154(7) 0.19764(8)
C2 C -0.07764(10) 0.06790(7) 0.21748(8)
C3 C -0.09396(11) 0.15443(8) 0.25727(8)
H1 H -0.0226 0.1894 0.2761
C4 C -0.21279(11) 0.18826(9) 0.26880(9)
H2 H -0.2229 0.2469 0.2945
C5 C -0.31922(12) 0.13701(10) 0.24295(10)
H3 H -0.4007 0.1612 0.2518
C6 C -0.30676(12) 0.05213(10) 0.20489(10)
H4 H -0.3795 0.0179 0.1883
C7 C -0.18593(11) 0.01574(8) 0.19047(8)
C8 C -0.15242(13) -0.06895(8) 0.15118(10)
H5 H -0.2125 -0.1123 0.1297
P2 P 0.18357(3) 0.066454(18) 0.22124(2)
C9 C 0.20265(10) 0.09927(7) 0.35650(8)
C10 C 0.25849(12) 0.17880(8) 0.38905(10)
H6 H 0.2897 0.2193 0.3394
C11 C 0.26825(13) 0.19840(9) 0.49482(10)
H7 H 0.3057 0.2527 0.5171
C12 C 0.22372(13) 0.13928(10) 0.56760(10)
H8 H 0.2317 0.1528 0.6396
C13 C 0.16753(13) 0.06052(9) 0.53574(10)
H9 H 0.1371 0.0200 0.5858
C14 C 0.15572(12) 0.04086(8) 0.43055(9)
H10 H 0.1155 -0.0126 0.4087
C15 C 0.21649(10) 0.16241(7) 0.14210(8)
C16 C 0.33766(12) 0.19790(9) 0.14232(11)
H11 H 0.4028 0.1713 0.1835
C17 C 0.36295(14) 0.27212(10) 0.08214(11)
H12 H 0.4451 0.2968 0.0829
C18 C 0.26903(15) 0.30990(9) 0.02145(10)
H13 H 0.2865 0.3610 -0.0191
C19 C 0.14911(14) 0.27404(8) 0.01896(9)
H14 H 0.0851 0.3000 -0.0240
C20 C 0.12255(11) 0.20014(7) 0.07930(8)
H15 H 0.0404 0.1755 0.0776
C21 C 0.30197(10) -0.01426(7) 0.19091(9)
C22 C 0.32012(12) -0.03346(8) 0.08592(9)
H16 H 0.2725 -0.0031 0.0335
C23 C 0.40781(13) -0.09689(8) 0.05870(10)
H17 H 0.4201 -0.1101 -0.0125
C24 C 0.47750(12) -0.14106(8) 0.13508(10)
H18 H 0.5377 -0.1843 0.1161
C25 C 0.45969(11) -0.12238(8) 0.23926(9)
H19 H 0.5074 -0.1530 0.2914
C26 C 0.37203(11) -0.05883(8) 0.26752(9)
H20 H 0.3600 -0.0459 0.3388

#END
