./ACIJOM01_from_xyz.cif_generated_by_CrystalShift
_symmetry_cell_setting triclinic
_symmetry_space_group_name_H-M 'P 1'
loop_
_symmetry_equiv_pos_site_id
_symmetry_equiv_pos_as_xyz
1 x,y,z
_cell_length_a 10.265200
_cell_length_b 4.869500
_cell_length_c 19.402000
_cell_angle_alpha 90.000000
_cell_angle_beta 98.475000
_cell_angle_gamma 90.000000
_cell_volume 959.245599
loop_
_atom_site_label
_atom_site_type_symbol
_atom_site_fract_x
_atom_site_fract_y
_atom_site_fract_z
O1 O 0.588240 0.515900 0.109200
H2 H 0.538800 0.405100 0.086900
O3 O 0.131570 0.261500 0.023880
N4 N 0.401160 0.159900 0.084730
C5 C 0.552990 0.548600 0.172840
C6 C 0.619630 0.737800 0.218290
H7 H 0.687500 0.841400 0.204600
C8 C 0.585900 0.772700 0.283290
H9 H 0.631400 0.899700 0.313600
C10 C 0.485800 0.622800 0.304440
H11 H 0.462800 0.648600 0.348600
C12 C 0.420400 0.435200 0.259850
H13 H 0.353400 0.331600 0.274500
C14 C 0.451180 0.394800 0.193070
C15 C 0.379210 0.196500 0.146470
H16 H 0.314200 0.091800 0.162700
C17 C 0.319200 -0.034000 0.040910
H18 H 0.271200 -0.148300 0.069500
H19 H 0.374100 -0.152200 0.017100
C20 C 0.223500 0.118900 -0.011750
H21 H 0.270600 0.248700 -0.036900
H22 H 0.177300 -0.009100 -0.045100
C23 C 0.039800 0.417200 -0.021290
H24 H -0.017100 0.296200 -0.052000
H25 H 0.085600 0.537200 -0.049700
O26 O -0.588240 0.484100 -0.109200
H27 H -0.538800 0.594900 -0.086900
O28 O -0.131570 0.738500 -0.023880
N29 N -0.401160 0.840100 -0.084730
C30 C -0.552990 0.451400 -0.172840
C31 C -0.619630 0.262200 -0.218290
H32 H -0.687500 0.158600 -0.204600
C33 C -0.585900 0.227300 -0.283290
H34 H -0.631400 0.100300 -0.313600
C35 C -0.485800 0.377200 -0.304440
H36 H -0.462800 0.351400 -0.348600
C37 C -0.420400 0.564800 -0.259850
H38 H -0.353400 0.668400 -0.274500
C39 C -0.451180 0.605200 -0.193070
C40 C -0.379210 0.803500 -0.146470
H41 H -0.314200 0.908200 -0.162700
C42 C -0.319200 1.034000 -0.040910
H43 H -0.271200 1.148300 -0.069500
H44 H -0.374100 1.152200 -0.017100
C45 C -0.223500 0.881100 0.011750
H46 H -0.270600 0.751300 0.036900
H47 H -0.177300 1.009100 0.045100
C48 C -0.039800 0.582800 0.021290
H49 H 0.017100 0.703800 0.052000
H50 H -0.085600 0.462800 0.049700
O51 O 0.588240 0.515900 1.109200
H52 H 0.538800 0.405100 1.086900
O53 O 0.131570 0.261500 1.023880
N54 N 0.401160 0.159900 1.084730
C55 C 0.552990 0.548600 1.172840
C56 C 0.619630 0.737800 1.218290
H57 H 0.687500 0.841400 1.204600
C58 C 0.585900 0.772700 1.283290
H59 H 0.631400 0.899700 1.313600
C60 C 0.485800 0.622800 1.304440
H61 H 0.462800 0.648600 1.348600
C62 C 0.420400 0.435200 1.259850
H63 H 0.353400 0.331600 1.274500
C64 C 0.451180 0.394800 1.193070
C65 C 0.379210 0.196500 1.146470
H66 H 0.314200 0.091800 1.162700
C67 C 0.319200 -0.034000 1.040910
H68 H 0.271200 -0.148300 1.069500
H69 H 0.374100 -0.152200 1.017100
C70 C 0.223500 0.118900 0.988250
H71 H 0.270600 0.248700 0.963100
H72 H 0.177300 -0.009100 0.954900
C73 C 0.039800 0.417200 0.978710
H74 H -0.017100 0.296200 0.948000
H75 H 0.085600 0.537200 0.950300
O76 O -0.588240 0.484100 0.890800
H77 H -0.538800 0.594900 0.913100
O78 O -0.131570 0.738500 0.976120
N79 N -0.401160 0.840100 0.915270
C80 C -0.552990 0.451400 0.827160
C81 C -0.619630 0.262200 0.781710
H82 H -0.687500 0.158600 0.795400
C83 C -0.585900 0.227300 0.716710
H84 H -0.631400 0.100300 0.686400
C85 C -0.485800 0.377200 0.695560
H86 H -0.462800 0.351400 0.651400
C87 C -0.420400 0.564800 0.740150
H88 H -0.353400 0.668400 0.725500
C89 C -0.451180 0.605200 0.806930
C90 C -0.379210 0.803500 0.853530
H91 H -0.314200 0.908200 0.837300
C92 C -0.319200 1.034000 0.959090
H93 H -0.271200 1.148300 0.930500
H94 H -0.374100 1.152200 0.982900
C95 C -0.223500 0.881100 1.011750
H96 H -0.270600 0.751300 1.036900
H97 H -0.177300 1.009100 1.045100
C98 C -0.039800 0.582800 1.021290
H99 H 0.017100 0.703800 1.052000
H100 H -0.085600 0.462800 1.049700
O101 O 1.588240 0.515900 0.109200
H102 H 1.538800 0.405100 0.086900
O103 O 1.131570 0.261500 0.023880
N104 N 1.401160 0.159900 0.084730
C105 C 1.552990 0.548600 0.172840
C106 C 1.619630 0.737800 0.218290
H107 H 1.687500 0.841400 0.204600
C108 C 1.585900 0.772700 0.283290
H109 H 1.631400 0.899700 0.313600
C110 C 1.485800 0.622800 0.304440
H111 H 1.462800 0.648600 0.348600
C112 C 1.420400 0.435200 0.259850
H113 H 1.353400 0.331600 0.274500
C114 C 1.451180 0.394800 0.193070
C115 C 1.379210 0.196500 0.146470
H116 H 1.314200 0.091800 0.162700
C117 C 1.319200 -0.034000 0.040910
H118 H 1.271200 -0.148300 0.069500
H119 H 1.374100 -0.152200 0.017100
C120 C 1.223500 0.118900 -0.011750
H121 H 1.270600 0.248700 -0.036900
H122 H 1.177300 -0.009100 -0.045100
C123 C 1.039800 0.417200 -0.021290
H124 H 0.982900 0.296200 -0.052000
H125 H 1.085600 0.537200 -0.049700
O126 O 0.411760 0.484100 -0.109200
H127 H 0.461200 0.594900 -0.086900
O128 O 0.868430 0.738500 -0.023880
N129 N 0.598840 0.840100 -0.084730
C130 C 0.447010 0.451400 -0.172840
C131 C 0.380370 0.262200 -0.218290
H132 H 0.312500 0.158600 -0.204600
C133 C 0.414100 0.227300 -0.283290
H134 H 0.368600 0.100300 -0.313600
C135 C 0.514200 0.377200 -0.304440
H136 H 0.537200 0.351400 -0.348600
C137 C 0.579600 0.564800 -0.259850
H138 H 0.646600 0.668400 -0.274500
C139 C 0.548820 0.605200 -0.193070
C140 C 0.620790 0.803500 -0.146470
H141 H 0.685800 0.908200 -0.162700
C142 C 0.680800 1.034000 -0.040910
H143 H 0.728800 1.148300 -0.069500
H144 H 0.625900 1.152200 -0.017100
C145 C 0.776500 0.881100 0.011750
H146 H 0.729400 0.751300 0.036900
H147 H 0.822700 1.009100 0.045100
C148 C 0.960200 0.582800 0.021290
H149 H 1.017100 0.703800 0.052000
H150 H 0.914400 0.462800 0.049700
O151 O 1.588240 0.515900 1.109200
H152 H 1.538800 0.405100 1.086900
O153 O 1.131570 0.261500 1.023880
N154 N 1.401160 0.159900 1.084730
C155 C 1.552990 0.548600 1.172840
C156 C 1.619630 0.737800 1.218290
H157 H 1.687500 0.841400 1.204600
C158 C 1.585900 0.772700 1.283290
H159 H 1.631400 0.899700 1.313600
C160 C 1.485800 0.622800 1.304440
H161 H 1.462800 0.648600 1.348600
C162 C 1.420400 0.435200 1.259850
H163 H 1.353400 0.331600 1.274500
C164 C 1.451180 0.394800 1.193070
C165 C 1.379210 0.196500 1.146470
H166 H 1.314200 0.091800 1.162700
C167 C 1.319200 -0.034000 1.040910
H168 H 1.271200 -0.148300 1.069500
H169 H 1.374100 -0.152200 1.017100
C170 C 1.223500 0.118900 0.988250
H171 H 1.270600 0.248700 0.963100
H172 H 1.177300 -0.009100 0.954900
C173 C 1.039800 0.417200 0.978710
H174 H 0.982900 0.296200 0.948000
H175 H 1.085600 0.537200 0.950300
O176 O 0.411760 0.484100 0.890800
H177 H 0.461200 0.594900 0.913100
O178 O 0.868430 0.738500 0.976120
N179 N 0.598840 0.840100 0.915270
C180 C 0.447010 0.451400 0.827160
C181 C 0.380370 0.262200 0.781710
H182 H 0.312500 0.158600 0.795400
C183 C 0.414100 0.227300 0.716710
H184 H 0.368600 0.100300 0.686400
C185 C 0.514200 0.377200 0.695560
H186 H 0.537200 0.351400 0.651400
C187 C 0.579600 0.564800 0.740150
H188 H 0.646600 0.668400 0.725500
C189 C 0.548820 0.605200 0.806930
C190 C 0.620790 0.803500 0.853530
H191 H 0.685800 0.908200 0.837300
C192 C 0.680800 1.034000 0.959090
H193 H 0.728800 1.148300 0.930500
H194 H 0.625900 1.152200 0.982900
C195 C 0.776500 0.881100 1.011750
H196 H 0.729400 0.751300 1.036900
H197 H 0.822700 1.009100 1.045100
C198 C 0.960200 0.582800 1.021290
H199 H 1.017100 0.703800 1.052000
H200 H 0.914400 0.462800 1.049700
O201 O -0.088240 0.015900 0.390800
H202 H -0.038800 -0.094900 0.413100
O203 O 0.368430 -0.238500 0.476120
N204 N 0.098840 -0.340100 0.415270
C205 C -0.052990 0.048600 0.327160
C206 C -0.119630 0.237800 0.281710
H207 H -0.187500 0.341400 0.295400
C208 C -0.085900 0.272700 0.216710
H209 H -0.131400 0.399700 0.186400
C210 C 0.014200 0.122800 0.195560
H211 H 0.037200 0.148600 0.151400
C212 C 0.079600 -0.064800 0.240150
H213 H 0.146600 -0.168400 0.225500
C214 C 0.048820 -0.105200 0.306930
C215 C 0.120790 -0.303500 0.353530
H216 H 0.185800 -0.408200 0.337300
C217 C 0.180800 -0.534000 0.459090
H218 H 0.228800 -0.648300 0.430500
H219 H 0.125900 -0.652200 0.482900
C220 C 0.276500 -0.381100 0.511750
H221 H 0.229400 -0.251300 0.536900
H222 H 0.322700 -0.509100 0.545100
C223 C 0.460200 -0.082800 0.521290
H224 H 0.517100 -0.203800 0.552000
H225 H 0.414400 0.037200 0.549700
O226 O 1.088240 -0.015900 0.609200
H227 H 1.038800 0.094900 0.586900
O228 O 0.631570 0.238500 0.523880
N229 N 0.901160 0.340100 0.584730
C230 C 1.052990 -0.048600 0.672840
C231 C 1.119630 -0.237800 0.718290
H232 H 1.187500 -0.341400 0.704600
C233 C 1.085900 -0.272700 0.783290
H234 H 1.131400 -0.399700 0.813600
C235 C 0.985800 -0.122800 0.804440
H236 H 0.962800 -0.148600 0.848600
C237 C 0.920400 0.064800 0.759850
H238 H 0.853400 0.168400 0.774500
C239 C 0.951180 0.105200 0.693070
C240 C 0.879210 0.303500 0.646470
H241 H 0.814200 0.408200 0.662700
C242 C 0.819200 0.534000 0.540910
H243 H 0.771200 0.648300 0.569500
H244 H 0.874100 0.652200 0.517100
C245 C 0.723500 0.381100 0.488250
H246 H 0.770600 0.251300 0.463100
H247 H 0.677300 0.509100 0.454900
C248 C 0.539800 0.082800 0.478710
H249 H 0.482900 0.203800 0.448000
H250 H 0.585600 -0.037200 0.450300
O251 O -0.088240 1.015900 0.390800
H252 H -0.038800 0.905100 0.413100
O253 O 0.368430 0.761500 0.476120
N254 N 0.098840 0.659900 0.415270
C255 C -0.052990 1.048600 0.327160
C256 C -0.119630 1.237800 0.281710
H257 H -0.187500 1.341400 0.295400
C258 C -0.085900 1.272700 0.216710
H259 H -0.131400 1.399700 0.186400
C260 C 0.014200 1.122800 0.195560
H261 H 0.037200 1.148600 0.151400
C262 C 0.079600 0.935200 0.240150
H263 H 0.146600 0.831600 0.225500
C264 C 0.048820 0.894800 0.306930
C265 C 0.120790 0.696500 0.353530
H266 H 0.185800 0.591800 0.337300
C267 C 0.180800 0.466000 0.459090
H268 H 0.228800 0.351700 0.430500
H269 H 0.125900 0.347800 0.482900
C270 C 0.276500 0.618900 0.511750
H271 H 0.229400 0.748700 0.536900
H272 H 0.322700 0.490900 0.545100
C273 C 0.460200 0.917200 0.521290
H274 H 0.517100 0.796200 0.552000
H275 H 0.414400 1.037200 0.549700
O276 O 1.088240 0.984100 0.609200
H277 H 1.038800 1.094900 0.586900
O278 O 0.631570 1.238500 0.523880
N279 N 0.901160 1.340100 0.584730
C280 C 1.052990 0.951400 0.672840
C281 C 1.119630 0.762200 0.718290
H282 H 1.187500 0.658600 0.704600
C283 C 1.085900 0.727300 0.783290
H284 H 1.131400 0.600300 0.813600
C285 C 0.985800 0.877200 0.804440
H286 H 0.962800 0.851400 0.848600
C287 C 0.920400 1.064800 0.759850
H288 H 0.853400 1.168400 0.774500
C289 C 0.951180 1.105200 0.693070
C290 C 0.879210 1.303500 0.646470
H291 H 0.814200 1.408200 0.662700
C292 C 0.819200 1.534000 0.540910
H293 H 0.771200 1.648300 0.569500
H294 H 0.874100 1.652200 0.517100
C295 C 0.723500 1.381100 0.488250
H296 H 0.770600 1.251300 0.463100
H297 H 0.677300 1.509100 0.454900
C298 C 0.539800 1.082800 0.478710
H299 H 0.482900 1.203800 0.448000
H300 H 0.585600 0.962800 0.450300

#END
