
#######################################################################
#
#                 Cambridge Crystallographic Data Centre
#                                CCDC 
#
#######################################################################
#
# If this CIF has been generated from an entry in the Cambridge 
# Structural Database, then it will include bibliographic, chemical, 
# crystal, experimental, refinement or atomic coordinate data resulting 
# from the CCDC's data processing and validation procedures.
#
#######################################################################

data_ACIKAY
_symmetry_cell_setting           monoclinic
_symmetry_space_group_name_H-M   'P 21/n'
_symmetry_Int_Tables_number      14
_space_group_name_Hall           '-P 2yn'
loop_
_symmetry_equiv_pos_site_id
_symmetry_equiv_pos_as_xyz
1 x,y,z
2 1/2+x,1/2-y,1/2+z
3 -x,-y,-z
4 1/2-x,1/2+y,1/2-z
_cell_length_a                   10.4063(3)
_cell_length_b                   18.7623(6)
_cell_length_c                   16.1564(5)
_cell_angle_alpha                90
_cell_angle_beta                 98.960(2)
_cell_angle_gamma                90
_cell_volume                     3115.98
loop_
_atom_site_label
_atom_site_type_symbol
_atom_site_fract_x
_atom_site_fract_y
_atom_site_fract_z
P1 P 0.45377(5) 0.16340(3) 0.61461(3)
C1 C 0.32733(19) 0.14614(10) 0.67202(11)
C2 C 0.24875(19) 0.20804(10) 0.67967(11)
C3 C 0.14199(19) 0.21602(11) 0.72295(11)
H1 H 0.1147 0.1773 0.7539
C4 C 0.0776(2) 0.28012(11) 0.72018(12)
H2 H 0.0067 0.2857 0.7502
C5 C 0.11506(19) 0.33727(11) 0.67364(12)
H3 H 0.0672 0.3806 0.6708
C6 C 0.21977(19) 0.33171(10) 0.63203(12)
H4 H 0.2449 0.3711 0.6013
C7 C 0.29027(19) 0.26707(10) 0.63500(11)
C8 C 0.40366(19) 0.25113(10) 0.59776(11)
P2 P 0.30691(5) 0.06378(3) 0.71725(3)
C9 C 0.4328(2) 0.00351(10) 0.69548(12)
C10 C 0.4175(2) -0.03232(11) 0.61935(13)
H5 H 0.3431 -0.0238 0.5784
C11 C 0.5116(3) -0.08072(12) 0.60347(17)
H6 H 0.5020 -0.1050 0.5513
C12 C 0.6188(3) -0.09370(12) 0.66301(18)
H7 H 0.6813 -0.1280 0.6522
C13 C 0.6365(2) -0.05768(12) 0.73782(16)
H8 H 0.7117 -0.0661 0.7781
C14 C 0.5434(2) -0.00870(10) 0.75432(13)
H9 H 0.5553 0.0165 0.8059
C15 C 0.15457(19) 0.02177(10) 0.67545(11)
C16 C 0.1302(2) -0.04884(11) 0.69543(12)
H10 H 0.1941 -0.0751 0.7314
C17 C 0.0132(2) -0.08069(12) 0.66299(13)
H11 H -0.0034 -0.1285 0.6775
C18 C -0.0793(2) -0.04332(12) 0.60974(13)
H12 H -0.1591 -0.0655 0.5871
C19 C -0.0556(2) 0.02655(12) 0.58938(13)
H13 H -0.1197 0.0524 0.5530
C20 C 0.0607(2) 0.05901(11) 0.62164(12)
H14 H 0.0765 0.1069 0.6070
C21 C 0.31929(19) 0.07137(10) 0.82941(11)
C22 C 0.4125(2) 0.11815(11) 0.87049(12)
H15 H 0.4624 0.1468 0.8389
C23 C 0.4324(2) 0.12286(12) 0.95691(12)
H16 H 0.4966 0.1543 0.9847
C24 C 0.3588(2) 0.08192(12) 1.00266(13)
H17 H 0.3726 0.0852 1.0621
C25 C 0.2652(2) 0.03613(12) 0.96295(12)
H18 H 0.2144 0.0085 0.9950
C26 C 0.2451(2) 0.03041(10) 0.87630(12)
H19 H 0.1810 -0.0013 0.8490
P3 P 0.48956(5) 0.31572(3) 0.54768(3)
S1 S 0.53849(5) 0.40232(3) 0.61401(3)
C27 C 0.39341(19) 0.33542(10) 0.44614(11)
C28 C 0.4210(2) 0.39656(11) 0.40327(12)
H20 H 0.4821 0.4302 0.4299
C29 C 0.3597(2) 0.40857(11) 0.32200(13)
H21 H 0.3805 0.4497 0.2925
C30 C 0.2682(2) 0.36075(12) 0.28393(13)
H22 H 0.2265 0.3690 0.2282
C31 C 0.2372(2) 0.30094(11) 0.32671(12)
H23 H 0.1730 0.2686 0.3008
C32 C 0.2999(2) 0.28819(11) 0.40759(12)
H24 H 0.2788 0.2469 0.4368
C33 C 0.63078(19) 0.26889(10) 0.52182(11)
C34 C 0.6414(2) 0.24777(10) 0.44083(12)
H25 H 0.5731 0.2583 0.3963
C35 C 0.7506(2) 0.21149(11) 0.42445(13)
H26 H 0.7574 0.1977 0.3687
C36 C 0.8492(2) 0.19539(11) 0.48870(13)
H27 H 0.9238 0.1702 0.4774
C37 C 0.8397(2) 0.21583(12) 0.56992(14)
H28 H 0.9072 0.2042 0.6145
C38 C 0.7325(2) 0.25298(11) 0.58589(12)
H29 H 0.7276 0.2680 0.6415
P1 P 0.95377(5) 0.33660(3) 0.11461(3)
C1 C 0.82733(19) 0.35386(10) 0.17202(11)
C2 C 0.74875(19) 0.29196(10) 0.17967(11)
C3 C 0.64199(19) 0.28398(11) 0.22295(11)
H1 H 0.6147 0.3227 0.2539
C4 C 0.5776(2) 0.21988(11) 0.22018(12)
H2 H 0.5067 0.2143 0.2502
C5 C 0.61506(19) 0.16273(11) 0.17364(12)
H3 H 0.5672 0.1194 0.1708
C6 C 0.71977(19) 0.16829(10) 0.13203(12)
H4 H 0.7449 0.1289 0.1013
C7 C 0.79027(19) 0.23293(10) 0.13500(11)
C8 C 0.90366(19) 0.24887(10) 0.09776(11)
P2 P 0.80691(5) 0.43622(3) 0.21725(3)
C9 C 0.9328(2) 0.49649(10) 0.19548(12)
C10 C 0.9175(2) 0.53232(11) 0.11935(13)
H5 H 0.8431 0.5238 0.0784
C11 C 1.0116(3) 0.58072(12) 0.10347(17)
H6 H 1.0020 0.6050 0.0513
C12 C 1.1188(3) 0.59370(12) 0.16301(18)
H7 H 1.1813 0.6280 0.1522
C13 C 1.1365(2) 0.55768(12) 0.23782(16)
H8 H 1.2117 0.5661 0.2781
C14 C 1.0434(2) 0.50870(10) 0.25432(13)
H9 H 1.0553 0.4835 0.3059
C15 C 0.65457(19) 0.47823(10) 0.17545(11)
C16 C 0.6302(2) 0.54884(11) 0.19543(12)
H10 H 0.6941 0.5751 0.2314
C17 C 0.5132(2) 0.58069(12) 0.16299(13)
H11 H 0.4966 0.6285 0.1775
C18 C 0.4207(2) 0.54332(12) 0.10974(13)
H12 H 0.3409 0.5655 0.0871
C19 C 0.4444(2) 0.47345(12) 0.08938(13)
H13 H 0.3803 0.4476 0.0530
C20 C 0.5607(2) 0.44099(11) 0.12164(12)
H14 H 0.5765 0.3931 0.1070
C21 C 0.81929(19) 0.42863(10) 0.32941(11)
C22 C 0.9125(2) 0.38185(11) 0.37049(12)
H15 H 0.9624 0.3532 0.3389
C23 C 0.9324(2) 0.37714(12) 0.45691(12)
H16 H 0.9966 0.3457 0.4847
C24 C 0.8588(2) 0.41808(12) 0.50266(13)
H17 H 0.8726 0.4148 0.5621
C25 C 0.7652(2) 0.46387(12) 0.46295(12)
H18 H 0.7144 0.4915 0.4950
C26 C 0.7451(2) 0.46959(10) 0.37630(12)
H19 H 0.6810 0.5013 0.3490
P3 P 0.98956(5) 0.18428(3) 0.04768(3)
S1 S 1.03849(5) 0.09768(3) 0.11401(3)
C27 C 0.89341(19) 0.16458(10) -0.05386(11)
C28 C 0.9210(2) 0.10344(11) -0.09673(12)
H20 H 0.9821 0.0698 -0.0701
C29 C 0.8597(2) 0.09143(11) -0.17800(13)
H21 H 0.8805 0.0503 -0.2075
C30 C 0.7682(2) 0.13925(12) -0.21607(13)
H22 H 0.7265 0.1310 -0.2718
C31 C 0.7372(2) 0.19906(11) -0.17329(12)
H23 H 0.6730 0.2314 -0.1992
C32 C 0.7999(2) 0.21181(11) -0.09241(12)
H24 H 0.7788 0.2531 -0.0632
C33 C 1.13078(19) 0.23111(10) 0.02182(11)
C34 C 1.1414(2) 0.25223(10) -0.05917(12)
H25 H 1.0731 0.2417 -0.1037
C35 C 1.2506(2) 0.28851(11) -0.07555(13)
H26 H 1.2574 0.3023 -0.1313
C36 C 1.3492(2) 0.30461(11) -0.01130(13)
H27 H 1.4238 0.3298 -0.0226
C37 C 1.3397(2) 0.28417(12) 0.06992(14)
H28 H 1.4072 0.2958 0.1145
C38 C 1.2325(2) 0.24702(11) 0.08589(12)
H29 H 1.2276 0.2320 0.1415
P1 P 0.54623(5) 0.83660(3) 0.38539(3)
C1 C 0.67267(19) 0.85386(10) 0.32798(11)
C2 C 0.75125(19) 0.79196(10) 0.32033(11)
C3 C 0.85801(19) 0.78398(11) 0.27705(11)
H1 H 0.8853 0.8227 0.2461
C4 C 0.9224(2) 0.71988(11) 0.27982(12)
H2 H 0.9933 0.7143 0.2498
C5 C 0.88494(19) 0.66273(11) 0.32636(12)
H3 H 0.9328 0.6194 0.3292
C6 C 0.78023(19) 0.66829(10) 0.36797(12)
H4 H 0.7551 0.6289 0.3987
C7 C 0.70973(19) 0.73293(10) 0.36500(11)
C8 C 0.59634(19) 0.74887(10) 0.40224(11)
P2 P 0.69309(5) 0.93622(3) 0.28275(3)
C9 C 0.5672(2) 0.99649(10) 0.30452(12)
C10 C 0.5825(2) 1.03232(11) 0.38065(13)
H5 H 0.6569 1.0238 0.4216
C11 C 0.4884(3) 1.08072(12) 0.39653(17)
H6 H 0.4980 1.1050 0.4487
C12 C 0.3812(3) 1.09370(12) 0.33699(18)
H7 H 0.3187 1.1280 0.3478
C13 C 0.3635(2) 1.05768(12) 0.26218(16)
H8 H 0.2883 1.0661 0.2219
C14 C 0.4566(2) 1.00870(10) 0.24568(13)
H9 H 0.4447 0.9835 0.1941
C15 C 0.84543(19) 0.97823(10) 0.32455(11)
C16 C 0.8698(2) 1.04884(11) 0.30457(12)
H10 H 0.8059 1.0751 0.2686
C17 C 0.9868(2) 1.08069(12) 0.33701(13)
H11 H 1.0034 1.1285 0.3225
C18 C 1.0793(2) 1.04332(12) 0.39026(13)
H12 H 1.1591 1.0655 0.4129
C19 C 1.0556(2) 0.97345(12) 0.41062(13)
H13 H 1.1197 0.9476 0.4470
C20 C 0.9393(2) 0.94099(11) 0.37836(12)
H14 H 0.9235 0.8931 0.3930
C21 C 0.68071(19) 0.92863(10) 0.17059(11)
C22 C 0.5875(2) 0.88185(11) 0.12951(12)
H15 H 0.5376 0.8532 0.1611
C23 C 0.5676(2) 0.87714(12) 0.04309(12)
H16 H 0.5034 0.8457 0.0153
C24 C 0.6412(2) 0.91808(12) -0.00266(13)
H17 H 0.6274 0.9148 -0.0621
C25 C 0.7348(2) 0.96387(12) 0.03705(12)
H18 H 0.7856 0.9915 0.0050
C26 C 0.7549(2) 0.96959(10) 0.12370(12)
H19 H 0.8190 1.0013 0.1510
P3 P 0.51044(5) 0.68428(3) 0.45232(3)
S1 S 0.46151(5) 0.59768(3) 0.38599(3)
C27 C 0.60659(19) 0.66458(10) 0.55386(11)
C28 C 0.5790(2) 0.60344(11) 0.59673(12)
H20 H 0.5179 0.5698 0.5701
C29 C 0.6403(2) 0.59143(11) 0.67800(13)
H21 H 0.6195 0.5503 0.7075
C30 C 0.7318(2) 0.63925(12) 0.71607(13)
H22 H 0.7735 0.6310 0.7718
C31 C 0.7628(2) 0.69906(11) 0.67329(12)
H23 H 0.8270 0.7314 0.6992
C32 C 0.7001(2) 0.71181(11) 0.59241(12)
H24 H 0.7212 0.7531 0.5632
C33 C 0.36922(19) 0.73111(10) 0.47818(11)
C34 C 0.3586(2) 0.75223(10) 0.55917(12)
H25 H 0.4269 0.7417 0.6037
C35 C 0.2494(2) 0.78851(11) 0.57555(13)
H26 H 0.2426 0.8023 0.6313
C36 C 0.1508(2) 0.80461(11) 0.51130(13)
H27 H 0.0762 0.8298 0.5226
C37 C 0.1603(2) 0.78417(12) 0.43008(14)
H28 H 0.0928 0.7958 0.3855
C38 C 0.2675(2) 0.74702(11) 0.41411(12)
H29 H 0.2724 0.7320 0.3585
P1 P 0.04623(5) 0.66340(3) 0.88539(3)
C1 C 0.17267(19) 0.64614(10) 0.82798(11)
C2 C 0.25125(19) 0.70804(10) 0.82033(11)
C3 C 0.35801(19) 0.71602(11) 0.77705(11)
H1 H 0.3853 0.6773 0.7461
C4 C 0.4224(2) 0.78012(11) 0.77982(12)
H2 H 0.4933 0.7857 0.7498
C5 C 0.38494(19) 0.83727(11) 0.82636(12)
H3 H 0.4328 0.8806 0.8292
C6 C 0.28023(19) 0.83171(10) 0.86797(12)
H4 H 0.2551 0.8711 0.8987
C7 C 0.20973(19) 0.76707(10) 0.86500(11)
C8 C 0.09634(19) 0.75113(10) 0.90224(11)
P2 P 0.19309(5) 0.56378(3) 0.78275(3)
C9 C 0.0672(2) 0.50351(10) 0.80452(12)
C10 C 0.0825(2) 0.46768(11) 0.88065(13)
H5 H 0.1569 0.4762 0.9216
C11 C -0.0116(3) 0.41928(12) 0.89653(17)
H6 H -0.0020 0.3950 0.9487
C12 C -0.1188(3) 0.40630(12) 0.83699(18)
H7 H -0.1813 0.3720 0.8478
C13 C -0.1365(2) 0.44232(12) 0.76218(16)
H8 H -0.2117 0.4339 0.7219
C14 C -0.0434(2) 0.49130(10) 0.74568(13)
H9 H -0.0553 0.5165 0.6941
C15 C 0.34543(19) 0.52177(10) 0.82455(11)
C16 C 0.3698(2) 0.45116(11) 0.80457(12)
H10 H 0.3059 0.4249 0.7686
C17 C 0.4868(2) 0.41931(12) 0.83701(13)
H11 H 0.5034 0.3715 0.8225
C18 C 0.5793(2) 0.45668(12) 0.89026(13)
H12 H 0.6591 0.4345 0.9129
C19 C 0.5556(2) 0.52655(12) 0.91062(13)
H13 H 0.6197 0.5524 0.9470
C20 C 0.4393(2) 0.55901(11) 0.87836(12)
H14 H 0.4235 0.6069 0.8930
C21 C 0.18071(19) 0.57137(10) 0.67059(11)
C22 C 0.0875(2) 0.61815(11) 0.62951(12)
H15 H 0.0376 0.6468 0.6611
C23 C 0.0676(2) 0.62286(12) 0.54309(12)
H16 H 0.0034 0.6543 0.5153
C24 C 0.1412(2) 0.58192(12) 0.49734(13)
H17 H 0.1274 0.5852 0.4379
C25 C 0.2348(2) 0.53613(12) 0.53705(12)
H18 H 0.2856 0.5085 0.5050
C26 C 0.2549(2) 0.53041(10) 0.62370(12)
H19 H 0.3190 0.4987 0.6510
P3 P 0.01044(5) 0.81572(3) 0.95232(3)
S1 S -0.03849(5) 0.90232(3) 0.88599(3)
C27 C 0.10659(19) 0.83542(10) 1.05386(11)
C28 C 0.0790(2) 0.89656(11) 1.09673(12)
H20 H 0.0179 0.9302 1.0701
C29 C 0.1403(2) 0.90857(11) 1.17800(13)
H21 H 0.1195 0.9497 1.2075
C30 C 0.2318(2) 0.86075(12) 1.21607(13)
H22 H 0.2735 0.8690 1.2718
C31 C 0.2628(2) 0.80094(11) 1.17329(12)
H23 H 0.3270 0.7686 1.1992
C32 C 0.2001(2) 0.78819(11) 1.09241(12)
H24 H 0.2212 0.7469 1.0632
C33 C -0.13078(19) 0.76889(10) 0.97818(11)
C34 C -0.1414(2) 0.74777(10) 1.05917(12)
H25 H -0.0731 0.7583 1.1037
C35 C -0.2506(2) 0.71149(11) 1.07555(13)
H26 H -0.2574 0.6977 1.1313
C36 C -0.3492(2) 0.69539(11) 1.01130(13)
H27 H -0.4238 0.6702 1.0226
C37 C -0.3397(2) 0.71583(12) 0.93008(14)
H28 H -0.4072 0.7042 0.8855
C38 C -0.2325(2) 0.75298(11) 0.91411(12)
H29 H -0.2276 0.7680 0.8585

#END
