./ACIMAB_from_xyz.cif_generated_by_CrystalShift
_symmetry_cell_setting triclinic
_symmetry_space_group_name_H-M 'P 1'
loop_
_symmetry_equiv_pos_site_id
_symmetry_equiv_pos_as_xyz
1 x,y,z
_cell_length_a 13.995100
_cell_length_b 8.199000
_cell_length_c 20.937900
_cell_angle_alpha 90.000000
_cell_angle_beta 98.350000
_cell_angle_gamma 90.000000
_cell_volume 2377.068312
loop_
_atom_site_label
_atom_site_type_symbol
_atom_site_fract_x
_atom_site_fract_y
_atom_site_fract_z
Ag1 Ag 0.400390 0.399030 0.038631
N2 N 0.450700 0.306100 -0.058560
N3 N 0.479300 0.624600 0.085250
C4 C 0.471500 0.655400 0.147680
C5 C 0.530900 0.765300 0.184750
H6 H 0.521100 0.791200 0.227500
C7 C 0.604600 0.835900 0.157640
H8 H 0.647600 0.911600 0.181000
C9 C 0.386300 0.207700 -0.094940
C10 C 0.303700 0.150100 -0.064100
H11 H 0.266300 0.060500 -0.082400
N12 N 0.281900 0.219000 -0.013380
C13 C 0.202900 0.161100 0.016530
C14 C 0.137600 0.279000 0.032200
C15 C 0.062400 0.230300 0.065000
H16 H 0.017700 0.309200 0.075800
C17 C 0.051600 0.067200 0.082200
C18 C 0.117100 -0.045500 0.065900
H19 H 0.109600 -0.156200 0.077500
C20 C 0.194000 -0.004900 0.033120
C21 C 0.148900 0.455900 0.014700
H22 H 0.211600 0.496200 0.035800
H23 H 0.097100 0.520300 0.029100
H24 H 0.145500 0.466000 -0.032200
C25 C -0.028600 0.017800 0.119700
H26 H -0.000500 -0.019000 0.162900
H27 H -0.066200 -0.071000 0.097000
H28 H -0.070800 0.111500 0.123500
C29 C 0.265000 -0.135200 0.018900
H30 H 0.243400 -0.182800 -0.023600
H31 H 0.268600 -0.220700 0.051900
H32 H 0.329000 -0.086200 0.019400
C33 C 0.397500 0.563200 0.176210
H34 H 0.381100 0.597200 0.216600
N35 N 0.354500 0.437900 0.147990
C36 C 0.286600 0.353900 0.181490
C37 C 0.299900 0.183500 0.188210
C38 C 0.241800 0.098300 0.225800
H39 H 0.252000 -0.015500 0.232200
C40 C 0.169500 0.174600 0.254100
C41 C 0.153800 0.340900 0.241900
H42 H 0.102400 0.393200 0.258900
C43 C 0.210600 0.433200 0.205940
C44 C 0.377400 0.096000 0.158800
H45 H 0.370600 -0.021900 0.164400
H46 H 0.371000 0.121600 0.112700
H47 H 0.441000 0.131200 0.180200
C48 C 0.111500 0.080500 0.297500
H49 H 0.152200 0.057100 0.338600
H50 H 0.055700 0.145700 0.305400
H51 H 0.089000 -0.022200 0.276500
C52 C 0.186600 0.612800 0.194000
H53 H 0.215300 0.651000 0.156700
H54 H 0.116300 0.626500 0.185400
H55 H 0.212700 0.676400 0.232200
Ag56 Ag 0.599610 0.600970 -0.038631
N57 N 0.549300 0.693900 0.058560
N58 N 0.520700 0.375400 -0.085250
C59 C 0.528500 0.344600 -0.147680
C60 C 0.469100 0.234700 -0.184750
H61 H 0.478900 0.208800 -0.227500
C62 C 0.395400 0.164100 -0.157640
H63 H 0.352400 0.088400 -0.181000
C64 C 0.613700 0.792300 0.094940
C65 C 0.696300 0.849900 0.064100
H66 H 0.733700 0.939500 0.082400
N67 N 0.718100 0.781000 0.013380
C68 C 0.797100 0.838900 -0.016530
C69 C 0.862400 0.721000 -0.032200
C70 C 0.937600 0.769700 -0.065000
H71 H 0.982300 0.690800 -0.075800
C72 C 0.948400 0.932800 -0.082200
C73 C 0.882900 1.045500 -0.065900
H74 H 0.890400 1.156200 -0.077500
C75 C 0.806000 1.004900 -0.033120
C76 C 0.851100 0.544100 -0.014700
H77 H 0.788400 0.503800 -0.035800
H78 H 0.902900 0.479700 -0.029100
H79 H 0.854500 0.534000 0.032200
C80 C 1.028600 0.982200 -0.119700
H81 H 1.000500 1.019000 -0.162900
H82 H 1.066200 1.071000 -0.097000
H83 H 1.070800 0.888500 -0.123500
C84 C 0.735000 1.135200 -0.018900
H85 H 0.756600 1.182800 0.023600
H86 H 0.731400 1.220700 -0.051900
H87 H 0.671000 1.086200 -0.019400
C88 C 0.602500 0.436800 -0.176210
H89 H 0.618900 0.402800 -0.216600
N90 N 0.645500 0.562100 -0.147990
C91 C 0.713400 0.646100 -0.181490
C92 C 0.700100 0.816500 -0.188210
C93 C 0.758200 0.901700 -0.225800
H94 H 0.748000 1.015500 -0.232200
C95 C 0.830500 0.825400 -0.254100
C96 C 0.846200 0.659100 -0.241900
H97 H 0.897600 0.606800 -0.258900
C98 C 0.789400 0.566800 -0.205940
C99 C 0.622600 0.904000 -0.158800
H100 H 0.629400 1.021900 -0.164400
H101 H 0.629000 0.878400 -0.112700
H102 H 0.559000 0.868800 -0.180200
C103 C 0.888500 0.919500 -0.297500
H104 H 0.847800 0.942900 -0.338600
H105 H 0.944300 0.854300 -0.305400
H106 H 0.911000 1.022200 -0.276500
C107 C 0.813400 0.387200 -0.194000
H108 H 0.784700 0.349000 -0.156700
H109 H 0.883700 0.373500 -0.185400
H110 H 0.787300 0.323600 -0.232200
Ag111 Ag 0.400390 0.399030 1.038631
N112 N 0.450700 0.306100 0.941440
N113 N 0.479300 0.624600 1.085250
C114 C 0.471500 0.655400 1.147680
C115 C 0.530900 0.765300 1.184750
H116 H 0.521100 0.791200 1.227500
C117 C 0.604600 0.835900 1.157640
H118 H 0.647600 0.911600 1.181000
C119 C 0.386300 0.207700 0.905060
C120 C 0.303700 0.150100 0.935900
H121 H 0.266300 0.060500 0.917600
N122 N 0.281900 0.219000 0.986620
C123 C 0.202900 0.161100 1.016530
C124 C 0.137600 0.279000 1.032200
C125 C 0.062400 0.230300 1.065000
H126 H 0.017700 0.309200 1.075800
C127 C 0.051600 0.067200 1.082200
C128 C 0.117100 -0.045500 1.065900
H129 H 0.109600 -0.156200 1.077500
C130 C 0.194000 -0.004900 1.033120
C131 C 0.148900 0.455900 1.014700
H132 H 0.211600 0.496200 1.035800
H133 H 0.097100 0.520300 1.029100
H134 H 0.145500 0.466000 0.967800
C135 C -0.028600 0.017800 1.119700
H136 H -0.000500 -0.019000 1.162900
H137 H -0.066200 -0.071000 1.097000
H138 H -0.070800 0.111500 1.123500
C139 C 0.265000 -0.135200 1.018900
H140 H 0.243400 -0.182800 0.976400
H141 H 0.268600 -0.220700 1.051900
H142 H 0.329000 -0.086200 1.019400
C143 C 0.397500 0.563200 1.176210
H144 H 0.381100 0.597200 1.216600
N145 N 0.354500 0.437900 1.147990
C146 C 0.286600 0.353900 1.181490
C147 C 0.299900 0.183500 1.188210
C148 C 0.241800 0.098300 1.225800
H149 H 0.252000 -0.015500 1.232200
C150 C 0.169500 0.174600 1.254100
C151 C 0.153800 0.340900 1.241900
H152 H 0.102400 0.393200 1.258900
C153 C 0.210600 0.433200 1.205940
C154 C 0.377400 0.096000 1.158800
H155 H 0.370600 -0.021900 1.164400
H156 H 0.371000 0.121600 1.112700
H157 H 0.441000 0.131200 1.180200
C158 C 0.111500 0.080500 1.297500
H159 H 0.152200 0.057100 1.338600
H160 H 0.055700 0.145700 1.305400
H161 H 0.089000 -0.022200 1.276500
C162 C 0.186600 0.612800 1.194000
H163 H 0.215300 0.651000 1.156700
H164 H 0.116300 0.626500 1.185400
H165 H 0.212700 0.676400 1.232200
Ag166 Ag 0.599610 0.600970 0.961369
N167 N 0.549300 0.693900 1.058560
N168 N 0.520700 0.375400 0.914750
C169 C 0.528500 0.344600 0.852320
C170 C 0.469100 0.234700 0.815250
H171 H 0.478900 0.208800 0.772500
C172 C 0.395400 0.164100 0.842360
H173 H 0.352400 0.088400 0.819000
C174 C 0.613700 0.792300 1.094940
C175 C 0.696300 0.849900 1.064100
H176 H 0.733700 0.939500 1.082400
N177 N 0.718100 0.781000 1.013380
C178 C 0.797100 0.838900 0.983470
C179 C 0.862400 0.721000 0.967800
C180 C 0.937600 0.769700 0.935000
H181 H 0.982300 0.690800 0.924200
C182 C 0.948400 0.932800 0.917800
C183 C 0.882900 1.045500 0.934100
H184 H 0.890400 1.156200 0.922500
C185 C 0.806000 1.004900 0.966880
C186 C 0.851100 0.544100 0.985300
H187 H 0.788400 0.503800 0.964200
H188 H 0.902900 0.479700 0.970900
H189 H 0.854500 0.534000 1.032200
C190 C 1.028600 0.982200 0.880300
H191 H 1.000500 1.019000 0.837100
H192 H 1.066200 1.071000 0.903000
H193 H 1.070800 0.888500 0.876500
C194 C 0.735000 1.135200 0.981100
H195 H 0.756600 1.182800 1.023600
H196 H 0.731400 1.220700 0.948100
H197 H 0.671000 1.086200 0.980600
C198 C 0.602500 0.436800 0.823790
H199 H 0.618900 0.402800 0.783400
N200 N 0.645500 0.562100 0.852010
C201 C 0.713400 0.646100 0.818510
C202 C 0.700100 0.816500 0.811790
C203 C 0.758200 0.901700 0.774200
H204 H 0.748000 1.015500 0.767800
C205 C 0.830500 0.825400 0.745900
C206 C 0.846200 0.659100 0.758100
H207 H 0.897600 0.606800 0.741100
C208 C 0.789400 0.566800 0.794060
C209 C 0.622600 0.904000 0.841200
H210 H 0.629400 1.021900 0.835600
H211 H 0.629000 0.878400 0.887300
H212 H 0.559000 0.868800 0.819800
C213 C 0.888500 0.919500 0.702500
H214 H 0.847800 0.942900 0.661400
H215 H 0.944300 0.854300 0.694600
H216 H 0.911000 1.022200 0.723500
C217 C 0.813400 0.387200 0.806000
H218 H 0.784700 0.349000 0.843300
H219 H 0.883700 0.373500 0.814600
H220 H 0.787300 0.323600 0.767800
Ag221 Ag 0.599610 -0.100970 0.461369
N222 N 0.549300 -0.193900 0.558560
N223 N 0.520700 0.124600 0.414750
C224 C 0.528500 0.155400 0.352320
C225 C 0.469100 0.265300 0.315250
H226 H 0.478900 0.291200 0.272500
C227 C 0.395400 0.335900 0.342360
H228 H 0.352400 0.411600 0.319000
C229 C 0.613700 -0.292300 0.594940
C230 C 0.696300 -0.349900 0.564100
H231 H 0.733700 -0.439500 0.582400
N232 N 0.718100 -0.281000 0.513380
C233 C 0.797100 -0.338900 0.483470
C234 C 0.862400 -0.221000 0.467800
C235 C 0.937600 -0.269700 0.435000
H236 H 0.982300 -0.190800 0.424200
C237 C 0.948400 -0.432800 0.417800
C238 C 0.882900 -0.545500 0.434100
H239 H 0.890400 -0.656200 0.422500
C240 C 0.806000 -0.504900 0.466880
C241 C 0.851100 -0.044100 0.485300
H242 H 0.788400 -0.003800 0.464200
H243 H 0.902900 0.020300 0.470900
H244 H 0.854500 -0.034000 0.532200
C245 C 1.028600 -0.482200 0.380300
H246 H 1.000500 -0.519000 0.337100
H247 H 1.066200 -0.571000 0.403000
H248 H 1.070800 -0.388500 0.376500
C249 C 0.735000 -0.635200 0.481100
H250 H 0.756600 -0.682800 0.523600
H251 H 0.731400 -0.720700 0.448100
H252 H 0.671000 -0.586200 0.480600
C253 C 0.602500 0.063200 0.323790
H254 H 0.618900 0.097200 0.283400
N255 N 0.645500 -0.062100 0.352010
C256 C 0.713400 -0.146100 0.318510
C257 C 0.700100 -0.316500 0.311790
C258 C 0.758200 -0.401700 0.274200
H259 H 0.748000 -0.515500 0.267800
C260 C 0.830500 -0.325400 0.245900
C261 C 0.846200 -0.159100 0.258100
H262 H 0.897600 -0.106800 0.241100
C263 C 0.789400 -0.066800 0.294060
C264 C 0.622600 -0.404000 0.341200
H265 H 0.629400 -0.521900 0.335600
H266 H 0.629000 -0.378400 0.387300
H267 H 0.559000 -0.368800 0.319800
C268 C 0.888500 -0.419500 0.202500
H269 H 0.847800 -0.442900 0.161400
H270 H 0.944300 -0.354300 0.194600
H271 H 0.911000 -0.522200 0.223500
C272 C 0.813400 0.112800 0.306000
H273 H 0.784700 0.151000 0.343300
H274 H 0.883700 0.126500 0.314600
H275 H 0.787300 0.176400 0.267800
Ag276 Ag 0.400390 0.100970 0.538631
N277 N 0.450700 0.193900 0.441440
N278 N 0.479300 -0.124600 0.585250
C279 C 0.471500 -0.155400 0.647680
C280 C 0.530900 -0.265300 0.684750
H281 H 0.521100 -0.291200 0.727500
C282 C 0.604600 -0.335900 0.657640
H283 H 0.647600 -0.411600 0.681000
C284 C 0.386300 0.292300 0.405060
C285 C 0.303700 0.349900 0.435900
H286 H 0.266300 0.439500 0.417600
N287 N 0.281900 0.281000 0.486620
C288 C 0.202900 0.338900 0.516530
C289 C 0.137600 0.221000 0.532200
C290 C 0.062400 0.269700 0.565000
H291 H 0.017700 0.190800 0.575800
C292 C 0.051600 0.432800 0.582200
C293 C 0.117100 0.545500 0.565900
H294 H 0.109600 0.656200 0.577500
C295 C 0.194000 0.504900 0.533120
C296 C 0.148900 0.044100 0.514700
H297 H 0.211600 0.003800 0.535800
H298 H 0.097100 -0.020300 0.529100
H299 H 0.145500 0.034000 0.467800
C300 C -0.028600 0.482200 0.619700
H301 H -0.000500 0.519000 0.662900
H302 H -0.066200 0.571000 0.597000
H303 H -0.070800 0.388500 0.623500
C304 C 0.265000 0.635200 0.518900
H305 H 0.243400 0.682800 0.476400
H306 H 0.268600 0.720700 0.551900
H307 H 0.329000 0.586200 0.519400
C308 C 0.397500 -0.063200 0.676210
H309 H 0.381100 -0.097200 0.716600
N310 N 0.354500 0.062100 0.647990
C311 C 0.286600 0.146100 0.681490
C312 C 0.299900 0.316500 0.688210
C313 C 0.241800 0.401700 0.725800
H314 H 0.252000 0.515500 0.732200
C315 C 0.169500 0.325400 0.754100
C316 C 0.153800 0.159100 0.741900
H317 H 0.102400 0.106800 0.758900
C318 C 0.210600 0.066800 0.705940
C319 C 0.377400 0.404000 0.658800
H320 H 0.370600 0.521900 0.664400
H321 H 0.371000 0.378400 0.612700
H322 H 0.441000 0.368800 0.680200
C323 C 0.111500 0.419500 0.797500
H324 H 0.152200 0.442900 0.838600
H325 H 0.055700 0.354300 0.805400
H326 H 0.089000 0.522200 0.776500
C327 C 0.186600 -0.112800 0.694000
H328 H 0.215300 -0.151000 0.656700
H329 H 0.116300 -0.126500 0.685400
H330 H 0.212700 -0.176400 0.732200
Ag331 Ag 0.599610 0.899030 0.461369
N332 N 0.549300 0.806100 0.558560
N333 N 0.520700 1.124600 0.414750
C334 C 0.528500 1.155400 0.352320
C335 C 0.469100 1.265300 0.315250
H336 H 0.478900 1.291200 0.272500
C337 C 0.395400 1.335900 0.342360
H338 H 0.352400 1.411600 0.319000
C339 C 0.613700 0.707700 0.594940
C340 C 0.696300 0.650100 0.564100
H341 H 0.733700 0.560500 0.582400
N342 N 0.718100 0.719000 0.513380
C343 C 0.797100 0.661100 0.483470
C344 C 0.862400 0.779000 0.467800
C345 C 0.937600 0.730300 0.435000
H346 H 0.982300 0.809200 0.424200
C347 C 0.948400 0.567200 0.417800
C348 C 0.882900 0.454500 0.434100
H349 H 0.890400 0.343800 0.422500
C350 C 0.806000 0.495100 0.466880
C351 C 0.851100 0.955900 0.485300
H352 H 0.788400 0.996200 0.464200
H353 H 0.902900 1.020300 0.470900
H354 H 0.854500 0.966000 0.532200
C355 C 1.028600 0.517800 0.380300
H356 H 1.000500 0.481000 0.337100
H357 H 1.066200 0.429000 0.403000
H358 H 1.070800 0.611500 0.376500
C359 C 0.735000 0.364800 0.481100
H360 H 0.756600 0.317200 0.523600
H361 H 0.731400 0.279300 0.448100
H362 H 0.671000 0.413800 0.480600
C363 C 0.602500 1.063200 0.323790
H364 H 0.618900 1.097200 0.283400
N365 N 0.645500 0.937900 0.352010
C366 C 0.713400 0.853900 0.318510
C367 C 0.700100 0.683500 0.311790
C368 C 0.758200 0.598300 0.274200
H369 H 0.748000 0.484500 0.267800
C370 C 0.830500 0.674600 0.245900
C371 C 0.846200 0.840900 0.258100
H372 H 0.897600 0.893200 0.241100
C373 C 0.789400 0.933200 0.294060
C374 C 0.622600 0.596000 0.341200
H375 H 0.629400 0.478100 0.335600
H376 H 0.629000 0.621600 0.387300
H377 H 0.559000 0.631200 0.319800
C378 C 0.888500 0.580500 0.202500
H379 H 0.847800 0.557100 0.161400
H380 H 0.944300 0.645700 0.194600
H381 H 0.911000 0.477800 0.223500
C382 C 0.813400 1.112800 0.306000
H383 H 0.784700 1.151000 0.343300
H384 H 0.883700 1.126500 0.314600
H385 H 0.787300 1.176400 0.267800
Ag386 Ag 0.400390 1.100970 0.538631
N387 N 0.450700 1.193900 0.441440
N388 N 0.479300 0.875400 0.585250
C389 C 0.471500 0.844600 0.647680
C390 C 0.530900 0.734700 0.684750
H391 H 0.521100 0.708800 0.727500
C392 C 0.604600 0.664100 0.657640
H393 H 0.647600 0.588400 0.681000
C394 C 0.386300 1.292300 0.405060
C395 C 0.303700 1.349900 0.435900
H396 H 0.266300 1.439500 0.417600
N397 N 0.281900 1.281000 0.486620
C398 C 0.202900 1.338900 0.516530
C399 C 0.137600 1.221000 0.532200
C400 C 0.062400 1.269700 0.565000
H401 H 0.017700 1.190800 0.575800
C402 C 0.051600 1.432800 0.582200
C403 C 0.117100 1.545500 0.565900
H404 H 0.109600 1.656200 0.577500
C405 C 0.194000 1.504900 0.533120
C406 C 0.148900 1.044100 0.514700
H407 H 0.211600 1.003800 0.535800
H408 H 0.097100 0.979700 0.529100
H409 H 0.145500 1.034000 0.467800
C410 C -0.028600 1.482200 0.619700
H411 H -0.000500 1.519000 0.662900
H412 H -0.066200 1.571000 0.597000
H413 H -0.070800 1.388500 0.623500
C414 C 0.265000 1.635200 0.518900
H415 H 0.243400 1.682800 0.476400
H416 H 0.268600 1.720700 0.551900
H417 H 0.329000 1.586200 0.519400
C418 C 0.397500 0.936800 0.676210
H419 H 0.381100 0.902800 0.716600
N420 N 0.354500 1.062100 0.647990
C421 C 0.286600 1.146100 0.681490
C422 C 0.299900 1.316500 0.688210
C423 C 0.241800 1.401700 0.725800
H424 H 0.252000 1.515500 0.732200
C425 C 0.169500 1.325400 0.754100
C426 C 0.153800 1.159100 0.741900
H427 H 0.102400 1.106800 0.758900
C428 C 0.210600 1.066800 0.705940
C429 C 0.377400 1.404000 0.658800
H430 H 0.370600 1.521900 0.664400
H431 H 0.371000 1.378400 0.612700
H432 H 0.441000 1.368800 0.680200
C433 C 0.111500 1.419500 0.797500
H434 H 0.152200 1.442900 0.838600
H435 H 0.055700 1.354300 0.805400
H436 H 0.089000 1.522200 0.776500
C437 C 0.186600 0.887200 0.694000
H438 H 0.215300 0.849000 0.656700
H439 H 0.116300 0.873500 0.685400
H440 H 0.212700 0.823600 0.732200
B441 B 0.642700 0.286400 0.137900
F442 F 0.574340 0.218300 0.090240
F443 F 0.674800 0.434700 0.117450
F444 F 0.600210 0.310600 0.194150
F445 F 0.720610 0.179600 0.151940
B446 B 0.357300 0.786400 0.362100
F447 F 0.425660 0.718300 0.409760
F448 F 0.325200 0.934700 0.382550
F449 F 0.399790 0.810600 0.305850
F450 F 0.279390 0.679600 0.348060
B451 B 0.357300 0.713600 0.862100
F452 F 0.425660 0.781700 0.909760
F453 F 0.325200 0.565300 0.882550
F454 F 0.399790 0.689400 0.805850
F455 F 0.279390 0.820400 0.848060
B456 B 0.642700 0.213600 0.637900
F457 F 0.574340 0.281700 0.590240
F458 F 0.674800 0.065300 0.617450
F459 F 0.600210 0.189400 0.694150
F460 F 0.720610 0.320400 0.651940

#END
