
#######################################################################
#
#                 Cambridge Crystallographic Data Centre
#                                CCDC 
#
#######################################################################
#
# If this CIF has been generated from an entry in the Cambridge 
# Structural Database, then it will include bibliographic, chemical, 
# crystal, experimental, refinement or atomic coordinate data resulting 
# from the CCDC's data processing and validation procedures.
#
#######################################################################

data_ACINDN
_symmetry_cell_setting           monoclinic
_symmetry_space_group_name_H-M   'P 21/n'
_symmetry_Int_Tables_number      14
_space_group_name_Hall           '-P 2yn'
loop_
_symmetry_equiv_pos_site_id
_symmetry_equiv_pos_as_xyz
1 x,y,z
2 1/2-x,1/2+y,1/2-z
3 -x,-y,-z
4 1/2+x,1/2-y,1/2+z
_cell_length_a                   5.305(3)
_cell_length_b                   7.314(2)
_cell_length_c                   23.214(10)
_cell_angle_alpha                90
_cell_angle_beta                 94.94(4)
_cell_angle_gamma                90
_cell_volume                     897.375
loop_
_atom_site_label
_atom_site_type_symbol
_atom_site_fract_x
_atom_site_fract_y
_atom_site_fract_z
C1 C -0.08570 0.49230 0.64440
O1 O -0.25620 0.57070 0.66590
C2 C 0.05560 0.55330 0.59520
C3 C 0.24410 0.41520 0.58620
O2 O 0.39910 0.41970 0.54930
C4 C 0.35180 0.10920 0.63720
C5 C 0.29220 -0.01040 0.68030
C6 C 0.09540 0.03490 0.71390
C7 C -0.03790 0.19330 0.70550
C8 C 0.02300 0.31330 0.66220
C9 C 0.21990 0.26760 0.62890
C10 C 0.02050 0.70060 0.56100
O3 O 0.16640 0.73070 0.51700
C11 C -0.17520 0.84120 0.56650
H1 H 0.47400 0.08900 0.61600
H2 H 0.37700 -0.13700 0.68600
H3 H 0.05900 -0.05000 0.74200
H4 H -0.17800 0.23500 0.72400
H5 H 0.28800 0.60200 0.52300
H6 H -0.26400 0.79300 0.60200
H7 H -0.11800 0.97400 0.55600
H8 H -0.26400 0.85900 0.53200
C1 C 0.58570 0.99230 0.85560
O1 O 0.75620 1.07070 0.83410
C2 C 0.44440 1.05330 0.90480
C3 C 0.25590 0.91520 0.91380
O2 O 0.10090 0.91970 0.95070
C4 C 0.14820 0.60920 0.86280
C5 C 0.20780 0.48960 0.81970
C6 C 0.40460 0.53490 0.78610
C7 C 0.53790 0.69330 0.79450
C8 C 0.47700 0.81330 0.83780
C9 C 0.28010 0.76760 0.87110
C10 C 0.47950 1.20060 0.93900
O3 O 0.33360 1.23070 0.98300
C11 C 0.67520 1.34120 0.93350
H1 H 0.02600 0.58900 0.88400
H2 H 0.12300 0.36300 0.81400
H3 H 0.44100 0.45000 0.75800
H4 H 0.67800 0.73500 0.77600
H5 H 0.21200 1.10200 0.97700
H6 H 0.76400 1.29300 0.89800
H7 H 0.61800 1.47400 0.94400
H8 H 0.76400 1.35900 0.96800
C1 C 1.08570 0.50770 0.35560
O1 O 1.25620 0.42930 0.33410
C2 C 0.94440 0.44670 0.40480
C3 C 0.75590 0.58480 0.41380
O2 O 0.60090 0.58030 0.45070
C4 C 0.64820 0.89080 0.36280
C5 C 0.70780 1.01040 0.31970
C6 C 0.90460 0.96510 0.28610
C7 C 1.03790 0.80670 0.29450
C8 C 0.97700 0.68670 0.33780
C9 C 0.78010 0.73240 0.37110
C10 C 0.97950 0.29940 0.43900
O3 O 0.83360 0.26930 0.48300
C11 C 1.17520 0.15880 0.43350
H1 H 0.52600 0.91100 0.38400
H2 H 0.62300 1.13700 0.31400
H3 H 0.94100 1.05000 0.25800
H4 H 1.17800 0.76500 0.27600
H5 H 0.71200 0.39800 0.47700
H6 H 1.26400 0.20700 0.39800
H7 H 1.11800 0.02600 0.44400
H8 H 1.26400 0.14100 0.46800
C1 C 0.41430 0.00770 0.14440
O1 O 0.24380 -0.07070 0.16590
C2 C 0.55560 -0.05330 0.09520
C3 C 0.74410 0.08480 0.08620
O2 O 0.89910 0.08030 0.04930
C4 C 0.85180 0.39080 0.13720
C5 C 0.79220 0.51040 0.18030
C6 C 0.59540 0.46510 0.21390
C7 C 0.46210 0.30670 0.20550
C8 C 0.52300 0.18670 0.16220
C9 C 0.71990 0.23240 0.12890
C10 C 0.52050 -0.20060 0.06100
O3 O 0.66640 -0.23070 0.01700
C11 C 0.32480 -0.34120 0.06650
H1 H 0.97400 0.41100 0.11600
H2 H 0.87700 0.63700 0.18600
H3 H 0.55900 0.55000 0.24200
H4 H 0.32200 0.26500 0.22400
H5 H 0.78800 -0.10200 0.02300
H6 H 0.23600 -0.29300 0.10200
H7 H 0.38200 -0.47400 0.05600
H8 H 0.23600 -0.35900 0.03200

#END
