
#######################################################################
#
#                 Cambridge Crystallographic Data Centre
#                                CCDC 
#
#######################################################################
#
# If this CIF has been generated from an entry in the Cambridge 
# Structural Database, then it will include bibliographic, chemical, 
# crystal, experimental, refinement or atomic coordinate data resulting 
# from the CCDC's data processing and validation procedures.
#
#######################################################################

data_ACIPOR
_symmetry_cell_setting           orthorhombic
_symmetry_space_group_name_H-M   'P 21 21 21'
_symmetry_Int_Tables_number      19
_space_group_name_Hall           'P 2ac 2ab'
loop_
_symmetry_equiv_pos_site_id
_symmetry_equiv_pos_as_xyz
1 x,y,z
2 1/2-x,-y,1/2+z
3 1/2+x,1/2-y,-z
4 -x,1/2+y,1/2-z
_cell_length_a                   10.0245(3)
_cell_length_b                   12.7797(4)
_cell_length_c                   19.0370(3)
_cell_angle_alpha                90
_cell_angle_beta                 90
_cell_angle_gamma                90
_cell_volume                     2438.83
loop_
_atom_site_label
_atom_site_type_symbol
_atom_site_fract_x
_atom_site_fract_y
_atom_site_fract_z
C1 C 0.78121(18) 0.34457(13) 0.90948(8)
C2 C 0.9067(2) 0.29972(14) 0.92059(10)
H1 H 0.9831 0.3436 0.9190
C3 C 0.9243(2) 0.19350(15) 0.93383(11)
H2 H 1.0114 0.1664 0.9412
C4 C 0.8158(3) 0.12775(16) 0.93634(11)
H3 H 0.8275 0.0549 0.9443
C5 C 0.6895(3) 0.16899(17) 0.92704(11)
H4 H 0.6136 0.1246 0.9294
C6 C 0.6732(2) 0.27563(15) 0.91417(10)
H5 H 0.5855 0.3025 0.9084
C7 C 0.75703(18) 0.52111(12) 0.97736(8)
C8 C 0.87205(19) 0.54753(15) 1.01501(10)
H6 H 0.9565 0.5379 0.9933
C9 C 0.8677(2) 0.58731(17) 1.08294(10)
H7 H 0.9482 0.6053 1.1064
C10 C 0.7464(2) 0.60073(16) 1.11647(9)
H8 H 0.7427 0.6285 1.1627
C11 C 0.6307(2) 0.57307(15) 1.08166(10)
H9 H 0.5468 0.5811 1.1042
C12 C 0.63681(18) 0.53359(14) 1.01393(9)
H10 H 0.5560 0.5142 0.9913
C13 C 0.63228(17) 0.50249(14) 0.85085(9)
C14 C 0.58838(19) 0.44052(17) 0.79485(9)
H11 H 0.6288 0.3741 0.7877
C15 C 0.4881(2) 0.4724(2) 0.74930(11)
H12 H 0.4610 0.4276 0.7121
C16 C 0.4274(2) 0.5685(3) 0.75765(12)
H13 H 0.3594 0.5906 0.7262
C17 C 0.4671(2) 0.6321(2) 0.81248(12)
H14 H 0.4259 0.6983 0.8192
C18 C 0.5678(2) 0.59913(17) 0.85790(11)
H15 H 0.5937 0.6441 0.8952
C19 C 0.88759(16) 0.52144(14) 0.85169(9)
C20 C 0.92700(19) 0.62615(14) 0.85886(9)
H16 H 0.8911 0.6656 0.8967
C21 C 1.0154(2) 0.67520(17) 0.81381(11)
H17 H 1.0380 0.7466 0.8210
C22 C 1.0710(2) 0.62037(17) 0.75832(10)
H18 H 1.1308 0.6537 0.7267
C23 C 1.03790(18) 0.51658(18) 0.74983(10)
H19 H 1.0768 0.4774 0.7127
C24 C 0.94746(18) 0.46837(15) 0.79539(9)
H20 H 0.9257 0.3969 0.7880
B1 B 0.7642(2) 0.47104(15) 0.89774(9)
C1 C 0.71879(18) 0.65543(13) 0.40948(8)
C2 C 0.5933(2) 0.70028(14) 0.42059(10)
H1 H 0.5169 0.6564 0.4190
C3 C 0.5757(2) 0.80650(15) 0.43383(11)
H2 H 0.4886 0.8336 0.4412
C4 C 0.6842(3) 0.87225(16) 0.43634(11)
H3 H 0.6725 0.9451 0.4443
C5 C 0.8105(3) 0.83101(17) 0.42704(11)
H4 H 0.8864 0.8754 0.4294
C6 C 0.8268(2) 0.72437(15) 0.41417(10)
H5 H 0.9145 0.6975 0.4084
C7 C 0.74297(18) 0.47889(12) 0.47736(8)
C8 C 0.62795(19) 0.45247(15) 0.51501(10)
H6 H 0.5435 0.4621 0.4933
C9 C 0.6323(2) 0.41269(17) 0.58294(10)
H7 H 0.5518 0.3947 0.6064
C10 C 0.7536(2) 0.39927(16) 0.61647(9)
H8 H 0.7573 0.3715 0.6627
C11 C 0.8693(2) 0.42693(15) 0.58166(10)
H9 H 0.9532 0.4189 0.6042
C12 C 0.86319(18) 0.46641(14) 0.51393(9)
H10 H 0.9440 0.4858 0.4913
C13 C 0.86772(17) 0.49751(14) 0.35085(9)
C14 C 0.91162(19) 0.55948(17) 0.29485(9)
H11 H 0.8712 0.6259 0.2877
C15 C 1.0119(2) 0.5276(2) 0.24930(11)
H12 H 1.0390 0.5724 0.2121
C16 C 1.0726(2) 0.4315(3) 0.25765(12)
H13 H 1.1406 0.4094 0.2262
C17 C 1.0329(2) 0.3679(2) 0.31248(12)
H14 H 1.0741 0.3017 0.3192
C18 C 0.9322(2) 0.40087(17) 0.35790(11)
H15 H 0.9063 0.3559 0.3952
C19 C 0.61241(16) 0.47856(14) 0.35169(9)
C20 C 0.57300(19) 0.37385(14) 0.35886(9)
H16 H 0.6089 0.3344 0.3967
C21 C 0.4846(2) 0.32480(17) 0.31381(11)
H17 H 0.4620 0.2534 0.3210
C22 C 0.4290(2) 0.37963(17) 0.25832(10)
H18 H 0.3692 0.3463 0.2267
C23 C 0.46210(18) 0.48342(18) 0.24983(10)
H19 H 0.4232 0.5226 0.2127
C24 C 0.55254(18) 0.53163(15) 0.29539(9)
H20 H 0.5743 0.6031 0.2880
B1 B 0.7358(2) 0.52896(15) 0.39774(9)
C1 C 0.28121(18) 0.15543(13) 0.09052(8)
C2 C 0.4067(2) 0.20028(14) 0.07941(10)
H1 H 0.4831 0.1564 0.0810
C3 C 0.4243(2) 0.30650(15) 0.06617(11)
H2 H 0.5114 0.3336 0.0588
C4 C 0.3158(3) 0.37225(16) 0.06366(11)
H3 H 0.3275 0.4451 0.0557
C5 C 0.1895(3) 0.33101(17) 0.07296(11)
H4 H 0.1136 0.3754 0.0706
C6 C 0.1732(2) 0.22437(15) 0.08583(10)
H5 H 0.0855 0.1975 0.0916
C7 C 0.25703(18) -0.02111(12) 0.02264(8)
C8 C 0.37205(19) -0.04753(15) -0.01501(10)
H6 H 0.4565 -0.0379 0.0067
C9 C 0.3677(2) -0.08731(17) -0.08294(10)
H7 H 0.4482 -0.1053 -0.1064
C10 C 0.2464(2) -0.10073(16) -0.11647(9)
H8 H 0.2427 -0.1285 -0.1627
C11 C 0.1307(2) -0.07307(15) -0.08166(10)
H9 H 0.0468 -0.0811 -0.1042
C12 C 0.13681(18) -0.03359(14) -0.01393(9)
H10 H 0.0560 -0.0142 0.0087
C13 C 0.13228(17) -0.00249(14) 0.14915(9)
C14 C 0.08838(19) 0.05948(17) 0.20515(9)
H11 H 0.1288 0.1259 0.2123
C15 C -0.0119(2) 0.0276(2) 0.25070(11)
H12 H -0.0390 0.0724 0.2879
C16 C -0.0726(2) -0.0685(3) 0.24235(12)
H13 H -0.1406 -0.0906 0.2738
C17 C -0.0329(2) -0.1321(2) 0.18752(12)
H14 H -0.0741 -0.1983 0.1808
C18 C 0.0678(2) -0.09913(17) 0.14210(11)
H15 H 0.0937 -0.1441 0.1048
C19 C 0.38759(16) -0.02144(14) 0.14831(9)
C20 C 0.42700(19) -0.12615(14) 0.14114(9)
H16 H 0.3911 -0.1656 0.1033
C21 C 0.5154(2) -0.17520(17) 0.18619(11)
H17 H 0.5380 -0.2466 0.1790
C22 C 0.5710(2) -0.12037(17) 0.24168(10)
H18 H 0.6308 -0.1537 0.2733
C23 C 0.53790(18) -0.01658(18) 0.25017(10)
H19 H 0.5768 0.0226 0.2873
C24 C 0.44746(18) 0.03163(15) 0.20461(9)
H20 H 0.4257 0.1031 0.2120
B1 B 0.2642(2) 0.02896(15) 0.10226(9)
C1 C 0.21879(18) 0.84457(13) 0.59052(8)
C2 C 0.0933(2) 0.79972(14) 0.57941(10)
H1 H 0.0169 0.8436 0.5810
C3 C 0.0757(2) 0.69350(15) 0.56617(11)
H2 H -0.0114 0.6664 0.5588
C4 C 0.1842(3) 0.62775(16) 0.56366(11)
H3 H 0.1725 0.5549 0.5557
C5 C 0.3105(3) 0.66899(17) 0.57296(11)
H4 H 0.3864 0.6246 0.5706
C6 C 0.3268(2) 0.77563(15) 0.58583(10)
H5 H 0.4145 0.8025 0.5916
C7 C 0.24297(18) 1.02111(12) 0.52264(8)
C8 C 0.12795(19) 1.04753(15) 0.48499(10)
H6 H 0.0435 1.0379 0.5067
C9 C 0.1323(2) 1.08731(17) 0.41706(10)
H7 H 0.0518 1.1053 0.3936
C10 C 0.2536(2) 1.10073(16) 0.38353(9)
H8 H 0.2573 1.1285 0.3373
C11 C 0.3693(2) 1.07307(15) 0.41834(10)
H9 H 0.4532 1.0811 0.3958
C12 C 0.36319(18) 1.03359(14) 0.48607(9)
H10 H 0.4440 1.0142 0.5087
C13 C 0.36772(17) 1.00249(14) 0.64915(9)
C14 C 0.41162(19) 0.94052(17) 0.70515(9)
H11 H 0.3712 0.8741 0.7123
C15 C 0.5119(2) 0.9724(2) 0.75070(11)
H12 H 0.5390 0.9276 0.7879
C16 C 0.5726(2) 1.0685(3) 0.74235(12)
H13 H 0.6406 1.0906 0.7738
C17 C 0.5329(2) 1.1321(2) 0.68752(12)
H14 H 0.5741 1.1983 0.6808
C18 C 0.4322(2) 1.09913(17) 0.64210(11)
H15 H 0.4063 1.1441 0.6048
C19 C 0.11241(16) 1.02144(14) 0.64831(9)
C20 C 0.07300(19) 1.12615(14) 0.64114(9)
H16 H 0.1089 1.1656 0.6033
C21 C -0.0154(2) 1.17520(17) 0.68619(11)
H17 H -0.0380 1.2466 0.6790
C22 C -0.0710(2) 1.12037(17) 0.74168(10)
H18 H -0.1308 1.1537 0.7733
C23 C -0.03790(18) 1.01658(18) 0.75017(10)
H19 H -0.0768 0.9774 0.7873
C24 C 0.05254(18) 0.96837(15) 0.70461(9)
H20 H 0.0743 0.8969 0.7120
B1 B 0.2358(2) 0.97104(15) 0.60226(9)
C25 C 0.7595(2) 0.33249(16) 0.20485(10)
H21 H 0.7515 0.3864 0.2389
C26 C 0.7716(2) 0.17997(16) 0.15491(11)
H22 H 0.7733 0.1062 0.1489
C27 C 0.7813(2) 0.25054(18) 0.10492(10)
H23 H 0.7917 0.2376 0.0561
N1 N 0.77372(19) 0.34528(13) 0.13648(9)
H24 H 0.7776 0.4060 0.1148
N2 N 0.75862(19) 0.23196(14) 0.21691(8)
H25 H 0.7508 0.2025 0.2585
C25 C 0.7405(2) 0.66751(16) 0.70485(10)
H21 H 0.7485 0.6136 0.7389
C26 C 0.7284(2) 0.82003(16) 0.65491(11)
H22 H 0.7267 0.8938 0.6489
C27 C 0.7187(2) 0.74946(18) 0.60492(10)
H23 H 0.7083 0.7624 0.5561
N1 N 0.72628(19) 0.65472(13) 0.63648(9)
H24 H 0.7224 0.5940 0.6148
N2 N 0.74138(19) 0.76804(14) 0.71691(8)
H25 H 0.7492 0.7975 0.7585
C25 C 0.2595(2) 0.16751(16) 0.79515(10)
H21 H 0.2515 0.1136 0.7611
C26 C 0.2716(2) 0.32003(16) 0.84509(11)
H22 H 0.2733 0.3938 0.8511
C27 C 0.2813(2) 0.24946(18) 0.89508(10)
H23 H 0.2917 0.2624 0.9439
N1 N 0.27372(19) 0.15472(13) 0.86352(9)
H24 H 0.2776 0.0940 0.8852
N2 N 0.25862(19) 0.26804(14) 0.78309(8)
H25 H 0.2508 0.2975 0.7415
C25 C 0.2405(2) 0.83249(16) 0.29515(10)
H21 H 0.2485 0.8864 0.2611
C26 C 0.2284(2) 0.67997(16) 0.34509(11)
H22 H 0.2267 0.6062 0.3511
C27 C 0.2187(2) 0.75054(18) 0.39508(10)
H23 H 0.2083 0.7376 0.4439
N1 N 0.22628(19) 0.84528(13) 0.36352(9)
H24 H 0.2224 0.9060 0.3852
N2 N 0.24138(19) 0.73196(14) 0.28309(8)
H25 H 0.2492 0.7025 0.2415
N3 N 0.7591(2) 0.14520(14) 0.37040(11)
C28 C 0.7588(2) 0.15294(15) 0.42971(12)
C29 C 0.7566(3) 0.1641(2) 0.50529(13)
H26 H 0.6654 0.1539 0.5225
H27 H 0.7875 0.2344 0.5181
H28 H 0.8155 0.1117 0.5265
N3 N 0.7409(2) 0.85480(14) 0.87040(11)
C28 C 0.7412(2) 0.84706(15) 0.92971(12)
C29 C 0.7434(3) 0.8359(2) 1.00529(13)
H26 H 0.8346 0.8461 1.0225
H27 H 0.7125 0.7656 1.0181
H28 H 0.6845 0.8883 1.0265
N3 N 0.2591(2) 0.35480(14) 0.62960(11)
C28 C 0.2588(2) 0.34706(15) 0.57029(12)
C29 C 0.2566(3) 0.3359(2) 0.49471(13)
H26 H 0.1654 0.3461 0.4775
H27 H 0.2875 0.2656 0.4819
H28 H 0.3155 0.3883 0.4735
N3 N 0.2409(2) 0.64520(14) 0.12960(11)
C28 C 0.2412(2) 0.65294(15) 0.07029(12)
C29 C 0.2434(3) 0.6641(2) -0.00529(13)
H26 H 0.3346 0.6539 -0.0225
H27 H 0.2125 0.7344 -0.0181
H28 H 0.1845 0.6117 -0.0265

#END
