./ACIPOR_from_xyz.cif_generated_by_CrystalShift
_symmetry_cell_setting triclinic
_symmetry_space_group_name_H-M 'P 1'
loop_
_symmetry_equiv_pos_site_id
_symmetry_equiv_pos_as_xyz
1 x,y,z
_cell_length_a 10.024500
_cell_length_b 12.779700
_cell_length_c 19.037000
_cell_angle_alpha 90.000000
_cell_angle_beta 90.000000
_cell_angle_gamma 90.000000
_cell_volume 2438.832024
loop_
_atom_site_label
_atom_site_type_symbol
_atom_site_fract_x
_atom_site_fract_y
_atom_site_fract_z
C1 C 0.781210 0.344570 0.909480
C2 C 0.906700 0.299720 0.920590
H3 H 0.983100 0.343600 0.919000
C4 C 0.924300 0.193500 0.933830
H5 H 1.011400 0.166400 0.941200
C6 C 0.815800 0.127750 0.936340
H7 H 0.827500 0.054900 0.944300
C8 C 0.689500 0.168990 0.927040
H9 H 0.613600 0.124600 0.929400
C10 C 0.673200 0.275630 0.914170
H11 H 0.585500 0.302500 0.908400
C12 C 0.757030 0.521110 0.977360
C13 C 0.872050 0.547530 1.015010
H14 H 0.956500 0.537900 0.993300
C15 C 0.867700 0.587310 1.082940
H16 H 0.948200 0.605300 1.106400
C17 C 0.746400 0.600730 1.116470
H18 H 0.742700 0.628500 1.162700
C19 C 0.630700 0.573070 1.081660
H20 H 0.546800 0.581100 1.104200
C21 C 0.636810 0.533590 1.013930
H22 H 0.556000 0.514200 0.991300
C23 C 0.632280 0.502490 0.850850
C24 C 0.588380 0.440520 0.794850
H25 H 0.628800 0.374100 0.787700
C26 C 0.488100 0.472400 0.749300
H27 H 0.461000 0.427600 0.712100
C28 C 0.427400 0.568500 0.757650
H29 H 0.359400 0.590600 0.726200
C30 C 0.467100 0.632100 0.812480
H31 H 0.425900 0.698300 0.819200
C32 C 0.567800 0.599130 0.857900
H33 H 0.593700 0.644100 0.895200
C34 C 0.887590 0.521440 0.851690
C35 C 0.927000 0.626150 0.858860
H36 H 0.891100 0.665600 0.896700
C37 C 1.015400 0.675200 0.813810
H38 H 1.038000 0.746600 0.821000
C39 C 1.071000 0.620370 0.758320
H40 H 1.130800 0.653700 0.726700
C41 C 1.037900 0.516580 0.749830
H42 H 1.076800 0.477400 0.712700
C43 C 0.947460 0.468370 0.795390
H44 H 0.925700 0.396900 0.788000
B45 B 0.764200 0.471040 0.897740
C46 C 0.718790 0.655430 0.409480
C47 C 0.593300 0.700280 0.420590
H48 H 0.516900 0.656400 0.419000
C49 C 0.575700 0.806500 0.433830
H50 H 0.488600 0.833600 0.441200
C51 C 0.684200 0.872250 0.436340
H52 H 0.672500 0.945100 0.444300
C53 C 0.810500 0.831010 0.427040
H54 H 0.886400 0.875400 0.429400
C55 C 0.826800 0.724370 0.414170
H56 H 0.914500 0.697500 0.408400
C57 C 0.742970 0.478890 0.477360
C58 C 0.627950 0.452470 0.515010
H59 H 0.543500 0.462100 0.493300
C60 C 0.632300 0.412690 0.582940
H61 H 0.551800 0.394700 0.606400
C62 C 0.753600 0.399270 0.616470
H63 H 0.757300 0.371500 0.662700
C64 C 0.869300 0.426930 0.581660
H65 H 0.953200 0.418900 0.604200
C66 C 0.863190 0.466410 0.513930
H67 H 0.944000 0.485800 0.491300
C68 C 0.867720 0.497510 0.350850
C69 C 0.911620 0.559480 0.294850
H70 H 0.871200 0.625900 0.287700
C71 C 1.011900 0.527600 0.249300
H72 H 1.039000 0.572400 0.212100
C73 C 1.072600 0.431500 0.257650
H74 H 1.140600 0.409400 0.226200
C75 C 1.032900 0.367900 0.312480
H76 H 1.074100 0.301700 0.319200
C77 C 0.932200 0.400870 0.357900
H78 H 0.906300 0.355900 0.395200
C79 C 0.612410 0.478560 0.351690
C80 C 0.573000 0.373850 0.358860
H81 H 0.608900 0.334400 0.396700
C82 C 0.484600 0.324800 0.313810
H83 H 0.462000 0.253400 0.321000
C84 C 0.429000 0.379630 0.258320
H85 H 0.369200 0.346300 0.226700
C86 C 0.462100 0.483420 0.249830
H87 H 0.423200 0.522600 0.212700
C88 C 0.552540 0.531630 0.295390
H89 H 0.574300 0.603100 0.288000
B90 B 0.735800 0.528960 0.397740
C91 C 0.281210 0.155430 0.090520
C92 C 0.406700 0.200280 0.079410
H93 H 0.483100 0.156400 0.081000
C94 C 0.424300 0.306500 0.066170
H95 H 0.511400 0.333600 0.058800
C96 C 0.315800 0.372250 0.063660
H97 H 0.327500 0.445100 0.055700
C98 C 0.189500 0.331010 0.072960
H99 H 0.113600 0.375400 0.070600
C100 C 0.173200 0.224370 0.085830
H101 H 0.085500 0.197500 0.091600
C102 C 0.257030 -0.021110 0.022640
C103 C 0.372050 -0.047530 -0.015010
H104 H 0.456500 -0.037900 0.006700
C105 C 0.367700 -0.087310 -0.082940
H106 H 0.448200 -0.105300 -0.106400
C107 C 0.246400 -0.100730 -0.116470
H108 H 0.242700 -0.128500 -0.162700
C109 C 0.130700 -0.073070 -0.081660
H110 H 0.046800 -0.081100 -0.104200
C111 C 0.136810 -0.033590 -0.013930
H112 H 0.056000 -0.014200 0.008700
C113 C 0.132280 -0.002490 0.149150
C114 C 0.088380 0.059480 0.205150
H115 H 0.128800 0.125900 0.212300
C116 C -0.011900 0.027600 0.250700
H117 H -0.039000 0.072400 0.287900
C118 C -0.072600 -0.068500 0.242350
H119 H -0.140600 -0.090600 0.273800
C120 C -0.032900 -0.132100 0.187520
H121 H -0.074100 -0.198300 0.180800
C122 C 0.067800 -0.099130 0.142100
H123 H 0.093700 -0.144100 0.104800
C124 C 0.387590 -0.021440 0.148310
C125 C 0.427000 -0.126150 0.141140
H126 H 0.391100 -0.165600 0.103300
C127 C 0.515400 -0.175200 0.186190
H128 H 0.538000 -0.246600 0.179000
C129 C 0.571000 -0.120370 0.241680
H130 H 0.630800 -0.153700 0.273300
C131 C 0.537900 -0.016580 0.250170
H132 H 0.576800 0.022600 0.287300
C133 C 0.447460 0.031630 0.204610
H134 H 0.425700 0.103100 0.212000
B135 B 0.264200 0.028960 0.102260
C136 C 0.218790 0.844570 0.590520
C137 C 0.093300 0.799720 0.579410
H138 H 0.016900 0.843600 0.581000
C139 C 0.075700 0.693500 0.566170
H140 H -0.011400 0.666400 0.558800
C141 C 0.184200 0.627750 0.563660
H142 H 0.172500 0.554900 0.555700
C143 C 0.310500 0.668990 0.572960
H144 H 0.386400 0.624600 0.570600
C145 C 0.326800 0.775630 0.585830
H146 H 0.414500 0.802500 0.591600
C147 C 0.242970 1.021110 0.522640
C148 C 0.127950 1.047530 0.484990
H149 H 0.043500 1.037900 0.506700
C150 C 0.132300 1.087310 0.417060
H151 H 0.051800 1.105300 0.393600
C152 C 0.253600 1.100730 0.383530
H153 H 0.257300 1.128500 0.337300
C154 C 0.369300 1.073070 0.418340
H155 H 0.453200 1.081100 0.395800
C156 C 0.363190 1.033590 0.486070
H157 H 0.444000 1.014200 0.508700
C158 C 0.367720 1.002490 0.649150
C159 C 0.411620 0.940520 0.705150
H160 H 0.371200 0.874100 0.712300
C161 C 0.511900 0.972400 0.750700
H162 H 0.539000 0.927600 0.787900
C163 C 0.572600 1.068500 0.742350
H164 H 0.640600 1.090600 0.773800
C165 C 0.532900 1.132100 0.687520
H166 H 0.574100 1.198300 0.680800
C167 C 0.432200 1.099130 0.642100
H168 H 0.406300 1.144100 0.604800
C169 C 0.112410 1.021440 0.648310
C170 C 0.073000 1.126150 0.641140
H171 H 0.108900 1.165600 0.603300
C172 C -0.015400 1.175200 0.686190
H173 H -0.038000 1.246600 0.679000
C174 C -0.071000 1.120370 0.741680
H175 H -0.130800 1.153700 0.773300
C176 C -0.037900 1.016580 0.750170
H177 H -0.076800 0.977400 0.787300
C178 C 0.052540 0.968370 0.704610
H179 H 0.074300 0.896900 0.712000
B180 B 0.235800 0.971040 0.602260
C181 C 0.759500 0.332490 0.204850
H182 H 0.751500 0.386400 0.238900
C183 C 0.771600 0.179970 0.154910
H184 H 0.773300 0.106200 0.148900
C185 C 0.781300 0.250540 0.104920
H186 H 0.791700 0.237600 0.056100
N187 N 0.773720 0.345280 0.136480
H188 H 0.777600 0.406000 0.114800
N189 N 0.758620 0.231960 0.216910
H190 H 0.750800 0.202500 0.258500
C191 C 0.740500 0.667510 0.704850
H192 H 0.748500 0.613600 0.738900
C193 C 0.728400 0.820030 0.654910
H194 H 0.726700 0.893800 0.648900
C195 C 0.718700 0.749460 0.604920
H196 H 0.708300 0.762400 0.556100
N197 N 0.726280 0.654720 0.636480
H198 H 0.722400 0.594000 0.614800
N199 N 0.741380 0.768040 0.716910
H200 H 0.749200 0.797500 0.758500
C201 C 0.259500 0.167510 0.795150
H202 H 0.251500 0.113600 0.761100
C203 C 0.271600 0.320030 0.845090
H204 H 0.273300 0.393800 0.851100
C205 C 0.281300 0.249460 0.895080
H206 H 0.291700 0.262400 0.943900
N207 N 0.273720 0.154720 0.863520
H208 H 0.277600 0.094000 0.885200
N209 N 0.258620 0.268040 0.783090
H210 H 0.250800 0.297500 0.741500
C211 C 0.240500 0.832490 0.295150
H212 H 0.248500 0.886400 0.261100
C213 C 0.228400 0.679970 0.345090
H214 H 0.226700 0.606200 0.351100
C215 C 0.218700 0.750540 0.395080
H216 H 0.208300 0.737600 0.443900
N217 N 0.226280 0.845280 0.363520
H218 H 0.222400 0.906000 0.385200
N219 N 0.241380 0.731960 0.283090
H220 H 0.249200 0.702500 0.241500
N221 N 0.759100 0.145200 0.370400
C222 C 0.758800 0.152940 0.429710
C223 C 0.756600 0.164100 0.505290
H224 H 0.665400 0.153900 0.522500
H225 H 0.787500 0.234400 0.518100
H226 H 0.815500 0.111700 0.526500
N227 N 0.740900 0.854800 0.870400
C228 C 0.741200 0.847060 0.929710
C229 C 0.743400 0.835900 1.005290
H230 H 0.834600 0.846100 1.022500
H231 H 0.712500 0.765600 1.018100
H232 H 0.684500 0.888300 1.026500
N233 N 0.259100 0.354800 0.629600
C234 C 0.258800 0.347060 0.570290
C235 C 0.256600 0.335900 0.494710
H236 H 0.165400 0.346100 0.477500
H237 H 0.287500 0.265600 0.481900
H238 H 0.315500 0.388300 0.473500
N239 N 0.240900 0.645200 0.129600
C240 C 0.241200 0.652940 0.070290
C241 C 0.243400 0.664100 -0.005290
H242 H 0.334600 0.653900 -0.022500
H243 H 0.212500 0.734400 -0.018100
H244 H 0.184500 0.611700 -0.026500

#END
