./ACIVIS_from_xyz.cif_generated_by_CrystalShift
_symmetry_cell_setting triclinic
_symmetry_space_group_name_H-M 'P 1'
loop_
_symmetry_equiv_pos_site_id
_symmetry_equiv_pos_as_xyz
1 x,y,z
_cell_length_a 9.745700
_cell_length_b 10.045800
_cell_length_c 10.715000
_cell_angle_alpha 73.760000
_cell_angle_beta 85.610000
_cell_angle_gamma 89.940000
_cell_volume 1003.994468
loop_
_atom_site_label
_atom_site_type_symbol
_atom_site_fract_x
_atom_site_fract_y
_atom_site_fract_z
C1 C 0.449200 0.199690 0.139710
C2 C 0.557100 0.109500 0.134820
H3 H 0.537800 0.017900 0.131600
C4 C 0.692100 0.152500 0.134660
H5 H 0.764700 0.089800 0.132400
C6 C 0.722000 0.286000 0.137730
H7 H 0.815000 0.319000 0.136000
C8 C 0.615300 0.376500 0.143390
H9 H 0.635200 0.468200 0.145900
C10 C 0.479600 0.333410 0.145360
H11 H 0.407100 0.395300 0.150600
C12 C 0.243830 0.189080 -0.041210
C13 C 0.348400 0.236290 -0.138740
H14 H 0.439700 0.245600 -0.116400
C15 C 0.320600 0.270400 -0.270210
H16 H 0.392600 0.302600 -0.336900
C17 C 0.186800 0.256720 -0.302240
H18 H 0.167300 0.281100 -0.391200
C19 C 0.081900 0.208000 -0.205780
H20 H -0.008900 0.197000 -0.228500
C21 C 0.109600 0.174900 -0.075120
H22 H 0.041000 0.142000 -0.009000
C23 C 0.157410 0.233590 0.204920
C24 C 0.079800 0.171500 0.321100
H25 H 0.087000 0.077000 0.357000
C26 C -0.006000 0.251300 0.379300
H27 H -0.058000 0.211000 0.452000
C28 C -0.017900 0.392000 0.321000
H29 H -0.081000 0.445000 0.358000
C30 C 0.053500 0.453300 0.202600
H31 H 0.043000 0.549200 0.161100
C32 C 0.140700 0.375150 0.144200
H33 H 0.189400 0.417700 0.062500
C34 C 0.259500 -0.042290 0.170620
H35 H 0.219600 -0.075900 0.106800
C36 C 0.294130 -0.150490 0.284680
C37 C 0.290000 -0.291030 0.285100
H38 H 0.265400 -0.313800 0.209300
C39 C 0.320900 -0.397600 0.393900
H40 H 0.316500 -0.491400 0.391700
C41 C 0.358200 -0.366600 0.505200
H42 H 0.379900 -0.438900 0.579100
C43 C 0.363500 -0.229700 0.508190
H44 H 0.388200 -0.208100 0.584500
C45 C 0.332820 -0.123860 0.399790
C46 C 0.322000 0.050000 0.515450
H47 H 0.401500 0.017200 0.565400
H48 H 0.237700 0.006000 0.565800
H49 H 0.316500 0.150900 0.498000
P50 P 0.276960 0.132510 0.130180
O51 O 0.336890 0.015010 0.394950
C52 C 0.550800 0.800310 0.860290
C53 C 0.442900 0.890500 0.865180
H54 H 0.462200 0.982100 0.868400
C55 C 0.307900 0.847500 0.865340
H56 H 0.235300 0.910200 0.867600
C57 C 0.278000 0.714000 0.862270
H58 H 0.185000 0.681000 0.864000
C59 C 0.384700 0.623500 0.856610
H60 H 0.364800 0.531800 0.854100
C61 C 0.520400 0.666590 0.854640
H62 H 0.592900 0.604700 0.849400
C63 C 0.756170 0.810920 1.041210
C64 C 0.651600 0.763710 1.138740
H65 H 0.560300 0.754400 1.116400
C66 C 0.679400 0.729600 1.270210
H67 H 0.607400 0.697400 1.336900
C68 C 0.813200 0.743280 1.302240
H69 H 0.832700 0.718900 1.391200
C70 C 0.918100 0.792000 1.205780
H71 H 1.008900 0.803000 1.228500
C72 C 0.890400 0.825100 1.075120
H73 H 0.959000 0.858000 1.009000
C74 C 0.842590 0.766410 0.795080
C75 C 0.920200 0.828500 0.678900
H76 H 0.913000 0.923000 0.643000
C77 C 1.006000 0.748700 0.620700
H78 H 1.058000 0.789000 0.548000
C79 C 1.017900 0.608000 0.679000
H80 H 1.081000 0.555000 0.642000
C81 C 0.946500 0.546700 0.797400
H82 H 0.957000 0.450800 0.838900
C83 C 0.859300 0.624850 0.855800
H84 H 0.810600 0.582300 0.937500
C85 C 0.740500 1.042290 0.829380
H86 H 0.780400 1.075900 0.893200
C87 C 0.705870 1.150490 0.715320
C88 C 0.710000 1.291030 0.714900
H89 H 0.734600 1.313800 0.790700
C90 C 0.679100 1.397600 0.606100
H91 H 0.683500 1.491400 0.608300
C92 C 0.641800 1.366600 0.494800
H93 H 0.620100 1.438900 0.420900
C94 C 0.636500 1.229700 0.491810
H95 H 0.611800 1.208100 0.415500
C96 C 0.667180 1.123860 0.600210
C97 C 0.678000 0.950000 0.484550
H98 H 0.598500 0.982800 0.434600
H99 H 0.762300 0.994000 0.434200
H100 H 0.683500 0.849100 0.502000
P101 P 0.723040 0.867490 0.869820
O102 O 0.663110 0.984990 0.605050

#END
