
#######################################################################
#
#                 Cambridge Crystallographic Data Centre
#                                CCDC 
#
#######################################################################
#
# If this CIF has been generated from an entry in the Cambridge 
# Structural Database, then it will include bibliographic, chemical, 
# crystal, experimental, refinement or atomic coordinate data resulting 
# from the CCDC's data processing and validation procedures.
#
#######################################################################

data_ACIWUE
_symmetry_cell_setting           monoclinic
_symmetry_space_group_name_H-M   'C 2/c'
_symmetry_Int_Tables_number      15
_space_group_name_Hall           '-C 2yn'
loop_
_symmetry_equiv_pos_site_id
_symmetry_equiv_pos_as_xyz
1 x,y,z
2 1/2+x,1/2+y,z
3 x,-y,1/2+z
4 1/2+x,1/2-y,1/2+z
5 -x,-y,-z
6 1/2-x,1/2-y,-z
7 -x,y,1/2-z
8 1/2-x,1/2+y,1/2-z
_cell_length_a                   26.1056(6)
_cell_length_b                   8.5047(3)
_cell_length_c                   19.1412(6)
_cell_angle_alpha                90
_cell_angle_beta                 131.4570(14)
_cell_angle_gamma                90
_cell_volume                     3184.98
loop_
_atom_site_label
_atom_site_type_symbol
_atom_site_fract_x
_atom_site_fract_y
_atom_site_fract_z
P1 P 0.10552(3) 0.22214(7) 0.98107(4)
O1 O 0.13851(8) 0.3321(2) 0.96070(11)
O2 O 0.24963(8) 0.1025(3) 1.07535(11)
O3 O 0.24410(9) 0.0267(2) 0.96022(13)
H1 H 0.2860(18) 0.090(4) 0.992(2)
C1 C 0.10083(10) 0.0220(3) 0.94438(14)
C2 C 0.04228(13) -0.0685(4) 0.90421(18)
H2 H 0.0063 -0.0250 0.8969
C3 C 0.03692(17) -0.2210(4) 0.8753(2)
H3 H -0.0019 -0.2801 0.8501
C4 C 0.08912(17) -0.2854(4) 0.8838(2)
H4 H 0.0858 -0.3884 0.8649
C5 C 0.14638(13) -0.1973(3) 0.92049(18)
H5 H 0.1807 -0.2401 0.9237
C6 C 0.15356(10) -0.0455(3) 0.95274(13)
C7 C 0.22044(10) 0.0376(3) 1.00260(14)
C8 C 0.01726(11) 0.2773(3) 0.91635(16)
C9 C -0.01124(12) 0.3038(3) 0.95387(18)
H6 H 0.0153 0.2959 1.0180
C10 C -0.07992(13) 0.3427(4) 0.8973(2)
H7 H -0.0993 0.3588 0.9235
C11 C -0.11910(13) 0.3575(3) 0.8032(2)
H8 H -0.1648 0.3860 0.7655
C12 C -0.09136(16) 0.3307(6) 0.7652(2)
H9 H -0.1181 0.3378 0.7011
C13 C -0.02372(16) 0.2931(7) 0.8214(2)
H10 H -0.0047 0.2776 0.7945
C14 C 0.14637(10) 0.2139(2) 1.10214(14)
C15 C 0.19747(12) 0.3204(3) 1.16349(16)
H11 H 0.2106 0.3943 1.1422
C16 C 0.22933(13) 0.3172(3) 1.25738(17)
H12 H 0.2637 0.3892 1.2987
C17 C 0.21031(14) 0.2092(3) 1.28866(17)
H13 H 0.2318 0.2077 1.3514
C18 C 0.15974(14) 0.1024(3) 1.22868(17)
H14 H 0.1471 0.0288 1.2508
C19 C 0.12746(12) 0.1042(3) 1.13520(15)
H15 H 0.0931 0.0319 1.0945
P1 P 0.60552(3) 0.72214(7) 0.98107(4)
O1 O 0.63851(8) 0.8321(2) 0.96070(11)
O2 O 0.74963(8) 0.6025(3) 1.07535(11)
O3 O 0.74410(9) 0.5267(2) 0.96022(13)
H1 H 0.7860(18) 0.590(4) 0.992(2)
C1 C 0.60083(10) 0.5220(3) 0.94438(14)
C2 C 0.54228(13) 0.4315(4) 0.90421(18)
H2 H 0.5063 0.4750 0.8969
C3 C 0.53692(17) 0.2790(4) 0.8753(2)
H3 H 0.4981 0.2199 0.8501
C4 C 0.58912(17) 0.2146(4) 0.8838(2)
H4 H 0.5858 0.1116 0.8649
C5 C 0.64638(13) 0.3027(3) 0.92049(18)
H5 H 0.6807 0.2599 0.9237
C6 C 0.65356(10) 0.4545(3) 0.95274(13)
C7 C 0.72044(10) 0.5376(3) 1.00260(14)
C8 C 0.51726(11) 0.7773(3) 0.91635(16)
C9 C 0.48876(12) 0.8038(3) 0.95387(18)
H6 H 0.5153 0.7959 1.0180
C10 C 0.42008(13) 0.8427(4) 0.8973(2)
H7 H 0.4007 0.8588 0.9235
C11 C 0.38090(13) 0.8575(3) 0.8032(2)
H8 H 0.3352 0.8860 0.7655
C12 C 0.40864(16) 0.8307(6) 0.7652(2)
H9 H 0.3819 0.8378 0.7011
C13 C 0.47628(16) 0.7931(7) 0.8214(2)
H10 H 0.4953 0.7776 0.7945
C14 C 0.64637(10) 0.7139(2) 1.10214(14)
C15 C 0.69747(12) 0.8204(3) 1.16349(16)
H11 H 0.7106 0.8943 1.1422
C16 C 0.72933(13) 0.8172(3) 1.25738(17)
H12 H 0.7637 0.8892 1.2987
C17 C 0.71031(14) 0.7092(3) 1.28866(17)
H13 H 0.7318 0.7077 1.3514
C18 C 0.65974(14) 0.6024(3) 1.22868(17)
H14 H 0.6471 0.5288 1.2508
C19 C 0.62746(12) 0.6042(3) 1.13520(15)
H15 H 0.5931 0.5319 1.0945
P1 P 0.10552(3) 0.77786(7) 0.48107(4)
O1 O 0.13851(8) 0.6679(2) 0.46070(11)
O2 O 0.24963(8) 0.8975(3) 0.57535(11)
O3 O 0.24410(9) 0.9733(2) 0.46022(13)
H1 H 0.2860(18) 0.910(4) 0.492(2)
C1 C 0.10083(10) 0.9780(3) 0.44438(14)
C2 C 0.04228(13) 1.0685(4) 0.40421(18)
H2 H 0.0063 1.0250 0.3969
C3 C 0.03692(17) 1.2210(4) 0.3753(2)
H3 H -0.0019 1.2801 0.3501
C4 C 0.08912(17) 1.2854(4) 0.3838(2)
H4 H 0.0858 1.3884 0.3649
C5 C 0.14638(13) 1.1973(3) 0.42049(18)
H5 H 0.1807 1.2401 0.4237
C6 C 0.15356(10) 1.0455(3) 0.45274(13)
C7 C 0.22044(10) 0.9624(3) 0.50260(14)
C8 C 0.01726(11) 0.7227(3) 0.41635(16)
C9 C -0.01124(12) 0.6962(3) 0.45387(18)
H6 H 0.0153 0.7041 0.5180
C10 C -0.07992(13) 0.6573(4) 0.3973(2)
H7 H -0.0993 0.6412 0.4235
C11 C -0.11910(13) 0.6425(3) 0.3032(2)
H8 H -0.1648 0.6140 0.2655
C12 C -0.09136(16) 0.6693(6) 0.2652(2)
H9 H -0.1181 0.6622 0.2011
C13 C -0.02372(16) 0.7069(7) 0.3214(2)
H10 H -0.0047 0.7224 0.2945
C14 C 0.14637(10) 0.7861(2) 0.60214(14)
C15 C 0.19747(12) 0.6796(3) 0.66349(16)
H11 H 0.2106 0.6057 0.6422
C16 C 0.22933(13) 0.6828(3) 0.75738(17)
H12 H 0.2637 0.6108 0.7987
C17 C 0.21031(14) 0.7908(3) 0.78866(17)
H13 H 0.2318 0.7923 0.8514
C18 C 0.15974(14) 0.8976(3) 0.72868(17)
H14 H 0.1471 0.9712 0.7508
C19 C 0.12746(12) 0.8958(3) 0.63520(15)
H15 H 0.0931 0.9681 0.5945
P1 P 0.60552(3) 0.27786(7) 0.48107(4)
O1 O 0.63851(8) 0.1679(2) 0.46070(11)
O2 O 0.74963(8) 0.3975(3) 0.57535(11)
O3 O 0.74410(9) 0.4733(2) 0.46022(13)
H1 H 0.7860(18) 0.410(4) 0.492(2)
C1 C 0.60083(10) 0.4780(3) 0.44438(14)
C2 C 0.54228(13) 0.5685(4) 0.40421(18)
H2 H 0.5063 0.5250 0.3969
C3 C 0.53692(17) 0.7210(4) 0.3753(2)
H3 H 0.4981 0.7801 0.3501
C4 C 0.58912(17) 0.7854(4) 0.3838(2)
H4 H 0.5858 0.8884 0.3649
C5 C 0.64638(13) 0.6973(3) 0.42049(18)
H5 H 0.6807 0.7401 0.4237
C6 C 0.65356(10) 0.5455(3) 0.45274(13)
C7 C 0.72044(10) 0.4624(3) 0.50260(14)
C8 C 0.51726(11) 0.2227(3) 0.41635(16)
C9 C 0.48876(12) 0.1962(3) 0.45387(18)
H6 H 0.5153 0.2041 0.5180
C10 C 0.42008(13) 0.1573(4) 0.3973(2)
H7 H 0.4007 0.1412 0.4235
C11 C 0.38090(13) 0.1425(3) 0.3032(2)
H8 H 0.3352 0.1140 0.2655
C12 C 0.40864(16) 0.1693(6) 0.2652(2)
H9 H 0.3819 0.1622 0.2011
C13 C 0.47628(16) 0.2069(7) 0.3214(2)
H10 H 0.4953 0.2224 0.2945
C14 C 0.64637(10) 0.2861(2) 0.60214(14)
C15 C 0.69747(12) 0.1796(3) 0.66349(16)
H11 H 0.7106 0.1057 0.6422
C16 C 0.72933(13) 0.1828(3) 0.75738(17)
H12 H 0.7637 0.1108 0.7987
C17 C 0.71031(14) 0.2908(3) 0.78866(17)
H13 H 0.7318 0.2923 0.8514
C18 C 0.65974(14) 0.3976(3) 0.72868(17)
H14 H 0.6471 0.4712 0.7508
C19 C 0.62746(12) 0.3958(3) 0.63520(15)
H15 H 0.5931 0.4681 0.5945
P1 P 0.89448(3) 0.77786(7) 0.01893(4)
O1 O 0.86149(8) 0.6679(2) 0.03930(11)
O2 O 0.75037(8) 0.8975(3) -0.07535(11)
O3 O 0.75590(9) 0.9733(2) 0.03978(13)
H1 H 0.7140(18) 0.910(4) 0.008(2)
C1 C 0.89917(10) 0.9780(3) 0.05562(14)
C2 C 0.95772(13) 1.0685(4) 0.09579(18)
H2 H 0.9937 1.0250 0.1031
C3 C 0.96308(17) 1.2210(4) 0.1247(2)
H3 H 1.0019 1.2801 0.1499
C4 C 0.91088(17) 1.2854(4) 0.1162(2)
H4 H 0.9142 1.3884 0.1351
C5 C 0.85362(13) 1.1973(3) 0.07951(18)
H5 H 0.8193 1.2401 0.0763
C6 C 0.84644(10) 1.0455(3) 0.04726(13)
C7 C 0.77956(10) 0.9624(3) -0.00260(14)
C8 C 0.98274(11) 0.7227(3) 0.08365(16)
C9 C 1.01124(12) 0.6962(3) 0.04613(18)
H6 H 0.9847 0.7041 -0.0180
C10 C 1.07992(13) 0.6573(4) 0.1027(2)
H7 H 1.0993 0.6412 0.0765
C11 C 1.11910(13) 0.6425(3) 0.1968(2)
H8 H 1.1648 0.6140 0.2345
C12 C 1.09136(16) 0.6693(6) 0.2348(2)
H9 H 1.1181 0.6622 0.2989
C13 C 1.02372(16) 0.7069(7) 0.1786(2)
H10 H 1.0047 0.7224 0.2055
C14 C 0.85363(10) 0.7861(2) -0.10214(14)
C15 C 0.80253(12) 0.6796(3) -0.16349(16)
H11 H 0.7894 0.6057 -0.1422
C16 C 0.77067(13) 0.6828(3) -0.25738(17)
H12 H 0.7363 0.6108 -0.2987
C17 C 0.78969(14) 0.7908(3) -0.28866(17)
H13 H 0.7682 0.7923 -0.3514
C18 C 0.84026(14) 0.8976(3) -0.22868(17)
H14 H 0.8529 0.9712 -0.2508
C19 C 0.87254(12) 0.8958(3) -0.13520(15)
H15 H 0.9069 0.9681 -0.0945
P1 P 0.39448(3) 0.27786(7) 0.01893(4)
O1 O 0.36149(8) 0.1679(2) 0.03930(11)
O2 O 0.25037(8) 0.3975(3) -0.07535(11)
O3 O 0.25590(9) 0.4733(2) 0.03978(13)
H1 H 0.2140(18) 0.410(4) 0.008(2)
C1 C 0.39917(10) 0.4780(3) 0.05562(14)
C2 C 0.45772(13) 0.5685(4) 0.09579(18)
H2 H 0.4937 0.5250 0.1031
C3 C 0.46308(17) 0.7210(4) 0.1247(2)
H3 H 0.5019 0.7801 0.1499
C4 C 0.41088(17) 0.7854(4) 0.1162(2)
H4 H 0.4142 0.8884 0.1351
C5 C 0.35362(13) 0.6973(3) 0.07951(18)
H5 H 0.3193 0.7401 0.0763
C6 C 0.34644(10) 0.5455(3) 0.04726(13)
C7 C 0.27956(10) 0.4624(3) -0.00260(14)
C8 C 0.48274(11) 0.2227(3) 0.08365(16)
C9 C 0.51124(12) 0.1962(3) 0.04613(18)
H6 H 0.4847 0.2041 -0.0180
C10 C 0.57992(13) 0.1573(4) 0.1027(2)
H7 H 0.5993 0.1412 0.0765
C11 C 0.61910(13) 0.1425(3) 0.1968(2)
H8 H 0.6648 0.1140 0.2345
C12 C 0.59136(16) 0.1693(6) 0.2348(2)
H9 H 0.6181 0.1622 0.2989
C13 C 0.52372(16) 0.2069(7) 0.1786(2)
H10 H 0.5047 0.2224 0.2055
C14 C 0.35363(10) 0.2861(2) -0.10214(14)
C15 C 0.30253(12) 0.1796(3) -0.16349(16)
H11 H 0.2894 0.1057 -0.1422
C16 C 0.27067(13) 0.1828(3) -0.25738(17)
H12 H 0.2363 0.1108 -0.2987
C17 C 0.28969(14) 0.2908(3) -0.28866(17)
H13 H 0.2682 0.2923 -0.3514
C18 C 0.34026(14) 0.3976(3) -0.22868(17)
H14 H 0.3529 0.4712 -0.2508
C19 C 0.37254(12) 0.3958(3) -0.13520(15)
H15 H 0.4069 0.4681 -0.0945
P1 P 0.89448(3) 0.22214(7) 0.51893(4)
O1 O 0.86149(8) 0.3321(2) 0.53930(11)
O2 O 0.75037(8) 0.1025(3) 0.42465(11)
O3 O 0.75590(9) 0.0267(2) 0.53978(13)
H1 H 0.7140(18) 0.090(4) 0.508(2)
C1 C 0.89917(10) 0.0220(3) 0.55562(14)
C2 C 0.95772(13) -0.0685(4) 0.59579(18)
H2 H 0.9937 -0.0250 0.6031
C3 C 0.96308(17) -0.2210(4) 0.6247(2)
H3 H 1.0019 -0.2801 0.6499
C4 C 0.91088(17) -0.2854(4) 0.6162(2)
H4 H 0.9142 -0.3884 0.6351
C5 C 0.85362(13) -0.1973(3) 0.57951(18)
H5 H 0.8193 -0.2401 0.5763
C6 C 0.84644(10) -0.0455(3) 0.54726(13)
C7 C 0.77956(10) 0.0376(3) 0.49740(14)
C8 C 0.98274(11) 0.2773(3) 0.58365(16)
C9 C 1.01124(12) 0.3038(3) 0.54613(18)
H6 H 0.9847 0.2959 0.4820
C10 C 1.07992(13) 0.3427(4) 0.6027(2)
H7 H 1.0993 0.3588 0.5765
C11 C 1.11910(13) 0.3575(3) 0.6968(2)
H8 H 1.1648 0.3860 0.7345
C12 C 1.09136(16) 0.3307(6) 0.7348(2)
H9 H 1.1181 0.3378 0.7989
C13 C 1.02372(16) 0.2931(7) 0.6786(2)
H10 H 1.0047 0.2776 0.7055
C14 C 0.85363(10) 0.2139(2) 0.39786(14)
C15 C 0.80253(12) 0.3204(3) 0.33651(16)
H11 H 0.7894 0.3943 0.3578
C16 C 0.77067(13) 0.3172(3) 0.24262(17)
H12 H 0.7363 0.3892 0.2013
C17 C 0.78969(14) 0.2092(3) 0.21134(17)
H13 H 0.7682 0.2077 0.1486
C18 C 0.84026(14) 0.1024(3) 0.27132(17)
H14 H 0.8529 0.0288 0.2492
C19 C 0.87254(12) 0.1042(3) 0.36480(15)
H15 H 0.9069 0.0319 0.4055
P1 P 0.39448(3) 0.72214(7) 0.51893(4)
O1 O 0.36149(8) 0.8321(2) 0.53930(11)
O2 O 0.25037(8) 0.6025(3) 0.42465(11)
O3 O 0.25590(9) 0.5267(2) 0.53978(13)
H1 H 0.2140(18) 0.590(4) 0.508(2)
C1 C 0.39917(10) 0.5220(3) 0.55562(14)
C2 C 0.45772(13) 0.4315(4) 0.59579(18)
H2 H 0.4937 0.4750 0.6031
C3 C 0.46308(17) 0.2790(4) 0.6247(2)
H3 H 0.5019 0.2199 0.6499
C4 C 0.41088(17) 0.2146(4) 0.6162(2)
H4 H 0.4142 0.1116 0.6351
C5 C 0.35362(13) 0.3027(3) 0.57951(18)
H5 H 0.3193 0.2599 0.5763
C6 C 0.34644(10) 0.4545(3) 0.54726(13)
C7 C 0.27956(10) 0.5376(3) 0.49740(14)
C8 C 0.48274(11) 0.7773(3) 0.58365(16)
C9 C 0.51124(12) 0.8038(3) 0.54613(18)
H6 H 0.4847 0.7959 0.4820
C10 C 0.57992(13) 0.8427(4) 0.6027(2)
H7 H 0.5993 0.8588 0.5765
C11 C 0.61910(13) 0.8575(3) 0.6968(2)
H8 H 0.6648 0.8860 0.7345
C12 C 0.59136(16) 0.8307(6) 0.7348(2)
H9 H 0.6181 0.8378 0.7989
C13 C 0.52372(16) 0.7931(7) 0.6786(2)
H10 H 0.5047 0.7776 0.7055
C14 C 0.35363(10) 0.7139(2) 0.39786(14)
C15 C 0.30253(12) 0.8204(3) 0.33651(16)
H11 H 0.2894 0.8943 0.3578
C16 C 0.27067(13) 0.8172(3) 0.24262(17)
H12 H 0.2363 0.8892 0.2013
C17 C 0.28969(14) 0.7092(3) 0.21134(17)
H13 H 0.2682 0.7077 0.1486
C18 C 0.34026(14) 0.6024(3) 0.27132(17)
H14 H 0.3529 0.5288 0.2492
C19 C 0.37254(12) 0.6042(3) 0.36480(15)
H15 H 0.4069 0.5319 0.4055

#END
