./ACIXAL_from_xyz.cif_generated_by_CrystalShift
_symmetry_cell_setting triclinic
_symmetry_space_group_name_H-M 'P 1'
loop_
_symmetry_equiv_pos_site_id
_symmetry_equiv_pos_as_xyz
1 x,y,z
_cell_length_a 5.635500
_cell_length_b 11.143500
_cell_length_c 13.205700
_cell_angle_alpha 95.596000
_cell_angle_beta 100.257000
_cell_angle_gamma 100.286000
_cell_volume 795.745817
loop_
_atom_site_label
_atom_site_type_symbol
_atom_site_fract_x
_atom_site_fract_y
_atom_site_fract_z
P1 P 1.048270 0.818160 0.197040
O2 O 1.295300 0.918780 0.399430
O3 O 1.316200 1.110490 0.469310
H4 H 1.445300 1.093300 0.516000
C5 C 0.901300 0.947300 0.233350
C6 C 0.701800 0.973400 0.166700
H7 H 0.639300 0.923100 0.103700
C8 C 0.593000 1.071600 0.191100
H9 H 0.459100 1.086000 0.144900
C10 C 0.683200 1.148000 0.283500
H11 H 0.607900 1.212800 0.300800
C12 C 0.884900 1.128000 0.350000
H13 H 0.948000 1.180900 0.411600
C14 C 0.996800 1.029400 0.326470
C15 C 1.213100 1.013100 0.401100
C16 C 0.927700 0.700300 0.272520
C17 C 0.745600 0.708000 0.329500
H18 H 0.669600 0.775600 0.328500
C19 C 0.675600 0.615900 0.388000
H20 H 0.555200 0.622800 0.426900
C21 C 0.783100 0.514800 0.388700
H22 H 0.736400 0.453500 0.428400
C23 C 0.959000 0.504300 0.331200
H24 H 1.030000 0.435100 0.330400
C25 C 1.030400 0.596500 0.274300
H26 H 1.151300 0.588800 0.235900
C27 C 0.867000 0.755300 0.066950
C28 C 0.629900 0.684400 0.045200
H29 H 0.546100 0.670800 0.099000
C30 C 0.517500 0.634000 -0.055300
H31 H 0.358700 0.587000 -0.068900
C32 C 0.640100 0.653200 -0.135200
H33 H 0.566500 0.616900 -0.202500
C34 C 0.869600 0.725500 -0.115800
H35 H 0.950200 0.741000 -0.170200
C36 C 0.982200 0.775500 -0.015500
H37 H 1.139500 0.824000 -0.003000
P38 P -0.048270 0.181840 0.802960
O39 O -0.295300 0.081220 0.600570
O40 O -0.316200 -0.110490 0.530690
H41 H -0.445300 -0.093300 0.484000
C42 C 0.098700 0.052700 0.766650
C43 C 0.298200 0.026600 0.833300
H44 H 0.360700 0.076900 0.896300
C45 C 0.407000 -0.071600 0.808900
H46 H 0.540900 -0.086000 0.855100
C47 C 0.316800 -0.148000 0.716500
H48 H 0.392100 -0.212800 0.699200
C49 C 0.115100 -0.128000 0.650000
H50 H 0.052000 -0.180900 0.588400
C51 C 0.003200 -0.029400 0.673530
C52 C -0.213100 -0.013100 0.598900
C53 C 0.072300 0.299700 0.727480
C54 C 0.254400 0.292000 0.670500
H55 H 0.330400 0.224400 0.671500
C56 C 0.324400 0.384100 0.612000
H57 H 0.444800 0.377200 0.573100
C58 C 0.216900 0.485200 0.611300
H59 H 0.263600 0.546500 0.571600
C60 C 0.041000 0.495700 0.668800
H61 H -0.030000 0.564900 0.669600
C62 C -0.030400 0.403500 0.725700
H63 H -0.151300 0.411200 0.764100
C64 C 0.133000 0.244700 0.933050
C65 C 0.370100 0.315600 0.954800
H66 H 0.453900 0.329200 0.901000
C67 C 0.482500 0.366000 1.055300
H68 H 0.641300 0.413000 1.068900
C69 C 0.359900 0.346800 1.135200
H70 H 0.433500 0.383100 1.202500
C71 C 0.130400 0.274500 1.115800
H72 H 0.049800 0.259000 1.170200
C73 C 0.017800 0.224500 1.015500
H74 H -0.139500 0.176000 1.003000

#END
