./ACIZAP_from_xyz.cif_generated_by_CrystalShift
_symmetry_cell_setting triclinic
_symmetry_space_group_name_H-M 'P 1'
loop_
_symmetry_equiv_pos_site_id
_symmetry_equiv_pos_as_xyz
1 x,y,z
_cell_length_a 8.397700
_cell_length_b 17.127200
_cell_length_c 10.698100
_cell_angle_alpha 90.000000
_cell_angle_beta 93.352000
_cell_angle_gamma 90.000000
_cell_volume 1536.065457
loop_
_atom_site_label
_atom_site_type_symbol
_atom_site_fract_x
_atom_site_fract_y
_atom_site_fract_z
S1 S 0.334000 0.030700 0.633530
N2 N 0.285610 0.032500 0.388260
N3 N 0.121690 0.112990 0.494670
C4 C 0.242190 0.061150 0.498230
C5 C 0.065960 0.155020 0.597870
C6 C -0.093830 0.150150 0.620980
C7 C 0.167380 0.203740 0.668520
C8 C 0.108380 0.247480 0.764610
C9 C -0.053000 0.242870 0.785640
C10 C -0.155500 0.195500 0.714490
C11 C 0.216900 0.298230 0.845600
C12 C -0.330700 0.194910 0.735900
C13 C 0.296010 0.098800 0.060960
C14 C 0.230080 0.055940 0.266170
C15 C 0.342630 0.075830 0.181960
C16 C 0.068260 0.057270 0.228550
C17 C -0.154430 0.087670 0.068690
C18 C 0.019460 0.082570 0.109380
C19 C 0.419010 0.119480 -0.029330
C20 C 0.134210 0.103150 0.026700
H21 H -0.175000 0.070900 -0.019000
H22 H -0.190000 0.140100 0.072000
H23 H -0.217000 0.058500 0.122000
H24 H 0.162000 0.349000 0.856000
H25 H 0.236000 0.273900 0.928000
H26 H 0.318000 0.305000 0.815000
H27 H 0.373000 0.127900 -0.107000
H28 H 0.474000 0.168800 0.000000
H29 H 0.493000 0.079400 -0.036000
H30 H 0.449000 0.074700 0.207400
H31 H -0.163000 0.115000 0.571900
H32 H 0.100000 0.118500 -0.055500
H33 H 0.075000 0.121300 0.425000
H34 H -0.005000 0.037800 0.284500
H35 H 0.277000 0.204900 0.648000
H36 H -0.096000 0.275300 0.857000
H37 H 0.366000 0.012600 0.393500
H38 H -0.346000 0.211000 0.823000
H39 H -0.365000 0.146000 0.734000
H40 H -0.392000 0.232000 0.694000
S41 S 0.166000 0.530700 -0.133530
N42 N 0.214390 0.532500 0.111740
N43 N 0.378310 0.612990 0.005330
C44 C 0.257810 0.561150 0.001770
C45 C 0.434040 0.655020 -0.097870
C46 C 0.593830 0.650150 -0.120980
C47 C 0.332620 0.703740 -0.168520
C48 C 0.391620 0.747480 -0.264610
C49 C 0.553000 0.742870 -0.285640
C50 C 0.655500 0.695500 -0.214490
C51 C 0.283100 0.798230 -0.345600
C52 C 0.830700 0.694910 -0.235900
C53 C 0.203990 0.598800 0.439040
C54 C 0.269920 0.555940 0.233830
C55 C 0.157370 0.575830 0.318040
C56 C 0.431740 0.557270 0.271450
C57 C 0.654430 0.587670 0.431310
C58 C 0.480540 0.582570 0.390620
C59 C 0.080990 0.619480 0.529330
C60 C 0.365790 0.603150 0.473300
H61 H 0.675000 0.570900 0.519000
H62 H 0.690000 0.640100 0.428000
H63 H 0.717000 0.558500 0.378000
H64 H 0.338000 0.849000 -0.356000
H65 H 0.264000 0.773900 -0.428000
H66 H 0.182000 0.805000 -0.315000
H67 H 0.127000 0.627900 0.607000
H68 H 0.026000 0.668800 0.500000
H69 H 0.007000 0.579400 0.536000
H70 H 0.051000 0.574700 0.292600
H71 H 0.663000 0.615000 -0.071900
H72 H 0.400000 0.618500 0.555500
H73 H 0.425000 0.621300 0.075000
H74 H 0.505000 0.537800 0.215500
H75 H 0.223000 0.704900 -0.148000
H76 H 0.596000 0.775300 -0.357000
H77 H 0.134000 0.512600 0.106500
H78 H 0.846000 0.711000 -0.323000
H79 H 0.865000 0.646000 -0.234000
H80 H 0.892000 0.732000 -0.194000
S81 S 0.666000 0.969300 0.366470
N82 N 0.714390 0.967500 0.611740
N83 N 0.878310 0.887010 0.505330
C84 C 0.757810 0.938850 0.501770
C85 C 0.934040 0.844980 0.402130
C86 C 1.093830 0.849850 0.379020
C87 C 0.832620 0.796260 0.331480
C88 C 0.891620 0.752520 0.235390
C89 C 1.053000 0.757130 0.214360
C90 C 1.155500 0.804500 0.285510
C91 C 0.783100 0.701770 0.154400
C92 C 1.330700 0.805090 0.264100
C93 C 0.703990 0.901200 0.939040
C94 C 0.769920 0.944060 0.733830
C95 C 0.657370 0.924170 0.818040
C96 C 0.931740 0.942730 0.771450
C97 C 1.154430 0.912330 0.931310
C98 C 0.980540 0.917430 0.890620
C99 C 0.580990 0.880520 1.029330
C100 C 0.865790 0.896850 0.973300
H101 H 1.175000 0.929100 1.019000
H102 H 1.190000 0.859900 0.928000
H103 H 1.217000 0.941500 0.878000
H104 H 0.838000 0.651000 0.144000
H105 H 0.764000 0.726100 0.072000
H106 H 0.682000 0.695000 0.185000
H107 H 0.627000 0.872100 1.107000
H108 H 0.526000 0.831200 1.000000
H109 H 0.507000 0.920600 1.036000
H110 H 0.551000 0.925300 0.792600
H111 H 1.163000 0.885000 0.428100
H112 H 0.900000 0.881500 1.055500
H113 H 0.925000 0.878700 0.575000
H114 H 1.005000 0.962200 0.715500
H115 H 0.723000 0.795100 0.352000
H116 H 1.096000 0.724700 0.143000
H117 H 0.634000 0.987400 0.606500
H118 H 1.346000 0.789000 0.177000
H119 H 1.365000 0.854000 0.266000
H120 H 1.392000 0.768000 0.306000
S121 S 0.834000 0.469300 1.133530
N122 N 0.785610 0.467500 0.888260
N123 N 0.621690 0.387010 0.994670
C124 C 0.742190 0.438850 0.998230
C125 C 0.565960 0.344980 1.097870
C126 C 0.406170 0.349850 1.120980
C127 C 0.667380 0.296260 1.168520
C128 C 0.608380 0.252520 1.264610
C129 C 0.447000 0.257130 1.285640
C130 C 0.344500 0.304500 1.214490
C131 C 0.716900 0.201770 1.345600
C132 C 0.169300 0.305090 1.235900
C133 C 0.796010 0.401200 0.560960
C134 C 0.730080 0.444060 0.766170
C135 C 0.842630 0.424170 0.681960
C136 C 0.568260 0.442730 0.728550
C137 C 0.345570 0.412330 0.568690
C138 C 0.519460 0.417430 0.609380
C139 C 0.919010 0.380520 0.470670
C140 C 0.634210 0.396850 0.526700
H141 H 0.325000 0.429100 0.481000
H142 H 0.310000 0.359900 0.572000
H143 H 0.283000 0.441500 0.622000
H144 H 0.662000 0.151000 1.356000
H145 H 0.736000 0.226100 1.428000
H146 H 0.818000 0.195000 1.315000
H147 H 0.873000 0.372100 0.393000
H148 H 0.974000 0.331200 0.500000
H149 H 0.993000 0.420600 0.464000
H150 H 0.949000 0.425300 0.707400
H151 H 0.337000 0.385000 1.071900
H152 H 0.600000 0.381500 0.444500
H153 H 0.575000 0.378700 0.925000
H154 H 0.495000 0.462200 0.784500
H155 H 0.777000 0.295100 1.148000
H156 H 0.404000 0.224700 1.357000
H157 H 0.866000 0.487400 0.893500
H158 H 0.154000 0.289000 1.323000
H159 H 0.135000 0.354000 1.234000
H160 H 0.108000 0.268000 1.194000

#END
