
#######################################################################
#
#                 Cambridge Crystallographic Data Centre
#                                CCDC 
#
#######################################################################
#
# If this CIF has been generated from an entry in the Cambridge 
# Structural Database, then it will include bibliographic, chemical, 
# crystal, experimental, refinement or atomic coordinate data resulting 
# from the CCDC's data processing and validation procedures.
#
#######################################################################

data_ACLTRY
_symmetry_cell_setting           orthorhombic
_symmetry_space_group_name_H-M   'P 21 21 21'
_symmetry_Int_Tables_number      19
_space_group_name_Hall           'P 2ac 2ab'
loop_
_symmetry_equiv_pos_site_id
_symmetry_equiv_pos_as_xyz
1 x,y,z
2 1/2+x,1/2-y,-z
3 -x,1/2+y,1/2-z
4 1/2-x,-y,1/2+z
_cell_length_a                   7.470(1)
_cell_length_b                   25.912(4)
_cell_length_c                   6.247(1)
_cell_angle_alpha                90
_cell_angle_beta                 90
_cell_angle_gamma                90
_cell_volume                     1209.19
loop_
_atom_site_label
_atom_site_type_symbol
_atom_site_fract_x
_atom_site_fract_y
_atom_site_fract_z
C1 C 0.92920 0.00950 0.86550
C2 C 0.90210 -0.04360 0.85320
C3 C 0.95200 -0.07190 0.66960
C4 C 1.02700 -0.04790 0.49360
C5 C 1.05380 0.00510 0.50930
C6 C 1.01350 0.03350 0.69370
C7 C 1.06530 0.08610 0.64930
C8 C 1.13680 0.08710 0.44510
N1 N 1.12660 0.03770 0.36110
C9 C 1.06230 0.13080 0.79800
C10 C 0.87200 0.14940 0.85550
C11 C 0.88850 0.19270 1.01710
O1 O 0.89370 0.23930 0.93340
O2 O 0.90810 0.18490 1.20640
N2 N 0.77210 0.16520 0.66980
C12 C 0.60400 0.18370 0.68630
C13 C 0.52220 0.20470 0.48590
O3 O 0.52760 0.18380 0.85830
H1 H 0.92800 0.02100 1.00100
H2 H 0.85700 -0.07000 0.93400
H3 H 0.92500 -0.11300 0.61900
H4 H 1.06200 -0.06400 0.32800
H5 H 1.16100 0.03000 0.24200
H6 H 1.17300 0.12400 0.38300
H7 H 1.12200 0.17000 0.75200
H8 H 1.14000 0.11500 0.92300
H9 H 0.81700 0.11300 0.90100
H10 H 0.82300 0.16900 0.54500
H11 H 0.42000 0.18600 0.46400
H12 H 0.44500 0.24800 0.52800
H13 H 0.59100 0.20100 0.36100
C1 C 0.42920 0.49050 0.13450
C2 C 0.40210 0.54360 0.14680
C3 C 0.45200 0.57190 0.33040
C4 C 0.52700 0.54790 0.50640
C5 C 0.55380 0.49490 0.49070
C6 C 0.51350 0.46650 0.30630
C7 C 0.56530 0.41390 0.35070
C8 C 0.63680 0.41290 0.55490
N1 N 0.62660 0.46230 0.63890
C9 C 0.56230 0.36920 0.20200
C10 C 0.37200 0.35060 0.14450
C11 C 0.38850 0.30730 -0.01710
O1 O 0.39370 0.26070 0.06660
O2 O 0.40810 0.31510 -0.20640
N2 N 0.27210 0.33480 0.33020
C12 C 0.10400 0.31630 0.31370
C13 C 0.02220 0.29530 0.51410
O3 O 0.02760 0.31620 0.14170
H1 H 0.42800 0.47900 -0.00100
H2 H 0.35700 0.57000 0.06600
H3 H 0.42500 0.61300 0.38100
H4 H 0.56200 0.56400 0.67200
H5 H 0.66100 0.47000 0.75800
H6 H 0.67300 0.37600 0.61700
H7 H 0.62200 0.33000 0.24800
H8 H 0.64000 0.38500 0.07700
H9 H 0.31700 0.38700 0.09900
H10 H 0.32300 0.33100 0.45500
H11 H -0.08000 0.31400 0.53600
H12 H -0.05500 0.25200 0.47200
H13 H 0.09100 0.29900 0.63900
C1 C 0.07080 0.50950 0.63450
C2 C 0.09790 0.45640 0.64680
C3 C 0.04800 0.42810 0.83040
C4 C -0.02700 0.45210 1.00640
C5 C -0.05380 0.50510 0.99070
C6 C -0.01350 0.53350 0.80630
C7 C -0.06530 0.58610 0.85070
C8 C -0.13680 0.58710 1.05490
N1 N -0.12660 0.53770 1.13890
C9 C -0.06230 0.63080 0.70200
C10 C 0.12800 0.64940 0.64450
C11 C 0.11150 0.69270 0.48290
O1 O 0.10630 0.73930 0.56660
O2 O 0.09190 0.68490 0.29360
N2 N 0.22790 0.66520 0.83020
C12 C 0.39600 0.68370 0.81370
C13 C 0.47780 0.70470 1.01410
O3 O 0.47240 0.68380 0.64170
H1 H 0.07200 0.52100 0.49900
H2 H 0.14300 0.43000 0.56600
H3 H 0.07500 0.38700 0.88100
H4 H -0.06200 0.43600 1.17200
H5 H -0.16100 0.53000 1.25800
H6 H -0.17300 0.62400 1.11700
H7 H -0.12200 0.67000 0.74800
H8 H -0.14000 0.61500 0.57700
H9 H 0.18300 0.61300 0.59900
H10 H 0.17700 0.66900 0.95500
H11 H 0.58000 0.68600 1.03600
H12 H 0.55500 0.74800 0.97200
H13 H 0.40900 0.70100 1.13900
C1 C 0.57080 0.99050 0.36550
C2 C 0.59790 1.04360 0.35320
C3 C 0.54800 1.07190 0.16960
C4 C 0.47300 1.04790 -0.00640
C5 C 0.44620 0.99490 0.00930
C6 C 0.48650 0.96650 0.19370
C7 C 0.43470 0.91390 0.14930
C8 C 0.36320 0.91290 -0.05490
N1 N 0.37340 0.96230 -0.13890
C9 C 0.43770 0.86920 0.29800
C10 C 0.62800 0.85060 0.35550
C11 C 0.61150 0.80730 0.51710
O1 O 0.60630 0.76070 0.43340
O2 O 0.59190 0.81510 0.70640
N2 N 0.72790 0.83480 0.16980
C12 C 0.89600 0.81630 0.18630
C13 C 0.97780 0.79530 -0.01410
O3 O 0.97240 0.81620 0.35830
H1 H 0.57200 0.97900 0.50100
H2 H 0.64300 1.07000 0.43400
H3 H 0.57500 1.11300 0.11900
H4 H 0.43800 1.06400 -0.17200
H5 H 0.33900 0.97000 -0.25800
H6 H 0.32700 0.87600 -0.11700
H7 H 0.37800 0.83000 0.25200
H8 H 0.36000 0.88500 0.42300
H9 H 0.68300 0.88700 0.40100
H10 H 0.67700 0.83100 0.04500
H11 H 1.08000 0.81400 -0.03600
H12 H 1.05500 0.75200 0.02800
H13 H 0.90900 0.79900 -0.13900

#END
