./ACMEPT10_from_xyz.cif_generated_by_CrystalShift
_symmetry_cell_setting triclinic
_symmetry_space_group_name_H-M 'P 1'
loop_
_symmetry_equiv_pos_site_id
_symmetry_equiv_pos_as_xyz
1 x,y,z
_cell_length_a 6.549700
_cell_length_b 12.654000
_cell_length_c 13.887000
_cell_angle_alpha 90.000000
_cell_angle_beta 101.902000
_cell_angle_gamma 90.000000
_cell_volume 1126.209760
loop_
_atom_site_label
_atom_site_type_symbol
_atom_site_fract_x
_atom_site_fract_y
_atom_site_fract_z
C1 C 0.401500 0.128500 0.994200
C2 C 0.232500 0.116600 0.900900
C3 C 0.256500 0.217200 0.946500
C4 C 0.367600 0.197100 0.861600
C5 C 0.556800 0.160500 0.934000
O6 O 0.742100 0.160700 0.941400
C7 C 0.077700 0.035100 0.862500
O8 O 0.190900 -0.056500 0.840400
C9 C 0.076500 -0.144000 0.818100
O10 O -0.107800 -0.146000 0.814900
C11 C 0.206400 -0.235000 0.800900
C12 C 0.148000 0.305000 0.984400
O13 O 0.307900 0.375600 1.033500
C14 C 0.251500 0.445500 1.095700
O15 O 0.080000 0.449100 1.112500
C16 C 0.431700 0.512200 1.142200
H17 H 0.405000 0.098000 1.057000
H18 H 0.345000 0.229000 0.800000
H19 H -0.012000 0.058000 0.800000
H20 H -0.005000 0.014000 0.911000
H21 H 0.358000 -0.224000 0.816000
H22 H 0.178000 -0.252000 0.730000
H23 H 0.182000 -0.296000 0.831000
H24 H 0.062000 0.344000 0.930000
H25 H 0.076000 0.278000 1.031000
H26 H 0.411000 0.564000 1.101000
H27 H 0.422000 0.542000 1.195000
H28 H 0.553000 0.501000 1.122000
C29 C 0.598500 0.628500 0.505800
C30 C 0.767500 0.616600 0.599100
C31 C 0.743500 0.717200 0.553500
C32 C 0.632400 0.697100 0.638400
C33 C 0.443200 0.660500 0.566000
O34 O 0.257900 0.660700 0.558600
C35 C 0.922300 0.535100 0.637500
O36 O 0.809100 0.443500 0.659600
C37 C 0.923500 0.356000 0.681900
O38 O 1.107800 0.354000 0.685100
C39 C 0.793600 0.265000 0.699100
C40 C 0.852000 0.805000 0.515600
O41 O 0.692100 0.875600 0.466500
C42 C 0.748500 0.945500 0.404300
O43 O 0.920000 0.949100 0.387500
C44 C 0.568300 1.012200 0.357800
H45 H 0.595000 0.598000 0.443000
H46 H 0.655000 0.729000 0.700000
H47 H 1.012000 0.558000 0.700000
H48 H 1.005000 0.514000 0.589000
H49 H 0.642000 0.276000 0.684000
H50 H 0.822000 0.248000 0.770000
H51 H 0.818000 0.204000 0.669000
H52 H 0.938000 0.844000 0.570000
H53 H 0.924000 0.778000 0.469000
H54 H 0.589000 1.064000 0.399000
H55 H 0.578000 1.042000 0.305000
H56 H 0.447000 1.001000 0.378000
C57 C 0.598500 0.871500 0.005800
C58 C 0.767500 0.883400 0.099100
C59 C 0.743500 0.782800 0.053500
C60 C 0.632400 0.802900 0.138400
C61 C 0.443200 0.839500 0.066000
O62 O 0.257900 0.839300 0.058600
C63 C 0.922300 0.964900 0.137500
O64 O 0.809100 1.056500 0.159600
C65 C 0.923500 1.144000 0.181900
O66 O 1.107800 1.146000 0.185100
C67 C 0.793600 1.235000 0.199100
C68 C 0.852000 0.695000 0.015600
O69 O 0.692100 0.624400 -0.033500
C70 C 0.748500 0.554500 -0.095700
O71 O 0.920000 0.550900 -0.112500
C72 C 0.568300 0.487800 -0.142200
H73 H 0.595000 0.902000 -0.057000
H74 H 0.655000 0.771000 0.200000
H75 H 1.012000 0.942000 0.200000
H76 H 1.005000 0.986000 0.089000
H77 H 0.642000 1.224000 0.184000
H78 H 0.822000 1.252000 0.270000
H79 H 0.818000 1.296000 0.169000
H80 H 0.938000 0.656000 0.070000
H81 H 0.924000 0.722000 -0.031000
H82 H 0.589000 0.436000 -0.101000
H83 H 0.578000 0.458000 -0.195000
H84 H 0.447000 0.499000 -0.122000
C85 C 0.401500 0.371500 0.494200
C86 C 0.232500 0.383400 0.400900
C87 C 0.256500 0.282800 0.446500
C88 C 0.367600 0.302900 0.361600
C89 C 0.556800 0.339500 0.434000
O90 O 0.742100 0.339300 0.441400
C91 C 0.077700 0.464900 0.362500
O92 O 0.190900 0.556500 0.340400
C93 C 0.076500 0.644000 0.318100
O94 O -0.107800 0.646000 0.314900
C95 C 0.206400 0.735000 0.300900
C96 C 0.148000 0.195000 0.484400
O97 O 0.307900 0.124400 0.533500
C98 C 0.251500 0.054500 0.595700
O99 O 0.080000 0.050900 0.612500
C100 C 0.431700 -0.012200 0.642200
H101 H 0.405000 0.402000 0.557000
H102 H 0.345000 0.271000 0.300000
H103 H -0.012000 0.442000 0.300000
H104 H -0.005000 0.486000 0.411000
H105 H 0.358000 0.724000 0.316000
H106 H 0.178000 0.752000 0.230000
H107 H 0.182000 0.796000 0.331000
H108 H 0.062000 0.156000 0.430000
H109 H 0.076000 0.222000 0.531000
H110 H 0.411000 -0.064000 0.601000
H111 H 0.422000 -0.042000 0.695000
H112 H 0.553000 -0.001000 0.622000

#END
