./ACNPOL_from_xyz.cif_generated_by_CrystalShift
_symmetry_cell_setting triclinic
_symmetry_space_group_name_H-M 'P 1'
loop_
_symmetry_equiv_pos_site_id
_symmetry_equiv_pos_as_xyz
1 x,y,z
_cell_length_a 15.722000
_cell_length_b 4.952000
_cell_length_c 12.970000
_cell_angle_alpha 90.000000
_cell_angle_beta 119.300000
_cell_angle_gamma 90.000000
_cell_volume 880.601398
loop_
_atom_site_label
_atom_site_type_symbol
_atom_site_fract_x
_atom_site_fract_y
_atom_site_fract_z
C1 C 0.372200 0.120100 0.407000
C2 C 0.474600 0.395800 0.331600
C3 C 0.393000 0.317300 0.334100
C4 C 0.303700 0.440100 0.251900
C5 C 0.259000 0.129300 0.356700
C6 C 0.224100 0.346400 0.261000
C7 C 0.132800 0.444500 0.187800
C8 C 0.121700 0.645700 0.102800
C9 C 0.200000 0.741400 0.093700
C10 C 0.295300 0.636900 0.167100
C11 C 0.384600 0.716700 0.171400
C12 C 0.470900 0.595500 0.250900
H13 H 0.394000 -0.074000 0.396000
H14 H 0.245000 0.407000 0.479000
H15 H 0.221000 -0.041000 0.319000
H16 H 0.075000 0.343000 0.200000
H17 H 0.063000 0.736000 0.062000
H18 H 0.197000 0.890000 0.043000
H19 H 0.378000 0.869000 0.109000
H20 H 0.533000 0.684000 0.255000
H21 H 0.534000 0.307000 0.391000
H22 H 0.404000 0.168000 0.487000
O23 O 0.233000 0.199600 0.444300
C24 C 0.127800 0.620100 0.593000
C25 C 0.025400 0.895800 0.668400
C26 C 0.107000 0.817300 0.665900
C27 C 0.196300 0.940100 0.748100
C28 C 0.241000 0.629300 0.643300
C29 C 0.275900 0.846400 0.739000
C30 C 0.367200 0.944500 0.812200
C31 C 0.378300 1.145700 0.897200
C32 C 0.300000 1.241400 0.906300
C33 C 0.204700 1.136900 0.832900
C34 C 0.115400 1.216700 0.828600
C35 C 0.029100 1.095500 0.749100
H36 H 0.106000 0.426000 0.604000
H37 H 0.255000 0.907000 0.521000
H38 H 0.279000 0.459000 0.681000
H39 H 0.425000 0.843000 0.800000
H40 H 0.437000 1.236000 0.938000
H41 H 0.303000 1.390000 0.957000
H42 H 0.122000 1.369000 0.891000
H43 H -0.033000 1.184000 0.745000
H44 H -0.034000 0.807000 0.609000
H45 H 0.096000 0.668000 0.513000
O46 O 0.267000 0.699600 0.555700
C47 C 0.627800 0.879900 0.593000
C48 C 0.525400 0.604200 0.668400
C49 C 0.607000 0.682700 0.665900
C50 C 0.696300 0.559900 0.748100
C51 C 0.741000 0.870700 0.643300
C52 C 0.775900 0.653600 0.739000
C53 C 0.867200 0.555500 0.812200
C54 C 0.878300 0.354300 0.897200
C55 C 0.800000 0.258600 0.906300
C56 C 0.704700 0.363100 0.832900
C57 C 0.615400 0.283300 0.828600
C58 C 0.529100 0.404500 0.749100
H59 H 0.606000 1.074000 0.604000
H60 H 0.755000 0.593000 0.521000
H61 H 0.779000 1.041000 0.681000
H62 H 0.925000 0.657000 0.800000
H63 H 0.937000 0.264000 0.938000
H64 H 0.803000 0.110000 0.957000
H65 H 0.622000 0.131000 0.891000
H66 H 0.467000 0.316000 0.745000
H67 H 0.466000 0.693000 0.609000
H68 H 0.596000 0.832000 0.513000
O69 O 0.767000 0.800400 0.555700
C70 C 0.872200 0.379900 0.407000
C71 C 0.974600 0.104200 0.331600
C72 C 0.893000 0.182700 0.334100
C73 C 0.803700 0.059900 0.251900
C74 C 0.759000 0.370700 0.356700
C75 C 0.724100 0.153600 0.261000
C76 C 0.632800 0.055500 0.187800
C77 C 0.621700 -0.145700 0.102800
C78 C 0.700000 -0.241400 0.093700
C79 C 0.795300 -0.136900 0.167100
C80 C 0.884600 -0.216700 0.171400
C81 C 0.970900 -0.095500 0.250900
H82 H 0.894000 0.574000 0.396000
H83 H 0.745000 0.093000 0.479000
H84 H 0.721000 0.541000 0.319000
H85 H 0.575000 0.157000 0.200000
H86 H 0.563000 -0.236000 0.062000
H87 H 0.697000 -0.390000 0.043000
H88 H 0.878000 -0.369000 0.109000
H89 H 1.033000 -0.184000 0.255000
H90 H 1.034000 0.193000 0.391000
H91 H 0.904000 0.332000 0.487000
O92 O 0.733000 0.300400 0.444300

#END
