
#######################################################################
#
#                 Cambridge Crystallographic Data Centre
#                                CCDC 
#
#######################################################################
#
# If this CIF has been generated from an entry in the Cambridge 
# Structural Database, then it will include bibliographic, chemical, 
# crystal, experimental, refinement or atomic coordinate data resulting 
# from the CCDC's data processing and validation procedures.
#
#######################################################################

data_ACOBEZ01
_symmetry_cell_setting           monoclinic
_symmetry_space_group_name_H-M   'P 21/c'
_symmetry_Int_Tables_number      14
_space_group_name_Hall           '-P 2ybc'
loop_
_symmetry_equiv_pos_site_id
_symmetry_equiv_pos_as_xyz
1 x,y,z
2 -x,1/2+y,1/2-z
3 -x,-y,-z
4 x,1/2-y,1/2+z
_cell_length_a                   17.0709(13)
_cell_length_b                   13.0948(10)
_cell_length_c                   13.7356(10)
_cell_angle_alpha                90
_cell_angle_beta                 108.432(2)
_cell_angle_gamma                90
_cell_volume                     2912.94
loop_
_atom_site_label
_atom_site_type_symbol
_atom_site_fract_x
_atom_site_fract_y
_atom_site_fract_z
Ga1 Ga 0.28918(3) 0.88527(3) 1.02645(3)
Cl1 Cl 0.21291(6) 0.79986(8) 1.10411(8)
Cl2 Cl 0.38024(6) 0.98322(8) 1.13855(8)
N1 N 0.3478(2) 0.7988(3) 0.9595(3)
N2 N 0.2248(2) 0.9639(2) 0.9124(3)
C1 C 0.3563(2) 0.8304(3) 0.8708(3)
C2 C 0.3182(2) 0.9186(3) 0.8190(3)
H1 H 0.3393 0.9422 0.7667
C3 C 0.2545(2) 0.9764(3) 0.8328(3)
C4 C 0.4077(3) 0.7697(3) 0.8210(3)
H2 H 0.4223 0.7040 0.8563
H3 H 0.4582 0.8076 0.8254
H4 H 0.3762 0.7578 0.7488
C5 C 0.2156(3) 1.0584(3) 0.7543(3)
H5 H 0.2177 1.1241 0.7892
H6 H 0.1580 1.0405 0.7181
H7 H 0.2461 1.0636 0.7048
C6 C 0.3871(3) 0.7054(3) 1.0103(3)
C7 C 0.3390(3) 0.6157(3) 1.0007(3)
C8 C 0.3779(3) 0.5285(3) 1.0516(3)
H8 H 0.3468 0.4674 1.0463
C9 C 0.4598(3) 0.5281(3) 1.1091(3)
H9 H 0.4847 0.4674 1.1428
C10 C 0.5061(3) 0.6163(3) 1.1180(3)
H10 H 0.5629 0.6150 1.1577
C11 C 0.4718(3) 0.7076(3) 1.0700(3)
C12 C 0.5259(2) 0.8013(3) 1.0848(3)
H11 H 0.4917 0.8592 1.0462
C13 C 0.5992(3) 0.7855(4) 1.0442(4)
H12 H 0.5787 0.7639 0.9722
H13 H 0.6359 0.7328 1.0850
H14 H 0.6298 0.8497 1.0494
C14 C 0.5586(3) 0.8307(4) 1.1994(3)
H15 H 0.5119 0.8403 1.2256
H16 H 0.5902 0.8944 1.2073
H17 H 0.5943 0.7762 1.2381
C15 C 0.2497(3) 0.6084(3) 0.9324(3)
H18 H 0.2291 0.6791 0.9117
C16 C 0.1937(3) 0.5593(4) 0.9872(4)
H19 H 0.1983 0.5972 1.0502
H20 H 0.2106 0.4883 1.0043
H21 H 0.1363 0.5609 0.9420
C17 C 0.2449(3) 0.5488(4) 0.8359(4)
H22 H 0.2802 0.5816 0.8008
H23 H 0.1877 0.5478 0.7902
H24 H 0.2639 0.4787 0.8543
C18 C 0.1427(2) 1.0016(3) 0.9046(3)
C19 C 0.1337(2) 1.0900(3) 0.9579(3)
C20 C 0.0538(3) 1.1209(3) 0.9504(3)
H25 H 0.0464 1.1800 0.9867
C21 C -0.0146(3) 1.0680(3) 0.8916(3)
H26 H -0.0686 1.0907 0.8870
C22 C -0.0040(3) 0.9816(3) 0.8394(3)
H27 H -0.0512 0.9458 0.7982
C23 C 0.0743(3) 0.9456(3) 0.8456(3)
C24 C 0.0809(3) 0.8476(3) 0.7881(4)
H28 H 0.1410 0.8323 0.8029
C25 C 0.0424(3) 0.7576(4) 0.8264(4)
H29 H 0.0677 0.7511 0.9009
H30 H 0.0519 0.6949 0.7930
H31 H -0.0171 0.7690 0.8101
C26 C 0.0430(3) 0.8610(4) 0.6711(4)
H32 H 0.0560 0.8012 0.6362
H33 H 0.0659 0.9224 0.6495
H34 H -0.0171 0.8680 0.6533
C27 C 0.2067(3) 1.1532(3) 1.0219(3)
H35 H 0.2583 1.1218 1.0156
C28 C 0.2022(3) 1.2635(4) 0.9836(4)
H36 H 0.1978 1.2637 0.9107
H37 H 0.2523 1.3001 1.0229
H38 H 0.1538 1.2972 0.9927
C29 C 0.2120(3) 1.1506(4) 1.1356(3)
H39 H 0.2126 1.0796 1.1581
H40 H 0.1640 1.1858 1.1445
H41 H 0.2627 1.1849 1.1767
Ga1 Ga 0.71082(3) 0.38527(3) 0.47355(3)
Cl1 Cl 0.78709(6) 0.29986(8) 0.39589(8)
Cl2 Cl 0.61976(6) 0.48322(8) 0.36145(8)
N1 N 0.6522(2) 0.2988(3) 0.5405(3)
N2 N 0.7752(2) 0.4639(2) 0.5876(3)
C1 C 0.6437(2) 0.3304(3) 0.6292(3)
C2 C 0.6818(2) 0.4186(3) 0.6810(3)
H1 H 0.6607 0.4422 0.7333
C3 C 0.7455(2) 0.4764(3) 0.6672(3)
C4 C 0.5923(3) 0.2697(3) 0.6790(3)
H2 H 0.5777 0.2040 0.6437
H3 H 0.5418 0.3076 0.6746
H4 H 0.6238 0.2578 0.7512
C5 C 0.7844(3) 0.5584(3) 0.7457(3)
H5 H 0.7823 0.6241 0.7108
H6 H 0.8420 0.5405 0.7819
H7 H 0.7539 0.5636 0.7952
C6 C 0.6129(3) 0.2054(3) 0.4897(3)
C7 C 0.6610(3) 0.1157(3) 0.4993(3)
C8 C 0.6221(3) 0.0285(3) 0.4484(3)
H8 H 0.6532 -0.0326 0.4537
C9 C 0.5402(3) 0.0281(3) 0.3909(3)
H9 H 0.5153 -0.0326 0.3572
C10 C 0.4939(3) 0.1163(3) 0.3820(3)
H10 H 0.4371 0.1150 0.3423
C11 C 0.5282(3) 0.2076(3) 0.4300(3)
C12 C 0.4741(2) 0.3013(3) 0.4152(3)
H11 H 0.5083 0.3592 0.4538
C13 C 0.4008(3) 0.2855(4) 0.4558(4)
H12 H 0.4213 0.2639 0.5278
H13 H 0.3641 0.2328 0.4150
H14 H 0.3702 0.3497 0.4506
C14 C 0.4414(3) 0.3307(4) 0.3006(3)
H15 H 0.4881 0.3403 0.2744
H16 H 0.4098 0.3944 0.2927
H17 H 0.4057 0.2762 0.2619
C15 C 0.7503(3) 0.1084(3) 0.5676(3)
H18 H 0.7709 0.1791 0.5883
C16 C 0.8063(3) 0.0593(4) 0.5128(4)
H19 H 0.8017 0.0972 0.4498
H20 H 0.7894 -0.0117 0.4957
H21 H 0.8637 0.0609 0.5580
C17 C 0.7551(3) 0.0488(4) 0.6641(4)
H22 H 0.7198 0.0816 0.6992
H23 H 0.8123 0.0478 0.7098
H24 H 0.7361 -0.0213 0.6457
C18 C 0.8573(2) 0.5016(3) 0.5954(3)
C19 C 0.8663(2) 0.5900(3) 0.5421(3)
C20 C 0.9462(3) 0.6209(3) 0.5496(3)
H25 H 0.9536 0.6800 0.5133
C21 C 1.0146(3) 0.5680(3) 0.6084(3)
H26 H 1.0686 0.5907 0.6130
C22 C 1.0040(3) 0.4816(3) 0.6606(3)
H27 H 1.0512 0.4458 0.7018
C23 C 0.9257(3) 0.4456(3) 0.6544(3)
C24 C 0.9191(3) 0.3476(3) 0.7119(4)
H28 H 0.8590 0.3323 0.6971
C25 C 0.9576(3) 0.2576(4) 0.6736(4)
H29 H 0.9323 0.2511 0.5991
H30 H 0.9481 0.1949 0.7070
H31 H 1.0171 0.2690 0.6899
C26 C 0.9570(3) 0.3610(4) 0.8289(4)
H32 H 0.9440 0.3012 0.8638
H33 H 0.9341 0.4224 0.8505
H34 H 1.0171 0.3680 0.8467
C27 C 0.7933(3) 0.6532(3) 0.4781(3)
H35 H 0.7417 0.6218 0.4844
C28 C 0.7978(3) 0.7635(4) 0.5164(4)
H36 H 0.8022 0.7637 0.5893
H37 H 0.7477 0.8001 0.4771
H38 H 0.8462 0.7972 0.5073
C29 C 0.7880(3) 0.6506(4) 0.3644(3)
H39 H 0.7874 0.5796 0.3419
H40 H 0.8360 0.6858 0.3555
H41 H 0.7373 0.6849 0.3233
Ga1 Ga 0.71082(3) 0.11473(3) -0.02645(3)
Cl1 Cl 0.78709(6) 0.20014(8) -0.10411(8)
Cl2 Cl 0.61976(6) 0.01678(8) -0.13855(8)
N1 N 0.6522(2) 0.2012(3) 0.0405(3)
N2 N 0.7752(2) 0.0361(2) 0.0876(3)
C1 C 0.6437(2) 0.1696(3) 0.1292(3)
C2 C 0.6818(2) 0.0814(3) 0.1810(3)
H1 H 0.6607 0.0578 0.2333
C3 C 0.7455(2) 0.0236(3) 0.1672(3)
C4 C 0.5923(3) 0.2303(3) 0.1790(3)
H2 H 0.5777 0.2960 0.1437
H3 H 0.5418 0.1924 0.1746
H4 H 0.6238 0.2422 0.2512
C5 C 0.7844(3) -0.0584(3) 0.2457(3)
H5 H 0.7823 -0.1241 0.2108
H6 H 0.8420 -0.0405 0.2819
H7 H 0.7539 -0.0636 0.2952
C6 C 0.6129(3) 0.2946(3) -0.0103(3)
C7 C 0.6610(3) 0.3843(3) -0.0007(3)
C8 C 0.6221(3) 0.4715(3) -0.0516(3)
H8 H 0.6532 0.5326 -0.0463
C9 C 0.5402(3) 0.4719(3) -0.1091(3)
H9 H 0.5153 0.5326 -0.1428
C10 C 0.4939(3) 0.3837(3) -0.1180(3)
H10 H 0.4371 0.3850 -0.1577
C11 C 0.5282(3) 0.2924(3) -0.0700(3)
C12 C 0.4741(2) 0.1987(3) -0.0848(3)
H11 H 0.5083 0.1408 -0.0462
C13 C 0.4008(3) 0.2145(4) -0.0442(4)
H12 H 0.4213 0.2361 0.0278
H13 H 0.3641 0.2672 -0.0850
H14 H 0.3702 0.1503 -0.0494
C14 C 0.4414(3) 0.1693(4) -0.1994(3)
H15 H 0.4881 0.1597 -0.2256
H16 H 0.4098 0.1056 -0.2073
H17 H 0.4057 0.2238 -0.2381
C15 C 0.7503(3) 0.3916(3) 0.0676(3)
H18 H 0.7709 0.3209 0.0883
C16 C 0.8063(3) 0.4407(4) 0.0128(4)
H19 H 0.8017 0.4028 -0.0502
H20 H 0.7894 0.5117 -0.0043
H21 H 0.8637 0.4391 0.0580
C17 C 0.7551(3) 0.4512(4) 0.1641(4)
H22 H 0.7198 0.4184 0.1992
H23 H 0.8123 0.4522 0.2098
H24 H 0.7361 0.5213 0.1457
C18 C 0.8573(2) -0.0016(3) 0.0954(3)
C19 C 0.8663(2) -0.0900(3) 0.0421(3)
C20 C 0.9462(3) -0.1209(3) 0.0496(3)
H25 H 0.9536 -0.1800 0.0133
C21 C 1.0146(3) -0.0680(3) 0.1084(3)
H26 H 1.0686 -0.0907 0.1130
C22 C 1.0040(3) 0.0184(3) 0.1606(3)
H27 H 1.0512 0.0542 0.2018
C23 C 0.9257(3) 0.0544(3) 0.1544(3)
C24 C 0.9191(3) 0.1524(3) 0.2119(4)
H28 H 0.8590 0.1677 0.1971
C25 C 0.9576(3) 0.2424(4) 0.1736(4)
H29 H 0.9323 0.2489 0.0991
H30 H 0.9481 0.3051 0.2070
H31 H 1.0171 0.2310 0.1899
C26 C 0.9570(3) 0.1390(4) 0.3289(4)
H32 H 0.9440 0.1988 0.3638
H33 H 0.9341 0.0776 0.3505
H34 H 1.0171 0.1320 0.3467
C27 C 0.7933(3) -0.1532(3) -0.0219(3)
H35 H 0.7417 -0.1218 -0.0156
C28 C 0.7978(3) -0.2635(4) 0.0164(4)
H36 H 0.8022 -0.2637 0.0893
H37 H 0.7477 -0.3001 -0.0229
H38 H 0.8462 -0.2972 0.0073
C29 C 0.7880(3) -0.1506(4) -0.1356(3)
H39 H 0.7874 -0.0796 -0.1581
H40 H 0.8360 -0.1858 -0.1445
H41 H 0.7373 -0.1849 -0.1767
Ga1 Ga 0.28918(3) 0.61473(3) 0.52645(3)
Cl1 Cl 0.21291(6) 0.70014(8) 0.60411(8)
Cl2 Cl 0.38024(6) 0.51678(8) 0.63855(8)
N1 N 0.3478(2) 0.7012(3) 0.4595(3)
N2 N 0.2248(2) 0.5361(2) 0.4124(3)
C1 C 0.3563(2) 0.6696(3) 0.3708(3)
C2 C 0.3182(2) 0.5814(3) 0.3190(3)
H1 H 0.3393 0.5578 0.2667
C3 C 0.2545(2) 0.5236(3) 0.3328(3)
C4 C 0.4077(3) 0.7303(3) 0.3210(3)
H2 H 0.4223 0.7960 0.3563
H3 H 0.4582 0.6924 0.3254
H4 H 0.3762 0.7422 0.2488
C5 C 0.2156(3) 0.4416(3) 0.2543(3)
H5 H 0.2177 0.3759 0.2892
H6 H 0.1580 0.4595 0.2181
H7 H 0.2461 0.4364 0.2048
C6 C 0.3871(3) 0.7946(3) 0.5103(3)
C7 C 0.3390(3) 0.8843(3) 0.5007(3)
C8 C 0.3779(3) 0.9715(3) 0.5516(3)
H8 H 0.3468 1.0326 0.5463
C9 C 0.4598(3) 0.9719(3) 0.6091(3)
H9 H 0.4847 1.0326 0.6428
C10 C 0.5061(3) 0.8837(3) 0.6180(3)
H10 H 0.5629 0.8850 0.6577
C11 C 0.4718(3) 0.7924(3) 0.5700(3)
C12 C 0.5259(2) 0.6987(3) 0.5848(3)
H11 H 0.4917 0.6408 0.5462
C13 C 0.5992(3) 0.7145(4) 0.5442(4)
H12 H 0.5787 0.7361 0.4722
H13 H 0.6359 0.7672 0.5850
H14 H 0.6298 0.6503 0.5494
C14 C 0.5586(3) 0.6693(4) 0.6994(3)
H15 H 0.5119 0.6597 0.7256
H16 H 0.5902 0.6056 0.7073
H17 H 0.5943 0.7238 0.7381
C15 C 0.2497(3) 0.8916(3) 0.4324(3)
H18 H 0.2291 0.8209 0.4117
C16 C 0.1937(3) 0.9407(4) 0.4872(4)
H19 H 0.1983 0.9028 0.5502
H20 H 0.2106 1.0117 0.5043
H21 H 0.1363 0.9391 0.4420
C17 C 0.2449(3) 0.9512(4) 0.3359(4)
H22 H 0.2802 0.9184 0.3008
H23 H 0.1877 0.9522 0.2902
H24 H 0.2639 1.0213 0.3543
C18 C 0.1427(2) 0.4984(3) 0.4046(3)
C19 C 0.1337(2) 0.4100(3) 0.4579(3)
C20 C 0.0538(3) 0.3791(3) 0.4504(3)
H25 H 0.0464 0.3200 0.4867
C21 C -0.0146(3) 0.4320(3) 0.3916(3)
H26 H -0.0686 0.4093 0.3870
C22 C -0.0040(3) 0.5184(3) 0.3394(3)
H27 H -0.0512 0.5542 0.2982
C23 C 0.0743(3) 0.5544(3) 0.3456(3)
C24 C 0.0809(3) 0.6524(3) 0.2881(4)
H28 H 0.1410 0.6677 0.3029
C25 C 0.0424(3) 0.7424(4) 0.3264(4)
H29 H 0.0677 0.7489 0.4009
H30 H 0.0519 0.8051 0.2930
H31 H -0.0171 0.7310 0.3101
C26 C 0.0430(3) 0.6390(4) 0.1711(4)
H32 H 0.0560 0.6988 0.1362
H33 H 0.0659 0.5776 0.1495
H34 H -0.0171 0.6320 0.1533
C27 C 0.2067(3) 0.3468(3) 0.5219(3)
H35 H 0.2583 0.3782 0.5156
C28 C 0.2022(3) 0.2365(4) 0.4836(4)
H36 H 0.1978 0.2363 0.4107
H37 H 0.2523 0.1999 0.5229
H38 H 0.1538 0.2028 0.4927
C29 C 0.2120(3) 0.3494(4) 0.6356(3)
H39 H 0.2126 0.4204 0.6581
H40 H 0.1640 0.3142 0.6445
H41 H 0.2627 0.3151 0.6767

#END
