./ACODUS_from_xyz.cif_generated_by_CrystalShift
_symmetry_cell_setting triclinic
_symmetry_space_group_name_H-M 'P 1'
loop_
_symmetry_equiv_pos_site_id
_symmetry_equiv_pos_as_xyz
1 x,y,z
_cell_length_a 11.650000
_cell_length_b 15.897000
_cell_length_c 19.724000
_cell_angle_alpha 113.310000
_cell_angle_beta 106.590000
_cell_angle_gamma 90.190000
_cell_volume 3186.887611
loop_
_atom_site_label
_atom_site_type_symbol
_atom_site_fract_x
_atom_site_fract_y
_atom_site_fract_z
B1 B 0.872600 0.919920 0.995710
O2 O 0.910470 0.841900 0.951820
O3 O 0.792750 0.963940 0.960750
O4 O 0.917570 0.955270 1.074500
C5 C 0.971520 0.785520 0.985360
C6 C 1.091960 0.782020 0.992750
H7 H 1.133000 0.818400 0.977800
C8 C 1.151100 0.722960 1.023050
H9 H 1.233000 0.720300 1.029100
C10 C 1.090300 0.668790 1.044010
H11 H 1.130500 0.628700 1.063400
C12 C 0.969400 0.673260 1.036560
H13 H 0.928300 0.636900 1.051600
C14 C 0.909300 0.731890 1.006620
H15 H 0.827600 0.734900 1.001000
C16 C 0.727190 0.921450 0.882320
C17 C 0.634720 0.852020 0.856930
H18 H 0.616800 0.832100 0.891600
C19 C 0.568300 0.811990 0.778710
H20 H 0.505600 0.764500 0.760700
C21 C 0.594500 0.842110 0.727570
H22 H 0.550000 0.815000 0.675100
C23 C 0.686400 0.912300 0.754640
H24 H 0.703800 0.932900 0.720200
C25 C 0.753300 0.952760 0.831690
H26 H 0.815400 1.000600 0.849600
C27 C 0.863080 1.021740 1.121100
C28 C 0.750580 0.998840 1.122730
H29 H 0.709300 0.939600 1.091600
C30 C 0.699200 1.065220 1.171480
H31 H 0.622600 1.050500 1.172700
C32 C 0.760400 1.152360 1.217900
H33 H 0.726100 1.196500 1.250900
C34 C 0.873100 1.173730 1.215180
H35 H 0.914700 1.232800 1.246400
C36 C 0.925380 1.108690 1.166770
H37 H 1.001500 1.123600 1.165100
B38 B 0.127400 0.080080 0.004290
O39 O 0.089530 0.158100 0.048180
O40 O 0.207250 0.036060 0.039250
O41 O 0.082430 0.044730 -0.074500
C42 C 0.028480 0.214480 0.014640
C43 C -0.091960 0.217980 0.007250
H44 H -0.133000 0.181600 0.022200
C45 C -0.151100 0.277040 -0.023050
H46 H -0.233000 0.279700 -0.029100
C47 C -0.090300 0.331210 -0.044010
H48 H -0.130500 0.371300 -0.063400
C49 C 0.030600 0.326740 -0.036560
H50 H 0.071700 0.363100 -0.051600
C51 C 0.090700 0.268110 -0.006620
H52 H 0.172400 0.265100 -0.001000
C53 C 0.272810 0.078550 0.117680
C54 C 0.365280 0.147980 0.143070
H55 H 0.383200 0.167900 0.108400
C56 C 0.431700 0.188010 0.221290
H57 H 0.494400 0.235500 0.239300
C58 C 0.405500 0.157890 0.272430
H59 H 0.450000 0.185000 0.324900
C60 C 0.313600 0.087700 0.245360
H61 H 0.296200 0.067100 0.279800
C62 C 0.246700 0.047240 0.168310
H63 H 0.184600 -0.000600 0.150400
C64 C 0.136920 -0.021740 -0.121100
C65 C 0.249420 0.001160 -0.122730
H66 H 0.290700 0.060400 -0.091600
C67 C 0.300800 -0.065220 -0.171480
H68 H 0.377400 -0.050500 -0.172700
C69 C 0.239600 -0.152360 -0.217900
H70 H 0.273900 -0.196500 -0.250900
C71 C 0.126900 -0.173730 -0.215180
H72 H 0.085300 -0.232800 -0.246400
C73 C 0.074620 -0.108690 -0.166770
H74 H -0.001500 -0.123600 -0.165100
B75 B 0.539200 0.610900 0.087710
O76 O 0.581440 0.654240 0.050860
O77 O 0.613590 0.566410 0.125440
O78 O 0.420940 0.608220 0.085060
C79 C 0.515880 0.715190 0.025430
C80 C 0.468900 0.691690 -0.052590
H81 H 0.478600 0.635100 -0.088400
C82 C 0.407000 0.753380 -0.077280
H83 H 0.374700 0.737900 -0.130300
C84 C 0.392100 0.837090 -0.025230
H85 H 0.349900 0.878000 -0.042600
C86 C 0.440200 0.859890 0.052910
H87 H 0.430700 0.916700 0.088600
C88 C 0.502800 0.798810 0.079030
H89 H 0.535300 0.814200 0.132000
C90 C 0.738700 0.584200 0.147390
C91 C 0.798240 0.669230 0.203430
H92 H 0.754900 0.716100 0.225000
C93 C 0.922400 0.683930 0.226950
H94 H 0.963000 0.741500 0.263900
C95 C 0.986990 0.614360 0.196450
H96 H 1.071000 0.624400 0.213300
C97 C 0.926310 0.529570 0.140660
H98 H 0.969800 0.482500 0.119700
C99 C 0.801700 0.514030 0.115630
H100 H 0.760900 0.456900 0.077800
C101 C 0.383040 0.584020 0.136500
C102 C 0.417920 0.643160 0.213690
H103 H 0.467900 0.698200 0.231600
C104 C 0.378300 0.620450 0.264880
H105 H 0.402500 0.659700 0.317500
C106 C 0.302230 0.539020 0.237320
H107 H 0.274500 0.523600 0.271300
C108 C 0.268060 0.481400 0.160170
H109 H 0.217000 0.426700 0.141800
C110 C 0.308240 0.503220 0.109080
H111 H 0.284800 0.463500 0.056600
B112 B 0.460800 0.389100 0.912290
O113 O 0.418560 0.345760 0.949140
O114 O 0.386410 0.433590 0.874560
O115 O 0.579060 0.391780 0.914940
C116 C 0.484120 0.284810 0.974570
C117 C 0.531100 0.308310 1.052590
H118 H 0.521400 0.364900 1.088400
C119 C 0.593000 0.246620 1.077280
H120 H 0.625300 0.262100 1.130300
C121 C 0.607900 0.162910 1.025230
H122 H 0.650100 0.122000 1.042600
C123 C 0.559800 0.140110 0.947090
H124 H 0.569300 0.083300 0.911400
C125 C 0.497200 0.201190 0.920970
H126 H 0.464700 0.185800 0.868000
C127 C 0.261300 0.415800 0.852610
C128 C 0.201760 0.330770 0.796570
H129 H 0.245100 0.283900 0.775000
C130 C 0.077600 0.316070 0.773050
H131 H 0.037000 0.258500 0.736100
C132 C 0.013010 0.385640 0.803550
H133 H -0.071000 0.375600 0.786700
C134 C 0.073690 0.470430 0.859340
H135 H 0.030200 0.517500 0.880300
C136 C 0.198300 0.485970 0.884370
H137 H 0.239100 0.543100 0.922200
C138 C 0.616960 0.415980 0.863500
C139 C 0.582080 0.356840 0.786310
H140 H 0.532100 0.301800 0.768400
C141 C 0.621700 0.379550 0.735120
H142 H 0.597500 0.340300 0.682500
C143 C 0.697770 0.460980 0.762680
H144 H 0.725500 0.476400 0.728700
C145 C 0.731940 0.518600 0.839830
H146 H 0.783000 0.573300 0.858200
C147 C 0.691760 0.496780 0.890920
H148 H 0.715200 0.536500 0.943400
B149 B 0.957400 0.027510 0.415540
O150 O 0.914550 0.105750 0.454560
O151 O 1.072740 0.032190 0.413350
O152 O 0.887180 -0.055830 0.381190
C153 C 0.978460 0.192610 0.479550
C154 C 1.029500 0.244150 0.557450
H155 H 1.022300 0.221500 0.593100
C156 C 1.092100 0.330530 0.582440
H157 H 1.127300 0.366000 0.635400
C158 C 1.103000 0.364280 0.530930
H159 H 1.145900 0.422300 0.548500
C160 C 1.050000 0.312100 0.452460
H161 H 1.056600 0.335100 0.416900
C162 C 0.986900 0.225350 0.426490
H163 H 0.950800 0.189900 0.373600
C164 C 1.110160 -0.040590 0.360000
C165 C 1.076500 -0.054300 0.283180
H166 H 1.026400 -0.016400 0.266300
C167 C 1.117900 -0.124950 0.231380
H168 H 1.095100 -0.134900 0.179300
C169 C 1.192490 -0.180350 0.256500
H170 H 1.220400 -0.227700 0.221600
C171 C 1.225740 -0.165790 0.333110
H172 H 1.276400 -0.203400 0.350000
C173 C 1.184760 -0.095710 0.385730
H174 H 1.207400 -0.086100 0.437700
C175 C 0.762080 -0.063980 0.360530
C176 C 0.702800 -0.110960 0.388440
H177 H 0.745800 -0.134600 0.422900
C178 C 0.577500 -0.122620 0.364340
H179 H 0.536100 -0.154200 0.383000
C180 C 0.514200 -0.087970 0.313160
H181 H 0.430100 -0.096600 0.296800
C182 C 0.575000 -0.040400 0.286090
H183 H 0.532300 -0.016100 0.252000
C184 C 0.699680 -0.028890 0.309660
H185 H 0.741200 0.002600 0.291100
B186 B 0.042600 0.972490 0.584460
O187 O 0.085450 0.894250 0.545440
O188 O -0.072740 0.967810 0.586650
O189 O 0.112820 1.055830 0.618810
C190 C 0.021540 0.807390 0.520450
C191 C -0.029500 0.755850 0.442550
H192 H -0.022300 0.778500 0.406900
C193 C -0.092100 0.669470 0.417560
H194 H -0.127300 0.634000 0.364600
C195 C -0.103000 0.635720 0.469070
H196 H -0.145900 0.577700 0.451500
C197 C -0.050000 0.687900 0.547540
H198 H -0.056600 0.664900 0.583100
C199 C 0.013100 0.774650 0.573510
H200 H 0.049200 0.810100 0.626400
C201 C -0.110160 1.040590 0.640000
C202 C -0.076500 1.054300 0.716820
H203 H -0.026400 1.016400 0.733700
C204 C -0.117900 1.124950 0.768620
H205 H -0.095100 1.134900 0.820700
C206 C -0.192490 1.180350 0.743500
H207 H -0.220400 1.227700 0.778400
C208 C -0.225740 1.165790 0.666890
H209 H -0.276400 1.203400 0.650000
C210 C -0.184760 1.095710 0.614270
H211 H -0.207400 1.086100 0.562300
C212 C 0.237920 1.063980 0.639470
C213 C 0.297200 1.110960 0.611560
H214 H 0.254200 1.134600 0.577100
C215 C 0.422500 1.122620 0.635660
H216 H 0.463900 1.154200 0.617000
C217 C 0.485800 1.087970 0.686840
H218 H 0.569900 1.096600 0.703200
C219 C 0.425000 1.040400 0.713910
H220 H 0.467700 1.016100 0.748000
C221 C 0.300320 1.028890 0.690340
H222 H 0.258800 0.997400 0.708900
B223 B 0.373530 0.568750 0.497980
O224 O 0.401300 0.606120 0.452650
O225 O 0.299050 0.487090 0.465170
O226 O 0.422050 0.611690 0.576660
C227 C 0.462190 0.695620 0.484830
C228 C 0.397700 0.769700 0.502500
H229 H 0.315100 0.760300 0.494400
C230 C 0.457900 0.858390 0.532550
H231 H 0.415500 0.909000 0.544400
C232 C 0.580400 0.871720 0.544820
H233 H 0.620700 0.931200 0.565300
C234 C 0.643000 0.796680 0.526630
H235 H 0.725600 0.805800 0.534800
C236 C 0.584110 0.708280 0.496380
H237 H 0.626400 0.657700 0.483900
C238 C 0.228620 0.448900 0.387770
C239 C 0.253670 0.367010 0.337720
H240 H 0.319400 0.339600 0.355100
C241 C 0.180100 0.326420 0.261680
H242 H 0.196600 0.271300 0.227600
C243 C 0.082500 0.366560 0.235420
H244 H 0.033400 0.338900 0.183900
C245 C 0.058400 0.448310 0.286380
H246 H -0.007300 0.475800 0.268900
C247 C 0.130960 0.489830 0.363160
H248 H 0.114000 0.544500 0.397500
C249 C 0.374170 0.590020 0.625460
C250 C 0.262590 0.614190 0.630850
H251 H 0.218100 0.642200 0.600300
C252 C 0.217610 0.596410 0.682040
H253 H 0.142000 0.612100 0.685600
C254 C 0.283300 0.555790 0.727820
H255 H 0.252700 0.544100 0.762400
C256 C 0.394500 0.532610 0.721890
H257 H 0.439400 0.505200 0.752800
C258 C 0.440690 0.549390 0.670680
H259 H 0.516000 0.533300 0.666900
B260 B 0.626470 0.431250 0.502020
O261 O 0.598700 0.393880 0.547350
O262 O 0.700950 0.512910 0.534830
O263 O 0.577950 0.388310 0.423340
C264 C 0.537810 0.304380 0.515170
C265 C 0.602300 0.230300 0.497500
H266 H 0.684900 0.239700 0.505600
C267 C 0.542100 0.141610 0.467450
H268 H 0.584500 0.091000 0.455600
C269 C 0.419600 0.128280 0.455180
H270 H 0.379300 0.068800 0.434700
C271 C 0.357000 0.203320 0.473370
H272 H 0.274400 0.194200 0.465200
C273 C 0.415890 0.291720 0.503620
H274 H 0.373600 0.342300 0.516100
C275 C 0.771380 0.551100 0.612230
C276 C 0.746330 0.632990 0.662280
H277 H 0.680600 0.660400 0.644900
C278 C 0.819900 0.673580 0.738320
H279 H 0.803400 0.728700 0.772400
C280 C 0.917500 0.633440 0.764580
H281 H 0.966600 0.661100 0.816100
C282 C 0.941600 0.551690 0.713620
H283 H 1.007300 0.524200 0.731100
C284 C 0.869040 0.510170 0.636840
H285 H 0.886000 0.455500 0.602500
C286 C 0.625830 0.409980 0.374540
C287 C 0.737410 0.385810 0.369150
H288 H 0.781900 0.357800 0.399700
C289 C 0.782390 0.403590 0.317960
H290 H 0.858000 0.387900 0.314400
C291 C 0.716700 0.444210 0.272180
H292 H 0.747300 0.455900 0.237600
C293 C 0.605500 0.467390 0.278110
H294 H 0.560600 0.494800 0.247200
C295 C 0.559310 0.450610 0.329320
H296 H 0.484000 0.466700 0.333100

#END
