./ACOGOQ_from_xyz.cif_generated_by_CrystalShift
_symmetry_cell_setting triclinic
_symmetry_space_group_name_H-M 'P 1'
loop_
_symmetry_equiv_pos_site_id
_symmetry_equiv_pos_as_xyz
1 x,y,z
_cell_length_a 5.701200
_cell_length_b 7.823200
_cell_length_c 23.669000
_cell_angle_alpha 92.182000
_cell_angle_beta 96.212000
_cell_angle_gamma 92.041000
_cell_volume 1047.877155
loop_
_atom_site_label
_atom_site_type_symbol
_atom_site_fract_x
_atom_site_fract_y
_atom_site_fract_z
C1 C 0.774600 0.800860 -0.016520
H2 H 0.920000 0.826500 0.006300
C3 C 0.636400 0.652210 -0.005810
C4 C 0.713600 0.538380 0.036780
C5 C 0.420000 0.614430 -0.041980
C6 C 0.350400 0.731390 -0.085240
H7 H 0.206400 0.709400 -0.109000
C8 C 0.485900 0.873090 -0.093050
H9 H 0.434900 0.949800 -0.121600
C10 C 0.702300 0.906530 -0.058780
H11 H 0.798600 1.003900 -0.065300
C12 C 0.928200 0.577060 0.077110
H13 H 1.048100 0.495600 0.079300
C14 C 0.963800 0.719240 0.110570
H15 H 0.846700 0.802400 0.105600
C16 C 1.162700 0.761950 0.154140
C17 C 1.366800 0.666690 0.161040
H18 H 1.382800 0.572000 0.135600
C19 C 1.545000 0.708090 0.204200
H20 H 1.681400 0.641400 0.208100
C21 C 1.526800 0.846970 0.242200
C22 C 1.330000 0.946260 0.235460
H23 H 1.317100 1.043000 0.260300
C24 C 1.151600 0.902510 0.191860
H25 H 1.016900 0.970900 0.187600
C26 C 1.701200 1.013200 0.324980
H27 H 1.561300 0.996900 0.345900
H28 H 1.689900 1.123400 0.305800
C29 C 1.925500 1.013110 0.365560
H30 H 2.062800 1.027300 0.343700
H31 H 1.935500 0.900600 0.383300
C32 C 1.940900 1.153770 0.412490
H33 H 1.931300 1.266500 0.394900
H34 H 1.804500 1.139600 0.434700
C35 C 2.169000 1.150840 0.452610
H36 H 2.304500 1.166600 0.430200
H37 H 2.179500 1.036700 0.469200
C38 C 2.190400 1.287230 0.501010
H39 H 2.054400 1.272600 0.523300
H40 H 2.182700 1.401700 0.484600
C41 C 2.418900 1.279900 0.540920
H42 H 2.427500 1.164500 0.556600
H43 H 2.554400 1.296000 0.518500
C44 C 2.443600 1.413170 0.590310
H45 H 2.437400 1.528900 0.574800
H46 H 2.308100 1.398000 0.612700
C47 C 2.672100 1.401510 0.629630
H48 H 2.806600 1.411300 0.606600
H49 H 2.674600 1.286900 0.646000
C50 C 2.709200 1.536420 0.678300
H51 H 2.714300 1.651400 0.662300
H52 H 2.573300 1.529700 0.700900
C53 C 2.935900 1.514330 0.717290
H54 H 2.927300 1.400900 0.734300
H55 H 3.070400 1.515400 0.694100
C56 C 2.984700 1.651140 0.765030
H57 H 3.002900 1.763500 0.748700
H58 H 3.130200 1.626400 0.788800
H59 H 2.852600 1.651600 0.788300
O60 O 1.711940 0.875130 0.284060
C61 C 0.225400 0.199140 0.016520
H62 H 0.080000 0.173500 -0.006300
C63 C 0.363600 0.347790 0.005810
C64 C 0.286400 0.461620 -0.036780
C65 C 0.580000 0.385570 0.041980
C66 C 0.649600 0.268610 0.085240
H67 H 0.793600 0.290600 0.109000
C68 C 0.514100 0.126910 0.093050
H69 H 0.565100 0.050200 0.121600
C70 C 0.297700 0.093470 0.058780
H71 H 0.201400 -0.003900 0.065300
C72 C 0.071800 0.422940 -0.077110
H73 H -0.048100 0.504400 -0.079300
C74 C 0.036200 0.280760 -0.110570
H75 H 0.153300 0.197600 -0.105600
C76 C -0.162700 0.238050 -0.154140
C77 C -0.366800 0.333310 -0.161040
H78 H -0.382800 0.428000 -0.135600
C79 C -0.545000 0.291910 -0.204200
H80 H -0.681400 0.358600 -0.208100
C81 C -0.526800 0.153030 -0.242200
C82 C -0.330000 0.053740 -0.235460
H83 H -0.317100 -0.043000 -0.260300
C84 C -0.151600 0.097490 -0.191860
H85 H -0.016900 0.029100 -0.187600
C86 C -0.701200 -0.013200 -0.324980
H87 H -0.561300 0.003100 -0.345900
H88 H -0.689900 -0.123400 -0.305800
C89 C -0.925500 -0.013110 -0.365560
H90 H -1.062800 -0.027300 -0.343700
H91 H -0.935500 0.099400 -0.383300
C92 C -0.940900 -0.153770 -0.412490
H93 H -0.931300 -0.266500 -0.394900
H94 H -0.804500 -0.139600 -0.434700
C95 C -1.169000 -0.150840 -0.452610
H96 H -1.304500 -0.166600 -0.430200
H97 H -1.179500 -0.036700 -0.469200
C98 C -1.190400 -0.287230 -0.501010
H99 H -1.054400 -0.272600 -0.523300
H100 H -1.182700 -0.401700 -0.484600
C101 C -1.418900 -0.279900 -0.540920
H102 H -1.427500 -0.164500 -0.556600
H103 H -1.554400 -0.296000 -0.518500
C104 C -1.443600 -0.413170 -0.590310
H105 H -1.437400 -0.528900 -0.574800
H106 H -1.308100 -0.398000 -0.612700
C107 C -1.672100 -0.401510 -0.629630
H108 H -1.806600 -0.411300 -0.606600
H109 H -1.674600 -0.286900 -0.646000
C110 C -1.709200 -0.536420 -0.678300
H111 H -1.714300 -0.651400 -0.662300
H112 H -1.573300 -0.529700 -0.700900
C113 C -1.935900 -0.514330 -0.717290
H114 H -1.927300 -0.400900 -0.734300
H115 H -2.070400 -0.515400 -0.694100
C116 C -1.984700 -0.651140 -0.765030
H117 H -2.002900 -0.763500 -0.748700
H118 H -2.130200 -0.626400 -0.788800
H119 H -1.852600 -0.651600 -0.788300
O120 O -0.711940 0.124870 -0.284060
C121 C 0.774600 0.800860 0.983480
H122 H 0.920000 0.826500 1.006300
C123 C 0.636400 0.652210 0.994190
C124 C 0.713600 0.538380 1.036780
C125 C 0.420000 0.614430 0.958020
C126 C 0.350400 0.731390 0.914760
H127 H 0.206400 0.709400 0.891000
C128 C 0.485900 0.873090 0.906950
H129 H 0.434900 0.949800 0.878400
C130 C 0.702300 0.906530 0.941220
H131 H 0.798600 1.003900 0.934700
C132 C 0.928200 0.577060 1.077110
H133 H 1.048100 0.495600 1.079300
C134 C 0.963800 0.719240 1.110570
H135 H 0.846700 0.802400 1.105600
C136 C 1.162700 0.761950 1.154140
C137 C 1.366800 0.666690 1.161040
H138 H 1.382800 0.572000 1.135600
C139 C 1.545000 0.708090 1.204200
H140 H 1.681400 0.641400 1.208100
C141 C 1.526800 0.846970 1.242200
C142 C 1.330000 0.946260 1.235460
H143 H 1.317100 1.043000 1.260300
C144 C 1.151600 0.902510 1.191860
H145 H 1.016900 0.970900 1.187600
C146 C 1.701200 1.013200 1.324980
H147 H 1.561300 0.996900 1.345900
H148 H 1.689900 1.123400 1.305800
C149 C 1.925500 1.013110 1.365560
H150 H 2.062800 1.027300 1.343700
H151 H 1.935500 0.900600 1.383300
C152 C 1.940900 1.153770 1.412490
H153 H 1.931300 1.266500 1.394900
H154 H 1.804500 1.139600 1.434700
C155 C 2.169000 1.150840 1.452610
H156 H 2.304500 1.166600 1.430200
H157 H 2.179500 1.036700 1.469200
C158 C 2.190400 1.287230 1.501010
H159 H 2.054400 1.272600 1.523300
H160 H 2.182700 1.401700 1.484600
C161 C 2.418900 1.279900 1.540920
H162 H 2.427500 1.164500 1.556600
H163 H 2.554400 1.296000 1.518500
C164 C 2.443600 1.413170 1.590310
H165 H 2.437400 1.528900 1.574800
H166 H 2.308100 1.398000 1.612700
C167 C 2.672100 1.401510 1.629630
H168 H 2.806600 1.411300 1.606600
H169 H 2.674600 1.286900 1.646000
C170 C 2.709200 1.536420 1.678300
H171 H 2.714300 1.651400 1.662300
H172 H 2.573300 1.529700 1.700900
C173 C 2.935900 1.514330 1.717290
H174 H 2.927300 1.400900 1.734300
H175 H 3.070400 1.515400 1.694100
C176 C 2.984700 1.651140 1.765030
H177 H 3.002900 1.763500 1.748700
H178 H 3.130200 1.626400 1.788800
H179 H 2.852600 1.651600 1.788300
O180 O 1.711940 0.875130 1.284060
C181 C 0.225400 0.199140 1.016520
H182 H 0.080000 0.173500 0.993700
C183 C 0.363600 0.347790 1.005810
C184 C 0.286400 0.461620 0.963220
C185 C 0.580000 0.385570 1.041980
C186 C 0.649600 0.268610 1.085240
H187 H 0.793600 0.290600 1.109000
C188 C 0.514100 0.126910 1.093050
H189 H 0.565100 0.050200 1.121600
C190 C 0.297700 0.093470 1.058780
H191 H 0.201400 -0.003900 1.065300
C192 C 0.071800 0.422940 0.922890
H193 H -0.048100 0.504400 0.920700
C194 C 0.036200 0.280760 0.889430
H195 H 0.153300 0.197600 0.894400
C196 C -0.162700 0.238050 0.845860
C197 C -0.366800 0.333310 0.838960
H198 H -0.382800 0.428000 0.864400
C199 C -0.545000 0.291910 0.795800
H200 H -0.681400 0.358600 0.791900
C201 C -0.526800 0.153030 0.757800
C202 C -0.330000 0.053740 0.764540
H203 H -0.317100 -0.043000 0.739700
C204 C -0.151600 0.097490 0.808140
H205 H -0.016900 0.029100 0.812400
C206 C -0.701200 -0.013200 0.675020
H207 H -0.561300 0.003100 0.654100
H208 H -0.689900 -0.123400 0.694200
C209 C -0.925500 -0.013110 0.634440
H210 H -1.062800 -0.027300 0.656300
H211 H -0.935500 0.099400 0.616700
C212 C -0.940900 -0.153770 0.587510
H213 H -0.931300 -0.266500 0.605100
H214 H -0.804500 -0.139600 0.565300
C215 C -1.169000 -0.150840 0.547390
H216 H -1.304500 -0.166600 0.569800
H217 H -1.179500 -0.036700 0.530800
C218 C -1.190400 -0.287230 0.498990
H219 H -1.054400 -0.272600 0.476700
H220 H -1.182700 -0.401700 0.515400
C221 C -1.418900 -0.279900 0.459080
H222 H -1.427500 -0.164500 0.443400
H223 H -1.554400 -0.296000 0.481500
C224 C -1.443600 -0.413170 0.409690
H225 H -1.437400 -0.528900 0.425200
H226 H -1.308100 -0.398000 0.387300
C227 C -1.672100 -0.401510 0.370370
H228 H -1.806600 -0.411300 0.393400
H229 H -1.674600 -0.286900 0.354000
C230 C -1.709200 -0.536420 0.321700
H231 H -1.714300 -0.651400 0.337700
H232 H -1.573300 -0.529700 0.299100
C233 C -1.935900 -0.514330 0.282710
H234 H -1.927300 -0.400900 0.265700
H235 H -2.070400 -0.515400 0.305900
C236 C -1.984700 -0.651140 0.234970
H237 H -2.002900 -0.763500 0.251300
H238 H -2.130200 -0.626400 0.211200
H239 H -1.852600 -0.651600 0.211700
O240 O -0.711940 0.124870 0.715940

#END
