
#######################################################################
#
#                 Cambridge Crystallographic Data Centre
#                                CCDC 
#
#######################################################################
#
# If this CIF has been generated from an entry in the Cambridge 
# Structural Database, then it will include bibliographic, chemical, 
# crystal, experimental, refinement or atomic coordinate data resulting 
# from the CCDC's data processing and validation procedures.
#
#######################################################################

data_ACOHKT
_symmetry_cell_setting           triclinic
_symmetry_space_group_name_H-M   'P -1'
_symmetry_Int_Tables_number      2
_space_group_name_Hall           '-P 1'
loop_
_symmetry_equiv_pos_site_id
_symmetry_equiv_pos_as_xyz
1 x,y,z
2 -x,-y,-z
_cell_length_a                   7.386(2)
_cell_length_b                   8.904(4)
_cell_length_c                   9.684(5)
_cell_angle_alpha                82.29(4)
_cell_angle_beta                 74.46(3)
_cell_angle_gamma                82.29(3)
_cell_volume                     604.813
loop_
_atom_site_label
_atom_site_type_symbol
_atom_site_fract_x
_atom_site_fract_y
_atom_site_fract_z
C1 C 0.06170 0.17110 0.31900
C2 C 0.10250 0.01720 0.26110
C3 C 0.20500 0.28470 0.26390
C4 C 0.38760 0.25110 0.31800
C5 C 0.48630 0.39810 0.29600
C6 C 0.35340 0.53470 0.35290
C7 C 0.20890 0.58220 0.26630
C8 C 0.12380 0.44600 0.23720
C9 C 0.22570 0.35740 0.10940
C10 C 0.33560 0.19630 0.47750
C11 C 0.52690 0.12920 0.23500
C12 C 0.11460 0.30750 0.01920
C13 C 0.22490 0.25360 -0.12280
O1 O -0.08410 0.20290 0.40940
O2 O 0.30100 0.66550 0.13530
O3 O -0.05640 0.31220 0.05800
H1 H 0.19950 0.02100 0.18100
H2 H 0.00220 -0.01260 0.26120
H3 H 0.16220 -0.06130 0.32720
H4 H 0.55220 0.42830 0.18570
H5 H 0.58820 0.37550 0.33720
H6 H 0.41430 0.63050 0.35200
H7 H 0.27960 0.51730 0.45720
H8 H 0.11750 0.64880 0.32310
H9 H -0.00980 0.45420 0.25030
H10 H 0.35100 0.37470 0.06030
H11 H 0.43610 0.17250 0.51210
H12 H 0.30350 0.09780 0.48440
H13 H 0.24410 0.27350 0.53010
H14 H 0.47790 0.03220 0.26090
H15 H 0.62610 0.13100 0.27710
H16 H 0.56600 0.15840 0.13740
H17 H 0.30790 0.19930 -0.10970
H18 H 0.29840 0.34550 -0.19390
H19 H 0.16290 0.20750 -0.17190
H20 H 0.21260 0.67990 0.08580
C1 C 0.93830 0.82890 0.68100
C2 C 0.89750 0.98280 0.73890
C3 C 0.79500 0.71530 0.73610
C4 C 0.61240 0.74890 0.68200
C5 C 0.51370 0.60190 0.70400
C6 C 0.64660 0.46530 0.64710
C7 C 0.79110 0.41780 0.73370
C8 C 0.87620 0.55400 0.76280
C9 C 0.77430 0.64260 0.89060
C10 C 0.66440 0.80370 0.52250
C11 C 0.47310 0.87080 0.76500
C12 C 0.88540 0.69250 0.98080
C13 C 0.77510 0.74640 1.12280
O1 O 1.08410 0.79710 0.59060
O2 O 0.69900 0.33450 0.86470
O3 O 1.05640 0.68780 0.94200
H1 H 0.80050 0.97900 0.81900
H2 H 0.99780 1.01260 0.73880
H3 H 0.83780 1.06130 0.67280
H4 H 0.44780 0.57170 0.81430
H5 H 0.41180 0.62450 0.66280
H6 H 0.58570 0.36950 0.64800
H7 H 0.72040 0.48270 0.54280
H8 H 0.88250 0.35120 0.67690
H9 H 1.00980 0.54580 0.74970
H10 H 0.64900 0.62530 0.93970
H11 H 0.56390 0.82750 0.48790
H12 H 0.69650 0.90220 0.51560
H13 H 0.75590 0.72650 0.46990
H14 H 0.52210 0.96780 0.73910
H15 H 0.37390 0.86900 0.72290
H16 H 0.43400 0.84160 0.86260
H17 H 0.69210 0.80070 1.10970
H18 H 0.70160 0.65450 1.19390
H19 H 0.83710 0.79250 1.17190
H20 H 0.78740 0.32010 0.91420

#END
