./ACOHAD_from_xyz.cif_generated_by_CrystalShift
_symmetry_cell_setting triclinic
_symmetry_space_group_name_H-M 'P 1'
loop_
_symmetry_equiv_pos_site_id
_symmetry_equiv_pos_as_xyz
1 x,y,z
_cell_length_a 7.476600
_cell_length_b 8.015600
_cell_length_c 36.105000
_cell_angle_alpha 90.000000
_cell_angle_beta 90.000000
_cell_angle_gamma 90.000000
_cell_volume 2163.752249
loop_
_atom_site_label
_atom_site_type_symbol
_atom_site_fract_x
_atom_site_fract_y
_atom_site_fract_z
S1 S -0.253870 0.000040 0.849465
O2 O -0.425600 0.038700 0.834550
O3 O -0.224500 -0.156770 0.866890
O4 O 0.049000 0.034100 0.899870
N5 N -0.213900 0.152100 0.880970
C6 C 0.295700 0.112000 0.729650
H7 H 0.243800 0.179600 0.709800
H8 H 0.332500 0.003500 0.719700
H9 H 0.400100 0.169600 0.739900
C10 C 0.158200 0.086400 0.759750
C11 C -0.013800 0.147000 0.756310
H12 H -0.046300 0.206800 0.734600
C13 C -0.138400 0.122300 0.783570
H14 H -0.255200 0.167500 0.781000
C15 C -0.093900 0.031900 0.814710
C16 C 0.075000 -0.033000 0.818470
H17 H 0.105000 -0.097200 0.839700
C18 C 0.201300 -0.004600 0.791270
H19 H 0.318800 -0.047700 0.794100
C20 C -0.058500 0.145300 0.902900
C21 C -0.042300 0.287400 0.930440
H22 H -0.138000 0.270700 0.949400
C23 C -0.078500 0.458300 0.911820
H24 H -0.092500 0.542900 0.932000
C25 C -0.254300 0.445900 0.891860
H26 H -0.324500 0.543700 0.888800
C27 C -0.314400 0.303100 0.878400
H28 H -0.428100 0.300800 0.866600
C29 C 0.073100 0.515900 0.886990
C30 C 0.112700 0.437800 0.853480
H31 H 0.039400 0.348700 0.845100
C32 C 0.256800 0.487900 0.832270
H33 H 0.283200 0.432100 0.809700
C34 C 0.362100 0.618700 0.843830
H35 H 0.461500 0.653000 0.829300
C36 C 0.323000 0.699400 0.876400
H37 H 0.394900 0.790400 0.884300
C38 C 0.180000 0.649000 0.897760
H39 H 0.154100 0.706300 0.920200
C40 C 0.137100 0.276300 0.950710
H41 H 0.150100 0.162700 0.961100
H42 H 0.234600 0.293000 0.932500
C43 C 0.159000 0.402100 0.981750
C44 C 0.305800 0.507400 0.983240
H45 H 0.392200 0.504500 0.964000
C46 C 0.327700 0.617400 1.012760
H47 H 0.428500 0.689600 1.013300
C48 C 0.204900 0.622500 1.041000
H49 H 0.221000 0.696800 1.061200
C50 C 0.058000 0.518700 1.039730
H51 H -0.028500 0.522000 1.059000
C52 C 0.036700 0.409400 1.010290
H53 H -0.064600 0.337900 1.009800
S54 S 0.753870 0.999960 0.349465
O55 O 0.925600 0.961300 0.334550
O56 O 0.724500 1.156770 0.366890
O57 O 0.451000 0.965900 0.399870
N58 N 0.713900 0.847900 0.380970
C59 C 0.204300 0.888000 0.229650
H60 H 0.256200 0.820400 0.209800
H61 H 0.167500 0.996500 0.219700
H62 H 0.099900 0.830400 0.239900
C63 C 0.341800 0.913600 0.259750
C64 C 0.513800 0.853000 0.256310
H65 H 0.546300 0.793200 0.234600
C66 C 0.638400 0.877700 0.283570
H67 H 0.755200 0.832500 0.281000
C68 C 0.593900 0.968100 0.314710
C69 C 0.425000 1.033000 0.318470
H70 H 0.395000 1.097200 0.339700
C71 C 0.298700 1.004600 0.291270
H72 H 0.181200 1.047700 0.294100
C73 C 0.558500 0.854700 0.402900
C74 C 0.542300 0.712600 0.430440
H75 H 0.638000 0.729300 0.449400
C76 C 0.578500 0.541700 0.411820
H77 H 0.592500 0.457100 0.432000
C78 C 0.754300 0.554100 0.391860
H79 H 0.824500 0.456300 0.388800
C80 C 0.814400 0.696900 0.378400
H81 H 0.928100 0.699200 0.366600
C82 C 0.426900 0.484100 0.386990
C83 C 0.387300 0.562200 0.353480
H84 H 0.460600 0.651300 0.345100
C85 C 0.243200 0.512100 0.332270
H86 H 0.216800 0.567900 0.309700
C87 C 0.137900 0.381300 0.343830
H88 H 0.038500 0.347000 0.329300
C89 C 0.177000 0.300600 0.376400
H90 H 0.105100 0.209600 0.384300
C91 C 0.320000 0.351000 0.397760
H92 H 0.345900 0.293700 0.420200
C93 C 0.362900 0.723700 0.450710
H94 H 0.349900 0.837300 0.461100
H95 H 0.265400 0.707000 0.432500
C96 C 0.341000 0.597900 0.481750
C97 C 0.194200 0.492600 0.483240
H98 H 0.107800 0.495500 0.464000
C99 C 0.172300 0.382600 0.512760
H100 H 0.071500 0.310400 0.513300
C101 C 0.295100 0.377500 0.541000
H102 H 0.279000 0.303200 0.561200
C103 C 0.442000 0.481300 0.539730
H104 H 0.528500 0.478000 0.559000
C105 C 0.463300 0.590600 0.510290
H106 H 0.564600 0.662100 0.509800
S107 S 1.253870 0.500040 0.650535
O108 O 1.425600 0.538700 0.665450
O109 O 1.224500 0.343230 0.633110
O110 O 0.951000 0.534100 0.600130
N111 N 1.213900 0.652100 0.619030
C112 C 0.704300 0.612000 0.770350
H113 H 0.756200 0.679600 0.790200
H114 H 0.667500 0.503500 0.780300
H115 H 0.599900 0.669600 0.760100
C116 C 0.841800 0.586400 0.740250
C117 C 1.013800 0.647000 0.743690
H118 H 1.046300 0.706800 0.765400
C119 C 1.138400 0.622300 0.716430
H120 H 1.255200 0.667500 0.719000
C121 C 1.093900 0.531900 0.685290
C122 C 0.925000 0.467000 0.681530
H123 H 0.895000 0.402800 0.660300
C124 C 0.798700 0.495400 0.708730
H125 H 0.681200 0.452300 0.705900
C126 C 1.058500 0.645300 0.597100
C127 C 1.042300 0.787400 0.569560
H128 H 1.138000 0.770700 0.550600
C129 C 1.078500 0.958300 0.588180
H130 H 1.092500 1.042900 0.568000
C131 C 1.254300 0.945900 0.608140
H132 H 1.324500 1.043700 0.611200
C133 C 1.314400 0.803100 0.621600
H134 H 1.428100 0.800800 0.633400
C135 C 0.926900 1.015900 0.613010
C136 C 0.887300 0.937800 0.646520
H137 H 0.960600 0.848700 0.654900
C138 C 0.743200 0.987900 0.667730
H139 H 0.716800 0.932100 0.690300
C140 C 0.637900 1.118700 0.656170
H141 H 0.538500 1.153000 0.670700
C142 C 0.677000 1.199400 0.623600
H143 H 0.605100 1.290400 0.615700
C144 C 0.820000 1.149000 0.602240
H145 H 0.845900 1.206300 0.579800
C146 C 0.862900 0.776300 0.549290
H147 H 0.849900 0.662700 0.538900
H148 H 0.765400 0.793000 0.567500
C149 C 0.841000 0.902100 0.518250
C150 C 0.694200 1.007400 0.516760
H151 H 0.607800 1.004500 0.536000
C152 C 0.672300 1.117400 0.487240
H153 H 0.571500 1.189600 0.486700
C154 C 0.795100 1.122500 0.459000
H155 H 0.779000 1.196800 0.438800
C156 C 0.942000 1.018700 0.460270
H157 H 1.028500 1.022000 0.441000
C158 C 0.963300 0.909400 0.489710
H159 H 1.064600 0.837900 0.490200
S160 S 0.246130 0.499960 0.150535
O161 O 0.074400 0.461300 0.165450
O162 O 0.275500 0.656770 0.133110
O163 O 0.549000 0.465900 0.100130
N164 N 0.286100 0.347900 0.119030
C165 C 0.795700 0.388000 0.270350
H166 H 0.743800 0.320400 0.290200
H167 H 0.832500 0.496500 0.280300
H168 H 0.900100 0.330400 0.260100
C169 C 0.658200 0.413600 0.240250
C170 C 0.486200 0.353000 0.243690
H171 H 0.453700 0.293200 0.265400
C172 C 0.361600 0.377700 0.216430
H173 H 0.244800 0.332500 0.219000
C174 C 0.406100 0.468100 0.185290
C175 C 0.575000 0.533000 0.181530
H176 H 0.605000 0.597200 0.160300
C177 C 0.701300 0.504600 0.208730
H178 H 0.818800 0.547700 0.205900
C179 C 0.441500 0.354700 0.097100
C180 C 0.457700 0.212600 0.069560
H181 H 0.362000 0.229300 0.050600
C182 C 0.421500 0.041700 0.088180
H183 H 0.407500 -0.042900 0.068000
C184 C 0.245700 0.054100 0.108140
H185 H 0.175500 -0.043700 0.111200
C186 C 0.185600 0.196900 0.121600
H187 H 0.071900 0.199200 0.133400
C188 C 0.573100 -0.015900 0.113010
C189 C 0.612700 0.062200 0.146520
H190 H 0.539400 0.151300 0.154900
C191 C 0.756800 0.012100 0.167730
H192 H 0.783200 0.067900 0.190300
C193 C 0.862100 -0.118700 0.156170
H194 H 0.961500 -0.153000 0.170700
C195 C 0.823000 -0.199400 0.123600
H196 H 0.894900 -0.290400 0.115700
C197 C 0.680000 -0.149000 0.102240
H198 H 0.654100 -0.206300 0.079800
C199 C 0.637100 0.223700 0.049290
H200 H 0.650100 0.337300 0.038900
H201 H 0.734600 0.207000 0.067500
C202 C 0.659000 0.097900 0.018250
C203 C 0.805800 -0.007400 0.016760
H204 H 0.892200 -0.004500 0.036000
C205 C 0.827700 -0.117400 -0.012760
H206 H 0.928500 -0.189600 -0.013300
C207 C 0.704900 -0.122500 -0.041000
H208 H 0.721000 -0.196800 -0.061200
C209 C 0.558000 -0.018700 -0.039730
H210 H 0.471500 -0.022000 -0.059000
C211 C 0.536700 0.090600 -0.010290
H212 H 0.435400 0.162100 -0.009800

#END
