./ACOJIN_from_xyz.cif_generated_by_CrystalShift
_symmetry_cell_setting triclinic
_symmetry_space_group_name_H-M 'P 1'
loop_
_symmetry_equiv_pos_site_id
_symmetry_equiv_pos_as_xyz
1 x,y,z
_cell_length_a 8.930600
_cell_length_b 17.970900
_cell_length_c 19.809700
_cell_angle_alpha 90.000000
_cell_angle_beta 90.000000
_cell_angle_gamma 90.000000
_cell_volume 3179.276969
loop_
_atom_site_label
_atom_site_type_symbol
_atom_site_fract_x
_atom_site_fract_y
_atom_site_fract_z
O1 O 0.055800 -0.022350 0.067080
O2 O 0.528100 0.102770 0.105190
C3 C 0.014900 -0.187400 0.168600
H4 H -0.051700 -0.226900 0.172500
C5 C -0.010500 -0.132800 0.122400
H6 H -0.095300 -0.134900 0.095200
C7 C 0.090300 -0.073600 0.115680
C8 C 0.133400 0.045500 0.071600
H9 H 0.088400 0.074700 0.107500
H10 H 0.118400 0.072600 0.029800
C11 C 0.292500 0.040900 0.084230
H12 H 0.330400 0.013400 0.045100
C13 C 0.384200 0.108300 0.084800
H14 H 0.338100 0.138100 0.120700
C15 C 0.374600 0.158900 0.024700
C16 C 0.439700 0.140600 -0.036300
H17 H 0.490700 0.095700 -0.040300
C18 C 0.431300 0.186700 -0.091000
H19 H 0.476200 0.173200 -0.131500
C20 C 0.357100 0.252300 -0.085800
H21 H 0.352500 0.284300 -0.122700
C22 C 0.139700 -0.184000 0.209900
H23 H 0.155800 -0.220400 0.242500
C24 C 0.239800 -0.126500 0.202170
H25 H 0.323900 -0.125000 0.229800
C26 C 0.220100 -0.070500 0.154760
C27 C 0.565800 0.060700 0.164880
C28 C 0.452300 0.001100 0.178200
H29 H 0.470400 -0.030900 0.214200
C30 C 0.328200 -0.009800 0.142790
C31 C 0.578300 0.113000 0.224500
H32 H 0.659100 0.147300 0.217000
H33 H 0.597500 0.084800 0.264800
H34 H 0.486400 0.140100 0.229600
C35 C 0.717400 0.026800 0.149200
H36 H 0.707500 -0.007700 0.112500
H37 H 0.754300 0.001200 0.188300
H38 H 0.786200 0.065500 0.136700
C39 C 0.289400 0.271500 -0.026800
H40 H 0.237400 0.316200 -0.023800
C41 C 0.297400 0.225500 0.028000
H42 H 0.250400 0.239200 0.068000
O43 O 0.555800 0.522350 0.932920
O44 O 1.028100 0.397230 0.894810
C45 C 0.514900 0.687400 0.831400
H46 H 0.448300 0.726900 0.827500
C47 C 0.489500 0.632800 0.877600
H48 H 0.404700 0.634900 0.904800
C49 C 0.590300 0.573600 0.884320
C50 C 0.633400 0.454500 0.928400
H51 H 0.588400 0.425300 0.892500
H52 H 0.618400 0.427400 0.970200
C53 C 0.792500 0.459100 0.915770
H54 H 0.830400 0.486600 0.954900
C55 C 0.884200 0.391700 0.915200
H56 H 0.838100 0.361900 0.879300
C57 C 0.874600 0.341100 0.975300
C58 C 0.939700 0.359400 1.036300
H59 H 0.990700 0.404300 1.040300
C60 C 0.931300 0.313300 1.091000
H61 H 0.976200 0.326800 1.131500
C62 C 0.857100 0.247700 1.085800
H63 H 0.852500 0.215700 1.122700
C64 C 0.639700 0.684000 0.790100
H65 H 0.655800 0.720400 0.757500
C66 C 0.739800 0.626500 0.797830
H67 H 0.823900 0.625000 0.770200
C68 C 0.720100 0.570500 0.845240
C69 C 1.065800 0.439300 0.835120
C70 C 0.952300 0.498900 0.821800
H71 H 0.970400 0.530900 0.785800
C72 C 0.828200 0.509800 0.857210
C73 C 1.078300 0.387000 0.775500
H74 H 1.159100 0.352700 0.783000
H75 H 1.097500 0.415200 0.735200
H76 H 0.986400 0.359900 0.770400
C77 C 1.217400 0.473200 0.850800
H78 H 1.207500 0.507700 0.887500
H79 H 1.254300 0.498800 0.811700
H80 H 1.286200 0.434500 0.863300
C81 C 0.789400 0.228500 1.026800
H82 H 0.737400 0.183800 1.023800
C83 C 0.797400 0.274500 0.972000
H84 H 0.750400 0.260800 0.932000
O85 O 0.944200 0.477650 0.432920
O86 O 0.471900 0.602770 0.394810
C87 C 0.985100 0.312600 0.331400
H88 H 1.051700 0.273100 0.327500
C89 C 1.010500 0.367200 0.377600
H90 H 1.095300 0.365100 0.404800
C91 C 0.909700 0.426400 0.384320
C92 C 0.866600 0.545500 0.428400
H93 H 0.911600 0.574700 0.392500
H94 H 0.881600 0.572600 0.470200
C95 C 0.707500 0.540900 0.415770
H96 H 0.669600 0.513400 0.454900
C97 C 0.615800 0.608300 0.415200
H98 H 0.661900 0.638100 0.379300
C99 C 0.625400 0.658900 0.475300
C100 C 0.560300 0.640600 0.536300
H101 H 0.509300 0.595700 0.540300
C102 C 0.568700 0.686700 0.591000
H103 H 0.523800 0.673200 0.631500
C104 C 0.642900 0.752300 0.585800
H105 H 0.647500 0.784300 0.622700
C106 C 0.860300 0.316000 0.290100
H107 H 0.844200 0.279600 0.257500
C108 C 0.760200 0.373500 0.297830
H109 H 0.676100 0.375000 0.270200
C110 C 0.779900 0.429500 0.345240
C111 C 0.434200 0.560700 0.335120
C112 C 0.547700 0.501100 0.321800
H113 H 0.529600 0.469100 0.285800
C114 C 0.671800 0.490200 0.357210
C115 C 0.421700 0.613000 0.275500
H116 H 0.340900 0.647300 0.283000
H117 H 0.402500 0.584800 0.235200
H118 H 0.513600 0.640100 0.270400
C119 C 0.282600 0.526800 0.350800
H120 H 0.292500 0.492300 0.387500
H121 H 0.245700 0.501200 0.311700
H122 H 0.213800 0.565500 0.363300
C123 C 0.710600 0.771500 0.526800
H124 H 0.762600 0.816200 0.523800
C125 C 0.702600 0.725500 0.472000
H126 H 0.749600 0.739200 0.432000
O127 O 0.444200 1.022350 0.567080
O128 O -0.028100 0.897230 0.605190
C129 C 0.485100 1.187400 0.668600
H130 H 0.551700 1.226900 0.672500
C131 C 0.510500 1.132800 0.622400
H132 H 0.595300 1.134900 0.595200
C133 C 0.409700 1.073600 0.615680
C134 C 0.366600 0.954500 0.571600
H135 H 0.411600 0.925300 0.607500
H136 H 0.381600 0.927400 0.529800
C137 C 0.207500 0.959100 0.584230
H138 H 0.169600 0.986600 0.545100
C139 C 0.115800 0.891700 0.584800
H140 H 0.161900 0.861900 0.620700
C141 C 0.125400 0.841100 0.524700
C142 C 0.060300 0.859400 0.463700
H143 H 0.009300 0.904300 0.459700
C144 C 0.068700 0.813300 0.409000
H145 H 0.023800 0.826800 0.368500
C146 C 0.142900 0.747700 0.414200
H147 H 0.147500 0.715700 0.377300
C148 C 0.360300 1.184000 0.709900
H149 H 0.344200 1.220400 0.742500
C150 C 0.260200 1.126500 0.702170
H151 H 0.176100 1.125000 0.729800
C152 C 0.279900 1.070500 0.654760
C153 C -0.065800 0.939300 0.664880
C154 C 0.047700 0.998900 0.678200
H155 H 0.029600 1.030900 0.714200
C156 C 0.171800 1.009800 0.642790
C157 C -0.078300 0.887000 0.724500
H158 H -0.159100 0.852700 0.717000
H159 H -0.097500 0.915200 0.764800
H160 H 0.013600 0.859900 0.729600
C161 C -0.217400 0.973200 0.649200
H162 H -0.207500 1.007700 0.612500
H163 H -0.254300 0.998800 0.688300
H164 H -0.286200 0.934500 0.636700
C165 C 0.210600 0.728500 0.473200
H166 H 0.262600 0.683800 0.476200
C167 C 0.202600 0.774500 0.528000
H168 H 0.249600 0.760800 0.568000
O169 O 0.944200 1.022350 0.932920
O170 O 0.471900 0.897230 0.894810
C171 C 0.985100 1.187400 0.831400
H172 H 1.051700 1.226900 0.827500
C173 C 1.010500 1.132800 0.877600
H174 H 1.095300 1.134900 0.904800
C175 C 0.909700 1.073600 0.884320
C176 C 0.866600 0.954500 0.928400
H177 H 0.911600 0.925300 0.892500
H178 H 0.881600 0.927400 0.970200
C179 C 0.707500 0.959100 0.915770
H180 H 0.669600 0.986600 0.954900
C181 C 0.615800 0.891700 0.915200
H182 H 0.661900 0.861900 0.879300
C183 C 0.625400 0.841100 0.975300
C184 C 0.560300 0.859400 1.036300
H185 H 0.509300 0.904300 1.040300
C186 C 0.568700 0.813300 1.091000
H187 H 0.523800 0.826800 1.131500
C188 C 0.642900 0.747700 1.085800
H189 H 0.647500 0.715700 1.122700
C190 C 0.860300 1.184000 0.790100
H191 H 0.844200 1.220400 0.757500
C192 C 0.760200 1.126500 0.797830
H193 H 0.676100 1.125000 0.770200
C194 C 0.779900 1.070500 0.845240
C195 C 0.434200 0.939300 0.835120
C196 C 0.547700 0.998900 0.821800
H197 H 0.529600 1.030900 0.785800
C198 C 0.671800 1.009800 0.857210
C199 C 0.421700 0.887000 0.775500
H200 H 0.340900 0.852700 0.783000
H201 H 0.402500 0.915200 0.735200
H202 H 0.513600 0.859900 0.770400
C203 C 0.282600 0.973200 0.850800
H204 H 0.292500 1.007700 0.887500
H205 H 0.245700 0.998800 0.811700
H206 H 0.213800 0.934500 0.863300
C207 C 0.710600 0.728500 1.026800
H208 H 0.762600 0.683800 1.023800
C209 C 0.702600 0.774500 0.972000
H210 H 0.749600 0.760800 0.932000
O211 O 0.444200 0.477650 0.067080
O212 O -0.028100 0.602770 0.105190
C213 C 0.485100 0.312600 0.168600
H214 H 0.551700 0.273100 0.172500
C215 C 0.510500 0.367200 0.122400
H216 H 0.595300 0.365100 0.095200
C217 C 0.409700 0.426400 0.115680
C218 C 0.366600 0.545500 0.071600
H219 H 0.411600 0.574700 0.107500
H220 H 0.381600 0.572600 0.029800
C221 C 0.207500 0.540900 0.084230
H222 H 0.169600 0.513400 0.045100
C223 C 0.115800 0.608300 0.084800
H224 H 0.161900 0.638100 0.120700
C225 C 0.125400 0.658900 0.024700
C226 C 0.060300 0.640600 -0.036300
H227 H 0.009300 0.595700 -0.040300
C228 C 0.068700 0.686700 -0.091000
H229 H 0.023800 0.673200 -0.131500
C230 C 0.142900 0.752300 -0.085800
H231 H 0.147500 0.784300 -0.122700
C232 C 0.360300 0.316000 0.209900
H233 H 0.344200 0.279600 0.242500
C234 C 0.260200 0.373500 0.202170
H235 H 0.176100 0.375000 0.229800
C236 C 0.279900 0.429500 0.154760
C237 C -0.065800 0.560700 0.164880
C238 C 0.047700 0.501100 0.178200
H239 H 0.029600 0.469100 0.214200
C240 C 0.171800 0.490200 0.142790
C241 C -0.078300 0.613000 0.224500
H242 H -0.159100 0.647300 0.217000
H243 H -0.097500 0.584800 0.264800
H244 H 0.013600 0.640100 0.229600
C245 C -0.217400 0.526800 0.149200
H246 H -0.207500 0.492300 0.112500
H247 H -0.254300 0.501200 0.188300
H248 H -0.286200 0.565500 0.136700
C249 C 0.210600 0.771500 -0.026800
H250 H 0.262600 0.816200 -0.023800
C251 C 0.202600 0.725500 0.028000
H252 H 0.249600 0.739200 0.068000
O253 O 0.055800 0.522350 0.567080
O254 O 0.528100 0.397230 0.605190
C255 C 0.014900 0.687400 0.668600
H256 H -0.051700 0.726900 0.672500
C257 C -0.010500 0.632800 0.622400
H258 H -0.095300 0.634900 0.595200
C259 C 0.090300 0.573600 0.615680
C260 C 0.133400 0.454500 0.571600
H261 H 0.088400 0.425300 0.607500
H262 H 0.118400 0.427400 0.529800
C263 C 0.292500 0.459100 0.584230
H264 H 0.330400 0.486600 0.545100
C265 C 0.384200 0.391700 0.584800
H266 H 0.338100 0.361900 0.620700
C267 C 0.374600 0.341100 0.524700
C268 C 0.439700 0.359400 0.463700
H269 H 0.490700 0.404300 0.459700
C270 C 0.431300 0.313300 0.409000
H271 H 0.476200 0.326800 0.368500
C272 C 0.357100 0.247700 0.414200
H273 H 0.352500 0.215700 0.377300
C274 C 0.139700 0.684000 0.709900
H275 H 0.155800 0.720400 0.742500
C276 C 0.239800 0.626500 0.702170
H277 H 0.323900 0.625000 0.729800
C278 C 0.220100 0.570500 0.654760
C279 C 0.565800 0.439300 0.664880
C280 C 0.452300 0.498900 0.678200
H281 H 0.470400 0.530900 0.714200
C282 C 0.328200 0.509800 0.642790
C283 C 0.578300 0.387000 0.724500
H284 H 0.659100 0.352700 0.717000
H285 H 0.597500 0.415200 0.764800
H286 H 0.486400 0.359900 0.729600
C287 C 0.717400 0.473200 0.649200
H288 H 0.707500 0.507700 0.612500
H289 H 0.754300 0.498800 0.688300
H290 H 0.786200 0.434500 0.636700
C291 C 0.289400 0.228500 0.473200
H292 H 0.237400 0.183800 0.476200
C293 C 0.297400 0.274500 0.528000
H294 H 0.250400 0.260800 0.568000
O295 O 0.555800 -0.022350 0.432920
O296 O 1.028100 0.102770 0.394810
C297 C 0.514900 -0.187400 0.331400
H298 H 0.448300 -0.226900 0.327500
C299 C 0.489500 -0.132800 0.377600
H300 H 0.404700 -0.134900 0.404800
C301 C 0.590300 -0.073600 0.384320
C302 C 0.633400 0.045500 0.428400
H303 H 0.588400 0.074700 0.392500
H304 H 0.618400 0.072600 0.470200
C305 C 0.792500 0.040900 0.415770
H306 H 0.830400 0.013400 0.454900
C307 C 0.884200 0.108300 0.415200
H308 H 0.838100 0.138100 0.379300
C309 C 0.874600 0.158900 0.475300
C310 C 0.939700 0.140600 0.536300
H311 H 0.990700 0.095700 0.540300
C312 C 0.931300 0.186700 0.591000
H313 H 0.976200 0.173200 0.631500
C314 C 0.857100 0.252300 0.585800
H315 H 0.852500 0.284300 0.622700
C316 C 0.639700 -0.184000 0.290100
H317 H 0.655800 -0.220400 0.257500
C318 C 0.739800 -0.126500 0.297830
H319 H 0.823900 -0.125000 0.270200
C320 C 0.720100 -0.070500 0.345240
C321 C 1.065800 0.060700 0.335120
C322 C 0.952300 0.001100 0.321800
H323 H 0.970400 -0.030900 0.285800
C324 C 0.828200 -0.009800 0.357210
C325 C 1.078300 0.113000 0.275500
H326 H 1.159100 0.147300 0.283000
H327 H 1.097500 0.084800 0.235200
H328 H 0.986400 0.140100 0.270400
C329 C 1.217400 0.026800 0.350800
H330 H 1.207500 -0.007700 0.387500
H331 H 1.254300 0.001200 0.311700
H332 H 1.286200 0.065500 0.363300
C333 C 0.789400 0.271500 0.526800
H334 H 0.737400 0.316200 0.523800
C335 C 0.797400 0.225500 0.472000
H336 H 0.750400 0.239200 0.432000

#END
