
#######################################################################
#
#                 Cambridge Crystallographic Data Centre
#                                CCDC 
#
#######################################################################
#
# If this CIF has been generated from an entry in the Cambridge 
# Structural Database, then it will include bibliographic, chemical, 
# crystal, experimental, refinement or atomic coordinate data resulting 
# from the CCDC's data processing and validation procedures.
#
#######################################################################

data_ACOJAF
_symmetry_cell_setting           monoclinic
_symmetry_space_group_name_H-M   'P 21/c'
_symmetry_Int_Tables_number      14
_space_group_name_Hall           '-P 2ybc'
loop_
_symmetry_equiv_pos_site_id
_symmetry_equiv_pos_as_xyz
1 x,y,z
2 -x,1/2+y,1/2-z
3 -x,-y,-z
4 x,1/2-y,1/2+z
_cell_length_a                   11.055(2)
_cell_length_b                   7.9789(16)
_cell_length_c                   13.222(3)
_cell_angle_alpha                90
_cell_angle_beta                 113.03(3)
_cell_angle_gamma                90
_cell_volume                     1073.32
loop_
_atom_site_label
_atom_site_type_symbol
_atom_site_fract_x
_atom_site_fract_y
_atom_site_fract_z
S1 S 0.56925(7) 0.55223(9) 1.14150(6)
N1 N 0.5322(2) 0.2095(3) 1.17778(19)
C1 C 0.5981(3) 0.2268(3) 1.1153(2)
O1 O 0.6312(2) -0.0648(2) 1.10497(18)
S2 S 0.48758(7) 0.38433(9) 1.21742(6)
O2 O 0.7398(2) 0.5648(2) 1.01125(17)
C2 C 0.6502(3) 0.0753(3) 1.0773(2)
C3 C 0.7233(3) 0.1077(3) 1.0066(2)
C4 C 0.7675(3) -0.0297(4) 0.9641(2)
H1 H 0.7495 -0.1401 0.9812
C5 C 0.8370(3) -0.0075(4) 0.8976(2)
C6 C 0.8640(3) 0.1570(4) 0.8728(2)
C7 C 0.8194(3) 0.2922(4) 0.9151(2)
H2 H 0.8372 0.4026 0.8979
C8 C 0.7496(3) 0.2708(3) 0.9815(2)
C9 C 0.7073(3) 0.4218(3) 1.0257(2)
C10 C 0.6258(3) 0.3885(3) 1.0852(2)
C11 C 0.8836(3) -0.1590(4) 0.8545(3)
H3 H 0.8513 -0.2611 0.8768
H4 H 0.9799 -0.1605 0.8846
H5 H 0.8499 -0.1537 0.7741
C12 C 0.9436(3) 0.1877(4) 0.8043(2)
H6 H 0.9358 0.3057 0.7820
H7 H 0.9106 0.1164 0.7388
H8 H 1.0361 0.1610 0.8476
S1 S 0.43075(7) 1.05223(9) 0.35850(6)
N1 N 0.4678(2) 0.7095(3) 0.32222(19)
C1 C 0.4019(3) 0.7268(3) 0.3847(2)
O1 O 0.3688(2) 0.4352(2) 0.39503(18)
S2 S 0.51242(7) 0.88433(9) 0.28258(6)
O2 O 0.2602(2) 1.0648(2) 0.48875(17)
C2 C 0.3498(3) 0.5753(3) 0.4227(2)
C3 C 0.2767(3) 0.6077(3) 0.4934(2)
C4 C 0.2325(3) 0.4703(4) 0.5359(2)
H1 H 0.2505 0.3599 0.5188
C5 C 0.1630(3) 0.4925(4) 0.6024(2)
C6 C 0.1360(3) 0.6570(4) 0.6272(2)
C7 C 0.1806(3) 0.7922(4) 0.5849(2)
H2 H 0.1628 0.9026 0.6021
C8 C 0.2504(3) 0.7708(3) 0.5185(2)
C9 C 0.2927(3) 0.9218(3) 0.4743(2)
C10 C 0.3742(3) 0.8885(3) 0.4148(2)
C11 C 0.1164(3) 0.3410(4) 0.6455(3)
H3 H 0.1487 0.2389 0.6232
H4 H 0.0201 0.3395 0.6154
H5 H 0.1501 0.3463 0.7259
C12 C 0.0564(3) 0.6877(4) 0.6957(2)
H6 H 0.0642 0.8057 0.7180
H7 H 0.0894 0.6164 0.7612
H8 H -0.0361 0.6610 0.6524
S1 S 0.43075(7) 0.44777(9) -0.14150(6)
N1 N 0.4678(2) 0.7905(3) -0.17778(19)
C1 C 0.4019(3) 0.7732(3) -0.1153(2)
O1 O 0.3688(2) 1.0648(2) -0.10497(18)
S2 S 0.51242(7) 0.61567(9) -0.21742(6)
O2 O 0.2602(2) 0.4352(2) -0.01125(17)
C2 C 0.3498(3) 0.9247(3) -0.0773(2)
C3 C 0.2767(3) 0.8923(3) -0.0066(2)
C4 C 0.2325(3) 1.0297(4) 0.0359(2)
H1 H 0.2505 1.1401 0.0188
C5 C 0.1630(3) 1.0075(4) 0.1024(2)
C6 C 0.1360(3) 0.8430(4) 0.1272(2)
C7 C 0.1806(3) 0.7078(4) 0.0849(2)
H2 H 0.1628 0.5974 0.1021
C8 C 0.2504(3) 0.7292(3) 0.0185(2)
C9 C 0.2927(3) 0.5782(3) -0.0257(2)
C10 C 0.3742(3) 0.6115(3) -0.0852(2)
C11 C 0.1164(3) 1.1590(4) 0.1455(3)
H3 H 0.1487 1.2611 0.1232
H4 H 0.0201 1.1605 0.1154
H5 H 0.1501 1.1537 0.2259
C12 C 0.0564(3) 0.8123(4) 0.1957(2)
H6 H 0.0642 0.6943 0.2180
H7 H 0.0894 0.8836 0.2612
H8 H -0.0361 0.8390 0.1524
S1 S 0.56925(7) -0.05223(9) 0.64150(6)
N1 N 0.5322(2) 0.2905(3) 0.67778(19)
C1 C 0.5981(3) 0.2732(3) 0.6153(2)
O1 O 0.6312(2) 0.5648(2) 0.60497(18)
S2 S 0.48758(7) 0.11567(9) 0.71742(6)
O2 O 0.7398(2) -0.0648(2) 0.51125(17)
C2 C 0.6502(3) 0.4247(3) 0.5773(2)
C3 C 0.7233(3) 0.3923(3) 0.5066(2)
C4 C 0.7675(3) 0.5297(4) 0.4641(2)
H1 H 0.7495 0.6401 0.4812
C5 C 0.8370(3) 0.5075(4) 0.3976(2)
C6 C 0.8640(3) 0.3430(4) 0.3728(2)
C7 C 0.8194(3) 0.2078(4) 0.4151(2)
H2 H 0.8372 0.0974 0.3979
C8 C 0.7496(3) 0.2292(3) 0.4815(2)
C9 C 0.7073(3) 0.0782(3) 0.5257(2)
C10 C 0.6258(3) 0.1115(3) 0.5852(2)
C11 C 0.8836(3) 0.6590(4) 0.3545(3)
H3 H 0.8513 0.7611 0.3768
H4 H 0.9799 0.6605 0.3846
H5 H 0.8499 0.6537 0.2741
C12 C 0.9436(3) 0.3123(4) 0.3043(2)
H6 H 0.9358 0.1943 0.2820
H7 H 0.9106 0.3836 0.2388
H8 H 1.0361 0.3390 0.3476

#END
