./ACOKUA_from_xyz.cif_generated_by_CrystalShift
_symmetry_cell_setting triclinic
_symmetry_space_group_name_H-M 'P 1'
loop_
_symmetry_equiv_pos_site_id
_symmetry_equiv_pos_as_xyz
1 x,y,z
_cell_length_a 5.695000
_cell_length_b 7.534500
_cell_length_c 28.702900
_cell_angle_alpha 90.000000
_cell_angle_beta 90.000000
_cell_angle_gamma 90.000000
_cell_volume 1231.612090
loop_
_atom_site_label
_atom_site_type_symbol
_atom_site_fract_x
_atom_site_fract_y
_atom_site_fract_z
C1 C 0.877000 0.916200 0.003140
H2 H 0.744600 0.861200 0.017200
C3 C 0.898100 0.917200 -0.044960
H4 H 0.780600 0.862900 -0.063600
C5 C 1.090500 0.997200 -0.065990
H6 H 1.104900 0.997600 -0.099000
C7 C 1.261000 1.076400 -0.038700
H8 H 1.392500 1.131500 -0.053000
C9 C 1.241300 1.075800 0.009480
H10 H 1.359700 1.130300 0.027900
C11 C 1.048400 0.995400 0.031280
C12 C 1.036700 0.996900 0.082290
H13 H 1.170500 1.042900 0.097900
C14 C 0.860000 0.941300 0.109630
H15 H 0.720500 0.897700 0.095600
C16 C 0.876200 0.946000 0.159910
H17 H 1.014300 0.998700 0.172300
C18 C 0.720700 0.885300 0.191260
C19 C 0.751700 0.884100 0.242470
C20 C 0.953500 0.960200 0.262420
H21 H 1.067000 1.015100 0.242900
C22 C 0.989100 0.956300 0.310200
H23 H 1.126500 1.008100 0.323100
C24 C 0.825500 0.877300 0.339190
H25 H 0.850400 0.875100 0.371900
C26 C 0.625200 0.801400 0.320340
H27 H 0.512800 0.746800 0.340200
C28 C 0.588700 0.805100 0.272420
H29 H 0.450600 0.753000 0.259800
Cl30 Cl 0.459090 0.791040 0.171002
C31 C 0.623000 0.083800 0.503140
H32 H 0.755400 0.138800 0.517200
C33 C 0.601900 0.082800 0.455040
H34 H 0.719400 0.137100 0.436400
C35 C 0.409500 0.002800 0.434010
H36 H 0.395100 0.002400 0.401000
C37 C 0.239000 -0.076400 0.461300
H38 H 0.107500 -0.131500 0.447000
C39 C 0.258700 -0.075800 0.509480
H40 H 0.140300 -0.130300 0.527900
C41 C 0.451600 0.004600 0.531280
C42 C 0.463300 0.003100 0.582290
H43 H 0.329500 -0.042900 0.597900
C44 C 0.640000 0.058700 0.609630
H45 H 0.779500 0.102300 0.595600
C46 C 0.623800 0.054000 0.659910
H47 H 0.485700 0.001300 0.672300
C48 C 0.779300 0.114700 0.691260
C49 C 0.748300 0.115900 0.742470
C50 C 0.546500 0.039800 0.762420
H51 H 0.433000 -0.015100 0.742900
C52 C 0.510900 0.043700 0.810200
H53 H 0.373500 -0.008100 0.823100
C54 C 0.674500 0.122700 0.839190
H55 H 0.649600 0.124900 0.871900
C56 C 0.874800 0.198600 0.820340
H57 H 0.987200 0.253200 0.840200
C58 C 0.911300 0.194900 0.772420
H59 H 1.049400 0.247000 0.759800
Cl60 Cl 1.040910 0.208960 0.671002
C61 C 0.377000 0.583800 0.996860
H62 H 0.244600 0.638800 0.982800
C63 C 0.398100 0.582800 1.044960
H64 H 0.280600 0.637100 1.063600
C65 C 0.590500 0.502800 1.065990
H66 H 0.604900 0.502400 1.099000
C67 C 0.761000 0.423600 1.038700
H68 H 0.892500 0.368500 1.053000
C69 C 0.741300 0.424200 0.990520
H70 H 0.859700 0.369700 0.972100
C71 C 0.548400 0.504600 0.968720
C72 C 0.536700 0.503100 0.917710
H73 H 0.670500 0.457100 0.902100
C74 C 0.360000 0.558700 0.890370
H75 H 0.220500 0.602300 0.904400
C76 C 0.376200 0.554000 0.840090
H77 H 0.514300 0.501300 0.827700
C78 C 0.220700 0.614700 0.808740
C79 C 0.251700 0.615900 0.757530
C80 C 0.453500 0.539800 0.737580
H81 H 0.567000 0.484900 0.757100
C82 C 0.489100 0.543700 0.689800
H83 H 0.626500 0.491900 0.676900
C84 C 0.325500 0.622700 0.660810
H85 H 0.350400 0.624900 0.628100
C86 C 0.125200 0.698600 0.679660
H87 H 0.012800 0.753200 0.659800
C88 C 0.088700 0.694900 0.727580
H89 H -0.049400 0.747000 0.740200
Cl90 Cl -0.040910 0.708960 0.828998
C91 C 0.123000 0.416200 0.496860
H92 H 0.255400 0.361200 0.482800
C93 C 0.101900 0.417200 0.544960
H94 H 0.219400 0.362900 0.563600
C95 C -0.090500 0.497200 0.565990
H96 H -0.104900 0.497600 0.599000
C97 C -0.261000 0.576400 0.538700
H98 H -0.392500 0.631500 0.553000
C99 C -0.241300 0.575800 0.490520
H100 H -0.359700 0.630300 0.472100
C101 C -0.048400 0.495400 0.468720
C102 C -0.036700 0.496900 0.417710
H103 H -0.170500 0.542900 0.402100
C104 C 0.140000 0.441300 0.390370
H105 H 0.279500 0.397700 0.404400
C106 C 0.123800 0.446000 0.340090
H107 H -0.014300 0.498700 0.327700
C108 C 0.279300 0.385300 0.308740
C109 C 0.248300 0.384100 0.257530
C110 C 0.046500 0.460200 0.237580
H111 H -0.067000 0.515100 0.257100
C112 C 0.010900 0.456300 0.189800
H113 H -0.126500 0.508100 0.176900
C114 C 0.174500 0.377300 0.160810
H115 H 0.149600 0.375100 0.128100
C116 C 0.374800 0.301400 0.179660
H117 H 0.487200 0.246800 0.159800
C118 C 0.411300 0.305100 0.227580
H119 H 0.549400 0.253000 0.240200
Cl120 Cl 0.540910 0.291040 0.328998

#END
