
#######################################################################
#
#                 Cambridge Crystallographic Data Centre
#                                CCDC 
#
#######################################################################
#
# If this CIF has been generated from an entry in the Cambridge 
# Structural Database, then it will include bibliographic, chemical, 
# crystal, experimental, refinement or atomic coordinate data resulting 
# from the CCDC's data processing and validation procedures.
#
#######################################################################

data_ACOKEI
_symmetry_cell_setting           orthorhombic
_symmetry_space_group_name_H-M   'P n a 21'
_symmetry_Int_Tables_number      33
_space_group_name_Hall           'P 2c -2n'
loop_
_symmetry_equiv_pos_site_id
_symmetry_equiv_pos_as_xyz
1 x,y,z
2 -x,-y,1/2+z
3 1/2-x,1/2+y,1/2+z
4 1/2+x,1/2-y,z
_cell_length_a                   14.6736(12)
_cell_length_b                   8.2804(5)
_cell_length_c                   6.1368(5)
_cell_angle_alpha                90
_cell_angle_beta                 90
_cell_angle_gamma                90
_cell_volume                     745.641
loop_
_atom_site_label
_atom_site_type_symbol
_atom_site_fract_x
_atom_site_fract_y
_atom_site_fract_z
Br1 Br 0.10505(3) 0.60254(6) 1.16783(17)
F1 F 0.0608(2) -0.0055(4) 1.0020(6)
F2 F 0.0383(2) 0.2583(4) 1.2505(5)
F3 F 0.1884(2) 0.5711(3) 0.7166(5)
F4 F 0.2082(2) 0.3088(4) 0.4671(5)
N1 N 0.1477(4) -0.1043(5) 0.4800(10)
C1 C 0.1422(4) 0.0056(7) 0.5911(10)
C2 C 0.1334(4) 0.1452(7) 0.7275(10)
C3 C 0.0912(4) 0.1378(7) 0.9313(10)
C4 C 0.0790(4) 0.2720(8) 1.0563(10)
C5 C 0.1136(3) 0.4206(7) 0.9867(11)
C6 C 0.1548(4) 0.4306(6) 0.7867(10)
C7 C 0.1652(3) 0.2962(6) 0.6576(15)
Br1 Br 0.89495(3) 0.39746(6) 0.66783(17)
F1 F 0.9392(2) 1.0055(4) 0.5020(6)
F2 F 0.9617(2) 0.7417(4) 0.7505(5)
F3 F 0.8116(2) 0.4289(3) 0.2166(5)
F4 F 0.7918(2) 0.6912(4) -0.0329(5)
N1 N 0.8523(4) 1.1043(5) -0.0200(10)
C1 C 0.8578(4) 0.9944(7) 0.0911(10)
C2 C 0.8666(4) 0.8548(7) 0.2275(10)
C3 C 0.9088(4) 0.8622(7) 0.4313(10)
C4 C 0.9210(4) 0.7280(8) 0.5563(10)
C5 C 0.8864(3) 0.5794(7) 0.4867(11)
C6 C 0.8452(4) 0.5694(6) 0.2867(10)
C7 C 0.8348(3) 0.7038(6) 0.1576(15)
Br1 Br 0.39495(3) 1.10254(6) 0.66783(17)
F1 F 0.4392(2) 0.4945(4) 0.5020(6)
F2 F 0.4617(2) 0.7583(4) 0.7505(5)
F3 F 0.3116(2) 1.0711(3) 0.2166(5)
F4 F 0.2918(2) 0.8088(4) -0.0329(5)
N1 N 0.3523(4) 0.3957(5) -0.0200(10)
C1 C 0.3578(4) 0.5056(7) 0.0911(10)
C2 C 0.3666(4) 0.6452(7) 0.2275(10)
C3 C 0.4088(4) 0.6378(7) 0.4313(10)
C4 C 0.4210(4) 0.7720(8) 0.5563(10)
C5 C 0.3864(3) 0.9206(7) 0.4867(11)
C6 C 0.3452(4) 0.9306(6) 0.2867(10)
C7 C 0.3348(3) 0.7962(6) 0.1576(15)
Br1 Br 0.60505(3) -0.10254(6) 1.16783(17)
F1 F 0.5608(2) 0.5055(4) 1.0020(6)
F2 F 0.5383(2) 0.2417(4) 1.2505(5)
F3 F 0.6884(2) -0.0711(3) 0.7166(5)
F4 F 0.7082(2) 0.1912(4) 0.4671(5)
N1 N 0.6477(4) 0.6043(5) 0.4800(10)
C1 C 0.6422(4) 0.4944(7) 0.5911(10)
C2 C 0.6334(4) 0.3548(7) 0.7275(10)
C3 C 0.5912(4) 0.3622(7) 0.9313(10)
C4 C 0.5790(4) 0.2280(8) 1.0563(10)
C5 C 0.6136(3) 0.0794(7) 0.9867(11)
C6 C 0.6548(4) 0.0694(6) 0.7867(10)
C7 C 0.6652(3) 0.2038(6) 0.6576(15)

#END
