./ACOMAI_from_xyz.cif_generated_by_CrystalShift
_symmetry_cell_setting triclinic
_symmetry_space_group_name_H-M 'P 1'
loop_
_symmetry_equiv_pos_site_id
_symmetry_equiv_pos_as_xyz
1 x,y,z
_cell_length_a 9.582000
_cell_length_b 10.189000
_cell_length_c 12.743000
_cell_angle_alpha 80.315000
_cell_angle_beta 81.682000
_cell_angle_gamma 72.174000
_cell_volume 1161.734362
loop_
_atom_site_label
_atom_site_type_symbol
_atom_site_fract_x
_atom_site_fract_y
_atom_site_fract_z
Sn1 Sn 0.203720 0.220800 0.300390
Cl2 Cl 0.419200 0.023900 0.293800
O3 O 0.032800 0.419800 0.251000
O4 O 0.279400 0.288600 0.147300
O5 O 0.176800 0.610700 -0.028000
C6 C 0.261000 0.318400 0.416800
C7 C 0.387100 0.429700 -0.061600
C8 C 0.039300 0.116200 0.321500
C9 C 0.380400 0.251400 0.473900
H10 H 0.434800 0.160700 0.464400
C11 C -0.008600 0.624500 0.122500
C12 C 0.070600 0.483200 0.165700
C13 C 0.252000 0.482300 0.011000
C14 C 0.181000 0.448500 0.434700
H15 H 0.098200 0.493000 0.398300
C16 C 0.204700 0.414200 0.105400
C17 C 0.047600 0.682100 0.028100
C18 C 0.427100 0.517000 -0.149200
H19 H 0.370000 0.609000 -0.162100
C20 C 0.073200 -0.025100 0.351900
H21 H 0.170300 -0.076800 0.360300
C22 C -0.137900 0.699600 0.173900
H23 H -0.177500 0.660300 0.238100
C24 C -0.106700 0.189500 0.310600
H25 H -0.133500 0.285000 0.289300
C26 C -0.207300 0.830400 0.131300
H27 H -0.294400 0.881300 0.165800
C28 C 0.549000 0.468000 -0.215600
H29 H 0.576900 0.529000 -0.271700
C30 C 0.473300 0.293100 -0.046400
H31 H 0.451000 0.232000 0.011900
C32 C 0.219000 0.516800 0.505400
H33 H 0.164600 0.607500 0.514800
C34 C 0.419600 0.320000 0.546700
H35 H 0.501500 0.276800 0.584200
C36 C 0.337000 0.450000 0.561200
H37 H 0.360800 0.495700 0.610600
C38 C -0.214500 0.118000 0.332300
H39 H -0.313100 0.167600 0.328000
C40 C -0.178000 -0.021000 0.359100
H41 H -0.249600 -0.067700 0.369700
C42 C -0.019000 0.816100 -0.018700
H43 H 0.020700 0.854600 -0.082900
C44 C 0.631000 0.336000 -0.203900
H45 H 0.712700 0.304300 -0.252100
C46 C -0.036000 -0.090400 0.370100
H47 H -0.010300 -0.186000 0.390700
C48 C -0.146000 0.888500 0.034500
H49 H -0.194000 0.978700 0.005800
C50 C 0.592000 0.250000 -0.118900
H51 H 0.648500 0.156900 -0.109900
Sn52 Sn 0.796280 0.779200 0.699610
Cl53 Cl 0.580800 0.976100 0.706200
O54 O 0.967200 0.580200 0.749000
O55 O 0.720600 0.711400 0.852700
O56 O 0.823200 0.389300 1.028000
C57 C 0.739000 0.681600 0.583200
C58 C 0.612900 0.570300 1.061600
C59 C 0.960700 0.883800 0.678500
C60 C 0.619600 0.748600 0.526100
H61 H 0.565200 0.839300 0.535600
C62 C 1.008600 0.375500 0.877500
C63 C 0.929400 0.516800 0.834300
C64 C 0.748000 0.517700 0.989000
C65 C 0.819000 0.551500 0.565300
H66 H 0.901800 0.507000 0.601700
C67 C 0.795300 0.585800 0.894600
C68 C 0.952400 0.317900 0.971900
C69 C 0.572900 0.483000 1.149200
H70 H 0.630000 0.391000 1.162100
C71 C 0.926800 1.025100 0.648100
H72 H 0.829700 1.076800 0.639700
C73 C 1.137900 0.300400 0.826100
H74 H 1.177500 0.339700 0.761900
C75 C 1.106700 0.810500 0.689400
H76 H 1.133500 0.715000 0.710700
C77 C 1.207300 0.169600 0.868700
H78 H 1.294400 0.118700 0.834200
C79 C 0.451000 0.532000 1.215600
H80 H 0.423100 0.471000 1.271700
C81 C 0.526700 0.706900 1.046400
H82 H 0.549000 0.768000 0.988100
C83 C 0.781000 0.483200 0.494600
H84 H 0.835400 0.392500 0.485200
C85 C 0.580400 0.680000 0.453300
H86 H 0.498500 0.723200 0.415800
C87 C 0.663000 0.550000 0.438800
H88 H 0.639200 0.504300 0.389400
C89 C 1.214500 0.882000 0.667700
H90 H 1.313100 0.832400 0.672000
C91 C 1.178000 1.021000 0.640900
H92 H 1.249600 1.067700 0.630300
C93 C 1.019000 0.183900 1.018700
H94 H 0.979300 0.145400 1.082900
C95 C 0.369000 0.664000 1.203900
H96 H 0.287300 0.695700 1.252100
C97 C 1.036000 1.090400 0.629900
H98 H 1.010300 1.186000 0.609300
C99 C 1.146000 0.111500 0.965500
H100 H 1.194000 0.021300 0.994200
C101 C 0.408000 0.750000 1.118900
H102 H 0.351500 0.843100 1.109900

#END
