./ACOMUC_from_xyz.cif_generated_by_CrystalShift
_symmetry_cell_setting triclinic
_symmetry_space_group_name_H-M 'P 1'
loop_
_symmetry_equiv_pos_site_id
_symmetry_equiv_pos_as_xyz
1 x,y,z
_cell_length_a 16.182200
_cell_length_b 4.806800
_cell_length_c 21.705300
_cell_angle_alpha 90.000000
_cell_angle_beta 102.360000
_cell_angle_gamma 90.000000
_cell_volume 1649.205713
loop_
_atom_site_label
_atom_site_type_symbol
_atom_site_fract_x
_atom_site_fract_y
_atom_site_fract_z
C1 C 0.522880 0.522900 0.632420
C2 C 0.509830 0.671500 0.576140
H3 H 0.544800 0.640300 0.546800
C4 C 0.445640 0.863900 0.563660
H5 H 0.436400 0.960300 0.524600
C6 C 0.409030 0.782000 0.658050
H7 H 0.374600 0.822700 0.687300
C8 C 0.470670 0.580900 0.673510
H9 H 0.477200 0.482700 0.712200
C10 C 0.589170 0.302800 0.650120
N11 N 0.648450 0.278500 0.616570
H12 H 0.689200 0.146000 0.629400
H13 H 0.652700 0.402000 0.586500
N14 N 0.395550 0.923000 0.603370
O15 O 0.586540 0.147600 0.695450
C16 C 0.477120 0.022900 0.867580
C17 C 0.490170 0.171500 0.923860
H18 H 0.455200 0.140300 0.953200
C19 C 0.554360 0.363900 0.936340
H20 H 0.563600 0.460300 0.975400
C21 C 0.590970 0.282000 0.841950
H22 H 0.625400 0.322700 0.812700
C23 C 0.529330 0.080900 0.826490
H24 H 0.522800 -0.017300 0.787800
C25 C 0.410830 -0.197200 0.849880
N26 N 0.351550 -0.221500 0.883430
H27 H 0.310800 -0.354000 0.870600
H28 H 0.347300 -0.098000 0.913500
N29 N 0.604450 0.423000 0.896630
O30 O 0.413460 -0.352400 0.804550
C31 C 0.477120 0.477100 0.367580
C32 C 0.490170 0.328500 0.423860
H33 H 0.455200 0.359700 0.453200
C34 C 0.554360 0.136100 0.436340
H35 H 0.563600 0.039700 0.475400
C36 C 0.590970 0.218000 0.341950
H37 H 0.625400 0.177300 0.312700
C38 C 0.529330 0.419100 0.326490
H39 H 0.522800 0.517300 0.287800
C40 C 0.410830 0.697200 0.349880
N41 N 0.351550 0.721500 0.383430
H42 H 0.310800 0.854000 0.370600
H43 H 0.347300 0.598000 0.413500
N44 N 0.604450 0.077000 0.396630
O45 O 0.413460 0.852400 0.304550
C46 C 0.522880 0.977100 0.132420
C47 C 0.509830 0.828500 0.076140
H48 H 0.544800 0.859700 0.046800
C49 C 0.445640 0.636100 0.063660
H50 H 0.436400 0.539700 0.024600
C51 C 0.409030 0.718000 0.158050
H52 H 0.374600 0.677300 0.187300
C53 C 0.470670 0.919100 0.173510
H54 H 0.477200 1.017300 0.212200
C55 C 0.589170 1.197200 0.150120
N56 N 0.648450 1.221500 0.116570
H57 H 0.689200 1.354000 0.129400
H58 H 0.652700 1.098000 0.086500
N59 N 0.395550 0.577000 0.103370
O60 O 0.586540 1.352400 0.195450
C61 C 0.201700 0.623400 0.501990
H62 H 0.218000 0.800500 0.525700
C63 C 0.112950 0.535900 0.508530
H64 H 0.103800 0.332100 0.507000
H65 H 0.095200 0.618800 0.545400
C66 C 0.076810 0.684300 0.446140
H67 H 0.035800 0.571000 0.415900
H68 H 0.053700 0.871400 0.451400
C69 C 0.165730 0.688800 0.432490
H70 H 0.175800 0.540600 0.403300
H71 H 0.182800 0.872900 0.419000
C72 C 0.271750 0.417300 0.519080
O73 O 0.274970 0.299000 0.574220
H74 H 0.326300 0.158000 0.584800
O75 O 0.321420 0.361200 0.485930
C76 C 0.798300 0.123400 -0.001990
H77 H 0.782000 0.300500 -0.025700
C78 C 0.887050 0.035900 -0.008530
H79 H 0.896200 -0.167900 -0.007000
H80 H 0.904800 0.118800 -0.045400
C81 C 0.923190 0.184300 0.053860
H82 H 0.964200 0.071000 0.084100
H83 H 0.946300 0.371400 0.048600
C84 C 0.834270 0.188800 0.067510
H85 H 0.824200 0.040600 0.096700
H86 H 0.817200 0.372900 0.081000
C87 C 0.728250 -0.082700 -0.019080
O88 O 0.725030 -0.201000 -0.074220
H89 H 0.673700 -0.342000 -0.084800
O90 O 0.678580 -0.138800 0.014070
C91 C 0.798300 0.376600 0.498010
H92 H 0.782000 0.199500 0.474300
C93 C 0.887050 0.464100 0.491470
H94 H 0.896200 0.667900 0.493000
H95 H 0.904800 0.381200 0.454600
C96 C 0.923190 0.315700 0.553860
H97 H 0.964200 0.429000 0.584100
H98 H 0.946300 0.128600 0.548600
C99 C 0.834270 0.311200 0.567510
H100 H 0.824200 0.459400 0.596700
H101 H 0.817200 0.127100 0.581000
C102 C 0.728250 0.582700 0.480920
O103 O 0.725030 0.701000 0.425780
H104 H 0.673700 0.842000 0.415200
O105 O 0.678580 0.638800 0.514070
C106 C 0.201700 0.876600 1.001990
H107 H 0.218000 0.699500 1.025700
C108 C 0.112950 0.964100 1.008530
H109 H 0.103800 1.167900 1.007000
H110 H 0.095200 0.881200 1.045400
C111 C 0.076810 0.815700 0.946140
H112 H 0.035800 0.929000 0.915900
H113 H 0.053700 0.628600 0.951400
C114 C 0.165730 0.811200 0.932490
H115 H 0.175800 0.959400 0.903300
H116 H 0.182800 0.627100 0.919000
C117 C 0.271750 1.082700 1.019080
O118 O 0.274970 1.201000 1.074220
H119 H 0.326300 1.342000 1.084800
O120 O 0.321420 1.138800 0.985930
C121 C 0.810960 0.480800 0.754750
H122 H 0.781000 0.299600 0.743900
C123 C 0.845510 0.492300 0.825460
H124 H 0.815500 0.369100 0.850000
H125 H 0.850700 0.683300 0.843000
C126 C 0.929160 0.371300 0.814670
H127 H 0.980100 0.471300 0.837400
H128 H 0.934900 0.168000 0.821700
C129 C 0.900820 0.453700 0.745610
H130 H 0.925500 0.631100 0.734900
H131 H 0.908300 0.304800 0.715800
C132 C 0.756080 0.709600 0.723180
O133 O 0.688320 0.750500 0.747030
H134 H 0.649100 0.918000 0.724200
O135 O 0.771350 0.848400 0.680100
C136 C 0.189040 -0.019200 0.745250
H137 H 0.219000 -0.200400 0.756100
C138 C 0.154490 -0.007700 0.674540
H139 H 0.184500 -0.130900 0.650000
H140 H 0.149300 0.183300 0.657000
C141 C 0.070840 -0.128700 0.685330
H142 H 0.019900 -0.028700 0.662600
H143 H 0.065100 -0.332000 0.678300
C144 C 0.099180 -0.046300 0.754390
H145 H 0.074500 0.131100 0.765100
H146 H 0.091700 -0.195200 0.784200
C147 C 0.243920 0.209600 0.776820
O148 O 0.311680 0.250500 0.752970
H149 H 0.350900 0.418000 0.775800
O150 O 0.228650 0.348400 0.819900
C151 C 0.189040 0.519200 0.245250
H152 H 0.219000 0.700400 0.256100
C153 C 0.154490 0.507700 0.174540
H154 H 0.184500 0.630900 0.150000
H155 H 0.149300 0.316700 0.157000
C156 C 0.070840 0.628700 0.185330
H157 H 0.019900 0.528700 0.162600
H158 H 0.065100 0.832000 0.178300
C159 C 0.099180 0.546300 0.254390
H160 H 0.074500 0.368900 0.265100
H161 H 0.091700 0.695200 0.284200
C162 C 0.243920 0.290400 0.276820
O163 O 0.311680 0.249500 0.252970
H164 H 0.350900 0.082000 0.275800
O165 O 0.228650 0.151600 0.319900
C166 C 0.810960 1.019200 0.254750
H167 H 0.781000 1.200400 0.243900
C168 C 0.845510 1.007700 0.325460
H169 H 0.815500 1.130900 0.350000
H170 H 0.850700 0.816700 0.343000
C171 C 0.929160 1.128700 0.314670
H172 H 0.980100 1.028700 0.337400
H173 H 0.934900 1.332000 0.321700
C174 C 0.900820 1.046300 0.245610
H175 H 0.925500 0.868900 0.234900
H176 H 0.908300 1.195200 0.215800
C177 C 0.756080 0.790400 0.223180
O178 O 0.688320 0.749500 0.247030
H179 H 0.649100 0.582000 0.224200
O180 O 0.771350 0.651600 0.180100

#END
