
#######################################################################
#
#                 Cambridge Crystallographic Data Centre
#                                CCDC 
#
#######################################################################
#
# If this CIF has been generated from an entry in the Cambridge 
# Structural Database, then it will include bibliographic, chemical, 
# crystal, experimental, refinement or atomic coordinate data resulting 
# from the CCDC's data processing and validation procedures.
#
#######################################################################

data_ACOMUC01
_symmetry_cell_setting           triclinic
_symmetry_space_group_name_H-M   'P -1'
_symmetry_Int_Tables_number      2
_space_group_name_Hall           '-P 1'
loop_
_symmetry_equiv_pos_site_id
_symmetry_equiv_pos_as_xyz
1 x,y,z
2 -x,-y,-z
_cell_length_a                   10.5050(8)
_cell_length_b                   12.8430(10)
_cell_length_c                   13.0810(10)
_cell_angle_alpha                101.339(3)
_cell_angle_beta                 90.243(3)
_cell_angle_gamma                101.687(3)
_cell_volume                     1692.73
loop_
_atom_site_label
_atom_site_type_symbol
_atom_site_fract_x
_atom_site_fract_y
_atom_site_fract_z
C1 C 0.7319(2) 0.51389(19) 0.51001(17)
C2 C 0.7785(2) 0.5189(2) 0.41191(18)
H1 H 0.752 0.5662 0.3726
C3 C 0.8647(2) 0.4536(2) 0.37163(19)
H2 H 0.897 0.4579 0.3045
C4 C 0.8579(2) 0.3793(2) 0.51704(19)
H3 H 0.8842 0.3297 0.5537
C5 C 0.7726(2) 0.4430(2) 0.56382(19)
H4 H 0.743 0.4377 0.6315
C6 C 0.6405(2) 0.5826(2) 0.56249(19)
N1 N 0.5940(2) 0.64437(19) 0.50866(18)
H19 H 0.539(2) 0.684(2) 0.544(2)
H20 H 0.615(2) 0.647(2) 0.442(2)
N2 N 0.90370(18) 0.38515(17) 0.42377(15)
O1 O 0.61250(16) 0.57794(15) 0.65359(13)
C1 C 0.2681(2) 0.48611(19) 0.48999(17)
C2 C 0.2215(2) 0.4811(2) 0.58809(18)
H1 H 0.248 0.4338 0.6274
C3 C 0.1353(2) 0.5464(2) 0.62837(19)
H2 H 0.103 0.5421 0.6955
C4 C 0.1421(2) 0.6207(2) 0.48296(19)
H3 H 0.1158 0.6703 0.4463
C5 C 0.2274(2) 0.5570(2) 0.43618(19)
H4 H 0.257 0.5623 0.3685
C6 C 0.3595(2) 0.4174(2) 0.43751(19)
N1 N 0.4060(2) 0.35563(19) 0.49134(18)
H19 H 0.461(2) 0.316(2) 0.456(2)
H20 H 0.385(2) 0.353(2) 0.558(2)
N2 N 0.09630(18) 0.61485(17) 0.57623(15)
O1 O 0.38750(16) 0.42206(15) 0.34641(13)
C7 C 0.1890(2) 0.2088(2) 0.2014(2)
H5 H 0.2709 0.2608 0.1921
C8 C 0.2248(3) 0.1162(2) 0.2446(2)
H6 H 0.1564 0.0811 0.286
H7 H 0.3106 0.1355 0.2829
C9 C 0.2268(3) 0.0535(3) 0.1316(2)
H8 H 0.3148 0.0598 0.1036
H9 H 0.1802 -0.0233 0.12
C10 C 0.1476(3) 0.1296(3) 0.0971(2)
H10 H 0.0528 0.0991 0.0882
H11 H 0.1809 0.1584 0.0353
C11 C 0.0932(2) 0.2722(2) 0.2530(2)
O2 O 0.07269(17) 0.26657(16) 0.34955(14)
H21 H 0.016(3) 0.312(2) 0.381(2)
O3 O 0.03903(16) 0.32627(15) 0.20593(13)
C7 C 0.8110(2) 0.7912(2) 0.7986(2)
H5 H 0.7291 0.7392 0.8079
C8 C 0.7752(3) 0.8838(2) 0.7554(2)
H6 H 0.8436 0.9189 0.714
H7 H 0.6894 0.8645 0.7171
C9 C 0.7732(3) 0.9465(3) 0.8684(2)
H8 H 0.6852 0.9402 0.8964
H9 H 0.8198 1.0233 0.88
C10 C 0.8524(3) 0.8704(3) 0.9029(2)
H10 H 0.9472 0.9009 0.9118
H11 H 0.8191 0.8416 0.9647
C11 C 0.9068(2) 0.7278(2) 0.7470(2)
O2 O 0.92731(17) 0.73343(16) 0.65045(14)
H21 H 0.984(3) 0.688(2) 0.619(2)
O3 O 0.96097(16) 0.67373(15) 0.79407(13)
C12 C 0.3034(2) 0.7966(2) 0.7884(2)
H12 H 0.2292 0.7392 0.8017
C13 C 0.3578(3) 0.8746(2) 0.8930(2)
H13 H 0.3382 0.8424 0.9555
H14 H 0.4512 0.9085 0.8931
C14 C 0.2657(3) 0.9482(3) 0.8729(2)
H15 H 0.3078 1.0261 0.8843
H16 H 0.1837 0.9375 0.9102
C15 C 0.2516(2) 0.8902(2) 0.7571(2)
H17 H 0.1606 0.8691 0.7284
H18 H 0.3089 0.9295 0.7111
C16 C 0.3960(2) 0.7462(2) 0.7188(2)
O4 O 0.44896(18) 0.67869(17) 0.76253(14)
H22 H 0.499(3) 0.650(2) 0.716(2)
O5 O 0.42171(17) 0.76408(15) 0.63338(14)
C12 C 0.6966(2) 0.2034(2) 0.2116(2)
H12 H 0.7708 0.2608 0.1983
C13 C 0.6422(3) 0.1254(2) 0.1070(2)
H13 H 0.6618 0.1576 0.0445
H14 H 0.5488 0.0915 0.1069
C14 C 0.7343(3) 0.0518(3) 0.1271(2)
H15 H 0.6922 -0.0261 0.1157
H16 H 0.8163 0.0625 0.0898
C15 C 0.7484(2) 0.1098(2) 0.2429(2)
H17 H 0.8394 0.1309 0.2716
H18 H 0.6911 0.0705 0.2889
C16 C 0.6040(2) 0.2538(2) 0.2812(2)
O4 O 0.55104(18) 0.32131(17) 0.23747(14)
H22 H 0.501(3) 0.350(2) 0.284(2)
O5 O 0.57829(17) 0.23592(15) 0.36662(14)
C17 C 0.2252(2) 0.48508(19) -0.00772(17)
C18 C 0.2696(2) 0.4806(2) 0.09014(19)
H23 H 0.2198 0.4334 0.1295
C19 C 0.3886(2) 0.5461(2) 0.13087(19)
H24 H 0.4192 0.5424 0.1982
C20 C 0.4168(2) 0.6191(2) -0.01564(19)
H25 H 0.4674 0.6685 -0.0525
C21 C 0.3004(2) 0.5555(2) -0.06213(19)
H26 H 0.2728 0.5603 -0.13
C22 C 0.0989(2) 0.4160(2) -0.06041(19)
N3 N 0.0230(2) 0.35482(19) -0.00632(18)
H41 H -0.052(2) 0.313(2) -0.039(2)
H42 H 0.045(2) 0.352(2) 0.066(2)
N4 N 0.46051(18) 0.61367(17) 0.07841(15)
O6 O 0.07175(15) 0.42053(15) -0.15174(13)
C17 C 0.7748(2) 0.51492(19) 1.00772(17)
C18 C 0.7304(2) 0.5194(2) 0.90986(19)
H23 H 0.7802 0.5666 0.8705
C19 C 0.6114(2) 0.4539(2) 0.86913(19)
H24 H 0.5808 0.4576 0.8018
C20 C 0.5832(2) 0.3809(2) 1.01564(19)
H25 H 0.5326 0.3315 1.0525
C21 C 0.6996(2) 0.4445(2) 1.06213(19)
H26 H 0.7272 0.4397 1.13
C22 C 0.9011(2) 0.5840(2) 1.06041(19)
N3 N 0.9770(2) 0.64518(19) 1.00632(18)
H41 H 1.052(2) 0.687(2) 1.039(2)
H42 H 0.955(2) 0.648(2) 0.934(2)
N4 N 0.53949(18) 0.38633(17) 0.92159(15)
O6 O 0.92825(15) 0.57947(15) 1.15174(13)
C23 C 0.8345(2) 0.7876(2) 0.3023(2)
H27 H 0.8895 0.7346 0.311
C24 C 0.9177(3) 0.8800(2) 0.2601(2)
H28 H 0.8675 0.9162 0.2189
H29 H 0.9932 0.86 0.222
C25 C 0.9517(3) 0.9413(3) 0.3727(2)
H30 H 0.9442 1.0183 0.3847
H31 H 1.0366 0.9342 0.4007
C26 C 0.8341(3) 0.8658(3) 0.4074(2)
H32 H 0.8534 0.836 0.4687
H33 H 0.7552 0.897 0.417
C27 C 0.7062(2) 0.7258(2) 0.25079(19)
O7 O 0.68930(16) 0.73200(16) 0.15326(13)
H43 H 0.612(3) 0.694(2) 0.136(2)
O8 O 0.62488(16) 0.67366(16) 0.29734(13)
C23 C 0.1655(2) 0.2124(2) 0.6977(2)
H27 H 0.1105 0.2654 0.689
C24 C 0.0823(3) 0.1200(2) 0.7399(2)
H28 H 0.1325 0.0838 0.7811
H29 H 0.0068 0.14 0.778
C25 C 0.0483(3) 0.0587(3) 0.6273(2)
H30 H 0.0558 -0.0183 0.6153
H31 H -0.0366 0.0658 0.5993
C26 C 0.1659(3) 0.1342(3) 0.5926(2)
H32 H 0.1466 0.164 0.5313
H33 H 0.2448 0.103 0.583
C27 C 0.2938(2) 0.2742(2) 0.74921(19)
O7 O 0.31070(16) 0.26800(16) 0.84674(13)
H43 H 0.388(3) 0.306(2) 0.864(2)
O8 O 0.37512(16) 0.32634(16) 0.70266(13)
C28 C 0.6538(2) 0.2000(2) 0.71404(19)
H34 H 0.6078 0.2569 0.6997
C29 C 0.6688(3) 0.1215(2) 0.6107(2)
H35 H 0.6657 0.153 0.5478
H36 H 0.7447 0.0868 0.6117
C30 C 0.5394(3) 0.0496(3) 0.6311(2)
H37 H 0.463 0.0615 0.5939
H38 H 0.5411 -0.0286 0.6198
C31 C 0.5565(2) 0.1075(2) 0.7460(2)
H39 H 0.4767 0.1291 0.7752
H40 H 0.595 0.0682 0.7918
C32 C 0.7732(2) 0.2522(2) 0.7839(2)
O9 O 0.85835(17) 0.31816(17) 0.73961(14)
H44 H 0.921(3) 0.350(2) 0.781(2)
O10 O 0.79028(16) 0.23429(15) 0.86945(14)
C28 C 0.3462(2) 0.8000(2) 0.28596(19)
H34 H 0.3922 0.7431 0.3003
C29 C 0.3312(3) 0.8785(2) 0.3893(2)
H35 H 0.3343 0.847 0.4522
H36 H 0.2553 0.9132 0.3883
C30 C 0.4606(3) 0.9504(3) 0.3689(2)
H37 H 0.537 0.9385 0.4061
H38 H 0.4589 1.0286 0.3802
C31 C 0.4435(2) 0.8925(2) 0.2540(2)
H39 H 0.5233 0.8709 0.2248
H40 H 0.405 0.9318 0.2082
C32 C 0.2268(2) 0.7478(2) 0.2161(2)
O9 O 0.14165(17) 0.68184(17) 0.26039(14)
H44 H 0.079(3) 0.650(2) 0.219(2)
O10 O 0.20972(16) 0.76571(15) 0.13055(14)

#END
