./ACOMUC01_from_xyz.cif_generated_by_CrystalShift
_symmetry_cell_setting triclinic
_symmetry_space_group_name_H-M 'P 1'
loop_
_symmetry_equiv_pos_site_id
_symmetry_equiv_pos_as_xyz
1 x,y,z
_cell_length_a 10.505000
_cell_length_b 12.843000
_cell_length_c 13.081000
_cell_angle_alpha 101.339000
_cell_angle_beta 90.243000
_cell_angle_gamma 101.687000
_cell_volume 1692.726145
loop_
_atom_site_label
_atom_site_type_symbol
_atom_site_fract_x
_atom_site_fract_y
_atom_site_fract_z
C1 C 0.731900 0.513890 0.510010
C2 C 0.778500 0.518900 0.411910
H3 H 0.752000 0.566200 0.372600
C4 C 0.864700 0.453600 0.371630
H5 H 0.897000 0.457900 0.304500
C6 C 0.857900 0.379300 0.517040
H7 H 0.884200 0.329700 0.553700
C8 C 0.772600 0.443000 0.563820
H9 H 0.743000 0.437700 0.631500
C10 C 0.640500 0.582600 0.562490
N11 N 0.594000 0.644370 0.508660
H12 H 0.539000 0.684000 0.544000
H13 H 0.615000 0.647000 0.442000
N14 N 0.903700 0.385150 0.423770
O15 O 0.612500 0.577940 0.653590
C16 C 0.268100 0.486110 0.489990
C17 C 0.221500 0.481100 0.588090
H18 H 0.248000 0.433800 0.627400
C19 C 0.135300 0.546400 0.628370
H20 H 0.103000 0.542100 0.695500
C21 C 0.142100 0.620700 0.482960
H22 H 0.115800 0.670300 0.446300
C23 C 0.227400 0.557000 0.436180
H24 H 0.257000 0.562300 0.368500
C25 C 0.359500 0.417400 0.437510
N26 N 0.406000 0.355630 0.491340
H27 H 0.461000 0.316000 0.456000
H28 H 0.385000 0.353000 0.558000
N29 N 0.096300 0.614850 0.576230
O30 O 0.387500 0.422060 0.346410
C31 C 0.189000 0.208800 0.201400
H32 H 0.270900 0.260800 0.192100
C33 C 0.224800 0.116200 0.244600
H34 H 0.156400 0.081100 0.286000
H35 H 0.310600 0.135500 0.282900
C36 C 0.226800 0.053500 0.131600
H37 H 0.314800 0.059800 0.103600
H38 H 0.180200 -0.023300 0.120000
C39 C 0.147600 0.129600 0.097100
H40 H 0.052800 0.099100 0.088200
H41 H 0.180900 0.158400 0.035300
C42 C 0.093200 0.272200 0.253000
O43 O 0.072690 0.266570 0.349550
H44 H 0.016000 0.312000 0.381000
O45 O 0.039030 0.326270 0.205930
C46 C 0.811000 0.791200 0.798600
H47 H 0.729100 0.739200 0.807900
C48 C 0.775200 0.883800 0.755400
H49 H 0.843600 0.918900 0.714000
H50 H 0.689400 0.864500 0.717100
C51 C 0.773200 0.946500 0.868400
H52 H 0.685200 0.940200 0.896400
H53 H 0.819800 1.023300 0.880000
C54 C 0.852400 0.870400 0.902900
H55 H 0.947200 0.900900 0.911800
H56 H 0.819100 0.841600 0.964700
C57 C 0.906800 0.727800 0.747000
O58 O 0.927310 0.733430 0.650450
H59 H 0.984000 0.688000 0.619000
O60 O 0.960970 0.673730 0.794070
C61 C 0.303400 0.796600 0.788400
H62 H 0.229200 0.739200 0.801700
C63 C 0.357800 0.874600 0.893000
H64 H 0.338200 0.842400 0.955500
H65 H 0.451200 0.908500 0.893100
C66 C 0.265700 0.948200 0.872900
H67 H 0.307800 1.026100 0.884300
H68 H 0.183700 0.937500 0.910200
C69 C 0.251600 0.890200 0.757100
H70 H 0.160600 0.869100 0.728400
H71 H 0.308900 0.929500 0.711100
C72 C 0.396000 0.746200 0.718800
O73 O 0.448960 0.678690 0.762530
H74 H 0.499000 0.650000 0.716000
O75 O 0.421710 0.764080 0.633380
C76 C 0.696600 0.203400 0.211600
H77 H 0.770800 0.260800 0.198300
C78 C 0.642200 0.125400 0.107000
H79 H 0.661800 0.157600 0.044500
H80 H 0.548800 0.091500 0.106900
C81 C 0.734300 0.051800 0.127100
H82 H 0.692200 -0.026100 0.115700
H83 H 0.816300 0.062500 0.089800
C84 C 0.748400 0.109800 0.242900
H85 H 0.839400 0.130900 0.271600
H86 H 0.691100 0.070500 0.288900
C87 C 0.604000 0.253800 0.281200
O88 O 0.551040 0.321310 0.237470
H89 H 0.501000 0.350000 0.284000
O90 O 0.578290 0.235920 0.366620
C91 C 0.225200 0.485080 -0.007720
C92 C 0.269600 0.480600 0.090140
H93 H 0.219800 0.433400 0.129500
C94 C 0.388600 0.546100 0.130870
H95 H 0.419200 0.542400 0.198200
C96 C 0.416800 0.619100 -0.015640
H97 H 0.467400 0.668500 -0.052500
C98 C 0.300400 0.555500 -0.062130
H99 H 0.272800 0.560300 -0.130000
C100 C 0.098900 0.416000 -0.060410
N101 N 0.023000 0.354820 -0.006320
H102 H -0.052000 0.313000 -0.039000
H103 H 0.045000 0.352000 0.066000
N104 N 0.460510 0.613670 0.078410
O105 O 0.071750 0.420530 -0.151740
C106 C 0.774800 0.514920 1.007720
C107 C 0.730400 0.519400 0.909860
H108 H 0.780200 0.566600 0.870500
C109 C 0.611400 0.453900 0.869130
H110 H 0.580800 0.457600 0.801800
C111 C 0.583200 0.380900 1.015640
H112 H 0.532600 0.331500 1.052500
C113 C 0.699600 0.444500 1.062130
H114 H 0.727200 0.439700 1.130000
C115 C 0.901100 0.584000 1.060410
N116 N 0.977000 0.645180 1.006320
H117 H 1.052000 0.687000 1.039000
H118 H 0.955000 0.648000 0.934000
N119 N 0.539490 0.386330 0.921590
O120 O 0.928250 0.579470 1.151740
C121 C 0.834500 0.787600 0.302300
H122 H 0.889500 0.734600 0.311000
C123 C 0.917700 0.880000 0.260100
H124 H 0.867500 0.916200 0.218900
H125 H 0.993200 0.860000 0.222000
C126 C 0.951700 0.941300 0.372700
H127 H 0.944200 1.018300 0.384700
H128 H 1.036600 0.934200 0.400700
C129 C 0.834100 0.865800 0.407400
H130 H 0.853400 0.836000 0.468700
H131 H 0.755200 0.897000 0.417000
C132 C 0.706200 0.725800 0.250790
O133 O 0.689300 0.732000 0.153260
H134 H 0.612000 0.694000 0.136000
O135 O 0.624880 0.673660 0.297340
C136 C 0.165500 0.212400 0.697700
H137 H 0.110500 0.265400 0.689000
C138 C 0.082300 0.120000 0.739900
H139 H 0.132500 0.083800 0.781100
H140 H 0.006800 0.140000 0.778000
C141 C 0.048300 0.058700 0.627300
H142 H 0.055800 -0.018300 0.615300
H143 H -0.036600 0.065800 0.599300
C144 C 0.165900 0.134200 0.592600
H145 H 0.146600 0.164000 0.531300
H146 H 0.244800 0.103000 0.583000
C147 C 0.293800 0.274200 0.749210
O148 O 0.310700 0.268000 0.846740
H149 H 0.388000 0.306000 0.864000
O150 O 0.375120 0.326340 0.702660
C151 C 0.653800 0.200000 0.714040
H152 H 0.607800 0.256900 0.699700
C153 C 0.668800 0.121500 0.610700
H154 H 0.665700 0.153000 0.547800
H155 H 0.744700 0.086800 0.611700
C156 C 0.539400 0.049600 0.631100
H157 H 0.463000 0.061500 0.593900
H158 H 0.541100 -0.028600 0.619800
C159 C 0.556500 0.107500 0.746000
H160 H 0.476700 0.129100 0.775200
H161 H 0.595000 0.068200 0.791800
C162 C 0.773200 0.252200 0.783900
O163 O 0.858350 0.318160 0.739610
H164 H 0.921000 0.350000 0.781000
O165 O 0.790280 0.234290 0.869450
C166 C 0.346200 0.800000 0.285960
H167 H 0.392200 0.743100 0.300300
C168 C 0.331200 0.878500 0.389300
H169 H 0.334300 0.847000 0.452200
H170 H 0.255300 0.913200 0.388300
C171 C 0.460600 0.950400 0.368900
H172 H 0.537000 0.938500 0.406100
H173 H 0.458900 1.028600 0.380200
C174 C 0.443500 0.892500 0.254000
H175 H 0.523300 0.870900 0.224800
H176 H 0.405000 0.931800 0.208200
C177 C 0.226800 0.747800 0.216100
O178 O 0.141650 0.681840 0.260390
H179 H 0.079000 0.650000 0.219000
O180 O 0.209720 0.765710 0.130550

#END
