./ACOMOW_from_xyz.cif_generated_by_CrystalShift
_symmetry_cell_setting triclinic
_symmetry_space_group_name_H-M 'P 1'
loop_
_symmetry_equiv_pos_site_id
_symmetry_equiv_pos_as_xyz
1 x,y,z
_cell_length_a 8.779000
_cell_length_b 24.319900
_cell_length_c 30.660500
_cell_angle_alpha 71.677000
_cell_angle_beta 84.871000
_cell_angle_gamma 83.430000
_cell_volume 6163.531956
loop_
_atom_site_label
_atom_site_type_symbol
_atom_site_fract_x
_atom_site_fract_y
_atom_site_fract_z
C1 C 0.220200 0.996540 0.420210
C2 C 0.244700 0.961700 0.464570
H3 H 0.343500 0.956600 0.476400
C4 C 0.124500 0.934400 0.491560
H5 H 0.143400 0.910000 0.521900
C6 C -0.041100 0.974910 0.434470
H7 H -0.141600 0.980000 0.423800
C8 C 0.073800 1.003460 0.405100
H9 H 0.052200 1.027500 0.374900
C10 C 0.344600 1.028130 0.388020
N11 N 0.487700 1.013370 0.401220
H12 H 0.564100 1.030700 0.383700
H13 H 0.506100 0.986300 0.427500
N14 N -0.016500 0.940550 0.477180
O15 O 0.310600 1.065700 0.351660
C16 C 0.779800 0.003460 0.579790
C17 C 0.755300 0.038300 0.535430
H18 H 0.656500 0.043400 0.523600
C19 C 0.875500 0.065600 0.508440
H20 H 0.856600 0.090000 0.478100
C21 C 1.041100 0.025090 0.565530
H22 H 1.141600 0.020000 0.576200
C23 C 0.926200 -0.003460 0.594900
H24 H 0.947800 -0.027500 0.625100
C25 C 0.655400 -0.028130 0.611980
N26 N 0.512300 -0.013370 0.598780
H27 H 0.435900 -0.030700 0.616300
H28 H 0.493900 0.013700 0.572500
N29 N 1.016500 0.059450 0.522820
O30 O 0.689400 -0.065700 0.648340
C31 C 0.825300 0.148450 0.275310
C32 C 0.792600 0.199310 0.240190
H33 H 0.689300 0.213600 0.233400
C34 C 0.913000 0.228920 0.215210
H35 H 0.889800 0.264300 0.191600
C36 C 1.090900 0.161200 0.256340
H37 H 1.195300 0.147700 0.262000
C38 C 0.977200 0.128910 0.283610
H39 H 1.003400 0.094100 0.307500
C40 C 0.701800 0.113780 0.305730
N41 N 0.560800 0.125040 0.290810
H42 H 0.485200 0.106300 0.307700
H43 H 0.542800 0.151300 0.264100
N44 N 1.059700 0.210410 0.222510
O45 O 0.735000 0.077720 0.342720
C46 C 0.174700 0.851550 0.724690
C47 C 0.207400 0.800690 0.759810
H48 H 0.310700 0.786400 0.766600
C49 C 0.087000 0.771080 0.784790
H50 H 0.110200 0.735700 0.808400
C51 C -0.090900 0.838800 0.743660
H52 H -0.195300 0.852300 0.738000
C53 C 0.022800 0.871090 0.716390
H54 H -0.003400 0.905900 0.692500
C55 C 0.298200 0.886220 0.694270
N56 N 0.439200 0.874960 0.709190
H57 H 0.514800 0.893700 0.692300
H58 H 0.457200 0.848700 0.735900
N59 N -0.059700 0.789590 0.777490
O60 O 0.265000 0.922280 0.657280
C61 C 0.279100 0.360180 0.227310
C62 C 0.260400 0.307230 0.261090
H63 H 0.164500 0.291000 0.266600
C64 C 0.384800 0.278740 0.286460
H65 H 0.372000 0.242400 0.309200
C66 C 0.538500 0.350630 0.247970
H67 H 0.635400 0.366000 0.243400
C68 C 0.421500 0.381520 0.220780
H69 H 0.438500 0.417200 0.197700
C70 C 0.152500 0.393610 0.196680
N71 N 0.009900 0.380250 0.211080
H72 H -0.067300 0.398100 0.194000
H73 H -0.007100 0.353600 0.237600
N74 N 0.520800 0.299610 0.280620
O75 O 0.185100 0.430460 0.159900
C76 C 0.720900 0.639820 0.772690
C77 C 0.739600 0.692770 0.738910
H78 H 0.835500 0.709000 0.733400
C79 C 0.615200 0.721260 0.713540
H80 H 0.628000 0.757600 0.690800
C81 C 0.461500 0.649370 0.752030
H82 H 0.364600 0.634000 0.756600
C83 C 0.578500 0.618480 0.779220
H84 H 0.561500 0.582800 0.802300
C85 C 0.847500 0.606390 0.803320
N86 N 0.990100 0.619750 0.788920
H87 H 1.067300 0.601900 0.806000
H88 H 1.007100 0.646400 0.762400
N89 N 0.479200 0.700390 0.719380
O90 O 0.814900 0.569540 0.840100
C91 C 0.671200 0.503500 0.078650
C92 C 0.702600 0.537400 0.033870
H93 H 0.805700 0.542100 0.022000
C94 C 0.582000 0.564310 0.006660
H95 H 0.604700 0.586900 -0.024200
C96 C 0.405000 0.526670 0.064370
H97 H 0.300700 0.522700 0.075200
C98 C 0.519300 0.497380 0.093900
H99 H 0.493400 0.473500 0.124100
C100 C 0.794100 0.473150 0.111700
N101 N 0.935700 0.489100 0.099280
H102 H 1.011200 0.472800 0.117500
H103 H 0.953800 0.515900 0.072900
N104 N 0.435500 0.560120 0.021600
O105 O 0.760900 0.435940 0.148160
C106 C 0.328800 0.496500 0.921350
C107 C 0.297400 0.462600 0.966130
H108 H 0.194300 0.457900 0.978000
C109 C 0.418000 0.435690 0.993340
H110 H 0.395300 0.413100 1.024200
C111 C 0.595000 0.473330 0.935630
H112 H 0.699300 0.477300 0.924800
C113 C 0.480700 0.502620 0.906100
H114 H 0.506600 0.526500 0.875900
C115 C 0.205900 0.526850 0.888300
N116 N 0.064300 0.510900 0.900720
H117 H -0.011200 0.527200 0.882500
H118 H 0.046200 0.484100 0.927100
N119 N 0.564500 0.439880 0.978400
O120 O 0.239100 0.564060 0.851840
C121 C 0.910300 0.707780 0.041540
C122 C 0.925600 0.762820 0.010940
H123 H 1.020400 0.779700 0.006800
C124 C 0.801400 0.792810 -0.013390
H125 H 0.812900 0.830700 -0.034000
C126 C 0.650700 0.718520 0.020230
H127 H 0.554500 0.702800 0.023700
C128 C 0.769900 0.685720 0.046210
H129 H 0.754900 0.648300 0.067100
C130 C 1.037600 0.672750 0.070920
N131 N 0.666500 0.771450 -0.009570
N132 N 1.179700 0.686090 0.056630
H133 H 1.257300 0.667200 0.073100
H134 H 1.196400 0.713900 0.030700
O135 O 1.005800 0.634220 0.107000
C136 C 0.089700 0.292220 0.958460
C137 C 0.074400 0.237180 0.989060
H138 H -0.020400 0.220300 0.993200
C139 C 0.198600 0.207190 1.013390
H140 H 0.187100 0.169300 1.034000
C141 C 0.349300 0.281480 0.979770
H142 H 0.445500 0.297200 0.976300
C143 C 0.230100 0.314280 0.953790
H144 H 0.245100 0.351700 0.932900
C145 C -0.037600 0.327250 0.929080
N146 N 0.333500 0.228550 1.009570
N147 N -0.179700 0.313910 0.943370
H148 H -0.257300 0.332800 0.926900
H149 H -0.196400 0.286100 0.969300
O150 O -0.005800 0.365780 0.893000
C151 C 0.522400 0.559010 0.186190
C152 C 0.491700 0.524520 0.231250
H153 H 0.388900 0.520100 0.243500
C154 C 0.613500 0.497010 0.257740
H155 H 0.592000 0.473400 0.288400
C156 C 0.788200 0.535760 0.199940
H157 H 0.892100 0.539900 0.188800
C158 C 0.673500 0.565290 0.170930
H159 H 0.698800 0.589600 0.140800
C160 C 0.398000 0.589390 0.153880
N161 N 0.256800 0.573680 0.166380
H162 H 0.181000 0.590400 0.148500
H163 H 0.239100 0.546500 0.192600
N164 N 0.759600 0.501850 0.242640
O165 O 0.430800 0.627060 0.117710
C166 C 0.477600 0.440990 0.813810
C167 C 0.508300 0.475480 0.768750
H168 H 0.611100 0.479900 0.756500
C169 C 0.386500 0.502990 0.742260
H170 H 0.408000 0.526600 0.711600
C171 C 0.211800 0.464240 0.800060
H172 H 0.107900 0.460100 0.811200
C173 C 0.326500 0.434710 0.829070
H174 H 0.301200 0.410400 0.859200
C175 C 0.602000 0.410610 0.846120
N176 N 0.743200 0.426320 0.833620
H177 H 0.819000 0.409600 0.851500
H178 H 0.760900 0.453500 0.807400
N179 N 0.240400 0.498150 0.757360
O180 O 0.569200 0.372940 0.882290
C181 C 0.354500 0.923110 -0.003420
C182 C 0.384300 0.875560 0.034690
H183 H 0.486600 0.862500 0.043400
C184 C 0.261400 0.847230 0.059960
H185 H 0.282600 0.814100 0.085800
C186 C 0.088800 0.909190 0.013380
H187 H -0.014700 0.921500 0.005700
C188 C 0.204000 0.939390 -0.014250
H189 H 0.179300 0.971300 -0.040700
C190 C 0.480000 0.956420 -0.033810
N191 N 0.620000 0.945210 -0.018700
H192 H 0.696100 0.963500 -0.035600
H193 H 0.637200 0.919400 0.008300
N194 N 0.116800 0.863690 0.050160
O195 O 0.448700 0.992040 -0.071290
C196 C 0.645500 0.076890 1.003420
C197 C 0.615700 0.124440 0.965310
H198 H 0.513400 0.137500 0.956600
C199 C 0.738600 0.152770 0.940040
H200 H 0.717400 0.185900 0.914200
C201 C 0.911200 0.090810 0.986620
H202 H 1.014700 0.078500 0.994300
C203 C 0.796000 0.060610 1.014250
H204 H 0.820700 0.028700 1.040700
C205 C 0.520000 0.043580 1.033810
N206 N 0.380000 0.054790 1.018700
H207 H 0.303900 0.036500 1.035600
H208 H 0.362800 0.080600 0.991700
N209 N 0.883200 0.136310 0.949840
O210 O 0.551300 0.007960 1.071290
C211 C 0.962700 0.067560 0.849360
C212 C 0.943100 0.090340 0.802260
H213 H 0.848100 0.089800 0.789900
C214 C 1.065800 0.113710 0.774190
H215 H 1.051800 0.130000 0.742200
C216 C 1.221500 0.092150 0.834270
H217 H 1.318900 0.092200 0.845500
C218 C 1.104100 0.068310 0.865360
H219 H 1.120800 0.052700 0.897300
C220 C 0.835000 0.040880 0.883320
N221 N 0.693200 0.055660 0.870180
H222 H 0.615800 0.041000 0.888900
H223 H 0.675900 0.080200 0.842700
N224 N 1.203000 0.115050 0.789040
O225 O 0.868500 0.006770 0.921280
C226 C 0.037300 0.932440 0.150640
C227 C 0.056900 0.909660 0.197740
H228 H 0.151900 0.910200 0.210100
C229 C -0.065800 0.886290 0.225810
H230 H -0.051800 0.870000 0.257800
C231 C -0.221500 0.907850 0.165730
H232 H -0.318900 0.907800 0.154500
C233 C -0.104100 0.931690 0.134640
H234 H -0.120800 0.947300 0.102700
C235 C 0.165000 0.959120 0.116680
N236 N 0.306800 0.944340 0.129820
H237 H 0.384200 0.959000 0.111100
H238 H 0.324100 0.919800 0.157300
N239 N -0.203000 0.884950 0.210960
O240 O 0.131500 0.993230 0.078720
C241 C 0.532400 0.577450 0.501080
C242 C 0.557700 0.624360 0.462380
H243 H 0.657800 0.636900 0.453800
C244 C 0.435100 0.652510 0.436570
H245 H 0.453400 0.684600 0.410000
C246 C 0.268100 0.592570 0.484560
H247 H 0.166600 0.581300 0.492600
C248 C 0.384400 0.561980 0.512520
H249 H 0.362500 0.530700 0.539300
C250 C 0.659600 0.543670 0.531640
N251 N 0.803300 0.553110 0.516080
H252 H 0.880000 0.534000 0.532900
H253 H 0.821900 0.578500 0.489000
N254 N 0.292000 0.637100 0.446920
O255 O 0.625700 0.508630 0.569350
C256 C 0.467600 0.422550 0.498920
C257 C 0.442300 0.375640 0.537620
H258 H 0.342200 0.363100 0.546200
C259 C 0.564900 0.347490 0.563430
H260 H 0.546600 0.315400 0.590000
C261 C 0.731900 0.407430 0.515440
H262 H 0.833400 0.418700 0.507400
C263 C 0.615600 0.438020 0.487480
H264 H 0.637500 0.469300 0.460700
C265 C 0.340400 0.456330 0.468360
N266 N 0.196700 0.446890 0.483920
H267 H 0.120000 0.466000 0.467100
H268 H 0.178100 0.421500 0.511000
N269 N 0.708000 0.362900 0.553080
O270 O 0.374300 0.491370 0.430650
C271 C 0.140400 0.431230 0.648860
C272 C 0.106200 0.405620 0.695650
H273 H 0.002900 0.404900 0.707900
C274 C 0.226600 0.381320 0.723850
H275 H 0.202900 0.363400 0.755700
C276 C 0.405600 0.406760 0.664060
H277 H 0.510100 0.407600 0.652900
C278 C 0.292500 0.431670 0.633250
H279 H 0.319600 0.448900 0.601600
C280 C 0.018100 0.459060 0.615160
N281 N -0.124600 0.445750 0.628600
H282 H -0.199600 0.461300 0.610100
H283 H -0.144300 0.421300 0.656100
N284 N 0.373000 0.381540 0.709040
O285 O 0.054200 0.493020 0.577090
C286 C 0.859600 0.568770 0.351140
C287 C 0.893800 0.594380 0.304350
H288 H 0.997100 0.595100 0.292100
C289 C 0.773400 0.618680 0.276150
H290 H 0.797100 0.636600 0.244300
C291 C 0.594400 0.593240 0.335940
H292 H 0.489900 0.592400 0.347100
C293 C 0.707500 0.568330 0.366750
H294 H 0.680400 0.551100 0.398400
C295 C 0.981900 0.540940 0.384840
N296 N 1.124600 0.554250 0.371400
H297 H 1.199600 0.538700 0.389900
H298 H 1.144300 0.578700 0.343900
N299 N 0.627000 0.618460 0.290960
O300 O 0.945800 0.506980 0.422910
C301 C 0.586800 0.945500 0.316740
C302 C 0.564600 0.978690 0.271930
H303 H 0.467100 0.982900 0.259500
C304 C 0.686600 1.005820 0.245210
H305 H 0.669900 1.028700 0.214300
C306 C 0.846900 0.968490 0.303480
H307 H 0.946100 0.964400 0.314900
C308 C 0.731800 0.939930 0.332260
H309 H 0.752400 0.916500 0.362700
C310 C 0.461700 0.913960 0.348530
N311 N 0.319100 0.928290 0.335340
H312 H 0.242900 0.911100 0.353000
H313 H 0.300700 0.955100 0.308900
N314 N 0.825200 1.001540 0.260390
O315 O 0.495000 0.876860 0.385100
C316 C 0.413200 0.054500 0.683260
C317 C 0.435400 0.021310 0.728070
H318 H 0.532900 0.017100 0.740500
C319 C 0.313400 -0.005820 0.754790
H320 H 0.330100 -0.028700 0.785700
C321 C 0.153100 0.031510 0.696520
H322 H 0.053900 0.035600 0.685100
C323 C 0.268200 0.060070 0.667740
H324 H 0.247600 0.083500 0.637300
C325 C 0.538300 0.086040 0.651470
N326 N 0.680900 0.071710 0.664660
H327 H 0.757100 0.088900 0.647000
H328 H 0.699300 0.044900 0.691100
N329 N 0.174800 -0.001540 0.739610
O330 O 0.505000 0.123140 0.614900
C331 C 0.983200 0.787470 0.457690
C332 C 1.018100 0.734000 0.490490
H333 H 1.121600 0.719500 0.496700
C334 C 0.898200 0.702630 0.513680
H335 H 0.922200 0.666100 0.536000
C336 C 0.718800 0.771720 0.475060
H337 H 0.614200 0.785100 0.469600
C338 C 0.831100 0.806120 0.449970
H339 H 0.803600 0.842300 0.427600
C340 C 1.106000 0.824710 0.429430
N341 N 1.246900 0.813090 0.444730
H342 H 1.321400 0.833700 0.429200
H343 H 1.265500 0.784800 0.470300
N344 N 0.751200 0.720640 0.506630
O345 O 1.072300 0.863700 0.393820
C346 C 0.016800 0.212530 0.542310
C347 C -0.018100 0.266000 0.509510
H348 H -0.121600 0.280500 0.503300
C349 C 0.101800 0.297370 0.486320
H350 H 0.077800 0.333900 0.464000
C351 C 0.281200 0.228280 0.524940
H352 H 0.385800 0.214900 0.530400
C353 C 0.168900 0.193880 0.550030
H354 H 0.196400 0.157700 0.572400
C355 C -0.106000 0.175290 0.570570
N356 N -0.246900 0.186910 0.555270
H357 H -0.321400 0.166300 0.570800
H358 H -0.265500 0.215200 0.529700
N359 N 0.248800 0.279360 0.493370
O360 O -0.072300 0.136300 0.606180
C361 C 0.530700 0.853910 0.551080
H362 H 0.424900 0.858000 0.540000
C363 C 0.585000 0.794590 0.582290
H364 H 0.515200 0.763400 0.589000
H365 H 0.695600 0.781500 0.580100
C366 C 0.540800 0.842110 0.602040
H367 H 0.623700 0.858800 0.612200
H368 H 0.443400 0.840700 0.621100
C369 C 0.642800 0.890430 0.519230
O370 O 0.778300 0.882650 0.534640
H371 H 0.836500 0.904600 0.515300
O372 O 0.610000 0.923880 0.481890
C373 C 0.469300 0.146090 0.448920
H374 H 0.575100 0.142000 0.460000
C375 C 0.415000 0.205410 0.417710
H376 H 0.484800 0.236600 0.411000
H377 H 0.304400 0.218500 0.419900
C378 C 0.459200 0.157890 0.397960
H379 H 0.376300 0.141200 0.387800
H380 H 0.556600 0.159300 0.378900
C381 C 0.357200 0.109570 0.480770
O382 O 0.221700 0.117350 0.465360
H383 H 0.163500 0.095400 0.484700
O384 O 0.390000 0.076120 0.518110
C385 C 0.521800 0.279820 0.139380
H386 H 0.632100 0.266000 0.145000
C387 C 0.482000 0.302870 0.089450
H388 H 0.565500 0.301600 0.065700
H389 H 0.379800 0.296300 0.081800
C390 C 0.487900 0.344160 0.115680
H391 H 0.389400 0.363300 0.124400
H392 H 0.575100 0.368700 0.108300
C393 C 0.408500 0.247970 0.173740
O394 O 0.266060 0.268660 0.165570
H395 H 0.207000 0.248800 0.186100
O396 O 0.444600 0.206420 0.206840
C397 C 0.478200 0.720180 0.860620
H398 H 0.367900 0.734000 0.855000
C399 C 0.518000 0.697130 0.910550
H400 H 0.434500 0.698400 0.934300
H401 H 0.620200 0.703700 0.918200
C402 C 0.512100 0.655840 0.884320
H403 H 0.610600 0.636700 0.875600
H404 H 0.424900 0.631300 0.891700
C405 C 0.591500 0.752030 0.826260
O406 O 0.733940 0.731340 0.834430
H407 H 0.793000 0.751200 0.813900
O408 O 0.555400 0.793580 0.793160
C409 C 0.976600 0.222480 0.363640
H410 H 1.084700 0.233300 0.356800
C411 C 0.958000 0.159520 0.388960
H412 H 0.870600 0.142300 0.381600
H413 H 1.052400 0.132700 0.396300
C414 C 0.923000 0.202700 0.413970
H415 H 0.995800 0.202900 0.436800
H416 H 0.813900 0.212500 0.422100
C417 C 0.865200 0.255940 0.329310
O418 O 0.725880 0.239300 0.339060
H419 H 0.668000 0.259800 0.318500
O420 O 0.899800 0.295560 0.295330
C421 C 0.023400 0.777520 0.636360
H422 H -0.084700 0.766700 0.643200
C423 C 0.042000 0.840480 0.611040
H424 H 0.129400 0.857700 0.618400
H425 H -0.052400 0.867300 0.603700
C426 C 0.077000 0.797300 0.586030
H427 H 0.004200 0.797100 0.563200
H428 H 0.186100 0.787500 0.577900
C429 C 0.134800 0.744060 0.670690
O430 O 0.274120 0.760700 0.660940
H431 H 0.332000 0.740200 0.681500
O432 O 0.100200 0.704440 0.704670
C433 C -0.025300 0.644550 0.946030
H434 H -0.135200 0.637800 0.955700
C435 C 0.015800 0.659390 0.895230
H436 H 0.119600 0.645400 0.885500
H437 H -0.066200 0.660200 0.874800
C438 C 0.004300 0.705410 0.917410
H439 H -0.084900 0.735000 0.910900
H440 H 0.100800 0.720200 0.921500
C441 C 0.088700 0.609310 0.978690
O442 O 0.230200 0.619370 0.964500
H443 H 0.289700 0.598200 0.984300
O444 O 0.053800 0.574120 1.015230
C445 C 1.025300 0.355450 0.053970
H446 H 1.135200 0.362200 0.044300
C447 C 0.984200 0.340610 0.104770
H448 H 0.880400 0.354600 0.114500
H449 H 1.066200 0.339800 0.125200
C450 C 0.995700 0.294590 0.082590
H451 H 1.084900 0.265000 0.089100
H452 H 0.899200 0.279800 0.078500
C453 C 0.911300 0.390690 0.021310
O454 O 0.769800 0.380630 0.035500
H455 H 0.710300 0.401800 0.015700
O456 O 0.946200 0.425880 -0.015230
C457 C 0.213700 0.848120 0.906370
H458 H 0.105500 0.837500 0.913100
C459 C 0.269300 0.865950 0.856210
H460 H 0.378800 0.855700 0.848700
H461 H 0.197600 0.864700 0.833400
C462 C 0.233200 0.910720 0.879670
H463 H 0.139100 0.937500 0.871500
H464 H 0.320100 0.928500 0.886700
C465 C 0.323500 0.815590 0.941300
O466 O 0.461760 0.832510 0.932340
H467 H 0.518600 0.812300 0.953300
O468 O 0.288000 0.775830 0.975180
C469 C 0.786300 0.151880 0.093630
H470 H 0.894500 0.162500 0.086900
C471 C 0.730700 0.134050 0.143790
H472 H 0.621200 0.144300 0.151300
H473 H 0.802400 0.135300 0.166600
C474 C 0.766800 0.089280 0.120330
H475 H 0.860900 0.062500 0.128500
H476 H 0.679900 0.071500 0.113300
C477 C 0.676500 0.184410 0.058700
O478 O 0.538240 0.167490 0.067660
H479 H 0.481400 0.187700 0.046700
O480 O 0.712000 0.224170 0.024820
C481 C 0.211200 0.422830 0.324780
H482 H 0.321700 0.429800 0.316500
C483 C 0.179900 0.362170 0.354950
H484 H 0.086000 0.346400 0.350000
H485 H 0.269200 0.333000 0.363700
C486 C 0.160600 0.410390 0.375140
H487 H 0.237800 0.411300 0.396500
H488 H 0.054600 0.424700 0.382800
C489 C 0.102100 0.455480 0.289900
O490 O -0.040100 0.444720 0.302190
H491 H -0.096800 0.464400 0.281100
O492 O 0.140000 0.489970 0.253310
C493 C 0.788800 0.577170 0.675220
H494 H 0.678300 0.570200 0.683500
C495 C 0.820100 0.637830 0.645050
H496 H 0.914000 0.653600 0.650000
H497 H 0.730800 0.667000 0.636300
C498 C 0.839400 0.589610 0.624860
H499 H 0.762200 0.588700 0.603500
H500 H 0.945400 0.575300 0.617200
C501 C 0.897900 0.544520 0.710100
O502 O 1.040100 0.555280 0.697810
H503 H 1.096800 0.535600 0.718900
O504 O 0.860000 0.510030 0.746690
C505 C 0.662700 0.785780 0.133110
H506 H 0.551700 0.799300 0.128400
C507 C 0.699800 0.721090 0.152550
H508 H 0.614000 0.696100 0.158300
H509 H 0.798800 0.704000 0.142200
C510 C 0.704600 0.757810 0.182450
H511 H 0.806600 0.763700 0.190700
H512 H 0.621800 0.755800 0.206900
C513 C 0.773700 0.821000 0.099640
O514 O 0.917040 0.802070 0.107400
H515 H 0.974400 0.823800 0.087600
O516 O 0.734600 0.862980 0.067640
C517 C 0.337300 0.214220 0.866890
H518 H 0.448300 0.200700 0.871600
C519 C 0.300200 0.278910 0.847450
H520 H 0.386000 0.303900 0.841700
H521 H 0.201200 0.296000 0.857800
C522 C 0.295400 0.242190 0.817550
H523 H 0.193400 0.236300 0.809300
H524 H 0.378200 0.244200 0.793100
C525 C 0.226300 0.179000 0.900360
O526 O 0.082960 0.197930 0.892600
H527 H 0.025600 0.176200 0.912400
O528 O 0.265400 0.137020 0.932360
C529 C 0.659000 0.199620 0.713870
H530 H 0.766500 0.194300 0.723900
C531 C 0.641600 0.215540 0.662780
H532 H 0.736500 0.218400 0.642500
H533 H 0.556100 0.200300 0.652500
C534 C 0.602400 0.260390 0.685750
H535 H 0.492400 0.273200 0.689800
H536 H 0.672800 0.291300 0.679800
C537 C 0.548100 0.163340 0.746000
O538 O 0.411800 0.169330 0.730390
H539 H 0.354100 0.147800 0.750200
O540 O 0.579200 0.131630 0.784080
C541 C 0.341000 0.800380 0.286130
H542 H 0.233500 0.805700 0.276100
C543 C 0.358400 0.784460 0.337220
H544 H 0.263500 0.781600 0.357500
H545 H 0.443900 0.799700 0.347500
C546 C 0.397600 0.739610 0.314250
H547 H 0.507600 0.726800 0.310200
H548 H 0.327200 0.708700 0.320200
C549 C 0.451900 0.836660 0.254000
O550 O 0.588200 0.830670 0.269610
H551 H 0.645900 0.852200 0.249800
O552 O 0.420800 0.868370 0.215920
C553 C 0.841400 0.717460 0.363380
H554 H 0.733300 0.706600 0.369000
C555 C 0.897500 0.741670 0.313470
H556 H 1.006900 0.732500 0.305200
H557 H 0.826000 0.744100 0.289600
C558 C 0.861400 0.781430 0.341540
H559 H 0.767500 0.808700 0.335100
H560 H 0.948400 0.797000 0.350800
C561 C 0.951900 0.681740 0.397360
O562 O 1.092090 0.697340 0.388290
H563 H 1.149000 0.675700 0.408700
O564 O 0.914900 0.641830 0.430560
C565 C 0.158600 0.282540 0.636620
H566 H 0.266700 0.293400 0.631000
C567 C 0.102500 0.258330 0.686530
H568 H -0.006900 0.267500 0.694800
H569 H 0.174000 0.255900 0.710400
C570 C 0.138600 0.218570 0.658460
H571 H 0.232500 0.191300 0.664900
H572 H 0.051600 0.203000 0.649200
C573 C 0.048100 0.318260 0.602640
O574 O -0.092090 0.302660 0.611710
H575 H -0.149000 0.324300 0.591300
O576 O 0.085100 0.358170 0.569440
C577 C 0.836700 0.299260 0.784940
H578 H 0.946000 0.306900 0.775000
C579 C 0.810400 0.237060 0.811440
H580 H 0.713700 0.222500 0.807200
H581 H 0.900700 0.207900 0.816200
C582 C 0.799900 0.280380 0.835990
H583 H 0.883500 0.278300 0.856200
H584 H 0.696600 0.293000 0.847200
C585 C 0.721100 0.335280 0.753490
O586 O 0.579830 0.326920 0.769050
H587 H 0.519500 0.348600 0.749700
O588 O 0.754200 0.369430 0.716250
C589 C 0.163300 0.700740 0.215060
H590 H 0.054000 0.693100 0.225000
C591 C 0.189600 0.762940 0.188560
H592 H 0.286300 0.777500 0.192800
H593 H 0.099300 0.792100 0.183800
C594 C 0.200100 0.719620 0.164010
H595 H 0.116500 0.721700 0.143800
H596 H 0.303400 0.707000 0.152800
C597 C 0.278900 0.664720 0.246510
O598 O 0.420170 0.673080 0.230950
H599 H 0.480500 0.651400 0.250300
O600 O 0.245800 0.630570 0.283750
C601 C 0.279000 0.079100 0.177340
H602 H 0.387800 0.073300 0.186400
C603 C 0.257700 0.088430 0.127240
H604 H 0.351000 0.086800 0.106800
H605 H 0.167600 0.073100 0.119500
C606 C 0.229700 0.137760 0.145300
H607 H 0.121800 0.153500 0.148800
H608 H 0.305100 0.167200 0.136200
C609 C 0.167800 0.046500 0.212310
O610 O 0.027700 0.056610 0.199700
H611 H -0.029800 0.036700 0.220700
O612 O 0.203700 0.013890 0.249450
C613 C 0.721000 0.920900 0.822660
H614 H 0.612200 0.926700 0.813600
C615 C 0.742300 0.911570 0.872760
H616 H 0.649000 0.913200 0.893200
H617 H 0.832400 0.926900 0.880500
C618 C 0.770300 0.862240 0.854700
H619 H 0.878200 0.846500 0.851200
H620 H 0.694900 0.832800 0.863800
C621 C 0.832200 0.953500 0.787690
O622 O 0.972300 0.943390 0.800300
H623 H 1.029800 0.963300 0.779300
O624 O 0.796300 0.986110 0.750550
C625 C 0.294200 0.648880 0.592420
H626 H 0.183200 0.661400 0.586900
C627 C 0.332600 0.585340 0.618130
H628 H 0.247400 0.559900 0.626900
H629 H 0.432000 0.566400 0.609800
C630 C 0.336200 0.629260 0.642000
H631 H 0.437800 0.637700 0.648600
H632 H 0.253200 0.631200 0.665700
C633 C 0.405200 0.680140 0.556630
O634 O 0.549260 0.660680 0.564320
H635 H 0.606500 0.680200 0.543000
O636 O 0.366800 0.721100 0.523700
C637 C 0.705800 0.351120 0.407580
H638 H 0.816800 0.338600 0.413100
C639 C 0.667400 0.414660 0.381870
H640 H 0.752600 0.440100 0.373100
H641 H 0.568000 0.433600 0.390200
C642 C 0.663800 0.370740 0.358000
H643 H 0.562200 0.362300 0.351400
H644 H 0.746800 0.368800 0.334300
C645 C 0.594800 0.319860 0.443370
O646 O 0.450740 0.339320 0.435680
H647 H 0.393500 0.319800 0.457000
O648 O 0.633200 0.278900 0.476300

#END
