./ACONIR_from_xyz.cif_generated_by_CrystalShift
_symmetry_cell_setting triclinic
_symmetry_space_group_name_H-M 'P 1'
loop_
_symmetry_equiv_pos_site_id
_symmetry_equiv_pos_as_xyz
1 x,y,z
_cell_length_a 6.991000
_cell_length_b 8.981000
_cell_length_c 11.398000
_cell_angle_alpha 67.479000
_cell_angle_beta 81.065000
_cell_angle_gamma 83.458000
_cell_volume 651.876558
loop_
_atom_site_label
_atom_site_type_symbol
_atom_site_fract_x
_atom_site_fract_y
_atom_site_fract_z
C1 C 0.717700 0.774950 0.898050
C2 C 0.529550 0.827930 0.871610
H3 H 0.473900 0.926200 0.878600
C4 C 0.424160 0.735430 0.834970
H5 H 0.295000 0.772300 0.817300
C6 C 0.675240 0.545570 0.850420
H7 H 0.726700 0.446200 0.843600
C8 C 0.790740 0.630080 0.888010
H9 H 0.918500 0.589200 0.906700
C10 C 0.842930 0.866270 0.940460
N11 N 0.787000 1.018260 0.923140
N12 N 0.494960 0.596780 0.823260
O13 O 0.990430 0.797790 0.989580
H14 H 0.683000 1.069600 0.886000
H15 H 0.859000 1.073300 0.949500
C16 C 0.282300 0.225050 0.101950
C17 C 0.470450 0.172070 0.128390
H18 H 0.526100 0.073800 0.121400
C19 C 0.575840 0.264570 0.165030
H20 H 0.705000 0.227700 0.182700
C21 C 0.324760 0.454430 0.149580
H22 H 0.273300 0.553800 0.156400
C23 C 0.209260 0.369920 0.111990
H24 H 0.081500 0.410800 0.093300
C25 C 0.157070 0.133730 0.059540
N26 N 0.213000 -0.018260 0.076860
N27 N 0.505040 0.403220 0.176740
O28 O 0.009570 0.202210 0.010420
H29 H 0.317000 -0.069600 0.114000
H30 H 0.141000 -0.073300 0.050500
C31 C 0.239750 0.223480 0.683720
H32 H 0.219600 0.110600 0.745700
C33 C 0.041990 0.304200 0.649500
H34 H 0.057100 0.418600 0.592800
H35 H -0.042200 0.301800 0.728400
C36 C -0.054830 0.220000 0.582310
H37 H -0.084500 0.109500 0.642700
H38 H -0.178700 0.280000 0.556200
C39 C 0.074100 0.210680 0.465880
H40 H 0.091100 0.321100 0.401200
H41 H 0.011200 0.149400 0.427900
C42 C 0.270800 0.129390 0.499340
H43 H 0.354100 0.131000 0.420300
H44 H 0.255200 0.015200 0.556500
C45 C 0.369040 0.213730 0.565360
H46 H 0.398300 0.324100 0.504700
H47 H 0.493200 0.153700 0.590900
C48 C 0.346130 0.305610 0.745490
O49 O 0.287850 0.456220 0.725140
O50 O 0.480140 0.238450 0.806630
H51 H 0.368000 0.502000 0.765500
C52 C 0.760250 0.776520 0.316280
H53 H 0.780400 0.889400 0.254300
C54 C 0.958010 0.695800 0.350500
H55 H 0.942900 0.581400 0.407200
H56 H 1.042200 0.698200 0.271600
C57 C 1.054830 0.780000 0.417690
H58 H 1.084500 0.890500 0.357300
H59 H 1.178700 0.720000 0.443800
C60 C 0.925900 0.789320 0.534120
H61 H 0.908900 0.678900 0.598800
H62 H 0.988800 0.850600 0.572100
C63 C 0.729200 0.870610 0.500660
H64 H 0.645900 0.869000 0.579700
H65 H 0.744800 0.984800 0.443500
C66 C 0.630960 0.786270 0.434640
H67 H 0.601700 0.675900 0.495300
H68 H 0.506800 0.846300 0.409100
C69 C 0.653870 0.694390 0.254510
O70 O 0.712150 0.543780 0.274860
O71 O 0.519860 0.761550 0.193370
H72 H 0.632000 0.498000 0.234500

#END
