./ACOPEO_from_xyz.cif_generated_by_CrystalShift
_symmetry_cell_setting triclinic
_symmetry_space_group_name_H-M 'P 1'
loop_
_symmetry_equiv_pos_site_id
_symmetry_equiv_pos_as_xyz
1 x,y,z
_cell_length_a 11.679000
_cell_length_b 16.358000
_cell_length_c 15.793000
_cell_angle_alpha 90.000000
_cell_angle_beta 93.160000
_cell_angle_gamma 90.000000
_cell_volume 3012.587414
loop_
_atom_site_label
_atom_site_type_symbol
_atom_site_fract_x
_atom_site_fract_y
_atom_site_fract_z
Pb1 Pb 0.736570 0.312902 0.371357
Cl2 Cl 0.500000 0.190770 0.250000
Cl3 Cl 1.000000 0.319690 0.250000
O4 O 0.625200 0.269400 0.506600
O5 O 0.559000 0.359900 0.416400
O6 O 0.596300 0.236000 0.228600
O7 O 0.466800 0.145300 0.179100
O8 O 0.961100 0.367400 0.315500
O9 O 0.905600 0.274400 0.218800
N10 N 0.796900 0.437300 0.444100
N11 N 0.697900 0.437500 0.286600
C12 C 0.844300 0.434300 0.523700
H13 H 0.852500 0.383800 0.550500
C14 C 0.881100 0.503600 0.566600
H15 H 0.909700 0.500300 0.622600
C16 C 0.874900 0.577300 0.525800
H17 H 0.902700 0.624200 0.553000
C18 C 0.826600 0.581500 0.443300
H19 H 0.821200 0.631200 0.414900
C20 C 0.786800 0.510000 0.404300
C21 C 0.727300 0.509800 0.318700
C22 C 0.700100 0.582000 0.276700
H23 H 0.720200 0.632000 0.301300
C24 C 0.642400 0.579000 0.197200
H25 H 0.625300 0.626700 0.167000
C26 C 0.611200 0.503700 0.164500
H27 H 0.571300 0.499400 0.112100
C28 C 0.640200 0.435300 0.210800
H29 H 0.618700 0.384600 0.188500
C30 C 0.547600 0.315100 0.479400
C31 C 0.435000 0.319800 0.522600
H32 H 0.437100 0.283000 0.570000
H33 H 0.373200 0.304700 0.483000
H34 H 0.423300 0.374600 0.542100
Pb35 Pb 0.763430 0.187098 0.628643
Pb36 Pb 0.263430 0.312902 0.128643
Pb37 Pb 1.263430 0.312902 0.128643
O38 O 0.874800 0.230600 0.493400
O39 O 0.941000 0.140100 0.583600
O40 O 0.403700 0.236000 0.271400
O41 O 0.903700 0.264000 0.771400
O42 O 0.533200 0.145300 0.320900
O43 O 1.038900 0.367400 0.184500
O44 O 0.538900 0.132600 0.684500
O45 O 1.094400 0.274400 0.281200
O46 O 0.594400 0.225600 0.781200
N47 N 0.703100 0.062700 0.555900
N48 N 0.802100 0.062500 0.713400
C49 C 0.655700 0.065700 0.476300
H50 H 0.647500 0.116200 0.449500
C51 C 0.618900 -0.003600 0.433400
H52 H 0.590300 -0.000300 0.377400
C53 C 0.625100 -0.077300 0.474200
H54 H 0.597300 -0.124200 0.447000
C55 C 0.673400 -0.081500 0.556700
H56 H 0.678800 -0.131200 0.585100
C57 C 0.713200 -0.010000 0.595700
C58 C 0.772700 -0.009800 0.681300
C59 C 0.799900 -0.082000 0.723300
H60 H 0.779800 -0.132000 0.698700
C61 C 0.857600 -0.079000 0.802800
H62 H 0.874700 -0.126700 0.833000
C63 C 0.888800 -0.003700 0.835500
H64 H 0.928700 0.000600 0.887900
C65 C 0.859800 0.064700 0.789200
H66 H 0.881300 0.115400 0.811500
C67 C 0.952400 0.184900 0.520600
C68 C 1.065000 0.180200 0.477400
H69 H 1.062900 0.217000 0.430000
H70 H 1.126800 0.195300 0.517000
H71 H 1.076700 0.125400 0.457900
Cl72 Cl 0.000000 0.319690 0.250000
O73 O 0.374800 0.269400 -0.006600
O74 O 0.441000 0.359900 0.083600
O75 O 0.038900 0.367400 0.184500
O76 O 0.094400 0.274400 0.281200
N77 N 0.203100 0.437300 0.055900
N78 N 0.302100 0.437500 0.213400
C79 C 0.155700 0.434300 -0.023700
H80 H 0.147500 0.383800 -0.050500
C81 C 0.118900 0.503600 -0.066600
H82 H 0.090300 0.500300 -0.122600
C83 C 0.125100 0.577300 -0.025800
H84 H 0.097300 0.624200 -0.053000
C85 C 0.173400 0.581500 0.056700
H86 H 0.178800 0.631200 0.085100
C87 C 0.213200 0.510000 0.095700
C88 C 0.272700 0.509800 0.181300
C89 C 0.299900 0.582000 0.223300
H90 H 0.279800 0.632000 0.198700
C91 C 0.357600 0.579000 0.302800
H92 H 0.374700 0.626700 0.333000
C93 C 0.388800 0.503700 0.335500
H94 H 0.428700 0.499400 0.387900
C95 C 0.359800 0.435300 0.289200
H96 H 0.381300 0.384600 0.311500
C97 C 0.452400 0.315100 0.020600
C98 C 0.565000 0.319800 -0.022600
H99 H 0.562900 0.283000 -0.070000
H100 H 0.626800 0.304700 0.017000
H101 H 0.576700 0.374600 -0.042100
Pb102 Pb 0.236570 0.187098 -0.128643
Pb103 Pb -0.263430 0.312902 0.371357
O104 O 0.125200 0.230600 0.006600
O105 O 0.059000 0.140100 -0.083600
O106 O 0.096300 0.264000 -0.271400
O107 O -0.038900 0.367400 0.315500
O108 O 0.461100 0.132600 -0.184500
O109 O -0.094400 0.274400 0.218800
O110 O 0.405600 0.225600 -0.281200
N111 N 0.296900 0.062700 -0.055900
N112 N 0.197900 0.062500 -0.213400
C113 C 0.344300 0.065700 0.023700
H114 H 0.352500 0.116200 0.050500
C115 C 0.381100 -0.003600 0.066600
H116 H 0.409700 -0.000300 0.122600
C117 C 0.374900 -0.077300 0.025800
H118 H 0.402700 -0.124200 0.053000
C119 C 0.326600 -0.081500 -0.056700
H120 H 0.321200 -0.131200 -0.085100
C121 C 0.286800 -0.010000 -0.095700
C122 C 0.227300 -0.009800 -0.181300
C123 C 0.200100 -0.082000 -0.223300
H124 H 0.220200 -0.132000 -0.198700
C125 C 0.142400 -0.079000 -0.302800
H126 H 0.125300 -0.126700 -0.333000
C127 C 0.111200 -0.003700 -0.335500
H128 H 0.071300 0.000600 -0.387900
C129 C 0.140200 0.064700 -0.289200
H130 H 0.118700 0.115400 -0.311500
C131 C 0.047600 0.184900 -0.020600
C132 C -0.065000 0.180200 0.022600
H133 H -0.062900 0.217000 0.070000
H134 H -0.126800 0.195300 -0.017000
H135 H -0.076700 0.125400 0.042100
Cl136 Cl 1.000000 0.309230 0.750000
Cl137 Cl 0.500000 0.180310 0.750000
O138 O 1.033200 0.354700 0.820900
Pb139 Pb 1.236570 0.187098 0.871357
Pb140 Pb 0.236570 0.187098 0.871357
O141 O 1.096300 0.264000 0.728600
O142 O 0.966800 0.354700 0.679100
O143 O 0.461100 0.132600 0.815500
O144 O 0.405600 0.225600 0.718800
Cl145 Cl -0.000000 0.309230 0.750000
O146 O 0.125200 0.230600 1.006600
O147 O 0.059000 0.140100 0.916400
O148 O 0.096300 0.264000 0.728600
O149 O -0.033200 0.354700 0.679100
N150 N 0.296900 0.062700 0.944100
N151 N 0.197900 0.062500 0.786600
C152 C 0.344300 0.065700 1.023700
H153 H 0.352500 0.116200 1.050500
C154 C 0.381100 -0.003600 1.066600
H155 H 0.409700 -0.000300 1.122600
C156 C 0.374900 -0.077300 1.025800
H157 H 0.402700 -0.124200 1.053000
C158 C 0.326600 -0.081500 0.943300
H159 H 0.321200 -0.131200 0.914900
C160 C 0.286800 -0.010000 0.904300
C161 C 0.227300 -0.009800 0.818700
C162 C 0.200100 -0.082000 0.776700
H163 H 0.220200 -0.132000 0.801300
C164 C 0.142400 -0.079000 0.697200
H165 H 0.125300 -0.126700 0.667000
C166 C 0.111200 -0.003700 0.664500
H167 H 0.071300 0.000600 0.612100
C168 C 0.140200 0.064700 0.710800
H169 H 0.118700 0.115400 0.688500
C170 C 0.047600 0.184900 0.979400
C171 C -0.065000 0.180200 1.022600
H172 H -0.062900 0.217000 1.070000
H173 H -0.126800 0.195300 0.983000
H174 H -0.076700 0.125400 1.042100
Pb175 Pb 0.263430 0.312902 1.128643
Pb176 Pb -0.236570 0.187098 0.628643
O177 O 0.374800 0.269400 0.993400
O178 O 0.441000 0.359900 1.083600
O179 O -0.096300 0.264000 0.771400
O180 O 0.403700 0.236000 1.271400
O181 O 0.033200 0.354700 0.820900
O182 O 0.038900 0.367400 1.184500
O183 O 0.094400 0.274400 1.281200
N184 N 0.203100 0.437300 1.055900
N185 N 0.302100 0.437500 1.213400
C186 C 0.155700 0.434300 0.976300
H187 H 0.147500 0.383800 0.949500
C188 C 0.118900 0.503600 0.933400
H189 H 0.090300 0.500300 0.877400
C190 C 0.125100 0.577300 0.974200
H191 H 0.097300 0.624200 0.947000
C192 C 0.173400 0.581500 1.056700
H193 H 0.178800 0.631200 1.085100
C194 C 0.213200 0.510000 1.095700
C195 C 0.272700 0.509800 1.181300
C196 C 0.299900 0.582000 1.223300
H197 H 0.279800 0.632000 1.198700
C198 C 0.357600 0.579000 1.302800
H199 H 0.374700 0.626700 1.333000
C200 C 0.388800 0.503700 1.335500
H201 H 0.428700 0.499400 1.387900
C202 C 0.359800 0.435300 1.289200
H203 H 0.381300 0.384600 1.311500
C204 C 0.452400 0.315100 1.020600
C205 C 0.565000 0.319800 0.977400
H206 H 0.562900 0.283000 0.930000
H207 H 0.626800 0.304700 1.017000
H208 H 0.576700 0.374600 0.957900
Pb209 Pb 0.236570 0.812902 0.371357
Cl210 Cl 0.000000 0.690770 0.250000
Cl211 Cl 0.500000 0.819690 0.250000
O212 O 0.125200 0.769400 0.506600
O213 O 0.059000 0.859900 0.416400
O214 O 0.096300 0.736000 0.228600
O215 O -0.033200 0.645300 0.179100
O216 O 0.461100 0.867400 0.315500
O217 O 0.405600 0.774400 0.218800
N218 N 0.296900 0.937300 0.444100
N219 N 0.197900 0.937500 0.286600
C220 C 0.344300 0.934300 0.523700
H221 H 0.352500 0.883800 0.550500
C222 C 0.381100 1.003600 0.566600
H223 H 0.409700 1.000300 0.622600
C224 C 0.374900 1.077300 0.525800
H225 H 0.402700 1.124200 0.553000
C226 C 0.326600 1.081500 0.443300
H227 H 0.321200 1.131200 0.414900
C228 C 0.286800 1.010000 0.404300
C229 C 0.227300 1.009800 0.318700
C230 C 0.200100 1.082000 0.276700
H231 H 0.220200 1.132000 0.301300
C232 C 0.142400 1.079000 0.197200
H233 H 0.125300 1.126700 0.167000
C234 C 0.111200 1.003700 0.164500
H235 H 0.071300 0.999400 0.112100
C236 C 0.140200 0.935300 0.210800
H237 H 0.118700 0.884600 0.188500
C238 C 0.047600 0.815100 0.479400
C239 C -0.065000 0.819800 0.522600
H240 H -0.062900 0.783000 0.570000
H241 H -0.126800 0.804700 0.483000
H242 H -0.076700 0.874600 0.542100
Pb243 Pb 0.263430 0.687098 0.628643
Pb244 Pb -0.236570 0.812902 0.128643
Pb245 Pb 0.763430 0.812902 0.128643
O246 O 0.374800 0.730600 0.493400
O247 O 0.441000 0.640100 0.583600
O248 O -0.096300 0.736000 0.271400
O249 O 0.403700 0.764000 0.771400
O250 O 0.033200 0.645300 0.320900
O251 O 0.538900 0.867400 0.184500
O252 O 0.038900 0.632600 0.684500
O253 O 0.594400 0.774400 0.281200
O254 O 0.094400 0.725600 0.781200
N255 N 0.203100 0.562700 0.555900
N256 N 0.302100 0.562500 0.713400
C257 C 0.155700 0.565700 0.476300
H258 H 0.147500 0.616200 0.449500
C259 C 0.118900 0.496400 0.433400
H260 H 0.090300 0.499700 0.377400
C261 C 0.125100 0.422700 0.474200
H262 H 0.097300 0.375800 0.447000
C263 C 0.173400 0.418500 0.556700
H264 H 0.178800 0.368800 0.585100
C265 C 0.213200 0.490000 0.595700
C266 C 0.272700 0.490200 0.681300
C267 C 0.299900 0.418000 0.723300
H268 H 0.279800 0.368000 0.698700
C269 C 0.357600 0.421000 0.802800
H270 H 0.374700 0.373300 0.833000
C271 C 0.388800 0.496300 0.835500
H272 H 0.428700 0.500600 0.887900
C273 C 0.359800 0.564700 0.789200
H274 H 0.381300 0.615400 0.811500
C275 C 0.452400 0.684900 0.520600
C276 C 0.565000 0.680200 0.477400
H277 H 0.562900 0.717000 0.430000
H278 H 0.626800 0.695300 0.517000
H279 H 0.576700 0.625400 0.457900
Cl280 Cl 1.000000 0.690770 0.250000
O281 O 0.874800 0.769400 -0.006600
O282 O 0.941000 0.859900 0.083600
O283 O 0.903700 0.736000 0.271400
O284 O 1.033200 0.645300 0.320900
N285 N 0.703100 0.937300 0.055900
N286 N 0.802100 0.937500 0.213400
C287 C 0.655700 0.934300 -0.023700
H288 H 0.647500 0.883800 -0.050500
C289 C 0.618900 1.003600 -0.066600
H290 H 0.590300 1.000300 -0.122600
C291 C 0.625100 1.077300 -0.025800
H292 H 0.597300 1.124200 -0.053000
C293 C 0.673400 1.081500 0.056700
H294 H 0.678800 1.131200 0.085100
C295 C 0.713200 1.010000 0.095700
C296 C 0.772700 1.009800 0.181300
C297 C 0.799900 1.082000 0.223300
H298 H 0.779800 1.132000 0.198700
C299 C 0.857600 1.079000 0.302800
H300 H 0.874700 1.126700 0.333000
C301 C 0.888800 1.003700 0.335500
H302 H 0.928700 0.999400 0.387900
C303 C 0.859800 0.935300 0.289200
H304 H 0.881300 0.884600 0.311500
C305 C 0.952400 0.815100 0.020600
C306 C 1.065000 0.819800 -0.022600
H307 H 1.062900 0.783000 -0.070000
H308 H 1.126800 0.804700 0.017000
H309 H 1.076700 0.874600 -0.042100
Pb310 Pb 0.736570 0.687098 -0.128643
Pb311 Pb 1.236570 0.812902 0.371357
O312 O 0.625200 0.730600 0.006600
O313 O 0.559000 0.640100 -0.083600
O314 O 1.096300 0.736000 0.228600
O315 O 0.596300 0.764000 -0.271400
O316 O 0.966800 0.645300 0.179100
O317 O 0.961100 0.632600 -0.184500
O318 O 0.905600 0.725600 -0.281200
N319 N 0.796900 0.562700 -0.055900
N320 N 0.697900 0.562500 -0.213400
C321 C 0.844300 0.565700 0.023700
H322 H 0.852500 0.616200 0.050500
C323 C 0.881100 0.496400 0.066600
H324 H 0.909700 0.499700 0.122600
C325 C 0.874900 0.422700 0.025800
H326 H 0.902700 0.375800 0.053000
C327 C 0.826600 0.418500 -0.056700
H328 H 0.821200 0.368800 -0.085100
C329 C 0.786800 0.490000 -0.095700
C330 C 0.727300 0.490200 -0.181300
C331 C 0.700100 0.418000 -0.223300
H332 H 0.720200 0.368000 -0.198700
C333 C 0.642400 0.421000 -0.302800
H334 H 0.625300 0.373300 -0.333000
C335 C 0.611200 0.496300 -0.335500
H336 H 0.571300 0.500600 -0.387900
C337 C 0.640200 0.564700 -0.289200
H338 H 0.618700 0.615400 -0.311500
C339 C 0.547600 0.684900 -0.020600
C340 C 0.435000 0.680200 0.022600
H341 H 0.437100 0.717000 0.070000
H342 H 0.373200 0.695300 -0.017000
H343 H 0.423300 0.625400 0.042100
Cl344 Cl 0.500000 0.809230 0.750000
Cl345 Cl -0.000000 0.680310 0.750000
O346 O 0.533200 0.854700 0.820900
Pb347 Pb 0.736570 0.687098 0.871357
Pb348 Pb -0.263430 0.687098 0.871357
O349 O 0.596300 0.764000 0.728600
O350 O 0.466800 0.854700 0.679100
O351 O -0.038900 0.632600 0.815500
O352 O -0.094400 0.725600 0.718800
Cl353 Cl 1.000000 0.680310 0.750000
O354 O 0.625200 0.730600 1.006600
O355 O 0.559000 0.640100 0.916400
O356 O 0.961100 0.632600 0.815500
O357 O 0.905600 0.725600 0.718800
N358 N 0.796900 0.562700 0.944100
N359 N 0.697900 0.562500 0.786600
C360 C 0.844300 0.565700 1.023700
H361 H 0.852500 0.616200 1.050500
C362 C 0.881100 0.496400 1.066600
H363 H 0.909700 0.499700 1.122600
C364 C 0.874900 0.422700 1.025800
H365 H 0.902700 0.375800 1.053000
C366 C 0.826600 0.418500 0.943300
H367 H 0.821200 0.368800 0.914900
C368 C 0.786800 0.490000 0.904300
C369 C 0.727300 0.490200 0.818700
C370 C 0.700100 0.418000 0.776700
H371 H 0.720200 0.368000 0.801300
C372 C 0.642400 0.421000 0.697200
H373 H 0.625300 0.373300 0.667000
C374 C 0.611200 0.496300 0.664500
H375 H 0.571300 0.500600 0.612100
C376 C 0.640200 0.564700 0.710800
H377 H 0.618700 0.615400 0.688500
C378 C 0.547600 0.684900 0.979400
C379 C 0.435000 0.680200 1.022600
H380 H 0.437100 0.717000 1.070000
H381 H 0.373200 0.695300 0.983000
H382 H 0.423300 0.625400 1.042100
Pb383 Pb 0.763430 0.812902 1.128643
Pb384 Pb 1.263430 0.687098 0.628643
O385 O 0.874800 0.769400 0.993400
O386 O 0.941000 0.859900 1.083600
O387 O 0.903700 0.736000 1.271400
O388 O 1.038900 0.632600 0.684500
O389 O 0.538900 0.867400 1.184500
O390 O 1.094400 0.725600 0.781200
O391 O 0.594400 0.774400 1.281200
N392 N 0.703100 0.937300 1.055900
N393 N 0.802100 0.937500 1.213400
C394 C 0.655700 0.934300 0.976300
H395 H 0.647500 0.883800 0.949500
C396 C 0.618900 1.003600 0.933400
H397 H 0.590300 1.000300 0.877400
C398 C 0.625100 1.077300 0.974200
H399 H 0.597300 1.124200 0.947000
C400 C 0.673400 1.081500 1.056700
H401 H 0.678800 1.131200 1.085100
C402 C 0.713200 1.010000 1.095700
C403 C 0.772700 1.009800 1.181300
C404 C 0.799900 1.082000 1.223300
H405 H 0.779800 1.132000 1.198700
C406 C 0.857600 1.079000 1.302800
H407 H 0.874700 1.126700 1.333000
C408 C 0.888800 1.003700 1.335500
H409 H 0.928700 0.999400 1.387900
C410 C 0.859800 0.935300 1.289200
H411 H 0.881300 0.884600 1.311500
C412 C 0.952400 0.815100 1.020600
C413 C 1.065000 0.819800 0.977400
H414 H 1.062900 0.783000 0.930000
H415 H 1.126800 0.804700 1.017000
H416 H 1.076700 0.874600 0.957900

#END
