./ACOPIT_from_xyz.cif_generated_by_CrystalShift
_symmetry_cell_setting triclinic
_symmetry_space_group_name_H-M 'P 1'
loop_
_symmetry_equiv_pos_site_id
_symmetry_equiv_pos_as_xyz
1 x,y,z
_cell_length_a 11.886900
_cell_length_b 11.886900
_cell_length_c 12.600600
_cell_angle_alpha 90.000000
_cell_angle_beta 90.000000
_cell_angle_gamma 90.000000
_cell_volume 1780.444513
loop_
_atom_site_label
_atom_site_type_symbol
_atom_site_fract_x
_atom_site_fract_y
_atom_site_fract_z
Se1 Se 1.052850 0.450360 0.882780
P2 P 0.958180 0.501700 0.750480
N3 N 1.020800 0.465700 0.638100
H4 H 0.984100 0.476300 0.580100
C5 C 1.131900 0.418100 0.629600
C6 C 1.145900 0.301100 0.636500
C7 C 1.253000 0.257000 0.621200
H8 H 1.263400 0.179500 0.623700
C9 C 1.344300 0.326100 0.602100
H10 H 1.415300 0.295100 0.591700
C11 C 1.329500 0.442300 0.598500
H12 H 1.391400 0.488700 0.587400
C13 C 1.223800 0.489600 0.611100
C14 C 1.207000 0.615500 0.603300
H15 H 1.163900 0.632700 0.541000
H16 H 1.278900 0.652000 0.599100
H17 H 1.167600 0.641800 0.665100
C18 C 1.047600 0.224200 0.656000
H19 H 1.072400 0.147400 0.653000
H20 H 0.991300 0.236600 0.602700
H21 H 1.016300 0.239300 0.724800
C22 C 0.818800 0.440700 0.744400
C23 C 0.781100 0.381500 0.656300
H24 H 0.827700 0.372400 0.597600
C25 C 0.672800 0.335800 0.656500
H26 H 0.647200 0.296100 0.597700
C27 C 0.603700 0.349200 0.743300
H28 H 0.532000 0.317800 0.743100
C29 C 0.640600 0.409600 0.831200
H30 H 0.593500 0.418700 0.889600
C31 C 0.747900 0.456200 0.831800
H32 H 0.772400 0.497500 0.890000
C33 C 0.928300 0.652000 0.745900
C34 C 0.887200 0.698600 0.652100
H35 H 0.879400 0.654000 0.591900
C36 C 0.858000 0.811800 0.648300
H37 H 0.829800 0.842900 0.586000
C38 C 0.871000 0.877800 0.737900
H39 H 0.853100 0.953900 0.735000
C40 C 0.910000 0.832300 0.831100
H41 H 0.917400 0.877200 0.891100
C42 C 0.938600 0.718100 0.835600
H43 H 0.964400 0.686900 0.898700
Se44 Se 0.549640 1.052850 0.632780
P45 P 0.498300 0.958180 0.500480
N46 N 0.534300 1.020800 0.388100
H47 H 0.523700 0.984100 0.330100
C48 C 0.581900 1.131900 0.379600
C49 C 0.698900 1.145900 0.386500
C50 C 0.743000 1.253000 0.371200
H51 H 0.820500 1.263400 0.373700
C52 C 0.673900 1.344300 0.352100
H53 H 0.704900 1.415300 0.341700
C54 C 0.557700 1.329500 0.348500
H55 H 0.511300 1.391400 0.337400
C56 C 0.510400 1.223800 0.361100
C57 C 0.384500 1.207000 0.353300
H58 H 0.367300 1.163900 0.291000
H59 H 0.348000 1.278900 0.349100
H60 H 0.358200 1.167600 0.415100
C61 C 0.775800 1.047600 0.406000
H62 H 0.852600 1.072400 0.403000
H63 H 0.763400 0.991300 0.352700
H64 H 0.760700 1.016300 0.474800
C65 C 0.559300 0.818800 0.494400
C66 C 0.618500 0.781100 0.406300
H67 H 0.627600 0.827700 0.347600
C68 C 0.664200 0.672800 0.406500
H69 H 0.703900 0.647200 0.347700
C70 C 0.650800 0.603700 0.493300
H71 H 0.682200 0.532000 0.493100
C72 C 0.590400 0.640600 0.581200
H73 H 0.581300 0.593500 0.639600
C74 C 0.543800 0.747900 0.581800
H75 H 0.502500 0.772400 0.640000
C76 C 0.348000 0.928300 0.495900
C77 C 0.301400 0.887200 0.402100
H78 H 0.346000 0.879400 0.341900
C79 C 0.188200 0.858000 0.398300
H80 H 0.157100 0.829800 0.336000
C81 C 0.122200 0.871000 0.487900
H82 H 0.046100 0.853100 0.485000
C83 C 0.167700 0.910000 0.581100
H84 H 0.122800 0.917400 0.641100
C85 C 0.281900 0.938600 0.585600
H86 H 0.313100 0.964400 0.648700
Se87 Se -0.052850 0.549640 0.382780
P88 P 0.041820 0.498300 0.250480
N89 N -0.020800 0.534300 0.138100
H90 H 0.015900 0.523700 0.080100
C91 C -0.131900 0.581900 0.129600
C92 C -0.145900 0.698900 0.136500
C93 C -0.253000 0.743000 0.121200
H94 H -0.263400 0.820500 0.123700
C95 C -0.344300 0.673900 0.102100
H96 H -0.415300 0.704900 0.091700
C97 C -0.329500 0.557700 0.098500
H98 H -0.391400 0.511300 0.087400
C99 C -0.223800 0.510400 0.111100
C100 C -0.207000 0.384500 0.103300
H101 H -0.163900 0.367300 0.041000
H102 H -0.278900 0.348000 0.099100
H103 H -0.167600 0.358200 0.165100
C104 C -0.047600 0.775800 0.156000
H105 H -0.072400 0.852600 0.153000
H106 H 0.008700 0.763400 0.102700
H107 H -0.016300 0.760700 0.224800
C108 C 0.181200 0.559300 0.244400
C109 C 0.218900 0.618500 0.156300
H110 H 0.172300 0.627600 0.097600
C111 C 0.327200 0.664200 0.156500
H112 H 0.352800 0.703900 0.097700
C113 C 0.396300 0.650800 0.243300
H114 H 0.468000 0.682200 0.243100
C115 C 0.359400 0.590400 0.331200
H116 H 0.406500 0.581300 0.389600
C117 C 0.252100 0.543800 0.331800
H118 H 0.227600 0.502500 0.390000
C119 C 0.071700 0.348000 0.245900
C120 C 0.112800 0.301400 0.152100
H121 H 0.120600 0.346000 0.091900
C122 C 0.142000 0.188200 0.148300
H123 H 0.170200 0.157100 0.086000
C124 C 0.129000 0.122200 0.237900
H125 H 0.146900 0.046100 0.235000
C126 C 0.090000 0.167700 0.331100
H127 H 0.082600 0.122800 0.391100
C128 C 0.061400 0.281900 0.335600
H129 H 0.035600 0.313100 0.398700
Se130 Se 0.450360 -0.052850 1.132780
P131 P 0.501700 0.041820 1.000480
N132 N 0.465700 -0.020800 0.888100
H133 H 0.476300 0.015900 0.830100
C134 C 0.418100 -0.131900 0.879600
C135 C 0.301100 -0.145900 0.886500
C136 C 0.257000 -0.253000 0.871200
H137 H 0.179500 -0.263400 0.873700
C138 C 0.326100 -0.344300 0.852100
H139 H 0.295100 -0.415300 0.841700
C140 C 0.442300 -0.329500 0.848500
H141 H 0.488700 -0.391400 0.837400
C142 C 0.489600 -0.223800 0.861100
C143 C 0.615500 -0.207000 0.853300
H144 H 0.632700 -0.163900 0.791000
H145 H 0.652000 -0.278900 0.849100
H146 H 0.641800 -0.167600 0.915100
C147 C 0.224200 -0.047600 0.906000
H148 H 0.147400 -0.072400 0.903000
H149 H 0.236600 0.008700 0.852700
H150 H 0.239300 -0.016300 0.974800
C151 C 0.440700 0.181200 0.994400
C152 C 0.381500 0.218900 0.906300
H153 H 0.372400 0.172300 0.847600
C154 C 0.335800 0.327200 0.906500
H155 H 0.296100 0.352800 0.847700
C156 C 0.349200 0.396300 0.993300
H157 H 0.317800 0.468000 0.993100
C158 C 0.409600 0.359400 1.081200
H159 H 0.418700 0.406500 1.139600
C160 C 0.456200 0.252100 1.081800
H161 H 0.497500 0.227600 1.140000
C162 C 0.652000 0.071700 0.995900
C163 C 0.698600 0.112800 0.902100
H164 H 0.654000 0.120600 0.841900
C165 C 0.811800 0.142000 0.898300
H166 H 0.842900 0.170200 0.836000
C167 C 0.877800 0.129000 0.987900
H168 H 0.953900 0.146900 0.985000
C169 C 0.832300 0.090000 1.081100
H170 H 0.877200 0.082600 1.141100
C171 C 0.718100 0.061400 1.085600
H172 H 0.686900 0.035600 1.148700

#END
