./ACOPOZ_from_xyz.cif_generated_by_CrystalShift
_symmetry_cell_setting triclinic
_symmetry_space_group_name_H-M 'P 1'
loop_
_symmetry_equiv_pos_site_id
_symmetry_equiv_pos_as_xyz
1 x,y,z
_cell_length_a 12.042500
_cell_length_b 6.031900
_cell_length_c 12.661500
_cell_angle_alpha 90.000000
_cell_angle_beta 106.214000
_cell_angle_gamma 90.000000
_cell_volume 883.139228
loop_
_atom_site_label
_atom_site_type_symbol
_atom_site_fract_x
_atom_site_fract_y
_atom_site_fract_z
C1 C 0.632340 0.221900 0.678890
C2 C 0.517630 0.296800 0.694690
H3 H 0.504900 0.450600 0.669300
C4 C 0.519690 0.292700 0.816810
H5 H 0.442600 0.324700 0.822300
H6 H 0.540100 0.144500 0.845500
C7 C 0.604010 0.457100 0.887940
H8 H 0.575700 0.606200 0.868000
H9 H 0.678100 0.443200 0.872300
C10 C 0.621880 0.425200 1.011120
H11 H 0.659900 0.555800 1.049400
H12 H 0.546800 0.413600 1.024900
C13 C 0.692890 0.222600 1.058680
H14 H 0.661400 0.095400 1.013300
H15 H 0.684600 0.195300 1.131600
C16 C 0.821290 0.240300 1.066970
H17 H 0.830500 0.340000 1.009900
H18 H 0.860600 0.306500 1.137300
C19 C 0.880080 0.022500 1.056380
H20 H 0.962500 0.048400 1.071500
H21 H 0.868700 -0.079200 1.111800
C22 C 0.836960 -0.086700 0.944660
H23 H 0.754000 -0.106400 0.928500
H24 H 0.871300 -0.233000 0.948900
C25 C 0.861950 0.036700 0.849350
H26 H 0.944500 0.031500 0.857700
H27 H 0.840500 0.191000 0.852600
C28 C 0.798480 -0.055800 0.736940
H29 H 0.812400 -0.214200 0.736600
H30 H 0.830100 0.011100 0.682000
C31 C 0.668630 -0.015100 0.705110
H32 H 0.632600 -0.105700 0.641400
H33 H 0.639100 -0.064500 0.765000
C34 C 0.418420 0.156500 0.622860
H35 H 0.425600 0.004100 0.650700
C36 C 0.301270 0.247500 0.623150
C37 C 0.228640 0.131200 0.670350
H38 H 0.251200 -0.007400 0.701100
C39 C 0.123030 0.217400 0.672680
H40 H 0.075600 0.134800 0.704500
C41 C 0.086190 0.422600 0.629020
C42 C 0.158380 0.537300 0.580410
H43 H 0.135200 0.675100 0.549000
C44 C 0.264380 0.452500 0.577110
H45 H 0.311000 0.533700 0.543800
C46 C -0.026850 0.521400 0.634790
H47 H -0.062500 0.598000 0.567400
H48 H -0.012900 0.623700 0.695100
H49 H -0.077200 0.405300 0.645500
O50 O 0.691490 0.347600 0.643320
O51 O 0.435740 0.158500 0.516150
H52 H 0.392000 0.053000 0.482000
C53 C 0.367660 0.721900 0.321110
C54 C 0.482370 0.796800 0.305310
H55 H 0.495100 0.950600 0.330700
C56 C 0.480310 0.792700 0.183190
H57 H 0.557400 0.824700 0.177700
H58 H 0.459900 0.644500 0.154500
C59 C 0.395990 0.957100 0.112060
H60 H 0.424300 1.106200 0.132000
H61 H 0.321900 0.943200 0.127700
C62 C 0.378120 0.925200 -0.011120
H63 H 0.340100 1.055800 -0.049400
H64 H 0.453200 0.913600 -0.024900
C65 C 0.307110 0.722600 -0.058680
H66 H 0.338600 0.595400 -0.013300
H67 H 0.315400 0.695300 -0.131600
C68 C 0.178710 0.740300 -0.066970
H69 H 0.169500 0.840000 -0.009900
H70 H 0.139400 0.806500 -0.137300
C71 C 0.119920 0.522500 -0.056380
H72 H 0.037500 0.548400 -0.071500
H73 H 0.131300 0.420800 -0.111800
C74 C 0.163040 0.413300 0.055340
H75 H 0.246000 0.393600 0.071500
H76 H 0.128700 0.267000 0.051100
C77 C 0.138050 0.536700 0.150650
H78 H 0.055500 0.531500 0.142300
H79 H 0.159500 0.691000 0.147400
C80 C 0.201520 0.444200 0.263060
H81 H 0.187600 0.285800 0.263400
H82 H 0.169900 0.511100 0.318000
C83 C 0.331370 0.484900 0.294890
H84 H 0.367400 0.394300 0.358600
H85 H 0.360900 0.435500 0.235000
C86 C 0.581580 0.656500 0.377140
H87 H 0.574400 0.504100 0.349300
C88 C 0.698730 0.747500 0.376850
C89 C 0.771360 0.631200 0.329650
H90 H 0.748800 0.492600 0.298900
C91 C 0.876970 0.717400 0.327320
H92 H 0.924400 0.634800 0.295500
C93 C 0.913810 0.922600 0.370980
C94 C 0.841620 1.037300 0.419590
H95 H 0.864800 1.175100 0.451000
C96 C 0.735620 0.952500 0.422890
H97 H 0.689000 1.033700 0.456200
C98 C 1.026850 1.021400 0.365210
H99 H 1.062500 1.098000 0.432600
H100 H 1.012900 1.123700 0.304900
H101 H 1.077200 0.905300 0.354500
O102 O 0.308510 0.847600 0.356680
O103 O 0.564260 0.658500 0.483850
H104 H 0.608000 0.553000 0.518000

#END
