
#######################################################################
#
#                 Cambridge Crystallographic Data Centre
#                                CCDC 
#
#######################################################################
#
# If this CIF has been generated from an entry in the Cambridge 
# Structural Database, then it will include bibliographic, chemical, 
# crystal, experimental, refinement or atomic coordinate data resulting 
# from the CCDC's data processing and validation procedures.
#
#######################################################################

data_ACOQIU
_symmetry_cell_setting           triclinic
_symmetry_space_group_name_H-M   'P -1'
_symmetry_Int_Tables_number      2
_space_group_name_Hall           '-P 1'
loop_
_symmetry_equiv_pos_site_id
_symmetry_equiv_pos_as_xyz
1 x,y,z
2 -x,-y,-z
_cell_length_a                   8.0433(6)
_cell_length_b                   9.0769(10)
_cell_length_c                   12.4273(10)
_cell_angle_alpha                103.780(8)
_cell_angle_beta                 92.678(6)
_cell_angle_gamma                92.933(7)
_cell_volume                     878.402
loop_
_atom_site_label
_atom_site_type_symbol
_atom_site_fract_x
_atom_site_fract_y
_atom_site_fract_z
C1 C 0.1970(2) 0.92899(19) 0.36984(12)
C2 C 0.34810(19) 0.83660(17) 0.35904(12)
C3 C 0.5012(2) 0.90967(19) 0.32330(14)
H1 H 0.5970 0.8535 0.3351
H2 H 0.5210 1.0126 0.3686
C4 C 0.4831(2) 0.91365(19) 0.20091(15)
H3 H 0.3844 0.9663 0.1891
H4 H 0.5787 0.9716 0.1838
C5 C 0.4695(2) 0.7579(2) 0.12159(15)
H5 H 0.3839 0.6954 0.1453
H6 H 0.5744 0.7110 0.1263
C6 C 0.4279(3) 0.7588(3) 0.00060(16)
H7 H 0.5090 0.8268 -0.0217
H8 H 0.4383 0.6574 -0.0453
C7 C 0.2541(3) 0.8077(3) -0.02126(16)
H9 H 0.2449 0.8224 -0.0961
H10 H 0.2403 0.9049 0.0296
C8 C 0.1122(3) 0.6949(2) -0.00857(16)
H11 H 0.0853 0.6244 -0.0800
H12 H 0.1512 0.6366 0.0426
C9 C -0.0456(2) 0.7680(2) 0.03303(16)
H13 H -0.1347 0.6892 0.0246
H14 H -0.0776 0.8357 -0.0131
C10 C -0.0288(2) 0.8575(2) 0.15358(15)
H15 H -0.1235 0.9198 0.1683
H16 H 0.0710 0.9254 0.1645
C11 C -0.0192(2) 0.7599(2) 0.23729(15)
H17 H 0.0644 0.6867 0.2162
H18 H -0.1257 0.7036 0.2348
C12 C 0.0242(2) 0.8521(2) 0.35617(14)
H19 H -0.0563 0.9285 0.3764
H20 H 0.0163 0.7851 0.4063
C13 C 0.33733(19) 0.69686(17) 0.37647(12)
H21 H 0.2334 0.6620 0.3934
C14 C 0.47170(19) 0.59220(17) 0.37183(12)
C15 C 0.44986(19) 0.44351(17) 0.30820(12)
C16 C 0.5720(2) 0.34083(18) 0.30208(12)
H22 H 0.5538 0.2422 0.2584
C17 C 0.7214(2) 0.38798(19) 0.36233(13)
C18 C 0.7482(2) 0.53303(19) 0.42860(13)
H23 H 0.8489 0.5632 0.4698
C19 C 0.6237(2) 0.63295(18) 0.43293(13)
H24 H 0.6418 0.7307 0.4781
Cl1 Cl 0.26222(6) 0.38208(6) 0.23205(4)
Cl2 Cl 0.87742(6) 0.26072(6) 0.35561(4)
O1 O 0.21587(18) 1.06629(14) 0.38612(12)
C1 C 0.8030(2) 0.07101(19) 0.63016(12)
C2 C 0.65190(19) 0.16340(17) 0.64096(12)
C3 C 0.4988(2) 0.09033(19) 0.67670(14)
H1 H 0.4030 0.1465 0.6649
H2 H 0.4790 -0.0126 0.6314
C4 C 0.5169(2) 0.08635(19) 0.79909(15)
H3 H 0.6156 0.0337 0.8109
H4 H 0.4213 0.0284 0.8162
C5 C 0.5305(2) 0.2421(2) 0.87841(15)
H5 H 0.6161 0.3046 0.8547
H6 H 0.4256 0.2890 0.8737
C6 C 0.5721(3) 0.2412(3) 0.99940(16)
H7 H 0.4910 0.1732 1.0217
H8 H 0.5617 0.3426 1.0453
C7 C 0.7459(3) 0.1923(3) 1.02126(16)
H9 H 0.7551 0.1776 1.0961
H10 H 0.7597 0.0951 0.9704
C8 C 0.8878(3) 0.3051(2) 1.00857(16)
H11 H 0.9147 0.3756 1.0800
H12 H 0.8488 0.3634 0.9574
C9 C 1.0456(2) 0.2320(2) 0.96697(16)
H13 H 1.1347 0.3108 0.9754
H14 H 1.0776 0.1643 1.0131
C10 C 1.0288(2) 0.1425(2) 0.84642(15)
H15 H 1.1235 0.0802 0.8317
H16 H 0.9290 0.0746 0.8355
C11 C 1.0192(2) 0.2401(2) 0.76271(15)
H17 H 0.9356 0.3133 0.7838
H18 H 1.1257 0.2964 0.7652
C12 C 0.9758(2) 0.1479(2) 0.64383(14)
H19 H 1.0563 0.0715 0.6236
H20 H 0.9837 0.2149 0.5937
C13 C 0.66267(19) 0.30314(17) 0.62353(12)
H21 H 0.7666 0.3380 0.6066
C14 C 0.52830(19) 0.40780(17) 0.62817(12)
C15 C 0.55014(19) 0.55649(17) 0.69180(12)
C16 C 0.4280(2) 0.65917(18) 0.69792(12)
H22 H 0.4462 0.7578 0.7416
C17 C 0.2786(2) 0.61202(19) 0.63767(13)
C18 C 0.2518(2) 0.46697(19) 0.57140(13)
H23 H 0.1511 0.4368 0.5302
C19 C 0.3763(2) 0.36705(18) 0.56707(13)
H24 H 0.3582 0.2693 0.5219
Cl1 Cl 0.73778(6) 0.61792(6) 0.76795(4)
Cl2 Cl 0.12258(6) 0.73928(6) 0.64439(4)
O1 O 0.78413(18) -0.06629(14) 0.61388(12)

#END
