
#######################################################################
#
#                 Cambridge Crystallographic Data Centre
#                                CCDC 
#
#######################################################################
#
# If this CIF has been generated from an entry in the Cambridge 
# Structural Database, then it will include bibliographic, chemical, 
# crystal, experimental, refinement or atomic coordinate data resulting 
# from the CCDC's data processing and validation procedures.
#
#######################################################################

data_ACOQAM
_symmetry_cell_setting           monoclinic
_symmetry_space_group_name_H-M   'P 21/c'
_symmetry_Int_Tables_number      14
_space_group_name_Hall           '-P 2ybc'
loop_
_symmetry_equiv_pos_site_id
_symmetry_equiv_pos_as_xyz
1 x,y,z
2 -x,1/2+y,1/2-z
3 -x,-y,-z
4 x,1/2-y,1/2+z
_cell_length_a                   12.5505(8)
_cell_length_b                   6.0048(5)
_cell_length_c                   24.4004(15)
_cell_angle_alpha                90
_cell_angle_beta                 104.889(7)
_cell_angle_gamma                90
_cell_volume                     1777.15
loop_
_atom_site_label
_atom_site_type_symbol
_atom_site_fract_x
_atom_site_fract_y
_atom_site_fract_z
C1 C 0.82187(13) 0.5440(3) 0.18182(7)
C2 C 0.80339(13) 0.4698(3) 0.23824(6)
H1 H 0.8285 0.3152 0.2445
C3 C 0.68154(13) 0.4751(3) 0.23813(7)
H2 H 0.6753 0.4423 0.2761
H3 H 0.6535 0.6244 0.2286
C4 C 0.61019(14) 0.3123(3) 0.19708(8)
H4 H 0.6281 0.1622 0.2111
H5 H 0.6278 0.3242 0.1607
C5 C 0.48684(15) 0.3501(4) 0.18832(8)
H6 H 0.4478 0.2192 0.1703
H7 H 0.4716 0.3658 0.2251
C6 C 0.44197(16) 0.5512(4) 0.15293(8)
H8 H 0.4878 0.6788 0.1677
H9 H 0.3683 0.5818 0.1568
C7 C 0.43686(17) 0.5250(4) 0.08974(8)
H10 H 0.4953 0.4249 0.0861
H11 H 0.3673 0.4556 0.0710
C8 C 0.44771(18) 0.7409(4) 0.05914(10)
H12 H 0.4345 0.7098 0.0189
H13 H 0.3908 0.8430 0.0639
C9 C 0.55862(16) 0.8547(3) 0.07927(9)
H14 H 0.5546 0.9984 0.0606
H15 H 0.5725 0.8820 0.1197
C10 C 0.65552(16) 0.7276(3) 0.06867(8)
H16 H 0.6502 0.7289 0.0283
H17 H 0.6508 0.5738 0.0800
C11 C 0.76741(16) 0.8202(4) 0.10003(8)
H18 H 0.8238 0.7520 0.0848
H19 H 0.7684 0.9791 0.0931
C12 C 0.79529(16) 0.7803(3) 0.16340(8)
H20 H 0.8579 0.8729 0.1812
H21 H 0.7334 0.8289 0.1774
C13 C 0.87438(13) 0.6102(3) 0.28676(7)
H22 H 0.8459 0.7629 0.2836
C14 C 0.87354(13) 0.5186(3) 0.34416(7)
C15 C 0.82780(14) 0.6363(3) 0.38121(8)
H23 H 0.7976 0.7762 0.3707
C16 C 0.82598(14) 0.5502(3) 0.43362(8)
H24 H 0.7952 0.6315 0.4582
C17 C 0.87007(13) 0.3440(3) 0.44881(7)
C18 C 0.91702(14) 0.2237(3) 0.41291(8)
H25 H 0.9473 0.0841 0.4237
C19 C 0.91881(14) 0.3117(3) 0.36088(8)
H26 H 0.9509 0.2309 0.3368
O1 O 0.86210(10) 0.4179(2) 0.15374(5)
O2 O 0.98179(10) 0.6114(2) 0.27787(6)
Br1 Br 0.865385(18) 0.21877(4) 0.519587(8)
H27 H 1.0149(18) 0.708(3) 0.2988(9)
C1 C 0.17813(13) 0.0440(3) 0.31818(7)
C2 C 0.19661(13) -0.0302(3) 0.26176(6)
H1 H 0.1715 -0.1848 0.2555
C3 C 0.31846(13) -0.0249(3) 0.26187(7)
H2 H 0.3247 -0.0577 0.2239
H3 H 0.3465 0.1244 0.2714
C4 C 0.38981(14) -0.1877(3) 0.30292(8)
H4 H 0.3719 -0.3378 0.2889
H5 H 0.3722 -0.1758 0.3393
C5 C 0.51316(15) -0.1499(4) 0.31168(8)
H6 H 0.5522 -0.2808 0.3297
H7 H 0.5284 -0.1342 0.2749
C6 C 0.55803(16) 0.0512(4) 0.34707(8)
H8 H 0.5122 0.1788 0.3323
H9 H 0.6317 0.0818 0.3432
C7 C 0.56314(17) 0.0250(4) 0.41026(8)
H10 H 0.5047 -0.0751 0.4139
H11 H 0.6327 -0.0444 0.4290
C8 C 0.55229(18) 0.2409(4) 0.44086(10)
H12 H 0.5655 0.2098 0.4811
H13 H 0.6092 0.3430 0.4361
C9 C 0.44138(16) 0.3547(3) 0.42073(9)
H14 H 0.4454 0.4984 0.4394
H15 H 0.4275 0.3820 0.3803
C10 C 0.34448(16) 0.2276(3) 0.43133(8)
H16 H 0.3498 0.2289 0.4717
H17 H 0.3492 0.0738 0.4200
C11 C 0.23259(16) 0.3202(4) 0.39997(8)
H18 H 0.1762 0.2520 0.4152
H19 H 0.2316 0.4791 0.4069
C12 C 0.20471(16) 0.2803(3) 0.33660(8)
H20 H 0.1421 0.3729 0.3188
H21 H 0.2666 0.3289 0.3226
C13 C 0.12562(13) 0.1102(3) 0.21324(7)
H22 H 0.1541 0.2629 0.2164
C14 C 0.12646(13) 0.0186(3) 0.15584(7)
C15 C 0.17220(14) 0.1363(3) 0.11879(8)
H23 H 0.2024 0.2762 0.1293
C16 C 0.17402(14) 0.0502(3) 0.06638(8)
H24 H 0.2048 0.1315 0.0418
C17 C 0.12993(13) -0.1560(3) 0.05119(7)
C18 C 0.08298(14) -0.2763(3) 0.08709(8)
H25 H 0.0527 -0.4159 0.0763
C19 C 0.08119(14) -0.1883(3) 0.13912(8)
H26 H 0.0491 -0.2691 0.1632
O1 O 0.13790(10) -0.0821(2) 0.34626(5)
O2 O 0.01821(10) 0.1114(2) 0.22213(6)
Br1 Br 0.134615(18) -0.28123(4) -0.019587(8)
H27 H -0.0149(18) 0.208(3) 0.2012(9)
C1 C 0.17813(13) 0.4560(3) 0.81818(7)
C2 C 0.19661(13) 0.5302(3) 0.76176(6)
H1 H 0.1715 0.6848 0.7555
C3 C 0.31846(13) 0.5249(3) 0.76187(7)
H2 H 0.3247 0.5577 0.7239
H3 H 0.3465 0.3756 0.7714
C4 C 0.38981(14) 0.6877(3) 0.80292(8)
H4 H 0.3719 0.8378 0.7889
H5 H 0.3722 0.6758 0.8393
C5 C 0.51316(15) 0.6499(4) 0.81168(8)
H6 H 0.5522 0.7808 0.8297
H7 H 0.5284 0.6342 0.7749
C6 C 0.55803(16) 0.4488(4) 0.84707(8)
H8 H 0.5122 0.3212 0.8323
H9 H 0.6317 0.4182 0.8432
C7 C 0.56314(17) 0.4750(4) 0.91026(8)
H10 H 0.5047 0.5751 0.9139
H11 H 0.6327 0.5444 0.9290
C8 C 0.55229(18) 0.2591(4) 0.94086(10)
H12 H 0.5655 0.2902 0.9811
H13 H 0.6092 0.1570 0.9361
C9 C 0.44138(16) 0.1453(3) 0.92073(9)
H14 H 0.4454 0.0016 0.9394
H15 H 0.4275 0.1180 0.8803
C10 C 0.34448(16) 0.2724(3) 0.93133(8)
H16 H 0.3498 0.2711 0.9717
H17 H 0.3492 0.4262 0.9200
C11 C 0.23259(16) 0.1798(4) 0.89997(8)
H18 H 0.1762 0.2480 0.9152
H19 H 0.2316 0.0209 0.9069
C12 C 0.20471(16) 0.2197(3) 0.83660(8)
H20 H 0.1421 0.1271 0.8188
H21 H 0.2666 0.1711 0.8226
C13 C 0.12562(13) 0.3898(3) 0.71324(7)
H22 H 0.1541 0.2371 0.7164
C14 C 0.12646(13) 0.4814(3) 0.65584(7)
C15 C 0.17220(14) 0.3637(3) 0.61879(8)
H23 H 0.2024 0.2238 0.6293
C16 C 0.17402(14) 0.4498(3) 0.56638(8)
H24 H 0.2048 0.3685 0.5418
C17 C 0.12993(13) 0.6560(3) 0.55119(7)
C18 C 0.08298(14) 0.7763(3) 0.58709(8)
H25 H 0.0527 0.9159 0.5763
C19 C 0.08119(14) 0.6883(3) 0.63912(8)
H26 H 0.0491 0.7691 0.6632
O1 O 0.13790(10) 0.5821(2) 0.84626(5)
O2 O 0.01821(10) 0.3886(2) 0.72213(6)
Br1 Br 0.134615(18) 0.78123(4) 0.480413(8)
H27 H -0.0149(18) 0.292(3) 0.7012(9)
C1 C 0.82187(13) 0.9560(3) 0.68182(7)
C2 C 0.80339(13) 1.0302(3) 0.73824(6)
H1 H 0.8285 1.1848 0.7445
C3 C 0.68154(13) 1.0249(3) 0.73813(7)
H2 H 0.6753 1.0577 0.7761
H3 H 0.6535 0.8756 0.7286
C4 C 0.61019(14) 1.1877(3) 0.69708(8)
H4 H 0.6281 1.3378 0.7111
H5 H 0.6278 1.1758 0.6607
C5 C 0.48684(15) 1.1499(4) 0.68832(8)
H6 H 0.4478 1.2808 0.6703
H7 H 0.4716 1.1342 0.7251
C6 C 0.44197(16) 0.9488(4) 0.65293(8)
H8 H 0.4878 0.8212 0.6677
H9 H 0.3683 0.9182 0.6568
C7 C 0.43686(17) 0.9750(4) 0.58974(8)
H10 H 0.4953 1.0751 0.5861
H11 H 0.3673 1.0444 0.5710
C8 C 0.44771(18) 0.7591(4) 0.55914(10)
H12 H 0.4345 0.7902 0.5189
H13 H 0.3908 0.6570 0.5639
C9 C 0.55862(16) 0.6453(3) 0.57927(9)
H14 H 0.5546 0.5016 0.5606
H15 H 0.5725 0.6180 0.6197
C10 C 0.65552(16) 0.7724(3) 0.56867(8)
H16 H 0.6502 0.7711 0.5283
H17 H 0.6508 0.9262 0.5800
C11 C 0.76741(16) 0.6798(4) 0.60003(8)
H18 H 0.8238 0.7480 0.5848
H19 H 0.7684 0.5209 0.5931
C12 C 0.79529(16) 0.7197(3) 0.66340(8)
H20 H 0.8579 0.6271 0.6812
H21 H 0.7334 0.6711 0.6774
C13 C 0.87438(13) 0.8898(3) 0.78676(7)
H22 H 0.8459 0.7371 0.7836
C14 C 0.87354(13) 0.9814(3) 0.84416(7)
C15 C 0.82780(14) 0.8637(3) 0.88121(8)
H23 H 0.7976 0.7238 0.8707
C16 C 0.82598(14) 0.9498(3) 0.93362(8)
H24 H 0.7952 0.8685 0.9582
C17 C 0.87007(13) 1.1560(3) 0.94881(7)
C18 C 0.91702(14) 1.2763(3) 0.91291(8)
H25 H 0.9473 1.4159 0.9237
C19 C 0.91881(14) 1.1883(3) 0.86088(8)
H26 H 0.9509 1.2691 0.8368
O1 O 0.86210(10) 1.0821(2) 0.65374(5)
O2 O 0.98179(10) 0.8886(2) 0.77787(6)
Br1 Br 0.865385(18) 1.28123(4) 1.019587(8)
H27 H 1.0149(18) 0.792(3) 0.7988(9)

#END
