./ACOQAM_from_xyz.cif_generated_by_CrystalShift
_symmetry_cell_setting triclinic
_symmetry_space_group_name_H-M 'P 1'
loop_
_symmetry_equiv_pos_site_id
_symmetry_equiv_pos_as_xyz
1 x,y,z
_cell_length_a 12.550500
_cell_length_b 6.004800
_cell_length_c 24.400400
_cell_angle_alpha 90.000000
_cell_angle_beta 104.889000
_cell_angle_gamma 90.000000
_cell_volume 1777.153205
loop_
_atom_site_label
_atom_site_type_symbol
_atom_site_fract_x
_atom_site_fract_y
_atom_site_fract_z
C1 C 0.821870 0.544000 0.181820
C2 C 0.803390 0.469800 0.238240
H3 H 0.828500 0.315200 0.244500
C4 C 0.681540 0.475100 0.238130
H5 H 0.675300 0.442300 0.276100
H6 H 0.653500 0.624400 0.228600
C7 C 0.610190 0.312300 0.197080
H8 H 0.628100 0.162200 0.211100
H9 H 0.627800 0.324200 0.160700
C10 C 0.486840 0.350100 0.188320
H11 H 0.447800 0.219200 0.170300
H12 H 0.471600 0.365800 0.225100
C13 C 0.441970 0.551200 0.152930
H14 H 0.487800 0.678800 0.167700
H15 H 0.368300 0.581800 0.156800
C16 C 0.436860 0.525000 0.089740
H17 H 0.495300 0.424900 0.086100
H18 H 0.367300 0.455600 0.071000
C19 C 0.447710 0.740900 0.059140
H20 H 0.434500 0.709800 0.018900
H21 H 0.390800 0.843000 0.063900
C22 C 0.558620 0.854700 0.079270
H23 H 0.554600 0.998400 0.060600
H24 H 0.572500 0.882000 0.119700
C25 C 0.655520 0.727600 0.068670
H26 H 0.650200 0.728900 0.028300
H27 H 0.650800 0.573800 0.080000
C28 C 0.767410 0.820200 0.100030
H29 H 0.823800 0.752000 0.084800
H30 H 0.768400 0.979100 0.093100
C31 C 0.795290 0.780300 0.163400
H32 H 0.857900 0.872900 0.181200
H33 H 0.733400 0.828900 0.177400
C34 C 0.874380 0.610200 0.286760
H35 H 0.845900 0.762900 0.283600
C36 C 0.873540 0.518600 0.344160
C37 C 0.827800 0.636300 0.381210
H38 H 0.797600 0.776200 0.370700
C39 C 0.825980 0.550200 0.433620
H40 H 0.795200 0.631500 0.458200
C41 C 0.870070 0.344000 0.448810
C42 C 0.917020 0.223700 0.412910
H43 H 0.947300 0.084100 0.423700
C44 C 0.918810 0.311700 0.360880
H45 H 0.950900 0.230900 0.336800
O46 O 0.862100 0.417900 0.153740
O47 O 0.981790 0.611400 0.277870
Br48 Br 0.865385 0.218770 0.519587
H49 H 1.014900 0.708000 0.298800
C50 C 0.178130 0.044000 0.318180
C51 C 0.196610 -0.030200 0.261760
H52 H 0.171500 -0.184800 0.255500
C53 C 0.318460 -0.024900 0.261870
H54 H 0.324700 -0.057700 0.223900
H55 H 0.346500 0.124400 0.271400
C56 C 0.389810 -0.187700 0.302920
H57 H 0.371900 -0.337800 0.288900
H58 H 0.372200 -0.175800 0.339300
C59 C 0.513160 -0.149900 0.311680
H60 H 0.552200 -0.280800 0.329700
H61 H 0.528400 -0.134200 0.274900
C62 C 0.558030 0.051200 0.347070
H63 H 0.512200 0.178800 0.332300
H64 H 0.631700 0.081800 0.343200
C65 C 0.563140 0.025000 0.410260
H66 H 0.504700 -0.075100 0.413900
H67 H 0.632700 -0.044400 0.429000
C68 C 0.552290 0.240900 0.440860
H69 H 0.565500 0.209800 0.481100
H70 H 0.609200 0.343000 0.436100
C71 C 0.441380 0.354700 0.420730
H72 H 0.445400 0.498400 0.439400
H73 H 0.427500 0.382000 0.380300
C74 C 0.344480 0.227600 0.431330
H75 H 0.349800 0.228900 0.471700
H76 H 0.349200 0.073800 0.420000
C77 C 0.232590 0.320200 0.399970
H78 H 0.176200 0.252000 0.415200
H79 H 0.231600 0.479100 0.406900
C80 C 0.204710 0.280300 0.336600
H81 H 0.142100 0.372900 0.318800
H82 H 0.266600 0.328900 0.322600
C83 C 0.125620 0.110200 0.213240
H84 H 0.154100 0.262900 0.216400
C85 C 0.126460 0.018600 0.155840
C86 C 0.172200 0.136300 0.118790
H87 H 0.202400 0.276200 0.129300
C88 C 0.174020 0.050200 0.066380
H89 H 0.204800 0.131500 0.041800
C90 C 0.129930 -0.156000 0.051190
C91 C 0.082980 -0.276300 0.087090
H92 H 0.052700 -0.415900 0.076300
C93 C 0.081190 -0.188300 0.139120
H94 H 0.049100 -0.269100 0.163200
O95 O 0.137900 -0.082100 0.346260
O96 O 0.018210 0.111400 0.222130
Br97 Br 0.134615 -0.281230 -0.019587
H98 H -0.014900 0.208000 0.201200
C99 C 0.178130 0.456000 0.818180
C100 C 0.196610 0.530200 0.761760
H101 H 0.171500 0.684800 0.755500
C102 C 0.318460 0.524900 0.761870
H103 H 0.324700 0.557700 0.723900
H104 H 0.346500 0.375600 0.771400
C105 C 0.389810 0.687700 0.802920
H106 H 0.371900 0.837800 0.788900
H107 H 0.372200 0.675800 0.839300
C108 C 0.513160 0.649900 0.811680
H109 H 0.552200 0.780800 0.829700
H110 H 0.528400 0.634200 0.774900
C111 C 0.558030 0.448800 0.847070
H112 H 0.512200 0.321200 0.832300
H113 H 0.631700 0.418200 0.843200
C114 C 0.563140 0.475000 0.910260
H115 H 0.504700 0.575100 0.913900
H116 H 0.632700 0.544400 0.929000
C117 C 0.552290 0.259100 0.940860
H118 H 0.565500 0.290200 0.981100
H119 H 0.609200 0.157000 0.936100
C120 C 0.441380 0.145300 0.920730
H121 H 0.445400 0.001600 0.939400
H122 H 0.427500 0.118000 0.880300
C123 C 0.344480 0.272400 0.931330
H124 H 0.349800 0.271100 0.971700
H125 H 0.349200 0.426200 0.920000
C126 C 0.232590 0.179800 0.899970
H127 H 0.176200 0.248000 0.915200
H128 H 0.231600 0.020900 0.906900
C129 C 0.204710 0.219700 0.836600
H130 H 0.142100 0.127100 0.818800
H131 H 0.266600 0.171100 0.822600
C132 C 0.125620 0.389800 0.713240
H133 H 0.154100 0.237100 0.716400
C134 C 0.126460 0.481400 0.655840
C135 C 0.172200 0.363700 0.618790
H136 H 0.202400 0.223800 0.629300
C137 C 0.174020 0.449800 0.566380
H138 H 0.204800 0.368500 0.541800
C139 C 0.129930 0.656000 0.551190
C140 C 0.082980 0.776300 0.587090
H141 H 0.052700 0.915900 0.576300
C142 C 0.081190 0.688300 0.639120
H143 H 0.049100 0.769100 0.663200
O144 O 0.137900 0.582100 0.846260
O145 O 0.018210 0.388600 0.722130
Br146 Br 0.134615 0.781230 0.480413
H147 H -0.014900 0.292000 0.701200
C148 C 0.821870 0.956000 0.681820
C149 C 0.803390 1.030200 0.738240
H150 H 0.828500 1.184800 0.744500
C151 C 0.681540 1.024900 0.738130
H152 H 0.675300 1.057700 0.776100
H153 H 0.653500 0.875600 0.728600
C154 C 0.610190 1.187700 0.697080
H155 H 0.628100 1.337800 0.711100
H156 H 0.627800 1.175800 0.660700
C157 C 0.486840 1.149900 0.688320
H158 H 0.447800 1.280800 0.670300
H159 H 0.471600 1.134200 0.725100
C160 C 0.441970 0.948800 0.652930
H161 H 0.487800 0.821200 0.667700
H162 H 0.368300 0.918200 0.656800
C163 C 0.436860 0.975000 0.589740
H164 H 0.495300 1.075100 0.586100
H165 H 0.367300 1.044400 0.571000
C166 C 0.447710 0.759100 0.559140
H167 H 0.434500 0.790200 0.518900
H168 H 0.390800 0.657000 0.563900
C169 C 0.558620 0.645300 0.579270
H170 H 0.554600 0.501600 0.560600
H171 H 0.572500 0.618000 0.619700
C172 C 0.655520 0.772400 0.568670
H173 H 0.650200 0.771100 0.528300
H174 H 0.650800 0.926200 0.580000
C175 C 0.767410 0.679800 0.600030
H176 H 0.823800 0.748000 0.584800
H177 H 0.768400 0.520900 0.593100
C178 C 0.795290 0.719700 0.663400
H179 H 0.857900 0.627100 0.681200
H180 H 0.733400 0.671100 0.677400
C181 C 0.874380 0.889800 0.786760
H182 H 0.845900 0.737100 0.783600
C183 C 0.873540 0.981400 0.844160
C184 C 0.827800 0.863700 0.881210
H185 H 0.797600 0.723800 0.870700
C186 C 0.825980 0.949800 0.933620
H187 H 0.795200 0.868500 0.958200
C188 C 0.870070 1.156000 0.948810
C189 C 0.917020 1.276300 0.912910
H190 H 0.947300 1.415900 0.923700
C191 C 0.918810 1.188300 0.860880
H192 H 0.950900 1.269100 0.836800
O193 O 0.862100 1.082100 0.653740
O194 O 0.981790 0.888600 0.777870
Br195 Br 0.865385 1.281230 1.019587
H196 H 1.014900 0.792000 0.798800

#END
