./ACOROA_from_xyz.cif_generated_by_CrystalShift
_symmetry_cell_setting triclinic
_symmetry_space_group_name_H-M 'P 1'
loop_
_symmetry_equiv_pos_site_id
_symmetry_equiv_pos_as_xyz
1 x,y,z
_cell_length_a 10.077900
_cell_length_b 10.870400
_cell_length_c 13.956100
_cell_angle_alpha 75.269000
_cell_angle_beta 69.258000
_cell_angle_gamma 77.303000
_cell_volume 1368.507695
loop_
_atom_site_label
_atom_site_type_symbol
_atom_site_fract_x
_atom_site_fract_y
_atom_site_fract_z
Fe1 Fe 0.626500 0.232390 0.757360
O2 O 0.647400 0.257700 0.881900
O3 O 0.628500 0.245200 1.077600
O4 O 0.437000 0.322400 0.771700
O5 O 0.221100 0.503300 0.764900
N6 N 0.721700 0.395900 0.679800
N7 N 0.645600 0.233900 0.593200
N8 N 0.531300 0.065800 0.830600
N9 N 0.816300 0.085300 0.743700
C10 C 0.667900 0.360200 0.906600
C11 C 0.655300 0.359900 1.010700
C12 C 0.668100 0.467600 1.039500
C13 C 0.700200 0.578900 0.965200
C14 C 0.718200 0.582200 0.864100
C15 C 0.704300 0.473800 0.832300
C16 C 0.731400 0.482100 0.724300
C17 C 0.756600 0.422300 0.565400
C18 C 0.649900 0.369700 0.540700
C19 C 0.618400 0.238000 1.181900
C20 C 0.531300 0.179000 0.581400
C21 C 0.545700 0.178300 0.469800
C22 C 0.309300 0.290900 0.823900
C23 C 0.187600 0.387300 0.824600
C24 C 0.053000 0.360400 0.883000
C25 C 0.030700 0.236500 0.941000
C26 C 0.143800 0.141500 0.938000
C27 C 0.284000 0.166200 0.880200
C28 C 0.398300 0.061300 0.879200
C29 C 0.632200 -0.052700 0.834400
C30 C 0.770400 -0.020500 0.831700
C31 C 0.105600 0.602000 0.758600
C32 C 0.943600 0.132000 0.743000
C33 C 1.076500 0.032600 0.733800
H34 H 0.655300 0.465600 1.112900
H35 H 0.710600 0.653700 0.986700
H36 H 0.740700 0.660900 0.812400
H37 H 0.763800 0.560400 0.678400
H38 H 0.754600 0.513600 0.538300
H39 H 0.852900 0.382200 0.533700
H40 H 0.554900 0.417200 0.565700
H41 H 0.671600 0.377000 0.466900
H42 H 0.736700 0.185500 0.561900
H43 H 0.543400 0.301400 1.212000
H44 H 0.599500 0.155300 1.223200
H45 H 0.706700 0.253700 1.186000
H46 H 0.439900 0.225600 0.612200
H47 H 0.530500 0.090400 0.621000
H48 H 0.473700 0.140900 0.464700
H49 H 0.638600 0.127800 0.438500
H50 H 0.548000 0.263000 0.429600
H51 H -0.029400 0.429700 0.884700
H52 H -0.065400 0.218700 0.985800
H53 H 0.126300 0.055900 0.974600
H54 H 0.369600 -0.020900 0.920600
H55 H 0.593900 -0.114800 0.894600
H56 H 0.647500 -0.089100 0.773500
H57 H 0.758000 0.004700 0.896100
H58 H 0.844000 -0.094800 0.825900
H59 H 0.839400 0.055300 0.679400
H60 H 0.137200 0.678100 0.714900
H61 H 0.047300 0.617300 0.825900
H62 H 0.044200 0.574400 0.729000
H63 H 0.919500 0.162900 0.806600
H64 H 0.965000 0.203800 0.685900
H65 H 1.154800 0.068300 0.734800
H66 H 1.104300 0.002700 0.669700
H67 H 1.058400 -0.038900 0.790300
Fe68 Fe 0.373500 0.767610 0.242640
O69 O 0.352600 0.742300 0.118100
O70 O 0.371500 0.754800 -0.077600
O71 O 0.563000 0.677600 0.228300
O72 O 0.778900 0.496700 0.235100
N73 N 0.278300 0.604100 0.320200
N74 N 0.354400 0.766100 0.406800
N75 N 0.468700 0.934200 0.169400
N76 N 0.183700 0.914700 0.256300
C77 C 0.332100 0.639800 0.093400
C78 C 0.344700 0.640100 -0.010700
C79 C 0.331900 0.532400 -0.039500
C80 C 0.299800 0.421100 0.034800
C81 C 0.281800 0.417800 0.135900
C82 C 0.295700 0.526200 0.167700
C83 C 0.268600 0.517900 0.275700
C84 C 0.243400 0.577700 0.434600
C85 C 0.350100 0.630300 0.459300
C86 C 0.381600 0.762000 -0.181900
C87 C 0.468700 0.821000 0.418600
C88 C 0.454300 0.821700 0.530200
C89 C 0.690700 0.709100 0.176100
C90 C 0.812400 0.612700 0.175400
C91 C 0.947000 0.639600 0.117000
C92 C 0.969300 0.763500 0.059000
C93 C 0.856200 0.858500 0.062000
C94 C 0.716000 0.833800 0.119800
C95 C 0.601700 0.938700 0.120800
C96 C 0.367800 1.052700 0.165600
C97 C 0.229600 1.020500 0.168300
C98 C 0.894400 0.398000 0.241400
C99 C 0.056400 0.868000 0.257000
C100 C -0.076500 0.967400 0.266200
H101 H 0.344700 0.534400 -0.112900
H102 H 0.289400 0.346300 0.013300
H103 H 0.259300 0.339100 0.187600
H104 H 0.236200 0.439600 0.321600
H105 H 0.245400 0.486400 0.461700
H106 H 0.147100 0.617800 0.466300
H107 H 0.445100 0.582800 0.434300
H108 H 0.328400 0.623000 0.533100
H109 H 0.263300 0.814500 0.438100
H110 H 0.456600 0.698600 -0.212000
H111 H 0.400500 0.844700 -0.223200
H112 H 0.293300 0.746300 -0.186000
H113 H 0.560100 0.774400 0.387800
H114 H 0.469500 0.909600 0.379000
H115 H 0.526300 0.859100 0.535300
H116 H 0.361400 0.872200 0.561500
H117 H 0.452000 0.737000 0.570400
H118 H 1.029400 0.570300 0.115300
H119 H 1.065400 0.781300 0.014200
H120 H 0.873700 0.944100 0.025400
H121 H 0.630400 1.020900 0.079400
H122 H 0.406100 1.114800 0.105400
H123 H 0.352500 1.089100 0.226500
H124 H 0.242000 0.995300 0.103900
H125 H 0.156000 1.094800 0.174100
H126 H 0.160600 0.944700 0.320600
H127 H 0.862800 0.321900 0.285100
H128 H 0.952700 0.382700 0.174100
H129 H 0.955800 0.425600 0.271000
H130 H 0.080500 0.837100 0.193400
H131 H 0.035000 0.796200 0.314100
H132 H -0.154800 0.931700 0.265200
H133 H -0.104300 0.997300 0.330300
H134 H -0.058400 1.038900 0.209700
Cl135 Cl 0.881000 0.832400 0.561600
O136 O 0.890800 0.795800 0.662100
O137 O 0.838900 0.740200 0.528500
O138 O 0.790300 0.948200 0.554500
O139 O 1.020600 0.850900 0.492300
Cl140 Cl 0.119000 0.167600 0.438400
O141 O 0.109200 0.204200 0.337900
O142 O 0.161100 0.259800 0.471500
O143 O 0.209700 0.051800 0.445500
O144 O -0.020600 0.149100 0.507700

#END
