
#######################################################################
#
#                 Cambridge Crystallographic Data Centre
#                                CCDC 
#
#######################################################################
#
# If this CIF has been generated from an entry in the Cambridge 
# Structural Database, then it will include bibliographic, chemical, 
# crystal, experimental, refinement or atomic coordinate data resulting 
# from the CCDC's data processing and validation procedures.
#
#######################################################################

data_ACOWAQ
_symmetry_cell_setting           monoclinic
_symmetry_space_group_name_H-M   'P 21/a'
_symmetry_Int_Tables_number      14
_space_group_name_Hall           '-P 2yab'
loop_
_symmetry_equiv_pos_site_id
_symmetry_equiv_pos_as_xyz
1 x,y,z
2 1/2-x,1/2+y,-z
3 -x,-y,-z
4 1/2+x,1/2-y,z
_cell_length_a                   10.8224(7)
_cell_length_b                   8.2680(10)
_cell_length_c                   15.950(3)
_cell_angle_alpha                90.00
_cell_angle_beta                 102.780(10)
_cell_angle_gamma                90.00
_cell_volume                     1391.84
loop_
_atom_site_label
_atom_site_type_symbol
_atom_site_fract_x
_atom_site_fract_y
_atom_site_fract_z
O1 O 0.71359(13) 0.21581(16) 0.91283(9)
H1 H 0.7423 0.2619 0.9585
O2 O 0.94142(14) 0.71654(18) 0.82578(10)
O3 O 0.51314(12) 0.55943(18) 0.71287(9)
H2 H 0.4950 0.6200 0.7491
C1 C 0.69243(17) 0.4518(2) 0.82251(12)
C2 C 0.80226(19) 0.5170(2) 0.86281(13)
H3 H 0.8494 0.4829 0.9159
C3 C 0.83831(19) 0.6478(2) 0.81287(13)
C4 C 0.7281(2) 0.6820(3) 0.74007(14)
H4 H 0.7561 0.7002 0.6871
H5 H 0.6817 0.7763 0.7522
C5 C 0.64554(18) 0.5282(2) 0.73362(12)
C6 C 0.67304(19) 0.4200(2) 0.66209(13)
H6 H 0.7625 0.3934 0.6764
H7 H 0.6578 0.4830 0.6095
C7 C 0.59858(19) 0.2618(3) 0.64315(13)
H8 H 0.5087 0.2908 0.6265
C8 C 0.6139(2) 0.1497(3) 0.72087(13)
H9 H 0.5811 0.0437 0.7015
H10 H 0.7034 0.1378 0.7466
C9 C 0.54622(19) 0.2099(3) 0.78926(13)
H11 H 0.4709 0.2682 0.7607
H12 H 0.5186 0.1166 0.8172
C10 C 0.62332(17) 0.3191(2) 0.85851(12)
C11 C 0.6328(2) 0.1826(3) 0.56545(14)
C12 C 0.7315(3) 0.0816(4) 0.57229(19)
H13 H 0.7507 0.0372 0.5231
H14 H 0.7807 0.0560 0.6262
C13 C 0.5527(3) 0.2261(4) 0.48137(16)
H15 H 0.5563 0.3409 0.4731
H16 H 0.4667 0.1945 0.4795
H17 H 0.5827 0.1713 0.4367
C14 C 0.5374(2) 0.3963(3) 0.91151(15)
H18 H 0.4755 0.4633 0.8750
H19 H 0.5875 0.4611 0.9564
H20 H 0.4951 0.3130 0.9364
O1 O 0.78641(13) 0.71581(16) 0.08717(9)
H1 H 0.7577 0.7619 0.0415
O2 O 0.55858(14) 1.21654(18) 0.17422(10)
O3 O 0.98686(12) 1.05943(18) 0.28713(9)
H2 H 1.0050 1.1200 0.2509
C1 C 0.80757(17) 0.9518(2) 0.17749(12)
C2 C 0.69774(19) 1.0170(2) 0.13719(13)
H3 H 0.6506 0.9829 0.0841
C3 C 0.66169(19) 1.1478(2) 0.18713(13)
C4 C 0.7719(2) 1.1820(3) 0.25993(14)
H4 H 0.7439 1.2002 0.3129
H5 H 0.8183 1.2763 0.2478
C5 C 0.85446(18) 1.0282(2) 0.26638(12)
C6 C 0.82696(19) 0.9200(2) 0.33791(13)
H6 H 0.7375 0.8934 0.3236
H7 H 0.8422 0.9830 0.3905
C7 C 0.90142(19) 0.7618(3) 0.35685(13)
H8 H 0.9913 0.7908 0.3735
C8 C 0.8861(2) 0.6497(3) 0.27913(13)
H9 H 0.9189 0.5437 0.2985
H10 H 0.7966 0.6378 0.2534
C9 C 0.95378(19) 0.7099(3) 0.21074(13)
H11 H 1.0291 0.7682 0.2393
H12 H 0.9814 0.6166 0.1828
C10 C 0.87668(17) 0.8191(2) 0.14149(12)
C11 C 0.8672(2) 0.6826(3) 0.43455(14)
C12 C 0.7685(3) 0.5816(4) 0.42771(19)
H13 H 0.7493 0.5372 0.4769
H14 H 0.7193 0.5560 0.3738
C13 C 0.9473(3) 0.7261(4) 0.51863(16)
H15 H 0.9437 0.8409 0.5269
H16 H 1.0333 0.6945 0.5205
H17 H 0.9173 0.6713 0.5633
C14 C 0.9626(2) 0.8963(3) 0.08849(15)
H18 H 1.0245 0.9633 0.1250
H19 H 0.9125 0.9611 0.0436
H20 H 1.0049 0.8130 0.0636
O1 O 0.28641(13) 0.78419(16) 0.08717(9)
H1 H 0.2577 0.7381 0.0415
O2 O 0.05858(14) 0.28346(18) 0.17422(10)
O3 O 0.48686(12) 0.44057(18) 0.28713(9)
H2 H 0.5050 0.3800 0.2509
C1 C 0.30757(17) 0.5482(2) 0.17749(12)
C2 C 0.19774(19) 0.4830(2) 0.13719(13)
H3 H 0.1506 0.5171 0.0841
C3 C 0.16169(19) 0.3522(2) 0.18713(13)
C4 C 0.2719(2) 0.3180(3) 0.25993(14)
H4 H 0.2439 0.2998 0.3129
H5 H 0.3183 0.2237 0.2478
C5 C 0.35446(18) 0.4718(2) 0.26638(12)
C6 C 0.32696(19) 0.5800(2) 0.33791(13)
H6 H 0.2375 0.6066 0.3236
H7 H 0.3422 0.5170 0.3905
C7 C 0.40142(19) 0.7382(3) 0.35685(13)
H8 H 0.4913 0.7092 0.3735
C8 C 0.3861(2) 0.8503(3) 0.27913(13)
H9 H 0.4189 0.9563 0.2985
H10 H 0.2966 0.8622 0.2534
C9 C 0.45378(19) 0.7901(3) 0.21074(13)
H11 H 0.5291 0.7318 0.2393
H12 H 0.4814 0.8834 0.1828
C10 C 0.37668(17) 0.6809(2) 0.14149(12)
C11 C 0.3672(2) 0.8174(3) 0.43455(14)
C12 C 0.2685(3) 0.9184(4) 0.42771(19)
H13 H 0.2493 0.9628 0.4769
H14 H 0.2193 0.9440 0.3738
C13 C 0.4473(3) 0.7739(4) 0.51863(16)
H15 H 0.4437 0.6591 0.5269
H16 H 0.5333 0.8055 0.5205
H17 H 0.4173 0.8287 0.5633
C14 C 0.4626(2) 0.6037(3) 0.08849(15)
H18 H 0.5245 0.5367 0.1250
H19 H 0.4125 0.5389 0.0436
H20 H 0.5049 0.6870 0.0636
O1 O 0.21359(13) 0.28419(16) 0.91283(9)
H1 H 0.2423 0.2381 0.9585
O2 O 0.44142(14) -0.21654(18) 0.82578(10)
O3 O 0.01314(12) -0.05943(18) 0.71287(9)
H2 H -0.0050 -0.1200 0.7491
C1 C 0.19243(17) 0.0482(2) 0.82251(12)
C2 C 0.30226(19) -0.0170(2) 0.86281(13)
H3 H 0.3494 0.0171 0.9159
C3 C 0.33831(19) -0.1478(2) 0.81287(13)
C4 C 0.2281(2) -0.1820(3) 0.74007(14)
H4 H 0.2561 -0.2002 0.6871
H5 H 0.1817 -0.2763 0.7522
C5 C 0.14554(18) -0.0282(2) 0.73362(12)
C6 C 0.17304(19) 0.0800(2) 0.66209(13)
H6 H 0.2625 0.1066 0.6764
H7 H 0.1578 0.0170 0.6095
C7 C 0.09858(19) 0.2382(3) 0.64315(13)
H8 H 0.0087 0.2092 0.6265
C8 C 0.1139(2) 0.3503(3) 0.72087(13)
H9 H 0.0811 0.4563 0.7015
H10 H 0.2034 0.3622 0.7466
C9 C 0.04622(19) 0.2901(3) 0.78926(13)
H11 H -0.0291 0.2318 0.7607
H12 H 0.0186 0.3834 0.8172
C10 C 0.12332(17) 0.1809(2) 0.85851(12)
C11 C 0.1328(2) 0.3174(3) 0.56545(14)
C12 C 0.2315(3) 0.4184(4) 0.57229(19)
H13 H 0.2507 0.4628 0.5231
H14 H 0.2807 0.4440 0.6262
C13 C 0.0527(3) 0.2739(4) 0.48137(16)
H15 H 0.0563 0.1591 0.4731
H16 H -0.0333 0.3055 0.4795
H17 H 0.0827 0.3287 0.4367
C14 C 0.0374(2) 0.1037(3) 0.91151(15)
H18 H -0.0245 0.0367 0.8750
H19 H 0.0875 0.0389 0.9564
H20 H -0.0049 0.1870 0.9364
O4 O 0.67787(17) 0.87693(19) 0.93392(10)
H21 H 0.6905 0.9894 0.9196
H22 H 0.6005 0.8412 0.9012
O4 O 0.82213(17) 0.37693(19) 0.06608(10)
H21 H 0.8095 0.4894 0.0804
H22 H 0.8995 0.3412 0.0988
O4 O 0.32213(17) 0.12307(19) 0.06608(10)
H21 H 0.3095 0.0106 0.0804
H22 H 0.3995 0.1588 0.0988
O4 O 0.17787(17) 0.62307(19) 0.93392(10)
H21 H 0.1905 0.5106 0.9196
H22 H 0.1005 0.6588 0.9012

#END
