./ACOXUM_from_xyz.cif_generated_by_CrystalShift
_symmetry_cell_setting triclinic
_symmetry_space_group_name_H-M 'P 1'
loop_
_symmetry_equiv_pos_site_id
_symmetry_equiv_pos_as_xyz
1 x,y,z
_cell_length_a 7.831000
_cell_length_b 17.277000
_cell_length_c 8.430900
_cell_angle_alpha 90.000000
_cell_angle_beta 103.180000
_cell_angle_gamma 90.000000
_cell_volume 1110.621775
loop_
_atom_site_label
_atom_site_type_symbol
_atom_site_fract_x
_atom_site_fract_y
_atom_site_fract_z
O1 O 0.125830 0.474940 0.795730
O2 O 0.314420 0.586940 0.446290
O3 O 0.290510 0.459930 0.292150
C4 C 0.169890 0.551350 0.816400
C5 C 0.124210 0.590530 0.945010
C6 C 0.163670 0.668350 0.967360
C7 C 0.248540 0.708350 0.863520
C8 C 0.291880 0.669310 0.735360
C9 C 0.252390 0.590690 0.709140
C10 C 0.281960 0.549890 0.564830
C11 C 0.261270 0.467460 0.563590
C12 C 0.263560 0.426240 0.425290
C13 C 0.231880 0.340980 0.410240
C14 C 0.237810 0.301640 0.573440
C15 C 0.147350 0.350660 0.680760
C16 C 0.240420 0.428250 0.718440
C17 C 0.415930 0.419670 0.841780
H18 H 0.066900 0.562900 1.016100
H19 H 0.133000 0.694600 1.064100
H20 H 0.278600 0.764700 0.881800
H21 H 0.350400 0.695200 0.660600
H22 H 0.322000 0.318900 0.352000
H23 H 0.115000 0.334400 0.336700
H24 H 0.180000 0.250100 0.556600
H25 H 0.364000 0.293000 0.630300
H26 H 0.148300 0.324000 0.786900
H27 H 0.024500 0.361100 0.623500
H28 H 0.474300 0.470600 0.865500
H29 H 0.494000 0.383400 0.795600
H30 H 0.400000 0.398000 0.942000
H31 H 0.304000 0.516700 0.324000
O32 O 0.874170 0.974940 0.704270
O33 O 0.685580 1.086940 1.053710
O34 O 0.709490 0.959930 1.207850
C35 C 0.830110 1.051350 0.683600
C36 C 0.875790 1.090530 0.554990
C37 C 0.836330 1.168350 0.532640
C38 C 0.751460 1.208350 0.636480
C39 C 0.708120 1.169310 0.764640
C40 C 0.747610 1.090690 0.790860
C41 C 0.718040 1.049890 0.935170
C42 C 0.738730 0.967460 0.936410
C43 C 0.736440 0.926240 1.074710
C44 C 0.768120 0.840980 1.089760
C45 C 0.762190 0.801640 0.926560
C46 C 0.852650 0.850660 0.819240
C47 C 0.759580 0.928250 0.781560
C48 C 0.584070 0.919670 0.658220
H49 H 0.933100 1.062900 0.483900
H50 H 0.867000 1.194600 0.435900
H51 H 0.721400 1.264700 0.618200
H52 H 0.649600 1.195200 0.839400
H53 H 0.678000 0.818900 1.148000
H54 H 0.885000 0.834400 1.163300
H55 H 0.820000 0.750100 0.943400
H56 H 0.636000 0.793000 0.869700
H57 H 0.851700 0.824000 0.713100
H58 H 0.975500 0.861100 0.876500
H59 H 0.525700 0.970600 0.634500
H60 H 0.506000 0.883400 0.704400
H61 H 0.600000 0.898000 0.558000
H62 H 0.696000 1.016700 1.176000
O63 O 0.874170 0.525060 0.204270
O64 O 0.685580 0.413060 0.553710
O65 O 0.709490 0.540070 0.707850
C66 C 0.830110 0.448650 0.183600
C67 C 0.875790 0.409470 0.054990
C68 C 0.836330 0.331650 0.032640
C69 C 0.751460 0.291650 0.136480
C70 C 0.708120 0.330690 0.264640
C71 C 0.747610 0.409310 0.290860
C72 C 0.718040 0.450110 0.435170
C73 C 0.738730 0.532540 0.436410
C74 C 0.736440 0.573760 0.574710
C75 C 0.768120 0.659020 0.589760
C76 C 0.762190 0.698360 0.426560
C77 C 0.852650 0.649340 0.319240
C78 C 0.759580 0.571750 0.281560
C79 C 0.584070 0.580330 0.158220
H80 H 0.933100 0.437100 -0.016100
H81 H 0.867000 0.305400 -0.064100
H82 H 0.721400 0.235300 0.118200
H83 H 0.649600 0.304800 0.339400
H84 H 0.678000 0.681100 0.648000
H85 H 0.885000 0.665600 0.663300
H86 H 0.820000 0.749900 0.443400
H87 H 0.636000 0.707000 0.369700
H88 H 0.851700 0.676000 0.213100
H89 H 0.975500 0.638900 0.376500
H90 H 0.525700 0.529400 0.134500
H91 H 0.506000 0.616600 0.204400
H92 H 0.600000 0.602000 0.058000
H93 H 0.696000 0.483300 0.676000
O94 O 0.125830 0.025060 0.295730
O95 O 0.314420 -0.086940 -0.053710
O96 O 0.290510 0.040070 -0.207850
C97 C 0.169890 -0.051350 0.316400
C98 C 0.124210 -0.090530 0.445010
C99 C 0.163670 -0.168350 0.467360
C100 C 0.248540 -0.208350 0.363520
C101 C 0.291880 -0.169310 0.235360
C102 C 0.252390 -0.090690 0.209140
C103 C 0.281960 -0.049890 0.064830
C104 C 0.261270 0.032540 0.063590
C105 C 0.263560 0.073760 -0.074710
C106 C 0.231880 0.159020 -0.089760
C107 C 0.237810 0.198360 0.073440
C108 C 0.147350 0.149340 0.180760
C109 C 0.240420 0.071750 0.218440
C110 C 0.415930 0.080330 0.341780
H111 H 0.066900 -0.062900 0.516100
H112 H 0.133000 -0.194600 0.564100
H113 H 0.278600 -0.264700 0.381800
H114 H 0.350400 -0.195200 0.160600
H115 H 0.322000 0.181100 -0.148000
H116 H 0.115000 0.165600 -0.163300
H117 H 0.180000 0.249900 0.056600
H118 H 0.364000 0.207000 0.130300
H119 H 0.148300 0.176000 0.286900
H120 H 0.024500 0.138900 0.123500
H121 H 0.474300 0.029400 0.365500
H122 H 0.494000 0.116600 0.295600
H123 H 0.400000 0.102000 0.442000
H124 H 0.304000 -0.016700 -0.176000

#END
