./ACOYOG_from_xyz.cif_generated_by_CrystalShift
_symmetry_cell_setting triclinic
_symmetry_space_group_name_H-M 'P 1'
loop_
_symmetry_equiv_pos_site_id
_symmetry_equiv_pos_as_xyz
1 x,y,z
_cell_length_a 7.707400
_cell_length_b 9.146000
_cell_length_c 11.804000
_cell_angle_alpha 87.940000
_cell_angle_beta 86.550000
_cell_angle_gamma 71.330000
_cell_volume 786.749012
loop_
_atom_site_label
_atom_site_type_symbol
_atom_site_fract_x
_atom_site_fract_y
_atom_site_fract_z
O1 O 0.900000 0.765600 0.662190
H2 H 0.929400 0.762800 0.592430
O3 O 0.428400 0.734600 0.918140
H4 H 0.315200 0.748400 0.924900
C5 C 0.718100 0.781300 0.677600
C6 C 0.656500 0.756100 0.786600
H7 H 0.739100 0.732200 0.846300
C8 C 0.475100 0.765600 0.809100
C9 C 0.353800 0.802900 0.723400
H10 H 0.229200 0.809100 0.738400
C11 C 0.416200 0.831200 0.615400
H12 H 0.332800 0.858400 0.556200
C13 C 0.597700 0.820600 0.591600
H14 H 0.638700 0.840200 0.516800
O15 O 0.100000 0.234400 0.337810
H16 H 0.070600 0.237200 0.407570
O17 O 0.571600 0.265400 0.081860
H18 H 0.684800 0.251600 0.075100
C19 C 0.281900 0.218700 0.322400
C20 C 0.343500 0.243900 0.213400
H21 H 0.260900 0.267800 0.153700
C22 C 0.524900 0.234400 0.190900
C23 C 0.646200 0.197100 0.276600
H24 H 0.770800 0.190900 0.261600
C25 C 0.583800 0.168800 0.384600
H26 H 0.667200 0.141600 0.443800
C27 C 0.402300 0.179400 0.408400
H28 H 0.361300 0.159800 0.483200
N29 N 0.062700 0.743200 0.448800
N30 N 1.094700 0.725300 -0.005700
C31 C 0.199500 0.611700 0.440000
H32 H 0.195300 0.528500 0.489500
C33 C 0.346400 0.588500 0.363900
H34 H 0.441100 0.491700 0.362100
C35 C 0.356700 0.705700 0.290200
C36 C 0.214600 0.842700 0.298700
H37 H 0.215200 0.927500 0.250000
C38 C 0.072900 0.856800 0.377100
H39 H -0.023500 0.952500 0.380900
C40 C 0.516400 0.685800 0.204900
H41 H 0.570900 0.575100 0.186900
H42 H 0.471000 0.742400 0.134000
C43 C 0.661700 0.743100 0.247000
H44 H 0.714400 0.680700 0.314300
H45 H 0.605300 0.851400 0.271000
C46 C 0.813600 0.734800 0.157900
C47 C 0.976100 0.615700 0.155000
H48 H 0.995000 0.533500 0.209200
C49 C 1.111800 0.615200 0.073600
H50 H 1.223600 0.532000 0.074100
C51 C 0.793700 0.848500 0.074700
H52 H 0.682900 0.932600 0.071800
C53 C 0.936300 0.838400 -0.004100
H54 H 0.919800 0.917500 -0.060800
N55 N 0.937300 0.256800 0.551200
N56 N -0.094700 0.274700 1.005700
C57 C 0.800500 0.388300 0.560000
H58 H 0.804700 0.471500 0.510500
C59 C 0.653600 0.411500 0.636100
H60 H 0.558900 0.508300 0.637900
C61 C 0.643300 0.294300 0.709800
C62 C 0.785400 0.157300 0.701300
H63 H 0.784800 0.072500 0.750000
C64 C 0.927100 0.143200 0.622900
H65 H 1.023500 0.047500 0.619100
C66 C 0.483600 0.314200 0.795100
H67 H 0.429100 0.424900 0.813100
H68 H 0.529000 0.257600 0.866000
C69 C 0.338300 0.256900 0.753000
H70 H 0.285600 0.319300 0.685700
H71 H 0.394700 0.148600 0.729000
C72 C 0.186400 0.265200 0.842100
C73 C 0.023900 0.384300 0.845000
H74 H 0.005000 0.466500 0.790800
C75 C -0.111800 0.384800 0.926400
H76 H -0.223600 0.468000 0.925900
C77 C 0.206300 0.151500 0.925300
H78 H 0.317100 0.067400 0.928200
C79 C 0.063700 0.161600 1.004100
H80 H 0.080200 0.082500 1.060800

#END
