
#######################################################################
#
#                 Cambridge Crystallographic Data Centre
#                                CCDC 
#
#######################################################################
#
# If this CIF has been generated from an entry in the Cambridge 
# Structural Database, then it will include bibliographic, chemical, 
# crystal, experimental, refinement or atomic coordinate data resulting 
# from the CCDC's data processing and validation procedures.
#
#######################################################################

data_ACOZUO
_symmetry_cell_setting           monoclinic
_symmetry_space_group_name_H-M   'P 21/n'
_symmetry_Int_Tables_number      14
_space_group_name_Hall           '-P 2yn'
loop_
_symmetry_equiv_pos_site_id
_symmetry_equiv_pos_as_xyz
1 x,y,z
2 1/2-x,1/2+y,1/2-z
3 -x,-y,-z
4 1/2+x,1/2-y,1/2+z
_cell_length_a                   20.5734(4)
_cell_length_b                   8.23130(10)
_cell_length_c                   22.9507(5)
_cell_angle_alpha                90
_cell_angle_beta                 114.7186(9)
_cell_angle_gamma                90
_cell_volume                     3530.49
loop_
_atom_site_label
_atom_site_type_symbol
_atom_site_fract_x
_atom_site_fract_y
_atom_site_fract_z
P1 P 0.92087(2) 0.79692(5) 0.084391(19)
S1 S 0.88647(2) 1.01562(5) 0.05793(2)
C1 C 1.01685(8) 0.79302(18) 0.13244(7)
C2 C 1.06292(9) 0.8674(2) 0.11019(9)
H1 H 1.0445(10) 0.924(3) 0.0731(10)
C3 C 1.13617(10) 0.8471(2) 0.14206(10)
H2 H 1.1650(10) 0.895(2) 0.1255(9)
C4 C 1.16452(10) 0.7549(2) 0.19750(9)
H3 H 1.2143(11) 0.738(2) 0.2176(9)
C5 C 1.11972(9) 0.6835(2) 0.22087(8)
H4 H 1.1382(10) 0.620(2) 0.2599(9)
C6 C 1.04589(9) 0.7014(2) 0.18847(8)
H5 H 1.0158(9) 0.656(2) 0.2040(8)
N1 N 0.88350(7) 0.68336(15) 0.12080(6)
C7 C 0.87579(9) 0.51270(18) 0.09993(8)
H6 H 0.8253(9) 0.483(2) 0.0773(8)
H7 H 0.8998(8) 0.441(2) 0.1371(8)
C8 C 0.91178(9) 0.49900(19) 0.05376(8)
H8 H 0.9635(9) 0.463(2) 0.0765(8)
H9 H 0.8879(8) 0.419(2) 0.0219(8)
N2 N 0.90596(7) 0.66188(15) 0.02592(6)
C9 C 0.93252(9) 0.6870(2) -0.02335(8)
H10 H 0.9804(9) 0.639(2) -0.0099(8)
H11 H 0.9403(10) 0.807(2) -0.0268(9)
C10 C 0.88032(10) 0.6249(3) -0.08851(9)
H12 H 0.8736(10) 0.506(3) -0.0863(9)
H13 H 0.9032(10) 0.644(2) -0.1181(9)
C11 C 0.80792(10) 0.7105(3) -0.11257(9)
H14 H 0.8157(9) 0.828(2) -0.1018(8)
H15 H 0.7855(10) 0.704(2) -0.1581(10)
N3 N 0.76069(7) 0.63922(17) -0.08655(7)
H16 H 0.7841(9) 0.622(2) -0.0463(8)
C12 C 0.70480(10) 0.7511(2) -0.08806(9)
H17 H 0.6716(10) 0.771(2) -0.1326(10)
H18 H 0.7252(10) 0.857(2) -0.0699(9)
C13 C 0.66235(9) 0.6781(2) -0.05434(8)
H19 H 0.6391(9) 0.579(2) -0.0773(8)
H20 H 0.6244(10) 0.755(2) -0.0562(8)
N4 N 0.70766(7) 0.63226(16) 0.01193(6)
H21 H 0.6882(10) 0.554(3) 0.0237(9)
C14 C 0.72379(9) 0.76520(19) 0.05799(8)
H22 H 0.7522(9) 0.846(2) 0.0475(8)
H23 H 0.6783(9) 0.822(2) 0.0538(8)
C15 C 0.76475(9) 0.7057(2) 0.12672(8)
H24 H 0.7566(9) 0.590(2) 0.1288(8)
H25 H 0.7468(10) 0.755(2) 0.1554(9)
C16 C 0.84483(9) 0.7422(2) 0.15730(8)
H26 H 0.8663(9) 0.699(2) 0.1995(9)
H27 H 0.8523(9) 0.860(2) 0.1617(8)
P1 P 0.57913(2) 0.29692(5) 0.415609(19)
S1 S 0.61353(2) 0.51562(5) 0.44207(2)
C1 C 0.48315(8) 0.29302(18) 0.36756(7)
C2 C 0.43708(9) 0.3674(2) 0.38981(9)
H1 H 0.4555(10) 0.424(3) 0.4269(10)
C3 C 0.36383(10) 0.3471(2) 0.35794(10)
H2 H 0.3350(10) 0.395(2) 0.3745(9)
C4 C 0.33548(10) 0.2549(2) 0.30250(9)
H3 H 0.2857(11) 0.238(2) 0.2824(9)
C5 C 0.38028(9) 0.1835(2) 0.27913(8)
H4 H 0.3618(10) 0.120(2) 0.2401(9)
C6 C 0.45411(9) 0.2014(2) 0.31153(8)
H5 H 0.4842(9) 0.156(2) 0.2960(8)
N1 N 0.61650(7) 0.18336(15) 0.37920(6)
C7 C 0.62421(9) 0.01270(18) 0.40007(8)
H6 H 0.6747(9) -0.017(2) 0.4227(8)
H7 H 0.6002(8) -0.059(2) 0.3629(8)
C8 C 0.58822(9) -0.00100(19) 0.44624(8)
H8 H 0.5365(9) -0.037(2) 0.4235(8)
H9 H 0.6121(8) -0.081(2) 0.4781(8)
N2 N 0.59404(7) 0.16188(15) 0.47408(6)
C9 C 0.56748(9) 0.1870(2) 0.52335(8)
H10 H 0.5196(9) 0.139(2) 0.5099(8)
H11 H 0.5597(10) 0.307(2) 0.5268(9)
C10 C 0.61968(10) 0.1249(3) 0.58851(9)
H12 H 0.6264(10) 0.006(3) 0.5863(9)
H13 H 0.5968(10) 0.144(2) 0.6181(9)
C11 C 0.69208(10) 0.2105(3) 0.61257(9)
H14 H 0.6843(9) 0.328(2) 0.6018(8)
H15 H 0.7145(10) 0.204(2) 0.6581(10)
N3 N 0.73931(7) 0.13922(17) 0.58655(7)
H16 H 0.7159(9) 0.122(2) 0.5463(8)
C12 C 0.79520(10) 0.2511(2) 0.58806(9)
H17 H 0.8284(10) 0.271(2) 0.6326(10)
H18 H 0.7748(10) 0.357(2) 0.5699(9)
C13 C 0.83765(9) 0.1781(2) 0.55434(8)
H19 H 0.8609(9) 0.079(2) 0.5773(8)
H20 H 0.8756(10) 0.255(2) 0.5562(8)
N4 N 0.79234(7) 0.13226(16) 0.48807(6)
H21 H 0.8118(10) 0.054(3) 0.4763(9)
C14 C 0.77621(9) 0.26520(19) 0.44201(8)
H22 H 0.7478(9) 0.346(2) 0.4525(8)
H23 H 0.8217(9) 0.322(2) 0.4462(8)
C15 C 0.73525(9) 0.2057(2) 0.37328(8)
H24 H 0.7434(9) 0.090(2) 0.3712(8)
H25 H 0.7532(10) 0.255(2) 0.3446(9)
C16 C 0.65517(9) 0.2422(2) 0.34270(8)
H26 H 0.6337(9) 0.199(2) 0.3005(9)
H27 H 0.6477(9) 0.360(2) 0.3383(8)
P1 P 0.07913(2) 0.20308(5) 0.915609(19)
S1 S 0.11353(2) -0.01562(5) 0.94207(2)
C1 C -0.01685(8) 0.20698(18) 0.86756(7)
C2 C -0.06292(9) 0.1326(2) 0.88981(9)
H1 H -0.0445(10) 0.076(3) 0.9269(10)
C3 C -0.13617(10) 0.1529(2) 0.85794(10)
H2 H -0.1650(10) 0.105(2) 0.8745(9)
C4 C -0.16452(10) 0.2451(2) 0.80250(9)
H3 H -0.2143(11) 0.262(2) 0.7824(9)
C5 C -0.11972(9) 0.3165(2) 0.77913(8)
H4 H -0.1382(10) 0.380(2) 0.7401(9)
C6 C -0.04589(9) 0.2986(2) 0.81153(8)
H5 H -0.0158(9) 0.344(2) 0.7960(8)
N1 N 0.11650(7) 0.31664(15) 0.87920(6)
C7 C 0.12421(9) 0.48730(18) 0.90007(8)
H6 H 0.1747(9) 0.517(2) 0.9227(8)
H7 H 0.1002(8) 0.559(2) 0.8629(8)
C8 C 0.08822(9) 0.50100(19) 0.94624(8)
H8 H 0.0365(9) 0.537(2) 0.9235(8)
H9 H 0.1121(8) 0.581(2) 0.9781(8)
N2 N 0.09404(7) 0.33812(15) 0.97408(6)
C9 C 0.06748(9) 0.3130(2) 1.02335(8)
H10 H 0.0196(9) 0.361(2) 1.0099(8)
H11 H 0.0597(10) 0.193(2) 1.0268(9)
C10 C 0.11968(10) 0.3751(3) 1.08851(9)
H12 H 0.1264(10) 0.494(3) 1.0863(9)
H13 H 0.0968(10) 0.356(2) 1.1181(9)
C11 C 0.19208(10) 0.2895(3) 1.11257(9)
H14 H 0.1843(9) 0.172(2) 1.1018(8)
H15 H 0.2145(10) 0.296(2) 1.1581(10)
N3 N 0.23931(7) 0.36078(17) 1.08655(7)
H16 H 0.2159(9) 0.378(2) 1.0463(8)
C12 C 0.29520(10) 0.2489(2) 1.08806(9)
H17 H 0.3284(10) 0.229(2) 1.1326(10)
H18 H 0.2748(10) 0.143(2) 1.0699(9)
C13 C 0.33765(9) 0.3219(2) 1.05434(8)
H19 H 0.3609(9) 0.421(2) 1.0773(8)
H20 H 0.3756(10) 0.245(2) 1.0562(8)
N4 N 0.29234(7) 0.36774(16) 0.98807(6)
H21 H 0.3118(10) 0.446(3) 0.9763(9)
C14 C 0.27621(9) 0.23480(19) 0.94201(8)
H22 H 0.2478(9) 0.154(2) 0.9525(8)
H23 H 0.3217(9) 0.178(2) 0.9462(8)
C15 C 0.23525(9) 0.2943(2) 0.87328(8)
H24 H 0.2434(9) 0.410(2) 0.8712(8)
H25 H 0.2532(10) 0.245(2) 0.8446(9)
C16 C 0.15517(9) 0.2578(2) 0.84270(8)
H26 H 0.1337(9) 0.301(2) 0.8005(9)
H27 H 0.1477(9) 0.140(2) 0.8383(8)
P1 P 0.42087(2) 0.70308(5) 0.584391(19)
S1 S 0.38647(2) 0.48438(5) 0.55793(2)
C1 C 0.51685(8) 0.70698(18) 0.63244(7)
C2 C 0.56292(9) 0.6326(2) 0.61019(9)
H1 H 0.5445(10) 0.576(3) 0.5731(10)
C3 C 0.63617(10) 0.6529(2) 0.64206(10)
H2 H 0.6650(10) 0.605(2) 0.6255(9)
C4 C 0.66452(10) 0.7451(2) 0.69750(9)
H3 H 0.7143(11) 0.762(2) 0.7176(9)
C5 C 0.61972(9) 0.8165(2) 0.72087(8)
H4 H 0.6382(10) 0.880(2) 0.7599(9)
C6 C 0.54589(9) 0.7986(2) 0.68847(8)
H5 H 0.5158(9) 0.844(2) 0.7040(8)
N1 N 0.38350(7) 0.81664(15) 0.62080(6)
C7 C 0.37579(9) 0.98730(18) 0.59993(8)
H6 H 0.3253(9) 1.017(2) 0.5773(8)
H7 H 0.3998(8) 1.059(2) 0.6371(8)
C8 C 0.41178(9) 1.00100(19) 0.55376(8)
H8 H 0.4635(9) 1.037(2) 0.5765(8)
H9 H 0.3879(8) 1.081(2) 0.5219(8)
N2 N 0.40596(7) 0.83812(15) 0.52592(6)
C9 C 0.43252(9) 0.8130(2) 0.47665(8)
H10 H 0.4804(9) 0.861(2) 0.4901(8)
H11 H 0.4403(10) 0.693(2) 0.4732(9)
C10 C 0.38032(10) 0.8751(3) 0.41149(9)
H12 H 0.3736(10) 0.994(3) 0.4137(9)
H13 H 0.4032(10) 0.856(2) 0.3819(9)
C11 C 0.30792(10) 0.7895(3) 0.38743(9)
H14 H 0.3157(9) 0.672(2) 0.3982(8)
H15 H 0.2855(10) 0.796(2) 0.3419(10)
N3 N 0.26069(7) 0.86078(17) 0.41345(7)
H16 H 0.2841(9) 0.878(2) 0.4537(8)
C12 C 0.20480(10) 0.7489(2) 0.41194(9)
H17 H 0.1716(10) 0.729(2) 0.3674(10)
H18 H 0.2252(10) 0.643(2) 0.4301(9)
C13 C 0.16235(9) 0.8219(2) 0.44566(8)
H19 H 0.1391(9) 0.921(2) 0.4227(8)
H20 H 0.1244(10) 0.745(2) 0.4438(8)
N4 N 0.20766(7) 0.86774(16) 0.51193(6)
H21 H 0.1882(10) 0.946(3) 0.5237(9)
C14 C 0.22379(9) 0.73480(19) 0.55799(8)
H22 H 0.2522(9) 0.654(2) 0.5475(8)
H23 H 0.1783(9) 0.678(2) 0.5538(8)
C15 C 0.26475(9) 0.7943(2) 0.62672(8)
H24 H 0.2566(9) 0.910(2) 0.6288(8)
H25 H 0.2468(10) 0.745(2) 0.6554(9)
C16 C 0.34483(9) 0.7578(2) 0.65730(8)
H26 H 0.3663(9) 0.801(2) 0.6995(9)
H27 H 0.3523(9) 0.640(2) 0.6617(8)
P2 P -0.04146(2) 0.31324(5) 0.301538(19)
S2 S -0.00854(2) 0.53550(5) 0.32110(2)
C17 C -0.13645(8) 0.30896(18) 0.24866(7)
C18 C -0.18467(8) 0.4037(2) 0.26212(8)
H28 H -0.1677(9) 0.476(2) 0.2967(8)
C19 C -0.25768(9) 0.3934(2) 0.22416(8)
H29 H -0.2897(10) 0.460(3) 0.2344(9)
C20 C -0.28292(9) 0.2906(2) 0.17172(9)
H30 H -0.3312(11) 0.284(2) 0.1450(9)
C21 C -0.23577(10) 0.1988(2) 0.15724(9)
H31 H -0.2502(10) 0.134(3) 0.1216(10)
C22 C -0.16263(9) 0.2066(2) 0.19550(8)
H32 H -0.1322(9) 0.145(2) 0.1854(8)
N5 N -0.00106(7) 0.18750(16) 0.27175(6)
C23 C 0.00807(9) 0.0236(2) 0.29915(8)
H33 H 0.0592(9) 0.000(2) 0.3217(8)
H34 H -0.0135(10) -0.060(2) 0.2661(9)
C24 C -0.02715(9) 0.0238(2) 0.34611(9)
H35 H 0.0012(9) -0.039(2) 0.3823(8)
H36 H -0.0750(10) -0.019(2) 0.3265(8)
N6 N -0.02889(7) 0.19401(15) 0.36382(6)
C25 C -0.05525(9) 0.2348(2) 0.41240(9)
H37 H -0.0759(9) 0.349(2) 0.4034(8)
H38 H -0.0936(9) 0.166(2) 0.4088(8)
C26 C 0.00320(11) 0.2266(2) 0.48071(9)
H39 H 0.0193(10) 0.112(2) 0.4907(9)
H40 H -0.0159(10) 0.262(2) 0.5103(9)
C27 C 0.06862(10) 0.3293(2) 0.49135(8)
H41 H 0.0536(8) 0.432(2) 0.4671(8)
H42 H 0.0934(10) 0.359(2) 0.5357(10)
N7 N 0.11922(8) 0.23997(16) 0.47396(7)
H43 H 0.0958(9) 0.201(2) 0.4371(9)
C28 C 0.17179(9) 0.3466(2) 0.46632(8)
H44 H 0.1485(9) 0.439(2) 0.4390(8)
H45 H 0.2046(10) 0.388(2) 0.5089(9)
C29 C 0.21633(9) 0.2548(2) 0.43897(8)
H46 H 0.2410(10) 0.160(2) 0.4687(9)
H47 H 0.2531(9) 0.326(2) 0.4361(8)
N8 N 0.17260(7) 0.18314(17) 0.37647(6)
H48 H 0.1948(10) 0.101(2) 0.3722(9)
C30 C 0.15538(8) 0.2938(2) 0.32263(8)
H49 H 0.1263(8) 0.383(2) 0.3276(7)
H50 H 0.1991(10) 0.344(2) 0.3220(8)
C31 C 0.11416(9) 0.2075(2) 0.25870(8)
H51 H 0.1264(9) 0.092(2) 0.2632(8)
H52 H 0.1295(10) 0.245(2) 0.2276(9)
C32 C 0.03274(9) 0.2313(2) 0.22957(8)
H53 H 0.0101(9) 0.168(2) 0.1909(9)
H54 H 0.0228(9) 0.349(2) 0.2188(8)
P2 P 0.54146(2) 0.81324(5) 0.198462(19)
S2 S 0.50854(2) 1.03550(5) 0.17890(2)
C17 C 0.63645(8) 0.80896(18) 0.25134(7)
C18 C 0.68467(8) 0.9037(2) 0.23788(8)
H28 H 0.6677(9) 0.976(2) 0.2033(8)
C19 C 0.75768(9) 0.8934(2) 0.27584(8)
H29 H 0.7897(10) 0.960(3) 0.2656(9)
C20 C 0.78292(9) 0.7906(2) 0.32828(9)
H30 H 0.8312(11) 0.784(2) 0.3550(9)
C21 C 0.73577(10) 0.6988(2) 0.34276(9)
H31 H 0.7502(10) 0.634(3) 0.3784(10)
C22 C 0.66263(9) 0.7066(2) 0.30450(8)
H32 H 0.6322(9) 0.645(2) 0.3146(8)
N5 N 0.50106(7) 0.68750(16) 0.22825(6)
C23 C 0.49193(9) 0.5236(2) 0.20085(8)
H33 H 0.4408(9) 0.500(2) 0.1783(8)
H34 H 0.5135(10) 0.440(2) 0.2339(9)
C24 C 0.52715(9) 0.5238(2) 0.15389(9)
H35 H 0.4988(9) 0.461(2) 0.1177(8)
H36 H 0.5750(10) 0.481(2) 0.1735(8)
N6 N 0.52889(7) 0.69401(15) 0.13618(6)
C25 C 0.55525(9) 0.7348(2) 0.08760(9)
H37 H 0.5759(9) 0.849(2) 0.0966(8)
H38 H 0.5936(9) 0.666(2) 0.0912(8)
C26 C 0.49680(11) 0.7266(2) 0.01929(9)
H39 H 0.4807(10) 0.612(2) 0.0093(9)
H40 H 0.5159(10) 0.762(2) -0.0103(9)
C27 C 0.43138(10) 0.8293(2) 0.00865(8)
H41 H 0.4464(8) 0.932(2) 0.0329(8)
H42 H 0.4066(10) 0.859(2) -0.0357(10)
N7 N 0.38078(8) 0.73997(16) 0.02604(7)
H43 H 0.4042(9) 0.701(2) 0.0629(9)
C28 C 0.32821(9) 0.8466(2) 0.03368(8)
H44 H 0.3515(9) 0.939(2) 0.0610(8)
H45 H 0.2954(10) 0.888(2) -0.0089(9)
C29 C 0.28367(9) 0.7548(2) 0.06103(8)
H46 H 0.2590(10) 0.660(2) 0.0313(9)
H47 H 0.2469(9) 0.826(2) 0.0639(8)
N8 N 0.32740(7) 0.68314(17) 0.12353(6)
H48 H 0.3052(10) 0.601(2) 0.1278(9)
C30 C 0.34462(8) 0.7938(2) 0.17737(8)
H49 H 0.3737(8) 0.883(2) 0.1724(7)
H50 H 0.3009(10) 0.844(2) 0.1780(8)
C31 C 0.38584(9) 0.7075(2) 0.24130(8)
H51 H 0.3736(9) 0.592(2) 0.2368(8)
H52 H 0.3705(10) 0.745(2) 0.2724(9)
C32 C 0.46726(9) 0.7313(2) 0.27043(8)
H53 H 0.4899(9) 0.668(2) 0.3091(9)
H54 H 0.4772(9) 0.849(2) 0.2812(8)
P2 P 1.04146(2) 0.68676(5) 0.698462(19)
S2 S 1.00854(2) 0.46450(5) 0.67890(2)
C17 C 1.13645(8) 0.69104(18) 0.75134(7)
C18 C 1.18467(8) 0.5963(2) 0.73788(8)
H28 H 1.1677(9) 0.524(2) 0.7033(8)
C19 C 1.25768(9) 0.6066(2) 0.77584(8)
H29 H 1.2897(10) 0.540(3) 0.7656(9)
C20 C 1.28292(9) 0.7094(2) 0.82828(9)
H30 H 1.3312(11) 0.716(2) 0.8550(9)
C21 C 1.23577(10) 0.8012(2) 0.84276(9)
H31 H 1.2502(10) 0.866(3) 0.8784(10)
C22 C 1.16263(9) 0.7934(2) 0.80450(8)
H32 H 1.1322(9) 0.855(2) 0.8146(8)
N5 N 1.00106(7) 0.81250(16) 0.72825(6)
C23 C 0.99193(9) 0.9764(2) 0.70085(8)
H33 H 0.9408(9) 1.000(2) 0.6783(8)
H34 H 1.0135(10) 1.060(2) 0.7339(9)
C24 C 1.02715(9) 0.9762(2) 0.65389(9)
H35 H 0.9988(9) 1.039(2) 0.6177(8)
H36 H 1.0750(10) 1.019(2) 0.6735(8)
N6 N 1.02889(7) 0.80599(15) 0.63618(6)
C25 C 1.05525(9) 0.7652(2) 0.58760(9)
H37 H 1.0759(9) 0.651(2) 0.5966(8)
H38 H 1.0936(9) 0.834(2) 0.5912(8)
C26 C 0.99680(11) 0.7734(2) 0.51929(9)
H39 H 0.9807(10) 0.888(2) 0.5093(9)
H40 H 1.0159(10) 0.738(2) 0.4897(9)
C27 C 0.93138(10) 0.6707(2) 0.50865(8)
H41 H 0.9464(8) 0.568(2) 0.5329(8)
H42 H 0.9066(10) 0.641(2) 0.4643(10)
N7 N 0.88078(8) 0.76003(16) 0.52604(7)
H43 H 0.9042(9) 0.799(2) 0.5629(9)
C28 C 0.82821(9) 0.6534(2) 0.53368(8)
H44 H 0.8515(9) 0.561(2) 0.5610(8)
H45 H 0.7954(10) 0.612(2) 0.4911(9)
C29 C 0.78367(9) 0.7452(2) 0.56103(8)
H46 H 0.7590(10) 0.840(2) 0.5313(9)
H47 H 0.7469(9) 0.674(2) 0.5639(8)
N8 N 0.82740(7) 0.81686(17) 0.62353(6)
H48 H 0.8052(10) 0.899(2) 0.6278(9)
C30 C 0.84462(8) 0.7062(2) 0.67737(8)
H49 H 0.8737(8) 0.617(2) 0.6724(7)
H50 H 0.8009(10) 0.656(2) 0.6780(8)
C31 C 0.88584(9) 0.7925(2) 0.74130(8)
H51 H 0.8736(9) 0.908(2) 0.7368(8)
H52 H 0.8705(10) 0.755(2) 0.7724(9)
C32 C 0.96726(9) 0.7687(2) 0.77043(8)
H53 H 0.9899(9) 0.832(2) 0.8091(9)
H54 H 0.9772(9) 0.651(2) 0.7812(8)
P2 P 0.45854(2) 0.18676(5) 0.801538(19)
S2 S 0.49146(2) -0.03550(5) 0.82110(2)
C17 C 0.36355(8) 0.19104(18) 0.74866(7)
C18 C 0.31533(8) 0.0963(2) 0.76212(8)
H28 H 0.3323(9) 0.024(2) 0.7967(8)
C19 C 0.24232(9) 0.1066(2) 0.72416(8)
H29 H 0.2103(10) 0.040(3) 0.7344(9)
C20 C 0.21708(9) 0.2094(2) 0.67172(9)
H30 H 0.1688(11) 0.216(2) 0.6450(9)
C21 C 0.26423(10) 0.3012(2) 0.65724(9)
H31 H 0.2498(10) 0.366(3) 0.6216(10)
C22 C 0.33737(9) 0.2934(2) 0.69550(8)
H32 H 0.3678(9) 0.355(2) 0.6854(8)
N5 N 0.49894(7) 0.31250(16) 0.77175(6)
C23 C 0.50807(9) 0.4764(2) 0.79915(8)
H33 H 0.5592(9) 0.500(2) 0.8217(8)
H34 H 0.4865(10) 0.560(2) 0.7661(9)
C24 C 0.47285(9) 0.4762(2) 0.84611(9)
H35 H 0.5012(9) 0.539(2) 0.8823(8)
H36 H 0.4250(10) 0.519(2) 0.8265(8)
N6 N 0.47111(7) 0.30599(15) 0.86382(6)
C25 C 0.44475(9) 0.2652(2) 0.91240(9)
H37 H 0.4241(9) 0.151(2) 0.9034(8)
H38 H 0.4064(9) 0.334(2) 0.9088(8)
C26 C 0.50320(11) 0.2734(2) 0.98071(9)
H39 H 0.5193(10) 0.388(2) 0.9907(9)
H40 H 0.4841(10) 0.238(2) 1.0103(9)
C27 C 0.56862(10) 0.1707(2) 0.99135(8)
H41 H 0.5536(8) 0.068(2) 0.9671(8)
H42 H 0.5934(10) 0.141(2) 1.0357(10)
N7 N 0.61922(8) 0.26003(16) 0.97396(7)
H43 H 0.5958(9) 0.299(2) 0.9371(9)
C28 C 0.67179(9) 0.1534(2) 0.96632(8)
H44 H 0.6485(9) 0.061(2) 0.9390(8)
H45 H 0.7046(10) 0.112(2) 1.0089(9)
C29 C 0.71633(9) 0.2452(2) 0.93897(8)
H46 H 0.7410(10) 0.340(2) 0.9687(9)
H47 H 0.7531(9) 0.174(2) 0.9361(8)
N8 N 0.67260(7) 0.31686(17) 0.87647(6)
H48 H 0.6948(10) 0.399(2) 0.8722(9)
C30 C 0.65538(8) 0.2062(2) 0.82263(8)
H49 H 0.6263(8) 0.117(2) 0.8276(7)
H50 H 0.6991(10) 0.156(2) 0.8220(8)
C31 C 0.61416(9) 0.2925(2) 0.75870(8)
H51 H 0.6264(9) 0.408(2) 0.7632(8)
H52 H 0.6295(10) 0.255(2) 0.7276(9)
C32 C 0.53274(9) 0.2687(2) 0.72957(8)
H53 H 0.5101(9) 0.332(2) 0.6909(9)
H54 H 0.5228(9) 0.151(2) 0.7188(8)

#END
