./ACPENC10_from_xyz.cif_generated_by_CrystalShift
_symmetry_cell_setting triclinic
_symmetry_space_group_name_H-M 'P 1'
loop_
_symmetry_equiv_pos_site_id
_symmetry_equiv_pos_as_xyz
1 x,y,z
_cell_length_a 5.210000
_cell_length_b 9.971000
_cell_length_c 19.099000
_cell_angle_alpha 90.000000
_cell_angle_beta 90.000000
_cell_angle_gamma 90.000000
_cell_volume 992.172232
loop_
_atom_site_label
_atom_site_type_symbol
_atom_site_fract_x
_atom_site_fract_y
_atom_site_fract_z
S1 S 0.086800 0.195100 0.136300
C2 C 0.314000 0.287500 0.089200
C3 C 0.457000 0.370400 0.127300
N4 N 0.396500 0.367800 0.200100
C5 C 0.222600 0.256600 0.219700
C6 C 0.068600 0.353200 0.264600
C7 C 0.243800 0.462100 0.237000
O8 O 0.260700 0.582200 0.241600
C9 C 0.663100 0.458400 0.102200
O10 O 0.775500 0.539300 0.137400
O11 O 0.711300 0.435900 0.033900
C12 C 0.890600 0.524100 0.000100
C13 C 0.750900 0.620400 -0.047800
O14 O 0.526100 0.642200 -0.041000
C15 C 0.914300 0.684000 -0.101700
H16 H 0.372000 0.293000 0.033000
H17 H 0.317000 0.193000 0.237000
H18 H 0.069000 0.338000 0.315000
H19 H -0.083000 0.358000 0.247000
H20 H 1.000000 0.595000 0.027000
H21 H 0.994000 0.454000 -0.031000
H22 H 0.813000 0.706000 -0.147000
H23 H 0.990000 0.774000 -0.081000
H24 H 1.064000 0.618000 -0.115000
S25 S -0.413200 0.304900 0.863700
C26 C -0.186000 0.212500 0.910800
C27 C -0.043000 0.129600 0.872700
N28 N -0.103500 0.132200 0.799900
C29 C -0.277400 0.243400 0.780300
C30 C -0.431400 0.146800 0.735400
C31 C -0.256200 0.037900 0.763000
O32 O -0.239300 -0.082200 0.758400
C33 C 0.163100 0.041600 0.897800
O34 O 0.275500 -0.039300 0.862600
O35 O 0.211300 0.064100 0.966100
C36 C 0.390600 -0.024100 0.999900
C37 C 0.250900 -0.120400 1.047800
O38 O 0.026100 -0.142200 1.041000
C39 C 0.414300 -0.184000 1.101700
H40 H -0.128000 0.207000 0.967000
H41 H -0.183000 0.307000 0.763000
H42 H -0.431000 0.162000 0.685000
H43 H -0.583000 0.142000 0.753000
H44 H 0.500000 -0.095000 0.973000
H45 H 0.494000 0.046000 1.031000
H46 H 0.313000 -0.206000 1.147000
H47 H 0.490000 -0.274000 1.081000
H48 H 0.564000 -0.118000 1.115000
S49 S 0.913200 0.695100 0.363700
C50 C 0.686000 0.787500 0.410800
C51 C 0.543000 0.870400 0.372700
N52 N 0.603500 0.867800 0.299900
C53 C 0.777400 0.756600 0.280300
C54 C 0.931400 0.853200 0.235400
C55 C 0.756200 0.962100 0.263000
O56 O 0.739300 1.082200 0.258400
C57 C 0.336900 0.958400 0.397800
O58 O 0.224500 1.039300 0.362600
O59 O 0.288700 0.935900 0.466100
C60 C 0.109400 1.024100 0.499900
C61 C 0.249100 1.120400 0.547800
O62 O 0.473900 1.142200 0.541000
C63 C 0.085700 1.184000 0.601700
H64 H 0.628000 0.793000 0.467000
H65 H 0.683000 0.693000 0.263000
H66 H 0.931000 0.838000 0.185000
H67 H 1.083000 0.858000 0.253000
H68 H 0.000000 1.095000 0.473000
H69 H 0.006000 0.954000 0.531000
H70 H 0.187000 1.206000 0.647000
H71 H 0.010000 1.274000 0.581000
H72 H -0.064000 1.118000 0.615000
S73 S 1.413200 0.804900 0.636300
C74 C 1.186000 0.712500 0.589200
C75 C 1.043000 0.629600 0.627300
N76 N 1.103500 0.632200 0.700100
C77 C 1.277400 0.743400 0.719700
C78 C 1.431400 0.646800 0.764600
C79 C 1.256200 0.537900 0.737000
O80 O 1.239300 0.417800 0.741600
C81 C 0.836900 0.541600 0.602200
O82 O 0.724500 0.460700 0.637400
O83 O 0.788700 0.564100 0.533900
C84 C 0.609400 0.475900 0.500100
C85 C 0.749100 0.379600 0.452200
O86 O 0.973900 0.357800 0.459000
C87 C 0.585700 0.316000 0.398300
H88 H 1.128000 0.707000 0.533000
H89 H 1.183000 0.807000 0.737000
H90 H 1.431000 0.662000 0.815000
H91 H 1.583000 0.642000 0.747000
H92 H 0.500000 0.405000 0.527000
H93 H 0.506000 0.546000 0.469000
H94 H 0.687000 0.294000 0.353000
H95 H 0.510000 0.226000 0.419000
H96 H 0.436000 0.382000 0.385000

#END
