
#######################################################################
#
#                 Cambridge Crystallographic Data Centre
#                                CCDC 
#
#######################################################################
#
# If this CIF has been generated from an entry in the Cambridge 
# Structural Database, then it will include bibliographic, chemical, 
# crystal, experimental, refinement or atomic coordinate data resulting 
# from the CCDC's data processing and validation procedures.
#
#######################################################################

data_ACPENC10
_symmetry_cell_setting           orthorhombic
_symmetry_space_group_name_H-M   'P 21 21 21'
_symmetry_Int_Tables_number      19
_space_group_name_Hall           'P 2ac 2ab'
loop_
_symmetry_equiv_pos_site_id
_symmetry_equiv_pos_as_xyz
1 x,y,z
2 1/2+x,1/2-y,-z
3 -x,1/2+y,1/2-z
4 1/2-x,-y,1/2+z
_cell_length_a                   5.210(1)
_cell_length_b                   9.971(2)
_cell_length_c                   19.099(3)
_cell_angle_alpha                90
_cell_angle_beta                 90
_cell_angle_gamma                90
_cell_volume                     992.172
loop_
_atom_site_label
_atom_site_type_symbol
_atom_site_fract_x
_atom_site_fract_y
_atom_site_fract_z
S1 S 0.08680 0.19510 0.13630
C1 C 0.31400 0.28750 0.08920
C2 C 0.45700 0.37040 0.12730
N1 N 0.39650 0.36780 0.20010
C3 C 0.22260 0.25660 0.21970
C4 C 0.06860 0.35320 0.26460
C5 C 0.24380 0.46210 0.23700
O1 O 0.26070 0.58220 0.24160
C6 C 0.66310 0.45840 0.10220
O2 O 0.77550 0.53930 0.13740
O3 O 0.71130 0.43590 0.03390
C7 C 0.89060 0.52410 0.00010
C8 C 0.75090 0.62040 -0.04780
O4 O 0.52610 0.64220 -0.04100
C9 C 0.91430 0.68400 -0.10170
H1 H 0.37200 0.29300 0.03300
H2 H 0.31700 0.19300 0.23700
H3 H 0.06900 0.33800 0.31500
H4 H -0.08300 0.35800 0.24700
H5 H 1.00000 0.59500 0.02700
H6 H 0.99400 0.45400 -0.03100
H7 H 0.81300 0.70600 -0.14700
H8 H 0.99000 0.77400 -0.08100
H9 H 1.06400 0.61800 -0.11500
S1 S -0.41320 0.30490 0.86370
C1 C -0.18600 0.21250 0.91080
C2 C -0.04300 0.12960 0.87270
N1 N -0.10350 0.13220 0.79990
C3 C -0.27740 0.24340 0.78030
C4 C -0.43140 0.14680 0.73540
C5 C -0.25620 0.03790 0.76300
O1 O -0.23930 -0.08220 0.75840
C6 C 0.16310 0.04160 0.89780
O2 O 0.27550 -0.03930 0.86260
O3 O 0.21130 0.06410 0.96610
C7 C 0.39060 -0.02410 0.99990
C8 C 0.25090 -0.12040 1.04780
O4 O 0.02610 -0.14220 1.04100
C9 C 0.41430 -0.18400 1.10170
H1 H -0.12800 0.20700 0.96700
H2 H -0.18300 0.30700 0.76300
H3 H -0.43100 0.16200 0.68500
H4 H -0.58300 0.14200 0.75300
H5 H 0.50000 -0.09500 0.97300
H6 H 0.49400 0.04600 1.03100
H7 H 0.31300 -0.20600 1.14700
H8 H 0.49000 -0.27400 1.08100
H9 H 0.56400 -0.11800 1.11500
S1 S 0.91320 0.69510 0.36370
C1 C 0.68600 0.78750 0.41080
C2 C 0.54300 0.87040 0.37270
N1 N 0.60350 0.86780 0.29990
C3 C 0.77740 0.75660 0.28030
C4 C 0.93140 0.85320 0.23540
C5 C 0.75620 0.96210 0.26300
O1 O 0.73930 1.08220 0.25840
C6 C 0.33690 0.95840 0.39780
O2 O 0.22450 1.03930 0.36260
O3 O 0.28870 0.93590 0.46610
C7 C 0.10940 1.02410 0.49990
C8 C 0.24910 1.12040 0.54780
O4 O 0.47390 1.14220 0.54100
C9 C 0.08570 1.18400 0.60170
H1 H 0.62800 0.79300 0.46700
H2 H 0.68300 0.69300 0.26300
H3 H 0.93100 0.83800 0.18500
H4 H 1.08300 0.85800 0.25300
H5 H 0.00000 1.09500 0.47300
H6 H 0.00600 0.95400 0.53100
H7 H 0.18700 1.20600 0.64700
H8 H 0.01000 1.27400 0.58100
H9 H -0.06400 1.11800 0.61500
S1 S 1.41320 0.80490 0.63630
C1 C 1.18600 0.71250 0.58920
C2 C 1.04300 0.62960 0.62730
N1 N 1.10350 0.63220 0.70010
C3 C 1.27740 0.74340 0.71970
C4 C 1.43140 0.64680 0.76460
C5 C 1.25620 0.53790 0.73700
O1 O 1.23930 0.41780 0.74160
C6 C 0.83690 0.54160 0.60220
O2 O 0.72450 0.46070 0.63740
O3 O 0.78870 0.56410 0.53390
C7 C 0.60940 0.47590 0.50010
C8 C 0.74910 0.37960 0.45220
O4 O 0.97390 0.35780 0.45900
C9 C 0.58570 0.31600 0.39830
H1 H 1.12800 0.70700 0.53300
H2 H 1.18300 0.80700 0.73700
H3 H 1.43100 0.66200 0.81500
H4 H 1.58300 0.64200 0.74700
H5 H 0.50000 0.40500 0.52700
H6 H 0.50600 0.54600 0.46900
H7 H 0.68700 0.29400 0.35300
H8 H 0.51000 0.22600 0.41900
H9 H 0.43600 0.38200 0.38500

#END
