
#######################################################################
#
#                 Cambridge Crystallographic Data Centre
#                                CCDC 
#
#######################################################################
#
# If this CIF has been generated from an entry in the Cambridge 
# Structural Database, then it will include bibliographic, chemical, 
# crystal, experimental, refinement or atomic coordinate data resulting 
# from the CCDC's data processing and validation procedures.
#
#######################################################################

data_ACPHCU02
_symmetry_cell_setting           monoclinic
_symmetry_space_group_name_H-M   'P 21/c'
_symmetry_Int_Tables_number      14
_space_group_name_Hall           '-P 2ybc'
loop_
_symmetry_equiv_pos_site_id
_symmetry_equiv_pos_as_xyz
1 x,y,z
2 -x,1/2+y,1/2-z
3 -x,-y,-z
4 x,1/2-y,1/2+z
_cell_length_a                   18.085(5)
_cell_length_b                   10.977(2)
_cell_length_c                   17.979(5)
_cell_angle_alpha                90
_cell_angle_beta                 115.62(2)
_cell_angle_gamma                90
_cell_volume                     3218.26
loop_
_atom_site_label
_atom_site_type_symbol
_atom_site_fract_x
_atom_site_fract_y
_atom_site_fract_z
Cu1 Cu 0.7351(1) 0.0562(1) 0.9007(1)
P1 P 0.8144(1) 0.2122(1) 0.9676(1)
P2 P 0.6875(1) -0.0107(1) 0.7710(1)
O1 O 0.7437(2) -0.1101(2) 0.9750(2)
O2 O 0.6481(2) 0.0289(2) 0.9524(1)
C1 C 0.6823(2) -0.0708(3) 0.9831(2)
C2 C 0.6477(3) -0.1448(4) 1.0313(3)
C3 C 0.7069(2) 0.3968(4) 0.9616(2)
C4 C 0.6644(3) 0.5052(4) 0.9344(2)
C5 C 0.6786(3) 0.5784(4) 0.8798(3)
C6 C 0.7355(3) 0.5440(4) 0.8520(3)
C7 C 0.7794(2) 0.4355(3) 0.8797(2)
C8 C 0.7660(2) 0.3615(3) 0.9358(2)
C9 C 0.9674(2) 0.3196(3) 0.9946(2)
C10 C 1.0451(2) 0.3147(4) 0.9958(2)
C11 C 1.0685(2) 0.2137(4) 0.9655(2)
C12 C 1.0148(2) 0.1187(4) 0.9317(2)
C13 C 0.9364(2) 0.1234(3) 0.9293(2)
C14 C 0.9129(2) 0.2229(3) 0.9618(2)
C15 C 0.8709(2) 0.3159(3) 1.1279(2)
C16 C 0.8996(2) 0.3073(4) 1.2132(2)
C17 C 0.9063(2) 0.1949(4) 1.2502(2)
C18 C 0.8835(2) 0.0901(4) 1.2029(2)
C19 C 0.8535(2) 0.0977(3) 1.1171(2)
C20 C 0.8482(2) 0.2109(3) 1.0798(2)
C21 C 0.6919(2) 0.2127(3) 0.7020(2)
C22 C 0.6673(2) 0.3013(3) 0.6405(2)
C23 C 0.5970(2) 0.2843(4) 0.5680(2)
C24 C 0.5514(2) 0.1790(4) 0.5572(2)
C25 C 0.5760(2) 0.0902(3) 0.6176(2)
C26 C 0.6465(2) 0.1054(3) 0.6903(2)
C27 C 0.7620(2) -0.0805(3) 0.6676(2)
C28 C 0.8198(2) -0.1416(4) 0.6502(3)
C29 C 0.8793(2) -0.2105(4) 0.7107(3)
C30 C 0.8815(3) -0.2177(4) 0.7884(3)
C31 C 0.8239(2) -0.1567(4) 0.8054(2)
C32 C 0.7629(2) -0.0877(3) 0.7451(2)
C33 C 0.5940(2) -0.2180(3) 0.6889(2)
C34 C 0.5252(2) -0.2926(3) 0.6645(2)
C35 C 0.4661(2) -0.2696(3) 0.6919(2)
C36 C 0.4765(2) -0.1744(3) 0.7458(2)
C37 C 0.5450(2) -0.1006(3) 0.7709(2)
C38 C 0.6037(2) -0.1203(3) 0.7415(2)
H1 H 0.6840 -0.2113 1.0583
H2 H 0.6423 -0.0935 1.0718
H3 H 0.5949 -0.1762 0.9947
H4 H 0.6957 0.3449 0.9985
H5 H 0.6246 0.5290 0.9537
H6 H 0.6493 0.6539 0.8621
H7 H 0.7441 0.5943 0.8128
H8 H 0.8194 0.4113 0.8608
H9 H 0.9512 0.3894 1.0161
H10 H 1.0826 0.3815 1.0176
H11 H 1.1227 0.2094 0.9683
H12 H 1.0311 0.0495 0.9098
H13 H 0.8983 0.0579 0.9051
H14 H 0.8661 0.3938 1.1020
H15 H 0.9156 0.3794 1.2467
H16 H 0.9266 0.1896 1.3090
H17 H 0.8885 0.0123 1.2290
H18 H 0.8363 0.0259 1.0835
H19 H 0.7397 0.2251 0.7529
H20 H 0.6991 0.3744 0.6489
H21 H 0.5808 0.3452 0.5255
H22 H 0.5024 0.1679 0.5071
H23 H 0.5440 0.0175 0.6100
H24 H 0.7206 -0.0322 0.6257
H25 H 0.8186 -0.1363 0.5964
H26 H 0.9194 -0.2531 0.6991
H27 H 0.9233 -0.2657 0.8302
H28 H 0.8254 -0.1620 0.8594
H29 H 0.6354 -0.2345 0.6704
H30 H 0.5187 -0.3605 0.6286
H31 H 0.4175 -0.3187 0.6726
H32 H 0.4360 -0.1601 0.7659
H33 H 0.5529 -0.0356 0.8094
Cu1 Cu 0.2649(1) 0.5562(1) 0.5993(1)
P1 P 0.1856(1) 0.7122(1) 0.5324(1)
P2 P 0.3125(1) 0.4893(1) 0.7290(1)
O1 O 0.2563(2) 0.3899(2) 0.5250(2)
O2 O 0.3519(2) 0.5289(2) 0.5476(1)
C1 C 0.3177(2) 0.4292(3) 0.5169(2)
C2 C 0.3523(3) 0.3552(4) 0.4687(3)
C3 C 0.2931(2) 0.8968(4) 0.5384(2)
C4 C 0.3356(3) 1.0052(4) 0.5656(2)
C5 C 0.3214(3) 1.0784(4) 0.6202(3)
C6 C 0.2645(3) 1.0440(4) 0.6480(3)
C7 C 0.2206(2) 0.9355(3) 0.6203(2)
C8 C 0.2340(2) 0.8615(3) 0.5642(2)
C9 C 0.0326(2) 0.8196(3) 0.5054(2)
C10 C -0.0451(2) 0.8147(4) 0.5042(2)
C11 C -0.0685(2) 0.7137(4) 0.5345(2)
C12 C -0.0148(2) 0.6187(4) 0.5683(2)
C13 C 0.0636(2) 0.6234(3) 0.5707(2)
C14 C 0.0871(2) 0.7229(3) 0.5382(2)
C15 C 0.1291(2) 0.8159(3) 0.3721(2)
C16 C 0.1004(2) 0.8073(4) 0.2868(2)
C17 C 0.0937(2) 0.6949(4) 0.2498(2)
C18 C 0.1165(2) 0.5901(4) 0.2971(2)
C19 C 0.1465(2) 0.5977(3) 0.3829(2)
C20 C 0.1518(2) 0.7109(3) 0.4202(2)
C21 C 0.3081(2) 0.7127(3) 0.7980(2)
C22 C 0.3327(2) 0.8013(3) 0.8595(2)
C23 C 0.4030(2) 0.7843(4) 0.9320(2)
C24 C 0.4486(2) 0.6790(4) 0.9428(2)
C25 C 0.4240(2) 0.5902(3) 0.8824(2)
C26 C 0.3535(2) 0.6054(3) 0.8097(2)
C27 C 0.2380(2) 0.4195(3) 0.8324(2)
C28 C 0.1802(2) 0.3584(4) 0.8498(3)
C29 C 0.1207(2) 0.2895(4) 0.7893(3)
C30 C 0.1185(3) 0.2823(4) 0.7116(3)
C31 C 0.1761(2) 0.3433(4) 0.6946(2)
C32 C 0.2371(2) 0.4123(3) 0.7549(2)
C33 C 0.4060(2) 0.2820(3) 0.8111(2)
C34 C 0.4748(2) 0.2074(3) 0.8355(2)
C35 C 0.5339(2) 0.2304(3) 0.8081(2)
C36 C 0.5235(2) 0.3256(3) 0.7542(2)
C37 C 0.4550(2) 0.3994(3) 0.7291(2)
C38 C 0.3963(2) 0.3797(3) 0.7585(2)
H1 H 0.3160 0.2887 0.4417
H2 H 0.3577 0.4065 0.4282
H3 H 0.4051 0.3238 0.5053
H4 H 0.3043 0.8449 0.5015
H5 H 0.3754 1.0290 0.5463
H6 H 0.3507 1.1539 0.6379
H7 H 0.2559 1.0943 0.6872
H8 H 0.1806 0.9113 0.6392
H9 H 0.0488 0.8894 0.4839
H10 H -0.0826 0.8815 0.4824
H11 H -0.1227 0.7094 0.5317
H12 H -0.0311 0.5495 0.5902
H13 H 0.1017 0.5579 0.5949
H14 H 0.1339 0.8938 0.3980
H15 H 0.0844 0.8794 0.2533
H16 H 0.0734 0.6896 0.1910
H17 H 0.1115 0.5123 0.2710
H18 H 0.1637 0.5259 0.4165
H19 H 0.2603 0.7251 0.7471
H20 H 0.3009 0.8744 0.8511
H21 H 0.4192 0.8452 0.9745
H22 H 0.4976 0.6679 0.9929
H23 H 0.4560 0.5175 0.8900
H24 H 0.2794 0.4678 0.8743
H25 H 0.1814 0.3637 0.9036
H26 H 0.0806 0.2469 0.8009
H27 H 0.0767 0.2343 0.6698
H28 H 0.1746 0.3380 0.6406
H29 H 0.3646 0.2655 0.8296
H30 H 0.4813 0.1395 0.8714
H31 H 0.5825 0.1813 0.8274
H32 H 0.5640 0.3399 0.7341
H33 H 0.4471 0.4644 0.6906
Cu1 Cu 0.2649(1) 0.9438(1) 0.0993(1)
P1 P 0.1856(1) 0.7878(1) 0.0324(1)
P2 P 0.3125(1) 1.0107(1) 0.2290(1)
O1 O 0.2563(2) 1.1101(2) 0.0250(2)
O2 O 0.3519(2) 0.9711(2) 0.0476(1)
C1 C 0.3177(2) 1.0708(3) 0.0169(2)
C2 C 0.3523(3) 1.1448(4) -0.0313(3)
C3 C 0.2931(2) 0.6032(4) 0.0384(2)
C4 C 0.3356(3) 0.4948(4) 0.0656(2)
C5 C 0.3214(3) 0.4216(4) 0.1202(3)
C6 C 0.2645(3) 0.4560(4) 0.1480(3)
C7 C 0.2206(2) 0.5645(3) 0.1203(2)
C8 C 0.2340(2) 0.6385(3) 0.0642(2)
C9 C 0.0326(2) 0.6804(3) 0.0054(2)
C10 C -0.0451(2) 0.6853(4) 0.0042(2)
C11 C -0.0685(2) 0.7863(4) 0.0345(2)
C12 C -0.0148(2) 0.8813(4) 0.0683(2)
C13 C 0.0636(2) 0.8766(3) 0.0707(2)
C14 C 0.0871(2) 0.7771(3) 0.0382(2)
C15 C 0.1291(2) 0.6841(3) -0.1279(2)
C16 C 0.1004(2) 0.6927(4) -0.2132(2)
C17 C 0.0937(2) 0.8051(4) -0.2502(2)
C18 C 0.1165(2) 0.9099(4) -0.2029(2)
C19 C 0.1465(2) 0.9023(3) -0.1171(2)
C20 C 0.1518(2) 0.7891(3) -0.0798(2)
C21 C 0.3081(2) 0.7873(3) 0.2980(2)
C22 C 0.3327(2) 0.6987(3) 0.3595(2)
C23 C 0.4030(2) 0.7157(4) 0.4320(2)
C24 C 0.4486(2) 0.8210(4) 0.4428(2)
C25 C 0.4240(2) 0.9098(3) 0.3824(2)
C26 C 0.3535(2) 0.8946(3) 0.3097(2)
C27 C 0.2380(2) 1.0805(3) 0.3324(2)
C28 C 0.1802(2) 1.1416(4) 0.3498(3)
C29 C 0.1207(2) 1.2105(4) 0.2893(3)
C30 C 0.1185(3) 1.2177(4) 0.2116(3)
C31 C 0.1761(2) 1.1567(4) 0.1946(2)
C32 C 0.2371(2) 1.0877(3) 0.2549(2)
C33 C 0.4060(2) 1.2180(3) 0.3111(2)
C34 C 0.4748(2) 1.2926(3) 0.3355(2)
C35 C 0.5339(2) 1.2696(3) 0.3081(2)
C36 C 0.5235(2) 1.1744(3) 0.2542(2)
C37 C 0.4550(2) 1.1006(3) 0.2291(2)
C38 C 0.3963(2) 1.1203(3) 0.2585(2)
H1 H 0.3160 1.2113 -0.0583
H2 H 0.3577 1.0935 -0.0718
H3 H 0.4051 1.1762 0.0053
H4 H 0.3043 0.6551 0.0015
H5 H 0.3754 0.4710 0.0463
H6 H 0.3507 0.3461 0.1379
H7 H 0.2559 0.4057 0.1872
H8 H 0.1806 0.5887 0.1392
H9 H 0.0488 0.6106 -0.0161
H10 H -0.0826 0.6185 -0.0176
H11 H -0.1227 0.7906 0.0317
H12 H -0.0311 0.9505 0.0902
H13 H 0.1017 0.9421 0.0949
H14 H 0.1339 0.6062 -0.1020
H15 H 0.0844 0.6206 -0.2467
H16 H 0.0734 0.8104 -0.3090
H17 H 0.1115 0.9877 -0.2290
H18 H 0.1637 0.9741 -0.0835
H19 H 0.2603 0.7749 0.2471
H20 H 0.3009 0.6256 0.3511
H21 H 0.4192 0.6548 0.4745
H22 H 0.4976 0.8321 0.4929
H23 H 0.4560 0.9825 0.3900
H24 H 0.2794 1.0322 0.3743
H25 H 0.1814 1.1363 0.4036
H26 H 0.0806 1.2531 0.3009
H27 H 0.0767 1.2657 0.1698
H28 H 0.1746 1.1620 0.1406
H29 H 0.3646 1.2345 0.3296
H30 H 0.4813 1.3605 0.3714
H31 H 0.5825 1.3187 0.3274
H32 H 0.5640 1.1601 0.2341
H33 H 0.4471 1.0356 0.1906
Cu1 Cu 0.7351(1) 0.4438(1) 0.4007(1)
P1 P 0.8144(1) 0.2878(1) 0.4676(1)
P2 P 0.6875(1) 0.5107(1) 0.2710(1)
O1 O 0.7437(2) 0.6101(2) 0.4750(2)
O2 O 0.6481(2) 0.4711(2) 0.4524(1)
C1 C 0.6823(2) 0.5708(3) 0.4831(2)
C2 C 0.6477(3) 0.6448(4) 0.5313(3)
C3 C 0.7069(2) 0.1032(4) 0.4616(2)
C4 C 0.6644(3) -0.0052(4) 0.4344(2)
C5 C 0.6786(3) -0.0784(4) 0.3798(3)
C6 C 0.7355(3) -0.0440(4) 0.3520(3)
C7 C 0.7794(2) 0.0645(3) 0.3797(2)
C8 C 0.7660(2) 0.1385(3) 0.4358(2)
C9 C 0.9674(2) 0.1804(3) 0.4946(2)
C10 C 1.0451(2) 0.1853(4) 0.4958(2)
C11 C 1.0685(2) 0.2863(4) 0.4655(2)
C12 C 1.0148(2) 0.3813(4) 0.4317(2)
C13 C 0.9364(2) 0.3766(3) 0.4293(2)
C14 C 0.9129(2) 0.2771(3) 0.4618(2)
C15 C 0.8709(2) 0.1841(3) 0.6279(2)
C16 C 0.8996(2) 0.1927(4) 0.7132(2)
C17 C 0.9063(2) 0.3051(4) 0.7502(2)
C18 C 0.8835(2) 0.4099(4) 0.7029(2)
C19 C 0.8535(2) 0.4023(3) 0.6171(2)
C20 C 0.8482(2) 0.2891(3) 0.5798(2)
C21 C 0.6919(2) 0.2873(3) 0.2020(2)
C22 C 0.6673(2) 0.1987(3) 0.1405(2)
C23 C 0.5970(2) 0.2157(4) 0.0680(2)
C24 C 0.5514(2) 0.3210(4) 0.0572(2)
C25 C 0.5760(2) 0.4098(3) 0.1176(2)
C26 C 0.6465(2) 0.3946(3) 0.1903(2)
C27 C 0.7620(2) 0.5805(3) 0.1676(2)
C28 C 0.8198(2) 0.6416(4) 0.1502(3)
C29 C 0.8793(2) 0.7105(4) 0.2107(3)
C30 C 0.8815(3) 0.7177(4) 0.2884(3)
C31 C 0.8239(2) 0.6567(4) 0.3054(2)
C32 C 0.7629(2) 0.5877(3) 0.2451(2)
C33 C 0.5940(2) 0.7180(3) 0.1889(2)
C34 C 0.5252(2) 0.7926(3) 0.1645(2)
C35 C 0.4661(2) 0.7696(3) 0.1919(2)
C36 C 0.4765(2) 0.6744(3) 0.2458(2)
C37 C 0.5450(2) 0.6006(3) 0.2709(2)
C38 C 0.6037(2) 0.6203(3) 0.2415(2)
H1 H 0.6840 0.7113 0.5583
H2 H 0.6423 0.5935 0.5718
H3 H 0.5949 0.6762 0.4947
H4 H 0.6957 0.1551 0.4985
H5 H 0.6246 -0.0290 0.4537
H6 H 0.6493 -0.1539 0.3621
H7 H 0.7441 -0.0943 0.3128
H8 H 0.8194 0.0887 0.3608
H9 H 0.9512 0.1106 0.5161
H10 H 1.0826 0.1185 0.5176
H11 H 1.1227 0.2906 0.4683
H12 H 1.0311 0.4505 0.4098
H13 H 0.8983 0.4421 0.4051
H14 H 0.8661 0.1062 0.6020
H15 H 0.9156 0.1206 0.7467
H16 H 0.9266 0.3104 0.8090
H17 H 0.8885 0.4877 0.7290
H18 H 0.8363 0.4741 0.5835
H19 H 0.7397 0.2749 0.2529
H20 H 0.6991 0.1256 0.1489
H21 H 0.5808 0.1548 0.0255
H22 H 0.5024 0.3321 0.0071
H23 H 0.5440 0.4825 0.1100
H24 H 0.7206 0.5322 0.1257
H25 H 0.8186 0.6363 0.0964
H26 H 0.9194 0.7531 0.1991
H27 H 0.9233 0.7657 0.3302
H28 H 0.8254 0.6620 0.3594
H29 H 0.6354 0.7345 0.1704
H30 H 0.5187 0.8605 0.1286
H31 H 0.4175 0.8187 0.1726
H32 H 0.4360 0.6601 0.2659
H33 H 0.5529 0.5356 0.3094

#END
