./ACPLCU20_from_xyz.cif_generated_by_CrystalShift
_symmetry_cell_setting triclinic
_symmetry_space_group_name_H-M 'P 1'
loop_
_symmetry_equiv_pos_site_id
_symmetry_equiv_pos_as_xyz
1 x,y,z
_cell_length_a 8.258000
_cell_length_b 19.070000
_cell_length_c 16.755000
_cell_angle_alpha 90.000000
_cell_angle_beta 111.790000
_cell_angle_gamma 90.000000
_cell_volume 2450.053671
loop_
_atom_site_label
_atom_site_type_symbol
_atom_site_fract_x
_atom_site_fract_y
_atom_site_fract_z
Cu1 Cu 0.378800 0.333560 0.326750
N2 N 0.169700 0.277600 0.238700
C3 C 0.093100 0.218500 0.246300
C4 C -0.036500 0.186300 0.178200
C5 C -0.087600 0.215600 0.099000
C6 C -0.010600 0.278200 0.086500
C7 C -0.053200 0.313300 0.005800
C8 C 0.025700 0.372000 -0.001300
C9 C 0.156700 0.404200 0.072100
C10 C 0.245600 0.466000 0.069200
C11 C 0.370300 0.490100 0.142100
C12 C 0.408800 0.453200 0.218600
N13 N 0.326700 0.395300 0.224300
C14 C 0.201000 0.370600 0.152000
C15 C 0.117700 0.307100 0.159400
N16 N 0.305400 0.403000 0.407100
C17 C 0.244800 0.467100 0.395400
C18 C 0.217800 0.505900 0.459700
C19 C 0.255600 0.478000 0.538300
C20 C 0.321700 0.409600 0.554400
C21 C 0.370100 0.375600 0.635300
C22 C 0.433800 0.310500 0.647500
C23 C 0.454900 0.271500 0.578400
C24 C 0.517900 0.202400 0.585100
C25 C 0.528100 0.169800 0.515300
C26 C 0.479300 0.205900 0.437600
N27 N 0.421800 0.270700 0.428500
C28 C 0.407000 0.303900 0.497300
C29 C 0.344000 0.374400 0.486100
O30 O 0.654700 0.367900 0.385900
O31 O 0.631500 0.282200 0.309200
C32 C 0.714300 0.327700 0.351200
C33 C 0.896900 0.337300 0.360000
H34 H 0.126000 0.198000 0.298000
H35 H -0.086000 0.147000 0.186000
H36 H -0.170000 0.195000 0.055000
H37 H -0.135000 0.295000 -0.041000
H38 H -0.003000 0.392000 -0.053000
H39 H 0.220000 0.489000 0.020000
H40 H 0.428000 0.529000 0.141000
H41 H 0.492000 0.469000 0.266000
H42 H 0.220000 0.487000 0.344000
H43 H 0.175000 0.549000 0.449000
H44 H 0.239000 0.503000 0.580000
H45 H 0.358000 0.398000 0.679000
H46 H 0.464000 0.291000 0.699000
H47 H 0.551000 0.180000 0.635000
H48 H 0.566000 0.126000 0.519000
H49 H 0.488000 0.184000 0.392000
Cu50 Cu 0.621200 0.833560 0.173250
N51 N 0.830300 0.777600 0.261300
C52 C 0.906900 0.718500 0.253700
C53 C 1.036500 0.686300 0.321800
C54 C 1.087600 0.715600 0.401000
C55 C 1.010600 0.778200 0.413500
C56 C 1.053200 0.813300 0.494200
C57 C 0.974300 0.872000 0.501300
C58 C 0.843300 0.904200 0.427900
C59 C 0.754400 0.966000 0.430800
C60 C 0.629700 0.990100 0.357900
C61 C 0.591200 0.953200 0.281400
N62 N 0.673300 0.895300 0.275700
C63 C 0.799000 0.870600 0.348000
C64 C 0.882300 0.807100 0.340600
N65 N 0.694600 0.903000 0.092900
C66 C 0.755200 0.967100 0.104600
C67 C 0.782200 1.005900 0.040300
C68 C 0.744400 0.978000 -0.038300
C69 C 0.678300 0.909600 -0.054400
C70 C 0.629900 0.875600 -0.135300
C71 C 0.566200 0.810500 -0.147500
C72 C 0.545100 0.771500 -0.078400
C73 C 0.482100 0.702400 -0.085100
C74 C 0.471900 0.669800 -0.015300
C75 C 0.520700 0.705900 0.062400
N76 N 0.578200 0.770700 0.071500
C77 C 0.593000 0.803900 0.002700
C78 C 0.656000 0.874400 0.013900
O79 O 0.345300 0.867900 0.114100
O80 O 0.368500 0.782200 0.190800
C81 C 0.285700 0.827700 0.148800
C82 C 0.103100 0.837300 0.140000
H83 H 0.874000 0.698000 0.202000
H84 H 1.086000 0.647000 0.314000
H85 H 1.170000 0.695000 0.445000
H86 H 1.135000 0.795000 0.541000
H87 H 1.003000 0.892000 0.553000
H88 H 0.780000 0.989000 0.480000
H89 H 0.572000 1.029000 0.359000
H90 H 0.508000 0.969000 0.234000
H91 H 0.780000 0.987000 0.156000
H92 H 0.825000 1.049000 0.051000
H93 H 0.761000 1.003000 -0.080000
H94 H 0.642000 0.898000 -0.179000
H95 H 0.536000 0.791000 -0.199000
H96 H 0.449000 0.680000 -0.135000
H97 H 0.434000 0.626000 -0.019000
H98 H 0.512000 0.684000 0.108000
Cu99 Cu 0.621200 0.666440 0.673250
N100 N 0.830300 0.722400 0.761300
C101 C 0.906900 0.781500 0.753700
C102 C 1.036500 0.813700 0.821800
C103 C 1.087600 0.784400 0.901000
C104 C 1.010600 0.721800 0.913500
C105 C 1.053200 0.686700 0.994200
C106 C 0.974300 0.628000 1.001300
C107 C 0.843300 0.595800 0.927900
C108 C 0.754400 0.534000 0.930800
C109 C 0.629700 0.509900 0.857900
C110 C 0.591200 0.546800 0.781400
N111 N 0.673300 0.604700 0.775700
C112 C 0.799000 0.629400 0.848000
C113 C 0.882300 0.692900 0.840600
N114 N 0.694600 0.597000 0.592900
C115 C 0.755200 0.532900 0.604600
C116 C 0.782200 0.494100 0.540300
C117 C 0.744400 0.522000 0.461700
C118 C 0.678300 0.590400 0.445600
C119 C 0.629900 0.624400 0.364700
C120 C 0.566200 0.689500 0.352500
C121 C 0.545100 0.728500 0.421600
C122 C 0.482100 0.797600 0.414900
C123 C 0.471900 0.830200 0.484700
C124 C 0.520700 0.794100 0.562400
N125 N 0.578200 0.729300 0.571500
C126 C 0.593000 0.696100 0.502700
C127 C 0.656000 0.625600 0.513900
O128 O 0.345300 0.632100 0.614100
O129 O 0.368500 0.717800 0.690800
C130 C 0.285700 0.672300 0.648800
C131 C 0.103100 0.662700 0.640000
H132 H 0.874000 0.802000 0.702000
H133 H 1.086000 0.853000 0.814000
H134 H 1.170000 0.805000 0.945000
H135 H 1.135000 0.705000 1.041000
H136 H 1.003000 0.608000 1.053000
H137 H 0.780000 0.511000 0.980000
H138 H 0.572000 0.471000 0.859000
H139 H 0.508000 0.531000 0.734000
H140 H 0.780000 0.513000 0.656000
H141 H 0.825000 0.451000 0.551000
H142 H 0.761000 0.497000 0.420000
H143 H 0.642000 0.602000 0.321000
H144 H 0.536000 0.709000 0.301000
H145 H 0.449000 0.820000 0.365000
H146 H 0.434000 0.874000 0.481000
H147 H 0.512000 0.816000 0.608000
Cu148 Cu 0.378800 0.166440 0.826750
N149 N 0.169700 0.222400 0.738700
C150 C 0.093100 0.281500 0.746300
C151 C -0.036500 0.313700 0.678200
C152 C -0.087600 0.284400 0.599000
C153 C -0.010600 0.221800 0.586500
C154 C -0.053200 0.186700 0.505800
C155 C 0.025700 0.128000 0.498700
C156 C 0.156700 0.095800 0.572100
C157 C 0.245600 0.034000 0.569200
C158 C 0.370300 0.009900 0.642100
C159 C 0.408800 0.046800 0.718600
N160 N 0.326700 0.104700 0.724300
C161 C 0.201000 0.129400 0.652000
C162 C 0.117700 0.192900 0.659400
N163 N 0.305400 0.097000 0.907100
C164 C 0.244800 0.032900 0.895400
C165 C 0.217800 -0.005900 0.959700
C166 C 0.255600 0.022000 1.038300
C167 C 0.321700 0.090400 1.054400
C168 C 0.370100 0.124400 1.135300
C169 C 0.433800 0.189500 1.147500
C170 C 0.454900 0.228500 1.078400
C171 C 0.517900 0.297600 1.085100
C172 C 0.528100 0.330200 1.015300
C173 C 0.479300 0.294100 0.937600
N174 N 0.421800 0.229300 0.928500
C175 C 0.407000 0.196100 0.997300
C176 C 0.344000 0.125600 0.986100
O177 O 0.654700 0.132100 0.885900
O178 O 0.631500 0.217800 0.809200
C179 C 0.714300 0.172300 0.851200
C180 C 0.896900 0.162700 0.860000
H181 H 0.126000 0.302000 0.798000
H182 H -0.086000 0.353000 0.686000
H183 H -0.170000 0.305000 0.555000
H184 H -0.135000 0.205000 0.459000
H185 H -0.003000 0.108000 0.447000
H186 H 0.220000 0.011000 0.520000
H187 H 0.428000 -0.029000 0.641000
H188 H 0.492000 0.031000 0.766000
H189 H 0.220000 0.013000 0.844000
H190 H 0.175000 -0.049000 0.949000
H191 H 0.239000 -0.003000 1.080000
H192 H 0.358000 0.102000 1.179000
H193 H 0.464000 0.209000 1.199000
H194 H 0.551000 0.320000 1.135000
H195 H 0.566000 0.374000 1.019000
H196 H 0.488000 0.316000 0.892000
Cl197 Cl 0.152800 0.014700 0.313800
O198 O 0.169500 0.010100 0.233200
O199 O 0.267200 0.068300 0.361400
O200 O -0.021100 0.035100 0.302700
O201 O 0.194200 -0.048400 0.356400
Cl202 Cl 0.847200 0.514700 0.186200
O203 O 0.830500 0.510100 0.266800
O204 O 0.732800 0.568300 0.138600
O205 O 1.021100 0.535100 0.197300
O206 O 0.805800 0.451600 0.143600
Cl207 Cl 0.847200 0.985300 0.686200
O208 O 0.830500 0.989900 0.766800
O209 O 0.732800 0.931700 0.638600
O210 O 1.021100 0.964900 0.697300
O211 O 0.805800 1.048400 0.643600
Cl212 Cl 0.152800 0.485300 0.813800
O213 O 0.169500 0.489900 0.733200
O214 O 0.267200 0.431700 0.861400
O215 O -0.021100 0.464900 0.802700
O216 O 0.194200 0.548400 0.856400

#END
