
#######################################################################
#
#                 Cambridge Crystallographic Data Centre
#                                CCDC 
#
#######################################################################
#
# If this CIF has been generated from an entry in the Cambridge 
# Structural Database, then it will include bibliographic, chemical, 
# crystal, experimental, refinement or atomic coordinate data resulting 
# from the CCDC's data processing and validation procedures.
#
#######################################################################

data_ACRDIN06
_symmetry_cell_setting           monoclinic
_symmetry_space_group_name_H-M   'P 21/n'
_symmetry_Int_Tables_number      14
_space_group_name_Hall           '-P 2yn'
loop_
_symmetry_equiv_pos_site_id
_symmetry_equiv_pos_as_xyz
1 x,y,z
2 1/2-x,1/2+y,1/2-z
3 -x,-y,-z
4 1/2+x,1/2-y,1/2+z
_cell_length_a                   6.0569(10)
_cell_length_b                   22.813(4)
_cell_length_c                   13.204(2)
_cell_angle_alpha                90
_cell_angle_beta                 95.938(4)
_cell_angle_gamma                90
_cell_volume                     1814.69
loop_
_atom_site_label
_atom_site_type_symbol
_atom_site_fract_x
_atom_site_fract_y
_atom_site_fract_z
N1 N 0.1696(2) 0.30681(6) 0.16081(11)
C1 C 0.6956(3) 0.39168(8) 0.16900(14)
H1 H 0.8361 0.3953 0.2078
C2 C 0.6477(3) 0.42552(8) 0.08513(15)
H2 H 0.7545 0.4527 0.0658
C3 C 0.4398(3) 0.42059(8) 0.02624(15)
H3 H 0.4081 0.4446 -0.0322
C4 C 0.2850(3) 0.38195(8) 0.05214(14)
H4 H 0.1459 0.3795 0.0119
C5 C 0.0422(3) 0.23460(8) 0.27125(15)
H5 H -0.0905 0.2304 0.2268
C6 C 0.0703(4) 0.20298(9) 0.35889(17)
H6 H -0.0444 0.1774 0.3754
C7 C 0.2676(4) 0.20753(8) 0.42606(16)
H7 H 0.2830 0.1855 0.4874
C8 C 0.4339(3) 0.24298(8) 0.40337(14)
H8 H 0.5667 0.2449 0.4483
C9 C 0.5746(3) 0.31622(8) 0.28683(14)
H9 H 0.7115 0.3192 0.3287
C10 C 0.5371(3) 0.35068(7) 0.19963(13)
C11 C 0.3282(3) 0.34494(8) 0.13893(13)
C12 C 0.2102(3) 0.27387(8) 0.24558(14)
C13 C 0.4130(3) 0.27771(7) 0.31256(13)
N1 N 0.3304(2) 0.80681(6) 0.33919(11)
C1 C -0.1956(3) 0.89168(8) 0.33100(14)
H1 H -0.3361 0.8953 0.2922
C2 C -0.1477(3) 0.92552(8) 0.41487(15)
H2 H -0.2545 0.9527 0.4342
C3 C 0.0602(3) 0.92059(8) 0.47376(15)
H3 H 0.0919 0.9446 0.5322
C4 C 0.2150(3) 0.88195(8) 0.44786(14)
H4 H 0.3541 0.8795 0.4881
C5 C 0.4578(3) 0.73460(8) 0.22875(15)
H5 H 0.5905 0.7304 0.2732
C6 C 0.4297(4) 0.70298(9) 0.14111(17)
H6 H 0.5444 0.6774 0.1246
C7 C 0.2324(4) 0.70753(8) 0.07394(16)
H7 H 0.2170 0.6855 0.0126
C8 C 0.0661(3) 0.74298(8) 0.09663(14)
H8 H -0.0667 0.7449 0.0517
C9 C -0.0746(3) 0.81622(8) 0.21317(14)
H9 H -0.2115 0.8192 0.1713
C10 C -0.0371(3) 0.85068(7) 0.30037(13)
C11 C 0.1718(3) 0.84494(8) 0.36107(13)
C12 C 0.2898(3) 0.77387(8) 0.25442(14)
C13 C 0.0870(3) 0.77771(7) 0.18744(13)
N1 N 0.8304(2) 0.69319(6) 0.83919(11)
C1 C 0.3044(3) 0.60832(8) 0.83100(14)
H1 H 0.1639 0.6047 0.7922
C2 C 0.3523(3) 0.57448(8) 0.91487(15)
H2 H 0.2455 0.5473 0.9342
C3 C 0.5602(3) 0.57941(8) 0.97376(15)
H3 H 0.5919 0.5554 1.0322
C4 C 0.7150(3) 0.61805(8) 0.94786(14)
H4 H 0.8541 0.6205 0.9881
C5 C 0.9578(3) 0.76540(8) 0.72875(15)
H5 H 1.0905 0.7696 0.7732
C6 C 0.9297(4) 0.79702(9) 0.64111(17)
H6 H 1.0444 0.8226 0.6246
C7 C 0.7324(4) 0.79247(8) 0.57394(16)
H7 H 0.7170 0.8145 0.5126
C8 C 0.5661(3) 0.75702(8) 0.59663(14)
H8 H 0.4333 0.7551 0.5517
C9 C 0.4254(3) 0.68378(8) 0.71317(14)
H9 H 0.2885 0.6808 0.6713
C10 C 0.4629(3) 0.64932(7) 0.80037(13)
C11 C 0.6718(3) 0.65506(8) 0.86107(13)
C12 C 0.7898(3) 0.72613(8) 0.75442(14)
C13 C 0.5870(3) 0.72229(7) 0.68744(13)
N1 N 0.6696(2) 0.19319(6) 0.66081(11)
C1 C 1.1956(3) 0.10832(8) 0.66900(14)
H1 H 1.3361 0.1047 0.7078
C2 C 1.1477(3) 0.07448(8) 0.58513(15)
H2 H 1.2545 0.0473 0.5658
C3 C 0.9398(3) 0.07941(8) 0.52624(15)
H3 H 0.9081 0.0554 0.4678
C4 C 0.7850(3) 0.11805(8) 0.55214(14)
H4 H 0.6459 0.1205 0.5119
C5 C 0.5422(3) 0.26540(8) 0.77125(15)
H5 H 0.4095 0.2696 0.7268
C6 C 0.5703(4) 0.29702(9) 0.85889(17)
H6 H 0.4556 0.3226 0.8754
C7 C 0.7676(4) 0.29247(8) 0.92606(16)
H7 H 0.7830 0.3145 0.9874
C8 C 0.9339(3) 0.25702(8) 0.90337(14)
H8 H 1.0667 0.2551 0.9483
C9 C 1.0746(3) 0.18378(8) 0.78683(14)
H9 H 1.2115 0.1808 0.8287
C10 C 1.0371(3) 0.14932(7) 0.69963(13)
C11 C 0.8282(3) 0.15506(8) 0.63893(13)
C12 C 0.7102(3) 0.22613(8) 0.74558(14)
C13 C 0.9130(3) 0.22229(7) 0.81256(13)
N2 N 0.2522(2) 0.01039(6) 0.89474(11)
C14 C 0.5669(3) 0.14402(8) 0.98421(14)
H10 H 0.7003 0.1645 0.9756
C15 C 0.4267(3) 0.16564(9) 1.04837(15)
H11 H 0.4609 0.2014 1.0833
C16 C 0.2281(3) 0.13498(8) 1.06378(14)
H12 H 0.1318 0.1504 1.1096
C17 C 0.1743(3) 0.08398(8) 1.01401(14)
H13 H 0.0418 0.0639 1.0258
C18 C 0.3237(3) -0.06433(8) 0.77610(14)
H14 H 0.1881 -0.0829 0.7874
C19 C 0.4546(3) -0.08829(9) 0.71030(14)
H15 H 0.4107 -0.1240 0.6770
C20 C 0.6562(3) -0.06123(9) 0.69000(14)
H16 H 0.7447 -0.0785 0.6426
C21 C 0.7229(3) -0.01072(8) 0.73820(14)
H17 H 0.8580 0.0072 0.7241
C22 C 0.6531(3) 0.06696(8) 0.86184(13)
H18 H 0.7888 0.0857 0.8513
C23 C 0.5175(3) 0.09117(8) 0.92948(13)
C24 C 0.3152(3) 0.06037(8) 0.94430(13)
C25 C 0.3870(3) -0.01143(8) 0.82870(13)
C26 C 0.5932(3) 0.01580(8) 0.80961(13)
N2 N 0.2478(2) 0.51039(6) 0.60526(11)
C14 C -0.0669(3) 0.64402(8) 0.51579(14)
H10 H -0.2003 0.6645 0.5244
C15 C 0.0733(3) 0.66564(9) 0.45163(15)
H11 H 0.0391 0.7014 0.4167
C16 C 0.2719(3) 0.63498(8) 0.43622(14)
H12 H 0.3682 0.6504 0.3904
C17 C 0.3257(3) 0.58398(8) 0.48599(14)
H13 H 0.4582 0.5639 0.4742
C18 C 0.1763(3) 0.43567(8) 0.72390(14)
H14 H 0.3119 0.4171 0.7126
C19 C 0.0454(3) 0.41171(9) 0.78970(14)
H15 H 0.0893 0.3760 0.8230
C20 C -0.1562(3) 0.43877(9) 0.81000(14)
H16 H -0.2447 0.4215 0.8574
C21 C -0.2229(3) 0.48928(8) 0.76180(14)
H17 H -0.3580 0.5072 0.7759
C22 C -0.1531(3) 0.56696(8) 0.63816(13)
H18 H -0.2888 0.5857 0.6487
C23 C -0.0175(3) 0.59117(8) 0.57052(13)
C24 C 0.1848(3) 0.56037(8) 0.55570(13)
C25 C 0.1130(3) 0.48857(8) 0.67130(13)
C26 C -0.0932(3) 0.51580(8) 0.69039(13)
N2 N 0.7478(2) 0.98961(6) 0.10526(11)
C14 C 0.4331(3) 0.85598(8) 0.01579(14)
H10 H 0.2997 0.8355 0.0244
C15 C 0.5733(3) 0.83436(9) -0.04837(15)
H11 H 0.5391 0.7986 -0.0833
C16 C 0.7719(3) 0.86502(8) -0.06378(14)
H12 H 0.8682 0.8496 -0.1096
C17 C 0.8257(3) 0.91602(8) -0.01401(14)
H13 H 0.9582 0.9361 -0.0258
C18 C 0.6763(3) 1.06433(8) 0.22390(14)
H14 H 0.8119 1.0829 0.2126
C19 C 0.5454(3) 1.08829(9) 0.28970(14)
H15 H 0.5893 1.1240 0.3230
C20 C 0.3438(3) 1.06123(9) 0.31000(14)
H16 H 0.2553 1.0785 0.3574
C21 C 0.2771(3) 1.01072(8) 0.26180(14)
H17 H 0.1420 0.9928 0.2759
C22 C 0.3469(3) 0.93304(8) 0.13816(13)
H18 H 0.2112 0.9143 0.1487
C23 C 0.4825(3) 0.90883(8) 0.07052(13)
C24 C 0.6848(3) 0.93963(8) 0.05570(13)
C25 C 0.6130(3) 1.01143(8) 0.17130(13)
C26 C 0.4068(3) 0.98420(8) 0.19039(13)
N2 N 0.7522(2) 0.48961(6) 0.39474(11)
C14 C 1.0669(3) 0.35598(8) 0.48421(14)
H10 H 1.2003 0.3355 0.4756
C15 C 0.9267(3) 0.33436(9) 0.54837(15)
H11 H 0.9609 0.2986 0.5833
C16 C 0.7281(3) 0.36502(8) 0.56378(14)
H12 H 0.6318 0.3496 0.6096
C17 C 0.6743(3) 0.41602(8) 0.51401(14)
H13 H 0.5418 0.4361 0.5258
C18 C 0.8237(3) 0.56433(8) 0.27610(14)
H14 H 0.6881 0.5829 0.2874
C19 C 0.9546(3) 0.58829(9) 0.21030(14)
H15 H 0.9107 0.6240 0.1770
C20 C 1.1562(3) 0.56123(9) 0.19000(14)
H16 H 1.2447 0.5785 0.1426
C21 C 1.2229(3) 0.51072(8) 0.23820(14)
H17 H 1.3580 0.4928 0.2241
C22 C 1.1531(3) 0.43304(8) 0.36184(13)
H18 H 1.2888 0.4143 0.3513
C23 C 1.0175(3) 0.40883(8) 0.42948(13)
C24 C 0.8152(3) 0.43963(8) 0.44430(13)
C25 C 0.8870(3) 0.51143(8) 0.32870(13)
C26 C 1.0932(3) 0.48420(8) 0.30961(13)

#END
