
#######################################################################
#
#                 Cambridge Crystallographic Data Centre
#                                CCDC 
#
#######################################################################
#
# If this CIF has been generated from an entry in the Cambridge 
# Structural Database, then it will include bibliographic, chemical, 
# crystal, experimental, refinement or atomic coordinate data resulting 
# from the CCDC's data processing and validation procedures.
#
#######################################################################

data_ACRDIN05
_symmetry_cell_setting           monoclinic
_symmetry_space_group_name_H-M   'C c'
_symmetry_Int_Tables_number      9
_space_group_name_Hall           'C -2yc'
loop_
_symmetry_equiv_pos_site_id
_symmetry_equiv_pos_as_xyz
1 x,y,z
2 x,-y,1/2+z
3 1/2+x,1/2+y,z
4 1/2+x,1/2-y,1/2+z
_cell_length_a                   6.174(2)
_cell_length_b                   23.497(8)
_cell_length_c                   12.868(4)
_cell_angle_alpha                90
_cell_angle_beta                 96.483(6)
_cell_angle_gamma                90
_cell_volume                     1854.83
loop_
_atom_site_label
_atom_site_type_symbol
_atom_site_fract_x
_atom_site_fract_y
_atom_site_fract_z
N1 N 0.3511(4) 0.19097(9) 0.22243(17)
C1 C 0.8780(4) 0.11317(11) 0.24307(19)
H1 H 1.0163 0.1123 0.2837
C2 C 0.8351(5) 0.07591(12) 0.1623(2)
H2 H 0.9422 0.0490 0.1472
C3 C 0.6297(5) 0.07745(12) 0.1010(2)
H3 H 0.6006 0.0515 0.0446
C4 C 0.4744(5) 0.11514(12) 0.1210(2)
H4 H 0.3382 0.1153 0.0785
C5 C 0.2189(5) 0.26473(12) 0.3262(2)
H5 H 0.0855 0.2653 0.2814
C6 C 0.2463(5) 0.29997(11) 0.4100(3)
H6 H 0.1304 0.3245 0.4235
C7 C 0.4415(6) 0.30114(13) 0.4773(3)
H7 H 0.4560 0.3259 0.5359
C8 C 0.6103(5) 0.26670(11) 0.4585(2)
H8 H 0.7437 0.2683 0.5031
C9 C 0.7538(4) 0.19091(11) 0.3512(2)
H9 H 0.8897 0.1914 0.3939
C10 C 0.7197(5) 0.15316(11) 0.26740(19)
C11 C 0.5122(5) 0.15443(11) 0.2048(2)
C12 C 0.3876(4) 0.22686(11) 0.3045(2)
C13 C 0.5878(4) 0.22807(11) 0.3720(2)
N1 N 0.3511(4) 0.80903(9) 0.72243(17)
C1 C 0.8780(4) 0.88683(11) 0.74307(19)
H1 H 1.0163 0.8877 0.7837
C2 C 0.8351(5) 0.92409(12) 0.6623(2)
H2 H 0.9422 0.9510 0.6472
C3 C 0.6297(5) 0.92255(12) 0.6010(2)
H3 H 0.6006 0.9485 0.5446
C4 C 0.4744(5) 0.88486(12) 0.6210(2)
H4 H 0.3382 0.8847 0.5785
C5 C 0.2189(5) 0.73527(12) 0.8262(2)
H5 H 0.0855 0.7347 0.7814
C6 C 0.2463(5) 0.70003(11) 0.9100(3)
H6 H 0.1304 0.6755 0.9235
C7 C 0.4415(6) 0.69886(13) 0.9773(3)
H7 H 0.4560 0.6741 1.0359
C8 C 0.6103(5) 0.73330(11) 0.9585(2)
H8 H 0.7437 0.7317 1.0031
C9 C 0.7538(4) 0.80909(11) 0.8512(2)
H9 H 0.8897 0.8086 0.8939
C10 C 0.7197(5) 0.84684(11) 0.76740(19)
C11 C 0.5122(5) 0.84557(11) 0.7048(2)
C12 C 0.3876(4) 0.77314(11) 0.8045(2)
C13 C 0.5878(4) 0.77193(11) 0.8720(2)
N1 N -0.1489(4) 0.69097(9) 0.22243(17)
C1 C 0.3780(4) 0.61317(11) 0.24307(19)
H1 H 0.5163 0.6123 0.2837
C2 C 0.3351(5) 0.57591(12) 0.1623(2)
H2 H 0.4422 0.5490 0.1472
C3 C 0.1297(5) 0.57745(12) 0.1010(2)
H3 H 0.1006 0.5515 0.0446
C4 C -0.0256(5) 0.61514(12) 0.1210(2)
H4 H -0.1618 0.6153 0.0785
C5 C -0.2811(5) 0.76473(12) 0.3262(2)
H5 H -0.4145 0.7653 0.2814
C6 C -0.2537(5) 0.79997(11) 0.4100(3)
H6 H -0.3696 0.8245 0.4235
C7 C -0.0585(6) 0.80114(13) 0.4773(3)
H7 H -0.0440 0.8259 0.5359
C8 C 0.1103(5) 0.76670(11) 0.4585(2)
H8 H 0.2437 0.7683 0.5031
C9 C 0.2538(4) 0.69091(11) 0.3512(2)
H9 H 0.3897 0.6914 0.3939
C10 C 0.2197(5) 0.65316(11) 0.26740(19)
C11 C 0.0122(5) 0.65443(11) 0.2048(2)
C12 C -0.1124(4) 0.72686(11) 0.3045(2)
C13 C 0.0878(4) 0.72807(11) 0.3720(2)
N1 N -0.1489(4) 0.30903(9) 0.72243(17)
C1 C 0.3780(4) 0.38683(11) 0.74307(19)
H1 H 0.5163 0.3877 0.7837
C2 C 0.3351(5) 0.42409(12) 0.6623(2)
H2 H 0.4422 0.4510 0.6472
C3 C 0.1297(5) 0.42255(12) 0.6010(2)
H3 H 0.1006 0.4485 0.5446
C4 C -0.0256(5) 0.38486(12) 0.6210(2)
H4 H -0.1618 0.3847 0.5785
C5 C -0.2811(5) 0.23527(12) 0.8262(2)
H5 H -0.4145 0.2347 0.7814
C6 C -0.2537(5) 0.20003(11) 0.9100(3)
H6 H -0.3696 0.1755 0.9235
C7 C -0.0585(6) 0.19886(13) 0.9773(3)
H7 H -0.0440 0.1741 1.0359
C8 C 0.1103(5) 0.23330(11) 0.9585(2)
H8 H 0.2437 0.2317 1.0031
C9 C 0.2538(4) 0.30909(11) 0.8512(2)
H9 H 0.3897 0.3086 0.8939
C10 C 0.2197(5) 0.34684(11) 0.76740(19)
C11 C 0.0122(5) 0.34557(11) 0.7048(2)
C12 C -0.1124(4) 0.27314(11) 0.8045(2)
C13 C 0.0878(4) 0.27193(11) 0.8720(2)
N2 N -0.0095(3) 0.97952(10) 0.98485(17)
C14 C 0.4720(5) 1.00100(12) 0.8375(2)
H10 H 0.5981 0.9819 0.8195
C15 C 0.4264(6) 1.05430(14) 0.8030(2)
H11 H 0.5225 1.0725 0.7609
C16 C 0.2393(6) 1.08396(14) 0.8278(2)
H12 H 0.2129 1.1217 0.8032
C17 C 0.0976(5) 1.05877(12) 0.8865(2)
H13 H -0.0285 1.0788 0.9019
C18 C -0.1177(5) 0.90242(13) 1.0853(2)
H14 H -0.2432 0.9234 1.0986
C19 C -0.0866(6) 0.84899(14) 1.1252(2)
H15 H -0.1928 0.8324 1.1638
C20 C 0.1030(5) 0.81813(13) 1.1092(2)
H16 H 0.1253 0.7814 1.1393
C21 C 0.2534(5) 0.84015(11) 1.0518(2)
H17 H 0.3797 0.8188 1.0415
C22 C 0.3662(4) 0.91964(11) 0.94383(19)
H18 H 0.4919 0.8991 0.9295
C23 C 0.3283(4) 0.97361(11) 0.90152(19)
C24 C 0.1359(5) 1.00238(11) 0.9255(2)
C25 C 0.0337(4) 0.92692(12) 1.02472(19)
C26 C 0.2226(4) 0.89520(11) 1.00693(19)
N2 N -0.0095(3) 0.02048(10) 0.48485(17)
C14 C 0.4720(5) -0.00100(12) 0.3375(2)
H10 H 0.5981 0.0181 0.3195
C15 C 0.4264(6) -0.05430(14) 0.3030(2)
H11 H 0.5225 -0.0725 0.2609
C16 C 0.2393(6) -0.08396(14) 0.3278(2)
H12 H 0.2129 -0.1217 0.3032
C17 C 0.0976(5) -0.05877(12) 0.3865(2)
H13 H -0.0285 -0.0788 0.4019
C18 C -0.1177(5) 0.09758(13) 0.5853(2)
H14 H -0.2432 0.0766 0.5986
C19 C -0.0866(6) 0.15101(14) 0.6252(2)
H15 H -0.1928 0.1676 0.6638
C20 C 0.1030(5) 0.18187(13) 0.6092(2)
H16 H 0.1253 0.2186 0.6393
C21 C 0.2534(5) 0.15985(11) 0.5518(2)
H17 H 0.3797 0.1812 0.5415
C22 C 0.3662(4) 0.08036(11) 0.44383(19)
H18 H 0.4919 0.1009 0.4295
C23 C 0.3283(4) 0.02639(11) 0.40152(19)
C24 C 0.1359(5) -0.00238(11) 0.4255(2)
C25 C 0.0337(4) 0.07308(12) 0.52472(19)
C26 C 0.2226(4) 0.10480(11) 0.50693(19)
N2 N 0.4905(3) 0.47952(10) 0.98485(17)
C14 C 0.9720(5) 0.50100(12) 0.8375(2)
H10 H 1.0981 0.4819 0.8195
C15 C 0.9264(6) 0.55430(14) 0.8030(2)
H11 H 1.0225 0.5725 0.7609
C16 C 0.7393(6) 0.58396(14) 0.8278(2)
H12 H 0.7129 0.6217 0.8032
C17 C 0.5976(5) 0.55877(12) 0.8865(2)
H13 H 0.4715 0.5788 0.9019
C18 C 0.3823(5) 0.40242(13) 1.0853(2)
H14 H 0.2568 0.4234 1.0986
C19 C 0.4134(6) 0.34899(14) 1.1252(2)
H15 H 0.3072 0.3324 1.1638
C20 C 0.6030(5) 0.31813(13) 1.1092(2)
H16 H 0.6253 0.2814 1.1393
C21 C 0.7534(5) 0.34015(11) 1.0518(2)
H17 H 0.8797 0.3188 1.0415
C22 C 0.8662(4) 0.41964(11) 0.94383(19)
H18 H 0.9919 0.3991 0.9295
C23 C 0.8283(4) 0.47361(11) 0.90152(19)
C24 C 0.6359(5) 0.50238(11) 0.9255(2)
C25 C 0.5337(4) 0.42692(12) 1.02472(19)
C26 C 0.7226(4) 0.39520(11) 1.00693(19)
N2 N 0.4905(3) 0.52048(10) 0.48485(17)
C14 C 0.9720(5) 0.49900(12) 0.3375(2)
H10 H 1.0981 0.5181 0.3195
C15 C 0.9264(6) 0.44570(14) 0.3030(2)
H11 H 1.0225 0.4275 0.2609
C16 C 0.7393(6) 0.41604(14) 0.3278(2)
H12 H 0.7129 0.3783 0.3032
C17 C 0.5976(5) 0.44123(12) 0.3865(2)
H13 H 0.4715 0.4212 0.4019
C18 C 0.3823(5) 0.59758(13) 0.5853(2)
H14 H 0.2568 0.5766 0.5986
C19 C 0.4134(6) 0.65101(14) 0.6252(2)
H15 H 0.3072 0.6676 0.6638
C20 C 0.6030(5) 0.68187(13) 0.6092(2)
H16 H 0.6253 0.7186 0.6393
C21 C 0.7534(5) 0.65985(11) 0.5518(2)
H17 H 0.8797 0.6812 0.5415
C22 C 0.8662(4) 0.58036(11) 0.44383(19)
H18 H 0.9919 0.6009 0.4295
C23 C 0.8283(4) 0.52639(11) 0.40152(19)
C24 C 0.6359(5) 0.49762(11) 0.4255(2)
C25 C 0.5337(4) 0.57308(12) 0.52472(19)
C26 C 0.7226(4) 0.60480(11) 0.50693(19)

#END
