./KABBIA_from_xyz.cif_generated_by_CrystalShift
_symmetry_cell_setting triclinic
_symmetry_space_group_name_H-M 'P 1'
loop_
_symmetry_equiv_pos_site_id
_symmetry_equiv_pos_as_xyz
1 x,y,z
_cell_length_a 6.847300
_cell_length_b 12.130700
_cell_length_c 19.430000
_cell_angle_alpha 90.000000
_cell_angle_beta 90.000000
_cell_angle_gamma 90.000000
_cell_volume 1613.905193
loop_
_atom_site_label
_atom_site_type_symbol
_atom_site_fract_x
_atom_site_fract_y
_atom_site_fract_z
C1 C 0.915100 0.358900 0.400700
C2 C 0.873400 0.247900 0.409460
C3 C 0.701500 0.208400 0.381790
H4 H 0.668700 0.134300 0.386100
C5 C 0.579100 0.280100 0.347640
C6 C 0.638300 0.388400 0.341680
C7 C 1.003400 0.177000 0.446700
C8 C 0.399200 0.242500 0.318400
Cl9 Cl 1.123510 0.414160 0.435120
Cl10 Cl 0.494860 0.482050 0.298810
N11 N 0.801400 0.428000 0.367950
N12 N 1.104900 0.122200 0.477500
N13 N 0.255000 0.212800 0.295900
C14 C 0.584900 0.641100 0.900700
C15 C 0.626600 0.752100 0.909460
C16 C 0.798500 0.791600 0.881790
H17 H 0.831300 0.865700 0.886100
C18 C 0.920900 0.719900 0.847640
C19 C 0.861700 0.611600 0.841680
C20 C 0.496600 0.823000 0.946700
C21 C 1.100800 0.757500 0.818400
Cl22 Cl 0.376490 0.585840 0.935120
Cl23 Cl 1.005140 0.517950 0.798810
N24 N 0.698600 0.572000 0.867950
N25 N 0.395100 0.877800 0.977500
N26 N 1.245000 0.787200 0.795900
C27 C 0.084900 0.858900 0.099300
C28 C 0.126600 0.747900 0.090540
C29 C 0.298500 0.708400 0.118210
H30 H 0.331300 0.634300 0.113900
C31 C 0.420900 0.780100 0.152360
C32 C 0.361700 0.888400 0.158320
C33 C -0.003400 0.677000 0.053300
C34 C 0.600800 0.742500 0.181600
Cl35 Cl -0.123510 0.914160 0.064880
Cl36 Cl 0.505140 0.982050 0.201190
N37 N 0.198600 0.928000 0.132050
N38 N -0.104900 0.622200 0.022500
N39 N 0.745000 0.712800 0.204100
C40 C 0.415100 0.141100 0.599300
C41 C 0.373400 0.252100 0.590540
C42 C 0.201500 0.291600 0.618210
H43 H 0.168700 0.365700 0.613900
C44 C 0.079100 0.219900 0.652360
C45 C 0.138300 0.111600 0.658320
C46 C 0.503400 0.323000 0.553300
C47 C -0.100800 0.257500 0.681600
Cl48 Cl 0.623510 0.085840 0.564880
Cl49 Cl -0.005140 0.017950 0.701190
N50 N 0.301400 0.072000 0.632050
N51 N 0.604900 0.377800 0.522500
N52 N -0.245000 0.287200 0.704100
C53 C 0.084900 0.641100 0.599300
C54 C 0.126600 0.752100 0.590540
C55 C 0.298500 0.791600 0.618210
H56 H 0.331300 0.865700 0.613900
C57 C 0.420900 0.719900 0.652360
C58 C 0.361700 0.611600 0.658320
C59 C -0.003400 0.823000 0.553300
C60 C 0.600800 0.757500 0.681600
Cl61 Cl -0.123510 0.585840 0.564880
Cl62 Cl 0.505140 0.517950 0.701190
N63 N 0.198600 0.572000 0.632050
N64 N -0.104900 0.877800 0.522500
N65 N 0.745000 0.787200 0.704100
C66 C 0.415100 0.358900 0.099300
C67 C 0.373400 0.247900 0.090540
C68 C 0.201500 0.208400 0.118210
H69 H 0.168700 0.134300 0.113900
C70 C 0.079100 0.280100 0.152360
C71 C 0.138300 0.388400 0.158320
C72 C 0.503400 0.177000 0.053300
C73 C -0.100800 0.242500 0.181600
Cl74 Cl 0.623510 0.414160 0.064880
Cl75 Cl -0.005140 0.482050 0.201190
N76 N 0.301400 0.428000 0.132050
N77 N 0.604900 0.122200 0.022500
N78 N -0.245000 0.212800 0.204100
C79 C 0.915100 0.141100 0.900700
C80 C 0.873400 0.252100 0.909460
C81 C 0.701500 0.291600 0.881790
H82 H 0.668700 0.365700 0.886100
C83 C 0.579100 0.219900 0.847640
C84 C 0.638300 0.111600 0.841680
C85 C 1.003400 0.323000 0.946700
C86 C 0.399200 0.257500 0.818400
Cl87 Cl 1.123510 0.085840 0.935120
Cl88 Cl 0.494860 0.017950 0.798810
N89 N 0.801400 0.072000 0.867950
N90 N 1.104900 0.377800 0.977500
N91 N 0.255000 0.287200 0.795900
C92 C 0.584900 0.858900 0.400700
C93 C 0.626600 0.747900 0.409460
C94 C 0.798500 0.708400 0.381790
H95 H 0.831300 0.634300 0.386100
C96 C 0.920900 0.780100 0.347640
C97 C 0.861700 0.888400 0.341680
C98 C 0.496600 0.677000 0.446700
C99 C 1.100800 0.742500 0.318400
Cl100 Cl 0.376490 0.914160 0.435120
Cl101 Cl 1.005140 0.982050 0.298810
N102 N 0.698600 0.928000 0.367950
N103 N 0.395100 0.622200 0.477500
N104 N 1.245000 0.712800 0.295900

#END
