
#######################################################################
#
#                 Cambridge Crystallographic Data Centre
#                                CCDC 
#
#######################################################################
#
# If this CIF has been generated from an entry in the Cambridge 
# Structural Database, then it will include bibliographic, chemical, 
# crystal, experimental, refinement or atomic coordinate data resulting 
# from the CCDC's data processing and validation procedures.
#
#######################################################################

data_KABBIA
_symmetry_cell_setting           orthorhombic
_symmetry_space_group_name_H-M   'P b c a'
_symmetry_Int_Tables_number      61
_space_group_name_Hall           '-P 2ac 2ab'
loop_
_symmetry_equiv_pos_site_id
_symmetry_equiv_pos_as_xyz
1 x,y,z
2 1/2-x,-y,1/2+z
3 -x,1/2+y,1/2-z
4 1/2+x,1/2-y,-z
5 -x,-y,-z
6 1/2+x,y,1/2-z
7 x,1/2-y,1/2+z
8 1/2-x,1/2+y,z
_cell_length_a                   6.8473(9)
_cell_length_b                   12.1307(15)
_cell_length_c                   19.430(3)
_cell_angle_alpha                90
_cell_angle_beta                 90
_cell_angle_gamma                90
_cell_volume                     1613.91
loop_
_atom_site_label
_atom_site_type_symbol
_atom_site_fract_x
_atom_site_fract_y
_atom_site_fract_z
C1 C 0.9151(5) 0.3589(3) 0.4007(2)
C2 C 0.8734(5) 0.2479(3) 0.40946(19)
C3 C 0.7015(5) 0.2084(3) 0.38179(18)
H1 H 0.6687 0.1343 0.3861
C4 C 0.5791(5) 0.2801(3) 0.34764(18)
C5 C 0.6383(6) 0.3884(3) 0.34168(19)
C6 C 1.0034(6) 0.1770(4) 0.4467(2)
C7 C 0.3992(6) 0.2425(3) 0.3184(2)
Cl1 Cl 1.12351(16) 0.41416(10) 0.43512(6)
Cl2 Cl 0.49486(18) 0.48205(10) 0.29881(6)
N1 N 0.8014(5) 0.4280(3) 0.36795(16)
N2 N 1.1049(6) 0.1222(3) 0.4775(2)
N3 N 0.2550(6) 0.2128(4) 0.29590(19)
C1 C 0.5849(5) 0.6411(3) 0.9007(2)
C2 C 0.6266(5) 0.7521(3) 0.90946(19)
C3 C 0.7985(5) 0.7916(3) 0.88179(18)
H1 H 0.8313 0.8657 0.8861
C4 C 0.9209(5) 0.7199(3) 0.84764(18)
C5 C 0.8617(6) 0.6116(3) 0.84168(19)
C6 C 0.4966(6) 0.8230(4) 0.9467(2)
C7 C 1.1008(6) 0.7575(3) 0.8184(2)
Cl1 Cl 0.37649(16) 0.58584(10) 0.93512(6)
Cl2 Cl 1.00514(18) 0.51795(10) 0.79881(6)
N1 N 0.6986(5) 0.5720(3) 0.86795(16)
N2 N 0.3951(6) 0.8778(3) 0.9775(2)
N3 N 1.2450(6) 0.7872(4) 0.79590(19)
C1 C 0.0849(5) 0.8589(3) 0.0993(2)
C2 C 0.1266(5) 0.7479(3) 0.09054(19)
C3 C 0.2985(5) 0.7084(3) 0.11821(18)
H1 H 0.3313 0.6343 0.1139
C4 C 0.4209(5) 0.7801(3) 0.15236(18)
C5 C 0.3617(6) 0.8884(3) 0.15832(19)
C6 C -0.0034(6) 0.6770(4) 0.0533(2)
C7 C 0.6008(6) 0.7425(3) 0.1816(2)
Cl1 Cl -0.12351(16) 0.91416(10) 0.06488(6)
Cl2 Cl 0.50514(18) 0.98205(10) 0.20119(6)
N1 N 0.1986(5) 0.9280(3) 0.13205(16)
N2 N -0.1049(6) 0.6222(3) 0.0225(2)
N3 N 0.7450(6) 0.7128(4) 0.20410(19)
C1 C 0.4151(5) 0.1411(3) 0.5993(2)
C2 C 0.3734(5) 0.2521(3) 0.59054(19)
C3 C 0.2015(5) 0.2916(3) 0.61821(18)
H1 H 0.1687 0.3657 0.6139
C4 C 0.0791(5) 0.2199(3) 0.65236(18)
C5 C 0.1383(6) 0.1116(3) 0.65832(19)
C6 C 0.5034(6) 0.3230(4) 0.5533(2)
C7 C -0.1008(6) 0.2575(3) 0.6816(2)
Cl1 Cl 0.62351(16) 0.08584(10) 0.56488(6)
Cl2 Cl -0.00514(18) 0.01795(10) 0.70119(6)
N1 N 0.3014(5) 0.0720(3) 0.63205(16)
N2 N 0.6049(6) 0.3778(3) 0.5225(2)
N3 N -0.2450(6) 0.2872(4) 0.70410(19)
C1 C 0.0849(5) 0.6411(3) 0.5993(2)
C2 C 0.1266(5) 0.7521(3) 0.59054(19)
C3 C 0.2985(5) 0.7916(3) 0.61821(18)
H1 H 0.3313 0.8657 0.6139
C4 C 0.4209(5) 0.7199(3) 0.65236(18)
C5 C 0.3617(6) 0.6116(3) 0.65832(19)
C6 C -0.0034(6) 0.8230(4) 0.5533(2)
C7 C 0.6008(6) 0.7575(3) 0.6816(2)
Cl1 Cl -0.12351(16) 0.58584(10) 0.56488(6)
Cl2 Cl 0.50514(18) 0.51795(10) 0.70119(6)
N1 N 0.1986(5) 0.5720(3) 0.63205(16)
N2 N -0.1049(6) 0.8778(3) 0.5225(2)
N3 N 0.7450(6) 0.7872(4) 0.70410(19)
C1 C 0.4151(5) 0.3589(3) 0.0993(2)
C2 C 0.3734(5) 0.2479(3) 0.09054(19)
C3 C 0.2015(5) 0.2084(3) 0.11821(18)
H1 H 0.1687 0.1343 0.1139
C4 C 0.0791(5) 0.2801(3) 0.15236(18)
C5 C 0.1383(6) 0.3884(3) 0.15832(19)
C6 C 0.5034(6) 0.1770(4) 0.0533(2)
C7 C -0.1008(6) 0.2425(3) 0.1816(2)
Cl1 Cl 0.62351(16) 0.41416(10) 0.06488(6)
Cl2 Cl -0.00514(18) 0.48205(10) 0.20119(6)
N1 N 0.3014(5) 0.4280(3) 0.13205(16)
N2 N 0.6049(6) 0.1222(3) 0.0225(2)
N3 N -0.2450(6) 0.2128(4) 0.20410(19)
C1 C 0.9151(5) 0.1411(3) 0.9007(2)
C2 C 0.8734(5) 0.2521(3) 0.90946(19)
C3 C 0.7015(5) 0.2916(3) 0.88179(18)
H1 H 0.6687 0.3657 0.8861
C4 C 0.5791(5) 0.2199(3) 0.84764(18)
C5 C 0.6383(6) 0.1116(3) 0.84168(19)
C6 C 1.0034(6) 0.3230(4) 0.9467(2)
C7 C 0.3992(6) 0.2575(3) 0.8184(2)
Cl1 Cl 1.12351(16) 0.08584(10) 0.93512(6)
Cl2 Cl 0.49486(18) 0.01795(10) 0.79881(6)
N1 N 0.8014(5) 0.0720(3) 0.86795(16)
N2 N 1.1049(6) 0.3778(3) 0.9775(2)
N3 N 0.2550(6) 0.2872(4) 0.79590(19)
C1 C 0.5849(5) 0.8589(3) 0.4007(2)
C2 C 0.6266(5) 0.7479(3) 0.40946(19)
C3 C 0.7985(5) 0.7084(3) 0.38179(18)
H1 H 0.8313 0.6343 0.3861
C4 C 0.9209(5) 0.7801(3) 0.34764(18)
C5 C 0.8617(6) 0.8884(3) 0.34168(19)
C6 C 0.4966(6) 0.6770(4) 0.4467(2)
C7 C 1.1008(6) 0.7425(3) 0.3184(2)
Cl1 Cl 0.37649(16) 0.91416(10) 0.43512(6)
Cl2 Cl 1.00514(18) 0.98205(10) 0.29881(6)
N1 N 0.6986(5) 0.9280(3) 0.36795(16)
N2 N 0.3951(6) 0.6222(3) 0.4775(2)
N3 N 1.2450(6) 0.7128(4) 0.29590(19)

#END
