./KABCOH_from_xyz.cif_generated_by_CrystalShift
_symmetry_cell_setting triclinic
_symmetry_space_group_name_H-M 'P 1'
loop_
_symmetry_equiv_pos_site_id
_symmetry_equiv_pos_as_xyz
1 x,y,z
_cell_length_a 12.208000
_cell_length_b 13.931000
_cell_length_c 14.537000
_cell_angle_alpha 62.405000
_cell_angle_beta 74.412000
_cell_angle_gamma 72.171000
_cell_volume 2062.109949
loop_
_atom_site_label
_atom_site_type_symbol
_atom_site_fract_x
_atom_site_fract_y
_atom_site_fract_z
O1 O 1.164380 0.473860 0.111830
O2 O 1.073170 0.423690 0.305770
H3 H 1.041900 0.421200 0.364100
O4 O 0.855120 0.518990 0.365720
O5 O 0.603310 0.984550 -0.260440
O6 O 0.434910 1.083060 -0.293720
O7 O 0.108000 1.079850 -0.031460
O8 O 0.130710 0.995030 0.132330
N9 N 0.697820 0.773140 0.016600
N10 N 0.637990 0.844730 -0.066800
H11 H 0.672200 0.861200 -0.130500
N12 N 0.499850 1.013770 -0.231980
N13 N 0.167780 1.018690 0.038470
C14 C 0.987290 0.606790 0.049990
H15 H 1.019200 0.625300 -0.020300
C16 C 1.052640 0.529300 0.127640
C17 C 1.004730 0.501200 0.233270
C18 C 0.890930 0.552580 0.259850
C19 C 0.826870 0.629890 0.182040
H20 H 0.751300 0.664500 0.199700
C21 C 0.873950 0.657030 0.076820
C22 C 1.224600 0.505720 0.006830
H23 H 1.302500 0.461900 0.007100
H24 H 1.227000 0.582700 -0.022800
H25 H 1.184700 0.494000 -0.034500
C26 C 0.739800 0.566720 0.399430
H27 H 0.726300 0.538500 0.474600
H28 H 0.685300 0.548000 0.376800
H29 H 0.730000 0.645800 0.369600
C30 C 0.804940 0.733860 -0.006210
H31 H 0.839100 0.754300 -0.076100
C32 C 0.524550 0.887910 -0.045310
C33 C 0.453130 0.967130 -0.121190
C34 C 0.337270 1.008410 -0.093680
H35 H 0.292200 1.060000 -0.145500
C36 C 0.289120 0.973830 0.008740
C37 C 0.355230 0.896550 0.086880
H38 H 0.321600 0.873400 0.157100
C39 C 0.469070 0.854920 0.060460
H40 H 0.512200 0.802900 0.113600
O41 O -0.164380 0.526140 0.888170
O42 O -0.073170 0.576310 0.694230
H43 H -0.041900 0.578800 0.635900
O44 O 0.144880 0.481010 0.634280
O45 O 0.396690 0.015450 1.260440
O46 O 0.565090 -0.083060 1.293720
O47 O 0.892000 -0.079850 1.031460
O48 O 0.869290 0.004970 0.867670
N49 N 0.302180 0.226860 0.983400
N50 N 0.362010 0.155270 1.066800
H51 H 0.327800 0.138800 1.130500
N52 N 0.500150 -0.013770 1.231980
N53 N 0.832220 -0.018690 0.961530
C54 C 0.012710 0.393210 0.950010
H55 H -0.019200 0.374700 1.020300
C56 C -0.052640 0.470700 0.872360
C57 C -0.004730 0.498800 0.766730
C58 C 0.109070 0.447420 0.740150
C59 C 0.173130 0.370110 0.817960
H60 H 0.248700 0.335500 0.800300
C61 C 0.126050 0.342970 0.923180
C62 C -0.224600 0.494280 0.993170
H63 H -0.302500 0.538100 0.992900
H64 H -0.227000 0.417300 1.022800
H65 H -0.184700 0.506000 1.034500
C66 C 0.260200 0.433280 0.600570
H67 H 0.273700 0.461500 0.525400
H68 H 0.314700 0.452000 0.623200
H69 H 0.270000 0.354200 0.630400
C70 C 0.195060 0.266140 1.006210
H71 H 0.160900 0.245700 1.076100
C72 C 0.475450 0.112090 1.045310
C73 C 0.546870 0.032870 1.121190
C74 C 0.662730 -0.008410 1.093680
H75 H 0.707800 -0.060000 1.145500
C76 C 0.710880 0.026170 0.991260
C77 C 0.644770 0.103450 0.913120
H78 H 0.678400 0.126600 0.842900
C79 C 0.530930 0.145080 0.939540
H80 H 0.487800 0.197100 0.886400
O81 O 0.601100 -0.203030 0.616120
O82 O 0.509930 -0.258380 0.810970
H83 H 0.472500 -0.277900 0.870200
O84 O 0.279840 -0.197780 0.872890
O85 O 0.000600 0.226340 0.253710
O86 O -0.161480 0.342660 0.224120
O87 O -0.437790 0.282310 0.657790
O88 O -0.467690 0.366400 0.496230
N89 N 0.118110 0.050580 0.526780
N90 N 0.056460 0.121240 0.445020
H91 H 0.088400 0.136900 0.380800
N92 N -0.094800 0.272390 0.284520
N93 N -0.405700 0.304400 0.564300
C94 C 0.413920 -0.101120 0.556710
H95 H 0.445900 -0.082600 0.486500
C96 C 0.483560 -0.166020 0.634320
C97 C 0.436040 -0.196130 0.739280
C98 C 0.316790 -0.161040 0.767100
C99 C 0.248100 -0.094580 0.690010
H100 H 0.169000 -0.069800 0.708300
C101 C 0.296420 -0.063990 0.584210
C102 C 0.650800 -0.208190 0.517180
H103 H 0.731400 -0.244600 0.518100
H104 H 0.644100 -0.134400 0.462500
H105 H 0.610200 -0.249000 0.504500
C106 C 0.159560 -0.162950 0.907090
H107 H 0.144500 -0.195400 0.982400
H108 H 0.113300 -0.186400 0.880500
H109 H 0.139900 -0.083600 0.881400
C110 C 0.224550 0.009840 0.502370
H111 H 0.256300 0.027300 0.432200
C112 C -0.055890 0.164670 0.469940
C113 C -0.130910 0.241090 0.395920
C114 C -0.244290 0.285740 0.427270
H115 H -0.291900 0.336400 0.377200
C116 C -0.286550 0.255940 0.531000
C117 C -0.217830 0.177830 0.606490
H118 H -0.248400 0.155600 0.677400
C119 C -0.106410 0.133970 0.577040
H120 H -0.061300 0.082000 0.628700
O121 O 0.398900 1.203030 0.383880
O122 O 0.490070 1.258380 0.189030
H123 H 0.527500 1.277900 0.129800
O124 O 0.720160 1.197780 0.127110
O125 O 0.999400 0.773660 0.746290
O126 O 1.161480 0.657340 0.775880
O127 O 1.437790 0.717690 0.342210
O128 O 1.467690 0.633600 0.503770
N129 N 0.881890 0.949420 0.473220
N130 N 0.943540 0.878760 0.554980
H131 H 0.911600 0.863100 0.619200
N132 N 1.094800 0.727610 0.715480
N133 N 1.405700 0.695600 0.435700
C134 C 0.586080 1.101120 0.443290
H135 H 0.554100 1.082600 0.513500
C136 C 0.516440 1.166020 0.365680
C137 C 0.563960 1.196130 0.260720
C138 C 0.683210 1.161040 0.232900
C139 C 0.751900 1.094580 0.309990
H140 H 0.831000 1.069800 0.291700
C141 C 0.703580 1.063990 0.415790
C142 C 0.349200 1.208190 0.482820
H143 H 0.268600 1.244600 0.481900
H144 H 0.355900 1.134400 0.537500
H145 H 0.389800 1.249000 0.495500
C146 C 0.840440 1.162950 0.092910
H147 H 0.855500 1.195400 0.017600
H148 H 0.886700 1.186400 0.119500
H149 H 0.860100 1.083600 0.118600
C150 C 0.775450 0.990160 0.497630
H151 H 0.743700 0.972700 0.567800
C152 C 1.055890 0.835330 0.530060
C153 C 1.130910 0.758910 0.604080
C154 C 1.244290 0.714260 0.572730
H155 H 1.291900 0.663600 0.622800
C156 C 1.286550 0.744060 0.469000
C157 C 1.217830 0.822170 0.393510
H158 H 1.248400 0.844400 0.322600
C159 C 1.106410 0.866030 0.422960
H160 H 1.061300 0.918000 0.371300
O161 O 0.483260 0.642630 0.015170
N162 N 0.442360 0.538970 0.187640
C163 C 0.362100 0.478500 0.272100
H164 H 0.295800 0.484300 0.244900
H165 H 0.337200 0.509000 0.323400
H166 H 0.399900 0.402000 0.304300
C167 C 0.554860 0.527100 0.209190
H168 H 0.594300 0.580400 0.150600
H169 H 0.599600 0.453700 0.220600
H170 H 0.546000 0.539400 0.270800
C171 C 0.418900 0.596400 0.090300
H172 H 0.345400 0.601100 0.079600
O173 O 0.516740 0.357370 0.984830
N174 N 0.557640 0.461030 0.812360
C175 C 0.637900 0.521500 0.727900
H176 H 0.704200 0.515700 0.755100
H177 H 0.662800 0.491000 0.676600
H178 H 0.600100 0.598000 0.695700
C179 C 0.445140 0.472900 0.790810
H180 H 0.405700 0.419600 0.849400
H181 H 0.400400 0.546300 0.779400
H182 H 0.454000 0.460600 0.729200
C183 C 0.581100 0.403600 0.909700
H184 H 0.654600 0.398900 0.920400
O185 O 1.054190 0.350790 0.509020
N186 N 0.992560 0.276100 0.683630
C187 C 1.089800 0.184110 0.705000
H188 H 1.126200 0.174700 0.641500
H189 H 1.063600 0.118100 0.756400
H190 H 1.145000 0.197800 0.731400
C191 C 0.905300 0.282100 0.772900
H192 H 0.843900 0.346000 0.748700
H193 H 0.940700 0.287700 0.821200
H194 H 0.873900 0.216400 0.807500
C195 C 0.984300 0.351000 0.586400
H196 H 0.919300 0.409000 0.576100
O197 O -0.054190 0.649210 0.490980
N198 N 0.007440 0.723900 0.316370
C199 C -0.089800 0.815890 0.295000
H200 H -0.126200 0.825300 0.358500
H201 H -0.063600 0.881900 0.243600
H202 H -0.145000 0.802200 0.268600
C203 C 0.094700 0.717900 0.227100
H204 H 0.156100 0.654000 0.251300
H205 H 0.059300 0.712300 0.178800
H206 H 0.126100 0.783600 0.192500
C207 C 0.015700 0.649000 0.413600
H208 H 0.080700 0.591000 0.423900
O209 O 0.236210 0.224740 0.250400
H210 H 0.297900 0.221100 0.268600
H211 H 0.197800 0.290000 0.236500
O212 O 0.763790 0.775260 0.749600
H213 H 0.702100 0.778900 0.731400
H214 H 0.802200 0.710000 0.763500

#END
