
#######################################################################
#
#                 Cambridge Crystallographic Data Centre
#                                CCDC 
#
#######################################################################
#
# If this CIF has been generated from an entry in the Cambridge 
# Structural Database, then it will include bibliographic, chemical, 
# crystal, experimental, refinement or atomic coordinate data resulting 
# from the CCDC's data processing and validation procedures.
#
#######################################################################

data_KABDUP
_symmetry_cell_setting           triclinic
_symmetry_space_group_name_H-M   'P 1'
_symmetry_Int_Tables_number      1
_space_group_name_Hall           'P 1'
loop_
_symmetry_equiv_pos_site_id
_symmetry_equiv_pos_as_xyz
1 x,y,z
_cell_length_a                   6.1294(2)
_cell_length_b                   6.1492(2)
_cell_length_c                   15.9024(7)
_cell_angle_alpha                90.341(3)
_cell_angle_beta                 100.911(3)
_cell_angle_gamma                106.244(3)
_cell_volume                     563.942
loop_
_atom_site_label
_atom_site_type_symbol
_atom_site_fract_x
_atom_site_fract_y
_atom_site_fract_z
C1 C 0.9154(2) -0.0137(2) 0.51292(8)
H1 H 0.7633 -0.1093 0.4855
H2 H 1.0291 -0.0589 0.4875
C2 C 1.4622(3) 0.1104(3) 0.78257(10)
H3 H 1.4790 0.0437 0.8370
H4 H 1.5116 0.2728 0.7914
H5 H 1.5555 0.0636 0.7480
C3 C 0.9560(2) -0.0577(2) 0.60808(8)
H6 H 0.8355 -0.0261 0.6336
H7 H 0.9498 -0.2158 0.6150
C4 C 1.1903(2) 0.0924(2) 0.65268(8)
H8 H 1.3104 0.0603 0.6259
C5 C 1.1973(2) 0.3407(2) 0.64290(8)
H9 H 1.0827 0.3751 0.6711
H10 H 1.3488 0.4369 0.6706
C6 C 1.1489(2) 0.3912(2) 0.54937(8)
C7 C 1.2930(2) 0.5636(2) 0.51940(8)
H11 H 1.4210 0.6518 0.5582
C8 C 1.2646(2) 0.6261(2) 0.42805(8)
H12 H 1.3785 0.5834 0.4018
H13 H 1.2950 0.7894 0.4267
C9 C 1.0224(2) 0.5117(2) 0.37526(8)
H14 H 0.9139 0.5908 0.3889
C10 C 0.9417(2) 0.2623(2) 0.39687(8)
H15 H 1.0607 0.1933 0.3862
C11 C 0.9298(2) 0.2351(2) 0.49323(8)
C12 C 0.7160(2) 0.1325(2) 0.33577(8)
H16 H 0.5898 0.1839 0.3492
H17 H 0.6835 -0.0276 0.3461
C13 C 0.7206(2) 0.1607(2) 0.24011(8)
H18 H 0.8301 0.0889 0.2241
H19 H 0.5684 0.0851 0.2062
C14 C 0.7893(2) 0.4110(2) 0.22013(8)
C15 C 1.0250(2) 0.5214(2) 0.27996(8)
H20 H 1.1281 0.4328 0.2690
C16 C 1.1145(2) 0.7525(2) 0.24452(8)
H21 H 1.2825 0.8059 0.2588
H22 H 1.0518 0.8639 0.2670
C17 C 1.0272(2) 0.7080(2) 0.14656(8)
H23 H 1.1563 0.7217 0.1179
H24 H 0.9454 0.8160 0.1241
C18 C 0.8611(2) 0.4621(2) 0.13223(8)
H25 H 0.9568 0.3627 0.1243
C19 C 0.6031(2) 0.5230(2) 0.23300(8)
H26 H 0.6497 0.6794 0.2199
H27 H 0.5840 0.5135 0.2915
H28 H 0.4590 0.4462 0.1956
C20 C 0.7187(2) 0.2955(2) 0.51505(8)
H29 H 0.7155 0.4413 0.4946
H30 H 0.7298 0.2998 0.5761
H31 H 0.5791 0.1829 0.4880
C21 C 0.6748(2) 0.4294(2) 0.04899(8)
C22 C 0.5096(2) 0.1884(2) 0.03577(9)
H32 H 0.4130 0.1680 -0.0204
H33 H 0.4143 0.1653 0.0782
H34 H 0.5978 0.0808 0.0412
C23 C 0.8018(2) 0.4797(2) -0.02591(8)
C24 C 0.9302(2) 0.3439(2) -0.04976(9)
H35 H 0.9399 0.2151 -0.0207
C25 C 1.0430(3) 0.4035(3) -0.11736(9)
H36 H 1.1290 0.3148 -0.1346
C26 C 1.0262(3) 0.5968(3) -0.15907(10)
H37 H 1.1018 0.6415 -0.2043
C27 C 0.8946(3) 0.7212(3) -0.13178(10)
H38 H 0.8828 0.8509 -0.1599
N1 N 0.7827(2) 0.6648(2) -0.06678(8)
O1 O 1.22712(17) 0.03842(17) 0.74028(6)
O2 O 0.53903(17) 0.58186(18) 0.05043(7)
H39 H 0.562(4) 0.656(4) 0.0114(15)

#END
