
#######################################################################
#
#                 Cambridge Crystallographic Data Centre
#                                CCDC 
#
#######################################################################
#
# If this CIF has been generated from an entry in the Cambridge 
# Structural Database, then it will include bibliographic, chemical, 
# crystal, experimental, refinement or atomic coordinate data resulting 
# from the CCDC's data processing and validation procedures.
#
#######################################################################

data_KABFEB
_symmetry_cell_setting           orthorhombic
_symmetry_space_group_name_H-M   'P 21 21 21'
_symmetry_Int_Tables_number      19
_space_group_name_Hall           'P 2ac 2ab'
loop_
_symmetry_equiv_pos_site_id
_symmetry_equiv_pos_as_xyz
1 x,y,z
2 1/2-x,-y,1/2+z
3 1/2+x,1/2-y,-z
4 -x,1/2+y,1/2-z
_cell_length_a                   6.20811(17)
_cell_length_b                   11.6297(3)
_cell_length_c                   29.9007(7)
_cell_angle_alpha                90
_cell_angle_beta                 90
_cell_angle_gamma                90
_cell_volume                     2158.78
loop_
_atom_site_label
_atom_site_type_symbol
_atom_site_fract_x
_atom_site_fract_y
_atom_site_fract_z
C1 C 0.3280(4) 0.7573(2) 0.93114(7)
C2 C 0.4601(4) 0.7038(2) 0.96622(7)
H1 H 0.4674 0.7382 0.9943
C3 C 0.5691(4) 0.6078(2) 0.95879(7)
H2 H 0.6439 0.5736 0.9822
C4 C 0.5745(4) 0.55301(19) 0.91352(7)
H3 H 0.4709 0.4906 0.9126
H4 H 0.7164 0.5207 0.9084
C5 C 0.5223(3) 0.63931(19) 0.87621(7)
C6 C 0.4505(3) 0.57534(18) 0.83353(6)
H5 H 0.5647 0.5195 0.8272
C7 C 0.2419(3) 0.5029(2) 0.84146(7)
H6 H 0.2786 0.4254 0.8507
H7 H 0.1537 0.5379 0.8645
C8 C 0.1200(3) 0.5006(2) 0.79654(7)
H8 H 0.0752 0.4231 0.7890
H9 H -0.0061 0.5499 0.7976
C9 C 0.2841(3) 0.54566(18) 0.76288(6)
H10 H 0.3867 0.4828 0.7581
C10 C 0.4091(3) 0.63984(18) 0.78854(6)
C11 C 0.6096(3) 0.6654(2) 0.75991(7)
H11 H 0.6918 0.7267 0.7738
H12 H 0.7002 0.5975 0.7589
C12 C 0.5493(3) 0.70082(19) 0.71199(6)
H13 H 0.6805 0.7097 0.6947
H14 H 0.4785 0.7751 0.7130
C13 C 0.4007(3) 0.61515(18) 0.68758(6)
H15 H 0.4856 0.5450 0.6833
C14 C 0.2060(3) 0.58059(18) 0.71667(6)
H16 H 0.1104 0.6472 0.7197
C15 C 0.0815(4) 0.48295(18) 0.69446(6)
H17 H 0.1544 0.4109 0.7006
H18 H -0.0611 0.4787 0.7076
C16 C 0.0594(3) 0.49676(18) 0.64498(7)
H19 H -0.0361 0.4482 0.6302
C17 C 0.1659(3) 0.57320(18) 0.62043(6)
C18 C 0.3323(3) 0.65551(19) 0.64018(7)
C19 C 0.5329(4) 0.6543(2) 0.60942(7)
H20 H 0.6324 0.7131 0.6195
H21 H 0.6044 0.5806 0.6125
C20 C 0.4834(4) 0.6747(2) 0.55991(7)
H22 H 0.4214 0.7506 0.5561
H23 H 0.6158 0.6712 0.5427
C21 C 0.3274(3) 0.5847(2) 0.54293(6)
H24 H 0.3955 0.5088 0.5447
C22 C 0.1228(3) 0.5843(2) 0.57062(6)
H25 H 0.0325 0.5208 0.5611
H26 H 0.0443 0.6550 0.5651
C23 C 0.4241(4) 0.5779(3) 0.46603(7)
H27 H 0.5552 0.6173 0.4735
H28 H 0.3779 0.6009 0.4367
H29 H 0.4487 0.4964 0.4664
C24 C 0.7129(4) 0.7192(2) 0.86867(7)
H30 H 0.6726 0.7789 0.8481
H31 H 0.8312 0.6762 0.8565
H32 H 0.7553 0.7529 0.8966
C25 C 0.2733(3) 0.74913(18) 0.79469(7)
H33 H 0.2329 0.7788 0.7659
H34 H 0.3561 0.8058 0.8105
H35 H 0.1461 0.7311 0.8115
C26 C 0.2322(4) 0.77664(19) 0.64138(7)
H36 H 0.1210 0.7791 0.6637
H37 H 0.1715 0.7943 0.6127
H38 H 0.3415 0.8320 0.6486
O1 O 0.2011(3) 0.83322(16) 0.93797(5)
O2 O 0.3375(2) 0.71131(13) 0.88960(4)
O3 O 0.2631(3) 0.60616(15) 0.49758(5)
C1 C 0.1720(4) 0.2427(2) 0.43114(7)
C2 C 0.0399(4) 0.2962(2) 0.46622(7)
H1 H 0.0326 0.2618 0.4943
C3 C -0.0691(4) 0.3922(2) 0.45879(7)
H2 H -0.1439 0.4264 0.4822
C4 C -0.0745(4) 0.44699(19) 0.41352(7)
H3 H 0.0291 0.5094 0.4126
H4 H -0.2164 0.4793 0.4084
C5 C -0.0223(3) 0.36069(19) 0.37621(7)
C6 C 0.0495(3) 0.42466(18) 0.33353(6)
H5 H -0.0647 0.4805 0.3272
C7 C 0.2581(3) 0.4971(2) 0.34146(7)
H6 H 0.2214 0.5746 0.3507
H7 H 0.3463 0.4621 0.3645
C8 C 0.3800(3) 0.4994(2) 0.29654(7)
H8 H 0.4248 0.5769 0.2890
H9 H 0.5061 0.4501 0.2976
C9 C 0.2159(3) 0.45434(18) 0.26288(6)
H10 H 0.1133 0.5172 0.2581
C10 C 0.0909(3) 0.36016(18) 0.28854(6)
C11 C -0.1096(3) 0.3346(2) 0.25991(7)
H11 H -0.1918 0.2733 0.2738
H12 H -0.2002 0.4025 0.2589
C12 C -0.0493(3) 0.29918(19) 0.21199(6)
H13 H -0.1805 0.2903 0.1947
H14 H 0.0215 0.2249 0.2130
C13 C 0.0993(3) 0.38485(18) 0.18758(6)
H15 H 0.0144 0.4550 0.1833
C14 C 0.2940(3) 0.41941(18) 0.21667(6)
H16 H 0.3896 0.3528 0.2197
C15 C 0.4185(4) 0.51705(18) 0.19446(6)
H17 H 0.3456 0.5891 0.2006
H18 H 0.5611 0.5213 0.2076
C16 C 0.4406(3) 0.50324(18) 0.14498(7)
H19 H 0.5361 0.5518 0.1302
C17 C 0.3341(3) 0.42680(18) 0.12043(6)
C18 C 0.1677(3) 0.34449(19) 0.14018(7)
C19 C -0.0329(4) 0.3457(2) 0.10942(7)
H20 H -0.1324 0.2869 0.1195
H21 H -0.1044 0.4194 0.1125
C20 C 0.0166(4) 0.3253(2) 0.05991(7)
H22 H 0.0786 0.2494 0.0561
H23 H -0.1158 0.3288 0.0427
C21 C 0.1726(3) 0.4153(2) 0.04293(6)
H24 H 0.1045 0.4912 0.0447
C22 C 0.3772(3) 0.4157(2) 0.07062(6)
H25 H 0.4675 0.4792 0.0611
H26 H 0.4557 0.3450 0.0651
C23 C 0.0759(4) 0.4221(3) -0.03397(7)
H27 H -0.0552 0.3827 -0.0265
H28 H 0.1221 0.3991 -0.0633
H29 H 0.0513 0.5036 -0.0336
C24 C -0.2129(4) 0.2808(2) 0.36867(7)
H30 H -0.1726 0.2211 0.3481
H31 H -0.3312 0.3238 0.3565
H32 H -0.2553 0.2471 0.3966
C25 C 0.2267(3) 0.25087(18) 0.29469(7)
H33 H 0.2671 0.2212 0.2659
H34 H 0.1439 0.1942 0.3105
H35 H 0.3539 0.2689 0.3115
C26 C 0.2678(4) 0.22336(19) 0.14138(7)
H36 H 0.3790 0.2209 0.1637
H37 H 0.3285 0.2057 0.1127
H38 H 0.1585 0.1680 0.1486
O1 O 0.2989(3) 0.16678(16) 0.43797(5)
O2 O 0.1625(2) 0.28869(13) 0.38960(4)
O3 O 0.2369(3) 0.39384(15) -0.00242(5)
C1 C 0.8280(4) 0.7427(2) 0.06886(7)
C2 C 0.9601(4) 0.7962(2) 0.03378(7)
H1 H 0.9674 0.7618 0.0057
C3 C 1.0691(4) 0.8922(2) 0.04121(7)
H2 H 1.1439 0.9264 0.0178
C4 C 1.0745(4) 0.94699(19) 0.08648(7)
H3 H 0.9709 1.0094 0.0874
H4 H 1.2164 0.9793 0.0916
C5 C 1.0223(3) 0.86069(19) 0.12379(7)
C6 C 0.9505(3) 0.92466(18) 0.16647(6)
H5 H 1.0647 0.9805 0.1728
C7 C 0.7419(3) 0.9971(2) 0.15854(7)
H6 H 0.7786 1.0746 0.1493
H7 H 0.6537 0.9621 0.1355
C8 C 0.6200(3) 0.9994(2) 0.20346(7)
H8 H 0.5752 1.0769 0.2110
H9 H 0.4939 0.9501 0.2024
C9 C 0.7841(3) 0.95434(18) 0.23712(6)
H10 H 0.8867 1.0172 0.2419
C10 C 0.9091(3) 0.86016(18) 0.21146(6)
C11 C 1.1096(3) 0.8346(2) 0.24009(7)
H11 H 1.1918 0.7733 0.2262
H12 H 1.2002 0.9025 0.2411
C12 C 1.0493(3) 0.79918(19) 0.28801(6)
H13 H 1.1805 0.7903 0.3053
H14 H 0.9785 0.7249 0.2870
C13 C 0.9007(3) 0.88485(18) 0.31242(6)
H15 H 0.9856 0.9550 0.3167
C14 C 0.7060(3) 0.91941(18) 0.28333(6)
H16 H 0.6104 0.8528 0.2803
C15 C 0.5815(4) 1.01705(18) 0.30554(6)
H17 H 0.6544 1.0891 0.2994
H18 H 0.4389 1.0213 0.2924
C16 C 0.5594(3) 1.00324(18) 0.35502(7)
H19 H 0.4639 1.0518 0.3698
C17 C 0.6659(3) 0.92680(18) 0.37957(6)
C18 C 0.8323(3) 0.84449(19) 0.35982(7)
C19 C 1.0329(4) 0.8457(2) 0.39058(7)
H20 H 1.1324 0.7869 0.3805
H21 H 1.1044 0.9194 0.3875
C20 C 0.9834(4) 0.8253(2) 0.44009(7)
H22 H 0.9214 0.7494 0.4439
H23 H 1.1158 0.8288 0.4573
C21 C 0.8274(3) 0.9153(2) 0.45707(6)
H24 H 0.8955 0.9912 0.4553
C22 C 0.6228(3) 0.9157(2) 0.42938(6)
H25 H 0.5325 0.9792 0.4389
H26 H 0.5443 0.8450 0.4349
C23 C 0.9241(4) 0.9221(3) 0.53397(7)
H27 H 1.0552 0.8827 0.5265
H28 H 0.8779 0.8991 0.5633
H29 H 0.9487 1.0036 0.5336
C24 C 1.2129(4) 0.7808(2) 0.13133(7)
H30 H 1.1726 0.7211 0.1519
H31 H 1.3312 0.8238 0.1435
H32 H 1.2553 0.7471 0.1034
C25 C 0.7733(3) 0.75087(18) 0.20531(7)
H33 H 0.7329 0.7212 0.2341
H34 H 0.8561 0.6942 0.1895
H35 H 0.6461 0.7689 0.1885
C26 C 0.7322(4) 0.72336(19) 0.35862(7)
H36 H 0.6210 0.7209 0.3363
H37 H 0.6715 0.7057 0.3873
H38 H 0.8415 0.6680 0.3514
O1 O 0.7011(3) 0.66678(16) 0.06203(5)
O2 O 0.8375(2) 0.78869(13) 0.11040(4)
O3 O 0.7631(3) 0.89384(15) 0.50242(5)
C1 C 0.6720(4) 0.2573(2) 0.56886(7)
C2 C 0.5399(4) 0.2038(2) 0.53378(7)
H1 H 0.5326 0.2382 0.5057
C3 C 0.4309(4) 0.1078(2) 0.54121(7)
H2 H 0.3561 0.0736 0.5178
C4 C 0.4255(4) 0.05301(19) 0.58648(7)
H3 H 0.5291 -0.0094 0.5874
H4 H 0.2836 0.0207 0.5916
C5 C 0.4777(3) 0.13931(19) 0.62379(7)
C6 C 0.5495(3) 0.07534(18) 0.66647(6)
H5 H 0.4353 0.0195 0.6728
C7 C 0.7581(3) 0.0029(2) 0.65854(7)
H6 H 0.7214 -0.0746 0.6493
H7 H 0.8463 0.0379 0.6355
C8 C 0.8800(3) 0.0006(2) 0.70346(7)
H8 H 0.9248 -0.0769 0.7110
H9 H 1.0061 0.0499 0.7024
C9 C 0.7159(3) 0.04566(18) 0.73712(6)
H10 H 0.6133 -0.0172 0.7419
C10 C 0.5909(3) 0.13984(18) 0.71146(6)
C11 C 0.3904(3) 0.1654(2) 0.74009(7)
H11 H 0.3082 0.2267 0.7262
H12 H 0.2998 0.0975 0.7411
C12 C 0.4507(3) 0.20082(19) 0.78801(6)
H13 H 0.3195 0.2097 0.8053
H14 H 0.5215 0.2751 0.7870
C13 C 0.5993(3) 0.11515(18) 0.81242(6)
H15 H 0.5144 0.0450 0.8167
C14 C 0.7940(3) 0.08059(18) 0.78333(6)
H16 H 0.8896 0.1472 0.7803
C15 C 0.9185(4) -0.01705(18) 0.80554(6)
H17 H 0.8456 -0.0891 0.7994
H18 H 1.0611 -0.0213 0.7924
C16 C 0.9406(3) -0.00324(18) 0.85502(7)
H19 H 1.0361 -0.0518 0.8698
C17 C 0.8341(3) 0.07320(18) 0.87957(6)
C18 C 0.6677(3) 0.15551(19) 0.85982(7)
C19 C 0.4671(4) 0.1543(2) 0.89058(7)
H20 H 0.3676 0.2131 0.8805
H21 H 0.3956 0.0806 0.8875
C20 C 0.5166(4) 0.1747(2) 0.94009(7)
H22 H 0.5786 0.2506 0.9439
H23 H 0.3842 0.1712 0.9573
C21 C 0.6726(3) 0.0847(2) 0.95707(6)
H24 H 0.6045 0.0088 0.9553
C22 C 0.8772(3) 0.0843(2) 0.92938(6)
H25 H 0.9675 0.0208 0.9389
H26 H 0.9557 0.1550 0.9349
C23 C 0.5759(4) 0.0779(3) 1.03397(7)
H27 H 0.4448 0.1173 1.0265
H28 H 0.6221 0.1009 1.0633
H29 H 0.5513 -0.0036 1.0336
C24 C 0.2871(4) 0.2192(2) 0.63133(7)
H30 H 0.3274 0.2789 0.6519
H31 H 0.1688 0.1762 0.6435
H32 H 0.2447 0.2529 0.6034
C25 C 0.7267(3) 0.24913(18) 0.70531(7)
H33 H 0.7671 0.2788 0.7341
H34 H 0.6439 0.3058 0.6895
H35 H 0.8539 0.2311 0.6885
C26 C 0.7678(4) 0.27664(19) 0.85862(7)
H36 H 0.8790 0.2791 0.8363
H37 H 0.8285 0.2943 0.8873
H38 H 0.6585 0.3320 0.8514
O1 O 0.7989(3) 0.33322(16) 0.56203(5)
O2 O 0.6625(2) 0.21131(13) 0.61040(4)
O3 O 0.7369(3) 0.10616(15) 1.00242(5)

#END
