./KABGIF_from_xyz.cif_generated_by_CrystalShift
_symmetry_cell_setting triclinic
_symmetry_space_group_name_H-M 'P 1'
loop_
_symmetry_equiv_pos_site_id
_symmetry_equiv_pos_as_xyz
1 x,y,z
_cell_length_a 8.598300
_cell_length_b 14.698200
_cell_length_c 13.209600
_cell_angle_alpha 90.000000
_cell_angle_beta 107.860000
_cell_angle_gamma 90.000000
_cell_volume 1588.971512
loop_
_atom_site_label
_atom_site_type_symbol
_atom_site_fract_x
_atom_site_fract_y
_atom_site_fract_z
O1 O 0.358300 0.282710 1.407730
O2 O 0.413380 0.170340 1.517010
O3 O 0.947600 -0.070610 0.712580
O4 O 0.845020 0.093030 0.627390
O5 O 1.108490 0.127480 0.703450
N6 N 0.663290 0.009190 1.157740
H7 H 0.692500 -0.046100 1.175000
N8 N 0.680440 0.044520 1.065960
N9 N 0.412100 0.206430 1.432520
C10 C 0.605700 0.023530 1.321250
H11 H 0.650400 -0.033900 1.340800
C12 C 0.545200 0.071930 1.389040
H13 H 0.549500 0.047800 1.454900
C14 C 0.477700 0.156620 1.359650
C15 C 0.469100 0.193050 1.261470
H16 H 0.421500 0.249800 1.241600
C17 C 0.531100 0.145030 1.193760
H18 H 0.526600 0.169600 1.128000
C19 C 0.600600 0.060100 1.222530
C20 C 0.748300 -0.007330 1.014370
H21 H 0.780600 -0.065400 1.040300
C22 C 0.776700 0.021820 0.916250
C23 C 0.850460 -0.038500 0.864400
H24 H 0.882200 -0.095600 0.893900
C25 C 0.877700 -0.015520 0.769710
C26 C 0.829400 0.069630 0.727610
C27 C 0.756500 0.130130 0.777140
H28 H 0.724600 0.187000 0.747200
C29 C 0.730000 0.106650 0.872040
H30 H 0.680900 0.147900 0.906100
C31 C 0.993600 -0.159540 0.752850
H32 H 1.041900 -0.191300 0.706500
H33 H 0.898700 -0.192000 0.756700
H34 H 1.071400 -0.155400 0.822600
C35 C 0.993500 0.121760 0.625570
C36 C 0.990700 0.145110 0.515090
H37 H 0.903000 0.186800 0.484500
H38 H 0.974800 0.090700 0.472900
H39 H 1.092700 0.172800 0.516800
O40 O 0.641700 0.782710 0.092270
O41 O 0.586620 0.670340 -0.017010
O42 O 0.052400 0.429390 0.787420
O43 O 0.154980 0.593030 0.872610
O44 O -0.108490 0.627480 0.796550
N45 N 0.336710 0.509190 0.342260
H46 H 0.307500 0.453900 0.325000
N47 N 0.319560 0.544520 0.434040
N48 N 0.587900 0.706430 0.067480
C49 C 0.394300 0.523530 0.178750
H50 H 0.349600 0.466100 0.159200
C51 C 0.454800 0.571930 0.110960
H52 H 0.450500 0.547800 0.045100
C53 C 0.522300 0.656620 0.140350
C54 C 0.530900 0.693050 0.238530
H55 H 0.578500 0.749800 0.258400
C56 C 0.468900 0.645030 0.306240
H57 H 0.473400 0.669600 0.372000
C58 C 0.399400 0.560100 0.277470
C59 C 0.251700 0.492670 0.485630
H60 H 0.219400 0.434600 0.459700
C61 C 0.223300 0.521820 0.583750
C62 C 0.149540 0.461500 0.635600
H63 H 0.117800 0.404400 0.606100
C64 C 0.122300 0.484480 0.730290
C65 C 0.170600 0.569630 0.772390
C66 C 0.243500 0.630130 0.722860
H67 H 0.275400 0.687000 0.752800
C68 C 0.270000 0.606650 0.627960
H69 H 0.319100 0.647900 0.593900
C70 C 0.006400 0.340460 0.747150
H71 H -0.041900 0.308700 0.793500
H72 H 0.101300 0.308000 0.743300
H73 H -0.071400 0.344600 0.677400
C74 C 0.006500 0.621760 0.874430
C75 C 0.009300 0.645110 0.984910
H76 H 0.097000 0.686800 1.015500
H77 H 0.025200 0.590700 1.027100
H78 H -0.092700 0.672800 0.983200
O79 O 0.641700 0.717290 -0.407730
O80 O 0.586620 0.829660 -0.517010
O81 O 0.052400 1.070610 0.287420
O82 O 0.154980 0.906970 0.372610
O83 O -0.108490 0.872520 0.296550
N84 N 0.336710 0.990810 -0.157740
H85 H 0.307500 1.046100 -0.175000
N86 N 0.319560 0.955480 -0.065960
N87 N 0.587900 0.793570 -0.432520
C88 C 0.394300 0.976470 -0.321250
H89 H 0.349600 1.033900 -0.340800
C90 C 0.454800 0.928070 -0.389040
H91 H 0.450500 0.952200 -0.454900
C92 C 0.522300 0.843380 -0.359650
C93 C 0.530900 0.806950 -0.261470
H94 H 0.578500 0.750200 -0.241600
C95 C 0.468900 0.854970 -0.193760
H96 H 0.473400 0.830400 -0.128000
C97 C 0.399400 0.939900 -0.222530
C98 C 0.251700 1.007330 -0.014370
H99 H 0.219400 1.065400 -0.040300
C100 C 0.223300 0.978180 0.083750
C101 C 0.149540 1.038500 0.135600
H102 H 0.117800 1.095600 0.106100
C103 C 0.122300 1.015520 0.230290
C104 C 0.170600 0.930370 0.272390
C105 C 0.243500 0.869870 0.222860
H106 H 0.275400 0.813000 0.252800
C107 C 0.270000 0.893350 0.127960
H108 H 0.319100 0.852100 0.093900
C109 C 0.006400 1.159540 0.247150
H110 H -0.041900 1.191300 0.293500
H111 H 0.101300 1.192000 0.243300
H112 H -0.071400 1.155400 0.177400
C113 C 0.006500 0.878240 0.374430
C114 C 0.009300 0.854890 0.484910
H115 H 0.097000 0.813200 0.515500
H116 H 0.025200 0.909300 0.527100
H117 H -0.092700 0.827200 0.483200
O118 O 0.358300 0.217290 0.907730
O119 O 0.413380 0.329660 1.017010
O120 O 0.947600 0.570610 0.212580
O121 O 0.845020 0.406970 0.127390
O122 O 1.108490 0.372520 0.203450
N123 N 0.663290 0.490810 0.657740
H124 H 0.692500 0.546100 0.675000
N125 N 0.680440 0.455480 0.565960
N126 N 0.412100 0.293570 0.932520
C127 C 0.605700 0.476470 0.821250
H128 H 0.650400 0.533900 0.840800
C129 C 0.545200 0.428070 0.889040
H130 H 0.549500 0.452200 0.954900
C131 C 0.477700 0.343380 0.859650
C132 C 0.469100 0.306950 0.761470
H133 H 0.421500 0.250200 0.741600
C134 C 0.531100 0.354970 0.693760
H135 H 0.526600 0.330400 0.628000
C136 C 0.600600 0.439900 0.722530
C137 C 0.748300 0.507330 0.514370
H138 H 0.780600 0.565400 0.540300
C139 C 0.776700 0.478180 0.416250
C140 C 0.850460 0.538500 0.364400
H141 H 0.882200 0.595600 0.393900
C142 C 0.877700 0.515520 0.269710
C143 C 0.829400 0.430370 0.227610
C144 C 0.756500 0.369870 0.277140
H145 H 0.724600 0.313000 0.247200
C146 C 0.730000 0.393350 0.372040
H147 H 0.680900 0.352100 0.406100
C148 C 0.993600 0.659540 0.252850
H149 H 1.041900 0.691300 0.206500
H150 H 0.898700 0.692000 0.256700
H151 H 1.071400 0.655400 0.322600
C152 C 0.993500 0.378240 0.125570
C153 C 0.990700 0.354890 0.015090
H154 H 0.903000 0.313200 -0.015500
H155 H 0.974800 0.409300 -0.027100
H156 H 1.092700 0.327200 0.016800

#END
