./KABGOM_from_xyz.cif_generated_by_CrystalShift
_symmetry_cell_setting triclinic
_symmetry_space_group_name_H-M 'P 1'
loop_
_symmetry_equiv_pos_site_id
_symmetry_equiv_pos_as_xyz
1 x,y,z
_cell_length_a 11.244900
_cell_length_b 11.629400
_cell_length_c 13.493200
_cell_angle_alpha 90.000000
_cell_angle_beta 92.534000
_cell_angle_gamma 90.000000
_cell_volume 1762.799797
loop_
_atom_site_label
_atom_site_type_symbol
_atom_site_fract_x
_atom_site_fract_y
_atom_site_fract_z
O1 O 0.035850 0.273170 0.783200
O2 O 0.138710 0.081620 0.972060
N3 N 0.027910 0.517420 0.752250
C4 C -0.135740 0.484240 0.635550
H5 H -0.179900 0.539200 0.667900
H6 H -0.168900 0.446000 0.580500
C7 C -0.082920 0.109740 0.827580
H8 H -0.126500 0.163000 0.866500
H9 H -0.081200 0.035900 0.859400
H10 H -0.121000 0.103000 0.762800
C11 C 0.043310 0.153010 0.818250
C12 C 0.081490 0.343680 0.853840
C13 C 0.076770 0.464630 0.837400
C14 C 0.031870 0.634630 0.766360
C15 C -0.010380 0.718510 0.690450
C16 C 0.045100 0.729010 0.600420
H17 H 0.108300 0.680900 0.586500
C18 C 0.006190 0.811070 0.531550
H19 H 0.043500 0.817800 0.471700
C20 C -0.088190 0.882990 0.551740
H21 H -0.113700 0.938100 0.505600
C22 C 0.127530 0.284720 0.936170
C23 C 0.109440 0.163040 0.919370
C24 C 0.183650 0.330670 1.023490
N25 N 0.230160 0.364060 1.095470
C26 C -0.026740 0.460580 0.667600
H27 H 0.016400 0.405400 0.634500
C28 C 0.083610 0.657650 0.860080
C29 C 0.111310 0.551440 0.903830
H30 H 0.146800 0.540500 0.966700
C31 C 0.110480 0.774200 0.903410
H32 H 0.108300 0.769500 0.975100
H33 H 0.048800 0.827400 0.880500
C34 C 0.230910 0.821520 0.876160
H35 H 0.292700 0.770100 0.899700
H36 H 0.243000 0.895700 0.906200
H37 H 0.233000 0.828700 0.805400
C38 C -0.105580 0.790820 0.710080
H39 H -0.143200 0.784300 0.769800
C40 C -0.144400 0.872670 0.640590
H41 H -0.208100 0.920400 0.653900
C42 C 0.113030 0.083640 0.745480
H43 H 0.074500 0.088400 0.680700
H44 H 0.116500 0.004800 0.766400
H45 H 0.192300 0.113800 0.743300
O46 O 0.464150 -0.226830 0.716800
O47 O 0.361290 -0.418380 0.527940
N48 N 0.472090 0.017420 0.747750
C49 C 0.635740 -0.015760 0.864450
H50 H 0.679900 0.039200 0.832100
H51 H 0.668900 -0.054000 0.919500
C52 C 0.582920 -0.390260 0.672420
H53 H 0.626500 -0.337000 0.633500
H54 H 0.581200 -0.464100 0.640600
H55 H 0.621000 -0.397000 0.737200
C56 C 0.456690 -0.346990 0.681750
C57 C 0.418510 -0.156320 0.646160
C58 C 0.423230 -0.035370 0.662600
C59 C 0.468130 0.134630 0.733640
C60 C 0.510380 0.218510 0.809550
C61 C 0.454900 0.229010 0.899580
H62 H 0.391700 0.180900 0.913500
C63 C 0.493810 0.311070 0.968450
H64 H 0.456500 0.317800 1.028300
C65 C 0.588190 0.382990 0.948260
H66 H 0.613700 0.438100 0.994400
C67 C 0.372470 -0.215280 0.563830
C68 C 0.390560 -0.336960 0.580630
C69 C 0.316350 -0.169330 0.476510
N70 N 0.269840 -0.135940 0.404530
C71 C 0.526740 -0.039420 0.832400
H72 H 0.483600 -0.094600 0.865500
C73 C 0.416390 0.157650 0.639920
C74 C 0.388690 0.051440 0.596170
H75 H 0.353200 0.040500 0.533300
C76 C 0.389520 0.274200 0.596590
H77 H 0.391700 0.269500 0.524900
H78 H 0.451200 0.327400 0.619500
C79 C 0.269090 0.321520 0.623840
H80 H 0.207300 0.270100 0.600300
H81 H 0.257000 0.395700 0.593800
H82 H 0.267000 0.328700 0.694600
C83 C 0.605580 0.290820 0.789920
H84 H 0.643200 0.284300 0.730200
C85 C 0.644400 0.372670 0.859410
H86 H 0.708100 0.420400 0.846100
C87 C 0.386970 -0.416360 0.754520
H88 H 0.425500 -0.411600 0.819300
H89 H 0.383500 -0.495200 0.733600
H90 H 0.307700 -0.386200 0.756700
O91 O 0.964150 0.726830 0.216800
O92 O 0.861290 0.918380 0.027940
N93 N 0.972090 0.482580 0.247750
C94 C 1.135740 0.515760 0.364450
H95 H 1.179900 0.460800 0.332100
H96 H 1.168900 0.554000 0.419500
C97 C 1.082920 0.890260 0.172420
H98 H 1.126500 0.837000 0.133500
H99 H 1.081200 0.964100 0.140600
H100 H 1.121000 0.897000 0.237200
C101 C 0.956690 0.846990 0.181750
C102 C 0.918510 0.656320 0.146160
C103 C 0.923230 0.535370 0.162600
C104 C 0.968130 0.365370 0.233640
C105 C 1.010380 0.281490 0.309550
C106 C 0.954900 0.270990 0.399580
H107 H 0.891700 0.319100 0.413500
C108 C 0.993810 0.188930 0.468450
H109 H 0.956500 0.182200 0.528300
C110 C 1.088190 0.117010 0.448260
H111 H 1.113700 0.061900 0.494400
C112 C 0.872470 0.715280 0.063830
C113 C 0.890560 0.836960 0.080630
C114 C 0.816350 0.669330 -0.023490
N115 N 0.769840 0.635940 -0.095470
C116 C 1.026740 0.539420 0.332400
H117 H 0.983600 0.594600 0.365500
C118 C 0.916390 0.342350 0.139920
C119 C 0.888690 0.448560 0.096170
H120 H 0.853200 0.459500 0.033300
C121 C 0.889520 0.225800 0.096590
H122 H 0.891700 0.230500 0.024900
H123 H 0.951200 0.172600 0.119500
C124 C 0.769090 0.178480 0.123840
H125 H 0.707300 0.229900 0.100300
H126 H 0.757000 0.104300 0.093800
H127 H 0.767000 0.171300 0.194600
C128 C 1.105580 0.209180 0.289920
H129 H 1.143200 0.215700 0.230200
C130 C 1.144400 0.127330 0.359410
H131 H 1.208100 0.079600 0.346100
C132 C 0.886970 0.916360 0.254520
H133 H 0.925500 0.911600 0.319300
H134 H 0.883500 0.995200 0.233600
H135 H 0.807700 0.886200 0.256700
O136 O 0.535850 1.226830 0.283200
O137 O 0.638710 1.418380 0.472060
N138 N 0.527910 0.982580 0.252250
C139 C 0.364260 1.015760 0.135550
H140 H 0.320100 0.960800 0.167900
H141 H 0.331100 1.054000 0.080500
C142 C 0.417080 1.390260 0.327580
H143 H 0.373500 1.337000 0.366500
H144 H 0.418800 1.464100 0.359400
H145 H 0.379000 1.397000 0.262800
C146 C 0.543310 1.346990 0.318250
C147 C 0.581490 1.156320 0.353840
C148 C 0.576770 1.035370 0.337400
C149 C 0.531870 0.865370 0.266360
C150 C 0.489620 0.781490 0.190450
C151 C 0.545100 0.770990 0.100420
H152 H 0.608300 0.819100 0.086500
C153 C 0.506190 0.688930 0.031550
H154 H 0.543500 0.682200 -0.028300
C155 C 0.411810 0.617010 0.051740
H156 H 0.386300 0.561900 0.005600
C157 C 0.627530 1.215280 0.436170
C158 C 0.609440 1.336960 0.419370
C159 C 0.683650 1.169330 0.523490
N160 N 0.730160 1.135940 0.595470
C161 C 0.473260 1.039420 0.167600
H162 H 0.516400 1.094600 0.134500
C163 C 0.583610 0.842350 0.360080
C164 C 0.611310 0.948560 0.403830
H165 H 0.646800 0.959500 0.466700
C166 C 0.610480 0.725800 0.403410
H167 H 0.608300 0.730500 0.475100
H168 H 0.548800 0.672600 0.380500
C169 C 0.730910 0.678480 0.376160
H170 H 0.792700 0.729900 0.399700
H171 H 0.743000 0.604300 0.406200
H172 H 0.733000 0.671300 0.305400
C173 C 0.394420 0.709180 0.210080
H174 H 0.356800 0.715700 0.269800
C175 C 0.355600 0.627330 0.140590
H176 H 0.291900 0.579600 0.153900
C177 C 0.613030 1.416360 0.245480
H178 H 0.574500 1.411600 0.180700
H179 H 0.616500 1.495200 0.266400
H180 H 0.692300 1.386200 0.243300

#END
