
#######################################################################
#
#                 Cambridge Crystallographic Data Centre
#                                CCDC 
#
#######################################################################
#
# If this CIF has been generated from an entry in the Cambridge 
# Structural Database, then it will include bibliographic, chemical, 
# crystal, experimental, refinement or atomic coordinate data resulting 
# from the CCDC's data processing and validation procedures.
#
#######################################################################

data_KABKIK
_symmetry_cell_setting           monoclinic
_symmetry_space_group_name_H-M   'P 21/n'
_symmetry_Int_Tables_number      14
_space_group_name_Hall           '-P 2yn'
loop_
_symmetry_equiv_pos_site_id
_symmetry_equiv_pos_as_xyz
1 x,y,z
2 1/2-x,1/2+y,1/2-z
3 -x,-y,-z
4 1/2+x,1/2-y,1/2+z
_cell_length_a                   13.9894(18)
_cell_length_b                   9.1257(12)
_cell_length_c                   15.099(2)
_cell_angle_alpha                90
_cell_angle_beta                 108.295(3)
_cell_angle_gamma                90
_cell_volume                     1830.15
loop_
_atom_site_label
_atom_site_type_symbol
_atom_site_fract_x
_atom_site_fract_y
_atom_site_fract_z
Br1 Br 0.17892(4) 0.53354(5) 1.06347(3)
C1 C 0.1689(2) 0.3944(4) 0.5097(2)
C2 C 0.1151(3) 0.3320(4) 0.4246(2)
H1 H 0.1402 0.3375 0.3744
C3 C 0.0247(3) 0.2621(4) 0.4140(3)
H2 H -0.0113 0.2213 0.3569
C4 C -0.0117(3) 0.2531(4) 0.4880(3)
H3 H -0.0721 0.2046 0.4809
C5 C 0.0402(2) 0.3152(4) 0.5737(3)
H4 H 0.0147 0.3081 0.6234
C6 C 0.1305(2) 0.3882(3) 0.5847(2)
C7 C 0.1697(2) 0.4602(3) 0.7559(2)
C8 C 0.0819(3) 0.4426(4) 0.7800(3)
H5 H 0.0213 0.4176 0.7355
C9 C 0.0878(3) 0.4637(4) 0.8719(3)
H6 H 0.0304 0.4513 0.8897
C10 C 0.1776(3) 0.5030(3) 0.9385(2)
C11 C 0.2642(3) 0.5250(4) 0.9160(2)
H7 H 0.3235 0.5539 0.9609
C12 C 0.2607(2) 0.5027(3) 0.8239(2)
C13 C 0.3335(2) 0.5211(4) 0.7768(2)
H8 H 0.4001 0.5494 0.8040
C14 C 0.2887(2) 0.4904(3) 0.6860(2)
C15 C 0.3283(2) 0.5065(3) 0.6068(2)
C16 C 0.4383(2) 0.4749(4) 0.6282(2)
C17 C 0.4741(2) 0.3365(4) 0.6519(3)
H9 H 0.4294 0.2620 0.6539
C18 C 0.5749(3) 0.3049(4) 0.6728(3)
H10 H 0.5977 0.2096 0.6880
C19 C 0.6419(2) 0.4145(4) 0.6713(2)
C20 C 0.6060(3) 0.5520(5) 0.6462(3)
H11 H 0.6506 0.6263 0.6436
C21 C 0.5051(3) 0.5832(4) 0.6246(3)
H12 H 0.4821 0.6779 0.6074
C22 C 0.7478(3) 0.3854(5) 0.6956(2)
C23 C 0.2774(3) 0.6157(4) 0.5338(2)
H13 H 0.2209 0.6697 0.5418
H14 H 0.3188 0.6703 0.5044
N1 N 0.2639(2) 0.4570(3) 0.51390(18)
N2 N 0.18890(17) 0.4509(3) 0.67094(18)
N3 N 0.8320(2) 0.3665(5) 0.7164(2)
Br1 Br 0.32108(4) 1.03354(5) 0.43653(3)
C1 C 0.3311(2) 0.8944(4) 0.9903(2)
C2 C 0.3849(3) 0.8320(4) 1.0754(2)
H1 H 0.3598 0.8375 1.1256
C3 C 0.4753(3) 0.7621(4) 1.0860(3)
H2 H 0.5113 0.7213 1.1431
C4 C 0.5117(3) 0.7531(4) 1.0120(3)
H3 H 0.5721 0.7046 1.0191
C5 C 0.4598(2) 0.8152(4) 0.9263(3)
H4 H 0.4853 0.8081 0.8766
C6 C 0.3695(2) 0.8882(3) 0.9153(2)
C7 C 0.3303(2) 0.9602(3) 0.7441(2)
C8 C 0.4181(3) 0.9426(4) 0.7200(3)
H5 H 0.4787 0.9176 0.7645
C9 C 0.4122(3) 0.9637(4) 0.6281(3)
H6 H 0.4696 0.9513 0.6103
C10 C 0.3224(3) 1.0030(3) 0.5615(2)
C11 C 0.2358(3) 1.0250(4) 0.5840(2)
H7 H 0.1765 1.0539 0.5391
C12 C 0.2393(2) 1.0027(3) 0.6761(2)
C13 C 0.1665(2) 1.0211(4) 0.7232(2)
H8 H 0.0999 1.0494 0.6960
C14 C 0.2113(2) 0.9904(3) 0.8140(2)
C15 C 0.1717(2) 1.0065(3) 0.8932(2)
C16 C 0.0617(2) 0.9749(4) 0.8718(2)
C17 C 0.0259(2) 0.8365(4) 0.8481(3)
H9 H 0.0706 0.7620 0.8461
C18 C -0.0749(3) 0.8049(4) 0.8272(3)
H10 H -0.0977 0.7096 0.8120
C19 C -0.1419(2) 0.9145(4) 0.8287(2)
C20 C -0.1060(3) 1.0520(5) 0.8538(3)
H11 H -0.1506 1.1263 0.8564
C21 C -0.0051(3) 1.0832(4) 0.8754(3)
H12 H 0.0179 1.1779 0.8926
C22 C -0.2478(3) 0.8854(5) 0.8044(2)
C23 C 0.2226(3) 1.1157(4) 0.9662(2)
H13 H 0.2791 1.1697 0.9582
H14 H 0.1812 1.1703 0.9956
N1 N 0.2361(2) 0.9570(3) 0.98610(18)
N2 N 0.31110(17) 0.9509(3) 0.82906(18)
N3 N -0.3320(2) 0.8665(5) 0.7836(2)
Br1 Br 0.82108(4) 0.46646(5) -0.06347(3)
C1 C 0.8311(2) 0.6056(4) 0.4903(2)
C2 C 0.8849(3) 0.6680(4) 0.5754(2)
H1 H 0.8598 0.6625 0.6256
C3 C 0.9753(3) 0.7379(4) 0.5860(3)
H2 H 1.0113 0.7787 0.6431
C4 C 1.0117(3) 0.7469(4) 0.5120(3)
H3 H 1.0721 0.7954 0.5191
C5 C 0.9598(2) 0.6848(4) 0.4263(3)
H4 H 0.9853 0.6919 0.3766
C6 C 0.8695(2) 0.6118(3) 0.4153(2)
C7 C 0.8303(2) 0.5398(3) 0.2441(2)
C8 C 0.9181(3) 0.5574(4) 0.2200(3)
H5 H 0.9787 0.5824 0.2645
C9 C 0.9122(3) 0.5363(4) 0.1281(3)
H6 H 0.9696 0.5487 0.1103
C10 C 0.8224(3) 0.4970(3) 0.0615(2)
C11 C 0.7358(3) 0.4750(4) 0.0840(2)
H7 H 0.6765 0.4461 0.0391
C12 C 0.7393(2) 0.4973(3) 0.1761(2)
C13 C 0.6665(2) 0.4789(4) 0.2232(2)
H8 H 0.5999 0.4506 0.1960
C14 C 0.7113(2) 0.5096(3) 0.3140(2)
C15 C 0.6717(2) 0.4935(3) 0.3932(2)
C16 C 0.5617(2) 0.5251(4) 0.3718(2)
C17 C 0.5259(2) 0.6635(4) 0.3481(3)
H9 H 0.5706 0.7380 0.3461
C18 C 0.4251(3) 0.6951(4) 0.3272(3)
H10 H 0.4023 0.7904 0.3120
C19 C 0.3581(2) 0.5855(4) 0.3287(2)
C20 C 0.3940(3) 0.4480(5) 0.3538(3)
H11 H 0.3494 0.3737 0.3564
C21 C 0.4949(3) 0.4168(4) 0.3754(3)
H12 H 0.5179 0.3221 0.3926
C22 C 0.2522(3) 0.6146(5) 0.3044(2)
C23 C 0.7226(3) 0.3843(4) 0.4662(2)
H13 H 0.7791 0.3303 0.4582
H14 H 0.6812 0.3297 0.4956
N1 N 0.7361(2) 0.5430(3) 0.48610(18)
N2 N 0.81110(17) 0.5491(3) 0.32906(18)
N3 N 0.1680(2) 0.6335(5) 0.2836(2)
Br1 Br 0.67892(4) -0.03354(5) 0.56347(3)
C1 C 0.6689(2) 0.1056(4) 0.0097(2)
C2 C 0.6151(3) 0.1680(4) -0.0754(2)
H1 H 0.6402 0.1625 -0.1256
C3 C 0.5247(3) 0.2379(4) -0.0860(3)
H2 H 0.4887 0.2787 -0.1431
C4 C 0.4883(3) 0.2469(4) -0.0120(3)
H3 H 0.4279 0.2954 -0.0191
C5 C 0.5402(2) 0.1848(4) 0.0737(3)
H4 H 0.5147 0.1919 0.1234
C6 C 0.6305(2) 0.1118(3) 0.0847(2)
C7 C 0.6697(2) 0.0398(3) 0.2559(2)
C8 C 0.5819(3) 0.0574(4) 0.2800(3)
H5 H 0.5213 0.0824 0.2355
C9 C 0.5878(3) 0.0363(4) 0.3719(3)
H6 H 0.5304 0.0487 0.3897
C10 C 0.6776(3) -0.0030(3) 0.4385(2)
C11 C 0.7642(3) -0.0250(4) 0.4160(2)
H7 H 0.8235 -0.0539 0.4609
C12 C 0.7607(2) -0.0027(3) 0.3239(2)
C13 C 0.8335(2) -0.0211(4) 0.2768(2)
H8 H 0.9001 -0.0494 0.3040
C14 C 0.7887(2) 0.0096(3) 0.1860(2)
C15 C 0.8283(2) -0.0065(3) 0.1068(2)
C16 C 0.9383(2) 0.0251(4) 0.1282(2)
C17 C 0.9741(2) 0.1635(4) 0.1519(3)
H9 H 0.9294 0.2380 0.1539
C18 C 1.0749(3) 0.1951(4) 0.1728(3)
H10 H 1.0977 0.2904 0.1880
C19 C 1.1419(2) 0.0855(4) 0.1713(2)
C20 C 1.1060(3) -0.0520(5) 0.1462(3)
H11 H 1.1506 -0.1263 0.1436
C21 C 1.0051(3) -0.0832(4) 0.1246(3)
H12 H 0.9821 -0.1779 0.1074
C22 C 1.2478(3) 0.1146(5) 0.1956(2)
C23 C 0.7774(3) -0.1157(4) 0.0338(2)
H13 H 0.7209 -0.1697 0.0418
H14 H 0.8188 -0.1703 0.0044
N1 N 0.7639(2) 0.0430(3) 0.01390(18)
N2 N 0.68890(17) 0.0491(3) 0.17094(18)
N3 N 1.3320(2) 0.1335(5) 0.2164(2)

#END
