./KABLIK_from_xyz.cif_generated_by_CrystalShift
_symmetry_cell_setting triclinic
_symmetry_space_group_name_H-M 'P 1'
loop_
_symmetry_equiv_pos_site_id
_symmetry_equiv_pos_as_xyz
1 x,y,z
_cell_length_a 8.665900
_cell_length_b 15.207000
_cell_length_c 9.993000
_cell_angle_alpha 90.000000
_cell_angle_beta 93.470000
_cell_angle_gamma 90.000000
_cell_volume 1314.486552
loop_
_atom_site_label
_atom_site_type_symbol
_atom_site_fract_x
_atom_site_fract_y
_atom_site_fract_z
S1 S -0.150040 0.112660 -0.078120
N2 N 0.029150 0.113060 0.289350
N3 N -0.012100 0.089270 0.159350
H4 H 0.023500 0.041500 0.126900
C5 C 0.122800 0.061570 0.353880
H6 H 0.157400 0.011500 0.311400
N7 N -0.162300 0.211920 0.141090
H8 H -0.137000 0.219300 0.224900
C9 C 0.132800 0.152530 0.562700
H10 H 0.069100 0.194700 0.520600
C11 C 0.278200 0.019200 0.557600
H12 H 0.312000 -0.029300 0.510800
C13 C 0.177300 0.078670 0.491810
C14 C -0.108400 0.140750 0.082700
C15 C 0.329900 0.030310 0.691100
C16 C 0.279300 0.102410 0.760700
C17 C 0.182900 0.162860 0.694600
H18 H 0.151100 0.212000 0.740900
C19 C 0.441500 -0.035300 0.756200
H20 H 0.465100 -0.018800 0.848000
H21 H 0.534800 -0.036000 0.709200
H22 H 0.395600 -0.092700 0.753000
C23 C -0.415600 0.282200 0.127200
H24 H -0.476100 0.326500 0.080000
H25 H -0.406500 0.296300 0.221000
H26 H -0.465200 0.226100 0.114900
C27 C -0.260900 0.278660 0.074900
H28 H -0.271100 0.266300 -0.020400
H29 H -0.211900 0.335700 0.086800
C30 C 0.329200 0.116700 0.906900
H31 H 0.283200 0.169800 0.938000
H32 H 0.439700 0.121600 0.916600
H33 H 0.296200 0.067900 0.958900
S34 S 1.150040 0.612660 0.578120
N35 N 0.970850 0.613060 0.210650
N36 N 1.012100 0.589270 0.340650
H37 H 0.976500 0.541500 0.373100
C38 C 0.877200 0.561570 0.146120
H39 H 0.842600 0.511500 0.188600
N40 N 1.162300 0.711920 0.358910
H41 H 1.137000 0.719300 0.275100
C42 C 0.867200 0.652530 -0.062700
H43 H 0.930900 0.694700 -0.020600
C44 C 0.721800 0.519200 -0.057600
H45 H 0.688000 0.470700 -0.010800
C46 C 0.822700 0.578670 0.008190
C47 C 1.108400 0.640750 0.417300
C48 C 0.670100 0.530310 -0.191100
C49 C 0.720700 0.602410 -0.260700
C50 C 0.817100 0.662860 -0.194600
H51 H 0.848900 0.712000 -0.240900
C52 C 0.558500 0.464700 -0.256200
H53 H 0.534900 0.481200 -0.348000
H54 H 0.465200 0.464000 -0.209200
H55 H 0.604400 0.407300 -0.253000
C56 C 1.415600 0.782200 0.372800
H57 H 1.476100 0.826500 0.420000
H58 H 1.406500 0.796300 0.279000
H59 H 1.465200 0.726100 0.385100
C60 C 1.260900 0.778660 0.425100
H61 H 1.271100 0.766300 0.520400
H62 H 1.211900 0.835700 0.413200
C63 C 0.670800 0.616700 -0.406900
H64 H 0.716800 0.669800 -0.438000
H65 H 0.560300 0.621600 -0.416600
H66 H 0.703800 0.567900 -0.458900
S67 S 1.150040 0.887340 1.078120
N68 N 0.970850 0.886940 0.710650
N69 N 1.012100 0.910730 0.840650
H70 H 0.976500 0.958500 0.873100
C71 C 0.877200 0.938430 0.646120
H72 H 0.842600 0.988500 0.688600
N73 N 1.162300 0.788080 0.858910
H74 H 1.137000 0.780700 0.775100
C75 C 0.867200 0.847470 0.437300
H76 H 0.930900 0.805300 0.479400
C77 C 0.721800 0.980800 0.442400
H78 H 0.688000 1.029300 0.489200
C79 C 0.822700 0.921330 0.508190
C80 C 1.108400 0.859250 0.917300
C81 C 0.670100 0.969690 0.308900
C82 C 0.720700 0.897590 0.239300
C83 C 0.817100 0.837140 0.305400
H84 H 0.848900 0.788000 0.259100
C85 C 0.558500 1.035300 0.243800
H86 H 0.534900 1.018800 0.152000
H87 H 0.465200 1.036000 0.290800
H88 H 0.604400 1.092700 0.247000
C89 C 1.415600 0.717800 0.872800
H90 H 1.476100 0.673500 0.920000
H91 H 1.406500 0.703700 0.779000
H92 H 1.465200 0.773900 0.885100
C93 C 1.260900 0.721340 0.925100
H94 H 1.271100 0.733700 1.020400
H95 H 1.211900 0.664300 0.913200
C96 C 0.670800 0.883300 0.093100
H97 H 0.716800 0.830200 0.062000
H98 H 0.560300 0.878400 0.083400
H99 H 0.703800 0.932100 0.041100
S100 S -0.150040 0.387340 0.421880
N101 N 0.029150 0.386940 0.789350
N102 N -0.012100 0.410730 0.659350
H103 H 0.023500 0.458500 0.626900
C104 C 0.122800 0.438430 0.853880
H105 H 0.157400 0.488500 0.811400
N106 N -0.162300 0.288080 0.641090
H107 H -0.137000 0.280700 0.724900
C108 C 0.132800 0.347470 1.062700
H109 H 0.069100 0.305300 1.020600
C110 C 0.278200 0.480800 1.057600
H111 H 0.312000 0.529300 1.010800
C112 C 0.177300 0.421330 0.991810
C113 C -0.108400 0.359250 0.582700
C114 C 0.329900 0.469690 1.191100
C115 C 0.279300 0.397590 1.260700
C116 C 0.182900 0.337140 1.194600
H117 H 0.151100 0.288000 1.240900
C118 C 0.441500 0.535300 1.256200
H119 H 0.465100 0.518800 1.348000
H120 H 0.534800 0.536000 1.209200
H121 H 0.395600 0.592700 1.253000
C122 C -0.415600 0.217800 0.627200
H123 H -0.476100 0.173500 0.580000
H124 H -0.406500 0.203700 0.721000
H125 H -0.465200 0.273900 0.614900
C126 C -0.260900 0.221340 0.574900
H127 H -0.271100 0.233700 0.479600
H128 H -0.211900 0.164300 0.586800
C129 C 0.329200 0.383300 1.406900
H130 H 0.283200 0.330200 1.438000
H131 H 0.439700 0.378400 1.416600
H132 H 0.296200 0.432100 1.458900

#END
