./KABVAK_from_xyz.cif_generated_by_CrystalShift
_symmetry_cell_setting triclinic
_symmetry_space_group_name_H-M 'P 1'
loop_
_symmetry_equiv_pos_site_id
_symmetry_equiv_pos_as_xyz
1 x,y,z
_cell_length_a 12.928000
_cell_length_b 5.928000
_cell_length_c 10.091000
_cell_angle_alpha 90.000000
_cell_angle_beta 112.830000
_cell_angle_gamma 90.000000
_cell_volume 712.761984
loop_
_atom_site_label
_atom_site_type_symbol
_atom_site_fract_x
_atom_site_fract_y
_atom_site_fract_z
O1 O 1.111700 0.002600 0.331300
O2 O 0.885100 -0.104600 0.108300
N3 N 0.833400 0.077600 0.284600
N4 N 0.843800 0.409400 0.416100
N5 N 1.002200 0.250800 0.396800
C6 C 0.716500 0.019700 0.248400
C7 C 0.889400 0.252400 0.366900
C8 C 1.020400 0.064900 0.332000
C9 C 0.911700 -0.066100 0.253000
C10 C 0.876000 0.093400 0.025500
H11 H 0.771000 0.411000 0.396000
H12 H 0.898000 0.516000 0.485000
H13 H 0.680000 0.020000 0.129000
H14 H 0.705000 -0.140000 0.249000
H15 H 0.691000 0.089000 0.296000
H16 H 0.865000 0.057000 -0.079000
H17 H 0.828000 0.194000 0.035000
H18 H 0.942000 0.190000 0.035000
H19 H 0.912000 -0.219000 0.292000
O20 O 0.388300 0.502600 0.668700
O21 O 0.614900 0.395400 0.891700
N22 N 0.666600 0.577600 0.715400
N23 N 0.656200 0.909400 0.583900
N24 N 0.497800 0.750800 0.603200
C25 C 0.783500 0.519700 0.751600
C26 C 0.610600 0.752400 0.633100
C27 C 0.479600 0.564900 0.668000
C28 C 0.588300 0.433900 0.747000
C29 C 0.624000 0.593400 0.974500
H30 H 0.729000 0.911000 0.604000
H31 H 0.602000 1.016000 0.515000
H32 H 0.820000 0.520000 0.871000
H33 H 0.795000 0.360000 0.751000
H34 H 0.809000 0.589000 0.704000
H35 H 0.635000 0.557000 1.079000
H36 H 0.672000 0.694000 0.965000
H37 H 0.558000 0.690000 0.965000
H38 H 0.588000 0.281000 0.708000
O39 O -0.111700 0.997400 0.668700
O40 O 0.114900 1.104600 0.891700
N41 N 0.166600 0.922400 0.715400
N42 N 0.156200 0.590600 0.583900
N43 N -0.002200 0.749200 0.603200
C44 C 0.283500 0.980300 0.751600
C45 C 0.110600 0.747600 0.633100
C46 C -0.020400 0.935100 0.668000
C47 C 0.088300 1.066100 0.747000
C48 C 0.124000 0.906600 0.974500
H49 H 0.229000 0.589000 0.604000
H50 H 0.102000 0.484000 0.515000
H51 H 0.320000 0.980000 0.871000
H52 H 0.295000 1.140000 0.751000
H53 H 0.309000 0.911000 0.704000
H54 H 0.135000 0.943000 1.079000
H55 H 0.172000 0.806000 0.965000
H56 H 0.058000 0.810000 0.965000
H57 H 0.088000 1.219000 0.708000
O58 O 0.611700 0.497400 0.331300
O59 O 0.385100 0.604600 0.108300
N60 N 0.333400 0.422400 0.284600
N61 N 0.343800 0.090600 0.416100
N62 N 0.502200 0.249200 0.396800
C63 C 0.216500 0.480300 0.248400
C64 C 0.389400 0.247600 0.366900
C65 C 0.520400 0.435100 0.332000
C66 C 0.411700 0.566100 0.253000
C67 C 0.376000 0.406600 0.025500
H68 H 0.271000 0.089000 0.396000
H69 H 0.398000 -0.016000 0.485000
H70 H 0.180000 0.480000 0.129000
H71 H 0.205000 0.640000 0.249000
H72 H 0.191000 0.411000 0.296000
H73 H 0.365000 0.443000 -0.079000
H74 H 0.328000 0.306000 0.035000
H75 H 0.442000 0.310000 0.035000
H76 H 0.412000 0.719000 0.292000

#END
