
#######################################################################
#
#                 Cambridge Crystallographic Data Centre
#                                CCDC 
#
#######################################################################
#
# If this CIF has been generated from an entry in the Cambridge 
# Structural Database, then it will include bibliographic, chemical, 
# crystal, experimental, refinement or atomic coordinate data resulting 
# from the CCDC's data processing and validation procedures.
#
#######################################################################

data_ACICEV01
_symmetry_cell_setting           monoclinic
_symmetry_space_group_name_H-M   'P 21/n'
_symmetry_Int_Tables_number      14
_space_group_name_Hall           '-P 2yn'
loop_
_symmetry_equiv_pos_site_id
_symmetry_equiv_pos_as_xyz
1 x,y,z
2 1/2-x,1/2+y,1/2-z
3 -x,-y,-z
4 1/2+x,1/2-y,1/2+z
_cell_length_a                   10.1177(5)
_cell_length_b                   11.4813(5)
_cell_length_c                   17.7958(8)
_cell_angle_alpha                90
_cell_angle_beta                 104.033(3)
_cell_angle_gamma                90
_cell_volume                     2005.54
loop_
_atom_site_label
_atom_site_type_symbol
_atom_site_fract_x
_atom_site_fract_y
_atom_site_fract_z
N1 N 0.47722(16) 0.54532(13) 0.13852(10)
N2 N 0.40905(15) 0.36036(13) 0.11602(9)
H1 H 0.4088 0.2891 0.1012
N3 N 0.73691(16) 0.29394(14) 0.00945(10)
C1 C 0.8315(2) 0.37560(18) 0.01352(13)
H2 H 0.9051 0.3601 -0.0077
C2 C 0.63268(19) 0.31819(16) 0.04023(11)
H3 H 0.5657 0.2617 0.0371
C3 C 0.61764(18) 0.42243(15) 0.07671(10)
C4 C 0.7181(2) 0.50638(17) 0.07973(12)
H4 H 0.7124 0.5780 0.1031
C5 C 0.8250(2) 0.48234(19) 0.04791(14)
H5 H 0.8929 0.5375 0.0494
C6 C 0.50225(18) 0.44409(14) 0.11011(10)
C7 C 0.31584(19) 0.41207(17) 0.15022(11)
C8 C 0.1996(2) 0.3713(2) 0.16965(13)
H6 H 0.1706 0.2947 0.1601
C9 C 0.1291(2) 0.4498(3) 0.20383(15)
H7 H 0.0509 0.4253 0.2179
C10 C 0.1722(3) 0.5649(3) 0.21780(15)
H8 H 0.1219 0.6154 0.2409
C11 C 0.2865(2) 0.6053(2) 0.19829(13)
H9 H 0.3144 0.6822 0.2077
C12 C 0.35997(19) 0.52768(17) 0.16394(11)
N1 N 0.02278(16) 1.04532(13) 0.36148(10)
N2 N 0.09095(15) 0.86036(13) 0.38398(9)
H1 H 0.0912 0.7891 0.3988
N3 N -0.23691(16) 0.79394(14) 0.49055(10)
C1 C -0.3315(2) 0.87560(18) 0.48648(13)
H2 H -0.4051 0.8601 0.5077
C2 C -0.13268(19) 0.81819(16) 0.45977(11)
H3 H -0.0657 0.7617 0.4629
C3 C -0.11764(18) 0.92243(15) 0.42329(10)
C4 C -0.2181(2) 1.00638(17) 0.42027(12)
H4 H -0.2124 1.0780 0.3969
C5 C -0.3250(2) 0.98234(19) 0.45209(14)
H5 H -0.3929 1.0375 0.4506
C6 C -0.00225(18) 0.94409(14) 0.38989(10)
C7 C 0.18416(19) 0.91207(17) 0.34978(11)
C8 C 0.3004(2) 0.8713(2) 0.33035(13)
H6 H 0.3294 0.7947 0.3399
C9 C 0.3709(2) 0.9498(3) 0.29617(15)
H7 H 0.4491 0.9253 0.2821
C10 C 0.3278(3) 1.0649(3) 0.28220(15)
H8 H 0.3781 1.1154 0.2591
C11 C 0.2135(2) 1.1053(2) 0.30171(13)
H9 H 0.1856 1.1822 0.2923
C12 C 0.14003(19) 1.02768(17) 0.33606(11)
N1 N 0.52278(16) 0.45468(13) 0.86148(10)
N2 N 0.59095(15) 0.63964(13) 0.88398(9)
H1 H 0.5912 0.7109 0.8988
N3 N 0.26309(16) 0.70606(14) 0.99055(10)
C1 C 0.1685(2) 0.62440(18) 0.98648(13)
H2 H 0.0949 0.6399 1.0077
C2 C 0.36732(19) 0.68181(16) 0.95977(11)
H3 H 0.4343 0.7383 0.9629
C3 C 0.38236(18) 0.57757(15) 0.92329(10)
C4 C 0.2819(2) 0.49362(17) 0.92027(12)
H4 H 0.2876 0.4220 0.8969
C5 C 0.1750(2) 0.51766(19) 0.95209(14)
H5 H 0.1071 0.4625 0.9506
C6 C 0.49775(18) 0.55591(14) 0.88989(10)
C7 C 0.68416(19) 0.58793(17) 0.84978(11)
C8 C 0.8004(2) 0.6287(2) 0.83035(13)
H6 H 0.8294 0.7053 0.8399
C9 C 0.8709(2) 0.5502(3) 0.79617(15)
H7 H 0.9491 0.5747 0.7821
C10 C 0.8278(3) 0.4351(3) 0.78220(15)
H8 H 0.8781 0.3846 0.7591
C11 C 0.7135(2) 0.3947(2) 0.80171(13)
H9 H 0.6856 0.3178 0.7923
C12 C 0.64003(19) 0.47232(17) 0.83606(11)
N1 N 0.97722(16) -0.04532(13) 0.63852(10)
N2 N 0.90905(15) 0.13964(13) 0.61602(9)
H1 H 0.9088 0.2109 0.6012
N3 N 1.23691(16) 0.20606(14) 0.50945(10)
C1 C 1.3315(2) 0.12440(18) 0.51352(13)
H2 H 1.4051 0.1399 0.4923
C2 C 1.13268(19) 0.18181(16) 0.54023(11)
H3 H 1.0657 0.2383 0.5371
C3 C 1.11764(18) 0.07757(15) 0.57671(10)
C4 C 1.2181(2) -0.00638(17) 0.57973(12)
H4 H 1.2124 -0.0780 0.6031
C5 C 1.3250(2) 0.01766(19) 0.54791(14)
H5 H 1.3929 -0.0375 0.5494
C6 C 1.00225(18) 0.05591(14) 0.61011(10)
C7 C 0.81584(19) 0.08793(17) 0.65022(11)
C8 C 0.6996(2) 0.1287(2) 0.66965(13)
H6 H 0.6706 0.2053 0.6601
C9 C 0.6291(2) 0.0502(3) 0.70383(15)
H7 H 0.5509 0.0747 0.7179
C10 C 0.6722(3) -0.0649(3) 0.71780(15)
H8 H 0.6219 -0.1154 0.7409
C11 C 0.7865(2) -0.1053(2) 0.69829(13)
H9 H 0.8144 -0.1822 0.7077
C12 C 0.85997(19) -0.02768(17) 0.66394(11)
N4 N 0.64617(17) 1.07245(14) 0.94416(10)
H10 H 0.6905 1.1337 0.9636
N5 N 0.59759(17) 0.88450(14) 0.92201(10)
N6 N 0.9540(2) 0.7783(2) 1.08440(15)
C13 C 1.0304(3) 0.8580(3) 1.12560(18)
H11 H 1.1072 0.8340 1.1626
C14 C 0.8449(2) 0.8126(2) 1.03264(15)
H12 H 0.7897 0.7560 1.0034
C15 C 0.80685(19) 0.92967(19) 1.01899(12)
C16 C 0.8928(2) 1.0112(2) 1.06459(15)
H13 H 0.8743 1.0905 1.0589
C17 C 1.0050(3) 0.9715(3) 1.11789(16)
H14 H 1.0638 1.0242 1.1488
C18 C 0.6823(2) 0.96139(17) 0.96014(12)
C19 C 0.4917(2) 0.95310(18) 0.87568(12)
C20 C 0.3740(2) 0.9201(2) 0.82442(14)
H15 H 0.3544 0.8416 0.8149
C21 C 0.2862(2) 1.0025(3) 0.78761(14)
H16 H 0.2058 0.9805 0.7528
C22 C 0.3164(3) 1.1228(3) 0.80198(16)
H17 H 0.2554 1.1790 0.7767
C23 C 0.4371(2) 1.1567(2) 0.85373(14)
H18 H 0.4596 1.2346 0.8638
C24 C 0.52030(19) 1.06826(18) 0.88876(12)
N4 N 0.85383(17) 0.57245(14) 0.55584(10)
H10 H 0.8095 0.6337 0.5364
N5 N 0.90241(17) 0.38450(14) 0.57799(10)
N6 N 0.5460(2) 0.2783(2) 0.41560(15)
C13 C 0.4696(3) 0.3580(3) 0.37440(18)
H11 H 0.3928 0.3340 0.3374
C14 C 0.6551(2) 0.3126(2) 0.46736(15)
H12 H 0.7103 0.2560 0.4966
C15 C 0.69315(19) 0.42967(19) 0.48101(12)
C16 C 0.6072(2) 0.5112(2) 0.43541(15)
H13 H 0.6257 0.5905 0.4411
C17 C 0.4950(3) 0.4715(3) 0.38211(16)
H14 H 0.4362 0.5242 0.3512
C18 C 0.8177(2) 0.46139(17) 0.53986(12)
C19 C 1.0083(2) 0.45310(18) 0.62432(12)
C20 C 1.1260(2) 0.4201(2) 0.67558(14)
H15 H 1.1456 0.3416 0.6851
C21 C 1.2138(2) 0.5025(3) 0.71239(14)
H16 H 1.2942 0.4805 0.7472
C22 C 1.1836(3) 0.6228(3) 0.69802(16)
H17 H 1.2446 0.6790 0.7233
C23 C 1.0629(2) 0.6567(2) 0.64627(14)
H18 H 1.0404 0.7346 0.6362
C24 C 0.97970(19) 0.56826(18) 0.61124(12)
N4 N 0.35383(17) -0.07245(14) 0.05584(10)
H10 H 0.3095 -0.1337 0.0364
N5 N 0.40241(17) 0.11550(14) 0.07799(10)
N6 N 0.0460(2) 0.2217(2) -0.08440(15)
C13 C -0.0304(3) 0.1420(3) -0.12560(18)
H11 H -0.1072 0.1660 -0.1626
C14 C 0.1551(2) 0.1874(2) -0.03264(15)
H12 H 0.2103 0.2440 -0.0034
C15 C 0.19315(19) 0.07033(19) -0.01899(12)
C16 C 0.1072(2) -0.0112(2) -0.06459(15)
H13 H 0.1257 -0.0905 -0.0589
C17 C -0.0050(3) 0.0285(3) -0.11789(16)
H14 H -0.0638 -0.0242 -0.1488
C18 C 0.3177(2) 0.03861(17) 0.03986(12)
C19 C 0.5083(2) 0.04690(18) 0.12432(12)
C20 C 0.6260(2) 0.0799(2) 0.17558(14)
H15 H 0.6456 0.1584 0.1851
C21 C 0.7138(2) -0.0025(3) 0.21239(14)
H16 H 0.7942 0.0195 0.2472
C22 C 0.6836(3) -0.1228(3) 0.19802(16)
H17 H 0.7446 -0.1790 0.2233
C23 C 0.5629(2) -0.1567(2) 0.14627(14)
H18 H 0.5404 -0.2346 0.1362
C24 C 0.47970(19) -0.06826(18) 0.11124(12)
N4 N 0.14617(17) 0.42755(14) 0.44416(10)
H10 H 0.1905 0.3663 0.4636
N5 N 0.09759(17) 0.61550(14) 0.42201(10)
N6 N 0.4540(2) 0.7217(2) 0.58440(15)
C13 C 0.5304(3) 0.6420(3) 0.62560(18)
H11 H 0.6072 0.6660 0.6626
C14 C 0.3449(2) 0.6874(2) 0.53264(15)
H12 H 0.2897 0.7440 0.5034
C15 C 0.30685(19) 0.57033(19) 0.51899(12)
C16 C 0.3928(2) 0.4888(2) 0.56459(15)
H13 H 0.3743 0.4095 0.5589
C17 C 0.5050(3) 0.5285(3) 0.61789(16)
H14 H 0.5638 0.4758 0.6488
C18 C 0.1823(2) 0.53861(17) 0.46014(12)
C19 C -0.0083(2) 0.54690(18) 0.37568(12)
C20 C -0.1260(2) 0.5799(2) 0.32442(14)
H15 H -0.1456 0.6584 0.3149
C21 C -0.2138(2) 0.4975(3) 0.28761(14)
H16 H -0.2942 0.5195 0.2528
C22 C -0.1836(3) 0.3772(3) 0.30198(16)
H17 H -0.2446 0.3210 0.2767
C23 C -0.0629(2) 0.3433(2) 0.35373(14)
H18 H -0.0404 0.2654 0.3638
C24 C 0.02030(19) 0.43174(18) 0.38876(12)

#END
