
#######################################################################
#
#                 Cambridge Crystallographic Data Centre
#                                CCDC 
#
#######################################################################
#
# If this CIF has been generated from an entry in the Cambridge 
# Structural Database, then it will include bibliographic, chemical, 
# crystal, experimental, refinement or atomic coordinate data resulting 
# from the CCDC's data processing and validation procedures.
#
#######################################################################

data_ACICEV
_symmetry_cell_setting           monoclinic
_symmetry_space_group_name_H-M   'P 21/n'
_symmetry_Int_Tables_number      14
_space_group_name_Hall           '-P 2yn'
loop_
_symmetry_equiv_pos_site_id
_symmetry_equiv_pos_as_xyz
1 x,y,z
2 1/2-x,1/2+y,1/2-z
3 -x,-y,-z
4 1/2+x,1/2-y,1/2+z
_cell_length_a                   10.1469(14)
_cell_length_b                   11.492(2)
_cell_length_c                   17.774(3)
_cell_angle_alpha                90
_cell_angle_beta                 103.931(9)
_cell_angle_gamma                90
_cell_volume                     2011.63
loop_
_atom_site_label
_atom_site_type_symbol
_atom_site_fract_x
_atom_site_fract_y
_atom_site_fract_z
N1 N 0.14565(18) 0.57271(14) 0.94384(10)
N2 N 0.09720(16) 0.38475(13) 0.92175(9)
N3 N 0.4527(2) 0.2771(2) 1.08404(14)
C1 C 0.0214(2) 0.56906(16) 0.88918(11)
C2 C -0.0631(3) 0.6575(2) 0.85316(14)
C3 C -0.1816(3) 0.6221(3) 0.80187(16)
C4 C -0.2123(3) 0.5035(3) 0.78763(15)
C5 C -0.1261(2) 0.4193(2) 0.82394(13)
C6 C -0.0077(2) 0.45300(17) 0.87556(11)
C7 C 0.1826(2) 0.46119(16) 0.96053(11)
C8 C 0.30693(19) 0.42964(18) 1.01897(11)
C9 C 0.3913(2) 0.5112(2) 1.06415(14)
C10 C 0.5042(3) 0.4722(3) 1.11819(15)
C11 C 0.5296(3) 0.3576(3) 1.12561(17)
C12 C 0.3442(3) 0.3134(2) 1.03240(15)
H1 H 0.196(2) 0.639(2) 0.9682(14)
H2 H -0.040(2) 0.739(2) 0.8648(13)
H3 H -0.246(3) 0.673(2) 0.7782(14)
H4 H -0.299(3) 0.481(2) 0.7554(14)
H5 H -0.147(2) 0.331(2) 0.8156(14)
H6 H 0.371(3) 0.592(2) 1.0576(14)
H7 H 0.564(3) 0.528(2) 1.1479(17)
H8 H 0.612(3) 0.327(2) 1.1650(15)
H9 H 0.284(3) 0.255(2) 1.0028(16)
N1 N 0.35435(18) 1.07271(14) 0.55616(10)
N2 N 0.40280(16) 0.88475(13) 0.57825(9)
N3 N 0.0473(2) 0.7771(2) 0.41596(14)
C1 C 0.4786(2) 1.06906(16) 0.61082(11)
C2 C 0.5631(3) 1.1575(2) 0.64684(14)
C3 C 0.6816(3) 1.1221(3) 0.69813(16)
C4 C 0.7123(3) 1.0035(3) 0.71237(15)
C5 C 0.6261(2) 0.9193(2) 0.67606(13)
C6 C 0.5077(2) 0.95300(17) 0.62444(11)
C7 C 0.3174(2) 0.96119(16) 0.53947(11)
C8 C 0.19307(19) 0.92964(18) 0.48103(11)
C9 C 0.1087(2) 1.0112(2) 0.43585(14)
C10 C -0.0042(3) 0.9722(3) 0.38181(15)
C11 C -0.0296(3) 0.8576(3) 0.37439(17)
C12 C 0.1558(3) 0.8134(2) 0.46760(15)
H1 H 0.304(2) 1.139(2) 0.5318(14)
H2 H 0.540(2) 1.239(2) 0.6352(13)
H3 H 0.746(3) 1.173(2) 0.7218(14)
H4 H 0.799(3) 0.981(2) 0.7446(14)
H5 H 0.647(2) 0.831(2) 0.6844(14)
H6 H 0.129(3) 1.092(2) 0.4424(14)
H7 H -0.064(3) 1.028(2) 0.3521(17)
H8 H -0.112(3) 0.827(2) 0.3350(15)
H9 H 0.216(3) 0.755(2) 0.4972(16)
N1 N 0.85435(18) 0.42729(14) 0.05616(10)
N2 N 0.90280(16) 0.61525(13) 0.07825(9)
N3 N 0.5473(2) 0.7229(2) -0.08404(14)
C1 C 0.9786(2) 0.43094(16) 0.11082(11)
C2 C 1.0631(3) 0.3425(2) 0.14684(14)
C3 C 1.1816(3) 0.3779(3) 0.19813(16)
C4 C 1.2123(3) 0.4965(3) 0.21237(15)
C5 C 1.1261(2) 0.5807(2) 0.17606(13)
C6 C 1.0077(2) 0.54700(17) 0.12444(11)
C7 C 0.8174(2) 0.53881(16) 0.03947(11)
C8 C 0.69307(19) 0.57036(18) -0.01897(11)
C9 C 0.6087(2) 0.4888(2) -0.06415(14)
C10 C 0.4958(3) 0.5278(3) -0.11819(15)
C11 C 0.4704(3) 0.6424(3) -0.12561(17)
C12 C 0.6558(3) 0.6866(2) -0.03240(15)
H1 H 0.804(2) 0.361(2) 0.0318(14)
H2 H 1.040(2) 0.261(2) 0.1352(13)
H3 H 1.246(3) 0.327(2) 0.2218(14)
H4 H 1.299(3) 0.519(2) 0.2446(14)
H5 H 1.147(2) 0.669(2) 0.1844(14)
H6 H 0.629(3) 0.408(2) -0.0576(14)
H7 H 0.436(3) 0.472(2) -0.1479(17)
H8 H 0.388(3) 0.673(2) -0.1650(15)
H9 H 0.716(3) 0.745(2) -0.0028(16)
N1 N 0.64565(18) -0.07271(14) 0.44384(10)
N2 N 0.59720(16) 0.11525(13) 0.42175(9)
N3 N 0.9527(2) 0.2229(2) 0.58404(14)
C1 C 0.5214(2) -0.06906(16) 0.38918(11)
C2 C 0.4369(3) -0.1575(2) 0.35316(14)
C3 C 0.3184(3) -0.1221(3) 0.30187(16)
C4 C 0.2877(3) -0.0035(3) 0.28763(15)
C5 C 0.3739(2) 0.0807(2) 0.32394(13)
C6 C 0.4923(2) 0.04700(17) 0.37556(11)
C7 C 0.6826(2) 0.03881(16) 0.46053(11)
C8 C 0.80693(19) 0.07036(18) 0.51897(11)
C9 C 0.8913(2) -0.0112(2) 0.56415(14)
C10 C 1.0042(3) 0.0278(3) 0.61819(15)
C11 C 1.0296(3) 0.1424(3) 0.62561(17)
C12 C 0.8442(3) 0.1866(2) 0.53240(15)
H1 H 0.696(2) -0.139(2) 0.4682(14)
H2 H 0.460(2) -0.239(2) 0.3648(13)
H3 H 0.254(3) -0.173(2) 0.2782(14)
H4 H 0.201(3) 0.019(2) 0.2554(14)
H5 H 0.353(2) 0.169(2) 0.3156(14)
H6 H 0.871(3) -0.092(2) 0.5576(14)
H7 H 1.064(3) -0.028(2) 0.6479(17)
H8 H 1.112(3) 0.173(2) 0.6650(15)
H9 H 0.784(3) 0.245(2) 0.5028(16)
N4 N 0.97794(17) 1.04558(13) 0.13855(9)
N5 N 0.91009(16) 0.86053(14) 0.11603(9)
N6 N 1.23778(17) 0.79341(13) 0.00928(10)
C13 C 0.8610(2) 1.02806(16) 0.16407(11)
C14 C 0.7871(3) 1.1058(2) 0.19783(13)
C15 C 0.6730(3) 1.0661(3) 0.21730(15)
C16 C 0.6299(3) 0.9512(3) 0.20370(15)
C17 C 0.7003(2) 0.8722(2) 0.16934(14)
C18 C 0.8167(2) 0.91273(17) 0.15024(11)
C19 C 1.00344(19) 0.94422(15) 0.11040(10)
C20 C 1.11875(18) 0.92240(15) 0.07648(10)
C21 C 1.2183(2) 1.00619(17) 0.07936(12)
C22 C 1.3252(2) 0.98226(19) 0.04723(14)
C23 C 1.3320(2) 0.87572(18) 0.01315(13)
C24 C 1.1338(2) 0.81805(16) 0.04059(12)
H10 H 0.906(2) 0.785(2) 0.1013(12)
H11 H 0.818(2) 1.186(2) 0.2073(13)
H12 H 0.618(3) 1.120(2) 0.2421(15)
H13 H 0.550(3) 0.928(2) 0.2166(13)
H14 H 0.674(2) 0.791(2) 0.1584(12)
H15 H 1.210(2) 1.0823(19) 0.1031(12)
H16 H 1.397(2) 1.0386(19) 0.0502(13)
H17 H 1.406(2) 0.8546(19) -0.0102(12)
H18 H 1.063(2) 0.7564(17) 0.0354(11)
N4 N 0.52206(17) 0.54558(13) 0.36145(9)
N5 N 0.58991(16) 0.36053(14) 0.38397(9)
N6 N 0.26222(17) 0.29341(13) 0.49072(10)
C13 C 0.6390(2) 0.52806(16) 0.33593(11)
C14 C 0.7129(3) 0.6058(2) 0.30217(13)
C15 C 0.8270(3) 0.5661(3) 0.28270(15)
C16 C 0.8701(3) 0.4512(3) 0.29630(15)
C17 C 0.7997(2) 0.3722(2) 0.33066(14)
C18 C 0.6833(2) 0.41273(17) 0.34976(11)
C19 C 0.49656(19) 0.44422(15) 0.38960(10)
C20 C 0.38125(18) 0.42240(15) 0.42352(10)
C21 C 0.2817(2) 0.50619(17) 0.42064(12)
C22 C 0.1748(2) 0.48226(19) 0.45277(14)
C23 C 0.1680(2) 0.37572(18) 0.48685(13)
C24 C 0.3662(2) 0.31805(16) 0.45941(12)
H10 H 0.594(2) 0.285(2) 0.3987(12)
H11 H 0.682(2) 0.686(2) 0.2927(13)
H12 H 0.882(3) 0.620(2) 0.2579(15)
H13 H 0.950(3) 0.428(2) 0.2834(13)
H14 H 0.826(2) 0.291(2) 0.3416(12)
H15 H 0.290(2) 0.5823(19) 0.3969(12)
H16 H 0.103(2) 0.5386(19) 0.4498(13)
H17 H 0.094(2) 0.3546(19) 0.5102(12)
H18 H 0.437(2) 0.2564(17) 0.4646(11)
N4 N 0.02206(17) -0.04558(13) 0.86145(9)
N5 N 0.08991(16) 0.13947(14) 0.88397(9)
N6 N -0.23778(17) 0.20659(13) 0.99072(10)
C13 C 0.1390(2) -0.02806(16) 0.83593(11)
C14 C 0.2129(3) -0.1058(2) 0.80217(13)
C15 C 0.3270(3) -0.0661(3) 0.78270(15)
C16 C 0.3701(3) 0.0488(3) 0.79630(15)
C17 C 0.2997(2) 0.1278(2) 0.83066(14)
C18 C 0.1833(2) 0.08727(17) 0.84976(11)
C19 C -0.00344(19) 0.05578(15) 0.88960(10)
C20 C -0.11875(18) 0.07760(15) 0.92352(10)
C21 C -0.2183(2) -0.00619(17) 0.92064(12)
C22 C -0.3252(2) 0.01774(19) 0.95277(14)
C23 C -0.3320(2) 0.12428(18) 0.98685(13)
C24 C -0.1338(2) 0.18195(16) 0.95941(12)
H10 H 0.094(2) 0.215(2) 0.8987(12)
H11 H 0.182(2) -0.186(2) 0.7927(13)
H12 H 0.382(3) -0.120(2) 0.7579(15)
H13 H 0.450(3) 0.072(2) 0.7834(13)
H14 H 0.326(2) 0.209(2) 0.8416(12)
H15 H -0.210(2) -0.0823(19) 0.8969(12)
H16 H -0.397(2) -0.0386(19) 0.9498(13)
H17 H -0.406(2) 0.1454(19) 1.0102(12)
H18 H -0.063(2) 0.2436(17) 0.9646(11)
N4 N 0.47794(17) 0.45442(13) 0.63855(9)
N5 N 0.41009(16) 0.63947(14) 0.61603(9)
N6 N 0.73778(17) 0.70659(13) 0.50928(10)
C13 C 0.3610(2) 0.47194(16) 0.66407(11)
C14 C 0.2871(3) 0.3942(2) 0.69783(13)
C15 C 0.1730(3) 0.4339(3) 0.71730(15)
C16 C 0.1299(3) 0.5488(3) 0.70370(15)
C17 C 0.2003(2) 0.6278(2) 0.66934(14)
C18 C 0.3167(2) 0.58727(17) 0.65024(11)
C19 C 0.50344(19) 0.55578(15) 0.61040(10)
C20 C 0.61875(18) 0.57760(15) 0.57648(10)
C21 C 0.7183(2) 0.49381(17) 0.57936(12)
C22 C 0.8252(2) 0.51774(19) 0.54723(14)
C23 C 0.8320(2) 0.62428(18) 0.51315(13)
C24 C 0.6338(2) 0.68195(16) 0.54059(12)
H10 H 0.406(2) 0.715(2) 0.6013(12)
H11 H 0.318(2) 0.314(2) 0.7073(13)
H12 H 0.118(3) 0.380(2) 0.7421(15)
H13 H 0.050(3) 0.572(2) 0.7166(13)
H14 H 0.174(2) 0.709(2) 0.6584(12)
H15 H 0.710(2) 0.4177(19) 0.6031(12)
H16 H 0.897(2) 0.4614(19) 0.5502(13)
H17 H 0.906(2) 0.6454(19) 0.4898(12)
H18 H 0.563(2) 0.7436(17) 0.5354(11)

#END
