./ACICAR_from_POSCAR.cif_generated_by_CrystalShift
_symmetry_cell_setting triclinic
_symmetry_space_group_name_H-M 'P 1'
loop_
_symmetry_equiv_pos_site_id
_symmetry_equiv_pos_as_xyz
1 x,y,z
_cell_length_a 11.604300
_cell_length_b 4.773200
_cell_length_c 12.860700
_cell_angle_alpha 90.000000
_cell_angle_beta 92.330000
_cell_angle_gamma 90.000000
_cell_volume 711.760666
loop_
_atom_site_label
_atom_site_type_symbol
_atom_site_fract_x
_atom_site_fract_y
_atom_site_fract_z
H1 H 0.157000 1.167800 0.264000
H2 H 0.065900 1.565300 -0.012700
H3 H 0.049000 1.502400 0.168900
H4 H 0.291800 0.989100 -0.019100
H5 H 0.296000 0.810800 0.262300
H6 H 0.291700 0.102700 0.481400
H7 H 0.491600 0.192700 0.435500
H8 H 0.065600 -0.468200 0.486100
H9 H 0.378200 0.535800 0.356500
H10 H 0.049900 -0.414000 0.669000
H11 H 0.510700 0.398900 0.064500
H12 H 0.157300 -0.083400 0.763200
H13 H 0.623500 0.061300 0.144900
H14 H 0.702400 -0.227700 0.237400
H15 H 0.297600 0.272300 0.762600
H16 H 0.842700 -0.583400 0.236800
H17 H 0.950100 -0.914000 0.331000
H18 H 0.376500 0.561300 0.855100
H19 H 0.934400 -0.968200 0.513900
H20 H 0.489300 0.898900 0.935500
H21 H 0.708300 -0.397300 0.518600
H22 H 0.843000 1.667800 0.736000
H23 H 0.621800 1.035800 0.643500
H24 H 0.934100 2.065300 1.012700
H25 H 0.508400 0.692700 0.564500
H26 H 0.951000 2.002400 0.831100
H27 H 0.704000 1.310800 0.737700
H28 H 0.708200 1.489100 1.019100
C29 C 0.759300 1.600400 0.983500
C30 C 0.763800 1.548500 0.867500
C31 C 0.899200 1.889000 0.865000
C32 C 0.697000 1.337700 0.808800
C33 C 0.888100 1.928000 0.980800
C34 C 0.505200 0.731700 0.635200
C35 C 0.836500 1.695200 0.807100
C36 C 0.571700 0.933100 0.683300
C37 C 0.111900 1.428000 0.019200
C38 C 0.100800 1.389000 0.135000
C39 C 0.240700 1.100400 0.016500
C40 C 0.236200 1.048500 0.132500
C41 C 0.759800 -0.508000 0.483400
C42 C 0.567300 0.997900 0.800100
C43 C 0.887600 -0.833300 0.481400
C44 C 0.493400 0.859300 0.865000
C45 C 0.898800 -0.799000 0.364800
C46 C 0.428100 0.661700 0.816000
C47 C 0.836800 -0.607400 0.308100
C48 C 0.433600 0.591900 0.699000
C49 C 0.765300 -0.455000 0.366700
C50 C 0.696900 -0.250500 0.308800
C51 C 0.303100 0.249500 0.691200
C52 C 0.566400 0.091900 0.301000
C53 C 0.571900 0.161700 0.184000
C54 C 0.234700 0.045000 0.633300
C55 C 0.506600 0.359300 0.135000
C56 C 0.163200 -0.107400 0.691900
C57 C 0.432700 0.497900 0.199900
C58 C 0.428300 0.433100 0.316700
C59 C 0.101200 -0.299000 0.635200
C60 C 0.494800 0.231700 0.364800
C61 C 0.112400 -0.333300 0.518600
C62 C 0.303000 0.837700 0.191200
C63 C 0.240200 -0.008000 0.516600
C64 C 0.163500 1.195200 0.192900
N65 N 0.819700 1.786000 1.041000
N66 N 0.630300 -0.106900 0.360100
N67 N 0.630700 1.197900 0.860600
N68 N 0.819300 -0.694000 0.541200
N69 N 0.369700 0.393100 0.639900
N70 N 0.369300 0.697900 0.139400
N71 N 0.180300 1.286000 -0.041000
N72 N 0.180700 -0.194000 0.458800

#END
