
#######################################################################
#
#                 Cambridge Crystallographic Data Centre
#                                CCDC 
#
#######################################################################
#
# If this CIF has been generated from an entry in the Cambridge 
# Structural Database, then it will include bibliographic, chemical, 
# crystal, experimental, refinement or atomic coordinate data resulting 
# from the CCDC's data processing and validation procedures.
#
#######################################################################

data_ACIDUN
_symmetry_cell_setting           monoclinic
_symmetry_space_group_name_H-M   'C 2/c'
_symmetry_Int_Tables_number      15
_space_group_name_Hall           '-C 2yn'
loop_
_symmetry_equiv_pos_site_id
_symmetry_equiv_pos_as_xyz
1 x,y,z
2 -x,y,1/2-z
3 1/2+x,1/2+y,z
4 1/2-x,1/2+y,1/2-z
5 -x,-y,-z
6 x,-y,1/2+z
7 1/2-x,1/2-y,-z
8 1/2+x,1/2-y,1/2+z
_cell_length_a                   28.801(4)
_cell_length_b                   5.7090(8)
_cell_length_c                   18.589(3)
_cell_angle_alpha                90
_cell_angle_beta                 115.851(3)
_cell_angle_gamma                90
_cell_volume                     2750.63
loop_
_atom_site_label
_atom_site_type_symbol
_atom_site_fract_x
_atom_site_fract_y
_atom_site_fract_z
C1 C 0.39983(8) 1.1081(4) 0.36851(14)
H1 H 0.3725 1.0362 0.3791
H2 H 0.3844 1.2179 0.3237
H3 H 0.4237 1.1925 0.4162
C2 C 0.45073(10) 0.7406(4) 0.41526(10)
H4 H 0.4705 0.6218 0.4025
H5 H 0.4223 0.6652 0.4220
H6 H 0.4733 0.8207 0.4649
C3 C 0.42899(6) 0.9182(3) 0.34753(9)
C4 C 0.47285(7) 1.0336(4) 0.33623(11)
H7 H 0.4952 1.1178 0.3851
H8 H 0.4587 1.1440 0.2915
H9 H 0.4930 0.9134 0.3248
C5 C 0.39397(5) 0.7887(3) 0.27231(8)
C6 C 0.40719(6) 0.6707(3) 0.21763(8)
H10 H 0.4406 0.6615 0.2192
C7 C 0.36261(6) 0.5706(3) 0.16122(8)
C8 C 0.35442(6) 0.4309(3) 0.08713(8)
C9 C 0.32822(7) 0.1941(3) 0.08337(10)
H11 H 0.3480 0.1066 0.1328
H12 H 0.3269 0.1042 0.0376
H13 H 0.2931 0.2203 0.0773
C10 C 0.32289(7) 0.5728(3) 0.01123(9)
H14 H 0.2895 0.6143 0.0098
H15 H 0.3174 0.4787 -0.0359
H16 H 0.3417 0.7159 0.0114
C11 C 0.40723(7) 0.3798(4) 0.08977(11)
H17 H 0.4245 0.5278 0.0897
H18 H 0.4028 0.2872 0.0428
H19 H 0.4283 0.2918 0.1384
C12 C 0.27068(5) 0.5689(3) 0.14994(8)
H20 H 0.2587 0.5232 0.0933
H21 H 0.2504 0.7070 0.1517
C13 C 0.26096(6) 0.3675(3) 0.19548(9)
H22 H 0.2846 0.2358 0.2009
H23 H 0.2671 0.4197 0.2497
N1 N 0.34366(5) 0.7646(2) 0.25125(7)
N2 N 0.32492(4) 0.6323(2) 0.18311(7)
O1 O 0.20919(4) 0.2951(2) 0.15208(6)
H24 H 0.1942 0.2997 0.1819
C1 C 0.60017(8) 1.1081(4) 0.13149(14)
H1 H 0.6275 1.0362 0.1209
H2 H 0.6156 1.2179 0.1763
H3 H 0.5763 1.1925 0.0838
C2 C 0.54927(10) 0.7406(4) 0.08474(10)
H4 H 0.5295 0.6218 0.0975
H5 H 0.5777 0.6652 0.0780
H6 H 0.5267 0.8207 0.0351
C3 C 0.57101(6) 0.9182(3) 0.15247(9)
C4 C 0.52715(7) 1.0336(4) 0.16377(11)
H7 H 0.5048 1.1178 0.1149
H8 H 0.5413 1.1440 0.2085
H9 H 0.5070 0.9134 0.1752
C5 C 0.60603(5) 0.7887(3) 0.22769(8)
C6 C 0.59281(6) 0.6707(3) 0.28237(8)
H10 H 0.5594 0.6615 0.2808
C7 C 0.63739(6) 0.5706(3) 0.33878(8)
C8 C 0.64558(6) 0.4309(3) 0.41287(8)
C9 C 0.67178(7) 0.1941(3) 0.41663(10)
H11 H 0.6520 0.1066 0.3672
H12 H 0.6731 0.1042 0.4624
H13 H 0.7069 0.2203 0.4227
C10 C 0.67711(7) 0.5728(3) 0.48877(9)
H14 H 0.7105 0.6143 0.4902
H15 H 0.6826 0.4787 0.5359
H16 H 0.6583 0.7159 0.4886
C11 C 0.59277(7) 0.3798(4) 0.41023(11)
H17 H 0.5755 0.5278 0.4103
H18 H 0.5972 0.2872 0.4572
H19 H 0.5717 0.2918 0.3616
C12 C 0.72932(5) 0.5689(3) 0.35006(8)
H20 H 0.7413 0.5232 0.4067
H21 H 0.7496 0.7070 0.3483
C13 C 0.73904(6) 0.3675(3) 0.30452(9)
H22 H 0.7154 0.2358 0.2991
H23 H 0.7329 0.4197 0.2503
N1 N 0.65634(5) 0.7646(2) 0.24875(7)
N2 N 0.67508(4) 0.6323(2) 0.31689(7)
O1 O 0.79081(4) 0.2951(2) 0.34792(6)
H24 H 0.8058 0.2997 0.3181
C1 C 0.89983(8) 0.6081(4) 0.36851(14)
H1 H 0.8725 0.5362 0.3791
H2 H 0.8844 0.7179 0.3237
H3 H 0.9237 0.6925 0.4162
C2 C 0.95073(10) 0.2406(4) 0.41526(10)
H4 H 0.9705 0.1218 0.4025
H5 H 0.9223 0.1652 0.4220
H6 H 0.9733 0.3207 0.4649
C3 C 0.92899(6) 0.4182(3) 0.34753(9)
C4 C 0.97285(7) 0.5336(4) 0.33623(11)
H7 H 0.9952 0.6178 0.3851
H8 H 0.9587 0.6440 0.2915
H9 H 0.9930 0.4134 0.3248
C5 C 0.89397(5) 0.2887(3) 0.27231(8)
C6 C 0.90719(6) 0.1707(3) 0.21763(8)
H10 H 0.9406 0.1615 0.2192
C7 C 0.86261(6) 0.0706(3) 0.16122(8)
C8 C 0.85442(6) -0.0691(3) 0.08713(8)
C9 C 0.82822(7) -0.3059(3) 0.08337(10)
H11 H 0.8480 -0.3934 0.1328
H12 H 0.8269 -0.3958 0.0376
H13 H 0.7931 -0.2797 0.0773
C10 C 0.82289(7) 0.0728(3) 0.01123(9)
H14 H 0.7895 0.1143 0.0098
H15 H 0.8174 -0.0213 -0.0359
H16 H 0.8417 0.2159 0.0114
C11 C 0.90723(7) -0.1202(4) 0.08977(11)
H17 H 0.9245 0.0278 0.0897
H18 H 0.9028 -0.2128 0.0428
H19 H 0.9283 -0.2082 0.1384
C12 C 0.77068(5) 0.0689(3) 0.14994(8)
H20 H 0.7587 0.0232 0.0933
H21 H 0.7504 0.2070 0.1517
C13 C 0.76096(6) -0.1325(3) 0.19548(9)
H22 H 0.7846 -0.2642 0.2009
H23 H 0.7671 -0.0803 0.2497
N1 N 0.84366(5) 0.2646(2) 0.25125(7)
N2 N 0.82492(4) 0.1323(2) 0.18311(7)
O1 O 0.70919(4) -0.2049(2) 0.15208(6)
H24 H 0.6942 -0.2003 0.1819
C1 C 0.10017(8) 0.6081(4) 0.13149(14)
H1 H 0.1275 0.5362 0.1209
H2 H 0.1156 0.7179 0.1763
H3 H 0.0763 0.6925 0.0838
C2 C 0.04927(10) 0.2406(4) 0.08474(10)
H4 H 0.0295 0.1218 0.0975
H5 H 0.0777 0.1652 0.0780
H6 H 0.0267 0.3207 0.0351
C3 C 0.07101(6) 0.4182(3) 0.15247(9)
C4 C 0.02715(7) 0.5336(4) 0.16377(11)
H7 H 0.0048 0.6178 0.1149
H8 H 0.0413 0.6440 0.2085
H9 H 0.0070 0.4134 0.1752
C5 C 0.10603(5) 0.2887(3) 0.22769(8)
C6 C 0.09281(6) 0.1707(3) 0.28237(8)
H10 H 0.0594 0.1615 0.2808
C7 C 0.13739(6) 0.0706(3) 0.33878(8)
C8 C 0.14558(6) -0.0691(3) 0.41287(8)
C9 C 0.17178(7) -0.3059(3) 0.41663(10)
H11 H 0.1520 -0.3934 0.3672
H12 H 0.1731 -0.3958 0.4624
H13 H 0.2069 -0.2797 0.4227
C10 C 0.17711(7) 0.0728(3) 0.48877(9)
H14 H 0.2105 0.1143 0.4902
H15 H 0.1826 -0.0213 0.5359
H16 H 0.1583 0.2159 0.4886
C11 C 0.09277(7) -0.1202(4) 0.41023(11)
H17 H 0.0755 0.0278 0.4103
H18 H 0.0972 -0.2128 0.4572
H19 H 0.0717 -0.2082 0.3616
C12 C 0.22932(5) 0.0689(3) 0.35006(8)
H20 H 0.2413 0.0232 0.4067
H21 H 0.2496 0.2070 0.3483
C13 C 0.23904(6) -0.1325(3) 0.30452(9)
H22 H 0.2154 -0.2642 0.2991
H23 H 0.2329 -0.0803 0.2503
N1 N 0.15634(5) 0.2646(2) 0.24875(7)
N2 N 0.17508(4) 0.1323(2) 0.31689(7)
O1 O 0.29081(4) -0.2049(2) 0.34792(6)
H24 H 0.3058 -0.2003 0.3181
C1 C 0.60017(8) -0.1081(4) 0.63149(14)
H1 H 0.6275 -0.0362 0.6209
H2 H 0.6156 -0.2179 0.6763
H3 H 0.5763 -0.1925 0.5838
C2 C 0.54927(10) 0.2594(4) 0.58474(10)
H4 H 0.5295 0.3782 0.5975
H5 H 0.5777 0.3348 0.5780
H6 H 0.5267 0.1793 0.5351
C3 C 0.57101(6) 0.0818(3) 0.65247(9)
C4 C 0.52715(7) -0.0336(4) 0.66377(11)
H7 H 0.5048 -0.1178 0.6149
H8 H 0.5413 -0.1440 0.7085
H9 H 0.5070 0.0866 0.6752
C5 C 0.60603(5) 0.2113(3) 0.72769(8)
C6 C 0.59281(6) 0.3293(3) 0.78237(8)
H10 H 0.5594 0.3385 0.7808
C7 C 0.63739(6) 0.4294(3) 0.83878(8)
C8 C 0.64558(6) 0.5691(3) 0.91287(8)
C9 C 0.67178(7) 0.8059(3) 0.91663(10)
H11 H 0.6520 0.8934 0.8672
H12 H 0.6731 0.8958 0.9624
H13 H 0.7069 0.7797 0.9227
C10 C 0.67711(7) 0.4272(3) 0.98877(9)
H14 H 0.7105 0.3857 0.9902
H15 H 0.6826 0.5213 1.0359
H16 H 0.6583 0.2841 0.9886
C11 C 0.59277(7) 0.6202(4) 0.91023(11)
H17 H 0.5755 0.4722 0.9103
H18 H 0.5972 0.7128 0.9572
H19 H 0.5717 0.7082 0.8616
C12 C 0.72932(5) 0.4311(3) 0.85006(8)
H20 H 0.7413 0.4768 0.9067
H21 H 0.7496 0.2930 0.8483
C13 C 0.73904(6) 0.6325(3) 0.80452(9)
H22 H 0.7154 0.7642 0.7991
H23 H 0.7329 0.5803 0.7503
N1 N 0.65634(5) 0.2354(2) 0.74875(7)
N2 N 0.67508(4) 0.3677(2) 0.81689(7)
O1 O 0.79081(4) 0.7049(2) 0.84792(6)
H24 H 0.8058 0.7003 0.8181
C1 C 0.39983(8) -0.1081(4) 0.86851(14)
H1 H 0.3725 -0.0362 0.8791
H2 H 0.3844 -0.2179 0.8237
H3 H 0.4237 -0.1925 0.9162
C2 C 0.45073(10) 0.2594(4) 0.91526(10)
H4 H 0.4705 0.3782 0.9025
H5 H 0.4223 0.3348 0.9220
H6 H 0.4733 0.1793 0.9649
C3 C 0.42899(6) 0.0818(3) 0.84753(9)
C4 C 0.47285(7) -0.0336(4) 0.83623(11)
H7 H 0.4952 -0.1178 0.8851
H8 H 0.4587 -0.1440 0.7915
H9 H 0.4930 0.0866 0.8248
C5 C 0.39397(5) 0.2113(3) 0.77231(8)
C6 C 0.40719(6) 0.3293(3) 0.71763(8)
H10 H 0.4406 0.3385 0.7192
C7 C 0.36261(6) 0.4294(3) 0.66122(8)
C8 C 0.35442(6) 0.5691(3) 0.58713(8)
C9 C 0.32822(7) 0.8059(3) 0.58337(10)
H11 H 0.3480 0.8934 0.6328
H12 H 0.3269 0.8958 0.5376
H13 H 0.2931 0.7797 0.5773
C10 C 0.32289(7) 0.4272(3) 0.51123(9)
H14 H 0.2895 0.3857 0.5098
H15 H 0.3174 0.5213 0.4641
H16 H 0.3417 0.2841 0.5114
C11 C 0.40723(7) 0.6202(4) 0.58977(11)
H17 H 0.4245 0.4722 0.5897
H18 H 0.4028 0.7128 0.5428
H19 H 0.4283 0.7082 0.6384
C12 C 0.27068(5) 0.4311(3) 0.64994(8)
H20 H 0.2587 0.4768 0.5933
H21 H 0.2504 0.2930 0.6517
C13 C 0.26096(6) 0.6325(3) 0.69548(9)
H22 H 0.2846 0.7642 0.7009
H23 H 0.2671 0.5803 0.7497
N1 N 0.34366(5) 0.2354(2) 0.75125(7)
N2 N 0.32492(4) 0.3677(2) 0.68311(7)
O1 O 0.20919(4) 0.7049(2) 0.65208(6)
H24 H 0.1942 0.7003 0.6819
C1 C 0.10017(8) 0.3919(4) 0.63149(14)
H1 H 0.1275 0.4638 0.6209
H2 H 0.1156 0.2821 0.6763
H3 H 0.0763 0.3075 0.5838
C2 C 0.04927(10) 0.7594(4) 0.58474(10)
H4 H 0.0295 0.8782 0.5975
H5 H 0.0777 0.8348 0.5780
H6 H 0.0267 0.6793 0.5351
C3 C 0.07101(6) 0.5818(3) 0.65247(9)
C4 C 0.02715(7) 0.4664(4) 0.66377(11)
H7 H 0.0048 0.3822 0.6149
H8 H 0.0413 0.3560 0.7085
H9 H 0.0070 0.5866 0.6752
C5 C 0.10603(5) 0.7113(3) 0.72769(8)
C6 C 0.09281(6) 0.8293(3) 0.78237(8)
H10 H 0.0594 0.8385 0.7808
C7 C 0.13739(6) 0.9294(3) 0.83878(8)
C8 C 0.14558(6) 1.0691(3) 0.91287(8)
C9 C 0.17178(7) 1.3059(3) 0.91663(10)
H11 H 0.1520 1.3934 0.8672
H12 H 0.1731 1.3958 0.9624
H13 H 0.2069 1.2797 0.9227
C10 C 0.17711(7) 0.9272(3) 0.98877(9)
H14 H 0.2105 0.8857 0.9902
H15 H 0.1826 1.0213 1.0359
H16 H 0.1583 0.7841 0.9886
C11 C 0.09277(7) 1.1202(4) 0.91023(11)
H17 H 0.0755 0.9722 0.9103
H18 H 0.0972 1.2128 0.9572
H19 H 0.0717 1.2082 0.8616
C12 C 0.22932(5) 0.9311(3) 0.85006(8)
H20 H 0.2413 0.9768 0.9067
H21 H 0.2496 0.7930 0.8483
C13 C 0.23904(6) 1.1325(3) 0.80452(9)
H22 H 0.2154 1.2642 0.7991
H23 H 0.2329 1.0803 0.7503
N1 N 0.15634(5) 0.7354(2) 0.74875(7)
N2 N 0.17508(4) 0.8677(2) 0.81689(7)
O1 O 0.29081(4) 1.2049(2) 0.84792(6)
H24 H 0.3058 1.2003 0.8181
C1 C 0.89983(8) 0.3919(4) 0.86851(14)
H1 H 0.8725 0.4638 0.8791
H2 H 0.8844 0.2821 0.8237
H3 H 0.9237 0.3075 0.9162
C2 C 0.95073(10) 0.7594(4) 0.91526(10)
H4 H 0.9705 0.8782 0.9025
H5 H 0.9223 0.8348 0.9220
H6 H 0.9733 0.6793 0.9649
C3 C 0.92899(6) 0.5818(3) 0.84753(9)
C4 C 0.97285(7) 0.4664(4) 0.83623(11)
H7 H 0.9952 0.3822 0.8851
H8 H 0.9587 0.3560 0.7915
H9 H 0.9930 0.5866 0.8248
C5 C 0.89397(5) 0.7113(3) 0.77231(8)
C6 C 0.90719(6) 0.8293(3) 0.71763(8)
H10 H 0.9406 0.8385 0.7192
C7 C 0.86261(6) 0.9294(3) 0.66122(8)
C8 C 0.85442(6) 1.0691(3) 0.58713(8)
C9 C 0.82822(7) 1.3059(3) 0.58337(10)
H11 H 0.8480 1.3934 0.6328
H12 H 0.8269 1.3958 0.5376
H13 H 0.7931 1.2797 0.5773
C10 C 0.82289(7) 0.9272(3) 0.51123(9)
H14 H 0.7895 0.8857 0.5098
H15 H 0.8174 1.0213 0.4641
H16 H 0.8417 0.7841 0.5114
C11 C 0.90723(7) 1.1202(4) 0.58977(11)
H17 H 0.9245 0.9722 0.5897
H18 H 0.9028 1.2128 0.5428
H19 H 0.9283 1.2082 0.6384
C12 C 0.77068(5) 0.9311(3) 0.64994(8)
H20 H 0.7587 0.9768 0.5933
H21 H 0.7504 0.7930 0.6517
C13 C 0.76096(6) 1.1325(3) 0.69548(9)
H22 H 0.7846 1.2642 0.7009
H23 H 0.7671 1.0803 0.7497
N1 N 0.84366(5) 0.7354(2) 0.75125(7)
N2 N 0.82492(4) 0.8677(2) 0.68311(7)
O1 O 0.70919(4) 1.2049(2) 0.65208(6)
H24 H 0.6942 1.2003 0.6819

#END
