./ACIDEV_from_POSCAR.cif_generated_by_CrystalShift
_symmetry_cell_setting triclinic
_symmetry_space_group_name_H-M 'P 1'
loop_
_symmetry_equiv_pos_site_id
_symmetry_equiv_pos_as_xyz
1 x,y,z
_cell_length_a 8.733000
_cell_length_b 5.871000
_cell_length_c 15.307000
_cell_angle_alpha 90.000000
_cell_angle_beta 90.535000
_cell_angle_gamma 90.000000
_cell_volume 784.777765
loop_
_atom_site_label
_atom_site_type_symbol
_atom_site_fract_x
_atom_site_fract_y
_atom_site_fract_z
H1 H 0.569000 0.267000 0.510000
H2 H 0.646000 0.484000 0.455900
H3 H 0.431000 0.733000 0.490000
H4 H 0.149000 0.933000 0.980000
H5 H 0.064000 1.297000 0.923000
H6 H 0.354000 0.516000 0.544100
H7 H 0.644000 0.738000 0.590100
H8 H 0.148000 1.418000 0.786200
H9 H 0.568000 0.520000 0.642100
H10 H 0.441000 0.616000 0.760100
H11 H 0.307000 0.699000 0.892900
H12 H 0.193000 0.199000 0.107100
H13 H 0.059000 0.116000 0.239900
H14 H -0.068000 0.020000 0.357900
H15 H 0.352000 0.918000 0.213800
H16 H -0.144000 0.238000 0.409900
H17 H 0.146000 0.016000 0.455900
H18 H 0.436000 0.797000 0.077000
H19 H 0.351000 0.433000 0.020000
H20 H 0.069000 0.233000 0.510000
H21 H 0.119000 0.583000 0.348000
H22 H 0.931000 0.767000 0.490000
H23 H 0.854000 0.984000 0.544100
H24 H 0.356000 0.262000 0.409900
H25 H 1.144000 0.762000 0.590100
H26 H 1.068000 0.980000 0.642100
H27 H 0.941000 0.884000 0.760100
H28 H 0.807000 0.801000 0.892900
H29 H 0.649000 0.567000 0.980000
H30 H 0.564000 0.203000 0.923000
H31 H 0.648000 0.082000 0.786200
H32 H 0.432000 0.480000 0.357900
H33 H -0.119000 -0.583000 0.652000
H34 H -0.352000 -0.918000 0.786200
H35 H -0.436000 -0.797000 0.923000
H36 H -0.351000 -0.433000 0.980000
H37 H -0.193000 -0.199000 0.892900
H38 H -0.059000 -0.116000 0.760100
H39 H 0.068000 -0.020000 0.642100
H40 H 0.144000 -0.238000 0.590100
H41 H -0.146000 -0.016000 0.544100
H42 H -0.069000 -0.233000 0.490000
H43 H 0.559000 0.384000 0.239900
H44 H 0.693000 0.301000 0.107100
H45 H 0.881000 0.417000 0.652000
H46 H 1.119000 1.583000 0.348000
H47 H 1.069000 1.233000 0.510000
H48 H 1.351000 1.433000 0.020000
H49 H 1.436000 1.797000 0.077000
H50 H 1.146000 1.016000 0.455900
H51 H 0.856000 1.238000 0.409900
H52 H 1.352000 1.918000 0.213800
H53 H 0.932000 1.020000 0.357900
H54 H 0.193000 1.199000 0.107100
H55 H 0.059000 1.116000 0.239900
H56 H -0.068000 1.020000 0.357900
H57 H 0.352000 1.918000 0.213800
H58 H -0.144000 1.238000 0.409900
H59 H 0.146000 1.016000 0.455900
H60 H 0.436000 1.797000 0.077000
H61 H 0.351000 1.433000 0.020000
H62 H 0.069000 1.233000 0.510000
H63 H 0.119000 1.583000 0.348000
H64 H 1.059000 1.116000 0.239900
H65 H 1.193000 1.199000 0.107100
H66 H 0.851000 0.067000 0.020000
H67 H 0.931000 -0.233000 0.490000
H68 H 0.854000 -0.016000 0.544100
H69 H 1.144000 -0.238000 0.590100
H70 H 1.068000 -0.020000 0.642100
H71 H 0.941000 -0.116000 0.760100
H72 H 0.807000 -0.199000 0.892900
H73 H 0.649000 -0.433000 0.980000
H74 H 0.936000 -0.297000 0.077000
H75 H -0.119000 0.417000 0.652000
H76 H -0.352000 0.082000 0.786200
H77 H -0.436000 0.203000 0.923000
H78 H -0.351000 0.567000 0.980000
H79 H -0.193000 0.801000 0.892900
H80 H -0.059000 0.884000 0.760100
H81 H 0.068000 0.980000 0.642100
H82 H 0.144000 0.762000 0.590100
H83 H -0.146000 0.984000 0.544100
H84 H -0.069000 0.767000 0.490000
H85 H 0.852000 -0.418000 0.213800
H86 H 0.619000 -0.083000 0.348000
H87 H 0.564000 -0.797000 0.923000
H88 H 0.648000 -0.918000 0.786200
H89 H 0.881000 -0.583000 0.652000
H90 H 1.119000 0.583000 0.348000
H91 H 1.069000 0.233000 0.510000
H92 H 1.351000 0.433000 0.020000
H93 H 1.436000 0.797000 0.077000
H94 H 1.146000 0.016000 0.455900
H95 H 0.381000 1.083000 0.652000
H96 H 1.193000 0.199000 0.107100
H97 H 1.059000 0.116000 0.239900
H98 H 0.932000 0.020000 0.357900
H99 H 1.352000 0.918000 0.213800
H100 H 0.856000 0.238000 0.409900
C101 C 1.320100 0.771500 0.190900
C102 C 1.368600 0.696800 0.110300
C103 C 1.322400 0.486600 0.078000
C104 C 1.228500 0.350500 0.127800
C105 C 1.179600 0.420300 0.210400
C106 C 0.954900 -0.087800 0.525800
C107 C 1.041800 -0.159500 0.608100
C108 C 0.725000 -0.135400 0.241400
C109 C 0.913000 -0.268200 0.736200
C110 C 0.820400 -0.420300 0.789600
C111 C 0.771500 -0.350500 0.872200
C112 C 0.677600 -0.486600 0.922000
C113 C 0.631400 -0.696800 0.889700
C114 C 0.679900 -0.771500 0.809100
C115 C 0.775000 -0.635400 0.758600
C116 C 0.820100 -0.271500 0.190900
C117 C 1.087000 0.268200 0.263800
C118 C 0.958200 0.159500 0.391900
C119 C 1.045100 0.087800 0.474200
C120 C -0.225000 0.364600 0.758600
C121 C -0.320100 0.228500 0.809100
C122 C -0.368600 0.303200 0.889700
C123 C -0.322400 0.513400 0.922000
C124 C -0.228500 0.649500 0.872200
C125 C -0.179600 0.579700 0.789600
C126 C -0.087000 0.731800 0.736200
C127 C 0.868600 -0.196800 0.110300
C128 C 0.822400 0.013400 0.078000
C129 C 1.045100 1.087800 0.474200
C130 C 0.958200 1.159500 0.391900
C131 C 1.087000 1.268200 0.263800
C132 C 1.179600 1.420300 0.210400
C133 C 1.228500 1.350500 0.127800
C134 C 1.322400 1.486600 0.078000
C135 C 1.368600 1.696800 0.110300
C136 C 1.320100 1.771500 0.190900
C137 C 1.225000 1.635400 0.241400
C138 C 0.041800 0.840500 0.608100
C139 C -0.045100 0.912200 0.525800
C140 C 0.225000 1.635400 0.241400
C141 C 0.320100 1.771500 0.190900
C142 C 0.368600 1.696800 0.110300
C143 C 0.322400 1.486600 0.078000
C144 C 0.228500 1.350500 0.127800
C145 C 0.179600 1.420300 0.210400
C146 C 0.087000 1.268200 0.263800
C147 C -0.041800 1.159500 0.391900
C148 C 0.954900 0.912200 0.525800
C149 C 1.041800 0.840500 0.608100
C150 C 0.728500 0.149500 0.127800
C151 C 0.913000 0.731800 0.736200
C152 C 0.820400 0.579700 0.789600
C153 C 0.771500 0.649500 0.872200
C154 C 0.677600 0.513400 0.922000
C155 C 0.631400 0.303200 0.889700
C156 C 0.679900 0.228500 0.809100
C157 C 0.775000 0.364600 0.758600
C158 C 0.679600 0.079700 0.210400
C159 C 0.045100 1.087800 0.474200
C160 C -0.225000 -0.635400 0.758600
C161 C -0.320100 -0.771500 0.809100
C162 C -0.368600 -0.696800 0.889700
C163 C -0.322400 -0.486600 0.922000
C164 C -0.228500 -0.350500 0.872200
C165 C -0.179600 -0.420300 0.789600
C166 C -0.087000 -0.268200 0.736200
C167 C 0.041800 -0.159500 0.608100
C168 C -0.045100 -0.087800 0.525800
C169 C 0.587000 0.231800 0.263800
C170 C 0.458200 0.340500 0.391900
C171 C 0.454900 0.587800 0.525800
C172 C 0.541800 0.659500 0.608100
C173 C 0.413000 0.768200 0.736200
C174 C 0.320400 0.920300 0.789600
C175 C 0.271500 0.850500 0.872200
C176 C 0.177600 0.986600 0.922000
C177 C 0.131400 1.196800 0.889700
C178 C 0.179900 1.271500 0.809100
C179 C 0.275000 1.135400 0.758600
C180 C 0.225000 0.635400 0.241400
C181 C 0.320100 0.771500 0.190900
C182 C 0.368600 0.696800 0.110300
C183 C 0.322400 0.486600 0.078000
C184 C 0.228500 0.350500 0.127800
C185 C 0.179600 0.420300 0.210400
C186 C 0.087000 0.268200 0.263800
C187 C -0.041800 0.159500 0.391900
C188 C 0.045100 0.087800 0.474200
C189 C 1.225000 0.635400 0.241400
C190 C 0.545100 0.412200 0.474200
N191 N 0.454800 0.824500 0.658790
N192 N 0.545200 0.175500 0.341210
N193 N 0.045200 0.324500 0.341210
N194 N -0.045200 -0.324500 0.658790
N195 N 0.954800 0.675500 0.658790
N196 N 1.045200 1.324500 0.341210
N197 N 0.045200 1.324500 0.341210
N198 N -0.045200 0.675500 0.658790
N199 N 0.954800 -0.324500 0.658790
N200 N 1.045200 0.324500 0.341210
O201 O 0.679000 -0.213700 0.320130
O202 O 1.179000 0.713700 0.320130
O203 O -0.179000 0.286300 0.679870
O204 O 0.821000 -0.713700 0.679870
O205 O 1.179000 1.713700 0.320130
O206 O 0.179000 1.713700 0.320130
O207 O -0.179000 -0.713700 0.679870
O208 O 0.821000 0.286300 0.679870
O209 O 0.321000 1.213700 0.679870
O210 O 0.179000 0.713700 0.320130

#END
