
#######################################################################
#
#                 Cambridge Crystallographic Data Centre
#                                CCDC 
#
#######################################################################
#
# If this CIF has been generated from an entry in the Cambridge 
# Structural Database, then it will include bibliographic, chemical, 
# crystal, experimental, refinement or atomic coordinate data resulting 
# from the CCDC's data processing and validation procedures.
#
#######################################################################

data_ACIFUP
_symmetry_cell_setting           monoclinic
_symmetry_space_group_name_H-M   'C 2/c'
_symmetry_Int_Tables_number      15
_space_group_name_Hall           '-C 2yn'
loop_
_symmetry_equiv_pos_site_id
_symmetry_equiv_pos_as_xyz
1 x,y,z
2 -x,y,1/2-z
3 1/2+x,1/2+y,z
4 1/2-x,1/2+y,1/2-z
5 -x,-y,-z
6 x,-y,1/2+z
7 1/2-x,1/2-y,-z
8 1/2+x,1/2-y,1/2+z
_cell_length_a                   25.8325(16)
_cell_length_b                   8.5894(2)
_cell_length_c                   22.7112(11)
_cell_angle_alpha                90
_cell_angle_beta                 123.229(1)
_cell_angle_gamma                90
_cell_volume                     4215.3
loop_
_atom_site_label
_atom_site_type_symbol
_atom_site_fract_x
_atom_site_fract_y
_atom_site_fract_z
Ni1 Ni 0.2500 0.7500 0.0000
S1 S 0.181540(19) 0.84707(5) 0.01451(2)
S2 S 0.292920(19) 0.62962(5) 0.09893(2)
S3 S 0.15685(2) 0.85053(5) 0.12805(3)
S4 S 0.27616(2) 0.59937(6) 0.21599(2)
C1 C 0.20210(8) 0.78386(18) 0.09695(9)
C2 C 0.25095(7) 0.68513(18) 0.13392(8)
C3 C 0.09564(10) 0.7014(2) 0.09430(12)
H1 H 0.0854 0.6846 0.1290
H2 H 0.0589 0.7412 0.0521
C4 C 0.20510(9) 0.5113(2) 0.20181(10)
H3 H 0.2161 0.4236 0.2335
H4 H 0.1838 0.5872 0.2128
C5 C 0.11212(8) 0.5473(2) 0.07736(10)
C6 C 0.16241(8) 0.4570(2) 0.12722(9)
C7 C 0.17359(10) 0.3160(2) 0.10616(12)
H5 H 0.2069 0.2554 0.1391
C8 C 0.13701(13) 0.2640(2) 0.03835(14)
H6 H 0.1456 0.1693 0.0255
C9 C 0.08716(12) 0.3528(3) -0.01116(13)
H7 H 0.0618 0.3178 -0.0573
C10 C 0.07535(9) 0.4937(2) 0.00839(11)
H8 H 0.0422 0.5539 -0.0251
S1F S 0.318460(19) 0.65293(5) -0.01451(2)
S2F S 0.207080(19) 0.87038(5) -0.09893(2)
S3F S 0.34315(2) 0.64947(5) -0.12805(3)
S4F S 0.22384(2) 0.90063(6) -0.21599(2)
C1F C 0.29790(8) 0.71614(18) -0.09695(9)
C2F C 0.24905(7) 0.81487(18) -0.13392(8)
C3F C 0.40436(10) 0.7986(2) -0.09430(12)
H1F H 0.4146 0.8154 -0.1290
H2F H 0.4411 0.7588 -0.0521
C4F C 0.29490(9) 0.9887(2) -0.20181(10)
H3F H 0.2839 1.0764 -0.2335
H4F H 0.3162 0.9128 -0.2128
C5F C 0.38788(8) 0.9527(2) -0.07736(10)
C6F C 0.33759(8) 1.0430(2) -0.12722(9)
C7F C 0.32641(10) 1.1840(2) -0.10616(12)
H5F H 0.2931 1.2446 -0.1391
C8F C 0.36299(13) 1.2360(2) -0.03835(14)
H6F H 0.3544 1.3307 -0.0255
C9F C 0.41284(12) 1.1472(3) 0.01116(13)
H7F H 0.4382 1.1822 0.0573
C10F C 0.42465(9) 1.0063(2) -0.00839(11)
H8F H 0.4578 0.9461 0.0251
Ni1 Ni 0.2500 0.7500 1.0000
S1 S 0.181540(19) 0.84707(5) 1.01451(2)
S2 S 0.292920(19) 0.62962(5) 1.09893(2)
S3 S 0.15685(2) 0.85053(5) 1.12805(3)
S4 S 0.27616(2) 0.59937(6) 1.21599(2)
C1 C 0.20210(8) 0.78386(18) 1.09695(9)
C2 C 0.25095(7) 0.68513(18) 1.13392(8)
C3 C 0.09564(10) 0.7014(2) 1.09430(12)
H1 H 0.0854 0.6846 1.1290
H2 H 0.0589 0.7412 1.0521
C4 C 0.20510(9) 0.5113(2) 1.20181(10)
H3 H 0.2161 0.4236 1.2335
H4 H 0.1838 0.5872 1.2128
C5 C 0.11212(8) 0.5473(2) 1.07736(10)
C6 C 0.16241(8) 0.4570(2) 1.12722(9)
C7 C 0.17359(10) 0.3160(2) 1.10616(12)
H5 H 0.2069 0.2554 1.1391
C8 C 0.13701(13) 0.2640(2) 1.03835(14)
H6 H 0.1456 0.1693 1.0255
C9 C 0.08716(12) 0.3528(3) 0.98884(13)
H7 H 0.0618 0.3178 0.9427
C10 C 0.07535(9) 0.4937(2) 1.00839(11)
H8 H 0.0422 0.5539 0.9749
S1F S 0.318460(19) 0.65293(5) 0.98549(2)
S2F S 0.207080(19) 0.87038(5) 0.90107(2)
S3F S 0.34315(2) 0.64947(5) 0.87195(3)
S4F S 0.22384(2) 0.90063(6) 0.78401(2)
C1F C 0.29790(8) 0.71614(18) 0.90305(9)
C2F C 0.24905(7) 0.81487(18) 0.86608(8)
C3F C 0.40436(10) 0.7986(2) 0.90570(12)
H1F H 0.4146 0.8154 0.8710
H2F H 0.4411 0.7588 0.9479
C4F C 0.29490(9) 0.9887(2) 0.79819(10)
H3F H 0.2839 1.0764 0.7665
H4F H 0.3162 0.9128 0.7872
C5F C 0.38788(8) 0.9527(2) 0.92264(10)
C6F C 0.33759(8) 1.0430(2) 0.87278(9)
C7F C 0.32641(10) 1.1840(2) 0.89384(12)
H5F H 0.2931 1.2446 0.8609
C8F C 0.36299(13) 1.2360(2) 0.96165(14)
H6F H 0.3544 1.3307 0.9745
C9F C 0.41284(12) 1.1472(3) 1.01116(13)
H7F H 0.4382 1.1822 1.0573
C10F C 0.42465(9) 1.0063(2) 0.99161(11)
H8F H 0.4578 0.9461 1.0251
Ni1 Ni 0.7500 0.7500 0.5000
S1 S 0.818460(19) 0.84707(5) 0.48549(2)
S2 S 0.707080(19) 0.62962(5) 0.40107(2)
S3 S 0.84315(2) 0.85053(5) 0.37195(3)
S4 S 0.72384(2) 0.59937(6) 0.28401(2)
C1 C 0.79790(8) 0.78386(18) 0.40305(9)
C2 C 0.74905(7) 0.68513(18) 0.36608(8)
C3 C 0.90436(10) 0.7014(2) 0.40570(12)
H1 H 0.9146 0.6846 0.3710
H2 H 0.9411 0.7412 0.4479
C4 C 0.79490(9) 0.5113(2) 0.29819(10)
H3 H 0.7839 0.4236 0.2665
H4 H 0.8162 0.5872 0.2872
C5 C 0.88788(8) 0.5473(2) 0.42264(10)
C6 C 0.83759(8) 0.4570(2) 0.37278(9)
C7 C 0.82641(10) 0.3160(2) 0.39384(12)
H5 H 0.7931 0.2554 0.3609
C8 C 0.86299(13) 0.2640(2) 0.46165(14)
H6 H 0.8544 0.1693 0.4745
C9 C 0.91284(12) 0.3528(3) 0.51116(13)
H7 H 0.9382 0.3178 0.5573
C10 C 0.92465(9) 0.4937(2) 0.49161(11)
H8 H 0.9578 0.5539 0.5251
S1F S 0.681540(19) 0.65293(5) 0.51451(2)
S2F S 0.792920(19) 0.87038(5) 0.59893(2)
S3F S 0.65685(2) 0.64947(5) 0.62805(3)
S4F S 0.77616(2) 0.90063(6) 0.71599(2)
C1F C 0.70210(8) 0.71614(18) 0.59695(9)
C2F C 0.75095(7) 0.81487(18) 0.63392(8)
C3F C 0.59564(10) 0.7986(2) 0.59430(12)
H1F H 0.5854 0.8154 0.6290
H2F H 0.5589 0.7588 0.5521
C4F C 0.70510(9) 0.9887(2) 0.70181(10)
H3F H 0.7161 1.0764 0.7335
H4F H 0.6838 0.9128 0.7128
C5F C 0.61212(8) 0.9527(2) 0.57736(10)
C6F C 0.66241(8) 1.0430(2) 0.62722(9)
C7F C 0.67359(10) 1.1840(2) 0.60616(12)
H5F H 0.7069 1.2446 0.6391
C8F C 0.63701(13) 1.2360(2) 0.53835(14)
H6F H 0.6456 1.3307 0.5255
C9F C 0.58716(12) 1.1472(3) 0.48884(13)
H7F H 0.5618 1.1822 0.4427
C10F C 0.57535(9) 1.0063(2) 0.50839(11)
H8F H 0.5422 0.9461 0.4749
Ni1 Ni 0.7500 0.2500 0.0000
S1 S 0.681540(19) 0.34707(5) 0.01451(2)
S2 S 0.792920(19) 0.12962(5) 0.09893(2)
S3 S 0.65685(2) 0.35053(5) 0.12805(3)
S4 S 0.77616(2) 0.09937(6) 0.21599(2)
C1 C 0.70210(8) 0.28386(18) 0.09695(9)
C2 C 0.75095(7) 0.18513(18) 0.13392(8)
C3 C 0.59564(10) 0.2014(2) 0.09430(12)
H1 H 0.5854 0.1846 0.1290
H2 H 0.5589 0.2412 0.0521
C4 C 0.70510(9) 0.0113(2) 0.20181(10)
H3 H 0.7161 -0.0764 0.2335
H4 H 0.6838 0.0872 0.2128
C5 C 0.61212(8) 0.0473(2) 0.07736(10)
C6 C 0.66241(8) -0.0430(2) 0.12722(9)
C7 C 0.67359(10) -0.1840(2) 0.10616(12)
H5 H 0.7069 -0.2446 0.1391
C8 C 0.63701(13) -0.2360(2) 0.03835(14)
H6 H 0.6456 -0.3307 0.0255
C9 C 0.58716(12) -0.1472(3) -0.01116(13)
H7 H 0.5618 -0.1822 -0.0573
C10 C 0.57535(9) -0.0063(2) 0.00839(11)
H8 H 0.5422 0.0539 -0.0251
S1F S 0.818460(19) 0.15293(5) -0.01451(2)
S2F S 0.707080(19) 0.37038(5) -0.09893(2)
S3F S 0.84315(2) 0.14947(5) -0.12805(3)
S4F S 0.72384(2) 0.40063(6) -0.21599(2)
C1F C 0.79790(8) 0.21614(18) -0.09695(9)
C2F C 0.74905(7) 0.31487(18) -0.13392(8)
C3F C 0.90436(10) 0.2986(2) -0.09430(12)
H1F H 0.9146 0.3154 -0.1290
H2F H 0.9411 0.2588 -0.0521
C4F C 0.79490(9) 0.4887(2) -0.20181(10)
H3F H 0.7839 0.5764 -0.2335
H4F H 0.8162 0.4128 -0.2128
C5F C 0.88788(8) 0.4527(2) -0.07736(10)
C6F C 0.83759(8) 0.5430(2) -0.12722(9)
C7F C 0.82641(10) 0.6840(2) -0.10616(12)
H5F H 0.7931 0.7446 -0.1391
C8F C 0.86299(13) 0.7360(2) -0.03835(14)
H6F H 0.8544 0.8307 -0.0255
C9F C 0.91284(12) 0.6472(3) 0.01116(13)
H7F H 0.9382 0.6822 0.0573
C10F C 0.92465(9) 0.5063(2) -0.00839(11)
H8F H 0.9578 0.4461 0.0251
Ni1 Ni 0.7500 0.2500 1.0000
S1 S 0.681540(19) 0.34707(5) 1.01451(2)
S2 S 0.792920(19) 0.12962(5) 1.09893(2)
S3 S 0.65685(2) 0.35053(5) 1.12805(3)
S4 S 0.77616(2) 0.09937(6) 1.21599(2)
C1 C 0.70210(8) 0.28386(18) 1.09695(9)
C2 C 0.75095(7) 0.18513(18) 1.13392(8)
C3 C 0.59564(10) 0.2014(2) 1.09430(12)
H1 H 0.5854 0.1846 1.1290
H2 H 0.5589 0.2412 1.0521
C4 C 0.70510(9) 0.0113(2) 1.20181(10)
H3 H 0.7161 -0.0764 1.2335
H4 H 0.6838 0.0872 1.2128
C5 C 0.61212(8) 0.0473(2) 1.07736(10)
C6 C 0.66241(8) -0.0430(2) 1.12722(9)
C7 C 0.67359(10) -0.1840(2) 1.10616(12)
H5 H 0.7069 -0.2446 1.1391
C8 C 0.63701(13) -0.2360(2) 1.03835(14)
H6 H 0.6456 -0.3307 1.0255
C9 C 0.58716(12) -0.1472(3) 0.98884(13)
H7 H 0.5618 -0.1822 0.9427
C10 C 0.57535(9) -0.0063(2) 1.00839(11)
H8 H 0.5422 0.0539 0.9749
S1F S 0.818460(19) 0.15293(5) 0.98549(2)
S2F S 0.707080(19) 0.37038(5) 0.90107(2)
S3F S 0.84315(2) 0.14947(5) 0.87195(3)
S4F S 0.72384(2) 0.40063(6) 0.78401(2)
C1F C 0.79790(8) 0.21614(18) 0.90305(9)
C2F C 0.74905(7) 0.31487(18) 0.86608(8)
C3F C 0.90436(10) 0.2986(2) 0.90570(12)
H1F H 0.9146 0.3154 0.8710
H2F H 0.9411 0.2588 0.9479
C4F C 0.79490(9) 0.4887(2) 0.79819(10)
H3F H 0.7839 0.5764 0.7665
H4F H 0.8162 0.4128 0.7872
C5F C 0.88788(8) 0.4527(2) 0.92264(10)
C6F C 0.83759(8) 0.5430(2) 0.87278(9)
C7F C 0.82641(10) 0.6840(2) 0.89384(12)
H5F H 0.7931 0.7446 0.8609
C8F C 0.86299(13) 0.7360(2) 0.96165(14)
H6F H 0.8544 0.8307 0.9745
C9F C 0.91284(12) 0.6472(3) 1.01116(13)
H7F H 0.9382 0.6822 1.0573
C10F C 0.92465(9) 0.5063(2) 0.99161(11)
H8F H 0.9578 0.4461 1.0251
Ni1 Ni 0.2500 0.2500 0.5000
S1 S 0.318460(19) 0.34707(5) 0.48549(2)
S2 S 0.207080(19) 0.12962(5) 0.40107(2)
S3 S 0.34315(2) 0.35053(5) 0.37195(3)
S4 S 0.22384(2) 0.09937(6) 0.28401(2)
C1 C 0.29790(8) 0.28386(18) 0.40305(9)
C2 C 0.24905(7) 0.18513(18) 0.36608(8)
C3 C 0.40436(10) 0.2014(2) 0.40570(12)
H1 H 0.4146 0.1846 0.3710
H2 H 0.4411 0.2412 0.4479
C4 C 0.29490(9) 0.0113(2) 0.29819(10)
H3 H 0.2839 -0.0764 0.2665
H4 H 0.3162 0.0872 0.2872
C5 C 0.38788(8) 0.0473(2) 0.42264(10)
C6 C 0.33759(8) -0.0430(2) 0.37278(9)
C7 C 0.32641(10) -0.1840(2) 0.39384(12)
H5 H 0.2931 -0.2446 0.3609
C8 C 0.36299(13) -0.2360(2) 0.46165(14)
H6 H 0.3544 -0.3307 0.4745
C9 C 0.41284(12) -0.1472(3) 0.51116(13)
H7 H 0.4382 -0.1822 0.5573
C10 C 0.42465(9) -0.0063(2) 0.49161(11)
H8 H 0.4578 0.0539 0.5251
S1F S 0.181540(19) 0.15293(5) 0.51451(2)
S2F S 0.292920(19) 0.37038(5) 0.59893(2)
S3F S 0.15685(2) 0.14947(5) 0.62805(3)
S4F S 0.27616(2) 0.40063(6) 0.71599(2)
C1F C 0.20210(8) 0.21614(18) 0.59695(9)
C2F C 0.25095(7) 0.31487(18) 0.63392(8)
C3F C 0.09564(10) 0.2986(2) 0.59430(12)
H1F H 0.0854 0.3154 0.6290
H2F H 0.0589 0.2588 0.5521
C4F C 0.20510(9) 0.4887(2) 0.70181(10)
H3F H 0.2161 0.5764 0.7335
H4F H 0.1838 0.4128 0.7128
C5F C 0.11212(8) 0.4527(2) 0.57736(10)
C6F C 0.16241(8) 0.5430(2) 0.62722(9)
C7F C 0.17359(10) 0.6840(2) 0.60616(12)
H5F H 0.2069 0.7446 0.6391
C8F C 0.13701(13) 0.7360(2) 0.53835(14)
H6F H 0.1456 0.8307 0.5255
C9F C 0.08716(12) 0.6472(3) 0.48884(13)
H7F H 0.0618 0.6822 0.4427
C10F C 0.07535(9) 0.5063(2) 0.50839(11)
H8F H 0.0422 0.4461 0.4749
P1 P 0.0000 0.39924(6) 0.2500
C11 C 0.00518(8) 0.2720(2) 0.19064(9)
C12 C 0.05047(10) 0.2902(3) 0.17617(12)
H9 H 0.0782 0.3728 0.1956
C13 C 0.05391(14) 0.1842(3) 0.13249(15)
H10 H 0.0843 0.1956 0.1227
C14 C 0.01316(13) 0.0633(3) 0.10363(13)
H11 H 0.0155 -0.0061 0.0738
C15 C -0.03173(10) 0.0432(3) 0.11855(13)
H12 H -0.0591 -0.0401 0.0991
C16 C -0.03567(9) 0.1469(2) 0.16217(12)
H13 H -0.0655 0.1334 0.1726
C17 C 0.06668(8) 0.52344(19) 0.29508(10)
C18 C 0.06868(12) 0.6543(3) 0.25957(13)
H14 H 0.0358 0.6758 0.2139
C19 C 0.11958(15) 0.7511(3) 0.29251(18)
H15 H 0.1212 0.8375 0.2689
C20 C 0.16777(12) 0.7203(3) 0.35985(19)
H16 H 0.2021 0.7857 0.3816
C21 C 0.16600(10) 0.5928(3) 0.39596(16)
H17 H 0.1987 0.5737 0.4420
C22 C 0.11523(9) 0.4932(2) 0.36334(12)
H18 H 0.1140 0.4070 0.3873
C11A C -0.00518(8) 0.2720(2) 0.30936(9)
C12A C -0.05047(10) 0.2902(3) 0.32383(12)
H9A H -0.0782 0.3728 0.3044
C13A C -0.05391(14) 0.1842(3) 0.36751(15)
H10A H -0.0843 0.1956 0.3773
C14A C -0.01316(13) 0.0633(3) 0.39637(13)
H11A H -0.0155 -0.0061 0.4262
C15A C 0.03173(10) 0.0432(3) 0.38145(13)
H12A H 0.0591 -0.0401 0.4009
C16A C 0.03567(9) 0.1469(2) 0.33783(12)
H13A H 0.0655 0.1334 0.3274
C17A C -0.06668(8) 0.52344(19) 0.20492(10)
C18A C -0.06868(12) 0.6543(3) 0.24043(13)
H14A H -0.0358 0.6758 0.2861
C19A C -0.11958(15) 0.7511(3) 0.20749(18)
H15A H -0.1212 0.8375 0.2311
C20A C -0.16777(12) 0.7203(3) 0.14015(19)
H16A H -0.2021 0.7857 0.1184
C21A C -0.16600(10) 0.5928(3) 0.10404(16)
H17A H -0.1987 0.5737 0.0580
C22A C -0.11523(9) 0.4932(2) 0.13666(12)
H18A H -0.1140 0.4070 0.1127
P1 P 1.0000 0.39924(6) 0.2500
C11 C 1.00518(8) 0.2720(2) 0.19064(9)
C12 C 1.05047(10) 0.2902(3) 0.17617(12)
H9 H 1.0782 0.3728 0.1956
C13 C 1.05391(14) 0.1842(3) 0.13249(15)
H10 H 1.0843 0.1956 0.1227
C14 C 1.01316(13) 0.0633(3) 0.10363(13)
H11 H 1.0155 -0.0061 0.0738
C15 C 0.96827(10) 0.0432(3) 0.11855(13)
H12 H 0.9409 -0.0401 0.0991
C16 C 0.96433(9) 0.1469(2) 0.16217(12)
H13 H 0.9345 0.1334 0.1726
C17 C 1.06668(8) 0.52344(19) 0.29508(10)
C18 C 1.06868(12) 0.6543(3) 0.25957(13)
H14 H 1.0358 0.6758 0.2139
C19 C 1.11958(15) 0.7511(3) 0.29251(18)
H15 H 1.1212 0.8375 0.2689
C20 C 1.16777(12) 0.7203(3) 0.35985(19)
H16 H 1.2021 0.7857 0.3816
C21 C 1.16600(10) 0.5928(3) 0.39596(16)
H17 H 1.1987 0.5737 0.4420
C22 C 1.11523(9) 0.4932(2) 0.36334(12)
H18 H 1.1140 0.4070 0.3873
C11A C 0.99482(8) 0.2720(2) 0.30936(9)
C12A C 0.94953(10) 0.2902(3) 0.32383(12)
H9A H 0.9218 0.3728 0.3044
C13A C 0.94609(14) 0.1842(3) 0.36751(15)
H10A H 0.9157 0.1956 0.3773
C14A C 0.98684(13) 0.0633(3) 0.39637(13)
H11A H 0.9845 -0.0061 0.4262
C15A C 1.03173(10) 0.0432(3) 0.38145(13)
H12A H 1.0591 -0.0401 0.4009
C16A C 1.03567(9) 0.1469(2) 0.33783(12)
H13A H 1.0655 0.1334 0.3274
C17A C 0.93332(8) 0.52344(19) 0.20492(10)
C18A C 0.93132(12) 0.6543(3) 0.24043(13)
H14A H 0.9642 0.6758 0.2861
C19A C 0.88042(15) 0.7511(3) 0.20749(18)
H15A H 0.8788 0.8375 0.2311
C20A C 0.83223(12) 0.7203(3) 0.14015(19)
H16A H 0.7979 0.7857 0.1184
C21A C 0.83400(10) 0.5928(3) 0.10404(16)
H17A H 0.8013 0.5737 0.0580
C22A C 0.88477(9) 0.4932(2) 0.13666(12)
H18A H 0.8860 0.4070 0.1127
P1 P 0.5000 0.89924(6) 0.2500
C11 C 0.50518(8) 0.7720(2) 0.19064(9)
C12 C 0.55047(10) 0.7902(3) 0.17617(12)
H9 H 0.5782 0.8728 0.1956
C13 C 0.55391(14) 0.6842(3) 0.13249(15)
H10 H 0.5843 0.6956 0.1227
C14 C 0.51316(13) 0.5633(3) 0.10363(13)
H11 H 0.5155 0.4939 0.0738
C15 C 0.46827(10) 0.5432(3) 0.11855(13)
H12 H 0.4409 0.4599 0.0991
C16 C 0.46433(9) 0.6469(2) 0.16217(12)
H13 H 0.4345 0.6334 0.1726
C17 C 0.56668(8) 1.02344(19) 0.29508(10)
C18 C 0.56868(12) 1.1543(3) 0.25957(13)
H14 H 0.5358 1.1758 0.2139
C19 C 0.61958(15) 1.2511(3) 0.29251(18)
H15 H 0.6212 1.3375 0.2689
C20 C 0.66777(12) 1.2203(3) 0.35985(19)
H16 H 0.7021 1.2857 0.3816
C21 C 0.66600(10) 1.0928(3) 0.39596(16)
H17 H 0.6987 1.0737 0.4420
C22 C 0.61523(9) 0.9932(2) 0.36334(12)
H18 H 0.6140 0.9070 0.3873
C11A C 0.49482(8) 0.7720(2) 0.30936(9)
C12A C 0.44953(10) 0.7902(3) 0.32383(12)
H9A H 0.4218 0.8728 0.3044
C13A C 0.44609(14) 0.6842(3) 0.36751(15)
H10A H 0.4157 0.6956 0.3773
C14A C 0.48684(13) 0.5633(3) 0.39637(13)
H11A H 0.4845 0.4939 0.4262
C15A C 0.53173(10) 0.5432(3) 0.38145(13)
H12A H 0.5591 0.4599 0.4009
C16A C 0.53567(9) 0.6469(2) 0.33783(12)
H13A H 0.5655 0.6334 0.3274
C17A C 0.43332(8) 1.02344(19) 0.20492(10)
C18A C 0.43132(12) 1.1543(3) 0.24043(13)
H14A H 0.4642 1.1758 0.2861
C19A C 0.38042(15) 1.2511(3) 0.20749(18)
H15A H 0.3788 1.3375 0.2311
C20A C 0.33223(12) 1.2203(3) 0.14015(19)
H16A H 0.2979 1.2857 0.1184
C21A C 0.33400(10) 1.0928(3) 0.10404(16)
H17A H 0.3013 1.0737 0.0580
C22A C 0.38477(9) 0.9932(2) 0.13666(12)
H18A H 0.3860 0.9070 0.1127
P1 P 0.0000 0.60076(6) 0.7500
C11 C -0.00518(8) 0.7280(2) 0.80936(9)
C12 C -0.05047(10) 0.7098(3) 0.82383(12)
H9 H -0.0782 0.6272 0.8044
C13 C -0.05391(14) 0.8158(3) 0.86751(15)
H10 H -0.0843 0.8044 0.8773
C14 C -0.01316(13) 0.9367(3) 0.89637(13)
H11 H -0.0155 1.0061 0.9262
C15 C 0.03173(10) 0.9568(3) 0.88145(13)
H12 H 0.0591 1.0401 0.9009
C16 C 0.03567(9) 0.8531(2) 0.83783(12)
H13 H 0.0655 0.8666 0.8274
C17 C -0.06668(8) 0.47656(19) 0.70492(10)
C18 C -0.06868(12) 0.3457(3) 0.74043(13)
H14 H -0.0358 0.3242 0.7861
C19 C -0.11958(15) 0.2489(3) 0.70749(18)
H15 H -0.1212 0.1625 0.7311
C20 C -0.16777(12) 0.2797(3) 0.64015(19)
H16 H -0.2021 0.2143 0.6184
C21 C -0.16600(10) 0.4072(3) 0.60404(16)
H17 H -0.1987 0.4263 0.5580
C22 C -0.11523(9) 0.5068(2) 0.63666(12)
H18 H -0.1140 0.5930 0.6127
C11A C 0.00518(8) 0.7280(2) 0.69064(9)
C12A C 0.05047(10) 0.7098(3) 0.67617(12)
H9A H 0.0782 0.6272 0.6956
C13A C 0.05391(14) 0.8158(3) 0.63249(15)
H10A H 0.0843 0.8044 0.6227
C14A C 0.01316(13) 0.9367(3) 0.60363(13)
H11A H 0.0155 1.0061 0.5738
C15A C -0.03173(10) 0.9568(3) 0.61855(13)
H12A H -0.0591 1.0401 0.5991
C16A C -0.03567(9) 0.8531(2) 0.66217(12)
H13A H -0.0655 0.8666 0.6726
C17A C 0.06668(8) 0.47656(19) 0.79508(10)
C18A C 0.06868(12) 0.3457(3) 0.75957(13)
H14A H 0.0358 0.3242 0.7139
C19A C 0.11958(15) 0.2489(3) 0.79251(18)
H15A H 0.1212 0.1625 0.7689
C20A C 0.16777(12) 0.2797(3) 0.85985(19)
H16A H 0.2021 0.2143 0.8816
C21A C 0.16600(10) 0.4072(3) 0.89596(16)
H17A H 0.1987 0.4263 0.9420
C22A C 0.11523(9) 0.5068(2) 0.86334(12)
H18A H 0.1140 0.5930 0.8873
P1 P 1.0000 0.60076(6) 0.7500
C11 C 0.99482(8) 0.7280(2) 0.80936(9)
C12 C 0.94953(10) 0.7098(3) 0.82383(12)
H9 H 0.9218 0.6272 0.8044
C13 C 0.94609(14) 0.8158(3) 0.86751(15)
H10 H 0.9157 0.8044 0.8773
C14 C 0.98684(13) 0.9367(3) 0.89637(13)
H11 H 0.9845 1.0061 0.9262
C15 C 1.03173(10) 0.9568(3) 0.88145(13)
H12 H 1.0591 1.0401 0.9009
C16 C 1.03567(9) 0.8531(2) 0.83783(12)
H13 H 1.0655 0.8666 0.8274
C17 C 0.93332(8) 0.47656(19) 0.70492(10)
C18 C 0.93132(12) 0.3457(3) 0.74043(13)
H14 H 0.9642 0.3242 0.7861
C19 C 0.88042(15) 0.2489(3) 0.70749(18)
H15 H 0.8788 0.1625 0.7311
C20 C 0.83223(12) 0.2797(3) 0.64015(19)
H16 H 0.7979 0.2143 0.6184
C21 C 0.83400(10) 0.4072(3) 0.60404(16)
H17 H 0.8013 0.4263 0.5580
C22 C 0.88477(9) 0.5068(2) 0.63666(12)
H18 H 0.8860 0.5930 0.6127
C11A C 1.00518(8) 0.7280(2) 0.69064(9)
C12A C 1.05047(10) 0.7098(3) 0.67617(12)
H9A H 1.0782 0.6272 0.6956
C13A C 1.05391(14) 0.8158(3) 0.63249(15)
H10A H 1.0843 0.8044 0.6227
C14A C 1.01316(13) 0.9367(3) 0.60363(13)
H11A H 1.0155 1.0061 0.5738
C15A C 0.96827(10) 0.9568(3) 0.61855(13)
H12A H 0.9409 1.0401 0.5991
C16A C 0.96433(9) 0.8531(2) 0.66217(12)
H13A H 0.9345 0.8666 0.6726
C17A C 1.06668(8) 0.47656(19) 0.79508(10)
C18A C 1.06868(12) 0.3457(3) 0.75957(13)
H14A H 1.0358 0.3242 0.7139
C19A C 1.11958(15) 0.2489(3) 0.79251(18)
H15A H 1.1212 0.1625 0.7689
C20A C 1.16777(12) 0.2797(3) 0.85985(19)
H16A H 1.2021 0.2143 0.8816
C21A C 1.16600(10) 0.4072(3) 0.89596(16)
H17A H 1.1987 0.4263 0.9420
C22A C 1.11523(9) 0.5068(2) 0.86334(12)
H18A H 1.1140 0.5930 0.8873
P1 P 0.5000 0.10076(6) 0.7500
C11 C 0.49482(8) 0.2280(2) 0.80936(9)
C12 C 0.44953(10) 0.2098(3) 0.82383(12)
H9 H 0.4218 0.1272 0.8044
C13 C 0.44609(14) 0.3158(3) 0.86751(15)
H10 H 0.4157 0.3044 0.8773
C14 C 0.48684(13) 0.4367(3) 0.89637(13)
H11 H 0.4845 0.5061 0.9262
C15 C 0.53173(10) 0.4568(3) 0.88145(13)
H12 H 0.5591 0.5401 0.9009
C16 C 0.53567(9) 0.3531(2) 0.83783(12)
H13 H 0.5655 0.3666 0.8274
C17 C 0.43332(8) -0.02344(19) 0.70492(10)
C18 C 0.43132(12) -0.1543(3) 0.74043(13)
H14 H 0.4642 -0.1758 0.7861
C19 C 0.38042(15) -0.2511(3) 0.70749(18)
H15 H 0.3788 -0.3375 0.7311
C20 C 0.33223(12) -0.2203(3) 0.64015(19)
H16 H 0.2979 -0.2857 0.6184
C21 C 0.33400(10) -0.0928(3) 0.60404(16)
H17 H 0.3013 -0.0737 0.5580
C22 C 0.38477(9) 0.0068(2) 0.63666(12)
H18 H 0.3860 0.0930 0.6127
C11A C 0.50518(8) 0.2280(2) 0.69064(9)
C12A C 0.55047(10) 0.2098(3) 0.67617(12)
H9A H 0.5782 0.1272 0.6956
C13A C 0.55391(14) 0.3158(3) 0.63249(15)
H10A H 0.5843 0.3044 0.6227
C14A C 0.51316(13) 0.4367(3) 0.60363(13)
H11A H 0.5155 0.5061 0.5738
C15A C 0.46827(10) 0.4568(3) 0.61855(13)
H12A H 0.4409 0.5401 0.5991
C16A C 0.46433(9) 0.3531(2) 0.66217(12)
H13A H 0.4345 0.3666 0.6726
C17A C 0.56668(8) -0.02344(19) 0.79508(10)
C18A C 0.56868(12) -0.1543(3) 0.75957(13)
H14A H 0.5358 -0.1758 0.7139
C19A C 0.61958(15) -0.2511(3) 0.79251(18)
H15A H 0.6212 -0.3375 0.7689
C20A C 0.66777(12) -0.2203(3) 0.85985(19)
H16A H 0.7021 -0.2857 0.8816
C21A C 0.66600(10) -0.0928(3) 0.89596(16)
H17A H 0.6987 -0.0737 0.9420
C22A C 0.61523(9) 0.0068(2) 0.86334(12)
H18A H 0.6140 0.0930 0.8873

#END
