
#######################################################################
#
#                 Cambridge Crystallographic Data Centre
#                                CCDC 
#
#######################################################################
#
# If this CIF has been generated from an entry in the Cambridge 
# Structural Database, then it will include bibliographic, chemical, 
# crystal, experimental, refinement or atomic coordinate data resulting 
# from the CCDC's data processing and validation procedures.
#
#######################################################################

data_ACIGID01
_symmetry_cell_setting           orthorhombic
_symmetry_space_group_name_H-M   'P c a b'
_symmetry_Int_Tables_number      61
_space_group_name_Hall           '-P 2bc 2ac'
loop_
_symmetry_equiv_pos_site_id
_symmetry_equiv_pos_as_xyz
1 x,y,z
2 -x,1/2-y,1/2+z
3 1/2+x,-y,1/2-z
4 1/2-x,1/2+y,-z
5 -x,-y,-z
6 x,1/2+y,1/2-z
7 1/2-x,y,1/2+z
8 1/2+x,1/2-y,z
_cell_length_a                   12.694(5)
_cell_length_b                   13.219(4)
_cell_length_c                   19.292(6)
_cell_angle_alpha                90
_cell_angle_beta                 90
_cell_angle_gamma                90
_cell_volume                     3237.24
loop_
_atom_site_label
_atom_site_type_symbol
_atom_site_fract_x
_atom_site_fract_y
_atom_site_fract_z
S1 S 0.04549(7) 0.52559(7) 0.60972(6)
C1 C 0.1081(3) 0.4263(3) 0.56726(19)
N1 N 0.1962(2) 0.4441(2) 0.53832(17)
N2 N 0.2226(2) 0.54709(19) 0.54601(17)
C2 C 0.1678(3) 0.6017(2) 0.60289(19)
C3 C 0.1383(3) 0.7148(2) 0.59119(18)
H1 H 0.1681 0.7397 0.5482
H2 H 0.0625 0.7236 0.5899
C4 C 0.1863(3) 0.7698(2) 0.6537(2)
H3 H 0.1548 0.8359 0.6635
C5 C 0.3053(3) 0.7721(3) 0.6423(3)
H4 H 0.3397 0.8160 0.6757
H5 H 0.3226 0.7946 0.5958
C6 C 0.3369(3) 0.6604(3) 0.6534(2)
H6 H 0.3873 0.6541 0.6910
H7 H 0.3675 0.6322 0.6116
C7 C 0.2320(3) 0.6064(3) 0.6717(2)
C8 C 0.1749(3) 0.6920(2) 0.71266(19)
N3 N 0.0664(2) 0.3297(2) 0.56629(17)
H8 H 0.102(3) 0.290(3) 0.544(2)
C9 C -0.0325(3) 0.3078(3) 0.5868(2)
O1 O -0.0934(2) 0.3718(2) 0.6066(2)
C10 C -0.0625(3) 0.1978(3) 0.5820(2)
H9 H -0.0036 0.1595 0.5651
H10 H -0.1209 0.1903 0.5508
H11 H -0.0821 0.1735 0.6271
C11 C 0.2833(3) 0.5874(3) 0.4942(2)
O2 O 0.3109(2) 0.6750(2) 0.49457(16)
C12 C 0.3159(4) 0.5146(3) 0.4380(2)
H12 H 0.2854 0.4494 0.4470
H13 H 0.3912 0.5088 0.4374
H14 H 0.2917 0.5391 0.3940
C13 C 0.2488(4) 0.5056(3) 0.7082(3)
H15 H 0.2892 0.5161 0.7496
H16 H 0.2859 0.4603 0.6779
H17 H 0.1817 0.4768 0.7200
C14 C 0.2326(4) 0.7222(3) 0.7790(2)
H18 H 0.2228 0.6707 0.8135
H19 H 0.2047 0.7851 0.7959
H20 H 0.3063 0.7298 0.7695
C15 C 0.0603(3) 0.6740(3) 0.7331(2)
H21 H 0.0573 0.6251 0.7698
H22 H 0.0218 0.6493 0.6937
H23 H 0.0296 0.7365 0.7486
S1 S 0.95451(7) 0.97441(7) 0.10972(6)
C1 C 0.8919(3) 1.0737(3) 0.06726(19)
N1 N 0.8038(2) 1.0559(2) 0.03832(17)
N2 N 0.7774(2) 0.95291(19) 0.04601(17)
C2 C 0.8322(3) 0.8983(2) 0.10289(19)
C3 C 0.8617(3) 0.7852(2) 0.09119(18)
H1 H 0.8319 0.7603 0.0482
H2 H 0.9375 0.7764 0.0899
C4 C 0.8137(3) 0.7302(2) 0.1537(2)
H3 H 0.8452 0.6641 0.1635
C5 C 0.6947(3) 0.7279(3) 0.1423(3)
H4 H 0.6603 0.6840 0.1757
H5 H 0.6774 0.7054 0.0958
C6 C 0.6631(3) 0.8396(3) 0.1534(2)
H6 H 0.6127 0.8459 0.1910
H7 H 0.6325 0.8678 0.1116
C7 C 0.7680(3) 0.8936(3) 0.1717(2)
C8 C 0.8251(3) 0.8080(2) 0.21266(19)
N3 N 0.9336(2) 1.1703(2) 0.06629(17)
H8 H 0.898(3) 1.210(3) 0.044(2)
C9 C 1.0325(3) 1.1922(3) 0.0868(2)
O1 O 1.0934(2) 1.1282(2) 0.1066(2)
C10 C 1.0625(3) 1.3022(3) 0.0820(2)
H9 H 1.0036 1.3405 0.0651
H10 H 1.1209 1.3097 0.0508
H11 H 1.0821 1.3265 0.1271
C11 C 0.7167(3) 0.9126(3) -0.0058(2)
O2 O 0.6891(2) 0.8250(2) -0.00543(16)
C12 C 0.6841(4) 0.9854(3) -0.0620(2)
H12 H 0.7146 1.0506 -0.0530
H13 H 0.6088 0.9912 -0.0626
H14 H 0.7083 0.9609 -0.1060
C13 C 0.7512(4) 0.9944(3) 0.2082(3)
H15 H 0.7108 0.9839 0.2496
H16 H 0.7141 1.0397 0.1779
H17 H 0.8183 1.0232 0.2200
C14 C 0.7674(4) 0.7778(3) 0.2790(2)
H18 H 0.7772 0.8293 0.3135
H19 H 0.7953 0.7149 0.2959
H20 H 0.6937 0.7702 0.2695
C15 C 0.9397(3) 0.8260(3) 0.2331(2)
H21 H 0.9427 0.8749 0.2698
H22 H 0.9782 0.8507 0.1937
H23 H 0.9704 0.7635 0.2486
S1 S 0.54549(7) 0.47441(7) 0.89028(6)
C1 C 0.6081(3) 0.5737(3) 0.93274(19)
N1 N 0.6962(2) 0.5559(2) 0.96168(17)
N2 N 0.7226(2) 0.45291(19) 0.95399(17)
C2 C 0.6678(3) 0.3983(2) 0.89711(19)
C3 C 0.6383(3) 0.2852(2) 0.90881(18)
H1 H 0.6681 0.2603 0.9518
H2 H 0.5625 0.2764 0.9101
C4 C 0.6863(3) 0.2302(2) 0.8463(2)
H3 H 0.6548 0.1641 0.8365
C5 C 0.8053(3) 0.2279(3) 0.8577(3)
H4 H 0.8397 0.1840 0.8243
H5 H 0.8226 0.2054 0.9042
C6 C 0.8369(3) 0.3396(3) 0.8466(2)
H6 H 0.8873 0.3459 0.8090
H7 H 0.8675 0.3678 0.8884
C7 C 0.7320(3) 0.3936(3) 0.8283(2)
C8 C 0.6749(3) 0.3080(2) 0.78734(19)
N3 N 0.5664(2) 0.6703(2) 0.93371(17)
H8 H 0.602(3) 0.710(3) 0.956(2)
C9 C 0.4675(3) 0.6922(3) 0.9132(2)
O1 O 0.4066(2) 0.6282(2) 0.8934(2)
C10 C 0.4375(3) 0.8022(3) 0.9180(2)
H9 H 0.4964 0.8405 0.9349
H10 H 0.3791 0.8097 0.9492
H11 H 0.4179 0.8265 0.8729
C11 C 0.7833(3) 0.4126(3) 1.0058(2)
O2 O 0.8109(2) 0.3250(2) 1.00543(16)
C12 C 0.8159(4) 0.4854(3) 1.0620(2)
H12 H 0.7854 0.5506 1.0530
H13 H 0.8912 0.4912 1.0626
H14 H 0.7917 0.4609 1.1060
C13 C 0.7488(4) 0.4944(3) 0.7918(3)
H15 H 0.7892 0.4839 0.7504
H16 H 0.7859 0.5397 0.8221
H17 H 0.6817 0.5232 0.7800
C14 C 0.7326(4) 0.2778(3) 0.7210(2)
H18 H 0.7228 0.3293 0.6865
H19 H 0.7047 0.2149 0.7041
H20 H 0.8063 0.2702 0.7305
C15 C 0.5603(3) 0.3260(3) 0.7669(2)
H21 H 0.5573 0.3749 0.7302
H22 H 0.5218 0.3507 0.8063
H23 H 0.5296 0.2635 0.7514
S1 S 0.45451(7) 0.02559(7) 0.39028(6)
C1 C 0.3919(3) -0.0737(3) 0.43274(19)
N1 N 0.3038(2) -0.0559(2) 0.46168(17)
N2 N 0.2774(2) 0.04709(19) 0.45399(17)
C2 C 0.3322(3) 0.1017(2) 0.39711(19)
C3 C 0.3617(3) 0.2148(2) 0.40881(18)
H1 H 0.3319 0.2397 0.4518
H2 H 0.4375 0.2236 0.4101
C4 C 0.3137(3) 0.2698(2) 0.3463(2)
H3 H 0.3452 0.3359 0.3365
C5 C 0.1947(3) 0.2721(3) 0.3577(3)
H4 H 0.1603 0.3160 0.3243
H5 H 0.1774 0.2946 0.4042
C6 C 0.1631(3) 0.1604(3) 0.3466(2)
H6 H 0.1127 0.1541 0.3090
H7 H 0.1325 0.1322 0.3884
C7 C 0.2680(3) 0.1064(3) 0.3283(2)
C8 C 0.3251(3) 0.1920(2) 0.28734(19)
N3 N 0.4336(2) -0.1703(2) 0.43371(17)
H8 H 0.398(3) -0.210(3) 0.456(2)
C9 C 0.5325(3) -0.1922(3) 0.4132(2)
O1 O 0.5934(2) -0.1282(2) 0.3934(2)
C10 C 0.5625(3) -0.3022(3) 0.4180(2)
H9 H 0.5036 -0.3405 0.4349
H10 H 0.6209 -0.3097 0.4492
H11 H 0.5821 -0.3265 0.3729
C11 C 0.2167(3) 0.0874(3) 0.5058(2)
O2 O 0.1891(2) 0.1750(2) 0.50543(16)
C12 C 0.1841(4) 0.0146(3) 0.5620(2)
H12 H 0.2146 -0.0506 0.5530
H13 H 0.1088 0.0088 0.5626
H14 H 0.2083 0.0391 0.6060
C13 C 0.2512(4) 0.0056(3) 0.2918(3)
H15 H 0.2108 0.0161 0.2504
H16 H 0.2141 -0.0397 0.3221
H17 H 0.3183 -0.0232 0.2800
C14 C 0.2674(4) 0.2222(3) 0.2210(2)
H18 H 0.2772 0.1707 0.1865
H19 H 0.2953 0.2851 0.2041
H20 H 0.1937 0.2298 0.2305
C15 C 0.4397(3) 0.1740(3) 0.2669(2)
H21 H 0.4427 0.1251 0.2302
H22 H 0.4782 0.1493 0.3063
H23 H 0.4704 0.2365 0.2514
S1 S 0.95451(7) 0.47441(7) 0.39028(6)
C1 C 0.8919(3) 0.5737(3) 0.43274(19)
N1 N 0.8038(2) 0.5559(2) 0.46168(17)
N2 N 0.7774(2) 0.45291(19) 0.45399(17)
C2 C 0.8322(3) 0.3983(2) 0.39711(19)
C3 C 0.8617(3) 0.2852(2) 0.40881(18)
H1 H 0.8319 0.2603 0.4518
H2 H 0.9375 0.2764 0.4101
C4 C 0.8137(3) 0.2302(2) 0.3463(2)
H3 H 0.8452 0.1641 0.3365
C5 C 0.6947(3) 0.2279(3) 0.3577(3)
H4 H 0.6603 0.1840 0.3243
H5 H 0.6774 0.2054 0.4042
C6 C 0.6631(3) 0.3396(3) 0.3466(2)
H6 H 0.6127 0.3459 0.3090
H7 H 0.6325 0.3678 0.3884
C7 C 0.7680(3) 0.3936(3) 0.3283(2)
C8 C 0.8251(3) 0.3080(2) 0.28734(19)
N3 N 0.9336(2) 0.6703(2) 0.43371(17)
H8 H 0.898(3) 0.710(3) 0.456(2)
C9 C 1.0325(3) 0.6922(3) 0.4132(2)
O1 O 1.0934(2) 0.6282(2) 0.3934(2)
C10 C 1.0625(3) 0.8022(3) 0.4180(2)
H9 H 1.0036 0.8405 0.4349
H10 H 1.1209 0.8097 0.4492
H11 H 1.0821 0.8265 0.3729
C11 C 0.7167(3) 0.4126(3) 0.5058(2)
O2 O 0.6891(2) 0.3250(2) 0.50543(16)
C12 C 0.6841(4) 0.4854(3) 0.5620(2)
H12 H 0.7146 0.5506 0.5530
H13 H 0.6088 0.4912 0.5626
H14 H 0.7083 0.4609 0.6060
C13 C 0.7512(4) 0.4944(3) 0.2918(3)
H15 H 0.7108 0.4839 0.2504
H16 H 0.7141 0.5397 0.3221
H17 H 0.8183 0.5232 0.2800
C14 C 0.7674(4) 0.2778(3) 0.2210(2)
H18 H 0.7772 0.3293 0.1865
H19 H 0.7953 0.2149 0.2041
H20 H 0.6937 0.2702 0.2305
C15 C 0.9397(3) 0.3260(3) 0.2669(2)
H21 H 0.9427 0.3749 0.2302
H22 H 0.9782 0.3507 0.3063
H23 H 0.9704 0.2635 0.2514
S1 S 0.04549(7) 0.02559(7) 0.89028(6)
C1 C 0.1081(3) -0.0737(3) 0.93274(19)
N1 N 0.1962(2) -0.0559(2) 0.96168(17)
N2 N 0.2226(2) 0.04709(19) 0.95399(17)
C2 C 0.1678(3) 0.1017(2) 0.89711(19)
C3 C 0.1383(3) 0.2148(2) 0.90881(18)
H1 H 0.1681 0.2397 0.9518
H2 H 0.0625 0.2236 0.9101
C4 C 0.1863(3) 0.2698(2) 0.8463(2)
H3 H 0.1548 0.3359 0.8365
C5 C 0.3053(3) 0.2721(3) 0.8577(3)
H4 H 0.3397 0.3160 0.8243
H5 H 0.3226 0.2946 0.9042
C6 C 0.3369(3) 0.1604(3) 0.8466(2)
H6 H 0.3873 0.1541 0.8090
H7 H 0.3675 0.1322 0.8884
C7 C 0.2320(3) 0.1064(3) 0.8283(2)
C8 C 0.1749(3) 0.1920(2) 0.78734(19)
N3 N 0.0664(2) -0.1703(2) 0.93371(17)
H8 H 0.102(3) -0.210(3) 0.956(2)
C9 C -0.0325(3) -0.1922(3) 0.9132(2)
O1 O -0.0934(2) -0.1282(2) 0.8934(2)
C10 C -0.0625(3) -0.3022(3) 0.9180(2)
H9 H -0.0036 -0.3405 0.9349
H10 H -0.1209 -0.3097 0.9492
H11 H -0.0821 -0.3265 0.8729
C11 C 0.2833(3) 0.0874(3) 1.0058(2)
O2 O 0.3109(2) 0.1750(2) 1.00543(16)
C12 C 0.3159(4) 0.0146(3) 1.0620(2)
H12 H 0.2854 -0.0506 1.0530
H13 H 0.3912 0.0088 1.0626
H14 H 0.2917 0.0391 1.1060
C13 C 0.2488(4) 0.0056(3) 0.7918(3)
H15 H 0.2892 0.0161 0.7504
H16 H 0.2859 -0.0397 0.8221
H17 H 0.1817 -0.0232 0.7800
C14 C 0.2326(4) 0.2222(3) 0.7210(2)
H18 H 0.2228 0.1707 0.6865
H19 H 0.2047 0.2851 0.7041
H20 H 0.3063 0.2298 0.7305
C15 C 0.0603(3) 0.1740(3) 0.7669(2)
H21 H 0.0573 0.1251 0.7302
H22 H 0.0218 0.1493 0.8063
H23 H 0.0296 0.2365 0.7514
S1 S 0.45451(7) 0.52559(7) 0.10972(6)
C1 C 0.3919(3) 0.4263(3) 0.06726(19)
N1 N 0.3038(2) 0.4441(2) 0.03832(17)
N2 N 0.2774(2) 0.54709(19) 0.04601(17)
C2 C 0.3322(3) 0.6017(2) 0.10289(19)
C3 C 0.3617(3) 0.7148(2) 0.09119(18)
H1 H 0.3319 0.7397 0.0482
H2 H 0.4375 0.7236 0.0899
C4 C 0.3137(3) 0.7698(2) 0.1537(2)
H3 H 0.3452 0.8359 0.1635
C5 C 0.1947(3) 0.7721(3) 0.1423(3)
H4 H 0.1603 0.8160 0.1757
H5 H 0.1774 0.7946 0.0958
C6 C 0.1631(3) 0.6604(3) 0.1534(2)
H6 H 0.1127 0.6541 0.1910
H7 H 0.1325 0.6322 0.1116
C7 C 0.2680(3) 0.6064(3) 0.1717(2)
C8 C 0.3251(3) 0.6920(2) 0.21266(19)
N3 N 0.4336(2) 0.3297(2) 0.06629(17)
H8 H 0.398(3) 0.290(3) 0.044(2)
C9 C 0.5325(3) 0.3078(3) 0.0868(2)
O1 O 0.5934(2) 0.3718(2) 0.1066(2)
C10 C 0.5625(3) 0.1978(3) 0.0820(2)
H9 H 0.5036 0.1595 0.0651
H10 H 0.6209 0.1903 0.0508
H11 H 0.5821 0.1735 0.1271
C11 C 0.2167(3) 0.5874(3) -0.0058(2)
O2 O 0.1891(2) 0.6750(2) -0.00543(16)
C12 C 0.1841(4) 0.5146(3) -0.0620(2)
H12 H 0.2146 0.4494 -0.0530
H13 H 0.1088 0.5088 -0.0626
H14 H 0.2083 0.5391 -0.1060
C13 C 0.2512(4) 0.5056(3) 0.2082(3)
H15 H 0.2108 0.5161 0.2496
H16 H 0.2141 0.4603 0.1779
H17 H 0.3183 0.4768 0.2200
C14 C 0.2674(4) 0.7222(3) 0.2790(2)
H18 H 0.2772 0.6707 0.3135
H19 H 0.2953 0.7851 0.2959
H20 H 0.1937 0.7298 0.2695
C15 C 0.4397(3) 0.6740(3) 0.2331(2)
H21 H 0.4427 0.6251 0.2698
H22 H 0.4782 0.6493 0.1937
H23 H 0.4704 0.7365 0.2486
S1 S 0.54549(7) 0.97441(7) 0.60972(6)
C1 C 0.6081(3) 1.0737(3) 0.56726(19)
N1 N 0.6962(2) 1.0559(2) 0.53832(17)
N2 N 0.7226(2) 0.95291(19) 0.54601(17)
C2 C 0.6678(3) 0.8983(2) 0.60289(19)
C3 C 0.6383(3) 0.7852(2) 0.59119(18)
H1 H 0.6681 0.7603 0.5482
H2 H 0.5625 0.7764 0.5899
C4 C 0.6863(3) 0.7302(2) 0.6537(2)
H3 H 0.6548 0.6641 0.6635
C5 C 0.8053(3) 0.7279(3) 0.6423(3)
H4 H 0.8397 0.6840 0.6757
H5 H 0.8226 0.7054 0.5958
C6 C 0.8369(3) 0.8396(3) 0.6534(2)
H6 H 0.8873 0.8459 0.6910
H7 H 0.8675 0.8678 0.6116
C7 C 0.7320(3) 0.8936(3) 0.6717(2)
C8 C 0.6749(3) 0.8080(2) 0.71266(19)
N3 N 0.5664(2) 1.1703(2) 0.56629(17)
H8 H 0.602(3) 1.210(3) 0.544(2)
C9 C 0.4675(3) 1.1922(3) 0.5868(2)
O1 O 0.4066(2) 1.1282(2) 0.6066(2)
C10 C 0.4375(3) 1.3022(3) 0.5820(2)
H9 H 0.4964 1.3405 0.5651
H10 H 0.3791 1.3097 0.5508
H11 H 0.4179 1.3265 0.6271
C11 C 0.7833(3) 0.9126(3) 0.4942(2)
O2 O 0.8109(2) 0.8250(2) 0.49457(16)
C12 C 0.8159(4) 0.9854(3) 0.4380(2)
H12 H 0.7854 1.0506 0.4470
H13 H 0.8912 0.9912 0.4374
H14 H 0.7917 0.9609 0.3940
C13 C 0.7488(4) 0.9944(3) 0.7082(3)
H15 H 0.7892 0.9839 0.7496
H16 H 0.7859 1.0397 0.6779
H17 H 0.6817 1.0232 0.7200
C14 C 0.7326(4) 0.7778(3) 0.7790(2)
H18 H 0.7228 0.8293 0.8135
H19 H 0.7047 0.7149 0.7959
H20 H 0.8063 0.7702 0.7695
C15 C 0.5603(3) 0.8260(3) 0.7331(2)
H21 H 0.5573 0.8749 0.7698
H22 H 0.5218 0.8507 0.6937
H23 H 0.5296 0.7635 0.7486

#END
