
#######################################################################
#
#                 Cambridge Crystallographic Data Centre
#                                CCDC 
#
#######################################################################
#
# If this CIF has been generated from an entry in the Cambridge 
# Structural Database, then it will include bibliographic, chemical, 
# crystal, experimental, refinement or atomic coordinate data resulting 
# from the CCDC's data processing and validation procedures.
#
#######################################################################

data_ACIHOL
_symmetry_cell_setting           monoclinic
_symmetry_space_group_name_H-M   'P 21/c'
_symmetry_Int_Tables_number      14
_space_group_name_Hall           '-P 2ybc'
loop_
_symmetry_equiv_pos_site_id
_symmetry_equiv_pos_as_xyz
1 x,y,z
2 -x,1/2+y,1/2-z
3 -x,-y,-z
4 x,1/2-y,1/2+z
_cell_length_a                   11.1828(16)
_cell_length_b                   8.8266(13)
_cell_length_c                   16.647(2)
_cell_angle_alpha                90
_cell_angle_beta                 107.894(2)
_cell_angle_gamma                90
_cell_volume                     1563.68
loop_
_atom_site_label
_atom_site_type_symbol
_atom_site_fract_x
_atom_site_fract_y
_atom_site_fract_z
N1 N 0.09458(11) 0.24963(16) 0.16329(8)
H1 H 0.0451 0.2039 0.1184
N2 N 0.13010(10) 0.40711(13) 0.28197(7)
N3 N 0.10084(10) 0.48231(13) 0.34452(7)
N4 N 0.30859(10) 0.50679(12) 0.35752(7)
N5 N 0.12432(11) 0.64192(14) 0.49045(7)
C1 C 0.22048(12) 0.25052(14) 0.17184(8)
C2 C 0.26648(14) 0.16270(15) 0.11746(8)
H2 H 0.2106 0.1016 0.0754
C3 C 0.39254(14) 0.16525(16) 0.12512(9)
H3 H 0.4229 0.1050 0.0882
C4 C 0.47652(15) 0.25424(18) 0.18584(10)
H4 H 0.5633 0.2549 0.1903
C5 C 0.43238(13) 0.34158(17) 0.23955(9)
H5 H 0.4890 0.4031 0.2809
C6 C 0.30490(12) 0.34002(14) 0.23335(8)
C7 C 0.25326(11) 0.42047(14) 0.29083(8)
C8 C 0.21162(12) 0.54097(14) 0.38780(8)
C9 C 0.22559(12) 0.63501(15) 0.46327(8)
C10 C 0.33742(14) 0.70954(17) 0.50318(9)
H6 H 0.4072 0.7022 0.4822
C11 C 0.34457(17) 0.7948(2) 0.57434(10)
H7 H 0.4190 0.8492 0.6023
C12 C 0.24254(17) 0.79995(19) 0.60405(9)
H8 H 0.2459 0.8558 0.6535
C13 C 0.13535(16) 0.72219(18) 0.56041(9)
H9 H 0.0653 0.7259 0.5813
C14 C 0.03497(12) 0.31611(15) 0.22046(8)
H10 H 0.0057 0.2333 0.2509
C15 C -0.07643(12) 0.41455(15) 0.17466(8)
C16 C -0.17980(13) 0.42445(17) 0.20379(9)
H11 H -0.1818 0.3675 0.2518
C17 C -0.28065(14) 0.51766(19) 0.16294(11)
H12 H -0.3512 0.5244 0.1832
C18 C -0.27804(16) 0.59991(19) 0.09331(11)
H13 H -0.3469 0.6634 0.0654
C19 C -0.17582(18) 0.5905(2) 0.06391(11)
H14 H -0.1744 0.6474 0.0158
C20 C -0.07474(15) 0.49787(17) 0.10441(9)
H15 H -0.0044 0.4917 0.0839
N1 N 0.90542(11) 0.74963(16) 0.33671(8)
H1 H 0.9549 0.7039 0.3816
N2 N 0.86990(10) 0.90711(13) 0.21803(7)
N3 N 0.89916(10) 0.98231(13) 0.15548(7)
N4 N 0.69141(10) 1.00679(12) 0.14248(7)
N5 N 0.87568(11) 1.14192(14) 0.00955(7)
C1 C 0.77952(12) 0.75052(14) 0.32816(8)
C2 C 0.73352(14) 0.66270(15) 0.38254(8)
H2 H 0.7894 0.6016 0.4246
C3 C 0.60746(14) 0.66525(16) 0.37488(9)
H3 H 0.5771 0.6050 0.4118
C4 C 0.52348(15) 0.75424(18) 0.31416(10)
H4 H 0.4367 0.7549 0.3097
C5 C 0.56762(13) 0.84158(17) 0.26045(9)
H5 H 0.5110 0.9031 0.2191
C6 C 0.69510(12) 0.84002(14) 0.26665(8)
C7 C 0.74674(11) 0.92047(14) 0.20917(8)
C8 C 0.78838(12) 1.04097(14) 0.11220(8)
C9 C 0.77441(12) 1.13501(15) 0.03673(8)
C10 C 0.66258(14) 1.20954(17) -0.00318(9)
H6 H 0.5928 1.2022 0.0178
C11 C 0.65543(17) 1.2948(2) -0.07434(10)
H7 H 0.5810 1.3492 -0.1023
C12 C 0.75746(17) 1.29995(19) -0.10405(9)
H8 H 0.7541 1.3558 -0.1535
C13 C 0.86465(16) 1.22219(18) -0.06041(9)
H9 H 0.9347 1.2259 -0.0813
C14 C 0.96503(12) 0.81611(15) 0.27954(8)
H10 H 0.9943 0.7333 0.2491
C15 C 1.07643(12) 0.91455(15) 0.32534(8)
C16 C 1.17980(13) 0.92445(17) 0.29621(9)
H11 H 1.1818 0.8675 0.2482
C17 C 1.28065(14) 1.01766(19) 0.33706(11)
H12 H 1.3512 1.0244 0.3168
C18 C 1.27804(16) 1.09991(19) 0.40669(11)
H13 H 1.3469 1.1634 0.4346
C19 C 1.17582(18) 1.0905(2) 0.43609(11)
H14 H 1.1744 1.1474 0.4842
C20 C 1.07474(15) 0.99787(17) 0.39559(9)
H15 H 1.0044 0.9917 0.4161
N1 N 0.90542(11) 0.75037(16) 0.83671(8)
H1 H 0.9549 0.7961 0.8816
N2 N 0.86990(10) 0.59289(13) 0.71803(7)
N3 N 0.89916(10) 0.51769(13) 0.65548(7)
N4 N 0.69141(10) 0.49321(12) 0.64248(7)
N5 N 0.87568(11) 0.35808(14) 0.50955(7)
C1 C 0.77952(12) 0.74948(14) 0.82816(8)
C2 C 0.73352(14) 0.83730(15) 0.88254(8)
H2 H 0.7894 0.8984 0.9246
C3 C 0.60746(14) 0.83475(16) 0.87488(9)
H3 H 0.5771 0.8950 0.9118
C4 C 0.52348(15) 0.74576(18) 0.81416(10)
H4 H 0.4367 0.7451 0.8097
C5 C 0.56762(13) 0.65842(17) 0.76045(9)
H5 H 0.5110 0.5969 0.7191
C6 C 0.69510(12) 0.65998(14) 0.76665(8)
C7 C 0.74674(11) 0.57953(14) 0.70917(8)
C8 C 0.78838(12) 0.45903(14) 0.61220(8)
C9 C 0.77441(12) 0.36499(15) 0.53673(8)
C10 C 0.66258(14) 0.29046(17) 0.49682(9)
H6 H 0.5928 0.2978 0.5178
C11 C 0.65543(17) 0.2052(2) 0.42566(10)
H7 H 0.5810 0.1508 0.3977
C12 C 0.75746(17) 0.20005(19) 0.39595(9)
H8 H 0.7541 0.1442 0.3465
C13 C 0.86465(16) 0.27781(18) 0.43959(9)
H9 H 0.9347 0.2741 0.4187
C14 C 0.96503(12) 0.68389(15) 0.77954(8)
H10 H 0.9943 0.7667 0.7491
C15 C 1.07643(12) 0.58545(15) 0.82534(8)
C16 C 1.17980(13) 0.57555(17) 0.79621(9)
H11 H 1.1818 0.6325 0.7482
C17 C 1.28065(14) 0.48234(19) 0.83706(11)
H12 H 1.3512 0.4756 0.8168
C18 C 1.27804(16) 0.40009(19) 0.90669(11)
H13 H 1.3469 0.3366 0.9346
C19 C 1.17582(18) 0.4095(2) 0.93609(11)
H14 H 1.1744 0.3526 0.9842
C20 C 1.07474(15) 0.50213(17) 0.89559(9)
H15 H 1.0044 0.5083 0.9161
N1 N 0.09458(11) 0.25037(16) 0.66329(8)
H1 H 0.0451 0.2961 0.6184
N2 N 0.13010(10) 0.09289(13) 0.78197(7)
N3 N 0.10084(10) 0.01769(13) 0.84452(7)
N4 N 0.30859(10) -0.00679(12) 0.85752(7)
N5 N 0.12432(11) -0.14192(14) 0.99045(7)
C1 C 0.22048(12) 0.24948(14) 0.67184(8)
C2 C 0.26648(14) 0.33730(15) 0.61746(8)
H2 H 0.2106 0.3984 0.5754
C3 C 0.39254(14) 0.33475(16) 0.62512(9)
H3 H 0.4229 0.3950 0.5882
C4 C 0.47652(15) 0.24576(18) 0.68584(10)
H4 H 0.5633 0.2451 0.6903
C5 C 0.43238(13) 0.15842(17) 0.73955(9)
H5 H 0.4890 0.0969 0.7809
C6 C 0.30490(12) 0.15998(14) 0.73335(8)
C7 C 0.25326(11) 0.07953(14) 0.79083(8)
C8 C 0.21162(12) -0.04097(14) 0.88780(8)
C9 C 0.22559(12) -0.13501(15) 0.96327(8)
C10 C 0.33742(14) -0.20954(17) 1.00318(9)
H6 H 0.4072 -0.2022 0.9822
C11 C 0.34457(17) -0.2948(2) 1.07434(10)
H7 H 0.4190 -0.3492 1.1023
C12 C 0.24254(17) -0.29995(19) 1.10405(9)
H8 H 0.2459 -0.3558 1.1535
C13 C 0.13535(16) -0.22219(18) 1.06041(9)
H9 H 0.0653 -0.2259 1.0813
C14 C 0.03497(12) 0.18389(15) 0.72046(8)
H10 H 0.0057 0.2667 0.7509
C15 C -0.07643(12) 0.08545(15) 0.67466(8)
C16 C -0.17980(13) 0.07555(17) 0.70379(9)
H11 H -0.1818 0.1325 0.7518
C17 C -0.28065(14) -0.01766(19) 0.66294(11)
H12 H -0.3512 -0.0244 0.6832
C18 C -0.27804(16) -0.09991(19) 0.59331(11)
H13 H -0.3469 -0.1634 0.5654
C19 C -0.17582(18) -0.0905(2) 0.56391(11)
H14 H -0.1744 -0.1474 0.5158
C20 C -0.07474(15) 0.00213(17) 0.60441(9)
H15 H -0.0044 0.0083 0.5839

#END
