
#######################################################################
#
#                 Cambridge Crystallographic Data Centre
#                                CCDC 
#
#######################################################################
#
# If this CIF has been generated from an entry in the Cambridge 
# Structural Database, then it will include bibliographic, chemical, 
# crystal, experimental, refinement or atomic coordinate data resulting 
# from the CCDC's data processing and validation procedures.
#
#######################################################################

data_ACIJOM01
_symmetry_cell_setting           monoclinic
_symmetry_space_group_name_H-M   'P 21/n'
_symmetry_Int_Tables_number      14
_space_group_name_Hall           '-P 2yn'
loop_
_symmetry_equiv_pos_site_id
_symmetry_equiv_pos_as_xyz
1 x,y,z
2 1/2-x,1/2+y,1/2-z
3 -x,-y,-z
4 1/2+x,1/2-y,1/2+z
_cell_length_a                   10.2652(12)
_cell_length_b                   4.8695(6)
_cell_length_c                   19.402(2)
_cell_angle_alpha                90
_cell_angle_beta                 98.475(8)
_cell_angle_gamma                90
_cell_volume                     959.246
loop_
_atom_site_label
_atom_site_type_symbol
_atom_site_fract_x
_atom_site_fract_y
_atom_site_fract_z
O1 O 0.58824(15) 0.5159(4) 0.10920(8)
H1 H 0.5388 0.4051 0.0869
O2 O 0.13157(14) 0.2615(3) 0.02388(6)
N1 N 0.40116(15) 0.1599(3) 0.08473(9)
C1 C 0.55299(17) 0.5486(4) 0.17284(10)
C2 C 0.61963(19) 0.7378(4) 0.21829(12)
H2 H 0.6875 0.8414 0.2046
C3 C 0.5859(2) 0.7727(5) 0.28329(12)
H3 H 0.6314 0.8997 0.3136
C4 C 0.4858(2) 0.6228(5) 0.30444(11)
H4 H 0.4628 0.6486 0.3486
C5 C 0.4204(2) 0.4352(5) 0.25985(10)
H5 H 0.3534 0.3316 0.2745
C6 C 0.45118(16) 0.3948(4) 0.19307(9)
C7 C 0.37921(17) 0.1965(4) 0.14647(11)
H6 H 0.3142 0.0918 0.1627
C8 C 0.3192(2) -0.0340(5) 0.04091(11)
H7 H 0.2712 -0.1483 0.0695
H8 H 0.3741 -0.1522 0.0171
C9 C 0.2235(2) 0.1189(5) -0.01175(11)
H9 H 0.2706 0.2487 -0.0369
H10 H 0.1773 -0.0091 -0.0451
C10 C 0.0398(2) 0.4172(5) -0.02129(9)
H11 H -0.0171 0.2962 -0.0520
H12 H 0.0856 0.5372 -0.0497
O1B O -0.58824(15) 0.4841(4) -0.10920(8)
H1B H -0.5388 0.5949 -0.0869
O2B O -0.13157(14) 0.7385(3) -0.02388(6)
N1B N -0.40116(15) 0.8401(3) -0.08473(9)
C1B C -0.55299(17) 0.4514(4) -0.17284(10)
C2B C -0.61963(19) 0.2622(4) -0.21829(12)
H2B H -0.6875 0.1586 -0.2046
C3B C -0.5859(2) 0.2273(5) -0.28329(12)
H3B H -0.6314 0.1003 -0.3136
C4B C -0.4858(2) 0.3772(5) -0.30444(11)
H4B H -0.4628 0.3514 -0.3486
C5B C -0.4204(2) 0.5648(5) -0.25985(10)
H5B H -0.3534 0.6684 -0.2745
C6B C -0.45118(16) 0.6052(4) -0.19307(9)
C7B C -0.37921(17) 0.8035(4) -0.14647(11)
H6B H -0.3142 0.9082 -0.1627
C8B C -0.3192(2) 1.0340(5) -0.04091(11)
H7B H -0.2712 1.1483 -0.0695
H8B H -0.3741 1.1522 -0.0171
C9B C -0.2235(2) 0.8811(5) 0.01175(11)
H9B H -0.2706 0.7513 0.0369
H10B H -0.1773 1.0091 0.0451
C10B C -0.0398(2) 0.5828(5) 0.02129(9)
H11B H 0.0171 0.7038 0.0520
H12B H -0.0856 0.4628 0.0497
O1 O 0.58824(15) 0.5159(4) 1.10920(8)
H1 H 0.5388 0.4051 1.0869
O2 O 0.13157(14) 0.2615(3) 1.02388(6)
N1 N 0.40116(15) 0.1599(3) 1.08473(9)
C1 C 0.55299(17) 0.5486(4) 1.17284(10)
C2 C 0.61963(19) 0.7378(4) 1.21829(12)
H2 H 0.6875 0.8414 1.2046
C3 C 0.5859(2) 0.7727(5) 1.28329(12)
H3 H 0.6314 0.8997 1.3136
C4 C 0.4858(2) 0.6228(5) 1.30444(11)
H4 H 0.4628 0.6486 1.3486
C5 C 0.4204(2) 0.4352(5) 1.25985(10)
H5 H 0.3534 0.3316 1.2745
C6 C 0.45118(16) 0.3948(4) 1.19307(9)
C7 C 0.37921(17) 0.1965(4) 1.14647(11)
H6 H 0.3142 0.0918 1.1627
C8 C 0.3192(2) -0.0340(5) 1.04091(11)
H7 H 0.2712 -0.1483 1.0695
H8 H 0.3741 -0.1522 1.0171
C9 C 0.2235(2) 0.1189(5) 0.98825(11)
H9 H 0.2706 0.2487 0.9631
H10 H 0.1773 -0.0091 0.9549
C10 C 0.0398(2) 0.4172(5) 0.97871(9)
H11 H -0.0171 0.2962 0.9480
H12 H 0.0856 0.5372 0.9503
O1B O -0.58824(15) 0.4841(4) 0.89080(8)
H1B H -0.5388 0.5949 0.9131
O2B O -0.13157(14) 0.7385(3) 0.97612(6)
N1B N -0.40116(15) 0.8401(3) 0.91527(9)
C1B C -0.55299(17) 0.4514(4) 0.82716(10)
C2B C -0.61963(19) 0.2622(4) 0.78171(12)
H2B H -0.6875 0.1586 0.7954
C3B C -0.5859(2) 0.2273(5) 0.71671(12)
H3B H -0.6314 0.1003 0.6864
C4B C -0.4858(2) 0.3772(5) 0.69556(11)
H4B H -0.4628 0.3514 0.6514
C5B C -0.4204(2) 0.5648(5) 0.74015(10)
H5B H -0.3534 0.6684 0.7255
C6B C -0.45118(16) 0.6052(4) 0.80693(9)
C7B C -0.37921(17) 0.8035(4) 0.85353(11)
H6B H -0.3142 0.9082 0.8373
C8B C -0.3192(2) 1.0340(5) 0.95909(11)
H7B H -0.2712 1.1483 0.9305
H8B H -0.3741 1.1522 0.9829
C9B C -0.2235(2) 0.8811(5) 1.01175(11)
H9B H -0.2706 0.7513 1.0369
H10B H -0.1773 1.0091 1.0451
C10B C -0.0398(2) 0.5828(5) 1.02129(9)
H11B H 0.0171 0.7038 1.0520
H12B H -0.0856 0.4628 1.0497
O1 O 1.58824(15) 0.5159(4) 0.10920(8)
H1 H 1.5388 0.4051 0.0869
O2 O 1.13157(14) 0.2615(3) 0.02388(6)
N1 N 1.40116(15) 0.1599(3) 0.08473(9)
C1 C 1.55299(17) 0.5486(4) 0.17284(10)
C2 C 1.61963(19) 0.7378(4) 0.21829(12)
H2 H 1.6875 0.8414 0.2046
C3 C 1.5859(2) 0.7727(5) 0.28329(12)
H3 H 1.6314 0.8997 0.3136
C4 C 1.4858(2) 0.6228(5) 0.30444(11)
H4 H 1.4628 0.6486 0.3486
C5 C 1.4204(2) 0.4352(5) 0.25985(10)
H5 H 1.3534 0.3316 0.2745
C6 C 1.45118(16) 0.3948(4) 0.19307(9)
C7 C 1.37921(17) 0.1965(4) 0.14647(11)
H6 H 1.3142 0.0918 0.1627
C8 C 1.3192(2) -0.0340(5) 0.04091(11)
H7 H 1.2712 -0.1483 0.0695
H8 H 1.3741 -0.1522 0.0171
C9 C 1.2235(2) 0.1189(5) -0.01175(11)
H9 H 1.2706 0.2487 -0.0369
H10 H 1.1773 -0.0091 -0.0451
C10 C 1.0398(2) 0.4172(5) -0.02129(9)
H11 H 0.9829 0.2962 -0.0520
H12 H 1.0856 0.5372 -0.0497
O1B O 0.41176(15) 0.4841(4) -0.10920(8)
H1B H 0.4612 0.5949 -0.0869
O2B O 0.86843(14) 0.7385(3) -0.02388(6)
N1B N 0.59884(15) 0.8401(3) -0.08473(9)
C1B C 0.44701(17) 0.4514(4) -0.17284(10)
C2B C 0.38037(19) 0.2622(4) -0.21829(12)
H2B H 0.3125 0.1586 -0.2046
C3B C 0.4141(2) 0.2273(5) -0.28329(12)
H3B H 0.3686 0.1003 -0.3136
C4B C 0.5142(2) 0.3772(5) -0.30444(11)
H4B H 0.5372 0.3514 -0.3486
C5B C 0.5796(2) 0.5648(5) -0.25985(10)
H5B H 0.6466 0.6684 -0.2745
C6B C 0.54882(16) 0.6052(4) -0.19307(9)
C7B C 0.62079(17) 0.8035(4) -0.14647(11)
H6B H 0.6858 0.9082 -0.1627
C8B C 0.6808(2) 1.0340(5) -0.04091(11)
H7B H 0.7288 1.1483 -0.0695
H8B H 0.6259 1.1522 -0.0171
C9B C 0.7765(2) 0.8811(5) 0.01175(11)
H9B H 0.7294 0.7513 0.0369
H10B H 0.8227 1.0091 0.0451
C10B C 0.9602(2) 0.5828(5) 0.02129(9)
H11B H 1.0171 0.7038 0.0520
H12B H 0.9144 0.4628 0.0497
O1 O 1.58824(15) 0.5159(4) 1.10920(8)
H1 H 1.5388 0.4051 1.0869
O2 O 1.13157(14) 0.2615(3) 1.02388(6)
N1 N 1.40116(15) 0.1599(3) 1.08473(9)
C1 C 1.55299(17) 0.5486(4) 1.17284(10)
C2 C 1.61963(19) 0.7378(4) 1.21829(12)
H2 H 1.6875 0.8414 1.2046
C3 C 1.5859(2) 0.7727(5) 1.28329(12)
H3 H 1.6314 0.8997 1.3136
C4 C 1.4858(2) 0.6228(5) 1.30444(11)
H4 H 1.4628 0.6486 1.3486
C5 C 1.4204(2) 0.4352(5) 1.25985(10)
H5 H 1.3534 0.3316 1.2745
C6 C 1.45118(16) 0.3948(4) 1.19307(9)
C7 C 1.37921(17) 0.1965(4) 1.14647(11)
H6 H 1.3142 0.0918 1.1627
C8 C 1.3192(2) -0.0340(5) 1.04091(11)
H7 H 1.2712 -0.1483 1.0695
H8 H 1.3741 -0.1522 1.0171
C9 C 1.2235(2) 0.1189(5) 0.98825(11)
H9 H 1.2706 0.2487 0.9631
H10 H 1.1773 -0.0091 0.9549
C10 C 1.0398(2) 0.4172(5) 0.97871(9)
H11 H 0.9829 0.2962 0.9480
H12 H 1.0856 0.5372 0.9503
O1B O 0.41176(15) 0.4841(4) 0.89080(8)
H1B H 0.4612 0.5949 0.9131
O2B O 0.86843(14) 0.7385(3) 0.97612(6)
N1B N 0.59884(15) 0.8401(3) 0.91527(9)
C1B C 0.44701(17) 0.4514(4) 0.82716(10)
C2B C 0.38037(19) 0.2622(4) 0.78171(12)
H2B H 0.3125 0.1586 0.7954
C3B C 0.4141(2) 0.2273(5) 0.71671(12)
H3B H 0.3686 0.1003 0.6864
C4B C 0.5142(2) 0.3772(5) 0.69556(11)
H4B H 0.5372 0.3514 0.6514
C5B C 0.5796(2) 0.5648(5) 0.74015(10)
H5B H 0.6466 0.6684 0.7255
C6B C 0.54882(16) 0.6052(4) 0.80693(9)
C7B C 0.62079(17) 0.8035(4) 0.85353(11)
H6B H 0.6858 0.9082 0.8373
C8B C 0.6808(2) 1.0340(5) 0.95909(11)
H7B H 0.7288 1.1483 0.9305
H8B H 0.6259 1.1522 0.9829
C9B C 0.7765(2) 0.8811(5) 1.01175(11)
H9B H 0.7294 0.7513 1.0369
H10B H 0.8227 1.0091 1.0451
C10B C 0.9602(2) 0.5828(5) 1.02129(9)
H11B H 1.0171 0.7038 1.0520
H12B H 0.9144 0.4628 1.0497
O1 O -0.08824(15) 0.0159(4) 0.39080(8)
H1 H -0.0388 -0.0949 0.4131
O2 O 0.36843(14) -0.2385(3) 0.47612(6)
N1 N 0.09884(15) -0.3401(3) 0.41527(9)
C1 C -0.05299(17) 0.0486(4) 0.32716(10)
C2 C -0.11963(19) 0.2378(4) 0.28171(12)
H2 H -0.1875 0.3414 0.2954
C3 C -0.0859(2) 0.2727(5) 0.21671(12)
H3 H -0.1314 0.3997 0.1864
C4 C 0.0142(2) 0.1228(5) 0.19556(11)
H4 H 0.0372 0.1486 0.1514
C5 C 0.0796(2) -0.0648(5) 0.24015(10)
H5 H 0.1466 -0.1684 0.2255
C6 C 0.04882(16) -0.1052(4) 0.30693(9)
C7 C 0.12079(17) -0.3035(4) 0.35353(11)
H6 H 0.1858 -0.4082 0.3373
C8 C 0.1808(2) -0.5340(5) 0.45909(11)
H7 H 0.2288 -0.6483 0.4305
H8 H 0.1259 -0.6522 0.4829
C9 C 0.2765(2) -0.3811(5) 0.51175(11)
H9 H 0.2294 -0.2513 0.5369
H10 H 0.3227 -0.5091 0.5451
C10 C 0.4602(2) -0.0828(5) 0.52129(9)
H11 H 0.5171 -0.2038 0.5520
H12 H 0.4144 0.0372 0.5497
O1B O 1.08824(15) -0.0159(4) 0.60920(8)
H1B H 1.0388 0.0949 0.5869
O2B O 0.63157(14) 0.2385(3) 0.52388(6)
N1B N 0.90116(15) 0.3401(3) 0.58473(9)
C1B C 1.05299(17) -0.0486(4) 0.67284(10)
C2B C 1.11963(19) -0.2378(4) 0.71829(12)
H2B H 1.1875 -0.3414 0.7046
C3B C 1.0859(2) -0.2727(5) 0.78329(12)
H3B H 1.1314 -0.3997 0.8136
C4B C 0.9858(2) -0.1228(5) 0.80444(11)
H4B H 0.9628 -0.1486 0.8486
C5B C 0.9204(2) 0.0648(5) 0.75985(10)
H5B H 0.8534 0.1684 0.7745
C6B C 0.95118(16) 0.1052(4) 0.69307(9)
C7B C 0.87921(17) 0.3035(4) 0.64647(11)
H6B H 0.8142 0.4082 0.6627
C8B C 0.8192(2) 0.5340(5) 0.54091(11)
H7B H 0.7712 0.6483 0.5695
H8B H 0.8741 0.6522 0.5171
C9B C 0.7235(2) 0.3811(5) 0.48825(11)
H9B H 0.7706 0.2513 0.4631
H10B H 0.6773 0.5091 0.4549
C10B C 0.5398(2) 0.0828(5) 0.47871(9)
H11B H 0.4829 0.2038 0.4480
H12B H 0.5856 -0.0372 0.4503
O1 O -0.08824(15) 1.0159(4) 0.39080(8)
H1 H -0.0388 0.9051 0.4131
O2 O 0.36843(14) 0.7615(3) 0.47612(6)
N1 N 0.09884(15) 0.6599(3) 0.41527(9)
C1 C -0.05299(17) 1.0486(4) 0.32716(10)
C2 C -0.11963(19) 1.2378(4) 0.28171(12)
H2 H -0.1875 1.3414 0.2954
C3 C -0.0859(2) 1.2727(5) 0.21671(12)
H3 H -0.1314 1.3997 0.1864
C4 C 0.0142(2) 1.1228(5) 0.19556(11)
H4 H 0.0372 1.1486 0.1514
C5 C 0.0796(2) 0.9352(5) 0.24015(10)
H5 H 0.1466 0.8316 0.2255
C6 C 0.04882(16) 0.8948(4) 0.30693(9)
C7 C 0.12079(17) 0.6965(4) 0.35353(11)
H6 H 0.1858 0.5918 0.3373
C8 C 0.1808(2) 0.4660(5) 0.45909(11)
H7 H 0.2288 0.3517 0.4305
H8 H 0.1259 0.3478 0.4829
C9 C 0.2765(2) 0.6189(5) 0.51175(11)
H9 H 0.2294 0.7487 0.5369
H10 H 0.3227 0.4909 0.5451
C10 C 0.4602(2) 0.9172(5) 0.52129(9)
H11 H 0.5171 0.7962 0.5520
H12 H 0.4144 1.0372 0.5497
O1B O 1.08824(15) 0.9841(4) 0.60920(8)
H1B H 1.0388 1.0949 0.5869
O2B O 0.63157(14) 1.2385(3) 0.52388(6)
N1B N 0.90116(15) 1.3401(3) 0.58473(9)
C1B C 1.05299(17) 0.9514(4) 0.67284(10)
C2B C 1.11963(19) 0.7622(4) 0.71829(12)
H2B H 1.1875 0.6586 0.7046
C3B C 1.0859(2) 0.7273(5) 0.78329(12)
H3B H 1.1314 0.6003 0.8136
C4B C 0.9858(2) 0.8772(5) 0.80444(11)
H4B H 0.9628 0.8514 0.8486
C5B C 0.9204(2) 1.0648(5) 0.75985(10)
H5B H 0.8534 1.1684 0.7745
C6B C 0.95118(16) 1.1052(4) 0.69307(9)
C7B C 0.87921(17) 1.3035(4) 0.64647(11)
H6B H 0.8142 1.4082 0.6627
C8B C 0.8192(2) 1.5340(5) 0.54091(11)
H7B H 0.7712 1.6483 0.5695
H8B H 0.8741 1.6522 0.5171
C9B C 0.7235(2) 1.3811(5) 0.48825(11)
H9B H 0.7706 1.2513 0.4631
H10B H 0.6773 1.5091 0.4549
C10B C 0.5398(2) 1.0828(5) 0.47871(9)
H11B H 0.4829 1.2038 0.4480
H12B H 0.5856 0.9628 0.4503

#END
