./ACIKAY_from_POSCAR.cif_generated_by_CrystalShift
_symmetry_cell_setting triclinic
_symmetry_space_group_name_H-M 'P 1'
loop_
_symmetry_equiv_pos_site_id
_symmetry_equiv_pos_as_xyz
1 x,y,z
_cell_length_a 10.406300
_cell_length_b 18.762300
_cell_length_c 16.156400
_cell_angle_alpha 90.000000
_cell_angle_beta 98.960000
_cell_angle_gamma 90.000000
_cell_volume 3115.981385
loop_
_atom_site_label
_atom_site_type_symbol
_atom_site_fract_x
_atom_site_fract_y
_atom_site_fract_z
H1 H -0.227600 0.768000 0.858500
H2 H -0.257400 0.697700 1.131300
H3 H -0.073100 0.758300 1.103700
H4 H 0.221200 0.746900 1.063200
H5 H 0.114700 0.177300 0.753900
H6 H 0.327000 0.768600 1.199200
H7 H 0.006700 0.285700 0.750200
H8 H 0.273500 0.869000 1.271800
H9 H 0.067200 0.380600 0.670800
H10 H 0.119500 0.949700 1.207500
H11 H 0.244900 0.371100 0.601300
H12 H 0.017900 0.930200 1.070100
H13 H -0.423800 0.670200 1.022600
H14 H 0.319000 0.498700 0.651000
H15 H 0.285600 0.508500 0.505000
H16 H 0.127400 0.585200 0.437900
H17 H 0.343100 -0.023800 0.578400
H18 H 0.003400 0.654300 0.515300
H19 H 0.502000 -0.105000 0.551300
H20 H 0.037600 0.646800 0.661100
H21 H 0.681300 -0.128000 0.652200
H22 H 0.423500 0.606900 0.893000
H23 H 0.711700 -0.066100 0.778100
H24 H 0.619700 0.552400 0.947000
H25 H 0.555300 0.016500 0.805900
H26 H 0.659100 0.434500 0.912900
H27 H 0.503400 0.371500 0.822500
H28 H 0.194100 -0.075100 0.731400
H29 H 0.305900 0.424900 0.768600
H30 H -0.003400 -0.128500 0.677500
H31 H -0.055300 0.516500 0.694100
H32 H -0.159100 -0.065500 0.587100
H33 H -0.211700 0.433900 0.721900
H34 H -0.119700 0.052400 0.553000
H35 H -0.181300 0.372000 0.847800
H36 H 0.076500 0.106900 0.607000
H37 H -0.002000 0.395000 0.948700
H38 H 0.156900 0.476200 0.921600
H39 H 0.462400 0.146800 0.838900
H40 H 0.255100 0.871100 0.898700
H41 H 0.496600 0.154300 0.984700
H42 H 0.432800 0.880600 0.829200
H43 H 0.372600 0.085200 1.062100
H44 H 0.493300 0.785700 0.749800
H45 H 0.214400 0.008500 0.995000
H46 H 0.385300 0.677300 0.746100
H47 H 0.181000 -0.001300 0.849000
H48 H 0.272400 0.732000 0.358500
H49 H 0.092800 0.795800 0.385500
H50 H 0.076200 0.829800 0.522600
H51 H 0.242600 0.802300 0.631300
H52 H 0.482100 0.430200 0.429900
H53 H 0.426900 0.741700 0.603700
H54 H 0.380500 0.449700 0.292500
H55 H 0.721200 0.753100 0.563200
H56 H 0.226500 0.369000 0.228200
H57 H 0.827000 0.731400 0.699200
H58 H 0.173000 0.268600 0.300800
H59 H 0.773500 0.631000 0.771800
H60 H 0.278800 0.246900 0.436800
H61 H 0.619500 0.550300 0.707500
H62 H 0.517900 0.569800 0.570100
H63 H 0.573100 0.258300 0.396300
H64 H 0.819000 1.001300 0.151000
H65 H 0.757400 0.197700 0.368700
H66 H 0.785600 0.991500 0.005000
H67 H 0.923800 0.170200 0.477400
H68 H 0.627400 0.914800 -0.062100
H69 H 0.907200 0.204200 0.614500
H70 H 0.503400 0.845700 0.015300
H71 H 0.727600 0.268000 0.641500
H72 H 0.537600 0.853200 0.161100
H73 H 0.923500 0.893100 0.393000
H74 H 1.119700 0.947600 0.447000
H75 H 1.159100 1.065500 0.412900
H76 H 0.614700 0.322700 0.253900
H77 H 1.003400 1.128500 0.322500
H78 H 0.506700 0.214300 0.250200
H79 H 0.805900 1.075100 0.268600
H80 H 0.567200 0.119400 0.170800
H81 H 0.444700 0.983500 0.194100
H82 H 0.744900 0.128900 0.101300
H83 H 0.288300 1.066100 0.221900
H84 H 0.318700 1.128000 0.347800
H85 H 0.498000 1.105000 0.448700
H86 H 0.656900 1.023800 0.421600
H87 H 0.755100 0.628900 0.398700
H88 H 0.843100 0.523800 0.078400
H89 H 0.932800 0.619400 0.329200
H90 H 1.002000 0.605000 0.051300
H91 H 0.993300 0.714300 0.249800
H92 H 1.181300 0.628000 0.152200
H93 H 0.885300 0.822700 0.246100
H94 H 1.211700 0.566100 0.278100
H95 H 1.227600 0.232000 0.141500
H96 H 1.055300 0.483500 0.305900
H97 H 1.407200 0.295800 0.114500
H98 H 1.423800 0.329800 -0.022600
H99 H 0.694100 0.575100 0.231400
H100 H 1.257400 0.302300 -0.131300
H101 H 0.496600 0.628500 0.177500
H102 H 1.073100 0.241700 -0.103700
H103 H 0.340900 0.565500 0.087100
H104 H 0.778800 0.253100 -0.063200
H105 H 0.380300 0.447600 0.053000
H106 H 0.673000 0.231400 -0.199200
H107 H 0.576500 0.393100 0.107000
H108 H 0.726500 0.131000 -0.271800
H109 H 0.880500 0.050300 -0.207500
H110 H 0.962400 0.353200 0.338900
H111 H 0.982100 0.069800 -0.070100
H112 H 0.996600 0.345700 0.484700
H113 H -0.407200 0.704200 0.885500
H114 H 0.872600 0.414800 0.562100
H115 H 0.681000 0.501300 0.349000
H116 H 0.714400 0.491500 0.495000
C117 C 0.745100 0.469590 0.376300
C118 C 0.765200 0.463870 0.462950
C119 C 0.327330 0.146140 0.672020
C120 C 0.858800 0.418080 0.502660
C121 C 0.893410 0.164580 -0.053860
C122 C 0.921000 0.103440 -0.096730
C123 C 0.932400 0.377140 0.456910
C124 C 0.859700 0.091430 -0.178000
C125 C 0.912500 0.381850 0.370490
C126 C 0.768200 0.139250 -0.216070
C127 C 0.819290 0.428630 0.329410
C128 C 0.737200 0.199060 -0.173290
C129 C 0.560700 0.440990 0.121640
C130 C 0.799900 0.211810 -0.092410
C131 C 0.444400 0.473450 0.089380
C132 C 1.130780 0.231110 0.021820
C133 C 1.141400 0.252230 -0.059170
C134 C 0.420700 0.543320 0.109740
C135 C 1.250600 0.288510 -0.075550
C136 C 0.513200 0.580690 0.162990
C137 C 1.349200 0.304610 -0.011300
C138 C 0.630200 0.548840 0.195430
C139 C 1.339700 0.284170 0.069920
C140 C 0.654570 0.478230 0.175450
C141 C 1.232500 0.247020 0.085890
C142 C 1.043400 0.508700 0.254320
C143 C -0.250600 0.711490 1.075550
C144 C 0.672670 0.853860 0.327980
C145 C 0.751250 0.791960 0.320330
C146 C 0.858010 0.783980 0.277050
C147 C 1.136500 0.557680 0.237820
C148 C 0.922400 0.719880 0.279820
C149 C 1.118800 0.593700 0.163010
C150 C 0.884940 0.662730 0.326360
C151 C 1.011600 0.580720 0.103470
C152 C 0.780230 0.668290 0.367970
C153 C 0.917500 0.532320 0.119350
C154 C 0.709730 0.732930 0.365000
C155 C 0.596340 0.748870 0.402240
C156 C 0.248750 0.208040 0.679670
C157 C 0.567200 0.996490 0.304520
C158 C 0.582500 1.032320 0.380650
C159 C 0.932800 0.496490 0.195480
C160 C 0.488400 1.080720 0.396530
C161 C -0.141400 0.747770 1.059170
C162 C 0.381200 1.093700 0.336990
C163 C 0.903660 0.248870 0.097760
C164 C 0.363500 1.057680 0.262180
C165 C 0.790270 0.232930 0.135000
C166 C 0.456600 1.008700 0.245680
C167 C 0.719770 0.168290 0.132030
C168 C 0.845430 0.978230 0.324550
C169 C 0.869800 1.048840 0.304570
C170 C 0.615060 0.162730 0.173640
C171 C 0.986800 1.080690 0.337010
C172 C 0.577600 0.219880 0.220180
C173 C 1.079300 1.043320 0.390260
C174 C 0.641990 0.283980 0.222950
C175 C 1.055600 0.973450 0.410620
C176 C 0.748750 0.291960 0.179670
C177 C 0.939300 0.940990 0.378360
C178 C 0.827330 0.353860 0.172020
C179 C 0.680710 0.928630 0.170590
C180 C 0.587500 0.881850 0.129510
C181 C -0.130780 0.768890 0.978180
C182 C 0.567600 0.877140 0.043090
C183 C 0.732500 0.252980 0.585890
C184 C 0.641200 0.918080 -0.002660
C185 C 0.839700 0.215830 0.569920
C186 C 0.734800 0.963870 0.037050
C187 C 0.849200 0.195390 0.488700
C188 C 0.754900 0.969590 0.123700
C189 C 0.750600 0.211490 0.424450
C190 C 0.141990 0.216020 0.722950
C191 C -0.339700 0.715830 0.930080
C192 C 0.606590 0.664580 0.553860
C193 C 0.579000 0.603440 0.596730
C194 C 0.641400 0.247770 0.440830
C195 C 0.640300 0.591430 0.678000
C196 C 0.630780 0.268890 0.521820
C197 C 0.731800 0.639250 0.716070
C198 C 0.299900 0.288190 0.407590
C199 C 0.762800 0.699060 0.673290
C200 C 0.237200 0.300940 0.326710
C201 C 0.700100 0.711810 0.592410
C202 C 0.268200 0.360750 0.283930
C203 C 0.369220 0.731110 0.478180
C204 C 0.358600 0.752230 0.559170
C205 C 0.359700 0.408570 0.322000
C206 C 0.249400 0.788510 0.575550
C207 C 0.421000 0.396560 0.403270
C208 C 0.150800 0.804610 0.511300
C209 C 0.393410 0.335420 0.446140
C210 C 0.160300 0.784170 0.430080
C211 C -0.232500 0.752980 0.914110
C212 C 0.267500 0.747020 0.414110
C213 C 0.200100 0.788190 1.092410
C214 C 0.077600 0.280120 0.720180
C215 C 0.172670 0.646140 0.827980
C216 C 0.251250 0.708040 0.820330
C217 C 0.358010 0.716020 0.777050
C218 C 0.245100 0.030410 0.876300
C219 C 0.422400 0.780120 0.779820
C220 C 0.265200 0.036130 0.962950
C221 C 0.384940 0.837270 0.826360
C222 C 0.358800 0.081920 1.002660
C223 C 0.280230 0.831710 0.867970
C224 C 0.432400 0.122860 0.956910
C225 C 0.209730 0.767070 0.865000
C226 C 0.096340 0.751130 0.902240
C227 C 0.262800 0.800940 1.173290
C228 C 0.067200 0.503510 0.804520
C229 C 0.082500 0.467680 0.880650
C230 C 0.412500 0.118150 0.870490
C231 C -0.011600 0.419280 0.896530
C232 C 0.319290 0.071370 0.829410
C233 C -0.118800 0.406300 0.836990
C234 C 0.060700 0.059010 0.621640
C235 C -0.136500 0.442320 0.762180
C236 C -0.055600 0.026550 0.589380
C237 C -0.043400 0.491300 0.745680
C238 C -0.079300 -0.043320 0.609740
C239 C 0.345430 0.521770 0.824550
C240 C 0.369800 0.451160 0.804570
C241 C 0.013200 -0.080690 0.662990
C242 C 0.486800 0.419310 0.837010
C243 C 0.130200 -0.048840 0.695430
C244 C 0.579300 0.456680 0.890260
C245 C 0.154570 0.021770 0.675450
C246 C 0.555600 0.526550 0.910620
C247 C 0.543400 -0.008700 0.754320
C248 C 0.439300 0.559010 0.878360
C249 C 0.636500 -0.057680 0.737820
C250 C 0.180710 0.571370 0.670590
C251 C 0.087500 0.618150 0.629510
C252 C 0.618800 -0.093700 0.663010
C253 C 0.067600 0.622860 0.543090
C254 C 0.511600 -0.080720 0.603470
C255 C 0.141200 0.581920 0.497340
C256 C 0.417500 -0.032320 0.619350
C257 C 0.234800 0.536130 0.537050
C258 C 0.432800 0.003510 0.695480
C259 C 0.254900 0.530410 0.623700
C260 C 0.115060 0.337270 0.673640
C261 C 0.231800 0.860750 1.216070
C262 C 0.403660 0.251130 0.597760
C263 C 0.106590 0.835420 1.053860
C264 C 0.079000 0.896560 1.096730
C265 C 0.290270 0.267070 0.635000
C266 C 0.140300 0.908570 1.178000
C267 C 0.219770 0.331710 0.632030
C268 C -0.349200 0.695390 1.011300
P269 P 0.306910 0.063780 0.717250
P270 P 0.193090 0.563780 0.782750
P271 P 0.046230 0.663400 0.885390
P272 P 0.489560 0.315720 0.547680
P273 P 0.510440 0.684280 0.452320
P274 P 0.953770 0.336600 0.114610
P275 P 0.806910 0.436220 0.217250
P276 P 0.693090 0.936220 0.282750
P277 P 0.546230 0.836600 0.385390
P278 P 0.989560 0.184280 0.047680
P279 P 0.010440 0.815720 0.952320
P280 P 0.453770 0.163400 0.614610
S281 S 1.038490 0.097680 0.114010
S282 S 0.538490 0.402320 0.614010
S283 S 0.461510 0.597680 0.385990
S284 S -0.038490 0.902320 0.885990

#END
