
#######################################################################
#
#                 Cambridge Crystallographic Data Centre
#                                CCDC 
#
#######################################################################
#
# If this CIF has been generated from an entry in the Cambridge 
# Structural Database, then it will include bibliographic, chemical, 
# crystal, experimental, refinement or atomic coordinate data resulting 
# from the CCDC's data processing and validation procedures.
#
#######################################################################

data_ACILEF
_symmetry_cell_setting           triclinic
_symmetry_space_group_name_H-M   'P -1'
_symmetry_Int_Tables_number      2
_space_group_name_Hall           '-P 1'
loop_
_symmetry_equiv_pos_site_id
_symmetry_equiv_pos_as_xyz
1 x,y,z
2 -x,-y,-z
_cell_length_a                   5.7972(5)
_cell_length_b                   11.6882(15)
_cell_length_c                   17.040(3)
_cell_angle_alpha                102.170(12)
_cell_angle_beta                 93.736(9)
_cell_angle_gamma                99.151(9)
_cell_volume                     1108.46
loop_
_atom_site_label
_atom_site_type_symbol
_atom_site_fract_x
_atom_site_fract_y
_atom_site_fract_z
C1 C 0.2436(6) 0.9018(3) 0.4005(2)
C2 C 0.6327(7) 0.9557(4) 0.3256(3)
H1 H 0.7433 0.9275 0.29
H2 H 0.7139 0.9958 0.3774
H3 H 0.5543 1.0099 0.3034
C3 C -0.0691(6) 0.6321(3) 0.41941(19)
C4 C -0.2468(6) 0.6680(3) 0.4734(2)
H4 H -0.2549 0.6226 0.5143
H5 H -0.3973 0.6538 0.4426
H6 H -0.2036 0.7511 0.4984
C5 C -0.0652(6) 0.5068(3) 0.38863(19)
C6 C 0.1028(6) 0.4652(3) 0.3407(2)
C7 C 0.0874(7) 0.3437(3) 0.3143(2)
H7 H 0.2016 0.3154 0.2835
C8 C -0.0861(7) 0.2651(3) 0.3314(2)
H8 H -0.0926 0.184 0.3117
C9 C -0.2518(7) 0.3041(3) 0.3776(2)
H9 H -0.3729 0.2505 0.39
C10 C -0.2377(7) 0.4229(3) 0.4053(2)
H10 H -0.3511 0.449 0.4374
N1 N 0.0857(5) 0.8251(2) 0.42425(17)
H11 H -0.0135 0.8496 0.4564
N2 N 0.0828(5) 0.7072(2) 0.39717(17)
N3 N 0.2768(5) 0.5363(3) 0.31744(19)
H12 H 0.3746 0.506 0.287
H13 H 0.2908 0.6122 0.3329
S1 S 0.25884(18) 1.04523(8) 0.42933(7)
S2 S 0.42426(17) 0.83444(9) 0.33650(6)
C1 C 0.7564(6) 0.0982(3) 0.5995(2)
C2 C 0.3673(7) 0.0443(4) 0.6744(3)
H1 H 0.2567 0.0725 0.71
H2 H 0.2861 0.0042 0.6226
H3 H 0.4457 -0.0099 0.6966
C3 C 1.0691(6) 0.3679(3) 0.58059(19)
C4 C 1.2468(6) 0.3320(3) 0.5266(2)
H4 H 1.2549 0.3774 0.4857
H5 H 1.3973 0.3462 0.5574
H6 H 1.2036 0.2489 0.5016
C5 C 1.0652(6) 0.4932(3) 0.61137(19)
C6 C 0.8972(6) 0.5348(3) 0.6593(2)
C7 C 0.9126(7) 0.6563(3) 0.6857(2)
H7 H 0.7984 0.6846 0.7165
C8 C 1.0861(7) 0.7349(3) 0.6686(2)
H8 H 1.0926 0.816 0.6883
C9 C 1.2518(7) 0.6959(3) 0.6224(2)
H9 H 1.3729 0.7495 0.61
C10 C 1.2377(7) 0.5771(3) 0.5947(2)
H10 H 1.3511 0.551 0.5626
N1 N 0.9143(5) 0.1749(2) 0.57575(17)
H11 H 1.0135 0.1504 0.5436
N2 N 0.9172(5) 0.2928(2) 0.60283(17)
N3 N 0.7232(5) 0.4637(3) 0.68256(19)
H12 H 0.6254 0.494 0.713
H13 H 0.7092 0.3878 0.6671
S1 S 0.74116(18) -0.04523(8) 0.57067(7)
S2 S 0.57574(17) 0.16556(9) 0.66350(6)
C11 C 0.8028(6) 0.9673(3) 0.0993(2)
C12 C 1.2338(6) 1.0741(3) 0.1734(3)
H14 H 1.3619 1.0737 0.2119
H15 H 1.1588 1.1407 0.1928
H16 H 1.2923 1.0804 0.1228
C13 C 0.4713(6) 0.6884(3) 0.08671(19)
C14 C 0.2555(6) 0.6891(3) 0.0361(2)
H17 H 0.245 0.7695 0.0336
H18 H 0.1211 0.6556 0.0591
H19 H 0.2598 0.6429 -0.0173
C15 C 0.4939(6) 0.5807(3) 0.11447(19)
C16 C 0.6889(6) 0.5693(3) 0.1635(2)
C17 C 0.6956(6) 0.4593(3) 0.1817(2)
H20 H 0.8257 0.4501 0.2131
C18 C 0.5232(7) 0.3670(3) 0.1559(2)
H21 H 0.5353 0.2949 0.1692
C19 C 0.3293(7) 0.3763(3) 0.1104(2)
H22 H 0.2067 0.3122 0.0929
C20 C 0.3202(6) 0.4827(3) 0.0910(2)
H23 H 0.1873 0.4893 0.0599
N4 N 0.6282(5) 0.8758(2) 0.07970(17)
H24 H 0.5063 0.8798 0.0495
N5 N 0.6396(5) 0.7753(2) 0.10692(17)
N6 N 0.8681(5) 0.6575(3) 0.19301(19)
H25 H 0.9842 0.6458 0.2225
H26 H 0.8679 0.7264 0.1826
S3 S 0.79714(18) 1.09037(9) 0.06979(7)
S4 S 1.02955(16) 0.94144(9) 0.16015(6)
C11 C 0.1972(6) 0.0327(3) 0.9007(2)
C12 C -0.2338(6) -0.0741(3) 0.8266(3)
H14 H -0.3619 -0.0737 0.7881
H15 H -0.1588 -0.1407 0.8072
H16 H -0.2923 -0.0804 0.8772
C13 C 0.5287(6) 0.3116(3) 0.91329(19)
C14 C 0.7445(6) 0.3109(3) 0.9639(2)
H17 H 0.755 0.2305 0.9664
H18 H 0.8789 0.3444 0.9409
H19 H 0.7402 0.3571 1.0173
C15 C 0.5061(6) 0.4193(3) 0.88553(19)
C16 C 0.3111(6) 0.4307(3) 0.8365(2)
C17 C 0.3044(6) 0.5407(3) 0.8183(2)
H20 H 0.1743 0.5499 0.7869
C18 C 0.4768(7) 0.6330(3) 0.8441(2)
H21 H 0.4647 0.7051 0.8308
C19 C 0.6707(7) 0.6237(3) 0.8896(2)
H22 H 0.7933 0.6878 0.9071
C20 C 0.6798(6) 0.5173(3) 0.9090(2)
H23 H 0.8127 0.5107 0.9401
N4 N 0.3718(5) 0.1242(2) 0.92030(17)
H24 H 0.4937 0.1202 0.9505
N5 N 0.3604(5) 0.2247(2) 0.89308(17)
N6 N 0.1319(5) 0.3425(3) 0.80699(19)
H25 H 0.0158 0.3542 0.7775
H26 H 0.1321 0.2736 0.8174
S3 S 0.20286(18) -0.09037(9) 0.93021(7)
S4 S -0.02955(16) 0.05856(9) 0.83985(6)

#END
