
#######################################################################
#
#                 Cambridge Crystallographic Data Centre
#                                CCDC 
#
#######################################################################
#
# If this CIF has been generated from an entry in the Cambridge 
# Structural Database, then it will include bibliographic, chemical, 
# crystal, experimental, refinement or atomic coordinate data resulting 
# from the CCDC's data processing and validation procedures.
#
#######################################################################

data_ACIMAB
_symmetry_cell_setting           monoclinic
_symmetry_space_group_name_H-M   'P 21/c'
_symmetry_Int_Tables_number      14
_space_group_name_Hall           '-P 2ybc'
loop_
_symmetry_equiv_pos_site_id
_symmetry_equiv_pos_as_xyz
1 x,y,z
2 -x,1/2+y,1/2-z
3 -x,-y,-z
4 x,1/2-y,1/2+z
_cell_length_a                   13.9951(2)
_cell_length_b                   8.19900(10)
_cell_length_c                   20.9379(3)
_cell_angle_alpha                90
_cell_angle_beta                 98.3500(10)
_cell_angle_gamma                90
_cell_volume                     2377.07
loop_
_atom_site_label
_atom_site_type_symbol
_atom_site_fract_x
_atom_site_fract_y
_atom_site_fract_z
Ag1 Ag 0.40039(2) 0.39903(4) 0.038631(15)
N1 N 0.4507(2) 0.3061(4) -0.05856(15)
N2 N 0.4793(2) 0.6246(4) 0.08525(16)
C1 C 0.4715(3) 0.6554(5) 0.14768(19)
C2 C 0.5309(3) 0.7653(5) 0.18475(19)
H1 H 0.5211 0.7912 0.2275
C3 C 0.6046(3) 0.8359(5) 0.15764(19)
H2 H 0.6476 0.9116 0.1810
C4 C 0.3863(3) 0.2077(5) -0.09494(19)
C5 C 0.3037(3) 0.1501(5) -0.0641(2)
H3 H 0.2663 0.0605 -0.0824
N3 N 0.2819(2) 0.2190(4) -0.01338(16)
C6 C 0.2029(3) 0.1611(5) 0.01653(19)
C7 C 0.1376(3) 0.2790(5) 0.0322(2)
C8 C 0.0624(3) 0.2303(6) 0.0650(2)
H4 H 0.0177 0.3092 0.0758
C9 C 0.0516(3) 0.0672(6) 0.0822(2)
C10 C 0.1171(3) -0.0455(6) 0.0659(2)
H5 H 0.1096 -0.1562 0.0775
C11 C 0.1940(3) -0.0049(5) 0.03312(19)
C12 C 0.1489(3) 0.4559(5) 0.0147(2)
H6 H 0.2116 0.4962 0.0358
H7 H 0.0971 0.5203 0.0291
H8 H 0.1455 0.4660 -0.0322
C13 C -0.0286(3) 0.0178(7) 0.1197(2)
H9 H -0.0005 -0.0190 0.1629
H10 H -0.0662 -0.0710 0.0970
H11 H -0.0708 0.1115 0.1235
C14 C 0.2650(3) -0.1352(5) 0.0189(2)
H12 H 0.2434 -0.1828 -0.0236
H13 H 0.2686 -0.2207 0.0519
H14 H 0.3290 -0.0862 0.0194
C15 C 0.3975(3) 0.5632(5) 0.17621(19)
H15 H 0.3811 0.5972 0.2166
N4 N 0.3545(2) 0.4379(4) 0.14799(16)
C16 C 0.2866(3) 0.3539(5) 0.18149(19)
C17 C 0.2999(3) 0.1835(5) 0.18821(19)
C18 C 0.2418(3) 0.0983(5) 0.2258(2)
H16 H 0.2520 -0.0155 0.2322
C19 C 0.1695(3) 0.1746(5) 0.2541(2)
C20 C 0.1538(3) 0.3409(5) 0.2419(2)
H17 H 0.1024 0.3932 0.2589
C21 C 0.2106(3) 0.4332(5) 0.20594(19)
C22 C 0.3774(3) 0.0960(5) 0.1588(2)
H18 H 0.3706 -0.0219 0.1644
H19 H 0.3710 0.1216 0.1127
H20 H 0.4410 0.1312 0.1802
C23 C 0.1115(3) 0.0805(6) 0.2975(2)
H21 H 0.1522 0.0571 0.3386
H22 H 0.0557 0.1457 0.3054
H23 H 0.0890 -0.0222 0.2765
C24 C 0.1866(3) 0.6128(5) 0.1940(2)
H24 H 0.2153 0.6510 0.1567
H25 H 0.1163 0.6265 0.1854
H26 H 0.2127 0.6764 0.2322
Ag1B Ag 0.59961(2) 0.60097(4) -0.038631(15)
N1B N 0.5493(2) 0.6939(4) 0.05856(15)
N2B N 0.5207(2) 0.3754(4) -0.08525(16)
C1B C 0.5285(3) 0.3446(5) -0.14768(19)
C2B C 0.4691(3) 0.2347(5) -0.18475(19)
H1B H 0.4789 0.2088 -0.2275
C3B C 0.3954(3) 0.1641(5) -0.15764(19)
H2B H 0.3524 0.0884 -0.1810
C4B C 0.6137(3) 0.7923(5) 0.09494(19)
C5B C 0.6963(3) 0.8499(5) 0.0641(2)
H3B H 0.7337 0.9395 0.0824
N3B N 0.7181(2) 0.7810(4) 0.01338(16)
C6B C 0.7971(3) 0.8389(5) -0.01653(19)
C7B C 0.8624(3) 0.7210(5) -0.0322(2)
C8B C 0.9376(3) 0.7697(6) -0.0650(2)
H4B H 0.9823 0.6908 -0.0758
C9B C 0.9484(3) 0.9328(6) -0.0822(2)
C10B C 0.8829(3) 1.0455(6) -0.0659(2)
H5B H 0.8904 1.1562 -0.0775
C11B C 0.8060(3) 1.0049(5) -0.03312(19)
C12B C 0.8511(3) 0.5441(5) -0.0147(2)
H6B H 0.7884 0.5038 -0.0358
H7B H 0.9029 0.4797 -0.0291
H8B H 0.8545 0.5340 0.0322
C13B C 1.0286(3) 0.9822(7) -0.1197(2)
H9B H 1.0005 1.0190 -0.1629
H10B H 1.0662 1.0710 -0.0970
H11B H 1.0708 0.8885 -0.1235
C14B C 0.7350(3) 1.1352(5) -0.0189(2)
H12B H 0.7566 1.1828 0.0236
H13B H 0.7314 1.2207 -0.0519
H14B H 0.6710 1.0862 -0.0194
C15B C 0.6025(3) 0.4368(5) -0.17621(19)
H15B H 0.6189 0.4028 -0.2166
N4B N 0.6455(2) 0.5621(4) -0.14799(16)
C16B C 0.7134(3) 0.6461(5) -0.18149(19)
C17B C 0.7001(3) 0.8165(5) -0.18821(19)
C18B C 0.7582(3) 0.9017(5) -0.2258(2)
H16B H 0.7480 1.0155 -0.2322
C19B C 0.8305(3) 0.8254(5) -0.2541(2)
C20B C 0.8462(3) 0.6591(5) -0.2419(2)
H17B H 0.8976 0.6068 -0.2589
C21B C 0.7894(3) 0.5668(5) -0.20594(19)
C22B C 0.6226(3) 0.9040(5) -0.1588(2)
H18B H 0.6294 1.0219 -0.1644
H19B H 0.6290 0.8784 -0.1127
H20B H 0.5590 0.8688 -0.1802
C23B C 0.8885(3) 0.9195(6) -0.2975(2)
H21B H 0.8478 0.9429 -0.3386
H22B H 0.9443 0.8543 -0.3054
H23B H 0.9110 1.0222 -0.2765
C24B C 0.8134(3) 0.3872(5) -0.1940(2)
H24B H 0.7847 0.3490 -0.1567
H25B H 0.8837 0.3735 -0.1854
H26B H 0.7873 0.3236 -0.2322
Ag1 Ag 0.40039(2) 0.39903(4) 1.038631(15)
N1 N 0.4507(2) 0.3061(4) 0.94144(15)
N2 N 0.4793(2) 0.6246(4) 1.08525(16)
C1 C 0.4715(3) 0.6554(5) 1.14768(19)
C2 C 0.5309(3) 0.7653(5) 1.18475(19)
H1 H 0.5211 0.7912 1.2275
C3 C 0.6046(3) 0.8359(5) 1.15764(19)
H2 H 0.6476 0.9116 1.1810
C4 C 0.3863(3) 0.2077(5) 0.90506(19)
C5 C 0.3037(3) 0.1501(5) 0.9359(2)
H3 H 0.2663 0.0605 0.9176
N3 N 0.2819(2) 0.2190(4) 0.98662(16)
C6 C 0.2029(3) 0.1611(5) 1.01653(19)
C7 C 0.1376(3) 0.2790(5) 1.0322(2)
C8 C 0.0624(3) 0.2303(6) 1.0650(2)
H4 H 0.0177 0.3092 1.0758
C9 C 0.0516(3) 0.0672(6) 1.0822(2)
C10 C 0.1171(3) -0.0455(6) 1.0659(2)
H5 H 0.1096 -0.1562 1.0775
C11 C 0.1940(3) -0.0049(5) 1.03312(19)
C12 C 0.1489(3) 0.4559(5) 1.0147(2)
H6 H 0.2116 0.4962 1.0358
H7 H 0.0971 0.5203 1.0291
H8 H 0.1455 0.4660 0.9678
C13 C -0.0286(3) 0.0178(7) 1.1197(2)
H9 H -0.0005 -0.0190 1.1629
H10 H -0.0662 -0.0710 1.0970
H11 H -0.0708 0.1115 1.1235
C14 C 0.2650(3) -0.1352(5) 1.0189(2)
H12 H 0.2434 -0.1828 0.9764
H13 H 0.2686 -0.2207 1.0519
H14 H 0.3290 -0.0862 1.0194
C15 C 0.3975(3) 0.5632(5) 1.17621(19)
H15 H 0.3811 0.5972 1.2166
N4 N 0.3545(2) 0.4379(4) 1.14799(16)
C16 C 0.2866(3) 0.3539(5) 1.18149(19)
C17 C 0.2999(3) 0.1835(5) 1.18821(19)
C18 C 0.2418(3) 0.0983(5) 1.2258(2)
H16 H 0.2520 -0.0155 1.2322
C19 C 0.1695(3) 0.1746(5) 1.2541(2)
C20 C 0.1538(3) 0.3409(5) 1.2419(2)
H17 H 0.1024 0.3932 1.2589
C21 C 0.2106(3) 0.4332(5) 1.20594(19)
C22 C 0.3774(3) 0.0960(5) 1.1588(2)
H18 H 0.3706 -0.0219 1.1644
H19 H 0.3710 0.1216 1.1127
H20 H 0.4410 0.1312 1.1802
C23 C 0.1115(3) 0.0805(6) 1.2975(2)
H21 H 0.1522 0.0571 1.3386
H22 H 0.0557 0.1457 1.3054
H23 H 0.0890 -0.0222 1.2765
C24 C 0.1866(3) 0.6128(5) 1.1940(2)
H24 H 0.2153 0.6510 1.1567
H25 H 0.1163 0.6265 1.1854
H26 H 0.2127 0.6764 1.2322
Ag1B Ag 0.59961(2) 0.60097(4) 0.961369(15)
N1B N 0.5493(2) 0.6939(4) 1.05856(15)
N2B N 0.5207(2) 0.3754(4) 0.91475(16)
C1B C 0.5285(3) 0.3446(5) 0.85232(19)
C2B C 0.4691(3) 0.2347(5) 0.81525(19)
H1B H 0.4789 0.2088 0.7725
C3B C 0.3954(3) 0.1641(5) 0.84236(19)
H2B H 0.3524 0.0884 0.8190
C4B C 0.6137(3) 0.7923(5) 1.09494(19)
C5B C 0.6963(3) 0.8499(5) 1.0641(2)
H3B H 0.7337 0.9395 1.0824
N3B N 0.7181(2) 0.7810(4) 1.01338(16)
C6B C 0.7971(3) 0.8389(5) 0.98347(19)
C7B C 0.8624(3) 0.7210(5) 0.9678(2)
C8B C 0.9376(3) 0.7697(6) 0.9350(2)
H4B H 0.9823 0.6908 0.9242
C9B C 0.9484(3) 0.9328(6) 0.9178(2)
C10B C 0.8829(3) 1.0455(6) 0.9341(2)
H5B H 0.8904 1.1562 0.9225
C11B C 0.8060(3) 1.0049(5) 0.96688(19)
C12B C 0.8511(3) 0.5441(5) 0.9853(2)
H6B H 0.7884 0.5038 0.9642
H7B H 0.9029 0.4797 0.9709
H8B H 0.8545 0.5340 1.0322
C13B C 1.0286(3) 0.9822(7) 0.8803(2)
H9B H 1.0005 1.0190 0.8371
H10B H 1.0662 1.0710 0.9030
H11B H 1.0708 0.8885 0.8765
C14B C 0.7350(3) 1.1352(5) 0.9811(2)
H12B H 0.7566 1.1828 1.0236
H13B H 0.7314 1.2207 0.9481
H14B H 0.6710 1.0862 0.9806
C15B C 0.6025(3) 0.4368(5) 0.82379(19)
H15B H 0.6189 0.4028 0.7834
N4B N 0.6455(2) 0.5621(4) 0.85201(16)
C16B C 0.7134(3) 0.6461(5) 0.81851(19)
C17B C 0.7001(3) 0.8165(5) 0.81179(19)
C18B C 0.7582(3) 0.9017(5) 0.7742(2)
H16B H 0.7480 1.0155 0.7678
C19B C 0.8305(3) 0.8254(5) 0.7459(2)
C20B C 0.8462(3) 0.6591(5) 0.7581(2)
H17B H 0.8976 0.6068 0.7411
C21B C 0.7894(3) 0.5668(5) 0.79406(19)
C22B C 0.6226(3) 0.9040(5) 0.8412(2)
H18B H 0.6294 1.0219 0.8356
H19B H 0.6290 0.8784 0.8873
H20B H 0.5590 0.8688 0.8198
C23B C 0.8885(3) 0.9195(6) 0.7025(2)
H21B H 0.8478 0.9429 0.6614
H22B H 0.9443 0.8543 0.6946
H23B H 0.9110 1.0222 0.7235
C24B C 0.8134(3) 0.3872(5) 0.8060(2)
H24B H 0.7847 0.3490 0.8433
H25B H 0.8837 0.3735 0.8146
H26B H 0.7873 0.3236 0.7678
Ag1 Ag 0.59961(2) -0.10097(4) 0.461369(15)
N1 N 0.5493(2) -0.1939(4) 0.55856(15)
N2 N 0.5207(2) 0.1246(4) 0.41475(16)
C1 C 0.5285(3) 0.1554(5) 0.35232(19)
C2 C 0.4691(3) 0.2653(5) 0.31525(19)
H1 H 0.4789 0.2912 0.2725
C3 C 0.3954(3) 0.3359(5) 0.34236(19)
H2 H 0.3524 0.4116 0.3190
C4 C 0.6137(3) -0.2923(5) 0.59494(19)
C5 C 0.6963(3) -0.3499(5) 0.5641(2)
H3 H 0.7337 -0.4395 0.5824
N3 N 0.7181(2) -0.2810(4) 0.51338(16)
C6 C 0.7971(3) -0.3389(5) 0.48347(19)
C7 C 0.8624(3) -0.2210(5) 0.4678(2)
C8 C 0.9376(3) -0.2697(6) 0.4350(2)
H4 H 0.9823 -0.1908 0.4242
C9 C 0.9484(3) -0.4328(6) 0.4178(2)
C10 C 0.8829(3) -0.5455(6) 0.4341(2)
H5 H 0.8904 -0.6562 0.4225
C11 C 0.8060(3) -0.5049(5) 0.46688(19)
C12 C 0.8511(3) -0.0441(5) 0.4853(2)
H6 H 0.7884 -0.0038 0.4642
H7 H 0.9029 0.0203 0.4709
H8 H 0.8545 -0.0340 0.5322
C13 C 1.0286(3) -0.4822(7) 0.3803(2)
H9 H 1.0005 -0.5190 0.3371
H10 H 1.0662 -0.5710 0.4030
H11 H 1.0708 -0.3885 0.3765
C14 C 0.7350(3) -0.6352(5) 0.4811(2)
H12 H 0.7566 -0.6828 0.5236
H13 H 0.7314 -0.7207 0.4481
H14 H 0.6710 -0.5862 0.4806
C15 C 0.6025(3) 0.0632(5) 0.32379(19)
H15 H 0.6189 0.0972 0.2834
N4 N 0.6455(2) -0.0621(4) 0.35201(16)
C16 C 0.7134(3) -0.1461(5) 0.31851(19)
C17 C 0.7001(3) -0.3165(5) 0.31179(19)
C18 C 0.7582(3) -0.4017(5) 0.2742(2)
H16 H 0.7480 -0.5155 0.2678
C19 C 0.8305(3) -0.3254(5) 0.2459(2)
C20 C 0.8462(3) -0.1591(5) 0.2581(2)
H17 H 0.8976 -0.1068 0.2411
C21 C 0.7894(3) -0.0668(5) 0.29406(19)
C22 C 0.6226(3) -0.4040(5) 0.3412(2)
H18 H 0.6294 -0.5219 0.3356
H19 H 0.6290 -0.3784 0.3873
H20 H 0.5590 -0.3688 0.3198
C23 C 0.8885(3) -0.4195(6) 0.2025(2)
H21 H 0.8478 -0.4429 0.1614
H22 H 0.9443 -0.3543 0.1946
H23 H 0.9110 -0.5222 0.2235
C24 C 0.8134(3) 0.1128(5) 0.3060(2)
H24 H 0.7847 0.1510 0.3433
H25 H 0.8837 0.1265 0.3146
H26 H 0.7873 0.1764 0.2678
Ag1B Ag 0.40039(2) 0.10097(4) 0.538631(15)
N1B N 0.4507(2) 0.1939(4) 0.44144(15)
N2B N 0.4793(2) -0.1246(4) 0.58525(16)
C1B C 0.4715(3) -0.1554(5) 0.64768(19)
C2B C 0.5309(3) -0.2653(5) 0.68475(19)
H1B H 0.5211 -0.2912 0.7275
C3B C 0.6046(3) -0.3359(5) 0.65764(19)
H2B H 0.6476 -0.4116 0.6810
C4B C 0.3863(3) 0.2923(5) 0.40506(19)
C5B C 0.3037(3) 0.3499(5) 0.4359(2)
H3B H 0.2663 0.4395 0.4176
N3B N 0.2819(2) 0.2810(4) 0.48662(16)
C6B C 0.2029(3) 0.3389(5) 0.51653(19)
C7B C 0.1376(3) 0.2210(5) 0.5322(2)
C8B C 0.0624(3) 0.2697(6) 0.5650(2)
H4B H 0.0177 0.1908 0.5758
C9B C 0.0516(3) 0.4328(6) 0.5822(2)
C10B C 0.1171(3) 0.5455(6) 0.5659(2)
H5B H 0.1096 0.6562 0.5775
C11B C 0.1940(3) 0.5049(5) 0.53312(19)
C12B C 0.1489(3) 0.0441(5) 0.5147(2)
H6B H 0.2116 0.0038 0.5358
H7B H 0.0971 -0.0203 0.5291
H8B H 0.1455 0.0340 0.4678
C13B C -0.0286(3) 0.4822(7) 0.6197(2)
H9B H -0.0005 0.5190 0.6629
H10B H -0.0662 0.5710 0.5970
H11B H -0.0708 0.3885 0.6235
C14B C 0.2650(3) 0.6352(5) 0.5189(2)
H12B H 0.2434 0.6828 0.4764
H13B H 0.2686 0.7207 0.5519
H14B H 0.3290 0.5862 0.5194
C15B C 0.3975(3) -0.0632(5) 0.67621(19)
H15B H 0.3811 -0.0972 0.7166
N4B N 0.3545(2) 0.0621(4) 0.64799(16)
C16B C 0.2866(3) 0.1461(5) 0.68149(19)
C17B C 0.2999(3) 0.3165(5) 0.68821(19)
C18B C 0.2418(3) 0.4017(5) 0.7258(2)
H16B H 0.2520 0.5155 0.7322
C19B C 0.1695(3) 0.3254(5) 0.7541(2)
C20B C 0.1538(3) 0.1591(5) 0.7419(2)
H17B H 0.1024 0.1068 0.7589
C21B C 0.2106(3) 0.0668(5) 0.70594(19)
C22B C 0.3774(3) 0.4040(5) 0.6588(2)
H18B H 0.3706 0.5219 0.6644
H19B H 0.3710 0.3784 0.6127
H20B H 0.4410 0.3688 0.6802
C23B C 0.1115(3) 0.4195(6) 0.7975(2)
H21B H 0.1522 0.4429 0.8386
H22B H 0.0557 0.3543 0.8054
H23B H 0.0890 0.5222 0.7765
C24B C 0.1866(3) -0.1128(5) 0.6940(2)
H24B H 0.2153 -0.1510 0.6567
H25B H 0.1163 -0.1265 0.6854
H26B H 0.2127 -0.1764 0.7322
Ag1 Ag 0.59961(2) 0.89903(4) 0.461369(15)
N1 N 0.5493(2) 0.8061(4) 0.55856(15)
N2 N 0.5207(2) 1.1246(4) 0.41475(16)
C1 C 0.5285(3) 1.1554(5) 0.35232(19)
C2 C 0.4691(3) 1.2653(5) 0.31525(19)
H1 H 0.4789 1.2912 0.2725
C3 C 0.3954(3) 1.3359(5) 0.34236(19)
H2 H 0.3524 1.4116 0.3190
C4 C 0.6137(3) 0.7077(5) 0.59494(19)
C5 C 0.6963(3) 0.6501(5) 0.5641(2)
H3 H 0.7337 0.5605 0.5824
N3 N 0.7181(2) 0.7190(4) 0.51338(16)
C6 C 0.7971(3) 0.6611(5) 0.48347(19)
C7 C 0.8624(3) 0.7790(5) 0.4678(2)
C8 C 0.9376(3) 0.7303(6) 0.4350(2)
H4 H 0.9823 0.8092 0.4242
C9 C 0.9484(3) 0.5672(6) 0.4178(2)
C10 C 0.8829(3) 0.4545(6) 0.4341(2)
H5 H 0.8904 0.3438 0.4225
C11 C 0.8060(3) 0.4951(5) 0.46688(19)
C12 C 0.8511(3) 0.9559(5) 0.4853(2)
H6 H 0.7884 0.9962 0.4642
H7 H 0.9029 1.0203 0.4709
H8 H 0.8545 0.9660 0.5322
C13 C 1.0286(3) 0.5178(7) 0.3803(2)
H9 H 1.0005 0.4810 0.3371
H10 H 1.0662 0.4290 0.4030
H11 H 1.0708 0.6115 0.3765
C14 C 0.7350(3) 0.3648(5) 0.4811(2)
H12 H 0.7566 0.3172 0.5236
H13 H 0.7314 0.2793 0.4481
H14 H 0.6710 0.4138 0.4806
C15 C 0.6025(3) 1.0632(5) 0.32379(19)
H15 H 0.6189 1.0972 0.2834
N4 N 0.6455(2) 0.9379(4) 0.35201(16)
C16 C 0.7134(3) 0.8539(5) 0.31851(19)
C17 C 0.7001(3) 0.6835(5) 0.31179(19)
C18 C 0.7582(3) 0.5983(5) 0.2742(2)
H16 H 0.7480 0.4845 0.2678
C19 C 0.8305(3) 0.6746(5) 0.2459(2)
C20 C 0.8462(3) 0.8409(5) 0.2581(2)
H17 H 0.8976 0.8932 0.2411
C21 C 0.7894(3) 0.9332(5) 0.29406(19)
C22 C 0.6226(3) 0.5960(5) 0.3412(2)
H18 H 0.6294 0.4781 0.3356
H19 H 0.6290 0.6216 0.3873
H20 H 0.5590 0.6312 0.3198
C23 C 0.8885(3) 0.5805(6) 0.2025(2)
H21 H 0.8478 0.5571 0.1614
H22 H 0.9443 0.6457 0.1946
H23 H 0.9110 0.4778 0.2235
C24 C 0.8134(3) 1.1128(5) 0.3060(2)
H24 H 0.7847 1.1510 0.3433
H25 H 0.8837 1.1265 0.3146
H26 H 0.7873 1.1764 0.2678
Ag1B Ag 0.40039(2) 1.10097(4) 0.538631(15)
N1B N 0.4507(2) 1.1939(4) 0.44144(15)
N2B N 0.4793(2) 0.8754(4) 0.58525(16)
C1B C 0.4715(3) 0.8446(5) 0.64768(19)
C2B C 0.5309(3) 0.7347(5) 0.68475(19)
H1B H 0.5211 0.7088 0.7275
C3B C 0.6046(3) 0.6641(5) 0.65764(19)
H2B H 0.6476 0.5884 0.6810
C4B C 0.3863(3) 1.2923(5) 0.40506(19)
C5B C 0.3037(3) 1.3499(5) 0.4359(2)
H3B H 0.2663 1.4395 0.4176
N3B N 0.2819(2) 1.2810(4) 0.48662(16)
C6B C 0.2029(3) 1.3389(5) 0.51653(19)
C7B C 0.1376(3) 1.2210(5) 0.5322(2)
C8B C 0.0624(3) 1.2697(6) 0.5650(2)
H4B H 0.0177 1.1908 0.5758
C9B C 0.0516(3) 1.4328(6) 0.5822(2)
C10B C 0.1171(3) 1.5455(6) 0.5659(2)
H5B H 0.1096 1.6562 0.5775
C11B C 0.1940(3) 1.5049(5) 0.53312(19)
C12B C 0.1489(3) 1.0441(5) 0.5147(2)
H6B H 0.2116 1.0038 0.5358
H7B H 0.0971 0.9797 0.5291
H8B H 0.1455 1.0340 0.4678
C13B C -0.0286(3) 1.4822(7) 0.6197(2)
H9B H -0.0005 1.5190 0.6629
H10B H -0.0662 1.5710 0.5970
H11B H -0.0708 1.3885 0.6235
C14B C 0.2650(3) 1.6352(5) 0.5189(2)
H12B H 0.2434 1.6828 0.4764
H13B H 0.2686 1.7207 0.5519
H14B H 0.3290 1.5862 0.5194
C15B C 0.3975(3) 0.9368(5) 0.67621(19)
H15B H 0.3811 0.9028 0.7166
N4B N 0.3545(2) 1.0621(4) 0.64799(16)
C16B C 0.2866(3) 1.1461(5) 0.68149(19)
C17B C 0.2999(3) 1.3165(5) 0.68821(19)
C18B C 0.2418(3) 1.4017(5) 0.7258(2)
H16B H 0.2520 1.5155 0.7322
C19B C 0.1695(3) 1.3254(5) 0.7541(2)
C20B C 0.1538(3) 1.1591(5) 0.7419(2)
H17B H 0.1024 1.1068 0.7589
C21B C 0.2106(3) 1.0668(5) 0.70594(19)
C22B C 0.3774(3) 1.4040(5) 0.6588(2)
H18B H 0.3706 1.5219 0.6644
H19B H 0.3710 1.3784 0.6127
H20B H 0.4410 1.3688 0.6802
C23B C 0.1115(3) 1.4195(6) 0.7975(2)
H21B H 0.1522 1.4429 0.8386
H22B H 0.0557 1.3543 0.8054
H23B H 0.0890 1.5222 0.7765
C24B C 0.1866(3) 0.8872(5) 0.6940(2)
H24B H 0.2153 0.8490 0.6567
H25B H 0.1163 0.8735 0.6854
H26B H 0.2127 0.8236 0.7322
B1 B 0.6427(3) 0.2864(6) 0.1379(2)
F1 F 0.57434(18) 0.2183(4) 0.09024(13)
F2 F 0.6748(2) 0.4347(3) 0.11745(15)
F3 F 0.60021(19) 0.3106(4) 0.19415(13)
F4 F 0.72061(19) 0.1796(3) 0.15194(13)
B1 B 0.3573(3) 0.7864(6) 0.3621(2)
F1 F 0.42566(18) 0.7183(4) 0.40976(13)
F2 F 0.3252(2) 0.9347(3) 0.38255(15)
F3 F 0.39979(19) 0.8106(4) 0.30585(13)
F4 F 0.27939(19) 0.6796(3) 0.34806(13)
B1 B 0.3573(3) 0.7136(6) 0.8621(2)
F1 F 0.42566(18) 0.7817(4) 0.90976(13)
F2 F 0.3252(2) 0.5653(3) 0.88255(15)
F3 F 0.39979(19) 0.6894(4) 0.80585(13)
F4 F 0.27939(19) 0.8204(3) 0.84806(13)
B1 B 0.6427(3) 0.2136(6) 0.6379(2)
F1 F 0.57434(18) 0.2817(4) 0.59024(13)
F2 F 0.6748(2) 0.0653(3) 0.61745(15)
F3 F 0.60021(19) 0.1894(4) 0.69415(13)
F4 F 0.72061(19) 0.3204(3) 0.65194(13)

#END
