
#######################################################################
#
#                 Cambridge Crystallographic Data Centre
#                                CCDC 
#
#######################################################################
#
# If this CIF has been generated from an entry in the Cambridge 
# Structural Database, then it will include bibliographic, chemical, 
# crystal, experimental, refinement or atomic coordinate data resulting 
# from the CCDC's data processing and validation procedures.
#
#######################################################################

data_ACINDN01
_symmetry_cell_setting           monoclinic
_symmetry_space_group_name_H-M   'P 21/n'
_symmetry_Int_Tables_number      14
_space_group_name_Hall           '-P 2yn'
loop_
_symmetry_equiv_pos_site_id
_symmetry_equiv_pos_as_xyz
1 x,y,z
2 1/2-x,1/2+y,1/2-z
3 -x,-y,-z
4 1/2+x,1/2-y,1/2+z
_cell_length_a                   5.2292(8)
_cell_length_b                   7.3061(14)
_cell_length_c                   22.832(4)
_cell_angle_alpha                90
_cell_angle_beta                 96.204(14)
_cell_angle_gamma                90
_cell_volume                     867.189
loop_
_atom_site_label
_atom_site_type_symbol
_atom_site_fract_x
_atom_site_fract_y
_atom_site_fract_z
C1 C 0.7470(4) 0.5841(3) 0.58647(10)
C2 C 0.5547(4) 0.4460(3) 0.59552(11)
C3 C 0.4124(4) 0.5063(4) 0.64429(10)
C4 C 0.5217(4) 0.6905(3) 0.66272(10)
C5 C 0.4561(5) 0.8096(4) 0.70601(11)
H1 H 0.3215 0.7809 0.7293
C6 C 0.5931(5) 0.9719(4) 0.71424(11)
H2 H 0.5518 1.0554 0.7437
C7 C 0.7901(5) 1.0143(4) 0.68013(11)
H3 H 0.8807 1.1265 0.6866
C8 C 0.8561(5) 0.8950(4) 0.63681(11)
H4 H 0.9900 0.9238 0.6134
C9 C 0.7206(4) 0.7334(3) 0.62904(10)
O1 O 0.9006(3) 0.5779(2) 0.54914(7)
O2 O 0.2400(3) 0.4282(3) 0.66683(8)
C10 C 0.5171(5) 0.2956(3) 0.55978(11)
O3 O 0.6650(3) 0.2668(2) 0.51643(7)
H5 H 0.7734 0.3516 0.5162
C11 C 0.3161(5) 0.1553(4) 0.56373(12)
H6 H 0.2012 0.1529 0.5269
H7 H 0.2167 0.1847 0.5965
H8 H 0.3971 0.0350 0.5704
C1 C 0.7530(4) 0.0841(3) 0.91353(10)
C2 C 0.9453(4) -0.0540(3) 0.90448(11)
C3 C 1.0876(4) 0.0063(4) 0.85571(10)
C4 C 0.9783(4) 0.1905(3) 0.83728(10)
C5 C 1.0439(5) 0.3096(4) 0.79399(11)
H1 H 1.1785 0.2809 0.7707
C6 C 0.9069(5) 0.4719(4) 0.78576(11)
H2 H 0.9482 0.5554 0.7563
C7 C 0.7099(5) 0.5143(4) 0.81987(11)
H3 H 0.6193 0.6265 0.8134
C8 C 0.6439(5) 0.3950(4) 0.86319(11)
H4 H 0.5100 0.4238 0.8866
C9 C 0.7794(4) 0.2334(3) 0.87096(10)
O1 O 0.5994(3) 0.0779(2) 0.95086(7)
O2 O 1.2600(3) -0.0718(3) 0.83317(8)
C10 C 0.9829(5) -0.2044(3) 0.94022(11)
O3 O 0.8350(3) -0.2332(2) 0.98357(7)
H5 H 0.7266 -0.1484 0.9838
C11 C 1.1839(5) -0.3447(4) 0.93627(12)
H6 H 1.2988 -0.3471 0.9731
H7 H 1.2833 -0.3153 0.9035
H8 H 1.1029 -0.4650 0.9296
C1 C 0.2530(4) 0.4159(3) 0.41353(10)
C2 C 0.4453(4) 0.5540(3) 0.40448(11)
C3 C 0.5876(4) 0.4937(4) 0.35571(10)
C4 C 0.4783(4) 0.3095(3) 0.33728(10)
C5 C 0.5439(5) 0.1904(4) 0.29399(11)
H1 H 0.6785 0.2191 0.2707
C6 C 0.4069(5) 0.0281(4) 0.28576(11)
H2 H 0.4482 -0.0554 0.2563
C7 C 0.2099(5) -0.0143(4) 0.31987(11)
H3 H 0.1193 -0.1265 0.3134
C8 C 0.1439(5) 0.1050(4) 0.36319(11)
H4 H 0.0100 0.0762 0.3866
C9 C 0.2794(4) 0.2666(3) 0.37096(10)
O1 O 0.0994(3) 0.4221(2) 0.45086(7)
O2 O 0.7600(3) 0.5718(3) 0.33317(8)
C10 C 0.4829(5) 0.7044(3) 0.44022(11)
O3 O 0.3350(3) 0.7332(2) 0.48357(7)
H5 H 0.2266 0.6484 0.4838
C11 C 0.6839(5) 0.8447(4) 0.43627(12)
H6 H 0.7988 0.8471 0.4731
H7 H 0.7833 0.8153 0.4035
H8 H 0.6029 0.9650 0.4296
C1 C 0.2470(4) 0.9159(3) 0.08647(10)
C2 C 0.0547(4) 1.0540(3) 0.09552(11)
C3 C -0.0876(4) 0.9937(4) 0.14429(10)
C4 C 0.0217(4) 0.8095(3) 0.16272(10)
C5 C -0.0439(5) 0.6904(4) 0.20601(11)
H1 H -0.1785 0.7191 0.2293
C6 C 0.0931(5) 0.5281(4) 0.21424(11)
H2 H 0.0518 0.4446 0.2437
C7 C 0.2901(5) 0.4857(4) 0.18013(11)
H3 H 0.3807 0.3735 0.1866
C8 C 0.3561(5) 0.6050(4) 0.13681(11)
H4 H 0.4900 0.5762 0.1134
C9 C 0.2206(4) 0.7666(3) 0.12904(10)
O1 O 0.4006(3) 0.9221(2) 0.04914(7)
O2 O -0.2600(3) 1.0718(3) 0.16683(8)
C10 C 0.0171(5) 1.2044(3) 0.05978(11)
O3 O 0.1650(3) 1.2332(2) 0.01643(7)
H5 H 0.2734 1.1484 0.0162
C11 C -0.1839(5) 1.3447(4) 0.06373(12)
H6 H -0.2988 1.3471 0.0269
H7 H -0.2833 1.3153 0.0965
H8 H -0.1029 1.4650 0.0704

#END
