./ACIREL_from_POSCAR.cif_generated_by_CrystalShift
_symmetry_cell_setting triclinic
_symmetry_space_group_name_H-M 'P 1'
loop_
_symmetry_equiv_pos_site_id
_symmetry_equiv_pos_as_xyz
1 x,y,z
_cell_length_a 4.530600
_cell_length_b 8.205800
_cell_length_c 11.009000
_cell_angle_alpha 73.492000
_cell_angle_beta 82.107000
_cell_angle_gamma 75.042000
_cell_volume 378.210843
loop_
_atom_site_label
_atom_site_type_symbol
_atom_site_fract_x
_atom_site_fract_y
_atom_site_fract_z
H1 H 0.766300 0.119600 0.817200
H2 H 0.401800 1.505700 1.290600
H3 H 0.003900 0.105600 0.374800
H4 H 0.003900 1.105600 1.374800
H5 H 1.174500 0.841700 0.855800
H6 H 0.401800 0.505700 0.290600
H7 H -0.174500 1.158300 1.144200
H8 H -0.102600 0.322900 0.041900
H9 H -0.174500 0.158300 0.144200
H10 H 0.355100 1.294400 -0.099400
H11 H 0.766300 1.119600 -0.182800
H12 H 0.233700 -0.119600 0.182800
H13 H 1.174500 0.841700 -0.144200
H14 H 0.644900 -0.294400 0.099400
H15 H 0.598200 0.494300 0.709400
H16 H 1.102600 0.677100 -0.041900
H17 H 0.355100 1.294400 0.900600
H18 H 0.598200 0.494300 -0.290600
H19 H 0.996100 -0.105600 -0.374800
H20 H 0.996100 0.894400 -0.374800
H21 H 0.233700 0.880400 1.182800
H22 H 0.598200 -0.505700 -0.290600
H23 H 0.644900 0.705600 0.099400
H24 H 1.102600 -0.322900 -0.041900
H25 H 1.174500 -0.158300 -0.144200
H26 H 0.233700 0.880400 0.182800
H27 H -0.174500 1.158300 0.144200
H28 H 0.766300 0.119600 -0.182800
H29 H -0.102600 1.322900 0.041900
H30 H 0.355100 0.294400 -0.099400
H31 H 0.401800 1.505700 0.290600
H32 H 0.996100 0.894400 0.625200
H33 H 0.003900 1.105600 0.374800
H34 H 0.644900 0.705600 1.099400
H35 H 0.003900 0.105600 1.374800
H36 H 0.355100 0.294400 0.900600
H37 H 1.174500 -0.158300 0.855800
H38 H 0.401800 0.505700 1.290600
H39 H 1.102600 -0.322900 0.958100
H40 H -0.102600 0.322900 1.041900
H41 H -0.174500 0.158300 1.144200
H42 H 0.598200 -0.505700 0.709400
H43 H -0.102600 1.322900 1.041900
H44 H 0.233700 -0.119600 1.182800
H45 H 0.996100 -0.105600 0.625200
H46 H 0.644900 -0.294400 1.099400
H47 H 0.766300 1.119600 0.817200
H48 H 1.102600 0.677100 0.958100
C49 C 0.916600 0.798200 0.668300
C50 C 0.916600 -0.201800 0.668300
C51 C 0.587900 -0.176000 1.058900
C52 C 0.771700 -0.292600 0.616200
C53 C 0.340500 -0.070600 1.108900
C54 C 0.247400 0.106500 1.051700
C55 C 1.016300 -0.221900 0.891800
C56 C -0.016300 0.221900 1.108200
C57 C 0.301800 0.423600 1.283200
C58 C 0.752600 -0.106500 0.948300
C59 C 0.659500 0.070600 0.891100
C60 C 1.016300 0.778100 0.891800
C61 C 0.412100 0.176000 0.941100
C62 C 0.228300 0.292600 1.383800
C63 C 0.083400 0.201800 1.331700
C64 C 0.587900 0.824000 1.058900
C65 C 0.659500 1.070600 0.891100
C66 C 0.083400 1.201800 0.331700
C67 C 0.412100 1.176000 0.941100
C68 C 0.228300 1.292600 0.383800
C69 C 0.301800 1.423600 0.283200
C70 C 0.771700 0.707400 0.616200
C71 C -0.016300 1.221900 0.108200
C72 C 0.412100 0.176000 -0.058900
C73 C 0.659500 0.070600 -0.108900
C74 C 0.247400 1.106500 0.051700
C75 C 0.340500 0.929400 0.108900
C76 C 0.752600 -0.106500 -0.051700
C77 C 0.587900 0.824000 0.058900
C78 C 1.016300 -0.221900 -0.108200
C79 C 0.698200 -0.423600 -0.283200
C80 C 0.340500 0.929400 1.108900
C81 C 0.752600 0.893500 0.948300
C82 C 0.916600 0.798200 -0.331700
C83 C 0.771700 -0.292600 -0.383800
C84 C 0.771700 0.707400 -0.383800
C85 C 0.698200 0.576400 -0.283200
C86 C 0.916600 -0.201800 -0.331700
C87 C 1.016300 0.778100 -0.108200
C88 C 0.698200 0.576400 0.716800
C89 C 0.587900 -0.176000 0.058900
C90 C 0.752600 0.893500 -0.051700
C91 C 0.659500 1.070600 -0.108900
C92 C 0.340500 -0.070600 0.108900
C93 C 0.412100 1.176000 -0.058900
C94 C 0.247400 0.106500 0.051700
C95 C 0.247400 1.106500 1.051700
C96 C -0.016300 0.221900 0.108200
C97 C 0.301800 0.423600 0.283200
C98 C 0.083400 1.201800 1.331700
C99 C 0.228300 0.292600 0.383800
C100 C 0.228300 1.292600 1.383800
C101 C 0.301800 1.423600 1.283200
C102 C 0.083400 0.201800 0.331700
C103 C -0.016300 1.221900 1.108200
C104 C 0.698200 -0.423600 0.716800
N105 N 0.787000 0.581300 -0.174500
N106 N 0.919900 0.720000 -0.206800
N107 N 0.213000 1.418700 0.174500
N108 N 0.080100 1.280000 0.206800
N109 N 0.787000 -0.418700 0.825500
N110 N 0.919900 -0.280000 0.793200
N111 N 0.080100 1.280000 1.206800
N112 N 0.213000 1.418700 1.174500
N113 N 0.213000 0.418700 1.174500
N114 N 0.080100 0.280000 1.206800
N115 N 0.787000 -0.418700 -0.174500
N116 N 0.919900 -0.280000 -0.206800
N117 N 0.213000 0.418700 0.174500
N118 N 0.080100 0.280000 0.206800
N119 N 0.787000 0.581300 0.825500
N120 N 0.919900 0.720000 0.793200
I121 I 0.688130 0.761460 -0.572710
I122 I 0.311870 1.238540 0.572710
I123 I 0.688130 -0.238540 0.427290
I124 I 0.311870 0.238540 1.572710
I125 I 0.688130 -0.238540 -0.572710
I126 I 0.311870 1.238540 1.572710
I127 I 0.688130 0.761460 0.427290
I128 I 0.311870 0.238540 0.572710

#END
