./ACISAI_from_POSCAR.cif_generated_by_CrystalShift
_symmetry_cell_setting triclinic
_symmetry_space_group_name_H-M 'P 1'
loop_
_symmetry_equiv_pos_site_id
_symmetry_equiv_pos_as_xyz
1 x,y,z
_cell_length_a 11.151000
_cell_length_b 4.595400
_cell_length_c 14.707000
_cell_angle_alpha 90.000000
_cell_angle_beta 106.200000
_cell_angle_gamma 90.000000
_cell_volume 723.711213
loop_
_atom_site_label
_atom_site_type_symbol
_atom_site_fract_x
_atom_site_fract_y
_atom_site_fract_z
H1 H 0.186600 0.771600 1.072100
H2 H 0.098400 0.085200 0.157500
H3 H 0.952900 1.450200 1.165800
H4 H 0.813400 1.228400 0.927900
H5 H -0.186600 0.228400 -0.072100
H6 H 1.098400 1.085200 1.157500
H7 H -0.047100 0.450200 0.165800
H8 H -0.140500 0.565400 0.072100
H9 H 0.686500 0.825000 1.253100
H10 H -0.313500 -0.175000 0.253100
H11 H 0.626700 1.421800 1.049400
H12 H 1.373300 0.578200 -0.049400
H13 H -0.373300 0.421800 0.049400
H14 H 0.626700 0.078200 0.549400
H15 H 1.313500 1.175000 -0.253100
H16 H 1.140500 0.434600 -0.072100
H17 H 0.686500 0.675000 0.753100
H18 H 1.047100 0.549800 -0.165800
H19 H 1.186600 0.771600 0.072100
H20 H -0.098400 -0.085200 -0.157500
H21 H 0.901600 0.914800 -0.157500
H22 H 0.901600 0.914800 0.842500
H23 H 0.186600 -0.228400 0.072100
H24 H 1.186600 0.771600 1.072100
H25 H 0.047100 -0.450200 -0.165800
H26 H 0.140500 -0.565400 -0.072100
H27 H 0.626700 1.421800 0.049400
H28 H 0.313500 0.175000 -0.253100
H29 H 0.686500 0.825000 0.253100
H30 H 0.859500 1.565400 0.072100
H31 H 0.373300 -0.421800 -0.049400
H32 H 0.859500 -0.065400 0.572100
H33 H 0.952900 0.049800 0.665800
H34 H 0.952900 1.450200 0.165800
H35 H 0.813400 0.271600 0.427900
H36 H 0.813400 1.228400 -0.072100
H37 H 1.098400 1.085200 0.157500
H38 H 0.098400 0.085200 1.157500
H39 H 1.047100 0.549800 0.834200
H40 H 1.140500 0.434600 0.927900
H41 H -0.186600 0.228400 0.927900
H42 H 1.313500 1.175000 0.746900
H43 H -0.047100 0.450200 1.165800
H44 H -0.140500 0.565400 1.072100
H45 H 1.373300 -0.421800 0.950600
H46 H -0.313500 -0.175000 1.253100
H47 H 1.313500 0.175000 0.746900
H48 H 1.140500 -0.565400 0.927900
H49 H -0.373300 0.421800 1.049400
H50 H 1.047100 -0.450200 0.834200
H51 H 1.098400 0.414800 0.657500
H52 H 1.186600 -0.228400 1.072100
H53 H 1.373300 0.921800 0.450600
H54 H 0.901600 -0.085200 0.842500
H55 H 1.373300 0.578200 0.950600
H56 H -0.098400 -0.085200 0.842500
H57 H -0.098400 0.585200 0.342500
H58 H 0.626700 0.421800 1.049400
H59 H 0.186600 -0.228400 1.072100
H60 H 0.686500 -0.175000 1.253100
H61 H 0.047100 -0.450200 0.834200
H62 H 0.140500 -0.565400 0.927900
H63 H 0.859500 0.565400 1.072100
H64 H 0.313500 0.175000 0.746900
H65 H 0.952900 0.450200 1.165800
H66 H 0.813400 0.228400 0.927900
H67 H 0.373300 -0.421800 0.950600
H68 H 1.098400 0.085200 1.157500
H69 H 1.313500 0.325000 0.246900
H70 H 0.186600 0.728400 0.572100
H71 H 1.140500 1.065400 0.427900
H72 H 1.047100 0.950200 0.334200
H73 H 0.047100 0.950200 0.334200
H74 H 0.098400 1.085200 0.157500
H75 H 1.373300 -0.421800 -0.049400
H76 H 1.313500 0.175000 -0.253100
H77 H -0.186600 1.228400 -0.072100
H78 H 1.140500 -0.565400 -0.072100
H79 H -0.047100 1.450200 0.165800
H80 H -0.140500 1.565400 0.072100
H81 H 1.047100 -0.450200 -0.165800
H82 H -0.313500 0.825000 0.253100
H83 H 1.186600 -0.228400 0.072100
H84 H 0.901600 -0.085200 -0.157500
H85 H -0.373300 1.421800 0.049400
H86 H 0.140500 1.065400 0.427900
H87 H 1.186600 0.728400 0.572100
H88 H 0.313500 0.325000 0.246900
H89 H 0.626700 0.421800 0.049400
H90 H 0.901600 0.585200 0.342500
H91 H 0.686500 -0.175000 0.253100
H92 H -0.098400 0.914800 -0.157500
H93 H 0.859500 0.565400 0.072100
H94 H 0.952900 0.450200 0.165800
H95 H 0.186600 0.771600 0.072100
H96 H 0.813400 0.228400 -0.072100
H97 H 0.047100 0.549800 -0.165800
H98 H 0.140500 0.434600 -0.072100
H99 H 1.098400 0.085200 0.157500
H100 H 0.313500 1.175000 -0.253100
H101 H 0.373300 0.921800 0.450600
H102 H 0.098400 0.414800 0.657500
H103 H 0.373300 0.578200 -0.049400
H104 H 0.373300 0.578200 0.950600
H105 H -0.373300 0.078200 0.549400
H106 H 0.313500 1.175000 0.746900
H107 H 0.140500 0.434600 0.927900
H108 H -0.313500 0.675000 0.753100
H109 H 0.047100 0.549800 0.834200
H110 H 0.098400 1.085200 1.157500
H111 H 0.859500 1.565400 1.072100
H112 H -0.098400 0.914800 0.842500
H113 H -0.186600 1.228400 0.927900
H114 H -0.186600 0.271600 0.427900
H115 H -0.047100 1.450200 1.165800
H116 H -0.140500 1.565400 1.072100
H117 H -0.047100 0.049800 0.665800
H118 H -0.313500 0.825000 1.253100
H119 H -0.140500 -0.065400 0.572100
H120 H -0.373300 1.421800 1.049400
C121 C -0.335600 1.293900 1.097920
C122 C -0.300300 0.536100 0.710970
C123 C -0.394200 1.108200 1.144870
C124 C -0.300300 0.963900 1.210970
C125 C -0.110500 0.108300 0.608970
C126 C -0.110500 1.391700 1.108970
C127 C -0.058300 0.948700 0.906100
C128 C -0.111400 1.136800 0.957320
C129 C 0.053300 0.810700 0.948110
C130 C 0.111400 0.863200 1.042680
C131 C -0.053300 1.189300 1.051890
C132 C 0.110500 0.608300 0.891030
C133 C 0.058300 1.051300 1.093900
C134 C -0.394200 0.391800 0.644870
C135 C 0.300300 1.036100 0.789030
C136 C -0.335600 0.206100 0.597920
C137 C 0.394200 0.891800 0.855130
C138 C 0.335600 0.706100 0.902080
C139 C 0.941700 0.551300 0.406100
C140 C -0.111400 0.363200 0.457320
C141 C -0.053300 0.310700 0.551890
C142 C 0.335600 0.706100 -0.097920
C143 C 0.058300 0.448700 0.593900
C144 C 0.394200 0.891800 -0.144870
C145 C 1.058300 0.051300 0.093900
C146 C 0.300300 1.036100 -0.210970
C147 C 0.946700 0.189300 0.051890
C148 C 0.888600 0.136800 -0.042680
C149 C 0.110500 0.608300 -0.108970
C150 C 0.889500 0.391700 0.108970
C151 C 0.111400 0.863200 0.042680
C152 C 0.053300 0.810700 -0.051890
C153 C 0.699700 -0.036100 0.210970
C154 C -0.058300 0.948700 -0.093900
C155 C 0.605800 0.108200 0.144870
C156 C 0.664400 0.293900 0.097920
C157 C 1.053300 0.689300 0.448110
C158 C 0.335600 0.793900 0.402080
C159 C 0.394200 0.608200 0.355130
C160 C 1.111400 0.636800 0.542680
C161 C 0.300300 0.463900 0.289030
C162 C 1.110500 0.891700 0.391030
C163 C 0.941700 -0.051300 -0.093900
C164 C -0.335600 1.293900 0.097920
C165 C 1.053300 -0.189300 -0.051890
C166 C 1.111400 -0.136800 0.042680
C167 C -0.394200 1.108200 0.144870
C168 C 1.110500 -0.391700 -0.108970
C169 C -0.300300 0.963900 0.210970
C170 C -0.110500 1.391700 0.108970
C171 C 1.300300 0.036100 -0.210970
C172 C -0.111400 1.136800 -0.042680
C173 C 1.394200 -0.108200 -0.144870
C174 C 1.335600 -0.293900 -0.097920
C175 C -0.053300 1.189300 0.051890
C176 C 0.058300 1.051300 0.093900
C177 C 0.110500 0.891700 0.391030
C178 C 1.300300 0.463900 0.289030
C179 C 0.111400 0.636800 0.542680
C180 C 0.053300 0.689300 0.448110
C181 C 1.058300 0.051300 1.093900
C182 C 1.394200 0.608200 0.355130
C183 C 0.946700 0.189300 1.051890
C184 C 0.888600 0.136800 0.957320
C185 C 0.335600 -0.293900 0.902080
C186 C 0.889500 0.391700 1.108970
C187 C 0.394200 -0.108200 0.855130
C188 C 0.300300 0.036100 0.789030
C189 C 0.699700 -0.036100 1.210970
C190 C 0.110500 -0.391700 0.891030
C191 C 0.605800 0.108200 1.144870
C192 C 0.664400 0.293900 1.097920
C193 C 0.111400 -0.136800 1.042680
C194 C 0.053300 -0.189300 0.948110
C195 C -0.058300 0.551300 0.406100
C196 C -0.058300 -0.051300 0.906100
C197 C 1.335600 0.706100 0.902080
C198 C 1.394200 0.891800 0.855130
C199 C 0.941700 -0.051300 0.906100
C200 C 1.335600 0.793900 0.402080
C201 C 1.053300 -0.189300 0.948110
C202 C 1.111400 -0.136800 1.042680
C203 C 1.058300 0.448700 0.593900
C204 C 1.110500 -0.391700 0.891030
C205 C 0.946700 0.310700 0.551890
C206 C -0.335600 0.293900 1.097920
C207 C 1.300300 0.036100 0.789030
C208 C -0.394200 0.108200 1.144870
C209 C 1.394200 -0.108200 0.855130
C210 C 1.335600 -0.293900 0.902080
C211 C -0.300300 -0.036100 1.210970
C212 C -0.110500 0.391700 1.108970
C213 C 1.300300 1.036100 0.789030
C214 C -0.111400 0.136800 0.957320
C215 C -0.053300 0.189300 1.051890
C216 C 1.110500 0.608300 0.891030
C217 C 1.058300 1.051300 0.093900
C218 C 0.058300 0.051300 1.093900
C219 C 0.946700 1.189300 0.051890
C220 C 0.888600 1.136800 -0.042680
C221 C 0.888600 0.363200 0.457320
C222 C 0.889500 1.391700 0.108970
C223 C 0.889500 0.108300 0.608970
C224 C 0.335600 -0.293900 -0.097920
C225 C 0.699700 0.963900 0.210970
C226 C 0.394200 -0.108200 -0.144870
C227 C 0.605800 1.108200 0.144870
C228 C 0.664400 1.293900 0.097920
C229 C 0.300300 0.036100 -0.210970
C230 C 0.110500 -0.391700 -0.108970
C231 C 1.111400 0.863200 1.042680
C232 C 1.053300 0.810700 0.948110
C233 C 0.111400 -0.136800 0.042680
C234 C 0.941700 0.948700 0.906100
C235 C 0.941700 0.948700 -0.093900
C236 C 0.053300 -0.189300 -0.051890
C237 C 1.053300 0.810700 -0.051890
C238 C 1.111400 0.863200 0.042680
C239 C -0.058300 -0.051300 -0.093900
C240 C 1.110500 0.608300 -0.108970
C241 C 0.699700 0.536100 0.710970
C242 C 0.605800 0.391800 0.644870
C243 C 1.300300 1.036100 -0.210970
C244 C 0.664400 0.206100 0.597920
C245 C 1.394200 0.891800 -0.144870
C246 C 1.335600 0.706100 -0.097920
C247 C -0.335600 0.293900 0.097920
C248 C -0.394200 0.108200 0.144870
C249 C 0.664400 1.293900 1.097920
C250 C 0.605800 1.108200 1.144870
C251 C -0.300300 -0.036100 0.210970
C252 C 0.699700 0.963900 1.210970
C253 C 1.058300 1.051300 1.093900
C254 C -0.110500 0.391700 0.108970
C255 C 0.946700 1.189300 1.051890
C256 C 0.888600 1.136800 0.957320
C257 C -0.111400 0.136800 -0.042680
C258 C 0.889500 1.391700 1.108970
C259 C -0.053300 0.189300 0.051890
C260 C 0.058300 0.051300 0.093900
N261 N 0.214620 0.746200 0.864280
N262 N 0.810710 0.449900 0.706030
N263 N 1.524900 0.921800 -0.129300
N264 N 1.189290 0.949900 -0.206030
N265 N 1.214620 0.746200 -0.135720
N266 N 0.785380 1.253800 1.135720
N267 N 0.810710 1.050100 1.206030
N268 N 0.475100 1.078200 1.129300
N269 N 0.785380 0.246200 0.635720
N270 N -0.214620 0.253800 0.135720
N271 N -0.189290 0.050100 0.206030
N272 N -0.524900 0.078200 0.129300
N273 N 0.475100 1.078200 0.129300
N274 N 0.810710 1.050100 0.206030
N275 N 0.785380 1.253800 0.135720
N276 N 0.214620 -0.253800 -0.135720
N277 N 0.189290 -0.050100 -0.206030
N278 N 1.524900 -0.078200 0.870700
N279 N 1.189290 -0.050100 0.793970
N280 N 1.214620 -0.253800 0.864280
N281 N 0.524900 -0.078200 -0.129300
N282 N -0.214620 0.253800 1.135720
N283 N 0.475100 0.078200 1.129300
N284 N 1.214620 0.746200 0.864280
N285 N 1.189290 0.949900 0.793970
N286 N 1.524900 0.921800 0.870700
N287 N -0.189290 0.050100 1.206030
N288 N -0.524900 0.078200 1.129300
N289 N 0.810710 0.050100 1.206030
N290 N 0.785380 0.253800 1.135720
N291 N 1.524900 0.578200 0.370700
N292 N 1.189290 0.550100 0.293970
N293 N 1.524900 -0.078200 -0.129300
N294 N 1.189290 -0.050100 -0.206030
N295 N 1.214620 -0.253800 -0.135720
N296 N 1.214620 0.753800 0.364280
N297 N 0.214620 -0.253800 0.864280
N298 N 0.475100 0.078200 0.129300
N299 N 0.810710 0.050100 0.206030
N300 N 0.785380 0.253800 0.135720
N301 N 0.189290 -0.050100 0.793970
N302 N 0.214620 0.753800 0.364280
N303 N 0.189290 0.550100 0.293970
N304 N 0.524900 0.578200 0.370700
N305 N 0.524900 -0.078200 0.870700
N306 N -0.214620 1.253800 0.135720
N307 N -0.189290 1.050100 0.206030
N308 N 0.524900 0.921800 0.870700
N309 N 0.189290 0.949900 0.793970
N310 N 0.475100 0.421800 0.629300
N311 N -0.524900 1.078200 0.129300
N312 N 0.214620 0.746200 -0.135720
N313 N -0.524900 1.078200 1.129300
N314 N -0.189290 1.050100 1.206030
N315 N -0.214620 1.253800 1.135720
N316 N -0.524900 0.421800 0.629300
N317 N -0.189290 0.449900 0.706030
N318 N 0.524900 0.921800 -0.129300
N319 N 0.189290 0.949900 -0.206030
N320 N -0.214620 0.246200 0.635720
O321 O 0.563370 1.103000 -0.175080
O322 O 0.594830 0.763500 -0.071210
O323 O -0.563370 0.603000 0.675080
O324 O -0.594830 0.263500 0.571210
O325 O -0.563370 0.897000 1.175080
O326 O -0.594830 1.236500 0.071210
O327 O -0.563370 0.897000 0.175080
O328 O -0.594830 1.236500 1.071210
O329 O 0.563370 1.103000 0.824920
O330 O 0.594830 0.736500 0.428790
O331 O 0.594830 -0.236500 0.928790
O332 O 0.563370 0.103000 0.824920
O333 O 0.563370 0.397000 0.324920
O334 O 0.594830 0.763500 0.928790
O335 O 0.436630 -0.103000 0.175080
O336 O -0.594830 0.236500 1.071210
O337 O -0.563370 -0.103000 1.175080
O338 O 0.405170 0.236500 0.071210
O339 O 1.563370 0.103000 -0.175080
O340 O 1.594830 -0.236500 -0.071210
O341 O 1.563370 0.397000 0.324920
O342 O 1.594830 0.736500 0.428790
O343 O 1.594830 0.763500 0.928790
O344 O 1.563370 1.103000 0.824920
O345 O 0.436630 -0.103000 1.175080
O346 O 0.594830 -0.236500 -0.071210
O347 O 0.563370 0.103000 -0.175080
O348 O 0.405170 0.236500 1.071210
O349 O 1.563370 0.103000 0.824920
O350 O 1.594830 -0.236500 0.928790
O351 O -0.594830 0.236500 0.071210
O352 O -0.563370 -0.103000 0.175080
O353 O 0.436630 0.897000 0.175080
O354 O 0.405170 1.236500 0.071210
O355 O 0.405170 1.236500 1.071210
O356 O 0.436630 0.897000 1.175080
O357 O 1.563370 1.103000 -0.175080
O358 O 1.594830 0.763500 -0.071210
O359 O 0.436630 0.603000 0.675080
O360 O 0.405170 0.263500 0.571210

#END
