
#######################################################################
#
#                 Cambridge Crystallographic Data Centre
#                                CCDC 
#
#######################################################################
#
# If this CIF has been generated from an entry in the Cambridge 
# Structural Database, then it will include bibliographic, chemical, 
# crystal, experimental, refinement or atomic coordinate data resulting 
# from the CCDC's data processing and validation procedures.
#
#######################################################################

data_ACIVIS
_symmetry_cell_setting           triclinic
_symmetry_space_group_name_H-M   'P -1'
_symmetry_Int_Tables_number      2
_space_group_name_Hall           '-P 1'
loop_
_symmetry_equiv_pos_site_id
_symmetry_equiv_pos_as_xyz
1 x,y,z
2 -x,-y,-z
_cell_length_a                   9.7457(18)
_cell_length_b                   10.0458(18)
_cell_length_c                   10.715(2)
_cell_angle_alpha                73.76(2)
_cell_angle_beta                 85.61(2)
_cell_angle_gamma                89.94(2)
_cell_volume                     1003.99
loop_
_atom_site_label
_atom_site_type_symbol
_atom_site_fract_x
_atom_site_fract_y
_atom_site_fract_z
C1 C 0.4492(2) 0.19969(18) 0.13971(16)
C2 C 0.5571(2) 0.1095(2) 0.13482(18)
H1 H 0.5378 0.0179 0.1316
C3 C 0.6921(2) 0.1525(2) 0.13466(19)
H2 H 0.7647 0.0898 0.1324
C4 C 0.7220(2) 0.2860(2) 0.13773(19)
H3 H 0.815(3) 0.319(2) 0.136(2)
C5 C 0.6153(2) 0.3765(2) 0.14339(19)
H4 H 0.6352 0.4682 0.1459
C6 C 0.4796(2) 0.33341(19) 0.14536(18)
H5 H 0.4071 0.3953 0.1506
C7 C 0.24383(19) 0.18908(17) -0.04121(17)
C8 C 0.3484(2) 0.23629(18) -0.13874(17)
H6 H 0.4397 0.2456 -0.1164
C9 C 0.3206(2) 0.27040(19) -0.27021(18)
H7 H 0.3926 0.3026 -0.3369
C10 C 0.1868(2) 0.25672(19) -0.30224(18)
H8 H 0.1673 0.2811 -0.3912
C11 C 0.0819(2) 0.2080(2) -0.20578(19)
H9 H -0.0089 0.1970 -0.2285
C12 C 0.1096(2) 0.1749(2) -0.07512(19)
H10 H 0.041(2) 0.142(2) -0.009(2)
C13 C 0.15741(19) 0.23359(19) 0.20492(18)
C14 C 0.0798(2) 0.1715(2) 0.32110(19)
H11 H 0.087(2) 0.077(2) 0.357(2)
C15 C -0.0060(2) 0.2513(3) 0.3793(2)
H12 H -0.058(3) 0.211(3) 0.452(3)
C16 C -0.0179(2) 0.3920(3) 0.3210(2)
H13 H -0.081(2) 0.445(2) 0.358(2)
C17 C 0.0535(2) 0.4533(2) 0.2026(2)
H14 H 0.0430 0.5492 0.1611
C18 C 0.1407(2) 0.37515(19) 0.1442(2)
H15 H 0.1894 0.4177 0.0625
C19 C 0.2595(2) -0.04229(18) 0.17062(17)
H16 H 0.2196 -0.0759 0.1068
C20 C 0.29413(19) -0.15049(18) 0.28468(17)
C21 C 0.2900(2) -0.29103(19) 0.2851(2)
H17 H 0.2654 -0.3138 0.2093
C22 C 0.3209(2) -0.3976(2) 0.3939(2)
H18 H 0.3165 -0.4914 0.3917
C23 C 0.3582(2) -0.3666(2) 0.5052(2)
H19 H 0.3799 -0.4389 0.5791
C24 C 0.3635(2) -0.2297(2) 0.50819(18)
H20 H 0.3882 -0.2081 0.5845
C25 C 0.33282(19) -0.12386(18) 0.39979(17)
C26 C 0.3220(2) 0.0500(2) 0.51545(19)
H21 H 0.4015 0.0172 0.5654
H22 H 0.2377 0.0060 0.5658
H23 H 0.3165 0.1509 0.4980
P1 P 0.27696(5) 0.13251(5) 0.13018(4)
O1 O 0.33689(15) 0.01501(13) 0.39495(12)
C1 C 0.5508(2) 0.80031(18) 0.86029(16)
C2 C 0.4429(2) 0.8905(2) 0.86518(18)
H1 H 0.4622 0.9821 0.8684
C3 C 0.3079(2) 0.8475(2) 0.86534(19)
H2 H 0.2353 0.9102 0.8676
C4 C 0.2780(2) 0.7140(2) 0.86227(19)
H3 H 0.185(3) 0.681(2) 0.864(2)
C5 C 0.3847(2) 0.6235(2) 0.85661(19)
H4 H 0.3648 0.5318 0.8541
C6 C 0.5204(2) 0.66659(19) 0.85464(18)
H5 H 0.5929 0.6047 0.8494
C7 C 0.75617(19) 0.81092(17) 1.04121(17)
C8 C 0.6516(2) 0.76371(18) 1.13874(17)
H6 H 0.5603 0.7544 1.1164
C9 C 0.6794(2) 0.72960(19) 1.27021(18)
H7 H 0.6074 0.6974 1.3369
C10 C 0.8132(2) 0.74328(19) 1.30224(18)
H8 H 0.8327 0.7189 1.3912
C11 C 0.9181(2) 0.7920(2) 1.20578(19)
H9 H 1.0089 0.8030 1.2285
C12 C 0.8904(2) 0.8251(2) 1.07512(19)
H10 H 0.959(2) 0.858(2) 1.009(2)
C13 C 0.84259(19) 0.76641(19) 0.79508(18)
C14 C 0.9202(2) 0.8285(2) 0.67890(19)
H11 H 0.913(2) 0.923(2) 0.643(2)
C15 C 1.0060(2) 0.7487(3) 0.6207(2)
H12 H 1.058(3) 0.789(3) 0.548(3)
C16 C 1.0179(2) 0.6080(3) 0.6790(2)
H13 H 1.081(2) 0.555(2) 0.642(2)
C17 C 0.9465(2) 0.5467(2) 0.7974(2)
H14 H 0.9570 0.4508 0.8389
C18 C 0.8593(2) 0.62485(19) 0.8558(2)
H15 H 0.8106 0.5823 0.9375
C19 C 0.7405(2) 1.04229(18) 0.82938(17)
H16 H 0.7804 1.0759 0.8932
C20 C 0.70587(19) 1.15049(18) 0.71532(17)
C21 C 0.7100(2) 1.29103(19) 0.7149(2)
H17 H 0.7346 1.3138 0.7907
C22 C 0.6791(2) 1.3976(2) 0.6061(2)
H18 H 0.6835 1.4914 0.6083
C23 C 0.6418(2) 1.3666(2) 0.4948(2)
H19 H 0.6201 1.4389 0.4209
C24 C 0.6365(2) 1.2297(2) 0.49181(18)
H20 H 0.6118 1.2081 0.4155
C25 C 0.66718(19) 1.12386(18) 0.60021(17)
C26 C 0.6780(2) 0.9500(2) 0.48455(19)
H21 H 0.5985 0.9828 0.4346
H22 H 0.7623 0.9940 0.4342
H23 H 0.6835 0.8491 0.5020
P1 P 0.72304(5) 0.86749(5) 0.86982(4)
O1 O 0.66311(15) 0.98499(13) 0.60505(12)

#END
