./ACIXAL01_from_POSCAR.cif_generated_by_CrystalShift
_symmetry_cell_setting triclinic
_symmetry_space_group_name_H-M 'P 1'
loop_
_symmetry_equiv_pos_site_id
_symmetry_equiv_pos_as_xyz
1 x,y,z
_cell_length_a 5.578700
_cell_length_b 11.021000
_cell_length_c 13.128000
_cell_angle_alpha 95.143000
_cell_angle_beta 100.311000
_cell_angle_gamma 100.424000
_cell_volume 774.770353
loop_
_atom_site_label
_atom_site_type_symbol
_atom_site_fract_x
_atom_site_fract_y
_atom_site_fract_z
H1 H 0.346300 0.584900 0.430400
H2 H 0.537300 0.672700 0.599900
H3 H -0.435400 -0.096800 -0.011000
H4 H 0.664000 0.776300 0.827900
H5 H 0.549000 0.620300 0.928500
H6 H 0.735300 0.448000 0.931300
H7 H 1.036200 0.431100 0.831900
H8 H 1.158500 0.587900 0.734500
H9 H 0.636500 0.925100 0.599800
H10 H -0.146700 0.176300 0.504500
H11 H 0.449900 1.089100 0.642000
H12 H 0.044900 0.264700 0.673400
H13 H 0.596600 1.215900 0.800800
H14 H 0.440000 0.390100 0.705000
H15 H 0.943500 1.182600 0.914200
H16 H 0.056500 -0.182600 0.085800
H17 H 0.560000 0.609900 0.295000
H18 H 0.403400 -0.215900 0.199200
H19 H 0.955100 0.735300 0.326600
H20 H 0.550100 -0.089100 0.358000
H21 H 1.146700 0.823700 0.495500
H22 H 0.363500 0.074900 0.400200
H23 H 1.435400 1.096800 1.011000
H24 H 0.653700 0.415100 0.569600
H25 H -0.158500 0.412100 0.265500
H26 H 0.462700 0.327300 0.400100
H27 H -0.036200 0.568900 0.168100
H28 H 0.336000 0.223700 0.172100
H29 H 0.264700 0.552000 0.068700
H30 H 0.451000 0.379700 0.071500
C31 C 0.326600 0.386380 0.111370
C32 C 0.256900 0.293110 0.170730
C33 C 0.217000 0.488470 0.109770
C34 C 0.375500 0.315010 0.455410
C35 C 0.038200 0.497940 0.167900
C36 C 0.488900 0.367590 0.556090
C37 C -0.033600 0.404750 0.226010
C38 C 0.624500 0.684990 0.544590
C39 C 0.743100 0.706890 0.829270
C40 C 0.072900 0.300230 0.228040
C41 C -0.211700 -0.013490 0.098770
C42 C 1.211700 1.013490 0.901230
C43 C 0.992500 1.030310 0.826460
C44 C 0.899100 0.948900 0.732480
C45 C 0.864700 0.755600 0.565530
C46 C 0.983900 0.773950 0.483010
C47 C 0.301100 0.024190 0.334990
C48 C 0.870700 0.721300 0.382550
C49 C 0.412400 -0.073980 0.310330
C50 C 0.635900 0.648720 0.363620
C51 C 0.324300 -0.149820 0.216960
C52 C 0.879500 1.129030 0.850540
C53 C 0.120500 -0.129030 0.149460
C54 C 0.675700 1.149820 0.783040
C55 C 0.364100 0.351280 0.636380
C56 C 0.587600 1.073980 0.689670
C57 C 0.129300 0.278700 0.617450
C58 C 0.698900 0.975810 0.665010
C59 C 0.016100 0.226050 0.516990
C60 C 0.927100 0.699770 0.771960
C61 C 1.033600 0.595250 0.773990
C62 C 0.135300 0.244400 0.434470
C63 C 0.961800 0.502060 0.832100
C64 C 0.100900 0.051100 0.267520
C65 C 0.783000 0.511530 0.890230
C66 C 0.007500 -0.030310 0.173540
C67 C 0.673400 0.613620 0.888630
C68 C 0.511100 0.632410 0.443910
O69 O -0.294900 0.081470 0.101310
O70 O 1.311800 1.111560 0.970850
O71 O -0.311800 -0.111560 0.029150
O72 O 1.294900 0.918530 0.898690
P73 P 1.048250 0.819360 0.695880
P74 P -0.048250 0.180640 0.304120

#END
