
#######################################################################
#
#                 Cambridge Crystallographic Data Centre
#                                CCDC 
#
#######################################################################
#
# If this CIF has been generated from an entry in the Cambridge 
# Structural Database, then it will include bibliographic, chemical, 
# crystal, experimental, refinement or atomic coordinate data resulting 
# from the CCDC's data processing and validation procedures.
#
#######################################################################

data_ACIYAN
_symmetry_cell_setting           triclinic
_symmetry_space_group_name_H-M   'P -1'
_symmetry_Int_Tables_number      2
_space_group_name_Hall           '-P 1'
loop_
_symmetry_equiv_pos_site_id
_symmetry_equiv_pos_as_xyz
1 x,y,z
2 -x,-y,-z
_cell_length_a                   14.29(2)
_cell_length_b                   17.64(3)
_cell_length_c                   19.01(3)
_cell_angle_alpha                112.68(2)
_cell_angle_beta                 96.56(3)
_cell_angle_gamma                97.87(2)
_cell_volume                     4306
loop_
_atom_site_label
_atom_site_type_symbol
_atom_site_fract_x
_atom_site_fract_y
_atom_site_fract_z
Y1 Y 0.47840(5) 0.27962(4) 0.26510(4)
Cl1 Cl 0.9808(2) 0.6203(2) 0.1446(2)
Cl2 Cl 1.0153(2) 0.2127(2) 0.58693(19)
Cl3 Cl 0.2200(3) -0.31294(18) 0.1180(3)
Cl4 Cl 0.1404(3) 0.1619(3) -0.25160(19)
N1 N 0.3438(4) 0.3404(3) 0.2314(3)
N2 N 0.4290(5) 0.4731(4) 0.2384(4)
N3 N 0.5158(4) 0.4357(3) 0.3323(3)
N4 N 0.6183(4) 0.4558(4) 0.4505(3)
N5 N 0.5033(4) 0.3276(3) 0.4084(3)
N6 N 0.4020(4) 0.2135(4) 0.4204(3)
N7 N 0.3331(4) 0.2331(3) 0.3079(3)
N8 N 0.2069(4) 0.2328(4) 0.2100(3)
N9 N 0.5207(4) 0.3019(4) 0.1532(3)
N10 N 0.6540(4) 0.3097(4) 0.2852(3)
N11 N 0.5319(4) 0.1612(4) 0.2812(3)
N12 N 0.3976(4) 0.1559(4) 0.1497(3)
O1 O 0.0539(5) 0.2437(4) 0.0994(4)
O2 O 0.5408(4) 0.6398(3) 0.2553(3)
O3 O 0.7357(6) 0.4833(5) 0.5955(5)
O4 O 0.2593(4) 0.0841(4) 0.4368(4)
C1 C 0.2528(6) 0.2960(5) 0.1982(4)
C2 C 0.2037(6) 0.3343(5) 0.1530(4)
C3 C 0.1118(7) 0.3146(6) 0.1078(5)
C4 C 0.0878(8) 0.3673(7) 0.0732(6)
H1 H 0.0285 0.3541 0.0410
C5 C 0.1532(8) 0.4404(7) 0.0868(6)
H2 H 0.1346 0.4755 0.0641
C6 C 0.2455(7) 0.4640(6) 0.1330(5)
H3 H 0.2878 0.5132 0.1422
C7 C 0.2682(6) 0.4066(5) 0.1639(4)
C8 C 0.3552(6) 0.4082(5) 0.2130(4)
C9 C 0.5019(6) 0.4877(4) 0.2953(5)
C10 C 0.5730(5) 0.5655(5) 0.3320(4)
C11 C 0.5959(6) 0.6358(5) 0.3160(5)
C12 C 0.6705(7) 0.6998(5) 0.3673(6)
H4 H 0.6874 0.7476 0.3582
C13 C 0.7190(7) 0.6942(5) 0.4301(6)
H5 H 0.7684 0.7383 0.4627
C14 C 0.6981(6) 0.6261(5) 0.4472(5)
H6 H 0.7311 0.6236 0.4910
C15 C 0.6241(6) 0.5595(4) 0.3953(5)
C16 C 0.5874(5) 0.4795(4) 0.3937(5)
C17 C 0.5774(5) 0.3873(5) 0.4589(4)
C18 C 0.6050(5) 0.3726(4) 0.5269(4)
C19 C 0.6769(6) 0.4144(6) 0.5931(5)
C20 C 0.6807(6) 0.3813(6) 0.6485(5)
H7 H 0.7267 0.4079 0.6937
C21 C 0.6180(6) 0.3101(6) 0.6382(5)
H8 H 0.6229 0.2896 0.6764
C22 C 0.5472(6) 0.2677(5) 0.5723(5)
H9 H 0.5051 0.2193 0.5656
C23 C 0.5424(5) 0.3005(5) 0.5173(4)
C24 C 0.4772(5) 0.2744(4) 0.4429(4)
C25 C 0.3325(6) 0.1963(5) 0.3601(4)
C26 C 0.2393(5) 0.1399(5) 0.3437(4)
C27 C 0.2010(6) 0.0891(5) 0.3781(5)
C28 C 0.1065(7) 0.0446(5) 0.3466(6)
H10 H 0.0792 0.0090 0.3675
C29 C 0.0533(7) 0.0520(6) 0.2858(6)
H11 H -0.0091 0.0212 0.2666
C30 C 0.0889(6) 0.1032(6) 0.2527(5)
H12 H 0.0520 0.1088 0.2121
C31 C 0.1841(6) 0.1471(4) 0.2830(4)
C32 C 0.2431(5) 0.2056(5) 0.2624(4)
C33 C -0.0454(8) 0.2161(7) 0.0588(7)
H13 H -0.0736 0.2658 0.0672
C34 C -0.0466(10) 0.1715(9) -0.0264(8)
H14 H -0.1129 0.1502 -0.0528
H15 H -0.0189 0.2120 -0.0449
C35 C 0.0057(12) 0.1005(11) -0.0491(8)
H16 H -0.0003 0.0754 -0.1045
H17 H -0.0212 0.0594 -0.0317
H18 H 0.0724 0.1210 -0.0257
C36 C -0.0980(9) 0.1657(9) 0.0954(9)
H19 H -0.0627 0.1229 0.0966
H20 H -0.1604 0.1373 0.0628
C37 C -0.1134(14) 0.2169(11) 0.1793(8)
H21 H -0.1466 0.1798 0.1983
H22 H -0.1509 0.2580 0.1788
H23 H -0.0522 0.2446 0.2125
C38 C 0.5853(7) 0.6738(6) 0.2066(6)
H24 H 0.6528 0.6997 0.2299
C39 C 0.5781(10) 0.5996(8) 0.1273(7)
H25 H 0.6131 0.5590 0.1344
H26 H 0.6072 0.6199 0.0926
C40 C 0.4713(12) 0.5566(9) 0.0904(8)
H27 H 0.4685 0.5112 0.0412
H28 H 0.4367 0.5967 0.0830
H29 H 0.4430 0.5352 0.1242
C41 C 0.5319(10) 0.7371(7) 0.1991(8)
H30 H 0.4635 0.7154 0.1904
H31 H 0.5454 0.7475 0.1544
C42 C 0.5589(13) 0.8188(8) 0.2710(8)
H32 H 0.5220 0.8580 0.2645
H33 H 0.6260 0.8414 0.2785
H34 H 0.5456 0.8086 0.3153
C43 C 0.8148(8) 0.5176(8) 0.6291(10)
H35 H 0.8056 0.5312 0.6826
C44 C 0.8949(8) 0.4682(7) 0.6259(10)
H36 H 0.8673 0.4088 0.6056
H37 H 0.9360 0.4770 0.5914
C45 C 0.9506(12) 0.4945(12) 0.7019(11)
H38 H 1.0025 0.4648 0.6988
H39 H 0.9106 0.4828 0.7351
H40 H 0.9761 0.5536 0.7225
C46 C 0.8457(7) 0.6024(6) 0.6332(6)
H41 H 0.7885 0.6212 0.6193
H42 H 0.8723 0.6387 0.6871
C47 C 0.9126(13) 0.6169(17) 0.589(2)
H43 H 0.9247 0.6752 0.5982
H44 H 0.8872 0.5838 0.5347
H45 H 0.9714 0.6015 0.6029
C48 C 0.2382(7) 0.0219(6) 0.4637(6)
H46 H 0.1955 -0.0276 0.4229
C49 C 0.1854(10) 0.0625(7) 0.5325(7)
H47 H 0.2325 0.1022 0.5768
H48 H 0.1415 0.0934 0.5178
C50 C 0.1319(11) 0.0022(9) 0.5554(8)
H49 H 0.1012 0.0312 0.5976
H50 H 0.1750 -0.0276 0.5715
H51 H 0.0840 -0.0367 0.5122
C51 C 0.3257(10) -0.0020(9) 0.4931(9)
H52 H 0.3084 -0.0373 0.5200
H53 H 0.3708 0.0479 0.5294
C52 C 0.3728(10) -0.0502(12) 0.4232(9)
H54 H 0.4315 -0.0627 0.4420
H55 H 0.3865 -0.0162 0.3952
H56 H 0.3296 -0.1015 0.3894
C53 C 0.4576(6) 0.2783(5) 0.0834(5)
C54 C 0.4937(7) 0.3246(5) 0.0420(5)
H57 H 0.4644 0.3213 -0.0056
C55 C 0.5790(7) 0.3749(6) 0.0851(5)
H58 H 0.6180 0.4128 0.0726
C56 C 0.5979(6) 0.3586(5) 0.1540(5)
C57 C 0.6825(6) 0.3934(5) 0.2097(5)
C58 C 0.7066(5) 0.3702(5) 0.2700(5)
C59 C 0.7974(6) 0.3993(5) 0.3215(5)
H59 H 0.8457 0.4419 0.3241
C60 C 0.8016(6) 0.3564(5) 0.3643(5)
H60 H 0.8524 0.3632 0.4028
C61 C 0.7118(5) 0.2965(5) 0.3401(4)
C62 C 0.6942(5) 0.2298(5) 0.3622(4)
C63 C 0.6123(5) 0.1656(4) 0.3317(4)
C64 C 0.6028(6) 0.0896(5) 0.3432(5)
H61 H 0.6461 0.0774 0.3758
C65 C 0.5207(6) 0.0391(5) 0.2987(5)
H62 H 0.4967 -0.0145 0.2945
C66 C 0.4770(5) 0.0825(5) 0.2590(4)
C67 C 0.3940(5) 0.0465(4) 0.2006(4)
C68 C 0.3575(5) 0.0818(5) 0.1514(4)
C69 C 0.2759(5) 0.0388(5) 0.0879(4)
H63 H 0.2359 -0.0121 0.0769
C70 C 0.2701(6) 0.0875(5) 0.0481(5)
H64 H 0.2239 0.0772 0.0052
C71 C 0.3494(6) 0.1589(5) 0.0848(4)
C72 C 0.3747(6) 0.2151(5) 0.0535(4)
C73 C 0.7582(6) 0.4523(6) 0.1946(5)
C74 C 0.7846(6) 0.5344(6) 0.2430(6)
H65 H 0.7578 0.5561 0.2872
C75 C 0.8530(7) 0.5866(6) 0.2258(7)
H66 H 0.8704 0.6434 0.2582
C76 C 0.8937(7) 0.5553(7) 0.1629(7)
C77 C 0.8686(7) 0.4731(7) 0.1151(6)
H67 H 0.8966 0.4520 0.0716
C78 C 0.8012(7) 0.4201(7) 0.1306(6)
H68 H 0.7851 0.3633 0.0983
C79 C 0.7720(6) 0.2215(5) 0.4167(5)
C80 C 0.7608(6) 0.2291(5) 0.4897(5)
H69 H 0.7019 0.2369 0.5047
C81 C 0.8346(8) 0.2253(6) 0.5422(5)
H70 H 0.8242 0.2299 0.5910
C82 C 0.9221(8) 0.2150(6) 0.5222(6)
C83 C 0.9369(7) 0.2063(6) 0.4509(7)
H71 H 0.9965 0.1988 0.4373
C84 C 0.8617(7) 0.2086(6) 0.3966(6)
H72 H 0.8720 0.2015 0.3472
C85 C 0.3494(5) -0.0420(5) 0.1819(4)
C86 C 0.2792(8) -0.0645(6) 0.2158(6)
H73 H 0.2566 -0.0228 0.2531
C87 C 0.2406(8) -0.1454(7) 0.1975(7)
H74 H 0.1933 -0.1582 0.2232
C88 C 0.2701(8) -0.2084(6) 0.1419(7)
C89 C 0.3380(8) -0.1886(7) 0.1053(7)
H75 H 0.3579 -0.2309 0.0664
C90 C 0.3783(7) -0.1065(5) 0.1248(6)
H76 H 0.4258 -0.0937 0.0992
C91 C 0.3196(6) 0.2021(6) -0.0227(5)
C92 C 0.3160(8) 0.1315(6) -0.0890(5)
H77 H 0.3510 0.0914 -0.0869
C93 C 0.2603(10) 0.1193(7) -0.1593(6)
H78 H 0.2585 0.0714 -0.2037
C94 C 0.2095(9) 0.1769(9) -0.1627(7)
C95 C 0.2121(8) 0.2502(8) -0.0994(6)
H79 H 0.1779 0.2903 -0.1025
C96 C 0.2692(7) 0.2609(6) -0.0300(5)
H80 H 0.2734 0.3103 0.0134
Y1 Y 0.52160(5) 0.72038(4) 0.73490(4)
Cl1 Cl 0.0192(2) 0.3797(2) 0.8554(2)
Cl2 Cl -0.0153(2) 0.7873(2) 0.41307(19)
Cl3 Cl 0.7800(3) 1.31294(18) 0.8820(3)
Cl4 Cl 0.8596(3) 0.8381(3) 1.25160(19)
N1 N 0.6562(4) 0.6596(3) 0.7686(3)
N2 N 0.5710(5) 0.5269(4) 0.7616(4)
N3 N 0.4842(4) 0.5643(3) 0.6677(3)
N4 N 0.3817(4) 0.5442(4) 0.5495(3)
N5 N 0.4967(4) 0.6724(3) 0.5916(3)
N6 N 0.5980(4) 0.7865(4) 0.5796(3)
N7 N 0.6669(4) 0.7669(3) 0.6921(3)
N8 N 0.7931(4) 0.7672(4) 0.7900(3)
N9 N 0.4793(4) 0.6981(4) 0.8468(3)
N10 N 0.3460(4) 0.6903(4) 0.7148(3)
N11 N 0.4681(4) 0.8388(4) 0.7188(3)
N12 N 0.6024(4) 0.8441(4) 0.8503(3)
O1 O 0.9461(5) 0.7563(4) 0.9006(4)
O2 O 0.4592(4) 0.3602(3) 0.7447(3)
O3 O 0.2643(6) 0.5167(5) 0.4045(5)
O4 O 0.7407(4) 0.9159(4) 0.5632(4)
C1 C 0.7472(6) 0.7040(5) 0.8018(4)
C2 C 0.7963(6) 0.6657(5) 0.8470(4)
C3 C 0.8882(7) 0.6854(6) 0.8922(5)
C4 C 0.9122(8) 0.6327(7) 0.9268(6)
H1 H 0.9715 0.6459 0.9590
C5 C 0.8468(8) 0.5596(7) 0.9132(6)
H2 H 0.8654 0.5245 0.9359
C6 C 0.7545(7) 0.5360(6) 0.8670(5)
H3 H 0.7122 0.4868 0.8578
C7 C 0.7318(6) 0.5934(5) 0.8361(4)
C8 C 0.6448(6) 0.5918(5) 0.7870(4)
C9 C 0.4981(6) 0.5123(4) 0.7047(5)
C10 C 0.4270(5) 0.4345(5) 0.6680(4)
C11 C 0.4041(6) 0.3642(5) 0.6840(5)
C12 C 0.3295(7) 0.3002(5) 0.6327(6)
H4 H 0.3126 0.2524 0.6418
C13 C 0.2810(7) 0.3058(5) 0.5699(6)
H5 H 0.2316 0.2617 0.5373
C14 C 0.3019(6) 0.3739(5) 0.5528(5)
H6 H 0.2689 0.3764 0.5090
C15 C 0.3759(6) 0.4405(4) 0.6047(5)
C16 C 0.4126(5) 0.5205(4) 0.6063(5)
C17 C 0.4226(5) 0.6127(5) 0.5411(4)
C18 C 0.3950(5) 0.6274(4) 0.4731(4)
C19 C 0.3231(6) 0.5856(6) 0.4069(5)
C20 C 0.3193(6) 0.6187(6) 0.3515(5)
H7 H 0.2733 0.5921 0.3063
C21 C 0.3820(6) 0.6899(6) 0.3618(5)
H8 H 0.3771 0.7104 0.3236
C22 C 0.4528(6) 0.7323(5) 0.4277(5)
H9 H 0.4949 0.7807 0.4344
C23 C 0.4576(5) 0.6995(5) 0.4827(4)
C24 C 0.5228(5) 0.7256(4) 0.5571(4)
C25 C 0.6675(6) 0.8037(5) 0.6399(4)
C26 C 0.7607(5) 0.8601(5) 0.6563(4)
C27 C 0.7990(6) 0.9109(5) 0.6219(5)
C28 C 0.8935(7) 0.9554(5) 0.6534(6)
H10 H 0.9208 0.9910 0.6325
C29 C 0.9467(7) 0.9480(6) 0.7142(6)
H11 H 1.0091 0.9788 0.7334
C30 C 0.9111(6) 0.8968(6) 0.7473(5)
H12 H 0.9480 0.8912 0.7879
C31 C 0.8159(6) 0.8529(4) 0.7170(4)
C32 C 0.7569(5) 0.7944(5) 0.7376(4)
C33 C 1.0454(8) 0.7839(7) 0.9412(7)
H13 H 1.0736 0.7342 0.9328
C34 C 1.0466(10) 0.8285(9) 1.0264(8)
H14 H 1.1129 0.8498 1.0528
H15 H 1.0189 0.7880 1.0449
C35 C 0.9943(12) 0.8995(11) 1.0491(8)
H16 H 1.0003 0.9246 1.1045
H17 H 1.0212 0.9406 1.0317
H18 H 0.9276 0.8790 1.0257
C36 C 1.0980(9) 0.8343(9) 0.9046(9)
H19 H 1.0627 0.8771 0.9034
H20 H 1.1604 0.8627 0.9372
C37 C 1.1134(14) 0.7831(11) 0.8207(8)
H21 H 1.1466 0.8202 0.8017
H22 H 1.1509 0.7420 0.8212
H23 H 1.0522 0.7554 0.7875
C38 C 0.4147(7) 0.3262(6) 0.7934(6)
H24 H 0.3472 0.3003 0.7701
C39 C 0.4219(10) 0.4004(8) 0.8727(7)
H25 H 0.3869 0.4410 0.8656
H26 H 0.3928 0.3801 0.9074
C40 C 0.5287(12) 0.4434(9) 0.9096(8)
H27 H 0.5315 0.4888 0.9588
H28 H 0.5633 0.4033 0.9170
H29 H 0.5570 0.4648 0.8758
C41 C 0.4681(10) 0.2629(7) 0.8009(8)
H30 H 0.5365 0.2846 0.8096
H31 H 0.4546 0.2525 0.8456
C42 C 0.4411(13) 0.1812(8) 0.7290(8)
H32 H 0.4780 0.1420 0.7355
H33 H 0.3740 0.1586 0.7215
H34 H 0.4544 0.1914 0.6847
C43 C 0.1852(8) 0.4824(8) 0.3709(10)
H35 H 0.1944 0.4688 0.3174
C44 C 0.1051(8) 0.5318(7) 0.3741(10)
H36 H 0.1327 0.5912 0.3944
H37 H 0.0640 0.5230 0.4086
C45 C 0.0494(12) 0.5055(12) 0.2981(11)
H38 H -0.0025 0.5352 0.3012
H39 H 0.0894 0.5172 0.2649
H40 H 0.0239 0.4464 0.2775
C46 C 0.1543(7) 0.3976(6) 0.3668(6)
H41 H 0.2115 0.3788 0.3807
H42 H 0.1277 0.3613 0.3129
C47 C 0.0874(13) 0.3831(17) 0.411(2)
H43 H 0.0753 0.3248 0.4018
H44 H 0.1128 0.4162 0.4653
H45 H 0.0286 0.3985 0.3971
C48 C 0.7618(7) 0.9781(6) 0.5363(6)
H46 H 0.8045 1.0276 0.5771
C49 C 0.8146(10) 0.9375(7) 0.4675(7)
H47 H 0.7675 0.8978 0.4232
H48 H 0.8585 0.9066 0.4822
C50 C 0.8681(11) 0.9978(9) 0.4446(8)
H49 H 0.8988 0.9688 0.4024
H50 H 0.8250 1.0276 0.4285
H51 H 0.9160 1.0367 0.4878
C51 C 0.6743(10) 1.0020(9) 0.5069(9)
H52 H 0.6916 1.0373 0.4800
H53 H 0.6292 0.9521 0.4706
C52 C 0.6272(10) 1.0502(12) 0.5768(9)
H54 H 0.5685 1.0627 0.5580
H55 H 0.6135 1.0162 0.6048
H56 H 0.6704 1.1015 0.6106
C53 C 0.5424(6) 0.7217(5) 0.9166(5)
C54 C 0.5063(7) 0.6754(5) 0.9580(5)
H57 H 0.5356 0.6787 1.0056
C55 C 0.4210(7) 0.6251(6) 0.9149(5)
H58 H 0.3820 0.5872 0.9274
C56 C 0.4021(6) 0.6414(5) 0.8460(5)
C57 C 0.3175(6) 0.6066(5) 0.7903(5)
C58 C 0.2934(5) 0.6298(5) 0.7300(5)
C59 C 0.2026(6) 0.6007(5) 0.6785(5)
H59 H 0.1543 0.5581 0.6759
C60 C 0.1984(6) 0.6436(5) 0.6357(5)
H60 H 0.1476 0.6368 0.5972
C61 C 0.2882(5) 0.7035(5) 0.6599(4)
C62 C 0.3058(5) 0.7702(5) 0.6378(4)
C63 C 0.3877(5) 0.8344(4) 0.6683(4)
C64 C 0.3972(6) 0.9104(5) 0.6568(5)
H61 H 0.3539 0.9226 0.6242
C65 C 0.4793(6) 0.9609(5) 0.7013(5)
H62 H 0.5033 1.0145 0.7055
C66 C 0.5230(5) 0.9175(5) 0.7410(4)
C67 C 0.6060(5) 0.9535(4) 0.7994(4)
C68 C 0.6425(5) 0.9182(5) 0.8486(4)
C69 C 0.7241(5) 0.9612(5) 0.9121(4)
H63 H 0.7641 1.0121 0.9231
C70 C 0.7299(6) 0.9125(5) 0.9519(5)
H64 H 0.7761 0.9228 0.9948
C71 C 0.6506(6) 0.8411(5) 0.9152(4)
C72 C 0.6253(6) 0.7849(5) 0.9465(4)
C73 C 0.2418(6) 0.5477(6) 0.8054(5)
C74 C 0.2154(6) 0.4656(6) 0.7570(6)
H65 H 0.2422 0.4439 0.7128
C75 C 0.1470(7) 0.4134(6) 0.7742(7)
H66 H 0.1296 0.3566 0.7418
C76 C 0.1063(7) 0.4447(7) 0.8371(7)
C77 C 0.1314(7) 0.5269(7) 0.8849(6)
H67 H 0.1034 0.5480 0.9284
C78 C 0.1988(7) 0.5799(7) 0.8694(6)
H68 H 0.2149 0.6367 0.9017
C79 C 0.2280(6) 0.7785(5) 0.5833(5)
C80 C 0.2392(6) 0.7709(5) 0.5103(5)
H69 H 0.2981 0.7631 0.4953
C81 C 0.1654(8) 0.7747(6) 0.4578(5)
H70 H 0.1758 0.7701 0.4090
C82 C 0.0779(8) 0.7850(6) 0.4778(6)
C83 C 0.0631(7) 0.7937(6) 0.5491(7)
H71 H 0.0035 0.8012 0.5627
C84 C 0.1383(7) 0.7914(6) 0.6034(6)
H72 H 0.1280 0.7985 0.6528
C85 C 0.6506(5) 1.0420(5) 0.8181(4)
C86 C 0.7208(8) 1.0645(6) 0.7842(6)
H73 H 0.7434 1.0228 0.7469
C87 C 0.7594(8) 1.1454(7) 0.8025(7)
H74 H 0.8067 1.1582 0.7768
C88 C 0.7299(8) 1.2084(6) 0.8581(7)
C89 C 0.6620(8) 1.1886(7) 0.8947(7)
H75 H 0.6421 1.2309 0.9336
C90 C 0.6217(7) 1.1065(5) 0.8752(6)
H76 H 0.5742 1.0937 0.9008
C91 C 0.6804(6) 0.7979(6) 1.0227(5)
C92 C 0.6840(8) 0.8685(6) 1.0890(5)
H77 H 0.6490 0.9086 1.0869
C93 C 0.7397(10) 0.8807(7) 1.1593(6)
H78 H 0.7415 0.9286 1.2037
C94 C 0.7905(9) 0.8231(9) 1.1627(7)
C95 C 0.7879(8) 0.7498(8) 1.0994(6)
H79 H 0.8221 0.7097 1.1025
C96 C 0.7308(7) 0.7391(6) 1.0300(5)
H80 H 0.7266 0.6897 0.9866
Cl5? Cl 0.6787(7) 0.0856(5) 0.1540(5)
Cl6? Cl 0.5339(9) 0.0295(9) 0.0356(8)
Cl7? Cl 0.6573(6) 0.1701(6) 0.0659(5)
C97? C 0.6030(12) 0.1143(11) 0.1022(10)
H81? H 0.5630 0.1471 0.1359
Cl5? Cl 0.3213(7) 0.9144(5) 0.8460(5)
Cl6? Cl 0.4661(9) 0.9705(9) 0.9644(8)
Cl7? Cl 0.3427(6) 0.8299(6) 0.9341(5)
C97? C 0.3970(12) 0.8857(11) 0.8978(10)
H81? H 0.4370 0.8529 0.8641

#END
