./ACLTRY_from_POSCAR.cif_generated_by_CrystalShift
_symmetry_cell_setting triclinic
_symmetry_space_group_name_H-M 'P 1'
loop_
_symmetry_equiv_pos_site_id
_symmetry_equiv_pos_as_xyz
1 x,y,z
_cell_length_a 7.470000
_cell_length_b 25.912000
_cell_length_c 6.247000
_cell_angle_alpha 90.000000
_cell_angle_beta 90.000000
_cell_angle_gamma 90.000000
_cell_volume 1209.185812
loop_
_atom_site_label
_atom_site_type_symbol
_atom_site_fract_x
_atom_site_fract_y
_atom_site_fract_z
H1 H 0.909000 0.799000 -0.139000
H2 H 0.555000 0.748000 0.972000
H3 H 0.580000 0.686000 1.036000
H4 H 0.177000 0.669000 0.955000
H5 H 0.183000 0.613000 0.599000
H6 H -0.140000 0.615000 0.577000
H7 H -0.122000 0.670000 0.748000
H8 H -0.173000 0.624000 1.117000
H9 H 1.055000 0.752000 0.028000
H10 H -0.161000 0.530000 1.258000
H11 H -0.062000 0.436000 1.172000
H12 H 0.075000 0.387000 0.881000
H13 H 1.080000 0.814000 -0.036000
H14 H 0.677000 0.831000 0.045000
H15 H 0.683000 0.887000 0.401000
H16 H 0.143000 0.430000 0.566000
H17 H 0.072000 0.521000 0.499000
H18 H 0.360000 0.885000 0.423000
H19 H 0.928000 0.021000 1.001000
H20 H 0.857000 -0.070000 0.934000
H21 H 0.925000 -0.113000 0.619000
H22 H 1.062000 -0.064000 0.328000
H23 H 1.161000 0.030000 0.242000
H24 H 1.173000 0.124000 0.383000
H25 H 1.122000 0.170000 0.752000
H26 H 1.140000 0.115000 0.923000
H27 H 0.817000 0.113000 0.901000
H28 H 0.823000 0.169000 0.545000
H29 H 0.420000 0.186000 0.464000
H30 H 0.445000 0.248000 0.528000
H31 H 0.591000 0.201000 0.361000
H32 H 0.572000 0.979000 0.501000
H33 H 0.643000 1.070000 0.434000
H34 H 0.091000 0.299000 0.639000
H35 H -0.055000 0.252000 0.472000
H36 H -0.080000 0.314000 0.536000
H37 H 0.323000 0.331000 0.455000
H38 H 0.317000 0.387000 0.099000
H39 H 0.640000 0.385000 0.077000
H40 H 0.378000 0.830000 0.252000
H41 H 0.622000 0.330000 0.248000
H42 H 0.673000 0.376000 0.617000
H43 H 0.661000 0.470000 0.758000
H44 H 0.327000 0.876000 -0.117000
H45 H 0.339000 0.970000 -0.258000
H46 H 0.438000 1.064000 -0.172000
H47 H 0.409000 0.701000 1.139000
H48 H 0.562000 0.564000 0.672000
H49 H 0.575000 1.113000 0.119000
H50 H 0.428000 0.479000 -0.001000
H51 H 0.357000 0.570000 0.066000
H52 H 0.425000 0.613000 0.381000
C53 C 0.022200 0.295300 0.514100
C54 C 0.388500 0.307300 -0.017100
C55 C 0.372000 0.350600 0.144500
C56 C 0.562300 0.369200 0.202000
C57 C 0.636800 0.412900 0.554900
C58 C 0.565300 0.413900 0.350700
C59 C 0.513500 0.466500 0.306300
C60 C 0.553800 0.494900 0.490700
C61 C 0.527000 0.547900 0.506400
C62 C 0.452000 0.571900 0.330400
C63 C 0.070800 0.509500 0.634500
C64 C 0.097900 0.456400 0.646800
C65 C 0.048000 0.428100 0.830400
C66 C -0.027000 0.452100 1.006400
C67 C -0.053800 0.505100 0.990700
C68 C -0.013500 0.533500 0.806300
C69 C -0.065300 0.586100 0.850700
C70 C -0.136800 0.587100 1.054900
C71 C 0.402100 0.543600 0.146800
C72 C -0.062300 0.630800 0.702000
C73 C 0.128000 0.649400 0.644500
C74 C 0.111500 0.692700 0.482900
C75 C 0.429200 0.490500 0.134500
C76 C 0.977800 0.795300 -0.014100
C77 C 0.896000 0.816300 0.186300
C78 C 0.396000 0.683700 0.813700
C79 C 0.477800 0.704700 1.014100
C80 C 0.611500 0.807300 0.517100
C81 C 0.522200 0.204700 0.485900
C82 C 0.604000 0.183700 0.686300
C83 C 0.888500 0.192700 1.017100
C84 C 0.872000 0.149400 0.855500
C85 C 1.062300 0.130800 0.798000
C86 C 1.136800 0.087100 0.445100
C87 C 1.065300 0.086100 0.649300
C88 C 1.013500 0.033500 0.693700
C89 C 1.053800 0.005100 0.509300
C90 C 1.027000 -0.047900 0.493600
C91 C 0.952000 -0.071900 0.669600
C92 C 0.902100 -0.043600 0.853200
C93 C 0.104000 0.316300 0.313700
C94 C 0.570800 0.990500 0.365500
C95 C 0.597900 1.043600 0.353200
C96 C 0.548000 1.071900 0.169600
C97 C 0.473000 1.047900 -0.006400
C98 C 0.446200 0.994900 0.009300
C99 C 0.486500 0.966500 0.193700
C100 C 0.434700 0.913900 0.149300
C101 C 0.363200 0.912900 -0.054900
C102 C 0.628000 0.850600 0.355500
C103 C 0.437700 0.869200 0.298000
C104 C 0.929200 0.009500 0.865500
N105 N 1.126600 0.037700 0.361100
N106 N 0.772100 0.165200 0.669800
N107 N 0.626600 0.462300 0.638900
N108 N 0.727900 0.834800 0.169800
N109 N 0.227900 0.665200 0.830200
N110 N 0.272100 0.334800 0.330200
N111 N 0.373400 0.962300 -0.138900
N112 N -0.126600 0.537700 1.138900
O113 O 0.106300 0.739300 0.566600
O114 O 0.972400 0.816200 0.358300
O115 O 0.091900 0.684900 0.293600
O116 O 0.408100 0.315100 -0.206400
O117 O 0.393700 0.260700 0.066600
O118 O 0.591900 0.815100 0.706400
O119 O 0.527600 0.183800 0.858300
O120 O 0.606300 0.760700 0.433400
O121 O 0.908100 0.184900 1.206400
O122 O 0.893700 0.239300 0.933400
O123 O 0.472400 0.683800 0.641700
O124 O 0.027600 0.316200 0.141700

#END
