
#######################################################################
#
#                 Cambridge Crystallographic Data Centre
#                                CCDC 
#
#######################################################################
#
# If this CIF has been generated from an entry in the Cambridge 
# Structural Database, then it will include bibliographic, chemical, 
# crystal, experimental, refinement or atomic coordinate data resulting 
# from the CCDC's data processing and validation procedures.
#
#######################################################################

data_ACLTRY01
_symmetry_cell_setting           monoclinic
_symmetry_space_group_name_H-M   'P c'
_symmetry_Int_Tables_number      7
_space_group_name_Hall           'P -2yc'
loop_
_symmetry_equiv_pos_site_id
_symmetry_equiv_pos_as_xyz
1 x,y,z
2 x,-y,1/2+z
_cell_length_a                   23.418(10)
_cell_length_b                   6.152(3)
_cell_length_c                   8.384(4)
_cell_angle_alpha                90
_cell_angle_beta                 94.702(9)
_cell_angle_gamma                90
_cell_volume                     1203.8
loop_
_atom_site_label
_atom_site_type_symbol
_atom_site_fract_x
_atom_site_fract_y
_atom_site_fract_z
C1 C 0.1982(3) 0.9048(13) 0.5950(9)
H1 H 0.2271 0.9590 0.6708
C2 C 0.1130(3) 0.8686(11) 0.4543(8)
C3 C 0.0561(3) 0.8911(14) 0.3923(10)
H2 H 0.0319 1.0019 0.4279
C4 C 0.0372(3) 0.7428(15) 0.2764(10)
H3 H -0.0013 0.7524 0.2308
C5 C 0.0721(4) 0.5809(16) 0.2241(10)
H4 H 0.0567 0.4836 0.1436
C6 C 0.1285(3) 0.5549(13) 0.2845(10)
H5 H 0.1518 0.4415 0.2482
C7 C 0.1501(3) 0.7048(11) 0.4028(8)
C8 C 0.2049(3) 0.7314(11) 0.4945(8)
C9 C 0.2576(3) 0.5985(11) 0.4813(9)
H6 H 0.2462 0.4562 0.4337
H7 H 0.2756 0.5708 0.5904
C10 C 0.3027(3) 0.7010(10) 0.3810(9)
H8 H 0.2847 0.7324 0.2712
C11 C 0.3965(3) 0.5915(12) 0.2969(9)
C12 C 0.4437(3) 0.4296(13) 0.3050(9)
H9 H 0.4755 0.4857 0.2479
H10 H 0.4298 0.2934 0.2553
H11 H 0.4570 0.4030 0.4172
C13 C 0.3249(3) 0.9101(12) 0.4563(8)
N1 N 0.1448(4) 0.9869(9) 0.5707(10)
H12 H 0.130(2) 1.090(11) 0.620(8)
N2 N 0.3496(3) 0.5442(9) 0.3690(7)
H13 H 0.342(2) 0.410(7) 0.394(8)
O1 O 0.4022(2) 0.7734(8) 0.2321(6)
O2 O 0.3077(2) 1.0885(8) 0.4115(6)
O3 O 0.3619(2) 0.8792(8) 0.5814(6)
H14 H 0.367(3) 1.003(9) 0.627(9)
C1 C 0.1982(3) 0.0952(13) 1.0950(9)
H1 H 0.2271 0.0410 1.1708
C2 C 0.1130(3) 0.1314(11) 0.9543(8)
C3 C 0.0561(3) 0.1089(14) 0.8923(10)
H2 H 0.0319 -0.0019 0.9279
C4 C 0.0372(3) 0.2572(15) 0.7764(10)
H3 H -0.0013 0.2476 0.7308
C5 C 0.0721(4) 0.4191(16) 0.7241(10)
H4 H 0.0567 0.5164 0.6436
C6 C 0.1285(3) 0.4451(13) 0.7845(10)
H5 H 0.1518 0.5585 0.7482
C7 C 0.1501(3) 0.2952(11) 0.9028(8)
C8 C 0.2049(3) 0.2686(11) 0.9945(8)
C9 C 0.2576(3) 0.4015(11) 0.9813(9)
H6 H 0.2462 0.5438 0.9337
H7 H 0.2756 0.4292 1.0904
C10 C 0.3027(3) 0.2990(10) 0.8810(9)
H8 H 0.2847 0.2676 0.7712
C11 C 0.3965(3) 0.4085(12) 0.7969(9)
C12 C 0.4437(3) 0.5704(13) 0.8050(9)
H9 H 0.4755 0.5143 0.7479
H10 H 0.4298 0.7066 0.7553
H11 H 0.4570 0.5970 0.9172
C13 C 0.3249(3) 0.0899(12) 0.9563(8)
N1 N 0.1448(4) 0.0131(9) 1.0707(10)
H12 H 0.130(2) -0.090(11) 1.120(8)
N2 N 0.3496(3) 0.4558(9) 0.8690(7)
H13 H 0.342(2) 0.590(7) 0.894(8)
O1 O 0.4022(2) 0.2266(8) 0.7321(6)
O2 O 0.3077(2) -0.0885(8) 0.9115(6)
O3 O 0.3619(2) 0.1208(8) 1.0814(6)
H14 H 0.367(3) -0.003(9) 1.127(9)
C14 C 0.7717(3) 0.5976(13) 0.9940(10)
H15 H 0.7426 0.5443 1.0561
C15 C 0.8569(3) 0.6323(12) 0.8937(9)
C16 C 0.9136(4) 0.6138(14) 0.8578(10)
H16 H 0.9378 0.5046 0.9064
C17 C 0.9333(3) 0.7567(14) 0.7508(11)
H17 H 0.9717 0.7448 0.7227
C18 C 0.8977(3) 0.9223(14) 0.6811(9)
H18 H 0.9123 1.0209 0.6074
C19 C 0.8415(3) 0.9416(12) 0.7198(10)
H19 H 0.8178 1.0541 0.6735
C20 C 0.8198(3) 0.7953(11) 0.8270(8)
C21 C 0.7657(3) 0.7653(10) 0.8905(9)
C22 C 0.7123(3) 0.9005(12) 0.8569(9)
H20 H 0.7232 1.0441 0.8158
H21 H 0.6946 0.9249 0.9587
C23 C 0.6670(3) 0.7963(10) 0.7346(8)
H22 H 0.6853 0.7642 0.6334
C24 C 0.5720(3) 0.8974(12) 0.6125(8)
C25 C 0.5255(3) 1.0671(14) 0.5980(10)
H23 H 0.4922 1.0101 0.5324
H24 H 0.5397 1.1978 0.5474
H25 H 0.5142 1.1037 0.7047
C26 C 0.6455(3) 0.5834(11) 0.8031(8)
N3 N 0.8270(4) 0.5145(11) 0.9962(9)
H26 H 0.842(2) 0.412(11) 1.054(9)
N4 N 0.6205(3) 0.9519(9) 0.7002(7)
H27 H 0.625(2) 1.084(7) 0.734(8)
O4 O 0.5655(2) 0.7189(8) 0.5498(6)
O5 O 0.6624(2) 0.4079(8) 0.7672(6)
O6 O 0.6087(2) 0.6211(7) 0.9128(6)
H28 H 0.595(3) 0.496(9) 0.930(9)
C14 C 0.7717(3) 0.4024(13) 0.4940(10)
H15 H 0.7426 0.4557 0.5561
C15 C 0.8569(3) 0.3677(12) 0.3937(9)
C16 C 0.9136(4) 0.3862(14) 0.3578(10)
H16 H 0.9378 0.4954 0.4064
C17 C 0.9333(3) 0.2433(14) 0.2508(11)
H17 H 0.9717 0.2552 0.2227
C18 C 0.8977(3) 0.0777(14) 0.1811(9)
H18 H 0.9123 -0.0209 0.1074
C19 C 0.8415(3) 0.0584(12) 0.2198(10)
H19 H 0.8178 -0.0541 0.1735
C20 C 0.8198(3) 0.2047(11) 0.3270(8)
C21 C 0.7657(3) 0.2347(10) 0.3905(9)
C22 C 0.7123(3) 0.0995(12) 0.3569(9)
H20 H 0.7232 -0.0441 0.3158
H21 H 0.6946 0.0751 0.4587
C23 C 0.6670(3) 0.2037(10) 0.2346(8)
H22 H 0.6853 0.2358 0.1334
C24 C 0.5720(3) 0.1026(12) 0.1125(8)
C25 C 0.5255(3) -0.0671(14) 0.0980(10)
H23 H 0.4922 -0.0101 0.0324
H24 H 0.5397 -0.1978 0.0474
H25 H 0.5142 -0.1037 0.2047
C26 C 0.6455(3) 0.4166(11) 0.3031(8)
N3 N 0.8270(4) 0.4855(11) 0.4962(9)
H26 H 0.842(2) 0.588(11) 0.554(9)
N4 N 0.6205(3) 0.0481(9) 0.2002(7)
H27 H 0.625(2) -0.084(7) 0.234(8)
O4 O 0.5655(2) 0.2811(8) 0.0498(6)
O5 O 0.6624(2) 0.5921(8) 0.2672(6)
O6 O 0.6087(2) 0.3789(7) 0.4128(6)
H28 H 0.595(3) 0.504(9) 0.430(9)

#END
