
#######################################################################
#
#                 Cambridge Crystallographic Data Centre
#                                CCDC 
#
#######################################################################
#
# If this CIF has been generated from an entry in the Cambridge 
# Structural Database, then it will include bibliographic, chemical, 
# crystal, experimental, refinement or atomic coordinate data resulting 
# from the CCDC's data processing and validation procedures.
#
#######################################################################

data_ACNPOL
_symmetry_cell_setting           monoclinic
_symmetry_space_group_name_H-M   'P 21/a'
_symmetry_Int_Tables_number      14
_space_group_name_Hall           '-P 2yab'
loop_
_symmetry_equiv_pos_site_id
_symmetry_equiv_pos_as_xyz
1 x,y,z
2 1/2-x,1/2+y,-z
3 -x,-y,-z
4 1/2+x,1/2-y,z
_cell_length_a                   15.722
_cell_length_b                   4.952
_cell_length_c                   12.970
_cell_angle_alpha                90
_cell_angle_beta                 119.3
_cell_angle_gamma                90
_cell_volume                     880.601
loop_
_atom_site_label
_atom_site_type_symbol
_atom_site_fract_x
_atom_site_fract_y
_atom_site_fract_z
C1 C 0.37220 0.12010 0.40700
C2 C 0.47460 0.39580 0.33160
C3 C 0.39300 0.31730 0.33410
C4 C 0.30370 0.44010 0.25190
C5 C 0.25900 0.12930 0.35670
C6 C 0.22410 0.34640 0.26100
C7 C 0.13280 0.44450 0.18780
C8 C 0.12170 0.64570 0.10280
C9 C 0.20000 0.74140 0.09370
C10 C 0.29530 0.63690 0.16710
C11 C 0.38460 0.71670 0.17140
C12 C 0.47090 0.59550 0.25090
H1 H 0.39400 -0.07400 0.39600
H2 H 0.24500 0.40700 0.47900
H3 H 0.22100 -0.04100 0.31900
H4 H 0.07500 0.34300 0.20000
H5 H 0.06300 0.73600 0.06200
H6 H 0.19700 0.89000 0.04300
H7 H 0.37800 0.86900 0.10900
H8 H 0.53300 0.68400 0.25500
H9 H 0.53400 0.30700 0.39100
H10 H 0.40400 0.16800 0.48700
O1 O 0.23300 0.19960 0.44430
C1 C 0.12780 0.62010 0.59300
C2 C 0.02540 0.89580 0.66840
C3 C 0.10700 0.81730 0.66590
C4 C 0.19630 0.94010 0.74810
C5 C 0.24100 0.62930 0.64330
C6 C 0.27590 0.84640 0.73900
C7 C 0.36720 0.94450 0.81220
C8 C 0.37830 1.14570 0.89720
C9 C 0.30000 1.24140 0.90630
C10 C 0.20470 1.13690 0.83290
C11 C 0.11540 1.21670 0.82860
C12 C 0.02910 1.09550 0.74910
H1 H 0.10600 0.42600 0.60400
H2 H 0.25500 0.90700 0.52100
H3 H 0.27900 0.45900 0.68100
H4 H 0.42500 0.84300 0.80000
H5 H 0.43700 1.23600 0.93800
H6 H 0.30300 1.39000 0.95700
H7 H 0.12200 1.36900 0.89100
H8 H -0.03300 1.18400 0.74500
H9 H -0.03400 0.80700 0.60900
H10 H 0.09600 0.66800 0.51300
O1 O 0.26700 0.69960 0.55570
C1 C 0.62780 0.87990 0.59300
C2 C 0.52540 0.60420 0.66840
C3 C 0.60700 0.68270 0.66590
C4 C 0.69630 0.55990 0.74810
C5 C 0.74100 0.87070 0.64330
C6 C 0.77590 0.65360 0.73900
C7 C 0.86720 0.55550 0.81220
C8 C 0.87830 0.35430 0.89720
C9 C 0.80000 0.25860 0.90630
C10 C 0.70470 0.36310 0.83290
C11 C 0.61540 0.28330 0.82860
C12 C 0.52910 0.40450 0.74910
H1 H 0.60600 1.07400 0.60400
H2 H 0.75500 0.59300 0.52100
H3 H 0.77900 1.04100 0.68100
H4 H 0.92500 0.65700 0.80000
H5 H 0.93700 0.26400 0.93800
H6 H 0.80300 0.11000 0.95700
H7 H 0.62200 0.13100 0.89100
H8 H 0.46700 0.31600 0.74500
H9 H 0.46600 0.69300 0.60900
H10 H 0.59600 0.83200 0.51300
O1 O 0.76700 0.80040 0.55570
C1 C 0.87220 0.37990 0.40700
C2 C 0.97460 0.10420 0.33160
C3 C 0.89300 0.18270 0.33410
C4 C 0.80370 0.05990 0.25190
C5 C 0.75900 0.37070 0.35670
C6 C 0.72410 0.15360 0.26100
C7 C 0.63280 0.05550 0.18780
C8 C 0.62170 -0.14570 0.10280
C9 C 0.70000 -0.24140 0.09370
C10 C 0.79530 -0.13690 0.16710
C11 C 0.88460 -0.21670 0.17140
C12 C 0.97090 -0.09550 0.25090
H1 H 0.89400 0.57400 0.39600
H2 H 0.74500 0.09300 0.47900
H3 H 0.72100 0.54100 0.31900
H4 H 0.57500 0.15700 0.20000
H5 H 0.56300 -0.23600 0.06200
H6 H 0.69700 -0.39000 0.04300
H7 H 0.87800 -0.36900 0.10900
H8 H 1.03300 -0.18400 0.25500
H9 H 1.03400 0.19300 0.39100
H10 H 0.90400 0.33200 0.48700
O1 O 0.73300 0.30040 0.44430

#END
