
#######################################################################
#
#                 Cambridge Crystallographic Data Centre
#                                CCDC 
#
#######################################################################
#
# If this CIF has been generated from an entry in the Cambridge 
# Structural Database, then it will include bibliographic, chemical, 
# crystal, experimental, refinement or atomic coordinate data resulting 
# from the CCDC's data processing and validation procedures.
#
#######################################################################

data_ACNPOL01
_symmetry_cell_setting           monoclinic
_symmetry_space_group_name_H-M   'P 21/c'
_symmetry_Int_Tables_number      14
_space_group_name_Hall           '-P 2ybc'
loop_
_symmetry_equiv_pos_site_id
_symmetry_equiv_pos_as_xyz
1 x,y,z
2 -x,1/2+y,1/2-z
3 -x,-y,-z
4 x,1/2-y,1/2+z
_cell_length_a                   12.9585(11)
_cell_length_b                   4.9326(5)
_cell_length_c                   15.6749(19)
_cell_angle_alpha                90
_cell_angle_beta                 119.398(9)
_cell_angle_gamma                90
_cell_volume                     872.908
loop_
_atom_site_label
_atom_site_type_symbol
_atom_site_fract_x
_atom_site_fract_y
_atom_site_fract_z
O1 O 0.05537(9) 0.7036(2) 0.26686(8)
C1 C 0.24939(11) 0.9417(2) 0.19722(10)
C2 C 0.23950(11) 0.8436(3) 0.27663(9)
C3 C 0.31334(13) 0.9457(3) 0.36760(11)
H1 H 0.3091 0.8845 0.4219
C4 C 0.39686(12) 1.1477(3) 0.37760(12)
H2 H 0.4468 1.2185 0.4395
C5 C 0.40664(13) 1.2417(3) 0.30015(13)
H3 H 0.4628 1.3733 0.3099
C6 C 0.33102(12) 1.1391(3) 0.20415(12)
C7 C 0.32811(15) 1.2141(3) 0.11561(14)
H4 H 0.3802 1.3446 0.1160
C8 C 0.24848(17) 1.0938(4) 0.02979(14)
H5 H 0.2480 1.1448 -0.0275
C9 C 0.16691(15) 0.8957(3) 0.02410(11)
H6 H 0.1140 0.8184 -0.0358
C10 C 0.16669(12) 0.8192(3) 0.10747(10)
C11 C 0.09385(13) 0.6190(3) 0.12812(10)
C12 C 0.14355(11) 0.6304(3) 0.24107(10)
H7 H 0.1759(14) 0.451(3) 0.2702(12)
H8 H 0.1008(14) 0.432(3) 0.1063(12)
H9 H 0.0064(15) 0.666(3) 0.0963(12)
H10 H 0.0164(16) 0.566(4) 0.2570(12)
O1 O 0.94463(9) 0.2036(2) 0.23314(8)
C1 C 0.75061(11) 0.4417(2) 0.30278(10)
C2 C 0.76050(11) 0.3436(3) 0.22337(9)
C3 C 0.68666(13) 0.4457(3) 0.13240(11)
H1 H 0.6909 0.3845 0.0781
C4 C 0.60314(12) 0.6477(3) 0.12240(12)
H2 H 0.5532 0.7185 0.0605
C5 C 0.59336(13) 0.7417(3) 0.19985(13)
H3 H 0.5372 0.8733 0.1901
C6 C 0.66898(12) 0.6391(3) 0.29585(12)
C7 C 0.67189(15) 0.7141(3) 0.38439(14)
H4 H 0.6198 0.8446 0.3840
C8 C 0.75152(17) 0.5938(4) 0.47021(14)
H5 H 0.7520 0.6448 0.5275
C9 C 0.83309(15) 0.3957(3) 0.47590(11)
H6 H 0.8860 0.3184 0.5358
C10 C 0.83331(12) 0.3192(3) 0.39253(10)
C11 C 0.90615(13) 0.1190(3) 0.37188(10)
C12 C 0.85645(11) 0.1304(3) 0.25893(10)
H7 H 0.8241(14) -0.049(3) 0.2298(12)
H8 H 0.8992(14) -0.068(3) 0.3937(12)
H9 H 0.9936(15) 0.166(3) 0.4037(12)
H10 H 0.9836(16) 0.066(4) 0.2430(12)
O1 O 0.94463(9) 0.2964(2) 0.73314(8)
C1 C 0.75061(11) 0.0583(2) 0.80278(10)
C2 C 0.76050(11) 0.1564(3) 0.72337(9)
C3 C 0.68666(13) 0.0543(3) 0.63240(11)
H1 H 0.6909 0.1155 0.5781
C4 C 0.60314(12) -0.1477(3) 0.62240(12)
H2 H 0.5532 -0.2185 0.5605
C5 C 0.59336(13) -0.2417(3) 0.69985(13)
H3 H 0.5372 -0.3733 0.6901
C6 C 0.66898(12) -0.1391(3) 0.79585(12)
C7 C 0.67189(15) -0.2141(3) 0.88439(14)
H4 H 0.6198 -0.3446 0.8840
C8 C 0.75152(17) -0.0938(4) 0.97021(14)
H5 H 0.7520 -0.1448 1.0275
C9 C 0.83309(15) 0.1043(3) 0.97590(11)
H6 H 0.8860 0.1816 1.0358
C10 C 0.83331(12) 0.1808(3) 0.89253(10)
C11 C 0.90615(13) 0.3810(3) 0.87188(10)
C12 C 0.85645(11) 0.3696(3) 0.75893(10)
H7 H 0.8241(14) 0.549(3) 0.7298(12)
H8 H 0.8992(14) 0.568(3) 0.8937(12)
H9 H 0.9936(15) 0.334(3) 0.9037(12)
H10 H 0.9836(16) 0.434(4) 0.7430(12)
O1 O 0.05537(9) 0.7964(2) 0.76686(8)
C1 C 0.24939(11) 0.5583(2) 0.69722(10)
C2 C 0.23950(11) 0.6564(3) 0.77663(9)
C3 C 0.31334(13) 0.5543(3) 0.86760(11)
H1 H 0.3091 0.6155 0.9219
C4 C 0.39686(12) 0.3523(3) 0.87760(12)
H2 H 0.4468 0.2815 0.9395
C5 C 0.40664(13) 0.2583(3) 0.80015(13)
H3 H 0.4628 0.1267 0.8099
C6 C 0.33102(12) 0.3609(3) 0.70415(12)
C7 C 0.32811(15) 0.2859(3) 0.61561(14)
H4 H 0.3802 0.1554 0.6160
C8 C 0.24848(17) 0.4062(4) 0.52979(14)
H5 H 0.2480 0.3552 0.4725
C9 C 0.16691(15) 0.6043(3) 0.52410(11)
H6 H 0.1140 0.6816 0.4642
C10 C 0.16669(12) 0.6808(3) 0.60747(10)
C11 C 0.09385(13) 0.8810(3) 0.62812(10)
C12 C 0.14355(11) 0.8696(3) 0.74107(10)
H7 H 0.1759(14) 1.049(3) 0.7702(12)
H8 H 0.1008(14) 1.068(3) 0.6063(12)
H9 H 0.0064(15) 0.834(3) 0.5963(12)
H10 H 0.0164(16) 0.934(4) 0.7570(12)

#END
