./ACOBEZ_from_POSCAR.cif_generated_by_CrystalShift
_symmetry_cell_setting triclinic
_symmetry_space_group_name_H-M 'P 1'
loop_
_symmetry_equiv_pos_site_id
_symmetry_equiv_pos_as_xyz
1 x,y,z
_cell_length_a 17.149000
_cell_length_b 13.124000
_cell_length_c 13.777000
_cell_angle_alpha 90.000000
_cell_angle_beta 108.798000
_cell_angle_gamma 90.000000
_cell_volume 2935.309774
loop_
_atom_site_label
_atom_site_type_symbol
_atom_site_fract_x
_atom_site_fract_y
_atom_site_fract_z
H1 H 0.345300 0.202300 0.514400
H2 H 0.247000 0.199300 0.482100
H3 H 0.286600 0.415400 0.343200
H4 H 0.333400 0.308200 0.358500
H5 H 0.235100 0.311500 0.326500
H6 H 0.241300 0.377630 0.486300
H7 H 0.429200 0.579700 0.846200
H8 H 0.835440 0.058680 0.765100
H9 H 0.515200 0.625700 0.844600
H10 H 0.445700 0.699700 0.859300
H11 H 0.871300 0.244500 0.749000
H12 H 0.953400 0.191400 0.821700
H13 H 0.920900 0.294600 0.857300
H14 H 0.520800 0.727200 0.692700
H15 H 0.742800 -0.060900 0.702900
H16 H 0.655700 -0.042200 0.719400
H17 H 0.718400 -0.124600 0.787900
H18 H 0.438200 0.747400 0.599100
H19 H 0.452100 0.803000 0.706800
H20 H 0.360390 0.668400 0.691900
H21 H 0.846940 0.530790 1.044200
H22 H 0.452070 0.317500 0.514670
H23 H 0.984640 0.529360 1.142300
H24 H 0.566720 0.407180 0.610930
H25 H 1.061080 0.381300 1.158600
H26 H 0.551840 0.553300 0.697800
H27 H -0.074350 0.729300 0.529300
H28 H 0.728610 0.319730 0.909400
H29 H -0.130700 0.767200 0.418400
H30 H 0.687400 0.452600 0.788700
H31 H 0.779600 0.419300 0.799500
H32 H 0.763400 0.521100 0.854100
H33 H -0.127700 0.648800 0.447300
H34 H 0.636000 0.436800 0.939800
H35 H 0.709800 0.510300 1.001600
H36 H 0.698300 0.401800 1.048400
H37 H -0.011040 0.659000 0.274000
H38 H 0.988580 0.139000 1.046380
H39 H -0.087200 0.602600 0.294100
H40 H 1.094000 0.220600 1.237000
H41 H 1.087200 0.102600 1.205900
H42 H 1.011040 0.159000 1.226000
H43 H -0.094000 0.720600 0.263000
H44 H 1.127700 0.148800 1.052700
H45 H 1.130700 0.267200 1.081600
H46 H 1.074350 0.229300 0.970700
H47 H 0.011420 0.639000 0.453620
H48 H 0.301700 0.901800 0.451600
H49 H 0.290200 1.010300 0.498400
H50 H 0.448160 0.053300 0.802200
H51 H 0.364000 0.936800 0.560200
H52 H 0.433280 -0.092820 0.889070
H53 H 0.236600 1.021100 0.645900
H54 H 0.547930 -0.182500 0.985330
H55 H 0.220400 0.919300 0.700500
H56 H 0.312600 0.952600 0.711300
H57 H 0.639610 0.168400 0.808100
H58 H 0.271390 0.819730 0.590600
H59 H 0.547900 0.303000 0.793200
H60 H 0.561800 0.247400 0.900900
H61 H 0.479200 0.227200 0.807300
H62 H -0.061080 0.881300 0.341400
H63 H 0.554300 0.199700 0.640700
H64 H 0.484800 0.125700 0.655400
H65 H 0.570800 0.079700 0.653800
H66 H 0.015360 1.029360 0.357700
H67 H 0.758700 -0.122370 1.013700
H68 H 0.153060 1.030790 0.455800
H69 H 0.764900 -0.188500 1.173500
H70 H 0.666600 -0.191800 1.141500
H71 H 0.713400 -0.084600 1.156800
H72 H 0.281600 0.375400 0.712100
H73 H 0.753000 -0.300700 1.017900
H74 H 0.699700 -0.261700 0.906200
H75 H 0.654700 -0.297700 0.985600
H76 H 0.344300 0.457800 0.780600
H77 H 0.257200 0.439100 0.797100
H78 H 0.079100 0.794600 0.642700
H79 H 0.046600 0.691400 0.678300
H80 H 0.128700 0.744500 0.751000
H81 H 0.164560 0.558680 0.734900
H82 H 0.345300 1.297700 0.014400
H83 H 0.835440 0.441320 0.265100
H84 H 0.300300 1.261700 0.093800
H85 H 0.247000 1.300700 -0.017900
H86 H 0.871300 0.255500 0.249000
H87 H 0.953400 0.308600 0.321700
H88 H 0.920900 0.205400 0.357300
H89 H 0.286600 1.084600 -0.156800
H90 H 0.742800 0.560900 0.202900
H91 H 0.655700 0.542200 0.219400
H92 H 0.718400 0.624600 0.287900
H93 H 0.333400 1.191800 -0.141500
H94 H 0.235100 1.188500 -0.173500
H95 H 0.241300 1.122370 -0.013700
H96 H 0.846940 -0.030790 0.544200
H97 H 0.429200 0.920300 0.346200
H98 H 0.984640 -0.029360 0.642300
H99 H 0.515200 0.874300 0.344600
H100 H 1.061080 0.118700 0.658600
H101 H 0.445700 0.800300 0.359300
H102 H 0.520800 0.772800 0.192700
H103 H 0.728610 0.180270 0.409400
H104 H 0.438200 0.752600 0.099100
H105 H 0.687400 0.047400 0.288700
H106 H 0.779600 0.080700 0.299500
H107 H 0.763400 -0.021100 0.354100
H108 H 0.452100 0.697000 0.206800
H109 H 0.636000 0.063200 0.439800
H110 H 0.709800 -0.010300 0.501600
H111 H 0.698300 0.098200 0.548400
H112 H 0.360390 0.831600 0.191900
H113 H 0.988580 0.361000 0.546380
H114 H 0.452070 1.182500 0.014670
H115 H 1.094000 0.279400 0.737000
H116 H 1.087200 0.397400 0.705900
H117 H 1.011040 0.341000 0.726000
H118 H 0.566720 1.092820 0.110930
H119 H 1.127700 0.351200 0.552700
H120 H 1.130700 0.232800 0.581600
H121 H 1.074350 0.270700 0.470700
H122 H 0.551840 0.946700 0.197800
H123 H -0.074350 0.770700 0.029300
H124 H -0.130700 0.732800 -0.081600
H125 H 0.448160 0.446700 0.302200
H126 H -0.127700 0.851200 -0.052700
H127 H 0.433280 0.592820 0.389070
H128 H -0.011040 0.841000 -0.226000
H129 H 0.547930 0.682500 0.485330
H130 H -0.087200 0.897400 -0.205900
H131 H -0.094000 0.779400 -0.237000
H132 H 0.639610 0.331600 0.308100
H133 H 0.011420 0.861000 -0.046380
H134 H 0.547900 0.197000 0.293200
H135 H 0.561800 0.252600 0.400900
H136 H 0.479200 0.272800 0.307300
H137 H 0.301700 0.598200 -0.048400
H138 H 0.554300 0.300300 0.140700
H139 H 0.484800 0.374300 0.155400
H140 H 0.570800 0.420300 0.153800
H141 H 0.290200 0.489700 -0.001600
H142 H 0.758700 0.622370 0.513700
H143 H 0.364000 0.563200 0.060200
H144 H 0.764900 0.688500 0.673500
H145 H 0.666600 0.691800 0.641500
H146 H 0.713400 0.584600 0.656800
H147 H 0.236600 0.478900 0.145900
H148 H 0.753000 0.800700 0.517900
H149 H 0.699700 0.761700 0.406200
H150 H 0.654700 0.797700 0.485600
H151 H 0.220400 0.580700 0.200500
H152 H 0.312600 0.547400 0.211300
H153 H 0.271390 0.680270 0.090600
H154 H -0.061080 0.618700 -0.158600
H155 H 0.015360 0.470640 -0.142300
H156 H 0.153060 0.469210 -0.044200
H157 H 0.281600 1.124600 0.212100
H158 H 0.164560 0.941320 0.234900
H159 H 0.344300 1.042200 0.280600
H160 H 0.257200 1.060900 0.297100
H161 H 0.128700 0.755500 0.251000
H162 H 0.046600 0.808600 0.178300
H163 H 0.079100 0.705400 0.142700
H164 H 0.300300 0.238300 0.593800
C165 C 0.095780 0.769740 0.179700
C166 C 0.247800 0.976960 0.167590
C167 C 0.184650 0.918590 0.181920
C168 C 0.114590 0.706970 -0.009520
C169 C 0.161420 0.617610 0.000750
C170 C 0.122370 0.530470 -0.050100
C171 C 0.146250 0.830740 0.129270
C172 C 0.040630 0.531040 -0.108500
C173 C 0.296630 0.236600 0.521400
C174 C -0.004550 0.619150 -0.118120
C175 C 0.286310 0.345100 0.366900
C176 C 0.030600 0.709110 -0.069880
C177 C 0.250650 0.609880 0.069100
C178 C 0.853750 0.169260 0.870730
C179 C 0.255500 0.548700 0.165300
C180 C 0.292380 0.345160 0.480500
C181 C 0.815350 0.081410 0.818080
C182 C 0.703370 0.763400 0.478600
C183 C 0.306720 0.560800 0.014900
C184 C 0.713690 0.654900 0.633100
C185 C 0.707620 0.654840 0.519500
C186 C 0.544200 0.362100 0.174800
C187 C -0.023120 0.803440 -0.084840
C188 C 0.538500 0.259800 0.326300
C189 C -0.056890 0.833000 -0.198800
C190 C 0.579840 0.348500 0.291100
C191 C 0.634430 0.591730 0.457050
C192 C 0.554930 0.622890 0.449910
C193 C -0.095500 0.788200 -0.043700
C194 C 0.486740 0.569710 0.393120
C195 C 0.495800 0.482700 0.341900
C196 C 0.573580 0.446370 0.347300
C197 C 0.357550 1.002800 0.094900
C198 C 0.426420 0.946370 0.152700
C199 C 0.504200 0.982700 0.158100
C200 C 0.642450 0.502800 0.405100
C201 C 0.513260 1.069710 0.106880
C202 C 1.095500 0.288200 0.543700
C203 C 0.445070 1.122890 0.050090
C204 C 1.056890 0.333000 0.698800
C205 C 0.365570 1.091730 0.042950
C206 C 0.420160 0.848500 0.208900
C207 C 1.023120 0.303440 0.584840
C208 C 0.461500 0.759800 0.173700
C209 C 0.693280 0.060800 0.485100
C210 C 0.744500 0.048700 0.334700
C211 C 0.749350 0.109880 0.430900
C212 C 0.455800 0.862100 0.325200
C213 C 0.969400 0.209110 0.569880
C214 C 1.004550 0.119150 0.618120
C215 C 0.959370 0.031040 0.608500
C216 C 0.292380 1.154840 -0.019500
C217 C 0.877630 0.030470 0.550100
C218 C 0.286310 1.154900 -0.133100
C219 C 0.838580 0.117610 0.499250
C220 C 0.885410 0.206970 0.509520
C221 C 0.713900 0.558330 0.253750
C222 C 0.296630 1.263400 0.021400
C223 C 0.904220 0.269740 0.320300
C224 C 0.752200 0.476960 0.332410
C225 C 0.815350 0.418590 0.318080
C226 C 0.752200 0.023040 0.832410
C227 C 0.904220 0.230260 0.820300
C228 C 0.455800 0.637900 0.825200
C229 C 0.713900 -0.058330 0.753750
C230 C 0.885410 0.293030 1.009520
C231 C 0.146250 0.669260 0.629270
C232 C 0.184650 0.581410 0.681920
C233 C 0.853750 0.330740 0.370730
C234 C 0.247800 0.523040 0.667590
C235 C 0.095780 0.730260 0.679700
C236 C 0.838580 0.382390 0.999250
C237 C 0.461500 0.740200 0.673700
C238 C 0.877630 0.469530 1.050100
C239 C 0.286100 0.441670 0.746250
C240 C 0.420160 0.651500 0.708900
C241 C 0.365570 0.408270 0.542950
C242 C 0.703370 -0.263400 0.978600
C243 C 0.114590 0.793030 0.490480
C244 C 0.161420 0.882390 0.500750
C245 C 0.122370 0.969530 0.449900
C246 C 0.713690 -0.154900 1.133100
C247 C 0.040630 0.968960 0.391500
C248 C 0.707620 -0.154840 1.019500
C249 C -0.004550 0.880850 0.381880
C250 C 0.544200 0.137900 0.674800
C251 C 0.030600 0.790890 0.430120
C252 C 0.250650 0.890120 0.569100
C253 C 0.538500 0.240200 0.826300
C254 C 0.255500 0.951300 0.665300
C255 C 0.579840 0.151500 0.791100
C256 C 0.634430 -0.091730 0.957050
C257 C 0.554930 -0.122890 0.949910
C258 C 0.306720 0.939200 0.514900
C259 C 0.486740 -0.069710 0.893120
C260 C 0.495800 0.017300 0.841900
C261 C 0.573580 0.053630 0.847300
C262 C -0.023120 0.696560 0.415160
C263 C 0.642450 -0.002800 0.905100
C264 C -0.056890 0.667000 0.301200
C265 C 1.095500 0.211800 1.043700
C266 C 1.056890 0.167000 1.198800
C267 C 1.023120 0.196560 1.084840
C268 C -0.095500 0.711800 0.456300
C269 C 0.693280 0.439200 0.985100
C270 C 0.744500 0.451300 0.834700
C271 C 0.749350 0.390120 0.930900
C272 C 0.357550 0.497200 0.594900
C273 C 0.426420 0.553630 0.652700
C274 C 0.504200 0.517300 0.658100
C275 C 0.969400 0.290890 1.069880
C276 C 0.513260 0.430290 0.606880
C277 C 1.004550 0.380850 1.118120
C278 C 0.445070 0.377110 0.550090
C279 C 0.959370 0.468960 1.108500
C280 C 0.286100 1.058330 0.246250
N281 N 0.723500 0.035370 0.911560
N282 N 0.153460 0.799840 0.040740
N283 N 0.846540 0.299840 0.459260
N284 N 0.723500 0.464630 0.411560
N285 N 0.276500 0.535370 0.588440
N286 N 0.153460 0.700160 0.540740
N287 N 0.276500 0.964630 0.088440
N288 N 0.846540 0.200160 0.959260
Cl289 Cl 0.287210 0.695420 0.401690
Cl290 Cl 0.123650 0.980470 -0.138050
Cl291 Cl 0.287210 0.804580 -0.098310
Cl292 Cl 0.712790 0.304580 0.598310
Cl293 Cl 0.876350 0.480470 0.638050
Cl294 Cl 0.123650 0.519530 0.361950
Cl295 Cl 0.876350 0.019530 1.138050
Cl296 Cl 0.712790 0.195420 1.098310
Ga297 Ga 0.212043 0.614043 0.474525
Ga298 Ga 0.212043 0.885957 -0.025475
Ga299 Ga 0.787957 0.385957 0.525475
Ga300 Ga 0.787957 0.114043 1.025475

#END
