./ACOBEZ01_from_POSCAR.cif_generated_by_CrystalShift
_symmetry_cell_setting triclinic
_symmetry_space_group_name_H-M 'P 1'
loop_
_symmetry_equiv_pos_site_id
_symmetry_equiv_pos_as_xyz
1 x,y,z
_cell_length_a 17.070900
_cell_length_b 13.094800
_cell_length_c 13.735600
_cell_angle_alpha 90.000000
_cell_angle_beta 108.432000
_cell_angle_gamma 90.000000
_cell_volume 2912.940594
loop_
_atom_site_label
_atom_site_type_symbol
_atom_site_fract_x
_atom_site_fract_y
_atom_site_fract_z
H1 H 0.262700 0.315100 0.676700
H2 H 0.212600 0.420400 0.658100
H3 H 0.153800 0.202800 0.492700
H4 H 0.252300 0.199900 0.522900
H5 H 0.197800 0.236300 0.410700
H6 H 0.258300 0.378200 0.515600
H7 H -0.017100 0.632000 0.153300
H8 H 0.339300 0.942200 0.766700
H9 H 0.065900 0.577600 0.149500
H10 H 0.056000 0.698800 0.136200
H11 H 0.422300 0.704000 0.856300
H12 H 0.458200 0.807600 0.825400
H13 H 0.376200 0.757800 0.748800
H14 H -0.017100 0.731000 0.310100
H15 H 0.217700 1.124100 0.789200
H16 H 0.158000 1.040500 0.718100
H17 H 0.246100 1.063600 0.704800
H18 H 0.051900 0.805100 0.293000
H19 H 0.067700 0.748900 0.400900
H20 H 0.141000 0.667700 0.302900
H21 H 0.346800 0.467400 1.046300
H22 H -0.051200 0.554200 0.298200
H23 H 0.484700 0.467400 1.142800
H24 H -0.068600 0.409300 0.387000
H25 H 0.562900 0.615000 1.157700
H26 H 0.046400 0.320000 0.486700
H27 H 0.263900 1.021300 0.354300
H28 H 0.491700 0.859200 1.046200
H29 H 0.187700 0.952200 0.290200
H30 H 0.578700 0.763900 0.972200
H31 H 0.635900 0.732800 1.085000
H32 H 0.629800 0.849700 1.049400
H33 H 0.280200 0.918400 0.300800
H34 H 0.511900 0.840300 1.225600
H35 H 0.590200 0.894400 1.207300
H36 H 0.594300 0.776200 1.238100
H37 H 0.136300 0.939100 0.442000
H38 H 0.229100 0.679100 0.911700
H39 H 0.210600 1.011700 0.504300
H40 H 0.198300 0.597200 1.050200
H41 H 0.210600 0.488300 1.004300
H42 H 0.136300 0.560900 0.942000
H43 H 0.198300 0.902800 0.550200
H44 H 0.280200 0.581600 0.800800
H45 H 0.187700 0.547800 0.790200
H46 H 0.263900 0.478700 0.854300
H47 H 0.229100 0.820900 0.411700
H48 H 0.594300 0.723800 0.738100
H49 H 0.590200 0.605600 0.707300
H50 H 0.046400 1.180000 0.986700
H51 H 0.511900 0.659700 0.725600
H52 H -0.068600 1.090700 0.887000
H53 H 0.629800 0.650300 0.549400
H54 H -0.051200 0.945800 0.798200
H55 H 0.635900 0.767200 0.585000
H56 H 0.578700 0.736100 0.472200
H57 H 0.141000 0.832300 0.802900
H58 H 0.491700 0.640800 0.546200
H59 H 0.067700 0.751100 0.900900
H60 H 0.051900 0.694900 0.793000
H61 H -0.017100 0.769000 0.810100
H62 H 0.562900 0.885000 0.657700
H63 H 0.056000 0.801200 0.636200
H64 H 0.065900 0.922400 0.649500
H65 H -0.017100 0.868000 0.653300
H66 H 0.484700 1.032600 0.642800
H67 H 0.258300 1.121800 1.015600
H68 H 0.346800 1.032600 0.546300
H69 H 0.197800 1.263700 0.910700
H70 H 0.252300 1.300100 1.022900
H71 H 0.153800 1.297200 0.992700
H72 H 0.246100 0.436400 0.204800
H73 H 0.212600 1.079600 1.158100
H74 H 0.164000 1.185800 1.144500
H75 H 0.262700 1.184900 1.176700
H76 H 0.158000 0.459500 0.218100
H77 H 0.217700 0.375900 0.289200
H78 H 0.376200 0.742200 0.248800
H79 H 0.458200 0.692400 0.325400
H80 H 0.422300 0.796000 0.356300
H81 H 0.339300 0.557800 0.266700
H82 H 0.737300 -0.184900 -0.176700
H83 H 0.660700 0.442200 0.733300
H84 H 0.836000 -0.185800 -0.144500
H85 H 0.787400 -0.079600 -0.158100
H86 H 0.577700 0.204000 0.643700
H87 H 0.541800 0.307600 0.674600
H88 H 0.623800 0.257800 0.751200
H89 H 0.846200 -0.297200 0.007300
H90 H 0.782300 0.624100 0.710800
H91 H 0.842000 0.540500 0.781900
H92 H 0.753900 0.563600 0.795200
H93 H 0.747700 -0.300100 -0.022900
H94 H 0.802200 -0.263700 0.089300
H95 H 0.741700 -0.121800 -0.015600
H96 H 0.653200 -0.032600 0.453700
H97 H 1.017100 0.132000 0.346700
H98 H 0.515300 -0.032600 0.357200
H99 H 0.934100 0.077600 0.350500
H100 H 0.437100 0.115000 0.342300
H101 H 0.944000 0.198800 0.363800
H102 H 1.017100 0.231000 0.189900
H103 H 0.508300 0.359200 0.453800
H104 H 0.948100 0.305100 0.207000
H105 H 0.421300 0.263900 0.527800
H106 H 0.364100 0.232800 0.415000
H107 H 0.370200 0.349700 0.450600
H108 H 0.932300 0.248900 0.099100
H109 H 0.488100 0.340300 0.274400
H110 H 0.409800 0.394400 0.292700
H111 H 0.405700 0.276200 0.261900
H112 H 0.859000 0.167700 0.197100
H113 H 0.770900 0.179100 0.588300
H114 H 1.051200 0.054200 0.201800
H115 H 0.801700 0.097200 0.449800
H116 H 0.789400 -0.011700 0.495700
H117 H 0.863700 0.060900 0.558000
H118 H 1.068600 -0.090700 0.113000
H119 H 0.719800 0.081600 0.699200
H120 H 0.812300 0.047800 0.709800
H121 H 0.736100 -0.021300 0.645700
H122 H 0.953600 -0.180000 0.013300
H123 H 0.736100 0.521300 0.145700
H124 H 0.812300 0.452200 0.209800
H125 H 0.953600 0.680000 0.513300
H126 H 0.719800 0.418400 0.199200
H127 H 1.068600 0.590700 0.613000
H128 H 0.863700 0.439100 0.058000
H129 H 1.051200 0.445800 0.701800
H130 H 0.789400 0.511700 -0.004300
H131 H 0.801700 0.402800 -0.050200
H132 H 0.859000 0.332300 0.697100
H133 H 0.770900 0.320900 0.088300
H134 H 0.932300 0.251100 0.599100
H135 H 0.948100 0.194900 0.707000
H136 H 1.017100 0.269000 0.689900
H137 H 0.405700 0.223800 -0.238100
H138 H 0.944000 0.301200 0.863800
H139 H 0.934100 0.422400 0.850500
H140 H 1.017100 0.368000 0.846700
H141 H 0.409800 0.105600 -0.207300
H142 H 0.741700 0.621800 0.484400
H143 H 0.488100 0.159700 -0.225600
H144 H 0.802200 0.763700 0.589300
H145 H 0.747700 0.800100 0.477100
H146 H 0.846200 0.797200 0.507300
H147 H 0.370200 0.150300 -0.049400
H148 H 0.787400 0.579600 0.341900
H149 H 0.836000 0.685800 0.355500
H150 H 0.737300 0.684900 0.323300
H151 H 0.364100 0.267200 -0.085000
H152 H 0.421300 0.236100 0.027800
H153 H 0.508300 0.140800 -0.046200
H154 H 0.437100 0.385000 -0.157700
H155 H 0.515300 0.532600 -0.142800
H156 H 0.653200 0.532600 -0.046300
H157 H 0.753900 -0.063600 0.295200
H158 H 0.660700 0.057800 0.233300
H159 H 0.842000 -0.040500 0.281900
H160 H 0.782300 -0.124100 0.210800
H161 H 0.577700 0.296000 0.143700
H162 H 0.541800 0.192400 0.174600
H163 H 0.623800 0.242200 0.251200
H164 H 0.164000 0.314200 0.644500
C165 C 0.592300 0.230300 0.179000
C166 C 0.745500 0.023600 0.167200
C167 C 0.681800 0.081400 0.181000
C168 C 0.612900 0.294600 -0.010300
C169 C 0.661000 0.384300 -0.000700
C170 C 0.622100 0.471500 -0.051600
C171 C 0.643700 0.169600 0.129200
C172 C 0.540200 0.471900 -0.109100
C173 C 0.212000 0.349400 0.635600
C174 C 0.493900 0.383700 -0.118000
C175 C 0.202200 0.236500 0.483600
C176 C 0.528200 0.292400 -0.070000
C177 C 0.474100 0.198700 -0.084800
C178 C 0.356300 0.830400 0.870800
C179 C 0.400800 0.214500 -0.044200
C180 C 0.206700 0.346800 0.521900
C181 C 0.318200 0.918600 0.819000
C182 C 0.788000 0.650600 0.364400
C183 C 0.441400 0.169300 -0.199400
C184 C 0.797800 0.763500 0.516400
C185 C 0.793300 0.653200 0.478100
C186 C 0.957000 0.361000 0.828900
C187 C 0.750300 0.391600 0.067600
C188 C 0.957600 0.257600 0.673600
C189 C 0.806300 0.440700 0.012800
C190 C 0.919100 0.347600 0.711900
C191 C 0.925700 0.445600 0.654400
C192 C 1.004000 0.481600 0.660600
C193 C 0.755100 0.451200 0.164100
C194 C 1.014600 0.568000 0.608400
C195 C 0.946200 0.620900 0.549600
C196 C 0.866300 0.590000 0.542100
C197 C 0.857300 -0.001600 0.095400
C198 C 0.866300 -0.090000 0.042100
C199 C 0.946200 -0.120900 0.049600
C200 C 0.857300 0.501600 0.595400
C201 C 1.014600 -0.068000 0.108400
C202 C 0.755100 0.048800 0.664100
C203 C 1.004000 0.018400 0.160600
C204 C 0.806300 0.059300 0.512800
C205 C 0.925700 0.054400 0.154400
C206 C 0.919100 0.152400 0.211900
C207 C 0.750300 0.108400 0.567600
C208 C 0.957600 0.242400 0.173600
C209 C 0.441400 0.330700 0.300600
C210 C 0.400800 0.285500 0.455800
C211 C 0.474100 0.301300 0.415200
C212 C 0.957000 0.139000 0.328900
C213 C 0.528200 0.207600 0.430000
C214 C 0.493900 0.116300 0.382000
C215 C 0.540200 0.028100 0.390900
C216 C 0.793300 -0.153200 -0.021900
C217 C 0.622100 0.028500 0.448400
C218 C 0.797800 -0.263500 0.016400
C219 C 0.661000 0.115700 0.499300
C220 C 0.612900 0.205400 0.489700
C221 C 0.784400 0.558400 0.745700
C222 C 0.788000 -0.150600 -0.135600
C223 C 0.592300 0.269700 0.679000
C224 C 0.745500 0.476400 0.667200
C225 C 0.681800 0.418600 0.681000
C226 C 0.254500 0.976400 0.832800
C227 C 0.407700 0.769700 0.821000
C228 C 0.043000 0.639000 0.171100
C229 C 0.215600 1.058400 0.754300
C230 C 0.387100 0.705400 1.010300
C231 C 0.356300 0.669600 0.370800
C232 C 0.318200 0.581400 0.319000
C233 C 0.643700 0.330400 0.629200
C234 C 0.254500 0.523600 0.332800
C235 C 0.407700 0.730300 0.321000
C236 C 0.339000 0.615700 1.000700
C237 C 0.042400 0.742400 0.326400
C238 C 0.377900 0.528500 1.051600
C239 C 0.215600 0.441600 0.254300
C240 C 0.080900 0.652400 0.288100
C241 C 0.074300 0.554400 0.345600
C242 C 0.212000 1.150600 1.135600
C243 C 0.387100 0.794600 0.510300
C244 C 0.339000 0.884300 0.500700
C245 C 0.377900 0.971500 0.551600
C246 C 0.202200 1.263500 0.983600
C247 C 0.459800 0.971900 0.609100
C248 C 0.206700 1.153200 1.021900
C249 C 0.506100 0.883700 0.618000
C250 C 0.043000 0.861000 0.671100
C251 C 0.471800 0.792400 0.570000
C252 C 0.525900 0.698700 0.584800
C253 C 0.042400 0.757600 0.826400
C254 C 0.599200 0.714500 0.544200
C255 C 0.080900 0.847600 0.788100
C256 C 0.074300 0.945600 0.845600
C257 C -0.004000 0.981600 0.839400
C258 C 0.558600 0.669300 0.699400
C259 C -0.014600 1.068000 0.891600
C260 C 0.053800 1.120900 0.950400
C261 C 0.133700 1.090000 0.957900
C262 C 0.249700 0.891600 0.432400
C263 C 0.142700 1.001600 0.904600
C264 C 0.193700 0.940700 0.487200
C265 C 0.244900 0.548800 0.835900
C266 C 0.193700 0.559300 0.987200
C267 C 0.249700 0.608400 0.932400
C268 C 0.244900 0.951200 0.335900
C269 C 0.558600 0.830700 1.199400
C270 C 0.599200 0.785500 1.044200
C271 C 0.525900 0.801300 1.084800
C272 C 0.142700 0.498400 0.404600
C273 C 0.133700 0.410000 0.457900
C274 C 0.053800 0.379100 0.450400
C275 C 0.471800 0.707600 1.070000
C276 C -0.014600 0.432000 0.391600
C277 C 0.506100 0.616300 1.118000
C278 C -0.004000 0.518400 0.339400
C279 C 0.459800 0.528100 1.109100
C280 C 0.784400 -0.058400 0.245700
N281 N 0.224800 0.963900 0.912400
N282 N 0.652200 0.201200 0.040500
N283 N 0.652200 0.298800 0.540500
N284 N 0.775200 0.463900 0.587600
N285 N 0.224800 0.536100 0.412400
N286 N 0.347800 0.701200 0.459500
N287 N 0.775200 0.036100 0.087600
N288 N 0.347800 0.798800 0.959500
Cl289 Cl 0.380240 0.516780 0.638550
Cl290 Cl 0.787090 0.200140 -0.104110
Cl291 Cl 0.619760 0.016780 -0.138550
Cl292 Cl 0.619760 0.483220 0.361450
Cl293 Cl 0.787090 0.299860 0.395890
Cl294 Cl 0.212910 0.700140 0.604110
Cl295 Cl 0.212910 0.799860 1.104110
Cl296 Cl 0.380240 0.983220 1.138550
Ga297 Ga 0.289180 0.614730 0.526450
Ga298 Ga 0.710820 0.114730 -0.026450
Ga299 Ga 0.710820 0.385270 0.473550
Ga300 Ga 0.289180 0.885270 1.026450

#END
