
#######################################################################
#
#                 Cambridge Crystallographic Data Centre
#                                CCDC 
#
#######################################################################
#
# If this CIF has been generated from an entry in the Cambridge 
# Structural Database, then it will include bibliographic, chemical, 
# crystal, experimental, refinement or atomic coordinate data resulting 
# from the CCDC's data processing and validation procedures.
#
#######################################################################

data_ACOGIJ01
_symmetry_cell_setting           monoclinic
_symmetry_space_group_name_H-M   'P 21/c'
_symmetry_Int_Tables_number      14
_space_group_name_Hall           '-P 2ybc'
loop_
_symmetry_equiv_pos_site_id
_symmetry_equiv_pos_as_xyz
1 x,y,z
2 -x,1/2+y,1/2-z
3 -x,-y,-z
4 x,1/2-y,1/2+z
_cell_length_a                   8.8379(7)
_cell_length_b                   19.2033(15)
_cell_length_c                   13.0939(8)
_cell_angle_alpha                90
_cell_angle_beta                 123.169(4)
_cell_angle_gamma                90
_cell_volume                     1860.16
loop_
_atom_site_label
_atom_site_type_symbol
_atom_site_fract_x
_atom_site_fract_y
_atom_site_fract_z
Zn1 Zn 0.05850(4) 0.046134(17) 0.32382(3)
O1 O 0.2317(3) 0.12896(10) 0.39342(17)
O2 O 0.1755(3) 0.17424(12) 0.5256(2)
O3 O 0.1915(3) -0.01928(11) 0.49470(19)
O4 O 0.2694(3) -0.02835(10) 0.36381(18)
O5 O -0.1009(3) 0.09338(11) 0.37348(19)
H1 H -0.134(5) 0.0671(19) 0.411(3)
H2 H -0.018(5) 0.1210(19) 0.428(3)
N1 N -0.1482(3) -0.03032(12) 0.2167(2)
N2 N -0.0281(3) 0.07456(12) 0.1438(2)
C1 C -0.2071(4) -0.08160(17) 0.2537(3)
H3 H -0.1571 -0.0867 0.3369
C2 C -0.3401(5) -0.12801(18) 0.1739(3)
H4 H -0.3762 -0.1638 0.2038
C3 C -0.4173(4) -0.12093(17) 0.0521(3)
H5 H -0.5077 -0.1515 -0.0019
C4 C -0.3599(4) -0.06707(16) 0.0078(3)
C5 C -0.4332(5) -0.05478(17) -0.1187(3)
H6 H -0.5254 -0.0833 -0.1769
C6 C -0.3714(5) -0.00282(17) -0.1551(3)
H7 H -0.4205 0.0035 -0.2380
C7 C -0.2314(4) 0.04298(15) -0.0689(3)
C8 C -0.1640(5) 0.09905(17) -0.1009(3)
H8 H -0.2083 0.1077 -0.1825
C9 C -0.0339(5) 0.14084(18) -0.0127(3)
H9 H 0.0108 0.1783 -0.0333
C10 C 0.0317(4) 0.12680(16) 0.1093(3)
H10 H 0.1216 0.1554 0.1691
C11 C -0.1585(4) 0.03305(14) 0.0561(2)
C12 C -0.2231(4) -0.02322(15) 0.0952(2)
C13 C 0.2783(4) 0.16150(14) 0.4903(3)
C14 C 0.4694(4) 0.18865(13) 0.5667(2)
C15 C 0.6104(4) 0.16766(14) 0.5545(2)
C16 C 0.7784(4) 0.20028(17) 0.6278(3)
H11 H 0.8720 0.1884 0.6183
C17 C 0.8091(5) 0.24956(17) 0.7138(3)
H12 H 0.9221 0.2704 0.7615
C18 C 0.6734(5) 0.26762(16) 0.7286(3)
H13 H 0.6944 0.2998 0.7881
C19 C 0.5055(4) 0.23829(14) 0.6556(3)
H14 H 0.4131 0.2517 0.6654
C20 C 0.5994(4) 0.11012(15) 0.4717(2)
H15 H 0.4753 0.0942 0.4207
H16 H 0.6348 0.1285 0.4187
C21 C 0.2810(4) -0.04925(14) 0.4577(3)
Zn1B Zn 0.94150(4) -0.046134(17) 0.67618(3)
O1B O 0.7683(3) -0.12896(10) 0.60658(17)
O2B O 0.8245(3) -0.17424(12) 0.4744(2)
O3B O 0.8085(3) 0.01928(11) 0.50530(19)
O4B O 0.7306(3) 0.02835(10) 0.63619(18)
O5B O 1.1009(3) -0.09338(11) 0.62652(19)
H1B H 1.134(5) -0.0671(19) 0.589(3)
H2B H 1.018(5) -0.1210(19) 0.572(3)
N1B N 1.1482(3) 0.03032(12) 0.7833(2)
N2B N 1.0281(3) -0.07456(12) 0.8562(2)
C1B C 1.2071(4) 0.08160(17) 0.7463(3)
H3B H 1.1571 0.0867 0.6631
C2B C 1.3401(5) 0.12801(18) 0.8261(3)
H4B H 1.3762 0.1638 0.7962
C3B C 1.4173(4) 0.12093(17) 0.9479(3)
H5B H 1.5077 0.1515 1.0019
C4B C 1.3599(4) 0.06707(16) 0.9922(3)
C5B C 1.4332(5) 0.05478(17) 1.1187(3)
H6B H 1.5254 0.0833 1.1769
C6B C 1.3714(5) 0.00282(17) 1.1551(3)
H7B H 1.4205 -0.0035 1.2380
C7B C 1.2314(4) -0.04298(15) 1.0689(3)
C8B C 1.1640(5) -0.09905(17) 1.1009(3)
H8B H 1.2083 -0.1077 1.1825
C9B C 1.0339(5) -0.14084(18) 1.0127(3)
H9B H 0.9892 -0.1783 1.0333
C10B C 0.9683(4) -0.12680(16) 0.8907(3)
H10B H 0.8784 -0.1554 0.8309
C11B C 1.1585(4) -0.03305(14) 0.9439(2)
C12B C 1.2231(4) 0.02322(15) 0.9048(2)
C13B C 0.7217(4) -0.16150(14) 0.5097(3)
C14B C 0.5306(4) -0.18865(13) 0.4333(2)
C15B C 0.3896(4) -0.16766(14) 0.4455(2)
C16B C 0.2216(4) -0.20028(17) 0.3722(3)
H11B H 0.1280 -0.1884 0.3817
C17B C 0.1909(5) -0.24956(17) 0.2862(3)
H12B H 0.0779 -0.2704 0.2385
C18B C 0.3266(5) -0.26762(16) 0.2714(3)
H13B H 0.3056 -0.2998 0.2119
C19B C 0.4945(4) -0.23829(14) 0.3444(3)
H14B H 0.5869 -0.2517 0.3346
C20B C 0.4006(4) -0.11012(15) 0.5283(2)
H15B H 0.5247 -0.0942 0.5793
H16B H 0.3652 -0.1285 0.5813
C21B C 0.7190(4) 0.04925(14) 0.5423(3)
Zn1 Zn 0.05850(4) 1.046134(17) 0.32382(3)
O1 O 0.2317(3) 1.12896(10) 0.39342(17)
O2 O 0.1755(3) 1.17424(12) 0.5256(2)
O3 O 0.1915(3) 0.98072(11) 0.49470(19)
O4 O 0.2694(3) 0.97165(10) 0.36381(18)
O5 O -0.1009(3) 1.09338(11) 0.37348(19)
H1 H -0.134(5) 1.0671(19) 0.411(3)
H2 H -0.018(5) 1.1210(19) 0.428(3)
N1 N -0.1482(3) 0.96968(12) 0.2167(2)
N2 N -0.0281(3) 1.07456(12) 0.1438(2)
C1 C -0.2071(4) 0.91840(17) 0.2537(3)
H3 H -0.1571 0.9133 0.3369
C2 C -0.3401(5) 0.87199(18) 0.1739(3)
H4 H -0.3762 0.8362 0.2038
C3 C -0.4173(4) 0.87907(17) 0.0521(3)
H5 H -0.5077 0.8485 -0.0019
C4 C -0.3599(4) 0.93293(16) 0.0078(3)
C5 C -0.4332(5) 0.94522(17) -0.1187(3)
H6 H -0.5254 0.9167 -0.1769
C6 C -0.3714(5) 0.99718(17) -0.1551(3)
H7 H -0.4205 1.0035 -0.2380
C7 C -0.2314(4) 1.04298(15) -0.0689(3)
C8 C -0.1640(5) 1.09905(17) -0.1009(3)
H8 H -0.2083 1.1077 -0.1825
C9 C -0.0339(5) 1.14084(18) -0.0127(3)
H9 H 0.0108 1.1783 -0.0333
C10 C 0.0317(4) 1.12680(16) 0.1093(3)
H10 H 0.1216 1.1554 0.1691
C11 C -0.1585(4) 1.03305(14) 0.0561(2)
C12 C -0.2231(4) 0.97678(15) 0.0952(2)
C13 C 0.2783(4) 1.16150(14) 0.4903(3)
C14 C 0.4694(4) 1.18865(13) 0.5667(2)
C15 C 0.6104(4) 1.16766(14) 0.5545(2)
C16 C 0.7784(4) 1.20028(17) 0.6278(3)
H11 H 0.8720 1.1884 0.6183
C17 C 0.8091(5) 1.24956(17) 0.7138(3)
H12 H 0.9221 1.2704 0.7615
C18 C 0.6734(5) 1.26762(16) 0.7286(3)
H13 H 0.6944 1.2998 0.7881
C19 C 0.5055(4) 1.23829(14) 0.6556(3)
H14 H 0.4131 1.2517 0.6654
C20 C 0.5994(4) 1.11012(15) 0.4717(2)
H15 H 0.4753 1.0942 0.4207
H16 H 0.6348 1.1285 0.4187
C21 C 0.2810(4) 0.95075(14) 0.4577(3)
Zn1B Zn 0.94150(4) 0.953866(17) 0.67618(3)
O1B O 0.7683(3) 0.87104(10) 0.60658(17)
O2B O 0.8245(3) 0.82576(12) 0.4744(2)
O3B O 0.8085(3) 1.01928(11) 0.50530(19)
O4B O 0.7306(3) 1.02835(10) 0.63619(18)
O5B O 1.1009(3) 0.90662(11) 0.62652(19)
H1B H 1.134(5) 0.9329(19) 0.589(3)
H2B H 1.018(5) 0.8790(19) 0.572(3)
N1B N 1.1482(3) 1.03032(12) 0.7833(2)
N2B N 1.0281(3) 0.92544(12) 0.8562(2)
C1B C 1.2071(4) 1.08160(17) 0.7463(3)
H3B H 1.1571 1.0867 0.6631
C2B C 1.3401(5) 1.12801(18) 0.8261(3)
H4B H 1.3762 1.1638 0.7962
C3B C 1.4173(4) 1.12093(17) 0.9479(3)
H5B H 1.5077 1.1515 1.0019
C4B C 1.3599(4) 1.06707(16) 0.9922(3)
C5B C 1.4332(5) 1.05478(17) 1.1187(3)
H6B H 1.5254 1.0833 1.1769
C6B C 1.3714(5) 1.00282(17) 1.1551(3)
H7B H 1.4205 0.9965 1.2380
C7B C 1.2314(4) 0.95702(15) 1.0689(3)
C8B C 1.1640(5) 0.90095(17) 1.1009(3)
H8B H 1.2083 0.8923 1.1825
C9B C 1.0339(5) 0.85916(18) 1.0127(3)
H9B H 0.9892 0.8217 1.0333
C10B C 0.9683(4) 0.87320(16) 0.8907(3)
H10B H 0.8784 0.8446 0.8309
C11B C 1.1585(4) 0.96695(14) 0.9439(2)
C12B C 1.2231(4) 1.02322(15) 0.9048(2)
C13B C 0.7217(4) 0.83850(14) 0.5097(3)
C14B C 0.5306(4) 0.81135(13) 0.4333(2)
C15B C 0.3896(4) 0.83234(14) 0.4455(2)
C16B C 0.2216(4) 0.79972(17) 0.3722(3)
H11B H 0.1280 0.8116 0.3817
C17B C 0.1909(5) 0.75044(17) 0.2862(3)
H12B H 0.0779 0.7296 0.2385
C18B C 0.3266(5) 0.73238(16) 0.2714(3)
H13B H 0.3056 0.7002 0.2119
C19B C 0.4945(4) 0.76171(14) 0.3444(3)
H14B H 0.5869 0.7483 0.3346
C20B C 0.4006(4) 0.88988(15) 0.5283(2)
H15B H 0.5247 0.9058 0.5793
H16B H 0.3652 0.8715 0.5813
C21B C 0.7190(4) 1.04925(14) 0.5423(3)
Zn1 Zn 0.94150(4) 0.546134(17) 0.17618(3)
O1 O 0.7683(3) 0.62896(10) 0.10658(17)
O2 O 0.8245(3) 0.67424(12) -0.0256(2)
O3 O 0.8085(3) 0.48072(11) 0.00530(19)
O4 O 0.7306(3) 0.47165(10) 0.13619(18)
O5 O 1.1009(3) 0.59338(11) 0.12652(19)
H1 H 1.134(5) 0.5671(19) 0.089(3)
H2 H 1.018(5) 0.6210(19) 0.072(3)
N1 N 1.1482(3) 0.46968(12) 0.2833(2)
N2 N 1.0281(3) 0.57456(12) 0.3562(2)
C1 C 1.2071(4) 0.41840(17) 0.2463(3)
H3 H 1.1571 0.4133 0.1631
C2 C 1.3401(5) 0.37199(18) 0.3261(3)
H4 H 1.3762 0.3362 0.2962
C3 C 1.4173(4) 0.37907(17) 0.4479(3)
H5 H 1.5077 0.3485 0.5019
C4 C 1.3599(4) 0.43293(16) 0.4922(3)
C5 C 1.4332(5) 0.44522(17) 0.6187(3)
H6 H 1.5254 0.4167 0.6769
C6 C 1.3714(5) 0.49718(17) 0.6551(3)
H7 H 1.4205 0.5035 0.7380
C7 C 1.2314(4) 0.54298(15) 0.5689(3)
C8 C 1.1640(5) 0.59905(17) 0.6009(3)
H8 H 1.2083 0.6077 0.6825
C9 C 1.0339(5) 0.64084(18) 0.5127(3)
H9 H 0.9892 0.6783 0.5333
C10 C 0.9683(4) 0.62680(16) 0.3907(3)
H10 H 0.8784 0.6554 0.3309
C11 C 1.1585(4) 0.53305(14) 0.4439(2)
C12 C 1.2231(4) 0.47678(15) 0.4048(2)
C13 C 0.7217(4) 0.66150(14) 0.0097(3)
C14 C 0.5306(4) 0.68865(13) -0.0667(2)
C15 C 0.3896(4) 0.66766(14) -0.0545(2)
C16 C 0.2216(4) 0.70028(17) -0.1278(3)
H11 H 0.1280 0.6884 -0.1183
C17 C 0.1909(5) 0.74956(17) -0.2138(3)
H12 H 0.0779 0.7704 -0.2615
C18 C 0.3266(5) 0.76762(16) -0.2286(3)
H13 H 0.3056 0.7998 -0.2881
C19 C 0.4945(4) 0.73829(14) -0.1556(3)
H14 H 0.5869 0.7517 -0.1654
C20 C 0.4006(4) 0.61012(15) 0.0283(2)
H15 H 0.5247 0.5942 0.0793
H16 H 0.3652 0.6285 0.0813
C21 C 0.7190(4) 0.45075(14) 0.0423(3)
Zn1B Zn 0.05850(4) 0.453866(17) -0.17618(3)
O1B O 0.2317(3) 0.37104(10) -0.10658(17)
O2B O 0.1755(3) 0.32576(12) 0.0256(2)
O3B O 0.1915(3) 0.51928(11) -0.00530(19)
O4B O 0.2694(3) 0.52835(10) -0.13619(18)
O5B O -0.1009(3) 0.40662(11) -0.12652(19)
H1B H -0.134(5) 0.4329(19) -0.089(3)
H2B H -0.018(5) 0.3790(19) -0.072(3)
N1B N -0.1482(3) 0.53032(12) -0.2833(2)
N2B N -0.0281(3) 0.42544(12) -0.3562(2)
C1B C -0.2071(4) 0.58160(17) -0.2463(3)
H3B H -0.1571 0.5867 -0.1631
C2B C -0.3401(5) 0.62801(18) -0.3261(3)
H4B H -0.3762 0.6638 -0.2962
C3B C -0.4173(4) 0.62093(17) -0.4479(3)
H5B H -0.5077 0.6515 -0.5019
C4B C -0.3599(4) 0.56707(16) -0.4922(3)
C5B C -0.4332(5) 0.55478(17) -0.6187(3)
H6B H -0.5254 0.5833 -0.6769
C6B C -0.3714(5) 0.50282(17) -0.6551(3)
H7B H -0.4205 0.4965 -0.7380
C7B C -0.2314(4) 0.45702(15) -0.5689(3)
C8B C -0.1640(5) 0.40095(17) -0.6009(3)
H8B H -0.2083 0.3923 -0.6825
C9B C -0.0339(5) 0.35916(18) -0.5127(3)
H9B H 0.0108 0.3217 -0.5333
C10B C 0.0317(4) 0.37320(16) -0.3907(3)
H10B H 0.1216 0.3446 -0.3309
C11B C -0.1585(4) 0.46695(14) -0.4439(2)
C12B C -0.2231(4) 0.52322(15) -0.4048(2)
C13B C 0.2783(4) 0.33850(14) -0.0097(3)
C14B C 0.4694(4) 0.31135(13) 0.0667(2)
C15B C 0.6104(4) 0.33234(14) 0.0545(2)
C16B C 0.7784(4) 0.29972(17) 0.1278(3)
H11B H 0.8720 0.3116 0.1183
C17B C 0.8091(5) 0.25044(17) 0.2138(3)
H12B H 0.9221 0.2296 0.2615
C18B C 0.6734(5) 0.23238(16) 0.2286(3)
H13B H 0.6944 0.2002 0.2881
C19B C 0.5055(4) 0.26171(14) 0.1556(3)
H14B H 0.4131 0.2483 0.1654
C20B C 0.5994(4) 0.38988(15) -0.0283(2)
H15B H 0.4753 0.4058 -0.0793
H16B H 0.6348 0.3715 -0.0813
C21B C 0.2810(4) 0.54925(14) -0.0423(3)
Zn1 Zn 0.94150(4) 0.546134(17) 1.17618(3)
O1 O 0.7683(3) 0.62896(10) 1.10658(17)
O2 O 0.8245(3) 0.67424(12) 0.9744(2)
O3 O 0.8085(3) 0.48072(11) 1.00530(19)
O4 O 0.7306(3) 0.47165(10) 1.13619(18)
O5 O 1.1009(3) 0.59338(11) 1.12652(19)
H1 H 1.134(5) 0.5671(19) 1.089(3)
H2 H 1.018(5) 0.6210(19) 1.072(3)
N1 N 1.1482(3) 0.46968(12) 1.2833(2)
N2 N 1.0281(3) 0.57456(12) 1.3562(2)
C1 C 1.2071(4) 0.41840(17) 1.2463(3)
H3 H 1.1571 0.4133 1.1631
C2 C 1.3401(5) 0.37199(18) 1.3261(3)
H4 H 1.3762 0.3362 1.2962
C3 C 1.4173(4) 0.37907(17) 1.4479(3)
H5 H 1.5077 0.3485 1.5019
C4 C 1.3599(4) 0.43293(16) 1.4922(3)
C5 C 1.4332(5) 0.44522(17) 1.6187(3)
H6 H 1.5254 0.4167 1.6769
C6 C 1.3714(5) 0.49718(17) 1.6551(3)
H7 H 1.4205 0.5035 1.7380
C7 C 1.2314(4) 0.54298(15) 1.5689(3)
C8 C 1.1640(5) 0.59905(17) 1.6009(3)
H8 H 1.2083 0.6077 1.6825
C9 C 1.0339(5) 0.64084(18) 1.5127(3)
H9 H 0.9892 0.6783 1.5333
C10 C 0.9683(4) 0.62680(16) 1.3907(3)
H10 H 0.8784 0.6554 1.3309
C11 C 1.1585(4) 0.53305(14) 1.4439(2)
C12 C 1.2231(4) 0.47678(15) 1.4048(2)
C13 C 0.7217(4) 0.66150(14) 1.0097(3)
C14 C 0.5306(4) 0.68865(13) 0.9333(2)
C15 C 0.3896(4) 0.66766(14) 0.9455(2)
C16 C 0.2216(4) 0.70028(17) 0.8722(3)
H11 H 0.1280 0.6884 0.8817
C17 C 0.1909(5) 0.74956(17) 0.7862(3)
H12 H 0.0779 0.7704 0.7385
C18 C 0.3266(5) 0.76762(16) 0.7714(3)
H13 H 0.3056 0.7998 0.7119
C19 C 0.4945(4) 0.73829(14) 0.8444(3)
H14 H 0.5869 0.7517 0.8346
C20 C 0.4006(4) 0.61012(15) 1.0283(2)
H15 H 0.5247 0.5942 1.0793
H16 H 0.3652 0.6285 1.0813
C21 C 0.7190(4) 0.45075(14) 1.0423(3)
Zn1B Zn 0.05850(4) 0.453866(17) 0.82382(3)
O1B O 0.2317(3) 0.37104(10) 0.89342(17)
O2B O 0.1755(3) 0.32576(12) 1.0256(2)
O3B O 0.1915(3) 0.51928(11) 0.99470(19)
O4B O 0.2694(3) 0.52835(10) 0.86381(18)
O5B O -0.1009(3) 0.40662(11) 0.87348(19)
H1B H -0.134(5) 0.4329(19) 0.911(3)
H2B H -0.018(5) 0.3790(19) 0.928(3)
N1B N -0.1482(3) 0.53032(12) 0.7167(2)
N2B N -0.0281(3) 0.42544(12) 0.6438(2)
C1B C -0.2071(4) 0.58160(17) 0.7537(3)
H3B H -0.1571 0.5867 0.8369
C2B C -0.3401(5) 0.62801(18) 0.6739(3)
H4B H -0.3762 0.6638 0.7038
C3B C -0.4173(4) 0.62093(17) 0.5521(3)
H5B H -0.5077 0.6515 0.4981
C4B C -0.3599(4) 0.56707(16) 0.5078(3)
C5B C -0.4332(5) 0.55478(17) 0.3813(3)
H6B H -0.5254 0.5833 0.3231
C6B C -0.3714(5) 0.50282(17) 0.3449(3)
H7B H -0.4205 0.4965 0.2620
C7B C -0.2314(4) 0.45702(15) 0.4311(3)
C8B C -0.1640(5) 0.40095(17) 0.3991(3)
H8B H -0.2083 0.3923 0.3175
C9B C -0.0339(5) 0.35916(18) 0.4873(3)
H9B H 0.0108 0.3217 0.4667
C10B C 0.0317(4) 0.37320(16) 0.6093(3)
H10B H 0.1216 0.3446 0.6691
C11B C -0.1585(4) 0.46695(14) 0.5561(2)
C12B C -0.2231(4) 0.52322(15) 0.5952(2)
C13B C 0.2783(4) 0.33850(14) 0.9903(3)
C14B C 0.4694(4) 0.31135(13) 1.0667(2)
C15B C 0.6104(4) 0.33234(14) 1.0545(2)
C16B C 0.7784(4) 0.29972(17) 1.1278(3)
H11B H 0.8720 0.3116 1.1183
C17B C 0.8091(5) 0.25044(17) 1.2138(3)
H12B H 0.9221 0.2296 1.2615
C18B C 0.6734(5) 0.23238(16) 1.2286(3)
H13B H 0.6944 0.2002 1.2881
C19B C 0.5055(4) 0.26171(14) 1.1556(3)
H14B H 0.4131 0.2483 1.1654
C20B C 0.5994(4) 0.38988(15) 0.9717(2)
H15B H 0.4753 0.4058 0.9207
H16B H 0.6348 0.3715 0.9187
C21B C 0.2810(4) 0.54925(14) 0.9577(3)

#END
