
#######################################################################
#
#                 Cambridge Crystallographic Data Centre
#                                CCDC 
#
#######################################################################
#
# If this CIF has been generated from an entry in the Cambridge 
# Structural Database, then it will include bibliographic, chemical, 
# crystal, experimental, refinement or atomic coordinate data resulting 
# from the CCDC's data processing and validation procedures.
#
#######################################################################

data_ACOGUW
_symmetry_cell_setting           triclinic
_symmetry_space_group_name_H-M   'P -1'
_symmetry_Int_Tables_number      2
_space_group_name_Hall           '-P 1'
loop_
_symmetry_equiv_pos_site_id
_symmetry_equiv_pos_as_xyz
1 x,y,z
2 -x,-y,-z
_cell_length_a                   5.4356(9)
_cell_length_b                   7.4034(14)
_cell_length_c                   27.665(3)
_cell_angle_alpha                86.595(11)
_cell_angle_beta                 84.863(10)
_cell_angle_gamma                89.167(14)
_cell_volume                     1106.82
loop_
_atom_site_label
_atom_site_type_symbol
_atom_site_fract_x
_atom_site_fract_y
_atom_site_fract_z
C1 C 0.4760(2) 0.34693(17) 0.03363(5)
C2 C 0.6456(2) 0.48422(17) 0.03981(5)
C3 C 0.7986(3) 0.47393(18) 0.07912(5)
H1 H 0.7819 0.3741 0.1024
C4 C 0.9677(3) 0.60309(19) 0.08422(5)
H2 H 1.0683 0.5921 0.1106
C5 C 0.9948(3) 0.75366(19) 0.05048(5)
H3 H 1.1146 0.8430 0.0540
C6 C 0.8502(3) 0.77101(18) 0.01296(5)
H4 H 0.8689 0.8740 -0.0092
C7 C 0.6701(2) 0.63835(17) 0.00582(5)
C8 C 0.4607(3) 0.18323(18) 0.06756(5)
H5 H 0.5731 0.0872 0.0602
C9 C 0.3081(3) 0.15878(19) 0.10641(5)
H6 H 0.1982 0.2565 0.1136
C10 C 0.2848(2) -0.00150(18) 0.14051(5)
C11 C 0.4610(2) -0.14014(18) 0.14070(5)
H7 H 0.6045 -0.1300 0.1185
C12 C 0.4332(3) -0.29201(18) 0.17223(5)
H8 H 0.5569 -0.3840 0.1718
C13 C 0.2225(2) -0.30899(18) 0.20467(5)
C14 C 0.0445(2) -0.17133(19) 0.20546(5)
H9 H -0.0988 -0.1816 0.2277
C15 C 0.0763(3) -0.02052(19) 0.17398(5)
H10 H -0.0459 0.0726 0.1750
C16 C 0.3502(3) -0.60135(18) 0.23578(5)
H11 H 0.5137 -0.5580 0.2430
H12 H 0.3676 -0.6511 0.2032
C17 C 0.2582(3) -0.74560(18) 0.27362(5)
H13 H 0.0962 -0.7895 0.2657
H14 H 0.2344 -0.6929 0.3058
C18 C 0.4398(3) -0.90468(18) 0.27604(5)
H15 H 0.4598 -0.9585 0.2440
H16 H 0.6030 -0.8593 0.2828
C19 C 0.3570(3) -1.05098(18) 0.31486(5)
H17 H 0.1955 -1.0981 0.3077
H18 H 0.3337 -0.9966 0.3468
C20 C 0.5407(3) -1.20785(18) 0.31795(5)
H19 H 0.5609 -1.2631 0.2861
H20 H 0.7031 -1.1594 0.3241
C21 C 0.4672(3) -1.35482(18) 0.35715(5)
H21 H 0.3081 -1.4072 0.3505
H22 H 0.4425 -1.2999 0.3890
C22 C 0.6601(3) -1.50581(19) 0.35997(5)
H23 H 0.6869 -1.5581 0.3278
H24 H 0.8182 -1.4529 0.3671
C23 C 0.5915(3) -1.65729(19) 0.39814(5)
H25 H 0.4334 -1.7106 0.3912
H26 H 0.5661 -1.6058 0.4305
C24 C 0.7874(3) -1.80634(19) 0.39980(5)
H27 H 0.8125 -1.8571 0.3674
H28 H 0.9453 -1.7523 0.4066
C25 C 0.7241(3) -1.95974(19) 0.43770(5)
H29 H 0.5632 -2.0113 0.4318
H30 H 0.7061 -1.9104 0.4703
C26 C 0.9181(3) -2.1102(2) 0.43720(6)
H31 H 0.9377 -2.1580 0.4044
H32 H 1.0784 -2.0586 0.4435
C27 C 0.8558(4) -2.2657(2) 0.47443(6)
H33 H 0.8444 -2.2209 0.5072
H34 H 0.9856 -2.3587 0.4716
H35 H 0.6974 -2.3179 0.4685
O1 O 0.17405(18) -0.45464(13) 0.23676(4)
C1A C 0.5240(2) 0.65307(17) -0.03363(5)
C2A C 0.3544(2) 0.51578(17) -0.03981(5)
C3A C 0.2014(3) 0.52607(18) -0.07912(5)
H1A H 0.2181 0.6259 -0.1024
C4A C 0.0323(3) 0.39691(19) -0.08422(5)
H2A H -0.0683 0.4079 -0.1106
C5A C 0.0052(3) 0.24634(19) -0.05048(5)
H3A H -0.1146 0.1570 -0.0540
C6A C 0.1498(3) 0.22899(18) -0.01296(5)
H4A H 0.1311 0.1260 0.0092
C7A C 0.3299(2) 0.36165(17) -0.00582(5)
C8A C 0.5393(3) 0.81677(18) -0.06756(5)
H5A H 0.4269 0.9128 -0.0602
C9A C 0.6919(3) 0.84122(19) -0.10641(5)
H6A H 0.8018 0.7435 -0.1136
C10A C 0.7152(2) 1.00150(18) -0.14051(5)
C11A C 0.5390(2) 1.14014(18) -0.14070(5)
H7A H 0.3955 1.1300 -0.1185
C12A C 0.5668(3) 1.29201(18) -0.17223(5)
H8A H 0.4431 1.3840 -0.1718
C13A C 0.7775(2) 1.30899(18) -0.20467(5)
C14A C 0.9555(2) 1.17133(19) -0.20546(5)
H9A H 1.0988 1.1816 -0.2277
C15A C 0.9237(3) 1.02052(19) -0.17398(5)
H10A H 1.0459 0.9274 -0.1750
C16A C 0.6498(3) 1.60135(18) -0.23578(5)
H11A H 0.4863 1.5580 -0.2430
H12A H 0.6324 1.6511 -0.2032
C17A C 0.7418(3) 1.74560(18) -0.27362(5)
H13A H 0.9038 1.7895 -0.2657
H14A H 0.7656 1.6929 -0.3058
C18A C 0.5602(3) 1.90468(18) -0.27604(5)
H15A H 0.5402 1.9585 -0.2440
H16A H 0.3970 1.8593 -0.2828
C19A C 0.6430(3) 2.05098(18) -0.31486(5)
H17A H 0.8045 2.0981 -0.3077
H18A H 0.6663 1.9966 -0.3468
C20A C 0.4593(3) 2.20785(18) -0.31795(5)
H19A H 0.4391 2.2631 -0.2861
H20A H 0.2969 2.1594 -0.3241
C21A C 0.5328(3) 2.35482(18) -0.35715(5)
H21A H 0.6919 2.4072 -0.3505
H22A H 0.5575 2.2999 -0.3890
C22A C 0.3399(3) 2.50581(19) -0.35997(5)
H23A H 0.3131 2.5581 -0.3278
H24A H 0.1818 2.4529 -0.3671
C23A C 0.4085(3) 2.65729(19) -0.39814(5)
H25A H 0.5666 2.7106 -0.3912
H26A H 0.4339 2.6058 -0.4305
C24A C 0.2126(3) 2.80634(19) -0.39980(5)
H27A H 0.1875 2.8571 -0.3674
H28A H 0.0547 2.7523 -0.4066
C25A C 0.2759(3) 2.95974(19) -0.43770(5)
H29A H 0.4368 3.0113 -0.4318
H30A H 0.2939 2.9104 -0.4703
C26A C 0.0819(3) 3.1102(2) -0.43720(6)
H31A H 0.0623 3.1580 -0.4044
H32A H -0.0784 3.0586 -0.4435
C27A C 0.1442(4) 3.2657(2) -0.47443(6)
H33A H 0.1556 3.2209 -0.5072
H34A H 0.0144 3.3587 -0.4716
H35A H 0.3026 3.3179 -0.4685
O1A O 0.82595(18) 1.45464(13) -0.23676(4)
C1 C 0.4760(2) 0.34693(17) 1.03363(5)
C2 C 0.6456(2) 0.48422(17) 1.03981(5)
C3 C 0.7986(3) 0.47393(18) 1.07912(5)
H1 H 0.7819 0.3741 1.1024
C4 C 0.9677(3) 0.60309(19) 1.08422(5)
H2 H 1.0683 0.5921 1.1106
C5 C 0.9948(3) 0.75366(19) 1.05048(5)
H3 H 1.1146 0.8430 1.0540
C6 C 0.8502(3) 0.77101(18) 1.01296(5)
H4 H 0.8689 0.8740 0.9908
C7 C 0.6701(2) 0.63835(17) 1.00582(5)
C8 C 0.4607(3) 0.18323(18) 1.06756(5)
H5 H 0.5731 0.0872 1.0602
C9 C 0.3081(3) 0.15878(19) 1.10641(5)
H6 H 0.1982 0.2565 1.1136
C10 C 0.2848(2) -0.00150(18) 1.14051(5)
C11 C 0.4610(2) -0.14014(18) 1.14070(5)
H7 H 0.6045 -0.1300 1.1185
C12 C 0.4332(3) -0.29201(18) 1.17223(5)
H8 H 0.5569 -0.3840 1.1718
C13 C 0.2225(2) -0.30899(18) 1.20467(5)
C14 C 0.0445(2) -0.17133(19) 1.20546(5)
H9 H -0.0988 -0.1816 1.2277
C15 C 0.0763(3) -0.02052(19) 1.17398(5)
H10 H -0.0459 0.0726 1.1750
C16 C 0.3502(3) -0.60135(18) 1.23578(5)
H11 H 0.5137 -0.5580 1.2430
H12 H 0.3676 -0.6511 1.2032
C17 C 0.2582(3) -0.74560(18) 1.27362(5)
H13 H 0.0962 -0.7895 1.2657
H14 H 0.2344 -0.6929 1.3058
C18 C 0.4398(3) -0.90468(18) 1.27604(5)
H15 H 0.4598 -0.9585 1.2440
H16 H 0.6030 -0.8593 1.2828
C19 C 0.3570(3) -1.05098(18) 1.31486(5)
H17 H 0.1955 -1.0981 1.3077
H18 H 0.3337 -0.9966 1.3468
C20 C 0.5407(3) -1.20785(18) 1.31795(5)
H19 H 0.5609 -1.2631 1.2861
H20 H 0.7031 -1.1594 1.3241
C21 C 0.4672(3) -1.35482(18) 1.35715(5)
H21 H 0.3081 -1.4072 1.3505
H22 H 0.4425 -1.2999 1.3890
C22 C 0.6601(3) -1.50581(19) 1.35997(5)
H23 H 0.6869 -1.5581 1.3278
H24 H 0.8182 -1.4529 1.3671
C23 C 0.5915(3) -1.65729(19) 1.39814(5)
H25 H 0.4334 -1.7106 1.3912
H26 H 0.5661 -1.6058 1.4305
C24 C 0.7874(3) -1.80634(19) 1.39980(5)
H27 H 0.8125 -1.8571 1.3674
H28 H 0.9453 -1.7523 1.4066
C25 C 0.7241(3) -1.95974(19) 1.43770(5)
H29 H 0.5632 -2.0113 1.4318
H30 H 0.7061 -1.9104 1.4703
C26 C 0.9181(3) -2.1102(2) 1.43720(6)
H31 H 0.9377 -2.1580 1.4044
H32 H 1.0784 -2.0586 1.4435
C27 C 0.8558(4) -2.2657(2) 1.47443(6)
H33 H 0.8444 -2.2209 1.5072
H34 H 0.9856 -2.3587 1.4716
H35 H 0.6974 -2.3179 1.4685
O1 O 0.17405(18) -0.45464(13) 1.23676(4)
C1A C 0.5240(2) 0.65307(17) 0.96637(5)
C2A C 0.3544(2) 0.51578(17) 0.96019(5)
C3A C 0.2014(3) 0.52607(18) 0.92088(5)
H1A H 0.2181 0.6259 0.8976
C4A C 0.0323(3) 0.39691(19) 0.91578(5)
H2A H -0.0683 0.4079 0.8894
C5A C 0.0052(3) 0.24634(19) 0.94952(5)
H3A H -0.1146 0.1570 0.9460
C6A C 0.1498(3) 0.22899(18) 0.98704(5)
H4A H 0.1311 0.1260 1.0092
C7A C 0.3299(2) 0.36165(17) 0.99418(5)
C8A C 0.5393(3) 0.81677(18) 0.93244(5)
H5A H 0.4269 0.9128 0.9398
C9A C 0.6919(3) 0.84122(19) 0.89359(5)
H6A H 0.8018 0.7435 0.8864
C10A C 0.7152(2) 1.00150(18) 0.85949(5)
C11A C 0.5390(2) 1.14014(18) 0.85930(5)
H7A H 0.3955 1.1300 0.8815
C12A C 0.5668(3) 1.29201(18) 0.82777(5)
H8A H 0.4431 1.3840 0.8282
C13A C 0.7775(2) 1.30899(18) 0.79533(5)
C14A C 0.9555(2) 1.17133(19) 0.79454(5)
H9A H 1.0988 1.1816 0.7723
C15A C 0.9237(3) 1.02052(19) 0.82602(5)
H10A H 1.0459 0.9274 0.8250
C16A C 0.6498(3) 1.60135(18) 0.76422(5)
H11A H 0.4863 1.5580 0.7570
H12A H 0.6324 1.6511 0.7968
C17A C 0.7418(3) 1.74560(18) 0.72638(5)
H13A H 0.9038 1.7895 0.7343
H14A H 0.7656 1.6929 0.6942
C18A C 0.5602(3) 1.90468(18) 0.72396(5)
H15A H 0.5402 1.9585 0.7560
H16A H 0.3970 1.8593 0.7172
C19A C 0.6430(3) 2.05098(18) 0.68514(5)
H17A H 0.8045 2.0981 0.6923
H18A H 0.6663 1.9966 0.6532
C20A C 0.4593(3) 2.20785(18) 0.68205(5)
H19A H 0.4391 2.2631 0.7139
H20A H 0.2969 2.1594 0.6759
C21A C 0.5328(3) 2.35482(18) 0.64285(5)
H21A H 0.6919 2.4072 0.6495
H22A H 0.5575 2.2999 0.6110
C22A C 0.3399(3) 2.50581(19) 0.64003(5)
H23A H 0.3131 2.5581 0.6722
H24A H 0.1818 2.4529 0.6329
C23A C 0.4085(3) 2.65729(19) 0.60186(5)
H25A H 0.5666 2.7106 0.6088
H26A H 0.4339 2.6058 0.5695
C24A C 0.2126(3) 2.80634(19) 0.60020(5)
H27A H 0.1875 2.8571 0.6326
H28A H 0.0547 2.7523 0.5934
C25A C 0.2759(3) 2.95974(19) 0.56230(5)
H29A H 0.4368 3.0113 0.5682
H30A H 0.2939 2.9104 0.5297
C26A C 0.0819(3) 3.1102(2) 0.56280(6)
H31A H 0.0623 3.1580 0.5956
H32A H -0.0784 3.0586 0.5565
C27A C 0.1442(4) 3.2657(2) 0.52557(6)
H33A H 0.1556 3.2209 0.4928
H34A H 0.0144 3.3587 0.5284
H35A H 0.3026 3.3179 0.5315
O1A O 0.82595(18) 1.45464(13) 0.76324(4)

#END
