./ACOGOO_from_POSCAR.cif_generated_by_CrystalShift
_symmetry_cell_setting triclinic
_symmetry_space_group_name_H-M 'P 1'
loop_
_symmetry_equiv_pos_site_id
_symmetry_equiv_pos_as_xyz
1 x,y,z
_cell_length_a 8.377000
_cell_length_b 11.294000
_cell_length_c 11.685000
_cell_angle_alpha 99.450000
_cell_angle_beta 105.120000
_cell_angle_gamma 109.730000
_cell_volume 965.111641
loop_
_atom_site_label
_atom_site_type_symbol
_atom_site_fract_x
_atom_site_fract_y
_atom_site_fract_z
H1 H 1.323500 0.358500 0.886900
H2 H 0.466800 1.170400 0.800000
H3 H 1.271800 0.689100 0.970800
H4 H 1.179200 0.685800 0.764600
H5 H 0.037500 1.072200 0.602900
H6 H 1.338500 0.574600 0.203600
H7 H 0.728200 0.310900 0.029200
H8 H 0.820800 0.314200 0.235400
H9 H 0.676500 0.641500 0.113100
H10 H 0.775900 0.659500 0.319100
H11 H -0.342700 0.725200 0.589000
H12 H 0.809900 0.546200 0.479500
H13 H -0.457100 0.622300 0.726100
H14 H 0.892400 0.324900 0.422000
H15 H -0.278800 0.677300 0.928900
H16 H 0.661500 0.425400 0.796400
H17 H 0.821300 0.517900 0.675800
H18 H 0.006200 0.806900 1.098600
H19 H 0.727700 0.154700 0.487200
H20 H 0.291100 0.972000 1.175600
H21 H 0.561900 0.072900 0.606200
H22 H 0.416200 1.073900 1.041900
H23 H 1.438100 0.927100 0.393800
H24 H 1.272300 0.845300 0.512800
H25 H 0.323500 0.358500 0.886900
H26 H 0.533200 -0.170400 0.200000
H27 H 0.271800 0.689100 0.970800
H28 H 1.224100 0.340500 0.680900
H29 H 0.962500 -0.072200 0.397100
H30 H 0.179200 0.685800 0.764600
H31 H 1.107600 0.675100 0.578000
H32 H 0.224100 0.340500 0.680900
H33 H 0.190100 0.453800 0.520500
H34 H 0.107600 0.675100 0.578000
H35 H 1.342700 0.274800 0.411000
H36 H 0.272300 0.845300 0.512800
H37 H 1.457100 0.377700 0.273900
H38 H 0.438100 0.927100 0.393800
H39 H 1.278800 0.322700 0.071100
H40 H 0.338500 0.574600 0.203600
H41 H 0.178700 0.482100 0.324200
H42 H 0.993800 0.193100 -0.098600
H43 H -0.271800 0.310900 0.029200
H44 H 0.708900 0.028000 -0.175600
H45 H -0.179200 0.314200 0.235400
H46 H 0.583800 -0.073900 -0.041900
H47 H -0.323500 0.641500 0.113100
H48 H -0.224100 0.659500 0.319100
H49 H 1.178700 0.482100 0.324200
H50 H 1.190100 0.453800 0.520500
H51 H -0.190100 0.546200 0.479500
H52 H -0.438100 0.072900 0.606200
H53 H -0.107600 0.324900 0.422000
H54 H -0.272300 0.154700 0.487200
H55 H -0.338500 0.425400 0.796400
H56 H -0.178700 0.517900 0.675800
C57 C -0.229200 0.425500 0.660700
C58 C -0.326500 0.369700 0.731700
C59 C -0.205100 0.346500 0.567200
C60 C -0.091900 0.398200 0.490700
C61 C -0.284800 0.213200 0.549300
C62 C -0.116100 0.511600 0.440300
C63 C -0.382500 0.165200 0.621500
C64 C -0.186800 0.489500 0.302400
C65 C 1.186800 0.510500 0.697600
C66 C 1.053200 0.088100 0.380800
C67 C -0.290800 0.574600 0.138000
C68 C 0.693500 -0.022700 0.195000
C69 C -0.205200 0.384500 0.212900
C70 C 0.702100 -0.006700 -0.009700
C71 C -0.262400 0.383000 0.089300
C72 C 0.776500 0.053700 -0.090100
C73 C 0.091900 0.601800 0.509300
C74 C 0.205100 0.653500 0.432800
C75 C 0.284800 0.786800 0.450700
C76 C 0.382500 0.834800 0.378500
C77 C 1.116100 0.488400 0.559700
C78 C 0.326500 0.630300 0.268300
C79 C 0.229200 0.574500 0.339300
C80 C 0.945800 0.149500 -0.044700
C81 C 1.051600 0.185200 0.080800
C82 C 1.231300 0.280600 0.126000
C83 C 1.337100 0.313200 0.245600
C84 C 1.268600 0.251200 0.327100
C85 C 0.116100 0.488400 0.559700
C86 C 1.096400 0.157100 0.288200
C87 C 0.186800 0.510500 0.697600
C88 C 0.232800 0.414300 0.738600
C89 C 0.978800 0.122400 0.163500
C90 C 0.290800 0.425400 0.862000
C91 C 0.796100 0.028700 0.114400
C92 C 0.262400 0.617000 0.910700
C93 C 0.205200 0.615500 0.787100
C94 C 1.232800 0.414300 0.738600
C95 C 1.290800 0.425400 0.862000
C96 C 1.262400 0.617000 0.910700
C97 C -0.053200 0.911900 0.619200
C98 C 0.306500 1.022700 0.805000
C99 C 0.617500 0.165200 0.621500
C100 C 0.297900 1.006700 1.009700
C101 C 0.715200 0.213200 0.549300
C102 C 0.223500 0.946300 1.090100
C103 C 0.794900 0.346500 0.567200
C104 C 0.770800 0.425500 0.660700
C105 C 0.054200 0.850500 1.044700
C106 C 0.673500 0.369700 0.731700
C107 C -0.051600 0.814800 0.919200
C108 C 0.908100 0.398200 0.490700
C109 C -0.231300 0.719400 0.874000
C110 C 0.883900 0.511600 0.440300
C111 C -0.337100 0.686800 0.754400
C112 C 0.813200 0.489500 0.302400
C113 C 0.767200 0.585700 0.261400
C114 C -0.268600 0.748800 0.672900
C115 C 0.709200 0.574600 0.138000
C116 C -0.096400 0.842900 0.711800
C117 C 0.794800 0.384500 0.212900
C118 C 0.021200 0.877600 0.836500
C119 C 0.737600 0.383000 0.089300
C120 C 0.203900 0.971300 0.885600
C121 C 1.091900 0.601800 0.509300
C122 C 1.205100 0.653500 0.432800
C123 C 1.284800 0.786800 0.450700
C124 C 1.382500 0.834800 0.378500
C125 C 1.205200 0.615500 0.787100
C126 C 1.326500 0.630300 0.268300
C127 C 1.229200 0.574500 0.339300
C128 C -0.232800 0.585700 0.261400
N129 N 1.403600 0.759400 0.288200
N130 N 0.695200 0.476600 0.050500
N131 N 0.596400 0.240600 0.711800
N132 N 0.304800 0.523400 0.949500
N133 N 0.403600 0.759400 0.288200
N134 N -0.304800 0.476600 0.050500
N135 N -0.403600 0.240600 0.711800
N136 N 1.304800 0.523400 0.949500
O137 O 0.700900 0.049400 0.287700
O138 O 0.991700 -0.039600 0.342200
O139 O 1.087300 0.149400 0.487900
O140 O 0.590800 -0.147900 0.152700
O141 O -0.087300 0.850600 0.512100
O142 O 0.008300 1.039600 0.657800
O143 O 0.299100 0.950600 0.712300
O144 O 0.409200 1.147900 0.847300

#END
