./ACOGIJ_from_POSCAR.cif_generated_by_CrystalShift
_symmetry_cell_setting triclinic
_symmetry_space_group_name_H-M 'P 1'
loop_
_symmetry_equiv_pos_site_id
_symmetry_equiv_pos_as_xyz
1 x,y,z
_cell_length_a 8.847600
_cell_length_b 19.206500
_cell_length_c 11.097900
_cell_angle_alpha 90.000000
_cell_angle_beta 98.881000
_cell_angle_gamma 90.000000
_cell_volume 1863.272388
loop_
_atom_site_label
_atom_site_type_symbol
_atom_site_fract_x
_atom_site_fract_y
_atom_site_fract_z
H1 H 0.449000 0.563800 0.588000
H2 H 0.785200 0.371400 0.420400
H3 H 0.940200 0.408100 0.418100
H4 H 1.163500 0.771000 0.238100
H5 H 0.975100 0.608000 1.184500
H6 H 0.819100 0.503500 1.239900
H7 H 1.046700 0.678800 1.033900
H8 H 0.416600 0.335700 0.795200
H9 H 0.651600 0.416500 1.178700
H10 H 0.505800 0.413200 0.661000
H11 H 0.952900 0.656300 0.829400
H12 H 1.256200 0.688100 0.382000
H13 H 0.245800 -0.252100 -0.165500
H14 H 0.493700 0.347900 1.003500
H15 H 0.904800 0.800600 0.210200
H16 H 0.745800 0.752100 0.334500
H17 H 1.551000 0.436200 0.412000
H18 H 1.455000 0.379200 0.431400
H19 H 0.404800 -0.300600 -0.289800
H20 H 1.214800 0.628600 0.579600
H21 H -0.006300 0.152100 0.503500
H22 H 1.059800 0.591900 0.581900
H23 H 0.756200 -0.188100 -0.118000
H24 H 0.836500 0.229000 0.761900
H25 H 1.024900 0.392000 -0.184500
H26 H 1.180900 0.496500 -0.239900
H27 H 0.452900 -0.156300 0.329400
H28 H 0.953300 0.321200 -0.033900
H29 H 0.005800 0.086800 0.161000
H30 H 1.583400 0.664300 0.204800
H31 H 0.151600 0.083500 0.678700
H32 H 1.348400 0.583500 -0.178700
H33 H -0.083400 0.164300 0.295200
H34 H 1.494200 0.586800 0.339000
H35 H 0.546700 -0.178800 0.533900
H36 H 1.047100 0.343700 0.170600
H37 H 0.319100 -0.003500 0.739900
H38 H 0.743800 0.311900 0.618000
H39 H 0.475100 -0.108000 0.684500
H40 H 1.506300 0.652100 -0.003500
H41 H 0.663500 -0.271000 -0.261900
H42 H 0.440200 0.091900 -0.081900
H43 H 0.285200 0.128600 -0.079600
H44 H 0.045000 -0.120800 0.068600
H45 H -0.051000 -0.063800 0.088000
H46 H 1.095200 0.199400 0.789800
H47 H 1.254200 0.247900 0.665500
H48 H -0.551000 0.563800 0.588000
H49 H -0.455000 0.620800 0.568600
H50 H -0.214800 0.371400 0.420400
H51 H -0.059800 0.408100 0.418100
H52 H 0.163500 0.771000 0.238100
H53 H -0.024900 0.608000 1.184500
H54 H -0.180900 0.503500 1.239900
H55 H 0.046700 0.678800 1.033900
H56 H -0.583400 0.335700 0.795200
H57 H -0.348400 0.416500 1.178700
H58 H 0.754200 0.252100 0.165500
H59 H -0.494200 0.413200 0.661000
H60 H -0.047100 0.656300 0.829400
H61 H 0.256200 0.688100 0.382000
H62 H -0.506300 0.347900 1.003500
H63 H -0.095200 0.800600 0.210200
H64 H 0.595200 0.300600 0.289800
H65 H -0.254200 0.752100 0.334500
H66 H 1.006300 -0.152100 -0.503500
H67 H 0.551000 0.436200 0.412000
H68 H 0.243800 0.188100 0.118000
H69 H 0.455000 0.379200 0.431400
H70 H 0.214800 0.628600 0.579600
H71 H 0.059800 0.591900 0.581900
H72 H 0.547100 0.156300 -0.329400
H73 H -0.163500 0.229000 0.761900
H74 H 0.994200 -0.086800 -0.161000
H75 H 0.024900 0.392000 -0.184500
H76 H 0.848400 -0.083500 -0.678700
H77 H 0.180900 0.496500 -0.239900
H78 H 1.083400 -0.164300 -0.295200
H79 H -0.046700 0.321200 -0.033900
H80 H 0.453300 0.178800 -0.533900
H81 H 0.583400 0.664300 0.204800
H82 H 0.680900 0.003500 -0.739900
H83 H 0.348400 0.583500 -0.178700
H84 H 0.524900 0.108000 -0.684500
H85 H 0.494200 0.586800 0.339000
H86 H 0.336500 0.271000 0.261900
H87 H 0.559800 -0.091900 0.081900
H88 H 0.714800 -0.128600 0.079600
H89 H 0.955000 0.120800 -0.068600
H90 H 1.051000 0.063800 -0.088000
H91 H 0.047100 0.343700 0.170600
H92 H -0.256200 0.311900 0.618000
H93 H 0.506300 0.652100 -0.003500
H94 H 0.095200 0.199400 0.789800
H95 H 0.254200 0.247900 0.665500
H96 H 1.051000 1.063800 0.912000
H97 H 0.955000 1.120800 0.931400
H98 H 0.714800 0.871400 1.079600
H99 H 0.559800 0.908100 1.081900
H100 H 0.336500 1.271000 1.261900
H101 H 0.524900 1.108000 0.315500
H102 H 0.680900 1.003500 0.260100
H103 H 0.245800 -0.252100 0.834500
H104 H 0.453300 1.178800 0.466100
H105 H 1.083400 0.835700 0.704800
H106 H 0.848400 0.916500 0.321300
H107 H 0.994200 0.913200 0.839000
H108 H 0.547100 1.156300 0.670600
H109 H 0.404800 -0.300600 0.710200
H110 H 0.243800 1.188100 1.118000
H111 H -0.006300 0.152100 1.503500
H112 H 1.006300 0.847900 0.496500
H113 H 0.756200 -0.188100 0.882000
H114 H 0.595200 1.300600 1.289800
H115 H 0.754200 1.252100 1.165500
H116 H -0.051000 0.936200 1.088000
H117 H 0.452900 -0.156300 1.329400
H118 H 0.045000 0.879200 1.068600
H119 H 0.005800 0.086800 1.161000
H120 H 0.285200 1.128600 0.920400
H121 H 0.151600 0.083500 1.678700
H122 H 0.440200 1.091900 0.918100
H123 H -0.083400 0.164300 1.295200
H124 H 0.663500 0.729000 0.738100
H125 H 0.546700 -0.178800 1.533900
H126 H 0.475100 0.892000 1.684500
H127 H 0.319100 -0.003500 1.739900
H128 H 0.319100 0.996500 1.739900
H129 H 0.475100 -0.108000 1.684500
H130 H 0.546700 0.821200 1.533900
H131 H 0.663500 -0.271000 0.738100
H132 H 0.440200 0.091900 0.918100
H133 H 0.285200 0.128600 0.920400
H134 H 0.045000 -0.120800 1.068600
H135 H -0.051000 -0.063800 1.088000
H136 H -0.083400 1.164300 1.295200
H137 H 0.151600 1.083500 1.678700
H138 H 0.005800 1.086800 1.161000
H139 H 0.452900 0.843700 1.329400
H140 H 0.756200 0.811900 0.882000
H141 H -0.006300 1.152100 1.503500
H142 H 0.404800 0.699400 0.710200
H143 H 0.245800 0.747900 0.834500
H144 H 1.051000 1.063800 -0.088000
H145 H 0.955000 1.120800 -0.068600
H146 H 0.714800 0.871400 0.079600
H147 H 0.559800 0.908100 0.081900
H148 H 0.754200 0.252100 1.165500
H149 H 0.336500 1.271000 0.261900
H150 H 0.524900 1.108000 -0.684500
H151 H 0.680900 1.003500 -0.739900
H152 H 0.453300 1.178800 -0.533900
H153 H 1.083400 0.835700 -0.295200
H154 H 0.595200 0.300600 1.289800
H155 H 0.848400 0.916500 -0.678700
H156 H 1.006300 -0.152100 0.496500
H157 H 0.994200 0.913200 -0.161000
H158 H 0.243800 0.188100 1.118000
H159 H 0.547100 1.156300 -0.329400
H160 H 0.243800 1.188100 0.118000
H161 H 1.006300 0.847900 -0.503500
H162 H 0.547100 0.156300 0.670600
H163 H 0.595200 1.300600 0.289800
H164 H 0.994200 -0.086800 0.839000
H165 H 0.754200 1.252100 0.165500
H166 H 0.848400 -0.083500 0.321300
H167 H -0.051000 0.936200 0.088000
H168 H 1.083400 -0.164300 0.704800
H169 H 0.045000 0.879200 0.068600
H170 H 0.453300 0.178800 0.466100
H171 H 0.285200 1.128600 -0.079600
H172 H 0.680900 0.003500 0.260100
H173 H 0.440200 1.091900 -0.081900
H174 H 0.524900 0.108000 0.315500
H175 H 0.663500 0.729000 -0.261900
H176 H 0.336500 0.271000 1.261900
H177 H 0.559800 -0.091900 1.081900
H178 H 0.714800 -0.128600 1.079600
H179 H 0.955000 0.120800 0.931400
H180 H 1.051000 0.063800 0.912000
H181 H 0.475100 0.892000 0.684500
H182 H 0.319100 0.996500 0.739900
H183 H 0.546700 0.821200 0.533900
H184 H -0.083400 1.164300 0.295200
H185 H 0.151600 1.083500 0.678700
H186 H 0.005800 1.086800 0.161000
H187 H 0.452900 0.843700 0.329400
H188 H 0.756200 0.811900 -0.118000
H189 H -0.006300 1.152100 0.503500
H190 H 0.404800 0.699400 -0.289800
H191 H 0.245800 0.747900 -0.165500
H192 H 0.545000 0.620800 0.568600
C193 C 0.556500 0.832480 -0.054250
C194 C 0.181700 1.023220 0.405010
C195 C 0.288500 0.838550 0.009620
C196 C 0.372200 1.109870 -0.028420
C197 C 0.132000 1.067200 0.492480
C198 C 0.444500 0.732200 -0.228900
C199 C 0.323100 0.049110 0.042680
C200 C 0.030400 1.120860 0.448300
C201 C 0.403300 0.811390 -0.067010
C202 C 0.651000 0.799650 -0.127800
C203 C 1.096600 0.749680 0.286300
C204 C 0.285900 0.966570 0.444660
C205 C 0.337400 0.957060 0.568910
C206 C 0.422500 0.872970 0.390300
C207 C 0.937100 0.599080 1.101200
C208 C 0.039200 1.081550 0.246000
C209 C 0.784100 0.497060 1.155270
C210 C 0.186100 1.054560 0.619100
C211 C 0.979300 0.640750 1.012600
C212 C -0.015200 1.128000 0.325900
C213 C 0.323100 1.049110 0.042680
C214 C 0.479300 0.859250 0.512600
C215 C 0.484800 0.372000 0.825900
C216 C 0.284100 1.002940 0.655270
C217 C 0.403300 -0.188610 -0.067010
C218 C 0.437100 0.900920 0.601200
C219 C 0.686100 0.445440 1.119100
C220 C 0.596600 0.750320 -0.213700
C221 C 0.403400 0.249680 1.213700
C222 C 0.562900 0.099080 0.398800
C223 C 0.715900 -0.002940 0.344730
C224 C 0.520700 0.140750 0.487400
C225 C 1.015200 -0.128000 0.674100
C226 C 0.539200 0.418450 0.746000
C227 C 0.556500 -0.167520 -0.054250
C228 C 0.922500 0.627030 0.890300
C229 C 0.676900 0.950890 -0.042680
C230 C 0.837400 0.542940 1.068910
C231 C 0.785900 0.533430 0.944660
C232 C 0.350100 -0.238360 -0.155680
C233 C 1.151000 0.700350 0.372200
C234 C 0.596700 1.188610 0.067010
C235 C 0.181700 0.023220 0.405010
C236 C 0.443500 1.167520 0.054250
C237 C 0.649900 1.238360 0.155680
C238 C 0.813900 -0.054560 0.380900
C239 C 0.818300 0.976780 -0.405010
C240 C 0.711500 1.161450 -0.009620
C241 C 0.627800 0.890130 0.028420
C242 C 0.868000 0.932800 -0.492480
C243 C 0.555500 1.267800 0.228900
C244 C 0.960800 -0.081550 0.754000
C245 C 0.969600 0.879140 -0.448300
C246 C 0.577500 0.127030 0.609700
C247 C 0.349000 1.200350 0.127800
C248 C 0.662600 0.042940 0.431090
C249 C 0.714100 1.033430 -0.444660
C250 C 0.662600 1.042940 -0.568910
C251 C 0.577500 1.127030 -0.390300
C252 C 0.714100 0.033430 0.555340
C253 C 0.960800 0.918450 -0.246000
C254 C 0.349000 0.200350 1.127800
C255 C 0.813900 0.945440 -0.619100
C256 C 0.969600 -0.120860 0.551700
C257 C 1.015200 0.872000 -0.325900
C258 C 0.555500 0.267800 1.228900
C259 C 0.520700 1.140750 -0.512600
C260 C 0.868000 -0.067200 0.507520
C261 C 0.715900 0.997060 -0.655270
C262 C 0.627800 -0.109870 1.028420
C263 C 0.562900 1.099080 -0.601200
C264 C 0.711500 0.161450 0.990380
C265 C 0.403400 1.249680 0.213700
C266 C 0.818300 -0.023220 0.594990
C267 C 0.649900 0.238360 1.155680
C268 C 0.443500 0.167520 1.054250
C269 C 0.530400 0.379140 0.948300
C270 C 0.596700 0.188610 1.067010
C271 C 0.288500 -0.161450 0.009620
C272 C 0.944500 0.767800 0.271100
C273 C 0.632000 0.432800 0.992480
C274 C 0.323100 1.049110 1.042680
C275 C 0.872200 0.390130 0.471580
C276 C 0.788500 0.661450 0.509620
C277 C 0.681700 0.476780 0.905010
C278 C 0.372200 0.109870 -0.028420
C279 C 0.403300 0.811390 0.932990
C280 C 0.850100 0.738360 0.344320
C281 C 0.556500 0.832480 0.945750
C282 C 0.350100 0.761640 0.844320
C283 C 1.056500 0.667520 0.445750
C284 C 0.181700 1.023220 1.405010
C285 C 0.288500 0.838550 1.009620
C286 C 0.372200 1.109870 0.971580
C287 C 0.132000 1.067200 1.492480
C288 C 0.444500 0.732200 0.771100
C289 C 0.903300 0.688610 0.432990
C290 C 0.030400 1.120860 1.448300
C291 C 0.823100 0.450890 0.542680
C292 C 0.651000 0.799650 0.872200
C293 C 0.132000 0.067200 0.492480
C294 C 0.285900 0.966570 1.444660
C295 C 0.337400 0.957060 1.568910
C296 C 0.422500 0.872970 1.390300
C297 C 0.676900 -0.049110 0.957320
C298 C 0.039200 1.081550 1.246000
C299 C 0.444500 -0.267800 -0.228900
C300 C 0.186100 1.054560 1.619100
C301 C 0.030400 0.120860 0.448300
C302 C -0.015200 1.128000 1.325900
C303 C 0.651000 -0.200350 -0.127800
C304 C 0.479300 0.859250 1.512600
C305 C 0.596600 -0.249680 0.786300
C306 C 0.284100 1.002940 1.655270
C307 C 0.437100 -0.099080 1.601200
C308 C 0.437100 0.900920 1.601200
C309 C 0.284100 0.002940 1.655270
C310 C 0.596600 0.750320 0.786300
C311 C 0.479300 -0.140750 1.512600
C312 C -0.015200 0.128000 1.325900
C313 C 0.186100 0.054560 1.619100
C314 C 0.039200 0.081550 1.246000
C315 C 0.422500 -0.127030 1.390300
C316 C 0.285900 -0.033430 0.444660
C317 C 0.903400 0.250320 0.713700
C318 C 0.337400 -0.042940 0.568910
C319 C 0.676900 0.950890 0.957320
C320 C 1.062900 0.400920 -0.101200
C321 C 0.422500 -0.127030 0.390300
C322 C 1.215900 0.502940 -0.155270
C323 C 0.039200 0.081550 0.246000
C324 C 0.596700 1.188610 1.067010
C325 C 1.020700 0.359250 -0.012600
C326 C 0.443500 1.167520 1.054250
C327 C 0.649900 1.238360 1.155680
C328 C 0.337400 -0.042940 1.568910
C329 C 0.818300 0.976780 0.594990
C330 C 0.711500 1.161450 0.990380
C331 C 0.627800 0.890130 1.028420
C332 C 0.868000 0.932800 0.507520
C333 C 0.555500 1.267800 1.228900
C334 C 0.285900 -0.033430 1.444660
C335 C 0.969600 0.879140 0.551700
C336 C 0.651000 -0.200350 0.872200
C337 C 0.349000 1.200350 1.127800
C338 C 0.030400 0.120860 1.448300
C339 C 0.714100 1.033430 0.555340
C340 C 0.662600 1.042940 0.431090
C341 C 0.577500 1.127030 0.609700
C342 C 0.444500 -0.267800 0.771100
C343 C 0.960800 0.918450 0.754000
C344 C 0.132000 0.067200 1.492480
C345 C 0.813900 0.945440 0.380900
C346 C 0.372200 0.109870 0.971580
C347 C 1.015200 0.872000 0.674100
C348 C 0.288500 -0.161450 1.009620
C349 C 0.520700 1.140750 0.487400
C350 C 0.181700 0.023220 1.405010
C351 C 0.715900 0.997060 0.344730
C352 C 0.350100 -0.238360 0.844320
C353 C 0.562900 1.099080 0.398800
C354 C 0.556500 -0.167520 0.945750
C355 C 0.403400 1.249680 1.213700
C356 C 0.186100 0.054560 0.619100
C357 C 0.403300 -0.188610 0.932990
C358 C 1.515200 0.628000 0.174100
C359 C -0.015200 0.128000 0.325900
C360 C 1.313900 0.554560 -0.119100
C361 C 0.479300 -0.140750 0.512600
C362 C 1.460800 0.581550 0.254000
C363 C 0.284100 0.002940 0.655270
C364 C 0.176900 0.549110 0.457320
C365 C 1.077500 0.372970 0.109700
C366 C 0.350100 0.761640 -0.155680
C367 C 1.162600 0.457060 -0.068910
C368 C 1.214100 0.466570 0.055340
C369 C 0.096700 0.311390 0.567010
C370 C 0.437100 -0.099080 0.601200
C371 C -0.056500 0.332480 0.554250
C372 C 0.149900 0.261640 0.655680
C373 C 0.849000 0.299650 0.627800
C374 C 0.318300 0.523220 0.094990
C375 C 0.211500 0.338550 0.490380
C376 C 0.127800 0.609870 0.528420
C377 C 0.368000 0.567200 0.007520
C378 C 0.055500 0.232200 0.728900
C379 C 0.323100 0.049110 1.042680
C380 C 0.469600 0.620860 0.051700
C381 C 0.596600 -0.249680 -0.213700
C382 C -0.151000 0.299650 0.627800
C383 C 1.469600 0.620860 0.051700
C384 C 0.214100 0.466570 0.055340
C385 C 0.162600 0.457060 -0.068910
C386 C 0.077500 0.372970 0.109700
C387 C 1.055500 0.232200 0.728900
C388 C 0.460800 0.581550 0.254000
C389 C 0.403400 0.249680 0.213700
C390 C 0.313900 0.554560 -0.119100
C391 C 0.562900 0.099080 -0.601200
C392 C 0.515200 0.628000 0.174100
C393 C 0.715900 -0.002940 -0.655270
C394 C 0.020700 0.359250 -0.012600
C395 C 0.520700 0.140750 -0.512600
C396 C 0.215900 0.502940 -0.155270
C397 C 1.015200 -0.128000 -0.325900
C398 C 0.062900 0.400920 -0.101200
C399 C 0.813900 -0.054560 -0.619100
C400 C -0.096600 0.250320 0.713700
C401 C 0.960800 -0.081550 -0.246000
C402 C 0.577500 0.127030 -0.390300
C403 C 0.662600 0.042940 -0.568910
C404 C 0.714100 0.033430 -0.444660
C405 C 0.349000 0.200350 0.127800
C406 C 1.368000 0.567200 0.007520
C407 C 1.127800 0.609870 0.528420
C408 C 1.211500 0.338550 0.490380
C409 C -0.176900 0.450890 0.542680
C410 C 1.318300 0.523220 0.094990
C411 C 1.149900 0.261640 0.655680
C412 C 0.943500 0.332480 0.554250
C413 C 1.096700 0.311390 0.567010
C414 C -0.096700 0.688610 0.432990
C415 C 1.176900 0.549110 0.457320
C416 C 0.056500 0.667520 0.445750
C417 C -0.149900 0.738360 0.344320
C418 C 0.969600 -0.120860 -0.448300
C419 C -0.318300 0.476780 0.905010
C420 C -0.211500 0.661450 0.509620
C421 C -0.127800 0.390130 0.471580
C422 C -0.368000 0.432800 0.992480
C423 C -0.055500 0.767800 0.271100
C424 C 0.555500 0.267800 0.228900
C425 C -0.469600 0.379140 0.948300
C426 C 0.868000 -0.067200 -0.492480
C427 C 0.151000 0.700350 0.372200
C428 C 0.627800 -0.109870 0.028420
C429 C -0.214100 0.533430 0.944660
C430 C -0.162600 0.542940 1.068910
C431 C -0.077500 0.627030 0.890300
C432 C 0.711500 0.161450 -0.009620
C433 C -0.460800 0.418450 0.746000
C434 C 0.818300 -0.023220 -0.405010
C435 C -0.313900 0.445440 1.119100
C436 C 0.649900 0.238360 0.155680
C437 C -0.515200 0.372000 0.825900
C438 C 0.443500 0.167520 0.054250
C439 C -0.020700 0.640750 1.012600
C440 C 0.676900 -0.049110 -0.042680
C441 C -0.215900 0.497060 1.155270
C442 C 0.596700 0.188610 0.067010
C443 C -0.062900 0.599080 1.101200
C444 C 0.096600 0.749680 0.286300
N445 N 0.135300 1.030580 0.283580
N446 N 0.864700 0.969420 -0.283580
N447 N 0.672050 1.074710 -0.356240
N448 N 0.672050 0.074710 0.643760
N449 N 0.672050 0.074710 -0.356240
N450 N 0.135300 1.030580 1.283580
N451 N 0.135300 0.030580 0.283580
N452 N 1.364700 0.530580 0.216420
N453 N 0.327950 0.925290 1.356240
N454 N -0.172050 0.574710 0.856240
N455 N 0.827950 0.574710 0.856240
N456 N 0.635300 0.469420 0.783580
N457 N 0.864700 -0.030580 0.716420
N458 N 0.864700 0.969420 0.716420
N459 N 0.327950 -0.074710 0.356240
N460 N 1.172050 0.425290 0.143760
N461 N 0.672050 1.074710 0.643760
N462 N 0.327950 -0.074710 1.356240
N463 N 0.864700 -0.030580 -0.283580
N464 N 0.364700 0.530580 0.216420
N465 N 0.172050 0.425290 0.143760
N466 N -0.364700 0.469420 0.783580
N467 N 0.135300 0.030580 1.283580
N468 N 0.327950 0.925290 0.356240
O469 O 0.405650 1.028380 0.136690
O470 O 0.150040 -0.174130 -0.025590
O471 O 0.150040 -0.174130 0.974410
O472 O 0.338130 -0.129060 1.106820
O473 O -0.349960 0.674130 0.474410
O474 O 0.094350 0.528380 0.363310
O475 O 0.302980 0.519290 0.494410
O476 O 0.161870 0.370940 0.393180
O477 O 0.349960 0.325870 0.525590
O478 O -0.161870 0.629060 0.606820
O479 O 0.338130 -0.129060 0.106820
O480 O 0.025420 -0.093530 1.126380
O481 O 0.197020 0.019290 1.005590
O482 O 0.405650 0.028380 1.136690
O483 O -0.474580 0.593530 0.626380
O484 O -0.302980 0.480710 0.505590
O485 O -0.094350 0.471620 0.636690
O486 O 0.802980 0.980710 0.994410
O487 O 0.974580 1.093530 0.873620
O488 O 0.661870 1.129060 0.893180
O489 O 0.849960 1.174130 1.025590
O490 O 1.094350 0.528380 0.363310
O491 O 0.197020 1.019290 0.005590
O492 O 0.474580 0.406470 0.373620
O493 O 1.302980 0.519290 0.494410
O494 O 0.849960 0.174130 1.025590
O495 O 0.661870 0.129060 0.893180
O496 O 0.025420 -0.093530 0.126380
O497 O 1.474580 0.406470 0.373620
O498 O 0.650040 0.674130 0.474410
O499 O 0.974580 0.093530 0.873620
O500 O 0.838130 0.629060 0.606820
O501 O 0.525420 0.593530 0.626380
O502 O 0.697020 0.480710 0.505590
O503 O 0.905650 0.471620 0.636690
O504 O 0.802980 -0.019290 0.994410
O505 O 1.161870 0.370940 0.393180
O506 O 0.594350 -0.028380 0.863310
O507 O 1.349960 0.325870 0.525590
O508 O 0.405650 1.028380 1.136690
O509 O 0.197020 1.019290 1.005590
O510 O 0.025420 0.906470 1.126380
O511 O 0.338130 0.870940 1.106820
O512 O 0.150040 0.825870 0.974410
O513 O 0.849960 0.174130 0.025590
O514 O 0.025420 0.906470 0.126380
O515 O 0.661870 0.129060 -0.106820
O516 O 0.974580 0.093530 -0.126380
O517 O 0.594350 0.971620 -0.136690
O518 O 0.802980 0.980710 -0.005590
O519 O 0.974580 1.093530 -0.126380
O520 O 0.661870 1.129060 -0.106820
O521 O 0.849960 1.174130 0.025590
O522 O 0.802980 -0.019290 -0.005590
O523 O 0.197020 0.019290 0.005590
O524 O 0.594350 0.971620 0.863310
O525 O 0.338130 0.870940 0.106820
O526 O 0.594350 -0.028380 -0.136690
O527 O 0.150040 0.825870 -0.025590
O528 O 0.405650 0.028380 0.136690
Zn529 Zn 0.234580 0.953813 0.176201
Zn530 Zn 0.765420 1.046187 -0.176201
Zn531 Zn 0.234580 0.953813 1.176201
Zn532 Zn 0.734580 0.546187 0.676201
Zn533 Zn 0.765420 1.046187 0.823799
Zn534 Zn 0.265420 0.453813 0.323799
Zn535 Zn 0.765420 0.046187 -0.176201
Zn536 Zn 0.234580 -0.046187 1.176201
Zn537 Zn -0.265420 0.546187 0.676201
Zn538 Zn 1.265420 0.453813 0.323799
Zn539 Zn 0.765420 0.046187 0.823799
Zn540 Zn 0.234580 -0.046187 0.176201

#END
