
#######################################################################
#
#                 Cambridge Crystallographic Data Centre
#                                CCDC 
#
#######################################################################
#
# If this CIF has been generated from an entry in the Cambridge 
# Structural Database, then it will include bibliographic, chemical, 
# crystal, experimental, refinement or atomic coordinate data resulting 
# from the CCDC's data processing and validation procedures.
#
#######################################################################

data_ACOGOQ
_symmetry_cell_setting           triclinic
_symmetry_space_group_name_H-M   'P -1'
_symmetry_Int_Tables_number      2
_space_group_name_Hall           '-P 1'
loop_
_symmetry_equiv_pos_site_id
_symmetry_equiv_pos_as_xyz
1 x,y,z
2 -x,-y,-z
_cell_length_a                   5.7012(6)
_cell_length_b                   7.8232(7)
_cell_length_c                   23.669(3)
_cell_angle_alpha                92.182(8)
_cell_angle_beta                 96.212(8)
_cell_angle_gamma                92.041(8)
_cell_volume                     1047.88
loop_
_atom_site_label
_atom_site_type_symbol
_atom_site_fract_x
_atom_site_fract_y
_atom_site_fract_z
C1 C 0.7746(3) 0.80086(18) -0.01652(6)
H1 H 0.9200 0.8265 0.0063
C2 C 0.6364(2) 0.65221(15) -0.00581(5)
C3 C 0.7136(2) 0.53838(15) 0.03678(5)
C4 C 0.4200(2) 0.61443(15) -0.04198(5)
C5 C 0.3504(2) 0.73139(16) -0.08524(5)
H2 H 0.2064 0.7094 -0.1090
C6 C 0.4859(3) 0.87309(18) -0.09305(6)
H3 H 0.4349 0.9498 -0.1216
C7 C 0.7023(3) 0.90653(19) -0.05878(6)
H4 H 0.7986 1.0039 -0.0653
C8 C 0.9282(2) 0.57706(16) 0.07711(5)
H5 H 1.0481 0.4956 0.0793
C9 C 0.9638(2) 0.71924(15) 0.11057(5)
H6 H 0.8467 0.8024 0.1056
C10 C 1.1627(2) 0.76195(15) 0.15414(5)
C11 C 1.3668(2) 0.66669(16) 0.16104(5)
H7 H 1.3828 0.5720 0.1356
C12 C 1.5450(2) 0.70809(16) 0.20420(5)
H8 H 1.6814 0.6414 0.2081
C13 C 1.5268(2) 0.84697(16) 0.24220(5)
C14 C 1.3300(2) 0.94626(16) 0.23546(5)
H9 H 1.3171 1.0430 0.2603
C15 C 1.1516(2) 0.90251(15) 0.19186(5)
H10 H 1.0169 0.9709 0.1876
C16 C 1.7012(2) 1.01320(16) 0.32498(5)
H11 H 1.5613 0.9969 0.3459
H12 H 1.6899 1.1234 0.3058
C17 C 1.9255(2) 1.01311(16) 0.36556(5)
H13 H 2.0628 1.0273 0.3437
H14 H 1.9355 0.9006 0.3833
C18 C 1.9409(2) 1.15377(16) 0.41249(5)
H15 H 1.9313 1.2665 0.3949
H16 H 1.8045 1.1396 0.4347
C19 C 2.1690(2) 1.15084(16) 0.45261(5)
H17 H 2.3045 1.1666 0.4302
H18 H 2.1795 1.0367 0.4692
C20 C 2.1904(2) 1.28723(16) 0.50101(5)
H19 H 2.0544 1.2726 0.5233
H20 H 2.1827 1.4017 0.4846
C21 C 2.4189(2) 1.27990(16) 0.54092(5)
H21 H 2.4275 1.1645 0.5566
H22 H 2.5544 1.2960 0.5185
C22 C 2.4436(2) 1.41317(16) 0.59031(5)
H23 H 2.4374 1.5289 0.5748
H24 H 2.3081 1.3980 0.6127
C23 C 2.6721(2) 1.40151(16) 0.62963(5)
H25 H 2.8066 1.4113 0.6066
H26 H 2.6746 1.2869 0.6460
C24 C 2.7092(2) 1.53642(16) 0.67830(5)
H27 H 2.7143 1.6514 0.6623
H28 H 2.5733 1.5297 0.7009
C25 C 2.9359(2) 1.51433(17) 0.71729(6)
H29 H 2.9273 1.4009 0.7343
H30 H 3.0704 1.5154 0.6941
C26 C 2.9847(3) 1.65114(18) 0.76503(6)
H31 H 3.0029 1.7635 0.7487
H32 H 3.1302 1.6264 0.7888
H33 H 2.8526 1.6516 0.7883
O1 O 1.71194(15) 0.87513(12) 0.28406(4)
C1A C 0.2254(3) 0.19914(18) 0.01652(6)
H1A H 0.0800 0.1735 -0.0063
C2A C 0.3636(2) 0.34779(15) 0.00581(5)
C3A C 0.2864(2) 0.46162(15) -0.03678(5)
C4A C 0.5800(2) 0.38557(15) 0.04198(5)
C5A C 0.6496(2) 0.26861(16) 0.08524(5)
H2A H 0.7936 0.2906 0.1090
C6A C 0.5141(3) 0.12691(18) 0.09305(6)
H3A H 0.5651 0.0502 0.1216
C7A C 0.2977(3) 0.09347(19) 0.05878(6)
H4A H 0.2014 -0.0039 0.0653
C8A C 0.0718(2) 0.42294(16) -0.07711(5)
H5A H -0.0481 0.5044 -0.0793
C9A C 0.0362(2) 0.28076(15) -0.11057(5)
H6A H 0.1533 0.1976 -0.1056
C10A C -0.1627(2) 0.23805(15) -0.15414(5)
C11A C -0.3668(2) 0.33331(16) -0.16104(5)
H7A H -0.3828 0.4280 -0.1356
C12A C -0.5450(2) 0.29191(16) -0.20420(5)
H8A H -0.6814 0.3586 -0.2081
C13A C -0.5268(2) 0.15303(16) -0.24220(5)
C14A C -0.3300(2) 0.05374(16) -0.23546(5)
H9A H -0.3171 -0.0430 -0.2603
C15A C -0.1516(2) 0.09749(15) -0.19186(5)
H10A H -0.0169 0.0291 -0.1876
C16A C -0.7012(2) -0.01320(16) -0.32498(5)
H11A H -0.5613 0.0031 -0.3459
H12A H -0.6899 -0.1234 -0.3058
C17A C -0.9255(2) -0.01311(16) -0.36556(5)
H13A H -1.0628 -0.0273 -0.3437
H14A H -0.9355 0.0994 -0.3833
C18A C -0.9409(2) -0.15377(16) -0.41249(5)
H15A H -0.9313 -0.2665 -0.3949
H16A H -0.8045 -0.1396 -0.4347
C19A C -1.1690(2) -0.15084(16) -0.45261(5)
H17A H -1.3045 -0.1666 -0.4302
H18A H -1.1795 -0.0367 -0.4692
C20A C -1.1904(2) -0.28723(16) -0.50101(5)
H19A H -1.0544 -0.2726 -0.5233
H20A H -1.1827 -0.4017 -0.4846
C21A C -1.4189(2) -0.27990(16) -0.54092(5)
H21A H -1.4275 -0.1645 -0.5566
H22A H -1.5544 -0.2960 -0.5185
C22A C -1.4436(2) -0.41317(16) -0.59031(5)
H23A H -1.4374 -0.5289 -0.5748
H24A H -1.3081 -0.3980 -0.6127
C23A C -1.6721(2) -0.40151(16) -0.62963(5)
H25A H -1.8066 -0.4113 -0.6066
H26A H -1.6746 -0.2869 -0.6460
C24A C -1.7092(2) -0.53642(16) -0.67830(5)
H27A H -1.7143 -0.6514 -0.6623
H28A H -1.5733 -0.5297 -0.7009
C25A C -1.9359(2) -0.51433(17) -0.71729(6)
H29A H -1.9273 -0.4009 -0.7343
H30A H -2.0704 -0.5154 -0.6941
C26A C -1.9847(3) -0.65114(18) -0.76503(6)
H31A H -2.0029 -0.7635 -0.7487
H32A H -2.1302 -0.6264 -0.7888
H33A H -1.8526 -0.6516 -0.7883
O1A O -0.71194(15) 0.12487(12) -0.28406(4)
C1 C 0.7746(3) 0.80086(18) 0.98348(6)
H1 H 0.9200 0.8265 1.0063
C2 C 0.6364(2) 0.65221(15) 0.99419(5)
C3 C 0.7136(2) 0.53838(15) 1.03678(5)
C4 C 0.4200(2) 0.61443(15) 0.95802(5)
C5 C 0.3504(2) 0.73139(16) 0.91476(5)
H2 H 0.2064 0.7094 0.8910
C6 C 0.4859(3) 0.87309(18) 0.90695(6)
H3 H 0.4349 0.9498 0.8784
C7 C 0.7023(3) 0.90653(19) 0.94122(6)
H4 H 0.7986 1.0039 0.9347
C8 C 0.9282(2) 0.57706(16) 1.07711(5)
H5 H 1.0481 0.4956 1.0793
C9 C 0.9638(2) 0.71924(15) 1.11057(5)
H6 H 0.8467 0.8024 1.1056
C10 C 1.1627(2) 0.76195(15) 1.15414(5)
C11 C 1.3668(2) 0.66669(16) 1.16104(5)
H7 H 1.3828 0.5720 1.1356
C12 C 1.5450(2) 0.70809(16) 1.20420(5)
H8 H 1.6814 0.6414 1.2081
C13 C 1.5268(2) 0.84697(16) 1.24220(5)
C14 C 1.3300(2) 0.94626(16) 1.23546(5)
H9 H 1.3171 1.0430 1.2603
C15 C 1.1516(2) 0.90251(15) 1.19186(5)
H10 H 1.0169 0.9709 1.1876
C16 C 1.7012(2) 1.01320(16) 1.32498(5)
H11 H 1.5613 0.9969 1.3459
H12 H 1.6899 1.1234 1.3058
C17 C 1.9255(2) 1.01311(16) 1.36556(5)
H13 H 2.0628 1.0273 1.3437
H14 H 1.9355 0.9006 1.3833
C18 C 1.9409(2) 1.15377(16) 1.41249(5)
H15 H 1.9313 1.2665 1.3949
H16 H 1.8045 1.1396 1.4347
C19 C 2.1690(2) 1.15084(16) 1.45261(5)
H17 H 2.3045 1.1666 1.4302
H18 H 2.1795 1.0367 1.4692
C20 C 2.1904(2) 1.28723(16) 1.50101(5)
H19 H 2.0544 1.2726 1.5233
H20 H 2.1827 1.4017 1.4846
C21 C 2.4189(2) 1.27990(16) 1.54092(5)
H21 H 2.4275 1.1645 1.5566
H22 H 2.5544 1.2960 1.5185
C22 C 2.4436(2) 1.41317(16) 1.59031(5)
H23 H 2.4374 1.5289 1.5748
H24 H 2.3081 1.3980 1.6127
C23 C 2.6721(2) 1.40151(16) 1.62963(5)
H25 H 2.8066 1.4113 1.6066
H26 H 2.6746 1.2869 1.6460
C24 C 2.7092(2) 1.53642(16) 1.67830(5)
H27 H 2.7143 1.6514 1.6623
H28 H 2.5733 1.5297 1.7009
C25 C 2.9359(2) 1.51433(17) 1.71729(6)
H29 H 2.9273 1.4009 1.7343
H30 H 3.0704 1.5154 1.6941
C26 C 2.9847(3) 1.65114(18) 1.76503(6)
H31 H 3.0029 1.7635 1.7487
H32 H 3.1302 1.6264 1.7888
H33 H 2.8526 1.6516 1.7883
O1 O 1.71194(15) 0.87513(12) 1.28406(4)
C1A C 0.2254(3) 0.19914(18) 1.01652(6)
H1A H 0.0800 0.1735 0.9937
C2A C 0.3636(2) 0.34779(15) 1.00581(5)
C3A C 0.2864(2) 0.46162(15) 0.96322(5)
C4A C 0.5800(2) 0.38557(15) 1.04198(5)
C5A C 0.6496(2) 0.26861(16) 1.08524(5)
H2A H 0.7936 0.2906 1.1090
C6A C 0.5141(3) 0.12691(18) 1.09305(6)
H3A H 0.5651 0.0502 1.1216
C7A C 0.2977(3) 0.09347(19) 1.05878(6)
H4A H 0.2014 -0.0039 1.0653
C8A C 0.0718(2) 0.42294(16) 0.92289(5)
H5A H -0.0481 0.5044 0.9207
C9A C 0.0362(2) 0.28076(15) 0.88943(5)
H6A H 0.1533 0.1976 0.8944
C10A C -0.1627(2) 0.23805(15) 0.84586(5)
C11A C -0.3668(2) 0.33331(16) 0.83896(5)
H7A H -0.3828 0.4280 0.8644
C12A C -0.5450(2) 0.29191(16) 0.79580(5)
H8A H -0.6814 0.3586 0.7919
C13A C -0.5268(2) 0.15303(16) 0.75780(5)
C14A C -0.3300(2) 0.05374(16) 0.76454(5)
H9A H -0.3171 -0.0430 0.7397
C15A C -0.1516(2) 0.09749(15) 0.80814(5)
H10A H -0.0169 0.0291 0.8124
C16A C -0.7012(2) -0.01320(16) 0.67502(5)
H11A H -0.5613 0.0031 0.6541
H12A H -0.6899 -0.1234 0.6942
C17A C -0.9255(2) -0.01311(16) 0.63444(5)
H13A H -1.0628 -0.0273 0.6563
H14A H -0.9355 0.0994 0.6167
C18A C -0.9409(2) -0.15377(16) 0.58751(5)
H15A H -0.9313 -0.2665 0.6051
H16A H -0.8045 -0.1396 0.5653
C19A C -1.1690(2) -0.15084(16) 0.54739(5)
H17A H -1.3045 -0.1666 0.5698
H18A H -1.1795 -0.0367 0.5308
C20A C -1.1904(2) -0.28723(16) 0.49899(5)
H19A H -1.0544 -0.2726 0.4767
H20A H -1.1827 -0.4017 0.5154
C21A C -1.4189(2) -0.27990(16) 0.45908(5)
H21A H -1.4275 -0.1645 0.4434
H22A H -1.5544 -0.2960 0.4815
C22A C -1.4436(2) -0.41317(16) 0.40969(5)
H23A H -1.4374 -0.5289 0.4252
H24A H -1.3081 -0.3980 0.3873
C23A C -1.6721(2) -0.40151(16) 0.37037(5)
H25A H -1.8066 -0.4113 0.3934
H26A H -1.6746 -0.2869 0.3540
C24A C -1.7092(2) -0.53642(16) 0.32170(5)
H27A H -1.7143 -0.6514 0.3377
H28A H -1.5733 -0.5297 0.2991
C25A C -1.9359(2) -0.51433(17) 0.28271(6)
H29A H -1.9273 -0.4009 0.2657
H30A H -2.0704 -0.5154 0.3059
C26A C -1.9847(3) -0.65114(18) 0.23497(6)
H31A H -2.0029 -0.7635 0.2513
H32A H -2.1302 -0.6264 0.2112
H33A H -1.8526 -0.6516 0.2117
O1A O -0.71194(15) 0.12487(12) 0.71594(4)

#END
