
#######################################################################
#
#                 Cambridge Crystallographic Data Centre
#                                CCDC 
#
#######################################################################
#
# If this CIF has been generated from an entry in the Cambridge 
# Structural Database, then it will include bibliographic, chemical, 
# crystal, experimental, refinement or atomic coordinate data resulting 
# from the CCDC's data processing and validation procedures.
#
#######################################################################

data_ACOGOO
_symmetry_cell_setting           triclinic
_symmetry_space_group_name_H-M   'P -1'
_symmetry_Int_Tables_number      2
_space_group_name_Hall           '-P 1'
loop_
_symmetry_equiv_pos_site_id
_symmetry_equiv_pos_as_xyz
1 x,y,z
2 -x,-y,-z
_cell_length_a                   8.377(2)
_cell_length_b                   11.294(2)
_cell_length_c                   11.685(2)
_cell_angle_alpha                99.45(3)
_cell_angle_beta                 105.12(3)
_cell_angle_gamma                109.73(3)
_cell_volume                     965.112
loop_
_atom_site_label
_atom_site_type_symbol
_atom_site_fract_x
_atom_site_fract_y
_atom_site_fract_z
O1 O 0.4092(2) 1.1479(2) 0.8473(2)
H1 H 0.4668(28) 1.1704(6) 0.8000(14)
O2 O 0.2991(2) 0.9506(2) 0.7123(2)
O3 O 0.0083(3) 1.0396(2) 0.6578(2)
H2 H 0.0375(36) 1.0722(2) 0.6029(11)
O4 O -0.0873(3) 0.8506(2) 0.5121(2)
C1 C 0.2039(3) 0.9713(2) 0.8856(2)
C2 C 0.0212(3) 0.8776(2) 0.8365(2)
C3 C -0.0964(3) 0.8429(2) 0.7118(2)
C4 C -0.2686(4) 0.7488(3) 0.6729(3)
H3 H -0.3427(4) 0.7252(3) 0.5890(3)
C5 C -0.3371(4) 0.6868(3) 0.7544(3)
H4 H -0.4571(4) 0.6223(3) 0.7261(3)
C6 C -0.2313(4) 0.7194(3) 0.8740(3)
H5 H -0.2788(4) 0.6773(3) 0.9289(3)
C7 C -0.0516(4) 0.8148(3) 0.9192(3)
C8 C 0.0542(4) 0.8505(3) 1.0447(3)
H6 H 0.0062(4) 0.8069(3) 1.0986(3)
C9 C 0.2235(4) 0.9463(3) 1.0901(3)
H7 H 0.2911(4) 0.9720(3) 1.1756(3)
C10 C 0.2979(4) 1.0067(3) 1.0097(2)
H8 H 0.4162(4) 1.0739(3) 1.0419(2)
C11 C 0.3065(3) 1.0227(2) 0.8050(2)
C12 C -0.0532(3) 0.9119(2) 0.6192(2)
O1 O 0.5908(2) -0.1479(2) 0.1527(2)
H1 H 0.5332(28) -0.1704(6) 0.2000(14)
O2 O 0.7009(2) 0.0494(2) 0.2877(2)
O3 O 0.9917(3) -0.0396(2) 0.3422(2)
H2 H 0.9625(36) -0.0722(2) 0.3971(11)
O4 O 1.0873(3) 0.1494(2) 0.4879(2)
C1 C 0.7961(3) 0.0287(2) 0.1144(2)
C2 C 0.9788(3) 0.1224(2) 0.1635(2)
C3 C 1.0964(3) 0.1571(2) 0.2882(2)
C4 C 1.2686(4) 0.2512(3) 0.3271(3)
H3 H 1.3427(4) 0.2748(3) 0.4110(3)
C5 C 1.3371(4) 0.3132(3) 0.2456(3)
H4 H 1.4571(4) 0.3777(3) 0.2739(3)
C6 C 1.2313(4) 0.2806(3) 0.1260(3)
H5 H 1.2788(4) 0.3227(3) 0.0711(3)
C7 C 1.0516(4) 0.1852(3) 0.0808(3)
C8 C 0.9458(4) 0.1495(3) -0.0447(3)
H6 H 0.9938(4) 0.1931(3) -0.0986(3)
C9 C 0.7765(4) 0.0537(3) -0.0901(3)
H7 H 0.7089(4) 0.0280(3) -0.1756(3)
C10 C 0.7021(4) -0.0067(3) -0.0097(2)
H8 H 0.5838(4) -0.0739(3) -0.0419(2)
C11 C 0.6935(3) -0.0227(2) 0.1950(2)
C12 C 1.0532(3) 0.0881(2) 0.3808(2)
N1 N -0.4036(3) 0.2406(2) 0.7118(2)
N2 N -0.3048(3) 0.4766(3) 0.0505(2)
C13 C -0.3825(4) 0.1652(3) 0.6215(2)
H9 H -0.4381(4) 0.0729(3) 0.6062(2)
C14 C -0.2848(4) 0.2132(3) 0.5493(2)
H10 H -0.2723(4) 0.1547(3) 0.4872(2)
C15 C -0.2051(3) 0.3465(3) 0.5672(2)
C16 C -0.2292(4) 0.4255(3) 0.6607(3)
H11 H -0.1787(4) 0.5179(3) 0.6758(3)
C17 C -0.3265(4) 0.3697(3) 0.7317(3)
H12 H -0.3385(4) 0.4254(3) 0.7964(3)
C18 C -0.0919(4) 0.3982(3) 0.4907(3)
H13 H -0.1076(4) 0.3249(3) 0.4220(3)
C19 C -0.1161(4) 0.5116(3) 0.4403(2)
H14 H -0.1901(4) 0.5462(3) 0.4795(2)
C20 C -0.1868(3) 0.4895(3) 0.3024(2)
C21 C -0.2328(4) 0.5857(3) 0.2614(2)
H15 H -0.2241(4) 0.6595(3) 0.3191(2)
C22 C -0.2908(4) 0.5746(3) 0.1380(3)
H16 H -0.3235(4) 0.6415(3) 0.1131(3)
C23 C -0.2052(4) 0.3845(3) 0.2129(3)
H17 H -0.1792(4) 0.3142(3) 0.2354(3)
C24 C -0.2624(4) 0.3830(3) 0.0893(3)
H18 H -0.2718(4) 0.3109(3) 0.0292(3)
C18A C 0.0919(4) 0.6018(3) 0.5093(3)
C15A C 0.2051(3) 0.6535(3) 0.4328(2)
C14A C 0.2848(4) 0.7868(3) 0.4507(2)
C13A C 0.3825(4) 0.8348(3) 0.3785(2)
N1A N 0.4036(3) 0.7594(2) 0.2882(2)
C17A C 0.3265(4) 0.6303(3) 0.2683(3)
C16A C 0.2292(4) 0.5745(3) 0.3393(3)
H11A H 0.1787(4) 0.4821(3) 0.3242(3)
H12A H 0.3385(4) 0.5746(3) 0.2036(3)
H9A H 0.4381(4) 0.9271(3) 0.3938(2)
H10A H 0.2723(4) 0.8453(3) 0.5128(2)
H13A H 0.1076(4) 0.6751(3) 0.5780(3)
C19A C 0.1161(4) 0.4884(3) 0.5597(2)
H14A H 0.1901(4) 0.4538(3) 0.5205(2)
C20A C 0.1868(3) 0.5105(3) 0.6976(2)
C21A C 0.2328(4) 0.4143(3) 0.7386(2)
H15A H 0.2241(4) 0.3405(3) 0.6809(2)
C22A C 0.2908(4) 0.4254(3) 0.8620(3)
N2A N 0.3048(3) 0.5234(3) 0.9495(2)
C24A C 0.2624(4) 0.6170(3) 0.9107(3)
C23A C 0.2052(4) 0.6155(3) 0.7871(3)
H17A H 0.1792(4) 0.6858(3) 0.7646(3)
H18A H 0.2718(4) 0.6891(3) 0.9708(3)
H16A H 0.3235(4) 0.3585(3) 0.8869(3)
N1 N 0.5964(3) 0.2406(2) 0.7118(2)
N2 N 0.6952(3) 0.4766(3) 0.0505(2)
C13 C 0.6175(4) 0.1652(3) 0.6215(2)
H9 H 0.5619(4) 0.0729(3) 0.6062(2)
C14 C 0.7152(4) 0.2132(3) 0.5493(2)
H10 H 0.7277(4) 0.1547(3) 0.4872(2)
C15 C 0.7949(3) 0.3465(3) 0.5672(2)
C16 C 0.7708(4) 0.4255(3) 0.6607(3)
H11 H 0.8213(4) 0.5179(3) 0.6758(3)
C17 C 0.6735(4) 0.3697(3) 0.7317(3)
H12 H 0.6615(4) 0.4254(3) 0.7964(3)
C18 C 0.9081(4) 0.3982(3) 0.4907(3)
H13 H 0.8924(4) 0.3249(3) 0.4220(3)
C19 C 0.8839(4) 0.5116(3) 0.4403(2)
H14 H 0.8099(4) 0.5462(3) 0.4795(2)
C20 C 0.8132(3) 0.4895(3) 0.3024(2)
C21 C 0.7672(4) 0.5857(3) 0.2614(2)
H15 H 0.7759(4) 0.6595(3) 0.3191(2)
C22 C 0.7092(4) 0.5746(3) 0.1380(3)
H16 H 0.6765(4) 0.6415(3) 0.1131(3)
C23 C 0.7948(4) 0.3845(3) 0.2129(3)
H17 H 0.8208(4) 0.3142(3) 0.2354(3)
C24 C 0.7376(4) 0.3830(3) 0.0893(3)
H18 H 0.7282(4) 0.3109(3) 0.0292(3)
C18A C 1.0919(4) 0.6018(3) 0.5093(3)
C15A C 1.2051(3) 0.6535(3) 0.4328(2)
C14A C 1.2848(4) 0.7868(3) 0.4507(2)
C13A C 1.3825(4) 0.8348(3) 0.3785(2)
N1A N 1.4036(3) 0.7594(2) 0.2882(2)
C17A C 1.3265(4) 0.6303(3) 0.2683(3)
C16A C 1.2292(4) 0.5745(3) 0.3393(3)
H11A H 1.1787(4) 0.4821(3) 0.3242(3)
H12A H 1.3385(4) 0.5746(3) 0.2036(3)
H9A H 1.4381(4) 0.9271(3) 0.3938(2)
H10A H 1.2723(4) 0.8453(3) 0.5128(2)
H13A H 1.1076(4) 0.6751(3) 0.5780(3)
C19A C 1.1161(4) 0.4884(3) 0.5597(2)
H14A H 1.1901(4) 0.4538(3) 0.5205(2)
C20A C 1.1868(3) 0.5105(3) 0.6976(2)
C21A C 1.2328(4) 0.4143(3) 0.7386(2)
H15A H 1.2241(4) 0.3405(3) 0.6809(2)
C22A C 1.2908(4) 0.4254(3) 0.8620(3)
N2A N 1.3048(3) 0.5234(3) 0.9495(2)
C24A C 1.2624(4) 0.6170(3) 0.9107(3)
C23A C 1.2052(4) 0.6155(3) 0.7871(3)
H17A H 1.1792(4) 0.6858(3) 0.7646(3)
H18A H 1.2718(4) 0.6891(3) 0.9708(3)
H16A H 1.3235(4) 0.3585(3) 0.8869(3)

#END
