./ACOHKT_from_POSCAR.cif_generated_by_CrystalShift
_symmetry_cell_setting triclinic
_symmetry_space_group_name_H-M 'P 1'
loop_
_symmetry_equiv_pos_site_id
_symmetry_equiv_pos_as_xyz
1 x,y,z
_cell_length_a 7.386000
_cell_length_b 8.904000
_cell_length_c 9.684000
_cell_angle_alpha 82.290000
_cell_angle_beta 74.460000
_cell_angle_gamma 82.290000
_cell_volume 604.813259
loop_
_atom_site_label
_atom_site_type_symbol
_atom_site_fract_x
_atom_site_fract_y
_atom_site_fract_z
H1 H 0.787400 0.320100 0.914200
H2 H 0.696500 0.902200 0.515600
H3 H 0.563900 0.827500 0.487900
H4 H 0.649000 0.625300 0.939700
H5 H 1.009800 0.545800 0.749700
H6 H 0.882500 0.351200 0.676900
H7 H 0.720400 0.482700 0.542800
H8 H 0.585700 0.369500 0.648000
H9 H 0.411800 0.624500 0.662800
H10 H 0.447800 0.571700 0.814300
H11 H 0.837800 1.061300 0.672800
H12 H 0.997800 1.012600 0.738800
H13 H 0.800500 0.979000 0.819000
H14 H 0.837100 0.792500 1.171900
H15 H 0.701600 0.654500 1.193900
H16 H 0.692100 0.800700 1.109700
H17 H 0.199500 0.021000 0.181000
H18 H 0.002200 -0.012600 0.261200
H19 H 0.162200 -0.061300 0.327200
H20 H 0.552200 0.428300 0.185700
H21 H 0.588200 0.375500 0.337200
H22 H 0.414300 0.630500 0.352000
H23 H 0.279600 0.517300 0.457200
H24 H 0.117500 0.648800 0.323100
H25 H -0.009800 0.454200 0.250300
H26 H 0.351000 0.374700 0.060300
H27 H 0.436100 0.172500 0.512100
H28 H 0.303500 0.097800 0.484400
H29 H 0.244100 0.273500 0.530100
H30 H 0.477900 0.032200 0.260900
H31 H 0.626100 0.131000 0.277100
H32 H 0.566000 0.158400 0.137400
H33 H 0.307900 0.199300 -0.109700
H34 H 0.298400 0.345500 -0.193900
H35 H 0.162900 0.207500 -0.171900
H36 H 0.212600 0.679900 0.085800
H37 H 0.522100 0.967800 0.739100
H38 H 0.373900 0.869000 0.722900
H39 H 0.434000 0.841600 0.862600
H40 H 0.755900 0.726500 0.469900
C41 C 0.513700 0.601900 0.704000
C42 C 0.646600 0.465300 0.647100
C43 C 0.791100 0.417800 0.733700
C44 C 0.876200 0.554000 0.762800
C45 C 0.774300 0.642600 0.890600
C46 C 0.664400 0.803700 0.522500
C47 C 0.473100 0.870800 0.765000
C48 C 0.885400 0.692500 0.980800
C49 C 0.775100 0.746400 1.122800
C50 C 0.795000 0.715300 0.736100
C51 C 0.897500 0.982800 0.738900
C52 C 0.938300 0.828900 0.681000
C53 C 0.224900 0.253600 -0.122800
C54 C 0.114600 0.307500 0.019200
C55 C 0.526900 0.129200 0.235000
C56 C 0.335600 0.196300 0.477500
C57 C 0.225700 0.357400 0.109400
C58 C 0.123800 0.446000 0.237200
C59 C 0.208900 0.582200 0.266300
C60 C 0.353400 0.534700 0.352900
C61 C 0.486300 0.398100 0.296000
C62 C 0.387600 0.251100 0.318000
C63 C 0.205000 0.284700 0.263900
C64 C 0.102500 0.017200 0.261100
C65 C 0.612400 0.748900 0.682000
C66 C 0.061700 0.171100 0.319000
O67 O 1.084100 0.797100 0.590600
O68 O -0.056400 0.312200 0.058000
O69 O 0.301000 0.665500 0.135300
O70 O -0.084100 0.202900 0.409400
O71 O 0.699000 0.334500 0.864700
O72 O 1.056400 0.687800 0.942000

#END
