./ACOHUV_from_POSCAR.cif_generated_by_CrystalShift
_symmetry_cell_setting triclinic
_symmetry_space_group_name_H-M 'P 1'
loop_
_symmetry_equiv_pos_site_id
_symmetry_equiv_pos_as_xyz
1 x,y,z
_cell_length_a 11.830000
_cell_length_b 8.693300
_cell_length_c 14.914000
_cell_angle_alpha 90.000000
_cell_angle_beta 90.000000
_cell_angle_gamma 90.000000
_cell_volume 1533.781695
loop_
_atom_site_label
_atom_site_type_symbol
_atom_site_fract_x
_atom_site_fract_y
_atom_site_fract_z
H1 H 0.329800 -0.026000 0.802800
H2 H 0.014300 0.427700 0.792000
H3 H 0.670200 1.026000 1.302800
H4 H 0.069600 0.280100 0.671000
H5 H 0.417600 0.543900 0.657900
H6 H 0.361500 0.708500 0.679800
H7 H -0.301000 0.478200 0.689300
H8 H 0.211900 0.598700 0.750300
H9 H 0.250000 0.441600 0.701300
H10 H 0.123900 -0.475100 0.552700
H11 H 0.251300 0.450000 0.873000
H12 H 0.352100 0.360400 0.822600
H13 H 0.141100 -0.398700 0.454900
H14 H 0.130300 -0.242800 0.623700
H15 H 0.526500 0.558900 0.779100
H16 H 0.481900 0.731800 0.793600
H17 H 0.216500 -0.208700 0.542600
H18 H -0.053800 -0.436200 0.457800
H19 H 0.606700 0.342000 0.999600
H20 H 0.529000 0.311100 0.912800
H21 H -0.062100 -0.389000 0.562300
H22 H 0.562100 0.111000 1.062300
H23 H 0.553800 0.063800 0.957800
H24 H -0.029000 -0.188900 0.412800
H25 H 0.283500 0.291300 1.042600
H26 H 0.369700 0.257200 1.123700
H27 H -0.106700 -0.158000 0.499600
H28 H 0.358900 0.101300 0.954900
H29 H 0.376100 0.024900 1.052700
H30 H 0.018100 0.231800 0.293600
H31 H -0.026500 0.058900 0.279100
H32 H 0.147900 -0.139600 0.322600
H33 H 0.248700 -0.050000 0.373000
H34 H 0.801000 0.978200 1.189300
H35 H 0.250000 -0.058400 0.201300
H36 H 0.430400 0.780100 1.171000
H37 H 0.288100 0.098700 0.250300
H38 H 0.138500 0.208500 0.179800
H39 H 0.485700 0.927700 1.292000
H40 H 0.082400 0.043900 0.157900
H41 H -0.170200 0.526000 0.802800
H42 H 0.638500 0.291500 0.179800
H43 H 0.582400 0.456100 0.157900
H44 H 1.170200 0.474000 1.302800
H45 H 0.514300 0.072300 0.792000
H46 H 0.917600 0.956100 0.657900
H47 H 0.861500 0.791500 0.679800
H48 H 0.569600 0.219900 0.671000
H49 H 0.711900 0.901300 0.750300
H50 H 0.750000 1.058400 0.701300
H51 H 0.199000 0.021800 0.689300
H52 H 0.751300 1.050000 0.873000
H53 H 0.852100 1.139600 0.822600
H54 H 0.623900 0.975100 0.552700
H55 H 0.641100 0.898700 0.454900
H56 H 1.026500 0.941100 0.779100
H57 H 0.981900 0.768200 0.793600
H58 H 0.630300 0.742800 0.623700
H59 H 0.716500 0.708700 0.542600
H60 H 1.106700 1.158000 0.999600
H61 H 1.029000 1.188900 0.912800
H62 H 0.446200 0.936200 0.457800
H63 H 1.062100 1.389000 1.062300
H64 H 1.053800 1.436200 0.957800
H65 H 0.437900 0.889000 0.562300
H66 H 0.783500 1.208700 1.042600
H67 H 0.869700 1.242800 1.123700
H68 H 0.471000 0.688900 0.412800
H69 H 0.858900 1.398700 0.954900
H70 H 0.876100 1.475100 1.052700
H71 H 0.393300 0.658000 0.499600
H72 H 0.518100 0.268200 0.293600
H73 H 0.473500 0.441100 0.279100
H74 H 0.647900 0.639600 0.322600
H75 H 1.301000 0.521800 1.189300
H76 H 0.748700 0.550000 0.373000
H77 H 0.930400 0.719900 1.171000
H78 H 0.750000 0.558400 0.201300
H79 H 0.788100 0.401300 0.250300
H80 H 0.985700 0.572300 1.292000
Li81 Li 1.416200 0.597000 0.994900
Li82 Li 0.583800 0.403000 0.494900
Li83 Li 0.083800 0.097000 0.494900
Li84 Li 0.916200 0.903000 0.994900
Li85 Li 0.416200 0.597000 0.994900
Li86 Li -0.416200 0.403000 0.494900
C87 C 0.351100 0.033000 0.751900
C88 C 0.648900 0.967000 1.251900
C89 C 0.725100 0.474800 0.241800
C90 C 1.038300 0.592800 1.245400
C91 C -0.038300 0.407200 0.745400
C92 C 0.684800 0.538400 0.330700
C93 C 1.004900 0.679600 1.173500
C94 C 1.226100 0.560400 1.184400
C95 C 0.381000 0.606600 0.705100
C96 C 0.541900 0.376700 0.286500
C97 C 1.193700 0.645900 1.108000
C98 C 1.082000 0.709000 1.103000
C99 C -0.004900 0.320400 0.673500
C100 C 0.466300 0.700700 0.478750
C101 C 0.274900 0.525200 0.741800
C102 C 0.895600 1.386200 1.014100
C103 C 0.476900 0.867700 0.504900
C104 C 0.862500 1.235900 1.057700
C105 C 1.023100 1.367700 1.004900
C106 C 0.637500 0.735900 0.557700
C107 C 1.033700 1.200700 0.978750
C108 C -0.226100 0.439600 0.684400
C109 C 0.604400 0.886200 0.514100
C110 C 0.958100 0.876700 0.786500
C111 C -0.193700 0.354100 0.608000
C112 C -0.082000 0.291000 0.603000
C113 C 0.418000 0.209000 0.603000
C114 C 0.306300 0.145900 0.608000
C115 C 0.273900 0.060400 0.684400
C116 C 0.815200 1.038400 0.830700
C117 C 0.495100 0.179600 0.673500
C118 C 0.774900 0.974800 0.741800
C119 C 0.315200 0.461600 0.830700
C120 C 0.461700 0.092800 0.745400
C121 C 0.881000 0.893400 0.705100
C122 C 0.104400 -0.386200 0.514100
C123 C 0.458100 0.623300 0.786500
C124 C 1.148900 0.533000 1.251900
C125 C -0.148900 0.467000 0.751900
C126 C 0.137500 -0.235900 0.557700
C127 C 0.119000 0.106600 0.205100
C128 C 0.533700 0.299300 0.978750
C129 C 0.538300 0.907200 1.245400
C130 C 0.225100 0.025200 0.241800
C131 C 0.523100 0.132300 1.004900
C132 C 0.504900 0.820400 1.173500
C133 C 0.184800 -0.038400 0.330700
C134 C 0.726100 0.939600 1.184400
C135 C 0.693700 0.854100 1.108000
C136 C -0.023100 -0.367700 0.504900
C137 C 0.041900 0.123300 0.286500
C138 C 0.582000 0.791000 1.103000
C139 C 0.362500 0.264100 1.057700
C140 C 0.395600 0.113800 1.014100
C141 C -0.033700 -0.200700 0.478750
C142 C 0.619000 0.393400 0.205100
N143 N -0.260900 0.327200 0.535460
N144 N 1.057400 0.788300 1.026610
N145 N 0.557400 0.711700 1.026610
N146 N 0.760900 0.827200 1.035460
N147 N 0.260900 0.672800 1.035460
N148 N 1.260900 0.672800 1.035460
N149 N 0.739100 0.327200 0.535460
N150 N 0.239100 0.172800 0.535460
N151 N -0.057400 0.211700 0.526610
N152 N 0.442600 0.288300 0.526610
O153 O 0.439990 0.377200 1.022070
O154 O 0.894950 0.925900 0.863050
O155 O 0.939990 1.122800 1.022070
O156 O 0.105050 0.074100 0.363050
O157 O 0.560010 0.622800 0.522070
O158 O 0.605050 0.425900 0.363050
O159 O 0.394950 0.574100 0.863050
O160 O 0.060010 -0.122800 0.522070
As161 As 0.319610 0.283530 0.457140
As162 As 0.680390 0.716470 0.957140
As163 As -0.180390 0.216470 0.457140
As164 As 1.180390 0.783530 0.957140

#END
