
#######################################################################
#
#                 Cambridge Crystallographic Data Centre
#                                CCDC 
#
#######################################################################
#
# If this CIF has been generated from an entry in the Cambridge 
# Structural Database, then it will include bibliographic, chemical, 
# crystal, experimental, refinement or atomic coordinate data resulting 
# from the CCDC's data processing and validation procedures.
#
#######################################################################

data_ACOJIN
_symmetry_cell_setting           orthorhombic
_symmetry_space_group_name_H-M   'P b c a'
_symmetry_Int_Tables_number      61
_space_group_name_Hall           '-P 2ac 2ab'
loop_
_symmetry_equiv_pos_site_id
_symmetry_equiv_pos_as_xyz
1 x,y,z
2 1/2+x,1/2-y,-z
3 -x,1/2+y,1/2-z
4 1/2-x,-y,1/2+z
5 -x,-y,-z
6 1/2-x,1/2+y,z
7 x,1/2-y,1/2+z
8 1/2+x,y,1/2-z
_cell_length_a                   8.9306(4)
_cell_length_b                   17.9709(7)
_cell_length_c                   19.8097(8)
_cell_angle_alpha                90
_cell_angle_beta                 90
_cell_angle_gamma                90
_cell_volume                     3179.28
loop_
_atom_site_label
_atom_site_type_symbol
_atom_site_fract_x
_atom_site_fract_y
_atom_site_fract_z
O1 O 0.0558(3) -0.02235(17) 0.06708(14)
O2 O 0.5281(3) 0.10277(17) 0.10519(16)
C1 C 0.0149(5) -0.1874(2) 0.1686(2)
H1 H -0.0517 -0.2269 0.1725
C2 C -0.0105(5) -0.1328(2) 0.1224(2)
H2 H -0.0953 -0.1349 0.0952
C3 C 0.0903(4) -0.0736(2) 0.11568(19)
C4 C 0.1334(6) 0.0455(3) 0.0716(3)
H3 H 0.0884 0.0747 0.1075
H4 H 0.1184 0.0726 0.0298
C5 C 0.2925(4) 0.0409(2) 0.08423(19)
H5 H 0.3304 0.0134 0.0451
C6 C 0.3842(5) 0.1083(3) 0.0848(2)
H6 H 0.3381 0.1381 0.1207
C7 C 0.3746(4) 0.1589(2) 0.02470(18)
C8 C 0.4397(5) 0.1406(2) -0.0363(2)
H7 H 0.4907 0.0957 -0.0403
C9 C 0.4313(5) 0.1867(3) -0.0910(2)
H8 H 0.4762 0.1732 -0.1315
C10 C 0.3571(5) 0.2523(3) -0.0858(2)
H9 H 0.3525 0.2843 -0.1227
C11 C 0.1397(5) -0.1840(2) 0.2099(2)
H10 H 0.1558 -0.2204 0.2425
C12 C 0.2398(5) -0.1265(2) 0.20217(18)
H11 H 0.3239 -0.1250 0.2298
C13 C 0.2201(4) -0.0705(2) 0.15476(17)
C14 C 0.5658(4) 0.0607(2) 0.16488(19)
C15 C 0.4523(4) 0.0011(2) 0.17820(18)
H12 H 0.4704 -0.0309 0.2142
C16 C 0.3282(4) -0.00980(19) 0.14279(16)
C17 C 0.5783(6) 0.1130(3) 0.2245(2)
H13 H 0.6591 0.1473 0.2170
H14 H 0.5975 0.0848 0.2648
H15 H 0.4864 0.1401 0.2296
C18 C 0.7174(4) 0.0268(3) 0.1492(2)
H16 H 0.7075 -0.0077 0.1125
H17 H 0.7543 0.0012 0.1883
H18 H 0.7862 0.0655 0.1367
C19 C 0.2894(6) 0.2715(3) -0.0268(3)
H19 H 0.2374 0.3162 -0.0238
C20 C 0.2974(5) 0.2255(3) 0.0280(2)
H20 H 0.2504 0.2392 0.0680
O1 O 0.5558(3) 0.52235(17) 0.93292(14)
O2 O 1.0281(3) 0.39723(17) 0.89481(16)
C1 C 0.5149(5) 0.6874(2) 0.8314(2)
H1 H 0.4483 0.7269 0.8275
C2 C 0.4895(5) 0.6328(2) 0.8776(2)
H2 H 0.4047 0.6349 0.9048
C3 C 0.5903(4) 0.5736(2) 0.88432(19)
C4 C 0.6334(6) 0.4545(3) 0.9284(3)
H3 H 0.5884 0.4253 0.8925
H4 H 0.6184 0.4274 0.9702
C5 C 0.7925(4) 0.4591(2) 0.91577(19)
H5 H 0.8304 0.4866 0.9549
C6 C 0.8842(5) 0.3917(3) 0.9152(2)
H6 H 0.8381 0.3619 0.8793
C7 C 0.8746(4) 0.3411(2) 0.97530(18)
C8 C 0.9397(5) 0.3594(2) 1.0363(2)
H7 H 0.9907 0.4043 1.0403
C9 C 0.9313(5) 0.3133(3) 1.0910(2)
H8 H 0.9762 0.3268 1.1315
C10 C 0.8571(5) 0.2477(3) 1.0858(2)
H9 H 0.8525 0.2157 1.1227
C11 C 0.6397(5) 0.6840(2) 0.7901(2)
H10 H 0.6558 0.7204 0.7575
C12 C 0.7398(5) 0.6265(2) 0.79783(18)
H11 H 0.8239 0.6250 0.7702
C13 C 0.7201(4) 0.5705(2) 0.84524(17)
C14 C 1.0658(4) 0.4393(2) 0.83512(19)
C15 C 0.9523(4) 0.4989(2) 0.82180(18)
H12 H 0.9704 0.5309 0.7858
C16 C 0.8282(4) 0.50980(19) 0.85721(16)
C17 C 1.0783(6) 0.3870(3) 0.7755(2)
H13 H 1.1591 0.3527 0.7830
H14 H 1.0975 0.4152 0.7352
H15 H 0.9864 0.3599 0.7704
C18 C 1.2174(4) 0.4732(3) 0.8508(2)
H16 H 1.2075 0.5077 0.8875
H17 H 1.2543 0.4988 0.8117
H18 H 1.2862 0.4345 0.8633
C19 C 0.7894(6) 0.2285(3) 1.0268(3)
H19 H 0.7374 0.1838 1.0238
C20 C 0.7974(5) 0.2745(3) 0.9720(2)
H20 H 0.7504 0.2608 0.9320
O1 O 0.9442(3) 0.47765(17) 0.43292(14)
O2 O 0.4719(3) 0.60277(17) 0.39481(16)
C1 C 0.9851(5) 0.3126(2) 0.3314(2)
H1 H 1.0517 0.2731 0.3275
C2 C 1.0105(5) 0.3672(2) 0.3776(2)
H2 H 1.0953 0.3651 0.4048
C3 C 0.9097(4) 0.4264(2) 0.38432(19)
C4 C 0.8666(6) 0.5455(3) 0.4284(3)
H3 H 0.9116 0.5747 0.3925
H4 H 0.8816 0.5726 0.4702
C5 C 0.7075(4) 0.5409(2) 0.41577(19)
H5 H 0.6696 0.5134 0.4549
C6 C 0.6158(5) 0.6083(3) 0.4152(2)
H6 H 0.6619 0.6381 0.3793
C7 C 0.6254(4) 0.6589(2) 0.47530(18)
C8 C 0.5603(5) 0.6406(2) 0.5363(2)
H7 H 0.5093 0.5957 0.5403
C9 C 0.5687(5) 0.6867(3) 0.5910(2)
H8 H 0.5238 0.6732 0.6315
C10 C 0.6429(5) 0.7523(3) 0.5858(2)
H9 H 0.6475 0.7843 0.6227
C11 C 0.8603(5) 0.3160(2) 0.2901(2)
H10 H 0.8442 0.2796 0.2575
C12 C 0.7602(5) 0.3735(2) 0.29783(18)
H11 H 0.6761 0.3750 0.2702
C13 C 0.7799(4) 0.4295(2) 0.34524(17)
C14 C 0.4342(4) 0.5607(2) 0.33512(19)
C15 C 0.5477(4) 0.5011(2) 0.32180(18)
H12 H 0.5296 0.4691 0.2858
C16 C 0.6718(4) 0.49020(19) 0.35721(16)
C17 C 0.4217(6) 0.6130(3) 0.2755(2)
H13 H 0.3409 0.6473 0.2830
H14 H 0.4025 0.5848 0.2352
H15 H 0.5136 0.6401 0.2704
C18 C 0.2826(4) 0.5268(3) 0.3508(2)
H16 H 0.2925 0.4923 0.3875
H17 H 0.2457 0.5012 0.3117
H18 H 0.2138 0.5655 0.3633
C19 C 0.7106(6) 0.7715(3) 0.5268(3)
H19 H 0.7626 0.8162 0.5238
C20 C 0.7026(5) 0.7255(3) 0.4720(2)
H20 H 0.7496 0.7392 0.4320
O1 O 0.4442(3) 1.02235(17) 0.56708(14)
O2 O -0.0281(3) 0.89723(17) 0.60519(16)
C1 C 0.4851(5) 1.1874(2) 0.6686(2)
H1 H 0.5517 1.2269 0.6725
C2 C 0.5105(5) 1.1328(2) 0.6224(2)
H2 H 0.5953 1.1349 0.5952
C3 C 0.4097(4) 1.0736(2) 0.61568(19)
C4 C 0.3666(6) 0.9545(3) 0.5716(3)
H3 H 0.4116 0.9253 0.6075
H4 H 0.3816 0.9274 0.5298
C5 C 0.2075(4) 0.9591(2) 0.58423(19)
H5 H 0.1696 0.9866 0.5451
C6 C 0.1158(5) 0.8917(3) 0.5848(2)
H6 H 0.1619 0.8619 0.6207
C7 C 0.1254(4) 0.8411(2) 0.52470(18)
C8 C 0.0603(5) 0.8594(2) 0.4637(2)
H7 H 0.0093 0.9043 0.4597
C9 C 0.0687(5) 0.8133(3) 0.4090(2)
H8 H 0.0238 0.8268 0.3685
C10 C 0.1429(5) 0.7477(3) 0.4142(2)
H9 H 0.1475 0.7157 0.3773
C11 C 0.3603(5) 1.1840(2) 0.7099(2)
H10 H 0.3442 1.2204 0.7425
C12 C 0.2602(5) 1.1265(2) 0.70217(18)
H11 H 0.1761 1.1250 0.7298
C13 C 0.2799(4) 1.0705(2) 0.65476(17)
C14 C -0.0658(4) 0.9393(2) 0.66488(19)
C15 C 0.0477(4) 0.9989(2) 0.67820(18)
H12 H 0.0296 1.0309 0.7142
C16 C 0.1718(4) 1.00980(19) 0.64279(16)
C17 C -0.0783(6) 0.8870(3) 0.7245(2)
H13 H -0.1591 0.8527 0.7170
H14 H -0.0975 0.9152 0.7648
H15 H 0.0136 0.8599 0.7296
C18 C -0.2174(4) 0.9732(3) 0.6492(2)
H16 H -0.2075 1.0077 0.6125
H17 H -0.2543 0.9988 0.6883
H18 H -0.2862 0.9345 0.6367
C19 C 0.2106(6) 0.7285(3) 0.4732(3)
H19 H 0.2626 0.6838 0.4762
C20 C 0.2026(5) 0.7745(3) 0.5280(2)
H20 H 0.2496 0.7608 0.5680
O1 O 0.9442(3) 1.02235(17) 0.93292(14)
O2 O 0.4719(3) 0.89723(17) 0.89481(16)
C1 C 0.9851(5) 1.1874(2) 0.8314(2)
H1 H 1.0517 1.2269 0.8275
C2 C 1.0105(5) 1.1328(2) 0.8776(2)
H2 H 1.0953 1.1349 0.9048
C3 C 0.9097(4) 1.0736(2) 0.88432(19)
C4 C 0.8666(6) 0.9545(3) 0.9284(3)
H3 H 0.9116 0.9253 0.8925
H4 H 0.8816 0.9274 0.9702
C5 C 0.7075(4) 0.9591(2) 0.91577(19)
H5 H 0.6696 0.9866 0.9549
C6 C 0.6158(5) 0.8917(3) 0.9152(2)
H6 H 0.6619 0.8619 0.8793
C7 C 0.6254(4) 0.8411(2) 0.97530(18)
C8 C 0.5603(5) 0.8594(2) 1.0363(2)
H7 H 0.5093 0.9043 1.0403
C9 C 0.5687(5) 0.8133(3) 1.0910(2)
H8 H 0.5238 0.8268 1.1315
C10 C 0.6429(5) 0.7477(3) 1.0858(2)
H9 H 0.6475 0.7157 1.1227
C11 C 0.8603(5) 1.1840(2) 0.7901(2)
H10 H 0.8442 1.2204 0.7575
C12 C 0.7602(5) 1.1265(2) 0.79783(18)
H11 H 0.6761 1.1250 0.7702
C13 C 0.7799(4) 1.0705(2) 0.84524(17)
C14 C 0.4342(4) 0.9393(2) 0.83512(19)
C15 C 0.5477(4) 0.9989(2) 0.82180(18)
H12 H 0.5296 1.0309 0.7858
C16 C 0.6718(4) 1.00980(19) 0.85721(16)
C17 C 0.4217(6) 0.8870(3) 0.7755(2)
H13 H 0.3409 0.8527 0.7830
H14 H 0.4025 0.9152 0.7352
H15 H 0.5136 0.8599 0.7704
C18 C 0.2826(4) 0.9732(3) 0.8508(2)
H16 H 0.2925 1.0077 0.8875
H17 H 0.2457 0.9988 0.8117
H18 H 0.2138 0.9345 0.8633
C19 C 0.7106(6) 0.7285(3) 1.0268(3)
H19 H 0.7626 0.6838 1.0238
C20 C 0.7026(5) 0.7745(3) 0.9720(2)
H20 H 0.7496 0.7608 0.9320
O1 O 0.4442(3) 0.47765(17) 0.06708(14)
O2 O -0.0281(3) 0.60277(17) 0.10519(16)
C1 C 0.4851(5) 0.3126(2) 0.1686(2)
H1 H 0.5517 0.2731 0.1725
C2 C 0.5105(5) 0.3672(2) 0.1224(2)
H2 H 0.5953 0.3651 0.0952
C3 C 0.4097(4) 0.4264(2) 0.11568(19)
C4 C 0.3666(6) 0.5455(3) 0.0716(3)
H3 H 0.4116 0.5747 0.1075
H4 H 0.3816 0.5726 0.0298
C5 C 0.2075(4) 0.5409(2) 0.08423(19)
H5 H 0.1696 0.5134 0.0451
C6 C 0.1158(5) 0.6083(3) 0.0848(2)
H6 H 0.1619 0.6381 0.1207
C7 C 0.1254(4) 0.6589(2) 0.02470(18)
C8 C 0.0603(5) 0.6406(2) -0.0363(2)
H7 H 0.0093 0.5957 -0.0403
C9 C 0.0687(5) 0.6867(3) -0.0910(2)
H8 H 0.0238 0.6732 -0.1315
C10 C 0.1429(5) 0.7523(3) -0.0858(2)
H9 H 0.1475 0.7843 -0.1227
C11 C 0.3603(5) 0.3160(2) 0.2099(2)
H10 H 0.3442 0.2796 0.2425
C12 C 0.2602(5) 0.3735(2) 0.20217(18)
H11 H 0.1761 0.3750 0.2298
C13 C 0.2799(4) 0.4295(2) 0.15476(17)
C14 C -0.0658(4) 0.5607(2) 0.16488(19)
C15 C 0.0477(4) 0.5011(2) 0.17820(18)
H12 H 0.0296 0.4691 0.2142
C16 C 0.1718(4) 0.49020(19) 0.14279(16)
C17 C -0.0783(6) 0.6130(3) 0.2245(2)
H13 H -0.1591 0.6473 0.2170
H14 H -0.0975 0.5848 0.2648
H15 H 0.0136 0.6401 0.2296
C18 C -0.2174(4) 0.5268(3) 0.1492(2)
H16 H -0.2075 0.4923 0.1125
H17 H -0.2543 0.5012 0.1883
H18 H -0.2862 0.5655 0.1367
C19 C 0.2106(6) 0.7715(3) -0.0268(3)
H19 H 0.2626 0.8162 -0.0238
C20 C 0.2026(5) 0.7255(3) 0.0280(2)
H20 H 0.2496 0.7392 0.0680
O1 O 0.0558(3) 0.52235(17) 0.56708(14)
O2 O 0.5281(3) 0.39723(17) 0.60519(16)
C1 C 0.0149(5) 0.6874(2) 0.6686(2)
H1 H -0.0517 0.7269 0.6725
C2 C -0.0105(5) 0.6328(2) 0.6224(2)
H2 H -0.0953 0.6349 0.5952
C3 C 0.0903(4) 0.5736(2) 0.61568(19)
C4 C 0.1334(6) 0.4545(3) 0.5716(3)
H3 H 0.0884 0.4253 0.6075
H4 H 0.1184 0.4274 0.5298
C5 C 0.2925(4) 0.4591(2) 0.58423(19)
H5 H 0.3304 0.4866 0.5451
C6 C 0.3842(5) 0.3917(3) 0.5848(2)
H6 H 0.3381 0.3619 0.6207
C7 C 0.3746(4) 0.3411(2) 0.52470(18)
C8 C 0.4397(5) 0.3594(2) 0.4637(2)
H7 H 0.4907 0.4043 0.4597
C9 C 0.4313(5) 0.3133(3) 0.4090(2)
H8 H 0.4762 0.3268 0.3685
C10 C 0.3571(5) 0.2477(3) 0.4142(2)
H9 H 0.3525 0.2157 0.3773
C11 C 0.1397(5) 0.6840(2) 0.7099(2)
H10 H 0.1558 0.7204 0.7425
C12 C 0.2398(5) 0.6265(2) 0.70217(18)
H11 H 0.3239 0.6250 0.7298
C13 C 0.2201(4) 0.5705(2) 0.65476(17)
C14 C 0.5658(4) 0.4393(2) 0.66488(19)
C15 C 0.4523(4) 0.4989(2) 0.67820(18)
H12 H 0.4704 0.5309 0.7142
C16 C 0.3282(4) 0.50980(19) 0.64279(16)
C17 C 0.5783(6) 0.3870(3) 0.7245(2)
H13 H 0.6591 0.3527 0.7170
H14 H 0.5975 0.4152 0.7648
H15 H 0.4864 0.3599 0.7296
C18 C 0.7174(4) 0.4732(3) 0.6492(2)
H16 H 0.7075 0.5077 0.6125
H17 H 0.7543 0.4988 0.6883
H18 H 0.7862 0.4345 0.6367
C19 C 0.2894(6) 0.2285(3) 0.4732(3)
H19 H 0.2374 0.1838 0.4762
C20 C 0.2974(5) 0.2745(3) 0.5280(2)
H20 H 0.2504 0.2608 0.5680
O1 O 0.5558(3) -0.02235(17) 0.43292(14)
O2 O 1.0281(3) 0.10277(17) 0.39481(16)
C1 C 0.5149(5) -0.1874(2) 0.3314(2)
H1 H 0.4483 -0.2269 0.3275
C2 C 0.4895(5) -0.1328(2) 0.3776(2)
H2 H 0.4047 -0.1349 0.4048
C3 C 0.5903(4) -0.0736(2) 0.38432(19)
C4 C 0.6334(6) 0.0455(3) 0.4284(3)
H3 H 0.5884 0.0747 0.3925
H4 H 0.6184 0.0726 0.4702
C5 C 0.7925(4) 0.0409(2) 0.41577(19)
H5 H 0.8304 0.0134 0.4549
C6 C 0.8842(5) 0.1083(3) 0.4152(2)
H6 H 0.8381 0.1381 0.3793
C7 C 0.8746(4) 0.1589(2) 0.47530(18)
C8 C 0.9397(5) 0.1406(2) 0.5363(2)
H7 H 0.9907 0.0957 0.5403
C9 C 0.9313(5) 0.1867(3) 0.5910(2)
H8 H 0.9762 0.1732 0.6315
C10 C 0.8571(5) 0.2523(3) 0.5858(2)
H9 H 0.8525 0.2843 0.6227
C11 C 0.6397(5) -0.1840(2) 0.2901(2)
H10 H 0.6558 -0.2204 0.2575
C12 C 0.7398(5) -0.1265(2) 0.29783(18)
H11 H 0.8239 -0.1250 0.2702
C13 C 0.7201(4) -0.0705(2) 0.34524(17)
C14 C 1.0658(4) 0.0607(2) 0.33512(19)
C15 C 0.9523(4) 0.0011(2) 0.32180(18)
H12 H 0.9704 -0.0309 0.2858
C16 C 0.8282(4) -0.00980(19) 0.35721(16)
C17 C 1.0783(6) 0.1130(3) 0.2755(2)
H13 H 1.1591 0.1473 0.2830
H14 H 1.0975 0.0848 0.2352
H15 H 0.9864 0.1401 0.2704
C18 C 1.2174(4) 0.0268(3) 0.3508(2)
H16 H 1.2075 -0.0077 0.3875
H17 H 1.2543 0.0012 0.3117
H18 H 1.2862 0.0655 0.3633
C19 C 0.7894(6) 0.2715(3) 0.5268(3)
H19 H 0.7374 0.3162 0.5238
C20 C 0.7974(5) 0.2255(3) 0.4720(2)
H20 H 0.7504 0.2392 0.4320

#END
