./ACOLAH_from_POSCAR.cif_generated_by_CrystalShift
_symmetry_cell_setting triclinic
_symmetry_space_group_name_H-M 'P 1'
loop_
_symmetry_equiv_pos_site_id
_symmetry_equiv_pos_as_xyz
1 x,y,z
_cell_length_a 11.076600
_cell_length_b 10.012300
_cell_length_c 13.783800
_cell_angle_alpha 90.000000
_cell_angle_beta 108.455000
_cell_angle_gamma 90.000000
_cell_volume 1450.039567
loop_
_atom_site_label
_atom_site_type_symbol
_atom_site_fract_x
_atom_site_fract_y
_atom_site_fract_z
H1 H 0.790300 0.366600 0.914400
H2 H 0.731200 0.105600 0.826000
H3 H 0.858200 0.190400 1.026000
H4 H 0.935000 -0.197600 1.215300
H5 H 0.897300 0.022200 1.160000
H6 H 0.639300 0.425200 0.014900
H7 H 0.821000 -0.099000 0.866200
H8 H 0.745100 0.333600 0.175000
H9 H 0.861900 -0.317600 0.920600
H10 H 0.366400 0.359100 0.468700
H11 H 0.469200 0.053000 0.130200
H12 H 0.469200 0.447000 0.630200
H13 H 0.366400 0.140900 -0.031300
H14 H 0.745100 0.166400 0.675000
H15 H 0.639300 0.074800 0.514900
H16 H 0.209700 0.866600 0.585600
H17 H 0.268800 0.605600 0.674000
H18 H 0.141800 0.690400 0.474000
H19 H 0.861900 0.817600 0.420600
H20 H 0.065000 0.302400 0.284700
H21 H 0.821000 0.599000 0.366200
H22 H 0.102700 0.522200 0.340000
H23 H 0.179000 0.401000 0.633800
H24 H 0.897300 0.477800 0.660000
H25 H 0.138100 0.182400 0.579400
H26 H 0.935000 0.697600 0.715300
H27 H 0.633600 0.859100 1.031300
H28 H 0.858200 0.309600 0.526000
H29 H 0.530800 0.947000 0.869800
H30 H 0.731200 0.394400 0.326000
H31 H 0.254900 0.666400 0.825000
H32 H 0.790300 0.133400 0.414400
H33 H 0.360700 0.574800 0.985100
H34 H 0.209700 0.633400 0.085600
H35 H 0.268800 0.894400 0.174000
H36 H 0.141800 0.809600 -0.026000
H37 H 0.065000 1.197600 -0.215300
H38 H 0.360700 0.925200 0.485100
H39 H 0.102700 0.977800 -0.160000
H40 H 0.254900 0.833600 0.325000
H41 H 0.179000 1.099000 0.133800
H42 H 0.138100 1.317600 0.079400
H43 H 0.530800 0.553000 0.369800
H44 H 0.633600 0.640900 0.531300
C45 C 0.557260 0.680660 0.488960
C46 C 0.317320 0.628400 0.228600
C47 C 0.764840 0.168040 0.879650
C48 C 0.076440 1.416800 -0.104690
C49 C 0.099170 1.279330 -0.073310
C50 C 0.132250 1.248600 0.030860
C51 C 0.496070 0.628570 0.393210
C52 C 0.156250 1.118660 0.062830
C53 C 0.383360 0.686110 0.330360
C54 C 0.148060 1.014580 -0.006470
C55 C 0.111550 1.047130 -0.111180
C56 C 0.332720 0.795380 0.366290
C57 C 0.088280 1.177400 -0.144390
C58 C 0.394700 0.849110 0.461720
C59 C 0.172780 0.875700 0.025340
C60 C 0.507010 0.791120 0.523100
C61 C 0.235160 0.831960 0.120350
C62 C 0.573470 0.844670 0.623300
C63 C 0.251340 0.690480 0.141200
C64 C 0.426530 0.344670 -0.123300
C65 C 0.827220 0.124300 0.974660
C66 C 0.492990 0.291120 -0.023100
C67 C 0.573470 0.655330 1.123300
C68 C 0.507010 0.708880 1.023100
C69 C 0.394700 0.650890 0.961720
C70 C 0.911720 -0.177400 1.144390
C71 C 0.332720 0.704620 0.866290
C72 C 0.748660 0.190480 0.358800
C73 C 0.383360 0.813890 0.830360
C74 C 0.496070 0.871430 0.893210
C75 C 0.764840 0.331960 0.379650
C76 C 0.557260 0.819340 0.988960
C77 C 0.827220 0.375700 0.474660
C78 C 0.317320 0.871600 0.728600
C79 C 0.605300 0.349110 0.038280
C80 C 0.076440 0.083200 0.395310
C81 C 0.099170 0.220670 0.426690
C82 C 0.132250 0.251400 0.530860
C83 C 0.911720 0.677400 0.644390
C84 C 0.156250 0.381340 0.562830
C85 C 0.888450 0.547130 0.611180
C86 C 0.148060 0.485420 0.493530
C87 C 0.111550 0.452870 0.388820
C88 C 0.851940 0.514580 0.506470
C89 C 0.088280 0.322600 0.355610
C90 C 0.843750 0.618660 0.437170
C91 C 0.172780 0.624300 0.525340
C92 C 0.867750 0.748600 0.469140
C93 C 0.235160 0.668040 0.620350
C94 C 0.900830 0.779330 0.573310
C95 C 0.251340 0.809520 0.641200
C96 C 0.923560 0.916800 0.604690
C97 C 0.888450 -0.047130 1.111180
C98 C 0.851940 -0.014580 1.006470
C99 C 0.426530 0.155330 0.376700
C100 C 0.492990 0.208880 0.476900
C101 C 0.605300 0.150890 0.538280
C102 C 0.667280 0.295380 0.133710
C103 C 0.667280 0.204620 0.633710
C104 C 0.682680 0.128400 0.271400
C105 C 0.616640 0.313890 0.669640
C106 C 0.503930 0.371430 0.606790
C107 C 0.442740 0.180660 0.011040
C108 C 0.442740 0.319340 0.511040
C109 C 0.503930 0.128570 0.106790
C110 C 0.682680 0.371600 0.771400
C111 C 0.843750 -0.118660 0.937170
C112 C 0.923560 -0.416800 1.104690
C113 C 0.900830 -0.279330 1.073310
C114 C 0.867750 -0.248600 0.969140
C115 C 0.616640 0.186110 0.169640
C116 C 0.748660 0.309520 0.858800
N117 N 0.940130 1.027260 0.626460
N118 N 0.371450 0.112790 0.298540
N119 N 0.371450 0.387210 -0.201460
N120 N 0.059870 -0.027260 0.373540
N121 N 0.059870 1.527260 -0.126460
N122 N 0.628550 0.612790 1.201460
N123 N 0.628550 0.887210 0.701460
N124 N 0.940130 -0.527260 1.126460
Cl125 Cl 0.668360 0.545570 0.777000
Cl126 Cl 0.331640 0.454430 0.223000
Cl127 Cl 0.331640 1.045570 0.723000
Cl128 Cl 0.668360 -0.045570 0.277000

#END
