
#######################################################################
#
#                 Cambridge Crystallographic Data Centre
#                                CCDC 
#
#######################################################################
#
# If this CIF has been generated from an entry in the Cambridge 
# Structural Database, then it will include bibliographic, chemical, 
# crystal, experimental, refinement or atomic coordinate data resulting 
# from the CCDC's data processing and validation procedures.
#
#######################################################################

data_ACOMIP
_symmetry_cell_setting           monoclinic
_symmetry_space_group_name_H-M   'P 21'
_symmetry_Int_Tables_number      4
_space_group_name_Hall           'P 2yb'
loop_
_symmetry_equiv_pos_site_id
_symmetry_equiv_pos_as_xyz
1 x,y,z
2 -x,1/2+y,-z
_cell_length_a                   9.3300(2)
_cell_length_b                   17.7010(4)
_cell_length_c                   9.9319(2)
_cell_angle_alpha                90
_cell_angle_beta                 101.2210(10)
_cell_angle_gamma                90
_cell_volume                     1608.9
loop_
_atom_site_label
_atom_site_type_symbol
_atom_site_fract_x
_atom_site_fract_y
_atom_site_fract_z
Ti1 Ti 0.355270(16) 0.270374(8) 0.585705(15)
Cl1 Cl 0.59749(3) 0.26316(3) 0.61183(4)
Cl2 Cl 0.25646(4) 0.360445(15) 0.43842(4)
Si1 Si 0.47116(3) 0.23297(2) 1.04705(3)
Si2 Si 0.25358(2) 0.245604(13) 0.88244(2)
Si3 Si 0.13603(2) 0.129984(12) 0.80343(2)
Si4 Si 0.17850(2) 0.108297(11) 0.57763(2)
Si5 Si 0.33047(3) 0.003556(13) 0.56409(3)
Si6 Si 0.09494(3) 0.337957(14) 0.94214(3)
Si7 Si -0.03517(2) 0.117370(14) 0.40707(2)
O1 O 0.31092(8) 0.28608(4) 0.74617(7)
O2 O 0.27797(7) 0.18278(3) 0.53522(6)
C1 C 0.57202(18) 0.32466(14) 1.0461(3)
H1 H 0.6597 0.3240 1.1189
H2 H 0.5086 0.3665 1.0621
H3 H 0.6005 0.3314 0.9570
C2 C 0.42679(18) 0.21541(16) 1.21881(14)
H4 H 0.3661 0.1700 1.2151
H5 H 0.3735 0.2588 1.2456
H6 H 0.5174 0.2082 1.2863
C3 C 0.59247(15) 0.15839(12) 1.0013(2)
H7 H 0.6897 0.1631 1.0595
H8 H 0.6002 0.1639 0.9048
H9 H 0.5517 0.1086 1.0153
C4 C 0.21055(15) 0.04996(7) 0.92305(12)
H10 H 0.1914 0.0603 1.0149
H11 H 0.3161 0.0455 0.9278
H12 H 0.1627 0.0026 0.8884
C5 C -0.06651(11) 0.13424(7) 0.80178(12)
H13 H -0.1118 0.0860 0.7686
H14 H -0.1105 0.1751 0.7409
H15 H -0.0824 0.1438 0.8950
C6 C 0.50553(14) 0.01711(10) 0.69175(14)
H16 H 0.5749 -0.0227 0.6795
H17 H 0.4858 0.0145 0.7850
H18 H 0.5472 0.0666 0.6773
C7 C 0.37832(13) 0.00017(7) 0.38989(12)
H19 H 0.4468 -0.0414 0.3862
H20 H 0.4239 0.0480 0.3717
H21 H 0.2894 -0.0079 0.3205
C8 C 0.2332(2) -0.08452(6) 0.59916(16)
H22 H 0.1394 -0.0879 0.5348
H23 H 0.2160 -0.0832 0.6934
H24 H 0.2932 -0.1286 0.5877
C9 C 0.00433(19) 0.30313(10) 1.08293(18)
H25 H -0.0487 0.3448 1.1161
H26 H 0.0786 0.2838 1.1586
H27 H -0.0643 0.2626 1.0477
C10 C 0.19987(17) 0.42586(8) 1.0017(2)
H28 H 0.2595 0.4403 0.9348
H29 H 0.2635 0.4165 1.0910
H30 H 0.1316 0.4668 1.0105
C11 C -0.04251(19) 0.36083(9) 0.78468(19)
H31 H -0.1078 0.4007 0.8056
H32 H -0.0997 0.3155 0.7532
H33 H 0.0078 0.3783 0.7125
C12 C 0.01669(13) 0.09888(7) 0.23648(11)
H34 H 0.0491 0.0464 0.2329
H35 H 0.0962 0.1329 0.2248
H36 H -0.0681 0.1077 0.1628
C13 C -0.10245(12) 0.21731(7) 0.40870(12)
H37 H -0.1845 0.2249 0.3317
H38 H -0.0232 0.2522 0.4000
H39 H -0.1348 0.2270 0.4952
C14 C -0.18149(17) 0.04987(11) 0.43078(18)
H40 H -0.2174 0.0630 0.5142
H41 H -0.1419 -0.0016 0.4393
H42 H -0.2622 0.0526 0.3514
Ti1 Ti 0.644730(16) 0.770374(8) 0.414295(15)
Cl1 Cl 0.40251(3) 0.76316(3) 0.38817(4)
Cl2 Cl 0.74354(4) 0.860445(15) 0.56158(4)
Si1 Si 0.52884(3) 0.73297(2) -0.04705(3)
Si2 Si 0.74642(2) 0.745604(13) 0.11756(2)
Si3 Si 0.86397(2) 0.629984(12) 0.19657(2)
Si4 Si 0.82150(2) 0.608297(11) 0.42237(2)
Si5 Si 0.66953(3) 0.503556(13) 0.43591(3)
Si6 Si 0.90506(3) 0.837957(14) 0.05786(3)
Si7 Si 1.03517(2) 0.617370(14) 0.59293(2)
O1 O 0.68908(8) 0.78608(4) 0.25383(7)
O2 O 0.72203(7) 0.68278(3) 0.46478(6)
C1 C 0.42798(18) 0.82466(14) -0.0461(3)
H1 H 0.3403 0.8240 -0.1189
H2 H 0.4914 0.8665 -0.0621
H3 H 0.3995 0.8314 0.0430
C2 C 0.57321(18) 0.71541(16) -0.21881(14)
H4 H 0.6339 0.6700 -0.2151
H5 H 0.6265 0.7588 -0.2456
H6 H 0.4826 0.7082 -0.2863
C3 C 0.40753(15) 0.65839(12) -0.0013(2)
H7 H 0.3103 0.6631 -0.0595
H8 H 0.3998 0.6639 0.0952
H9 H 0.4483 0.6086 -0.0153
C4 C 0.78945(15) 0.54996(7) 0.07695(12)
H10 H 0.8086 0.5603 -0.0149
H11 H 0.6839 0.5455 0.0722
H12 H 0.8373 0.5026 0.1116
C5 C 1.06651(11) 0.63424(7) 0.19822(12)
H13 H 1.1118 0.5860 0.2314
H14 H 1.1105 0.6751 0.2591
H15 H 1.0824 0.6438 0.1050
C6 C 0.49447(14) 0.51711(10) 0.30825(14)
H16 H 0.4251 0.4773 0.3205
H17 H 0.5142 0.5145 0.2150
H18 H 0.4528 0.5666 0.3227
C7 C 0.62168(13) 0.50017(7) 0.61011(12)
H19 H 0.5532 0.4586 0.6138
H20 H 0.5761 0.5480 0.6283
H21 H 0.7106 0.4921 0.6795
C8 C 0.7668(2) 0.41548(6) 0.40084(16)
H22 H 0.8606 0.4121 0.4652
H23 H 0.7840 0.4168 0.3066
H24 H 0.7068 0.3714 0.4123
C9 C 0.99567(19) 0.80313(10) -0.08293(18)
H25 H 1.0487 0.8448 -0.1161
H26 H 0.9214 0.7838 -0.1586
H27 H 1.0643 0.7626 -0.0477
C10 C 0.80013(17) 0.92586(8) -0.0017(2)
H28 H 0.7405 0.9403 0.0652
H29 H 0.7365 0.9165 -0.0910
H30 H 0.8684 0.9668 -0.0105
C11 C 1.04251(19) 0.86083(9) 0.21532(19)
H31 H 1.1078 0.9007 0.1944
H32 H 1.0997 0.8155 0.2468
H33 H 0.9922 0.8783 0.2875
C12 C 0.98331(13) 0.59888(7) 0.76352(11)
H34 H 0.9509 0.5464 0.7671
H35 H 0.9038 0.6329 0.7752
H36 H 1.0681 0.6077 0.8372
C13 C 1.10245(12) 0.71731(7) 0.59130(12)
H37 H 1.1845 0.7249 0.6683
H38 H 1.0232 0.7522 0.6000
H39 H 1.1348 0.7270 0.5048
C14 C 1.18149(17) 0.54987(11) 0.56922(18)
H40 H 1.2174 0.5630 0.4858
H41 H 1.1419 0.4984 0.5607
H42 H 1.2622 0.5526 0.6486

#END
