
#######################################################################
#
#                 Cambridge Crystallographic Data Centre
#                                CCDC 
#
#######################################################################
#
# If this CIF has been generated from an entry in the Cambridge 
# Structural Database, then it will include bibliographic, chemical, 
# crystal, experimental, refinement or atomic coordinate data resulting 
# from the CCDC's data processing and validation procedures.
#
#######################################################################

data_ACONIR
_symmetry_cell_setting           triclinic
_symmetry_space_group_name_H-M   'P -1'
_symmetry_Int_Tables_number      2
_space_group_name_Hall           '-P 1'
loop_
_symmetry_equiv_pos_site_id
_symmetry_equiv_pos_as_xyz
1 x,y,z
2 -x,-y,-z
_cell_length_a                   6.9910(1)
_cell_length_b                   8.9810(1)
_cell_length_c                   11.3980(1)
_cell_angle_alpha                67.479(1)
_cell_angle_beta                 81.065(1)
_cell_angle_gamma                83.458(1)
_cell_volume                     651.877
loop_
_atom_site_label
_atom_site_type_symbol
_atom_site_fract_x
_atom_site_fract_y
_atom_site_fract_z
C1 C 0.71770(16) 0.77495(14) 0.89805(11)
C2 C 0.52955(17) 0.82793(15) 0.87161(13)
H1 H 0.4739 0.9262 0.8786
C3 C 0.42416(18) 0.73543(15) 0.83497(14)
H2 H 0.295 0.7723 0.8173
C4 C 0.67524(19) 0.54557(15) 0.85042(13)
H3 H 0.7267 0.4462 0.8436
C5 C 0.79074(18) 0.63008(15) 0.88801(13)
H4 H 0.9185 0.5892 0.9067
C6 C 0.84293(17) 0.86627(15) 0.94046(12)
N1 N 0.78700(17) 1.01826(13) 0.92314(11)
N2 N 0.49496(15) 0.59678(12) 0.82326(11)
O1 O 0.99043(13) 0.79779(11) 0.98958(10)
H5 H 0.683(2) 1.0696(17) 0.8860(15)
H6 H 0.859(2) 1.0733(18) 0.9495(15)
C1 C 0.28230(16) 0.22505(14) 0.10195(11)
C2 C 0.47045(17) 0.17207(15) 0.12839(13)
H1 H 0.5261 0.0738 0.1214
C3 C 0.57584(18) 0.26457(15) 0.16503(14)
H2 H 0.705 0.2277 0.1827
C4 C 0.32476(19) 0.45443(15) 0.14958(13)
H3 H 0.2733 0.5538 0.1564
C5 C 0.20926(18) 0.36992(15) 0.11199(13)
H4 H 0.0815 0.4108 0.0933
C6 C 0.15707(17) 0.13373(15) 0.05954(12)
N1 N 0.21300(17) -0.01826(13) 0.07686(11)
N2 N 0.50504(15) 0.40322(12) 0.17674(11)
O1 O 0.00957(13) 0.20221(11) 0.01042(10)
H5 H 0.317(2) -0.0696(17) 0.1140(15)
H6 H 0.141(2) -0.0733(18) 0.0505(15)
C7 C 0.23975(17) 0.22348(14) 0.68372(12)
H7 H 0.2196 0.1106 0.7457
C8 C 0.04199(17) 0.30420(15) 0.64950(13)
H8 H 0.0571 0.4186 0.5928
H9 H -0.0422 0.3018 0.7284
C9 C -0.05483(19) 0.22000(17) 0.58231(14)
H10 H -0.0845 0.1095 0.6427
H11 H -0.1787 0.28 0.5562
C10 C 0.0741(2) 0.21068(17) 0.46588(14)
H12 H 0.0911 0.3211 0.4012
H13 H 0.0112 0.1494 0.4279
C11 C 0.2708(2) 0.12939(19) 0.49934(15)
H14 H 0.3541 0.131 0.4203
H15 H 0.2552 0.0152 0.5565
C12 C 0.36904(18) 0.21373(18) 0.56536(15)
H16 H 0.3983 0.3241 0.5047
H17 H 0.4932 0.1537 0.5909
C13 C 0.34613(17) 0.30561(14) 0.74549(12)
O2 O 0.28785(14) 0.45622(11) 0.72514(11)
O3 O 0.48014(14) 0.23845(11) 0.80663(10)
H18 H 0.368(3) 0.502(2) 0.7655(19)
C7 C 0.76025(17) 0.77652(14) 0.31628(12)
H7 H 0.7804 0.8894 0.2543
C8 C 0.95801(17) 0.69580(15) 0.35050(13)
H8 H 0.9429 0.5814 0.4072
H9 H 1.0422 0.6982 0.2716
C9 C 1.05483(19) 0.78000(17) 0.41769(14)
H10 H 1.0845 0.8905 0.3573
H11 H 1.1787 0.72 0.4438
C10 C 0.9259(2) 0.78932(17) 0.53412(14)
H12 H 0.9089 0.6789 0.5988
H13 H 0.9888 0.8506 0.5721
C11 C 0.7292(2) 0.87061(19) 0.50066(15)
H14 H 0.6459 0.869 0.5797
H15 H 0.7448 0.9848 0.4435
C12 C 0.63096(18) 0.78627(18) 0.43464(15)
H16 H 0.6017 0.6759 0.4953
H17 H 0.5068 0.8463 0.4091
C13 C 0.65387(17) 0.69439(14) 0.25451(12)
O2 O 0.71215(14) 0.54378(11) 0.27486(11)
O3 O 0.51986(14) 0.76155(11) 0.19337(10)
H18 H 0.632(3) 0.498(2) 0.2345(19)

#END
