
#######################################################################
#
#                 Cambridge Crystallographic Data Centre
#                                CCDC 
#
#######################################################################
#
# If this CIF has been generated from an entry in the Cambridge 
# Structural Database, then it will include bibliographic, chemical, 
# crystal, experimental, refinement or atomic coordinate data resulting 
# from the CCDC's data processing and validation procedures.
#
#######################################################################

data_ACOPEO
_symmetry_cell_setting           monoclinic
_symmetry_space_group_name_H-M   'C 2/c'
_symmetry_Int_Tables_number      15
_space_group_name_Hall           '-C 2yn'
loop_
_symmetry_equiv_pos_site_id
_symmetry_equiv_pos_as_xyz
1 x,y,z
2 1/2+x,1/2+y,z
3 -x,y,1/2-z
4 1/2-x,1/2+y,1/2-z
5 -x,-y,-z
6 1/2-x,1/2-y,-z
7 x,-y,1/2+z
8 1/2+x,1/2-y,1/2+z
_cell_length_a                   11.679(2)
_cell_length_b                   16.358(3)
_cell_length_c                   15.793(3)
_cell_angle_alpha                90
_cell_angle_beta                 93.16(3)
_cell_angle_gamma                90
_cell_volume                     3012.59
loop_
_atom_site_label
_atom_site_type_symbol
_atom_site_fract_x
_atom_site_fract_y
_atom_site_fract_z
Pb1 Pb 0.73657(2) 0.312902(14) 0.371357(15)
Cl1 Cl 0.5000 0.19077(16) 0.2500
Cl2 Cl 1.0000 0.31969(16) 0.2500
O1 O 0.6252(7) 0.2694(5) 0.5066(4)
O2 O 0.5590(5) 0.3599(4) 0.4164(4)
O3 O 0.5963(8) 0.2360(6) 0.2286(9)
O4 O 0.4668(15) 0.1453(14) 0.1791(9)
O5 O 0.9611(6) 0.3674(5) 0.3155(5)
O6 O 0.9056(12) 0.2744(9) 0.2188(8)
N1 N 0.7969(5) 0.4373(4) 0.4441(4)
N2 N 0.6979(5) 0.4375(4) 0.2866(3)
C1 C 0.8443(7) 0.4343(5) 0.5237(4)
H1 H 0.8525 0.3838 0.5505
C2 C 0.8811(7) 0.5036(6) 0.5666(5)
H2 H 0.9097 0.5003 0.6226
C3 C 0.8749(8) 0.5773(5) 0.5258(6)
H3 H 0.9027 0.6242 0.5530
C4 C 0.8266(7) 0.5815(5) 0.4433(5)
H4 H 0.8212 0.6312 0.4149
C5 C 0.7868(5) 0.5100(4) 0.4043(4)
C6 C 0.7273(6) 0.5098(4) 0.3187(4)
C7 C 0.7001(7) 0.5820(4) 0.2767(5)
H5 H 0.7202 0.6320 0.3013
C8 C 0.6424(8) 0.5790(5) 0.1972(6)
H6 H 0.6253 0.6267 0.1670
C9 C 0.6112(8) 0.5037(6) 0.1645(5)
H7 H 0.5713 0.4994 0.1121
C10 C 0.6402(7) 0.4353(5) 0.2108(5)
H8 H 0.6187 0.3846 0.1885
C11 C 0.5476(7) 0.3151(5) 0.4794(5)
C12 C 0.4350(9) 0.3198(7) 0.5226(8)
H9 H 0.4371 0.2830 0.5700
H10 H 0.3732 0.3047 0.4830
H11 H 0.4233 0.3746 0.5421
Pb1E Pb 0.76343(2) 0.187098(14) 0.628643(15)
Pb1B Pb 0.26343(2) 0.312902(14) 0.128643(15)
Pb1B Pb 1.26343(2) 0.312902(14) 0.128643(15)
O1E O 0.8748(7) 0.2306(5) 0.4934(4)
O2E O 0.9410(5) 0.1401(4) 0.5836(4)
O3B O 0.4037(8) 0.2360(6) 0.2714(9)
O3E O 0.9037(8) 0.2640(6) 0.7714(9)
O4B O 0.5332(15) 0.1453(14) 0.3209(9)
O5B O 1.0389(6) 0.3674(5) 0.1845(5)
O5E O 0.5389(6) 0.1326(5) 0.6845(5)
O6B O 1.0944(12) 0.2744(9) 0.2812(8)
O6E O 0.5944(12) 0.2256(9) 0.7812(8)
N1E N 0.7031(5) 0.0627(4) 0.5559(4)
N2E N 0.8021(5) 0.0625(4) 0.7134(3)
C1E C 0.6557(7) 0.0657(5) 0.4763(4)
H1E H 0.6475 0.1162 0.4495
C2E C 0.6189(7) -0.0036(6) 0.4334(5)
H2E H 0.5903 -0.0003 0.3774
C3E C 0.6251(8) -0.0773(5) 0.4742(6)
H3E H 0.5973 -0.1242 0.4470
C4E C 0.6734(7) -0.0815(5) 0.5567(5)
H4E H 0.6788 -0.1312 0.5851
C5E C 0.7132(5) -0.0100(4) 0.5957(4)
C6E C 0.7727(6) -0.0098(4) 0.6813(4)
C7E C 0.7999(7) -0.0820(4) 0.7233(5)
H5E H 0.7798 -0.1320 0.6987
C8E C 0.8576(8) -0.0790(5) 0.8028(6)
H6E H 0.8747 -0.1267 0.8330
C9E C 0.8888(8) -0.0037(6) 0.8355(5)
H7E H 0.9287 0.0006 0.8879
C10E C 0.8598(7) 0.0647(5) 0.7892(5)
H8E H 0.8813 0.1154 0.8115
C11E C 0.9524(7) 0.1849(5) 0.5206(5)
C12E C 1.0650(9) 0.1802(7) 0.4774(8)
H9E H 1.0629 0.2170 0.4300
H10E H 1.1268 0.1953 0.5170
H11E H 1.0767 0.1254 0.4579
Cl2 Cl 0.0000 0.31969(16) 0.2500
O1 O 0.3748(7) 0.2694(5) -0.0066(4)
O2 O 0.4410(5) 0.3599(4) 0.0836(4)
O5 O 0.0389(6) 0.3674(5) 0.1845(5)
O6 O 0.0944(12) 0.2744(9) 0.2812(8)
N1 N 0.2031(5) 0.4373(4) 0.0559(4)
N2 N 0.3021(5) 0.4375(4) 0.2134(3)
C1 C 0.1557(7) 0.4343(5) -0.0237(4)
H1 H 0.1475 0.3838 -0.0505
C2 C 0.1189(7) 0.5036(6) -0.0666(5)
H2 H 0.0903 0.5003 -0.1226
C3 C 0.1251(8) 0.5773(5) -0.0258(6)
H3 H 0.0973 0.6242 -0.0530
C4 C 0.1734(7) 0.5815(5) 0.0567(5)
H4 H 0.1788 0.6312 0.0851
C5 C 0.2132(5) 0.5100(4) 0.0957(4)
C6 C 0.2727(6) 0.5098(4) 0.1813(4)
C7 C 0.2999(7) 0.5820(4) 0.2233(5)
H5 H 0.2798 0.6320 0.1987
C8 C 0.3576(8) 0.5790(5) 0.3028(6)
H6 H 0.3747 0.6267 0.3330
C9 C 0.3888(8) 0.5037(6) 0.3355(5)
H7 H 0.4287 0.4994 0.3879
C10 C 0.3598(7) 0.4353(5) 0.2892(5)
H8 H 0.3813 0.3846 0.3115
C11 C 0.4524(7) 0.3151(5) 0.0206(5)
C12 C 0.5650(9) 0.3198(7) -0.0226(8)
H9 H 0.5629 0.2830 -0.0700
H10 H 0.6268 0.3047 0.0170
H11 H 0.5767 0.3746 -0.0421
Pb1E Pb 0.23657(2) 0.187098(14) -0.128643(15)
Pb1B Pb -0.26343(2) 0.312902(14) 0.371357(15)
O1E O 0.1252(7) 0.2306(5) 0.0066(4)
O2E O 0.0590(5) 0.1401(4) -0.0836(4)
O3E O 0.0963(8) 0.2640(6) -0.2714(9)
O5B O -0.0389(6) 0.3674(5) 0.3155(5)
O5E O 0.4611(6) 0.1326(5) -0.1845(5)
O6B O -0.0944(12) 0.2744(9) 0.2188(8)
O6E O 0.4056(12) 0.2256(9) -0.2812(8)
N1E N 0.2969(5) 0.0627(4) -0.0559(4)
N2E N 0.1979(5) 0.0625(4) -0.2134(3)
C1E C 0.3443(7) 0.0657(5) 0.0237(4)
H1E H 0.3525 0.1162 0.0505
C2E C 0.3811(7) -0.0036(6) 0.0666(5)
H2E H 0.4097 -0.0003 0.1226
C3E C 0.3749(8) -0.0773(5) 0.0258(6)
H3E H 0.4027 -0.1242 0.0530
C4E C 0.3266(7) -0.0815(5) -0.0567(5)
H4E H 0.3212 -0.1312 -0.0851
C5E C 0.2868(5) -0.0100(4) -0.0957(4)
C6E C 0.2273(6) -0.0098(4) -0.1813(4)
C7E C 0.2001(7) -0.0820(4) -0.2233(5)
H5E H 0.2202 -0.1320 -0.1987
C8E C 0.1424(8) -0.0790(5) -0.3028(6)
H6E H 0.1253 -0.1267 -0.3330
C9E C 0.1112(8) -0.0037(6) -0.3355(5)
H7E H 0.0713 0.0006 -0.3879
C10E C 0.1402(7) 0.0647(5) -0.2892(5)
H8E H 0.1187 0.1154 -0.3115
C11E C 0.0476(7) 0.1849(5) -0.0206(5)
C12E C -0.0650(9) 0.1802(7) 0.0226(8)
H9E H -0.0629 0.2170 0.0700
H10E H -0.1268 0.1953 -0.0170
H11E H -0.0767 0.1254 0.0421
Cl1 Cl 1.0000 0.30923(16) 0.7500
Cl2 Cl 0.5000 0.18031(16) 0.7500
O4 O 1.0332(15) 0.3547(14) 0.8209(9)
Pb1B Pb 1.23657(2) 0.187098(14) 0.871357(15)
Pb1B Pb 0.23657(2) 0.187098(14) 0.871357(15)
O3B O 1.0963(8) 0.2640(6) 0.7286(9)
O4B O 0.9668(15) 0.3547(14) 0.6791(9)
O5B O 0.4611(6) 0.1326(5) 0.8155(5)
O6B O 0.4056(12) 0.2256(9) 0.7188(8)
Cl1 Cl 0.0000 0.30923(16) 0.7500
O1 O 0.1252(7) 0.2306(5) 1.0066(4)
O2 O 0.0590(5) 0.1401(4) 0.9164(4)
O3 O 0.0963(8) 0.2640(6) 0.7286(9)
O4 O -0.0332(15) 0.3547(14) 0.6791(9)
N1 N 0.2969(5) 0.0627(4) 0.9441(4)
N2 N 0.1979(5) 0.0625(4) 0.7866(3)
C1 C 0.3443(7) 0.0657(5) 1.0237(4)
H1 H 0.3525 0.1162 1.0505
C2 C 0.3811(7) -0.0036(6) 1.0666(5)
H2 H 0.4097 -0.0003 1.1226
C3 C 0.3749(8) -0.0773(5) 1.0258(6)
H3 H 0.4027 -0.1242 1.0530
C4 C 0.3266(7) -0.0815(5) 0.9433(5)
H4 H 0.3212 -0.1312 0.9149
C5 C 0.2868(5) -0.0100(4) 0.9043(4)
C6 C 0.2273(6) -0.0098(4) 0.8187(4)
C7 C 0.2001(7) -0.0820(4) 0.7767(5)
H5 H 0.2202 -0.1320 0.8013
C8 C 0.1424(8) -0.0790(5) 0.6972(6)
H6 H 0.1253 -0.1267 0.6670
C9 C 0.1112(8) -0.0037(6) 0.6645(5)
H7 H 0.0713 0.0006 0.6121
C10 C 0.1402(7) 0.0647(5) 0.7108(5)
H8 H 0.1187 0.1154 0.6885
C11 C 0.0476(7) 0.1849(5) 0.9794(5)
C12 C -0.0650(9) 0.1802(7) 1.0226(8)
H9 H -0.0629 0.2170 1.0700
H10 H -0.1268 0.1953 0.9830
H11 H -0.0767 0.1254 1.0421
Pb1E Pb 0.26343(2) 0.312902(14) 1.128643(15)
Pb1B Pb -0.23657(2) 0.187098(14) 0.628643(15)
O1E O 0.3748(7) 0.2694(5) 0.9934(4)
O2E O 0.4410(5) 0.3599(4) 1.0836(4)
O3B O -0.0963(8) 0.2640(6) 0.7714(9)
O3E O 0.4037(8) 0.2360(6) 1.2714(9)
O4B O 0.0332(15) 0.3547(14) 0.8209(9)
O5E O 0.0389(6) 0.3674(5) 1.1845(5)
O6E O 0.0944(12) 0.2744(9) 1.2812(8)
N1E N 0.2031(5) 0.4373(4) 1.0559(4)
N2E N 0.3021(5) 0.4375(4) 1.2134(3)
C1E C 0.1557(7) 0.4343(5) 0.9763(4)
H1E H 0.1475 0.3838 0.9495
C2E C 0.1189(7) 0.5036(6) 0.9334(5)
H2E H 0.0903 0.5003 0.8774
C3E C 0.1251(8) 0.5773(5) 0.9742(6)
H3E H 0.0973 0.6242 0.9470
C4E C 0.1734(7) 0.5815(5) 1.0567(5)
H4E H 0.1788 0.6312 1.0851
C5E C 0.2132(5) 0.5100(4) 1.0957(4)
C6E C 0.2727(6) 0.5098(4) 1.1813(4)
C7E C 0.2999(7) 0.5820(4) 1.2233(5)
H5E H 0.2798 0.6320 1.1987
C8E C 0.3576(8) 0.5790(5) 1.3028(6)
H6E H 0.3747 0.6267 1.3330
C9E C 0.3888(8) 0.5037(6) 1.3355(5)
H7E H 0.4287 0.4994 1.3879
C10E C 0.3598(7) 0.4353(5) 1.2892(5)
H8E H 0.3813 0.3846 1.3115
C11E C 0.4524(7) 0.3151(5) 1.0206(5)
C12E C 0.5650(9) 0.3198(7) 0.9774(8)
H9E H 0.5629 0.2830 0.9300
H10E H 0.6268 0.3047 1.0170
H11E H 0.5767 0.3746 0.9579
Pb1 Pb 0.23657(2) 0.812902(14) 0.371357(15)
Cl1 Cl 0.0000 0.69077(16) 0.2500
Cl2 Cl 0.5000 0.81969(16) 0.2500
O1 O 0.1252(7) 0.7694(5) 0.5066(4)
O2 O 0.0590(5) 0.8599(4) 0.4164(4)
O3 O 0.0963(8) 0.7360(6) 0.2286(9)
O4 O -0.0332(15) 0.6453(14) 0.1791(9)
O5 O 0.4611(6) 0.8674(5) 0.3155(5)
O6 O 0.4056(12) 0.7744(9) 0.2188(8)
N1 N 0.2969(5) 0.9373(4) 0.4441(4)
N2 N 0.1979(5) 0.9375(4) 0.2866(3)
C1 C 0.3443(7) 0.9343(5) 0.5237(4)
H1 H 0.3525 0.8838 0.5505
C2 C 0.3811(7) 1.0036(6) 0.5666(5)
H2 H 0.4097 1.0003 0.6226
C3 C 0.3749(8) 1.0773(5) 0.5258(6)
H3 H 0.4027 1.1242 0.5530
C4 C 0.3266(7) 1.0815(5) 0.4433(5)
H4 H 0.3212 1.1312 0.4149
C5 C 0.2868(5) 1.0100(4) 0.4043(4)
C6 C 0.2273(6) 1.0098(4) 0.3187(4)
C7 C 0.2001(7) 1.0820(4) 0.2767(5)
H5 H 0.2202 1.1320 0.3013
C8 C 0.1424(8) 1.0790(5) 0.1972(6)
H6 H 0.1253 1.1267 0.1670
C9 C 0.1112(8) 1.0037(6) 0.1645(5)
H7 H 0.0713 0.9994 0.1121
C10 C 0.1402(7) 0.9353(5) 0.2108(5)
H8 H 0.1187 0.8846 0.1885
C11 C 0.0476(7) 0.8151(5) 0.4794(5)
C12 C -0.0650(9) 0.8198(7) 0.5226(8)
H9 H -0.0629 0.7830 0.5700
H10 H -0.1268 0.8047 0.4830
H11 H -0.0767 0.8746 0.5421
Pb1E Pb 0.26343(2) 0.687098(14) 0.628643(15)
Pb1B Pb -0.23657(2) 0.812902(14) 0.128643(15)
Pb1B Pb 0.76343(2) 0.812902(14) 0.128643(15)
O1E O 0.3748(7) 0.7306(5) 0.4934(4)
O2E O 0.4410(5) 0.6401(4) 0.5836(4)
O3B O -0.0963(8) 0.7360(6) 0.2714(9)
O3E O 0.4037(8) 0.7640(6) 0.7714(9)
O4B O 0.0332(15) 0.6453(14) 0.3209(9)
O5B O 0.5389(6) 0.8674(5) 0.1845(5)
O5E O 0.0389(6) 0.6326(5) 0.6845(5)
O6B O 0.5944(12) 0.7744(9) 0.2812(8)
O6E O 0.0944(12) 0.7256(9) 0.7812(8)
N1E N 0.2031(5) 0.5627(4) 0.5559(4)
N2E N 0.3021(5) 0.5625(4) 0.7134(3)
C1E C 0.1557(7) 0.5657(5) 0.4763(4)
H1E H 0.1475 0.6162 0.4495
C2E C 0.1189(7) 0.4964(6) 0.4334(5)
H2E H 0.0903 0.4997 0.3774
C3E C 0.1251(8) 0.4227(5) 0.4742(6)
H3E H 0.0973 0.3758 0.4470
C4E C 0.1734(7) 0.4185(5) 0.5567(5)
H4E H 0.1788 0.3688 0.5851
C5E C 0.2132(5) 0.4900(4) 0.5957(4)
C6E C 0.2727(6) 0.4902(4) 0.6813(4)
C7E C 0.2999(7) 0.4180(4) 0.7233(5)
H5E H 0.2798 0.3680 0.6987
C8E C 0.3576(8) 0.4210(5) 0.8028(6)
H6E H 0.3747 0.3733 0.8330
C9E C 0.3888(8) 0.4963(6) 0.8355(5)
H7E H 0.4287 0.5006 0.8879
C10E C 0.3598(7) 0.5647(5) 0.7892(5)
H8E H 0.3813 0.6154 0.8115
C11E C 0.4524(7) 0.6849(5) 0.5206(5)
C12E C 0.5650(9) 0.6802(7) 0.4774(8)
H9E H 0.5629 0.7170 0.4300
H10E H 0.6268 0.6953 0.5170
H11E H 0.5767 0.6254 0.4579
Cl1 Cl 1.0000 0.69077(16) 0.2500
O1 O 0.8748(7) 0.7694(5) -0.0066(4)
O2 O 0.9410(5) 0.8599(4) 0.0836(4)
O3 O 0.9037(8) 0.7360(6) 0.2714(9)
O4 O 1.0332(15) 0.6453(14) 0.3209(9)
N1 N 0.7031(5) 0.9373(4) 0.0559(4)
N2 N 0.8021(5) 0.9375(4) 0.2134(3)
C1 C 0.6557(7) 0.9343(5) -0.0237(4)
H1 H 0.6475 0.8838 -0.0505
C2 C 0.6189(7) 1.0036(6) -0.0666(5)
H2 H 0.5903 1.0003 -0.1226
C3 C 0.6251(8) 1.0773(5) -0.0258(6)
H3 H 0.5973 1.1242 -0.0530
C4 C 0.6734(7) 1.0815(5) 0.0567(5)
H4 H 0.6788 1.1312 0.0851
C5 C 0.7132(5) 1.0100(4) 0.0957(4)
C6 C 0.7727(6) 1.0098(4) 0.1813(4)
C7 C 0.7999(7) 1.0820(4) 0.2233(5)
H5 H 0.7798 1.1320 0.1987
C8 C 0.8576(8) 1.0790(5) 0.3028(6)
H6 H 0.8747 1.1267 0.3330
C9 C 0.8888(8) 1.0037(6) 0.3355(5)
H7 H 0.9287 0.9994 0.3879
C10 C 0.8598(7) 0.9353(5) 0.2892(5)
H8 H 0.8813 0.8846 0.3115
C11 C 0.9524(7) 0.8151(5) 0.0206(5)
C12 C 1.0650(9) 0.8198(7) -0.0226(8)
H9 H 1.0629 0.7830 -0.0700
H10 H 1.1268 0.8047 0.0170
H11 H 1.0767 0.8746 -0.0421
Pb1E Pb 0.73657(2) 0.687098(14) -0.128643(15)
Pb1B Pb 1.23657(2) 0.812902(14) 0.371357(15)
O1E O 0.6252(7) 0.7306(5) 0.0066(4)
O2E O 0.5590(5) 0.6401(4) -0.0836(4)
O3B O 1.0963(8) 0.7360(6) 0.2286(9)
O3E O 0.5963(8) 0.7640(6) -0.2714(9)
O4B O 0.9668(15) 0.6453(14) 0.1791(9)
O5E O 0.9611(6) 0.6326(5) -0.1845(5)
O6E O 0.9056(12) 0.7256(9) -0.2812(8)
N1E N 0.7969(5) 0.5627(4) -0.0559(4)
N2E N 0.6979(5) 0.5625(4) -0.2134(3)
C1E C 0.8443(7) 0.5657(5) 0.0237(4)
H1E H 0.8525 0.6162 0.0505
C2E C 0.8811(7) 0.4964(6) 0.0666(5)
H2E H 0.9097 0.4997 0.1226
C3E C 0.8749(8) 0.4227(5) 0.0258(6)
H3E H 0.9027 0.3758 0.0530
C4E C 0.8266(7) 0.4185(5) -0.0567(5)
H4E H 0.8212 0.3688 -0.0851
C5E C 0.7868(5) 0.4900(4) -0.0957(4)
C6E C 0.7273(6) 0.4902(4) -0.1813(4)
C7E C 0.7001(7) 0.4180(4) -0.2233(5)
H5E H 0.7202 0.3680 -0.1987
C8E C 0.6424(8) 0.4210(5) -0.3028(6)
H6E H 0.6253 0.3733 -0.3330
C9E C 0.6112(8) 0.4963(6) -0.3355(5)
H7E H 0.5713 0.5006 -0.3879
C10E C 0.6402(7) 0.5647(5) -0.2892(5)
H8E H 0.6187 0.6154 -0.3115
C11E C 0.5476(7) 0.6849(5) -0.0206(5)
C12E C 0.4350(9) 0.6802(7) 0.0226(8)
H9E H 0.4371 0.7170 0.0700
H10E H 0.3732 0.6953 -0.0170
H11E H 0.4233 0.6254 0.0421
Cl1 Cl 0.5000 0.80923(16) 0.7500
Cl2 Cl 0.0000 0.68031(16) 0.7500
O4 O 0.5332(15) 0.8547(14) 0.8209(9)
Pb1B Pb 0.73657(2) 0.687098(14) 0.871357(15)
Pb1B Pb -0.26343(2) 0.687098(14) 0.871357(15)
O3B O 0.5963(8) 0.7640(6) 0.7286(9)
O4B O 0.4668(15) 0.8547(14) 0.6791(9)
O5B O -0.0389(6) 0.6326(5) 0.8155(5)
O6B O -0.0944(12) 0.7256(9) 0.7188(8)
Cl2 Cl 1.0000 0.68031(16) 0.7500
O1 O 0.6252(7) 0.7306(5) 1.0066(4)
O2 O 0.5590(5) 0.6401(4) 0.9164(4)
O5 O 0.9611(6) 0.6326(5) 0.8155(5)
O6 O 0.9056(12) 0.7256(9) 0.7188(8)
N1 N 0.7969(5) 0.5627(4) 0.9441(4)
N2 N 0.6979(5) 0.5625(4) 0.7866(3)
C1 C 0.8443(7) 0.5657(5) 1.0237(4)
H1 H 0.8525 0.6162 1.0505
C2 C 0.8811(7) 0.4964(6) 1.0666(5)
H2 H 0.9097 0.4997 1.1226
C3 C 0.8749(8) 0.4227(5) 1.0258(6)
H3 H 0.9027 0.3758 1.0530
C4 C 0.8266(7) 0.4185(5) 0.9433(5)
H4 H 0.8212 0.3688 0.9149
C5 C 0.7868(5) 0.4900(4) 0.9043(4)
C6 C 0.7273(6) 0.4902(4) 0.8187(4)
C7 C 0.7001(7) 0.4180(4) 0.7767(5)
H5 H 0.7202 0.3680 0.8013
C8 C 0.6424(8) 0.4210(5) 0.6972(6)
H6 H 0.6253 0.3733 0.6670
C9 C 0.6112(8) 0.4963(6) 0.6645(5)
H7 H 0.5713 0.5006 0.6121
C10 C 0.6402(7) 0.5647(5) 0.7108(5)
H8 H 0.6187 0.6154 0.6885
C11 C 0.5476(7) 0.6849(5) 0.9794(5)
C12 C 0.4350(9) 0.6802(7) 1.0226(8)
H9 H 0.4371 0.7170 1.0700
H10 H 0.3732 0.6953 0.9830
H11 H 0.4233 0.6254 1.0421
Pb1E Pb 0.76343(2) 0.812902(14) 1.128643(15)
Pb1B Pb 1.26343(2) 0.687098(14) 0.628643(15)
O1E O 0.8748(7) 0.7694(5) 0.9934(4)
O2E O 0.9410(5) 0.8599(4) 1.0836(4)
O3E O 0.9037(8) 0.7360(6) 1.2714(9)
O5B O 1.0389(6) 0.6326(5) 0.6845(5)
O5E O 0.5389(6) 0.8674(5) 1.1845(5)
O6B O 1.0944(12) 0.7256(9) 0.7812(8)
O6E O 0.5944(12) 0.7744(9) 1.2812(8)
N1E N 0.7031(5) 0.9373(4) 1.0559(4)
N2E N 0.8021(5) 0.9375(4) 1.2134(3)
C1E C 0.6557(7) 0.9343(5) 0.9763(4)
H1E H 0.6475 0.8838 0.9495
C2E C 0.6189(7) 1.0036(6) 0.9334(5)
H2E H 0.5903 1.0003 0.8774
C3E C 0.6251(8) 1.0773(5) 0.9742(6)
H3E H 0.5973 1.1242 0.9470
C4E C 0.6734(7) 1.0815(5) 1.0567(5)
H4E H 0.6788 1.1312 1.0851
C5E C 0.7132(5) 1.0100(4) 1.0957(4)
C6E C 0.7727(6) 1.0098(4) 1.1813(4)
C7E C 0.7999(7) 1.0820(4) 1.2233(5)
H5E H 0.7798 1.1320 1.1987
C8E C 0.8576(8) 1.0790(5) 1.3028(6)
H6E H 0.8747 1.1267 1.3330
C9E C 0.8888(8) 1.0037(6) 1.3355(5)
H7E H 0.9287 0.9994 1.3879
C10E C 0.8598(7) 0.9353(5) 1.2892(5)
H8E H 0.8813 0.8846 1.3115
C11E C 0.9524(7) 0.8151(5) 1.0206(5)
C12E C 1.0650(9) 0.8198(7) 0.9774(8)
H9E H 1.0629 0.7830 0.9300
H10E H 1.1268 0.8047 1.0170
H11E H 1.0767 0.8746 0.9579

#END
