./ACOROA01_from_POSCAR.cif_generated_by_CrystalShift
_symmetry_cell_setting triclinic
_symmetry_space_group_name_H-M 'P 1'
loop_
_symmetry_equiv_pos_site_id
_symmetry_equiv_pos_as_xyz
1 x,y,z
_cell_length_a 9.780000
_cell_length_b 10.593200
_cell_length_c 13.941000
_cell_angle_alpha 100.080000
_cell_angle_beta 108.778000
_cell_angle_gamma 100.794000
_cell_volume 1299.532572
loop_
_atom_site_label
_atom_site_type_symbol
_atom_site_fract_x
_atom_site_fract_y
_atom_site_fract_z
H1 H 0.133700 0.512400 0.713700
H2 H 0.203800 0.555100 0.835100
H3 H 0.095400 0.629000 0.775000
H4 H 0.341600 0.757400 0.828100
H5 H 0.271600 0.714600 0.706700
H6 H 0.558100 0.428400 0.723300
H7 H 0.693000 0.493400 0.573900
H8 H 0.887800 0.571000 0.516600
H9 H 1.078700 0.734600 0.515200
H10 H 1.136100 0.953000 0.619600
H11 H 0.465800 0.595000 0.827900
H12 H 1.019400 0.776100 1.048100
H13 H 0.921900 0.639700 1.043000
H14 H 1.053700 0.646000 1.003500
H15 H 0.829400 0.590800 0.860300
H16 H 0.927400 0.726800 0.865200
H17 H 0.187000 0.630600 0.282300
H18 H 0.114600 0.736600 0.322400
H19 H 0.253300 0.779700 0.293000
H20 H 0.842300 0.884400 1.034400
H21 H 0.872700 0.931200 0.942100
H22 H 0.696200 1.034100 0.972100
H23 H 0.598000 0.900800 0.972000
H24 H 0.555900 1.084400 0.832300
H25 H 0.443800 1.176700 0.695200
H26 H 0.306900 1.159500 0.521500
H27 H 0.238600 0.955300 0.395400
H28 H 0.684500 0.693600 0.927600
H29 H 0.328400 0.530600 0.611800
H30 H 0.313000 0.436100 0.683200
H31 H 1.219000 1.105900 0.779100
H32 H 1.141100 1.216300 0.801400
H33 H 1.117600 1.149500 0.687000
H34 H 0.315500 0.306400 0.072400
H35 H 0.761400 0.044700 0.604600
H36 H 0.693100 -0.159500 0.478500
H37 H 0.556200 -0.176700 0.304800
H38 H 0.444100 -0.084400 0.167700
H39 H 0.402000 0.099200 0.028000
H40 H 0.303800 -0.034100 0.027900
H41 H 0.127300 0.068800 0.057900
H42 H 0.157700 0.115600 -0.034400
H43 H 0.746700 0.220300 0.707000
H44 H 0.885400 0.263400 0.677600
H45 H 0.813000 0.369400 0.717700
H46 H 0.072600 0.273200 0.134800
H47 H 0.170600 0.409200 0.139700
H48 H -0.053700 0.354000 -0.003500
H49 H 0.078100 0.360300 -0.043000
H50 H -0.019400 0.223900 -0.048100
H51 H 0.534200 0.405000 0.172100
H52 H -0.136100 0.047000 0.380400
H53 H -0.078700 0.265400 0.484800
H54 H 0.112200 0.429000 0.483400
H55 H 0.307000 0.506600 0.426100
H56 H 0.441900 0.571600 0.276700
H57 H 0.508700 0.597500 0.397700
H58 H 0.671600 0.469400 0.388200
H59 H 0.687000 0.563900 0.316800
H60 H -0.219000 -0.105900 0.220900
H61 H -0.141100 -0.216300 0.198600
H62 H -0.117600 -0.149500 0.313000
H63 H 0.728400 0.285400 0.293300
H64 H 0.658400 0.242600 0.171900
H65 H 0.904600 0.371000 0.225000
H66 H 0.796200 0.444900 0.164900
H67 H 0.866300 0.487600 0.286300
H68 H 0.491300 0.402500 0.602300
C69 C 0.827900 0.413600 0.226600
C70 C 0.695200 0.316800 0.231500
C71 C -0.130400 -0.134900 0.245500
C72 C 0.620200 0.492900 0.325500
C73 C 0.483800 0.533700 0.333500
C74 C 0.568100 0.136000 0.398700
C75 C 0.658800 0.144900 0.504400
C76 C 0.702800 0.036900 0.533200
C77 C 0.431900 0.864000 0.601300
C78 C 0.341200 0.855100 0.495600
C79 C 0.297200 0.963100 0.466800
C80 C 0.337000 1.083900 0.542000
C81 C 0.418600 1.094500 0.644500
C82 C 0.465500 0.984800 0.675600
C83 C 0.541800 1.000500 0.786100
C84 C 0.664800 0.939900 0.941700
C85 C 0.798700 0.882500 0.961900
C86 C 0.206800 0.718400 0.322800
C87 C 0.870400 0.681700 0.899200
C88 C 0.976500 0.686600 1.008100
C89 C 0.853200 0.815600 0.682100
C90 C 0.976800 0.914400 0.683300
C91 C 1.056400 0.884900 0.620300
C92 C 1.022800 0.755900 0.557600
C93 C 0.909200 0.658900 0.558500
C94 C 0.823300 0.686800 0.619900
C95 C 0.708500 0.578300 0.618500
C96 C 0.516200 0.466300 0.666500
C97 C 0.379800 0.507100 0.674500
C98 C 1.130400 1.134900 0.754500
C99 C 0.304800 0.683200 0.768500
C100 C 0.172100 0.586400 0.773400
C101 C 0.291500 0.421700 0.381500
C102 C 0.176700 0.313200 0.380100
C103 C 0.090800 0.341100 0.441500
C104 C -0.022800 0.244100 0.442400
C105 C -0.056400 0.115100 0.379700
C106 C 0.023200 0.085600 0.316700
C107 C 0.146800 0.184400 0.317900
C108 C 0.023500 0.313400 -0.008100
C109 C 0.129600 0.318300 0.100800
C110 C 0.793200 0.281600 0.677200
C111 C 0.201300 0.117500 0.038100
C112 C 0.335200 0.060100 0.058300
C113 C 0.458200 -0.000500 0.213900
C114 C 0.534500 0.015200 0.324400
C115 C 0.581400 -0.094500 0.355500
C116 C 0.663000 -0.083900 0.458000
N117 N 0.624300 0.587300 0.672800
N118 N 0.744500 0.742600 0.897600
N119 N 0.569700 0.375900 0.234500
N120 N 0.375700 0.412700 0.327200
N121 N 0.255500 0.257400 0.102400
N122 N 0.408100 0.089400 0.172700
N123 N 0.591900 0.910600 0.827300
N124 N 0.430300 0.624100 0.765500
O125 O 0.640500 0.506700 0.975500
O126 O 1.003900 1.036200 0.748300
O127 O 0.778400 0.852400 0.740800
O128 O 0.302900 0.732400 0.428400
O129 O 0.473900 0.757900 0.622900
O130 O -0.003900 -0.036200 0.251700
O131 O 0.221600 0.147600 0.259200
O132 O 0.697100 0.267600 0.571600
O133 O 0.526100 0.242100 0.377100
O134 O 0.430300 0.354500 0.843200
O135 O 0.668700 0.318800 0.876800
O136 O 0.450800 0.703700 0.002500
O137 O 0.331300 0.681200 0.123200
O138 O 0.569700 0.645500 0.156800
O139 O 0.359500 0.493300 0.024500
O140 O 0.549200 0.296300 0.997500
Cl141 Cl 0.428190 0.630940 0.076430
Cl142 Cl 0.571810 0.369060 0.923570
Fe143 Fe 0.392100 0.252150 0.248460
Fe144 Fe 0.607900 0.747850 0.751540

#END
