
#######################################################################
#
#                 Cambridge Crystallographic Data Centre
#                                CCDC 
#
#######################################################################
#
# If this CIF has been generated from an entry in the Cambridge 
# Structural Database, then it will include bibliographic, chemical, 
# crystal, experimental, refinement or atomic coordinate data resulting 
# from the CCDC's data processing and validation procedures.
#
#######################################################################

data_ACOROA01
_symmetry_cell_setting           triclinic
_symmetry_space_group_name_H-M   'P -1'
_symmetry_Int_Tables_number      2
_space_group_name_Hall           '-P 1'
loop_
_symmetry_equiv_pos_site_id
_symmetry_equiv_pos_as_xyz
1 x,y,z
2 -x,-y,-z
_cell_length_a                   9.780(1)
_cell_length_b                   10.5932(7)
_cell_length_c                   13.941(1)
_cell_angle_alpha                100.080(4)
_cell_angle_beta                 108.778(4)
_cell_angle_gamma                100.794(6)
_cell_volume                     1299.53
loop_
_atom_site_label
_atom_site_type_symbol
_atom_site_fract_x
_atom_site_fract_y
_atom_site_fract_z
Fe1 Fe 0.39210(4) 0.25215(3) 0.24846(3)
O1 O 0.5261(2) 0.2421(2) 0.3771(1)
O2 O 0.6971(2) 0.2676(2) 0.5716(1)
O3 O 0.2216(2) 0.1476(2) 0.2592(1)
O4 O -0.0039(2) -0.0362(2) 0.2517(1)
N1 N 0.4081(2) 0.0894(2) 0.1727(1)
N2 N 0.2555(2) 0.2574(2) 0.1024(2)
N3 N 0.3757(2) 0.4127(2) 0.3272(1)
N4 N 0.5697(2) 0.3759(2) 0.2345(1)
C1 C 0.5681(2) 0.1360(2) 0.3987(2)
C2 C 0.6588(2) 0.1449(2) 0.5044(2)
C3 C 0.7028(2) 0.0369(2) 0.5332(2)
C4 C 0.6630(3) -0.0839(2) 0.4580(2)
C5 C 0.5814(3) -0.0945(2) 0.3555(2)
C6 C 0.5345(2) 0.0152(2) 0.3244(2)
C7 C 0.4582(3) -0.0005(2) 0.2139(2)
C8 C 0.3352(3) 0.0601(2) 0.0583(2)
C9 C 0.2013(3) 0.1175(2) 0.0381(2)
C10 C 0.7932(3) 0.2816(2) 0.6772(2)
C11 C 0.1296(3) 0.3183(3) 0.1008(2)
C12 C 0.0235(3) 0.3134(3) -0.0081(2)
C13 C 0.1468(2) 0.1844(2) 0.3179(2)
C14 C 0.0232(2) 0.0856(2) 0.3167(2)
C15 C -0.0564(3) 0.1151(2) 0.3797(2)
C16 C -0.0228(3) 0.2441(3) 0.4424(2)
C17 C 0.0908(3) 0.3411(2) 0.4415(2)
C18 C 0.1767(2) 0.3132(2) 0.3801(2)
C19 C 0.2915(3) 0.4217(2) 0.3815(2)
C20 C 0.4838(3) 0.5337(2) 0.3335(2)
C21 C 0.6202(3) 0.4929(2) 0.3255(2)
C22 C -0.1304(3) -0.1349(2) 0.2455(2)
C23 C 0.6952(3) 0.3168(2) 0.2315(2)
C24 C 0.8279(3) 0.4136(3) 0.2266(2)
H1 H 0.3155 0.3064 0.0724
H2 H 0.7614 0.0447 0.6046
H3 H 0.6931 -0.1595 0.4785
H4 H 0.5562 -0.1767 0.3048
H5 H 0.4441 -0.0844 0.1677
H6 H 0.4020 0.0992 0.0280
H7 H 0.3038 -0.0341 0.0279
H8 H 0.1273 0.0688 0.0579
H9 H 0.1577 0.1156 -0.0344
H10 H 0.7467 0.2203 0.7070
H11 H 0.8854 0.2634 0.6776
H12 H 0.8130 0.3694 0.7177
H13 H 0.0726 0.2732 0.1348
H14 H 0.1706 0.4092 0.1397
H15 H -0.0537 0.3540 -0.0035
H16 H 0.0781 0.3603 -0.0430
H17 H -0.0194 0.2239 -0.0481
H18 H 0.5342 0.4050 0.1721
H19 H -0.1361 0.0470 0.3804
H20 H -0.0787 0.2654 0.4848
H21 H 0.1122 0.4290 0.4834
H22 H 0.3070 0.5066 0.4261
H23 H 0.4419 0.5716 0.2767
H24 H 0.5087 0.5975 0.3977
H25 H 0.6716 0.4694 0.3882
H26 H 0.6870 0.5639 0.3168
H27 H -0.2190 -0.1059 0.2209
H28 H -0.1411 -0.2163 0.1986
H29 H -0.1176 -0.1495 0.3130
H30 H 0.7284 0.2854 0.2933
H31 H 0.6584 0.2426 0.1719
H32 H 0.9046 0.3710 0.2250
H33 H 0.7962 0.4449 0.1649
H34 H 0.8663 0.4876 0.2863
Fe1 Fe 0.60790(4) 0.74785(3) 0.75154(3)
O1 O 0.4739(2) 0.7579(2) 0.6229(1)
O2 O 0.3029(2) 0.7324(2) 0.4284(1)
O3 O 0.7784(2) 0.8524(2) 0.7408(1)
O4 O 1.0039(2) 1.0362(2) 0.7483(1)
N1 N 0.5919(2) 0.9106(2) 0.8273(1)
N2 N 0.7445(2) 0.7426(2) 0.8976(2)
N3 N 0.6243(2) 0.5873(2) 0.6728(1)
N4 N 0.4303(2) 0.6241(2) 0.7655(1)
C1 C 0.4319(2) 0.8640(2) 0.6013(2)
C2 C 0.3412(2) 0.8551(2) 0.4956(2)
C3 C 0.2972(2) 0.9631(2) 0.4668(2)
C4 C 0.3370(3) 1.0839(2) 0.5420(2)
C5 C 0.4186(3) 1.0945(2) 0.6445(2)
C6 C 0.4655(2) 0.9848(2) 0.6756(2)
C7 C 0.5418(3) 1.0005(2) 0.7861(2)
C8 C 0.6648(3) 0.9399(2) 0.9417(2)
C9 C 0.7987(3) 0.8825(2) 0.9619(2)
C10 C 0.2068(3) 0.7184(2) 0.3228(2)
C11 C 0.8704(3) 0.6817(3) 0.8992(2)
C12 C 0.9765(3) 0.6866(3) 1.0081(2)
C13 C 0.8532(2) 0.8156(2) 0.6821(2)
C14 C 0.9768(2) 0.9144(2) 0.6833(2)
C15 C 1.0564(3) 0.8849(2) 0.6203(2)
C16 C 1.0228(3) 0.7559(3) 0.5576(2)
C17 C 0.9092(3) 0.6589(2) 0.5585(2)
C18 C 0.8233(2) 0.6868(2) 0.6199(2)
C19 C 0.7085(3) 0.5783(2) 0.6185(2)
C20 C 0.5162(3) 0.4663(2) 0.6665(2)
C21 C 0.3798(3) 0.5071(2) 0.6745(2)
C22 C 1.1304(3) 1.1349(2) 0.7545(2)
C23 C 0.3048(3) 0.6832(2) 0.7685(2)
C24 C 0.1721(3) 0.5864(3) 0.7734(2)
H1 H 0.6845 0.6936 0.9276
H2 H 0.2386 0.9553 0.3954
H3 H 0.3069 1.1595 0.5215
H4 H 0.4438 1.1767 0.6952
H5 H 0.5559 1.0844 0.8323
H6 H 0.5980 0.9008 0.9720
H7 H 0.6962 1.0341 0.9721
H8 H 0.8727 0.9312 0.9421
H9 H 0.8423 0.8844 1.0344
H10 H 0.2533 0.7797 0.2930
H11 H 0.1146 0.7366 0.3224
H12 H 0.1870 0.6306 0.2823
H13 H 0.9274 0.7268 0.8652
H14 H 0.8294 0.5908 0.8603
H15 H 1.0537 0.6460 1.0035
H16 H 0.9219 0.6397 1.0430
H17 H 1.0194 0.7761 1.0481
H18 H 0.4658 0.5950 0.8279
H19 H 1.1361 0.9530 0.6196
H20 H 1.0787 0.7346 0.5152
H21 H 0.8878 0.5710 0.5166
H22 H 0.6930 0.4934 0.5739
H23 H 0.5581 0.4284 0.7233
H24 H 0.4913 0.4025 0.6023
H25 H 0.3284 0.5306 0.6118
H26 H 0.3130 0.4361 0.6832
H27 H 1.2190 1.1059 0.7791
H28 H 1.1411 1.2163 0.8014
H29 H 1.1176 1.1495 0.6870
H30 H 0.2716 0.7146 0.7067
H31 H 0.3416 0.7574 0.8281
H32 H 0.0954 0.6290 0.7750
H33 H 0.2038 0.5551 0.8351
H34 H 0.1337 0.5124 0.7137
Cl1 Cl 0.42819(6) 0.63094(6) 0.07643(4)
O5 O 0.4508(2) 0.7037(2) 0.0025(2)
O6 O 0.3313(2) 0.6812(2) 0.1232(2)
O7 O 0.5697(2) 0.6455(2) 0.1568(1)
O8 O 0.3595(2) 0.4933(2) 0.0245(2)
Cl1 Cl 0.57181(6) 0.36906(6) 0.92357(4)
O5 O 0.5492(2) 0.2963(2) 0.9975(2)
O6 O 0.6687(2) 0.3188(2) 0.8768(2)
O7 O 0.4303(2) 0.3545(2) 0.8432(1)
O8 O 0.6405(2) 0.5067(2) 0.9755(2)

#END
