
#######################################################################
#
#                 Cambridge Crystallographic Data Centre
#                                CCDC 
#
#######################################################################
#
# If this CIF has been generated from an entry in the Cambridge 
# Structural Database, then it will include bibliographic, chemical, 
# crystal, experimental, refinement or atomic coordinate data resulting 
# from the CCDC's data processing and validation procedures.
#
#######################################################################

data_ACOTUJ
_symmetry_cell_setting           triclinic
_symmetry_space_group_name_H-M   'P -1'
_symmetry_Int_Tables_number      2
_space_group_name_Hall           '-P 1'
loop_
_symmetry_equiv_pos_site_id
_symmetry_equiv_pos_as_xyz
1 x,y,z
2 -x,-y,-z
_cell_length_a                   8.96981(5)
_cell_length_b                   9.18519(5)
_cell_length_c                   14.95269(7)
_cell_angle_alpha                86.2178(4)
_cell_angle_beta                 76.6774(4)
_cell_angle_gamma                77.1641(4)
_cell_volume                     1168.69
loop_
_atom_site_label
_atom_site_type_symbol
_atom_site_fract_x
_atom_site_fract_y
_atom_site_fract_z
Ir1 Ir 0.716510(6) 0.717821(6) 0.701259(3)
Cl1 Cl 0.44431(4) 0.70021(4) 0.73504(2)
Cl2 Cl 0.75124(4) 0.52496(4) 0.58971(2)
C1 C 0.73867(17) 0.64362(17) 0.84364(10)
C2 C 0.86867(17) 0.56389(17) 0.78106(10)
C3 C 0.95002(17) 0.67072(19) 0.72470(10)
C4 C 0.86857(18) 0.81790(18) 0.75728(10)
C5 C 0.73291(17) 0.80296(17) 0.82812(10)
C6 C 0.62303(19) 0.5806(2) 0.91554(11)
H1 H 0.6414 0.4725 0.9077
H2 H 0.5164 0.6271 0.9094
H3 H 0.6356 0.6008 0.9766
C7 C 0.9173(2) 0.39853(19) 0.77202(13)
H4 H 0.8367 0.3518 0.8112
H5 H 1.0169 0.3632 0.7910
H6 H 0.9302 0.3719 0.7079
C8 C 1.10265(19) 0.6300(2) 0.65655(12)
H7 H 1.1252 0.7190 0.6209
H8 H 1.0963 0.5545 0.6150
H9 H 1.1866 0.5897 0.6890
C9 C 0.9187(2) 0.9610(2) 0.72512(12)
H10 H 0.9867 0.9822 0.7632
H11 H 0.8260 1.0426 0.7303
H12 H 0.9763 0.9518 0.6608
C10 C 0.6194(2) 0.92156(19) 0.88733(11)
H13 H 0.6450 0.9174 0.9479
H14 H 0.5128 0.9055 0.8944
H15 H 0.6258 1.0197 0.8586
C11 C 0.68311(16) 0.88966(16) 0.60816(9)
C12 C 0.58652(16) 1.03386(15) 0.61778(9)
C13 C 0.47790(17) 1.11344(16) 0.69789(10)
C14 C 0.34296(17) 1.06507(16) 0.74318(10)
H16 H 0.3160 0.9822 0.7208
C15 C 0.24786(18) 1.13873(18) 0.82126(11)
H17 H 0.1569 1.1047 0.8528
C16 C 0.2850(2) 1.26180(18) 0.85338(11)
H18 H 0.2212 1.3098 0.9077
C17 C 0.4156(2) 1.31459(18) 0.80598(12)
H19 H 0.4390 1.4010 0.8264
C18 C 0.51196(19) 1.24026(17) 0.72856(11)
H20 H 0.6015 1.2759 0.6963
N1 N 0.77030(15) 0.89742(14) 0.51971(8)
C19 C 0.9046(2) 0.78828(19) 0.47038(12)
H21 H 0.8962 0.7830 0.4065
H22 H 0.9053 0.6899 0.5001
H23 H 1.0020 0.8190 0.4715
N2 N 0.73500(16) 1.02710(15) 0.47546(9)
N3 N 0.62282(15) 1.10821(14) 0.53647(8)
C20 C 0.55140(19) 1.26007(17) 0.50968(11)
H24 H 0.6026 1.3321 0.5296
H25 H 0.4394 1.2827 0.5389
H26 H 0.5647 1.2667 0.4427
Ir1 Ir 0.283490(6) 0.282179(6) 0.298741(3)
Cl1 Cl 0.55569(4) 0.29979(4) 0.26496(2)
Cl2 Cl 0.24876(4) 0.47504(4) 0.41029(2)
C1 C 0.26133(17) 0.35638(17) 0.15636(10)
C2 C 0.13133(17) 0.43611(17) 0.21894(10)
C3 C 0.04998(17) 0.32928(19) 0.27530(10)
C4 C 0.13143(18) 0.18210(18) 0.24272(10)
C5 C 0.26709(17) 0.19704(17) 0.17188(10)
C6 C 0.37697(19) 0.4194(2) 0.08446(11)
H1 H 0.3586 0.5275 0.0923
H2 H 0.4836 0.3729 0.0906
H3 H 0.3644 0.3992 0.0234
C7 C 0.0827(2) 0.60147(19) 0.22798(13)
H4 H 0.1633 0.6482 0.1888
H5 H -0.0169 0.6368 0.2090
H6 H 0.0698 0.6281 0.2921
C8 C -0.10265(19) 0.3700(2) 0.34345(12)
H7 H -0.1252 0.2810 0.3791
H8 H -0.0963 0.4455 0.3850
H9 H -0.1866 0.4103 0.3110
C9 C 0.0813(2) 0.0390(2) 0.27488(12)
H10 H 0.0133 0.0178 0.2368
H11 H 0.1740 -0.0426 0.2697
H12 H 0.0237 0.0482 0.3392
C10 C 0.3806(2) 0.07844(19) 0.11267(11)
H13 H 0.3550 0.0826 0.0521
H14 H 0.4872 0.0945 0.1056
H15 H 0.3742 -0.0197 0.1414
C11 C 0.31689(16) 0.11034(16) 0.39184(9)
C12 C 0.41348(16) -0.03386(15) 0.38222(9)
C13 C 0.52210(17) -0.11344(16) 0.30211(10)
C14 C 0.65704(17) -0.06507(16) 0.25682(10)
H16 H 0.6840 0.0178 0.2792
C15 C 0.75214(18) -0.13873(18) 0.17874(11)
H17 H 0.8431 -0.1047 0.1472
C16 C 0.7150(2) -0.26180(18) 0.14662(11)
H18 H 0.7788 -0.3098 0.0923
C17 C 0.5844(2) -0.31459(18) 0.19402(12)
H19 H 0.5610 -0.4010 0.1736
C18 C 0.48804(19) -0.24026(17) 0.27144(11)
H20 H 0.3985 -0.2759 0.3037
N1 N 0.22970(15) 0.10258(14) 0.48029(8)
C19 C 0.0954(2) 0.21172(19) 0.52962(12)
H21 H 0.1038 0.2170 0.5935
H22 H 0.0947 0.3101 0.4999
H23 H -0.0020 0.1810 0.5285
N2 N 0.26500(16) -0.02710(15) 0.52454(9)
N3 N 0.37718(15) -0.10821(14) 0.46353(8)
C20 C 0.44860(19) -0.26007(17) 0.49032(11)
H24 H 0.3974 -0.3321 0.4704
H25 H 0.5606 -0.2827 0.4611
H26 H 0.4353 -0.2667 0.5573
C21 C 0.1276(2) 0.8030(2) 0.92170(12)
H27 H 0.0341 0.8774 0.9119
H28 H 0.2114 0.8011 0.8653
Cl3 Cl 0.19096(5) 0.85737(5) 1.01557(3)
Cl4 Cl 0.08115(6) 0.62636(5) 0.94079(4)
C21 C 0.8724(2) 0.1970(2) 0.07830(12)
H27 H 0.9659 0.1226 0.0881
H28 H 0.7886 0.1989 0.1347
Cl3 Cl 0.80904(5) 0.14263(5) -0.01557(3)
Cl4 Cl 0.91885(6) 0.37364(5) 0.05921(4)

#END
