
#######################################################################
#
#                 Cambridge Crystallographic Data Centre
#                                CCDC 
#
#######################################################################
#
# If this CIF has been generated from an entry in the Cambridge 
# Structural Database, then it will include bibliographic, chemical, 
# crystal, experimental, refinement or atomic coordinate data resulting 
# from the CCDC's data processing and validation procedures.
#
#######################################################################

data_ACOTUI
_symmetry_cell_setting           triclinic
_symmetry_space_group_name_H-M   'P -1'
_symmetry_Int_Tables_number      2
_space_group_name_Hall           '-P 1'
loop_
_symmetry_equiv_pos_site_id
_symmetry_equiv_pos_as_xyz
1 x,y,z
2 -x,-y,-z
_cell_length_a                   7.985(2)
_cell_length_b                   11.404(2)
_cell_length_c                   12.996(3)
_cell_angle_alpha                113.74(3)
_cell_angle_beta                 92.24(3)
_cell_angle_gamma                104.11(3)
_cell_volume                     1037.98
loop_
_atom_site_label
_atom_site_type_symbol
_atom_site_fract_x
_atom_site_fract_y
_atom_site_fract_z
O1 O 0.8241(2) 0.70038(13) 1.00087(12)
O2 O 0.8143(2) 0.53292(15) 1.05831(12)
O3 O 0.46446(15) 0.08622(11) 0.73180(10)
O4 O 0.10488(18) -0.13237(13) 0.33579(11)
O5 O 0.10550(16) 0.06291(15) 0.27425(11)
O6 O 0.29617(16) 0.32549(13) 0.41338(11)
C1 C 0.8802(3) 0.6692(2) 1.08978(19)
H1 H 1.0068 0.6948 1.1044
H2 H 0.8390 0.7187 1.1590
C2 C 0.7287(3) 0.57983(18) 0.91477(16)
C3 C 0.6510(3) 0.55791(18) 0.81271(17)
H3 H 0.6571 0.6275 0.7915
C4 C 0.5576(2) 0.42203(17) 0.73733(15)
C5 C 0.4735(2) 0.38940(17) 0.62951(16)
H4 H 0.4798 0.4567 0.6054
C6 C 0.3804(2) 0.25908(17) 0.55690(15)
C7 C 0.2881(2) 0.22465(18) 0.44717(15)
C8 C 0.2003(2) 0.09533(19) 0.37741(15)
C9 C 0.1976(2) -0.00765(18) 0.41345(15)
C10 C 0.2819(2) 0.02061(17) 0.51715(15)
H5 H 0.2789 -0.0477 0.5395
C11 C 0.3746(2) 0.15461(17) 0.59151(14)
C12 C 0.4617(2) 0.18742(16) 0.69967(15)
C13 C 0.5517(2) 0.31853(17) 0.77417(14)
C14 C 0.6388(2) 0.34990(19) 0.88470(16)
H6 H 0.6369 0.2838 0.9097
C15 C 0.7226(3) 0.47807(19) 0.95015(16)
C16 C 0.3164(3) 0.05064(18) 0.78372(17)
H7 H 0.2105 0.0463 0.7415
H8 H 0.3297 0.1179 0.8610
C17 C 0.3032(2) -0.08291(19) 0.78446(17)
C18 C 0.2397(4) -0.1120(3) 0.8685(3)
H9 H 0.2122 -0.0460 0.9302
C19 C 0.2144(5) -0.2389(4) 0.8649(4)
H10 H 0.1665 -0.2582 0.9223
C20 C 0.2607(4) -0.3356(3) 0.7760(4)
H11 H 0.2505 -0.4191 0.7747
C21 C 0.3206(3) -0.3075(2) 0.6912(3)
H12 H 0.3489 -0.3730 0.6296
C22 C 0.3404(3) -0.18409(19) 0.6944(2)
H13 H 0.3804 -0.1676 0.6340
C23 C 0.0869(3) -0.2368(2) 0.37074(19)
H14 H 0.2001 -0.2465 0.3862
H15 H 0.0150 -0.3188 0.3114
H16 H 0.0333 -0.2161 0.4383
C24 C 0.1952(3) 0.0327(3) 0.18076(18)
H17 H 0.2860 0.1107 0.1905
H18 H 0.1152 0.0040 0.1125
H19 H 0.2458 -0.0375 0.1751
C25 C 0.1381(3) 0.3606(2) 0.4084(2)
H20 H 0.0499 0.2854 0.3527
H21 H 0.1573 0.4341 0.3876
H22 H 0.1004 0.3861 0.4816
O1 O 0.1759(2) 0.29962(13) -0.00087(12)
O2 O 0.1857(2) 0.46708(15) -0.05831(12)
O3 O 0.53554(15) 0.91378(11) 0.26820(10)
O4 O 0.89512(18) 1.13237(13) 0.66421(11)
O5 O 0.89450(16) 0.93709(15) 0.72575(11)
O6 O 0.70383(16) 0.67451(13) 0.58662(11)
C1 C 0.1198(3) 0.3308(2) -0.08978(19)
H1 H -0.0068 0.3052 -0.1044
H2 H 0.1610 0.2813 -0.1590
C2 C 0.2713(3) 0.42017(18) 0.08523(16)
C3 C 0.3490(3) 0.44209(18) 0.18729(17)
H3 H 0.3429 0.3725 0.2085
C4 C 0.4424(2) 0.57797(17) 0.26267(15)
C5 C 0.5265(2) 0.61060(17) 0.37049(16)
H4 H 0.5202 0.5433 0.3946
C6 C 0.6196(2) 0.74092(17) 0.44310(15)
C7 C 0.7119(2) 0.77535(18) 0.55283(15)
C8 C 0.7997(2) 0.90467(19) 0.62259(15)
C9 C 0.8024(2) 1.00765(18) 0.58655(15)
C10 C 0.7181(2) 0.97939(17) 0.48285(15)
H5 H 0.7211 1.0477 0.4605
C11 C 0.6254(2) 0.84539(17) 0.40849(14)
C12 C 0.5383(2) 0.81258(16) 0.30033(15)
C13 C 0.4483(2) 0.68147(17) 0.22583(14)
C14 C 0.3612(2) 0.65010(19) 0.11530(16)
H6 H 0.3631 0.7162 0.0903
C15 C 0.2774(3) 0.52193(19) 0.04985(16)
C16 C 0.6836(3) 0.94936(18) 0.21628(17)
H7 H 0.7895 0.9537 0.2585
H8 H 0.6703 0.8821 0.1390
C17 C 0.6968(2) 1.08291(19) 0.21554(17)
C18 C 0.7603(4) 1.1120(3) 0.1315(3)
H9 H 0.7878 1.0460 0.0698
C19 C 0.7856(5) 1.2389(4) 0.1351(4)
H10 H 0.8335 1.2582 0.0777
C20 C 0.7393(4) 1.3356(3) 0.2240(4)
H11 H 0.7495 1.4191 0.2253
C21 C 0.6794(3) 1.3075(2) 0.3088(3)
H12 H 0.6511 1.3730 0.3704
C22 C 0.6596(3) 1.18409(19) 0.3056(2)
H13 H 0.6196 1.1676 0.3660
C23 C 0.9131(3) 1.2368(2) 0.62926(19)
H14 H 0.7999 1.2465 0.6138
H15 H 0.9850 1.3188 0.6886
H16 H 0.9667 1.2161 0.5617
C24 C 0.8048(3) 0.9673(3) 0.81924(18)
H17 H 0.7140 0.8893 0.8095
H18 H 0.8848 0.9960 0.8875
H19 H 0.7542 1.0375 0.8249
C25 C 0.8619(3) 0.6394(2) 0.5916(2)
H20 H 0.9501 0.7146 0.6473
H21 H 0.8427 0.5659 0.6124
H22 H 0.8996 0.6139 0.5184

#END
