
#######################################################################
#
#                 Cambridge Crystallographic Data Centre
#                                CCDC 
#
#######################################################################
#
# If this CIF has been generated from an entry in the Cambridge 
# Structural Database, then it will include bibliographic, chemical, 
# crystal, experimental, refinement or atomic coordinate data resulting 
# from the CCDC's data processing and validation procedures.
#
#######################################################################

data_ACOVAQ
_symmetry_cell_setting           monoclinic
_symmetry_space_group_name_H-M   'P 21/c'
_symmetry_Int_Tables_number      14
_space_group_name_Hall           '-P 2ybc'
loop_
_symmetry_equiv_pos_site_id
_symmetry_equiv_pos_as_xyz
1 x,y,z
2 -x,1/2+y,1/2-z
3 -x,-y,-z
4 x,1/2-y,1/2+z
_cell_length_a                   38.2761
_cell_length_b                   15.3776
_cell_length_c                   6.0199
_cell_angle_alpha                90
_cell_angle_beta                 92.3439
_cell_angle_gamma                90
_cell_volume                     3540.32
loop_
_atom_site_label
_atom_site_type_symbol
_atom_site_fract_x
_atom_site_fract_y
_atom_site_fract_z
C1 C 0.35521 0.62640 0.53545
C2 C 0.36768 0.64381 0.29495
C3 C 0.40581 0.61494 0.26785
C4 C 0.42529 0.66028 0.07737
C5 C 0.44921 0.59739 -0.04745
C6 C 0.48434 0.63742 -0.10969
C7 C -0.29305 0.67792 1.00112
C8 C -0.32239 0.61408 1.06747
C9 C -0.33276 0.62935 1.30882
C10 C -0.36434 0.57520 1.38483
C11 C -0.39562 0.63305 1.43408
C12 C -0.41991 0.65098 1.22886
S1 S -0.11909 0.61113 1.21252
S2 S 0.18574 0.65398 0.81533
O1 O 0.04171 0.68223 0.64565
C13 C -0.15158 0.62897 1.02363
C14 C -0.13956 0.64648 0.81850
C15 C -0.10257 0.64394 0.80532
C16 C -0.08732 0.62636 1.01724
C17 C -0.04992 0.61990 1.07645
C18 C -0.03843 0.59196 1.28743
C19 C -0.00332 0.58597 1.34629
C20 C 0.02120 0.60814 1.18937
C21 C 0.00988 0.63560 0.97542
C22 C -0.02464 0.64254 0.91810
C23 C 0.04111 0.65522 0.83770
C24 C 0.07205 0.63326 0.98240
C25 C 0.05997 0.60685 1.19226
C26 C 0.08430 0.58288 1.35749
C27 C 0.11911 0.58415 1.30752
C28 C 0.13136 0.60889 1.09708
C29 C 0.10696 0.63477 0.93190
C30 C 0.16904 0.60429 1.04767
C31 C 0.19565 0.55740 1.16966
C32 C 0.22762 0.56761 1.05424
C33 C 0.22654 0.61653 0.86841
S3 S 0.29818 0.60724 0.79238
C34 C 0.31701 0.64655 0.55952
C35 C 0.29076 0.68362 0.42079
C36 C 0.25673 0.67739 0.51473
C37 C 0.25680 0.63552 0.72575
S4 S -0.22074 0.67411 0.92522
C38 C -0.25461 0.63999 1.07999
C39 C -0.24178 0.58509 1.25286
C40 C -0.20483 0.57446 1.24731
C41 C -0.18924 0.62119 1.07016
H1 H 0.36001 0.55480 0.57913
H2 H 0.37057 0.66919 0.65817
H3 H 0.35030 0.60641 0.16989
H4 H 0.36577 0.71638 0.25807
H5 H 0.42098 0.62770 0.43133
H6 H 0.40631 0.54189 0.23253
H7 H 0.40529 0.68808 -0.04691
H8 H 0.44221 0.71567 0.14999
H9 H 0.45475 0.53716 0.06121
H10 H 0.43520 0.57568 -0.20902
H11 H 0.48656 0.63610 -0.29840
H12 H 0.48569 0.70809 -0.04865
H13 H 0.50691 0.59788 -0.02837
H14 H -0.29356 0.68700 0.81144
H15 H -0.29731 0.74389 1.08553
H16 H -0.34622 0.62446 0.95073
H17 H -0.31297 0.54360 1.05247
H18 H -0.30931 0.61355 1.42467
H19 H -0.33975 0.70132 1.32993
H20 H -0.37208 0.52668 1.24674
H21 H -0.35711 0.53764 1.54489
H22 H -0.41169 0.60035 1.56907
H23 H -0.38552 0.69874 1.49979
H24 H -0.44288 0.69222 1.28107
H25 H -0.40456 0.68737 1.09644
H26 H -0.43037 0.58668 1.15630
H27 H -0.15864 0.66155 0.67459
H28 H -0.08932 0.65546 0.63724
H29 H -0.05818 0.57285 1.42030
H30 H 0.00476 0.56301 1.52194
H31 H -0.03307 0.66639 0.74389
H32 H 0.07513 0.56260 1.53143
H33 H 0.13939 0.56445 1.44053
H34 H 0.11563 0.65679 0.75824
H35 H 0.18878 0.52078 1.33002
H36 H 0.25237 0.53488 1.12133
H37 H 0.29796 0.71425 0.25303
H38 H 0.23311 0.70490 0.41937
H39 H -0.26058 0.55465 1.37805
H40 H -0.19111 0.53158 1.37813
C1 C 0.64479 0.12640 0.96455
C2 C 0.63232 0.14381 1.20505
C3 C 0.59419 0.11494 1.23215
C4 C 0.57471 0.16028 1.42263
C5 C 0.55079 0.09739 1.54745
C6 C 0.51566 0.13742 1.60969
C7 C 1.29305 0.17792 0.49888
C8 C 1.32239 0.11408 0.43253
C9 C 1.33276 0.12935 0.19118
C10 C 1.36434 0.07520 0.11517
C11 C 1.39562 0.13305 0.06592
C12 C 1.41991 0.15098 0.27114
S1 S 1.11909 0.11113 0.28748
S2 S 0.81426 0.15398 0.68467
O1 O 0.95829 0.18223 0.85435
C13 C 1.15158 0.12897 0.47637
C14 C 1.13956 0.14648 0.68150
C15 C 1.10257 0.14394 0.69468
C16 C 1.08732 0.12636 0.48276
C17 C 1.04992 0.11990 0.42355
C18 C 1.03843 0.09196 0.21257
C19 C 1.00332 0.08597 0.15371
C20 C 0.97880 0.10814 0.31063
C21 C 0.99012 0.13560 0.52458
C22 C 1.02464 0.14254 0.58190
C23 C 0.95889 0.15522 0.66230
C24 C 0.92795 0.13326 0.51760
C25 C 0.94003 0.10685 0.30774
C26 C 0.91570 0.08288 0.14251
C27 C 0.88089 0.08415 0.19248
C28 C 0.86864 0.10889 0.40292
C29 C 0.89304 0.13477 0.56810
C30 C 0.83096 0.10429 0.45233
C31 C 0.80435 0.05740 0.33034
C32 C 0.77238 0.06761 0.44576
C33 C 0.77346 0.11653 0.63159
S3 S 0.70182 0.10724 0.70762
C34 C 0.68299 0.14655 0.94048
C35 C 0.70924 0.18362 1.07921
C36 C 0.74327 0.17739 0.98527
C37 C 0.74320 0.13552 0.77425
S4 S 1.22074 0.17411 0.57478
C38 C 1.25461 0.13999 0.42001
C39 C 1.24178 0.08509 0.24714
C40 C 1.20483 0.07446 0.25269
C41 C 1.18924 0.12119 0.42984
H1 H 0.63999 0.05480 0.92087
H2 H 0.62943 0.16919 0.84183
H3 H 0.64970 0.10641 1.33011
H4 H 0.63423 0.21638 1.24193
H5 H 0.57902 0.12770 1.06867
H6 H 0.59369 0.04189 1.26747
H7 H 0.59471 0.18808 1.54691
H8 H 0.55779 0.21567 1.35001
H9 H 0.54525 0.03716 1.43879
H10 H 0.56480 0.07568 1.70902
H11 H 0.51344 0.13610 1.79840
H12 H 0.51431 0.20809 1.54865
H13 H 0.49309 0.09788 1.52837
H14 H 1.29356 0.18700 0.68856
H15 H 1.29731 0.24389 0.41447
H16 H 1.34622 0.12446 0.54927
H17 H 1.31297 0.04360 0.44753
H18 H 1.30931 0.11355 0.07533
H19 H 1.33975 0.20132 0.17007
H20 H 1.37208 0.02668 0.25326
H21 H 1.35711 0.03764 -0.04489
H22 H 1.41169 0.10035 -0.06907
H23 H 1.38552 0.19874 0.00021
H24 H 1.44288 0.19222 0.21893
H25 H 1.40456 0.18737 0.40356
H26 H 1.43037 0.08668 0.34370
H27 H 1.15864 0.16155 0.82541
H28 H 1.08932 0.15546 0.86276
H29 H 1.05818 0.07285 0.07970
H30 H 0.99524 0.06301 -0.02194
H31 H 1.03307 0.16639 0.75611
H32 H 0.92487 0.06260 -0.03143
H33 H 0.86061 0.06445 0.05947
H34 H 0.88437 0.15679 0.74176
H35 H 0.81122 0.02078 0.16998
H36 H 0.74763 0.03488 0.37867
H37 H 0.70204 0.21425 1.24697
H38 H 0.76689 0.20490 1.08063
H39 H 1.26058 0.05465 0.12195
H40 H 1.19111 0.03158 0.12187
C1 C 0.64479 0.37360 0.46455
C2 C 0.63232 0.35619 0.70505
C3 C 0.59419 0.38506 0.73215
C4 C 0.57471 0.33972 0.92263
C5 C 0.55079 0.40261 1.04745
C6 C 0.51566 0.36258 1.10969
C7 C 1.29305 0.32208 -0.00112
C8 C 1.32239 0.38592 -0.06747
C9 C 1.33276 0.37065 -0.30882
C10 C 1.36434 0.42480 -0.38483
C11 C 1.39562 0.36695 -0.43408
C12 C 1.41991 0.34902 -0.22886
S1 S 1.11909 0.38887 -0.21252
S2 S 0.81426 0.34602 0.18467
O1 O 0.95829 0.31777 0.35435
C13 C 1.15158 0.37103 -0.02363
C14 C 1.13956 0.35352 0.18150
C15 C 1.10257 0.35606 0.19468
C16 C 1.08732 0.37364 -0.01724
C17 C 1.04992 0.38010 -0.07645
C18 C 1.03843 0.40804 -0.28743
C19 C 1.00332 0.41403 -0.34629
C20 C 0.97880 0.39186 -0.18937
C21 C 0.99012 0.36440 0.02458
C22 C 1.02464 0.35746 0.08190
C23 C 0.95889 0.34478 0.16230
C24 C 0.92795 0.36674 0.01760
C25 C 0.94003 0.39315 -0.19226
C26 C 0.91570 0.41712 -0.35749
C27 C 0.88089 0.41585 -0.30752
C28 C 0.86864 0.39111 -0.09708
C29 C 0.89304 0.36523 0.06810
C30 C 0.83096 0.39571 -0.04767
C31 C 0.80435 0.44260 -0.16966
C32 C 0.77238 0.43239 -0.05424
C33 C 0.77346 0.38347 0.13159
S3 S 0.70182 0.39276 0.20762
C34 C 0.68299 0.35345 0.44048
C35 C 0.70924 0.31638 0.57921
C36 C 0.74327 0.32261 0.48527
C37 C 0.74320 0.36448 0.27425
S4 S 1.22074 0.32589 0.07478
C38 C 1.25461 0.36001 -0.07999
C39 C 1.24178 0.41491 -0.25286
C40 C 1.20483 0.42554 -0.24731
C41 C 1.18924 0.37881 -0.07016
H1 H 0.63999 0.44520 0.42087
H2 H 0.62943 0.33081 0.34183
H3 H 0.64970 0.39359 0.83011
H4 H 0.63423 0.28362 0.74193
H5 H 0.57902 0.37230 0.56867
H6 H 0.59369 0.45811 0.76747
H7 H 0.59471 0.31192 1.04691
H8 H 0.55779 0.28433 0.85001
H9 H 0.54525 0.46284 0.93879
H10 H 0.56480 0.42432 1.20902
H11 H 0.51344 0.36390 1.29840
H12 H 0.51431 0.29191 1.04865
H13 H 0.49309 0.40212 1.02837
H14 H 1.29356 0.31300 0.18856
H15 H 1.29731 0.25611 -0.08553
H16 H 1.34622 0.37554 0.04927
H17 H 1.31297 0.45640 -0.05247
H18 H 1.30931 0.38645 -0.42467
H19 H 1.33975 0.29868 -0.32993
H20 H 1.37208 0.47332 -0.24674
H21 H 1.35711 0.46236 -0.54489
H22 H 1.41169 0.39965 -0.56907
H23 H 1.38552 0.30126 -0.49979
H24 H 1.44288 0.30778 -0.28107
H25 H 1.40456 0.31263 -0.09644
H26 H 1.43037 0.41332 -0.15630
H27 H 1.15864 0.33845 0.32541
H28 H 1.08932 0.34454 0.36276
H29 H 1.05818 0.42715 -0.42030
H30 H 0.99524 0.43699 -0.52194
H31 H 1.03307 0.33361 0.25611
H32 H 0.92487 0.43740 -0.53143
H33 H 0.86061 0.43555 -0.44053
H34 H 0.88437 0.34321 0.24176
H35 H 0.81122 0.47922 -0.33002
H36 H 0.74763 0.46512 -0.12133
H37 H 0.70204 0.28575 0.74697
H38 H 0.76689 0.29510 0.58063
H39 H 1.26058 0.44535 -0.37805
H40 H 1.19111 0.46842 -0.37813
C1 C 0.35521 0.87360 0.03545
C2 C 0.36768 0.85619 -0.20505
C3 C 0.40581 0.88506 -0.23215
C4 C 0.42529 0.83972 -0.42263
C5 C 0.44921 0.90261 -0.54745
C6 C 0.48434 0.86258 -0.60969
C7 C -0.29305 0.82208 0.50112
C8 C -0.32239 0.88592 0.56747
C9 C -0.33276 0.87065 0.80882
C10 C -0.36434 0.92480 0.88483
C11 C -0.39562 0.86695 0.93408
C12 C -0.41991 0.84902 0.72886
S1 S -0.11909 0.88887 0.71252
S2 S 0.18574 0.84602 0.31533
O1 O 0.04171 0.81777 0.14565
C13 C -0.15158 0.87103 0.52363
C14 C -0.13956 0.85352 0.31850
C15 C -0.10257 0.85606 0.30532
C16 C -0.08732 0.87364 0.51724
C17 C -0.04992 0.88010 0.57645
C18 C -0.03843 0.90804 0.78743
C19 C -0.00332 0.91403 0.84629
C20 C 0.02120 0.89186 0.68937
C21 C 0.00988 0.86440 0.47542
C22 C -0.02464 0.85746 0.41810
C23 C 0.04111 0.84478 0.33770
C24 C 0.07205 0.86674 0.48240
C25 C 0.05997 0.89315 0.69226
C26 C 0.08430 0.91712 0.85749
C27 C 0.11911 0.91585 0.80752
C28 C 0.13136 0.89111 0.59708
C29 C 0.10696 0.86523 0.43190
C30 C 0.16904 0.89571 0.54767
C31 C 0.19565 0.94260 0.66966
C32 C 0.22762 0.93239 0.55424
C33 C 0.22654 0.88347 0.36841
S3 S 0.29818 0.89276 0.29238
C34 C 0.31701 0.85345 0.05952
C35 C 0.29076 0.81638 -0.07921
C36 C 0.25673 0.82261 0.01473
C37 C 0.25680 0.86448 0.22575
S4 S -0.22074 0.82589 0.42522
C38 C -0.25461 0.86001 0.57999
C39 C -0.24178 0.91491 0.75286
C40 C -0.20483 0.92554 0.74731
C41 C -0.18924 0.87881 0.57016
H1 H 0.36001 0.94520 0.07913
H2 H 0.37057 0.83081 0.15817
H3 H 0.35030 0.89359 -0.33011
H4 H 0.36577 0.78362 -0.24193
H5 H 0.42098 0.87230 -0.06867
H6 H 0.40631 0.95811 -0.26747
H7 H 0.40529 0.81192 -0.54691
H8 H 0.44221 0.78433 -0.35001
H9 H 0.45475 0.96284 -0.43879
H10 H 0.43520 0.92432 -0.70902
H11 H 0.48656 0.86390 -0.79840
H12 H 0.48569 0.79191 -0.54865
H13 H 0.50691 0.90212 -0.52837
H14 H -0.29356 0.81300 0.31144
H15 H -0.29731 0.75611 0.58553
H16 H -0.34622 0.87554 0.45073
H17 H -0.31297 0.95640 0.55247
H18 H -0.30931 0.88645 0.92467
H19 H -0.33975 0.79868 0.82993
H20 H -0.37208 0.97332 0.74674
H21 H -0.35711 0.96236 1.04489
H22 H -0.41169 0.89965 1.06907
H23 H -0.38552 0.80126 0.99979
H24 H -0.44288 0.80778 0.78107
H25 H -0.40456 0.81263 0.59644
H26 H -0.43037 0.91332 0.65630
H27 H -0.15864 0.83845 0.17459
H28 H -0.08932 0.84454 0.13724
H29 H -0.05818 0.92715 0.92030
H30 H 0.00476 0.93699 1.02194
H31 H -0.03307 0.83361 0.24389
H32 H 0.07513 0.93740 1.03143
H33 H 0.13939 0.93555 0.94053
H34 H 0.11563 0.84321 0.25824
H35 H 0.18878 0.97922 0.83002
H36 H 0.25237 0.96512 0.62133
H37 H 0.29796 0.78575 -0.24697
H38 H 0.23311 0.79510 -0.08063
H39 H -0.26058 0.94535 0.87805
H40 H -0.19111 0.96842 0.87813

#END
