./ACOVAQ_from_POSCAR.cif_generated_by_CrystalShift
_symmetry_cell_setting triclinic
_symmetry_space_group_name_H-M 'P 1'
loop_
_symmetry_equiv_pos_site_id
_symmetry_equiv_pos_as_xyz
1 x,y,z
_cell_length_a 38.276100
_cell_length_b 15.377600
_cell_length_c 6.019900
_cell_angle_alpha 90.000000
_cell_angle_beta 92.343900
_cell_angle_gamma 90.000000
_cell_volume 3540.315888
loop_
_atom_site_label
_atom_site_type_symbol
_atom_site_fract_x
_atom_site_fract_y
_atom_site_fract_z
H1 H -0.191110 0.968420 0.878130
H2 H -0.309310 0.886450 0.924670
H3 H -0.312970 0.956400 0.552470
H4 H -0.346220 0.875540 0.450730
H5 H -0.297310 0.756110 0.585530
H6 H -0.293560 0.813000 0.311440
H7 H 0.506910 0.902120 -0.528370
H8 H 0.485690 0.791910 -0.548650
H9 H 0.486560 0.863900 -0.798400
H10 H 0.435200 0.924320 -0.709020
H11 H 0.454750 0.962840 -0.438790
H12 H 0.442210 0.784330 -0.350010
H13 H -0.260580 0.945350 0.878050
H14 H 0.233110 0.795100 -0.080630
H15 H 0.297960 0.785750 -0.246970
H16 H 0.405290 0.811920 -0.546910
H17 H 0.406310 0.958110 -0.267470
H18 H 0.420980 0.872300 -0.068670
H19 H 0.365770 0.783620 -0.241930
H20 H 0.350300 0.893590 -0.330110
H21 H 0.370570 0.830810 0.158170
H22 H 0.360010 0.945200 0.079130
H23 H -0.372080 0.973320 0.746740
H24 H -0.357110 0.962360 1.044890
H25 H -0.411690 0.899650 1.069070
H26 H -0.385520 0.801260 0.999790
H27 H -0.442880 0.807780 0.781070
H28 H 1.191110 0.468420 -0.378130
H29 H 1.260580 0.445350 -0.378050
H30 H 0.766890 0.295100 0.580630
H31 H 0.702040 0.285750 0.746970
H32 H 0.747630 0.465120 -0.121330
H33 H 0.811220 0.479220 -0.330020
H34 H 0.884370 0.343210 0.241760
H35 H 0.860610 0.435550 -0.440530
H36 H 0.924870 0.437400 -0.531430
H37 H 0.252370 0.965120 0.621330
H38 H 1.033070 0.333610 0.256110
H39 H 0.995240 0.436990 -0.521940
H40 H 1.058180 0.427150 -0.420300
H41 H 1.089320 0.344540 0.362760
H42 H 0.188780 0.979220 0.830020
H43 H 1.158640 0.338450 0.325410
H44 H 1.430370 0.413320 -0.156300
H45 H 1.404560 0.312630 -0.096440
H46 H 1.442880 0.307780 -0.281070
H47 H 0.360010 0.554800 0.579130
H48 H 0.370570 0.669190 0.658170
H49 H 0.350300 0.606410 0.169890
H50 H 0.365770 0.716380 0.258070
H51 H 0.420980 0.627700 0.431330
H52 H 0.406310 0.541890 0.232530
H53 H 0.405290 0.688080 -0.046910
H54 H 0.442210 0.715670 0.149990
H55 H 0.454750 0.537160 0.061210
H56 H 0.435200 0.575680 -0.209020
H57 H 0.486560 0.636100 -0.298400
H58 H 0.485690 0.708090 -0.048650
H59 H 0.506910 0.597880 -0.028370
H60 H -0.293560 0.687000 0.811440
H61 H -0.297310 0.743890 1.085530
H62 H -0.346220 0.624460 0.950730
H63 H -0.312970 0.543600 1.052470
H64 H -0.309310 0.613550 1.424670
H65 H -0.339750 0.701320 1.329930
H66 H -0.372080 0.526680 1.246740
H67 H -0.357110 0.537640 1.544890
H68 H -0.411690 0.600350 1.569070
H69 H -0.385520 0.698740 1.499790
H70 H -0.442880 0.692220 1.281070
H71 H -0.404560 0.687370 1.096440
H72 H -0.430370 0.586680 1.156300
H73 H -0.158640 0.661550 0.674590
H74 H -0.089320 0.655460 0.637240
H75 H -0.058180 0.572850 1.420300
H76 H 0.004760 0.563010 1.521940
H77 H -0.033070 0.666390 0.743890
H78 H 0.075130 0.562600 1.531430
H79 H 0.139390 0.564450 1.440530
H80 H 0.115630 0.656790 0.758240
H81 H 0.188780 0.520780 1.330020
H82 H 0.252370 0.534880 1.121330
H83 H 0.297960 0.714250 0.253030
H84 H 0.233110 0.704900 0.419370
H85 H -0.260580 0.554650 1.378050
H86 H -0.191110 0.531580 1.378130
H87 H 1.385520 0.301260 -0.499790
H88 H 1.411690 0.399650 -0.569070
H89 H 1.357110 0.462360 -0.544890
H90 H 1.372080 0.473320 -0.246740
H91 H 1.339750 0.298680 -0.329930
H92 H 1.309310 0.386450 -0.424670
H93 H 1.312970 0.456400 -0.052470
H94 H 1.346220 0.375540 0.049270
H95 H 1.297310 0.256110 -0.085530
H96 H 1.293560 0.313000 0.188560
H97 H 0.493090 0.402120 1.028370
H98 H 0.514310 0.291910 1.048650
H99 H 0.115630 0.843210 0.258240
H100 H 0.139390 0.935550 0.940530
H101 H 0.075130 0.937400 1.031430
H102 H 0.513440 0.363900 1.298400
H103 H 0.564800 0.424320 1.209020
H104 H 0.545250 0.462840 0.938790
H105 H 0.557790 0.284330 0.850010
H106 H 0.594710 0.311920 1.046910
H107 H 0.593690 0.458110 0.767470
H108 H 0.579020 0.372300 0.568670
H109 H 0.634230 0.283620 0.741930
H110 H 0.649700 0.393590 0.830110
H111 H 0.629430 0.330810 0.341830
H112 H 0.639990 0.445200 0.420870
H113 H -0.404560 0.812630 0.596440
H114 H -0.430370 0.913320 0.656300
H115 H -0.158640 0.838450 0.174590
H116 H -0.089320 0.844540 0.137240
H117 H -0.058180 0.927150 0.920300
H118 H 1.191110 0.031580 0.121870
H119 H 1.260580 0.054650 0.121950
H120 H 0.766890 0.204900 1.080630
H121 H 0.702040 0.214250 1.246970
H122 H 0.747630 0.034880 0.378670
H123 H -0.033070 0.833610 0.243890
H124 H 0.811220 0.020780 0.169980
H125 H 0.884370 0.156790 0.741760
H126 H 0.860610 0.064450 0.059470
H127 H 0.924870 0.062600 -0.031430
H128 H 0.004760 0.936990 1.021940
H129 H 1.033070 0.166390 0.756110
H130 H 0.995240 0.063010 -0.021940
H131 H 1.058180 0.072850 0.079700
H132 H 1.089320 0.155460 0.862760
H133 H 0.639990 0.054800 0.920870
H134 H 0.629430 0.169190 0.841830
H135 H 0.649700 0.106410 1.330110
H136 H 0.634230 0.216380 1.241930
H137 H 0.579020 0.127700 1.068670
H138 H 0.593690 0.041890 1.267470
H139 H 0.594710 0.188080 1.546910
H140 H 0.557790 0.215670 1.350010
H141 H 0.545250 0.037160 1.438790
H142 H 0.564800 0.075680 1.709020
H143 H 0.513440 0.136100 1.798400
H144 H 0.514310 0.208090 1.548650
H145 H 0.493090 0.097880 1.528370
H146 H 1.293560 0.187000 0.688560
H147 H 1.297310 0.243890 0.414470
H148 H 1.346220 0.124460 0.549270
H149 H 1.312970 0.043600 0.447530
H150 H 1.309310 0.113550 0.075330
H151 H 1.339750 0.201320 0.170070
H152 H 1.372080 0.026680 0.253260
H153 H 1.357110 0.037640 -0.044890
H154 H 1.411690 0.100350 -0.069070
H155 H 1.385520 0.198740 0.000210
H156 H 1.442880 0.192220 0.218930
H157 H 1.404560 0.187370 0.403560
H158 H 1.430370 0.086680 0.343700
H159 H 1.158640 0.161550 0.825410
H160 H -0.339750 0.798680 0.829930
C161 C 1.204830 0.074460 0.252690
C162 C 1.241780 0.085090 0.247140
C163 C 1.254610 0.139990 0.420010
C164 C 0.743200 0.135520 0.774250
C165 C 0.743270 0.177390 0.985270
C166 C 0.709240 0.183620 1.079210
C167 C 0.682990 0.146550 0.940480
C168 C 0.773460 0.116530 0.631590
C169 C 0.772380 0.067610 0.445760
C170 C 0.804350 0.057400 0.330340
C171 C 0.830960 0.104290 0.452330
C172 C 0.893040 0.134770 0.568100
C173 C 0.644790 0.373600 0.464550
C174 C 0.632320 0.356190 0.705050
C175 C 0.594190 0.385060 0.732150
C176 C 0.574710 0.339720 0.922630
C177 C 0.550790 0.402610 1.047450
C178 C 0.515660 0.362580 1.109690
C179 C 1.293050 0.322080 -0.001120
C180 C 1.322390 0.385920 -0.067470
C181 C 1.332760 0.370650 -0.308820
C182 C 1.364340 0.424800 -0.384830
C183 C 1.395620 0.366950 -0.434080
C184 C 1.419910 0.349020 -0.228860
C185 C 0.868640 0.108890 0.402920
C186 C 0.880890 0.084150 0.192480
C187 C 0.915700 0.082880 0.142510
C188 C 1.151580 0.371030 -0.023630
C189 C 1.139560 0.353520 0.181500
C190 C 1.102570 0.356060 0.194680
C191 C 1.087320 0.373640 -0.017240
C192 C 1.049920 0.380100 -0.076450
C193 C 1.038430 0.408040 -0.287430
C194 C 1.003320 0.414030 -0.346290
C195 C 0.978800 0.391860 -0.189370
C196 C 0.990120 0.364400 0.024580
C197 C 1.024640 0.357460 0.081900
C198 C 0.958890 0.344780 0.162300
C199 C 0.927950 0.366740 0.017600
C200 C 0.940030 0.393150 -0.192260
C201 C 0.915700 0.417120 -0.357490
C202 C 0.880890 0.415850 -0.307520
C203 C 0.868640 0.391110 -0.097080
C204 C 0.893040 0.365230 0.068100
C205 C 0.830960 0.395710 -0.047670
C206 C 0.804350 0.442600 -0.169660
C207 C 0.772380 0.432390 -0.054240
C208 C 0.773460 0.383470 0.131590
C209 C 0.940030 0.106850 0.307740
C210 C 0.682990 0.353450 0.440480
C211 C 0.709240 0.316380 0.579210
C212 C 0.743270 0.322610 0.485270
C213 C 0.743200 0.364480 0.274250
C214 C 0.927950 0.133260 0.517600
C215 C 1.254610 0.360010 -0.079990
C216 C 1.241780 0.414910 -0.252860
C217 C 1.204830 0.425540 -0.247310
C218 C 1.189240 0.378810 -0.070160
C219 C 0.958890 0.155220 0.662300
C220 C 1.024640 0.142540 0.581900
C221 C 0.990120 0.135600 0.524580
C222 C 0.978800 0.108140 0.310630
C223 C 1.003320 0.085970 0.153710
C224 C 1.038430 0.091960 0.212570
C225 C 1.049920 0.119900 0.423550
C226 C 1.087320 0.126360 0.482760
C227 C 1.102570 0.143940 0.694680
C228 C 1.139560 0.146480 0.681500
C229 C 1.151580 0.128970 0.476370
C230 C 1.419910 0.150980 0.271140
C231 C 1.395620 0.133050 0.065920
C232 C 1.364340 0.075200 0.115170
C233 C 1.332760 0.129350 0.191180
C234 C 1.322390 0.114080 0.432530
C235 C 1.293050 0.177920 0.498880
C236 C 0.515660 0.137420 1.609690
C237 C 0.550790 0.097390 1.547450
C238 C 0.574710 0.160280 1.422630
C239 C 0.594190 0.114940 1.232150
C240 C 0.632320 0.143810 1.205050
C241 C 0.644790 0.126400 0.964550
C242 C -0.189240 0.621190 1.070160
C243 C -0.204830 0.574460 1.247310
C244 C -0.241780 0.585090 1.252860
C245 C -0.254610 0.639990 1.079990
C246 C 0.256800 0.635520 0.725750
C247 C 0.256730 0.677390 0.514730
C248 C 0.290760 0.683620 0.420790
C249 C 0.317010 0.646550 0.559520
C250 C 0.226540 0.616530 0.868410
C251 C 0.227620 0.567610 1.054240
C252 C 0.195650 0.557400 1.169660
C253 C 0.169040 0.604290 1.047670
C254 C 0.106960 0.634770 0.931900
C255 C 0.131360 0.608890 1.097080
C256 C 0.119110 0.584150 1.307520
C257 C 0.084300 0.582880 1.357490
C258 C 0.059970 0.606850 1.192260
C259 C 0.355210 0.873600 0.035450
C260 C 0.367680 0.856190 -0.205050
C261 C 0.405810 0.885060 -0.232150
C262 C 0.425290 0.839720 -0.422630
C263 C 0.449210 0.902610 -0.547450
C264 C 0.484340 0.862580 -0.609690
C265 C -0.293050 0.822080 0.501120
C266 C -0.322390 0.885920 0.567470
C267 C -0.332760 0.870650 0.808820
C268 C -0.364340 0.924800 0.884830
C269 C -0.395620 0.866950 0.934080
C270 C -0.419910 0.849020 0.728860
C271 C 0.072050 0.633260 0.982400
C272 C 0.041110 0.655220 0.837700
C273 C -0.024640 0.642540 0.918100
C274 C -0.151580 0.871030 0.523630
C275 C -0.139560 0.853520 0.318500
C276 C -0.102570 0.856060 0.305320
C277 C -0.087320 0.873640 0.517240
C278 C -0.049920 0.880100 0.576450
C279 C -0.038430 0.908040 0.787430
C280 C -0.003320 0.914030 0.846290
C281 C 0.021200 0.891860 0.689370
C282 C 0.009880 0.864400 0.475420
C283 C -0.024640 0.857460 0.418100
C284 C 0.041110 0.844780 0.337700
C285 C 0.072050 0.866740 0.482400
C286 C 0.059970 0.893150 0.692260
C287 C 0.084300 0.917120 0.857490
C288 C 0.119110 0.915850 0.807520
C289 C 0.131360 0.891110 0.597080
C290 C 0.106960 0.865230 0.431900
C291 C 0.169040 0.895710 0.547670
C292 C 0.195650 0.942600 0.669660
C293 C 0.227620 0.932390 0.554240
C294 C 0.226540 0.883470 0.368410
C295 C 0.009880 0.635600 0.975420
C296 C 0.317010 0.853450 0.059520
C297 C 0.290760 0.816380 -0.079210
C298 C 0.256730 0.822610 0.014730
C299 C 0.256800 0.864480 0.225750
C300 C 0.021200 0.608140 1.189370
C301 C -0.254610 0.860010 0.579990
C302 C -0.241780 0.914910 0.752860
C303 C -0.204830 0.925540 0.747310
C304 C -0.189240 0.878810 0.570160
C305 C -0.003320 0.585970 1.346290
C306 C -0.038430 0.591960 1.287430
C307 C -0.049920 0.619900 1.076450
C308 C -0.087320 0.626360 1.017240
C309 C -0.102570 0.643940 0.805320
C310 C -0.139560 0.646480 0.818500
C311 C -0.151580 0.628970 1.023630
C312 C -0.419910 0.650980 1.228860
C313 C -0.395620 0.633050 1.434080
C314 C -0.364340 0.575200 1.384830
C315 C -0.332760 0.629350 1.308820
C316 C -0.322390 0.614080 1.067470
C317 C -0.293050 0.677920 1.001120
C318 C 0.484340 0.637420 -0.109690
C319 C 0.449210 0.597390 -0.047450
C320 C 0.425290 0.660280 0.077370
C321 C 0.405810 0.614940 0.267850
C322 C 0.367680 0.643810 0.294950
C323 C 1.189240 0.121190 0.429840
C324 C 0.355210 0.626400 0.535450
O325 O 0.958290 0.182230 0.854350
O326 O 0.041710 0.817770 0.145650
O327 O 0.041710 0.682230 0.645650
O328 O 0.958290 0.317770 0.354350
S329 S 1.220740 0.325890 0.074780
S330 S 0.701820 0.392760 0.207620
S331 S -0.119090 0.888870 0.712520
S332 S 0.814260 0.346020 0.184670
S333 S 0.185740 0.846020 0.315330
S334 S 1.220740 0.174110 0.574780
S335 S 0.701820 0.107240 0.707620
S336 S 0.298180 0.892760 0.292380
S337 S 0.814260 0.153980 0.684670
S338 S 1.119090 0.111130 0.287480
S339 S -0.220740 0.674110 0.925220
S340 S 0.298180 0.607240 0.792380
S341 S 1.119090 0.388870 -0.212520
S342 S 0.185740 0.653980 0.815330
S343 S -0.119090 0.611130 1.212520
S344 S -0.220740 0.825890 0.425220

#END
