
#######################################################################
#
#                 Cambridge Crystallographic Data Centre
#                                CCDC 
#
#######################################################################
#
# If this CIF has been generated from an entry in the Cambridge 
# Structural Database, then it will include bibliographic, chemical, 
# crystal, experimental, refinement or atomic coordinate data resulting 
# from the CCDC's data processing and validation procedures.
#
#######################################################################

data_ACOWAR
_symmetry_cell_setting           monoclinic
_symmetry_space_group_name_H-M   'P 21/c'
_symmetry_Int_Tables_number      14
_space_group_name_Hall           '-P 2ybc'
loop_
_symmetry_equiv_pos_site_id
_symmetry_equiv_pos_as_xyz
1 x,y,z
2 -x,1/2+y,1/2-z
3 -x,-y,-z
4 x,1/2-y,1/2+z
_cell_length_a                   18.590(4)
_cell_length_b                   5.975(2)
_cell_length_c                   17.073(4)
_cell_angle_alpha                90
_cell_angle_beta                 116.57(2)
_cell_angle_gamma                90
_cell_volume                     1696.11
loop_
_atom_site_label
_atom_site_type_symbol
_atom_site_fract_x
_atom_site_fract_y
_atom_site_fract_z
C1 C 0.3089(2) 0.5555(6) 0.5863(2)
C2 C 0.3630(2) 0.3958(7) 0.6350(2)
C3 C 0.3377(2) 0.2107(6) 0.6623(2)
C4 C 0.2583(2) 0.1835(6) 0.6415(2)
C5 C 0.20391(19) 0.3445(6) 0.5919(2)
C6 C 0.22879(19) 0.5298(6) 0.56402(19)
C7 C 0.15917(18) 0.7485(6) 0.4364(2)
C8 C 0.09945(17) 0.9331(5) 0.40324(18)
C9 C 0.03042(18) 0.9235(6) 0.41520(19)
H1 H 0.0234 0.8052 0.4465
C10 C -0.02763(19) 1.0862(6) 0.3815(2)
H2 H -0.0740 1.0768 0.3892
C11 C -0.01691(19) 1.2636(6) 0.3362(2)
H3 H -0.0552 1.3769 0.3151
C12 C 0.05081(19) 1.2730(6) 0.32211(19)
H4 H 0.0570 1.3905 0.2899
C13 C 0.10910(17) 1.1100(5) 0.35542(18)
C14 C 0.17886(19) 1.1310(5) 0.3358(2)
C15 C 0.31940(18) 1.0956(6) 0.39410(19)
C16 C 0.3707(2) 1.2723(6) 0.4212(2)
H5 H 0.3587 1.3986 0.4449
C17 C 0.4414(2) 1.2603(7) 0.4126(2)
H6 H 0.4773 1.3797 0.4308
C18 C 0.4586(2) 1.0752(8) 0.3779(2)
H7 H 0.5061 1.0679 0.3724
C19 C 0.4059(2) 0.9000(7) 0.3510(3)
H8 H 0.4176 0.7740 0.3268
C20 C 0.3353(2) 0.9083(6) 0.3595(2)
H9 H 0.2996 0.7884 0.3420
O1 O 0.17304(12) 0.6958(4) 0.52049(13)
O2 O 0.19011(13) 0.6536(4) 0.39858(14)
O3 O 0.24979(12) 1.1039(4) 0.40787(13)
O4 O 0.17379(12) 1.1711(5) 0.26507(15)
F1 F 0.33433(11) 0.7389(4) 0.56142(13)
F2 F 0.44104(11) 0.4228(4) 0.65648(14)
F3 F 0.39117(12) 0.0545(4) 0.70966(13)
F4 F 0.23396(12) 0.0033(3) 0.66934(13)
F5 F 0.12597(11) 0.3168(3) 0.57016(12)
C1 C 0.6911(2) 0.0555(6) -0.0863(2)
C2 C 0.6370(2) -0.1042(7) -0.1350(2)
C3 C 0.6623(2) -0.2893(6) -0.1623(2)
C4 C 0.7417(2) -0.3165(6) -0.1415(2)
C5 C 0.79609(19) -0.1555(6) -0.0919(2)
C6 C 0.77121(19) 0.0298(6) -0.06402(19)
C7 C 0.84083(18) 0.2485(6) 0.0636(2)
C8 C 0.90055(17) 0.4331(5) 0.09676(18)
C9 C 0.96958(18) 0.4235(6) 0.08480(19)
H1 H 0.9766 0.3052 0.0535
C10 C 1.02763(19) 0.5862(6) 0.1185(2)
H2 H 1.0740 0.5768 0.1108
C11 C 1.01691(19) 0.7636(6) 0.1638(2)
H3 H 1.0552 0.8769 0.1849
C12 C 0.94919(19) 0.7730(6) 0.17789(19)
H4 H 0.9430 0.8905 0.2101
C13 C 0.89090(17) 0.6100(5) 0.14458(18)
C14 C 0.82114(19) 0.6310(5) 0.1642(2)
C15 C 0.68060(18) 0.5956(6) 0.10590(19)
C16 C 0.6293(2) 0.7723(6) 0.0788(2)
H5 H 0.6413 0.8986 0.0551
C17 C 0.5586(2) 0.7603(7) 0.0874(2)
H6 H 0.5227 0.8797 0.0692
C18 C 0.5414(2) 0.5752(8) 0.1221(2)
H7 H 0.4939 0.5679 0.1276
C19 C 0.5941(2) 0.4000(7) 0.1490(3)
H8 H 0.5824 0.2740 0.1732
C20 C 0.6647(2) 0.4083(6) 0.1405(2)
H9 H 0.7004 0.2884 0.1580
O1 O 0.82696(12) 0.1958(4) -0.02049(13)
O2 O 0.80989(13) 0.1536(4) 0.10142(14)
O3 O 0.75021(12) 0.6039(4) 0.09213(13)
O4 O 0.82621(12) 0.6711(5) 0.23493(15)
F1 F 0.66567(11) 0.2389(4) -0.06142(13)
F2 F 0.55896(11) -0.0772(4) -0.15648(14)
F3 F 0.60883(12) -0.4455(4) -0.20966(13)
F4 F 0.76604(12) -0.4967(3) -0.16934(13)
F5 F 0.87403(11) -0.1832(3) -0.07016(12)
C1 C 0.6911(2) 0.4445(6) 0.4137(2)
C2 C 0.6370(2) 0.6042(7) 0.3650(2)
C3 C 0.6623(2) 0.7893(6) 0.3377(2)
C4 C 0.7417(2) 0.8165(6) 0.3585(2)
C5 C 0.79609(19) 0.6555(6) 0.4081(2)
C6 C 0.77121(19) 0.4702(6) 0.43598(19)
C7 C 0.84083(18) 0.2515(6) 0.5636(2)
C8 C 0.90055(17) 0.0669(5) 0.59676(18)
C9 C 0.96958(18) 0.0765(6) 0.58480(19)
H1 H 0.9766 0.1948 0.5535
C10 C 1.02763(19) -0.0862(6) 0.6185(2)
H2 H 1.0740 -0.0768 0.6108
C11 C 1.01691(19) -0.2636(6) 0.6638(2)
H3 H 1.0552 -0.3769 0.6849
C12 C 0.94919(19) -0.2730(6) 0.67789(19)
H4 H 0.9430 -0.3905 0.7101
C13 C 0.89090(17) -0.1100(5) 0.64458(18)
C14 C 0.82114(19) -0.1310(5) 0.6642(2)
C15 C 0.68060(18) -0.0956(6) 0.60590(19)
C16 C 0.6293(2) -0.2723(6) 0.5788(2)
H5 H 0.6413 -0.3986 0.5551
C17 C 0.5586(2) -0.2603(7) 0.5874(2)
H6 H 0.5227 -0.3797 0.5692
C18 C 0.5414(2) -0.0752(8) 0.6221(2)
H7 H 0.4939 -0.0679 0.6276
C19 C 0.5941(2) 0.1000(7) 0.6490(3)
H8 H 0.5824 0.2260 0.6732
C20 C 0.6647(2) 0.0917(6) 0.6405(2)
H9 H 0.7004 0.2116 0.6580
O1 O 0.82696(12) 0.3042(4) 0.47951(13)
O2 O 0.80989(13) 0.3464(4) 0.60142(14)
O3 O 0.75021(12) -0.1039(4) 0.59213(13)
O4 O 0.82621(12) -0.1711(5) 0.73493(15)
F1 F 0.66567(11) 0.2611(4) 0.43858(13)
F2 F 0.55896(11) 0.5772(4) 0.34352(14)
F3 F 0.60883(12) 0.9455(4) 0.29034(13)
F4 F 0.76604(12) 0.9967(3) 0.33066(13)
F5 F 0.87403(11) 0.6832(3) 0.42984(12)
C1 C 0.3089(2) 0.9445(6) 1.0863(2)
C2 C 0.3630(2) 1.1042(7) 1.1350(2)
C3 C 0.3377(2) 1.2893(6) 1.1623(2)
C4 C 0.2583(2) 1.3165(6) 1.1415(2)
C5 C 0.20391(19) 1.1555(6) 1.0919(2)
C6 C 0.22879(19) 0.9702(6) 1.06402(19)
C7 C 0.15917(18) 0.7515(6) 0.9364(2)
C8 C 0.09945(17) 0.5669(5) 0.90324(18)
C9 C 0.03042(18) 0.5765(6) 0.91520(19)
H1 H 0.0234 0.6948 0.9465
C10 C -0.02763(19) 0.4138(6) 0.8815(2)
H2 H -0.0740 0.4232 0.8892
C11 C -0.01691(19) 0.2364(6) 0.8362(2)
H3 H -0.0552 0.1231 0.8151
C12 C 0.05081(19) 0.2270(6) 0.82211(19)
H4 H 0.0570 0.1095 0.7899
C13 C 0.10910(17) 0.3900(5) 0.85542(18)
C14 C 0.17886(19) 0.3690(5) 0.8358(2)
C15 C 0.31940(18) 0.4044(6) 0.89410(19)
C16 C 0.3707(2) 0.2277(6) 0.9212(2)
H5 H 0.3587 0.1014 0.9449
C17 C 0.4414(2) 0.2397(7) 0.9126(2)
H6 H 0.4773 0.1203 0.9308
C18 C 0.4586(2) 0.4248(8) 0.8779(2)
H7 H 0.5061 0.4321 0.8724
C19 C 0.4059(2) 0.6000(7) 0.8510(3)
H8 H 0.4176 0.7260 0.8268
C20 C 0.3353(2) 0.5917(6) 0.8595(2)
H9 H 0.2996 0.7116 0.8420
O1 O 0.17304(12) 0.8042(4) 1.02049(13)
O2 O 0.19011(13) 0.8464(4) 0.89858(14)
O3 O 0.24979(12) 0.3961(4) 0.90787(13)
O4 O 0.17379(12) 0.3289(5) 0.76507(15)
F1 F 0.33433(11) 0.7611(4) 1.06142(13)
F2 F 0.44104(11) 1.0772(4) 1.15648(14)
F3 F 0.39117(12) 1.4455(4) 1.20966(13)
F4 F 0.23396(12) 1.4967(3) 1.16934(13)
F5 F 0.12597(11) 1.1832(3) 1.07016(12)

#END
