
#######################################################################
#
#                 Cambridge Crystallographic Data Centre
#                                CCDC 
#
#######################################################################
#
# If this CIF has been generated from an entry in the Cambridge 
# Structural Database, then it will include bibliographic, chemical, 
# crystal, experimental, refinement or atomic coordinate data resulting 
# from the CCDC's data processing and validation procedures.
#
#######################################################################

data_ACOXAS
_symmetry_cell_setting           monoclinic
_symmetry_space_group_name_H-M   'P 21/c'
_symmetry_Int_Tables_number      14
_space_group_name_Hall           '-P 2ybc'
loop_
_symmetry_equiv_pos_site_id
_symmetry_equiv_pos_as_xyz
1 x,y,z
2 -x,1/2+y,1/2-z
3 -x,-y,-z
4 x,1/2-y,1/2+z
_cell_length_a                   12.2374(8)
_cell_length_b                   7.3844(4)
_cell_length_c                   13.6591(11)
_cell_angle_alpha                90
_cell_angle_beta                 108.741(3)
_cell_angle_gamma                90
_cell_volume                     1168.87
loop_
_atom_site_label
_atom_site_type_symbol
_atom_site_fract_x
_atom_site_fract_y
_atom_site_fract_z
O1 O 0.33324(10) 0.45665(14) 0.67195(9)
C1 C 0.35977(13) 0.3058(2) 0.65270(12)
C2 C 0.40428(15) 0.1600(2) 0.73165(13)
H1 H 0.3994 0.2008 0.7992
H2 H 0.4863 0.1355 0.7400
C3 C 0.33336(15) -0.0146(2) 0.69814(13)
H3 H 0.3675 -0.1125 0.7482
H4 H 0.2534 0.0060 0.6981
C4 C 0.33156(15) -0.0722(2) 0.59066(13)
H5 H 0.2827 -0.1814 0.5698
H6 H 0.4108 -0.1049 0.5931
C5 C 0.28579(13) 0.07524(19) 0.50959(12)
C6 C 0.28279(15) 0.0131(2) 0.40310(13)
H7 H 0.2528 0.1108 0.3531
H8 H 0.2326 -0.0933 0.3829
H9 H 0.3610 -0.0186 0.4044
O2 O 0.16865(9) 0.11179(13) 0.51128(8)
C7 C 0.11179(14) 0.25490(19) 0.45300(12)
C8 C -0.00815(14) 0.2517(2) 0.42060(13)
H10 H -0.0477 0.1535 0.4391
C9 C -0.06883(15) 0.3917(2) 0.36158(13)
H11 H -0.1508 0.3906 0.3402
C10 C -0.01187(15) 0.5360(2) 0.33250(13)
H12 H -0.0547 0.6308 0.2904
C11 C 0.10639(14) 0.5391(2) 0.36541(12)
H13 H 0.1453 0.6367 0.3456
C12 C 0.17047(13) 0.40061(18) 0.42765(12)
C13 C 0.29652(14) 0.40483(19) 0.46785(12)
O3 O 0.35510(10) 0.52295(13) 0.44571(8)
C14 C 0.35388(13) 0.25301(18) 0.54159(12)
O4 O 0.46848(9) 0.22226(13) 0.54218(9)
H14 H 0.4956(16) 0.3231(19) 0.5397(14)
O1 O 0.66676(10) 0.95665(14) 0.82805(9)
C1 C 0.64023(13) 0.8058(2) 0.84730(12)
C2 C 0.59572(15) 0.6600(2) 0.76835(13)
H1 H 0.6006 0.7008 0.7008
H2 H 0.5137 0.6355 0.7600
C3 C 0.66664(15) 0.4854(2) 0.80186(13)
H3 H 0.6325 0.3875 0.7518
H4 H 0.7466 0.5060 0.8019
C4 C 0.66844(15) 0.4278(2) 0.90934(13)
H5 H 0.7173 0.3186 0.9302
H6 H 0.5892 0.3951 0.9069
C5 C 0.71421(13) 0.57524(19) 0.99041(12)
C6 C 0.71721(15) 0.5131(2) 1.09690(13)
H7 H 0.7472 0.6108 1.1469
H8 H 0.7674 0.4067 1.1171
H9 H 0.6390 0.4814 1.0956
O2 O 0.83135(9) 0.61179(13) 0.98872(8)
C7 C 0.88821(14) 0.75490(19) 1.04700(12)
C8 C 1.00815(14) 0.7517(2) 1.07940(13)
H10 H 1.0477 0.6535 1.0609
C9 C 1.06883(15) 0.8917(2) 1.13842(13)
H11 H 1.1508 0.8906 1.1598
C10 C 1.01187(15) 1.0360(2) 1.16750(13)
H12 H 1.0547 1.1308 1.2096
C11 C 0.89361(14) 1.0391(2) 1.13459(12)
H13 H 0.8547 1.1367 1.1544
C12 C 0.82953(13) 0.90061(18) 1.07235(12)
C13 C 0.70348(14) 0.90483(19) 1.03215(12)
O3 O 0.64490(10) 1.02295(13) 1.05429(8)
C14 C 0.64612(13) 0.75301(18) 0.95841(12)
O4 O 0.53152(9) 0.72226(13) 0.95782(9)
H14 H 0.5044(16) 0.8231(19) 0.9603(14)
O1 O 0.66676(10) 0.54335(14) 0.32805(9)
C1 C 0.64023(13) 0.6942(2) 0.34730(12)
C2 C 0.59572(15) 0.8400(2) 0.26835(13)
H1 H 0.6006 0.7992 0.2008
H2 H 0.5137 0.8645 0.2600
C3 C 0.66664(15) 1.0146(2) 0.30186(13)
H3 H 0.6325 1.1125 0.2518
H4 H 0.7466 0.9940 0.3019
C4 C 0.66844(15) 1.0722(2) 0.40934(13)
H5 H 0.7173 1.1814 0.4302
H6 H 0.5892 1.1049 0.4069
C5 C 0.71421(13) 0.92476(19) 0.49041(12)
C6 C 0.71721(15) 0.9869(2) 0.59690(13)
H7 H 0.7472 0.8892 0.6469
H8 H 0.7674 1.0933 0.6171
H9 H 0.6390 1.0186 0.5956
O2 O 0.83135(9) 0.88821(13) 0.48872(8)
C7 C 0.88821(14) 0.74510(19) 0.54700(12)
C8 C 1.00815(14) 0.7483(2) 0.57940(13)
H10 H 1.0477 0.8465 0.5609
C9 C 1.06883(15) 0.6083(2) 0.63842(13)
H11 H 1.1508 0.6094 0.6598
C10 C 1.01187(15) 0.4640(2) 0.66750(13)
H12 H 1.0547 0.3692 0.7096
C11 C 0.89361(14) 0.4609(2) 0.63459(12)
H13 H 0.8547 0.3633 0.6544
C12 C 0.82953(13) 0.59939(18) 0.57235(12)
C13 C 0.70348(14) 0.59517(19) 0.53215(12)
O3 O 0.64490(10) 0.47705(13) 0.55429(8)
C14 C 0.64612(13) 0.74699(18) 0.45841(12)
O4 O 0.53152(9) 0.77774(13) 0.45782(9)
H14 H 0.5044(16) 0.6769(19) 0.4603(14)
O1 O 0.33324(10) 0.04335(14) 0.17195(9)
C1 C 0.35977(13) 0.1942(2) 0.15270(12)
C2 C 0.40428(15) 0.3400(2) 0.23165(13)
H1 H 0.3994 0.2992 0.2992
H2 H 0.4863 0.3645 0.2400
C3 C 0.33336(15) 0.5146(2) 0.19814(13)
H3 H 0.3675 0.6125 0.2482
H4 H 0.2534 0.4940 0.1981
C4 C 0.33156(15) 0.5722(2) 0.09066(13)
H5 H 0.2827 0.6814 0.0698
H6 H 0.4108 0.6049 0.0931
C5 C 0.28579(13) 0.42476(19) 0.00959(12)
C6 C 0.28279(15) 0.4869(2) -0.09690(13)
H7 H 0.2528 0.3892 -0.1469
H8 H 0.2326 0.5933 -0.1171
H9 H 0.3610 0.5186 -0.0956
O2 O 0.16865(9) 0.38821(13) 0.01128(8)
C7 C 0.11179(14) 0.24510(19) -0.04700(12)
C8 C -0.00815(14) 0.2483(2) -0.07940(13)
H10 H -0.0477 0.3465 -0.0609
C9 C -0.06883(15) 0.1083(2) -0.13842(13)
H11 H -0.1508 0.1094 -0.1598
C10 C -0.01187(15) -0.0360(2) -0.16750(13)
H12 H -0.0547 -0.1308 -0.2096
C11 C 0.10639(14) -0.0391(2) -0.13459(12)
H13 H 0.1453 -0.1367 -0.1544
C12 C 0.17047(13) 0.09939(18) -0.07235(12)
C13 C 0.29652(14) 0.09517(19) -0.03215(12)
O3 O 0.35510(10) -0.02295(13) -0.05429(8)
C14 C 0.35388(13) 0.24699(18) 0.04159(12)
O4 O 0.46848(9) 0.27774(13) 0.04218(9)
H14 H 0.4956(16) 0.1769(19) 0.0397(14)

#END
