
#######################################################################
#
#                 Cambridge Crystallographic Data Centre
#                                CCDC 
#
#######################################################################
#
# If this CIF has been generated from an entry in the Cambridge 
# Structural Database, then it will include bibliographic, chemical, 
# crystal, experimental, refinement or atomic coordinate data resulting 
# from the CCDC's data processing and validation procedures.
#
#######################################################################

data_ACOYOG01
_symmetry_cell_setting           monoclinic
_symmetry_space_group_name_H-M   'P 21/n'
_symmetry_Int_Tables_number      14
_space_group_name_Hall           '-P 2yn'
loop_
_symmetry_equiv_pos_site_id
_symmetry_equiv_pos_as_xyz
1 x,y,z
2 1/2-x,1/2+y,1/2-z
3 -x,-y,-z
4 1/2+x,1/2-y,1/2+z
_cell_length_a                   10.1927(5)
_cell_length_b                   7.1610(9)
_cell_length_c                   20.2559(8)
_cell_angle_alpha                90
_cell_angle_beta                 94.1624(14)
_cell_angle_gamma                90
_cell_volume                     1474.58
loop_
_atom_site_label
_atom_site_type_symbol
_atom_site_fract_x
_atom_site_fract_y
_atom_site_fract_z
N1 N 0.40476(18) 0.2918(3) 0.27310(9)
N2 N -0.33156(19) 0.2875(3) 0.53127(9)
C3 C 0.2150(2) 0.2833(3) 0.36825(11)
C4 C -0.1237(2) 0.3289(3) 0.44705(10)
C9 C 0.4307(2) 0.2127(3) 0.33282(11)
C10 C 0.3404(2) 0.2055(3) 0.38095(11)
C11 C 0.1889(2) 0.3666(3) 0.30629(11)
C12 C 0.2847(2) 0.3678(3) 0.26161(11)
C13 C -0.1022(2) 0.2583(3) 0.51088(11)
C14 C -0.2072(2) 0.2404(3) 0.55050(11)
C15 C -0.3511(2) 0.3603(3) 0.46988(12)
C16 C -0.2524(2) 0.3827(3) 0.42697(11)
H7 H 0.5154 0.1598 0.3424
H8 H 0.3633 0.1477 0.4224
H9 H 0.1053 0.4210 0.2950
H10 H 0.2650 0.4266 0.2200
H11 H -0.0160 0.2229 0.5271
H12 H -0.1903 0.1913 0.5939
H13 H -0.4379 0.3974 0.4554
H14 H -0.2715 0.4340 0.3841
C17 C 0.1161(2) 0.2725(3) 0.42054(11)
H15 H 0.1491 0.3429 0.4579
H16 H 0.1070 0.1455 0.4329
C18 C -0.0200(2) 0.3483(3) 0.39796(11)
H17 H -0.0107 0.4771 0.3880
H18 H -0.0497 0.2827 0.3589
N1 N 0.09524(18) 0.7918(3) 0.22690(9)
N2 N 0.83156(19) 0.7875(3) -0.03127(9)
C3 C 0.2850(2) 0.7833(3) 0.13175(11)
C4 C 0.6237(2) 0.8289(3) 0.05295(10)
C9 C 0.0693(2) 0.7127(3) 0.16718(11)
C10 C 0.1596(2) 0.7055(3) 0.11905(11)
C11 C 0.3111(2) 0.8666(3) 0.19371(11)
C12 C 0.2153(2) 0.8678(3) 0.23839(11)
C13 C 0.6022(2) 0.7583(3) -0.01088(11)
C14 C 0.7072(2) 0.7404(3) -0.05050(11)
C15 C 0.8511(2) 0.8603(3) 0.03012(12)
C16 C 0.7524(2) 0.8827(3) 0.07303(11)
H7 H -0.0154 0.6598 0.1576
H8 H 0.1367 0.6477 0.0776
H9 H 0.3947 0.9210 0.2050
H10 H 0.2350 0.9266 0.2800
H11 H 0.5160 0.7229 -0.0271
H12 H 0.6903 0.6913 -0.0939
H13 H 0.9379 0.8974 0.0446
H14 H 0.7715 0.9340 0.1159
C17 C 0.3839(2) 0.7725(3) 0.07946(11)
H15 H 0.3509 0.8429 0.0421
H16 H 0.3930 0.6455 0.0671
C18 C 0.5200(2) 0.8483(3) 0.10204(11)
H17 H 0.5107 0.9771 0.1120
H18 H 0.5497 0.7827 0.1411
N1 N 0.59524(18) 0.7082(3) 0.72690(9)
N2 N 1.33156(19) 0.7125(3) 0.46873(9)
C3 C 0.7850(2) 0.7167(3) 0.63175(11)
C4 C 1.1237(2) 0.6711(3) 0.55295(10)
C9 C 0.5693(2) 0.7873(3) 0.66718(11)
C10 C 0.6596(2) 0.7945(3) 0.61905(11)
C11 C 0.8111(2) 0.6334(3) 0.69371(11)
C12 C 0.7153(2) 0.6322(3) 0.73839(11)
C13 C 1.1022(2) 0.7417(3) 0.48912(11)
C14 C 1.2072(2) 0.7596(3) 0.44950(11)
C15 C 1.3511(2) 0.6397(3) 0.53012(12)
C16 C 1.2524(2) 0.6173(3) 0.57303(11)
H7 H 0.4846 0.8402 0.6576
H8 H 0.6367 0.8523 0.5776
H9 H 0.8947 0.5790 0.7050
H10 H 0.7350 0.5734 0.7800
H11 H 1.0160 0.7771 0.4729
H12 H 1.1903 0.8087 0.4061
H13 H 1.4379 0.6026 0.5446
H14 H 1.2715 0.5660 0.6159
C17 C 0.8839(2) 0.7275(3) 0.57946(11)
H15 H 0.8509 0.6571 0.5421
H16 H 0.8930 0.8545 0.5671
C18 C 1.0200(2) 0.6517(3) 0.60204(11)
H17 H 1.0107 0.5229 0.6120
H18 H 1.0497 0.7173 0.6411
N1 N 0.90476(18) 0.2082(3) 0.77310(9)
N2 N 0.16844(19) 0.2125(3) 1.03127(9)
C3 C 0.7150(2) 0.2167(3) 0.86825(11)
C4 C 0.3763(2) 0.1711(3) 0.94705(10)
C9 C 0.9307(2) 0.2873(3) 0.83282(11)
C10 C 0.8404(2) 0.2945(3) 0.88095(11)
C11 C 0.6889(2) 0.1334(3) 0.80629(11)
C12 C 0.7847(2) 0.1322(3) 0.76161(11)
C13 C 0.3978(2) 0.2417(3) 1.01088(11)
C14 C 0.2928(2) 0.2596(3) 1.05050(11)
C15 C 0.1489(2) 0.1397(3) 0.96988(12)
C16 C 0.2476(2) 0.1173(3) 0.92697(11)
H7 H 1.0154 0.3402 0.8424
H8 H 0.8633 0.3523 0.9224
H9 H 0.6053 0.0790 0.7950
H10 H 0.7650 0.0734 0.7200
H11 H 0.4840 0.2771 1.0271
H12 H 0.3097 0.3087 1.0939
H13 H 0.0621 0.1026 0.9554
H14 H 0.2285 0.0660 0.8841
C17 C 0.6161(2) 0.2275(3) 0.92054(11)
H15 H 0.6491 0.1571 0.9579
H16 H 0.6070 0.3545 0.9329
C18 C 0.4800(2) 0.1517(3) 0.89796(11)
H17 H 0.4893 0.0229 0.8880
H18 H 0.4503 0.2173 0.8589
C1 C 0.6702(2) 0.3122(3) 0.16481(10)
C2 C 0.8706(2) 0.3240(3) 0.10813(11)
O1 O 0.53846(14) 0.3533(2) 0.16292(8)
O2 O 0.93061(15) 0.3778(2) 0.05270(8)
C5 C 0.7372(2) 0.3670(3) 0.11021(11)
C6 C 0.9381(2) 0.2309(3) 0.16084(11)
C7 C 0.8701(2) 0.1790(3) 0.21503(11)
C8 C 0.7365(2) 0.2179(3) 0.21737(11)
H1 H 0.5059 0.3231 0.2042
H2 H 1.0145 0.3203 0.0490
H3 H 0.6924 0.4325 0.0745
H4 H 1.0290 0.2031 0.1595
H5 H 0.9155 0.1170 0.2513
H6 H 0.6904 0.1792 0.2541
C1 C 0.8298(2) 0.8122(3) 0.33519(10)
C2 C 0.6294(2) 0.8240(3) 0.39187(11)
O1 O 0.96154(14) 0.8533(2) 0.33708(8)
O2 O 0.56939(15) 0.8778(2) 0.44730(8)
C5 C 0.7628(2) 0.8670(3) 0.38979(11)
C6 C 0.5619(2) 0.7309(3) 0.33916(11)
C7 C 0.6299(2) 0.6790(3) 0.28497(11)
C8 C 0.7635(2) 0.7179(3) 0.28263(11)
H1 H 0.9941 0.8231 0.2958
H2 H 0.4855 0.8203 0.4510
H3 H 0.8076 0.9325 0.4255
H4 H 0.4710 0.7031 0.3405
H5 H 0.5845 0.6170 0.2487
H6 H 0.8096 0.6792 0.2459
C1 C 0.3298(2) 0.6878(3) 0.83519(10)
C2 C 0.1294(2) 0.6760(3) 0.89187(11)
O1 O 0.46154(14) 0.6467(2) 0.83708(8)
O2 O 0.06939(15) 0.6222(2) 0.94730(8)
C5 C 0.2628(2) 0.6330(3) 0.88979(11)
C6 C 0.0619(2) 0.7691(3) 0.83916(11)
C7 C 0.1299(2) 0.8210(3) 0.78497(11)
C8 C 0.2635(2) 0.7821(3) 0.78263(11)
H1 H 0.4941 0.6769 0.7958
H2 H -0.0145 0.6797 0.9510
H3 H 0.3076 0.5675 0.9255
H4 H -0.0290 0.7969 0.8405
H5 H 0.0845 0.8830 0.7487
H6 H 0.3096 0.8208 0.7459
C1 C 0.1702(2) 0.1878(3) 0.66481(10)
C2 C 0.3706(2) 0.1760(3) 0.60813(11)
O1 O 0.03846(14) 0.1467(2) 0.66292(8)
O2 O 0.43061(15) 0.1222(2) 0.55270(8)
C5 C 0.2372(2) 0.1330(3) 0.61021(11)
C6 C 0.4381(2) 0.2691(3) 0.66084(11)
C7 C 0.3701(2) 0.3210(3) 0.71503(11)
C8 C 0.2365(2) 0.2821(3) 0.71737(11)
H1 H 0.0059 0.1769 0.7042
H2 H 0.5145 0.1797 0.5490
H3 H 0.1924 0.0675 0.5745
H4 H 0.5290 0.2969 0.6595
H5 H 0.4155 0.3830 0.7513
H6 H 0.1904 0.3208 0.7541

#END
