./ACPHCU01_from_POSCAR.cif_generated_by_CrystalShift
_symmetry_cell_setting triclinic
_symmetry_space_group_name_H-M 'P 1'
loop_
_symmetry_equiv_pos_site_id
_symmetry_equiv_pos_as_xyz
1 x,y,z
_cell_length_a 17.949000
_cell_length_b 10.921000
_cell_length_c 19.159000
_cell_angle_alpha 90.000000
_cell_angle_beta 121.930000
_cell_angle_gamma 90.000000
_cell_volume 3187.330401
loop_
_atom_site_label
_atom_site_type_symbol
_atom_site_fract_x
_atom_site_fract_y
_atom_site_fract_z
H1 H 0.602000 -0.155000 0.204000
H2 H 0.623000 -0.220000 0.151000
H3 H 0.741000 -0.032000 0.053000
H4 H 0.666000 -0.158000 -0.067000
H5 H 0.741000 -0.321000 -0.086000
H6 H 0.891000 -0.364000 0.017000
H7 H 0.968000 -0.235000 0.136000
H8 H 0.965000 -0.164000 0.328000
H9 H 1.096000 -0.268000 0.427000
H10 H 1.224000 -0.256000 0.421000
H11 H 1.225000 -0.138000 0.317000
H12 H 1.095000 -0.031000 0.218000
H13 H 0.988000 0.227000 0.243000
H14 H 1.052000 0.378000 0.202000
H15 H 1.057000 0.350000 0.080000
H16 H 0.995000 0.168000 0.000000
H17 H 0.931000 0.015000 0.041000
H18 H 0.992000 0.054000 0.397000
H19 H 1.123000 0.045000 0.531000
H20 H 1.158000 0.210000 0.626000
H21 H 1.065000 0.385000 0.584000
H22 H 0.933000 0.394000 0.451000
H23 H 0.693000 0.344000 0.195000
H24 H 0.667000 0.531000 0.120000
H25 H 0.787000 0.658000 0.146000
H26 H 0.934000 0.598000 0.245000
H27 H 0.961000 0.410000 0.320000
H28 H 0.764000 0.398000 0.366000
H29 H 0.667000 0.385000 0.416000
H30 H 0.613000 0.189000 0.427000
H31 H 0.659000 0.008000 0.389000
H32 H 0.753000 0.022000 0.337000
H33 H 0.898000 0.345000 0.796000
H34 H 0.926000 0.381000 0.894000
H35 H 0.877000 0.280000 0.849000
H36 H 0.759000 0.468000 0.947000
H37 H 0.834000 0.342000 1.067000
H38 H 0.759000 0.179000 1.086000
H39 H 0.609000 0.136000 0.983000
H40 H 0.532000 0.265000 0.864000
H41 H 0.535000 0.336000 0.672000
H42 H 0.404000 0.232000 0.573000
H43 H 0.276000 0.244000 0.579000
H44 H 0.253000 0.478000 0.337000
H45 H 0.159000 0.492000 0.389000
H46 H 0.113000 0.311000 0.427000
H47 H 0.167000 0.115000 0.416000
H48 H 0.264000 0.102000 0.366000
H49 H 0.461000 0.090000 0.320000
H50 H 0.434000 -0.098000 0.245000
H51 H 0.287000 -0.158000 0.146000
H52 H 0.167000 -0.031000 0.120000
H53 H 0.193000 0.156000 0.195000
H54 H 0.433000 0.106000 0.451000
H55 H 0.565000 0.115000 0.584000
H56 H 0.658000 0.290000 0.626000
H57 H 0.623000 0.455000 0.531000
H58 H 0.492000 0.446000 0.397000
H59 H 0.431000 0.485000 0.041000
H60 H 0.495000 0.332000 0.000000
H61 H 0.557000 0.150000 0.080000
H62 H 0.552000 0.122000 0.202000
H63 H 0.488000 0.273000 0.243000
H64 H 0.595000 0.531000 0.218000
H65 H 0.725000 0.638000 0.317000
H66 H 0.724000 0.756000 0.421000
H67 H 0.596000 0.768000 0.427000
H68 H 0.465000 0.664000 0.328000
H69 H 0.468000 0.735000 0.136000
H70 H 0.391000 0.864000 0.017000
H71 H 0.241000 0.821000 -0.086000
H72 H 0.166000 0.658000 -0.067000
H73 H 0.241000 0.532000 0.053000
H74 H 0.123000 0.720000 0.151000
H75 H 0.074000 0.619000 0.106000
H76 H 0.102000 0.655000 0.204000
H77 H 0.275000 0.362000 0.683000
H78 H 0.405000 0.469000 0.782000
H79 H 0.512000 0.727000 0.757000
H80 H 0.448000 0.878000 0.798000
H81 H 0.443000 0.850000 0.920000
H82 H 0.505000 0.668000 1.000000
H83 H 0.569000 0.515000 0.959000
H84 H 0.508000 0.554000 0.603000
H85 H 0.377000 0.545000 0.469000
H86 H 0.342000 0.710000 0.374000
H87 H 0.435000 0.885000 0.416000
H88 H 0.567000 0.894000 0.549000
H89 H 0.807000 0.844000 0.805000
H90 H 0.833000 1.031000 0.880000
H91 H 0.713000 1.158000 0.854000
H92 H 0.566000 1.098000 0.755000
H93 H 0.539000 0.910000 0.680000
H94 H 0.736000 0.898000 0.634000
H95 H 0.833000 0.885000 0.584000
H96 H 0.887000 0.689000 0.573000
H97 H 0.841000 0.508000 0.611000
H98 H 0.747000 0.522000 0.663000
H99 H 0.398000 1.155000 0.796000
H100 H 0.426000 1.119000 0.894000
H101 H 0.377000 1.220000 0.849000
H102 H 0.259000 1.032000 0.947000
H103 H 0.334000 1.158000 1.067000
H104 H 0.259000 1.321000 1.086000
H105 H 0.109000 1.364000 0.983000
H106 H 0.032000 1.235000 0.864000
H107 H 0.035000 1.164000 0.672000
H108 H -0.096000 1.268000 0.573000
H109 H -0.224000 1.256000 0.579000
H110 H -0.225000 1.138000 0.683000
H111 H -0.095000 1.031000 0.782000
H112 H 0.012000 0.773000 0.757000
H113 H -0.052000 0.622000 0.798000
H114 H -0.057000 0.650000 0.920000
H115 H 0.005000 0.832000 1.000000
H116 H 0.069000 0.985000 0.959000
H117 H 0.008000 0.946000 0.603000
H118 H -0.123000 0.955000 0.469000
H119 H -0.158000 0.790000 0.374000
H120 H 0.247000 0.978000 0.663000
H121 H 0.341000 0.992000 0.611000
H122 H 0.387000 0.811000 0.573000
H123 H 0.333000 0.615000 0.584000
H124 H 0.236000 0.602000 0.634000
H125 H 0.039000 0.590000 0.680000
H126 H 0.066000 0.402000 0.755000
H127 H 0.213000 0.342000 0.854000
H128 H 0.333000 0.469000 0.880000
H129 H 0.307000 0.656000 0.805000
H130 H 0.067000 0.606000 0.549000
H131 H -0.065000 0.615000 0.416000
H132 H 0.574000 -0.119000 0.106000
C133 C 0.228000 -0.005700 0.162500
C134 C 0.384600 1.144200 0.851100
C135 C 0.301600 1.070900 0.817700
C136 C 0.226900 1.100400 0.955200
C137 C 0.271100 1.174200 1.024800
C138 C 0.227200 1.269300 1.035600
C139 C 0.139900 1.293200 0.976100
C140 C 0.095000 1.218800 0.906700
C141 C 0.138700 1.120900 0.896900
C142 C -0.019100 1.157600 0.675000
C143 C -0.095300 1.219000 0.617400
C144 C -0.169800 1.211600 0.620600
C145 C -0.170300 1.142700 0.680900
C146 C -0.094500 1.080900 0.738500
C147 C -0.018500 1.088100 0.736700
C148 C 0.010200 0.786700 0.807600
C149 C -0.026600 0.698100 0.832100
C150 C -0.029100 0.714100 0.902500
C151 C 0.006400 0.820200 0.949100
C152 C 0.043200 0.909700 0.925000
C153 C 0.267700 0.289400 0.347900
C154 C 0.235500 0.402300 0.353800
C155 C 0.180000 0.410000 0.383900
C156 C 0.732300 0.710600 0.652100
C157 C 0.764500 0.597700 0.646200
C158 C 0.820000 0.590000 0.616100
C159 C 0.845700 0.694700 0.593800
C160 C 0.814900 0.808400 0.600500
C161 C 0.758600 0.816300 0.629300
C162 C 0.671400 0.861700 0.734900
C163 C 0.601300 0.935500 0.721500
C164 C 0.617300 1.045100 0.765700
C165 C 0.702700 1.079700 0.822900
C166 C 0.772000 1.005700 0.837500
C167 C 0.756700 0.896700 0.794100
C168 C 0.549500 0.723200 0.587200
C169 C 0.527900 0.820900 0.532500
C170 C 0.451100 0.815400 0.454700
C171 C 0.396600 0.713700 0.430800
C172 C 0.417200 0.617800 0.485300
C173 C 0.493400 0.623200 0.563300
C174 C 0.544400 0.605700 0.853000
C175 C 0.543200 0.590300 0.925000
C176 C 0.506400 0.679800 0.949100
C177 C 0.470900 0.785900 0.902500
C178 C 0.473400 0.801900 0.832100
C179 C 0.510200 0.713300 0.807600
C180 C 0.481500 0.411900 0.736700
C181 C 0.405500 0.419100 0.738500
C182 C 0.329700 0.357300 0.680900
C183 C 0.330200 0.288400 0.620600
C184 C 0.404700 0.281000 0.617400
C185 C 0.480900 0.342400 0.675000
C186 C 0.638700 0.379100 0.896900
C187 C 0.595000 0.281200 0.906700
C188 C 0.639900 0.206800 0.976100
C189 C 0.727200 0.230700 1.035600
C190 C 0.771100 0.325800 1.024800
C191 C 0.726900 0.399600 0.955200
C192 C 0.801600 0.429100 0.817700
C193 C 0.884600 0.355800 0.851100
C194 C 0.243300 0.103300 0.205900
C195 C 0.450500 0.276800 0.412800
C196 C 0.044400 0.894300 0.853000
C197 C -0.006600 0.876800 0.563300
C198 C -0.082800 0.882200 0.485300
C199 C -0.103400 0.786300 0.430800
C200 C -0.048900 0.684600 0.454700
C201 C 0.027900 0.679100 0.532500
C202 C 0.049500 0.776800 0.587200
C203 C 0.256700 0.603300 0.794100
C204 C 0.272000 0.494300 0.837500
C205 C 0.202700 0.420300 0.822900
C206 C 0.117300 0.454900 0.765700
C207 C 0.101300 0.564500 0.721500
C208 C 0.171400 0.638300 0.734900
C209 C 0.258600 0.683700 0.629300
C210 C 0.314900 0.691600 0.600500
C211 C 0.345700 0.805300 0.593800
C212 C 0.320000 0.910000 0.616100
C213 C 0.264500 0.902300 0.646200
C214 C 0.232300 0.789400 0.652100
C215 C 0.154300 0.305300 0.406200
C216 C 0.185100 0.191600 0.399500
C217 C 0.241400 0.183700 0.370700
C218 C 0.472100 0.179100 0.467500
C219 C 0.548900 0.184600 0.545300
C220 C 0.115400 0.644200 0.148900
C221 C 0.198400 0.570900 0.182300
C222 C 0.273100 0.600400 0.044800
C223 C 0.228900 0.674200 -0.024800
C224 C 0.272800 0.769300 -0.035600
C225 C 0.360100 0.793200 0.023900
C226 C 0.405000 0.718800 0.093300
C227 C 0.361300 0.620900 0.103100
C228 C 0.519100 0.657600 0.325000
C229 C 0.328600 0.138300 0.265100
C230 C 0.398700 0.064500 0.278500
C231 C 0.382700 -0.045100 0.234300
C232 C 0.767700 0.210600 0.347900
C233 C 0.735500 0.097700 0.353800
C234 C 0.680000 0.090000 0.383900
C235 C 0.654300 0.194700 0.406200
C236 C 0.685100 0.308400 0.399500
C237 C 0.741400 0.316300 0.370700
C238 C 0.828600 0.361700 0.265100
C239 C 0.898700 0.435500 0.278500
C240 C 0.882700 0.545100 0.234300
C241 C 0.797300 0.579700 0.177100
C242 C 0.728000 0.505700 0.162500
C243 C 0.743300 0.396700 0.205900
C244 C 0.950500 0.223200 0.412800
C245 C 0.972100 0.320900 0.467500
C246 C 1.048900 0.315400 0.545300
C247 C 1.103400 0.213700 0.569200
C248 C 1.082800 0.117800 0.514700
C249 C 1.006600 0.123200 0.436700
C250 C 0.955600 0.105700 0.147000
C251 C 0.956800 0.090300 0.075000
C252 C 0.993600 0.179800 0.050900
C253 C 1.029100 0.285900 0.097500
C254 C 1.026600 0.301900 0.167900
C255 C 0.989800 0.213300 0.192400
C256 C 1.018500 -0.088100 0.263300
C257 C 1.094500 -0.080900 0.261500
C258 C 1.170300 -0.142700 0.319100
C259 C 1.169800 -0.211600 0.379400
C260 C 1.095300 -0.219000 0.382600
C261 C 1.019100 -0.157600 0.325000
C262 C 0.861300 -0.120900 0.103100
C263 C 0.905000 -0.218800 0.093300
C264 C 0.860100 -0.293200 0.023900
C265 C 0.772800 -0.269300 -0.035600
C266 C 0.728900 -0.174200 -0.024800
C267 C 0.773100 -0.100400 0.044800
C268 C 0.698400 -0.070900 0.182300
C269 C 0.615400 -0.144200 0.148900
C270 C 0.603400 0.286300 0.569200
C271 C 0.582800 0.382200 0.514700
C272 C 0.595300 0.719000 0.382600
C273 C 0.669800 0.711600 0.379400
C274 C 0.670300 0.642700 0.319100
C275 C 0.594500 0.580900 0.261500
C276 C 0.518500 0.588100 0.263300
C277 C 0.489800 0.286700 0.192400
C278 C 0.526600 0.198100 0.167900
C279 C 0.529100 0.214100 0.097500
C280 C 0.493600 0.320200 0.050900
C281 C 0.456800 0.409700 0.075000
C282 C 0.455600 0.394300 0.147000
C283 C 0.506600 0.376800 0.436700
C284 C 0.297300 -0.079700 0.177100
O285 O 0.194900 0.471500 0.147300
O286 O 0.267800 0.609200 0.243600
O287 O 0.732200 0.390800 0.756400
O288 O 0.805100 0.528500 0.852700
O289 O 0.305100 0.971500 0.852700
O290 O 0.694900 0.028500 0.147300
O291 O 0.767800 -0.109200 0.243600
O292 O 0.232200 1.109200 0.756400
P293 P 0.845890 0.212380 0.314350
P294 P 0.345890 0.287620 0.314350
P295 P 0.416270 0.510960 0.187680
P296 P 0.154110 0.787620 0.685650
P297 P 0.083730 1.010960 0.812320
P298 P 0.583730 0.489040 0.812320
P299 P 0.654110 0.712380 0.685650
P300 P 0.916270 -0.010960 0.187680
Cu301 Cu 0.834090 0.055170 0.235390
Cu302 Cu 0.165910 0.944830 0.764610
Cu303 Cu 0.665910 0.555170 0.764610
Cu304 Cu 0.334090 0.444830 0.235390

#END
