
#######################################################################
#
#                 Cambridge Crystallographic Data Centre
#                                CCDC 
#
#######################################################################
#
# If this CIF has been generated from an entry in the Cambridge 
# Structural Database, then it will include bibliographic, chemical, 
# crystal, experimental, refinement or atomic coordinate data resulting 
# from the CCDC's data processing and validation procedures.
#
#######################################################################

data_ACPHCU01
_symmetry_cell_setting           monoclinic
_symmetry_space_group_name_H-M   'P 21/a'
_symmetry_Int_Tables_number      14
_space_group_name_Hall           '-P 2yab'
loop_
_symmetry_equiv_pos_site_id
_symmetry_equiv_pos_as_xyz
1 x,y,z
2 1/2-x,1/2+y,-z
3 -x,-y,-z
4 1/2+x,1/2-y,z
_cell_length_a                   17.949(5)
_cell_length_b                   10.921(3)
_cell_length_c                   19.159(5)
_cell_angle_alpha                90
_cell_angle_beta                 121.93(2)
_cell_angle_gamma                90
_cell_volume                     3187.33
loop_
_atom_site_label
_atom_site_type_symbol
_atom_site_fract_x
_atom_site_fract_y
_atom_site_fract_z
Cu1 Cu 0.33409 0.44483 0.23539
P1 P 0.34589 0.28762 0.31435
P2 P 0.41627 0.51096 0.18768
C1 C 0.26770 0.28940 0.34790
C2 C 0.23550 0.40230 0.35380
C3 C 0.18000 0.41000 0.38390
C4 C 0.15430 0.30530 0.40620
C5 C 0.18510 0.19160 0.39950
C6 C 0.24140 0.18370 0.37070
C7 C 0.32860 0.13830 0.26510
C8 C 0.39870 0.06450 0.27850
C9 C 0.38270 -0.04510 0.23430
C10 C 0.29730 -0.07970 0.17710
C11 C 0.22800 -0.00570 0.16250
C12 C 0.24330 0.10330 0.20590
C13 C 0.45050 0.27680 0.41280
C14 C 0.47210 0.17910 0.46750
C15 C 0.54890 0.18460 0.54530
C16 C 0.60340 0.28630 0.56920
C17 C 0.58280 0.38220 0.51470
C18 C 0.50660 0.37680 0.43670
C19 C 0.45560 0.39430 0.14700
C20 C 0.45680 0.40970 0.07500
C21 C 0.49360 0.32020 0.05090
C22 C 0.52910 0.21410 0.09750
C23 C 0.52660 0.19810 0.16790
C24 C 0.48980 0.28670 0.19240
C25 C 0.51850 0.58810 0.26330
C26 C 0.59450 0.58090 0.26150
C27 C 0.67030 0.64270 0.31910
C28 C 0.66980 0.71160 0.37940
C29 C 0.59530 0.71900 0.38260
C30 C 0.51910 0.65760 0.32500
C31 C 0.36130 0.62090 0.10310
C32 C 0.40500 0.71880 0.09330
C33 C 0.36010 0.79320 0.02390
C34 C 0.27280 0.76930 -0.03560
C35 C 0.22890 0.67420 -0.02480
C36 C 0.27310 0.60040 0.04480
C37 C 0.19840 0.57090 0.18230
C38 C 0.11540 0.64420 0.14890
O1 O 0.19490 0.47150 0.14730
O2 O 0.26780 0.60920 0.24360
H1 H 0.25300 0.47800 0.33700
H2 H 0.15900 0.49200 0.38900
H3 H 0.11300 0.31100 0.42700
H4 H 0.16700 0.11500 0.41600
H5 H 0.26400 0.10200 0.36600
H6 H 0.46100 0.09000 0.32000
H7 H 0.43400 -0.09800 0.24500
H8 H 0.28700 -0.15800 0.14600
H9 H 0.16700 -0.03100 0.12000
H10 H 0.19300 0.15600 0.19500
H11 H 0.43300 0.10600 0.45100
H12 H 0.56500 0.11500 0.58400
H13 H 0.65800 0.29000 0.62600
H14 H 0.62300 0.45500 0.53100
H15 H 0.49200 0.44600 0.39700
H16 H 0.43100 0.48500 0.04100
H17 H 0.49500 0.33200 0.00000
H18 H 0.55700 0.15000 0.08000
H19 H 0.55200 0.12200 0.20200
H20 H 0.48800 0.27300 0.24300
H21 H 0.59500 0.53100 0.21800
H22 H 0.72500 0.63800 0.31700
H23 H 0.72400 0.75600 0.42100
H24 H 0.59600 0.76800 0.42700
H25 H 0.46500 0.66400 0.32800
H26 H 0.46800 0.73500 0.13600
H27 H 0.39100 0.86400 0.01700
H28 H 0.24100 0.82100 -0.08600
H29 H 0.16600 0.65800 -0.06700
H30 H 0.24100 0.53200 0.05300
H31 H 0.12300 0.72000 0.15100
H32 H 0.07400 0.61900 0.10600
H33 H 0.10200 0.65500 0.20400
Cu1 Cu 0.16591 0.94483 0.76461
P1 P 0.15411 0.78762 0.68565
P2 P 0.08373 1.01096 0.81232
C1 C 0.23230 0.78940 0.65210
C2 C 0.26450 0.90230 0.64620
C3 C 0.32000 0.91000 0.61610
C4 C 0.34570 0.80530 0.59380
C5 C 0.31490 0.69160 0.60050
C6 C 0.25860 0.68370 0.62930
C7 C 0.17140 0.63830 0.73490
C8 C 0.10130 0.56450 0.72150
C9 C 0.11730 0.45490 0.76570
C10 C 0.20270 0.42030 0.82290
C11 C 0.27200 0.49430 0.83750
C12 C 0.25670 0.60330 0.79410
C13 C 0.04950 0.77680 0.58720
C14 C 0.02790 0.67910 0.53250
C15 C -0.04890 0.68460 0.45470
C16 C -0.10340 0.78630 0.43080
C17 C -0.08280 0.88220 0.48530
C18 C -0.00660 0.87680 0.56330
C19 C 0.04440 0.89430 0.85300
C20 C 0.04320 0.90970 0.92500
C21 C 0.00640 0.82020 0.94910
C22 C -0.02910 0.71410 0.90250
C23 C -0.02660 0.69810 0.83210
C24 C 0.01020 0.78670 0.80760
C25 C -0.01850 1.08810 0.73670
C26 C -0.09450 1.08090 0.73850
C27 C -0.17030 1.14270 0.68090
C28 C -0.16980 1.21160 0.62060
C29 C -0.09530 1.21900 0.61740
C30 C -0.01910 1.15760 0.67500
C31 C 0.13870 1.12090 0.89690
C32 C 0.09500 1.21880 0.90670
C33 C 0.13990 1.29320 0.97610
C34 C 0.22720 1.26930 1.03560
C35 C 0.27110 1.17420 1.02480
C36 C 0.22690 1.10040 0.95520
C37 C 0.30160 1.07090 0.81770
C38 C 0.38460 1.14420 0.85110
O1 O 0.30510 0.97150 0.85270
O2 O 0.23220 1.10920 0.75640
H1 H 0.24700 0.97800 0.66300
H2 H 0.34100 0.99200 0.61100
H3 H 0.38700 0.81100 0.57300
H4 H 0.33300 0.61500 0.58400
H5 H 0.23600 0.60200 0.63400
H6 H 0.03900 0.59000 0.68000
H7 H 0.06600 0.40200 0.75500
H8 H 0.21300 0.34200 0.85400
H9 H 0.33300 0.46900 0.88000
H10 H 0.30700 0.65600 0.80500
H11 H 0.06700 0.60600 0.54900
H12 H -0.06500 0.61500 0.41600
H13 H -0.15800 0.79000 0.37400
H14 H -0.12300 0.95500 0.46900
H15 H 0.00800 0.94600 0.60300
H16 H 0.06900 0.98500 0.95900
H17 H 0.00500 0.83200 1.00000
H18 H -0.05700 0.65000 0.92000
H19 H -0.05200 0.62200 0.79800
H20 H 0.01200 0.77300 0.75700
H21 H -0.09500 1.03100 0.78200
H22 H -0.22500 1.13800 0.68300
H23 H -0.22400 1.25600 0.57900
H24 H -0.09600 1.26800 0.57300
H25 H 0.03500 1.16400 0.67200
H26 H 0.03200 1.23500 0.86400
H27 H 0.10900 1.36400 0.98300
H28 H 0.25900 1.32100 1.08600
H29 H 0.33400 1.15800 1.06700
H30 H 0.25900 1.03200 0.94700
H31 H 0.37700 1.22000 0.84900
H32 H 0.42600 1.11900 0.89400
H33 H 0.39800 1.15500 0.79600
Cu1 Cu 0.66591 0.55517 0.76461
P1 P 0.65411 0.71238 0.68565
P2 P 0.58373 0.48904 0.81232
C1 C 0.73230 0.71060 0.65210
C2 C 0.76450 0.59770 0.64620
C3 C 0.82000 0.59000 0.61610
C4 C 0.84570 0.69470 0.59380
C5 C 0.81490 0.80840 0.60050
C6 C 0.75860 0.81630 0.62930
C7 C 0.67140 0.86170 0.73490
C8 C 0.60130 0.93550 0.72150
C9 C 0.61730 1.04510 0.76570
C10 C 0.70270 1.07970 0.82290
C11 C 0.77200 1.00570 0.83750
C12 C 0.75670 0.89670 0.79410
C13 C 0.54950 0.72320 0.58720
C14 C 0.52790 0.82090 0.53250
C15 C 0.45110 0.81540 0.45470
C16 C 0.39660 0.71370 0.43080
C17 C 0.41720 0.61780 0.48530
C18 C 0.49340 0.62320 0.56330
C19 C 0.54440 0.60570 0.85300
C20 C 0.54320 0.59030 0.92500
C21 C 0.50640 0.67980 0.94910
C22 C 0.47090 0.78590 0.90250
C23 C 0.47340 0.80190 0.83210
C24 C 0.51020 0.71330 0.80760
C25 C 0.48150 0.41190 0.73670
C26 C 0.40550 0.41910 0.73850
C27 C 0.32970 0.35730 0.68090
C28 C 0.33020 0.28840 0.62060
C29 C 0.40470 0.28100 0.61740
C30 C 0.48090 0.34240 0.67500
C31 C 0.63870 0.37910 0.89690
C32 C 0.59500 0.28120 0.90670
C33 C 0.63990 0.20680 0.97610
C34 C 0.72720 0.23070 1.03560
C35 C 0.77110 0.32580 1.02480
C36 C 0.72690 0.39960 0.95520
C37 C 0.80160 0.42910 0.81770
C38 C 0.88460 0.35580 0.85110
O1 O 0.80510 0.52850 0.85270
O2 O 0.73220 0.39080 0.75640
H1 H 0.74700 0.52200 0.66300
H2 H 0.84100 0.50800 0.61100
H3 H 0.88700 0.68900 0.57300
H4 H 0.83300 0.88500 0.58400
H5 H 0.73600 0.89800 0.63400
H6 H 0.53900 0.91000 0.68000
H7 H 0.56600 1.09800 0.75500
H8 H 0.71300 1.15800 0.85400
H9 H 0.83300 1.03100 0.88000
H10 H 0.80700 0.84400 0.80500
H11 H 0.56700 0.89400 0.54900
H12 H 0.43500 0.88500 0.41600
H13 H 0.34200 0.71000 0.37400
H14 H 0.37700 0.54500 0.46900
H15 H 0.50800 0.55400 0.60300
H16 H 0.56900 0.51500 0.95900
H17 H 0.50500 0.66800 1.00000
H18 H 0.44300 0.85000 0.92000
H19 H 0.44800 0.87800 0.79800
H20 H 0.51200 0.72700 0.75700
H21 H 0.40500 0.46900 0.78200
H22 H 0.27500 0.36200 0.68300
H23 H 0.27600 0.24400 0.57900
H24 H 0.40400 0.23200 0.57300
H25 H 0.53500 0.33600 0.67200
H26 H 0.53200 0.26500 0.86400
H27 H 0.60900 0.13600 0.98300
H28 H 0.75900 0.17900 1.08600
H29 H 0.83400 0.34200 1.06700
H30 H 0.75900 0.46800 0.94700
H31 H 0.87700 0.28000 0.84900
H32 H 0.92600 0.38100 0.89400
H33 H 0.89800 0.34500 0.79600
Cu1 Cu 0.83409 0.05517 0.23539
P1 P 0.84589 0.21238 0.31435
P2 P 0.91627 -0.01096 0.18768
C1 C 0.76770 0.21060 0.34790
C2 C 0.73550 0.09770 0.35380
C3 C 0.68000 0.09000 0.38390
C4 C 0.65430 0.19470 0.40620
C5 C 0.68510 0.30840 0.39950
C6 C 0.74140 0.31630 0.37070
C7 C 0.82860 0.36170 0.26510
C8 C 0.89870 0.43550 0.27850
C9 C 0.88270 0.54510 0.23430
C10 C 0.79730 0.57970 0.17710
C11 C 0.72800 0.50570 0.16250
C12 C 0.74330 0.39670 0.20590
C13 C 0.95050 0.22320 0.41280
C14 C 0.97210 0.32090 0.46750
C15 C 1.04890 0.31540 0.54530
C16 C 1.10340 0.21370 0.56920
C17 C 1.08280 0.11780 0.51470
C18 C 1.00660 0.12320 0.43670
C19 C 0.95560 0.10570 0.14700
C20 C 0.95680 0.09030 0.07500
C21 C 0.99360 0.17980 0.05090
C22 C 1.02910 0.28590 0.09750
C23 C 1.02660 0.30190 0.16790
C24 C 0.98980 0.21330 0.19240
C25 C 1.01850 -0.08810 0.26330
C26 C 1.09450 -0.08090 0.26150
C27 C 1.17030 -0.14270 0.31910
C28 C 1.16980 -0.21160 0.37940
C29 C 1.09530 -0.21900 0.38260
C30 C 1.01910 -0.15760 0.32500
C31 C 0.86130 -0.12090 0.10310
C32 C 0.90500 -0.21880 0.09330
C33 C 0.86010 -0.29320 0.02390
C34 C 0.77280 -0.26930 -0.03560
C35 C 0.72890 -0.17420 -0.02480
C36 C 0.77310 -0.10040 0.04480
C37 C 0.69840 -0.07090 0.18230
C38 C 0.61540 -0.14420 0.14890
O1 O 0.69490 0.02850 0.14730
O2 O 0.76780 -0.10920 0.24360
H1 H 0.75300 0.02200 0.33700
H2 H 0.65900 0.00800 0.38900
H3 H 0.61300 0.18900 0.42700
H4 H 0.66700 0.38500 0.41600
H5 H 0.76400 0.39800 0.36600
H6 H 0.96100 0.41000 0.32000
H7 H 0.93400 0.59800 0.24500
H8 H 0.78700 0.65800 0.14600
H9 H 0.66700 0.53100 0.12000
H10 H 0.69300 0.34400 0.19500
H11 H 0.93300 0.39400 0.45100
H12 H 1.06500 0.38500 0.58400
H13 H 1.15800 0.21000 0.62600
H14 H 1.12300 0.04500 0.53100
H15 H 0.99200 0.05400 0.39700
H16 H 0.93100 0.01500 0.04100
H17 H 0.99500 0.16800 0.00000
H18 H 1.05700 0.35000 0.08000
H19 H 1.05200 0.37800 0.20200
H20 H 0.98800 0.22700 0.24300
H21 H 1.09500 -0.03100 0.21800
H22 H 1.22500 -0.13800 0.31700
H23 H 1.22400 -0.25600 0.42100
H24 H 1.09600 -0.26800 0.42700
H25 H 0.96500 -0.16400 0.32800
H26 H 0.96800 -0.23500 0.13600
H27 H 0.89100 -0.36400 0.01700
H28 H 0.74100 -0.32100 -0.08600
H29 H 0.66600 -0.15800 -0.06700
H30 H 0.74100 -0.03200 0.05300
H31 H 0.62300 -0.22000 0.15100
H32 H 0.57400 -0.11900 0.10600
H33 H 0.60200 -0.15500 0.20400

#END
