./ACPHCU02_from_POSCAR.cif_generated_by_CrystalShift
_symmetry_cell_setting triclinic
_symmetry_space_group_name_H-M 'P 1'
loop_
_symmetry_equiv_pos_site_id
_symmetry_equiv_pos_as_xyz
1 x,y,z
_cell_length_a 18.085000
_cell_length_b 10.977000
_cell_length_c 17.979000
_cell_angle_alpha 90.000000
_cell_angle_beta 115.620000
_cell_angle_gamma 90.000000
_cell_volume 3218.258603
loop_
_atom_site_label
_atom_site_type_symbol
_atom_site_fract_x
_atom_site_fract_y
_atom_site_fract_z
H1 H 0.552900 0.535600 0.309400
H2 H 0.417500 0.818700 0.172600
H3 H 0.518700 0.860500 0.128600
H4 H 0.635400 0.734500 0.170400
H5 H 0.825400 0.662000 0.359400
H6 H 0.923300 0.765700 0.330200
H7 H 0.919400 0.753100 0.199100
H8 H 0.818600 0.636300 0.096400
H9 H 0.720600 0.532200 0.125700
H10 H 0.544000 0.482500 0.110000
H11 H 0.502400 0.332100 0.007100
H12 H 0.580800 0.154800 0.025500
H13 H 0.699100 0.125600 0.148900
H14 H 0.739700 0.274900 0.252900
H15 H 0.836300 0.474100 0.583500
H16 H 0.888500 0.487700 0.729000
H17 H 0.926600 0.310400 0.809000
H18 H 0.915600 0.120600 0.746700
H19 H 0.866100 0.106200 0.602000
H20 H 0.898300 0.442100 0.405100
H21 H 1.031100 0.450500 0.409800
H22 H 1.122700 0.290600 0.468300
H23 H 1.082600 0.118500 0.517600
H24 H 0.951200 0.110600 0.516100
H25 H 0.819400 0.088700 0.360800
H26 H 0.744100 -0.094300 0.312800
H27 H 0.649300 -0.153900 0.362100
H28 H 0.624600 -0.029000 0.453700
H29 H 0.695700 0.155100 0.498500
H30 H 0.594900 0.676200 0.494700
H31 H 0.642300 0.593500 0.571800
H32 H 0.684000 0.711300 0.558300
H33 H 0.447100 1.035600 0.190600
H34 H 0.564000 1.160100 0.234100
H35 H 0.582500 1.318700 0.327400
H36 H 0.481300 1.360500 0.371400
H37 H 0.364600 1.234500 0.329600
H38 H 0.174600 1.162000 0.140600
H39 H 0.076700 1.265700 0.169800
H40 H 0.080600 1.253100 0.300900
H41 H 0.181400 1.136300 0.403600
H42 H 0.279400 1.032200 0.374300
H43 H 0.456000 0.982500 0.390000
H44 H 0.684000 -0.211300 1.058300
H45 H 0.642300 -0.093500 1.071800
H46 H 0.594900 -0.176200 0.994700
H47 H 0.695700 0.344900 0.998500
H48 H 0.624600 0.529000 0.953700
H49 H 0.649300 0.653900 0.862100
H50 H 0.744100 0.594300 0.812800
H51 H 0.819400 0.411300 0.860800
H52 H 0.951200 0.389400 1.016100
H53 H 1.082600 0.381500 1.017600
H54 H 1.122700 0.209400 0.968300
H55 H 1.031100 0.049500 0.909800
H56 H 0.898300 0.057900 0.905100
H57 H 0.866100 0.393800 1.102000
H58 H 0.915600 0.379400 1.246700
H59 H 0.926600 0.189600 1.309000
H60 H 0.888500 0.012300 1.229000
H61 H 0.836300 0.025900 1.083500
H62 H 0.739700 0.225100 0.752900
H63 H 0.699100 0.374400 0.648900
H64 H 0.580800 0.345200 0.525500
H65 H 0.502400 0.167900 0.507100
H66 H 0.544000 0.017500 0.610000
H67 H 0.720600 -0.032200 0.625700
H68 H 0.818600 -0.136300 0.596400
H69 H 0.919400 -0.253100 0.699100
H70 H 0.923300 -0.265700 0.830200
H71 H 0.825400 -0.162000 0.859400
H72 H 0.635400 -0.234500 0.670400
H73 H 0.518700 -0.360500 0.628600
H74 H 0.417500 -0.318700 0.672600
H75 H 0.436000 -0.160100 0.765900
H76 H 0.552900 -0.035600 0.809400
H77 H 0.497600 0.832100 0.492900
H78 H 0.419200 0.654800 0.474500
H79 H 0.300900 0.625600 0.351100
H80 H 0.260300 0.774900 0.247100
H81 H 0.163700 0.974100 -0.083500
H82 H 0.111500 0.987700 -0.229000
H83 H 0.073400 0.810400 -0.309000
H84 H 0.084400 0.620600 -0.246700
H85 H 0.133900 0.606200 -0.102000
H86 H 0.101700 0.942100 0.094900
H87 H -0.031100 0.950500 0.090200
H88 H -0.122700 0.790600 0.031700
H89 H -0.082600 0.618500 -0.017600
H90 H 0.048800 0.610600 -0.016100
H91 H 0.180600 0.588700 0.139200
H92 H 0.255900 0.405700 0.187200
H93 H 0.350700 0.346100 0.137900
H94 H 0.375400 0.471000 0.046300
H95 H 0.304300 0.655100 0.001500
H96 H 0.405100 1.176200 0.005300
H97 H 0.357700 1.093500 -0.071800
H98 H 0.316000 1.211300 -0.058300
H99 H 0.447100 0.464400 0.690600
H100 H 0.564000 0.339900 0.734100
H101 H 0.582500 0.181300 0.827400
H102 H 0.481300 0.139500 0.871400
H103 H 0.364600 0.265500 0.829600
H104 H 0.174600 0.338000 0.640600
H105 H 0.076700 0.234300 0.669800
H106 H 0.080600 0.246900 0.800900
H107 H 0.181400 0.363700 0.903600
H108 H 0.279400 0.467800 0.874300
H109 H 0.456000 0.517500 0.890000
H110 H 0.497600 0.667900 0.992900
H111 H 0.419200 0.845200 0.974500
H112 H 0.300900 0.874400 0.851100
H113 H 0.260300 0.725100 0.747100
H114 H 0.163700 0.525900 0.416500
H115 H 0.111500 0.512300 0.271000
H116 H 0.073400 0.689600 0.191000
H117 H 0.084400 0.879400 0.253300
H118 H 0.133900 0.893800 0.398000
H119 H 0.101700 0.557900 0.594900
H120 H 0.316000 0.288700 0.441700
H121 H 0.357700 0.406500 0.428200
H122 H 0.405100 0.323800 0.505300
H123 H 0.304300 0.844900 0.501500
H124 H 0.375400 1.029000 0.546300
H125 H 0.350700 1.153900 0.637900
H126 H 0.255900 1.094300 0.687200
H127 H 0.180600 0.911300 0.639200
H128 H 0.048800 0.889400 0.483900
H129 H -0.082600 0.881500 0.482400
H130 H -0.122700 0.709400 0.531700
H131 H -0.031100 0.549500 0.590200
H132 H 0.436000 0.660100 0.265900
C133 C 0.455000 0.399400 0.729100
C134 C 0.523500 0.325600 0.754200
C135 C 0.533900 0.230400 0.808100
C136 C 0.474800 0.207400 0.835500
C137 C 0.406000 0.282000 0.811100
C138 C 0.237100 0.412300 0.754900
C139 C 0.176100 0.343300 0.694600
C140 C 0.118500 0.282300 0.711600
C141 C 0.120700 0.289500 0.789300
C142 C 0.180200 0.358400 0.849800
C143 C 0.238000 0.419500 0.832400
C144 C 0.353500 0.605400 0.809700
C145 C 0.424000 0.590200 0.882400
C146 C 0.448600 0.679000 0.942800
C147 C 0.403000 0.784300 0.932000
C148 C 0.332700 0.801300 0.859500
C149 C 0.308100 0.712700 0.798000
C150 C 0.151800 0.710900 0.420200
C151 C 0.146500 0.597700 0.382900
C152 C 0.116500 0.590100 0.297100
C153 C 0.682300 -0.070800 0.983100
C154 C 0.647700 -0.144800 1.031300
C155 C 0.706900 0.396800 0.961600
C156 C 0.664400 0.505200 0.934400
C157 C 0.678600 0.578400 0.879800
C158 C 0.317700 1.070800 0.016900
C159 C 0.352300 1.144800 -0.031300
C160 C 0.293100 0.603200 0.038400
C161 C 0.335600 0.494800 0.065600
C162 C 0.321400 0.421600 0.120200
C163 C 0.264500 0.456000 0.148000
C164 C 0.220600 0.564500 0.120300
C165 C 0.234000 0.638500 0.064200
C166 C 0.032600 0.680400 0.005400
C167 C -0.045100 0.685300 0.004200
C168 C -0.068500 0.786300 0.034500
C169 C -0.014800 0.881300 0.068300
C170 C 0.063600 0.876600 0.070700
C171 C 0.087100 0.777100 0.038200
C172 C 0.129100 0.684100 -0.127900
C173 C 0.100400 0.692700 -0.213200
C174 C 0.093700 0.805100 -0.250200
C175 C 0.116500 0.909900 -0.202900
C176 C 0.146500 0.902300 -0.117100
C177 C 0.151800 0.789100 -0.079800
C178 C 0.308100 0.787300 0.298000
C179 C 0.332700 0.698700 0.359500
C180 C 0.403000 0.715700 0.432000
C181 C 0.448600 0.821000 0.442800
C182 C 0.424000 0.909800 0.382400
C183 C 0.353500 0.894600 0.309700
C184 C 0.238000 1.080500 0.332400
C185 C 0.180200 1.141600 0.349800
C186 C 0.120700 1.210500 0.289300
C187 C 0.118500 1.217700 0.211600
C188 C 0.176100 1.156700 0.194600
C189 C 0.237100 1.087700 0.254900
C190 C 0.406000 1.218000 0.311100
C191 C 0.474800 1.292600 0.335500
C192 C 0.533900 1.269600 0.308100
C193 C 0.523500 1.174400 0.254200
C194 C 0.455000 1.100600 0.229100
C195 C 0.396300 1.120300 0.258500
C196 C 0.093700 0.694900 0.249800
C197 C 0.100400 0.807300 0.286800
C198 C 0.129100 0.815900 0.372100
C199 C 0.087100 0.722900 0.538200
C200 C 0.063600 0.623400 0.570700
C201 C -0.014800 0.618700 0.568300
C202 C -0.068500 0.713700 0.534500
C203 C -0.045100 0.814700 0.504200
C204 C 0.032600 0.819600 0.505400
C205 C 0.234000 0.861500 0.564200
C206 C 0.220600 0.935500 0.620300
C207 C 0.264500 1.044000 0.648000
C208 C 0.321400 1.078400 0.620200
C209 C 0.335600 1.005200 0.565600
C210 C 0.293100 0.896800 0.538400
C211 C 0.352300 0.355200 0.468700
C212 C 0.317700 0.429200 0.516900
C213 C 0.735500 0.544000 0.852000
C214 C 0.779400 0.435500 0.879700
C215 C 0.766000 0.361500 0.935800
C216 C 0.967400 0.319600 0.994600
C217 C 1.045100 0.314700 0.995800
C218 C 0.603700 -0.120300 0.741500
C219 C 0.545000 -0.100600 0.770900
C220 C 0.476500 -0.174400 0.745800
C221 C 0.466100 -0.269600 0.691900
C222 C 0.525200 -0.292600 0.664500
C223 C 0.594000 -0.218000 0.688900
C224 C 0.762900 -0.087700 0.745100
C225 C 0.823900 -0.156700 0.805400
C226 C 0.881500 -0.217700 0.788400
C227 C 0.879300 -0.210500 0.710700
C228 C 0.819800 -0.141600 0.650200
C229 C 1.068500 0.213700 0.965500
C230 C 1.014800 0.118700 0.931700
C231 C 0.936400 0.123400 0.929300
C232 C 0.912900 0.222900 0.961800
C233 C 0.870900 0.315900 1.127900
C234 C 0.682300 0.570800 0.483100
C235 C 0.647700 0.644800 0.531300
C236 C 0.706900 0.103200 0.461600
C237 C 0.664400 -0.005200 0.434400
C238 C 0.678600 -0.078400 0.379800
C239 C 0.735500 -0.044000 0.352000
C240 C 0.779400 0.064500 0.379700
C241 C 0.766000 0.138500 0.435800
C242 C 0.967400 0.180400 0.494600
C243 C 1.045100 0.185300 0.495800
C244 C 1.068500 0.286300 0.465500
C245 C 1.014800 0.381300 0.431700
C246 C 0.936400 0.376600 0.429300
C247 C 0.912900 0.277100 0.461800
C248 C 0.870900 0.184100 0.627900
C249 C 0.899600 0.192700 0.713200
C250 C 0.906300 0.305100 0.750200
C251 C 0.883500 0.409900 0.702900
C252 C 0.853500 0.402300 0.617100
C253 C 0.848200 0.289100 0.579800
C254 C 0.691900 0.287300 0.202000
C255 C 0.667300 0.198700 0.140500
C256 C 0.597000 0.215700 0.068000
C257 C 0.551400 0.321000 0.057200
C258 C 0.576000 0.409800 0.117600
C259 C 0.646500 0.394600 0.190300
C260 C 0.762000 0.580500 0.167600
C261 C 0.819800 0.641600 0.150200
C262 C 0.879300 0.710500 0.210700
C263 C 0.881500 0.717700 0.288400
C264 C 0.823900 0.656700 0.305400
C265 C 0.762900 0.587700 0.245100
C266 C 0.594000 0.718000 0.188900
C267 C 0.525200 0.792600 0.164500
C268 C 0.466100 0.769600 0.191900
C269 C 0.476500 0.674400 0.245800
C270 C 0.545000 0.600600 0.270900
C271 C 0.603700 0.620300 0.241500
C272 C 0.762000 -0.080500 0.667600
C273 C 0.646500 0.105400 0.690300
C274 C 0.576000 0.090200 0.617600
C275 C 0.551400 0.179000 0.557200
C276 C 0.597000 0.284300 0.568000
C277 C 0.667300 0.301300 0.640500
C278 C 0.691900 0.212700 0.702000
C279 C 0.848200 0.210900 1.079800
C280 C 0.853500 0.097700 1.117100
C281 C 0.883500 0.090100 1.202900
C282 C 0.906300 0.194900 1.250200
C283 C 0.899600 0.307300 1.213200
C284 C 0.396300 0.379700 0.758500
O285 O 0.743700 0.610100 0.475000
O286 O 0.743700 -0.110100 0.975000
O287 O 0.648100 0.028900 0.952400
O288 O 0.256300 1.110100 0.025000
O289 O 0.351900 0.971100 0.047600
O290 O 0.351900 0.528900 0.547600
O291 O 0.256300 0.389900 0.525000
O292 O 0.648100 0.471100 0.452400
P293 P 0.185600 0.712200 0.532400
P294 P 0.814400 0.212200 0.967600
P295 P 0.687500 -0.010700 0.771000
P296 P 0.312500 1.010700 0.229000
P297 P 0.185600 0.787800 0.032400
P298 P 0.312500 0.489300 0.729000
P299 P 0.814400 0.287800 0.467600
P300 P 0.687500 0.510700 0.271000
Cu301 Cu 0.264900 0.556200 0.599300
Cu302 Cu 0.264900 0.943800 0.099300
Cu303 Cu 0.735100 0.443800 0.400700
Cu304 Cu 0.735100 0.056200 0.900700

#END
