
#######################################################################
#
#                 Cambridge Crystallographic Data Centre
#                                CCDC 
#
#######################################################################
#
# If this CIF has been generated from an entry in the Cambridge 
# Structural Database, then it will include bibliographic, chemical, 
# crystal, experimental, refinement or atomic coordinate data resulting 
# from the CCDC's data processing and validation procedures.
#
#######################################################################

data_ACPHQU
_symmetry_cell_setting           monoclinic
_symmetry_space_group_name_H-M   'P 21/c'
_symmetry_Int_Tables_number      14
_space_group_name_Hall           '-P 2ybc'
loop_
_symmetry_equiv_pos_site_id
_symmetry_equiv_pos_as_xyz
1 x,y,z
2 -x,1/2+y,1/2-z
3 -x,-y,-z
4 x,1/2-y,1/2+z
_cell_length_a                   10.375(1)
_cell_length_b                   7.566(1)
_cell_length_c                   21.281(1)
_cell_angle_alpha                90
_cell_angle_beta                 102.91(1)
_cell_angle_gamma                90
_cell_volume                     1628.27
loop_
_atom_site_label
_atom_site_type_symbol
_atom_site_fract_x
_atom_site_fract_y
_atom_site_fract_z
C1 C 0.57280 0.32510 0.60610
C2 C 0.67580 0.21940 0.63810
C3 C 0.65620 0.10550 0.68620
C4 C 0.53500 0.10040 0.70330
C5 C 0.43070 0.21160 0.67330
C6 C 0.30250 0.21500 0.69310
C7 C 0.28870 0.14190 0.75180
C8 C 0.16890 0.14470 0.76960
C9 C 0.06010 0.22240 0.72970
C10 C 0.07170 0.29750 0.67160
C11 C 0.19190 0.29400 0.65330
C12 C 0.20230 0.37110 0.58910
C13 C 0.34010 0.43800 0.58750
C14 C 0.45100 0.32210 0.62340
C15 C 0.33790 0.62680 0.61170
C16 C 0.19570 0.68750 0.58360
O1 O 0.11900 0.52550 0.57370
C17 C 0.17120 0.24380 0.53230
C18 C 0.24050 0.32730 0.48290
O2 O 0.33990 0.44360 0.51960
C19 C 0.13800 0.80790 0.62660
O3 O 0.18160 0.77190 0.52350
C20 C 0.30720 0.19640 0.44670
O4 O 0.15690 0.43380 0.43680
H1 H 0.58700 0.40900 0.57100
H2 H 0.76600 0.22700 0.62400
H3 H 0.73000 0.03300 0.71000
H4 H 0.51900 0.01000 0.73600
H5 H 0.36700 0.08300 0.78200
H6 H 0.16000 0.09000 0.81300
H7 H -0.02600 0.23000 0.74100
H8 H -0.00500 0.35500 0.64200
H9 H 0.40000 0.70600 0.59700
H10 H 0.35600 0.63500 0.66200
H11 H 0.07400 0.22900 0.51600
H12 H 0.20800 0.12600 0.54500
H13 H 0.18700 0.91100 0.63500
H14 H 0.13900 0.74400 0.66800
H15 H 0.04100 0.83600 0.60700
H16 H 0.23600 0.11000 0.42400
H17 H 0.37200 0.12900 0.47800
H18 H 0.34900 0.26600 0.41500
H19 H 0.21400 0.70300 0.50200
H20 H 0.08400 0.45000 0.44600
C1 C 0.42720 0.82510 0.89390
C2 C 0.32420 0.71940 0.86190
C3 C 0.34380 0.60550 0.81380
C4 C 0.46500 0.60040 0.79670
C5 C 0.56930 0.71160 0.82670
C6 C 0.69750 0.71500 0.80690
C7 C 0.71130 0.64190 0.74820
C8 C 0.83110 0.64470 0.73040
C9 C 0.93990 0.72240 0.77030
C10 C 0.92830 0.79750 0.82840
C11 C 0.80810 0.79400 0.84670
C12 C 0.79770 0.87110 0.91090
C13 C 0.65990 0.93800 0.91250
C14 C 0.54900 0.82210 0.87660
C15 C 0.66210 1.12680 0.88830
C16 C 0.80430 1.18750 0.91640
O1 O 0.88100 1.02550 0.92630
C17 C 0.82880 0.74380 0.96770
C18 C 0.75950 0.82730 1.01710
O2 O 0.66010 0.94360 0.98040
C19 C 0.86200 1.30790 0.87340
O3 O 0.81840 1.27190 0.97650
C20 C 0.69280 0.69640 1.05330
O4 O 0.84310 0.93380 1.06320
H1 H 0.41300 0.90900 0.92900
H2 H 0.23400 0.72700 0.87600
H3 H 0.27000 0.53300 0.79000
H4 H 0.48100 0.51000 0.76400
H5 H 0.63300 0.58300 0.71800
H6 H 0.84000 0.59000 0.68700
H7 H 1.02600 0.73000 0.75900
H8 H 1.00500 0.85500 0.85800
H9 H 0.60000 1.20600 0.90300
H10 H 0.64400 1.13500 0.83800
H11 H 0.92600 0.72900 0.98400
H12 H 0.79200 0.62600 0.95500
H13 H 0.81300 1.41100 0.86500
H14 H 0.86100 1.24400 0.83200
H15 H 0.95900 1.33600 0.89300
H16 H 0.76400 0.61000 1.07600
H17 H 0.62800 0.62900 1.02200
H18 H 0.65100 0.76600 1.08500
H19 H 0.78600 1.20300 0.99800
H20 H 0.91600 0.95000 1.05400
C1 C 0.42720 0.67490 0.39390
C2 C 0.32420 0.78060 0.36190
C3 C 0.34380 0.89450 0.31380
C4 C 0.46500 0.89960 0.29670
C5 C 0.56930 0.78840 0.32670
C6 C 0.69750 0.78500 0.30690
C7 C 0.71130 0.85810 0.24820
C8 C 0.83110 0.85530 0.23040
C9 C 0.93990 0.77760 0.27030
C10 C 0.92830 0.70250 0.32840
C11 C 0.80810 0.70600 0.34670
C12 C 0.79770 0.62890 0.41090
C13 C 0.65990 0.56200 0.41250
C14 C 0.54900 0.67790 0.37660
C15 C 0.66210 0.37320 0.38830
C16 C 0.80430 0.31250 0.41640
O1 O 0.88100 0.47450 0.42630
C17 C 0.82880 0.75620 0.46770
C18 C 0.75950 0.67270 0.51710
O2 O 0.66010 0.55640 0.48040
C19 C 0.86200 0.19210 0.37340
O3 O 0.81840 0.22810 0.47650
C20 C 0.69280 0.80360 0.55330
O4 O 0.84310 0.56620 0.56320
H1 H 0.41300 0.59100 0.42900
H2 H 0.23400 0.77300 0.37600
H3 H 0.27000 0.96700 0.29000
H4 H 0.48100 0.99000 0.26400
H5 H 0.63300 0.91700 0.21800
H6 H 0.84000 0.91000 0.18700
H7 H 1.02600 0.77000 0.25900
H8 H 1.00500 0.64500 0.35800
H9 H 0.60000 0.29400 0.40300
H10 H 0.64400 0.36500 0.33800
H11 H 0.92600 0.77100 0.48400
H12 H 0.79200 0.87400 0.45500
H13 H 0.81300 0.08900 0.36500
H14 H 0.86100 0.25600 0.33200
H15 H 0.95900 0.16400 0.39300
H16 H 0.76400 0.89000 0.57600
H17 H 0.62800 0.87100 0.52200
H18 H 0.65100 0.73400 0.58500
H19 H 0.78600 0.29700 0.49800
H20 H 0.91600 0.55000 0.55400
C1 C 0.57280 0.17490 0.10610
C2 C 0.67580 0.28060 0.13810
C3 C 0.65620 0.39450 0.18620
C4 C 0.53500 0.39960 0.20330
C5 C 0.43070 0.28840 0.17330
C6 C 0.30250 0.28500 0.19310
C7 C 0.28870 0.35810 0.25180
C8 C 0.16890 0.35530 0.26960
C9 C 0.06010 0.27760 0.22970
C10 C 0.07170 0.20250 0.17160
C11 C 0.19190 0.20600 0.15330
C12 C 0.20230 0.12890 0.08910
C13 C 0.34010 0.06200 0.08750
C14 C 0.45100 0.17790 0.12340
C15 C 0.33790 -0.12680 0.11170
C16 C 0.19570 -0.18750 0.08360
O1 O 0.11900 -0.02550 0.07370
C17 C 0.17120 0.25620 0.03230
C18 C 0.24050 0.17270 -0.01710
O2 O 0.33990 0.05640 0.01960
C19 C 0.13800 -0.30790 0.12660
O3 O 0.18160 -0.27190 0.02350
C20 C 0.30720 0.30360 -0.05330
O4 O 0.15690 0.06620 -0.06320
H1 H 0.58700 0.09100 0.07100
H2 H 0.76600 0.27300 0.12400
H3 H 0.73000 0.46700 0.21000
H4 H 0.51900 0.49000 0.23600
H5 H 0.36700 0.41700 0.28200
H6 H 0.16000 0.41000 0.31300
H7 H -0.02600 0.27000 0.24100
H8 H -0.00500 0.14500 0.14200
H9 H 0.40000 -0.20600 0.09700
H10 H 0.35600 -0.13500 0.16200
H11 H 0.07400 0.27100 0.01600
H12 H 0.20800 0.37400 0.04500
H13 H 0.18700 -0.41100 0.13500
H14 H 0.13900 -0.24400 0.16800
H15 H 0.04100 -0.33600 0.10700
H16 H 0.23600 0.39000 -0.07600
H17 H 0.37200 0.37100 -0.02200
H18 H 0.34900 0.23400 -0.08500
H19 H 0.21400 -0.20300 0.00200
H20 H 0.08400 0.05000 -0.05400

#END
