
#######################################################################
#
#                 Cambridge Crystallographic Data Centre
#                                CCDC 
#
#######################################################################
#
# If this CIF has been generated from an entry in the Cambridge 
# Structural Database, then it will include bibliographic, chemical, 
# crystal, experimental, refinement or atomic coordinate data resulting 
# from the CCDC's data processing and validation procedures.
#
#######################################################################

data_ACPRET
_symmetry_cell_setting           orthorhombic
_symmetry_space_group_name_H-M   'P 21 21 21'
_symmetry_Int_Tables_number      19
_space_group_name_Hall           'P 2ac 2ab'
loop_
_symmetry_equiv_pos_site_id
_symmetry_equiv_pos_as_xyz
1 x,y,z
2 1/2+x,1/2-y,-z
3 -x,1/2+y,1/2-z
4 1/2-x,-y,1/2+z
_cell_length_a                   11.048(2)
_cell_length_b                   7.102(2)
_cell_length_c                   27.095(5)
_cell_angle_alpha                90
_cell_angle_beta                 90
_cell_angle_gamma                90
_cell_volume                     2125.95
loop_
_atom_site_label
_atom_site_type_symbol
_atom_site_fract_x
_atom_site_fract_y
_atom_site_fract_z
C1 C 0.35560 0.30210 0.86280
C2 C 0.47180 0.39840 0.87840
C3 C 0.42540 0.32020 0.97060
C4 C 0.40010 0.38680 1.02270
C5 C 0.51320 0.49500 1.03920
C6 C 0.53520 0.65770 1.00290
C7 C 0.63590 0.77440 1.02840
C8 C 0.61060 0.75030 1.08540
C9 C 0.50200 0.61290 1.08800
C10 C 0.61900 0.35810 1.04260
C11 C 0.57900 0.26460 0.87380
C12 C 0.34490 0.27620 0.80610
C13 C 0.50490 0.48690 1.13480
C14 C 0.38200 0.42900 1.15480
C15 C 0.41130 0.10840 1.17480
C16 C 0.43090 -0.02760 1.21620
C17 C 0.36100 0.45440 0.78050
C18 C 0.43950 0.59740 0.80230
C19 C 0.49490 0.56880 0.84540
C20 C 0.58960 0.70540 0.86230
C21 C 0.57340 0.76460 0.91600
C22 C 0.56100 0.59270 0.95060
C23 C 0.45510 0.47040 0.93230
H1 H 0.28830 0.37920 0.87510
H2 H 0.63570 0.51630 0.94780
H3 H 0.38740 0.53480 0.93560
H4 H 0.45750 0.75850 1.00380
H5 H 0.33660 0.47190 1.02200
H6 H 0.37660 0.27540 1.04310
H7 H 0.64550 0.91190 1.02560
H8 H 0.72150 0.72460 1.01950
H9 H 0.58950 0.87630 1.09670
H10 H 0.69710 0.65290 1.10910
H11 H 0.59720 0.23990 1.06440
H12 H 0.34750 0.17400 0.88080
H13 H 0.63750 0.28550 1.01090
H14 H 0.68630 0.41970 1.04870
H15 H 0.58210 0.16430 0.88540
H16 H 0.64620 0.27220 0.88010
H17 H 0.58850 0.22850 0.84030
H18 H 0.31530 0.38630 1.13090
H19 H 0.34750 0.55230 1.17280
H20 H 0.36520 -0.00480 1.24570
H21 H 0.39050 -0.14050 1.21860
H22 H 0.49410 -0.04910 1.23160
H23 H 0.26650 0.22530 0.79680
H24 H 0.37830 0.80350 1.10230
H25 H 0.42800 0.15690 0.78800
H26 H 0.46740 0.71280 0.78150
H27 H 0.58940 0.82330 0.83570
H28 H 0.65400 0.66020 0.86020
H29 H 0.49340 0.85530 0.91670
H30 H 0.64550 0.84690 0.92610
O1 O 0.42300 0.15110 0.96170
O2 O 0.38780 0.70580 1.08780
O3 O 0.59710 0.43640 1.15360
O4 O 0.39760 0.28460 1.19130
O5 O 0.40640 0.06920 1.13240
O6 O 0.31470 0.48030 0.73920
C1 C 0.85560 0.19790 0.13720
C2 C 0.97180 0.10160 0.12160
C3 C 0.92540 0.17980 0.02940
C4 C 0.90010 0.11320 -0.02270
C5 C 1.01320 0.00500 -0.03920
C6 C 1.03520 -0.15770 -0.00290
C7 C 1.13590 -0.27440 -0.02840
C8 C 1.11060 -0.25030 -0.08540
C9 C 1.00200 -0.11290 -0.08800
C10 C 1.11900 0.14190 -0.04260
C11 C 1.07900 0.23540 0.12620
C12 C 0.84490 0.22380 0.19390
C13 C 1.00490 0.01310 -0.13480
C14 C 0.88200 0.07100 -0.15480
C15 C 0.91130 0.39160 -0.17480
C16 C 0.93090 0.52760 -0.21620
C17 C 0.86100 0.04560 0.21950
C18 C 0.93950 -0.09740 0.19770
C19 C 0.99490 -0.06880 0.15460
C20 C 1.08960 -0.20540 0.13770
C21 C 1.07340 -0.26460 0.08400
C22 C 1.06100 -0.09270 0.04940
C23 C 0.95510 0.02960 0.06770
H1 H 0.78830 0.12080 0.12490
H2 H 1.13570 -0.01630 0.05220
H3 H 0.88740 -0.03480 0.06440
H4 H 0.95750 -0.25850 -0.00380
H5 H 0.83660 0.02810 -0.02200
H6 H 0.87660 0.22460 -0.04310
H7 H 1.14550 -0.41190 -0.02560
H8 H 1.22150 -0.22460 -0.01950
H9 H 1.08950 -0.37630 -0.09670
H10 H 1.19710 -0.15290 -0.10910
H11 H 1.09720 0.26010 -0.06440
H12 H 0.84750 0.32600 0.11920
H13 H 1.13750 0.21450 -0.01090
H14 H 1.18630 0.08030 -0.04870
H15 H 1.08210 0.33570 0.11460
H16 H 1.14620 0.22780 0.11990
H17 H 1.08850 0.27150 0.15970
H18 H 0.81530 0.11370 -0.13090
H19 H 0.84750 -0.05230 -0.17280
H20 H 0.86520 0.50480 -0.24570
H21 H 0.89050 0.64050 -0.21860
H22 H 0.99410 0.54910 -0.23160
H23 H 0.76650 0.27470 0.20320
H24 H 0.87830 -0.30350 -0.10230
H25 H 0.92800 0.34310 0.21200
H26 H 0.96740 -0.21280 0.21850
H27 H 1.08940 -0.32330 0.16430
H28 H 1.15400 -0.16020 0.13980
H29 H 0.99340 -0.35530 0.08330
H30 H 1.14550 -0.34690 0.07390
O1 O 0.92300 0.34890 0.03830
O2 O 0.88780 -0.20580 -0.08780
O3 O 1.09710 0.06360 -0.15360
O4 O 0.89760 0.21540 -0.19130
O5 O 0.90640 0.43080 -0.13240
O6 O 0.81470 0.01970 0.26080
C1 C 0.64440 0.80210 0.63720
C2 C 0.52820 0.89840 0.62160
C3 C 0.57460 0.82020 0.52940
C4 C 0.59990 0.88680 0.47730
C5 C 0.48680 0.99500 0.46080
C6 C 0.46480 1.15770 0.49710
C7 C 0.36410 1.27440 0.47160
C8 C 0.38940 1.25030 0.41460
C9 C 0.49800 1.11290 0.41200
C10 C 0.38100 0.85810 0.45740
C11 C 0.42100 0.76460 0.62620
C12 C 0.65510 0.77620 0.69390
C13 C 0.49510 0.98690 0.36520
C14 C 0.61800 0.92900 0.34520
C15 C 0.58870 0.60840 0.32520
C16 C 0.56910 0.47240 0.28380
C17 C 0.63900 0.95440 0.71950
C18 C 0.56050 1.09740 0.69770
C19 C 0.50510 1.06880 0.65460
C20 C 0.41040 1.20540 0.63770
C21 C 0.42660 1.26460 0.58400
C22 C 0.43900 1.09270 0.54940
C23 C 0.54490 0.97040 0.56770
H1 H 0.71170 0.87920 0.62490
H2 H 0.36430 1.01630 0.55220
H3 H 0.61260 1.03480 0.56440
H4 H 0.54250 1.25850 0.49620
H5 H 0.66340 0.97190 0.47800
H6 H 0.62340 0.77540 0.45690
H7 H 0.35450 1.41190 0.47440
H8 H 0.27850 1.22460 0.48050
H9 H 0.41050 1.37630 0.40330
H10 H 0.30290 1.15290 0.39090
H11 H 0.40280 0.73990 0.43560
H12 H 0.65250 0.67400 0.61920
H13 H 0.36250 0.78550 0.48910
H14 H 0.31370 0.91970 0.45130
H15 H 0.41790 0.66430 0.61460
H16 H 0.35380 0.77220 0.61990
H17 H 0.41150 0.72850 0.65970
H18 H 0.68470 0.88630 0.36910
H19 H 0.65250 1.05230 0.32720
H20 H 0.63480 0.49520 0.25430
H21 H 0.60950 0.35950 0.28140
H22 H 0.50590 0.45090 0.26840
H23 H 0.73350 0.72530 0.70320
H24 H 0.62170 1.30350 0.39770
H25 H 0.57200 0.65690 0.71200
H26 H 0.53260 1.21280 0.71850
H27 H 0.41060 1.32330 0.66430
H28 H 0.34600 1.16020 0.63980
H29 H 0.50660 1.35530 0.58330
H30 H 0.35450 1.34690 0.57390
O1 O 0.57700 0.65110 0.53830
O2 O 0.61220 1.20580 0.41220
O3 O 0.40290 0.93640 0.34640
O4 O 0.60240 0.78460 0.30870
O5 O 0.59360 0.56920 0.36760
O6 O 0.68530 0.98030 0.76080
C1 C 0.14440 0.69790 0.36280
C2 C 0.02820 0.60160 0.37840
C3 C 0.07460 0.67980 0.47060
C4 C 0.09990 0.61320 0.52270
C5 C -0.01320 0.50500 0.53920
C6 C -0.03520 0.34230 0.50290
C7 C -0.13590 0.22560 0.52840
C8 C -0.11060 0.24970 0.58540
C9 C -0.00200 0.38710 0.58800
C10 C -0.11900 0.64190 0.54260
C11 C -0.07900 0.73540 0.37380
C12 C 0.15510 0.72380 0.30610
C13 C -0.00490 0.51310 0.63480
C14 C 0.11800 0.57100 0.65480
C15 C 0.08870 0.89160 0.67480
C16 C 0.06910 1.02760 0.71620
C17 C 0.13900 0.54560 0.28050
C18 C 0.06050 0.40260 0.30230
C19 C 0.00510 0.43120 0.34540
C20 C -0.08960 0.29460 0.36230
C21 C -0.07340 0.23540 0.41600
C22 C -0.06100 0.40730 0.45060
C23 C 0.04490 0.52960 0.43230
H1 H 0.21170 0.62080 0.37510
H2 H -0.13570 0.48370 0.44780
H3 H 0.11260 0.46520 0.43560
H4 H 0.04250 0.24150 0.50380
H5 H 0.16340 0.52810 0.52200
H6 H 0.12340 0.72460 0.54310
H7 H -0.14550 0.08810 0.52560
H8 H -0.22150 0.27540 0.51950
H9 H -0.08950 0.12370 0.59670
H10 H -0.19710 0.34710 0.60910
H11 H -0.09720 0.76010 0.56440
H12 H 0.15250 0.82600 0.38080
H13 H -0.13750 0.71450 0.51090
H14 H -0.18630 0.58030 0.54870
H15 H -0.08210 0.83570 0.38540
H16 H -0.14620 0.72780 0.38010
H17 H -0.08850 0.77150 0.34030
H18 H 0.18470 0.61370 0.63090
H19 H 0.15250 0.44770 0.67280
H20 H 0.13480 1.00480 0.74570
H21 H 0.10950 1.14050 0.71860
H22 H 0.00590 1.04910 0.73160
H23 H 0.23350 0.77470 0.29680
H24 H 0.12170 0.19650 0.60230
H25 H 0.07200 0.84310 0.28800
H26 H 0.03260 0.28720 0.28150
H27 H -0.08940 0.17670 0.33570
H28 H -0.15400 0.33980 0.36020
H29 H 0.00660 0.14470 0.41670
H30 H -0.14550 0.15310 0.42610
O1 O 0.07700 0.84890 0.46170
O2 O 0.11220 0.29420 0.58780
O3 O -0.09710 0.56360 0.65360
O4 O 0.10240 0.71540 0.69130
O5 O 0.09360 0.93080 0.63240
O6 O 0.18530 0.51970 0.23920

#END
