./ACPRET_from_POSCAR.cif_generated_by_CrystalShift
_symmetry_cell_setting triclinic
_symmetry_space_group_name_H-M 'P 1'
loop_
_symmetry_equiv_pos_site_id
_symmetry_equiv_pos_as_xyz
1 x,y,z
_cell_length_a 11.048000
_cell_length_b 7.102000
_cell_length_c 27.095000
_cell_angle_alpha 90.000000
_cell_angle_beta 90.000000
_cell_angle_gamma 90.000000
_cell_volume 2125.952167
loop_
_atom_site_label
_atom_site_type_symbol
_atom_site_fract_x
_atom_site_fract_y
_atom_site_fract_z
H1 H 0.928000 0.343100 0.212000
H2 H -0.097200 0.760100 0.564400
H3 H -0.197100 0.347100 0.609100
H4 H -0.089500 0.123700 0.596700
H5 H -0.221500 0.275400 0.519500
H6 H -0.145500 0.088100 0.525600
H7 H 0.123400 0.724600 0.543100
H8 H 0.163400 0.528100 0.522000
H9 H 0.042500 0.241500 0.503800
H10 H 0.112600 0.465200 0.435600
H11 H -0.135700 0.483700 0.447800
H12 H 0.211700 0.620800 0.375100
H13 H -0.137500 0.714500 0.510900
H14 H -0.186300 0.580300 0.548700
H15 H -0.082100 0.835700 0.385400
H16 H -0.146200 0.727800 0.380100
H17 H -0.088500 0.771500 0.340300
H18 H 0.184700 0.613700 0.630900
H19 H 0.354500 1.346900 0.573900
H20 H 0.506600 1.355300 0.583300
H21 H 0.346000 1.160200 0.639800
H22 H 0.410600 1.323300 0.664300
H23 H 0.532600 1.212800 0.718500
H24 H 0.288300 0.379200 0.875100
H25 H 0.635700 0.516300 0.947800
H26 H 0.387400 0.534800 0.935600
H27 H 0.457500 0.758500 1.003800
H28 H 0.336600 0.471900 1.022000
H29 H 0.376600 0.275400 1.043100
H30 H 0.645500 0.911900 1.025600
H31 H 0.721500 0.724600 1.019500
H32 H 0.589500 0.876300 1.096700
H33 H 0.697100 0.652900 1.109100
H34 H 0.597200 0.239900 1.064400
H35 H 0.347500 0.174000 0.880800
H36 H 0.637500 0.285500 1.010900
H37 H 0.686300 0.419700 1.048700
H38 H 0.582100 0.164300 0.885400
H39 H 0.646200 0.272200 0.880100
H40 H 0.588500 0.228500 0.840300
H41 H 0.315300 0.386300 1.130900
H42 H 0.347500 0.552300 1.172800
H43 H 0.365200 -0.004800 1.245700
H44 H 0.390500 -0.140500 1.218600
H45 H 0.494100 -0.049100 1.231600
H46 H 0.266500 0.225300 0.796800
H47 H 0.378300 0.803500 1.102300
H48 H 0.428000 0.156900 0.788000
H49 H 0.467400 0.712800 0.781500
H50 H 0.589400 0.823300 0.835700
H51 H 0.654000 0.660200 0.860200
H52 H 0.493400 0.855300 0.916700
H53 H 0.645500 0.846900 0.926100
H54 H -0.145500 0.153100 0.426100
H55 H 0.006600 0.144700 0.416700
H56 H -0.154000 0.339800 0.360200
H57 H -0.089400 0.176700 0.335700
H58 H 0.032600 0.287200 0.281500
H59 H 0.072000 0.843100 0.288000
H60 H 0.572000 0.656900 0.712000
H61 H 0.621700 1.303500 0.397700
H62 H 0.733500 0.725300 0.703200
H63 H 0.505900 0.450900 0.268400
H64 H 0.609500 0.359500 0.281400
H65 H 0.634800 0.495200 0.254300
H66 H 0.652500 1.052300 0.327200
H67 H 0.684700 0.886300 0.369100
H68 H 0.411500 0.728500 0.659700
H69 H 0.353800 0.772200 0.619900
H70 H 0.417900 0.664300 0.614600
H71 H 0.313700 0.919700 0.451300
H72 H 0.362500 0.785500 0.489100
H73 H 0.652500 0.674000 0.619200
H74 H 0.402800 0.739900 0.435600
H75 H 0.302900 1.152900 0.390900
H76 H 0.410500 1.376300 0.403300
H77 H 0.278500 1.224600 0.480500
H78 H 0.354500 1.411900 0.474400
H79 H 0.623400 0.775400 0.456900
H80 H 0.663400 0.971900 0.478000
H81 H 0.542500 1.258500 0.496200
H82 H 0.612600 1.034800 0.564400
H83 H 0.788300 0.120800 0.124900
H84 H 1.135700 -0.016300 0.052200
H85 H 0.887400 -0.034800 0.064400
H86 H 0.957500 -0.258500 -0.003800
H87 H 0.836600 0.028100 -0.022000
H88 H 0.876600 0.224600 -0.043100
H89 H 1.145500 -0.411900 -0.025600
H90 H 1.221500 -0.224600 -0.019500
H91 H 1.089500 -0.376300 -0.096700
H92 H 1.197100 -0.152900 -0.109100
H93 H 1.097200 0.260100 -0.064400
H94 H 0.847500 0.326000 0.119200
H95 H 1.137500 0.214500 -0.010900
H96 H 1.186300 0.080300 -0.048700
H97 H 1.082100 0.335700 0.114600
H98 H 1.146200 0.227800 0.119900
H99 H 1.088500 0.271500 0.159700
H100 H 0.815300 0.113700 -0.130900
H101 H 0.847500 -0.052300 -0.172800
H102 H 0.865200 0.504800 -0.245700
H103 H 0.890500 0.640500 -0.218600
H104 H 0.994100 0.549100 -0.231600
H105 H 0.766500 0.274700 0.203200
H106 H 0.878300 -0.303500 -0.102300
H107 H 0.152500 0.826000 0.380800
H108 H 0.967400 -0.212800 0.218500
H109 H 1.089400 -0.323300 0.164300
H110 H 1.154000 -0.160200 0.139800
H111 H 0.993400 -0.355300 0.083300
H112 H 1.145500 -0.346900 0.073900
H113 H 0.121700 0.196500 0.602300
H114 H 0.233500 0.774700 0.296800
H115 H 0.005900 1.049100 0.731600
H116 H 0.109500 1.140500 0.718600
H117 H 0.134800 1.004800 0.745700
H118 H 0.152500 0.447700 0.672800
H119 H 0.364300 1.016300 0.552200
H120 H 0.711700 0.879200 0.624900
C121 C 0.574600 0.820200 0.529400
C122 C 0.599900 0.886800 0.477300
C123 C 0.486800 0.995000 0.460800
C124 C 0.464800 1.157700 0.497100
C125 C 0.364100 1.274400 0.471600
C126 C 0.389400 1.250300 0.414600
C127 C 0.498000 1.112900 0.412000
C128 C 0.381000 0.858100 0.457400
C129 C 0.421000 0.764600 0.626200
C130 C 0.655100 0.776200 0.693900
C131 C 0.495100 0.986900 0.365200
C132 C 0.618000 0.929000 0.345200
C133 C 0.588700 0.608400 0.325200
C134 C 0.569100 0.472400 0.283800
C135 C 0.639000 0.954400 0.719500
C136 C 0.560500 1.097400 0.697700
C137 C 0.505100 1.068800 0.654600
C138 C 0.410400 1.205400 0.637700
C139 C 0.426600 1.264600 0.584000
C140 C 0.439000 1.092700 0.549400
C141 C 0.544900 0.970400 0.567700
C142 C 0.528200 0.898400 0.621600
C143 C 0.644400 0.802100 0.637200
C144 C 0.955100 0.029600 0.067700
C145 C 1.061000 -0.092700 0.049400
C146 C 1.073400 -0.264600 0.084000
C147 C 1.089600 -0.205400 0.137700
C148 C 0.994900 -0.068800 0.154600
C149 C 0.939500 -0.097400 0.197700
C150 C 0.861000 0.045600 0.219500
C151 C 0.930900 0.527600 -0.216200
C152 C 0.911300 0.391600 -0.174800
C153 C 0.882000 0.071000 -0.154800
C154 C 1.004900 0.013100 -0.134800
C155 C 0.844900 0.223800 0.193900
C156 C 1.079000 0.235400 0.126200
C157 C 1.119000 0.141900 -0.042600
C158 C 1.002000 -0.112900 -0.088000
C159 C 1.110600 -0.250300 -0.085400
C160 C 1.135900 -0.274400 -0.028400
C161 C 1.035200 -0.157700 -0.002900
C162 C 1.013200 0.005000 -0.039200
C163 C 0.900100 0.113200 -0.022700
C164 C 0.925400 0.179800 0.029400
C165 C 0.971800 0.101600 0.121600
C166 C 0.855600 0.197900 0.137200
C167 C 0.455100 0.470400 0.932300
C168 C 0.561000 0.592700 0.950600
C169 C 0.573400 0.764600 0.916000
C170 C 0.589600 0.705400 0.862300
C171 C 0.494900 0.568800 0.845400
C172 C 0.439500 0.597400 0.802300
C173 C 0.361000 0.454400 0.780500
C174 C 0.430900 -0.027600 1.216200
C175 C 0.411300 0.108400 1.174800
C176 C 0.382000 0.429000 1.154800
C177 C 0.504900 0.486900 1.134800
C178 C 0.144400 0.697900 0.362800
C179 C 0.028200 0.601600 0.378400
C180 C 0.074600 0.679800 0.470600
C181 C 0.099900 0.613200 0.522700
C182 C -0.013200 0.505000 0.539200
C183 C -0.035200 0.342300 0.502900
C184 C -0.135900 0.225600 0.528400
C185 C -0.110600 0.249700 0.585400
C186 C -0.002000 0.387100 0.588000
C187 C -0.119000 0.641900 0.542600
C188 C -0.079000 0.735400 0.373800
C189 C 0.155100 0.723800 0.306100
C190 C -0.004900 0.513100 0.634800
C191 C 0.118000 0.571000 0.654800
C192 C 0.088700 0.891600 0.674800
C193 C 0.069100 1.027600 0.716200
C194 C 0.139000 0.545600 0.280500
C195 C 0.060500 0.402600 0.302300
C196 C 0.005100 0.431200 0.345400
C197 C -0.089600 0.294600 0.362300
C198 C -0.073400 0.235400 0.416000
C199 C -0.061000 0.407300 0.450600
C200 C 0.044900 0.529600 0.432300
C201 C 0.344900 0.276200 0.806100
C202 C 0.579000 0.264600 0.873800
C203 C 0.619000 0.358100 1.042600
C204 C 0.502000 0.612900 1.088000
C205 C 0.610600 0.750300 1.085400
C206 C 0.635900 0.774400 1.028400
C207 C 0.535200 0.657700 1.002900
C208 C 0.513200 0.495000 1.039200
C209 C 0.400100 0.386800 1.022700
C210 C 0.425400 0.320200 0.970600
C211 C 0.471800 0.398400 0.878400
C212 C 0.355600 0.302100 0.862800
O213 O 0.685300 0.980300 0.760800
O214 O 0.593600 0.569200 0.367600
O215 O 0.602400 0.784600 0.308700
O216 O 0.402900 0.936400 0.346400
O217 O 0.612200 1.205800 0.412200
O218 O 0.577000 0.651100 0.538300
O219 O 0.814700 0.019700 0.260800
O220 O 0.906400 0.430800 -0.132400
O221 O 0.897600 0.215400 -0.191300
O222 O 1.097100 0.063600 -0.153600
O223 O 0.887800 -0.205800 -0.087800
O224 O 0.923000 0.348900 0.038300
O225 O 0.314700 0.480300 0.739200
O226 O 0.406400 0.069200 1.132400
O227 O 0.397600 0.284600 1.191300
O228 O 0.597100 0.436400 1.153600
O229 O 0.387800 0.705800 1.087800
O230 O 0.423000 0.151100 0.961700
O231 O 0.077000 0.848900 0.461700
O232 O 0.112200 0.294200 0.587800
O233 O -0.097100 0.563600 0.653600
O234 O 0.102400 0.715400 0.691300
O235 O 0.093600 0.930800 0.632400
O236 O 0.185300 0.519700 0.239200

#END
