./ACRDIN06_from_POSCAR.cif_generated_by_CrystalShift
_symmetry_cell_setting triclinic
_symmetry_space_group_name_H-M 'P 1'
loop_
_symmetry_equiv_pos_site_id
_symmetry_equiv_pos_as_xyz
1 x,y,z
_cell_length_a 6.056900
_cell_length_b 22.813000
_cell_length_c 13.204000
_cell_angle_alpha 90.000000
_cell_angle_beta 95.938000
_cell_angle_gamma 90.000000
_cell_volume 1814.687323
loop_
_atom_site_label
_atom_site_type_symbol
_atom_site_fract_x
_atom_site_fract_y
_atom_site_fract_z
H1 H 1.211500 0.180800 0.828700
H2 H 0.688100 0.582900 0.287400
H3 H 0.836100 0.395300 0.207800
H4 H 0.541800 0.436100 0.525800
H5 H 0.754500 0.452700 0.065800
H6 H 0.631800 0.349600 0.609600
H7 H 0.408100 0.444600 -0.032200
H8 H 0.960900 0.298600 0.583300
H9 H 0.145900 0.379500 0.011900
H10 H 1.200300 0.335500 0.475600
H11 H -0.090500 0.230400 0.226800
H12 H 1.244700 0.578500 0.142600
H13 H -0.044400 0.177400 0.375400
H14 H 0.211200 0.914300 0.148700
H15 H 0.283000 0.185500 0.487400
H16 H 0.142000 0.992800 0.275900
H17 H 0.566700 0.244900 0.448300
H18 H 0.255300 1.078500 0.357400
H19 H 0.711500 0.319200 0.328700
H20 H 0.589300 1.124000 0.323000
H21 H 0.811900 1.082900 0.212600
H22 H 0.958200 0.936100 -0.025800
H23 H 0.868200 0.849600 -0.109600
H24 H 0.539100 0.798600 -0.083300
H25 H 0.299700 0.835500 0.024400
H26 H -0.336100 0.895300 0.292200
H27 H -0.288800 0.585700 0.648700
H28 H -0.254500 0.952700 0.434200
H29 H -0.358000 0.507200 0.775900
H30 H 0.091900 0.944600 0.532200
H31 H -0.244700 0.421500 0.857400
H32 H 0.354100 0.879500 0.488100
H33 H 0.089300 0.376000 0.823000
H34 H 0.590500 0.730400 0.273200
H35 H 0.311900 0.417100 0.712600
H36 H 0.544400 0.677400 0.124600
H37 H 0.458200 0.563900 0.474200
H38 H 0.217000 0.685500 0.012600
H39 H 0.368200 0.650400 0.390400
H40 H -0.066700 0.744900 0.051700
H41 H 0.039100 0.701400 0.416700
H42 H -0.211500 0.819200 0.171300
H43 H -0.200300 0.664500 0.524400
H44 H 1.358000 0.492800 0.224100
H45 H 0.788800 0.085700 0.851300
H46 H 0.858000 0.007200 0.724100
H47 H 0.744700 -0.078500 0.642600
H48 H 0.410700 -0.124000 0.677000
H49 H 0.163900 0.604700 0.792200
H50 H 0.188100 -0.082900 0.787400
H51 H 0.245500 0.547300 0.934200
H52 H 0.041800 0.063900 1.025800
H53 H 0.591900 0.555400 1.032200
H54 H 0.131800 0.150400 1.109600
H55 H 0.854100 0.620500 0.988100
H56 H 0.460900 0.201400 1.083300
H57 H 1.090500 0.769600 0.773200
H58 H 0.700300 0.164500 0.975600
H59 H 1.044400 0.822600 0.624600
H60 H 0.910700 0.624000 0.177000
H61 H 0.717000 0.814500 0.512600
H62 H 1.066700 0.255100 0.948300
H63 H 0.433300 0.755100 0.551700
H64 H 0.783000 0.314500 0.987400
H65 H 0.288500 0.680800 0.671300
H66 H 0.455600 0.322600 0.875400
H67 H 0.409500 0.269600 0.726800
H68 H 0.645900 0.120500 0.511900
H69 H 0.908100 0.055400 0.467800
H70 H 1.288800 0.414300 0.351300
H71 H 1.254500 0.047300 0.565800
H72 H 1.336100 0.104700 0.707800
C73 C 1.147700 0.074480 0.585130
C74 C 1.195600 0.108320 0.669000
C75 C 0.939800 0.079410 0.526240
C76 C 0.587000 0.722290 0.687440
C77 C 0.785000 0.118050 0.552140
C78 C 0.789800 0.726130 0.754420
C79 C 0.542200 0.265400 0.771250
C80 C 0.671800 0.655060 0.861070
C81 C 0.570300 0.297020 0.858890
C82 C 0.462900 0.649320 0.800370
C83 C 0.767600 0.292470 0.926060
C84 C 0.425400 0.683780 0.713170
C85 C 0.933900 0.257020 0.903370
C86 C 0.566100 0.757020 0.596630
C87 C 1.074600 0.183780 0.786830
C88 C 0.732400 0.792470 0.573940
C89 C 1.037100 0.149320 0.699630
C90 C 0.828200 0.155060 0.638930
C91 C 0.710200 0.226130 0.745580
C92 C 0.913000 0.222290 0.812560
C93 C 1.153100 0.433040 0.361840
C94 C 0.566900 0.144020 0.984210
C95 C 0.929700 0.797020 0.641110
C96 C 0.426700 0.165640 1.048370
C97 C 0.957800 0.765400 0.728750
C98 C 0.228100 0.134980 1.063780
C99 C 0.715000 0.618050 0.947860
C100 C 0.174300 0.083980 1.014010
C101 C 0.560200 0.579410 0.973760
C102 C 0.323700 -0.064330 0.776100
C103 C 0.352300 0.574480 0.914870
C104 C 0.454600 -0.088290 0.710300
C105 C 0.304400 0.608320 0.831000
C106 C 0.656200 -0.061230 0.690000
C107 C 1.017500 0.408830 0.429480
C108 C 0.722900 -0.010720 0.738200
C109 C 0.087000 0.777710 0.187440
C110 C 0.653100 0.066960 0.861840
C111 C 0.289800 0.773870 0.254420
C112 C 0.517500 0.091170 0.929480
C113 C 0.315200 0.060370 0.944300
C114 C 0.387000 -0.011430 0.828700
C115 C 0.593200 0.015800 0.809610
C116 C 0.171800 0.844940 0.361070
C117 C -0.066900 0.644020 0.515790
C118 C -0.037100 0.850680 0.300370
C119 C 0.073300 0.665640 0.451630
C120 C -0.074600 0.816220 0.213170
C121 C 0.271900 0.634980 0.436220
C122 C 0.066100 0.742980 0.096630
C123 C 0.325700 0.583980 0.485990
C124 C 0.232400 0.707530 0.073940
C125 C 0.176300 0.435670 0.723900
C126 C 0.429700 0.702980 0.141110
C127 C 0.045400 0.411710 0.789700
C128 C 0.457800 0.734600 0.228750
C129 C -0.156200 0.438770 0.810000
C130 C 0.215000 0.881950 0.447860
C131 C -0.222900 0.489280 0.761800
C132 C 0.060200 0.920590 0.473760
C133 C -0.153100 0.566960 0.638160
C134 C -0.147700 0.925520 0.414870
C135 C -0.017500 0.591170 0.570520
C136 C 0.184800 0.560370 0.555700
C137 C 0.113000 0.488570 0.671300
C138 C -0.093200 0.515800 0.690390
C139 C 1.222900 0.510720 0.238200
C140 C 0.433100 0.855980 0.015790
C141 C -0.195600 0.891680 0.331000
C142 C 0.573300 0.834360 -0.048370
C143 C 0.815200 0.439630 0.444300
C144 C 0.771900 0.865020 -0.063780
C145 C 0.413000 0.277710 0.312560
C146 C 0.825700 0.916020 -0.014010
C147 C 0.210200 0.273870 0.245580
C148 C 0.676300 1.064330 0.223900
C149 C 0.328200 0.344940 0.138930
C150 C 0.545400 1.088290 0.289700
C151 C 0.537100 0.350680 0.199630
C152 C 0.343800 1.061230 0.310000
C153 C 0.574600 0.316220 0.286830
C154 C 0.277100 1.010720 0.261800
C155 C 0.433900 0.242980 0.403370
C156 C 0.346900 0.933040 0.138160
C157 C 0.267600 0.207530 0.426060
C158 C 0.482500 0.908830 0.070520
C159 C 0.684800 0.939630 0.055700
C160 C 0.613000 1.011430 0.171300
C161 C 0.406800 0.984200 0.190390
C162 C 0.070300 0.202980 0.358890
C163 C 1.066900 0.355980 0.484210
C164 C 0.042200 0.234600 0.271250
C165 C 0.926700 0.334360 0.548370
C166 C 0.285000 0.381950 0.052140
C167 C 0.728100 0.365020 0.563780
C168 C 0.439800 0.420590 0.026240
C169 C 0.674300 0.416020 0.514010
C170 C 0.647700 0.425520 0.085130
C171 C 0.823700 0.564330 0.276100
C172 C 0.695600 0.391680 0.169000
C173 C 0.954600 0.588290 0.210300
C174 C 1.093200 0.484200 0.309610
C175 C 1.156200 0.561230 0.190000
C176 C 0.887000 0.511430 0.328700
N177 N 0.247800 0.510390 0.605260
N178 N 0.252200 0.010390 0.894740
N179 N 0.669600 0.193190 0.660810
N180 N 0.830400 0.693190 0.839190
N181 N 0.330400 0.806810 0.339190
N182 N 0.747800 0.989610 0.105260
N183 N 0.752200 0.489610 0.394740
N184 N 0.169600 0.306810 0.160810

#END
