
#######################################################################
#
#                 Cambridge Crystallographic Data Centre
#                                CCDC 
#
#######################################################################
#
# If this CIF has been generated from an entry in the Cambridge 
# Structural Database, then it will include bibliographic, chemical, 
# crystal, experimental, refinement or atomic coordinate data resulting 
# from the CCDC's data processing and validation procedures.
#
#######################################################################

data_ABOSOB
_symmetry_cell_setting           tetragonal
_symmetry_space_group_name_H-M   'P 41'
_symmetry_Int_Tables_number      76
_space_group_name_Hall           'P 4w'
loop_
_symmetry_equiv_pos_site_id
_symmetry_equiv_pos_as_xyz
1 x,y,z
2 -x,-y,1/2+z
3 -y,x,1/4+z
4 y,-x,3/4+z
_cell_length_a                   9.792(4)
_cell_length_b                   9.792(4)
_cell_length_c                   15.788(6)
_cell_angle_alpha                90
_cell_angle_beta                 90
_cell_angle_gamma                90
_cell_volume                     1513.8
loop_
_atom_site_label
_atom_site_type_symbol
_atom_site_fract_x
_atom_site_fract_y
_atom_site_fract_z
N1 N 0.4783(2) 0.4319(2) 0.07611(14)
N2 N 0.5932(2) 0.4976(2) 0.10722(15)
O1 O 0.1900(2) 0.3501(3) 0.24720(14)
O2 O 0.70877(19) 0.4584(2) -0.01431(12)
O3 O 0.9902(2) 0.6670(4) 0.29982(15)
O4 O 1.1765(2) 0.7067(3) 0.21449(18)
C1 C 0.2534(3) 0.3518(3) 0.10440(18)
C2 C 0.1562(3) 0.3182(3) 0.16575(19)
C3 C 0.0353(4) 0.2557(4) 0.1429(3)
H1 H -0.0284 0.2326 0.1842
C4 C 0.0093(4) 0.2276(4) 0.0592(3)
H2 H -0.0725 0.1860 0.0441
C5 C 0.1021(3) 0.2599(4) -0.0017(2)
H3 H 0.0836 0.2406 -0.0582
C6 C 0.2237(3) 0.3213(3) 0.0205(2)
H4 H 0.2869 0.3428 -0.0215
C7 C 0.0945(5) 0.3199(7) 0.3125(3)
H5 H 0.0111 0.3687 0.3023
H6 H 0.1316 0.3470 0.3662
H7 H 0.0762 0.2236 0.3131
C8 C 0.3799(3) 0.4196(3) 0.12877(19)
H8 H 0.3892 0.4544 0.1833
C9 C 0.7067(3) 0.5016(3) 0.05889(18)
C10 C 0.8312(3) 0.5599(3) 0.09990(18)
C11 C 0.9433(3) 0.5852(3) 0.04940(19)
H9 H 0.9373 0.5667 -0.0083
C12 C 1.0651(3) 0.6373(3) 0.0814(2)
H10 H 1.1398 0.6550 0.0468
C13 C 1.0684(3) 0.6607(4) 0.1664(2)
C14 C 0.9578(3) 0.6360(3) 0.21717(19)
C15 C 0.8377(3) 0.5853(3) 0.18758(19)
H11 H 0.7640 0.5683 0.2232
C16 C 1.1292(4) 0.7083(7) 0.3000(3)
H12 H 1.1831 0.6463 0.3343
H13 H 1.1377 0.7995 0.3235
H14 H 0.590(3) 0.537(3) 0.1585(10)
N1 N 0.5217(2) 0.5681(2) 0.57611(14)
N2 N 0.4068(2) 0.5024(2) 0.60722(15)
O1 O 0.8100(2) 0.6499(3) 0.74720(14)
O2 O 0.29123(19) 0.5416(2) 0.48569(12)
O3 O 0.0098(2) 0.3330(4) 0.79982(15)
O4 O -0.1765(2) 0.2933(3) 0.71449(18)
C1 C 0.7466(3) 0.6482(3) 0.60440(18)
C2 C 0.8438(3) 0.6818(3) 0.66575(19)
C3 C 0.9647(4) 0.7443(4) 0.6429(3)
H1 H 1.0284 0.7674 0.6842
C4 C 0.9907(4) 0.7724(4) 0.5592(3)
H2 H 1.0725 0.8140 0.5441
C5 C 0.8979(3) 0.7401(4) 0.4983(2)
H3 H 0.9164 0.7594 0.4418
C6 C 0.7763(3) 0.6787(3) 0.5205(2)
H4 H 0.7131 0.6572 0.4785
C7 C 0.9055(5) 0.6801(7) 0.8125(3)
H5 H 0.9889 0.6313 0.8023
H6 H 0.8684 0.6530 0.8662
H7 H 0.9238 0.7764 0.8131
C8 C 0.6201(3) 0.5804(3) 0.62877(19)
H8 H 0.6108 0.5456 0.6833
C9 C 0.2933(3) 0.4984(3) 0.55889(18)
C10 C 0.1688(3) 0.4401(3) 0.59990(18)
C11 C 0.0567(3) 0.4148(3) 0.54940(19)
H9 H 0.0627 0.4333 0.4917
C12 C -0.0651(3) 0.3627(3) 0.5814(2)
H10 H -0.1398 0.3450 0.5468
C13 C -0.0684(3) 0.3393(4) 0.6664(2)
C14 C 0.0422(3) 0.3640(3) 0.71717(19)
C15 C 0.1623(3) 0.4147(3) 0.68758(19)
H11 H 0.2360 0.4317 0.7232
C16 C -0.1292(4) 0.2917(7) 0.8000(3)
H12 H -0.1831 0.3537 0.8343
H13 H -0.1377 0.2005 0.8235
H14 H 0.410(3) 0.463(3) 0.6585(10)
N1 N 0.5681(2) 0.4783(2) 0.32611(14)
N2 N 0.5024(2) 0.5932(2) 0.35722(15)
O1 O 0.6499(3) 0.1900(2) 0.49720(14)
O2 O 0.5416(2) 0.70877(19) 0.23569(12)
O3 O 0.3330(4) 0.9902(2) 0.54982(15)
O4 O 0.2933(3) 1.1765(2) 0.46449(18)
C1 C 0.6482(3) 0.2534(3) 0.35440(18)
C2 C 0.6818(3) 0.1562(3) 0.41575(19)
C3 C 0.7443(4) 0.0353(4) 0.3929(3)
H1 H 0.7674 -0.0284 0.4342
C4 C 0.7724(4) 0.0093(4) 0.3092(3)
H2 H 0.8140 -0.0725 0.2941
C5 C 0.7401(4) 0.1021(3) 0.2483(2)
H3 H 0.7594 0.0836 0.1918
C6 C 0.6787(3) 0.2237(3) 0.2705(2)
H4 H 0.6572 0.2869 0.2285
C7 C 0.6801(7) 0.0945(5) 0.5625(3)
H5 H 0.6313 0.0111 0.5523
H6 H 0.6530 0.1316 0.6162
H7 H 0.7764 0.0762 0.5631
C8 C 0.5804(3) 0.3799(3) 0.37877(19)
H8 H 0.5456 0.3892 0.4333
C9 C 0.4984(3) 0.7067(3) 0.30889(18)
C10 C 0.4401(3) 0.8312(3) 0.34990(18)
C11 C 0.4148(3) 0.9433(3) 0.29940(19)
H9 H 0.4333 0.9373 0.2417
C12 C 0.3627(3) 1.0651(3) 0.3314(2)
H10 H 0.3450 1.1398 0.2968
C13 C 0.3393(4) 1.0684(3) 0.4164(2)
C14 C 0.3640(3) 0.9578(3) 0.46717(19)
C15 C 0.4147(3) 0.8377(3) 0.43758(19)
H11 H 0.4317 0.7640 0.4732
C16 C 0.2917(7) 1.1292(4) 0.5500(3)
H12 H 0.3537 1.1831 0.5843
H13 H 0.2005 1.1377 0.5735
H14 H 0.463(3) 0.590(3) 0.4085(10)
N1 N 0.4319(2) 0.5217(2) 0.82611(14)
N2 N 0.4976(2) 0.4068(2) 0.85722(15)
O1 O 0.3501(3) 0.8100(2) 0.99720(14)
O2 O 0.4584(2) 0.29123(19) 0.73569(12)
O3 O 0.6670(4) 0.0098(2) 1.04982(15)
O4 O 0.7067(3) -0.1765(2) 0.96449(18)
C1 C 0.3518(3) 0.7466(3) 0.85440(18)
C2 C 0.3182(3) 0.8438(3) 0.91575(19)
C3 C 0.2557(4) 0.9647(4) 0.8929(3)
H1 H 0.2326 1.0284 0.9342
C4 C 0.2276(4) 0.9907(4) 0.8092(3)
H2 H 0.1860 1.0725 0.7941
C5 C 0.2599(4) 0.8979(3) 0.7483(2)
H3 H 0.2406 0.9164 0.6918
C6 C 0.3213(3) 0.7763(3) 0.7705(2)
H4 H 0.3428 0.7131 0.7285
C7 C 0.3199(7) 0.9055(5) 1.0625(3)
H5 H 0.3687 0.9889 1.0523
H6 H 0.3470 0.8684 1.1162
H7 H 0.2236 0.9238 1.0631
C8 C 0.4196(3) 0.6201(3) 0.87877(19)
H8 H 0.4544 0.6108 0.9333
C9 C 0.5016(3) 0.2933(3) 0.80889(18)
C10 C 0.5599(3) 0.1688(3) 0.84990(18)
C11 C 0.5852(3) 0.0567(3) 0.79940(19)
H9 H 0.5667 0.0627 0.7417
C12 C 0.6373(3) -0.0651(3) 0.8314(2)
H10 H 0.6550 -0.1398 0.7968
C13 C 0.6607(4) -0.0684(3) 0.9164(2)
C14 C 0.6360(3) 0.0422(3) 0.96717(19)
C15 C 0.5853(3) 0.1623(3) 0.93758(19)
H11 H 0.5683 0.2360 0.9732
C16 C 0.7083(7) -0.1292(4) 1.0500(3)
H12 H 0.6463 -0.1831 1.0843
H13 H 0.7995 -0.1377 1.0735
H14 H 0.537(3) 0.410(3) 0.9085(10)

#END
