./ABPZCU04_from_xyz.cif_generated_by_CrystalShift
_symmetry_cell_setting triclinic
_symmetry_space_group_name_H-M 'P 1'
loop_
_symmetry_equiv_pos_site_id
_symmetry_equiv_pos_as_xyz
1 x,y,z
_cell_length_a 6.963000
_cell_length_b 12.468600
_cell_length_c 14.854000
_cell_angle_alpha 90.000000
_cell_angle_beta 101.010000
_cell_angle_gamma 90.000000
_cell_volume 1265.870662
loop_
_atom_site_label
_atom_site_type_symbol
_atom_site_fract_x
_atom_site_fract_y
_atom_site_fract_z
Cu1 Cu 0.750000 0.274340 0.500000
S2 S 0.250000 0.346100 0.500000
O3 O 0.421250 0.280150 0.534800
O4 O 0.206330 0.416370 0.574870
O5 O 0.653000 0.383450 0.405850
N6 N 0.684050 0.152400 0.411800
C7 C 0.617550 0.161350 0.321250
C8 C 0.578470 0.073330 0.264970
C9 C 0.606800 -0.027900 0.303800
C10 C 0.674750 -0.038150 0.397300
C11 C 0.712230 0.054180 0.449670
O12 O 0.078750 0.280150 0.465200
O13 O 0.293670 0.416370 0.425130
C14 C 0.787770 0.054180 0.550330
N15 N 0.815950 0.152400 0.588200
C16 C 0.882450 0.161350 0.678750
C17 C 0.921530 0.073330 0.735030
C18 C 0.893200 -0.027900 0.696200
C19 C 0.825250 -0.038150 0.602700
O20 O 0.847000 0.383450 0.594150
O21 O 1.078750 0.280150 0.465200
Cu22 Cu -0.250000 0.274340 0.500000
S23 S 1.250000 0.346100 0.500000
O24 O 1.293670 0.416370 0.425130
O25 O 1.421250 0.280150 0.534800
O26 O 1.206330 0.416370 0.574870
Cu27 Cu 1.750000 0.274340 0.500000
Cu28 Cu 0.250000 0.774340 1.000000
S29 S -0.250000 0.846100 1.000000
O30 O -0.078750 0.780150 1.034800
O31 O -0.293670 0.916370 1.074870
O32 O 0.153000 0.883450 0.905850
N33 N 0.184050 0.652400 0.911800
C34 C 0.117550 0.661350 0.821250
C35 C 0.078470 0.573330 0.764970
C36 C 0.106800 0.472100 0.803800
C37 C 0.174750 0.461850 0.897300
C38 C 0.212230 0.554180 0.949670
O39 O -0.421250 0.780150 0.965200
O40 O -0.206330 0.916370 0.925130
C41 C 0.287770 0.554180 1.050330
N42 N 0.315950 0.652400 1.088200
C43 C 0.382450 0.661350 1.178750
C44 C 0.421530 0.573330 1.235030
C45 C 0.393200 0.472100 1.196200
C46 C 0.325250 0.461850 1.102700
O47 O 0.347000 0.883450 1.094150
O48 O 0.578750 0.780150 0.965200
Cu49 Cu -0.750000 0.774340 1.000000
Cu50 Cu 0.250000 0.774340 0.000000
S51 S 0.750000 0.846100 0.000000
O52 O 0.578750 0.780150 -0.034800
O53 O 0.793670 0.916370 -0.074870
O54 O 0.347000 0.883450 0.094150
N55 N 0.315950 0.652400 0.088200
C56 C 0.382450 0.661350 0.178750
C57 C 0.421530 0.573330 0.235030
C58 C 0.393200 0.472100 0.196200
C59 C 0.325250 0.461850 0.102700
C60 C 0.287770 0.554180 0.050330
O61 O 0.921250 0.780150 0.034800
O62 O 0.706330 0.916370 0.074870
C63 C 0.212230 0.554180 -0.050330
N64 N 0.184050 0.652400 -0.088200
C65 C 0.117550 0.661350 -0.178750
C66 C 0.078470 0.573330 -0.235030
C67 C 0.106800 0.472100 -0.196200
C68 C 0.174750 0.461850 -0.102700
O69 O 0.153000 0.883450 -0.094150
O70 O -0.078750 0.780150 0.034800
Cu71 Cu 1.250000 0.774340 0.000000
Cu72 Cu 0.250000 0.725660 0.500000
S73 S 0.750000 0.653900 0.500000
O74 O 0.578750 0.719850 0.465200
O75 O 0.793670 0.583630 0.425130
O76 O 0.347000 0.616550 0.594150
N77 N 0.315950 0.847600 0.588200
C78 C 0.382450 0.838650 0.678750
C79 C 0.421530 0.926670 0.735030
C80 C 0.393200 1.027900 0.696200
C81 C 0.325250 1.038150 0.602700
C82 C 0.287770 0.945820 0.550330
O83 O 0.921250 0.719850 0.534800
O84 O 0.706330 0.583630 0.574870
C85 C 0.212230 0.945820 0.449670
N86 N 0.184050 0.847600 0.411800
C87 C 0.117550 0.838650 0.321250
C88 C 0.078470 0.926670 0.264970
C89 C 0.106800 1.027900 0.303800
C90 C 0.174750 1.038150 0.397300
O91 O 0.153000 0.616550 0.405850
O92 O -0.078750 0.719850 0.534800
Cu93 Cu 1.250000 0.725660 0.500000
S94 S -0.250000 0.653900 0.500000
O95 O -0.293670 0.583630 0.574870
O96 O -0.421250 0.719850 0.465200
O97 O -0.206330 0.583630 0.425130
Cu98 Cu -0.750000 0.725660 0.500000
Cu99 Cu 0.750000 0.225660 0.000000
S100 S 1.250000 0.153900 0.000000
O101 O 1.078750 0.219850 -0.034800
O102 O 1.293670 0.083630 -0.074870
O103 O 0.847000 0.116550 0.094150
N104 N 0.815950 0.347600 0.088200
C105 C 0.882450 0.338650 0.178750
C106 C 0.921530 0.426670 0.235030
C107 C 0.893200 0.527900 0.196200
C108 C 0.825250 0.538150 0.102700
C109 C 0.787770 0.445820 0.050330
O110 O 1.421250 0.219850 0.034800
O111 O 1.206330 0.083630 0.074870
C112 C 0.712230 0.445820 -0.050330
N113 N 0.684050 0.347600 -0.088200
C114 C 0.617550 0.338650 -0.178750
C115 C 0.578470 0.426670 -0.235030
C116 C 0.606800 0.527900 -0.196200
C117 C 0.674750 0.538150 -0.102700
O118 O 0.653000 0.116550 -0.094150
O119 O 0.421250 0.219850 0.034800
Cu120 Cu 1.750000 0.225660 0.000000
Cu121 Cu 0.750000 0.225660 1.000000
S122 S 0.250000 0.153900 1.000000
O123 O 0.421250 0.219850 1.034800
O124 O 0.206330 0.083630 1.074870
O125 O 0.653000 0.116550 0.905850
N126 N 0.684050 0.347600 0.911800
C127 C 0.617550 0.338650 0.821250
C128 C 0.578470 0.426670 0.764970
C129 C 0.606800 0.527900 0.803800
C130 C 0.674750 0.538150 0.897300
C131 C 0.712230 0.445820 0.949670
O132 O 0.078750 0.219850 0.965200
O133 O 0.293670 0.083630 0.925130
C134 C 0.787770 0.445820 1.050330
N135 N 0.815950 0.347600 1.088200
C136 C 0.882450 0.338650 1.178750
C137 C 0.921530 0.426670 1.235030
C138 C 0.893200 0.527900 1.196200
C139 C 0.825250 0.538150 1.102700
O140 O 0.847000 0.116550 1.094150
O141 O 1.078750 0.219850 0.965200
Cu142 Cu -0.250000 0.225660 1.000000

#END
