./ABPZCU01_from_xyz.cif_generated_by_CrystalShift
_symmetry_cell_setting triclinic
_symmetry_space_group_name_H-M 'P 1'
loop_
_symmetry_equiv_pos_site_id
_symmetry_equiv_pos_as_xyz
1 x,y,z
_cell_length_a 6.963000
_cell_length_b 9.804000
_cell_length_c 9.819000
_cell_angle_alpha 78.900000
_cell_angle_beta 77.680000
_cell_angle_gamma 78.050000
_cell_volume 632.905536
loop_
_atom_site_label
_atom_site_type_symbol
_atom_site_fract_x
_atom_site_fract_y
_atom_site_fract_z
Cu1 Cu 0.250000 0.274350 0.225660
S2 S -0.250200 0.346100 0.153900
O3 O -0.113600 0.314800 0.255000
O4 O -0.368700 0.491200 0.158300
O5 O -0.131600 0.341300 0.008700
O6 O -0.386500 0.245700 0.184900
N7 N 0.272100 0.064100 0.259600
N8 N 0.227600 0.240800 0.435700
C9 C 0.296100 -0.018000 0.160200
C10 C 0.313200 -0.161800 0.191900
C11 C 0.302900 -0.223600 0.331600
C12 C 0.278100 -0.141300 0.435200
C13 C 0.261900 0.003500 0.396000
C14 C 0.236800 0.105000 0.495800
C15 C 0.223200 0.064300 0.640400
C16 C 0.196900 0.168200 0.724600
C17 C 0.186200 0.308600 0.661600
C18 C 0.203500 0.340400 0.516800
O19 O 0.247300 0.289400 0.022700
O20 O 0.253000 0.477900 0.210800
H21 H 0.301700 0.025600 0.063400
H22 H 0.331800 -0.217900 0.118500
H23 H 0.313400 -0.324100 0.356200
H24 H 0.272200 -0.182900 0.532500
H25 H 0.234500 -0.033600 0.681200
H26 H 0.182100 0.142500 0.825200
H27 H 0.168900 0.382000 0.717600
H28 H 0.200000 0.436800 0.472300
H29 H 0.123100 0.297800 0.012400
H30 H 0.327600 0.328200 -0.044000
H31 H 0.370400 0.492700 0.199400
H32 H 0.197900 0.513500 0.138700
O33 O 0.613500 0.245700 0.184900
Cu34 Cu -0.750000 0.274350 0.225660
Cu35 Cu 0.750000 0.725650 0.774340
S36 S 1.250200 0.653900 0.846100
O37 O 1.113600 0.685200 0.745000
O38 O 1.368700 0.508800 0.841700
O39 O 1.131600 0.658700 0.991300
O40 O 1.386500 0.754300 0.815100
N41 N 0.727900 0.935900 0.740400
N42 N 0.772400 0.759200 0.564300
C43 C 0.703900 1.018000 0.839800
C44 C 0.686800 1.161800 0.808100
C45 C 0.697100 1.223600 0.668400
C46 C 0.721900 1.141300 0.564800
C47 C 0.738100 0.996500 0.604000
C48 C 0.763200 0.895000 0.504200
C49 C 0.776800 0.935700 0.359600
C50 C 0.803100 0.831800 0.275400
C51 C 0.813800 0.691400 0.338400
C52 C 0.796500 0.659600 0.483200
O53 O 0.752700 0.710600 0.977300
O54 O 0.747000 0.522100 0.789200
H55 H 0.698300 0.974400 0.936600
H56 H 0.668200 1.217900 0.881500
H57 H 0.686600 1.324100 0.643800
H58 H 0.727800 1.182900 0.467500
H59 H 0.765500 1.033600 0.318800
H60 H 0.817900 0.857500 0.174800
H61 H 0.831100 0.618000 0.282400
H62 H 0.800000 0.563200 0.527700
H63 H 0.876900 0.702200 0.987600
H64 H 0.672400 0.671800 1.044000
H65 H 0.629600 0.507300 0.800600
H66 H 0.802100 0.486500 0.861300
O67 O 0.386500 0.754300 0.815100
Cu68 Cu 1.750000 0.725650 0.774340

#END
