./ABUGIN_from_xyz.cif_generated_by_CrystalShift
_symmetry_cell_setting triclinic
_symmetry_space_group_name_H-M 'P 1'
loop_
_symmetry_equiv_pos_site_id
_symmetry_equiv_pos_as_xyz
1 x,y,z
_cell_length_a 7.575200
_cell_length_b 15.683000
_cell_length_c 7.515800
_cell_angle_alpha 90.000000
_cell_angle_beta 107.045000
_cell_angle_gamma 90.000000
_cell_volume 853.670616
loop_
_atom_site_label
_atom_site_type_symbol
_atom_site_fract_x
_atom_site_fract_y
_atom_site_fract_z
O1 O 0.365100 0.327800 0.497300
O2 O 0.490700 0.301400 0.080300
O3 O 0.531100 0.407900 0.286400
O4 O 0.004600 0.339100 0.282300
O5 O 0.012600 0.295400 -0.132200
O6 O 0.584500 0.109300 0.412900
O7 O 0.141600 0.413800 0.016100
N8 N 0.019000 0.134500 0.153800
C9 C 0.097900 0.052700 0.197900
C10 C -0.015800 -0.019300 0.155300
C11 C 0.058900 -0.099200 0.204500
C12 C 0.244800 -0.108900 0.293400
C13 C 0.357000 -0.039400 0.333600
C14 C 0.289200 0.044400 0.287900
C15 C 0.416100 0.116800 0.341500
C16 C 0.318200 0.196300 0.300200
C17 C 0.134300 0.199600 0.209700
C18 C -0.176900 0.146600 0.060800
C19 C 0.342300 0.292400 0.318800
C20 C 0.123800 0.296100 0.201500
C21 C 0.526500 0.297100 0.634800
C22 C 0.466200 0.332400 0.216900
C23 C 0.622300 0.457700 0.178600
C24 C -0.037700 0.297500 0.434400
C25 C 0.085100 0.334000 0.008300
C26 C 0.131200 0.455600 -0.160500
H27 H -0.152800 -0.017100 0.090600
H28 H -0.030000 -0.141800 0.174800
H29 H 0.311200 -0.166300 0.336400
H30 H 0.493700 -0.041000 0.398300
H31 H -0.264200 0.131000 0.123000
H32 H -0.187800 0.219700 0.044300
H33 H -0.195100 0.120800 -0.056400
H34 H 0.510300 0.318600 0.749700
H35 H 0.528500 0.232900 0.640000
H36 H 0.643000 0.295000 0.586000
H37 H 0.699000 0.425800 0.127000
H38 H 0.732000 0.506300 0.226000
H39 H 0.507000 0.467300 0.035000
H40 H -0.109800 0.340700 0.485200
H41 H 0.097900 0.277900 0.525900
H42 H -0.109000 0.245400 0.393000
H43 H 0.004300 0.453300 -0.224200
H44 H 0.196400 0.423200 -0.213400
H45 H 0.165000 0.516300 -0.149000
O46 O 0.365100 0.672200 0.997300
O47 O 0.490700 0.698600 0.580300
O48 O 0.531100 0.592100 0.786400
O49 O 0.004600 0.660900 0.782300
O50 O 0.012600 0.704600 0.367800
O51 O 0.584500 0.890700 0.912900
O52 O 0.141600 0.586200 0.516100
N53 N 0.019000 0.865500 0.653800
C54 C 0.097900 0.947300 0.697900
C55 C -0.015800 1.019300 0.655300
C56 C 0.058900 1.099200 0.704500
C57 C 0.244800 1.108900 0.793400
C58 C 0.357000 1.039400 0.833600
C59 C 0.289200 0.955600 0.787900
C60 C 0.416100 0.883200 0.841500
C61 C 0.318200 0.803700 0.800200
C62 C 0.134300 0.800400 0.709700
C63 C -0.176900 0.853400 0.560800
C64 C 0.342300 0.707600 0.818800
C65 C 0.123800 0.703900 0.701500
C66 C 0.526500 0.702900 1.134800
C67 C 0.466200 0.667600 0.716900
C68 C 0.622300 0.542300 0.678600
C69 C -0.037700 0.702500 0.934400
C70 C 0.085100 0.666000 0.508300
C71 C 0.131200 0.544400 0.339500
H72 H -0.152800 1.017100 0.590600
H73 H -0.030000 1.141800 0.674800
H74 H 0.311200 1.166300 0.836400
H75 H 0.493700 1.041000 0.898300
H76 H -0.264200 0.869000 0.623000
H77 H -0.187800 0.780300 0.544300
H78 H -0.195100 0.879200 0.443600
H79 H 0.510300 0.681400 1.249700
H80 H 0.528500 0.767100 1.140000
H81 H 0.643000 0.705000 1.086000
H82 H 0.699000 0.574200 0.627000
H83 H 0.732000 0.493700 0.726000
H84 H 0.507000 0.532700 0.535000
H85 H -0.109800 0.659300 0.985200
H86 H 0.097900 0.722100 1.025900
H87 H -0.109000 0.754600 0.893000
H88 H 0.004300 0.546700 0.275800
H89 H 0.196400 0.576800 0.286600
H90 H 0.165000 0.483700 0.351000

#END
