
#######################################################################
#
#                 Cambridge Crystallographic Data Centre
#                                CCDC 
#
#######################################################################
#
# If this CIF has been generated from an entry in the Cambridge 
# Structural Database, then it will include bibliographic, chemical, 
# crystal, experimental, refinement or atomic coordinate data resulting 
# from the CCDC's data processing and validation procedures.
#
#######################################################################

data_ABUJOZ
_symmetry_cell_setting           monoclinic
_symmetry_space_group_name_H-M   'P 21/n'
_symmetry_Int_Tables_number      14
_space_group_name_Hall           '-P 2yn'
loop_
_symmetry_equiv_pos_site_id
_symmetry_equiv_pos_as_xyz
1 x,y,z
2 1/2-x,1/2+y,1/2-z
3 -x,-y,-z
4 1/2+x,1/2-y,1/2+z
_cell_length_a                   5.7079(8)
_cell_length_b                   8.4484(14)
_cell_length_c                   25.745(4)
_cell_angle_alpha                90
_cell_angle_beta                 93.293(5)
_cell_angle_gamma                90
_cell_volume                     1239.44
loop_
_atom_site_label
_atom_site_type_symbol
_atom_site_fract_x
_atom_site_fract_y
_atom_site_fract_z
O1 O -0.0547(2) 0.40241(15) 0.10990(5)
O2 O 0.73896(19) 0.74197(13) 0.12848(4)
N1 N 0.7421(2) 0.89400(15) -0.03239(5)
N2 N 0.5129(2) 0.72633(15) 0.03473(5)
C1 C 0.8100(3) 1.00579(18) -0.11595(6)
H1 H 0.9052 1.0657 -0.1365
C2 C 0.8716(3) 0.97952(19) -0.06421(6)
H2 H 1.0111 1.0235 -0.0504
C3 C 0.5421(2) 0.83198(17) -0.05261(6)
C4 C 0.3981(2) 0.73580(18) -0.01661(6)
H3 H 0.2449 0.7842 -0.0144
H4 H 0.3755 0.6300 -0.0306
C5 C 0.4231(2) 0.64614(17) 0.07380(6)
C6 C 0.5682(2) 0.65535(17) 0.12447(6)
C7 C 0.4911(2) 0.55753(17) 0.16828(6)
C8 C 0.2813(3) 0.47178(17) 0.16302(6)
C9 C 0.2131(3) 0.37864(19) 0.20419(6)
H5 H 0.0727 0.3226 0.2011
C10 C 0.3544(3) 0.3694(2) 0.24983(6)
H6 H 0.3092 0.3061 0.2771
C11 C 0.6016(3) 0.94033(18) -0.13654(6)
H7 H 0.5547 0.9555 -0.1714
C12 C 0.4645(3) 0.85208(18) -0.10457(6)
H8 H 0.3240 0.8073 -0.1174
C13 C 0.2171(3) 0.56343(18) 0.07028(6)
H9 H 0.1279 0.5642 0.0389
C14 C 0.1329(3) 0.47536(18) 0.11312(6)
C15 C 0.5632(3) 0.4544(2) 0.25501(6)
H10 H 0.6572 0.4478 0.2857
C16 C 0.6313(3) 0.54928(19) 0.21444(6)
H11 H 0.7700 0.6071 0.2180
H12 H 0.642(4) 0.776(2) 0.0403(8)
O1 O 0.5547(2) -0.09759(15) 0.39010(5)
O2 O -0.23896(19) 0.24197(13) 0.37152(4)
N1 N -0.2421(2) 0.39400(15) 0.53239(5)
N2 N -0.0129(2) 0.22633(15) 0.46527(5)
C1 C -0.3100(3) 0.50579(18) 0.61595(6)
H1 H -0.4052 0.5657 0.6365
C2 C -0.3716(3) 0.47952(19) 0.56421(6)
H2 H -0.5111 0.5235 0.5504
C3 C -0.0421(2) 0.33198(17) 0.55261(6)
C4 C 0.1019(2) 0.23580(18) 0.51661(6)
H3 H 0.2551 0.2842 0.5144
H4 H 0.1245 0.1300 0.5306
C5 C 0.0769(2) 0.14614(17) 0.42620(6)
C6 C -0.0682(2) 0.15535(17) 0.37553(6)
C7 C 0.0089(2) 0.05753(17) 0.33172(6)
C8 C 0.2187(3) -0.02822(17) 0.33698(6)
C9 C 0.2869(3) -0.12136(19) 0.29581(6)
H5 H 0.4273 -0.1774 0.2989
C10 C 0.1456(3) -0.1306(2) 0.25017(6)
H6 H 0.1908 -0.1939 0.2229
C11 C -0.1016(3) 0.44033(18) 0.63654(6)
H7 H -0.0547 0.4555 0.6714
C12 C 0.0355(3) 0.35208(18) 0.60457(6)
H8 H 0.1760 0.3073 0.6174
C13 C 0.2829(3) 0.06343(18) 0.42972(6)
H9 H 0.3721 0.0642 0.4611
C14 C 0.3671(3) -0.02464(18) 0.38688(6)
C15 C -0.0632(3) -0.0456(2) 0.24499(6)
H10 H -0.1572 -0.0522 0.2143
C16 C -0.1313(3) 0.04928(19) 0.28556(6)
H11 H -0.2700 0.1071 0.2820
H12 H -0.142(4) 0.276(2) 0.4597(8)
O1 O 1.0547(2) 0.59759(15) 0.89010(5)
O2 O 0.26104(19) 0.25803(13) 0.87152(4)
N1 N 0.2579(2) 0.10600(15) 1.03239(5)
N2 N 0.4871(2) 0.27367(15) 0.96527(5)
C1 C 0.1900(3) -0.00579(18) 1.11595(6)
H1 H 0.0948 -0.0657 1.1365
C2 C 0.1284(3) 0.02048(19) 1.06421(6)
H2 H -0.0111 -0.0235 1.0504
C3 C 0.4579(2) 0.16802(17) 1.05261(6)
C4 C 0.6019(2) 0.26420(18) 1.01661(6)
H3 H 0.7551 0.2158 1.0144
H4 H 0.6245 0.3700 1.0306
C5 C 0.5769(2) 0.35386(17) 0.92620(6)
C6 C 0.4318(2) 0.34465(17) 0.87553(6)
C7 C 0.5089(2) 0.44247(17) 0.83172(6)
C8 C 0.7187(3) 0.52822(17) 0.83698(6)
C9 C 0.7869(3) 0.62136(19) 0.79581(6)
H5 H 0.9273 0.6774 0.7989
C10 C 0.6456(3) 0.6306(2) 0.75017(6)
H6 H 0.6908 0.6939 0.7229
C11 C 0.3984(3) 0.05967(18) 1.13654(6)
H7 H 0.4453 0.0445 1.1714
C12 C 0.5355(3) 0.14792(18) 1.10457(6)
H8 H 0.6760 0.1927 1.1174
C13 C 0.7829(3) 0.43657(18) 0.92972(6)
H9 H 0.8721 0.4358 0.9611
C14 C 0.8671(3) 0.52464(18) 0.88688(6)
C15 C 0.4368(3) 0.5456(2) 0.74499(6)
H10 H 0.3428 0.5522 0.7143
C16 C 0.3687(3) 0.45072(19) 0.78556(6)
H11 H 0.2300 0.3929 0.7820
H12 H 0.358(4) 0.224(2) 0.9597(8)
O1 O 0.4453(2) 1.09759(15) 0.60990(5)
O2 O 1.23896(19) 0.75803(13) 0.62848(4)
N1 N 1.2421(2) 0.60600(15) 0.46761(5)
N2 N 1.0129(2) 0.77367(15) 0.53473(5)
C1 C 1.3100(3) 0.49421(18) 0.38405(6)
H1 H 1.4052 0.4343 0.3635
C2 C 1.3716(3) 0.52048(19) 0.43579(6)
H2 H 1.5111 0.4765 0.4496
C3 C 1.0421(2) 0.66802(17) 0.44739(6)
C4 C 0.8981(2) 0.76420(18) 0.48339(6)
H3 H 0.7449 0.7158 0.4856
H4 H 0.8755 0.8700 0.4694
C5 C 0.9231(2) 0.85386(17) 0.57380(6)
C6 C 1.0682(2) 0.84465(17) 0.62447(6)
C7 C 0.9911(2) 0.94247(17) 0.66828(6)
C8 C 0.7813(3) 1.02822(17) 0.66302(6)
C9 C 0.7131(3) 1.12136(19) 0.70419(6)
H5 H 0.5727 1.1774 0.7011
C10 C 0.8544(3) 1.1306(2) 0.74983(6)
H6 H 0.8092 1.1939 0.7771
C11 C 1.1016(3) 0.55967(18) 0.36346(6)
H7 H 1.0547 0.5445 0.3286
C12 C 0.9645(3) 0.64792(18) 0.39543(6)
H8 H 0.8240 0.6927 0.3826
C13 C 0.7171(3) 0.93657(18) 0.57028(6)
H9 H 0.6279 0.9358 0.5389
C14 C 0.6329(3) 1.02464(18) 0.61312(6)
C15 C 1.0632(3) 1.0456(2) 0.75501(6)
H10 H 1.1572 1.0522 0.7857
C16 C 1.1313(3) 0.95072(19) 0.71444(6)
H11 H 1.2700 0.8929 0.7180
H12 H 1.142(4) 0.724(2) 0.5403(8)

#END
