
#######################################################################
#
#                 Cambridge Crystallographic Data Centre
#                                CCDC 
#
#######################################################################
#
# If this CIF has been generated from an entry in the Cambridge 
# Structural Database, then it will include bibliographic, chemical, 
# crystal, experimental, refinement or atomic coordinate data resulting 
# from the CCDC's data processing and validation procedures.
#
#######################################################################

data_ABUJUE
_symmetry_cell_setting           triclinic
_symmetry_space_group_name_H-M   'P -1'
_symmetry_Int_Tables_number      2
_space_group_name_Hall           '-P 1'
loop_
_symmetry_equiv_pos_site_id
_symmetry_equiv_pos_as_xyz
1 x,y,z
2 -x,-y,-z
_cell_length_a                   7.2027(17)
_cell_length_b                   7.5699(17)
_cell_length_c                   12.9615(16)
_cell_angle_alpha                84.464(14)
_cell_angle_beta                 86.387(15)
_cell_angle_gamma                75.580(18)
_cell_volume                     680.695
loop_
_atom_site_label
_atom_site_type_symbol
_atom_site_fract_x
_atom_site_fract_y
_atom_site_fract_z
O1 O 0.2816(2) 0.6904(2) 0.44766(11)
O2 O 0.6348(2) 0.5832(2) 0.37470(13)
O3 O 0.7149(3) 0.7034(4) 0.22917(17)
O4 O 0.2709(3) 1.0615(3) -0.00431(13)
O5 O -0.0182(2) 1.1842(2) 0.04962(13)
O6 O -0.2627(2) 0.9869(2) 0.39162(14)
O7 O -0.0602(2) 0.7924(2) 0.49549(12)
N1 N 0.5955(2) 0.6838(3) 0.29606(14)
N2 N 0.1415(3) 1.0829(3) 0.06246(14)
C1 C 0.0634(3) 0.8908(3) 0.33229(15)
C2 C 0.2511(3) 0.7865(3) 0.35683(14)
C3 C 0.3980(3) 0.7882(3) 0.27989(15)
C4 C 0.3635(3) 0.8847(3) 0.18383(15)
C5 C 0.1794(3) 0.9814(3) 0.16381(15)
C6 C 0.0302(3) 0.9851(3) 0.23663(16)
C7 C -0.1008(3) 0.8935(3) 0.41098(17)
H1 H 0.149(5) 0.728(5) 0.471(3)
H2 H 0.464700 0.883900 0.133000
H3 H -0.095800 1.053100 0.220500
O1 O 0.7184(2) 0.3096(2) 0.55234(11)
O2 O 0.3652(2) 0.4168(2) 0.62530(13)
O3 O 0.2851(3) 0.2966(4) 0.77083(17)
O4 O 0.7291(3) -0.0615(3) 1.00431(13)
O5 O 1.0182(2) -0.1842(2) 0.95038(13)
O6 O 1.2627(2) 0.0131(2) 0.60838(14)
O7 O 1.0602(2) 0.2076(2) 0.50451(12)
N1 N 0.4045(2) 0.3162(3) 0.70394(14)
N2 N 0.8585(3) -0.0829(3) 0.93754(14)
C1 C 0.9366(3) 0.1092(3) 0.66771(15)
C2 C 0.7489(3) 0.2135(3) 0.64317(14)
C3 C 0.6020(3) 0.2118(3) 0.72011(15)
C4 C 0.6365(3) 0.1153(3) 0.81617(15)
C5 C 0.8206(3) 0.0186(3) 0.83619(15)
C6 C 0.9698(3) 0.0149(3) 0.76337(16)
C7 C 1.1008(3) 0.1065(3) 0.58902(17)
H1 H 0.851(5) 0.272(5) 0.529(3)
H2 H 0.535300 0.116100 0.867000
H3 H 1.095800 -0.053100 0.779500
N3 N 0.3973(3) 0.2757(3) 0.40868(14)
C8 C 0.3546(3) 0.3314(3) 0.29943(16)
C9 C 0.1709(3) 0.4215(3) 0.27295(18)
C10 C 0.1359(3) 0.4786(3) 0.1698(2)
C11 C 0.2806(4) 0.4410(4) 0.09501(19)
C12 C 0.4627(4) 0.3488(4) 0.1219(2)
C13 C 0.5011(3) 0.2952(3) 0.22493(19)
H4 H 0.508(4) 0.178(4) 0.412(2)
H5 H 0.286(5) 0.244(4) 0.446(2)
H6 H 0.420(4) 0.371(4) 0.439(2)
H7 H 0.070100 0.444100 0.324500
H8 H 0.010700 0.544200 0.150600
H9 H 0.254700 0.479300 0.024300
H10 H 0.562000 0.321700 0.069800
H11 H 0.627600 0.233900 0.244300
N3 N 0.6027(3) 0.7243(3) 0.59132(14)
C8 C 0.6454(3) 0.6686(3) 0.70057(16)
C9 C 0.8291(3) 0.5785(3) 0.72705(18)
C10 C 0.8641(3) 0.5214(3) 0.8302(2)
C11 C 0.7194(4) 0.5590(4) 0.90499(19)
C12 C 0.5373(4) 0.6512(4) 0.8781(2)
C13 C 0.4989(3) 0.7048(3) 0.77507(19)
H4 H 0.492(4) 0.822(4) 0.588(2)
H5 H 0.714(5) 0.756(4) 0.554(2)
H6 H 0.580(4) 0.629(4) 0.561(2)
H7 H 0.929900 0.555900 0.675500
H8 H 0.989300 0.455800 0.849400
H9 H 0.745300 0.520700 0.975700
H10 H 0.438000 0.678300 0.930200
H11 H 0.372400 0.766100 0.755700

#END
