./ABUJAL_from_xyz.cif_generated_by_CrystalShift
_symmetry_cell_setting triclinic
_symmetry_space_group_name_H-M 'P 1'
loop_
_symmetry_equiv_pos_site_id
_symmetry_equiv_pos_as_xyz
1 x,y,z
_cell_length_a 21.722100
_cell_length_b 9.211500
_cell_length_c 25.501900
_cell_angle_alpha 90.000000
_cell_angle_beta 90.000000
_cell_angle_gamma 90.000000
_cell_volume 5102.754843
loop_
_atom_site_label
_atom_site_type_symbol
_atom_site_fract_x
_atom_site_fract_y
_atom_site_fract_z
C1 C 0.069950 0.629880 0.991400
C2 C 0.041570 0.790490 0.917110
C3 C -0.009950 0.834940 0.949590
C4 C -0.016210 0.775660 0.999760
C5 C -0.065460 0.822370 1.031050
H6 H -0.070300 0.784800 1.064600
C7 C -0.106560 0.923220 1.012460
H8 H -0.139100 0.953200 1.033600
C9 C -0.100090 0.980950 0.962440
H10 H -0.128300 1.048800 0.950100
C11 C -0.052020 0.937710 0.931160
H12 H -0.047500 0.976800 0.897800
C13 C 0.114620 0.525590 1.011770
H14 H 0.146100 0.494200 0.989800
C15 C 0.112080 0.474010 1.060080
H16 H 0.079700 0.507500 1.080600
C17 C 0.153660 0.371280 1.085310
C18 C 0.140720 0.326300 1.136170
H19 H 0.106900 0.364900 1.153700
C20 C 0.177620 0.224800 1.161140
H21 H 0.168300 0.194700 1.195000
C22 C 0.227810 0.168800 1.135820
H23 H 0.252400 0.100200 1.152400
C24 C 0.242030 0.214200 1.085630
H25 H 0.276400 0.176700 1.068700
C26 C 0.205600 0.314100 1.060790
H27 H 0.215700 0.344200 1.027100
C28 C 0.114170 0.537510 0.867500
C29 C 0.183580 0.700210 0.917600
C30 C 0.230790 0.654480 0.880130
C31 C 0.214580 0.560540 0.839400
C32 C 0.260050 0.519700 0.803280
H33 H 0.250200 0.457500 0.775800
C34 C 0.318650 0.571000 0.808280
H35 H 0.348400 0.544100 0.783900
C36 C 0.334260 0.661900 0.848920
H37 H 0.374600 0.694500 0.852200
C38 C 0.290640 0.704700 0.884570
H39 H 0.301200 0.767400 0.911700
C40 C 0.053290 0.472490 0.863230
H41 H 0.028400 0.465300 0.892800
C42 C 0.032960 0.423240 0.817290
H43 H 0.058300 0.440200 0.788500
C44 C -0.024310 0.345810 0.806590
C45 C -0.057710 0.275200 0.845660
H46 H -0.043200 0.275100 0.880000
C47 C -0.111830 0.205800 0.833930
H48 H -0.133900 0.159700 0.860400
C49 C -0.133740 0.203800 0.783350
H50 H -0.170600 0.156800 0.775700
C51 C -0.101460 0.270900 0.744280
H52 H -0.116200 0.269600 0.710100
C53 C -0.046730 0.340700 0.755770
H54 H -0.024600 0.385000 0.728900
N55 N 0.077470 0.679310 0.940070
N56 N 0.024480 0.674690 1.020150
N57 N 0.126940 0.630040 0.909780
N58 N 0.156140 0.503780 0.833580
O59 O 0.054760 0.837050 0.874050
O60 O 0.190110 0.786250 0.953230
C61 C 0.430050 0.370120 0.491400
C62 C 0.458430 0.209510 0.417110
C63 C 0.509950 0.165060 0.449590
C64 C 0.516210 0.224340 0.499760
C65 C 0.565460 0.177630 0.531050
H66 H 0.570300 0.215200 0.564600
C67 C 0.606560 0.076780 0.512460
H68 H 0.639100 0.046800 0.533600
C69 C 0.600090 0.019050 0.462440
H70 H 0.628300 -0.048800 0.450100
C71 C 0.552020 0.062290 0.431160
H72 H 0.547500 0.023200 0.397800
C73 C 0.385380 0.474410 0.511770
H74 H 0.353900 0.505800 0.489800
C75 C 0.387920 0.525990 0.560080
H76 H 0.420300 0.492500 0.580600
C77 C 0.346340 0.628720 0.585310
C78 C 0.359280 0.673700 0.636170
H79 H 0.393100 0.635100 0.653700
C80 C 0.322380 0.775200 0.661140
H81 H 0.331700 0.805300 0.695000
C82 C 0.272190 0.831200 0.635820
H83 H 0.247600 0.899800 0.652400
C84 C 0.257970 0.785800 0.585630
H85 H 0.223600 0.823300 0.568700
C86 C 0.294400 0.685900 0.560790
H87 H 0.284300 0.655800 0.527100
C88 C 0.385830 0.462490 0.367500
C89 C 0.316420 0.299790 0.417600
C90 C 0.269210 0.345520 0.380130
C91 C 0.285420 0.439460 0.339400
C92 C 0.239950 0.480300 0.303280
H93 H 0.249800 0.542500 0.275800
C94 C 0.181350 0.429000 0.308280
H95 H 0.151600 0.455900 0.283900
C96 C 0.165740 0.338100 0.348920
H97 H 0.125400 0.305500 0.352200
C98 C 0.209360 0.295300 0.384570
H99 H 0.198800 0.232600 0.411700
C100 C 0.446710 0.527510 0.363230
H101 H 0.471600 0.534700 0.392800
C102 C 0.467040 0.576760 0.317290
H103 H 0.441700 0.559800 0.288500
C104 C 0.524310 0.654190 0.306590
C105 C 0.557710 0.724800 0.345660
H106 H 0.543200 0.724900 0.380000
C107 C 0.611830 0.794200 0.333930
H108 H 0.633900 0.840300 0.360400
C109 C 0.633740 0.796200 0.283350
H110 H 0.670600 0.843200 0.275700
C111 C 0.601460 0.729100 0.244280
H112 H 0.616200 0.730400 0.210100
C113 C 0.546730 0.659300 0.255770
H114 H 0.524600 0.615000 0.228900
N115 N 0.422530 0.320690 0.440070
N116 N 0.475520 0.325310 0.520150
N117 N 0.373060 0.369960 0.409780
N118 N 0.343860 0.496220 0.333580
O119 O 0.445240 0.162950 0.374050
O120 O 0.309890 0.213750 0.453230
C121 C 0.569950 0.870120 0.008600
C122 C 0.541570 0.709510 0.082890
C123 C 0.490050 0.665060 0.050410
C124 C 0.483790 0.724340 0.000240
C125 C 0.434540 0.677630 -0.031050
H126 H 0.429700 0.715200 -0.064600
C127 C 0.393440 0.576780 -0.012460
H128 H 0.360900 0.546800 -0.033600
C129 C 0.399910 0.519050 0.037560
H130 H 0.371700 0.451200 0.049900
C131 C 0.447980 0.562290 0.068840
H132 H 0.452500 0.523200 0.102200
C133 C 0.614620 0.974410 -0.011770
H134 H 0.646100 1.005800 0.010200
C135 C 0.612080 1.025990 -0.060080
H136 H 0.579700 0.992500 -0.080600
C137 C 0.653660 1.128720 -0.085310
C138 C 0.640720 1.173700 -0.136170
H139 H 0.606900 1.135100 -0.153700
C140 C 0.677620 1.275200 -0.161140
H141 H 0.668300 1.305300 -0.195000
C142 C 0.727810 1.331200 -0.135820
H143 H 0.752400 1.399800 -0.152400
C144 C 0.742030 1.285800 -0.085630
H145 H 0.776400 1.323300 -0.068700
C146 C 0.705600 1.185900 -0.060790
H147 H 0.715700 1.155800 -0.027100
C148 C 0.614170 0.962490 0.132500
C149 C 0.683580 0.799790 0.082400
C150 C 0.730790 0.845520 0.119870
C151 C 0.714580 0.939460 0.160600
C152 C 0.760050 0.980300 0.196720
H153 H 0.750200 1.042500 0.224200
C154 C 0.818650 0.929000 0.191720
H155 H 0.848400 0.955900 0.216100
C156 C 0.834260 0.838100 0.151080
H157 H 0.874600 0.805500 0.147800
C158 C 0.790640 0.795300 0.115430
H159 H 0.801200 0.732600 0.088300
C160 C 0.553290 1.027510 0.136770
H161 H 0.528400 1.034700 0.107200
C162 C 0.532960 1.076760 0.182710
H163 H 0.558300 1.059800 0.211500
C164 C 0.475690 1.154190 0.193410
C165 C 0.442290 1.224800 0.154340
H166 H 0.456800 1.224900 0.120000
C167 C 0.388170 1.294200 0.166070
H168 H 0.366100 1.340300 0.139600
C169 C 0.366260 1.296200 0.216650
H170 H 0.329400 1.343200 0.224300
C171 C 0.398540 1.229100 0.255720
H172 H 0.383800 1.230400 0.289900
C173 C 0.453270 1.159300 0.244230
H174 H 0.475400 1.115000 0.271100
N175 N 0.577470 0.820690 0.059930
N176 N 0.524480 0.825310 -0.020150
N177 N 0.626940 0.869960 0.090220
N178 N 0.656140 0.996220 0.166420
O179 O 0.554760 0.662950 0.125950
O180 O 0.690110 0.713750 0.046770
C181 C 0.930050 0.129880 0.508600
C182 C 0.958430 0.290490 0.582890
C183 C 1.009950 0.334940 0.550410
C184 C 1.016210 0.275660 0.500240
C185 C 1.065460 0.322370 0.468950
H186 H 1.070300 0.284800 0.435400
C187 C 1.106560 0.423220 0.487540
H188 H 1.139100 0.453200 0.466400
C189 C 1.100090 0.480950 0.537560
H190 H 1.128300 0.548800 0.549900
C191 C 1.052020 0.437710 0.568840
H192 H 1.047500 0.476800 0.602200
C193 C 0.885380 0.025590 0.488230
H194 H 0.853900 -0.005800 0.510200
C195 C 0.887920 -0.025990 0.439920
H196 H 0.920300 0.007500 0.419400
C197 C 0.846340 -0.128720 0.414690
C198 C 0.859280 -0.173700 0.363830
H199 H 0.893100 -0.135100 0.346300
C200 C 0.822380 -0.275200 0.338860
H201 H 0.831700 -0.305300 0.305000
C202 C 0.772190 -0.331200 0.364180
H203 H 0.747600 -0.399800 0.347600
C204 C 0.757970 -0.285800 0.414370
H205 H 0.723600 -0.323300 0.431300
C206 C 0.794400 -0.185900 0.439210
H207 H 0.784300 -0.155800 0.472900
C208 C 0.885830 0.037510 0.632500
C209 C 0.816420 0.200210 0.582400
C210 C 0.769210 0.154480 0.619870
C211 C 0.785420 0.060540 0.660600
C212 C 0.739950 0.019700 0.696720
H213 H 0.749800 -0.042500 0.724200
C214 C 0.681350 0.071000 0.691720
H215 H 0.651600 0.044100 0.716100
C216 C 0.665740 0.161900 0.651080
H217 H 0.625400 0.194500 0.647800
C218 C 0.709360 0.204700 0.615430
H219 H 0.698800 0.267400 0.588300
C220 C 0.946710 -0.027510 0.636770
H221 H 0.971600 -0.034700 0.607200
C222 C 0.967040 -0.076760 0.682710
H223 H 0.941700 -0.059800 0.711500
C224 C 1.024310 -0.154190 0.693410
C225 C 1.057710 -0.224800 0.654340
H226 H 1.043200 -0.224900 0.620000
C227 C 1.111830 -0.294200 0.666070
H228 H 1.133900 -0.340300 0.639600
C229 C 1.133740 -0.296200 0.716650
H230 H 1.170600 -0.343200 0.724300
C231 C 1.101460 -0.229100 0.755720
H232 H 1.116200 -0.230400 0.789900
C233 C 1.046730 -0.159300 0.744230
H234 H 1.024600 -0.115000 0.771100
N235 N 0.922530 0.179310 0.559930
N236 N 0.975520 0.174690 0.479850
N237 N 0.873060 0.130040 0.590220
N238 N 0.843860 0.003780 0.666420
O239 O 0.945240 0.337050 0.625950
O240 O 0.809890 0.286250 0.546770
C241 C 0.930050 0.370120 0.008600
C242 C 0.958430 0.209510 0.082890
C243 C 1.009950 0.165060 0.050410
C244 C 1.016210 0.224340 0.000240
C245 C 1.065460 0.177630 -0.031050
H246 H 1.070300 0.215200 -0.064600
C247 C 1.106560 0.076780 -0.012460
H248 H 1.139100 0.046800 -0.033600
C249 C 1.100090 0.019050 0.037560
H250 H 1.128300 -0.048800 0.049900
C251 C 1.052020 0.062290 0.068840
H252 H 1.047500 0.023200 0.102200
C253 C 0.885380 0.474410 -0.011770
H254 H 0.853900 0.505800 0.010200
C255 C 0.887920 0.525990 -0.060080
H256 H 0.920300 0.492500 -0.080600
C257 C 0.846340 0.628720 -0.085310
C258 C 0.859280 0.673700 -0.136170
H259 H 0.893100 0.635100 -0.153700
C260 C 0.822380 0.775200 -0.161140
H261 H 0.831700 0.805300 -0.195000
C262 C 0.772190 0.831200 -0.135820
H263 H 0.747600 0.899800 -0.152400
C264 C 0.757970 0.785800 -0.085630
H265 H 0.723600 0.823300 -0.068700
C266 C 0.794400 0.685900 -0.060790
H267 H 0.784300 0.655800 -0.027100
C268 C 0.885830 0.462490 0.132500
C269 C 0.816420 0.299790 0.082400
C270 C 0.769210 0.345520 0.119870
C271 C 0.785420 0.439460 0.160600
C272 C 0.739950 0.480300 0.196720
H273 H 0.749800 0.542500 0.224200
C274 C 0.681350 0.429000 0.191720
H275 H 0.651600 0.455900 0.216100
C276 C 0.665740 0.338100 0.151080
H277 H 0.625400 0.305500 0.147800
C278 C 0.709360 0.295300 0.115430
H279 H 0.698800 0.232600 0.088300
C280 C 0.946710 0.527510 0.136770
H281 H 0.971600 0.534700 0.107200
C282 C 0.967040 0.576760 0.182710
H283 H 0.941700 0.559800 0.211500
C284 C 1.024310 0.654190 0.193410
C285 C 1.057710 0.724800 0.154340
H286 H 1.043200 0.724900 0.120000
C287 C 1.111830 0.794200 0.166070
H288 H 1.133900 0.840300 0.139600
C289 C 1.133740 0.796200 0.216650
H290 H 1.170600 0.843200 0.224300
C291 C 1.101460 0.729100 0.255720
H292 H 1.116200 0.730400 0.289900
C293 C 1.046730 0.659300 0.244230
H294 H 1.024600 0.615000 0.271100
N295 N 0.922530 0.320690 0.059930
N296 N 0.975520 0.325310 -0.020150
N297 N 0.873060 0.369960 0.090220
N298 N 0.843860 0.496220 0.166420
O299 O 0.945240 0.162950 0.125950
O300 O 0.809890 0.213750 0.046770
C301 C 0.569950 0.629880 0.508600
C302 C 0.541570 0.790490 0.582890
C303 C 0.490050 0.834940 0.550410
C304 C 0.483790 0.775660 0.500240
C305 C 0.434540 0.822370 0.468950
H306 H 0.429700 0.784800 0.435400
C307 C 0.393440 0.923220 0.487540
H308 H 0.360900 0.953200 0.466400
C309 C 0.399910 0.980950 0.537560
H310 H 0.371700 1.048800 0.549900
C311 C 0.447980 0.937710 0.568840
H312 H 0.452500 0.976800 0.602200
C313 C 0.614620 0.525590 0.488230
H314 H 0.646100 0.494200 0.510200
C315 C 0.612080 0.474010 0.439920
H316 H 0.579700 0.507500 0.419400
C317 C 0.653660 0.371280 0.414690
C318 C 0.640720 0.326300 0.363830
H319 H 0.606900 0.364900 0.346300
C320 C 0.677620 0.224800 0.338860
H321 H 0.668300 0.194700 0.305000
C322 C 0.727810 0.168800 0.364180
H323 H 0.752400 0.100200 0.347600
C324 C 0.742030 0.214200 0.414370
H325 H 0.776400 0.176700 0.431300
C326 C 0.705600 0.314100 0.439210
H327 H 0.715700 0.344200 0.472900
C328 C 0.614170 0.537510 0.632500
C329 C 0.683580 0.700210 0.582400
C330 C 0.730790 0.654480 0.619870
C331 C 0.714580 0.560540 0.660600
C332 C 0.760050 0.519700 0.696720
H333 H 0.750200 0.457500 0.724200
C334 C 0.818650 0.571000 0.691720
H335 H 0.848400 0.544100 0.716100
C336 C 0.834260 0.661900 0.651080
H337 H 0.874600 0.694500 0.647800
C338 C 0.790640 0.704700 0.615430
H339 H 0.801200 0.767400 0.588300
C340 C 0.553290 0.472490 0.636770
H341 H 0.528400 0.465300 0.607200
C342 C 0.532960 0.423240 0.682710
H343 H 0.558300 0.440200 0.711500
C344 C 0.475690 0.345810 0.693410
C345 C 0.442290 0.275200 0.654340
H346 H 0.456800 0.275100 0.620000
C347 C 0.388170 0.205800 0.666070
H348 H 0.366100 0.159700 0.639600
C349 C 0.366260 0.203800 0.716650
H350 H 0.329400 0.156800 0.724300
C351 C 0.398540 0.270900 0.755720
H352 H 0.383800 0.269600 0.789900
C353 C 0.453270 0.340700 0.744230
H354 H 0.475400 0.385000 0.771100
N355 N 0.577470 0.679310 0.559930
N356 N 0.524480 0.674690 0.479850
N357 N 0.626940 0.630040 0.590220
N358 N 0.656140 0.503780 0.666420
O359 O 0.554760 0.837050 0.625950
O360 O 0.690110 0.786250 0.546770
C361 C 0.430050 0.129880 0.991400
C362 C 0.458430 0.290490 0.917110
C363 C 0.509950 0.334940 0.949590
C364 C 0.516210 0.275660 0.999760
C365 C 0.565460 0.322370 1.031050
H366 H 0.570300 0.284800 1.064600
C367 C 0.606560 0.423220 1.012460
H368 H 0.639100 0.453200 1.033600
C369 C 0.600090 0.480950 0.962440
H370 H 0.628300 0.548800 0.950100
C371 C 0.552020 0.437710 0.931160
H372 H 0.547500 0.476800 0.897800
C373 C 0.385380 0.025590 1.011770
H374 H 0.353900 -0.005800 0.989800
C375 C 0.387920 -0.025990 1.060080
H376 H 0.420300 0.007500 1.080600
C377 C 0.346340 -0.128720 1.085310
C378 C 0.359280 -0.173700 1.136170
H379 H 0.393100 -0.135100 1.153700
C380 C 0.322380 -0.275200 1.161140
H381 H 0.331700 -0.305300 1.195000
C382 C 0.272190 -0.331200 1.135820
H383 H 0.247600 -0.399800 1.152400
C384 C 0.257970 -0.285800 1.085630
H385 H 0.223600 -0.323300 1.068700
C386 C 0.294400 -0.185900 1.060790
H387 H 0.284300 -0.155800 1.027100
C388 C 0.385830 0.037510 0.867500
C389 C 0.316420 0.200210 0.917600
C390 C 0.269210 0.154480 0.880130
C391 C 0.285420 0.060540 0.839400
C392 C 0.239950 0.019700 0.803280
H393 H 0.249800 -0.042500 0.775800
C394 C 0.181350 0.071000 0.808280
H395 H 0.151600 0.044100 0.783900
C396 C 0.165740 0.161900 0.848920
H397 H 0.125400 0.194500 0.852200
C398 C 0.209360 0.204700 0.884570
H399 H 0.198800 0.267400 0.911700
C400 C 0.446710 -0.027510 0.863230
H401 H 0.471600 -0.034700 0.892800
C402 C 0.467040 -0.076760 0.817290
H403 H 0.441700 -0.059800 0.788500
C404 C 0.524310 -0.154190 0.806590
C405 C 0.557710 -0.224800 0.845660
H406 H 0.543200 -0.224900 0.880000
C407 C 0.611830 -0.294200 0.833930
H408 H 0.633900 -0.340300 0.860400
C409 C 0.633740 -0.296200 0.783350
H410 H 0.670600 -0.343200 0.775700
C411 C 0.601460 -0.229100 0.744280
H412 H 0.616200 -0.230400 0.710100
C413 C 0.546730 -0.159300 0.755770
H414 H 0.524600 -0.115000 0.728900
N415 N 0.422530 0.179310 0.940070
N416 N 0.475520 0.174690 1.020150
N417 N 0.373060 0.130040 0.909780
N418 N 0.343860 0.003780 0.833580
O419 O 0.445240 0.337050 0.874050
O420 O 0.309890 0.286250 0.953230
C421 C 0.069950 0.870120 0.491400
C422 C 0.041570 0.709510 0.417110
C423 C -0.009950 0.665060 0.449590
C424 C -0.016210 0.724340 0.499760
C425 C -0.065460 0.677630 0.531050
H426 H -0.070300 0.715200 0.564600
C427 C -0.106560 0.576780 0.512460
H428 H -0.139100 0.546800 0.533600
C429 C -0.100090 0.519050 0.462440
H430 H -0.128300 0.451200 0.450100
C431 C -0.052020 0.562290 0.431160
H432 H -0.047500 0.523200 0.397800
C433 C 0.114620 0.974410 0.511770
H434 H 0.146100 1.005800 0.489800
C435 C 0.112080 1.025990 0.560080
H436 H 0.079700 0.992500 0.580600
C437 C 0.153660 1.128720 0.585310
C438 C 0.140720 1.173700 0.636170
H439 H 0.106900 1.135100 0.653700
C440 C 0.177620 1.275200 0.661140
H441 H 0.168300 1.305300 0.695000
C442 C 0.227810 1.331200 0.635820
H443 H 0.252400 1.399800 0.652400
C444 C 0.242030 1.285800 0.585630
H445 H 0.276400 1.323300 0.568700
C446 C 0.205600 1.185900 0.560790
H447 H 0.215700 1.155800 0.527100
C448 C 0.114170 0.962490 0.367500
C449 C 0.183580 0.799790 0.417600
C450 C 0.230790 0.845520 0.380130
C451 C 0.214580 0.939460 0.339400
C452 C 0.260050 0.980300 0.303280
H453 H 0.250200 1.042500 0.275800
C454 C 0.318650 0.929000 0.308280
H455 H 0.348400 0.955900 0.283900
C456 C 0.334260 0.838100 0.348920
H457 H 0.374600 0.805500 0.352200
C458 C 0.290640 0.795300 0.384570
H459 H 0.301200 0.732600 0.411700
C460 C 0.053290 1.027510 0.363230
H461 H 0.028400 1.034700 0.392800
C462 C 0.032960 1.076760 0.317290
H463 H 0.058300 1.059800 0.288500
C464 C -0.024310 1.154190 0.306590
C465 C -0.057710 1.224800 0.345660
H466 H -0.043200 1.224900 0.380000
C467 C -0.111830 1.294200 0.333930
H468 H -0.133900 1.340300 0.360400
C469 C -0.133740 1.296200 0.283350
H470 H -0.170600 1.343200 0.275700
C471 C -0.101460 1.229100 0.244280
H472 H -0.116200 1.230400 0.210100
C473 C -0.046730 1.159300 0.255770
H474 H -0.024600 1.115000 0.228900
N475 N 0.077470 0.820690 0.440070
N476 N 0.024480 0.825310 0.520150
N477 N 0.126940 0.869960 0.409780
N478 N 0.156140 0.996220 0.333580
O479 O 0.054760 0.662950 0.374050
O480 O 0.190110 0.713750 0.453230

#END
