./ABUKOX_from_xyz.cif_generated_by_CrystalShift
_symmetry_cell_setting triclinic
_symmetry_space_group_name_H-M 'P 1'
loop_
_symmetry_equiv_pos_site_id
_symmetry_equiv_pos_as_xyz
1 x,y,z
_cell_length_a 11.345000
_cell_length_b 6.079000
_cell_length_c 20.274000
_cell_angle_alpha 90.000000
_cell_angle_beta 105.960000
_cell_angle_gamma 90.000000
_cell_volume 1344.325829
loop_
_atom_site_label
_atom_site_type_symbol
_atom_site_fract_x
_atom_site_fract_y
_atom_site_fract_z
O1 O 0.933970 1.017700 0.282870
O2 O 0.694380 0.656100 0.187870
O3 O 0.652140 0.818200 0.303710
O4 O 0.971400 0.702200 0.388560
O5 O 0.817500 1.252200 0.130290
O6 O 1.079090 0.942100 0.024690
O7 O 0.669620 0.329700 0.233490
O8 O 0.581700 0.550800 0.359160
O9 O 1.035410 0.917600 0.481480
N10 N 0.899620 0.917200 0.170070
N11 N 0.948000 1.087700 0.078330
H12 H 0.935900 1.193700 0.049100
C13 C 0.843500 0.926300 0.227240
H14 H 0.773300 1.026800 0.214900
C15 C 0.799200 0.701800 0.244880
H16 H 0.862900 0.591200 0.246600
C17 C 0.767380 0.706700 0.314530
H18 H 0.760900 0.556300 0.330600
C19 C 0.861100 0.837100 0.369140
H20 H 0.829900 0.860500 0.409100
C21 C 0.887800 1.053900 0.341640
H22 H 0.813600 1.141700 0.328400
H23 H 0.948100 1.133300 0.376800
C24 C 0.882800 1.097300 0.126800
C25 C 1.030000 0.928400 0.071430
C26 C 1.052600 0.757000 0.122760
C27 C 0.986700 0.760100 0.168540
H28 H 1.000700 0.649200 0.201400
C29 C 1.147900 0.587200 0.123480
H30 H 1.152400 0.486000 0.160400
H31 H 1.226000 0.657500 0.129700
H32 H 1.126700 0.508800 0.080700
C33 C 0.637900 0.460400 0.187930
C34 C 0.531500 0.428600 0.126540
C35 C 0.474200 0.224500 0.118720
H36 H 0.503700 0.113600 0.150600
C37 C 0.373300 0.186300 0.063550
H38 H 0.333800 0.050800 0.058800
C39 C 0.331600 0.348200 0.015950
H40 H 0.264300 0.321300 -0.021400
C41 C 0.387900 0.549100 0.022730
H42 H 0.359000 0.657900 -0.010000
C43 C 0.488300 0.590500 0.078470
H44 H 0.526400 0.727400 0.083300
C45 C 0.565500 0.719300 0.327580
C46 C 0.449200 0.848500 0.311040
C47 C 0.348600 0.759200 0.327350
H48 H 0.354500 0.623100 0.349000
C49 C 0.238300 0.875000 0.311090
H50 H 0.170300 0.816300 0.322000
C51 C 0.230000 1.073600 0.279420
H52 H 0.155700 1.148400 0.267900
C53 C 0.330400 1.165600 0.264180
H54 H 0.324200 1.302800 0.243200
C55 C 0.440400 1.052200 0.280340
H56 H 0.508600 1.113700 0.270400
C57 C 1.053400 0.766700 0.447710
C58 C 1.168400 0.635400 0.465370
C59 C 1.181400 0.439600 0.433350
H60 H 1.117200 0.386700 0.397800
C61 C 1.289800 0.322400 0.454200
H62 H 1.298700 0.190000 0.433100
C63 C 1.385300 0.404500 0.507110
H64 H 1.458300 0.326100 0.521500
C65 C 1.373000 0.599500 0.538160
H66 H 1.437600 0.653700 0.573200
C67 C 1.265200 0.715200 0.517590
H68 H 1.257000 0.847800 0.538800
O69 O 0.066030 0.517700 0.717130
O70 O 0.305620 0.156100 0.812130
O71 O 0.347860 0.318200 0.696290
O72 O 0.028600 0.202200 0.611440
O73 O 0.182500 0.752200 0.869710
O74 O -0.079090 0.442100 0.975310
O75 O 0.330380 -0.170300 0.766510
O76 O 0.418300 0.050800 0.640840
O77 O -0.035410 0.417600 0.518520
N78 N 0.100380 0.417200 0.829930
N79 N 0.052000 0.587700 0.921670
H80 H 0.064100 0.693700 0.950900
C81 C 0.156500 0.426300 0.772760
H82 H 0.226700 0.526800 0.785100
C83 C 0.200800 0.201800 0.755120
H84 H 0.137100 0.091200 0.753400
C85 C 0.232620 0.206700 0.685470
H86 H 0.239100 0.056300 0.669400
C87 C 0.138900 0.337100 0.630860
H88 H 0.170100 0.360500 0.590900
C89 C 0.112200 0.553900 0.658360
H90 H 0.186400 0.641700 0.671600
H91 H 0.051900 0.633300 0.623200
C92 C 0.117200 0.597300 0.873200
C93 C -0.030000 0.428400 0.928570
C94 C -0.052600 0.257000 0.877240
C95 C 0.013300 0.260100 0.831460
H96 H -0.000700 0.149200 0.798600
C97 C -0.147900 0.087200 0.876520
H98 H -0.152400 -0.014000 0.839600
H99 H -0.226000 0.157500 0.870300
H100 H -0.126700 0.008800 0.919300
C101 C 0.362100 -0.039600 0.812070
C102 C 0.468500 -0.071400 0.873460
C103 C 0.525800 -0.275500 0.881280
H104 H 0.496300 -0.386400 0.849400
C105 C 0.626700 -0.313700 0.936450
H106 H 0.666200 -0.449200 0.941200
C107 C 0.668400 -0.151800 0.984050
H108 H 0.735700 -0.178700 1.021400
C109 C 0.612100 0.049100 0.977270
H110 H 0.641000 0.157900 1.010000
C111 C 0.511700 0.090500 0.921530
H112 H 0.473600 0.227400 0.916700
C113 C 0.434500 0.219300 0.672420
C114 C 0.550800 0.348500 0.688960
C115 C 0.651400 0.259200 0.672650
H116 H 0.645500 0.123100 0.651000
C117 C 0.761700 0.375000 0.688910
H118 H 0.829700 0.316300 0.678000
C119 C 0.770000 0.573600 0.720580
H120 H 0.844300 0.648400 0.732100
C121 C 0.669600 0.665600 0.735820
H122 H 0.675800 0.802800 0.756800
C123 C 0.559600 0.552200 0.719660
H124 H 0.491400 0.613700 0.729600
C125 C -0.053400 0.266700 0.552290
C126 C -0.168400 0.135400 0.534630
C127 C -0.181400 -0.060400 0.566650
H128 H -0.117200 -0.113300 0.602200
C129 C -0.289800 -0.177600 0.545800
H130 H -0.298700 -0.310000 0.566900
C131 C -0.385300 -0.095500 0.492890
H132 H -0.458300 -0.173900 0.478500
C133 C -0.373000 0.099500 0.461840
H134 H -0.437600 0.153700 0.426800
C135 C -0.265200 0.215200 0.482410
H136 H -0.257000 0.347800 0.461200

#END
