./ABUNIU_from_xyz.cif_generated_by_CrystalShift
_symmetry_cell_setting triclinic
_symmetry_space_group_name_H-M 'P 1'
loop_
_symmetry_equiv_pos_site_id
_symmetry_equiv_pos_as_xyz
1 x,y,z
_cell_length_a 8.129500
_cell_length_b 18.044800
_cell_length_c 18.000700
_cell_angle_alpha 75.014000
_cell_angle_beta 81.732000
_cell_angle_gamma 86.523000
_cell_volume 2523.533587
loop_
_atom_site_label
_atom_site_type_symbol
_atom_site_fract_x
_atom_site_fract_y
_atom_site_fract_z
C1 C 0.668700 0.174720 0.445790
O2 O 0.697000 0.416150 0.272500
C3 C 0.695400 0.293730 0.353350
C4 C 0.599900 0.231380 0.391280
C5 C 0.854400 0.300730 0.368010
C6 C 0.825000 0.178650 0.463880
O7 O 1.167200 0.302020 0.403770
N8 N 0.621600 0.356720 0.297520
N9 N 1.082100 0.249590 0.443410
O10 O 0.429500 0.105060 0.470150
C11 C 0.914900 0.242440 0.423640
O12 O 0.488200 0.345990 0.279550
N13 N 0.567500 0.107990 0.488040
O14 O 0.627800 0.059660 0.538550
O15 O 1.123800 0.202830 0.499730
H16 H 0.499000 0.228100 0.381000
H17 H 0.918000 0.344400 0.343200
H18 H 0.864000 0.138700 0.504100
C19 C 0.331300 0.825280 0.554210
O20 O 0.303000 0.583850 0.727500
C21 C 0.304600 0.706270 0.646650
C22 C 0.400100 0.768620 0.608720
C23 C 0.145600 0.699270 0.631990
C24 C 0.175000 0.821350 0.536120
O25 O -0.167200 0.697980 0.596230
N26 N 0.378400 0.643280 0.702480
N27 N -0.082100 0.750410 0.556590
O28 O 0.570500 0.894940 0.529850
C29 C 0.085100 0.757560 0.576360
O30 O 0.511800 0.654010 0.720450
N31 N 0.432500 0.892010 0.511960
O32 O 0.372200 0.940340 0.461450
O33 O -0.123800 0.797170 0.500270
H34 H 0.501000 0.771900 0.619000
H35 H 0.082000 0.655600 0.656800
H36 H 0.136000 0.861300 0.495900
C37 C 0.921600 0.134740 0.268660
C38 C 0.956200 0.207410 0.212000
C39 C 0.726800 0.210430 0.126760
C40 C 0.617300 0.099810 0.094220
C41 C 0.764400 0.100810 0.286160
C42 C 0.751400 0.134560 0.113230
C43 C 1.045400 0.098420 0.315390
C44 C 0.734300 0.034090 0.343370
C45 C 1.101000 0.245130 0.217430
C46 C 0.845100 0.246640 0.158330
C47 C 0.586600 0.254270 0.101740
C48 C 1.009000 0.029330 0.372820
C49 C 0.851200 0.328000 0.135390
C50 C 0.907200 0.096080 0.111290
C51 C 0.455500 0.217900 0.081870
C52 C 1.198800 0.133800 0.308030
C53 C 1.222700 0.204600 0.263280
C54 C 0.582300 0.336060 0.093700
C55 C 0.858700 -0.002040 0.386320
C56 C 0.640300 0.025700 0.082570
C57 C 0.927100 0.025380 0.095430
C58 C 1.117800 0.323700 0.180400
C59 C 0.994200 0.364720 0.146360
C60 C 0.790700 -0.010740 0.083240
C61 C 0.465400 0.143700 0.081910
C62 C 0.716600 0.370290 0.104220
H63 H 1.004000 0.119900 0.118800
H64 H 0.673000 0.125700 0.257900
H65 H 0.621000 0.014600 0.353800
H66 H 1.229000 0.346100 0.185100
H67 H 0.998000 0.417300 0.128600
H68 H 0.485000 0.360100 0.076400
H69 H 0.359000 0.252200 0.065100
H70 H 0.546000 0.003700 0.071500
H71 H 1.290000 0.105100 0.340800
H72 H 0.378000 0.113400 0.072000
H73 H 1.324000 0.228900 0.262200
H74 H 1.102000 0.006800 0.402900
H75 H 0.806000 -0.060200 0.075600
H76 H 0.725000 0.428500 0.090900
H77 H 0.834000 -0.050700 0.426900
H78 H 1.045000 0.004900 0.094400
C79 C 0.078400 0.865260 0.731340
C80 C 0.043800 0.792590 0.788000
C81 C 0.273200 0.789570 0.873240
C82 C 0.382700 0.900190 0.905780
C83 C 0.235600 0.899190 0.713840
C84 C 0.248600 0.865440 0.886770
C85 C -0.045400 0.901580 0.684610
C86 C 0.265700 0.965910 0.656630
C87 C -0.101000 0.754870 0.782570
C88 C 0.154900 0.753360 0.841670
C89 C 0.413400 0.745730 0.898260
C90 C -0.009000 0.970670 0.627180
C91 C 0.148800 0.672000 0.864610
C92 C 0.092800 0.903920 0.888710
C93 C 0.544500 0.782100 0.918130
C94 C -0.198800 0.866200 0.691970
C95 C -0.222700 0.795400 0.736720
C96 C 0.417700 0.663940 0.906300
C97 C 0.141300 1.002040 0.613680
C98 C 0.359700 0.974300 0.917430
C99 C 0.072900 0.974620 0.904570
C100 C -0.117800 0.676300 0.819600
C101 C 0.005800 0.635280 0.853640
C102 C 0.209300 1.010740 0.916760
C103 C 0.534600 0.856300 0.918090
C104 C 0.283400 0.629710 0.895780
H105 H -0.004000 0.880100 0.881200
H106 H 0.327000 0.874300 0.742100
H107 H 0.379000 0.985400 0.646200
H108 H -0.229000 0.653900 0.814900
H109 H 0.002000 0.582700 0.871400
H110 H 0.515000 0.639900 0.923600
H111 H 0.641000 0.747800 0.934900
H112 H 0.454000 0.996300 0.928500
H113 H -0.290000 0.894900 0.659200
H114 H 0.622000 0.886600 0.928000
H115 H -0.324000 0.771100 0.737800
H116 H -0.102000 0.993200 0.597100
H117 H 0.194000 1.060200 0.924400
H118 H 0.275000 0.571500 0.909100
H119 H 0.166000 1.050700 0.573100
H120 H -0.045000 0.995100 0.905600
C121 C 0.712300 0.326680 0.567530
C122 C 0.883600 0.360660 0.709610
C123 C 0.721300 0.391850 0.703630
C124 C 1.000400 0.407460 0.727280
C125 C 0.703900 0.257260 0.630320
C126 C 0.680400 0.464880 0.709150
C127 C 0.931900 0.282940 0.705620
C128 C 0.828500 0.233110 0.681820
C129 C 0.858300 0.368640 0.538820
C130 C 0.862100 0.432800 0.478060
C131 C 0.571600 0.350820 0.528560
C132 C 1.081400 0.252480 0.735130
C133 C 0.577400 0.418850 0.468520
C134 C 0.851700 0.152820 0.713270
C135 C 0.952800 0.482580 0.731500
C136 C 0.572600 0.207490 0.637250
C137 C 1.194900 0.302500 0.750570
C138 C 0.435000 0.233300 0.596720
C139 C 0.718200 0.458900 0.444080
C140 C 1.114500 0.172800 0.752040
C141 C 0.429000 0.303000 0.547620
C142 C 1.158300 0.376600 0.744650
C143 C 0.585200 0.129480 0.682820
C144 C 0.798200 0.511620 0.721650
C145 C 0.724400 0.102990 0.713290
C146 C 0.999300 0.125300 0.746320
H147 H 0.635000 0.359500 0.700200
H148 H 0.958000 0.350400 0.562200
H149 H 1.036000 0.512100 0.742600
H150 H 1.301000 0.279700 0.765900
H151 H 0.573000 0.483400 0.706300
H152 H 0.965000 0.457300 0.459100
H153 H 0.341000 0.196300 0.606900
H154 H 0.340000 0.319300 0.521900
H155 H 1.013000 0.072900 0.762700
H156 H 0.476000 0.433700 0.446200
H157 H 0.490000 0.101300 0.684500
H158 H 0.764000 0.565500 0.724800
H159 H 0.718000 0.504200 0.405600
H160 H 1.241000 0.411900 0.757400
H161 H 1.226000 0.152900 0.771000
H162 H 0.749000 0.047600 0.741100
C163 C 0.287700 0.673320 0.432470
C164 C 0.116400 0.639340 0.290390
C165 C 0.278700 0.608150 0.296370
C166 C -0.000400 0.592540 0.272720
C167 C 0.296100 0.742740 0.369680
C168 C 0.319600 0.535120 0.290850
C169 C 0.068100 0.717060 0.294380
C170 C 0.171500 0.766890 0.318180
C171 C 0.141700 0.631360 0.461180
C172 C 0.137900 0.567200 0.521940
C173 C 0.428400 0.649180 0.471440
C174 C -0.081400 0.747520 0.264870
C175 C 0.422600 0.581150 0.531480
C176 C 0.148300 0.847180 0.286730
C177 C 0.047200 0.517420 0.268500
C178 C 0.427400 0.792510 0.362750
C179 C -0.194900 0.697500 0.249430
C180 C 0.565000 0.766700 0.403280
C181 C 0.281800 0.541100 0.555920
C182 C -0.114500 0.827200 0.247960
C183 C 0.571000 0.697000 0.452380
C184 C -0.158300 0.623400 0.255350
C185 C 0.414800 0.870520 0.317180
C186 C 0.201800 0.488380 0.278350
C187 C 0.275600 0.897010 0.286710
C188 C 0.000700 0.874700 0.253680
H189 H 0.365000 0.640500 0.299800
H190 H 0.042000 0.649600 0.437800
H191 H -0.036000 0.487900 0.257400
H192 H -0.301000 0.720300 0.234100
H193 H 0.427000 0.516600 0.293700
H194 H 0.035000 0.542700 0.540900
H195 H 0.659000 0.803700 0.393100
H196 H 0.660000 0.680700 0.478100
H197 H -0.013000 0.927100 0.237300
H198 H 0.524000 0.566300 0.553800
H199 H 0.510000 0.898700 0.315500
H200 H 0.236000 0.434500 0.275200
H201 H 0.282000 0.495800 0.594400
H202 H -0.241000 0.588100 0.242600
H203 H -0.226000 0.847100 0.229000
H204 H 0.251000 0.952400 0.258900
C205 C 0.695200 0.239030 0.897720
C206 C 0.926400 0.288480 0.928980
O207 O 0.683500 0.110990 0.898750
N208 N 0.613300 0.173480 0.883790
C209 C 0.688600 0.367000 0.904990
C210 C 0.853200 0.227480 0.916970
C211 C 0.609100 0.307750 0.891830
O212 O 0.482500 0.186210 0.857790
C213 C 0.849000 0.359290 0.922940
N214 N 0.597200 0.440780 0.901970
N215 N 1.097100 0.277620 0.950740
O216 O 1.162100 0.332980 0.957820
O217 O 0.455900 0.445240 0.886810
O218 O 1.160600 0.213220 0.958950
O219 O 0.672000 0.491940 0.915480
H220 H 0.905000 0.176600 0.922700
H221 H 0.502000 0.314100 0.881100
H222 H 0.899000 0.401400 0.931500
C223 C 0.304800 0.760970 0.102280
C224 C 0.073600 0.711520 0.071020
O225 O 0.316500 0.889010 0.101250
N226 N 0.386700 0.826520 0.116210
C227 C 0.311400 0.633000 0.095010
C228 C 0.146800 0.772520 0.083030
C229 C 0.390900 0.692250 0.108170
O230 O 0.517500 0.813790 0.142210
C231 C 0.151000 0.640710 0.077060
N232 N 0.402800 0.559220 0.098030
N233 N -0.097100 0.722380 0.049260
O234 O -0.162100 0.667020 0.042180
O235 O 0.544100 0.554760 0.113190
O236 O -0.160600 0.786780 0.041050
O237 O 0.328000 0.508060 0.084520
H238 H 0.095000 0.823400 0.077300
H239 H 0.498000 0.685900 0.118900
H240 H 0.101000 0.598600 0.068500

#END
