
#######################################################################
#
#                 Cambridge Crystallographic Data Centre
#                                CCDC 
#
#######################################################################
#
# If this CIF has been generated from an entry in the Cambridge 
# Structural Database, then it will include bibliographic, chemical, 
# crystal, experimental, refinement or atomic coordinate data resulting 
# from the CCDC's data processing and validation procedures.
#
#######################################################################

data_ABUPUI
_symmetry_cell_setting           triclinic
_symmetry_space_group_name_H-M   'P -1'
_symmetry_Int_Tables_number      2
_space_group_name_Hall           '-P 1'
loop_
_symmetry_equiv_pos_site_id
_symmetry_equiv_pos_as_xyz
1 x,y,z
2 -x,-y,-z
_cell_length_a                   4.9043(9)
_cell_length_b                   8.6742(9)
_cell_length_c                   12.3861(18)
_cell_angle_alpha                73.541(10)
_cell_angle_beta                 79.938(13)
_cell_angle_gamma                83.848(11)
_cell_volume                     496.623
loop_
_atom_site_label
_atom_site_type_symbol
_atom_site_fract_x
_atom_site_fract_y
_atom_site_fract_z
S1 S 0.31282(10) 0.49527(6) 0.20340(4)
C1 C 0.0431(4) 0.5117(2) 0.31063(17)
C2 C 0.0260(4) 0.6553(2) 0.33761(18)
C3 C 0.2429(4) 0.7549(3) 0.2707(2)
C4 C 0.4075(4) 0.6847(3) 0.19472(19)
O1 O -0.1599(3) 0.7074(2) 0.41373(15)
H1 H -0.2712 0.6384 0.4452
O2 O 0.2658(4) 0.9011(2) 0.28364(18)
H2 H 0.3961 0.9441 0.2380
C5 C -0.1464(4) 0.3836(2) 0.36867(17)
O3 O -0.3377(3) 0.40202(19) 0.44003(14)
O4 O -0.0850(3) 0.25123(19) 0.33450(15)
C6 C -0.2695(6) 0.1223(3) 0.3896(3)
H3 H -0.2099 0.0315 0.3597
H4 H -0.4550 0.1588 0.3754
H5 H -0.2657 0.0914 0.4702
C7 C 0.6333(4) 0.7675(3) 0.1128(2)
O5 O 0.6941(4) 0.8988(2) 0.11308(18)
O6 O 0.7570(4) 0.6855(2) 0.04065(15)
C8 C 0.9815(6) 0.7603(4) -0.0447(2)
H6 H 1.0548 0.6899 -0.0916
H7 H 1.1254 0.7801 -0.0077
H8 H 0.9125 0.8604 -0.0911
S1 S 0.68718(10) 0.50473(6) 0.79660(4)
C1 C 0.9569(4) 0.4883(2) 0.68937(17)
C2 C 0.9740(4) 0.3447(2) 0.66239(18)
C3 C 0.7571(4) 0.2451(3) 0.7293(2)
C4 C 0.5925(4) 0.3153(3) 0.80528(19)
O1 O 1.1599(3) 0.2926(2) 0.58627(15)
H1 H 1.2712 0.3616 0.5548
O2 O 0.7342(4) 0.0989(2) 0.71636(18)
H2 H 0.6039 0.0559 0.7620
C5 C 1.1464(4) 0.6164(2) 0.63133(17)
O3 O 1.3377(3) 0.59798(19) 0.55997(14)
O4 O 1.0850(3) 0.74877(19) 0.66550(15)
C6 C 1.2695(6) 0.8777(3) 0.6104(3)
H3 H 1.2099 0.9685 0.6403
H4 H 1.4550 0.8412 0.6246
H5 H 1.2657 0.9086 0.5298
C7 C 0.3667(4) 0.2325(3) 0.8872(2)
O5 O 0.3059(4) 0.1012(2) 0.88692(18)
O6 O 0.2430(4) 0.3145(2) 0.95935(15)
C8 C 0.0185(6) 0.2397(4) 1.0447(2)
H6 H -0.0548 0.3101 1.0916
H7 H -0.1254 0.2199 1.0077
H8 H 0.0875 0.1396 1.0911

#END
