
#######################################################################
#
#                 Cambridge Crystallographic Data Centre
#                                CCDC 
#
#######################################################################
#
# If this CIF has been generated from an entry in the Cambridge 
# Structural Database, then it will include bibliographic, chemical, 
# crystal, experimental, refinement or atomic coordinate data resulting 
# from the CCDC's data processing and validation procedures.
#
#######################################################################

data_ABURUK
_symmetry_cell_setting           monoclinic
_symmetry_space_group_name_H-M   'P 21/n'
_symmetry_Int_Tables_number      14
_space_group_name_Hall           '-P 2yn'
loop_
_symmetry_equiv_pos_site_id
_symmetry_equiv_pos_as_xyz
1 x,y,z
2 1/2+x,1/2-y,1/2+z
3 -x,-y,-z
4 1/2-x,1/2+y,1/2-z
_cell_length_a                   9.2727(9)
_cell_length_b                   10.0655(4)
_cell_length_c                   39.518(5)
_cell_angle_alpha                90
_cell_angle_beta                 96.140(5)
_cell_angle_gamma                90
_cell_volume                     3667.23
loop_
_atom_site_label
_atom_site_type_symbol
_atom_site_fract_x
_atom_site_fract_y
_atom_site_fract_z
N1 N 0.98557(17) 0.25000(17) 0.56396(4)
C1 C 0.9969(2) 0.3510(2) 0.58849(5)
H1 H 1.0411 0.3415 0.6106
C2 C 0.93511(19) 0.4635(2) 0.57557(4)
C3 C 0.88273(19) 0.4359(2) 0.54022(5)
C4 C 0.8131(2) 0.5136(2) 0.51413(5)
H2 H 0.7870 0.6009 0.5181
C5 C 0.7842(3) 0.4579(3) 0.48234(6)
H3 H 0.7381 0.5086 0.4647
C6 C 0.8225(3) 0.3276(3) 0.47610(6)
H4 H 0.8019 0.2932 0.4543
C7 C 0.8899(2) 0.2479(2) 0.50125(5)
H5 H 0.9151 0.1605 0.4970
C8 C 0.91846(19) 0.3048(2) 0.53337(5)
C9 C 0.9276(2) 0.5908(2) 0.59397(5)
C10 C 1.0402(3) 0.6311(3) 0.61498(7)
H6 H 1.1236 0.5793 0.6181
H7 H 1.0357 0.7111 0.6266
C11 C 0.7931(2) 0.6706(2) 0.58846(5)
C12 C 0.6581(2) 0.6104(3) 0.58484(6)
H8 H 0.6514 0.5182 0.5853
C13 C 0.5326(3) 0.6864(4) 0.58060(7)
H9 H 0.4423 0.6451 0.5783
C14 C 0.5415(4) 0.8225(4) 0.57974(7)
H10 H 0.4574 0.8734 0.5768
C15 C 0.6731(5) 0.8828(3) 0.58322(8)
H11 H 0.6786 0.9750 0.5827
C16 C 0.7989(3) 0.8086(2) 0.58750(6)
H12 H 0.8883 0.8514 0.5898
S1 S 1.07955(5) 0.11020(5) 0.568494(12)
O1 O 1.09408(18) 0.08233(17) 0.60404(4)
O2 O 1.00905(18) 0.01828(16) 0.54479(4)
C17 C 1.2503(2) 0.1496(2) 0.55601(5)
C18 C 1.3563(2) 0.1990(2) 0.58022(5)
H13 H 1.3377 0.2085 0.6028
C19 C 1.4893(3) 0.2336(3) 0.57045(7)
H14 H 1.5615 0.2665 0.5864
C20 C 1.5152(3) 0.2196(3) 0.53706(7)
H15 H 1.6049 0.2438 0.5305
C21 C 1.4101(3) 0.1703(3) 0.51338(7)
H16 H 1.4293 0.1613 0.4909
C22 C 1.2760(3) 0.1338(3) 0.52248(5)
H17 H 1.2050 0.0994 0.5065
N1 N 0.48557(17) 0.25000(17) 0.06396(4)
C1 C 0.4969(2) 0.1490(2) 0.08849(5)
H1 H 0.5411 0.1585 0.1106
C2 C 0.43511(19) 0.0365(2) 0.07557(4)
C3 C 0.38273(19) 0.0641(2) 0.04022(5)
C4 C 0.3131(2) -0.0136(2) 0.01413(5)
H2 H 0.2870 -0.1009 0.0181
C5 C 0.2842(3) 0.0421(3) -0.01766(6)
H3 H 0.2381 -0.0086 -0.0353
C6 C 0.3225(3) 0.1724(3) -0.02390(6)
H4 H 0.3019 0.2068 -0.0457
C7 C 0.3899(2) 0.2521(2) 0.00125(5)
H5 H 0.4151 0.3395 -0.0030
C8 C 0.41846(19) 0.1952(2) 0.03337(5)
C9 C 0.4276(2) -0.0908(2) 0.09397(5)
C10 C 0.5402(3) -0.1311(3) 0.11498(7)
H6 H 0.6236 -0.0793 0.1181
H7 H 0.5357 -0.2111 0.1266
C11 C 0.2931(2) -0.1706(2) 0.08846(5)
C12 C 0.1581(2) -0.1104(3) 0.08484(6)
H8 H 0.1514 -0.0182 0.0853
C13 C 0.0326(3) -0.1864(4) 0.08060(7)
H9 H -0.0577 -0.1451 0.0783
C14 C 0.0415(4) -0.3225(4) 0.07974(7)
H10 H -0.0426 -0.3734 0.0768
C15 C 0.1731(5) -0.3828(3) 0.08322(8)
H11 H 0.1786 -0.4750 0.0827
C16 C 0.2989(3) -0.3086(2) 0.08750(6)
H12 H 0.3883 -0.3514 0.0898
S1 S 0.57955(5) 0.38980(5) 0.068494(12)
O1 O 0.59408(18) 0.41767(17) 0.10404(4)
O2 O 0.50905(18) 0.48172(16) 0.04479(4)
C17 C 0.7503(2) 0.3504(2) 0.05601(5)
C18 C 0.8563(2) 0.3010(2) 0.08022(5)
H13 H 0.8377 0.2915 0.1028
C19 C 0.9893(3) 0.2664(3) 0.07045(7)
H14 H 1.0615 0.2335 0.0864
C20 C 1.0152(3) 0.2804(3) 0.03706(7)
H15 H 1.1049 0.2562 0.0305
C21 C 0.9101(3) 0.3297(3) 0.01338(7)
H16 H 0.9293 0.3387 -0.0091
C22 C 0.7760(3) 0.3662(3) 0.02248(5)
H17 H 0.7050 0.4006 0.0065
N1 N 0.01443(17) 0.75000(17) 0.43604(4)
C1 C 0.0031(2) 0.6490(2) 0.41151(5)
H1 H -0.0411 0.6585 0.3894
C2 C 0.06489(19) 0.5365(2) 0.42443(4)
C3 C 0.11727(19) 0.5641(2) 0.45978(5)
C4 C 0.1869(2) 0.4864(2) 0.48587(5)
H2 H 0.2130 0.3991 0.4819
C5 C 0.2158(3) 0.5421(3) 0.51766(6)
H3 H 0.2619 0.4914 0.5353
C6 C 0.1775(3) 0.6724(3) 0.52390(6)
H4 H 0.1981 0.7068 0.5457
C7 C 0.1101(2) 0.7521(2) 0.49875(5)
H5 H 0.0849 0.8395 0.5030
C8 C 0.08154(19) 0.6952(2) 0.46663(5)
C9 C 0.0724(2) 0.4092(2) 0.40603(5)
C10 C -0.0402(3) 0.3689(3) 0.38502(7)
H6 H -0.1236 0.4207 0.3819
H7 H -0.0357 0.2889 0.3734
C11 C 0.2069(2) 0.3294(2) 0.41154(5)
C12 C 0.3419(2) 0.3896(3) 0.41516(6)
H8 H 0.3486 0.4818 0.4147
C13 C 0.4674(3) 0.3136(4) 0.41940(7)
H9 H 0.5577 0.3549 0.4217
C14 C 0.4585(4) 0.1775(4) 0.42026(7)
H10 H 0.5426 0.1266 0.4232
C15 C 0.3269(5) 0.1172(3) 0.41678(8)
H11 H 0.3214 0.0250 0.4173
C16 C 0.2011(3) 0.1914(2) 0.41250(6)
H12 H 0.1117 0.1486 0.4102
S1 S -0.07955(5) 0.88980(5) 0.431506(12)
O1 O -0.09408(18) 0.91767(17) 0.39596(4)
O2 O -0.00905(18) 0.98172(16) 0.45521(4)
C17 C -0.2503(2) 0.8504(2) 0.44399(5)
C18 C -0.3563(2) 0.8010(2) 0.41978(5)
H13 H -0.3377 0.7915 0.3972
C19 C -0.4893(3) 0.7664(3) 0.42955(7)
H14 H -0.5615 0.7335 0.4136
C20 C -0.5152(3) 0.7804(3) 0.46294(7)
H15 H -0.6049 0.7562 0.4695
C21 C -0.4101(3) 0.8297(3) 0.48662(7)
H16 H -0.4293 0.8387 0.5091
C22 C -0.2760(3) 0.8662(3) 0.47752(5)
H17 H -0.2050 0.9006 0.4935
N1 N 0.51443(17) 0.75000(17) 0.93604(4)
C1 C 0.5031(2) 0.8510(2) 0.91151(5)
H1 H 0.4589 0.8415 0.8894
C2 C 0.56489(19) 0.9635(2) 0.92443(4)
C3 C 0.61727(19) 0.9359(2) 0.95978(5)
C4 C 0.6869(2) 1.0136(2) 0.98587(5)
H2 H 0.7130 1.1009 0.9819
C5 C 0.7158(3) 0.9579(3) 1.01766(6)
H3 H 0.7619 1.0086 1.0353
C6 C 0.6775(3) 0.8276(3) 1.02390(6)
H4 H 0.6981 0.7932 1.0457
C7 C 0.6101(2) 0.7479(2) 0.99875(5)
H5 H 0.5849 0.6605 1.0030
C8 C 0.58154(19) 0.8048(2) 0.96663(5)
C9 C 0.5724(2) 1.0908(2) 0.90603(5)
C10 C 0.4598(3) 1.1311(3) 0.88502(7)
H6 H 0.3764 1.0793 0.8819
H7 H 0.4643 1.2111 0.8734
C11 C 0.7069(2) 1.1706(2) 0.91154(5)
C12 C 0.8419(2) 1.1104(3) 0.91516(6)
H8 H 0.8486 1.0182 0.9147
C13 C 0.9674(3) 1.1864(4) 0.91940(7)
H9 H 1.0577 1.1451 0.9217
C14 C 0.9585(4) 1.3225(4) 0.92026(7)
H10 H 1.0426 1.3734 0.9232
C15 C 0.8269(5) 1.3828(3) 0.91678(8)
H11 H 0.8214 1.4750 0.9173
C16 C 0.7011(3) 1.3086(2) 0.91250(6)
H12 H 0.6117 1.3514 0.9102
S1 S 0.42045(5) 0.61020(5) 0.931506(12)
O1 O 0.40592(18) 0.58233(17) 0.89596(4)
O2 O 0.49095(18) 0.51828(16) 0.95521(4)
C17 C 0.2497(2) 0.6496(2) 0.94399(5)
C18 C 0.1437(2) 0.6990(2) 0.91978(5)
H13 H 0.1623 0.7085 0.8972
C19 C 0.0107(3) 0.7336(3) 0.92955(7)
H14 H -0.0615 0.7665 0.9136
C20 C -0.0152(3) 0.7196(3) 0.96294(7)
H15 H -0.1049 0.7438 0.9695
C21 C 0.0899(3) 0.6703(3) 0.98662(7)
H16 H 0.0707 0.6613 1.0091
C22 C 0.2240(3) 0.6338(3) 0.97752(5)
H17 H 0.2950 0.5994 0.9935
N2 N 0.36623(17) 0.26612(16) 0.67028(4)
C23 C 0.3274(2) 0.13184(19) 0.67365(5)
H18 H 0.2360 0.1021 0.6778
C24 C 0.4413(2) 0.05297(19) 0.66996(4)
C25 C 0.5157(2) 0.27008(19) 0.66575(4)
C26 C 0.6063(2) 0.3762(2) 0.66060(5)
H19 H 0.5736 0.4635 0.6610
C27 C 0.7467(2) 0.3468(2) 0.65481(5)
H20 H 0.8102 0.4160 0.6515
C28 C 0.7961(2) 0.2166(2) 0.65381(6)
H21 H 0.8915 0.2002 0.6497
C29 C 0.7055(2) 0.1112(2) 0.65879(5)
H22 H 0.7387 0.0242 0.6579
C30 C 0.5632(2) 0.13764(18) 0.66514(4)
C31 C 0.4434(2) -0.09377(19) 0.66918(5)
C32 C 0.3500(2) -0.1618(2) 0.64817(6)
H23 H 0.2813 -0.1172 0.6335
H24 H 0.3532 -0.2542 0.6481
C33 C 0.5566(2) -0.16030(19) 0.69314(5)
C34 C 0.5742(3) -0.1237(2) 0.72727(6)
H25 H 0.5167 -0.0569 0.7350
C35 C 0.6770(4) -0.1865(3) 0.74980(7)
H26 H 0.6873 -0.1622 0.7726
C36 C 0.7629(3) -0.2835(3) 0.73880(8)
H27 H 0.8314 -0.3254 0.7541
C37 C 0.7483(3) -0.3195(3) 0.70500(8)
H28 H 0.8078 -0.3851 0.6975
C38 C 0.6454(3) -0.2585(2) 0.68220(6)
H29 H 0.6358 -0.2837 0.6594
S2 S 0.27552(5) 0.38839(5) 0.686553(14)
O3 O 0.12829(16) 0.34494(19) 0.68344(5)
O4 O 0.31523(19) 0.50769(16) 0.67046(4)
C39 C 0.3436(2) 0.3934(2) 0.72963(5)
C40 C 0.3023(3) 0.2961(3) 0.75145(6)
H30 H 0.2376 0.2298 0.7435
C41 C 0.3583(3) 0.2992(3) 0.78494(7)
H31 H 0.3318 0.2342 0.7998
C42 C 0.4534(3) 0.3974(3) 0.79676(7)
H32 H 0.4907 0.3984 0.8196
C43 C 0.4936(3) 0.4936(3) 0.77527(6)
H33 H 0.5575 0.5601 0.7836
C44 C 0.4397(2) 0.4927(2) 0.74122(6)
H34 H 0.4674 0.5575 0.7264
N2 N -0.13377(17) 0.23388(16) 0.17028(4)
C23 C -0.1726(2) 0.36816(19) 0.17365(5)
H18 H -0.2640 0.3979 0.1778
C24 C -0.0587(2) 0.44703(19) 0.16996(4)
C25 C 0.0157(2) 0.22992(19) 0.16575(4)
C26 C 0.1063(2) 0.1238(2) 0.16060(5)
H19 H 0.0736 0.0365 0.1610
C27 C 0.2467(2) 0.1532(2) 0.15481(5)
H20 H 0.3102 0.0840 0.1515
C28 C 0.2961(2) 0.2834(2) 0.15381(6)
H21 H 0.3915 0.2998 0.1497
C29 C 0.2055(2) 0.3888(2) 0.15879(5)
H22 H 0.2387 0.4758 0.1579
C30 C 0.0632(2) 0.36236(18) 0.16514(4)
C31 C -0.0566(2) 0.59377(19) 0.16918(5)
C32 C -0.1500(2) 0.6618(2) 0.14817(6)
H23 H -0.2187 0.6172 0.1335
H24 H -0.1468 0.7542 0.1481
C33 C 0.0566(2) 0.66030(19) 0.19314(5)
C34 C 0.0742(3) 0.6237(2) 0.22727(6)
H25 H 0.0167 0.5569 0.2350
C35 C 0.1770(4) 0.6865(3) 0.24980(7)
H26 H 0.1873 0.6622 0.2726
C36 C 0.2629(3) 0.7835(3) 0.23880(8)
H27 H 0.3314 0.8254 0.2541
C37 C 0.2483(3) 0.8195(3) 0.20500(8)
H28 H 0.3078 0.8851 0.1975
C38 C 0.1454(3) 0.7585(2) 0.18220(6)
H29 H 0.1358 0.7837 0.1594
S2 S -0.22448(5) 0.11161(5) 0.186553(14)
O3 O -0.37171(16) 0.15506(19) 0.18344(5)
O4 O -0.18477(19) -0.00769(16) 0.17046(4)
C39 C -0.1564(2) 0.1066(2) 0.22963(5)
C40 C -0.1977(3) 0.2039(3) 0.25145(6)
H30 H -0.2624 0.2702 0.2435
C41 C -0.1417(3) 0.2008(3) 0.28494(7)
H31 H -0.1682 0.2658 0.2998
C42 C -0.0466(3) 0.1026(3) 0.29676(7)
H32 H -0.0093 0.1016 0.3196
C43 C -0.0064(3) 0.0064(3) 0.27527(6)
H33 H 0.0575 -0.0601 0.2836
C44 C -0.0603(2) 0.0073(2) 0.24122(6)
H34 H -0.0326 -0.0575 0.2264
N2 N 0.63377(17) 0.73388(16) 0.32972(4)
C23 C 0.6726(2) 0.86816(19) 0.32635(5)
H18 H 0.7640 0.8979 0.3222
C24 C 0.5587(2) 0.94703(19) 0.33004(4)
C25 C 0.4843(2) 0.72992(19) 0.33425(4)
C26 C 0.3937(2) 0.6238(2) 0.33940(5)
H19 H 0.4264 0.5365 0.3390
C27 C 0.2533(2) 0.6532(2) 0.34519(5)
H20 H 0.1898 0.5840 0.3485
C28 C 0.2039(2) 0.7834(2) 0.34619(6)
H21 H 0.1085 0.7998 0.3503
C29 C 0.2945(2) 0.8888(2) 0.34121(5)
H22 H 0.2613 0.9758 0.3421
C30 C 0.4368(2) 0.86236(18) 0.33486(4)
C31 C 0.5566(2) 1.09377(19) 0.33082(5)
C32 C 0.6500(2) 1.1618(2) 0.35183(6)
H23 H 0.7187 1.1172 0.3665
H24 H 0.6468 1.2542 0.3519
C33 C 0.4434(2) 1.16030(19) 0.30686(5)
C34 C 0.4258(3) 1.1237(2) 0.27273(6)
H25 H 0.4833 1.0569 0.2650
C35 C 0.3230(4) 1.1865(3) 0.25020(7)
H26 H 0.3127 1.1622 0.2274
C36 C 0.2371(3) 1.2835(3) 0.26120(8)
H27 H 0.1686 1.3254 0.2459
C37 C 0.2517(3) 1.3195(3) 0.29500(8)
H28 H 0.1922 1.3851 0.3025
C38 C 0.3546(3) 1.2585(2) 0.31780(6)
H29 H 0.3642 1.2837 0.3406
S2 S 0.72448(5) 0.61161(5) 0.313447(14)
O3 O 0.87171(16) 0.65506(19) 0.31656(5)
O4 O 0.68477(19) 0.49231(16) 0.32954(4)
C39 C 0.6564(2) 0.6066(2) 0.27037(5)
C40 C 0.6977(3) 0.7039(3) 0.24855(6)
H30 H 0.7624 0.7702 0.2565
C41 C 0.6417(3) 0.7008(3) 0.21506(7)
H31 H 0.6682 0.7658 0.2002
C42 C 0.5466(3) 0.6026(3) 0.20324(7)
H32 H 0.5093 0.6016 0.1804
C43 C 0.5064(3) 0.5064(3) 0.22473(6)
H33 H 0.4425 0.4399 0.2164
C44 C 0.5603(2) 0.5073(2) 0.25878(6)
H34 H 0.5326 0.4425 0.2736
N2 N 1.13377(17) 0.76612(16) 0.82972(4)
C23 C 1.1726(2) 0.63184(19) 0.82635(5)
H18 H 1.2640 0.6021 0.8222
C24 C 1.0587(2) 0.55297(19) 0.83004(4)
C25 C 0.9843(2) 0.77008(19) 0.83425(4)
C26 C 0.8937(2) 0.8762(2) 0.83940(5)
H19 H 0.9264 0.9635 0.8390
C27 C 0.7533(2) 0.8468(2) 0.84519(5)
H20 H 0.6898 0.9160 0.8485
C28 C 0.7039(2) 0.7166(2) 0.84619(6)
H21 H 0.6085 0.7002 0.8503
C29 C 0.7945(2) 0.6112(2) 0.84121(5)
H22 H 0.7613 0.5242 0.8421
C30 C 0.9368(2) 0.63764(18) 0.83486(4)
C31 C 1.0566(2) 0.40623(19) 0.83082(5)
C32 C 1.1500(2) 0.3382(2) 0.85183(6)
H23 H 1.2187 0.3828 0.8665
H24 H 1.1468 0.2458 0.8519
C33 C 0.9434(2) 0.33970(19) 0.80686(5)
C34 C 0.9258(3) 0.3763(2) 0.77273(6)
H25 H 0.9833 0.4431 0.7650
C35 C 0.8230(4) 0.3135(3) 0.75020(7)
H26 H 0.8127 0.3378 0.7274
C36 C 0.7371(3) 0.2165(3) 0.76120(8)
H27 H 0.6686 0.1746 0.7459
C37 C 0.7517(3) 0.1805(3) 0.79500(8)
H28 H 0.6922 0.1149 0.8025
C38 C 0.8546(3) 0.2415(2) 0.81780(6)
H29 H 0.8642 0.2163 0.8406
S2 S 1.22448(5) 0.88839(5) 0.813447(14)
O3 O 1.37171(16) 0.84494(19) 0.81656(5)
O4 O 1.18477(19) 1.00769(16) 0.82954(4)
C39 C 1.1564(2) 0.8934(2) 0.77037(5)
C40 C 1.1977(3) 0.7961(3) 0.74855(6)
H30 H 1.2624 0.7298 0.7565
C41 C 1.1417(3) 0.7992(3) 0.71506(7)
H31 H 1.1682 0.7342 0.7002
C42 C 1.0466(3) 0.8974(3) 0.70324(7)
H32 H 1.0093 0.8984 0.6804
C43 C 1.0064(3) 0.9936(3) 0.72473(6)
H33 H 0.9425 1.0601 0.7164
C44 C 1.0603(2) 0.9927(2) 0.75878(6)
H34 H 1.0326 1.0575 0.7736

#END
