
#######################################################################
#
#                 Cambridge Crystallographic Data Centre
#                                CCDC 
#
#######################################################################
#
# If this CIF has been generated from an entry in the Cambridge 
# Structural Database, then it will include bibliographic, chemical, 
# crystal, experimental, refinement or atomic coordinate data resulting 
# from the CCDC's data processing and validation procedures.
#
#######################################################################

data_ABUSIZ
_symmetry_cell_setting           triclinic
_symmetry_space_group_name_H-M   'P -1'
_symmetry_Int_Tables_number      2
_space_group_name_Hall           '-P 1'
loop_
_symmetry_equiv_pos_site_id
_symmetry_equiv_pos_as_xyz
1 x,y,z
2 -x,-y,-z
_cell_length_a                   8.4744(19)
_cell_length_b                   9.446(2)
_cell_length_c                   11.432(2)
_cell_angle_alpha                85.66(2)
_cell_angle_beta                 78.058(16)
_cell_angle_gamma                72.91(2)
_cell_volume                     855.675
loop_
_atom_site_label
_atom_site_type_symbol
_atom_site_fract_x
_atom_site_fract_y
_atom_site_fract_z
N1 N 0.27769(14) 0.49898(13) 0.15345(10)
C1 C 0.42134(17) 0.45822(17) 0.19689(12)
H1 H 0.4553 0.3732 0.2427
C2 C 0.51024(17) 0.55995(17) 0.16396(12)
C3 C 0.41395(17) 0.67147(15) 0.09325(12)
C4 C 0.4361(2) 0.80018(19) 0.03251(17)
H2 H 0.5301 0.8312 0.0342
C5 C 0.3164(3) 0.8793(2) -0.0295(2)
H3 H 0.3299 0.9654 -0.0701
C6 C 0.1752(3) 0.8356(2) -0.03397(18)
H4 H 0.0975 0.8919 -0.0783
C7 C 0.1479(2) 0.71046(18) 0.02602(15)
H5 H 0.0524 0.6816 0.0247
C8 C 0.26991(16) 0.62961(15) 0.08857(12)
C9 C 0.1558(2) 0.4158(2) 0.16436(19)
H6 H 0.0489 0.4674 0.1835
H7 H 0.1850 0.3254 0.2200
H8 H 0.1547 0.3774 0.0884
C10 C 0.6700(2) 0.5479(2) 0.19363(17)
H9 H 0.7146 0.4670 0.2405
O1 O 0.75161(17) 0.63536(18) 0.16212(15)
N1 N 0.72231(14) 0.50102(13) 0.84655(10)
C1 C 0.57866(17) 0.54178(17) 0.80311(12)
H1 H 0.5447 0.6268 0.7573
C2 C 0.48976(17) 0.44005(17) 0.83604(12)
C3 C 0.58605(17) 0.32853(15) 0.90675(12)
C4 C 0.5639(2) 0.19982(19) 0.96749(17)
H2 H 0.4699 0.1688 0.9658
C5 C 0.6836(3) 0.1207(2) 1.0295(2)
H3 H 0.6701 0.0346 1.0701
C6 C 0.8248(3) 0.1644(2) 1.03397(18)
H4 H 0.9025 0.1081 1.0783
C7 C 0.8521(2) 0.28954(18) 0.97398(15)
H5 H 0.9476 0.3184 0.9753
C8 C 0.73009(16) 0.37039(15) 0.91143(12)
C9 C 0.8442(2) 0.5842(2) 0.83564(19)
H6 H 0.9511 0.5326 0.8165
H7 H 0.8150 0.6746 0.7800
H8 H 0.8453 0.6226 0.9116
C10 C 0.3300(2) 0.4521(2) 0.80637(17)
H9 H 0.2854 0.5330 0.7595
O1 O 0.24839(17) 0.36464(18) 0.83788(15)
N2 N 0.88964(15) -0.01396(13) 0.33332(10)
C11 C 1.05792(19) -0.04801(17) 0.29829(13)
H10 H 1.1240 -0.1320 0.2557
C12 C 1.11907(16) 0.05755(16) 0.33381(12)
C13 C 0.97522(17) 0.16564(15) 0.39749(11)
C14 C 0.9516(2) 0.29615(18) 0.45780(14)
H11 H 1.0420 0.3320 0.4602
C15 C 0.7914(3) 0.3697(2) 0.51318(17)
H12 H 0.7744 0.4560 0.5541
C16 C 0.6550(2) 0.3199(2) 0.51008(17)
H13 H 0.5487 0.3730 0.5491
C17 C 0.67241(19) 0.19351(19) 0.45065(14)
H14 H 0.5803 0.1604 0.4475
C18 C 0.83487(16) 0.11751(15) 0.39533(11)
C19 C 0.7825(3) -0.1036(2) 0.31804(19)
H15 H 0.6603 -0.0316 0.2962
H16 H 0.7493 -0.1503 0.3825
H17 H 0.8490 -0.1796 0.2633
C20 C 1.2931(2) 0.0492(2) 0.31479(16)
H18 H 1.3689 -0.0325 0.2740
O2 O 1.35139(16) 0.14003(17) 0.34735(14)
N2 N 0.11036(15) 1.01396(13) 0.66668(10)
C11 C -0.05792(19) 1.04801(17) 0.70171(13)
H10 H -0.1240 1.1320 0.7443
C12 C -0.11907(16) 0.94245(16) 0.66619(12)
C13 C 0.02478(17) 0.83436(15) 0.60251(11)
C14 C 0.0484(2) 0.70385(18) 0.54220(14)
H11 H -0.0420 0.6680 0.5398
C15 C 0.2086(3) 0.6303(2) 0.48682(17)
H12 H 0.2256 0.5440 0.4459
C16 C 0.3450(2) 0.6801(2) 0.48992(17)
H13 H 0.4513 0.6270 0.4509
C17 C 0.32759(19) 0.80649(19) 0.54935(14)
H14 H 0.4197 0.8396 0.5525
C18 C 0.16513(16) 0.88249(15) 0.60467(11)
C19 C 0.2175(3) 1.1036(2) 0.68196(19)
H15 H 0.3397 1.0316 0.7038
H16 H 0.2507 1.1503 0.6175
H17 H 0.1510 1.1796 0.7367
C20 C -0.2931(2) 0.9508(2) 0.68521(16)
H18 H -0.3689 1.0325 0.7260
O2 O -0.35139(16) 0.85997(17) 0.65265(14)

#END
