./ACAGIU_from_xyz.cif_generated_by_CrystalShift
_symmetry_cell_setting triclinic
_symmetry_space_group_name_H-M 'P 1'
loop_
_symmetry_equiv_pos_site_id
_symmetry_equiv_pos_as_xyz
1 x,y,z
_cell_length_a 9.800000
_cell_length_b 8.684000
_cell_length_c 7.334000
_cell_angle_alpha 90.000000
_cell_angle_beta 116.900000
_cell_angle_gamma 90.000000
_cell_volume 556.612629
loop_
_atom_site_label
_atom_site_type_symbol
_atom_site_fract_x
_atom_site_fract_y
_atom_site_fract_z
N1 N 0.500000 -0.188800 0.750000
C2 C 0.626900 -0.109000 0.797500
C3 C 0.633500 0.049100 0.799900
C4 C 0.500000 0.132300 0.750000
C5 C 0.500000 0.296700 0.750000
C6 C 0.500000 0.433500 0.750000
H7 H 0.719300 -0.163900 0.832000
H8 H 0.729000 0.099500 0.835900
H9 H 0.500000 0.543400 0.750000
C10 C 0.366500 0.049100 0.700100
C11 C 0.373100 -0.109000 0.702500
H12 H 0.280700 -0.163900 0.668000
H13 H 0.271000 0.099500 0.664100
N14 N 0.500000 1.188800 0.250000
C15 C 0.626900 1.109000 0.297500
C16 C 0.633500 0.950900 0.299900
C17 C 0.500000 0.867700 0.250000
C18 C 0.500000 0.703300 0.250000
C19 C 0.500000 0.566500 0.250000
H20 H 0.719300 1.163900 0.332000
H21 H 0.729000 0.900500 0.335900
H22 H 0.500000 0.456600 0.250000
C23 C 0.366500 0.950900 0.200100
C24 C 0.373100 1.109000 0.202500
H25 H 0.280700 1.163900 0.168000
H26 H 0.271000 0.900500 0.164100
N27 N -0.000000 0.311200 0.750000
C28 C 0.126900 0.391000 0.797500
C29 C 0.133500 0.549100 0.799900
C30 C -0.000000 0.632300 0.750000
C31 C -0.000000 0.796700 0.750000
C32 C -0.000000 0.933500 0.750000
H33 H 0.219300 0.336100 0.832000
H34 H 0.229000 0.599500 0.835900
H35 H -0.000000 1.043400 0.750000
C36 C -0.133500 0.549100 0.700100
C37 C -0.126900 0.391000 0.702500
H38 H -0.219300 0.336100 0.668000
H39 H -0.229000 0.599500 0.664100
N40 N 1.000000 0.311200 0.750000
C41 C 1.126900 0.391000 0.797500
C42 C 1.133500 0.549100 0.799900
C43 C 1.000000 0.632300 0.750000
C44 C 1.000000 0.796700 0.750000
C45 C 1.000000 0.933500 0.750000
H46 H 1.219300 0.336100 0.832000
H47 H 1.229000 0.599500 0.835900
H48 H 1.000000 1.043400 0.750000
C49 C 0.866500 0.549100 0.700100
C50 C 0.873100 0.391000 0.702500
H51 H 0.780700 0.336100 0.668000
H52 H 0.771000 0.599500 0.664100
N53 N 0.000000 0.688800 0.250000
C54 C 0.126900 0.609000 0.297500
C55 C 0.133500 0.450900 0.299900
C56 C 0.000000 0.367700 0.250000
C57 C 0.000000 0.203300 0.250000
C58 C 0.000000 0.066500 0.250000
H59 H 0.219300 0.663900 0.332000
H60 H 0.229000 0.400500 0.335900
H61 H 0.000000 -0.043400 0.250000
C62 C -0.133500 0.450900 0.200100
C63 C -0.126900 0.609000 0.202500
H64 H -0.219300 0.663900 0.168000
H65 H -0.229000 0.400500 0.164100
N66 N 1.000000 0.688800 0.250000
C67 C 1.126900 0.609000 0.297500
C68 C 1.133500 0.450900 0.299900
C69 C 1.000000 0.367700 0.250000
C70 C 1.000000 0.203300 0.250000
C71 C 1.000000 0.066500 0.250000
H72 H 1.219300 0.663900 0.332000
H73 H 1.229000 0.400500 0.335900
H74 H 1.000000 -0.043400 0.250000
C75 C 0.866500 0.450900 0.200100
C76 C 0.873100 0.609000 0.202500
H77 H 0.780700 0.663900 0.168000
H78 H 0.771000 0.400500 0.164100

#END
