./ACANIL_from_xyz.cif_generated_by_CrystalShift
_symmetry_cell_setting triclinic
_symmetry_space_group_name_H-M 'P 1'
loop_
_symmetry_equiv_pos_site_id
_symmetry_equiv_pos_as_xyz
1 x,y,z
_cell_length_a 19.640000
_cell_length_b 9.483000
_cell_length_c 7.979000
_cell_angle_alpha 90.000000
_cell_angle_beta 90.000000
_cell_angle_gamma 90.000000
_cell_volume 1486.057791
loop_
_atom_site_label
_atom_site_type_symbol
_atom_site_fract_x
_atom_site_fract_y
_atom_site_fract_z
C1 C 0.407600 0.075900 0.129400
C2 C 0.355300 -0.018300 0.169100
C3 C 0.290200 0.005200 0.111000
C4 C 0.276100 0.121300 0.010400
C5 C 0.328300 0.211500 -0.031300
C6 C 0.394100 0.190100 0.025100
C7 C 0.525300 0.136700 0.216800
C8 C 0.586400 0.077000 0.303500
H9 H 0.473600 -0.059300 0.247800
H10 H 0.366000 -0.109700 0.245400
H11 H 0.249800 -0.067100 0.143800
H12 H 0.225000 0.140400 -0.034400
H13 H 0.317600 0.301500 -0.110100
H14 H 0.434500 0.261100 -0.011400
H15 H 0.589800 0.120200 0.428500
H16 H 0.631700 0.104000 0.234000
H17 H 0.581700 -0.036300 0.310800
N18 N 0.472400 0.046600 0.198100
O19 O 0.524300 0.258000 0.166400
C20 C 0.092400 0.924100 0.629400
C21 C 0.144700 1.018300 0.669100
C22 C 0.209800 0.994800 0.611000
C23 C 0.223900 0.878700 0.510400
C24 C 0.171700 0.788500 0.468700
C25 C 0.105900 0.809900 0.525100
C26 C -0.025300 0.863300 0.716800
C27 C -0.086400 0.923000 0.803500
H28 H 0.026400 1.059300 0.747800
H29 H 0.134000 1.109700 0.745400
H30 H 0.250200 1.067100 0.643800
H31 H 0.275000 0.859600 0.465600
H32 H 0.182400 0.698500 0.389900
H33 H 0.065500 0.738900 0.488600
H34 H -0.089800 0.879800 0.928500
H35 H -0.131700 0.896000 0.734000
H36 H -0.081700 1.036300 0.810800
N37 N 0.027600 0.953400 0.698100
O38 O -0.024300 0.742000 0.666400
C39 C 0.907600 0.424100 0.870600
C40 C 0.855300 0.518300 0.830900
C41 C 0.790200 0.494800 0.889000
C42 C 0.776100 0.378700 0.989600
C43 C 0.828300 0.288500 1.031300
C44 C 0.894100 0.309900 0.974900
C45 C 1.025300 0.363300 0.783200
C46 C 1.086400 0.423000 0.696500
H47 H 0.973600 0.559300 0.752200
H48 H 0.866000 0.609700 0.754600
H49 H 0.749800 0.567100 0.856200
H50 H 0.725000 0.359600 1.034400
H51 H 0.817600 0.198500 1.110100
H52 H 0.934500 0.238900 1.011400
H53 H 1.089800 0.379800 0.571500
H54 H 1.131700 0.396000 0.766000
H55 H 1.081700 0.536300 0.689200
N56 N 0.972400 0.453400 0.801900
O57 O 1.024300 0.242000 0.833600
C58 C 0.592400 0.575900 0.370600
C59 C 0.644700 0.481700 0.330900
C60 C 0.709800 0.505200 0.389000
C61 C 0.723900 0.621300 0.489600
C62 C 0.671700 0.711500 0.531300
C63 C 0.605900 0.690100 0.474900
C64 C 0.474700 0.636700 0.283200
C65 C 0.413600 0.577000 0.196500
H66 H 0.526400 0.440700 0.252200
H67 H 0.634000 0.390300 0.254600
H68 H 0.750200 0.432900 0.356200
H69 H 0.775000 0.640400 0.534400
H70 H 0.682400 0.801500 0.610100
H71 H 0.565500 0.761100 0.511400
H72 H 0.410200 0.620200 0.071500
H73 H 0.368300 0.604000 0.266000
H74 H 0.418300 0.463700 0.189200
N75 N 0.527600 0.546600 0.301900
O76 O 0.475700 0.758000 0.333600
C77 C 0.592400 0.924100 0.870600
C78 C 0.644700 1.018300 0.830900
C79 C 0.709800 0.994800 0.889000
C80 C 0.723900 0.878700 0.989600
C81 C 0.671700 0.788500 1.031300
C82 C 0.605900 0.809900 0.974900
C83 C 0.474700 0.863300 0.783200
C84 C 0.413600 0.923000 0.696500
H85 H 0.526400 1.059300 0.752200
H86 H 0.634000 1.109700 0.754600
H87 H 0.750200 1.067100 0.856200
H88 H 0.775000 0.859600 1.034400
H89 H 0.682400 0.698500 1.110100
H90 H 0.565500 0.738900 1.011400
H91 H 0.410200 0.879800 0.571500
H92 H 0.368300 0.896000 0.766000
H93 H 0.418300 1.036300 0.689200
N94 N 0.527600 0.953400 0.801900
O95 O 0.475700 0.742000 0.833600
C96 C 0.907600 0.075900 0.370600
C97 C 0.855300 -0.018300 0.330900
C98 C 0.790200 0.005200 0.389000
C99 C 0.776100 0.121300 0.489600
C100 C 0.828300 0.211500 0.531300
C101 C 0.894100 0.190100 0.474900
C102 C 1.025300 0.136700 0.283200
C103 C 1.086400 0.077000 0.196500
H104 H 0.973600 -0.059300 0.252200
H105 H 0.866000 -0.109700 0.254600
H106 H 0.749800 -0.067100 0.356200
H107 H 0.725000 0.140400 0.534400
H108 H 0.817600 0.301500 0.610100
H109 H 0.934500 0.261100 0.511400
H110 H 1.089800 0.120200 0.071500
H111 H 1.131700 0.104000 0.266000
H112 H 1.081700 -0.036300 0.189200
N113 N 0.972400 0.046600 0.301900
O114 O 1.024300 0.258000 0.333600
C115 C 0.092400 0.575900 0.129400
C116 C 0.144700 0.481700 0.169100
C117 C 0.209800 0.505200 0.111000
C118 C 0.223900 0.621300 0.010400
C119 C 0.171700 0.711500 -0.031300
C120 C 0.105900 0.690100 0.025100
C121 C -0.025300 0.636700 0.216800
C122 C -0.086400 0.577000 0.303500
H123 H 0.026400 0.440700 0.247800
H124 H 0.134000 0.390300 0.245400
H125 H 0.250200 0.432900 0.143800
H126 H 0.275000 0.640400 -0.034400
H127 H 0.182400 0.801500 -0.110100
H128 H 0.065500 0.761100 -0.011400
H129 H -0.089800 0.620200 0.428500
H130 H -0.131700 0.604000 0.234000
H131 H -0.081700 0.463700 0.310800
N132 N 0.027600 0.546600 0.198100
O133 O -0.024300 0.758000 0.166400
C134 C 0.407600 0.424100 0.629400
C135 C 0.355300 0.518300 0.669100
C136 C 0.290200 0.494800 0.611000
C137 C 0.276100 0.378700 0.510400
C138 C 0.328300 0.288500 0.468700
C139 C 0.394100 0.309900 0.525100
C140 C 0.525300 0.363300 0.716800
C141 C 0.586400 0.423000 0.803500
H142 H 0.473600 0.559300 0.747800
H143 H 0.366000 0.609700 0.745400
H144 H 0.249800 0.567100 0.643800
H145 H 0.225000 0.359600 0.465600
H146 H 0.317600 0.198500 0.389900
H147 H 0.434500 0.238900 0.488600
H148 H 0.589800 0.379800 0.928500
H149 H 0.631700 0.396000 0.734000
H150 H 0.581700 0.536300 0.810800
N151 N 0.472400 0.453400 0.698100
O152 O 0.524300 0.242000 0.666400

#END
