./ACAQGD01_from_xyz.cif_generated_by_CrystalShift
_symmetry_cell_setting triclinic
_symmetry_space_group_name_H-M 'P 1'
loop_
_symmetry_equiv_pos_site_id
_symmetry_equiv_pos_as_xyz
1 x,y,z
_cell_length_a 8.940000
_cell_length_b 9.315000
_cell_length_c 10.528000
_cell_angle_alpha 91.680000
_cell_angle_beta 114.040000
_cell_angle_gamma 118.030000
_cell_volume 679.748541
loop_
_atom_site_label
_atom_site_type_symbol
_atom_site_fract_x
_atom_site_fract_y
_atom_site_fract_z
Gd1 Gd 0.679020 -0.096180 0.089818
O2 O 0.888100 0.184100 0.267600
O3 O 0.379200 -0.148000 -0.099700
C4 C 0.781000 0.241100 0.213800
C5 C 0.838100 0.413400 0.282700
H6 H 0.974200 0.478100 0.348000
H7 H 0.769300 0.404200 0.335200
H8 H 0.807500 0.468800 0.209300
O9 O 1.011000 -0.039200 0.186600
O10 O 0.857700 -0.149700 0.306700
C11 C 1.009400 -0.092500 0.295400
C12 C 1.182200 -0.086100 0.408400
H13 H 1.229300 -0.011400 0.498500
H14 H 1.280900 -0.045400 0.379900
H15 H 1.147800 -0.197400 0.419800
O16 O 0.447900 -0.377000 0.095900
O17 O 0.477400 -0.157200 0.208500
C18 C 0.398100 -0.315100 0.167600
C19 C 0.244800 -0.428700 0.204600
H20 H 0.299600 -0.409100 0.307700
H21 H 0.193000 -0.544500 0.160300
H22 H 0.143700 -0.405100 0.169700
O23 O 0.777700 0.056500 -0.067500
H24 H 0.854000 0.049000 -0.106000
H25 H 0.695000 0.090000 -0.128000
O26 O 0.641200 -0.297900 -0.081900
H27 H 0.611000 -0.412000 -0.079000
H28 H 0.607000 -0.301000 -0.180000
Gd29 Gd 0.320980 0.096180 -0.089818
O30 O 0.111900 -0.184100 -0.267600
O31 O 0.620800 0.148000 0.099700
C32 C 0.219000 -0.241100 -0.213800
C33 C 0.161900 -0.413400 -0.282700
H34 H 0.025800 -0.478100 -0.348000
H35 H 0.230700 -0.404200 -0.335200
H36 H 0.192500 -0.468800 -0.209300
O37 O -0.011000 0.039200 -0.186600
O38 O 0.142300 0.149700 -0.306700
C39 C -0.009400 0.092500 -0.295400
C40 C -0.182200 0.086100 -0.408400
H41 H -0.229300 0.011400 -0.498500
H42 H -0.280900 0.045400 -0.379900
H43 H -0.147800 0.197400 -0.419800
O44 O 0.552100 0.377000 -0.095900
O45 O 0.522600 0.157200 -0.208500
C46 C 0.601900 0.315100 -0.167600
C47 C 0.755200 0.428700 -0.204600
H48 H 0.700400 0.409100 -0.307700
H49 H 0.807000 0.544500 -0.160300
H50 H 0.856300 0.405100 -0.169700
O51 O 0.222300 -0.056500 0.067500
H52 H 0.146000 -0.049000 0.106000
H53 H 0.305000 -0.090000 0.128000
O54 O 0.358800 0.297900 0.081900
H55 H 0.389000 0.412000 0.079000
H56 H 0.393000 0.301000 0.180000
Gd57 Gd 0.679020 -0.096180 1.089818
O58 O 0.888100 0.184100 1.267600
O59 O 0.379200 -0.148000 0.900300
C60 C 0.781000 0.241100 1.213800
C61 C 0.838100 0.413400 1.282700
H62 H 0.974200 0.478100 1.348000
H63 H 0.769300 0.404200 1.335200
H64 H 0.807500 0.468800 1.209300
O65 O 1.011000 -0.039200 1.186600
O66 O 0.857700 -0.149700 1.306700
C67 C 1.009400 -0.092500 1.295400
C68 C 1.182200 -0.086100 1.408400
H69 H 1.229300 -0.011400 1.498500
H70 H 1.280900 -0.045400 1.379900
H71 H 1.147800 -0.197400 1.419800
O72 O 0.447900 -0.377000 1.095900
O73 O 0.477400 -0.157200 1.208500
C74 C 0.398100 -0.315100 1.167600
C75 C 0.244800 -0.428700 1.204600
H76 H 0.299600 -0.409100 1.307700
H77 H 0.193000 -0.544500 1.160300
H78 H 0.143700 -0.405100 1.169700
O79 O 0.777700 0.056500 0.932500
H80 H 0.854000 0.049000 0.894000
H81 H 0.695000 0.090000 0.872000
O82 O 0.641200 -0.297900 0.918100
H83 H 0.611000 -0.412000 0.921000
H84 H 0.607000 -0.301000 0.820000
Gd85 Gd 0.320980 0.096180 0.910182
O86 O 0.111900 -0.184100 0.732400
O87 O 0.620800 0.148000 1.099700
C88 C 0.219000 -0.241100 0.786200
C89 C 0.161900 -0.413400 0.717300
H90 H 0.025800 -0.478100 0.652000
H91 H 0.230700 -0.404200 0.664800
H92 H 0.192500 -0.468800 0.790700
O93 O -0.011000 0.039200 0.813400
O94 O 0.142300 0.149700 0.693300
C95 C -0.009400 0.092500 0.704600
C96 C -0.182200 0.086100 0.591600
H97 H -0.229300 0.011400 0.501500
H98 H -0.280900 0.045400 0.620100
H99 H -0.147800 0.197400 0.580200
O100 O 0.552100 0.377000 0.904100
O101 O 0.522600 0.157200 0.791500
C102 C 0.601900 0.315100 0.832400
C103 C 0.755200 0.428700 0.795400
H104 H 0.700400 0.409100 0.692300
H105 H 0.807000 0.544500 0.839700
H106 H 0.856300 0.405100 0.830300
O107 O 0.222300 -0.056500 1.067500
H108 H 0.146000 -0.049000 1.106000
H109 H 0.305000 -0.090000 1.128000
O110 O 0.358800 0.297900 1.081900
H111 H 0.389000 0.412000 1.079000
H112 H 0.393000 0.301000 1.180000
Gd113 Gd 0.679020 0.903820 0.089818
O114 O 0.888100 1.184100 0.267600
O115 O 0.379200 0.852000 -0.099700
C116 C 0.781000 1.241100 0.213800
C117 C 0.838100 1.413400 0.282700
H118 H 0.974200 1.478100 0.348000
H119 H 0.769300 1.404200 0.335200
H120 H 0.807500 1.468800 0.209300
O121 O 1.011000 0.960800 0.186600
O122 O 0.857700 0.850300 0.306700
C123 C 1.009400 0.907500 0.295400
C124 C 1.182200 0.913900 0.408400
H125 H 1.229300 0.988600 0.498500
H126 H 1.280900 0.954600 0.379900
H127 H 1.147800 0.802600 0.419800
O128 O 0.447900 0.623000 0.095900
O129 O 0.477400 0.842800 0.208500
C130 C 0.398100 0.684900 0.167600
C131 C 0.244800 0.571300 0.204600
H132 H 0.299600 0.590900 0.307700
H133 H 0.193000 0.455500 0.160300
H134 H 0.143700 0.594900 0.169700
O135 O 0.777700 1.056500 -0.067500
H136 H 0.854000 1.049000 -0.106000
H137 H 0.695000 1.090000 -0.128000
O138 O 0.641200 0.702100 -0.081900
H139 H 0.611000 0.588000 -0.079000
H140 H 0.607000 0.699000 -0.180000
Gd141 Gd 0.320980 1.096180 -0.089818
O142 O 0.111900 0.815900 -0.267600
O143 O 0.620800 1.148000 0.099700
C144 C 0.219000 0.758900 -0.213800
C145 C 0.161900 0.586600 -0.282700
H146 H 0.025800 0.521900 -0.348000
H147 H 0.230700 0.595800 -0.335200
H148 H 0.192500 0.531200 -0.209300
O149 O -0.011000 1.039200 -0.186600
O150 O 0.142300 1.149700 -0.306700
C151 C -0.009400 1.092500 -0.295400
C152 C -0.182200 1.086100 -0.408400
H153 H -0.229300 1.011400 -0.498500
H154 H -0.280900 1.045400 -0.379900
H155 H -0.147800 1.197400 -0.419800
O156 O 0.552100 1.377000 -0.095900
O157 O 0.522600 1.157200 -0.208500
C158 C 0.601900 1.315100 -0.167600
C159 C 0.755200 1.428700 -0.204600
H160 H 0.700400 1.409100 -0.307700
H161 H 0.807000 1.544500 -0.160300
H162 H 0.856300 1.405100 -0.169700
O163 O 0.222300 0.943500 0.067500
H164 H 0.146000 0.951000 0.106000
H165 H 0.305000 0.910000 0.128000
O166 O 0.358800 1.297900 0.081900
H167 H 0.389000 1.412000 0.079000
H168 H 0.393000 1.301000 0.180000
Gd169 Gd 0.679020 0.903820 1.089818
O170 O 0.888100 1.184100 1.267600
O171 O 0.379200 0.852000 0.900300
C172 C 0.781000 1.241100 1.213800
C173 C 0.838100 1.413400 1.282700
H174 H 0.974200 1.478100 1.348000
H175 H 0.769300 1.404200 1.335200
H176 H 0.807500 1.468800 1.209300
O177 O 1.011000 0.960800 1.186600
O178 O 0.857700 0.850300 1.306700
C179 C 1.009400 0.907500 1.295400
C180 C 1.182200 0.913900 1.408400
H181 H 1.229300 0.988600 1.498500
H182 H 1.280900 0.954600 1.379900
H183 H 1.147800 0.802600 1.419800
O184 O 0.447900 0.623000 1.095900
O185 O 0.477400 0.842800 1.208500
C186 C 0.398100 0.684900 1.167600
C187 C 0.244800 0.571300 1.204600
H188 H 0.299600 0.590900 1.307700
H189 H 0.193000 0.455500 1.160300
H190 H 0.143700 0.594900 1.169700
O191 O 0.777700 1.056500 0.932500
H192 H 0.854000 1.049000 0.894000
H193 H 0.695000 1.090000 0.872000
O194 O 0.641200 0.702100 0.918100
H195 H 0.611000 0.588000 0.921000
H196 H 0.607000 0.699000 0.820000
Gd197 Gd 0.320980 1.096180 0.910182
O198 O 0.111900 0.815900 0.732400
O199 O 0.620800 1.148000 1.099700
C200 C 0.219000 0.758900 0.786200
C201 C 0.161900 0.586600 0.717300
H202 H 0.025800 0.521900 0.652000
H203 H 0.230700 0.595800 0.664800
H204 H 0.192500 0.531200 0.790700
O205 O -0.011000 1.039200 0.813400
O206 O 0.142300 1.149700 0.693300
C207 C -0.009400 1.092500 0.704600
C208 C -0.182200 1.086100 0.591600
H209 H -0.229300 1.011400 0.501500
H210 H -0.280900 1.045400 0.620100
H211 H -0.147800 1.197400 0.580200
O212 O 0.552100 1.377000 0.904100
O213 O 0.522600 1.157200 0.791500
C214 C 0.601900 1.315100 0.832400
C215 C 0.755200 1.428700 0.795400
H216 H 0.700400 1.409100 0.692300
H217 H 0.807000 1.544500 0.839700
H218 H 0.856300 1.405100 0.830300
O219 O 0.222300 0.943500 1.067500
H220 H 0.146000 0.951000 1.106000
H221 H 0.305000 0.910000 1.128000
O222 O 0.358800 1.297900 1.081900
H223 H 0.389000 1.412000 1.079000
H224 H 0.393000 1.301000 1.180000
O225 O 0.245600 0.322900 0.503800
H226 H 0.121000 0.283000 0.420000
H227 H 0.220000 0.261000 0.571000
O228 O 0.754400 0.677100 0.496200
H229 H 0.879000 0.717000 0.580000
H230 H 0.780000 0.739000 0.429000
O231 O 0.525400 0.669700 0.628300
H232 H 0.418000 0.558000 0.573000
H233 H 0.618000 0.700000 0.594000
O234 O 0.474600 0.330300 0.371700
H235 H 0.582000 0.442000 0.427000
H236 H 0.382000 0.300000 0.406000

#END
