./ACARBM02_from_xyz.cif_generated_by_CrystalShift
_symmetry_cell_setting triclinic
_symmetry_space_group_name_H-M 'P 1'
loop_
_symmetry_equiv_pos_site_id
_symmetry_equiv_pos_as_xyz
1 x,y,z
_cell_length_a 10.142800
_cell_length_b 9.157900
_cell_length_c 7.448500
_cell_angle_alpha 90.000000
_cell_angle_beta 90.000000
_cell_angle_gamma 90.000000
_cell_volume 691.866943
loop_
_atom_site_label
_atom_site_type_symbol
_atom_site_fract_x
_atom_site_fract_y
_atom_site_fract_z
N1 N 0.000000 0.197600 0.250000
H2 H 0.054000 0.126000 0.318000
H3 H 0.056000 0.275000 0.162000
H4 H -0.054000 0.126000 0.182000
H5 H -0.056000 0.275000 0.338000
N6 N 1.000000 0.197600 0.250000
H7 H 1.054000 0.126000 0.318000
H8 H 1.056000 0.275000 0.162000
H9 H 0.946000 0.126000 0.182000
H10 H 0.944000 0.275000 0.338000
N11 N 0.500000 0.697600 0.750000
H12 H 0.554000 0.626000 0.818000
H13 H 0.556000 0.775000 0.662000
H14 H 0.446000 0.626000 0.682000
H15 H 0.444000 0.775000 0.838000
N16 N 0.500000 0.302400 0.750000
H17 H 0.554000 0.374000 0.682000
H18 H 0.556000 0.225000 0.838000
H19 H 0.446000 0.374000 0.818000
H20 H 0.444000 0.225000 0.662000
N21 N 0.000000 0.802400 0.250000
H22 H -0.054000 0.874000 0.318000
H23 H -0.056000 0.725000 0.162000
H24 H 0.054000 0.874000 0.182000
H25 H 0.056000 0.725000 0.338000
N26 N 1.000000 0.802400 0.250000
H27 H 0.946000 0.874000 0.318000
H28 H 0.944000 0.725000 0.162000
H29 H 1.054000 0.874000 0.182000
H30 H 1.056000 0.725000 0.338000
N31 N 0.000000 0.802400 0.750000
H32 H -0.054000 0.874000 0.682000
H33 H -0.056000 0.725000 0.838000
H34 H 0.054000 0.874000 0.818000
H35 H 0.056000 0.725000 0.662000
N36 N 1.000000 0.802400 0.750000
H37 H 0.946000 0.874000 0.682000
H38 H 0.944000 0.725000 0.838000
H39 H 1.054000 0.874000 0.818000
H40 H 1.056000 0.725000 0.662000
N41 N 0.500000 0.302400 0.250000
H42 H 0.446000 0.374000 0.182000
H43 H 0.444000 0.225000 0.338000
H44 H 0.554000 0.374000 0.318000
H45 H 0.556000 0.225000 0.162000
N46 N 0.500000 0.697600 0.250000
H47 H 0.446000 0.626000 0.318000
H48 H 0.444000 0.775000 0.162000
H49 H 0.554000 0.626000 0.182000
H50 H 0.556000 0.775000 0.338000
N51 N 0.000000 0.197600 0.750000
H52 H 0.054000 0.126000 0.682000
H53 H 0.056000 0.275000 0.838000
H54 H -0.054000 0.126000 0.818000
H55 H -0.056000 0.275000 0.662000
N56 N 1.000000 0.197600 0.750000
H57 H 1.054000 0.126000 0.682000
H58 H 1.056000 0.275000 0.838000
H59 H 0.946000 0.126000 0.818000
H60 H 0.944000 0.275000 0.662000
O61 O 0.144200 1.027500 0.500000
O62 O 0.326200 1.169200 0.500000
N63 N 0.340300 0.920400 0.500000
C64 C 0.270700 1.038800 0.500000
H65 H 0.409000 0.980000 0.500000
H66 H 0.327000 0.831000 0.500000
O67 O 0.644200 0.527500 0.000000
O68 O 0.826200 0.669200 0.000000
N69 N 0.840300 0.420400 0.000000
C70 C 0.770700 0.538800 0.000000
H71 H 0.909000 0.480000 0.000000
H72 H 0.827000 0.331000 0.000000
O73 O 0.644200 0.527500 1.000000
O74 O 0.826200 0.669200 1.000000
N75 N 0.840300 0.420400 1.000000
C76 C 0.770700 0.538800 1.000000
H77 H 0.909000 0.480000 1.000000
H78 H 0.827000 0.331000 1.000000
O79 O 0.644200 0.472500 0.500000
O80 O 0.826200 0.330800 0.500000
N81 N 0.840300 0.579600 0.500000
C82 C 0.770700 0.461200 0.500000
H83 H 0.909000 0.520000 0.500000
H84 H 0.827000 0.669000 0.500000
O85 O 0.355800 0.527500 0.500000
O86 O 0.173800 0.669200 0.500000
N87 N 0.159700 0.420400 0.500000
C88 C 0.229300 0.538800 0.500000
H89 H 0.091000 0.480000 0.500000
H90 H 0.173000 0.331000 0.500000
O91 O 0.855800 -0.027500 0.500000
O92 O 0.673800 -0.169200 0.500000
N93 N 0.659700 0.079600 0.500000
C94 C 0.729300 -0.038800 0.500000
H95 H 0.591000 0.020000 0.500000
H96 H 0.673000 0.169000 0.500000
O97 O 0.144200 -0.027500 0.000000
O98 O 0.326200 -0.169200 0.000000
N99 N 0.340300 0.079600 0.000000
C100 C 0.270700 -0.038800 0.000000
H101 H 0.409000 0.020000 0.000000
H102 H 0.327000 0.169000 0.000000
O103 O 0.144200 -0.027500 1.000000
O104 O 0.326200 -0.169200 1.000000
N105 N 0.340300 0.079600 1.000000
C106 C 0.270700 -0.038800 1.000000
H107 H 0.409000 0.020000 1.000000
H108 H 0.327000 0.169000 1.000000
O109 O 0.855800 1.027500 0.000000
O110 O 0.673800 1.169200 0.000000
N111 N 0.659700 0.920400 0.000000
C112 C 0.729300 1.038800 0.000000
H113 H 0.591000 0.980000 0.000000
H114 H 0.673000 0.831000 0.000000
O115 O 0.855800 1.027500 1.000000
O116 O 0.673800 1.169200 1.000000
N117 N 0.659700 0.920400 1.000000
C118 C 0.729300 1.038800 1.000000
H119 H 0.591000 0.980000 1.000000
H120 H 0.673000 0.831000 1.000000
O121 O 0.355800 0.472500 0.000000
O122 O 0.173800 0.330800 0.000000
N123 N 0.159700 0.579600 0.000000
C124 C 0.229300 0.461200 0.000000
H125 H 0.091000 0.520000 0.000000
H126 H 0.173000 0.669000 0.000000
O127 O 0.355800 0.472500 1.000000
O128 O 0.173800 0.330800 1.000000
N129 N 0.159700 0.579600 1.000000
C130 C 0.229300 0.461200 1.000000
H131 H 0.091000 0.520000 1.000000
H132 H 0.173000 0.669000 1.000000

#END
