
#######################################################################
#
#                 Cambridge Crystallographic Data Centre
#                                CCDC 
#
#######################################################################
#
# If this CIF has been generated from an entry in the Cambridge 
# Structural Database, then it will include bibliographic, chemical, 
# crystal, experimental, refinement or atomic coordinate data resulting 
# from the CCDC's data processing and validation procedures.
#
#######################################################################

data_ACEGOE
_symmetry_cell_setting           triclinic
_symmetry_space_group_name_H-M   'P -1'
_symmetry_Int_Tables_number      2
_space_group_name_Hall           '-P 1'
loop_
_symmetry_equiv_pos_site_id
_symmetry_equiv_pos_as_xyz
1 x,y,z
2 -x,-y,-z
_cell_length_a                   13.652(4)
_cell_length_b                   15.532(5)
_cell_length_c                   21.088(6)
_cell_angle_alpha                72.037(5)
_cell_angle_beta                 77.508(6)
_cell_angle_gamma                82.443(6)
_cell_volume                     4142.78
loop_
_atom_site_label
_atom_site_type_symbol
_atom_site_fract_x
_atom_site_fract_y
_atom_site_fract_z
Al1 Al 0.7263(1) 0.1522(1) 0.1262(1)
Al2 Al 0.6297(1) 0.2818(1) 0.1930(1)
O1 O 0.5962(2) 0.2035(2) 0.1509(2)
O2 O 0.7615(2) 0.0469(2) 0.1758(2)
O3 O 0.7588(2) 0.2274(2) 0.1709(2)
O4 O 0.5662(2) 0.2471(2) 0.2766(2)
C1 C 0.5159(3) 0.1673(3) 0.1349(2)
C2 C 0.4601(4) 0.2220(3) 0.0858(2)
C3 C 0.4619(4) 0.3266(3) 0.0584(3)
C4 C 0.3875(5) 0.3687(4) 0.0089(3)
C5 C 0.4255(4) 0.3661(3) 0.1186(3)
C6 C 0.5657(4) 0.3561(4) 0.0180(3)
C7 C 0.3971(4) 0.1770(3) 0.0651(3)
C8 C 0.3846(3) 0.0843(3) 0.0888(2)
C9 C 0.3150(4) 0.0415(3) 0.0610(3)
C10 C 0.3016(5) -0.0576(4) 0.1007(3)
C11 C 0.2125(4) 0.0940(5) 0.0638(4)
C12 C 0.3594(5) 0.0478(4) -0.0137(3)
C13 C 0.4358(3) 0.0352(3) 0.1402(2)
C14 C 0.5010(3) 0.0742(3) 0.1644(2)
C15 C 0.5559(3) 0.0172(3) 0.2204(2)
C16 C 0.6336(4) -0.0547(3) 0.1994(2)
C17 C 0.7359(4) -0.0384(3) 0.1812(2)
C18 C 0.8102(4) -0.1083(3) 0.1731(2)
C19 C 0.9226(4) -0.0950(3) 0.1599(3)
C20 C 0.9549(4) -0.0324(4) 0.0877(3)
C21 C 0.9862(4) -0.1856(4) 0.1653(4)
C22 C 0.9482(4) -0.0555(4) 0.2125(3)
C23 C 0.7757(4) -0.1905(3) 0.1759(3)
C24 C 0.6754(4) -0.2085(3) 0.1894(3)
C25 C 0.6452(5) -0.3011(4) 0.1908(3)
C26 C 0.6562(10) -0.3685(5) 0.2576(5)
C27 C 0.7188(6) -0.3372(5) 0.1336(4)
C28 C 0.5417(5) -0.2938(5) 0.1731(4)
C29 C 0.6057(4) -0.1399(3) 0.2026(3)
C30 C 0.4965(4) -0.0282(3) 0.2909(2)
C31 C 0.5451(4) -0.0370(3) 0.3472(2)
C32 C 0.6302(4) 0.0090(3) 0.3380(2)
C33 C 0.6715(4) 0.0143(3) 0.3916(2)
C34 C 0.7449(4) 0.0793(3) 0.3813(2)
C35 C 0.7894(4) 0.0724(3) 0.4349(3)
C36 C 0.7634(4) 0.0062(4) 0.4991(3)
C37 C 0.6873(4) -0.0480(4) 0.5115(3)
C38 C 0.6359(4) -0.0450(3) 0.4584(2)
C39 C 0.5531(4) -0.0938(3) 0.4678(3)
C40 C 0.5036(4) -0.0889(3) 0.4153(2)
C41 C 0.4122(4) -0.1309(4) 0.4248(3)
C42 C 0.3646(4) -0.1187(4) 0.3726(3)
C43 C 0.4065(4) -0.0671(4) 0.3058(3)
C44 C 0.7487(3) 0.1609(3) 0.3161(2)
C45 C 0.8474(4) 0.1822(3) 0.2662(2)
C46 C 0.8500(3) 0.2218(3) 0.1954(2)
C47 C 0.9395(4) 0.2531(3) 0.1503(3)
C48 C 0.9532(4) 0.3038(4) 0.0732(3)
C49 C 0.9762(5) 0.2339(4) 0.0325(3)
C50 C 1.0435(5) 0.3642(5) 0.0491(3)
C51 C 0.8626(4) 0.3685(4) 0.0531(3)
C52 C 1.0269(4) 0.2335(4) 0.1785(3)
C53 C 1.0291(4) 0.1892(4) 0.2467(3)
C54 C 1.1261(4) 0.1655(5) 0.2756(3)
C55 C 1.1488(6) 0.0618(6) 0.2932(5)
C56 C 1.2160(4) 0.2109(6) 0.2254(3)
C57 C 1.1125(5) 0.1938(8) 0.3404(4)
C58 C 0.9375(4) 0.1658(3) 0.2891(3)
C59 C 0.6946(4) 0.2446(3) 0.3381(2)
C60 C 0.5987(4) 0.2767(3) 0.3239(2)
C61 C 0.5378(4) 0.3374(3) 0.3569(3)
C62 C 0.4263(4) 0.3646(3) 0.3516(3)
C63 C 0.4154(5) 0.4280(5) 0.2817(3)
C64 C 0.3698(4) 0.2797(4) 0.3660(4)
C65 C 0.3734(5) 0.4130(5) 0.4049(4)
C66 C 0.5831(4) 0.3703(3) 0.3970(3)
C67 C 0.6813(4) 0.3469(4) 0.4073(3)
C68 C 0.7232(5) 0.3887(4) 0.4523(3)
C69 C 0.8168(6) 0.3363(5) 0.4740(4)
C70 C 0.6439(6) 0.3838(6) 0.5209(4)
C71 C 0.7384(8) 0.4873(5) 0.4168(4)
C72 C 0.7347(4) 0.2823(3) 0.3784(3)
C73 C 0.6406(4) 0.4119(3) 0.1560(3)
C74 C 0.7471(4) 0.1689(4) 0.0288(3)
H1 H 0.3871 0.4337 -0.0040
H2 H 0.3212 0.3504 0.0310
H3 H 0.4083 0.3481 -0.0307
H4 H 0.4378 0.4293 0.1044
H5 H 0.4612 0.3343 0.1546
H6 H 0.3547 0.3594 0.1345
H7 H 0.5837 0.3313 -0.0197
H8 H 0.6148 0.3343 0.0468
H9 H 0.5638 0.4211 0.0016
H10 H 0.3601 0.2118 0.0326
H11 H 0.2788 -0.0625 0.1480
H12 H 0.3647 -0.0923 0.0947
H13 H 0.2528 -0.0803 0.0844
H14 H 0.1701 0.0694 0.0438
H15 H 0.2205 0.1567 0.0392
H16 H 0.1822 0.0889 0.1102
H17 H 0.4215 0.0109 -0.0164
H18 H 0.3716 0.1097 -0.0386
H19 H 0.3127 0.0266 -0.0327
H20 H 0.4263 -0.0263 0.1593
H21 H 0.5960 0.0599 0.2279
H22 H 0.9398 -0.0584 0.0554
H23 H 1.0259 -0.0259 0.0792
H24 H 0.9192 0.0260 0.0834
H25 H 0.9639 -0.2281 0.2086
H26 H 1.0557 -0.1759 0.1608
H27 H 0.9787 -0.2095 0.1298
H28 H 0.9176 0.0051 0.2067
H29 H 1.0198 -0.0542 0.2063
H30 H 0.9231 -0.0927 0.2574
H31 H 0.8236 -0.2364 0.1682
H32 H 0.6052 -0.3541 0.2928
H33 H 0.7214 -0.3661 0.2669
H34 H 0.6488 -0.4283 0.2559
H35 H 0.7867 -0.3415 0.1405
H36 H 0.7133 -0.2958 0.0899
H37 H 0.7008 -0.3960 0.1360
H38 H 0.5267 -0.3519 0.1720
H39 H 0.5406 -0.2504 0.1295
H40 H 0.4922 -0.2744 0.2068
H41 H 0.5378 -0.1509 0.2141
H42 H 0.6611 0.0377 0.2939
H43 H 0.8381 0.1120 0.4295
H44 H 0.7995 0.0003 0.5330
H45 H 0.6684 -0.0872 0.5546
H46 H 0.5296 -0.1313 0.5110
H47 H 0.3852 -0.1672 0.4676
H48 H 0.3036 -0.1442 0.3803
H49 H 0.3716 -0.0596 0.2709
H50 H 0.7044 0.1469 0.2902
H51 H 0.9218 0.1950 0.0455
H52 H 1.0372 0.1981 0.0418
H53 H 0.9841 0.2651 -0.0151
H54 H 1.0465 0.3977 0.0022
H55 H 1.1047 0.3266 0.0544
H56 H 1.0353 0.4056 0.0758
H57 H 0.8049 0.3342 0.0620
H58 H 0.8776 0.4004 0.0056
H59 H 0.8486 0.4112 0.0790
H60 H 1.0874 0.2512 0.1498
H61 H 1.0943 0.0323 0.3265
H62 H 1.2098 0.0456 0.3112
H63 H 1.1566 0.0430 0.2530
H64 H 1.2275 0.1907 0.1856
H65 H 1.2745 0.1949 0.2460
H66 H 1.2023 0.2755 0.2131
H67 H 1.0965 0.2581 0.3304
H68 H 1.1737 0.1785 0.3582
H69 H 1.0588 0.1625 0.3735
H70 H 0.9368 0.1378 0.3351
H71 H 0.4429 0.3974 0.2479
H72 H 0.4510 0.4812 0.2726
H73 H 0.3455 0.4454 0.2806
H74 H 0.4013 0.2463 0.3347
H75 H 0.3012 0.2973 0.3609
H76 H 0.3716 0.2424 0.4115
H77 H 0.4017 0.4701 0.3950
H78 H 0.3828 0.3758 0.4492
H79 H 0.3029 0.4230 0.4037
H80 H 0.5448 0.4109 0.4186
H81 H 0.8696 0.3411 0.4350
H82 H 0.8036 0.2737 0.4954
H83 H 0.8370 0.3607 0.5055
H84 H 0.6720 0.4070 0.5499
H85 H 0.6287 0.3219 0.5436
H86 H 0.5834 0.4196 0.5105
H87 H 0.7908 0.4928 0.3775
H88 H 0.7571 0.5147 0.4471
H89 H 0.6770 0.5174 0.4032
H90 H 0.7998 0.2631 0.3859
H91 H 0.5770 0.4429 0.1681
H92 H 0.6595 0.4273 0.1075
H93 H 0.6908 0.4298 0.1742
H94 H 0.8001 0.1266 0.0165
H95 H 0.7650 0.2297 0.0046
H96 H 0.6862 0.1586 0.0173
Al1 Al 0.2737(1) 0.8478(1) 0.8738(1)
Al2 Al 0.3703(1) 0.7182(1) 0.8070(1)
O1 O 0.4038(2) 0.7965(2) 0.8491(2)
O2 O 0.2385(2) 0.9531(2) 0.8242(2)
O3 O 0.2412(2) 0.7726(2) 0.8291(2)
O4 O 0.4338(2) 0.7529(2) 0.7234(2)
C1 C 0.4841(3) 0.8327(3) 0.8651(2)
C2 C 0.5399(4) 0.7780(3) 0.9142(2)
C3 C 0.5381(4) 0.6734(3) 0.9416(3)
C4 C 0.6125(5) 0.6313(4) 0.9911(3)
C5 C 0.5745(4) 0.6339(3) 0.8814(3)
C6 C 0.4343(4) 0.6439(4) 0.9820(3)
C7 C 0.6029(4) 0.8230(3) 0.9349(3)
C8 C 0.6154(3) 0.9157(3) 0.9112(2)
C9 C 0.6850(4) 0.9585(3) 0.9390(3)
C10 C 0.6984(5) 1.0576(4) 0.8993(3)
C11 C 0.7875(4) 0.9060(5) 0.9362(4)
C12 C 0.6406(5) 0.9522(4) 1.0137(3)
C13 C 0.5642(3) 0.9648(3) 0.8598(2)
C14 C 0.4990(3) 0.9258(3) 0.8356(2)
C15 C 0.4441(3) 0.9828(3) 0.7796(2)
C16 C 0.3664(4) 1.0547(3) 0.8006(2)
C17 C 0.2641(4) 1.0384(3) 0.8188(2)
C18 C 0.1898(4) 1.1083(3) 0.8269(2)
C19 C 0.0774(4) 1.0950(3) 0.8401(3)
C20 C 0.0451(4) 1.0324(4) 0.9123(3)
C21 C 0.0138(4) 1.1856(4) 0.8347(4)
C22 C 0.0518(4) 1.0555(4) 0.7875(3)
C23 C 0.2243(4) 1.1905(3) 0.8241(3)
C24 C 0.3246(4) 1.2085(3) 0.8106(3)
C25 C 0.3548(5) 1.3011(4) 0.8092(3)
C26 C 0.3438(10) 1.3685(5) 0.7424(5)
C27 C 0.2812(6) 1.3372(5) 0.8664(4)
C28 C 0.4583(5) 1.2938(5) 0.8269(4)
C29 C 0.3943(4) 1.1399(3) 0.7974(3)
C30 C 0.5035(4) 1.0282(3) 0.7091(2)
C31 C 0.4549(4) 1.0370(3) 0.6528(2)
C32 C 0.3698(4) 0.9910(3) 0.6620(2)
C33 C 0.3285(4) 0.9857(3) 0.6084(2)
C34 C 0.2551(4) 0.9207(3) 0.6187(2)
C35 C 0.2106(4) 0.9276(3) 0.5651(3)
C36 C 0.2366(4) 0.9938(4) 0.5009(3)
C37 C 0.3127(4) 1.0480(4) 0.4885(3)
C38 C 0.3641(4) 1.0450(3) 0.5416(2)
C39 C 0.4469(4) 1.0938(3) 0.5322(3)
C40 C 0.4964(4) 1.0889(3) 0.5847(2)
C41 C 0.5878(4) 1.1309(4) 0.5752(3)
C42 C 0.6354(4) 1.1187(4) 0.6274(3)
C43 C 0.5935(4) 1.0671(4) 0.6942(3)
C44 C 0.2513(3) 0.8391(3) 0.6839(2)
C45 C 0.1526(4) 0.8178(3) 0.7338(2)
C46 C 0.1500(3) 0.7782(3) 0.8046(2)
C47 C 0.0605(4) 0.7469(3) 0.8497(3)
C48 C 0.0468(4) 0.6962(4) 0.9268(3)
C49 C 0.0238(5) 0.7661(4) 0.9675(3)
C50 C -0.0435(5) 0.6358(5) 0.9509(3)
C51 C 0.1374(4) 0.6315(4) 0.9469(3)
C52 C -0.0269(4) 0.7665(4) 0.8215(3)
C53 C -0.0291(4) 0.8108(4) 0.7533(3)
C54 C -0.1261(4) 0.8345(5) 0.7244(3)
C55 C -0.1488(6) 0.9382(6) 0.7068(5)
C56 C -0.2160(4) 0.7891(6) 0.7746(3)
C57 C -0.1125(5) 0.8062(8) 0.6596(4)
C58 C 0.0625(4) 0.8342(3) 0.7109(3)
C59 C 0.3054(4) 0.7554(3) 0.6619(2)
C60 C 0.4013(4) 0.7233(3) 0.6761(2)
C61 C 0.4622(4) 0.6626(3) 0.6431(3)
C62 C 0.5737(4) 0.6354(3) 0.6484(3)
C63 C 0.5846(5) 0.5720(5) 0.7183(3)
C64 C 0.6302(4) 0.7203(4) 0.6340(4)
C65 C 0.6266(5) 0.5870(5) 0.5951(4)
C66 C 0.4169(4) 0.6297(3) 0.6030(3)
C67 C 0.3187(4) 0.6531(4) 0.5927(3)
C68 C 0.2768(5) 0.6113(4) 0.5477(3)
C69 C 0.1832(6) 0.6637(5) 0.5260(4)
C70 C 0.3561(6) 0.6162(6) 0.4791(4)
C71 C 0.2616(8) 0.5127(5) 0.5832(4)
C72 C 0.2653(4) 0.7177(3) 0.6216(3)
C73 C 0.3594(4) 0.5881(3) 0.8440(3)
C74 C 0.2529(4) 0.8311(4) 0.9712(3)
H1 H 0.6129 0.5663 1.0040
H2 H 0.6788 0.6496 0.9690
H3 H 0.5917 0.6519 1.0307
H4 H 0.5622 0.5707 0.8956
H5 H 0.5388 0.6657 0.8454
H6 H 0.6453 0.6406 0.8655
H7 H 0.4163 0.6687 1.0197
H8 H 0.3852 0.6657 0.9532
H9 H 0.4362 0.5789 0.9984
H10 H 0.6399 0.7882 0.9674
H11 H 0.7212 1.0625 0.8520
H12 H 0.6353 1.0923 0.9053
H13 H 0.7472 1.0803 0.9156
H14 H 0.8299 0.9306 0.9562
H15 H 0.7795 0.8433 0.9608
H16 H 0.8178 0.9111 0.8898
H17 H 0.5785 0.9891 1.0164
H18 H 0.6284 0.8903 1.0386
H19 H 0.6873 0.9734 1.0327
H20 H 0.5737 1.0263 0.8407
H21 H 0.4040 0.9401 0.7721
H22 H 0.0602 1.0584 0.9446
H23 H -0.0259 1.0259 0.9208
H24 H 0.0808 0.9740 0.9166
H25 H 0.0361 1.2281 0.7914
H26 H -0.0557 1.1759 0.8392
H27 H 0.0213 1.2095 0.8702
H28 H 0.0824 0.9949 0.7933
H29 H -0.0198 1.0542 0.7937
H30 H 0.0769 1.0927 0.7426
H31 H 0.1764 1.2364 0.8318
H32 H 0.3948 1.3541 0.7072
H33 H 0.2786 1.3661 0.7331
H34 H 0.3512 1.4283 0.7441
H35 H 0.2133 1.3415 0.8595
H36 H 0.2867 1.2958 0.9101
H37 H 0.2992 1.3960 0.8640
H38 H 0.4733 1.3519 0.8280
H39 H 0.4594 1.2504 0.8705
H40 H 0.5078 1.2744 0.7932
H41 H 0.4622 1.1509 0.7859
H42 H 0.3389 0.9623 0.7061
H43 H 0.1619 0.8880 0.5705
H44 H 0.2005 0.9997 0.4670
H45 H 0.3316 1.0872 0.4454
H46 H 0.4704 1.1313 0.4890
H47 H 0.6148 1.1672 0.5324
H48 H 0.6964 1.1442 0.6197
H49 H 0.6284 1.0596 0.7291
H50 H 0.2956 0.8531 0.7098
H51 H 0.0782 0.8050 0.9545
H52 H -0.0372 0.8019 0.9582
H53 H 0.0159 0.7349 1.0151
H54 H -0.0465 0.6023 0.9978
H55 H -0.1047 0.6734 0.9456
H56 H -0.0353 0.5944 0.9242
H57 H 0.1951 0.6658 0.9380
H58 H 0.1224 0.5996 0.9944
H59 H 0.1514 0.5888 0.9210
H60 H -0.0874 0.7488 0.8502
H61 H -0.0943 0.9677 0.6735
H62 H -0.2098 0.9544 0.6888
H63 H -0.1566 0.9570 0.7470
H64 H -0.2275 0.8093 0.8144
H65 H -0.2745 0.8051 0.7540
H66 H -0.2023 0.7245 0.7869
H67 H -0.0965 0.7419 0.6696
H68 H -0.1737 0.8215 0.6418
H69 H -0.0588 0.8375 0.6265
H70 H 0.0632 0.8622 0.6649
H71 H 0.5571 0.6026 0.7521
H72 H 0.5490 0.5188 0.7274
H73 H 0.6545 0.5546 0.7194
H74 H 0.5987 0.7537 0.6653
H75 H 0.6988 0.7027 0.6391
H76 H 0.6284 0.7576 0.5885
H77 H 0.5983 0.5299 0.6050
H78 H 0.6172 0.6242 0.5508
H79 H 0.6971 0.5770 0.5963
H80 H 0.4552 0.5891 0.5814
H81 H 0.1304 0.6589 0.5650
H82 H 0.1964 0.7263 0.5046
H83 H 0.1630 0.6393 0.4945
H84 H 0.3280 0.5930 0.4501
H85 H 0.3713 0.6781 0.4564
H86 H 0.4166 0.5804 0.4895
H87 H 0.2092 0.5072 0.6225
H88 H 0.2429 0.4853 0.5529
H89 H 0.3230 0.4826 0.5968
H90 H 0.2002 0.7369 0.6141
H91 H 0.4230 0.5571 0.8319
H92 H 0.3405 0.5727 0.8925
H93 H 0.3092 0.5702 0.8258
H94 H 0.1999 0.8734 0.9835
H95 H 0.2350 0.7703 0.9954
H96 H 0.3138 0.8414 0.9827
C75 C 0.7488(13) 0.2505(11) 0.7243(7)
C76 C 0.8337(13) 0.2877(10) 0.6816(7)
C77 C 0.8461(8) 0.3847(8) 0.6559(5)
C78 C 0.9355(11) 0.4269(11) 0.6165(7)
C79 C 0.9387(11) 0.5194(12) 0.5907(8)
H97 H 0.7346 0.2721 0.7636
H98 H 0.7597 0.1856 0.7381
H99 H 0.6930 0.2677 0.7010
H100 H 0.8434 0.2657 0.6422
H101 H 0.8895 0.2608 0.7045
H102 H 0.7939 0.4101 0.6293
H103 H 0.8287 0.4072 0.6953
H104 H 0.9870 0.4061 0.6441
H105 H 0.9562 0.4022 0.5783
H106 H 0.8992 0.5413 0.5556
H107 H 1.0071 0.5343 0.5721
H108 H 0.9121 0.5472 0.6263
C75 C 0.2512(13) 0.7495(11) 0.2757(7)
C76 C 0.1663(13) 0.7123(10) 0.3184(7)
C77 C 0.1539(8) 0.6153(8) 0.3441(5)
C78 C 0.0645(11) 0.5731(11) 0.3835(7)
C79 C 0.0613(11) 0.4806(12) 0.4093(8)
H97 H 0.2654 0.7279 0.2364
H98 H 0.2403 0.8144 0.2619
H99 H 0.3070 0.7323 0.2990
H100 H 0.1566 0.7343 0.3578
H101 H 0.1105 0.7392 0.2955
H102 H 0.2061 0.5899 0.3707
H103 H 0.1713 0.5928 0.3047
H104 H 0.0130 0.5939 0.3559
H105 H 0.0438 0.5978 0.4217
H106 H 0.1008 0.4587 0.4444
H107 H -0.0071 0.4657 0.4279
H108 H 0.0879 0.4528 0.3737
C80 C 0.2321(10) 0.5788(10) 0.1395(7)
C81 C 0.1310(14) 0.5889(13) 0.1601(8)
C82 C 0.0701(12) 0.5160(11) 0.1867(8)
C83 C -0.0303(15) 0.5020(20) 0.2155(13)
C84 C -0.0998(9) 0.4488(8) 0.2303(7)
H109 H 0.2571 0.5203 0.1646
H110 H 0.2636 0.6253 0.1474
H111 H 0.2470 0.5836 0.0920
H112 H 0.1046 0.6294 0.1215
H113 H 0.1201 0.6212 0.1941
H114 H 0.0816 0.4886 0.1499
H115 H 0.1053 0.4746 0.2206
H116 H -0.0330 0.5107 0.2594
H117 H -0.0625 0.5571 0.1901
H118 H -0.0985 0.4257 0.1928
H119 H -0.1635 0.4812 0.2398
H120 H -0.0903 0.3992 0.2696
C80 C 0.7679(10) 0.4212(10) 0.8605(7)
C81 C 0.8690(14) 0.4111(13) 0.8399(8)
C82 C 0.9299(12) 0.4840(11) 0.8133(8)
C83 C 1.0303(15) 0.4980(20) 0.7845(13)
C84 C 1.0998(9) 0.5512(8) 0.7697(7)
H109 H 0.7429 0.4797 0.8354
H110 H 0.7364 0.3747 0.8526
H111 H 0.7530 0.4164 0.9080
H112 H 0.8954 0.3706 0.8785
H113 H 0.8799 0.3788 0.8059
H114 H 0.9184 0.5114 0.8501
H115 H 0.8947 0.5254 0.7794
H116 H 1.0330 0.4893 0.7406
H117 H 1.0625 0.4429 0.8099
H118 H 1.0985 0.5743 0.8072
H119 H 1.1635 0.5188 0.7602
H120 H 1.0903 0.6008 0.7304
C85 C 1.0111(6) 0.8733(5) 0.4586(4)
C86 C 0.9363(6) 0.8031(5) 0.4742(4)
C87 C 0.8843(5) 0.8111(5) 0.4157(3)
C88 C 0.8054(6) 0.7449(5) 0.4312(4)
C89 C 0.7544(7) 0.7521(6) 0.3735(4)
H121 H 1.0643 0.8653 0.4224
H122 H 1.0385 0.8664 0.4983
H123 H 0.9781 0.9328 0.4453
H124 H 0.8857 0.8087 0.5131
H125 H 0.9707 0.7433 0.4865
H126 H 0.8533 0.8721 0.4018
H127 H 0.9348 0.8024 0.3776
H128 H 0.8364 0.6838 0.4454
H129 H 0.7548 0.7538 0.4692
H130 H 0.7231 0.8121 0.3591
H131 H 0.7042 0.7087 0.3880
H132 H 0.8032 0.7400 0.3364
C85 C -0.0111(6) 0.1267(5) 0.5414(4)
C86 C 0.0637(6) 0.1969(5) 0.5258(4)
C87 C 0.1157(5) 0.1889(5) 0.5843(3)
C88 C 0.1946(6) 0.2551(5) 0.5688(4)
C89 C 0.2456(7) 0.2479(6) 0.6265(4)
H121 H -0.0643 0.1347 0.5776
H122 H -0.0385 0.1336 0.5017
H123 H 0.0219 0.0672 0.5547
H124 H 0.1143 0.1913 0.4869
H125 H 0.0293 0.2567 0.5135
H126 H 0.1467 0.1279 0.5982
H127 H 0.0652 0.1976 0.6224
H128 H 0.1636 0.3162 0.5546
H129 H 0.2452 0.2462 0.5308
H130 H 0.2769 0.1879 0.6409
H131 H 0.2958 0.2913 0.6120
H132 H 0.1968 0.2600 0.6636

#END
