./ACEHIA_from_xyz.cif_generated_by_CrystalShift
_symmetry_cell_setting triclinic
_symmetry_space_group_name_H-M 'P 1'
loop_
_symmetry_equiv_pos_site_id
_symmetry_equiv_pos_as_xyz
1 x,y,z
_cell_length_a 7.971300
_cell_length_b 15.498000
_cell_length_c 24.119000
_cell_angle_alpha 90.000000
_cell_angle_beta 97.340000
_cell_angle_gamma 90.000000
_cell_volume 2955.225484
loop_
_atom_site_label
_atom_site_type_symbol
_atom_site_fract_x
_atom_site_fract_y
_atom_site_fract_z
C1 C 0.907600 0.185500 0.575500
H2 H 0.835500 0.138500 0.559000
H3 H 1.022300 0.163600 0.586700
H4 H 0.911100 0.231600 0.547900
N5 N 0.840000 0.218700 0.623600
C6 C 0.854100 0.167500 0.671500
O7 O 0.924000 0.097500 0.670900
C8 C 0.779100 0.199200 0.719700
C9 C 0.774700 0.148000 0.765600
H10 H 0.816500 0.090600 0.765300
C11 C 0.710300 0.178800 0.812300
H12 H 0.712100 0.142900 0.844300
C13 C 0.643700 0.260200 0.813200
C14 C 0.576700 0.398700 0.763300
H15 H 0.532500 0.422200 0.794800
C16 C 0.576500 0.447200 0.717000
H17 H 0.533000 0.504300 0.716400
C18 C 0.638800 0.415000 0.670300
H19 H 0.636700 0.450100 0.637900
C20 C 0.701800 0.335400 0.670000
C21 C 0.711200 0.282700 0.718800
C22 C 0.640300 0.314900 0.766000
C23 C 0.765500 0.300500 0.619900
O24 O 0.750900 0.339000 0.576000
C25 C 0.576700 0.291700 0.862500
C26 C 0.522700 0.320900 0.902700
C27 C 0.480300 0.363700 0.952300
H28 H 0.362400 0.385000 0.945600
H29 H 0.488600 0.322200 0.983700
O30 O 0.593100 0.434800 0.966700
C31 C 0.760800 0.411400 0.977600
H32 H 0.788900 0.367400 0.949800
C33 C 0.868800 0.493100 0.973800
H34 H 0.829500 0.540400 0.997300
O35 O 0.843900 0.516600 0.915550
C36 C 0.788200 0.596200 0.901300
O37 O 0.764800 0.650700 0.935300
C38 C 0.759800 0.607600 0.839600
H39 H 0.862200 0.590900 0.823700
H40 H 0.733400 0.668200 0.830700
H41 H 0.665200 0.571200 0.823700
C42 C 1.052300 0.472400 0.992300
H43 H 1.099400 0.434500 0.964500
O44 O 1.145800 0.553300 1.000000
C45 C 1.244200 0.576100 0.961800
O46 O 1.241400 0.540500 0.917100
C47 C 1.358600 0.648700 0.982100
H48 H 1.391500 0.680400 0.950000
H49 H 1.459900 0.625800 1.004600
H50 H 1.299500 0.687700 1.005100
C51 C 1.070100 0.430600 1.049200
H52 H 1.036800 0.471900 1.077800
O53 O 1.242800 0.405200 1.062990
C54 C 1.323400 0.433700 1.112900
O55 O 1.257500 0.478800 1.143400
C56 C 1.502100 0.394500 1.123700
H57 H 1.493600 0.331900 1.128300
H58 H 1.563000 0.419700 1.157800
H59 H 1.563500 0.407000 1.092000
C60 C 0.963500 0.349600 1.047700
H61 H 0.996600 0.309900 1.018200
C62 C 0.974800 0.303400 1.100800
H63 H 0.898100 0.252900 1.097400
H64 H 1.091800 0.282800 1.112000
O65 O 0.929100 0.359400 1.139100
C66 C 1.014000 0.352800 1.192000
O67 O 1.100000 0.292300 1.207000
C68 C 0.950600 0.423900 1.230500
H69 H 0.915200 0.396800 1.263800
H70 H 0.854600 0.454700 1.210100
H71 H 1.042500 0.464800 1.241800
O72 O 0.787600 0.377000 1.032300
C73 C 0.092400 0.685500 0.424500
H74 H 0.164500 0.638500 0.441000
H75 H -0.022300 0.663600 0.413300
H76 H 0.088900 0.731600 0.452100
N77 N 0.160000 0.718700 0.376400
C78 C 0.145900 0.667500 0.328500
O79 O 0.076000 0.597500 0.329100
C80 C 0.220900 0.699200 0.280300
C81 C 0.225300 0.648000 0.234400
H82 H 0.183500 0.590600 0.234700
C83 C 0.289700 0.678800 0.187700
H84 H 0.287900 0.642900 0.155700
C85 C 0.356300 0.760200 0.186800
C86 C 0.423300 0.898700 0.236700
H87 H 0.467500 0.922200 0.205200
C88 C 0.423500 0.947200 0.283000
H89 H 0.467000 1.004300 0.283600
C90 C 0.361200 0.915000 0.329700
H91 H 0.363300 0.950100 0.362100
C92 C 0.298200 0.835400 0.330000
C93 C 0.288800 0.782700 0.281200
C94 C 0.359700 0.814900 0.234000
C95 C 0.234500 0.800500 0.380100
O96 O 0.249100 0.839000 0.424000
C97 C 0.423300 0.791700 0.137500
C98 C 0.477300 0.820900 0.097300
C99 C 0.519700 0.863700 0.047700
H100 H 0.637600 0.885000 0.054400
H101 H 0.511400 0.822200 0.016300
O102 O 0.406900 0.934800 0.033300
C103 C 0.239200 0.911400 0.022400
H104 H 0.211100 0.867400 0.050200
C105 C 0.131200 0.993100 0.026200
H106 H 0.170500 1.040400 0.002700
O107 O 0.156100 1.016600 0.084450
C108 C 0.211800 1.096200 0.098700
O109 O 0.235200 1.150700 0.064700
C110 C 0.240200 1.107600 0.160400
H111 H 0.137800 1.090900 0.176300
H112 H 0.266600 1.168200 0.169300
H113 H 0.334800 1.071200 0.176300
C114 C -0.052300 0.972400 0.007700
H115 H -0.099400 0.934500 0.035500
O116 O -0.145800 1.053300 0.000000
C117 C -0.244200 1.076100 0.038200
O118 O -0.241400 1.040500 0.082900
C119 C -0.358600 1.148700 0.017900
H120 H -0.391500 1.180400 0.050000
H121 H -0.459900 1.125800 -0.004600
H122 H -0.299500 1.187700 -0.005100
C123 C -0.070100 0.930600 -0.049200
H124 H -0.036800 0.971900 -0.077800
O125 O -0.242800 0.905200 -0.062990
C126 C -0.323400 0.933700 -0.112900
O127 O -0.257500 0.978800 -0.143400
C128 C -0.502100 0.894500 -0.123700
H129 H -0.493600 0.831900 -0.128300
H130 H -0.563000 0.919700 -0.157800
H131 H -0.563500 0.907000 -0.092000
C132 C 0.036500 0.849600 -0.047700
H133 H 0.003400 0.809900 -0.018200
C134 C 0.025200 0.803400 -0.100800
H135 H 0.101900 0.752900 -0.097400
H136 H -0.091800 0.782800 -0.112000
O137 O 0.070900 0.859400 -0.139100
C138 C -0.014000 0.852800 -0.192000
O139 O -0.100000 0.792300 -0.207000
C140 C 0.049400 0.923900 -0.230500
H141 H 0.084800 0.896800 -0.263800
H142 H 0.145400 0.954700 -0.210100
H143 H -0.042500 0.964800 -0.241800
O144 O 0.212400 0.877000 -0.032300
C145 C 1.163200 0.150600 0.924700
H146 H 1.066100 0.170300 0.942400
H147 H 1.267900 0.163300 0.949300
H148 H 1.154400 0.088300 0.918200
N149 N 1.165100 0.196200 0.870300
C150 C 1.241000 0.153200 0.830000
O151 O 1.302500 0.081800 0.838200
C152 C 1.242300 0.197100 0.775300
C153 C 1.312200 0.157200 0.732000
H154 H 1.358500 0.100800 0.736900
C155 C 1.313900 0.199700 0.681800
H156 H 1.360600 0.171700 0.652200
C157 C 1.248900 0.282600 0.673500
C158 C 1.113700 0.410500 0.711600
H159 H 1.113400 0.439900 0.677000
C160 C 1.052900 0.449800 0.755400
H161 H 1.009100 0.506700 0.751200
C162 C 1.054100 0.406800 0.807200
H163 H 1.016500 0.436100 0.838000
C164 C 1.108900 0.323400 0.813300
C165 C 1.175800 0.281400 0.768600
C166 C 1.178200 0.324500 0.718100
C167 C 1.103500 0.278500 0.866600
O168 O 1.047000 0.310700 0.906100
C169 C 1.256400 0.325000 0.622100
C170 C 1.272300 0.363800 0.579500
C171 C 1.286800 0.411300 0.528300
H172 H 1.405100 0.431000 0.528700
H173 H 1.260200 0.372100 0.495900
O174 O 1.178400 0.483400 0.521310
C175 C 1.009300 0.460100 0.510100
H176 H 0.982400 0.411100 0.534400
C177 C 0.904000 0.538000 0.519200
H178 H 0.946200 0.588900 0.499500
O179 O 0.921700 0.554100 0.577560
C180 C 0.939400 0.638200 0.596000
O181 O 0.944400 0.697700 0.565300
C182 C 0.948400 0.644000 0.656600
H183 H 0.911600 0.701500 0.667000
H184 H 1.065200 0.634200 0.673700
H185 H 0.874500 0.600200 0.670000
C186 C 0.718500 0.521600 0.497200
H187 H 0.668600 0.481500 0.523200
O188 O 0.626300 0.602000 0.493800
C189 C 0.545100 0.623200 0.537100
O190 O 0.544100 0.581300 0.577300
C191 C 0.466900 0.711800 0.529100
H192 H 0.533200 0.753000 0.553700
H193 H 0.350600 0.710000 0.538200
H194 H 0.466000 0.729700 0.490100
C195 C 0.697700 0.483500 0.439500
H196 H 0.722300 0.527700 0.411400
O197 O 0.526000 0.454000 0.427780
C198 C 0.443200 0.474300 0.376800
O199 O 0.499300 0.518800 0.344400
C200 C 0.275000 0.427100 0.367600
H201 H 0.241300 0.418800 0.327400
H202 H 0.188800 0.461200 0.383200
H203 H 0.286400 0.370800 0.386200
C204 C 0.813600 0.404400 0.437100
H205 H 0.785200 0.358800 0.463700
C206 C 0.815000 0.366700 0.378600
H207 H 0.828200 0.413300 0.351500
H208 H 0.910600 0.325900 0.378500
O209 O 0.662100 0.323800 0.364000
C210 C 0.646000 0.279900 0.314400
O211 O 0.750900 0.284800 0.284100
C212 C 0.467300 0.240000 0.300600
H213 H 0.469700 0.195300 0.272000
H214 H 0.386700 0.285100 0.286500
H215 H 0.432400 0.214400 0.334400
O216 O 0.982800 0.436600 0.453140
C217 C -0.163200 0.650600 0.075300
H218 H -0.066100 0.670300 0.057600
H219 H -0.267900 0.663300 0.050700
H220 H -0.154400 0.588300 0.081800
N221 N -0.165100 0.696200 0.129700
C222 C -0.241000 0.653200 0.170000
O223 O -0.302500 0.581800 0.161800
C224 C -0.242300 0.697100 0.224700
C225 C -0.312200 0.657200 0.268000
H226 H -0.358500 0.600800 0.263100
C227 C -0.313900 0.699700 0.318200
H228 H -0.360600 0.671700 0.347800
C229 C -0.248900 0.782600 0.326500
C230 C -0.113700 0.910500 0.288400
H231 H -0.113400 0.939900 0.323000
C232 C -0.052900 0.949800 0.244600
H233 H -0.009100 1.006700 0.248800
C234 C -0.054100 0.906800 0.192800
H235 H -0.016500 0.936100 0.162000
C236 C -0.108900 0.823400 0.186700
C237 C -0.175800 0.781400 0.231400
C238 C -0.178200 0.824500 0.281900
C239 C -0.103500 0.778500 0.133400
O240 O -0.047000 0.810700 0.093900
C241 C -0.256400 0.825000 0.377900
C242 C -0.272300 0.863800 0.420500
C243 C -0.286800 0.911300 0.471700
H244 H -0.405100 0.931000 0.471300
H245 H -0.260200 0.872100 0.504100
O246 O -0.178400 0.983400 0.478690
C247 C -0.009300 0.960100 0.489900
H248 H 0.017600 0.911100 0.465600
C249 C 0.096000 1.038000 0.480800
H250 H 0.053800 1.088900 0.500500
O251 O 0.078300 1.054100 0.422440
C252 C 0.060600 1.138200 0.404000
O253 O 0.055600 1.197700 0.434700
C254 C 0.051600 1.144000 0.343400
H255 H 0.088400 1.201500 0.333000
H256 H -0.065200 1.134200 0.326300
H257 H 0.125500 1.100200 0.330000
C258 C 0.281500 1.021600 0.502800
H259 H 0.331400 0.981500 0.476800
O260 O 0.373700 1.102000 0.506200
C261 C 0.454900 1.123200 0.462900
O262 O 0.455900 1.081300 0.422700
C263 C 0.533100 1.211800 0.470900
H264 H 0.466800 1.253000 0.446300
H265 H 0.649400 1.210000 0.461800
H266 H 0.534000 1.229700 0.509900
C267 C 0.302300 0.983500 0.560500
H268 H 0.277700 1.027700 0.588600
O269 O 0.474000 0.954000 0.572220
C270 C 0.556800 0.974300 0.623200
O271 O 0.500700 1.018800 0.655600
C272 C 0.725000 0.927100 0.632400
H273 H 0.758700 0.918800 0.672600
H274 H 0.811200 0.961200 0.616800
H275 H 0.713600 0.870800 0.613800
C276 C 0.186400 0.904400 0.562900
H277 H 0.214800 0.858800 0.536300
C278 C 0.185000 0.866700 0.621400
H279 H 0.171800 0.913300 0.648500
H280 H 0.089400 0.825900 0.621500
O281 O 0.337900 0.823800 0.636000
C282 C 0.354000 0.779900 0.685600
O283 O 0.249100 0.784800 0.715900
C284 C 0.532700 0.740000 0.699400
H285 H 0.530300 0.695300 0.728000
H286 H 0.613300 0.785100 0.713500
H287 H 0.567600 0.714400 0.665600
O288 O 0.017200 0.936600 0.546860

#END
