
#######################################################################
#
#                 Cambridge Crystallographic Data Centre
#                                CCDC 
#
#######################################################################
#
# If this CIF has been generated from an entry in the Cambridge 
# Structural Database, then it will include bibliographic, chemical, 
# crystal, experimental, refinement or atomic coordinate data resulting 
# from the CCDC's data processing and validation procedures.
#
#######################################################################

data_ACENEC
_symmetry_cell_setting           orthorhombic
_symmetry_space_group_name_H-M   'P c a 21'
_symmetry_Int_Tables_number      29
_space_group_name_Hall           'P 2c -2ac'
loop_
_symmetry_equiv_pos_site_id
_symmetry_equiv_pos_as_xyz
1 x,y,z
2 -x,-y,1/2+z
3 1/2-x,y,1/2+z
4 1/2+x,-y,z
_cell_length_a                   28.774(7)
_cell_length_b                   8.907(4)
_cell_length_c                   6.089(3)
_cell_angle_alpha                90
_cell_angle_beta                 90
_cell_angle_gamma                90
_cell_volume                     1560.55
loop_
_atom_site_label
_atom_site_type_symbol
_atom_site_fract_x
_atom_site_fract_y
_atom_site_fract_z
N1 N 0.07967(11) 0.1531(3) 0.0993(5)
N2 N 0.02254(12) -0.3256(4) 0.0354(7)
H1 H 0.00317(12) -0.3915(4) -0.0123(7)
H2 H 0.02713(12) -0.2443(4) -0.0376(7)
O1 O 0.04735(9) -0.0366(3) -0.0989(4)
O2 O 0.03983(11) -0.4628(3) 0.3293(7)
C1 C 0.06373(12) 0.0122(4) 0.0745(6)
C2 C 0.06787(12) -0.0685(4) 0.2913(6)
H3 H 0.03847(12) -0.0579(4) 0.3711(6)
C3 C 0.08151(13) -0.2348(4) 0.2887(7)
H4 H 0.08960(13) -0.2598(4) 0.4407(7)
C4 C 0.12602(13) -0.2555(5) 0.1567(7)
H5 H 0.13723(13) -0.3574(5) 0.1751(7)
H6 H 0.11946(13) -0.2402(5) 0.0020(7)
C5 C 0.16297(13) -0.1474(5) 0.2286(7)
C6 C 0.15288(14) -0.0280(5) 0.3486(7)
H7 H 0.17778(14) 0.0287(5) 0.3996(7)
C7 C 0.10531(14) 0.0244(4) 0.4100(6)
H8 H 0.10086(14) 0.0212(4) 0.5695(6)
C8 C 0.09634(15) 0.1827(4) 0.3199(7)
H9 H 0.07309(15) 0.2348(4) 0.4065(7)
H10 H 0.12466(15) 0.2417(4) 0.3175(7)
C9 C 0.07684(15) 0.2680(4) -0.0665(7)
H11 H 0.06103(15) 0.3544(4) -0.0047(7)
H12 H 0.05798(15) 0.2308(4) -0.1868(7)
C10 C 0.12297(14) 0.3184(4) -0.1570(6)
C11 C 0.16201(15) 0.2281(5) -0.1461(8)
H13 H 0.16039(15) 0.1350(5) -0.0773(8)
C12 C 0.2036(2) 0.2761(6) -0.2377(9)
H14 H 0.2296(2) 0.2142(6) -0.2335(9)
C13 C 0.2062(2) 0.4147(7) -0.3345(9)
H15 H 0.2343(2) 0.4486(7) -0.3916(9)
C14 C 0.1678(2) 0.5022(6) -0.3468(9)
H16 H 0.1696(2) 0.5950(6) -0.4164(9)
C15 C 0.1263(2) 0.4561(5) -0.2580(8)
H17 H 0.1003(2) 0.5182(5) -0.2663(8)
C16 C 0.04517(14) -0.3492(5) 0.2200(8)
C17 C 0.21142(14) -0.1844(6) 0.1529(11)
H18 H 0.2117(3) -0.1941(35) -0.0042(11)
H19 H 0.2212(5) -0.2773(20) 0.2183(42)
H20 H 0.2322(2) -0.1056(19) 0.1962(48)
N1 N 0.92033(11) 0.8469(3) 0.5993(5)
N2 N 0.97746(12) 1.3256(4) 0.5354(7)
H1 H 0.99683(12) 1.3915(4) 0.4877(7)
H2 H 0.97287(12) 1.2443(4) 0.4624(7)
O1 O 0.95265(9) 1.0366(3) 0.4011(4)
O2 O 0.96017(11) 1.4628(3) 0.8293(7)
C1 C 0.93627(12) 0.9878(4) 0.5745(6)
C2 C 0.93213(12) 1.0685(4) 0.7913(6)
H3 H 0.96153(12) 1.0579(4) 0.8711(6)
C3 C 0.91849(13) 1.2348(4) 0.7887(7)
H4 H 0.91040(13) 1.2598(4) 0.9407(7)
C4 C 0.87398(13) 1.2555(5) 0.6567(7)
H5 H 0.86277(13) 1.3574(5) 0.6751(7)
H6 H 0.88054(13) 1.2402(5) 0.5020(7)
C5 C 0.83703(13) 1.1474(5) 0.7286(7)
C6 C 0.84712(14) 1.0280(5) 0.8486(7)
H7 H 0.82222(14) 0.9713(5) 0.8996(7)
C7 C 0.89469(14) 0.9756(4) 0.9100(6)
H8 H 0.89914(14) 0.9788(4) 1.0695(6)
C8 C 0.90366(15) 0.8173(4) 0.8199(7)
H9 H 0.92691(15) 0.7652(4) 0.9065(7)
H10 H 0.87534(15) 0.7583(4) 0.8175(7)
C9 C 0.92316(15) 0.7320(4) 0.4335(7)
H11 H 0.93897(15) 0.6456(4) 0.4953(7)
H12 H 0.94202(15) 0.7692(4) 0.3132(7)
C10 C 0.87703(14) 0.6816(4) 0.3430(6)
C11 C 0.83799(15) 0.7719(5) 0.3539(8)
H13 H 0.83961(15) 0.8650(5) 0.4227(8)
C12 C 0.7964(2) 0.7239(6) 0.2623(9)
H14 H 0.7704(2) 0.7858(6) 0.2665(9)
C13 C 0.7938(2) 0.5853(7) 0.1655(9)
H15 H 0.7657(2) 0.5514(7) 0.1084(9)
C14 C 0.8322(2) 0.4978(6) 0.1532(9)
H16 H 0.8304(2) 0.4050(6) 0.0836(9)
C15 C 0.8737(2) 0.5439(5) 0.2420(8)
H17 H 0.8997(2) 0.4818(5) 0.2337(8)
C16 C 0.95483(14) 1.3492(5) 0.7200(8)
C17 C 0.78858(14) 1.1844(6) 0.6529(11)
H18 H 0.7883(3) 1.1941(35) 0.4958(11)
H19 H 0.7788(5) 1.2773(20) 0.7183(42)
H20 H 0.7678(2) 1.1056(19) 0.6962(48)
N1 N 0.42033(11) 0.1531(3) 0.5993(5)
N2 N 0.47746(12) -0.3256(4) 0.5354(7)
H1 H 0.49683(12) -0.3915(4) 0.4877(7)
H2 H 0.47287(12) -0.2443(4) 0.4624(7)
O1 O 0.45265(9) -0.0366(3) 0.4011(4)
O2 O 0.46017(11) -0.4628(3) 0.8293(7)
C1 C 0.43627(12) 0.0122(4) 0.5745(6)
C2 C 0.43213(12) -0.0685(4) 0.7913(6)
H3 H 0.46153(12) -0.0579(4) 0.8711(6)
C3 C 0.41849(13) -0.2348(4) 0.7887(7)
H4 H 0.41040(13) -0.2598(4) 0.9407(7)
C4 C 0.37398(13) -0.2555(5) 0.6567(7)
H5 H 0.36277(13) -0.3574(5) 0.6751(7)
H6 H 0.38054(13) -0.2402(5) 0.5020(7)
C5 C 0.33703(13) -0.1474(5) 0.7286(7)
C6 C 0.34712(14) -0.0280(5) 0.8486(7)
H7 H 0.32222(14) 0.0287(5) 0.8996(7)
C7 C 0.39469(14) 0.0244(4) 0.9100(6)
H8 H 0.39914(14) 0.0212(4) 1.0695(6)
C8 C 0.40366(15) 0.1827(4) 0.8199(7)
H9 H 0.42691(15) 0.2348(4) 0.9065(7)
H10 H 0.37534(15) 0.2417(4) 0.8175(7)
C9 C 0.42316(15) 0.2680(4) 0.4335(7)
H11 H 0.43897(15) 0.3544(4) 0.4953(7)
H12 H 0.44202(15) 0.2308(4) 0.3132(7)
C10 C 0.37703(14) 0.3184(4) 0.3430(6)
C11 C 0.33799(15) 0.2281(5) 0.3539(8)
H13 H 0.33961(15) 0.1350(5) 0.4227(8)
C12 C 0.2964(2) 0.2761(6) 0.2623(9)
H14 H 0.2704(2) 0.2142(6) 0.2665(9)
C13 C 0.2938(2) 0.4147(7) 0.1655(9)
H15 H 0.2657(2) 0.4486(7) 0.1084(9)
C14 C 0.3322(2) 0.5022(6) 0.1532(9)
H16 H 0.3304(2) 0.5950(6) 0.0836(9)
C15 C 0.3737(2) 0.4561(5) 0.2420(8)
H17 H 0.3997(2) 0.5182(5) 0.2337(8)
C16 C 0.45483(14) -0.3492(5) 0.7200(8)
C17 C 0.28858(14) -0.1844(6) 0.6529(11)
H18 H 0.2883(3) -0.1941(35) 0.4958(11)
H19 H 0.2788(5) -0.2773(20) 0.7183(42)
H20 H 0.2678(2) -0.1056(19) 0.6962(48)
N1 N 0.57967(11) 0.8469(3) 0.0993(5)
N2 N 0.52254(12) 1.3256(4) 0.0354(7)
H1 H 0.50317(12) 1.3915(4) -0.0123(7)
H2 H 0.52713(12) 1.2443(4) -0.0376(7)
O1 O 0.54735(9) 1.0366(3) -0.0989(4)
O2 O 0.53983(11) 1.4628(3) 0.3293(7)
C1 C 0.56373(12) 0.9878(4) 0.0745(6)
C2 C 0.56787(12) 1.0685(4) 0.2913(6)
H3 H 0.53847(12) 1.0579(4) 0.3711(6)
C3 C 0.58151(13) 1.2348(4) 0.2887(7)
H4 H 0.58960(13) 1.2598(4) 0.4407(7)
C4 C 0.62602(13) 1.2555(5) 0.1567(7)
H5 H 0.63723(13) 1.3574(5) 0.1751(7)
H6 H 0.61946(13) 1.2402(5) 0.0020(7)
C5 C 0.66297(13) 1.1474(5) 0.2286(7)
C6 C 0.65288(14) 1.0280(5) 0.3486(7)
H7 H 0.67778(14) 0.9713(5) 0.3996(7)
C7 C 0.60531(14) 0.9756(4) 0.4100(6)
H8 H 0.60086(14) 0.9788(4) 0.5695(6)
C8 C 0.59634(15) 0.8173(4) 0.3199(7)
H9 H 0.57309(15) 0.7652(4) 0.4065(7)
H10 H 0.62466(15) 0.7583(4) 0.3175(7)
C9 C 0.57684(15) 0.7320(4) -0.0665(7)
H11 H 0.56103(15) 0.6456(4) -0.0047(7)
H12 H 0.55798(15) 0.7692(4) -0.1868(7)
C10 C 0.62297(14) 0.6816(4) -0.1570(6)
C11 C 0.66201(15) 0.7719(5) -0.1461(8)
H13 H 0.66039(15) 0.8650(5) -0.0773(8)
C12 C 0.7036(2) 0.7239(6) -0.2377(9)
H14 H 0.7296(2) 0.7858(6) -0.2335(9)
C13 C 0.7062(2) 0.5853(7) -0.3345(9)
H15 H 0.7343(2) 0.5514(7) -0.3916(9)
C14 C 0.6678(2) 0.4978(6) -0.3468(9)
H16 H 0.6696(2) 0.4050(6) -0.4164(9)
C15 C 0.6263(2) 0.5439(5) -0.2580(8)
H17 H 0.6003(2) 0.4818(5) -0.2663(8)
C16 C 0.54517(14) 1.3492(5) 0.2200(8)
C17 C 0.71142(14) 1.1844(6) 0.1529(11)
H18 H 0.7117(3) 1.1941(35) -0.0042(11)
H19 H 0.7212(5) 1.2773(20) 0.2183(42)
H20 H 0.7322(2) 1.1056(19) 0.1962(48)

#END
