./ACEQAA_from_xyz.cif_generated_by_CrystalShift
_symmetry_cell_setting triclinic
_symmetry_space_group_name_H-M 'P 1'
loop_
_symmetry_equiv_pos_site_id
_symmetry_equiv_pos_as_xyz
1 x,y,z
_cell_length_a 12.747000
_cell_length_b 13.590000
_cell_length_c 9.177000
_cell_angle_alpha 90.000000
_cell_angle_beta 90.000000
_cell_angle_gamma 90.000000
_cell_volume 1589.747586
loop_
_atom_site_label
_atom_site_type_symbol
_atom_site_fract_x
_atom_site_fract_y
_atom_site_fract_z
Pt1 Pt 0.492260 0.750000 0.828250
Cl2 Cl 0.673600 0.377600 0.482500
C3 C 0.598900 0.562200 0.791600
H4 H 0.589300 0.559400 0.892000
N5 N 0.578700 0.646600 0.724500
Cl6 Cl 0.388900 0.632200 0.934700
C7 C 0.632800 0.478700 0.722100
H8 H 0.649400 0.421700 0.773300
C9 C 0.641000 0.483600 0.573500
C10 C 0.622300 0.569400 0.496400
C11 C 0.599600 0.658600 0.577900
C12 C 0.623800 0.575200 0.340600
H13 H 0.632900 0.518000 0.286500
C14 C 0.612200 0.661400 0.270800
H15 H 0.612300 0.662800 0.169400
C16 C 0.600100 0.750000 0.349700
C17 C 0.592200 0.750000 0.506000
C18 C 0.599600 0.841400 0.577900
N19 N 0.578700 0.853400 0.724500
Cl20 Cl 0.388900 0.867800 0.934700
C21 C 0.598900 0.937800 0.791600
H22 H 0.589300 0.940600 0.892000
C23 C 0.632800 1.021300 0.722100
H24 H 0.649400 1.078300 0.773300
C25 C 0.641000 1.016400 0.573500
Cl26 Cl 0.673600 1.122400 0.482500
C27 C 0.622300 0.930600 0.496400
C28 C 0.623800 0.924800 0.340600
H29 H 0.632900 0.982000 0.286500
C30 C 0.612200 0.838600 0.270800
H31 H 0.612300 0.837200 0.169400
Pt32 Pt 1.007740 0.250000 0.328250
Cl33 Cl 0.826400 0.622400 -0.017500
C34 C 0.901100 0.437800 0.291600
H35 H 0.910700 0.440600 0.392000
N36 N 0.921300 0.353400 0.224500
Cl37 Cl 1.111100 0.367800 0.434700
C38 C 0.867200 0.521300 0.222100
H39 H 0.850600 0.578300 0.273300
C40 C 0.859000 0.516400 0.073500
C41 C 0.877700 0.430600 -0.003600
C42 C 0.900400 0.341400 0.077900
C43 C 0.876200 0.424800 -0.159400
H44 H 0.867100 0.482000 -0.213500
C45 C 0.887800 0.338600 -0.229200
H46 H 0.887700 0.337200 -0.330600
C47 C 0.899900 0.250000 -0.150300
C48 C 0.907800 0.250000 0.006000
C49 C 0.900400 0.158600 0.077900
N50 N 0.921300 0.146600 0.224500
Cl51 Cl 1.111100 0.132200 0.434700
C52 C 0.901100 0.062200 0.291600
H53 H 0.910700 0.059400 0.392000
C54 C 0.867200 -0.021300 0.222100
H55 H 0.850600 -0.078300 0.273300
C56 C 0.859000 -0.016400 0.073500
Cl57 Cl 0.826400 -0.122400 -0.017500
C58 C 0.877700 0.069400 -0.003600
C59 C 0.876200 0.075200 -0.159400
H60 H 0.867100 0.018000 -0.213500
C61 C 0.887800 0.161400 -0.229200
H62 H 0.887700 0.162800 -0.330600
Pt63 Pt 0.507740 0.250000 0.171750
Cl64 Cl 0.326400 -0.122400 0.517500
C65 C 0.401100 0.062200 0.208400
H66 H 0.410700 0.059400 0.108000
N67 N 0.421300 0.146600 0.275500
Cl68 Cl 0.611100 0.132200 0.065300
C69 C 0.367200 -0.021300 0.277900
H70 H 0.350600 -0.078300 0.226700
C71 C 0.359000 -0.016400 0.426500
C72 C 0.377700 0.069400 0.503600
C73 C 0.400400 0.158600 0.422100
C74 C 0.376200 0.075200 0.659400
H75 H 0.367100 0.018000 0.713500
C76 C 0.387800 0.161400 0.729200
H77 H 0.387700 0.162800 0.830600
C78 C 0.399900 0.250000 0.650300
C79 C 0.407800 0.250000 0.494000
C80 C 0.400400 0.341400 0.422100
N81 N 0.421300 0.353400 0.275500
Cl82 Cl 0.611100 0.367800 0.065300
C83 C 0.401100 0.437800 0.208400
H84 H 0.410700 0.440600 0.108000
C85 C 0.367200 0.521300 0.277900
H86 H 0.350600 0.578300 0.226700
C87 C 0.359000 0.516400 0.426500
Cl88 Cl 0.326400 0.622400 0.517500
C89 C 0.377700 0.430600 0.503600
C90 C 0.376200 0.424800 0.659400
H91 H 0.367100 0.482000 0.713500
C92 C 0.387800 0.338600 0.729200
H93 H 0.387700 0.337200 0.830600
Pt94 Pt -0.007740 0.750000 0.671750
Cl95 Cl 0.173600 1.122400 1.017500
C96 C 0.098900 0.937800 0.708400
H97 H 0.089300 0.940600 0.608000
N98 N 0.078700 0.853400 0.775500
Cl99 Cl -0.111100 0.867800 0.565300
C100 C 0.132800 1.021300 0.777900
H101 H 0.149400 1.078300 0.726700
C102 C 0.141000 1.016400 0.926500
C103 C 0.122300 0.930600 1.003600
C104 C 0.099600 0.841400 0.922100
C105 C 0.123800 0.924800 1.159400
H106 H 0.132900 0.982000 1.213500
C107 C 0.112200 0.838600 1.229200
H108 H 0.112300 0.837200 1.330600
C109 C 0.100100 0.750000 1.150300
C110 C 0.092200 0.750000 0.994000
C111 C 0.099600 0.658600 0.922100
N112 N 0.078700 0.646600 0.775500
Cl113 Cl -0.111100 0.632200 0.565300
C114 C 0.098900 0.562200 0.708400
H115 H 0.089300 0.559400 0.608000
C116 C 0.132800 0.478700 0.777900
H117 H 0.149400 0.421700 0.726700
C118 C 0.141000 0.483600 0.926500
Cl119 Cl 0.173600 0.377600 1.017500
C120 C 0.122300 0.569400 1.003600
C121 C 0.123800 0.575200 1.159400
H122 H 0.132900 0.518000 1.213500
C123 C 0.112200 0.661400 1.229200
H124 H 0.112300 0.662800 1.330600

#END
