./LIBFUY_from_xyz.cif_generated_by_CrystalShift
_symmetry_cell_setting triclinic
_symmetry_space_group_name_H-M 'P 1'
loop_
_symmetry_equiv_pos_site_id
_symmetry_equiv_pos_as_xyz
1 x,y,z
_cell_length_a 7.628400
_cell_length_b 8.021500
_cell_length_c 12.008500
_cell_angle_alpha 77.503000
_cell_angle_beta 80.148000
_cell_angle_gamma 66.855000
_cell_volume 656.625757
loop_
_atom_site_label
_atom_site_type_symbol
_atom_site_fract_x
_atom_site_fract_y
_atom_site_fract_z
Ir1 Ir 0.857790 0.641516 0.732115
Cl2 Cl 0.978700 0.824920 0.802090
C3 C 0.680900 0.481300 0.736500
C4 C 0.745500 0.438000 0.849700
C5 C 0.675300 0.600400 0.897300
C6 C 0.560500 0.748100 0.814400
C7 C 0.557600 0.672400 0.719200
C8 C 0.710500 0.344700 0.661200
C9 C 0.861900 0.249700 0.905800
C10 C 0.703900 0.620800 1.012300
C11 C 0.451400 0.941600 0.834300
C12 C 0.446400 0.771600 0.617500
O13 O 1.236400 0.387900 0.657200
C14 C 1.109100 0.475700 0.683900
C15 C 0.864600 0.812900 0.575300
H16 H 0.986500 0.829100 0.559700
H17 H 0.761600 0.931500 0.578100
H18 H 0.849000 0.758000 0.515000
H19 H 0.604000 0.298000 0.685000
H20 H 0.815000 0.250000 0.675000
H21 H 0.705000 0.406000 0.578000
H22 H 0.953000 0.187000 0.859000
H23 H 0.793000 0.185000 0.918000
H24 H 0.913000 0.236000 0.977000
H25 H 0.733000 0.718000 1.010000
H26 H 0.597000 0.643000 1.058000
H27 H 0.792000 0.518000 1.051000
H28 H 0.538000 0.981000 0.880000
H29 H 0.434000 1.030000 0.781000
H30 H 0.331000 0.945000 0.870000
H31 H 0.434000 0.902000 0.607000
H32 H 0.507000 0.718000 0.548000
H33 H 0.339000 0.760000 0.636000
Ir34 Ir 0.142210 0.358484 0.267885
Cl35 Cl 0.021300 0.175080 0.197910
C36 C 0.319100 0.518700 0.263500
C37 C 0.254500 0.562000 0.150300
C38 C 0.324700 0.399600 0.102700
C39 C 0.439500 0.251900 0.185600
C40 C 0.442400 0.327600 0.280800
C41 C 0.289500 0.655300 0.338800
C42 C 0.138100 0.750300 0.094200
C43 C 0.296100 0.379200 -0.012300
C44 C 0.548600 0.058400 0.165700
C45 C 0.553600 0.228400 0.382500
O46 O -0.236400 0.612100 0.342800
C47 C -0.109100 0.524300 0.316100
C48 C 0.135400 0.187100 0.424700
H49 H 0.013500 0.170900 0.440300
H50 H 0.238400 0.068500 0.421900
H51 H 0.151000 0.242000 0.485000
H52 H 0.396000 0.702000 0.315000
H53 H 0.185000 0.750000 0.325000
H54 H 0.295000 0.594000 0.422000
H55 H 0.047000 0.813000 0.141000
H56 H 0.207000 0.815000 0.082000
H57 H 0.087000 0.764000 0.023000
H58 H 0.267000 0.282000 -0.010000
H59 H 0.403000 0.357000 -0.058000
H60 H 0.208000 0.482000 -0.051000
H61 H 0.462000 0.019000 0.120000
H62 H 0.566000 -0.030000 0.219000
H63 H 0.669000 0.055000 0.130000
H64 H 0.566000 0.098000 0.393000
H65 H 0.493000 0.282000 0.452000
H66 H 0.661000 0.240000 0.364000

#END
