
#######################################################################
#
#                 Cambridge Crystallographic Data Centre
#                                CCDC 
#
#######################################################################
#
# If this CIF has been generated from an entry in the Cambridge 
# Structural Database, then it will include bibliographic, chemical, 
# crystal, experimental, refinement or atomic coordinate data resulting 
# from the CCDC's data processing and validation procedures.
#
#######################################################################

data_LIBHEJ
_symmetry_cell_setting           triclinic
_symmetry_space_group_name_H-M   'P -1'
_symmetry_Int_Tables_number      2
_space_group_name_Hall           '-P 1'
loop_
_symmetry_equiv_pos_site_id
_symmetry_equiv_pos_as_xyz
1 x,y,z
2 -x,-y,-z
_cell_length_a                   9.983(1)
_cell_length_b                   12.201(1)
_cell_length_c                   15.728(2)
_cell_angle_alpha                95.73(1)
_cell_angle_beta                 103.56(1)
_cell_angle_gamma                113.06(1)
_cell_volume                     1673.7
loop_
_atom_site_label
_atom_site_type_symbol
_atom_site_fract_x
_atom_site_fract_y
_atom_site_fract_z
Pb1 Pb 0.01854(3) 0.35464(2) 0.29043(2)
Ge1 Ge 0.02159(8) 0.19347(6) 0.16643(4)
C1 C -0.1705(8) 0.4089(6) 0.2470(4)
C2 C -0.2838(8) 0.3536(6) 0.1683(5)
C3 C -0.3983(8) 0.3919(7) 0.1419(5)
C4 C -0.4014(9) 0.4877(7) 0.1955(6)
C5 C -0.2862(9) 0.5442(6) 0.2765(6)
C6 C -0.1731(10) 0.5061(6) 0.3007(5)
C7 C -0.5252(11) 0.5295(10) 0.1649(8)
C8 C 0.2249(7) 0.5322(6) 0.3407(4)
C9 C 0.3366(10) 0.5574(7) 0.4198(6)
C10 C 0.4564(10) 0.6743(9) 0.4494(6)
C11 C 0.4672(9) 0.7646(7) 0.4023(7)
C12 C 0.3579(10) 0.7362(7) 0.3237(6)
C13 C 0.2374(9) 0.6216(7) 0.2917(5)
C14 C 0.5911(12) 0.8914(9) 0.4407(10)
C15 C -0.0100(8) 0.2753(6) 0.4083(4)
C16 C 0.0770(12) 0.2183(9) 0.4466(6)
C17 C 0.0577(14) 0.1709(11) 0.5211(7)
C18 C -0.0522(10) 0.1758(7) 0.5588(5)
C19 C -0.1403(10) 0.2300(8) 0.5208(5)
C20 C -0.1208(8) 0.2796(7) 0.4476(5)
C21 C -0.0721(13) 0.1244(9) 0.6420(6)
C22 C 0.0445(8) 0.2531(6) 0.0590(4)
C23 C 0.1415(10) 0.2347(7) 0.0153(5)
C24 C 0.1604(11) 0.2758(8) -0.0626(5)
C25 C 0.0774(11) 0.3373(8) -0.0974(6)
C26 C -0.0226(16) 0.3548(12) -0.0563(7)
C27 C -0.0333(14) 0.3167(10) 0.0225(6)
C28 C -0.1740(7) 0.0506(5) 0.1375(4)
C29 C -0.2682(9) 0.0071(7) 0.0504(5)
C30 C -0.4073(11) -0.0931(8) 0.0297(8)
C31 C -0.4551(10) -0.1492(8) 0.0941(9)
C32 C -0.3615(13) -0.1088(9) 0.1810(9)
C33 C -0.2188(11) -0.0053(7) 0.2038(6)
C34 C 0.1905(7) 0.1517(6) 0.2126(4)
C35 C 0.3277(9) 0.2381(8) 0.2699(5)
C36 C 0.4524(10) 0.2114(10) 0.2955(7)
C37 C 0.4393(12) 0.0964(11) 0.2614(7)
C38 C 0.3046(12) 0.0110(9) 0.2057(7)
C39 C 0.1794(11) 0.0365(7) 0.1804(5)
H1 H -0.2843 0.2789 0.1250
H2 H -0.4866 0.3459 0.0789
H3 H -0.2858 0.6185 0.3203
H4 H -0.0837 0.5524 0.3633
H5 H -0.5086 0.6045 0.2152
H6 H -0.6353 0.4550 0.1550
H7 H -0.5202 0.5589 0.1027
H8 H 0.3318 0.4882 0.4584
H9 H 0.5442 0.6942 0.5116
H10 H 0.3652 0.8053 0.2847
H11 H 0.1525 0.6022 0.2285
H12 H 0.6658 0.8942 0.5038
H13 H 0.5414 0.9540 0.4511
H14 H 0.6557 0.9174 0.3940
H15 H 0.1616 0.2105 0.4175
H16 H 0.1302 0.1298 0.5508
H17 H -0.2274 0.2342 0.5491
H18 H -0.1919 0.3228 0.4198
H19 H 0.0074 0.0854 0.6619
H20 H -0.1873 0.0548 0.6270
H21 H -0.0515 0.1968 0.6960
H22 H 0.2059 0.1864 0.0430
H23 H 0.2374 0.2598 -0.0949
H24 H 0.0911 0.3721 -0.1569
H25 H -0.0922 0.3984 -0.0858
H26 H -0.1058 0.3371 0.0565
H27 H -0.2336 0.0518 -0.0018
H28 H -0.4789 -0.1276 -0.0390
H29 H -0.5664 -0.2250 0.0774
H30 H -0.3963 -0.1559 0.2323
H31 H -0.1465 0.0288 0.2723
H32 H 0.3384 0.3278 0.2952
H33 H 0.5590 0.2792 0.3413
H34 H 0.5363 0.0754 0.2802
H35 H 0.2952 -0.0779 0.1797
H36 H 0.0725 -0.0329 0.1363
Pb1 Pb 0.98146(3) 0.64536(2) 0.70957(2)
Ge1 Ge 0.97841(8) 0.80653(6) 0.83357(4)
C1 C 1.1705(8) 0.5911(6) 0.7530(4)
C2 C 1.2838(8) 0.6464(6) 0.8317(5)
C3 C 1.3983(8) 0.6081(7) 0.8581(5)
C4 C 1.4014(9) 0.5123(7) 0.8045(6)
C5 C 1.2862(9) 0.4558(6) 0.7235(6)
C6 C 1.1731(10) 0.4939(6) 0.6993(5)
C7 C 1.5252(11) 0.4705(10) 0.8351(8)
C8 C 0.7751(7) 0.4678(6) 0.6593(4)
C9 C 0.6634(10) 0.4426(7) 0.5802(6)
C10 C 0.5436(10) 0.3257(9) 0.5506(6)
C11 C 0.5328(9) 0.2354(7) 0.5977(7)
C12 C 0.6421(10) 0.2638(7) 0.6763(6)
C13 C 0.7626(9) 0.3784(7) 0.7083(5)
C14 C 0.4089(12) 0.1086(9) 0.5593(10)
C15 C 1.0100(8) 0.7247(6) 0.5917(4)
C16 C 0.9230(12) 0.7817(9) 0.5534(6)
C17 C 0.9423(14) 0.8291(11) 0.4789(7)
C18 C 1.0522(10) 0.8242(7) 0.4412(5)
C19 C 1.1403(10) 0.7700(8) 0.4792(5)
C20 C 1.1208(8) 0.7204(7) 0.5524(5)
C21 C 1.0721(13) 0.8756(9) 0.3580(6)
C22 C 0.9555(8) 0.7469(6) 0.9410(4)
C23 C 0.8585(10) 0.7653(7) 0.9847(5)
C24 C 0.8396(11) 0.7242(8) 1.0626(5)
C25 C 0.9226(11) 0.6627(8) 1.0974(6)
C26 C 1.0226(16) 0.6452(12) 1.0563(7)
C27 C 1.0333(14) 0.6833(10) 0.9775(6)
C28 C 1.1740(7) 0.9494(5) 0.8625(4)
C29 C 1.2682(9) 0.9929(7) 0.9496(5)
C30 C 1.4073(11) 1.0931(8) 0.9703(8)
C31 C 1.4551(10) 1.1492(8) 0.9059(9)
C32 C 1.3615(13) 1.1088(9) 0.8190(9)
C33 C 1.2188(11) 1.0053(7) 0.7962(6)
C34 C 0.8095(7) 0.8483(6) 0.7874(4)
C35 C 0.6723(9) 0.7619(8) 0.7301(5)
C36 C 0.5476(10) 0.7886(10) 0.7045(7)
C37 C 0.5607(12) 0.9036(11) 0.7386(7)
C38 C 0.6954(12) 0.9890(9) 0.7943(7)
C39 C 0.8206(11) 0.9635(7) 0.8196(5)
H1 H 1.2843 0.7211 0.8750
H2 H 1.4866 0.6541 0.9211
H3 H 1.2858 0.3815 0.6797
H4 H 1.0837 0.4476 0.6367
H5 H 1.5086 0.3955 0.7848
H6 H 1.6353 0.5450 0.8450
H7 H 1.5202 0.4411 0.8973
H8 H 0.6682 0.5118 0.5416
H9 H 0.4558 0.3058 0.4884
H10 H 0.6348 0.1947 0.7153
H11 H 0.8475 0.3978 0.7715
H12 H 0.3342 0.1058 0.4962
H13 H 0.4586 0.0460 0.5489
H14 H 0.3443 0.0826 0.6060
H15 H 0.8384 0.7895 0.5825
H16 H 0.8698 0.8702 0.4492
H17 H 1.2274 0.7658 0.4509
H18 H 1.1919 0.6772 0.5802
H19 H 0.9926 0.9146 0.3381
H20 H 1.1873 0.9452 0.3730
H21 H 1.0515 0.8032 0.3040
H22 H 0.7941 0.8136 0.9570
H23 H 0.7626 0.7402 1.0949
H24 H 0.9089 0.6279 1.1569
H25 H 1.0922 0.6016 1.0858
H26 H 1.1058 0.6629 0.9435
H27 H 1.2336 0.9482 1.0018
H28 H 1.4789 1.1276 1.0390
H29 H 1.5664 1.2250 0.9226
H30 H 1.3963 1.1559 0.7677
H31 H 1.1465 0.9712 0.7277
H32 H 0.6616 0.6722 0.7048
H33 H 0.4410 0.7208 0.6587
H34 H 0.4637 0.9246 0.7198
H35 H 0.7048 1.0779 0.8203
H36 H 0.9275 1.0329 0.8637

#END
