
#######################################################################
#
#                 Cambridge Crystallographic Data Centre
#                                CCDC 
#
#######################################################################
#
# If this CIF has been generated from an entry in the Cambridge 
# Structural Database, then it will include bibliographic, chemical, 
# crystal, experimental, refinement or atomic coordinate data resulting 
# from the CCDC's data processing and validation procedures.
#
#######################################################################

data_LIBHEK
_symmetry_cell_setting           orthorhombic
_symmetry_space_group_name_H-M   'P 21 21 21'
_symmetry_Int_Tables_number      19
_space_group_name_Hall           'P 2ac 2ab'
loop_
_symmetry_equiv_pos_site_id
_symmetry_equiv_pos_as_xyz
1 x,y,z
2 1/2-x,-y,1/2+z
3 1/2+x,1/2-y,-z
4 -x,1/2+y,1/2-z
_cell_length_a                   5.563(2)
_cell_length_b                   16.162(2)
_cell_length_c                   25.289(2)
_cell_angle_alpha                90
_cell_angle_beta                 90
_cell_angle_gamma                90
_cell_volume                     2273.71
loop_
_atom_site_label
_atom_site_type_symbol
_atom_site_fract_x
_atom_site_fract_y
_atom_site_fract_z
Cl1 Cl 0.43155(14) 0.98138(4) 1.13221(2)
Cl2 Cl 0.43094(13) 0.80405(4) 1.12447(2)
Cl3 Cl 0.84980(11) 0.89754(5) 1.09449(4)
C1 C 0.5334(4) 0.89686(13) 1.09497(8)
C2 C 0.2582(4) 0.96812(12) 0.96577(7)
H1 H 0.0893 0.9520 0.9618
C3 C 0.4127(4) 0.90942(12) 0.93250(7)
H2 H 0.5766 0.9315 0.9308
C4 C 0.4201(6) 0.82552(13) 0.95927(8)
H3 H 0.2587 0.8031 0.9618
H4 H 0.5167 0.7876 0.9385
O1 O 0.5226(4) 0.83408(10) 1.01178(6)
C5 C 0.4442(4) 0.90079(12) 1.03796(7)
N1 N 0.3240(3) 0.96130(10) 1.02224(6)
C6 C 0.2833(4) 1.05820(11) 0.94969(7)
C7 C 0.1298(3) 1.09396(11) 0.91210(7)
C8 C 0.1514(4) 1.17677(12) 0.89869(7)
H5 H 0.0482 1.1999 0.8738
C9 C 0.3274(4) 1.22517(12) 0.92249(8)
C10 C 0.4831(4) 1.19132(13) 0.95914(8)
H6 H 0.6023 1.2233 0.9748
C11 C 0.4570(4) 1.10809(12) 0.97193(8)
H7 H 0.5614 1.0851 0.9966
O2 O -0.0400(3) 1.04218(8) 0.89097(5)
C12 C -0.2048(4) 1.07390(14) 0.85282(9)
H8 H -0.2602 1.1277 0.8646
H9 H -0.3434 1.0376 0.8514
C13 C -0.1046(6) 1.08249(16) 0.79842(10)
H10 H -0.2090 1.1030 0.7729
C14 C 0.1056(6) 1.06516(16) 0.78293(11)
H11 H 0.2178 1.0444 0.8067
H12 H 0.1479 1.0732 0.7477
O3 O 0.3312(3) 1.30617(9) 0.90675(6)
C15 C 0.5011(5) 1.35982(14) 0.93142(10)
H13 H 0.6610 1.3413 0.9235
H14 H 0.4768 1.3592 0.9690
H15 H 0.4797 1.4151 0.9184
N2 N 0.3214(4) 0.90066(12) 0.87923(7)
H16 H 0.174(5) 0.9053(15) 0.8727(9)
C16 C 0.4674(4) 0.87286(12) 0.84011(8)
O4 O 0.6821(3) 0.86250(10) 0.84523(6)
O5 O 0.3376(3) 0.85996(9) 0.79620(5)
C17 C 0.4564(4) 0.83533(13) 0.74627(7)
C18 C 0.6155(5) 0.90425(16) 0.72721(9)
H17 H 0.6725 0.8917 0.6923
H18 H 0.7499 0.9101 0.7507
H19 H 0.5257 0.9550 0.7264
C19 C 0.2439(4) 0.82365(19) 0.70929(9)
H20 H 0.3011 0.8096 0.6746
H21 H 0.1529 0.8740 0.7075
H22 H 0.1433 0.7799 0.7223
C20 C 0.5900(5) 0.75465(15) 0.75348(9)
H23 H 0.4887 0.7157 0.7715
H24 H 0.7326 0.7642 0.7740
H25 H 0.6337 0.7328 0.7195
Cl1 Cl 0.06845(14) 0.01862(4) 0.63221(2)
Cl2 Cl 0.06906(13) 0.19595(4) 0.62447(2)
Cl3 Cl -0.34980(11) 0.10246(5) 0.59449(4)
C1 C -0.0334(4) 0.10314(13) 0.59497(8)
C2 C 0.2418(4) 0.03188(12) 0.46577(7)
H1 H 0.4107 0.0480 0.4618
C3 C 0.0873(4) 0.09058(12) 0.43250(7)
H2 H -0.0766 0.0685 0.4308
C4 C 0.0799(6) 0.17448(13) 0.45927(8)
H3 H 0.2413 0.1969 0.4618
H4 H -0.0167 0.2124 0.4385
O1 O -0.0226(4) 0.16592(10) 0.51178(6)
C5 C 0.0558(4) 0.09921(12) 0.53796(7)
N1 N 0.1760(3) 0.03870(10) 0.52224(6)
C6 C 0.2167(4) -0.05820(11) 0.44969(7)
C7 C 0.3702(3) -0.09396(11) 0.41210(7)
C8 C 0.3486(4) -0.17677(12) 0.39869(7)
H5 H 0.4518 -0.1999 0.3738
C9 C 0.1726(4) -0.22517(12) 0.42249(8)
C10 C 0.0169(4) -0.19132(13) 0.45914(8)
H6 H -0.1023 -0.2233 0.4748
C11 C 0.0430(4) -0.10809(12) 0.47193(8)
H7 H -0.0614 -0.0851 0.4966
O2 O 0.5400(3) -0.04218(8) 0.39097(5)
C12 C 0.7048(4) -0.07390(14) 0.35282(9)
H8 H 0.7602 -0.1277 0.3646
H9 H 0.8434 -0.0376 0.3514
C13 C 0.6046(6) -0.08249(16) 0.29842(10)
H10 H 0.7090 -0.1030 0.2729
C14 C 0.3944(6) -0.06516(16) 0.28293(11)
H11 H 0.2822 -0.0444 0.3067
H12 H 0.3521 -0.0732 0.2477
O3 O 0.1688(3) -0.30617(9) 0.40675(6)
C15 C -0.0011(5) -0.35982(14) 0.43142(10)
H13 H -0.1610 -0.3413 0.4235
H14 H 0.0232 -0.3592 0.4690
H15 H 0.0203 -0.4151 0.4184
N2 N 0.1786(4) 0.09934(12) 0.37923(7)
H16 H 0.326(5) 0.0947(15) 0.3727(9)
C16 C 0.0326(4) 0.12714(12) 0.34011(8)
O4 O -0.1821(3) 0.13750(10) 0.34523(6)
O5 O 0.1624(3) 0.14004(9) 0.29620(5)
C17 C 0.0436(4) 0.16467(13) 0.24627(7)
C18 C -0.1155(5) 0.09575(16) 0.22721(9)
H17 H -0.1725 0.1083 0.1923
H18 H -0.2499 0.0899 0.2507
H19 H -0.0257 0.0450 0.2264
C19 C 0.2561(4) 0.17635(19) 0.20929(9)
H20 H 0.1989 0.1904 0.1746
H21 H 0.3471 0.1260 0.2075
H22 H 0.3567 0.2201 0.2223
C20 C -0.0900(5) 0.24535(15) 0.25348(9)
H23 H 0.0113 0.2843 0.2715
H24 H -0.2326 0.2358 0.2740
H25 H -0.1337 0.2672 0.2195
Cl1 Cl 0.93155(14) 0.51862(4) -0.13221(2)
Cl2 Cl 0.93094(13) 0.69595(4) -0.12447(2)
Cl3 Cl 1.34980(11) 0.60246(5) -0.09449(4)
C1 C 1.0334(4) 0.60314(13) -0.09497(8)
C2 C 0.7582(4) 0.53188(12) 0.03423(7)
H1 H 0.5893 0.5480 0.0382
C3 C 0.9127(4) 0.59058(12) 0.06750(7)
H2 H 1.0766 0.5685 0.0692
C4 C 0.9201(6) 0.67448(13) 0.04073(8)
H3 H 0.7587 0.6969 0.0382
H4 H 1.0167 0.7124 0.0615
O1 O 1.0226(4) 0.66592(10) -0.01178(6)
C5 C 0.9442(4) 0.59921(12) -0.03796(7)
N1 N 0.8240(3) 0.53870(10) -0.02224(6)
C6 C 0.7833(4) 0.44180(11) 0.05031(7)
C7 C 0.6298(3) 0.40604(11) 0.08790(7)
C8 C 0.6514(4) 0.32323(12) 0.10131(7)
H5 H 0.5482 0.3001 0.1262
C9 C 0.8274(4) 0.27483(12) 0.07751(8)
C10 C 0.9831(4) 0.30868(13) 0.04086(8)
H6 H 1.1023 0.2767 0.0252
C11 C 0.9570(4) 0.39191(12) 0.02807(8)
H7 H 1.0614 0.4149 0.0034
O2 O 0.4600(3) 0.45782(8) 0.10903(5)
C12 C 0.2952(4) 0.42610(14) 0.14718(9)
H8 H 0.2398 0.3723 0.1354
H9 H 0.1566 0.4624 0.1486
C13 C 0.3954(6) 0.41751(16) 0.20158(10)
H10 H 0.2910 0.3970 0.2271
C14 C 0.6056(6) 0.43484(16) 0.21707(11)
H11 H 0.7178 0.4556 0.1933
H12 H 0.6479 0.4268 0.2523
O3 O 0.8312(3) 0.19383(9) 0.09325(6)
C15 C 1.0011(5) 0.14018(14) 0.06858(10)
H13 H 1.1610 0.1587 0.0765
H14 H 0.9768 0.1408 0.0310
H15 H 0.9797 0.0849 0.0816
N2 N 0.8214(4) 0.59934(12) 0.12077(7)
H16 H 0.674(5) 0.5947(15) 0.1273(9)
C16 C 0.9674(4) 0.62714(12) 0.15989(8)
O4 O 1.1821(3) 0.63750(10) 0.15477(6)
O5 O 0.8376(3) 0.64004(9) 0.20380(5)
C17 C 0.9564(4) 0.66467(13) 0.25373(7)
C18 C 1.1155(5) 0.59575(16) 0.27279(9)
H17 H 1.1725 0.6083 0.3077
H18 H 1.2499 0.5899 0.2493
H19 H 1.0257 0.5450 0.2736
C19 C 0.7439(4) 0.67635(19) 0.29071(9)
H20 H 0.8011 0.6904 0.3254
H21 H 0.6529 0.6260 0.2925
H22 H 0.6433 0.7201 0.2777
C20 C 1.0900(5) 0.74535(15) 0.24652(9)
H23 H 0.9887 0.7843 0.2285
H24 H 1.2326 0.7358 0.2260
H25 H 1.1337 0.7672 0.2805
Cl1 Cl 0.56845(14) 0.48138(4) 0.36779(2)
Cl2 Cl 0.56906(13) 0.30405(4) 0.37553(2)
Cl3 Cl 0.15020(11) 0.39754(5) 0.40551(4)
C1 C 0.4666(4) 0.39686(13) 0.40503(8)
C2 C 0.7418(4) 0.46812(12) 0.53423(7)
H1 H 0.9107 0.4520 0.5382
C3 C 0.5873(4) 0.40942(12) 0.56750(7)
H2 H 0.4234 0.4315 0.5692
C4 C 0.5799(6) 0.32552(13) 0.54073(8)
H3 H 0.7413 0.3031 0.5382
H4 H 0.4833 0.2876 0.5615
O1 O 0.4774(4) 0.33408(10) 0.48822(6)
C5 C 0.5558(4) 0.40079(12) 0.46204(7)
N1 N 0.6760(3) 0.46130(10) 0.47776(6)
C6 C 0.7167(4) 0.55820(11) 0.55031(7)
C7 C 0.8702(3) 0.59396(11) 0.58790(7)
C8 C 0.8486(4) 0.67677(12) 0.60131(7)
H5 H 0.9518 0.6999 0.6262
C9 C 0.6726(4) 0.72517(12) 0.57751(8)
C10 C 0.5169(4) 0.69132(13) 0.54086(8)
H6 H 0.3977 0.7233 0.5252
C11 C 0.5430(4) 0.60809(12) 0.52807(8)
H7 H 0.4386 0.5851 0.5034
O2 O 1.0400(3) 0.54218(8) 0.60903(5)
C12 C 1.2048(4) 0.57390(14) 0.64718(9)
H8 H 1.2602 0.6277 0.6354
H9 H 1.3434 0.5376 0.6486
C13 C 1.1046(6) 0.58249(16) 0.70158(10)
H10 H 1.2090 0.6030 0.7271
C14 C 0.8944(6) 0.56516(16) 0.71707(11)
H11 H 0.7822 0.5444 0.6933
H12 H 0.8521 0.5732 0.7523
O3 O 0.6688(3) 0.80617(9) 0.59325(6)
C15 C 0.4989(5) 0.85982(14) 0.56858(10)
H13 H 0.3390 0.8413 0.5765
H14 H 0.5232 0.8592 0.5310
H15 H 0.5203 0.9151 0.5816
N2 N 0.6786(4) 0.40066(12) 0.62077(7)
H16 H 0.826(5) 0.4053(15) 0.6273(9)
C16 C 0.5326(4) 0.37286(12) 0.65989(8)
O4 O 0.3179(3) 0.36250(10) 0.65477(6)
O5 O 0.6624(3) 0.35996(9) 0.70380(5)
C17 C 0.5436(4) 0.33533(13) 0.75373(7)
C18 C 0.3845(5) 0.40425(16) 0.77279(9)
H17 H 0.3275 0.3917 0.8077
H18 H 0.2501 0.4101 0.7493
H19 H 0.4743 0.4550 0.7736
C19 C 0.7561(4) 0.32365(19) 0.79071(9)
H20 H 0.6989 0.3096 0.8254
H21 H 0.8471 0.3740 0.7925
H22 H 0.8567 0.2799 0.7777
C20 C 0.4100(5) 0.25465(15) 0.74652(9)
H23 H 0.5113 0.2157 0.7285
H24 H 0.2674 0.2642 0.7260
H25 H 0.3663 0.2328 0.7805

#END
