
#######################################################################
#
#                 Cambridge Crystallographic Data Centre
#                                CCDC 
#
#######################################################################
#
# If this CIF has been generated from an entry in the Cambridge 
# Structural Database, then it will include bibliographic, chemical, 
# crystal, experimental, refinement or atomic coordinate data resulting 
# from the CCDC's data processing and validation procedures.
#
#######################################################################

data_LIBJOV
_symmetry_cell_setting           orthorhombic
_symmetry_space_group_name_H-M   'P b c a'
_symmetry_Int_Tables_number      61
_space_group_name_Hall           '-P 2ac 2ab'
loop_
_symmetry_equiv_pos_site_id
_symmetry_equiv_pos_as_xyz
1 x,y,z
2 1/2-x,-y,1/2+z
3 1/2+x,1/2-y,-z
4 -x,1/2+y,1/2-z
5 -x,-y,-z
6 1/2+x,y,1/2-z
7 1/2-x,1/2+y,z
8 x,1/2-y,1/2+z
_cell_length_a                   11.628(4)
_cell_length_b                   17.314(6)
_cell_length_c                   11.354(5)
_cell_angle_alpha                90
_cell_angle_beta                 90
_cell_angle_gamma                90
_cell_volume                     2285.87
loop_
_atom_site_label
_atom_site_type_symbol
_atom_site_fract_x
_atom_site_fract_y
_atom_site_fract_z
N1 N 0.1532(4) 0.3384(3) 0.1173(4)
N2 N 0.1973(4) 0.4275(2) 0.2371(4)
C1 C 0.1048(5) 0.3972(3) 0.1807(5)
C2 C 0.2989(6) 0.3898(3) 0.2110(6)
C3 C 0.2709(5) 0.3325(4) 0.1367(5)
C4 C 0.0825(5) 0.2857(3) 0.0437(5)
C5 C 0.1604(6) 0.2347(4) -0.0311(6)
C6 C 0.0099(6) 0.2361(4) 0.1236(6)
C7 C 0.0067(6) 0.3337(4) -0.0365(5)
C8 C 0.1923(5) 0.4985(3) 0.3123(5)
C9 C 0.2321(6) 0.5675(3) 0.2397(6)
C10 C 0.2743(7) 0.4879(4) 0.4162(5)
C11 C 0.0706(6) 0.5107(4) 0.3540(6)
H1 H 0.3735 0.4004 0.2420
H2 H 0.3200 0.2946 0.1027
H3 H 0.1214 0.2009 -0.0835
H4 H 0.2135 0.2055 0.0146
H5 H 0.2070 0.2658 -0.0808
H6 H -0.0376 0.2025 0.0784
H7 H -0.0415 0.2667 0.1688
H8 H 0.0556 0.2049 0.1738
H9 H -0.0363 0.3018 -0.0881
H10 H 0.0543 0.3653 -0.0848
H11 H -0.0441 0.3656 0.0072
H12 H 0.1767 0.5765 0.1796
H13 H 0.3057 0.5570 0.2070
H14 H 0.2365 0.6117 0.2887
H15 H 0.2754 0.5301 0.4697
H16 H 0.3514 0.4788 0.3920
H17 H 0.2538 0.4441 0.4621
H18 H 0.0631 0.5534 0.4059
H19 H 0.0458 0.4685 0.4014
H20 H 0.0160 0.5163 0.2923
N1 N 0.3468(4) 0.6616(3) 0.6173(4)
N2 N 0.3027(4) 0.5725(2) 0.7371(4)
C1 C 0.3952(5) 0.6028(3) 0.6807(5)
C2 C 0.2011(6) 0.6102(3) 0.7110(6)
C3 C 0.2291(5) 0.6675(4) 0.6367(5)
C4 C 0.4175(5) 0.7143(3) 0.5437(5)
C5 C 0.3396(6) 0.7653(4) 0.4689(6)
C6 C 0.4901(6) 0.7639(4) 0.6236(6)
C7 C 0.4933(6) 0.6663(4) 0.4635(5)
C8 C 0.3077(5) 0.5015(3) 0.8123(5)
C9 C 0.2679(6) 0.4325(3) 0.7397(6)
C10 C 0.2257(7) 0.5121(4) 0.9162(5)
C11 C 0.4294(6) 0.4893(4) 0.8540(6)
H1 H 0.1265 0.5996 0.7420
H2 H 0.1800 0.7054 0.6027
H3 H 0.3786 0.7991 0.4165
H4 H 0.2865 0.7945 0.5146
H5 H 0.2930 0.7342 0.4192
H6 H 0.5376 0.7975 0.5784
H7 H 0.5415 0.7333 0.6688
H8 H 0.4444 0.7951 0.6738
H9 H 0.5363 0.6982 0.4119
H10 H 0.4457 0.6347 0.4152
H11 H 0.5441 0.6344 0.5072
H12 H 0.3233 0.4235 0.6796
H13 H 0.1943 0.4430 0.7070
H14 H 0.2635 0.3883 0.7887
H15 H 0.2246 0.4699 0.9697
H16 H 0.1486 0.5212 0.8920
H17 H 0.2462 0.5559 0.9621
H18 H 0.4369 0.4466 0.9059
H19 H 0.4542 0.5315 0.9014
H20 H 0.4840 0.4837 0.7923
N1 N 0.6532(4) 0.1616(3) 0.8827(4)
N2 N 0.6973(4) 0.0725(2) 0.7629(4)
C1 C 0.6048(5) 0.1028(3) 0.8193(5)
C2 C 0.7989(6) 0.1102(3) 0.7890(6)
C3 C 0.7709(5) 0.1675(4) 0.8633(5)
C4 C 0.5825(5) 0.2143(3) 0.9563(5)
C5 C 0.6604(6) 0.2653(4) 1.0311(6)
C6 C 0.5099(6) 0.2639(4) 0.8764(6)
C7 C 0.5067(6) 0.1663(4) 1.0365(5)
C8 C 0.6923(5) 0.0015(3) 0.6877(5)
C9 C 0.7321(6) -0.0675(3) 0.7603(6)
C10 C 0.7743(7) 0.0121(4) 0.5838(5)
C11 C 0.5706(6) -0.0107(4) 0.6460(6)
H1 H 0.8735 0.0996 0.7580
H2 H 0.8200 0.2054 0.8973
H3 H 0.6214 0.2991 1.0835
H4 H 0.7135 0.2945 0.9854
H5 H 0.7070 0.2342 1.0808
H6 H 0.4624 0.2975 0.9216
H7 H 0.4585 0.2333 0.8312
H8 H 0.5556 0.2951 0.8262
H9 H 0.4637 0.1982 1.0881
H10 H 0.5543 0.1347 1.0848
H11 H 0.4559 0.1344 0.9928
H12 H 0.6767 -0.0765 0.8204
H13 H 0.8057 -0.0570 0.7930
H14 H 0.7365 -0.1117 0.7113
H15 H 0.7754 -0.0301 0.5303
H16 H 0.8514 0.0212 0.6080
H17 H 0.7538 0.0559 0.5379
H18 H 0.5631 -0.0534 0.5941
H19 H 0.5458 0.0315 0.5986
H20 H 0.5160 -0.0163 0.7077
N1 N 0.8468(4) 0.8384(3) 0.3827(4)
N2 N 0.8027(4) 0.9275(2) 0.2629(4)
C1 C 0.8952(5) 0.8972(3) 0.3193(5)
C2 C 0.7011(6) 0.8898(3) 0.2890(6)
C3 C 0.7291(5) 0.8325(4) 0.3633(5)
C4 C 0.9175(5) 0.7857(3) 0.4563(5)
C5 C 0.8396(6) 0.7347(4) 0.5311(6)
C6 C 0.9901(6) 0.7361(4) 0.3764(6)
C7 C 0.9933(6) 0.8337(4) 0.5365(5)
C8 C 0.8077(5) 0.9985(3) 0.1877(5)
C9 C 0.7679(6) 1.0675(3) 0.2603(6)
C10 C 0.7257(7) 0.9879(4) 0.0838(5)
C11 C 0.9294(6) 1.0107(4) 0.1460(6)
H1 H 0.6265 0.9004 0.2580
H2 H 0.6800 0.7946 0.3973
H3 H 0.8786 0.7009 0.5835
H4 H 0.7865 0.7055 0.4854
H5 H 0.7930 0.7658 0.5808
H6 H 1.0376 0.7025 0.4216
H7 H 1.0415 0.7667 0.3312
H8 H 0.9444 0.7049 0.3262
H9 H 1.0363 0.8018 0.5881
H10 H 0.9457 0.8653 0.5848
H11 H 1.0441 0.8656 0.4928
H12 H 0.8233 1.0765 0.3204
H13 H 0.6943 1.0570 0.2930
H14 H 0.7635 1.1117 0.2113
H15 H 0.7246 1.0301 0.0303
H16 H 0.6486 0.9788 0.1080
H17 H 0.7462 0.9441 0.0379
H18 H 0.9369 1.0534 0.0941
H19 H 0.9542 0.9685 0.0986
H20 H 0.9840 1.0163 0.2077
N1 N 0.8468(4) 0.6616(3) 0.8827(4)
N2 N 0.8027(4) 0.5725(2) 0.7629(4)
C1 C 0.8952(5) 0.6028(3) 0.8193(5)
C2 C 0.7011(6) 0.6102(3) 0.7890(6)
C3 C 0.7291(5) 0.6675(4) 0.8633(5)
C4 C 0.9175(5) 0.7143(3) 0.9563(5)
C5 C 0.8396(6) 0.7653(4) 1.0311(6)
C6 C 0.9901(6) 0.7639(4) 0.8764(6)
C7 C 0.9933(6) 0.6663(4) 1.0365(5)
C8 C 0.8077(5) 0.5015(3) 0.6877(5)
C9 C 0.7679(6) 0.4325(3) 0.7603(6)
C10 C 0.7257(7) 0.5121(4) 0.5838(5)
C11 C 0.9294(6) 0.4893(4) 0.6460(6)
H1 H 0.6265 0.5996 0.7580
H2 H 0.6800 0.7054 0.8973
H3 H 0.8786 0.7991 1.0835
H4 H 0.7865 0.7945 0.9854
H5 H 0.7930 0.7342 1.0808
H6 H 1.0376 0.7975 0.9216
H7 H 1.0415 0.7333 0.8312
H8 H 0.9444 0.7951 0.8262
H9 H 1.0363 0.6982 1.0881
H10 H 0.9457 0.6347 1.0848
H11 H 1.0441 0.6344 0.9928
H12 H 0.8233 0.4235 0.8204
H13 H 0.6943 0.4430 0.7930
H14 H 0.7635 0.3883 0.7113
H15 H 0.7246 0.4699 0.5303
H16 H 0.6486 0.5212 0.6080
H17 H 0.7462 0.5559 0.5379
H18 H 0.9369 0.4466 0.5941
H19 H 0.9542 0.5315 0.5986
H20 H 0.9840 0.4837 0.7077
N1 N 0.6532(4) 0.3384(3) 0.3827(4)
N2 N 0.6973(4) 0.4275(2) 0.2629(4)
C1 C 0.6048(5) 0.3972(3) 0.3193(5)
C2 C 0.7989(6) 0.3898(3) 0.2890(6)
C3 C 0.7709(5) 0.3325(4) 0.3633(5)
C4 C 0.5825(5) 0.2857(3) 0.4563(5)
C5 C 0.6604(6) 0.2347(4) 0.5311(6)
C6 C 0.5099(6) 0.2361(4) 0.3764(6)
C7 C 0.5067(6) 0.3337(4) 0.5365(5)
C8 C 0.6923(5) 0.4985(3) 0.1877(5)
C9 C 0.7321(6) 0.5675(3) 0.2603(6)
C10 C 0.7743(7) 0.4879(4) 0.0838(5)
C11 C 0.5706(6) 0.5107(4) 0.1460(6)
H1 H 0.8735 0.4004 0.2580
H2 H 0.8200 0.2946 0.3973
H3 H 0.6214 0.2009 0.5835
H4 H 0.7135 0.2055 0.4854
H5 H 0.7070 0.2658 0.5808
H6 H 0.4624 0.2025 0.4216
H7 H 0.4585 0.2667 0.3312
H8 H 0.5556 0.2049 0.3262
H9 H 0.4637 0.3018 0.5881
H10 H 0.5543 0.3653 0.5848
H11 H 0.4559 0.3656 0.4928
H12 H 0.6767 0.5765 0.3204
H13 H 0.8057 0.5570 0.2930
H14 H 0.7365 0.6117 0.2113
H15 H 0.7754 0.5301 0.0303
H16 H 0.8514 0.4788 0.1080
H17 H 0.7538 0.4441 0.0379
H18 H 0.5631 0.5534 0.0941
H19 H 0.5458 0.4685 0.0986
H20 H 0.5160 0.5163 0.2077
N1 N 0.3468(4) 0.8384(3) 0.1173(4)
N2 N 0.3027(4) 0.9275(2) 0.2371(4)
C1 C 0.3952(5) 0.8972(3) 0.1807(5)
C2 C 0.2011(6) 0.8898(3) 0.2110(6)
C3 C 0.2291(5) 0.8325(4) 0.1367(5)
C4 C 0.4175(5) 0.7857(3) 0.0437(5)
C5 C 0.3396(6) 0.7347(4) -0.0311(6)
C6 C 0.4901(6) 0.7361(4) 0.1236(6)
C7 C 0.4933(6) 0.8337(4) -0.0365(5)
C8 C 0.3077(5) 0.9985(3) 0.3123(5)
C9 C 0.2679(6) 1.0675(3) 0.2397(6)
C10 C 0.2257(7) 0.9879(4) 0.4162(5)
C11 C 0.4294(6) 1.0107(4) 0.3540(6)
H1 H 0.1265 0.9004 0.2420
H2 H 0.1800 0.7946 0.1027
H3 H 0.3786 0.7009 -0.0835
H4 H 0.2865 0.7055 0.0146
H5 H 0.2930 0.7658 -0.0808
H6 H 0.5376 0.7025 0.0784
H7 H 0.5415 0.7667 0.1688
H8 H 0.4444 0.7049 0.1738
H9 H 0.5363 0.8018 -0.0881
H10 H 0.4457 0.8653 -0.0848
H11 H 0.5441 0.8656 0.0072
H12 H 0.3233 1.0765 0.1796
H13 H 0.1943 1.0570 0.2070
H14 H 0.2635 1.1117 0.2887
H15 H 0.2246 1.0301 0.4697
H16 H 0.1486 0.9788 0.3920
H17 H 0.2462 0.9441 0.4621
H18 H 0.4369 1.0534 0.4059
H19 H 0.4542 0.9685 0.4014
H20 H 0.4840 1.0163 0.2923
N1 N 0.1532(4) 0.1616(3) 0.6173(4)
N2 N 0.1973(4) 0.0725(2) 0.7371(4)
C1 C 0.1048(5) 0.1028(3) 0.6807(5)
C2 C 0.2989(6) 0.1102(3) 0.7110(6)
C3 C 0.2709(5) 0.1675(4) 0.6367(5)
C4 C 0.0825(5) 0.2143(3) 0.5437(5)
C5 C 0.1604(6) 0.2653(4) 0.4689(6)
C6 C 0.0099(6) 0.2639(4) 0.6236(6)
C7 C 0.0067(6) 0.1663(4) 0.4635(5)
C8 C 0.1923(5) 0.0015(3) 0.8123(5)
C9 C 0.2321(6) -0.0675(3) 0.7397(6)
C10 C 0.2743(7) 0.0121(4) 0.9162(5)
C11 C 0.0706(6) -0.0107(4) 0.8540(6)
H1 H 0.3735 0.0996 0.7420
H2 H 0.3200 0.2054 0.6027
H3 H 0.1214 0.2991 0.4165
H4 H 0.2135 0.2945 0.5146
H5 H 0.2070 0.2342 0.4192
H6 H -0.0376 0.2975 0.5784
H7 H -0.0415 0.2333 0.6688
H8 H 0.0556 0.2951 0.6738
H9 H -0.0363 0.1982 0.4119
H10 H 0.0543 0.1347 0.4152
H11 H -0.0441 0.1344 0.5072
H12 H 0.1767 -0.0765 0.6796
H13 H 0.3057 -0.0570 0.7070
H14 H 0.2365 -0.1117 0.7887
H15 H 0.2754 -0.0301 0.9697
H16 H 0.3514 0.0212 0.8920
H17 H 0.2538 0.0559 0.9621
H18 H 0.0631 -0.0534 0.9059
H19 H 0.0458 0.0315 0.9014
H20 H 0.0160 -0.0163 0.7923

#END
