./LIBJEL_from_xyz.cif_generated_by_CrystalShift
_symmetry_cell_setting triclinic
_symmetry_space_group_name_H-M 'P 1'
loop_
_symmetry_equiv_pos_site_id
_symmetry_equiv_pos_as_xyz
1 x,y,z
_cell_length_a 5.122000
_cell_length_b 9.093000
_cell_length_c 23.276000
_cell_angle_alpha 90.000000
_cell_angle_beta 94.170000
_cell_angle_gamma 90.000000
_cell_volume 1081.194613
loop_
_atom_site_label
_atom_site_type_symbol
_atom_site_fract_x
_atom_site_fract_y
_atom_site_fract_z
O1 O 1.370900 0.974600 0.215000
O2 O 1.028300 0.971900 0.271900
O3 O 0.599000 1.146700 0.106500
O4 O 0.828400 1.105900 0.030500
O5 O 0.255500 0.443400 0.092500
O6 O 0.482700 0.490000 0.175500
N7 N 0.895000 0.783700 0.084300
N8 N 0.565700 0.666500 0.039900
N9 N 0.953600 1.009900 0.178000
C10 C 0.741000 0.764800 0.032400
C11 C 0.598000 0.616800 0.097000
C12 C 0.800000 0.692000 0.123000
C13 C 1.110000 0.897900 0.092200
C14 C 1.019000 1.032200 0.120200
C15 C 1.137000 0.980800 0.223400
C16 C 1.216000 0.944000 0.322100
C17 C 1.065000 0.925000 0.371900
C18 C 1.124000 1.009000 0.418800
C19 C 0.985000 0.990000 0.467800
C20 C 0.800000 0.898000 0.470300
C21 C 0.744000 0.804000 0.423600
C22 C 0.882000 0.822000 0.375000
C23 C 0.794000 1.104800 0.083400
C24 C 0.431000 0.509000 0.118000
C25 C 0.329000 0.381000 0.203600
C26 C 0.408000 0.378000 0.266600
C27 C 0.607000 0.301000 0.286700
C28 C 0.680000 0.305000 0.348600
C29 C 0.542000 0.385000 0.380000
C30 C 0.347000 0.475000 0.360900
C31 C 0.276000 0.467000 0.302500
H32 H 0.774500 1.015300 0.185900
H33 H 0.763100 0.816100 -0.002500
H34 H 0.863800 0.681500 0.162100
H35 H 1.252100 0.857400 0.115400
H36 H 1.166500 0.923200 0.055500
H37 H 1.160800 1.099600 0.121800
H38 H 1.314700 0.857900 0.315900
H39 H 1.331800 1.025600 0.327900
H40 H 1.259000 1.080900 0.418500
H41 H 1.032200 1.048400 0.500800
H42 H 0.701700 0.893400 0.503300
H43 H 0.614800 0.728800 0.425100
H44 H 0.843400 0.759800 0.342700
H45 H 0.991700 1.171100 0.027100
H46 H 0.149000 0.406300 0.198100
H47 H 0.357500 0.287500 0.187500
H48 H 0.704500 0.242900 0.261800
H49 H 0.825200 0.250700 0.365100
H50 H 0.578600 0.379100 0.420500
H51 H 0.264000 0.540200 0.385700
H52 H 0.132900 0.524400 0.286900
O53 O -0.370900 0.474600 0.785000
O54 O -0.028300 0.471900 0.728100
O55 O 0.401000 0.646700 0.893500
O56 O 0.171600 0.605900 0.969500
O57 O 0.744500 -0.056600 0.907500
O58 O 0.517300 -0.010000 0.824500
N59 N 0.105000 0.283700 0.915700
N60 N 0.434300 0.166500 0.960100
N61 N 0.046400 0.509900 0.822000
C62 C 0.259000 0.264800 0.967600
C63 C 0.402000 0.116800 0.903000
C64 C 0.200000 0.192000 0.877000
C65 C -0.110000 0.397900 0.907800
C66 C -0.019000 0.532200 0.879800
C67 C -0.137000 0.480800 0.776600
C68 C -0.216000 0.444000 0.677900
C69 C -0.065000 0.425000 0.628100
C70 C -0.124000 0.509000 0.581200
C71 C 0.015000 0.490000 0.532200
C72 C 0.200000 0.398000 0.529700
C73 C 0.256000 0.304000 0.576400
C74 C 0.118000 0.322000 0.625000
C75 C 0.206000 0.604800 0.916600
C76 C 0.569000 0.009000 0.882000
C77 C 0.671000 -0.119000 0.796400
C78 C 0.592000 -0.122000 0.733400
C79 C 0.393000 -0.199000 0.713300
C80 C 0.320000 -0.195000 0.651400
C81 C 0.458000 -0.115000 0.620000
C82 C 0.653000 -0.025000 0.639100
C83 C 0.724000 -0.033000 0.697500
H84 H 0.225500 0.515300 0.814100
H85 H 0.236900 0.316100 1.002500
H86 H 0.136200 0.181500 0.837900
H87 H -0.252100 0.357400 0.884600
H88 H -0.166500 0.423200 0.944500
H89 H -0.160800 0.599600 0.878200
H90 H -0.314700 0.357900 0.684100
H91 H -0.331800 0.525600 0.672100
H92 H -0.259000 0.580900 0.581500
H93 H -0.032200 0.548400 0.499200
H94 H 0.298300 0.393400 0.496700
H95 H 0.385200 0.228800 0.574900
H96 H 0.156600 0.259800 0.657300
H97 H 0.008300 0.671100 0.972900
H98 H 0.851000 -0.093700 0.801900
H99 H 0.642500 -0.212500 0.812500
H100 H 0.295500 -0.257100 0.738200
H101 H 0.174800 -0.249300 0.634900
H102 H 0.421400 -0.120900 0.579500
H103 H 0.736000 0.040200 0.614300
H104 H 0.867100 0.024400 0.713100

#END
