./LIBLEN_from_xyz.cif_generated_by_CrystalShift
_symmetry_cell_setting triclinic
_symmetry_space_group_name_H-M 'P 1'
loop_
_symmetry_equiv_pos_site_id
_symmetry_equiv_pos_as_xyz
1 x,y,z
_cell_length_a 10.542000
_cell_length_b 16.909000
_cell_length_c 10.165000
_cell_angle_alpha 94.560000
_cell_angle_beta 113.620000
_cell_angle_gamma 97.620000
_cell_volume 1627.853477
loop_
_atom_site_label
_atom_site_type_symbol
_atom_site_fract_x
_atom_site_fract_y
_atom_site_fract_z
V1 V 0.728680 0.759380 0.266830
O2 O 0.695100 0.819500 0.430900
N3 N 0.545300 0.702200 0.126700
N4 N 0.810300 0.859200 0.222000
N5 N 0.854400 0.692900 0.382100
C6 C 0.884600 0.632800 0.300800
C7 C 0.850900 0.638400 0.153200
C8 C 0.860000 0.576300 0.062400
C9 C 0.909600 0.508300 0.116900
C10 C 0.949900 0.504200 0.262800
C11 C 0.937500 0.564600 0.353600
C12 C 0.902500 0.692700 0.534900
C13 C 0.805500 0.678300 0.595300
C14 C 0.851400 0.684200 0.745400
C15 C 0.992500 0.702600 0.835600
C16 C 1.089800 0.715100 0.776000
C17 C 1.045500 0.709900 0.627300
C18 C 0.933500 0.864800 0.194500
C19 C 0.937700 0.895100 0.072000
C20 C 1.057100 0.897800 0.044900
C21 C 1.173300 0.870300 0.137600
C22 C 1.170000 0.839700 0.257900
C23 C 1.051100 0.837300 0.287000
C24 C 0.751600 0.930000 0.217200
C25 C 0.835800 1.006600 0.265000
C26 C 0.776900 1.074900 0.268100
C27 C 0.632900 1.068500 0.223700
C28 C 0.549200 0.993900 0.176000
C29 C 0.606100 0.924700 0.170100
C30 C 0.462100 0.652400 0.182000
C31 C 0.507700 0.585100 0.243100
C32 C 0.430300 0.538800 0.302300
C33 C 0.306700 0.559000 0.299700
C34 C 0.259500 0.625400 0.237400
C35 C 0.336100 0.671700 0.177700
C36 C 0.503000 0.689100 -0.025700
C37 C 0.403000 0.623900 -0.117200
C38 C 0.363700 0.614300 -0.266300
C39 C 0.424300 0.669100 -0.328000
C40 C 0.524800 0.733400 -0.237500
C41 C 0.564000 0.744200 -0.089100
C42 C 0.810100 0.877400 0.545500
C43 C 0.746800 0.909600 0.643000
C44 C 0.595200 0.906000 0.537900
C45 C 0.561300 0.828600 0.436200
H46 H 0.820000 0.688000 0.115000
H47 H 0.827000 0.581000 -0.043000
H48 H 0.911000 0.463000 0.052000
H49 H 0.986000 0.457000 0.300000
H50 H 0.961000 0.561000 0.452000
H51 H 0.711000 0.664000 0.536000
H52 H 0.784000 0.673000 0.781000
H53 H 1.021000 0.708000 0.936000
H54 H 1.187000 0.727000 0.837000
H55 H 1.113000 0.718000 0.587000
H56 H 0.852000 0.910000 0.005000
H57 H 1.057000 0.918000 -0.041000
H58 H 1.258000 0.875000 0.121000
H59 H 1.251000 0.823000 0.327000
H60 H 1.050000 0.816000 0.368000
H61 H 0.937000 1.012000 0.299000
H62 H 0.839000 1.124000 0.304000
H63 H 0.589000 1.115000 0.219000
H64 H 0.448000 0.986000 0.141000
H65 H 0.544000 0.870000 0.129000
H66 H 0.598000 0.572000 0.249000
H67 H 0.463000 0.492000 0.341000
H68 H 0.252000 0.522000 0.334000
H69 H 0.172000 0.638000 0.230000
H70 H 0.307000 0.721000 0.135000
H71 H 0.361000 0.585000 -0.080000
H72 H 0.295000 0.570000 -0.324000
H73 H 0.397000 0.660000 -0.427000
H74 H 0.567000 0.773000 -0.275000
H75 H 0.633000 0.790000 -0.026000
H76 H 0.883000 0.851000 0.593000
H77 H 0.841000 0.922000 0.500000
H78 H 0.753000 0.870000 0.722000
H79 H 0.794000 0.965000 0.689000
H80 H 0.534000 0.908000 0.577000
H81 H 0.585000 0.954000 0.486000
H82 H 0.493000 0.831000 0.337000
H83 H 0.534000 0.779000 0.475000
V84 V 0.271320 0.240620 0.733170
O85 O 0.304900 0.180500 0.569100
N86 N 0.454700 0.297800 0.873300
N87 N 0.189700 0.140800 0.778000
N88 N 0.145600 0.307100 0.617900
C89 C 0.115400 0.367200 0.699200
C90 C 0.149100 0.361600 0.846800
C91 C 0.140000 0.423700 0.937600
C92 C 0.090400 0.491700 0.883100
C93 C 0.050100 0.495800 0.737200
C94 C 0.062500 0.435400 0.646400
C95 C 0.097500 0.307300 0.465100
C96 C 0.194500 0.321700 0.404700
C97 C 0.148600 0.315800 0.254600
C98 C 0.007500 0.297400 0.164400
C99 C -0.089800 0.284900 0.224000
C100 C -0.045500 0.290100 0.372700
C101 C 0.066500 0.135200 0.805500
C102 C 0.062300 0.104900 0.928000
C103 C -0.057100 0.102200 0.955100
C104 C -0.173300 0.129700 0.862400
C105 C -0.170000 0.160300 0.742100
C106 C -0.051100 0.162700 0.713000
C107 C 0.248400 0.070000 0.782800
C108 C 0.164200 -0.006600 0.735000
C109 C 0.223100 -0.074900 0.731900
C110 C 0.367100 -0.068500 0.776300
C111 C 0.450800 0.006100 0.824000
C112 C 0.393900 0.075300 0.829900
C113 C 0.537900 0.347600 0.818000
C114 C 0.492300 0.414900 0.756900
C115 C 0.569700 0.461200 0.697700
C116 C 0.693300 0.441000 0.700300
C117 C 0.740500 0.374600 0.762600
C118 C 0.663900 0.328300 0.822300
C119 C 0.497000 0.310900 1.025700
C120 C 0.597000 0.376100 1.117200
C121 C 0.636300 0.385700 1.266300
C122 C 0.575700 0.330900 1.328000
C123 C 0.475200 0.266600 1.237500
C124 C 0.436000 0.255800 1.089100
C125 C 0.189900 0.122600 0.454500
C126 C 0.253200 0.090400 0.357000
C127 C 0.404800 0.094000 0.462100
C128 C 0.438700 0.171400 0.563800
H129 H 0.180000 0.312000 0.885000
H130 H 0.173000 0.419000 1.043000
H131 H 0.089000 0.537000 0.948000
H132 H 0.014000 0.543000 0.700000
H133 H 0.039000 0.439000 0.548000
H134 H 0.289000 0.336000 0.464000
H135 H 0.216000 0.327000 0.219000
H136 H -0.021000 0.292000 0.064000
H137 H -0.187000 0.273000 0.163000
H138 H -0.113000 0.282000 0.413000
H139 H 0.148000 0.090000 0.995000
H140 H -0.057000 0.082000 1.041000
H141 H -0.258000 0.125000 0.879000
H142 H -0.251000 0.177000 0.673000
H143 H -0.050000 0.184000 0.632000
H144 H 0.063000 -0.012000 0.701000
H145 H 0.161000 -0.124000 0.696000
H146 H 0.411000 -0.115000 0.781000
H147 H 0.552000 0.014000 0.859000
H148 H 0.456000 0.130000 0.871000
H149 H 0.402000 0.428000 0.751000
H150 H 0.537000 0.508000 0.659000
H151 H 0.748000 0.478000 0.666000
H152 H 0.828000 0.362000 0.770000
H153 H 0.693000 0.279000 0.865000
H154 H 0.639000 0.415000 1.080000
H155 H 0.705000 0.430000 1.324000
H156 H 0.603000 0.340000 1.427000
H157 H 0.433000 0.227000 1.275000
H158 H 0.367000 0.210000 1.026000
H159 H 0.117000 0.149000 0.407000
H160 H 0.159000 0.078000 0.500000
H161 H 0.247000 0.130000 0.278000
H162 H 0.206000 0.035000 0.311000
H163 H 0.466000 0.092000 0.423000
H164 H 0.415000 0.046000 0.514000
H165 H 0.507000 0.169000 0.663000
H166 H 0.466000 0.221000 0.525000

#END
