
#######################################################################
#
#                 Cambridge Crystallographic Data Centre
#                                CCDC 
#
#######################################################################
#
# If this CIF has been generated from an entry in the Cambridge 
# Structural Database, then it will include bibliographic, chemical, 
# crystal, experimental, refinement or atomic coordinate data resulting 
# from the CCDC's data processing and validation procedures.
#
#######################################################################

data_LIBLEP
_symmetry_cell_setting           orthorhombic
_symmetry_space_group_name_H-M   'P 21 21 21'
_symmetry_Int_Tables_number      19
_space_group_name_Hall           'P 2ac 2ab'
loop_
_symmetry_equiv_pos_site_id
_symmetry_equiv_pos_as_xyz
1 x,y,z
2 1/2-x,-y,1/2+z
3 -x,1/2+y,1/2-z
4 1/2+x,1/2-y,-z
_cell_length_a                   8.3973(12)
_cell_length_b                   11.384(2)
_cell_length_c                   17.987(4)
_cell_angle_alpha                90
_cell_angle_beta                 90
_cell_angle_gamma                90
_cell_volume                     1719.46
loop_
_atom_site_label
_atom_site_type_symbol
_atom_site_fract_x
_atom_site_fract_y
_atom_site_fract_z
O1 O 0.8139(2) 0.30602(12) 0.94583(8)
H1 H 0.7495 0.3004 0.9799
O2 O 0.56014(16) 0.33637(11) 1.02488(8)
H2 H 0.4847 0.2929 1.0338
C1 C 0.6113(4) 0.5621(3) 0.65642(14)
H3 H 0.5675 0.6233 0.6869
H4 H 0.5319 0.5353 0.6220
H5 H 0.7012 0.5920 0.6294
C2 C 0.6639(3) 0.4609(2) 0.70520(12)
C3 C 0.6765(4) 0.3497(3) 0.67789(14)
H6 H 0.6535 0.3352 0.6281
C4 C 0.7227(4) 0.2590(3) 0.72308(15)
H7 H 0.7322 0.1837 0.7035
C5 C 0.7553(3) 0.27811(19) 0.79699(14)
H8 H 0.7848 0.2154 0.8272
C6 C 0.7447(2) 0.38985(17) 0.82687(11)
C7 C 0.6985(3) 0.47912(19) 0.77914(11)
H9 H 0.6905 0.5550 0.7979
C8 C 0.7888(2) 0.41524(17) 0.90697(11)
C9 C 0.9477(3) 0.4801(2) 0.90816(15)
H10 H 0.9799 0.4930 0.9587
H11 H 0.9365 0.5543 0.8834
H12 H 1.0268 0.4338 0.8831
C10 C 0.6647(2) 0.48763(16) 0.94996(10)
H13 H 0.7166 0.5187 0.9939
H14 H 0.6359 0.5543 0.9192
C11 C 0.5099(2) 0.42836(15) 0.97508(10)
C12 C 0.4143(3) 0.37445(18) 0.91190(12)
H15 H 0.4721 0.3095 0.8912
H16 H 0.3966 0.4325 0.8741
H17 H 0.3136 0.3473 0.9306
C13 C 0.4117(2) 0.51859(16) 1.01769(11)
C14 C 0.4121(3) 0.52269(19) 1.09399(12)
H18 H 0.4742 0.4688 1.1199
C15 C 0.3239(3) 0.6036(2) 1.13383(13)
C16 C 0.3271(5) 0.6024(3) 1.21795(13)
H19 H 0.4043 0.6580 1.2355
H20 H 0.3551 0.5252 1.2350
H21 H 0.2238 0.6230 1.2367
C17 C 0.2325(3) 0.6826(2) 1.09506(16)
H22 H 0.1710 0.7370 1.1208
C18 C 0.2306(3) 0.6823(2) 1.01894(15)
H23 H 0.1694 0.7371 0.9934
C19 C 0.3191(3) 0.60111(17) 0.98024(12)
H24 H 0.3170 0.6013 0.9285
O1 O 0.6861(2) 0.69398(12) 0.44583(8)
H1 H 0.7505 0.6996 0.4799
O2 O 0.93986(16) 0.66363(11) 0.52488(8)
H2 H 1.0153 0.7071 0.5338
C1 C 0.8887(4) 0.4379(3) 0.15642(14)
H3 H 0.9325 0.3767 0.1869
H4 H 0.9681 0.4647 0.1220
H5 H 0.7988 0.4080 0.1294
C2 C 0.8361(3) 0.5391(2) 0.20520(12)
C3 C 0.8235(4) 0.6503(3) 0.17789(14)
H6 H 0.8465 0.6648 0.1281
C4 C 0.7773(4) 0.7410(3) 0.22308(15)
H7 H 0.7678 0.8163 0.2035
C5 C 0.7447(3) 0.72189(19) 0.29699(14)
H8 H 0.7152 0.7846 0.3272
C6 C 0.7553(2) 0.61015(17) 0.32687(11)
C7 C 0.8015(3) 0.52088(19) 0.27914(11)
H9 H 0.8095 0.4450 0.2979
C8 C 0.7112(2) 0.58476(17) 0.40697(11)
C9 C 0.5523(3) 0.5199(2) 0.40816(15)
H10 H 0.5201 0.5070 0.4587
H11 H 0.5635 0.4457 0.3834
H12 H 0.4732 0.5662 0.3831
C10 C 0.8353(2) 0.51237(16) 0.44996(10)
H13 H 0.7834 0.4813 0.4939
H14 H 0.8641 0.4457 0.4192
C11 C 0.9901(2) 0.57164(15) 0.47508(10)
C12 C 1.0857(3) 0.62555(18) 0.41190(12)
H15 H 1.0279 0.6905 0.3912
H16 H 1.1034 0.5675 0.3741
H17 H 1.1864 0.6527 0.4306
C13 C 1.0883(2) 0.48141(16) 0.51769(11)
C14 C 1.0879(3) 0.47731(19) 0.59399(12)
H18 H 1.0258 0.5312 0.6199
C15 C 1.1761(3) 0.3964(2) 0.63383(13)
C16 C 1.1729(5) 0.3976(3) 0.71795(13)
H19 H 1.0957 0.3420 0.7355
H20 H 1.1449 0.4748 0.7350
H21 H 1.2762 0.3770 0.7367
C17 C 1.2675(3) 0.3174(2) 0.59506(16)
H22 H 1.3290 0.2630 0.6208
C18 C 1.2694(3) 0.3177(2) 0.51894(15)
H23 H 1.3306 0.2629 0.4934
C19 C 1.1809(3) 0.39889(17) 0.48024(12)
H24 H 1.1830 0.3987 0.4285
O1 O 0.1861(2) 0.80602(12) 0.55417(8)
H1 H 0.2505 0.8004 0.5201
O2 O 0.43986(16) 0.83637(11) 0.47512(8)
H2 H 0.5153 0.7929 0.4662
C1 C 0.3887(4) 1.0621(3) 0.84358(14)
H3 H 0.4325 1.1233 0.8131
H4 H 0.4681 1.0353 0.8780
H5 H 0.2988 1.0920 0.8706
C2 C 0.3361(3) 0.9609(2) 0.79480(12)
C3 C 0.3235(4) 0.8497(3) 0.82211(14)
H6 H 0.3465 0.8352 0.8719
C4 C 0.2773(4) 0.7590(3) 0.77692(15)
H7 H 0.2678 0.6837 0.7965
C5 C 0.2447(3) 0.77811(19) 0.70301(14)
H8 H 0.2152 0.7154 0.6728
C6 C 0.2553(2) 0.88985(17) 0.67313(11)
C7 C 0.3015(3) 0.97912(19) 0.72086(11)
H9 H 0.3095 1.0550 0.7021
C8 C 0.2112(2) 0.91524(17) 0.59303(11)
C9 C 0.0523(3) 0.9801(2) 0.59184(15)
H10 H 0.0201 0.9930 0.5413
H11 H 0.0635 1.0543 0.6166
H12 H -0.0268 0.9338 0.6169
C10 C 0.3353(2) 0.98763(16) 0.55004(10)
H13 H 0.2834 1.0187 0.5061
H14 H 0.3641 1.0543 0.5808
C11 C 0.4901(2) 0.92836(15) 0.52492(10)
C12 C 0.5857(3) 0.87445(18) 0.58810(12)
H15 H 0.5279 0.8095 0.6088
H16 H 0.6034 0.9325 0.6259
H17 H 0.6864 0.8473 0.5694
C13 C 0.5883(2) 1.01859(16) 0.48231(11)
C14 C 0.5879(3) 1.02269(19) 0.40601(12)
H18 H 0.5258 0.9688 0.3801
C15 C 0.6761(3) 1.1036(2) 0.36617(13)
C16 C 0.6729(5) 1.1024(3) 0.28205(13)
H19 H 0.5957 1.1580 0.2645
H20 H 0.6449 1.0252 0.2650
H21 H 0.7762 1.1230 0.2633
C17 C 0.7675(3) 1.1826(2) 0.40494(16)
H22 H 0.8290 1.2370 0.3792
C18 C 0.7694(3) 1.1823(2) 0.48106(15)
H23 H 0.8306 1.2371 0.5066
C19 C 0.6809(3) 1.10111(17) 0.51976(12)
H24 H 0.6830 1.1013 0.5715
O1 O 0.3139(2) 0.19398(12) 0.05417(8)
H1 H 0.2495 0.1996 0.0201
O2 O 0.06014(16) 0.16363(11) -0.02488(8)
H2 H -0.0153 0.2071 -0.0338
C1 C 0.1113(4) -0.0621(3) 0.34358(14)
H3 H 0.0675 -0.1233 0.3131
H4 H 0.0319 -0.0353 0.3780
H5 H 0.2012 -0.0920 0.3706
C2 C 0.1639(3) 0.0391(2) 0.29480(12)
C3 C 0.1765(4) 0.1503(3) 0.32211(14)
H6 H 0.1535 0.1648 0.3719
C4 C 0.2227(4) 0.2410(3) 0.27692(15)
H7 H 0.2322 0.3163 0.2965
C5 C 0.2553(3) 0.22189(19) 0.20301(14)
H8 H 0.2848 0.2846 0.1728
C6 C 0.2447(2) 0.11015(17) 0.17313(11)
C7 C 0.1985(3) 0.02088(19) 0.22086(11)
H9 H 0.1905 -0.0550 0.2021
C8 C 0.2888(2) 0.08476(17) 0.09303(11)
C9 C 0.4477(3) 0.0199(2) 0.09184(15)
H10 H 0.4799 0.0070 0.0413
H11 H 0.4365 -0.0543 0.1166
H12 H 0.5268 0.0662 0.1169
C10 C 0.1647(2) 0.01237(16) 0.05004(10)
H13 H 0.2166 -0.0187 0.0061
H14 H 0.1359 -0.0543 0.0808
C11 C 0.0099(2) 0.07164(15) 0.02492(10)
C12 C -0.0857(3) 0.12555(18) 0.08810(12)
H15 H -0.0279 0.1905 0.1088
H16 H -0.1034 0.0675 0.1259
H17 H -0.1864 0.1527 0.0694
C13 C -0.0883(2) -0.01859(16) -0.01769(11)
C14 C -0.0879(3) -0.02269(19) -0.09399(12)
H18 H -0.0258 0.0312 -0.1199
C15 C -0.1761(3) -0.1036(2) -0.13383(13)
C16 C -0.1729(5) -0.1024(3) -0.21795(13)
H19 H -0.0957 -0.1580 -0.2355
H20 H -0.1449 -0.0252 -0.2350
H21 H -0.2762 -0.1230 -0.2367
C17 C -0.2675(3) -0.1826(2) -0.09506(16)
H22 H -0.3290 -0.2370 -0.1208
C18 C -0.2694(3) -0.1823(2) -0.01894(15)
H23 H -0.3306 -0.2371 0.0066
C19 C -0.1809(3) -0.10111(17) 0.01976(12)
H24 H -0.1830 -0.1013 0.0715

#END
