
#######################################################################
#
#                 Cambridge Crystallographic Data Centre
#                                CCDC 
#
#######################################################################
#
# If this CIF has been generated from an entry in the Cambridge 
# Structural Database, then it will include bibliographic, chemical, 
# crystal, experimental, refinement or atomic coordinate data resulting 
# from the CCDC's data processing and validation procedures.
#
#######################################################################

data_LIBNUF
_symmetry_cell_setting           triclinic
_symmetry_space_group_name_H-M   'P -1'
_symmetry_Int_Tables_number      2
_space_group_name_Hall           '-P 1'
loop_
_symmetry_equiv_pos_site_id
_symmetry_equiv_pos_as_xyz
1 x,y,z
2 -x,-y,-z
_cell_length_a                   10.315(1)
_cell_length_b                   10.561(1)
_cell_length_c                   9.549(1)
_cell_angle_alpha                105.26(1)
_cell_angle_beta                 103.87(1)
_cell_angle_gamma                63.12(1)
_cell_volume                     886.278
loop_
_atom_site_label
_atom_site_type_symbol
_atom_site_fract_x
_atom_site_fract_y
_atom_site_fract_z
V1 V 0.40456(3) 0.09695(3) 0.06946(3)
N1 N 0.6055(1) 0.0294(1) 0.1062(2)
C1 C 0.4154(2) -0.1098(2) 0.2481(2)
C2 C 0.5473(2) -0.1634(2) 0.3415(2)
C3 C 0.6134(3) -0.3069(3) 0.3551(3)
C4 C 0.5522(3) -0.4014(3) 0.2764(4)
C5 C 0.4235(3) -0.3505(3) 0.1818(3)
C6 C 0.3560(2) -0.2072(2) 0.1684(3)
C7 C 0.3442(2) 0.0428(2) 0.2308(2)
C8 C 0.2088(2) 0.3407(2) 0.0831(2)
C9 C 0.1761(4) 0.3952(3) 0.2275(3)
C10 C 0.0438(6) 0.4115(4) 0.2603(5)
C11 C -0.0509(5) 0.3709(4) 0.1480(8)
C12 C -0.0209(3) 0.3193(3) 0.0108(6)
C13 C 0.1072(3) 0.3032(2) -0.0227(3)
C14 C 0.3521(2) 0.3049(2) 0.0481(3)
C15 C 0.7059(2) 0.0729(2) 0.2115(2)
C16 C 0.8423(2) 0.0429(2) 0.1790(2)
C17 C 0.9401(2) 0.0868(2) 0.2831(2)
C18 C 0.9066(2) 0.1620(2) 0.4213(2)
C19 C 0.7704(3) 0.1937(3) 0.4526(2)
C20 C 0.6704(2) 0.1503(2) 0.3500(2)
C21 C 1.0173(3) 0.2048(3) 0.5339(3)
H1 H 0.5931 -0.0949 0.3976
H2 H 0.7014 -0.3392 0.4210
H3 H 0.5953 -0.4992 0.2813
H4 H 0.3857 -0.4239 0.1213
H5 H 0.2640 -0.1717 0.0969
H6 H 0.2441 0.0742 0.2037
H7 H 0.3618 0.1052 0.3161
H8 H 0.2330 0.4267 0.2983
H9 H 0.0146 0.4473 0.3475
H10 H -0.1390 0.3802 0.1639
H11 H -0.0798 0.2780 -0.0827
H12 H 0.1368 0.2628 -0.1354
H13 H 0.3431 0.2999 -0.0616
H14 H 0.4123 0.3485 0.1155
H15 H 0.8675 -0.0078 0.0818
H16 H 1.0333 0.0615 0.2529
H17 H 0.7401 0.2475 0.5471
H18 H 0.5823 0.1681 0.3788
H19 H 0.9665 0.2786 0.6150
H20 H 1.0526 0.2490 0.5031
H21 H 1.0907 0.1244 0.5904
V1A V 0.59544(3) -0.09695(3) -0.06946(3)
N1A N 0.3945(1) -0.0294(1) -0.1062(2)
C7A C 0.6558(2) -0.0428(2) -0.2308(2)
C8A C 0.7912(2) -0.3407(2) -0.0831(2)
C14A C 0.6479(2) -0.3049(2) -0.0481(3)
C15A C 0.2941(2) -0.0729(2) -0.2115(2)
C1A C 0.5846(2) 0.1098(2) -0.2481(2)
H6A H 0.7559 -0.0742 -0.2037
H7A H 0.6382 -0.1052 -0.3161
C9A C 0.8239(4) -0.3952(3) -0.2275(3)
C13A C 0.8928(3) -0.3032(2) 0.0227(3)
H13A H 0.6569 -0.2999 0.0616
H14A H 0.5877 -0.3485 -0.1155
C16A C 0.1577(2) -0.0429(2) -0.1790(2)
C20A C 0.3296(2) -0.1503(2) -0.3500(2)
C2A C 0.4527(2) 0.1634(2) -0.3415(2)
C6A C 0.6440(2) 0.2072(2) -0.1684(3)
C10A C 0.9562(6) -0.4115(4) -0.2603(5)
H8A H 0.7670 -0.4267 -0.2983
C12A C 1.0209(3) -0.3193(3) -0.0108(6)
H12A H 0.8632 -0.2628 0.1354
C17A C 0.0599(2) -0.0868(2) -0.2831(2)
H15A H 0.1325 0.0078 -0.0818
C19A C 0.2296(3) -0.1937(3) -0.4526(2)
H18A H 0.4177 -0.1681 -0.3788
C3A C 0.3866(3) 0.3069(3) -0.3551(3)
H1A H 0.4069 0.0949 -0.3976
C5A C 0.5765(3) 0.3505(3) -0.1818(3)
H5A H 0.7360 0.1717 -0.0969
C11A C 1.0509(5) -0.3709(4) -0.1480(8)
H9A H 0.9854 -0.4473 -0.3475
H11A H 1.0798 -0.2780 0.0827
C18A C 0.0934(2) -0.1620(2) -0.4213(2)
H16A H -0.0333 -0.0615 -0.2529
H17A H 0.2599 -0.2475 -0.5471
C4A C 0.4478(3) 0.4014(3) -0.2764(4)
H2A H 0.2986 0.3392 -0.4210
H4A H 0.6143 0.4239 -0.1213
H10A H 1.1390 -0.3802 -0.1639
C21A C -0.0173(3) -0.2048(3) -0.5339(3)
H3A H 0.4047 0.4992 -0.2813
H19A H 0.0335 -0.2786 -0.6150
H20A H -0.0526 -0.2490 -0.5031
H21A H -0.0907 -0.1244 -0.5904
V1 V 0.40456(3) 0.09695(3) 1.06946(3)
N1 N 0.6055(1) 0.0294(1) 1.1062(2)
C1 C 0.4154(2) -0.1098(2) 1.2481(2)
C2 C 0.5473(2) -0.1634(2) 1.3415(2)
C3 C 0.6134(3) -0.3069(3) 1.3551(3)
C4 C 0.5522(3) -0.4014(3) 1.2764(4)
C5 C 0.4235(3) -0.3505(3) 1.1818(3)
C6 C 0.3560(2) -0.2072(2) 1.1684(3)
C7 C 0.3442(2) 0.0428(2) 1.2308(2)
C8 C 0.2088(2) 0.3407(2) 1.0831(2)
C9 C 0.1761(4) 0.3952(3) 1.2275(3)
C10 C 0.0438(6) 0.4115(4) 1.2603(5)
C11 C -0.0509(5) 0.3709(4) 1.1480(8)
C12 C -0.0209(3) 0.3193(3) 1.0108(6)
C13 C 0.1072(3) 0.3032(2) 0.9773(3)
C14 C 0.3521(2) 0.3049(2) 1.0481(3)
C15 C 0.7059(2) 0.0729(2) 1.2115(2)
C16 C 0.8423(2) 0.0429(2) 1.1790(2)
C17 C 0.9401(2) 0.0868(2) 1.2831(2)
C18 C 0.9066(2) 0.1620(2) 1.4213(2)
C19 C 0.7704(3) 0.1937(3) 1.4526(2)
C20 C 0.6704(2) 0.1503(2) 1.3500(2)
C21 C 1.0173(3) 0.2048(3) 1.5339(3)
H1 H 0.5931 -0.0949 1.3976
H2 H 0.7014 -0.3392 1.4210
H3 H 0.5953 -0.4992 1.2813
H4 H 0.3857 -0.4239 1.1213
H5 H 0.2640 -0.1717 1.0969
H6 H 0.2441 0.0742 1.2037
H7 H 0.3618 0.1052 1.3161
H8 H 0.2330 0.4267 1.2983
H9 H 0.0146 0.4473 1.3475
H10 H -0.1390 0.3802 1.1639
H11 H -0.0798 0.2780 0.9173
H12 H 0.1368 0.2628 0.8646
H13 H 0.3431 0.2999 0.9384
H14 H 0.4123 0.3485 1.1155
H15 H 0.8675 -0.0078 1.0818
H16 H 1.0333 0.0615 1.2529
H17 H 0.7401 0.2475 1.5471
H18 H 0.5823 0.1681 1.3788
H19 H 0.9665 0.2786 1.6150
H20 H 1.0526 0.2490 1.5031
H21 H 1.0907 0.1244 1.5904
V1A V 0.59544(3) -0.09695(3) 0.93054(3)
N1A N 0.3945(1) -0.0294(1) 0.8938(2)
C7A C 0.6558(2) -0.0428(2) 0.7692(2)
C8A C 0.7912(2) -0.3407(2) 0.9169(2)
C14A C 0.6479(2) -0.3049(2) 0.9519(3)
C15A C 0.2941(2) -0.0729(2) 0.7885(2)
C1A C 0.5846(2) 0.1098(2) 0.7519(2)
H6A H 0.7559 -0.0742 0.7963
H7A H 0.6382 -0.1052 0.6839
C9A C 0.8239(4) -0.3952(3) 0.7725(3)
C13A C 0.8928(3) -0.3032(2) 1.0227(3)
H13A H 0.6569 -0.2999 1.0616
H14A H 0.5877 -0.3485 0.8845
C16A C 0.1577(2) -0.0429(2) 0.8210(2)
C20A C 0.3296(2) -0.1503(2) 0.6500(2)
C2A C 0.4527(2) 0.1634(2) 0.6585(2)
C6A C 0.6440(2) 0.2072(2) 0.8316(3)
C10A C 0.9562(6) -0.4115(4) 0.7397(5)
H8A H 0.7670 -0.4267 0.7017
C12A C 1.0209(3) -0.3193(3) 0.9892(6)
H12A H 0.8632 -0.2628 1.1354
C17A C 0.0599(2) -0.0868(2) 0.7169(2)
H15A H 0.1325 0.0078 0.9182
C19A C 0.2296(3) -0.1937(3) 0.5474(2)
H18A H 0.4177 -0.1681 0.6212
C3A C 0.3866(3) 0.3069(3) 0.6449(3)
H1A H 0.4069 0.0949 0.6024
C5A C 0.5765(3) 0.3505(3) 0.8182(3)
H5A H 0.7360 0.1717 0.9031
C11A C 1.0509(5) -0.3709(4) 0.8520(8)
H9A H 0.9854 -0.4473 0.6525
H11A H 1.0798 -0.2780 1.0827
C18A C 0.0934(2) -0.1620(2) 0.5787(2)
H16A H -0.0333 -0.0615 0.7471
H17A H 0.2599 -0.2475 0.4529
C4A C 0.4478(3) 0.4014(3) 0.7236(4)
H2A H 0.2986 0.3392 0.5790
H4A H 0.6143 0.4239 0.8787
H10A H 1.1390 -0.3802 0.8361
C21A C -0.0173(3) -0.2048(3) 0.4661(3)
H3A H 0.4047 0.4992 0.7187
H19A H 0.0335 -0.2786 0.3850
H20A H -0.0526 -0.2490 0.4969
H21A H -0.0907 -0.1244 0.4096
V1 V 0.40456(3) 1.09695(3) 0.06946(3)
N1 N 0.6055(1) 1.0294(1) 0.1062(2)
C1 C 0.4154(2) 0.8902(2) 0.2481(2)
C2 C 0.5473(2) 0.8366(2) 0.3415(2)
C3 C 0.6134(3) 0.6931(3) 0.3551(3)
C4 C 0.5522(3) 0.5986(3) 0.2764(4)
C5 C 0.4235(3) 0.6495(3) 0.1818(3)
C6 C 0.3560(2) 0.7928(2) 0.1684(3)
C7 C 0.3442(2) 1.0428(2) 0.2308(2)
C8 C 0.2088(2) 1.3407(2) 0.0831(2)
C9 C 0.1761(4) 1.3952(3) 0.2275(3)
C10 C 0.0438(6) 1.4115(4) 0.2603(5)
C11 C -0.0509(5) 1.3709(4) 0.1480(8)
C12 C -0.0209(3) 1.3193(3) 0.0108(6)
C13 C 0.1072(3) 1.3032(2) -0.0227(3)
C14 C 0.3521(2) 1.3049(2) 0.0481(3)
C15 C 0.7059(2) 1.0729(2) 0.2115(2)
C16 C 0.8423(2) 1.0429(2) 0.1790(2)
C17 C 0.9401(2) 1.0868(2) 0.2831(2)
C18 C 0.9066(2) 1.1620(2) 0.4213(2)
C19 C 0.7704(3) 1.1937(3) 0.4526(2)
C20 C 0.6704(2) 1.1503(2) 0.3500(2)
C21 C 1.0173(3) 1.2048(3) 0.5339(3)
H1 H 0.5931 0.9051 0.3976
H2 H 0.7014 0.6608 0.4210
H3 H 0.5953 0.5008 0.2813
H4 H 0.3857 0.5761 0.1213
H5 H 0.2640 0.8283 0.0969
H6 H 0.2441 1.0742 0.2037
H7 H 0.3618 1.1052 0.3161
H8 H 0.2330 1.4267 0.2983
H9 H 0.0146 1.4473 0.3475
H10 H -0.1390 1.3802 0.1639
H11 H -0.0798 1.2780 -0.0827
H12 H 0.1368 1.2628 -0.1354
H13 H 0.3431 1.2999 -0.0616
H14 H 0.4123 1.3485 0.1155
H15 H 0.8675 0.9922 0.0818
H16 H 1.0333 1.0615 0.2529
H17 H 0.7401 1.2475 0.5471
H18 H 0.5823 1.1681 0.3788
H19 H 0.9665 1.2786 0.6150
H20 H 1.0526 1.2490 0.5031
H21 H 1.0907 1.1244 0.5904
V1A V 0.59544(3) 0.90305(3) -0.06946(3)
N1A N 0.3945(1) 0.9706(1) -0.1062(2)
C7A C 0.6558(2) 0.9572(2) -0.2308(2)
C8A C 0.7912(2) 0.6593(2) -0.0831(2)
C14A C 0.6479(2) 0.6951(2) -0.0481(3)
C15A C 0.2941(2) 0.9271(2) -0.2115(2)
C1A C 0.5846(2) 1.1098(2) -0.2481(2)
H6A H 0.7559 0.9258 -0.2037
H7A H 0.6382 0.8948 -0.3161
C9A C 0.8239(4) 0.6048(3) -0.2275(3)
C13A C 0.8928(3) 0.6968(2) 0.0227(3)
H13A H 0.6569 0.7001 0.0616
H14A H 0.5877 0.6515 -0.1155
C16A C 0.1577(2) 0.9571(2) -0.1790(2)
C20A C 0.3296(2) 0.8497(2) -0.3500(2)
C2A C 0.4527(2) 1.1634(2) -0.3415(2)
C6A C 0.6440(2) 1.2072(2) -0.1684(3)
C10A C 0.9562(6) 0.5885(4) -0.2603(5)
H8A H 0.7670 0.5733 -0.2983
C12A C 1.0209(3) 0.6807(3) -0.0108(6)
H12A H 0.8632 0.7372 0.1354
C17A C 0.0599(2) 0.9132(2) -0.2831(2)
H15A H 0.1325 1.0078 -0.0818
C19A C 0.2296(3) 0.8063(3) -0.4526(2)
H18A H 0.4177 0.8319 -0.3788
C3A C 0.3866(3) 1.3069(3) -0.3551(3)
H1A H 0.4069 1.0949 -0.3976
C5A C 0.5765(3) 1.3505(3) -0.1818(3)
H5A H 0.7360 1.1717 -0.0969
C11A C 1.0509(5) 0.6291(4) -0.1480(8)
H9A H 0.9854 0.5527 -0.3475
H11A H 1.0798 0.7220 0.0827
C18A C 0.0934(2) 0.8380(2) -0.4213(2)
H16A H -0.0333 0.9385 -0.2529
H17A H 0.2599 0.7525 -0.5471
C4A C 0.4478(3) 1.4014(3) -0.2764(4)
H2A H 0.2986 1.3392 -0.4210
H4A H 0.6143 1.4239 -0.1213
H10A H 1.1390 0.6198 -0.1639
C21A C -0.0173(3) 0.7952(3) -0.5339(3)
H3A H 0.4047 1.4992 -0.2813
H19A H 0.0335 0.7214 -0.6150
H20A H -0.0526 0.7510 -0.5031
H21A H -0.0907 0.8756 -0.5904
V1 V 0.40456(3) 1.09695(3) 1.06946(3)
N1 N 0.6055(1) 1.0294(1) 1.1062(2)
C1 C 0.4154(2) 0.8902(2) 1.2481(2)
C2 C 0.5473(2) 0.8366(2) 1.3415(2)
C3 C 0.6134(3) 0.6931(3) 1.3551(3)
C4 C 0.5522(3) 0.5986(3) 1.2764(4)
C5 C 0.4235(3) 0.6495(3) 1.1818(3)
C6 C 0.3560(2) 0.7928(2) 1.1684(3)
C7 C 0.3442(2) 1.0428(2) 1.2308(2)
C8 C 0.2088(2) 1.3407(2) 1.0831(2)
C9 C 0.1761(4) 1.3952(3) 1.2275(3)
C10 C 0.0438(6) 1.4115(4) 1.2603(5)
C11 C -0.0509(5) 1.3709(4) 1.1480(8)
C12 C -0.0209(3) 1.3193(3) 1.0108(6)
C13 C 0.1072(3) 1.3032(2) 0.9773(3)
C14 C 0.3521(2) 1.3049(2) 1.0481(3)
C15 C 0.7059(2) 1.0729(2) 1.2115(2)
C16 C 0.8423(2) 1.0429(2) 1.1790(2)
C17 C 0.9401(2) 1.0868(2) 1.2831(2)
C18 C 0.9066(2) 1.1620(2) 1.4213(2)
C19 C 0.7704(3) 1.1937(3) 1.4526(2)
C20 C 0.6704(2) 1.1503(2) 1.3500(2)
C21 C 1.0173(3) 1.2048(3) 1.5339(3)
H1 H 0.5931 0.9051 1.3976
H2 H 0.7014 0.6608 1.4210
H3 H 0.5953 0.5008 1.2813
H4 H 0.3857 0.5761 1.1213
H5 H 0.2640 0.8283 1.0969
H6 H 0.2441 1.0742 1.2037
H7 H 0.3618 1.1052 1.3161
H8 H 0.2330 1.4267 1.2983
H9 H 0.0146 1.4473 1.3475
H10 H -0.1390 1.3802 1.1639
H11 H -0.0798 1.2780 0.9173
H12 H 0.1368 1.2628 0.8646
H13 H 0.3431 1.2999 0.9384
H14 H 0.4123 1.3485 1.1155
H15 H 0.8675 0.9922 1.0818
H16 H 1.0333 1.0615 1.2529
H17 H 0.7401 1.2475 1.5471
H18 H 0.5823 1.1681 1.3788
H19 H 0.9665 1.2786 1.6150
H20 H 1.0526 1.2490 1.5031
H21 H 1.0907 1.1244 1.5904
V1A V 0.59544(3) 0.90305(3) 0.93054(3)
N1A N 0.3945(1) 0.9706(1) 0.8938(2)
C7A C 0.6558(2) 0.9572(2) 0.7692(2)
C8A C 0.7912(2) 0.6593(2) 0.9169(2)
C14A C 0.6479(2) 0.6951(2) 0.9519(3)
C15A C 0.2941(2) 0.9271(2) 0.7885(2)
C1A C 0.5846(2) 1.1098(2) 0.7519(2)
H6A H 0.7559 0.9258 0.7963
H7A H 0.6382 0.8948 0.6839
C9A C 0.8239(4) 0.6048(3) 0.7725(3)
C13A C 0.8928(3) 0.6968(2) 1.0227(3)
H13A H 0.6569 0.7001 1.0616
H14A H 0.5877 0.6515 0.8845
C16A C 0.1577(2) 0.9571(2) 0.8210(2)
C20A C 0.3296(2) 0.8497(2) 0.6500(2)
C2A C 0.4527(2) 1.1634(2) 0.6585(2)
C6A C 0.6440(2) 1.2072(2) 0.8316(3)
C10A C 0.9562(6) 0.5885(4) 0.7397(5)
H8A H 0.7670 0.5733 0.7017
C12A C 1.0209(3) 0.6807(3) 0.9892(6)
H12A H 0.8632 0.7372 1.1354
C17A C 0.0599(2) 0.9132(2) 0.7169(2)
H15A H 0.1325 1.0078 0.9182
C19A C 0.2296(3) 0.8063(3) 0.5474(2)
H18A H 0.4177 0.8319 0.6212
C3A C 0.3866(3) 1.3069(3) 0.6449(3)
H1A H 0.4069 1.0949 0.6024
C5A C 0.5765(3) 1.3505(3) 0.8182(3)
H5A H 0.7360 1.1717 0.9031
C11A C 1.0509(5) 0.6291(4) 0.8520(8)
H9A H 0.9854 0.5527 0.6525
H11A H 1.0798 0.7220 1.0827
C18A C 0.0934(2) 0.8380(2) 0.5787(2)
H16A H -0.0333 0.9385 0.7471
H17A H 0.2599 0.7525 0.4529
C4A C 0.4478(3) 1.4014(3) 0.7236(4)
H2A H 0.2986 1.3392 0.5790
H4A H 0.6143 1.4239 0.8787
H10A H 1.1390 0.6198 0.8361
C21A C -0.0173(3) 0.7952(3) 0.4661(3)
H3A H 0.4047 1.4992 0.7187
H19A H 0.0335 0.7214 0.3850
H20A H -0.0526 0.7510 0.4969
H21A H -0.0907 0.8756 0.4096
V2? V 0.4856(12) 0.0775(11) 0.9168(12)
V2? V 0.5144(12) 0.9225(11) 0.0832(12)

#END
