./LIBSOG_from_xyz.cif_generated_by_CrystalShift
_symmetry_cell_setting triclinic
_symmetry_space_group_name_H-M 'P 1'
loop_
_symmetry_equiv_pos_site_id
_symmetry_equiv_pos_as_xyz
1 x,y,z
_cell_length_a 9.922000
_cell_length_b 11.229000
_cell_length_c 26.423000
_cell_angle_alpha 87.146000
_cell_angle_beta 89.440000
_cell_angle_gamma 73.282000
_cell_volume 2815.934859
loop_
_atom_site_label
_atom_site_type_symbol
_atom_site_fract_x
_atom_site_fract_y
_atom_site_fract_z
C1 C 0.616000 1.213000 0.550300
C2 C 0.458000 1.265000 0.551700
H3 H 0.415500 1.211900 0.534500
H4 H 0.431100 1.346900 0.535100
H5 H 0.427100 1.270900 0.586200
C6 C 0.658000 1.198000 0.487900
H7 H 0.599500 1.155200 0.472200
H8 H 0.754800 1.151400 0.484800
H9 H 0.642500 1.279100 0.471600
C10 C 0.696000 1.277000 0.573500
H11 H 0.794100 1.231800 0.571100
H12 H 0.670600 1.285300 0.608600
H13 H 0.680100 1.357900 0.557100
O14 O 0.653800 1.077700 0.567000
C15 C 0.592000 0.989000 0.553300
O16 O 0.482800 1.014400 0.526500
N17 N 0.649600 0.866000 0.572200
H18 H 0.723800 0.854700 0.590500
C19 C 0.608600 0.761000 0.566700
H20 H 0.530100 0.782900 0.542500
C21 C 0.545600 0.732700 0.621400
O22 O 0.427000 0.718800 0.623400
C23 C 0.707000 0.647000 0.550700
H24 H 0.665000 0.578900 0.554300
H25 H 0.791400 0.625800 0.571600
C26 C 0.746000 0.667000 0.493000
H27 H 0.772300 0.742500 0.482100
C28 C 0.615000 0.632000 0.463200
H29 H 0.531300 0.700200 0.464200
H30 H 0.598700 0.559100 0.479800
H31 H 0.641200 0.615000 0.428600
C32 C 0.854000 0.532000 0.483800
H33 H 0.945900 0.529100 0.495600
H34 H 0.857200 0.517200 0.448300
H35 H 0.821800 0.469300 0.502100
N36 N 0.631300 0.714000 0.660700
H37 H 0.713500 0.723200 0.655600
C38 C 0.599500 0.680600 0.709700
H39 H 0.498100 0.690600 0.709200
C40 C 0.617000 0.779800 0.743800
O41 O 0.741200 0.784500 0.749500
C42 C 0.669000 0.541700 0.729200
H43 H 0.770600 0.527500 0.732000
C44 C 0.611000 0.522600 0.781300
H45 H 0.635400 0.577300 0.804200
H46 H 0.651600 0.437800 0.793500
H47 H 0.510900 0.540500 0.779500
C48 C 0.641400 0.456200 0.691400
H49 H 0.684300 0.469300 0.659700
H50 H 0.541700 0.472900 0.686600
H51 H 0.680600 0.371400 0.703700
N52 N 0.501200 0.858200 0.764400
H53 H 0.420400 0.845400 0.761300
C54 C 0.513600 0.961800 0.791200
H55 H 0.612000 0.962400 0.793100
C56 C 0.456000 0.938800 0.845200
O57 O 0.330000 0.963400 0.852900
C58 C 0.419600 1.086500 0.767400
H59 H 0.321000 1.086300 0.769500
C60 C 0.437000 1.188300 0.794400
H61 H 0.374700 1.264700 0.780300
H62 H 0.532200 1.190900 0.791600
H63 H 0.414100 1.177800 0.829400
C64 C 0.459400 1.100200 0.709900
H65 H 0.444600 1.032600 0.692000
H66 H 0.556500 1.098500 0.707400
H67 H 0.401400 1.177700 0.695300
N68 N 0.539100 0.893700 0.888000
C69 C 0.496800 0.847800 0.931300
H70 H 0.433200 0.913200 0.950600
C71 C 0.426500 0.751000 0.916100
O72 O 0.481600 0.665800 0.890100
C73 C 0.636000 0.790000 0.958900
H74 H 0.627300 0.818200 0.993200
H75 H 0.653500 0.700100 0.961200
C76 C 0.746000 0.816000 0.937100
H77 H 0.828400 0.744100 0.940200
H78 H 0.766700 0.884200 0.953700
C79 C 0.710600 0.853000 0.879900
H80 H 0.743500 0.783800 0.858100
H81 H 0.744400 0.922400 0.867600
N82 N 0.294600 0.767200 0.938800
C83 C 0.214000 0.676000 0.928200
H84 H 0.281100 0.593600 0.924500
C85 C 0.123000 0.713000 0.879000
O86 O 0.047500 0.645500 0.870700
C87 C 0.143000 0.677000 0.976800
H88 H 0.066700 0.639300 0.974300
H89 H 0.208800 0.629400 1.002500
C90 C 0.092200 0.799000 0.989200
H91 H 0.064900 0.804300 1.024500
H92 H 0.011200 0.841600 0.968300
C93 C 0.223800 0.859000 0.978100
H94 H 0.192600 0.944200 0.964300
H95 H 0.282500 0.853800 1.007800
N96 N 0.132000 0.809400 0.852500
H97 H 0.182400 0.854500 0.862600
C98 C 0.053200 0.841000 0.803700
H99 H -0.038400 0.824700 0.807300
C100 C 0.128000 0.779200 0.758600
O101 O 0.255400 0.773400 0.750300
C102 C 0.032000 0.991000 0.798600
H103 H -0.035000 1.030800 0.824000
H104 H 0.120600 1.006500 0.805500
C105 C -0.019000 1.046000 0.749300
H106 H 0.040100 1.003400 0.721800
C107 C -0.024000 1.193000 0.750500
H108 H -0.054700 1.233600 0.718200
H109 H 0.068700 1.198800 0.757800
H110 H -0.087700 1.231600 0.776300
C111 C -0.162000 1.058000 0.741800
H112 H -0.188900 1.090200 0.707900
H113 H -0.217000 1.115000 0.765400
H114 H -0.179000 0.978600 0.747100
N115 N 0.054900 0.732600 0.728900
H116 H -0.029900 0.734800 0.737000
C117 C 0.113600 0.676500 0.681900
H118 H 0.214700 0.668000 0.681600
C119 C 0.045000 0.765400 0.639000
O120 O -0.091200 0.792000 0.631900
C121 C 0.093500 0.545000 0.679700
H122 H -0.009000 0.561600 0.678900
C123 C 0.135000 0.464000 0.722300
H124 H 0.090600 0.504200 0.751900
H125 H 0.235000 0.442000 0.726100
H126 H 0.106400 0.390200 0.718100
C127 C 0.137000 0.505000 0.628000
H128 H 0.119300 0.426200 0.623200
H129 H 0.235300 0.495900 0.623700
H130 H 0.083800 0.565700 0.603400
N131 N 0.122900 0.814200 0.611300
H132 H 0.212100 0.790800 0.617000
C133 C 0.065600 0.912700 0.568500
H134 H -0.031000 0.960300 0.576300
C135 C 0.066000 0.849000 0.523500
O136 O 0.145000 0.762000 0.509000
C137 C 0.160000 1.003000 0.563100
H138 H 0.256000 0.955800 0.554300
C139 C 0.161000 1.054000 0.615800
H140 H 0.206800 0.987500 0.639500
H141 H 0.066600 1.091800 0.626400
H142 H 0.211900 1.115700 0.614500
C143 C 0.106000 1.090000 0.524700
H144 H 0.115300 1.050200 0.493100
H145 H 0.157200 1.151400 0.523000
H146 H 0.008800 1.130500 0.531000
O147 O -0.056000 0.908000 0.497100
C148 C -0.058000 0.877000 0.444900
H149 H -0.144500 0.925100 0.429300
H150 H -0.050100 0.789800 0.443400
H151 H 0.019800 0.894500 0.427300
C152 C 0.331000 0.475000 0.349600
C153 C 0.172500 0.531300 0.338700
H154 H 0.158400 0.553300 0.303100
H155 H 0.136600 0.604300 0.357700
H156 H 0.123900 0.471200 0.348300
C157 C 0.422000 0.555000 0.323800
H158 H 0.519400 0.517400 0.332400
H159 H 0.392100 0.637800 0.335700
H160 H 0.410300 0.558000 0.287700
C161 C 0.318000 0.441000 0.410200
H162 H 0.410100 0.406500 0.424500
H163 H 0.265300 0.381500 0.414500
H164 H 0.270000 0.515300 0.427000
O165 O 0.361800 0.359900 0.326600
C166 C 0.486000 0.281000 0.326700
O167 O 0.588800 0.294600 0.349100
N168 N 0.501700 0.176000 0.300600
H169 H 0.426800 0.169700 0.286200
C170 C 0.625100 0.075500 0.293900
H171 H 0.693000 0.078000 0.320200
C172 C 0.687100 0.091900 0.245200
O173 O 0.815000 0.080400 0.238400
C174 C 0.590700 -0.044100 0.301100
H175 H 0.509500 -0.040100 0.280200
H176 H 0.563700 -0.053200 0.336200
C177 C 0.705000 -0.157000 0.289000
H178 H 0.737000 -0.142900 0.254600
C179 C 0.653000 -0.269000 0.289000
H180 H 0.728800 -0.339500 0.279900
H181 H 0.577900 -0.255000 0.264900
H182 H 0.619900 -0.284400 0.322200
C183 C 0.839000 -0.178000 0.327100
H184 H 0.869200 -0.103900 0.326400
H185 H 0.915200 -0.246300 0.316400
H186 H 0.812400 -0.196200 0.361000
N187 N 0.607900 0.100400 0.202500
H188 H 0.521500 0.101400 0.206500
C189 C 0.658100 0.108200 0.149900
H190 H 0.753600 0.116300 0.152000
C191 C 0.567500 0.227300 0.123900
O192 O 0.435300 0.243200 0.124300
C193 C 0.666000 0.007000 0.121900
H194 H 0.742600 -0.052700 0.141100
C195 C 0.739000 -0.004400 0.070500
H196 H 0.818200 0.027800 0.071800
H197 H 0.673600 0.042300 0.045100
H198 H 0.769700 -0.090300 0.062300
C199 C 0.589000 -0.048000 0.124900
H200 H 0.622500 -0.121900 0.106000
H201 H 0.499900 0.001100 0.111400
H202 H 0.578100 -0.071500 0.159800
N203 N 0.623400 0.301800 0.103400
H204 H 0.713900 0.279900 0.103900
C205 C 0.557500 0.418200 0.079300
H206 H 0.457500 0.423600 0.076500
C207 C 0.614000 0.419000 0.024900
O208 O 0.719700 0.461600 0.022800
C209 C 0.566500 0.522900 0.113300
H210 H 0.664600 0.524700 0.114300
C211 C 0.518000 0.514000 0.164900
H212 H 0.528600 0.582600 0.183100
H213 H 0.572500 0.437100 0.181200
H214 H 0.420600 0.515900 0.164500
C215 C 0.474000 0.647800 0.081900
H216 H 0.507100 0.647300 0.047600
H217 H 0.484400 0.720100 0.097500
H218 H 0.377000 0.649500 0.082000
N219 N 0.567500 0.372600 -0.011900
C220 C 0.649900 0.361600 -0.059800
H221 H 0.658200 0.443500 -0.071200
C222 C 0.794100 0.273400 -0.050000
O223 O 0.811500 0.181400 -0.023300
C224 C 0.548000 0.324000 -0.094600
H225 H 0.596800 0.282400 -0.123700
H226 H 0.472700 0.396200 -0.106300
C227 C 0.494000 0.237000 -0.060100
H228 H 0.566000 0.158500 -0.053700
H229 H 0.411600 0.221800 -0.074300
C230 C 0.458800 0.309600 -0.011700
H231 H 0.365500 0.368400 -0.013600
H232 H 0.465400 0.254200 0.018100
N233 N 0.908100 0.309100 -0.068300
C234 C 1.054800 0.227700 -0.062600
H235 H 1.054800 0.142500 -0.069100
C236 C 1.110400 0.226900 -0.009300
O237 O 1.222000 0.149900 0.002800
C238 C 1.126000 0.273000 -0.105000
H239 H 1.201400 0.300700 -0.091200
H240 H 1.169200 0.202800 -0.125600
C241 C 1.051000 0.361500 -0.134400
H242 H 1.032700 0.330200 -0.166500
H243 H 1.097200 0.425700 -0.140900
C244 C 0.901300 0.416800 -0.102800
H245 H 0.901300 0.489800 -0.084600
H246 H 0.819700 0.436400 -0.125000
N247 N 1.037600 0.315000 0.020400
H248 H 0.960000 0.366200 0.009400
C249 C 1.089700 0.326300 0.073100
H250 H 1.192000 0.310700 0.073900
C251 C 1.043900 0.235000 0.107600
O252 O 0.927600 0.221400 0.109900
C253 C 1.012300 0.458300 0.090800
H254 H 0.915700 0.478900 0.078900
H255 H 1.055000 0.516500 0.073500
C256 C 1.008000 0.485100 0.153400
H257 H 0.980200 0.420400 0.173500
C258 C 0.903000 0.621000 0.162600
H259 H 0.807600 0.621200 0.156600
H260 H 0.926000 0.681600 0.139700
H261 H 0.912400 0.642300 0.196900
C262 C 1.152000 0.462000 0.152900
H263 H 1.184500 0.467500 0.186600
H264 H 1.176200 0.523100 0.130700
H265 H 1.194800 0.380600 0.141200
N266 N 1.151700 0.169100 0.140000
H267 H 1.232800 0.181800 0.136700
C268 C 1.133000 0.074900 0.181100
H269 H 1.032000 0.083800 0.183600
C270 C 1.175400 0.115500 0.227900
O271 O 1.291300 0.127400 0.235900
C272 C 1.204700 -0.057400 0.167000
H273 H 1.305400 -0.066900 0.162800
C274 C 1.155300 -0.090300 0.123800
H275 H 1.208400 -0.173500 0.116500
H276 H 1.164400 -0.034000 0.096300
H277 H 1.057900 -0.086500 0.128000
C278 C 1.187000 -0.148600 0.209300
H279 H 1.223400 -0.129200 0.240400
H280 H 1.237500 -0.231800 0.200900
H281 H 1.089000 -0.142400 0.213200
N282 N 1.078500 0.132300 0.265200
H283 H 0.999900 0.118700 0.258300
C284 C 1.095500 0.172900 0.318300
H285 H 1.155400 0.228700 0.318300
C286 C 1.164200 0.050600 0.345700
O287 O 1.160900 -0.040900 0.345700
C288 C 0.947000 0.236300 0.338300
H289 H 0.887400 0.180300 0.336500
C290 C 0.960000 0.268000 0.392500
H291 H 1.002900 0.193600 0.412600
H292 H 0.868400 0.307900 0.405600
H293 H 1.017500 0.323900 0.393700
C294 C 0.884900 0.345700 0.313700
H295 H 0.870500 0.332000 0.278800
H296 H 0.944200 0.399500 0.315600
H297 H 0.795800 0.383700 0.329000
O298 O 1.261500 0.077200 0.382100
C299 C 1.334000 -0.051000 0.414000
H300 H 1.398000 -0.037000 0.438400
H301 H 1.383600 -0.112700 0.391500
H302 H 1.262100 -0.079100 0.431300

#END
