./LIBXEZ_from_xyz.cif_generated_by_CrystalShift
_symmetry_cell_setting triclinic
_symmetry_space_group_name_H-M 'P 1'
loop_
_symmetry_equiv_pos_site_id
_symmetry_equiv_pos_as_xyz
1 x,y,z
_cell_length_a 9.025000
_cell_length_b 5.549000
_cell_length_c 21.878000
_cell_angle_alpha 90.000000
_cell_angle_beta 98.470000
_cell_angle_gamma 90.000000
_cell_volume 1083.694149
loop_
_atom_site_label
_atom_site_type_symbol
_atom_site_fract_x
_atom_site_fract_y
_atom_site_fract_z
N1 N 0.473200 0.728900 0.073400
N2 N 0.479100 0.547700 0.115900
C3 C 0.380400 0.369600 0.100200
C4 C 0.182900 0.323900 0.002800
C5 C 0.135800 0.451800 -0.050900
C6 C 0.199200 0.669200 -0.066500
C7 C 0.311900 0.774600 -0.028100
C8 C 0.362300 0.654500 0.027700
C9 C 0.301400 0.430900 0.043500
N10 N 0.011700 0.348400 -0.093300
O11 O -0.038900 0.148700 -0.082600
O12 O -0.036500 0.465100 -0.139400
C13 C 0.591100 0.561500 0.170800
C14 C 0.597800 0.381300 0.214300
C15 C 0.707700 0.397000 0.265800
C16 C 0.802400 0.588300 0.272700
C17 C 0.791900 0.768400 0.229800
C18 C 0.685700 0.755900 0.177500
H19 H 0.367000 0.228000 0.124000
H20 H 0.161000 0.746000 -0.105000
H21 H 0.528000 0.250000 0.209000
H22 H 0.878000 0.599000 0.308000
H23 H 0.678000 0.879000 0.146000
H24 H 0.137000 0.174000 0.011000
H25 H 0.358000 0.923000 -0.038000
H26 H 0.718000 0.273000 0.297000
H27 H 0.859000 0.903000 0.236000
N28 N 0.526800 0.228900 0.426600
N29 N 0.520900 0.047700 0.384100
C30 C 0.619600 -0.130400 0.399800
C31 C 0.817100 -0.176100 0.497200
C32 C 0.864200 -0.048200 0.550900
C33 C 0.800800 0.169200 0.566500
C34 C 0.688100 0.274600 0.528100
C35 C 0.637700 0.154500 0.472300
C36 C 0.698600 -0.069100 0.456500
N37 N 0.988300 -0.151600 0.593300
O38 O 1.038900 -0.351300 0.582600
O39 O 1.036500 -0.034900 0.639400
C40 C 0.408900 0.061500 0.329200
C41 C 0.402200 -0.118700 0.285700
C42 C 0.292300 -0.103000 0.234200
C43 C 0.197600 0.088300 0.227300
C44 C 0.208100 0.268400 0.270200
C45 C 0.314300 0.255900 0.322500
H46 H 0.633000 -0.272000 0.376000
H47 H 0.839000 0.246000 0.605000
H48 H 0.472000 -0.250000 0.291000
H49 H 0.122000 0.099000 0.192000
H50 H 0.322000 0.379000 0.354000
H51 H 0.863000 -0.326000 0.489000
H52 H 0.642000 0.423000 0.538000
H53 H 0.282000 -0.227000 0.203000
H54 H 0.141000 0.403000 0.264000
N55 N 0.526800 0.271100 0.926600
N56 N 0.520900 0.452300 0.884100
C57 C 0.619600 0.630400 0.899800
C58 C 0.817100 0.676100 0.997200
C59 C 0.864200 0.548200 1.050900
C60 C 0.800800 0.330800 1.066500
C61 C 0.688100 0.225400 1.028100
C62 C 0.637700 0.345500 0.972300
C63 C 0.698600 0.569100 0.956500
N64 N 0.988300 0.651600 1.093300
O65 O 1.038900 0.851300 1.082600
O66 O 1.036500 0.534900 1.139400
C67 C 0.408900 0.438500 0.829200
C68 C 0.402200 0.618700 0.785700
C69 C 0.292300 0.603000 0.734200
C70 C 0.197600 0.411700 0.727300
C71 C 0.208100 0.231600 0.770200
C72 C 0.314300 0.244100 0.822500
H73 H 0.633000 0.772000 0.876000
H74 H 0.839000 0.254000 1.105000
H75 H 0.472000 0.750000 0.791000
H76 H 0.122000 0.401000 0.692000
H77 H 0.322000 0.121000 0.854000
H78 H 0.863000 0.826000 0.989000
H79 H 0.642000 0.077000 1.038000
H80 H 0.282000 0.727000 0.703000
H81 H 0.141000 0.097000 0.764000
N82 N 0.473200 0.771100 0.573400
N83 N 0.479100 0.952300 0.615900
C84 C 0.380400 1.130400 0.600200
C85 C 0.182900 1.176100 0.502800
C86 C 0.135800 1.048200 0.449100
C87 C 0.199200 0.830800 0.433500
C88 C 0.311900 0.725400 0.471900
C89 C 0.362300 0.845500 0.527700
C90 C 0.301400 1.069100 0.543500
N91 N 0.011700 1.151600 0.406700
O92 O -0.038900 1.351300 0.417400
O93 O -0.036500 1.034900 0.360600
C94 C 0.591100 0.938500 0.670800
C95 C 0.597800 1.118700 0.714300
C96 C 0.707700 1.103000 0.765800
C97 C 0.802400 0.911700 0.772700
C98 C 0.791900 0.731600 0.729800
C99 C 0.685700 0.744100 0.677500
H100 H 0.367000 1.272000 0.624000
H101 H 0.161000 0.754000 0.395000
H102 H 0.528000 1.250000 0.709000
H103 H 0.878000 0.901000 0.808000
H104 H 0.678000 0.621000 0.646000
H105 H 0.137000 1.326000 0.511000
H106 H 0.358000 0.577000 0.462000
H107 H 0.718000 1.227000 0.797000
H108 H 0.859000 0.597000 0.736000

#END
