./LIBZON_from_xyz.cif_generated_by_CrystalShift
_symmetry_cell_setting triclinic
_symmetry_space_group_name_H-M 'P 1'
loop_
_symmetry_equiv_pos_site_id
_symmetry_equiv_pos_as_xyz
1 x,y,z
_cell_length_a 9.348800
_cell_length_b 9.504000
_cell_length_c 13.036000
_cell_angle_alpha 74.370000
_cell_angle_beta 72.819000
_cell_angle_gamma 84.648000
_cell_volume 1065.538428
loop_
_atom_site_label
_atom_site_type_symbol
_atom_site_fract_x
_atom_site_fract_y
_atom_site_fract_z
Cl1 Cl 0.351320 1.102870 0.095890
N2 N 0.155790 0.332740 0.657050
C3 C 0.237700 0.451400 0.452990
H4 H 0.143500 0.474500 0.433000
C5 C 0.277700 0.581600 0.488830
H6 H 0.375100 0.559200 0.504000
C7 C -0.007100 0.477960 0.780350
C8 C 0.165690 0.194650 0.727780
C9 C 0.257500 0.180500 0.547950
C10 C 0.108600 0.471410 0.677030
C11 C 0.225930 0.097460 0.660590
C12 C 0.134400 0.148800 0.842380
H13 H 0.097600 0.213800 0.886400
C14 C 0.328300 0.957600 0.213020
C15 C 0.171700 0.805500 0.376460
H16 H 0.076900 0.782700 0.425300
C17 C 0.294100 0.720110 0.396690
C18 C -0.126300 0.382100 0.827070
H19 H -0.131900 0.308300 0.793900
C20 C 0.164000 0.589900 0.596080
H21 H 0.130400 0.681500 0.606800
C22 C -0.002600 0.586400 0.832190
H23 H 0.075900 0.652000 0.802800
C24 C -0.230900 0.502700 0.973140
C25 C 0.433500 0.760600 0.323410
H26 H 0.517400 0.706600 0.336500
C27 C 0.188200 0.923700 0.284980
H28 H 0.105300 0.979800 0.272200
C29 C 0.248900 -0.049100 0.711600
H30 H 0.287300 -0.115100 0.668600
C31 C 0.355800 0.410300 0.355960
H32 H 0.453700 0.406000 0.368300
H33 H 0.358000 0.484900 0.288100
C34 C 0.452000 0.877800 0.231920
H35 H 0.546800 0.902500 0.183800
C36 C -0.236600 0.394500 0.921900
H37 H -0.315600 0.329400 0.951500
C38 C -0.112300 0.597900 0.926140
H39 H -0.106900 0.671800 0.959300
C40 C 0.214700 -0.094800 0.824430
H41 H 0.228400 -0.192500 0.858300
C42 C 0.322600 0.262600 0.342920
H43 H 0.223500 0.266700 0.332700
H44 H 0.394100 0.244100 0.276800
C45 C 0.159600 0.003300 0.888960
H46 H 0.139000 -0.029700 0.965700
C47 C 0.330000 0.136400 0.442430
H48 H 0.279400 0.052400 0.441300
H49 H 0.433800 0.108800 0.438200
C50 C -0.349400 0.515500 1.077700
H51 H -0.302800 0.513400 1.134600
H52 H -0.417000 0.435300 1.102000
H53 H -0.403900 0.605900 1.063200
C54 C 0.215650 0.320260 0.548580
Cl55 Cl 0.648680 -0.102870 0.904110
N56 N 0.844210 0.667260 0.342950
C57 C 0.762300 0.548600 0.547010
H58 H 0.856500 0.525500 0.567000
C59 C 0.722300 0.418400 0.511170
H60 H 0.624900 0.440800 0.496000
C61 C 1.007100 0.522040 0.219650
C62 C 0.834310 0.805350 0.272220
C63 C 0.742500 0.819500 0.452050
C64 C 0.891400 0.528590 0.322970
C65 C 0.774070 0.902540 0.339410
C66 C 0.865600 0.851200 0.157620
H67 H 0.902400 0.786200 0.113600
C68 C 0.671700 0.042400 0.786980
C69 C 0.828300 0.194500 0.623540
H70 H 0.923100 0.217300 0.574700
C71 C 0.705900 0.279890 0.603310
C72 C 1.126300 0.617900 0.172930
H73 H 1.131900 0.691700 0.206100
C74 C 0.836000 0.410100 0.403920
H75 H 0.869600 0.318500 0.393200
C76 C 1.002600 0.413600 0.167810
H77 H 0.924100 0.348000 0.197200
C78 C 1.230900 0.497300 0.026860
C79 C 0.566500 0.239400 0.676590
H80 H 0.482600 0.293400 0.663500
C81 C 0.811800 0.076300 0.715020
H82 H 0.894700 0.020200 0.727800
C83 C 0.751100 1.049100 0.288400
H84 H 0.712700 1.115100 0.331400
C85 C 0.644200 0.589700 0.644040
H86 H 0.546300 0.594000 0.631700
H87 H 0.642000 0.515100 0.711900
C88 C 0.548000 0.122200 0.768080
H89 H 0.453200 0.097500 0.816200
C90 C 1.236600 0.605500 0.078100
H91 H 1.315600 0.670600 0.048500
C92 C 1.112300 0.402100 0.073860
H93 H 1.106900 0.328200 0.040700
C94 C 0.785300 1.094800 0.175570
H95 H 0.771600 1.192500 0.141700
C96 C 0.677400 0.737400 0.657080
H97 H 0.776500 0.733300 0.667300
H98 H 0.605900 0.755900 0.723200
C99 C 0.840400 0.996700 0.111040
H100 H 0.861000 1.029700 0.034300
C101 C 0.670000 0.863600 0.557570
H102 H 0.720600 0.947600 0.558700
H103 H 0.566200 0.891200 0.561800
C104 C 1.349400 0.484500 -0.077700
H105 H 1.302800 0.486600 -0.134600
H106 H 1.417000 0.564700 -0.102000
H107 H 1.403900 0.394100 -0.063200
C108 C 0.784350 0.679740 0.451420

#END
