./LIBZUS_from_xyz.cif_generated_by_CrystalShift
_symmetry_cell_setting triclinic
_symmetry_space_group_name_H-M 'P 1'
loop_
_symmetry_equiv_pos_site_id
_symmetry_equiv_pos_as_xyz
1 x,y,z
_cell_length_a 7.091300
_cell_length_b 10.543500
_cell_length_c 11.280800
_cell_angle_alpha 79.550000
_cell_angle_beta 86.680000
_cell_angle_gamma 79.737000
_cell_volume 815.886957
loop_
_atom_site_label
_atom_site_type_symbol
_atom_site_fract_x
_atom_site_fract_y
_atom_site_fract_z
O1 O 0.413520 0.759270 0.755400
O2 O 0.092860 0.791220 0.741840
O3 O 0.175520 0.430530 1.299970
O4 O 0.198060 0.890830 0.993060
N5 N 0.242010 0.445460 1.033080
C6 C 0.247950 0.312010 1.073310
H7 H 0.224700 0.280300 1.154300
C8 C 0.287820 0.229180 0.993380
H9 H 0.293200 0.139900 1.020400
C10 C 0.322150 0.275940 0.867590
C11 C 0.365460 0.188350 0.785250
H12 H 0.375200 0.098800 0.812600
C13 C 0.393450 0.235080 0.664050
H14 H 0.422100 0.176700 0.610200
C15 C 0.378900 0.370100 0.621640
H16 H 0.397100 0.400700 0.539900
C17 C 0.337620 0.457790 0.700860
H18 H 0.328500 0.547100 0.672200
C19 C 0.309280 0.412090 0.825200
C20 C 0.266850 0.499180 0.911750
C21 C 0.244430 0.635030 0.903280
C22 C 0.209170 0.662280 1.020690
C23 C 0.182280 0.788860 1.062060
C24 C 0.137890 0.783560 1.193640
C25 C 0.093890 0.900510 1.238920
H26 H 0.089900 0.980100 1.186900
C27 C 0.055990 0.898130 1.361740
H28 H 0.027000 0.976300 1.391400
C29 C 0.061340 0.779180 1.440500
H30 H 0.038100 0.777900 1.522700
C31 C 0.101680 0.662150 1.395660
H32 H 0.103500 0.582900 1.448000
C33 C 0.139250 0.663120 1.272810
C34 C 0.175880 0.534310 1.229670
C35 C 0.207490 0.544740 1.100290
C36 C 0.238220 0.736510 0.792320
C37 C 0.420740 0.860310 0.649700
H38 H 0.332800 0.939500 0.660200
H39 H 0.385500 0.831000 0.578600
C40 C 0.623850 0.885830 0.636360
H41 H 0.636800 0.948900 0.564800
H42 H 0.709800 0.805700 0.630500
H43 H 0.654500 0.919100 0.705300
O44 O 0.586480 0.240730 0.244600
O45 O 0.907140 0.208780 0.258160
O46 O 0.824480 0.569470 -0.299970
O47 O 0.801940 0.109170 0.006940
N48 N 0.757990 0.554540 -0.033080
C49 C 0.752050 0.687990 -0.073310
H50 H 0.775300 0.719700 -0.154300
C51 C 0.712180 0.770820 0.006620
H52 H 0.706800 0.860100 -0.020400
C53 C 0.677850 0.724060 0.132410
C54 C 0.634540 0.811650 0.214750
H55 H 0.624800 0.901200 0.187400
C56 C 0.606550 0.764920 0.335950
H57 H 0.577900 0.823300 0.389800
C58 C 0.621100 0.629900 0.378360
H59 H 0.602900 0.599300 0.460100
C60 C 0.662380 0.542210 0.299140
H61 H 0.671500 0.452900 0.327800
C62 C 0.690720 0.587910 0.174800
C63 C 0.733150 0.500820 0.088250
C64 C 0.755570 0.364970 0.096720
C65 C 0.790830 0.337720 -0.020690
C66 C 0.817720 0.211140 -0.062060
C67 C 0.862110 0.216440 -0.193640
C68 C 0.906110 0.099490 -0.238920
H69 H 0.910100 0.019900 -0.186900
C70 C 0.944010 0.101870 -0.361740
H71 H 0.973000 0.023700 -0.391400
C72 C 0.938660 0.220820 -0.440500
H73 H 0.961900 0.222100 -0.522700
C74 C 0.898320 0.337850 -0.395660
H75 H 0.896500 0.417100 -0.448000
C76 C 0.860750 0.336880 -0.272810
C77 C 0.824120 0.465690 -0.229670
C78 C 0.792510 0.455260 -0.100290
C79 C 0.761780 0.263490 0.207680
C80 C 0.579260 0.139690 0.350300
H81 H 0.667200 0.060500 0.339800
H82 H 0.614500 0.169000 0.421400
C83 C 0.376150 0.114170 0.363640
H84 H 0.363200 0.051100 0.435200
H85 H 0.290200 0.194300 0.369500
H86 H 0.345500 0.080900 0.294700

#END
