
#######################################################################
#
#                 Cambridge Crystallographic Data Centre
#                                CCDC 
#
#######################################################################
#
# If this CIF has been generated from an entry in the Cambridge 
# Structural Database, then it will include bibliographic, chemical, 
# crystal, experimental, refinement or atomic coordinate data resulting 
# from the CCDC's data processing and validation procedures.
#
#######################################################################

data_LIBZON
_symmetry_cell_setting           triclinic
_symmetry_space_group_name_H-M   'P -1'
_symmetry_Int_Tables_number      2
_space_group_name_Hall           '-P 1'
loop_
_symmetry_equiv_pos_site_id
_symmetry_equiv_pos_as_xyz
1 x,y,z
2 -x,-y,-z
_cell_length_a                   9.3488(17)
_cell_length_b                   9.504(3)
_cell_length_c                   13.036(3)
_cell_angle_alpha                74.37(2)
_cell_angle_beta                 72.819(17)
_cell_angle_gamma                84.648(18)
_cell_volume                     1065.54
loop_
_atom_site_label
_atom_site_type_symbol
_atom_site_fract_x
_atom_site_fract_y
_atom_site_fract_z
Cl1 Cl 0.35132(8) 1.10287(6) 0.09589(5)
N1 N 0.15579(15) 0.33274(15) 0.65705(11)
C1 C 0.2377(2) 0.45140(19) 0.45299(14)
H1 H 0.1435 0.4745 0.4330
C2 C 0.2777(2) 0.5816(2) 0.48883(15)
H2 H 0.3751 0.5592 0.5040
C3 C -0.0071(2) 0.47796(19) 0.78035(15)
C4 C 0.16569(19) 0.19465(19) 0.72778(14)
C5 C 0.2575(2) 0.1805(2) 0.54795(15)
C6 C 0.1086(2) 0.47141(19) 0.67703(15)
C7 C 0.22593(19) 0.09746(19) 0.66059(15)
C8 C 0.1344(2) 0.1488(2) 0.84238(15)
H3 H 0.0976 0.2138 0.8864
C9 C 0.3283(2) 0.9576(2) 0.21302(16)
C10 C 0.1717(2) 0.8055(2) 0.37646(16)
H4 H 0.0769 0.7827 0.4253
C11 C 0.2941(2) 0.72011(19) 0.39669(15)
C12 C -0.1263(2) 0.3821(2) 0.82707(16)
H5 H -0.1319 0.3083 0.7939
C13 C 0.1640(2) 0.5899(2) 0.59608(15)
H6 H 0.1304 0.6815 0.6068
C14 C -0.0026(2) 0.5864(2) 0.83219(16)
H7 H 0.0759 0.6520 0.8028
C15 C -0.2309(2) 0.5027(2) 0.97314(16)
C16 C 0.4335(2) 0.7606(2) 0.32341(17)
H8 H 0.5174 0.7066 0.3365
C17 C 0.1882(2) 0.9237(2) 0.28498(17)
H9 H 0.1053 0.9798 0.2722
C18 C 0.2489(2) -0.0491(2) 0.71160(17)
H10 H 0.2873 -0.1151 0.6686
C19 C 0.3558(2) 0.4103(2) 0.35596(16)
H11 H 0.4537 0.4060 0.3683
H12 H 0.3580 0.4849 0.2881
C20 C 0.4520(2) 0.8778(2) 0.23192(18)
H13 H 0.5468 0.9025 0.1838
C21 C -0.2366(2) 0.3945(2) 0.92190(16)
H14 H -0.3156 0.3294 0.9515
C22 C -0.1123(3) 0.5979(2) 0.92614(17)
H15 H -0.1069 0.6718 0.9593
C23 C 0.2147(2) -0.0948(2) 0.82443(18)
H16 H 0.2284 -0.1925 0.8583
C24 C 0.3226(3) 0.2626(2) 0.34292(17)
H17 H 0.2235 0.2667 0.3327
H18 H 0.3941 0.2441 0.2768
C25 C 0.1596(2) 0.0033(2) 0.88896(17)
H19 H 0.1390 -0.0297 0.9657
C26 C 0.3300(3) 0.1364(2) 0.44243(16)
H20 H 0.2794 0.0524 0.4413
H21 H 0.4338 0.1088 0.4382
C27 C -0.3494(3) 0.5155(3) 1.0777(2)
H22 H -0.3028 0.5134 1.1346
H23 H -0.4170 0.4353 1.1020
H24 H -0.4039 0.6059 1.0632
C28 C 0.21565(19) 0.32026(19) 0.54858(14)
Cl1 Cl 0.64868(8) -0.10287(6) 0.90411(5)
N1 N 0.84421(15) 0.66726(15) 0.34295(11)
C1 C 0.7623(2) 0.54860(19) 0.54701(14)
H1 H 0.8565 0.5255 0.5670
C2 C 0.7223(2) 0.4184(2) 0.51117(15)
H2 H 0.6249 0.4408 0.4960
C3 C 1.0071(2) 0.52204(19) 0.21965(15)
C4 C 0.83431(19) 0.80535(19) 0.27222(14)
C5 C 0.7425(2) 0.8195(2) 0.45205(15)
C6 C 0.8914(2) 0.52859(19) 0.32297(15)
C7 C 0.77407(19) 0.90254(19) 0.33941(15)
C8 C 0.8656(2) 0.8512(2) 0.15762(15)
H3 H 0.9024 0.7862 0.1136
C9 C 0.6717(2) 0.0424(2) 0.78698(16)
C10 C 0.8283(2) 0.1945(2) 0.62354(16)
H4 H 0.9231 0.2173 0.5747
C11 C 0.7059(2) 0.27989(19) 0.60331(15)
C12 C 1.1263(2) 0.6179(2) 0.17293(16)
H5 H 1.1319 0.6917 0.2061
C13 C 0.8360(2) 0.4101(2) 0.40392(15)
H6 H 0.8696 0.3185 0.3932
C14 C 1.0026(2) 0.4136(2) 0.16781(16)
H7 H 0.9241 0.3480 0.1972
C15 C 1.2309(2) 0.4973(2) 0.02686(16)
C16 C 0.5665(2) 0.2394(2) 0.67659(17)
H8 H 0.4826 0.2934 0.6635
C17 C 0.8118(2) 0.0763(2) 0.71502(17)
H9 H 0.8947 0.0202 0.7278
C18 C 0.7511(2) 1.0491(2) 0.28840(17)
H10 H 0.7127 1.1151 0.3314
C19 C 0.6442(2) 0.5897(2) 0.64404(16)
H11 H 0.5463 0.5940 0.6317
H12 H 0.6420 0.5151 0.7119
C20 C 0.5480(2) 0.1222(2) 0.76808(18)
H13 H 0.4532 0.0975 0.8162
C21 C 1.2366(2) 0.6055(2) 0.07810(16)
H14 H 1.3156 0.6706 0.0485
C22 C 1.1123(3) 0.4021(2) 0.07386(17)
H15 H 1.1069 0.3282 0.0407
C23 C 0.7853(2) 1.0948(2) 0.17557(18)
H16 H 0.7716 1.1925 0.1417
C24 C 0.6774(3) 0.7374(2) 0.65708(17)
H17 H 0.7765 0.7333 0.6673
H18 H 0.6059 0.7559 0.7232
C25 C 0.8404(2) 0.9967(2) 0.11104(17)
H19 H 0.8610 1.0297 0.0343
C26 C 0.6700(3) 0.8636(2) 0.55757(16)
H20 H 0.7206 0.9476 0.5587
H21 H 0.5662 0.8912 0.5618
C27 C 1.3494(3) 0.4845(3) -0.0777(2)
H22 H 1.3028 0.4866 -0.1346
H23 H 1.4170 0.5647 -0.1020
H24 H 1.4039 0.3941 -0.0632
C28 C 0.78435(19) 0.67974(19) 0.45142(14)

#END
