
#######################################################################
#
#                 Cambridge Crystallographic Data Centre
#                                CCDC 
#
#######################################################################
#
# If this CIF has been generated from an entry in the Cambridge 
# Structural Database, then it will include bibliographic, chemical, 
# crystal, experimental, refinement or atomic coordinate data resulting 
# from the CCDC's data processing and validation procedures.
#
#######################################################################

data_LICFUA
_symmetry_cell_setting           monoclinic
_symmetry_space_group_name_H-M   'P 21/n'
_symmetry_Int_Tables_number      14
_space_group_name_Hall           '-P 2yn'
loop_
_symmetry_equiv_pos_site_id
_symmetry_equiv_pos_as_xyz
1 x,y,z
2 1/2-x,1/2+y,1/2-z
3 -x,-y,-z
4 1/2+x,1/2-y,1/2+z
_cell_length_a                   15.1669(4)
_cell_length_b                   5.76660(10)
_cell_length_c                   23.3671(6)
_cell_angle_alpha                90
_cell_angle_beta                 107.2220(10)
_cell_angle_gamma                90
_cell_volume                     1952.09
loop_
_atom_site_label
_atom_site_type_symbol
_atom_site_fract_x
_atom_site_fract_y
_atom_site_fract_z
C1 C 0.87939(15) 0.4969(4) 0.55486(9)
H1 H 0.8504 0.3828 0.5277
C2 C 0.92414(17) 0.6705(5) 0.53672(9)
H2 H 0.9251 0.6767 0.4971
C3 C 0.96911(17) 0.8410(4) 0.57720(9)
H3 H 0.9999 0.9604 0.5643
C4 C 0.96856(15) 0.8347(4) 0.63576(8)
H4 H 0.9992 0.9495 0.6622
C5 C 0.92205(12) 0.6563(3) 0.65640(7)
C6 C 0.91971(11) 0.6438(3) 0.71713(7)
C7 C 0.87153(11) 0.4657(3) 0.73284(7)
C8 C 0.82311(11) 0.2995(4) 0.69083(8)
H5 H 0.7892 0.1839 0.7025
C9 C 0.82626(12) 0.3091(4) 0.63351(8)
H6 H 0.7952 0.1977 0.6062
C10 C 0.87578(12) 0.4850(4) 0.61466(8)
C11 C 0.96420(12) 0.8269(3) 0.76305(7)
H7 H 0.9461 0.9782 0.7441
C12 C 1.06925(12) 0.8230(3) 0.78562(7)
C13 C 1.12172(12) 0.6442(3) 0.77429(8)
H8 H 1.0928 0.5205 0.7506
C14 C 1.21743(13) 0.6456(4) 0.79779(8)
H9 H 1.2522 0.5236 0.7899
C15 C 1.25969(13) 0.8275(3) 0.83240(7)
C16 C 1.20940(15) 1.0086(4) 0.84424(10)
H10 H 1.2388 1.1325 0.8677
C17 C 1.11459(15) 1.0050(3) 0.82089(9)
H11 H 1.0803 1.1276 0.8290
C18 C 0.92684(11) 0.5805(3) 0.83464(7)
H12 H 0.9893 0.5172 0.8426
C19 C 0.89912(11) 0.5564(3) 0.89114(7)
C20 C 0.92297(12) 0.7262(3) 0.93477(8)
H13 H 0.9549 0.8567 0.9285
C21 C 0.90016(13) 0.7051(3) 0.98761(8)
H14 H 0.9164 0.8205 1.0166
C22 C 0.85332(12) 0.5124(3) 0.99667(7)
C23 C 0.82923(14) 0.3403(3) 0.95435(8)
H15 H 0.7978 0.2096 0.9611
C24 C 0.85202(13) 0.3630(3) 0.90170(8)
H16 H 0.8355 0.2469 0.8729
Cl1 Cl 1.37929(4) 0.83306(12) 0.86213(2)
Cl2 Cl 0.82388(4) 0.48239(11) 1.06278(2)
N1 N 0.92860(11) 0.8145(3) 0.81541(6)
O1 O 0.86479(8) 0.4352(2) 0.78970(5)
H17 H 0.8723(14) 0.876(4) 0.8076(9)
C1 C 0.62061(15) -0.0031(4) 0.94514(9)
H1 H 0.6496 -0.1172 0.9723
C2 C 0.57586(17) 0.1705(5) 0.96328(9)
H2 H 0.5749 0.1767 1.0029
C3 C 0.53089(17) 0.3410(4) 0.92280(9)
H3 H 0.5001 0.4604 0.9357
C4 C 0.53144(15) 0.3347(4) 0.86424(8)
H4 H 0.5008 0.4495 0.8378
C5 C 0.57795(12) 0.1563(3) 0.84360(7)
C6 C 0.58029(11) 0.1438(3) 0.78287(7)
C7 C 0.62847(11) -0.0343(3) 0.76716(7)
C8 C 0.67689(11) -0.2005(4) 0.80917(8)
H5 H 0.7108 -0.3161 0.7975
C9 C 0.67374(12) -0.1909(4) 0.86649(8)
H6 H 0.7048 -0.3023 0.8938
C10 C 0.62422(12) -0.0150(4) 0.88534(8)
C11 C 0.53580(12) 0.3269(3) 0.73695(7)
H7 H 0.5539 0.4782 0.7559
C12 C 0.43075(12) 0.3230(3) 0.71438(7)
C13 C 0.37828(12) 0.1442(3) 0.72571(8)
H8 H 0.4072 0.0205 0.7494
C14 C 0.28257(13) 0.1456(4) 0.70221(8)
H9 H 0.2478 0.0236 0.7101
C15 C 0.24031(13) 0.3275(3) 0.66760(7)
C16 C 0.29060(15) 0.5086(4) 0.65576(10)
H10 H 0.2612 0.6325 0.6323
C17 C 0.38541(15) 0.5050(3) 0.67911(9)
H11 H 0.4197 0.6276 0.6710
C18 C 0.57316(11) 0.0805(3) 0.66536(7)
H12 H 0.5107 0.0172 0.6574
C19 C 0.60088(11) 0.0564(3) 0.60886(7)
C20 C 0.57703(12) 0.2262(3) 0.56523(8)
H13 H 0.5451 0.3567 0.5715
C21 C 0.59984(13) 0.2051(3) 0.51239(8)
H14 H 0.5836 0.3205 0.4834
C22 C 0.64668(12) 0.0124(3) 0.50333(7)
C23 C 0.67077(14) -0.1597(3) 0.54565(8)
H15 H 0.7022 -0.2904 0.5389
C24 C 0.64798(13) -0.1370(3) 0.59830(8)
H16 H 0.6645 -0.2531 0.6271
Cl1 Cl 0.12071(4) 0.33306(12) 0.63787(2)
Cl2 Cl 0.67612(4) -0.01761(11) 0.43722(2)
N1 N 0.57140(11) 0.3145(3) 0.68459(6)
O1 O 0.63521(8) -0.0648(2) 0.71030(5)
H17 H 0.6277(14) 0.376(4) 0.6924(9)
C1 C 0.12061(15) 0.5031(4) 0.44514(9)
H1 H 0.1496 0.6172 0.4723
C2 C 0.07586(17) 0.3295(5) 0.46328(9)
H2 H 0.0749 0.3233 0.5029
C3 C 0.03089(17) 0.1590(4) 0.42280(9)
H3 H 0.0001 0.0396 0.4357
C4 C 0.03144(15) 0.1653(4) 0.36424(8)
H4 H 0.0008 0.0505 0.3378
C5 C 0.07795(12) 0.3437(3) 0.34360(7)
C6 C 0.08029(11) 0.3562(3) 0.28287(7)
C7 C 0.12847(11) 0.5343(3) 0.26716(7)
C8 C 0.17689(11) 0.7005(4) 0.30917(8)
H5 H 0.2108 0.8161 0.2975
C9 C 0.17374(12) 0.6909(4) 0.36649(8)
H6 H 0.2048 0.8023 0.3938
C10 C 0.12422(12) 0.5150(4) 0.38534(8)
C11 C 0.03580(12) 0.1731(3) 0.23695(7)
H7 H 0.0539 0.0218 0.2559
C12 C -0.06925(12) 0.1770(3) 0.21438(7)
C13 C -0.12172(12) 0.3558(3) 0.22571(8)
H8 H -0.0928 0.4795 0.2494
C14 C -0.21743(13) 0.3544(4) 0.20221(8)
H9 H -0.2522 0.4764 0.2101
C15 C -0.25969(13) 0.1725(3) 0.16760(7)
C16 C -0.20940(15) -0.0086(4) 0.15576(10)
H10 H -0.2388 -0.1325 0.1323
C17 C -0.11459(15) -0.0050(3) 0.17911(9)
H11 H -0.0803 -0.1276 0.1710
C18 C 0.07316(11) 0.4195(3) 0.16536(7)
H12 H 0.0107 0.4828 0.1574
C19 C 0.10088(11) 0.4436(3) 0.10886(7)
C20 C 0.07703(12) 0.2738(3) 0.06523(8)
H13 H 0.0451 0.1433 0.0715
C21 C 0.09984(13) 0.2949(3) 0.01239(8)
H14 H 0.0836 0.1795 -0.0166
C22 C 0.14668(12) 0.4876(3) 0.00333(7)
C23 C 0.17077(14) 0.6597(3) 0.04565(8)
H15 H 0.2022 0.7904 0.0389
C24 C 0.14798(13) 0.6370(3) 0.09830(8)
H16 H 0.1645 0.7531 0.1271
Cl1 Cl -0.37929(4) 0.16694(12) 0.13787(2)
Cl2 Cl 0.17612(4) 0.51761(11) -0.06278(2)
N1 N 0.07140(11) 0.1855(3) 0.18459(6)
O1 O 0.13521(8) 0.5648(2) 0.21030(5)
H17 H 0.1277(14) 0.124(4) 0.1924(9)
C1 C 0.37939(15) 1.0031(4) 0.05486(9)
H1 H 0.3504 1.1172 0.0277
C2 C 0.42414(17) 0.8295(5) 0.03672(9)
H2 H 0.4251 0.8233 -0.0029
C3 C 0.46911(17) 0.6590(4) 0.07720(9)
H3 H 0.4999 0.5396 0.0643
C4 C 0.46856(15) 0.6653(4) 0.13576(8)
H4 H 0.4992 0.5505 0.1622
C5 C 0.42205(12) 0.8437(3) 0.15640(7)
C6 C 0.41971(11) 0.8562(3) 0.21713(7)
C7 C 0.37153(11) 1.0343(3) 0.23284(7)
C8 C 0.32311(11) 1.2005(4) 0.19083(8)
H5 H 0.2892 1.3161 0.2025
C9 C 0.32626(12) 1.1909(4) 0.13351(8)
H6 H 0.2952 1.3023 0.1062
C10 C 0.37578(12) 1.0150(4) 0.11466(8)
C11 C 0.46420(12) 0.6731(3) 0.26305(7)
H7 H 0.4461 0.5218 0.2441
C12 C 0.56925(12) 0.6770(3) 0.28562(7)
C13 C 0.62172(12) 0.8558(3) 0.27429(8)
H8 H 0.5928 0.9795 0.2506
C14 C 0.71743(13) 0.8544(4) 0.29779(8)
H9 H 0.7522 0.9764 0.2899
C15 C 0.75969(13) 0.6725(3) 0.33240(7)
C16 C 0.70940(15) 0.4914(4) 0.34424(10)
H10 H 0.7388 0.3675 0.3677
C17 C 0.61459(15) 0.4950(3) 0.32089(9)
H11 H 0.5803 0.3724 0.3290
C18 C 0.42684(11) 0.9195(3) 0.33464(7)
H12 H 0.4893 0.9828 0.3426
C19 C 0.39912(11) 0.9436(3) 0.39114(7)
C20 C 0.42297(12) 0.7738(3) 0.43477(8)
H13 H 0.4549 0.6433 0.4285
C21 C 0.40016(13) 0.7949(3) 0.48761(8)
H14 H 0.4164 0.6795 0.5166
C22 C 0.35332(12) 0.9876(3) 0.49667(7)
C23 C 0.32923(14) 1.1597(3) 0.45435(8)
H15 H 0.2978 1.2904 0.4611
C24 C 0.35202(13) 1.1370(3) 0.40170(8)
H16 H 0.3355 1.2531 0.3729
Cl1 Cl 0.87929(4) 0.66694(12) 0.36213(2)
Cl2 Cl 0.32388(4) 1.01761(11) 0.56278(2)
N1 N 0.42860(11) 0.6855(3) 0.31541(6)
O1 O 0.36479(8) 1.0648(2) 0.28970(5)
H17 H 0.3723(14) 0.624(4) 0.3076(9)

#END
