
#######################################################################
#
#                 Cambridge Crystallographic Data Centre
#                                CCDC 
#
#######################################################################
#
# If this CIF has been generated from an entry in the Cambridge 
# Structural Database, then it will include bibliographic, chemical, 
# crystal, experimental, refinement or atomic coordinate data resulting 
# from the CCDC's data processing and validation procedures.
#
#######################################################################

data_LICGAH
_symmetry_cell_setting           monoclinic
_symmetry_space_group_name_H-M   'P 21/n'
_symmetry_Int_Tables_number      14
_space_group_name_Hall           '-P 2yn'
loop_
_symmetry_equiv_pos_site_id
_symmetry_equiv_pos_as_xyz
1 x,y,z
2 1/2-x,1/2+y,1/2-z
3 -x,-y,-z
4 1/2+x,1/2-y,1/2+z
_cell_length_a                   14.1011(16)
_cell_length_b                   5.7216(4)
_cell_length_c                   22.252(2)
_cell_angle_alpha                90
_cell_angle_beta                 104.247(3)
_cell_angle_gamma                90
_cell_volume                     1740.09
loop_
_atom_site_label
_atom_site_type_symbol
_atom_site_fract_x
_atom_site_fract_y
_atom_site_fract_z
C1 C 0.0962(2) 0.5112(6) 0.43278(14)
H1 H 0.1266 0.3992 0.4614
C2 C 0.0451(2) 0.6875(6) 0.45097(14)
H2 H 0.0415 0.6969 0.4921
C3 C -0.0016(2) 0.8533(5) 0.40861(14)
H3 H -0.0364 0.9733 0.4215
C4 C 0.00282(19) 0.8427(5) 0.34814(12)
H4 H -0.0294 0.9553 0.3204
C5 C 0.05537(18) 0.6643(4) 0.32685(12)
C6 C 0.06128(17) 0.6495(4) 0.26385(11)
C7 C 0.11553(18) 0.4720(4) 0.24780(12)
C8 C 0.16565(18) 0.3073(4) 0.29115(14)
H5 H 0.2030 0.1908 0.2790
C9 C 0.1589(2) 0.3204(5) 0.35085(14)
H6 H 0.1916 0.2107 0.3794
C10 C 0.10360(19) 0.4966(5) 0.37056(13)
C11 C 0.01423(18) 0.8289(4) 0.21608(11)
H7 H 0.0307 0.9828 0.2351
C12 C -0.09660(18) 0.8172(4) 0.19506(10)
C13 C -0.15142(18) 0.6334(4) 0.20890(12)
H8 H -0.1198 0.5082 0.2321
C14 C -0.2521(2) 0.6325(5) 0.18892(13)
H9 H -0.2875 0.5073 0.1988
C15 C -0.3004(2) 0.8147(5) 0.15464(12)
H10 H -0.3683 0.8144 0.1414
C16 C -0.2470(2) 0.9980(5) 0.14007(13)
H11 H -0.2788 1.1220 0.1164
C17 C -0.1468(2) 0.9983(4) 0.16037(12)
H12 H -0.1118 1.1242 0.1504
C18 C 0.06416(19) 0.5864(4) 0.14132(11)
H13 H -0.0015 0.5173 0.1311
C19 C 0.10369(18) 0.5705(4) 0.08450(12)
C20 C 0.0865(2) 0.7489(5) 0.04167(12)
H14 H 0.0512 0.8792 0.0485
C21 C 0.1208(2) 0.7378(5) -0.01139(13)
H15 H 0.1087 0.8604 -0.0397
C22 C 0.1726(2) 0.5463(5) -0.02239(14)
H16 H 0.1962 0.5384 -0.0579
C23 C 0.1891(2) 0.3672(5) 0.01955(15)
H17 H 0.2233 0.2357 0.0121
C24 C 0.1555(2) 0.3789(4) 0.07296(13)
H18 H 0.1681 0.2563 0.1013
N1 N 0.05562(17) 0.8195(3) 0.16120(10)
O1 O 0.12672(12) 0.4393(3) 0.18853(8)
H19 H 0.117(2) 0.886(4) 0.1709(12)
C1 C 0.4038(2) 0.0112(6) 0.06722(14)
H1 H 0.3734 -0.1008 0.0386
C2 C 0.4549(2) 0.1875(6) 0.04903(14)
H2 H 0.4585 0.1969 0.0079
C3 C 0.5016(2) 0.3533(5) 0.09139(14)
H3 H 0.5364 0.4733 0.0785
C4 C 0.49718(19) 0.3427(5) 0.15186(12)
H4 H 0.5294 0.4553 0.1796
C5 C 0.44463(18) 0.1643(4) 0.17315(12)
C6 C 0.43872(17) 0.1495(4) 0.23615(11)
C7 C 0.38447(18) -0.0280(4) 0.25220(12)
C8 C 0.33435(18) -0.1927(4) 0.20885(14)
H5 H 0.2970 -0.3092 0.2210
C9 C 0.3411(2) -0.1796(5) 0.14915(14)
H6 H 0.3084 -0.2893 0.1206
C10 C 0.39640(19) -0.0034(5) 0.12944(13)
C11 C 0.48577(18) 0.3289(4) 0.28392(11)
H7 H 0.4693 0.4828 0.2649
C12 C 0.59660(18) 0.3172(4) 0.30494(10)
C13 C 0.65142(18) 0.1334(4) 0.29110(12)
H8 H 0.6198 0.0082 0.2679
C14 C 0.7521(2) 0.1325(5) 0.31108(13)
H9 H 0.7875 0.0073 0.3012
C15 C 0.8004(2) 0.3147(5) 0.34536(12)
H10 H 0.8683 0.3144 0.3586
C16 C 0.7470(2) 0.4980(5) 0.35993(13)
H11 H 0.7788 0.6220 0.3836
C17 C 0.6468(2) 0.4983(4) 0.33963(12)
H12 H 0.6118 0.6242 0.3496
C18 C 0.43584(19) 0.0864(4) 0.35868(11)
H13 H 0.5015 0.0173 0.3689
C19 C 0.39631(18) 0.0705(4) 0.41550(12)
C20 C 0.4135(2) 0.2489(5) 0.45833(12)
H14 H 0.4488 0.3792 0.4515
C21 C 0.3792(2) 0.2378(5) 0.51139(13)
H15 H 0.3913 0.3604 0.5397
C22 C 0.3274(2) 0.0463(5) 0.52239(14)
H16 H 0.3038 0.0384 0.5579
C23 C 0.3109(2) -0.1328(5) 0.48045(15)
H17 H 0.2767 -0.2643 0.4879
C24 C 0.3445(2) -0.1211(4) 0.42704(13)
H18 H 0.3319 -0.2437 0.3987
N1 N 0.44438(17) 0.3195(3) 0.33880(10)
O1 O 0.37328(12) -0.0607(3) 0.31147(8)
H19 H 0.383(2) 0.386(4) 0.3291(12)
C1 C 0.9038(2) 0.4888(6) 0.56722(14)
H1 H 0.8734 0.6008 0.5386
C2 C 0.9549(2) 0.3125(6) 0.54903(14)
H2 H 0.9585 0.3031 0.5079
C3 C 1.0016(2) 0.1467(5) 0.59139(14)
H3 H 1.0364 0.0267 0.5785
C4 C 0.99718(19) 0.1573(5) 0.65186(12)
H4 H 1.0294 0.0447 0.6796
C5 C 0.94463(18) 0.3357(4) 0.67315(12)
C6 C 0.93872(17) 0.3505(4) 0.73615(11)
C7 C 0.88447(18) 0.5280(4) 0.75220(12)
C8 C 0.83435(18) 0.6927(4) 0.70885(14)
H5 H 0.7970 0.8092 0.7210
C9 C 0.8411(2) 0.6796(5) 0.64915(14)
H6 H 0.8084 0.7893 0.6206
C10 C 0.89640(19) 0.5034(5) 0.62944(13)
C11 C 0.98577(18) 0.1711(4) 0.78392(11)
H7 H 0.9693 0.0172 0.7649
C12 C 1.09660(18) 0.1828(4) 0.80494(10)
C13 C 1.15142(18) 0.3666(4) 0.79110(12)
H8 H 1.1198 0.4918 0.7679
C14 C 1.2521(2) 0.3675(5) 0.81108(13)
H9 H 1.2875 0.4927 0.8012
C15 C 1.3004(2) 0.1853(5) 0.84536(12)
H10 H 1.3683 0.1856 0.8586
C16 C 1.2470(2) 0.0020(5) 0.85993(13)
H11 H 1.2788 -0.1220 0.8836
C17 C 1.1468(2) 0.0017(4) 0.83963(12)
H12 H 1.1118 -0.1242 0.8496
C18 C 0.93584(19) 0.4136(4) 0.85868(11)
H13 H 1.0015 0.4827 0.8689
C19 C 0.89631(18) 0.4295(4) 0.91550(12)
C20 C 0.9135(2) 0.2511(5) 0.95833(12)
H14 H 0.9488 0.1208 0.9515
C21 C 0.8792(2) 0.2622(5) 1.01139(13)
H15 H 0.8913 0.1396 1.0397
C22 C 0.8274(2) 0.4537(5) 1.02239(14)
H16 H 0.8038 0.4616 1.0579
C23 C 0.8109(2) 0.6328(5) 0.98045(15)
H17 H 0.7767 0.7643 0.9879
C24 C 0.8445(2) 0.6211(4) 0.92704(13)
H18 H 0.8319 0.7437 0.8987
N1 N 0.94438(17) 0.1805(3) 0.83880(10)
O1 O 0.87328(12) 0.5607(3) 0.81147(8)
H19 H 0.883(2) 0.114(4) 0.8291(12)
C1 C 0.5962(2) 0.9888(6) 0.93278(14)
H1 H 0.6266 1.1008 0.9614
C2 C 0.5451(2) 0.8125(6) 0.95097(14)
H2 H 0.5415 0.8031 0.9921
C3 C 0.4984(2) 0.6467(5) 0.90861(14)
H3 H 0.4636 0.5267 0.9215
C4 C 0.50282(19) 0.6573(5) 0.84814(12)
H4 H 0.4706 0.5447 0.8204
C5 C 0.55537(18) 0.8357(4) 0.82685(12)
C6 C 0.56128(17) 0.8505(4) 0.76385(11)
C7 C 0.61553(18) 1.0280(4) 0.74780(12)
C8 C 0.66565(18) 1.1927(4) 0.79115(14)
H5 H 0.7030 1.3092 0.7790
C9 C 0.6589(2) 1.1796(5) 0.85085(14)
H6 H 0.6916 1.2893 0.8794
C10 C 0.60360(19) 1.0034(5) 0.87056(13)
C11 C 0.51423(18) 0.6711(4) 0.71608(11)
H7 H 0.5307 0.5172 0.7351
C12 C 0.40340(18) 0.6828(4) 0.69506(10)
C13 C 0.34858(18) 0.8666(4) 0.70890(12)
H8 H 0.3802 0.9918 0.7321
C14 C 0.2479(2) 0.8675(5) 0.68892(13)
H9 H 0.2125 0.9927 0.6988
C15 C 0.1996(2) 0.6853(5) 0.65464(12)
H10 H 0.1317 0.6856 0.6414
C16 C 0.2530(2) 0.5020(5) 0.64007(13)
H11 H 0.2212 0.3780 0.6164
C17 C 0.3532(2) 0.5017(4) 0.66037(12)
H12 H 0.3882 0.3758 0.6504
C18 C 0.56416(19) 0.9136(4) 0.64132(11)
H13 H 0.4985 0.9827 0.6311
C19 C 0.60369(18) 0.9295(4) 0.58450(12)
C20 C 0.5865(2) 0.7511(5) 0.54167(12)
H14 H 0.5512 0.6208 0.5485
C21 C 0.6208(2) 0.7622(5) 0.48861(13)
H15 H 0.6087 0.6396 0.4603
C22 C 0.6726(2) 0.9537(5) 0.47761(14)
H16 H 0.6962 0.9616 0.4421
C23 C 0.6891(2) 1.1328(5) 0.51955(15)
H17 H 0.7233 1.2643 0.5121
C24 C 0.6555(2) 1.1211(4) 0.57296(13)
H18 H 0.6681 1.2437 0.6013
N1 N 0.55562(17) 0.6805(3) 0.66120(10)
O1 O 0.62672(12) 1.0607(3) 0.68853(8)
H19 H 0.617(2) 0.614(4) 0.6709(12)

#END
