
#######################################################################
#
#                 Cambridge Crystallographic Data Centre
#                                CCDC 
#
#######################################################################
#
# If this CIF has been generated from an entry in the Cambridge 
# Structural Database, then it will include bibliographic, chemical, 
# crystal, experimental, refinement or atomic coordinate data resulting 
# from the CCDC's data processing and validation procedures.
#
#######################################################################

data_LICGOU
_symmetry_cell_setting           monoclinic
_symmetry_space_group_name_H-M   'P 21/c'
_symmetry_Int_Tables_number      14
_space_group_name_Hall           '-P 2ybc'
loop_
_symmetry_equiv_pos_site_id
_symmetry_equiv_pos_as_xyz
1 x,y,z
2 -x,1/2+y,1/2-z
3 -x,-y,-z
4 x,1/2-y,1/2+z
_cell_length_a                   12.4717(15)
_cell_length_b                   5.0859(6)
_cell_length_c                   21.0412(19)
_cell_angle_alpha                90
_cell_angle_beta                 105.243(11)
_cell_angle_gamma                90
_cell_volume                     1287.69
loop_
_atom_site_label
_atom_site_type_symbol
_atom_site_fract_x
_atom_site_fract_y
_atom_site_fract_z
O1 O 0.24912(17) 0.2411(5) 0.38375(9)
O2 O 0.38796(16) 0.6564(4) 0.33248(9)
N1 N 0.43911(19) 0.3634(5) 0.53577(11)
C1 C 0.4187(2) 0.3323(6) 0.47038(13)
C2 C 0.4800(2) 0.4702(6) 0.43447(13)
C3 C 0.3288(2) 0.1373(6) 0.43972(15)
C4 C 0.1767(2) 0.4313(7) 0.39368(16)
C5 C 0.1587(3) 0.4969(8) 0.45317(18)
C6 C 0.0810(3) 0.6900(10) 0.4551(2)
C7 C 0.0233(3) 0.8153(10) 0.3990(3)
C8 C 0.0426(3) 0.7495(11) 0.3407(3)
C9 C 0.1182(3) 0.5581(9) 0.33766(19)
C10 C 0.4600(2) 0.4438(6) 0.36122(13)
C11 C 0.3477(2) 0.6565(6) 0.26473(13)
C12 C 0.2707(2) 0.8476(7) 0.23885(15)
C13 C 0.2266(3) 0.8649(7) 0.17147(16)
C14 C 0.2601(3) 0.6912(7) 0.13012(15)
C15 C 0.3365(2) 0.5004(7) 0.15599(14)
C16 C 0.3819(2) 0.4810(6) 0.22364(14)
H1 H 0.36310 -0.01950 0.42640
H2 H 0.29060 0.08330 0.47280
H3 H 0.19840 0.41260 0.49200
H4 H 0.06780 0.73540 0.49570
H5 H -0.02910 0.94570 0.40100
H6 H 0.00370 0.83590 0.30200
H7 H 0.13020 0.51290 0.29680
H8 H 0.53030 0.45500 0.34880
H9 H 0.42500 0.27440 0.34620
H10 H 0.24800 0.96650 0.26700
H11 H 0.17370 0.99520 0.15380
H12 H 0.23050 0.70390 0.08430
H13 H 0.35840 0.38100 0.12770
H14 H 0.43500 0.35100 0.24120
O1B O 0.75088(17) 0.7589(5) 0.61625(9)
O2B O 0.61204(16) 0.3436(4) 0.66752(9)
N1B N 0.56089(19) 0.6366(5) 0.46423(11)
C1B C 0.5813(2) 0.6677(6) 0.52962(13)
C2B C 0.5200(2) 0.5298(6) 0.56553(13)
C3B C 0.6712(2) 0.8627(6) 0.56028(15)
C4B C 0.8233(2) 0.5687(7) 0.60632(16)
C5B C 0.8413(3) 0.5031(8) 0.54683(18)
C6B C 0.9190(3) 0.3100(10) 0.5449(2)
C7B C 0.9767(3) 0.1847(10) 0.6010(3)
C8B C 0.9574(3) 0.2505(11) 0.6593(3)
C9B C 0.8818(3) 0.4419(9) 0.66234(19)
C10B C 0.5400(2) 0.5562(6) 0.63878(13)
C11B C 0.6523(2) 0.3435(6) 0.73527(13)
C12B C 0.7293(2) 0.1524(7) 0.76115(15)
C13B C 0.7734(3) 0.1351(7) 0.82853(16)
C14B C 0.7399(3) 0.3088(7) 0.86988(15)
C15B C 0.6635(2) 0.4996(7) 0.84401(14)
C16B C 0.6181(2) 0.5190(6) 0.77636(14)
H1B H 0.63690 1.01950 0.57360
H2B H 0.70940 0.91670 0.52720
H3B H 0.80160 0.58740 0.50800
H4B H 0.93220 0.26460 0.50430
H5B H 1.02910 0.05430 0.59900
H6B H 0.99630 0.16410 0.69800
H7B H 0.86980 0.48710 0.70320
H8B H 0.46970 0.54500 0.65120
H9B H 0.57500 0.72560 0.65380
H10B H 0.75200 0.03350 0.73300
H11B H 0.82630 0.00480 0.84620
H12B H 0.76950 0.29610 0.91570
H13B H 0.64160 0.61900 0.87230
H14B H 0.56500 0.64900 0.75880
O1 O 0.75088(17) -0.2589(5) 0.11625(9)
O2 O 0.61204(16) 0.1564(4) 0.16752(9)
N1 N 0.56089(19) -0.1366(5) -0.03577(11)
C1 C 0.5813(2) -0.1677(6) 0.02962(13)
C2 C 0.5200(2) -0.0298(6) 0.06553(13)
C3 C 0.6712(2) -0.3627(6) 0.06028(15)
C4 C 0.8233(2) -0.0687(7) 0.10632(16)
C5 C 0.8413(3) -0.0031(8) 0.04683(18)
C6 C 0.9190(3) 0.1900(10) 0.0449(2)
C7 C 0.9767(3) 0.3153(10) 0.1010(3)
C8 C 0.9574(3) 0.2495(11) 0.1593(3)
C9 C 0.8818(3) 0.0581(9) 0.16234(19)
C10 C 0.5400(2) -0.0562(6) 0.13878(13)
C11 C 0.6523(2) 0.1565(6) 0.23527(13)
C12 C 0.7293(2) 0.3476(7) 0.26115(15)
C13 C 0.7734(3) 0.3649(7) 0.32853(16)
C14 C 0.7399(3) 0.1912(7) 0.36988(15)
C15 C 0.6635(2) 0.0004(7) 0.34401(14)
C16 C 0.6181(2) -0.0190(6) 0.27636(14)
H1 H 0.63690 -0.51950 0.07360
H2 H 0.70940 -0.41670 0.02720
H3 H 0.80160 -0.08740 0.00800
H4 H 0.93220 0.23540 0.00430
H5 H 1.02910 0.44570 0.09900
H6 H 0.99630 0.33590 0.19800
H7 H 0.86980 0.01290 0.20320
H8 H 0.46970 -0.04500 0.15120
H9 H 0.57500 -0.22560 0.15380
H10 H 0.75200 0.46650 0.23300
H11 H 0.82630 0.49520 0.34620
H12 H 0.76950 0.20390 0.41570
H13 H 0.64160 -0.11900 0.37230
H14 H 0.56500 -0.14900 0.25880
O1B O 0.24912(17) 0.2589(5) -0.11625(9)
O2B O 0.38796(16) -0.1564(4) -0.16752(9)
N1B N 0.43911(19) 0.1366(5) 0.03577(11)
C1B C 0.4187(2) 0.1677(6) -0.02962(13)
C2B C 0.4800(2) 0.0298(6) -0.06553(13)
C3B C 0.3288(2) 0.3627(6) -0.06028(15)
C4B C 0.1767(2) 0.0687(7) -0.10632(16)
C5B C 0.1587(3) 0.0031(8) -0.04683(18)
C6B C 0.0810(3) -0.1900(10) -0.0449(2)
C7B C 0.0233(3) -0.3153(10) -0.1010(3)
C8B C 0.0426(3) -0.2495(11) -0.1593(3)
C9B C 0.1182(3) -0.0581(9) -0.16234(19)
C10B C 0.4600(2) 0.0562(6) -0.13878(13)
C11B C 0.3477(2) -0.1565(6) -0.23527(13)
C12B C 0.2707(2) -0.3476(7) -0.26115(15)
C13B C 0.2266(3) -0.3649(7) -0.32853(16)
C14B C 0.2601(3) -0.1912(7) -0.36988(15)
C15B C 0.3365(2) -0.0004(7) -0.34401(14)
C16B C 0.3819(2) 0.0190(6) -0.27636(14)
H1B H 0.36310 0.51950 -0.07360
H2B H 0.29060 0.41670 -0.02720
H3B H 0.19840 0.08740 -0.00800
H4B H 0.06780 -0.23540 -0.00430
H5B H -0.02910 -0.44570 -0.09900
H6B H 0.00370 -0.33590 -0.19800
H7B H 0.13020 -0.01290 -0.20320
H8B H 0.53030 0.04500 -0.15120
H9B H 0.42500 0.22560 -0.15380
H10B H 0.24800 -0.46650 -0.23300
H11B H 0.17370 -0.49520 -0.34620
H12B H 0.23050 -0.20390 -0.41570
H13B H 0.35840 0.11900 -0.37230
H14B H 0.43500 0.14900 -0.25880
O1 O 0.75088(17) -0.2589(5) 1.11625(9)
O2 O 0.61204(16) 0.1564(4) 1.16752(9)
N1 N 0.56089(19) -0.1366(5) 0.96423(11)
C1 C 0.5813(2) -0.1677(6) 1.02962(13)
C2 C 0.5200(2) -0.0298(6) 1.06553(13)
C3 C 0.6712(2) -0.3627(6) 1.06028(15)
C4 C 0.8233(2) -0.0687(7) 1.10632(16)
C5 C 0.8413(3) -0.0031(8) 1.04683(18)
C6 C 0.9190(3) 0.1900(10) 1.0449(2)
C7 C 0.9767(3) 0.3153(10) 1.1010(3)
C8 C 0.9574(3) 0.2495(11) 1.1593(3)
C9 C 0.8818(3) 0.0581(9) 1.16234(19)
C10 C 0.5400(2) -0.0562(6) 1.13878(13)
C11 C 0.6523(2) 0.1565(6) 1.23527(13)
C12 C 0.7293(2) 0.3476(7) 1.26115(15)
C13 C 0.7734(3) 0.3649(7) 1.32853(16)
C14 C 0.7399(3) 0.1912(7) 1.36988(15)
C15 C 0.6635(2) 0.0004(7) 1.34401(14)
C16 C 0.6181(2) -0.0190(6) 1.27636(14)
H1 H 0.63690 -0.51950 1.07360
H2 H 0.70940 -0.41670 1.02720
H3 H 0.80160 -0.08740 1.00800
H4 H 0.93220 0.23540 1.00430
H5 H 1.02910 0.44570 1.09900
H6 H 0.99630 0.33590 1.19800
H7 H 0.86980 0.01290 1.20320
H8 H 0.46970 -0.04500 1.15120
H9 H 0.57500 -0.22560 1.15380
H10 H 0.75200 0.46650 1.23300
H11 H 0.82630 0.49520 1.34620
H12 H 0.76950 0.20390 1.41570
H13 H 0.64160 -0.11900 1.37230
H14 H 0.56500 -0.14900 1.25880
O1B O 0.24912(17) 0.2589(5) 0.88375(9)
O2B O 0.38796(16) -0.1564(4) 0.83248(9)
N1B N 0.43911(19) 0.1366(5) 1.03577(11)
C1B C 0.4187(2) 0.1677(6) 0.97038(13)
C2B C 0.4800(2) 0.0298(6) 0.93447(13)
C3B C 0.3288(2) 0.3627(6) 0.93972(15)
C4B C 0.1767(2) 0.0687(7) 0.89368(16)
C5B C 0.1587(3) 0.0031(8) 0.95317(18)
C6B C 0.0810(3) -0.1900(10) 0.9551(2)
C7B C 0.0233(3) -0.3153(10) 0.8990(3)
C8B C 0.0426(3) -0.2495(11) 0.8407(3)
C9B C 0.1182(3) -0.0581(9) 0.83766(19)
C10B C 0.4600(2) 0.0562(6) 0.86122(13)
C11B C 0.3477(2) -0.1565(6) 0.76473(13)
C12B C 0.2707(2) -0.3476(7) 0.73885(15)
C13B C 0.2266(3) -0.3649(7) 0.67147(16)
C14B C 0.2601(3) -0.1912(7) 0.63012(15)
C15B C 0.3365(2) -0.0004(7) 0.65599(14)
C16B C 0.3819(2) 0.0190(6) 0.72364(14)
H1B H 0.36310 0.51950 0.92640
H2B H 0.29060 0.41670 0.97280
H3B H 0.19840 0.08740 0.99200
H4B H 0.06780 -0.23540 0.99570
H5B H -0.02910 -0.44570 0.90100
H6B H 0.00370 -0.33590 0.80200
H7B H 0.13020 -0.01290 0.79680
H8B H 0.53030 0.04500 0.84880
H9B H 0.42500 0.22560 0.84620
H10B H 0.24800 -0.46650 0.76700
H11B H 0.17370 -0.49520 0.65380
H12B H 0.23050 -0.20390 0.58430
H13B H 0.35840 0.11900 0.62770
H14B H 0.43500 0.14900 0.74120
O1 O 0.75088(17) 0.7411(5) 0.11625(9)
O2 O 0.61204(16) 1.1564(4) 0.16752(9)
N1 N 0.56089(19) 0.8634(5) -0.03577(11)
C1 C 0.5813(2) 0.8323(6) 0.02962(13)
C2 C 0.5200(2) 0.9702(6) 0.06553(13)
C3 C 0.6712(2) 0.6373(6) 0.06028(15)
C4 C 0.8233(2) 0.9313(7) 0.10632(16)
C5 C 0.8413(3) 0.9969(8) 0.04683(18)
C6 C 0.9190(3) 1.1900(10) 0.0449(2)
C7 C 0.9767(3) 1.3153(10) 0.1010(3)
C8 C 0.9574(3) 1.2495(11) 0.1593(3)
C9 C 0.8818(3) 1.0581(9) 0.16234(19)
C10 C 0.5400(2) 0.9438(6) 0.13878(13)
C11 C 0.6523(2) 1.1565(6) 0.23527(13)
C12 C 0.7293(2) 1.3476(7) 0.26115(15)
C13 C 0.7734(3) 1.3649(7) 0.32853(16)
C14 C 0.7399(3) 1.1912(7) 0.36988(15)
C15 C 0.6635(2) 1.0004(7) 0.34401(14)
C16 C 0.6181(2) 0.9810(6) 0.27636(14)
H1 H 0.63690 0.48050 0.07360
H2 H 0.70940 0.58330 0.02720
H3 H 0.80160 0.91260 0.00800
H4 H 0.93220 1.23540 0.00430
H5 H 1.02910 1.44570 0.09900
H6 H 0.99630 1.33590 0.19800
H7 H 0.86980 1.01290 0.20320
H8 H 0.46970 0.95500 0.15120
H9 H 0.57500 0.77440 0.15380
H10 H 0.75200 1.46650 0.23300
H11 H 0.82630 1.49520 0.34620
H12 H 0.76950 1.20390 0.41570
H13 H 0.64160 0.88100 0.37230
H14 H 0.56500 0.85100 0.25880
O1B O 0.24912(17) 1.2589(5) -0.11625(9)
O2B O 0.38796(16) 0.8436(4) -0.16752(9)
N1B N 0.43911(19) 1.1366(5) 0.03577(11)
C1B C 0.4187(2) 1.1677(6) -0.02962(13)
C2B C 0.4800(2) 1.0298(6) -0.06553(13)
C3B C 0.3288(2) 1.3627(6) -0.06028(15)
C4B C 0.1767(2) 1.0687(7) -0.10632(16)
C5B C 0.1587(3) 1.0031(8) -0.04683(18)
C6B C 0.0810(3) 0.8100(10) -0.0449(2)
C7B C 0.0233(3) 0.6847(10) -0.1010(3)
C8B C 0.0426(3) 0.7505(11) -0.1593(3)
C9B C 0.1182(3) 0.9419(9) -0.16234(19)
C10B C 0.4600(2) 1.0562(6) -0.13878(13)
C11B C 0.3477(2) 0.8435(6) -0.23527(13)
C12B C 0.2707(2) 0.6524(7) -0.26115(15)
C13B C 0.2266(3) 0.6351(7) -0.32853(16)
C14B C 0.2601(3) 0.8088(7) -0.36988(15)
C15B C 0.3365(2) 0.9996(7) -0.34401(14)
C16B C 0.3819(2) 1.0190(6) -0.27636(14)
H1B H 0.36310 1.51950 -0.07360
H2B H 0.29060 1.41670 -0.02720
H3B H 0.19840 1.08740 -0.00800
H4B H 0.06780 0.76460 -0.00430
H5B H -0.02910 0.55430 -0.09900
H6B H 0.00370 0.66410 -0.19800
H7B H 0.13020 0.98710 -0.20320
H8B H 0.53030 1.04500 -0.15120
H9B H 0.42500 1.22560 -0.15380
H10B H 0.24800 0.53350 -0.23300
H11B H 0.17370 0.50480 -0.34620
H12B H 0.23050 0.79610 -0.41570
H13B H 0.35840 1.11900 -0.37230
H14B H 0.43500 1.14900 -0.25880
O1 O 0.75088(17) 0.7411(5) 1.11625(9)
O2 O 0.61204(16) 1.1564(4) 1.16752(9)
N1 N 0.56089(19) 0.8634(5) 0.96423(11)
C1 C 0.5813(2) 0.8323(6) 1.02962(13)
C2 C 0.5200(2) 0.9702(6) 1.06553(13)
C3 C 0.6712(2) 0.6373(6) 1.06028(15)
C4 C 0.8233(2) 0.9313(7) 1.10632(16)
C5 C 0.8413(3) 0.9969(8) 1.04683(18)
C6 C 0.9190(3) 1.1900(10) 1.0449(2)
C7 C 0.9767(3) 1.3153(10) 1.1010(3)
C8 C 0.9574(3) 1.2495(11) 1.1593(3)
C9 C 0.8818(3) 1.0581(9) 1.16234(19)
C10 C 0.5400(2) 0.9438(6) 1.13878(13)
C11 C 0.6523(2) 1.1565(6) 1.23527(13)
C12 C 0.7293(2) 1.3476(7) 1.26115(15)
C13 C 0.7734(3) 1.3649(7) 1.32853(16)
C14 C 0.7399(3) 1.1912(7) 1.36988(15)
C15 C 0.6635(2) 1.0004(7) 1.34401(14)
C16 C 0.6181(2) 0.9810(6) 1.27636(14)
H1 H 0.63690 0.48050 1.07360
H2 H 0.70940 0.58330 1.02720
H3 H 0.80160 0.91260 1.00800
H4 H 0.93220 1.23540 1.00430
H5 H 1.02910 1.44570 1.09900
H6 H 0.99630 1.33590 1.19800
H7 H 0.86980 1.01290 1.20320
H8 H 0.46970 0.95500 1.15120
H9 H 0.57500 0.77440 1.15380
H10 H 0.75200 1.46650 1.23300
H11 H 0.82630 1.49520 1.34620
H12 H 0.76950 1.20390 1.41570
H13 H 0.64160 0.88100 1.37230
H14 H 0.56500 0.85100 1.25880
O1B O 0.24912(17) 1.2589(5) 0.88375(9)
O2B O 0.38796(16) 0.8436(4) 0.83248(9)
N1B N 0.43911(19) 1.1366(5) 1.03577(11)
C1B C 0.4187(2) 1.1677(6) 0.97038(13)
C2B C 0.4800(2) 1.0298(6) 0.93447(13)
C3B C 0.3288(2) 1.3627(6) 0.93972(15)
C4B C 0.1767(2) 1.0687(7) 0.89368(16)
C5B C 0.1587(3) 1.0031(8) 0.95317(18)
C6B C 0.0810(3) 0.8100(10) 0.9551(2)
C7B C 0.0233(3) 0.6847(10) 0.8990(3)
C8B C 0.0426(3) 0.7505(11) 0.8407(3)
C9B C 0.1182(3) 0.9419(9) 0.83766(19)
C10B C 0.4600(2) 1.0562(6) 0.86122(13)
C11B C 0.3477(2) 0.8435(6) 0.76473(13)
C12B C 0.2707(2) 0.6524(7) 0.73885(15)
C13B C 0.2266(3) 0.6351(7) 0.67147(16)
C14B C 0.2601(3) 0.8088(7) 0.63012(15)
C15B C 0.3365(2) 0.9996(7) 0.65599(14)
C16B C 0.3819(2) 1.0190(6) 0.72364(14)
H1B H 0.36310 1.51950 0.92640
H2B H 0.29060 1.41670 0.97280
H3B H 0.19840 1.08740 0.99200
H4B H 0.06780 0.76460 0.99570
H5B H -0.02910 0.55430 0.90100
H6B H 0.00370 0.66410 0.80200
H7B H 0.13020 0.98710 0.79680
H8B H 0.53030 1.04500 0.84880
H9B H 0.42500 1.22560 0.84620
H10B H 0.24800 0.53350 0.76700
H11B H 0.17370 0.50480 0.65380
H12B H 0.23050 0.79610 0.58430
H13B H 0.35840 1.11900 0.62770
H14B H 0.43500 1.14900 0.74120

#END
