
#######################################################################
#
#                 Cambridge Crystallographic Data Centre
#                                CCDC 
#
#######################################################################
#
# If this CIF has been generated from an entry in the Cambridge 
# Structural Database, then it will include bibliographic, chemical, 
# crystal, experimental, refinement or atomic coordinate data resulting 
# from the CCDC's data processing and validation procedures.
#
#######################################################################

data_LICGEK
_symmetry_cell_setting           monoclinic
_symmetry_space_group_name_H-M   'P 21/c'
_symmetry_Int_Tables_number      14
_space_group_name_Hall           '-P 2ybc'
loop_
_symmetry_equiv_pos_site_id
_symmetry_equiv_pos_as_xyz
1 x,y,z
2 -x,1/2+y,1/2-z
3 -x,-y,-z
4 x,1/2-y,1/2+z
_cell_length_a                   4.1216(4)
_cell_length_b                   15.2474(16)
_cell_length_c                   11.0751(12)
_cell_angle_alpha                90
_cell_angle_beta                 90.707(2)
_cell_angle_gamma                90
_cell_volume                     695.947
loop_
_atom_site_label
_atom_site_type_symbol
_atom_site_fract_x
_atom_site_fract_y
_atom_site_fract_z
C1 C 0.7633(4) -0.13519(11) 0.67086(16)
C2 C 0.6408(4) -0.21370(11) 0.62329(16)
H1 H 0.5236 -0.2138 0.5489
C3 C 0.6919(4) -0.29100(11) 0.68555(16)
C4 C 0.8590(5) -0.29252(12) 0.79623(17)
H2 H 0.8888 -0.3459 0.8391
C5 C 0.9799(5) -0.21452(13) 0.84180(17)
H3 H 1.0943 -0.2145 0.9168
C6 C 0.9367(5) -0.13642(12) 0.77989(17)
H4 H 1.0253 -0.0836 0.8117
C7 C 0.7082(5) -0.05108(12) 0.60949(17)
H5 H 0.8244 -0.0007 0.6363
I1 I 0.51243(3) -0.408847(7) 0.613685(11)
N1 N 0.5084(4) -0.04382(10) 0.52113(15)
C1B C 0.2367(4) 0.13519(11) 0.32914(16)
C2B C 0.3592(4) 0.21370(11) 0.37671(16)
H1B H 0.4764 0.2138 0.4511
C3B C 0.3081(4) 0.29100(11) 0.31445(16)
C4B C 0.1410(5) 0.29252(12) 0.20377(17)
H2B H 0.1112 0.3459 0.1609
C5B C 0.0201(5) 0.21452(13) 0.15820(17)
H3B H -0.0943 0.2145 0.0832
C6B C 0.0633(5) 0.13642(12) 0.22011(17)
H4B H -0.0253 0.0836 0.1883
C7B C 0.2918(5) 0.05108(12) 0.39051(17)
H5B H 0.1756 0.0007 0.3637
I1B I 0.48757(3) 0.408847(7) 0.386315(11)
N1B N 0.4916(4) 0.04382(10) 0.47887(15)
C1 C 0.7633(4) 0.86481(11) 0.67086(16)
C2 C 0.6408(4) 0.78630(11) 0.62329(16)
H1 H 0.5236 0.7862 0.5489
C3 C 0.6919(4) 0.70900(11) 0.68555(16)
C4 C 0.8590(5) 0.70748(12) 0.79623(17)
H2 H 0.8888 0.6541 0.8391
C5 C 0.9799(5) 0.78548(13) 0.84180(17)
H3 H 1.0943 0.7855 0.9168
C6 C 0.9367(5) 0.86358(12) 0.77989(17)
H4 H 1.0253 0.9164 0.8117
C7 C 0.7082(5) 0.94892(12) 0.60949(17)
H5 H 0.8244 0.9993 0.6363
I1 I 0.51243(3) 0.591153(7) 0.613685(11)
N1 N 0.5084(4) 0.95618(10) 0.52113(15)
C1B C 0.2367(4) 1.13519(11) 0.32914(16)
C2B C 0.3592(4) 1.21370(11) 0.37671(16)
H1B H 0.4764 1.2138 0.4511
C3B C 0.3081(4) 1.29100(11) 0.31445(16)
C4B C 0.1410(5) 1.29252(12) 0.20377(17)
H2B H 0.1112 1.3459 0.1609
C5B C 0.0201(5) 1.21452(13) 0.15820(17)
H3B H -0.0943 1.2145 0.0832
C6B C 0.0633(5) 1.13642(12) 0.22011(17)
H4B H -0.0253 1.0836 0.1883
C7B C 0.2918(5) 1.05108(12) 0.39051(17)
H5B H 0.1756 1.0007 0.3637
I1B I 0.48757(3) 1.408847(7) 0.386315(11)
N1B N 0.4916(4) 1.04382(10) 0.47887(15)
C1 C 0.2367(4) 0.36481(11) -0.17086(16)
C2 C 0.3592(4) 0.28630(11) -0.12329(16)
H1 H 0.4764 0.2862 -0.0489
C3 C 0.3081(4) 0.20900(11) -0.18555(16)
C4 C 0.1410(5) 0.20748(12) -0.29623(17)
H2 H 0.1112 0.1541 -0.3391
C5 C 0.0201(5) 0.28548(13) -0.34180(17)
H3 H -0.0943 0.2855 -0.4168
C6 C 0.0633(5) 0.36358(12) -0.27989(17)
H4 H -0.0253 0.4164 -0.3117
C7 C 0.2918(5) 0.44892(12) -0.10949(17)
H5 H 0.1756 0.4993 -0.1363
I1 I 0.48757(3) 0.091153(7) -0.113685(11)
N1 N 0.4916(4) 0.45618(10) -0.02113(15)
C1B C 0.7633(4) 0.63519(11) 0.17086(16)
C2B C 0.6408(4) 0.71370(11) 0.12329(16)
H1B H 0.5236 0.7138 0.0489
C3B C 0.6919(4) 0.79100(11) 0.18555(16)
C4B C 0.8590(5) 0.79252(12) 0.29623(17)
H2B H 0.8888 0.8459 0.3391
C5B C 0.9799(5) 0.71452(13) 0.34180(17)
H3B H 1.0943 0.7145 0.4168
C6B C 0.9367(5) 0.63642(12) 0.27989(17)
H4B H 1.0253 0.5836 0.3117
C7B C 0.7082(5) 0.55108(12) 0.10949(17)
H5B H 0.8244 0.5007 0.1363
I1B I 0.51243(3) 0.908847(7) 0.113685(11)
N1B N 0.5084(4) 0.54382(10) 0.02113(15)
C1 C 0.2367(4) 0.36481(11) 0.82914(16)
C2 C 0.3592(4) 0.28630(11) 0.87671(16)
H1 H 0.4764 0.2862 0.9511
C3 C 0.3081(4) 0.20900(11) 0.81445(16)
C4 C 0.1410(5) 0.20748(12) 0.70377(17)
H2 H 0.1112 0.1541 0.6609
C5 C 0.0201(5) 0.28548(13) 0.65820(17)
H3 H -0.0943 0.2855 0.5832
C6 C 0.0633(5) 0.36358(12) 0.72011(17)
H4 H -0.0253 0.4164 0.6883
C7 C 0.2918(5) 0.44892(12) 0.89051(17)
H5 H 0.1756 0.4993 0.8637
I1 I 0.48757(3) 0.091153(7) 0.886315(11)
N1 N 0.4916(4) 0.45618(10) 0.97887(15)
C1B C 0.7633(4) 0.63519(11) 1.17086(16)
C2B C 0.6408(4) 0.71370(11) 1.12329(16)
H1B H 0.5236 0.7138 1.0489
C3B C 0.6919(4) 0.79100(11) 1.18555(16)
C4B C 0.8590(5) 0.79252(12) 1.29623(17)
H2B H 0.8888 0.8459 1.3391
C5B C 0.9799(5) 0.71452(13) 1.34180(17)
H3B H 1.0943 0.7145 1.4168
C6B C 0.9367(5) 0.63642(12) 1.27989(17)
H4B H 1.0253 0.5836 1.3117
C7B C 0.7082(5) 0.55108(12) 1.10949(17)
H5B H 0.8244 0.5007 1.1363
I1B I 0.51243(3) 0.908847(7) 1.113685(11)
N1B N 0.5084(4) 0.54382(10) 1.02113(15)

#END
