
#######################################################################
#
#                 Cambridge Crystallographic Data Centre
#                                CCDC 
#
#######################################################################
#
# If this CIF has been generated from an entry in the Cambridge 
# Structural Database, then it will include bibliographic, chemical, 
# crystal, experimental, refinement or atomic coordinate data resulting 
# from the CCDC's data processing and validation procedures.
#
#######################################################################

data_LICGAG
_symmetry_cell_setting           monoclinic
_symmetry_space_group_name_H-M   'P 21/c'
_symmetry_Int_Tables_number      14
_space_group_name_Hall           '-P 2ybc'
loop_
_symmetry_equiv_pos_site_id
_symmetry_equiv_pos_as_xyz
1 x,y,z
2 -x,1/2+y,1/2-z
3 -x,-y,-z
4 x,1/2-y,1/2+z
_cell_length_a                   7.1825(4)
_cell_length_b                   7.2077(4)
_cell_length_c                   17.3048(10)
_cell_angle_alpha                90
_cell_angle_beta                 91.0680(10)
_cell_angle_gamma                90
_cell_volume                     895.702
loop_
_atom_site_label
_atom_site_type_symbol
_atom_site_fract_x
_atom_site_fract_y
_atom_site_fract_z
C1 C 0.12635(16) 0.52075(16) -0.12274(6)
C2 C 0.17536(16) 0.64991(16) -0.17993(7)
C3 C 0.04336(19) 0.77468(18) -0.20798(7)
H1 H 0.0763 0.8630 -0.2461
C4 C -0.13689(19) 0.7705(2) -0.18033(8)
H2 H -0.2260 0.8575 -0.1992
C5 C -0.18797(18) 0.6419(2) -0.12588(7)
H3 H -0.3123 0.6379 -0.1082
C6 C -0.05573(17) 0.51806(17) -0.09713(7)
H4 H -0.0905 0.4299 -0.0592
C7 C 0.3998(2) 0.7514(2) -0.26973(10)
H5 H 0.3145 0.7241 -0.3131
H6 H 0.5279 0.7250 -0.2849
H7 H 0.3890 0.8826 -0.2556
C8 C 0.23490(16) 0.23783(16) -0.07635(6)
H8 H 0.1176 0.1875 -0.0915
C9 C 0.37217(16) 0.11740(16) -0.03739(6)
C10 C 0.32917(17) -0.06887(17) -0.02478(7)
H9 H 0.2119 -0.1162 -0.0417
C11 C 0.54470(16) 0.18510(16) -0.01203(7)
H10 H 0.5756 0.3117 -0.0201
N1 N 0.26845(13) 0.40749(14) -0.09041(5)
O1 O 0.35341(11) 0.63883(12) -0.20517(5)
C1B C 0.87365(16) -0.52075(16) 0.12274(6)
C2B C 0.82464(16) -0.64991(16) 0.17993(7)
C3B C 0.95664(19) -0.77468(18) 0.20798(7)
H1B H 0.9237 -0.8630 0.2461
C4B C 1.13689(19) -0.7705(2) 0.18033(8)
H2B H 1.2260 -0.8575 0.1992
C5B C 1.18797(18) -0.6419(2) 0.12588(7)
H3B H 1.3123 -0.6379 0.1082
C6B C 1.05573(17) -0.51806(17) 0.09713(7)
H4B H 1.0905 -0.4299 0.0592
C7B C 0.6002(2) -0.7514(2) 0.26973(10)
H5B H 0.6855 -0.7241 0.3131
H6B H 0.4721 -0.7250 0.2849
H7B H 0.6110 -0.8826 0.2556
C8B C 0.76510(16) -0.23783(16) 0.07635(6)
H8B H 0.8824 -0.1875 0.0915
C9B C 0.62783(16) -0.11740(16) 0.03739(6)
C10B C 0.67083(17) 0.06887(17) 0.02478(7)
H9B H 0.7881 0.1162 0.0417
C11B C 0.45530(16) -0.18510(16) 0.01203(7)
H10B H 0.4244 -0.3117 0.0201
N1B N 0.73155(13) -0.40749(14) 0.09041(5)
O1B O 0.64659(11) -0.63883(12) 0.20517(5)
C1 C 0.12635(16) 0.52075(16) 0.87726(6)
C2 C 0.17536(16) 0.64991(16) 0.82007(7)
C3 C 0.04336(19) 0.77468(18) 0.79202(7)
H1 H 0.0763 0.8630 0.7539
C4 C -0.13689(19) 0.7705(2) 0.81967(8)
H2 H -0.2260 0.8575 0.8008
C5 C -0.18797(18) 0.6419(2) 0.87412(7)
H3 H -0.3123 0.6379 0.8918
C6 C -0.05573(17) 0.51806(17) 0.90287(7)
H4 H -0.0905 0.4299 0.9408
C7 C 0.3998(2) 0.7514(2) 0.73027(10)
H5 H 0.3145 0.7241 0.6869
H6 H 0.5279 0.7250 0.7151
H7 H 0.3890 0.8826 0.7444
C8 C 0.23490(16) 0.23783(16) 0.92365(6)
H8 H 0.1176 0.1875 0.9085
C9 C 0.37217(16) 0.11740(16) 0.96261(6)
C10 C 0.32917(17) -0.06887(17) 0.97522(7)
H9 H 0.2119 -0.1162 0.9583
C11 C 0.54470(16) 0.18510(16) 0.98797(7)
H10 H 0.5756 0.3117 0.9799
N1 N 0.26845(13) 0.40749(14) 0.90959(5)
O1 O 0.35341(11) 0.63883(12) 0.79483(5)
C1B C 0.87365(16) -0.52075(16) 1.12274(6)
C2B C 0.82464(16) -0.64991(16) 1.17993(7)
C3B C 0.95664(19) -0.77468(18) 1.20798(7)
H1B H 0.9237 -0.8630 1.2461
C4B C 1.13689(19) -0.7705(2) 1.18033(8)
H2B H 1.2260 -0.8575 1.1992
C5B C 1.18797(18) -0.6419(2) 1.12588(7)
H3B H 1.3123 -0.6379 1.1082
C6B C 1.05573(17) -0.51806(17) 1.09713(7)
H4B H 1.0905 -0.4299 1.0592
C7B C 0.6002(2) -0.7514(2) 1.26973(10)
H5B H 0.6855 -0.7241 1.3131
H6B H 0.4721 -0.7250 1.2849
H7B H 0.6110 -0.8826 1.2556
C8B C 0.76510(16) -0.23783(16) 1.07635(6)
H8B H 0.8824 -0.1875 1.0915
C9B C 0.62783(16) -0.11740(16) 1.03739(6)
C10B C 0.67083(17) 0.06887(17) 1.02478(7)
H9B H 0.7881 0.1162 1.0417
C11B C 0.45530(16) -0.18510(16) 1.01203(7)
H10B H 0.4244 -0.3117 1.0201
N1B N 0.73155(13) -0.40749(14) 1.09041(5)
O1B O 0.64659(11) -0.63883(12) 1.20517(5)
C1 C 0.12635(16) 1.52075(16) -0.12274(6)
C2 C 0.17536(16) 1.64991(16) -0.17993(7)
C3 C 0.04336(19) 1.77468(18) -0.20798(7)
H1 H 0.0763 1.8630 -0.2461
C4 C -0.13689(19) 1.7705(2) -0.18033(8)
H2 H -0.2260 1.8575 -0.1992
C5 C -0.18797(18) 1.6419(2) -0.12588(7)
H3 H -0.3123 1.6379 -0.1082
C6 C -0.05573(17) 1.51806(17) -0.09713(7)
H4 H -0.0905 1.4299 -0.0592
C7 C 0.3998(2) 1.7514(2) -0.26973(10)
H5 H 0.3145 1.7241 -0.3131
H6 H 0.5279 1.7250 -0.2849
H7 H 0.3890 1.8826 -0.2556
C8 C 0.23490(16) 1.23783(16) -0.07635(6)
H8 H 0.1176 1.1875 -0.0915
C9 C 0.37217(16) 1.11740(16) -0.03739(6)
C10 C 0.32917(17) 0.93113(17) -0.02478(7)
H9 H 0.2119 0.8838 -0.0417
C11 C 0.54470(16) 1.18510(16) -0.01203(7)
H10 H 0.5756 1.3117 -0.0201
N1 N 0.26845(13) 1.40749(14) -0.09041(5)
O1 O 0.35341(11) 1.63883(12) -0.20517(5)
C1B C 0.87365(16) 0.47925(16) 0.12274(6)
C2B C 0.82464(16) 0.35009(16) 0.17993(7)
C3B C 0.95664(19) 0.22532(18) 0.20798(7)
H1B H 0.9237 0.1370 0.2461
C4B C 1.13689(19) 0.2295(2) 0.18033(8)
H2B H 1.2260 0.1425 0.1992
C5B C 1.18797(18) 0.3581(2) 0.12588(7)
H3B H 1.3123 0.3621 0.1082
C6B C 1.05573(17) 0.48194(17) 0.09713(7)
H4B H 1.0905 0.5701 0.0592
C7B C 0.6002(2) 0.2486(2) 0.26973(10)
H5B H 0.6855 0.2759 0.3131
H6B H 0.4721 0.2750 0.2849
H7B H 0.6110 0.1174 0.2556
C8B C 0.76510(16) 0.76217(16) 0.07635(6)
H8B H 0.8824 0.8125 0.0915
C9B C 0.62783(16) 0.88260(16) 0.03739(6)
C10B C 0.67083(17) 1.06887(17) 0.02478(7)
H9B H 0.7881 1.1162 0.0417
C11B C 0.45530(16) 0.81490(16) 0.01203(7)
H10B H 0.4244 0.6883 0.0201
N1B N 0.73155(13) 0.59251(14) 0.09041(5)
O1B O 0.64659(11) 0.36117(12) 0.20517(5)
C1 C 0.12635(16) 1.52075(16) 0.87726(6)
C2 C 0.17536(16) 1.64991(16) 0.82007(7)
C3 C 0.04336(19) 1.77468(18) 0.79202(7)
H1 H 0.0763 1.8630 0.7539
C4 C -0.13689(19) 1.7705(2) 0.81967(8)
H2 H -0.2260 1.8575 0.8008
C5 C -0.18797(18) 1.6419(2) 0.87412(7)
H3 H -0.3123 1.6379 0.8918
C6 C -0.05573(17) 1.51806(17) 0.90287(7)
H4 H -0.0905 1.4299 0.9408
C7 C 0.3998(2) 1.7514(2) 0.73027(10)
H5 H 0.3145 1.7241 0.6869
H6 H 0.5279 1.7250 0.7151
H7 H 0.3890 1.8826 0.7444
C8 C 0.23490(16) 1.23783(16) 0.92365(6)
H8 H 0.1176 1.1875 0.9085
C9 C 0.37217(16) 1.11740(16) 0.96261(6)
C10 C 0.32917(17) 0.93113(17) 0.97522(7)
H9 H 0.2119 0.8838 0.9583
C11 C 0.54470(16) 1.18510(16) 0.98797(7)
H10 H 0.5756 1.3117 0.9799
N1 N 0.26845(13) 1.40749(14) 0.90959(5)
O1 O 0.35341(11) 1.63883(12) 0.79483(5)
C1B C 0.87365(16) 0.47925(16) 1.12274(6)
C2B C 0.82464(16) 0.35009(16) 1.17993(7)
C3B C 0.95664(19) 0.22532(18) 1.20798(7)
H1B H 0.9237 0.1370 1.2461
C4B C 1.13689(19) 0.2295(2) 1.18033(8)
H2B H 1.2260 0.1425 1.1992
C5B C 1.18797(18) 0.3581(2) 1.12588(7)
H3B H 1.3123 0.3621 1.1082
C6B C 1.05573(17) 0.48194(17) 1.09713(7)
H4B H 1.0905 0.5701 1.0592
C7B C 0.6002(2) 0.2486(2) 1.26973(10)
H5B H 0.6855 0.2759 1.3131
H6B H 0.4721 0.2750 1.2849
H7B H 0.6110 0.1174 1.2556
C8B C 0.76510(16) 0.76217(16) 1.07635(6)
H8B H 0.8824 0.8125 1.0915
C9B C 0.62783(16) 0.88260(16) 1.03739(6)
C10B C 0.67083(17) 1.06887(17) 1.02478(7)
H9B H 0.7881 1.1162 1.0417
C11B C 0.45530(16) 0.81490(16) 1.01203(7)
H10B H 0.4244 0.6883 1.0201
N1B N 0.73155(13) 0.59251(14) 1.09041(5)
O1B O 0.64659(11) 0.36117(12) 1.20517(5)
C1 C 0.87365(16) 1.02075(16) 0.62274(6)
C2 C 0.82464(16) 1.14991(16) 0.67993(7)
C3 C 0.95664(19) 1.27468(18) 0.70798(7)
H1 H 0.9237 1.3630 0.7461
C4 C 1.13689(19) 1.2705(2) 0.68033(8)
H2 H 1.2260 1.3575 0.6992
C5 C 1.18797(18) 1.1419(2) 0.62588(7)
H3 H 1.3123 1.1379 0.6082
C6 C 1.05573(17) 1.01806(17) 0.59713(7)
H4 H 1.0905 0.9299 0.5592
C7 C 0.6002(2) 1.2514(2) 0.76973(10)
H5 H 0.6855 1.2241 0.8131
H6 H 0.4721 1.2250 0.7849
H7 H 0.6110 1.3826 0.7556
C8 C 0.76510(16) 0.73783(16) 0.57635(6)
H8 H 0.8824 0.6875 0.5915
C9 C 0.62783(16) 0.61740(16) 0.53739(6)
C10 C 0.67083(17) 0.43113(17) 0.52478(7)
H9 H 0.7881 0.3838 0.5417
C11 C 0.45530(16) 0.68510(16) 0.51203(7)
H10 H 0.4244 0.8117 0.5201
N1 N 0.73155(13) 0.90749(14) 0.59041(5)
O1 O 0.64659(11) 1.13883(12) 0.70517(5)
C1B C 0.12635(16) -0.02075(16) 0.37726(6)
C2B C 0.17536(16) -0.14991(16) 0.32007(7)
C3B C 0.04336(19) -0.27468(18) 0.29202(7)
H1B H 0.0763 -0.3630 0.2539
C4B C -0.13689(19) -0.2705(2) 0.31967(8)
H2B H -0.2260 -0.3575 0.3008
C5B C -0.18797(18) -0.1419(2) 0.37412(7)
H3B H -0.3123 -0.1379 0.3918
C6B C -0.05573(17) -0.01806(17) 0.40287(7)
H4B H -0.0905 0.0701 0.4408
C7B C 0.3998(2) -0.2514(2) 0.23027(10)
H5B H 0.3145 -0.2241 0.1869
H6B H 0.5279 -0.2250 0.2151
H7B H 0.3890 -0.3826 0.2444
C8B C 0.23490(16) 0.26217(16) 0.42365(6)
H8B H 0.1176 0.3125 0.4085
C9B C 0.37217(16) 0.38260(16) 0.46261(6)
C10B C 0.32917(17) 0.56887(17) 0.47522(7)
H9B H 0.2119 0.6162 0.4583
C11B C 0.54470(16) 0.31490(16) 0.48797(7)
H10B H 0.5756 0.1883 0.4799
N1B N 0.26845(13) 0.09251(14) 0.40959(5)
O1B O 0.35341(11) -0.13883(12) 0.29483(5)

#END
