./LICGAG_from_xyz.cif_generated_by_CrystalShift
_symmetry_cell_setting triclinic
_symmetry_space_group_name_H-M 'P 1'
loop_
_symmetry_equiv_pos_site_id
_symmetry_equiv_pos_as_xyz
1 x,y,z
_cell_length_a 7.182500
_cell_length_b 7.207700
_cell_length_c 17.304800
_cell_angle_alpha 90.000000
_cell_angle_beta 91.068000
_cell_angle_gamma 90.000000
_cell_volume 895.701855
loop_
_atom_site_label
_atom_site_type_symbol
_atom_site_fract_x
_atom_site_fract_y
_atom_site_fract_z
C1 C 0.126350 0.520750 -0.122740
C2 C 0.175360 0.649910 -0.179930
C3 C 0.043360 0.774680 -0.207980
H4 H 0.076300 0.863000 -0.246100
C5 C -0.136890 0.770500 -0.180330
H6 H -0.226000 0.857500 -0.199200
C7 C -0.187970 0.641900 -0.125880
H8 H -0.312300 0.637900 -0.108200
C9 C -0.055730 0.518060 -0.097130
H10 H -0.090500 0.429900 -0.059200
C11 C 0.399800 0.751400 -0.269730
H12 H 0.314500 0.724100 -0.313100
H13 H 0.527900 0.725000 -0.284900
H14 H 0.389000 0.882600 -0.255600
C15 C 0.234900 0.237830 -0.076350
H16 H 0.117600 0.187500 -0.091500
C17 C 0.372170 0.117400 -0.037390
C18 C 0.329170 -0.068870 -0.024780
H19 H 0.211900 -0.116200 -0.041700
C20 C 0.544700 0.185100 -0.012030
H21 H 0.575600 0.311700 -0.020100
N22 N 0.268450 0.407490 -0.090410
O23 O 0.353410 0.638830 -0.205170
C24 C 0.873650 -0.520750 0.122740
C25 C 0.824640 -0.649910 0.179930
C26 C 0.956640 -0.774680 0.207980
H27 H 0.923700 -0.863000 0.246100
C28 C 1.136890 -0.770500 0.180330
H29 H 1.226000 -0.857500 0.199200
C30 C 1.187970 -0.641900 0.125880
H31 H 1.312300 -0.637900 0.108200
C32 C 1.055730 -0.518060 0.097130
H33 H 1.090500 -0.429900 0.059200
C34 C 0.600200 -0.751400 0.269730
H35 H 0.685500 -0.724100 0.313100
H36 H 0.472100 -0.725000 0.284900
H37 H 0.611000 -0.882600 0.255600
C38 C 0.765100 -0.237830 0.076350
H39 H 0.882400 -0.187500 0.091500
C40 C 0.627830 -0.117400 0.037390
C41 C 0.670830 0.068870 0.024780
H42 H 0.788100 0.116200 0.041700
C43 C 0.455300 -0.185100 0.012030
H44 H 0.424400 -0.311700 0.020100
N45 N 0.731550 -0.407490 0.090410
O46 O 0.646590 -0.638830 0.205170
C47 C 0.126350 0.520750 0.877260
C48 C 0.175360 0.649910 0.820070
C49 C 0.043360 0.774680 0.792020
H50 H 0.076300 0.863000 0.753900
C51 C -0.136890 0.770500 0.819670
H52 H -0.226000 0.857500 0.800800
C53 C -0.187970 0.641900 0.874120
H54 H -0.312300 0.637900 0.891800
C55 C -0.055730 0.518060 0.902870
H56 H -0.090500 0.429900 0.940800
C57 C 0.399800 0.751400 0.730270
H58 H 0.314500 0.724100 0.686900
H59 H 0.527900 0.725000 0.715100
H60 H 0.389000 0.882600 0.744400
C61 C 0.234900 0.237830 0.923650
H62 H 0.117600 0.187500 0.908500
C63 C 0.372170 0.117400 0.962610
C64 C 0.329170 -0.068870 0.975220
H65 H 0.211900 -0.116200 0.958300
C66 C 0.544700 0.185100 0.987970
H67 H 0.575600 0.311700 0.979900
N68 N 0.268450 0.407490 0.909590
O69 O 0.353410 0.638830 0.794830
C70 C 0.873650 -0.520750 1.122740
C71 C 0.824640 -0.649910 1.179930
C72 C 0.956640 -0.774680 1.207980
H73 H 0.923700 -0.863000 1.246100
C74 C 1.136890 -0.770500 1.180330
H75 H 1.226000 -0.857500 1.199200
C76 C 1.187970 -0.641900 1.125880
H77 H 1.312300 -0.637900 1.108200
C78 C 1.055730 -0.518060 1.097130
H79 H 1.090500 -0.429900 1.059200
C80 C 0.600200 -0.751400 1.269730
H81 H 0.685500 -0.724100 1.313100
H82 H 0.472100 -0.725000 1.284900
H83 H 0.611000 -0.882600 1.255600
C84 C 0.765100 -0.237830 1.076350
H85 H 0.882400 -0.187500 1.091500
C86 C 0.627830 -0.117400 1.037390
C87 C 0.670830 0.068870 1.024780
H88 H 0.788100 0.116200 1.041700
C89 C 0.455300 -0.185100 1.012030
H90 H 0.424400 -0.311700 1.020100
N91 N 0.731550 -0.407490 1.090410
O92 O 0.646590 -0.638830 1.205170
C93 C 0.126350 1.520750 -0.122740
C94 C 0.175360 1.649910 -0.179930
C95 C 0.043360 1.774680 -0.207980
H96 H 0.076300 1.863000 -0.246100
C97 C -0.136890 1.770500 -0.180330
H98 H -0.226000 1.857500 -0.199200
C99 C -0.187970 1.641900 -0.125880
H100 H -0.312300 1.637900 -0.108200
C101 C -0.055730 1.518060 -0.097130
H102 H -0.090500 1.429900 -0.059200
C103 C 0.399800 1.751400 -0.269730
H104 H 0.314500 1.724100 -0.313100
H105 H 0.527900 1.725000 -0.284900
H106 H 0.389000 1.882600 -0.255600
C107 C 0.234900 1.237830 -0.076350
H108 H 0.117600 1.187500 -0.091500
C109 C 0.372170 1.117400 -0.037390
C110 C 0.329170 0.931130 -0.024780
H111 H 0.211900 0.883800 -0.041700
C112 C 0.544700 1.185100 -0.012030
H113 H 0.575600 1.311700 -0.020100
N114 N 0.268450 1.407490 -0.090410
O115 O 0.353410 1.638830 -0.205170
C116 C 0.873650 0.479250 0.122740
C117 C 0.824640 0.350090 0.179930
C118 C 0.956640 0.225320 0.207980
H119 H 0.923700 0.137000 0.246100
C120 C 1.136890 0.229500 0.180330
H121 H 1.226000 0.142500 0.199200
C122 C 1.187970 0.358100 0.125880
H123 H 1.312300 0.362100 0.108200
C124 C 1.055730 0.481940 0.097130
H125 H 1.090500 0.570100 0.059200
C126 C 0.600200 0.248600 0.269730
H127 H 0.685500 0.275900 0.313100
H128 H 0.472100 0.275000 0.284900
H129 H 0.611000 0.117400 0.255600
C130 C 0.765100 0.762170 0.076350
H131 H 0.882400 0.812500 0.091500
C132 C 0.627830 0.882600 0.037390
C133 C 0.670830 1.068870 0.024780
H134 H 0.788100 1.116200 0.041700
C135 C 0.455300 0.814900 0.012030
H136 H 0.424400 0.688300 0.020100
N137 N 0.731550 0.592510 0.090410
O138 O 0.646590 0.361170 0.205170
C139 C 0.126350 1.520750 0.877260
C140 C 0.175360 1.649910 0.820070
C141 C 0.043360 1.774680 0.792020
H142 H 0.076300 1.863000 0.753900
C143 C -0.136890 1.770500 0.819670
H144 H -0.226000 1.857500 0.800800
C145 C -0.187970 1.641900 0.874120
H146 H -0.312300 1.637900 0.891800
C147 C -0.055730 1.518060 0.902870
H148 H -0.090500 1.429900 0.940800
C149 C 0.399800 1.751400 0.730270
H150 H 0.314500 1.724100 0.686900
H151 H 0.527900 1.725000 0.715100
H152 H 0.389000 1.882600 0.744400
C153 C 0.234900 1.237830 0.923650
H154 H 0.117600 1.187500 0.908500
C155 C 0.372170 1.117400 0.962610
C156 C 0.329170 0.931130 0.975220
H157 H 0.211900 0.883800 0.958300
C158 C 0.544700 1.185100 0.987970
H159 H 0.575600 1.311700 0.979900
N160 N 0.268450 1.407490 0.909590
O161 O 0.353410 1.638830 0.794830
C162 C 0.873650 0.479250 1.122740
C163 C 0.824640 0.350090 1.179930
C164 C 0.956640 0.225320 1.207980
H165 H 0.923700 0.137000 1.246100
C166 C 1.136890 0.229500 1.180330
H167 H 1.226000 0.142500 1.199200
C168 C 1.187970 0.358100 1.125880
H169 H 1.312300 0.362100 1.108200
C170 C 1.055730 0.481940 1.097130
H171 H 1.090500 0.570100 1.059200
C172 C 0.600200 0.248600 1.269730
H173 H 0.685500 0.275900 1.313100
H174 H 0.472100 0.275000 1.284900
H175 H 0.611000 0.117400 1.255600
C176 C 0.765100 0.762170 1.076350
H177 H 0.882400 0.812500 1.091500
C178 C 0.627830 0.882600 1.037390
C179 C 0.670830 1.068870 1.024780
H180 H 0.788100 1.116200 1.041700
C181 C 0.455300 0.814900 1.012030
H182 H 0.424400 0.688300 1.020100
N183 N 0.731550 0.592510 1.090410
O184 O 0.646590 0.361170 1.205170
C185 C 0.873650 1.020750 0.622740
C186 C 0.824640 1.149910 0.679930
C187 C 0.956640 1.274680 0.707980
H188 H 0.923700 1.363000 0.746100
C189 C 1.136890 1.270500 0.680330
H190 H 1.226000 1.357500 0.699200
C191 C 1.187970 1.141900 0.625880
H192 H 1.312300 1.137900 0.608200
C193 C 1.055730 1.018060 0.597130
H194 H 1.090500 0.929900 0.559200
C195 C 0.600200 1.251400 0.769730
H196 H 0.685500 1.224100 0.813100
H197 H 0.472100 1.225000 0.784900
H198 H 0.611000 1.382600 0.755600
C199 C 0.765100 0.737830 0.576350
H200 H 0.882400 0.687500 0.591500
C201 C 0.627830 0.617400 0.537390
C202 C 0.670830 0.431130 0.524780
H203 H 0.788100 0.383800 0.541700
C204 C 0.455300 0.685100 0.512030
H205 H 0.424400 0.811700 0.520100
N206 N 0.731550 0.907490 0.590410
O207 O 0.646590 1.138830 0.705170
C208 C 0.126350 -0.020750 0.377260
C209 C 0.175360 -0.149910 0.320070
C210 C 0.043360 -0.274680 0.292020
H211 H 0.076300 -0.363000 0.253900
C212 C -0.136890 -0.270500 0.319670
H213 H -0.226000 -0.357500 0.300800
C214 C -0.187970 -0.141900 0.374120
H215 H -0.312300 -0.137900 0.391800
C216 C -0.055730 -0.018060 0.402870
H217 H -0.090500 0.070100 0.440800
C218 C 0.399800 -0.251400 0.230270
H219 H 0.314500 -0.224100 0.186900
H220 H 0.527900 -0.225000 0.215100
H221 H 0.389000 -0.382600 0.244400
C222 C 0.234900 0.262170 0.423650
H223 H 0.117600 0.312500 0.408500
C224 C 0.372170 0.382600 0.462610
C225 C 0.329170 0.568870 0.475220
H226 H 0.211900 0.616200 0.458300
C227 C 0.544700 0.314900 0.487970
H228 H 0.575600 0.188300 0.479900
N229 N 0.268450 0.092510 0.409590
O230 O 0.353410 -0.138830 0.294830

#END
