./LICHUB_from_xyz.cif_generated_by_CrystalShift
_symmetry_cell_setting triclinic
_symmetry_space_group_name_H-M 'P 1'
loop_
_symmetry_equiv_pos_site_id
_symmetry_equiv_pos_as_xyz
1 x,y,z
_cell_length_a 4.753500
_cell_length_b 15.717900
_cell_length_c 16.070000
_cell_angle_alpha 90.000000
_cell_angle_beta 97.123000
_cell_angle_gamma 90.000000
_cell_volume 1191.404197
loop_
_atom_site_label
_atom_site_type_symbol
_atom_site_fract_x
_atom_site_fract_y
_atom_site_fract_z
I1 I 0.102310 0.045792 0.639545
O2 O 0.887900 0.301100 0.373460
O3 O 1.204200 0.391700 0.443280
O4 O 1.013000 0.368100 0.675500
O5 O 0.806200 0.405600 0.813800
N6 N 0.939100 0.315100 0.517400
C7 C 0.743800 0.257200 0.541800
C8 C 0.683700 0.259900 0.626700
C9 C 0.491000 0.199600 0.652800
C10 C 0.368800 0.139600 0.598100
C11 C 0.424400 0.137900 0.515100
C12 C 0.609400 0.196600 0.487800
C13 C 1.000100 0.332000 0.438100
C14 C 1.288300 0.421800 0.364700
C15 C 1.501200 0.491100 0.386000
C16 C 0.812200 0.322600 0.687600
C17 C 0.692900 0.334000 0.770100
H18 H 1.035200 0.344500 0.558000
H19 H 0.446100 0.200900 0.708800
H20 H 0.335600 0.096600 0.477300
H21 H 0.645400 0.195500 0.430900
H22 H 1.121800 0.444000 0.328000
H23 H 1.373000 0.374900 0.335000
H24 H 1.415100 0.536800 0.415700
H25 H 1.562500 0.513700 0.334300
H26 H 1.665300 0.468100 0.421900
H27 H 0.484200 0.339800 0.759000
H28 H 0.735600 0.282700 0.805200
H29 H 0.955500 0.420600 0.794800
I30 I 1.397690 0.545792 0.860455
O31 O 0.612100 0.801100 1.126540
O32 O 0.295800 0.891700 1.056720
O33 O 0.487000 0.868100 0.824500
O34 O 0.693800 0.905600 0.686200
N35 N 0.560900 0.815100 0.982600
C36 C 0.756200 0.757200 0.958200
C37 C 0.816300 0.759900 0.873300
C38 C 1.009000 0.699600 0.847200
C39 C 1.131200 0.639600 0.901900
C40 C 1.075600 0.637900 0.984900
C41 C 0.890600 0.696600 1.012200
C42 C 0.499900 0.832000 1.061900
C43 C 0.211700 0.921800 1.135300
C44 C -0.001200 0.991100 1.114000
C45 C 0.687800 0.822600 0.812400
C46 C 0.807100 0.834000 0.729900
H47 H 0.464800 0.844500 0.942000
H48 H 1.053900 0.700900 0.791200
H49 H 1.164400 0.596600 1.022700
H50 H 0.854600 0.695500 1.069100
H51 H 0.378200 0.944000 1.172000
H52 H 0.127000 0.874900 1.165000
H53 H 0.084900 1.036800 1.084300
H54 H -0.062500 1.013700 1.165700
H55 H -0.165300 0.968100 1.078100
H56 H 1.015800 0.839800 0.741000
H57 H 0.764400 0.782700 0.694800
H58 H 0.544500 0.920600 0.705200
I59 I 0.897690 0.954208 0.360455
O60 O 0.112100 0.698900 0.626540
O61 O -0.204200 0.608300 0.556720
O62 O -0.013000 0.631900 0.324500
O63 O 0.193800 0.594400 0.186200
N64 N 0.060900 0.684900 0.482600
C65 C 0.256200 0.742800 0.458200
C66 C 0.316300 0.740100 0.373300
C67 C 0.509000 0.800400 0.347200
C68 C 0.631200 0.860400 0.401900
C69 C 0.575600 0.862100 0.484900
C70 C 0.390600 0.803400 0.512200
C71 C -0.000100 0.668000 0.561900
C72 C -0.288300 0.578200 0.635300
C73 C -0.501200 0.508900 0.614000
C74 C 0.187800 0.677400 0.312400
C75 C 0.307100 0.666000 0.229900
H76 H -0.035200 0.655500 0.442000
H77 H 0.553900 0.799100 0.291200
H78 H 0.664400 0.903400 0.522700
H79 H 0.354600 0.804500 0.569100
H80 H -0.121800 0.556000 0.672000
H81 H -0.373000 0.625100 0.665000
H82 H -0.415100 0.463200 0.584300
H83 H -0.562500 0.486300 0.665700
H84 H -0.665300 0.531900 0.578100
H85 H 0.515800 0.660200 0.241000
H86 H 0.264400 0.717300 0.194800
H87 H 0.044500 0.579400 0.205200
I88 I -0.397690 0.454208 0.139545
O89 O 0.387900 0.198900 -0.126540
O90 O 0.704200 0.108300 -0.056720
O91 O 0.513000 0.131900 0.175500
O92 O 0.306200 0.094400 0.313800
N93 N 0.439100 0.184900 0.017400
C94 C 0.243800 0.242800 0.041800
C95 C 0.183700 0.240100 0.126700
C96 C -0.009000 0.300400 0.152800
C97 C -0.131200 0.360400 0.098100
C98 C -0.075600 0.362100 0.015100
C99 C 0.109400 0.303400 -0.012200
C100 C 0.500100 0.168000 -0.061900
C101 C 0.788300 0.078200 -0.135300
C102 C 1.001200 0.008900 -0.114000
C103 C 0.312200 0.177400 0.187600
C104 C 0.192900 0.166000 0.270100
H105 H 0.535200 0.155500 0.058000
H106 H -0.053900 0.299100 0.208800
H107 H -0.164400 0.403400 -0.022700
H108 H 0.145400 0.304500 -0.069100
H109 H 0.621800 0.056000 -0.172000
H110 H 0.873000 0.125100 -0.165000
H111 H 0.915100 -0.036800 -0.084300
H112 H 1.062500 -0.013700 -0.165700
H113 H 1.165300 0.031900 -0.078100
H114 H -0.015800 0.160200 0.259000
H115 H 0.235600 0.217300 0.305200
H116 H 0.455500 0.079400 0.294800

#END
