
#######################################################################
#
#                 Cambridge Crystallographic Data Centre
#                                CCDC 
#
#######################################################################
#
# If this CIF has been generated from an entry in the Cambridge 
# Structural Database, then it will include bibliographic, chemical, 
# crystal, experimental, refinement or atomic coordinate data resulting 
# from the CCDC's data processing and validation procedures.
#
#######################################################################

data_LICHEL
_symmetry_cell_setting           orthorhombic
_symmetry_space_group_name_H-M   'P 21 21 21'
_symmetry_Int_Tables_number      19
_space_group_name_Hall           'P 2ac 2ab'
loop_
_symmetry_equiv_pos_site_id
_symmetry_equiv_pos_as_xyz
1 x,y,z
2 1/2-x,-y,1/2+z
3 1/2+x,1/2-y,-z
4 -x,1/2+y,1/2-z
_cell_length_a                   7.9602(13)
_cell_length_b                   11.6135(18)
_cell_length_c                   26.586(5)
_cell_angle_alpha                90
_cell_angle_beta                 90
_cell_angle_gamma                90
_cell_volume                     2457.76
loop_
_atom_site_label
_atom_site_type_symbol
_atom_site_fract_x
_atom_site_fract_y
_atom_site_fract_z
C1 C 0.4429(5) 0.6386(4) 0.9964(2)
C2 C 0.3457(4) 0.5275(4) 0.9917(2)
C3 C 0.1592(5) 0.5274(5) 0.9852(2)
H1 H 0.1093 0.5845 1.0085
H2 H 0.1150 0.4506 0.9945
C4 C 0.1054(6) 0.5555(5) 0.9321(2)
H3 H 0.1462 0.6323 0.9230
H4 H -0.0175 0.5539 0.9300
H5 H 0.1526 0.4984 0.9089
C5 C 0.4551(5) 0.4416(4) 0.9932(2)
C6 C 0.4313(6) 0.3157(4) 0.9880(2)
H6 H 0.3103 0.2973 0.9911
H7 H 0.4914 0.2760 1.0156
C7 C 0.4965(6) 0.2709(5) 0.9374(3)
H8 H 0.4406 0.3123 0.9099
H9 H 0.4724 0.1884 0.9345
H10 H 0.6180 0.2834 0.9353
C8 C 0.6293(4) 0.4915(4) 1.0004(2)
N1 N 0.6102(4) 0.6101(3) 1.00200(18)
H31 H 0.6925 0.6598 1.0060
O1 O 0.3882(4) 0.7353(3) 0.99506(16)
O2 O 0.7597(3) 0.4410(3) 1.00397(17)
C1 C 0.0571(5) 0.3614(4) 0.4964(2)
C2 C 0.1543(4) 0.4725(4) 0.4917(2)
C3 C 0.3408(5) 0.4726(5) 0.4852(2)
H1 H 0.3907 0.4155 0.5085
H2 H 0.3850 0.5494 0.4945
C4 C 0.3946(6) 0.4445(5) 0.4321(2)
H3 H 0.3538 0.3677 0.4230
H4 H 0.5175 0.4461 0.4300
H5 H 0.3474 0.5016 0.4089
C5 C 0.0449(5) 0.5584(4) 0.4932(2)
C6 C 0.0687(6) 0.6843(4) 0.4880(2)
H6 H 0.1897 0.7027 0.4911
H7 H 0.0086 0.7240 0.5156
C7 C 0.0035(6) 0.7291(5) 0.4374(3)
H8 H 0.0594 0.6877 0.4099
H9 H 0.0276 0.8116 0.4345
H10 H -0.1180 0.7166 0.4353
C8 C -0.1293(4) 0.5085(4) 0.5004(2)
N1 N -0.1102(4) 0.3899(3) 0.50200(18)
H31 H -0.1925 0.3402 0.5060
O1 O 0.1118(4) 0.2647(3) 0.49506(16)
O2 O -0.2597(3) 0.5590(3) 0.50397(17)
C1 C 0.9429(5) -0.1386(4) 0.0036(2)
C2 C 0.8457(4) -0.0275(4) 0.0083(2)
C3 C 0.6592(5) -0.0274(5) 0.0148(2)
H1 H 0.6093 -0.0845 -0.0085
H2 H 0.6150 0.0494 0.0055
C4 C 0.6054(6) -0.0555(5) 0.0679(2)
H3 H 0.6462 -0.1323 0.0770
H4 H 0.4825 -0.0539 0.0700
H5 H 0.6526 0.0016 0.0911
C5 C 0.9551(5) 0.0584(4) 0.0068(2)
C6 C 0.9313(6) 0.1843(4) 0.0120(2)
H6 H 0.8103 0.2027 0.0089
H7 H 0.9914 0.2240 -0.0156
C7 C 0.9965(6) 0.2291(5) 0.0626(3)
H8 H 0.9406 0.1877 0.0901
H9 H 0.9724 0.3116 0.0655
H10 H 1.1180 0.2166 0.0647
C8 C 1.1293(4) 0.0085(4) -0.0004(2)
N1 N 1.1102(4) -0.1101(3) -0.00200(18)
H31 H 1.1925 -0.1598 -0.0060
O1 O 0.8882(4) -0.2353(3) 0.00494(16)
O2 O 1.2597(3) 0.0590(3) -0.00397(17)
C1 C 0.5571(5) 1.1386(4) 0.5036(2)
C2 C 0.6543(4) 1.0275(4) 0.5083(2)
C3 C 0.8408(5) 1.0274(5) 0.5148(2)
H1 H 0.8907 1.0845 0.4915
H2 H 0.8850 0.9506 0.5055
C4 C 0.8946(6) 1.0555(5) 0.5679(2)
H3 H 0.8538 1.1323 0.5770
H4 H 1.0175 1.0539 0.5700
H5 H 0.8474 0.9984 0.5911
C5 C 0.5449(5) 0.9416(4) 0.5068(2)
C6 C 0.5687(6) 0.8157(4) 0.5120(2)
H6 H 0.6897 0.7973 0.5089
H7 H 0.5086 0.7760 0.4844
C7 C 0.5035(6) 0.7709(5) 0.5626(3)
H8 H 0.5594 0.8123 0.5901
H9 H 0.5276 0.6884 0.5655
H10 H 0.3820 0.7834 0.5647
C8 C 0.3707(4) 0.9915(4) 0.4996(2)
N1 N 0.3898(4) 1.1101(3) 0.49800(18)
H31 H 0.3075 1.1598 0.4940
O1 O 0.6118(4) 1.2353(3) 0.50494(16)
O2 O 0.2403(3) 0.9410(3) 0.49603(17)
C9 C 0.5884(5) 0.1324(4) 0.8085(2)
C10 C 0.4158(5) 0.0843(4) 0.8160(2)
C11 C 0.3877(5) -0.0404(4) 0.8248(2)
H11 H 0.4563 -0.0852 0.8007
H12 H 0.2681 -0.0588 0.8185
C12 C 0.4338(7) -0.0760(5) 0.8784(3)
H13 H 0.5517 -0.0567 0.8850
H14 H 0.4176 -0.1592 0.8823
H15 H 0.3618 -0.0350 0.9023
C13 C 0.3059(5) 0.1708(4) 0.8135(2)
C14 C 0.1192(5) 0.1744(4) 0.8203(2)
H16 H 0.0718 0.0980 0.8120
H17 H 0.0709 0.2311 0.7966
C15 C 0.0687(6) 0.2062(5) 0.8730(2)
H18 H 0.1174 0.1510 0.8967
H19 H -0.0540 0.2047 0.8758
H20 H 0.1098 0.2837 0.8808
C16 C 0.4034(5) 0.2799(4) 0.8023(2)
N2 N 0.5713(4) 0.2488(3) 0.80102(17)
H32 H 0.6552 0.2969 0.7961
O3 O 0.7199(3) 0.0798(3) 0.80870(17)
O4 O 0.3499(3) 0.3761(3) 0.79650(17)
C9 C -0.0884(5) 0.8676(4) 0.3085(2)
C10 C 0.0842(5) 0.9157(4) 0.3160(2)
C11 C 0.1123(5) 1.0404(4) 0.3248(2)
H11 H 0.0437 1.0852 0.3007
H12 H 0.2319 1.0588 0.3185
C12 C 0.0662(7) 1.0760(5) 0.3784(3)
H13 H -0.0517 1.0567 0.3850
H14 H 0.0824 1.1592 0.3823
H15 H 0.1382 1.0350 0.4023
C13 C 0.1941(5) 0.8292(4) 0.3135(2)
C14 C 0.3808(5) 0.8256(4) 0.3203(2)
H16 H 0.4282 0.9020 0.3120
H17 H 0.4291 0.7689 0.2966
C15 C 0.4313(6) 0.7938(5) 0.3730(2)
H18 H 0.3826 0.8490 0.3967
H19 H 0.5540 0.7953 0.3758
H20 H 0.3902 0.7163 0.3808
C16 C 0.0966(5) 0.7201(4) 0.3023(2)
N2 N -0.0713(4) 0.7512(3) 0.30102(17)
H32 H -0.1552 0.7031 0.2961
O3 O -0.2199(3) 0.9202(3) 0.30870(17)
O4 O 0.1501(3) 0.6239(3) 0.29650(17)
C9 C 1.0884(5) 0.3676(4) 0.1915(2)
C10 C 0.9158(5) 0.4157(4) 0.1840(2)
C11 C 0.8877(5) 0.5404(4) 0.1752(2)
H11 H 0.9563 0.5852 0.1993
H12 H 0.7681 0.5588 0.1815
C12 C 0.9338(7) 0.5760(5) 0.1216(3)
H13 H 1.0517 0.5567 0.1150
H14 H 0.9176 0.6592 0.1177
H15 H 0.8618 0.5350 0.0977
C13 C 0.8059(5) 0.3292(4) 0.1865(2)
C14 C 0.6192(5) 0.3256(4) 0.1797(2)
H16 H 0.5718 0.4020 0.1880
H17 H 0.5709 0.2689 0.2034
C15 C 0.5687(6) 0.2938(5) 0.1270(2)
H18 H 0.6174 0.3490 0.1033
H19 H 0.4460 0.2953 0.1242
H20 H 0.6098 0.2163 0.1192
C16 C 0.9034(5) 0.2201(4) 0.1977(2)
N2 N 1.0713(4) 0.2512(3) 0.19898(17)
H32 H 1.1552 0.2031 0.2039
O3 O 1.2199(3) 0.4202(3) 0.19130(17)
O4 O 0.8499(3) 0.1239(3) 0.20350(17)
C9 C 0.4116(5) 0.6324(4) 0.6915(2)
C10 C 0.5842(5) 0.5843(4) 0.6840(2)
C11 C 0.6123(5) 0.4596(4) 0.6752(2)
H11 H 0.5437 0.4148 0.6993
H12 H 0.7319 0.4412 0.6815
C12 C 0.5662(7) 0.4240(5) 0.6216(3)
H13 H 0.4483 0.4433 0.6150
H14 H 0.5824 0.3408 0.6177
H15 H 0.6382 0.4650 0.5977
C13 C 0.6941(5) 0.6708(4) 0.6865(2)
C14 C 0.8808(5) 0.6744(4) 0.6797(2)
H16 H 0.9282 0.5980 0.6880
H17 H 0.9291 0.7311 0.7034
C15 C 0.9313(6) 0.7062(5) 0.6270(2)
H18 H 0.8826 0.6510 0.6033
H19 H 1.0540 0.7047 0.6242
H20 H 0.8902 0.7837 0.6192
C16 C 0.5966(5) 0.7799(4) 0.6977(2)
N2 N 0.4287(4) 0.7488(3) 0.69898(17)
H32 H 0.3448 0.7969 0.7039
O3 O 0.2801(3) 0.5798(3) 0.69130(17)
O4 O 0.6501(3) 0.8761(3) 0.70350(17)
C17 C 0.9042(5) 0.5044(4) 0.7996(2)
C18 C 0.8084(5) 0.6124(4) 0.8091(2)
C19 C 0.6211(5) 0.6108(4) 0.8159(2)
H21 H 0.5708 0.5541 0.7926
H22 H 0.5745 0.6876 0.8078
C20 C 0.5754(6) 0.5791(5) 0.8700(2)
H23 H 0.6227 0.5035 0.8782
H24 H 0.4529 0.5765 0.8735
H25 H 0.6214 0.6371 0.8930
C21 C 0.9170(5) 0.6993(4) 0.8110(2)
C22 C 0.8900(6) 0.8249(4) 0.8195(2)
H26 H 0.7720 0.8444 0.8114
H27 H 0.9634 0.8690 0.7964
C23 C 0.9275(6) 0.8609(4) 0.8737(2)
H28 H 0.8547 0.8178 0.8967
H29 H 0.9065 0.9435 0.8776
H30 H 1.0454 0.8443 0.8815
C24 C 1.0920(5) 0.6508(4) 0.8044(2)
N3 N 1.0725(3) 0.5341(3) 0.79766(17)
H33 H 1.1553 0.4852 0.7928
O5 O 0.8515(3) 0.4078(3) 0.79391(16)
O6 O 1.2237(3) 0.7029(3) 0.80527(16)
C17 C 0.5958(5) 0.4956(4) 0.2996(2)
C18 C 0.6916(5) 0.3876(4) 0.3091(2)
C19 C 0.8789(5) 0.3892(4) 0.3159(2)
H21 H 0.9292 0.4459 0.2926
H22 H 0.9255 0.3124 0.3078
C20 C 0.9246(6) 0.4209(5) 0.3700(2)
H23 H 0.8773 0.4965 0.3782
H24 H 1.0471 0.4235 0.3735
H25 H 0.8786 0.3629 0.3930
C21 C 0.5830(5) 0.3007(4) 0.3110(2)
C22 C 0.6100(6) 0.1751(4) 0.3195(2)
H26 H 0.7280 0.1556 0.3114
H27 H 0.5366 0.1310 0.2964
C23 C 0.5725(6) 0.1391(4) 0.3737(2)
H28 H 0.6453 0.1822 0.3967
H29 H 0.5935 0.0565 0.3776
H30 H 0.4546 0.1557 0.3815
C24 C 0.4080(5) 0.3492(4) 0.3044(2)
N3 N 0.4275(3) 0.4659(3) 0.29766(17)
H33 H 0.3447 0.5148 0.2928
O5 O 0.6485(3) 0.5922(3) 0.29391(16)
O6 O 0.2763(3) 0.2971(3) 0.30527(16)
C17 C 0.4042(5) 0.9956(4) 0.2004(2)
C18 C 0.3084(5) 0.8876(4) 0.1909(2)
C19 C 0.1211(5) 0.8892(4) 0.1841(2)
H21 H 0.0708 0.9459 0.2074
H22 H 0.0745 0.8124 0.1922
C20 C 0.0754(6) 0.9209(5) 0.1300(2)
H23 H 0.1227 0.9965 0.1218
H24 H -0.0471 0.9235 0.1265
H25 H 0.1214 0.8629 0.1070
C21 C 0.4170(5) 0.8007(4) 0.1890(2)
C22 C 0.3900(6) 0.6751(4) 0.1805(2)
H26 H 0.2720 0.6556 0.1886
H27 H 0.4634 0.6310 0.2036
C23 C 0.4275(6) 0.6391(4) 0.1263(2)
H28 H 0.3547 0.6822 0.1033
H29 H 0.4065 0.5565 0.1224
H30 H 0.5454 0.6557 0.1185
C24 C 0.5920(5) 0.8492(4) 0.1956(2)
N3 N 0.5725(3) 0.9659(3) 0.20234(17)
H33 H 0.6553 1.0148 0.2072
O5 O 0.3515(3) 1.0922(3) 0.20609(16)
O6 O 0.7237(3) 0.7971(3) 0.19473(16)
C17 C 0.0958(5) 0.0044(4) 0.7004(2)
C18 C 0.1916(5) 0.1124(4) 0.6909(2)
C19 C 0.3789(5) 0.1108(4) 0.6841(2)
H21 H 0.4292 0.0541 0.7074
H22 H 0.4255 0.1876 0.6922
C20 C 0.4246(6) 0.0791(5) 0.6300(2)
H23 H 0.3773 0.0035 0.6218
H24 H 0.5471 0.0765 0.6265
H25 H 0.3786 0.1371 0.6070
C21 C 0.0830(5) 0.1993(4) 0.6890(2)
C22 C 0.1100(6) 0.3249(4) 0.6805(2)
H26 H 0.2280 0.3444 0.6886
H27 H 0.0366 0.3690 0.7036
C23 C 0.0725(6) 0.3609(4) 0.6263(2)
H28 H 0.1453 0.3178 0.6033
H29 H 0.0935 0.4435 0.6224
H30 H -0.0454 0.3443 0.6185
C24 C -0.0920(5) 0.1508(4) 0.6956(2)
N3 N -0.0725(3) 0.0341(3) 0.70234(17)
H33 H -0.1553 -0.0148 0.7072
O5 O 0.1485(3) -0.0922(3) 0.70609(16)
O6 O -0.2237(3) 0.2029(3) 0.69473(16)

#END
