
#######################################################################
#
#                 Cambridge Crystallographic Data Centre
#                                CCDC 
#
#######################################################################
#
# If this CIF has been generated from an entry in the Cambridge 
# Structural Database, then it will include bibliographic, chemical, 
# crystal, experimental, refinement or atomic coordinate data resulting 
# from the CCDC's data processing and validation procedures.
#
#######################################################################

data_LICHAH
_symmetry_cell_setting           triclinic
_symmetry_space_group_name_H-M   'P -1'
_symmetry_Int_Tables_number      2
_space_group_name_Hall           '-P 1'
loop_
_symmetry_equiv_pos_site_id
_symmetry_equiv_pos_as_xyz
1 x,y,z
2 -x,-y,-z
_cell_length_a                   6.7854(7)
_cell_length_b                   10.2766(11)
_cell_length_c                   16.0242(15)
_cell_angle_alpha                101.338(8)
_cell_angle_beta                 94.775(8)
_cell_angle_gamma                99.492(8)
_cell_volume                     1072.82
loop_
_atom_site_label
_atom_site_type_symbol
_atom_site_fract_x
_atom_site_fract_y
_atom_site_fract_z
S1 S 1.29957(10) 0.66402(7) 0.32696(4)
O1 O 1.1203(3) 0.7162(2) 0.31612(14)
O2 O 1.4398(3) 0.7151(2) 0.40157(11)
O3 O 1.2439(2) 0.50631(19) 0.32655(10)
O4 O 0.9025(2) 0.4826(2) 0.39867(10)
O5 O 0.0760(3) -0.0186(2) 0.17185(11)
O6 O 0.2011(3) -0.0574(3) 0.04480(12)
N1 N 0.3301(3) 0.1362(2) 0.25366(12)
C1 C 1.3347(4) 0.6999(3) 0.16492(18)
H1 H 1.2066 0.7209 0.1646
C2 C 1.4368(5) 0.7012(4) 0.09410(19)
H2 H 1.3762 0.7239 0.0461
C3 C 1.6271(4) 0.6696(3) 0.09266(17)
C4 C 1.7129(4) 0.6370(4) 0.16481(18)
H3 H 1.8402 0.6145 0.1650
C5 C 1.6156(4) 0.6368(3) 0.23640(17)
H4 H 1.6777 0.6165 0.2850
C6 C 1.4252(4) 0.6670(3) 0.23591(15)
C7 C 1.7383(6) 0.6747(5) 0.0155(2)
H5 H 1.6455 0.6407 -0.0358
H6 H 1.8404 0.6203 0.0160
H7 H 1.7998 0.7664 0.0170
C8 C 1.0672(4) 0.4275(3) 0.27784(14)
C9 C 1.0740(4) 0.3604(3) 0.19517(15)
H8 H 1.1914 0.3746 0.1695
C10 C 0.9064(4) 0.2724(3) 0.15071(15)
H9 H 0.9103 0.2278 0.0946
C11 C 0.7307(4) 0.2496(3) 0.18934(14)
C12 C 0.7265(4) 0.3201(3) 0.27343(14)
H10 H 0.6095 0.3060 0.2994
C13 C 0.8925(3) 0.4095(3) 0.31802(13)
C14 C 0.7296(4) 0.4603(3) 0.44316(15)
H11 H 0.7555 0.5176 0.4994
H12 H 0.7018 0.3675 0.4479
H13 H 0.6157 0.4807 0.4120
C15 C 0.5599(4) 0.1491(3) 0.14287(15)
H14 H 0.5716 0.1131 0.0859
C16 C 0.3884(4) 0.1021(3) 0.17160(15)
C17 C 0.2233(4) 0.0023(3) 0.11840(16)
C18 C 0.1535(4) 0.0662(3) 0.25011(16)
C19 C 0.0275(4) 0.0699(3) 0.31908(17)
C20 C -0.1704(5) 0.0005(3) 0.3049(2)
H15 H -0.2228 -0.0530 0.2513
C21 C -0.2878(6) 0.0117(4) 0.3710(3)
H16 H -0.4204 -0.0343 0.3618
C22 C -0.2112(6) 0.0901(4) 0.4504(3)
H17 H -0.2921 0.0966 0.4946
C23 C -0.0155(6) 0.1591(4) 0.4650(2)
H18 H 0.0358 0.2123 0.5188
C24 C 0.1038(5) 0.1491(4) 0.39950(18)
H19 H 0.2362 0.1956 0.4092
S1 S -0.29957(10) 0.33598(7) 0.67304(4)
O1 O -0.1203(3) 0.2838(2) 0.68388(14)
O2 O -0.4398(3) 0.2849(2) 0.59843(11)
O3 O -0.2439(2) 0.49369(19) 0.67345(10)
O4 O 0.0975(2) 0.5174(2) 0.60133(10)
O5 O 0.9240(3) 1.0186(2) 0.82815(11)
O6 O 0.7989(3) 1.0574(3) 0.95520(12)
N1 N 0.6699(3) 0.8638(2) 0.74634(12)
C1 C -0.3347(4) 0.3001(3) 0.83508(18)
H1 H -0.2066 0.2791 0.8354
C2 C -0.4368(5) 0.2988(4) 0.90590(19)
H2 H -0.3762 0.2761 0.9539
C3 C -0.6271(4) 0.3304(3) 0.90734(17)
C4 C -0.7129(4) 0.3630(4) 0.83519(18)
H3 H -0.8402 0.3855 0.8350
C5 C -0.6156(4) 0.3632(3) 0.76360(17)
H4 H -0.6777 0.3835 0.7150
C6 C -0.4252(4) 0.3330(3) 0.76409(15)
C7 C -0.7383(6) 0.3253(5) 0.9845(2)
H5 H -0.6455 0.3593 1.0358
H6 H -0.8404 0.3797 0.9840
H7 H -0.7998 0.2336 0.9830
C8 C -0.0672(4) 0.5725(3) 0.72216(14)
C9 C -0.0740(4) 0.6396(3) 0.80483(15)
H8 H -0.1914 0.6254 0.8305
C10 C 0.0936(4) 0.7276(3) 0.84929(15)
H9 H 0.0897 0.7722 0.9054
C11 C 0.2693(4) 0.7504(3) 0.81066(14)
C12 C 0.2735(4) 0.6799(3) 0.72657(14)
H10 H 0.3905 0.6940 0.7006
C13 C 0.1075(3) 0.5905(3) 0.68198(13)
C14 C 0.2704(4) 0.5397(3) 0.55684(15)
H11 H 0.2445 0.4824 0.5006
H12 H 0.2982 0.6325 0.5521
H13 H 0.3843 0.5193 0.5880
C15 C 0.4401(4) 0.8509(3) 0.85713(15)
H14 H 0.4284 0.8869 0.9141
C16 C 0.6116(4) 0.8979(3) 0.82840(15)
C17 C 0.7767(4) 0.9977(3) 0.88160(16)
C18 C 0.8465(4) 0.9338(3) 0.74989(16)
C19 C 0.9725(4) 0.9301(3) 0.68092(17)
C20 C 1.1704(5) 0.9995(3) 0.6951(2)
H15 H 1.2228 1.0530 0.7487
C21 C 1.2878(6) 0.9883(4) 0.6290(3)
H16 H 1.4204 1.0343 0.6382
C22 C 1.2112(6) 0.9099(4) 0.5496(3)
H17 H 1.2921 0.9034 0.5054
C23 C 1.0155(6) 0.8409(4) 0.5350(2)
H18 H 0.9642 0.7877 0.4812
C24 C 0.8962(5) 0.8509(4) 0.60050(18)
H19 H 0.7638 0.8044 0.5908

#END
