./LICJEN_from_xyz.cif_generated_by_CrystalShift
_symmetry_cell_setting triclinic
_symmetry_space_group_name_H-M 'P 1'
loop_
_symmetry_equiv_pos_site_id
_symmetry_equiv_pos_as_xyz
1 x,y,z
_cell_length_a 5.798200
_cell_length_b 13.070200
_cell_length_c 15.554000
_cell_angle_alpha 90.000000
_cell_angle_beta 108.191000
_cell_angle_gamma 90.000000
_cell_volume 1119.826563
loop_
_atom_site_label
_atom_site_type_symbol
_atom_site_fract_x
_atom_site_fract_y
_atom_site_fract_z
Cl1 Cl 0.839370 0.443310 0.377400
O2 O 0.170300 0.097210 0.310280
O3 O 0.069800 -0.057350 0.339590
O4 O 0.776900 -0.130110 0.485470
O5 O 0.443400 -0.196670 0.388780
C6 C 0.232300 0.000670 0.346360
C7 C 0.492800 -0.017380 0.390370
C8 C 0.652600 0.059870 0.403600
C9 C 0.735500 0.244500 0.387420
C10 C 0.646000 0.338470 0.354880
C11 C 0.403400 0.351950 0.304620
C12 C 0.246400 0.270510 0.288800
C13 C 0.333200 0.175700 0.323590
C14 C 0.577400 0.160980 0.371940
C15 C 0.586500 -0.120150 0.426790
C16 C 0.529400 -0.297860 0.422820
C17 C 0.324700 -0.369400 0.389700
H18 H 0.815700 0.047370 0.433980
H19 H 0.899230 0.236310 0.419380
H20 H 0.347620 0.416210 0.281720
H21 H 0.084010 0.278950 0.255180
H22 H 0.586700 -0.297510 0.488460
H23 H 0.662430 -0.318380 0.401270
H24 H 0.273320 -0.370990 0.324790
H25 H 0.192380 -0.347200 0.409910
H26 H 0.374910 -0.436630 0.412910
Cl27 Cl 0.160630 0.943310 0.122600
O28 O 0.829700 0.597210 0.189720
O29 O 0.930200 0.442650 0.160410
O30 O 0.223100 0.369890 0.014530
O31 O 0.556600 0.303330 0.111220
C32 C 0.767700 0.500670 0.153640
C33 C 0.507200 0.482620 0.109630
C34 C 0.347400 0.559870 0.096400
C35 C 0.264500 0.744500 0.112580
C36 C 0.354000 0.838470 0.145120
C37 C 0.596600 0.851950 0.195380
C38 C 0.753600 0.770510 0.211200
C39 C 0.666800 0.675700 0.176410
C40 C 0.422600 0.660980 0.128060
C41 C 0.413500 0.379850 0.073210
C42 C 0.470600 0.202140 0.077180
C43 C 0.675300 0.130600 0.110300
H44 H 0.184300 0.547370 0.066020
H45 H 0.100770 0.736310 0.080620
H46 H 0.652380 0.916210 0.218280
H47 H 0.915990 0.778950 0.244820
H48 H 0.413300 0.202490 0.011540
H49 H 0.337570 0.181620 0.098730
H50 H 0.726680 0.129010 0.175210
H51 H 0.807620 0.152800 0.090090
H52 H 0.625090 0.063370 0.087090
Cl53 Cl 0.160630 0.556690 0.622600
O54 O 0.829700 0.902790 0.689720
O55 O 0.930200 1.057350 0.660410
O56 O 0.223100 1.130110 0.514530
O57 O 0.556600 1.196670 0.611220
C58 C 0.767700 0.999330 0.653640
C59 C 0.507200 1.017380 0.609630
C60 C 0.347400 0.940130 0.596400
C61 C 0.264500 0.755500 0.612580
C62 C 0.354000 0.661530 0.645120
C63 C 0.596600 0.648050 0.695380
C64 C 0.753600 0.729490 0.711200
C65 C 0.666800 0.824300 0.676410
C66 C 0.422600 0.839020 0.628060
C67 C 0.413500 1.120150 0.573210
C68 C 0.470600 1.297860 0.577180
C69 C 0.675300 1.369400 0.610300
H70 H 0.184300 0.952630 0.566020
H71 H 0.100770 0.763690 0.580620
H72 H 0.652380 0.583790 0.718280
H73 H 0.915990 0.721050 0.744820
H74 H 0.413300 1.297510 0.511540
H75 H 0.337570 1.318380 0.598730
H76 H 0.726680 1.370990 0.675210
H77 H 0.807620 1.347200 0.590090
H78 H 0.625090 1.436630 0.587090
Cl79 Cl 0.839370 0.056690 0.877400
O80 O 0.170300 0.402790 0.810280
O81 O 0.069800 0.557350 0.839590
O82 O 0.776900 0.630110 0.985470
O83 O 0.443400 0.696670 0.888780
C84 C 0.232300 0.499330 0.846360
C85 C 0.492800 0.517380 0.890370
C86 C 0.652600 0.440130 0.903600
C87 C 0.735500 0.255500 0.887420
C88 C 0.646000 0.161530 0.854880
C89 C 0.403400 0.148050 0.804620
C90 C 0.246400 0.229490 0.788800
C91 C 0.333200 0.324300 0.823590
C92 C 0.577400 0.339020 0.871940
C93 C 0.586500 0.620150 0.926790
C94 C 0.529400 0.797860 0.922820
C95 C 0.324700 0.869400 0.889700
H96 H 0.815700 0.452630 0.933980
H97 H 0.899230 0.263690 0.919380
H98 H 0.347620 0.083790 0.781720
H99 H 0.084010 0.221050 0.755180
H100 H 0.586700 0.797510 0.988460
H101 H 0.662430 0.818380 0.901270
H102 H 0.273320 0.870990 0.824790
H103 H 0.192380 0.847200 0.909910
H104 H 0.374910 0.936630 0.912910

#END
