
#######################################################################
#
#                 Cambridge Crystallographic Data Centre
#                                CCDC 
#
#######################################################################
#
# If this CIF has been generated from an entry in the Cambridge 
# Structural Database, then it will include bibliographic, chemical, 
# crystal, experimental, refinement or atomic coordinate data resulting 
# from the CCDC's data processing and validation procedures.
#
#######################################################################

data_LICJEN
_symmetry_cell_setting           monoclinic
_symmetry_space_group_name_H-M   'P 21/c'
_symmetry_Int_Tables_number      14
_space_group_name_Hall           '-P 2ybc'
loop_
_symmetry_equiv_pos_site_id
_symmetry_equiv_pos_as_xyz
1 x,y,z
2 -x,1/2+y,1/2-z
3 -x,-y,-z
4 x,1/2-y,1/2+z
_cell_length_a                   5.7982(5)
_cell_length_b                   13.0702(12)
_cell_length_c                   15.5540(12)
_cell_angle_alpha                90
_cell_angle_beta                 108.191(3)
_cell_angle_gamma                90
_cell_volume                     1119.83
loop_
_atom_site_label
_atom_site_type_symbol
_atom_site_fract_x
_atom_site_fract_y
_atom_site_fract_z
Cl1 Cl 0.83937(11) 0.44331(4) 0.37740(5)
O1 O 0.1703(2) 0.09721(10) 0.31028(10)
O2 O 0.0698(3) -0.05735(11) 0.33959(12)
O3 O 0.7769(3) -0.13011(11) 0.48547(11)
O4 O 0.4434(3) -0.19667(10) 0.38878(11)
C1 C 0.2323(3) 0.00067(14) 0.34636(13)
C2 C 0.4928(3) -0.01738(14) 0.39037(12)
C3 C 0.6526(3) 0.05987(13) 0.40360(13)
C4 C 0.7355(3) 0.24450(15) 0.38742(14)
C5 C 0.6460(4) 0.33847(15) 0.35488(14)
C6 C 0.4034(4) 0.35195(15) 0.30462(14)
C7 C 0.2464(4) 0.27051(16) 0.28880(14)
C8 C 0.3332(3) 0.17570(14) 0.32359(12)
C9 C 0.5774(3) 0.16098(14) 0.37194(12)
C10 C 0.5865(3) -0.12015(14) 0.42679(13)
C11 C 0.5294(4) -0.29786(16) 0.42282(18)
C12 C 0.3247(6) -0.3694(2) 0.3897(2)
H1 H 0.81570 0.04737 0.43398
H2 H 0.89923 0.23631 0.41938
H3 H 0.34762 0.41621 0.28172
H4 H 0.08401 0.27895 0.25518
H5 H 0.58670 -0.29751 0.48846
H6 H 0.66243 -0.31838 0.40127
H7 H 0.27332 -0.37099 0.32479
H8 H 0.19238 -0.34720 0.40991
H9 H 0.37491 -0.43663 0.41291
Cl1 Cl 0.16063(11) 0.94331(4) 0.12260(5)
O1 O 0.8297(2) 0.59721(10) 0.18972(10)
O2 O 0.9302(3) 0.44265(11) 0.16041(12)
O3 O 0.2231(3) 0.36989(11) 0.01453(11)
O4 O 0.5566(3) 0.30333(10) 0.11122(11)
C1 C 0.7677(3) 0.50067(14) 0.15364(13)
C2 C 0.5072(3) 0.48262(14) 0.10963(12)
C3 C 0.3474(3) 0.55987(13) 0.09640(13)
C4 C 0.2645(3) 0.74450(15) 0.11258(14)
C5 C 0.3540(4) 0.83847(15) 0.14512(14)
C6 C 0.5966(4) 0.85195(15) 0.19538(14)
C7 C 0.7536(4) 0.77051(16) 0.21120(14)
C8 C 0.6668(3) 0.67570(14) 0.17641(12)
C9 C 0.4226(3) 0.66098(14) 0.12806(12)
C10 C 0.4135(3) 0.37985(14) 0.07321(13)
C11 C 0.4706(4) 0.20214(16) 0.07718(18)
C12 C 0.6753(6) 0.1306(2) 0.1103(2)
H1 H 0.18430 0.54737 0.06602
H2 H 0.10077 0.73631 0.08062
H3 H 0.65238 0.91621 0.21828
H4 H 0.91599 0.77895 0.24482
H5 H 0.41330 0.20249 0.01154
H6 H 0.33757 0.18162 0.09873
H7 H 0.72668 0.12901 0.17521
H8 H 0.80762 0.15280 0.09009
H9 H 0.62509 0.06337 0.08709
Cl1 Cl 0.16063(11) 0.55669(4) 0.62260(5)
O1 O 0.8297(2) 0.90279(10) 0.68972(10)
O2 O 0.9302(3) 1.05735(11) 0.66041(12)
O3 O 0.2231(3) 1.13011(11) 0.51453(11)
O4 O 0.5566(3) 1.19667(10) 0.61122(11)
C1 C 0.7677(3) 0.99933(14) 0.65364(13)
C2 C 0.5072(3) 1.01738(14) 0.60963(12)
C3 C 0.3474(3) 0.94013(13) 0.59640(13)
C4 C 0.2645(3) 0.75550(15) 0.61258(14)
C5 C 0.3540(4) 0.66153(15) 0.64512(14)
C6 C 0.5966(4) 0.64805(15) 0.69538(14)
C7 C 0.7536(4) 0.72949(16) 0.71120(14)
C8 C 0.6668(3) 0.82430(14) 0.67641(12)
C9 C 0.4226(3) 0.83902(14) 0.62806(12)
C10 C 0.4135(3) 1.12015(14) 0.57321(13)
C11 C 0.4706(4) 1.29786(16) 0.57718(18)
C12 C 0.6753(6) 1.3694(2) 0.6103(2)
H1 H 0.18430 0.95263 0.56602
H2 H 0.10077 0.76369 0.58062
H3 H 0.65238 0.58379 0.71828
H4 H 0.91599 0.72105 0.74482
H5 H 0.41330 1.29751 0.51154
H6 H 0.33757 1.31838 0.59873
H7 H 0.72668 1.37099 0.67521
H8 H 0.80762 1.34720 0.59009
H9 H 0.62509 1.43663 0.58709
Cl1 Cl 0.83937(11) 0.05669(4) 0.87740(5)
O1 O 0.1703(2) 0.40279(10) 0.81028(10)
O2 O 0.0698(3) 0.55735(11) 0.83959(12)
O3 O 0.7769(3) 0.63011(11) 0.98547(11)
O4 O 0.4434(3) 0.69667(10) 0.88878(11)
C1 C 0.2323(3) 0.49933(14) 0.84636(13)
C2 C 0.4928(3) 0.51738(14) 0.89037(12)
C3 C 0.6526(3) 0.44013(13) 0.90360(13)
C4 C 0.7355(3) 0.25550(15) 0.88742(14)
C5 C 0.6460(4) 0.16153(15) 0.85488(14)
C6 C 0.4034(4) 0.14805(15) 0.80462(14)
C7 C 0.2464(4) 0.22949(16) 0.78880(14)
C8 C 0.3332(3) 0.32430(14) 0.82359(12)
C9 C 0.5774(3) 0.33902(14) 0.87194(12)
C10 C 0.5865(3) 0.62015(14) 0.92679(13)
C11 C 0.5294(4) 0.79786(16) 0.92282(18)
C12 C 0.3247(6) 0.8694(2) 0.8897(2)
H1 H 0.81570 0.45263 0.93398
H2 H 0.89923 0.26369 0.91938
H3 H 0.34762 0.08379 0.78172
H4 H 0.08401 0.22105 0.75518
H5 H 0.58670 0.79751 0.98846
H6 H 0.66243 0.81838 0.90127
H7 H 0.27332 0.87099 0.82479
H8 H 0.19238 0.84720 0.90991
H9 H 0.37491 0.93663 0.91291

#END
