
#######################################################################
#
#                 Cambridge Crystallographic Data Centre
#                                CCDC 
#
#######################################################################
#
# If this CIF has been generated from an entry in the Cambridge 
# Structural Database, then it will include bibliographic, chemical, 
# crystal, experimental, refinement or atomic coordinate data resulting 
# from the CCDC's data processing and validation procedures.
#
#######################################################################

data_LICKIS
_symmetry_cell_setting           orthorhombic
_symmetry_space_group_name_H-M   'P 21 21 21'
_symmetry_Int_Tables_number      19
_space_group_name_Hall           'P 2ac 2ab'
loop_
_symmetry_equiv_pos_site_id
_symmetry_equiv_pos_as_xyz
1 x,y,z
2 1/2-x,-y,1/2+z
3 -x,1/2+y,1/2-z
4 1/2+x,1/2-y,-z
_cell_length_a                   9.1548(5)
_cell_length_b                   9.3937(5)
_cell_length_c                   16.7305(10)
_cell_angle_alpha                90
_cell_angle_beta                 90
_cell_angle_gamma                90
_cell_volume                     1438.78
loop_
_atom_site_label
_atom_site_type_symbol
_atom_site_fract_x
_atom_site_fract_y
_atom_site_fract_z
O1 O 0.49258(14) 1.00349(13) -0.14016(7)
H1 H 0.5503 1.0444 -0.1086
O2 O 0.34758(13) 0.83846(14) 0.01344(7)
O3 O 0.46207(13) 0.48608(13) 0.06256(8)
O4 O 0.69968(15) 0.13805(15) -0.05119(9)
H2 H 0.7807 0.0961 -0.0523
N1 N 0.56032(15) 0.75367(15) -0.03792(8)
H3 H 0.6518 0.7326 -0.0270
N2 N 0.69365(16) 0.42920(15) 0.09785(9)
H4 H 0.7759 0.4608 0.1185
C1 C 0.5573(2) 0.87528(18) -0.16833(10)
H5 H 0.6649 0.8847 -0.1657
H6 H 0.5301 0.8614 -0.2251
C2 C 0.51147(18) 0.74457(18) -0.12099(9)
H7 H 0.4025 0.7378 -0.1217
C3 C 0.5746(2) 0.61087(19) -0.15947(11)
H8 H 0.6816 0.6150 -0.1577
H9 H 0.5423 0.6050 -0.2152
H10 H 0.5407 0.5267 -0.1302
C4 C 0.47288(18) 0.79237(17) 0.02198(10)
C5 C 0.53950(18) 0.78344(18) 0.10460(10)
C6 C 0.5425(2) 0.9075(2) 0.14997(11)
H11 H 0.5005 0.9924 0.1293
C7 C 0.6066(2) 0.9080(2) 0.22533(11)
H12 H 0.6084 0.9932 0.2559
C8 C 0.6677(2) 0.7848(2) 0.25593(10)
H13 H 0.7127 0.7857 0.3071
C9 C 0.66311(18) 0.6598(2) 0.21169(10)
H14 H 0.7041 0.5750 0.2330
C10 C 0.59847(18) 0.65806(18) 0.13588(9)
C11 C 0.58002(18) 0.51709(18) 0.09402(9)
C12 C 0.68780(19) 0.28252(17) 0.06926(10)
H15 H 0.5871 0.2447 0.0786
C13 C 0.7952(2) 0.1921(2) 0.11607(12)
H16 H 0.8941 0.2299 0.1090
H17 H 0.7915 0.0938 0.0966
H18 H 0.7694 0.1942 0.1729
C14 C 0.7188(2) 0.27850(19) -0.02015(11)
H19 H 0.6520 0.3448 -0.0481
H20 H 0.8203 0.3104 -0.0301
O1 O 1.00742(14) -0.00349(13) 0.35984(7)
H1 H 0.9497 -0.0444 0.3914
O2 O 1.15242(13) 0.16154(14) 0.51344(7)
O3 O 1.03793(13) 0.51392(13) 0.56256(8)
O4 O 0.80032(15) 0.86195(15) 0.44881(9)
H2 H 0.7193 0.9039 0.4477
N1 N 0.93968(15) 0.24633(15) 0.46208(8)
H3 H 0.8482 0.2674 0.4730
N2 N 0.80635(16) 0.57080(15) 0.59785(9)
H4 H 0.7241 0.5392 0.6185
C1 C 0.9427(2) 0.12472(18) 0.33167(10)
H5 H 0.8351 0.1153 0.3343
H6 H 0.9699 0.1386 0.2749
C2 C 0.98853(18) 0.25543(18) 0.37901(9)
H7 H 1.0975 0.2622 0.3783
C3 C 0.9254(2) 0.38913(19) 0.34053(11)
H8 H 0.8184 0.3850 0.3423
H9 H 0.9577 0.3950 0.2848
H10 H 0.9593 0.4733 0.3698
C4 C 1.02712(18) 0.20763(17) 0.52198(10)
C5 C 0.96050(18) 0.21656(18) 0.60460(10)
C6 C 0.9575(2) 0.0925(2) 0.64997(11)
H11 H 0.9995 0.0076 0.6293
C7 C 0.8934(2) 0.0920(2) 0.72533(11)
H12 H 0.8916 0.0068 0.7559
C8 C 0.8323(2) 0.2152(2) 0.75593(10)
H13 H 0.7873 0.2143 0.8071
C9 C 0.83689(18) 0.3402(2) 0.71169(10)
H14 H 0.7959 0.4250 0.7330
C10 C 0.90153(18) 0.34194(18) 0.63588(9)
C11 C 0.91998(18) 0.48291(18) 0.59402(9)
C12 C 0.81220(19) 0.71748(17) 0.56926(10)
H15 H 0.9129 0.7553 0.5786
C13 C 0.7048(2) 0.8079(2) 0.61607(12)
H16 H 0.6059 0.7701 0.6090
H17 H 0.7085 0.9062 0.5966
H18 H 0.7306 0.8058 0.6729
C14 C 0.7812(2) 0.72150(19) 0.47985(11)
H19 H 0.8480 0.6552 0.4519
H20 H 0.6797 0.6896 0.4699
O1 O 0.50742(14) 0.50349(13) 0.64016(7)
H1 H 0.4497 0.5444 0.6086
O2 O 0.65242(13) 0.33846(14) 0.48656(7)
O3 O 0.53793(13) -0.01392(13) 0.43744(8)
O4 O 0.30032(15) -0.36195(15) 0.55119(9)
H2 H 0.2193 -0.4039 0.5523
N1 N 0.43968(15) 0.25367(15) 0.53792(8)
H3 H 0.3482 0.2326 0.5270
N2 N 0.30635(16) -0.07080(15) 0.40215(9)
H4 H 0.2241 -0.0392 0.3815
C1 C 0.4427(2) 0.37528(18) 0.66833(10)
H5 H 0.3351 0.3847 0.6657
H6 H 0.4699 0.3614 0.7251
C2 C 0.48853(18) 0.24457(18) 0.62099(9)
H7 H 0.5975 0.2378 0.6217
C3 C 0.4254(2) 0.11087(19) 0.65947(11)
H8 H 0.3184 0.1150 0.6577
H9 H 0.4577 0.1050 0.7152
H10 H 0.4593 0.0267 0.6302
C4 C 0.52712(18) 0.29237(17) 0.47802(10)
C5 C 0.46050(18) 0.28344(18) 0.39540(10)
C6 C 0.4575(2) 0.4075(2) 0.35003(11)
H11 H 0.4995 0.4924 0.3707
C7 C 0.3934(2) 0.4080(2) 0.27467(11)
H12 H 0.3916 0.4932 0.2441
C8 C 0.3323(2) 0.2848(2) 0.24407(10)
H13 H 0.2873 0.2857 0.1929
C9 C 0.33689(18) 0.1598(2) 0.28831(10)
H14 H 0.2959 0.0750 0.2670
C10 C 0.40153(18) 0.15806(18) 0.36412(9)
C11 C 0.41998(18) 0.01709(18) 0.40598(9)
C12 C 0.31220(19) -0.21748(17) 0.43074(10)
H15 H 0.4129 -0.2553 0.4214
C13 C 0.2048(2) -0.3079(2) 0.38393(12)
H16 H 0.1059 -0.2701 0.3910
H17 H 0.2085 -0.4062 0.4034
H18 H 0.2306 -0.3058 0.3271
C14 C 0.2812(2) -0.22150(19) 0.52015(11)
H19 H 0.3480 -0.1552 0.5481
H20 H 0.1797 -0.1896 0.5301
O1 O -0.00742(14) 0.49651(13) 1.14016(7)
H1 H 0.0503 0.4556 1.1086
O2 O -0.15242(13) 0.66154(14) 0.98656(7)
O3 O -0.03793(13) 1.01392(13) 0.93744(8)
O4 O 0.19968(15) 1.36195(15) 1.05119(9)
H2 H 0.2807 1.4039 1.0523
N1 N 0.06032(15) 0.74633(15) 1.03792(8)
H3 H 0.1518 0.7674 1.0270
N2 N 0.19365(16) 1.07080(15) 0.90215(9)
H4 H 0.2759 1.0392 0.8815
C1 C 0.0573(2) 0.62472(18) 1.16833(10)
H5 H 0.1649 0.6153 1.1657
H6 H 0.0301 0.6386 1.2251
C2 C 0.01147(18) 0.75543(18) 1.12099(9)
H7 H -0.0975 0.7622 1.1217
C3 C 0.0746(2) 0.88913(19) 1.15947(11)
H8 H 0.1816 0.8850 1.1577
H9 H 0.0423 0.8950 1.2152
H10 H 0.0407 0.9733 1.1302
C4 C -0.02712(18) 0.70763(17) 0.97802(10)
C5 C 0.03950(18) 0.71656(18) 0.89540(10)
C6 C 0.0425(2) 0.5925(2) 0.85003(11)
H11 H 0.0005 0.5076 0.8707
C7 C 0.1066(2) 0.5920(2) 0.77467(11)
H12 H 0.1084 0.5068 0.7441
C8 C 0.1677(2) 0.7152(2) 0.74407(10)
H13 H 0.2127 0.7143 0.6929
C9 C 0.16311(18) 0.8402(2) 0.78831(10)
H14 H 0.2041 0.9250 0.7670
C10 C 0.09847(18) 0.84194(18) 0.86412(9)
C11 C 0.08002(18) 0.98291(18) 0.90598(9)
C12 C 0.18780(19) 1.21748(17) 0.93074(10)
H15 H 0.0871 1.2553 0.9214
C13 C 0.2952(2) 1.3079(2) 0.88393(12)
H16 H 0.3941 1.2701 0.8910
H17 H 0.2915 1.4062 0.9034
H18 H 0.2694 1.3058 0.8271
C14 C 0.2188(2) 1.22150(19) 1.02015(11)
H19 H 0.1520 1.1552 1.0481
H20 H 0.3203 1.1896 1.0301

#END
