./LICKIS_from_xyz.cif_generated_by_CrystalShift
_symmetry_cell_setting triclinic
_symmetry_space_group_name_H-M 'P 1'
loop_
_symmetry_equiv_pos_site_id
_symmetry_equiv_pos_as_xyz
1 x,y,z
_cell_length_a 9.154800
_cell_length_b 9.393700
_cell_length_c 16.730500
_cell_angle_alpha 90.000000
_cell_angle_beta 90.000000
_cell_angle_gamma 90.000000
_cell_volume 1438.780250
loop_
_atom_site_label
_atom_site_type_symbol
_atom_site_fract_x
_atom_site_fract_y
_atom_site_fract_z
O1 O 0.492580 1.003490 -0.140160
H2 H 0.550300 1.044400 -0.108600
O3 O 0.347580 0.838460 0.013440
O4 O 0.462070 0.486080 0.062560
O5 O 0.699680 0.138050 -0.051190
H6 H 0.780700 0.096100 -0.052300
N7 N 0.560320 0.753670 -0.037920
H8 H 0.651800 0.732600 -0.027000
N9 N 0.693650 0.429200 0.097850
H10 H 0.775900 0.460800 0.118500
C11 C 0.557300 0.875280 -0.168330
H12 H 0.664900 0.884700 -0.165700
H13 H 0.530100 0.861400 -0.225100
C14 C 0.511470 0.744570 -0.120990
H15 H 0.402500 0.737800 -0.121700
C16 C 0.574600 0.610870 -0.159470
H17 H 0.681600 0.615000 -0.157700
H18 H 0.542300 0.605000 -0.215200
H19 H 0.540700 0.526700 -0.130200
C20 C 0.472880 0.792370 0.021980
C21 C 0.539500 0.783440 0.104600
C22 C 0.542500 0.907500 0.149970
H23 H 0.500500 0.992400 0.129300
C24 C 0.606600 0.908000 0.225330
H25 H 0.608400 0.993200 0.255900
C26 C 0.667700 0.784800 0.255930
H27 H 0.712700 0.785700 0.307100
C28 C 0.663110 0.659800 0.211690
H29 H 0.704100 0.575000 0.233000
C30 C 0.598470 0.658060 0.135880
C31 C 0.580020 0.517090 0.094020
C32 C 0.687800 0.282520 0.069260
H33 H 0.587100 0.244700 0.078600
C34 C 0.795200 0.192100 0.116070
H35 H 0.894100 0.229900 0.109000
H36 H 0.791500 0.093800 0.096600
H37 H 0.769400 0.194200 0.172900
C38 C 0.718800 0.278500 -0.020150
H39 H 0.652000 0.344800 -0.048100
H40 H 0.820300 0.310400 -0.030100
O41 O 1.007420 -0.003490 0.359840
H42 H 0.949700 -0.044400 0.391400
O43 O 1.152420 0.161540 0.513440
O44 O 1.037930 0.513920 0.562560
O45 O 0.800320 0.861950 0.448810
H46 H 0.719300 0.903900 0.447700
N47 N 0.939680 0.246330 0.462080
H48 H 0.848200 0.267400 0.473000
N49 N 0.806350 0.570800 0.597850
H50 H 0.724100 0.539200 0.618500
C51 C 0.942700 0.124720 0.331670
H52 H 0.835100 0.115300 0.334300
H53 H 0.969900 0.138600 0.274900
C54 C 0.988530 0.255430 0.379010
H55 H 1.097500 0.262200 0.378300
C56 C 0.925400 0.389130 0.340530
H57 H 0.818400 0.385000 0.342300
H58 H 0.957700 0.395000 0.284800
H59 H 0.959300 0.473300 0.369800
C60 C 1.027120 0.207630 0.521980
C61 C 0.960500 0.216560 0.604600
C62 C 0.957500 0.092500 0.649970
H63 H 0.999500 0.007600 0.629300
C64 C 0.893400 0.092000 0.725330
H65 H 0.891600 0.006800 0.755900
C66 C 0.832300 0.215200 0.755930
H67 H 0.787300 0.214300 0.807100
C68 C 0.836890 0.340200 0.711690
H69 H 0.795900 0.425000 0.733000
C70 C 0.901530 0.341940 0.635880
C71 C 0.919980 0.482910 0.594020
C72 C 0.812200 0.717480 0.569260
H73 H 0.912900 0.755300 0.578600
C74 C 0.704800 0.807900 0.616070
H75 H 0.605900 0.770100 0.609000
H76 H 0.708500 0.906200 0.596600
H77 H 0.730600 0.805800 0.672900
C78 C 0.781200 0.721500 0.479850
H79 H 0.848000 0.655200 0.451900
H80 H 0.679700 0.689600 0.469900
O81 O 0.507420 0.503490 0.640160
H82 H 0.449700 0.544400 0.608600
O83 O 0.652420 0.338460 0.486560
O84 O 0.537930 -0.013920 0.437440
O85 O 0.300320 -0.361950 0.551190
H86 H 0.219300 -0.403900 0.552300
N87 N 0.439680 0.253670 0.537920
H88 H 0.348200 0.232600 0.527000
N89 N 0.306350 -0.070800 0.402150
H90 H 0.224100 -0.039200 0.381500
C91 C 0.442700 0.375280 0.668330
H92 H 0.335100 0.384700 0.665700
H93 H 0.469900 0.361400 0.725100
C94 C 0.488530 0.244570 0.620990
H95 H 0.597500 0.237800 0.621700
C96 C 0.425400 0.110870 0.659470
H97 H 0.318400 0.115000 0.657700
H98 H 0.457700 0.105000 0.715200
H99 H 0.459300 0.026700 0.630200
C100 C 0.527120 0.292370 0.478020
C101 C 0.460500 0.283440 0.395400
C102 C 0.457500 0.407500 0.350030
H103 H 0.499500 0.492400 0.370700
C104 C 0.393400 0.408000 0.274670
H105 H 0.391600 0.493200 0.244100
C106 C 0.332300 0.284800 0.244070
H107 H 0.287300 0.285700 0.192900
C108 C 0.336890 0.159800 0.288310
H109 H 0.295900 0.075000 0.267000
C110 C 0.401530 0.158060 0.364120
C111 C 0.419980 0.017090 0.405980
C112 C 0.312200 -0.217480 0.430740
H113 H 0.412900 -0.255300 0.421400
C114 C 0.204800 -0.307900 0.383930
H115 H 0.105900 -0.270100 0.391000
H116 H 0.208500 -0.406200 0.403400
H117 H 0.230600 -0.305800 0.327100
C118 C 0.281200 -0.221500 0.520150
H119 H 0.348000 -0.155200 0.548100
H120 H 0.179700 -0.189600 0.530100
O121 O -0.007420 0.496510 1.140160
H122 H 0.050300 0.455600 1.108600
O123 O -0.152420 0.661540 0.986560
O124 O -0.037930 1.013920 0.937440
O125 O 0.199680 1.361950 1.051190
H126 H 0.280700 1.403900 1.052300
N127 N 0.060320 0.746330 1.037920
H128 H 0.151800 0.767400 1.027000
N129 N 0.193650 1.070800 0.902150
H130 H 0.275900 1.039200 0.881500
C131 C 0.057300 0.624720 1.168330
H132 H 0.164900 0.615300 1.165700
H133 H 0.030100 0.638600 1.225100
C134 C 0.011470 0.755430 1.120990
H135 H -0.097500 0.762200 1.121700
C136 C 0.074600 0.889130 1.159470
H137 H 0.181600 0.885000 1.157700
H138 H 0.042300 0.895000 1.215200
H139 H 0.040700 0.973300 1.130200
C140 C -0.027120 0.707630 0.978020
C141 C 0.039500 0.716560 0.895400
C142 C 0.042500 0.592500 0.850030
H143 H 0.000500 0.507600 0.870700
C144 C 0.106600 0.592000 0.774670
H145 H 0.108400 0.506800 0.744100
C146 C 0.167700 0.715200 0.744070
H147 H 0.212700 0.714300 0.692900
C148 C 0.163110 0.840200 0.788310
H149 H 0.204100 0.925000 0.767000
C150 C 0.098470 0.841940 0.864120
C151 C 0.080020 0.982910 0.905980
C152 C 0.187800 1.217480 0.930740
H153 H 0.087100 1.255300 0.921400
C154 C 0.295200 1.307900 0.883930
H155 H 0.394100 1.270100 0.891000
H156 H 0.291500 1.406200 0.903400
H157 H 0.269400 1.305800 0.827100
C158 C 0.218800 1.221500 1.020150
H159 H 0.152000 1.155200 1.048100
H160 H 0.320300 1.189600 1.030100

#END
