
#######################################################################
#
#                 Cambridge Crystallographic Data Centre
#                                CCDC 
#
#######################################################################
#
# If this CIF has been generated from an entry in the Cambridge 
# Structural Database, then it will include bibliographic, chemical, 
# crystal, experimental, refinement or atomic coordinate data resulting 
# from the CCDC's data processing and validation procedures.
#
#######################################################################

data_LICLOY01
_symmetry_cell_setting           triclinic
_symmetry_space_group_name_H-M   'P -1'
_symmetry_Int_Tables_number      2
_space_group_name_Hall           '-P 1'
loop_
_symmetry_equiv_pos_site_id
_symmetry_equiv_pos_as_xyz
1 x,y,z
2 -x,-y,-z
_cell_length_a                   9.3259(19)
_cell_length_b                   10.523(2)
_cell_length_c                   12.231(2)
_cell_angle_alpha                79.39(3)
_cell_angle_beta                 81.48(3)
_cell_angle_gamma                80.66(3)
_cell_volume                     1155.46
loop_
_atom_site_label
_atom_site_type_symbol
_atom_site_fract_x
_atom_site_fract_y
_atom_site_fract_z
S1 S 1.09833(4) 0.55403(4) 0.61203(3)
O1 O 1.18496(13) 0.69701(12) 0.41090(11)
O2 O 0.97033(14) 0.34005(13) 0.90633(11)
N1 N 0.75917(16) 0.52394(16) 0.83931(13)
H1 H 0.7782 0.4484 0.8794
N2 N 0.82986(14) 0.65061(13) 0.66186(11)
C1 C 1.06355(17) 0.89384(17) 0.31563(14)
C2 C 1.15251(18) 0.88887(18) 0.21347(15)
H2 H 1.2193 0.8125 0.2030
C3 C 1.1439(2) 0.9945(2) 0.12761(16)
H3 H 1.2045 0.9899 0.0585
C4 C 1.0477(2) 1.10723(19) 0.14127(16)
H4 H 1.0407 1.1787 0.0813
C5 C 0.9618(2) 1.11466(19) 0.24305(17)
H5 H 0.8976 1.1924 0.2538
C6 C 0.9695(2) 1.00853(18) 0.32949(16)
H6 H 0.9099 1.0142 0.3989
C7 C 1.07091(18) 0.77671(17) 0.40610(14)
C8 C 0.94414(18) 0.76148(17) 0.48675(14)
H7 H 0.8554 0.8180 0.4754
C9 C 0.94878(17) 0.66731(16) 0.57944(14)
C10 C 0.68374(17) 0.69973(16) 0.63343(13)
C11 C 0.62132(19) 0.82605(17) 0.64439(15)
H8 H 0.6723 0.8817 0.6727
C12 C 0.4818(2) 0.86951(19) 0.61289(16)
H9 H 0.4366 0.9558 0.6198
C13 C 0.40908(19) 0.7878(2) 0.57179(16)
H10 H 0.3140 0.8183 0.5505
C14 C 0.47320(19) 0.66190(19) 0.56119(15)
H11 H 0.4220 0.6061 0.5333
C15 C 0.61216(18) 0.61746(17) 0.59127(14)
H12 H 0.6578 0.5317 0.5831
C16 C 0.85960(18) 0.55498(16) 0.75207(14)
C17 C 0.62481(17) 0.60095(16) 0.87435(14)
C18 C 0.6265(2) 0.70598(19) 0.92779(16)
H13 H 0.7168 0.7307 0.9375
C19 C 0.4945(2) 0.77464(19) 0.96695(17)
H14 H 0.4946 0.8468 1.0035
C20 C 0.3635(2) 0.73881(19) 0.95314(16)
H15 H 0.2736 0.7865 0.9797
C21 C 0.36311(19) 0.63376(19) 0.90081(16)
H16 H 0.2728 0.6090 0.8912
C22 C 0.49384(19) 0.56406(17) 0.86212(14)
H17 H 0.4932 0.4908 0.8271
C23 C 1.00252(17) 0.49077(17) 0.74117(14)
C24 C 1.05145(18) 0.37954(17) 0.81954(14)
C25 C 1.19848(18) 0.30161(16) 0.79652(14)
C26 C 1.32260(18) 0.35658(17) 0.74525(14)
H18 H 1.3162 0.4485 0.7229
C27 C 1.45539(18) 0.27843(18) 0.72660(15)
H19 H 1.5400 0.3168 0.6927
C28 C 1.4645(2) 0.14455(18) 0.75737(16)
H20 H 1.5552 0.0907 0.7436
C29 C 1.3416(2) 0.08877(18) 0.80819(17)
H21 H 1.3482 -0.0034 0.8287
C30 C 1.20941(19) 0.16634(17) 0.82926(15)
H22 H 1.1261 0.1277 0.8660
S1 S -0.09833(4) 0.44597(4) 0.38797(3)
O1 O -0.18496(13) 0.30299(12) 0.58910(11)
O2 O 0.02967(14) 0.65995(13) 0.09367(11)
N1 N 0.24083(16) 0.47606(16) 0.16069(13)
H1 H 0.2218 0.5516 0.1206
N2 N 0.17014(14) 0.34939(13) 0.33814(11)
C1 C -0.06355(17) 0.10616(17) 0.68437(14)
C2 C -0.15251(18) 0.11113(18) 0.78653(15)
H2 H -0.2193 0.1875 0.7970
C3 C -0.1439(2) 0.0055(2) 0.87239(16)
H3 H -0.2045 0.0101 0.9415
C4 C -0.0477(2) -0.10723(19) 0.85873(16)
H4 H -0.0407 -0.1787 0.9187
C5 C 0.0382(2) -0.11466(19) 0.75695(17)
H5 H 0.1024 -0.1924 0.7462
C6 C 0.0305(2) -0.00853(18) 0.67051(16)
H6 H 0.0901 -0.0142 0.6011
C7 C -0.07091(18) 0.22329(17) 0.59390(14)
C8 C 0.05586(18) 0.23852(17) 0.51325(14)
H7 H 0.1446 0.1820 0.5246
C9 C 0.05122(17) 0.33269(16) 0.42056(14)
C10 C 0.31626(17) 0.30027(16) 0.36657(13)
C11 C 0.37868(19) 0.17395(17) 0.35561(15)
H8 H 0.3277 0.1183 0.3273
C12 C 0.5182(2) 0.13049(19) 0.38711(16)
H9 H 0.5634 0.0442 0.3802
C13 C 0.59092(19) 0.2122(2) 0.42821(16)
H10 H 0.6860 0.1817 0.4495
C14 C 0.52680(19) 0.33810(19) 0.43881(15)
H11 H 0.5780 0.3939 0.4667
C15 C 0.38784(18) 0.38254(17) 0.40873(14)
H12 H 0.3422 0.4683 0.4169
C16 C 0.14040(18) 0.44502(16) 0.24793(14)
C17 C 0.37519(17) 0.39905(16) 0.12565(14)
C18 C 0.3735(2) 0.29402(19) 0.07221(16)
H13 H 0.2832 0.2693 0.0625
C19 C 0.5055(2) 0.22536(19) 0.03305(17)
H14 H 0.5054 0.1532 -0.0035
C20 C 0.6365(2) 0.26119(19) 0.04686(16)
H15 H 0.7264 0.2135 0.0203
C21 C 0.63689(19) 0.36624(19) 0.09919(16)
H16 H 0.7272 0.3910 0.1088
C22 C 0.50616(19) 0.43594(17) 0.13788(14)
H17 H 0.5068 0.5092 0.1729
C23 C -0.00252(17) 0.50923(17) 0.25883(14)
C24 C -0.05145(18) 0.62046(17) 0.18046(14)
C25 C -0.19848(18) 0.69839(16) 0.20348(14)
C26 C -0.32260(18) 0.64342(17) 0.25475(14)
H18 H -0.3162 0.5515 0.2771
C27 C -0.45539(18) 0.72157(18) 0.27340(15)
H19 H -0.5400 0.6832 0.3073
C28 C -0.4645(2) 0.85545(18) 0.24263(16)
H20 H -0.5552 0.9093 0.2564
C29 C -0.3416(2) 0.91123(18) 0.19181(17)
H21 H -0.3482 1.0034 0.1713
C30 C -0.20941(19) 0.83366(17) 0.17074(15)
H22 H -0.1261 0.8723 0.1340

#END
