./LAFKUA_from_xyz.cif_generated_by_CrystalShift
_symmetry_cell_setting triclinic
_symmetry_space_group_name_H-M 'P 1'
loop_
_symmetry_equiv_pos_site_id
_symmetry_equiv_pos_as_xyz
1 x,y,z
_cell_length_a 8.695200
_cell_length_b 9.906000
_cell_length_c 11.282000
_cell_angle_alpha 72.050000
_cell_angle_beta 67.620000
_cell_angle_gamma 80.990000
_cell_volume 853.986829
loop_
_atom_site_label
_atom_site_type_symbol
_atom_site_fract_x
_atom_site_fract_y
_atom_site_fract_z
O1 O 0.546500 0.415700 0.386100
O2 O 0.592000 0.306400 0.683300
H3 H 0.547100 0.392000 0.656200
N4 N 0.754900 0.254000 0.335800
N5 N 0.862900 0.187200 0.237200
C6 C 0.801000 0.040500 0.284500
H7 H 0.893000 -0.025600 0.252800
C8 C 0.742500 0.006100 0.437600
H9 H 0.829900 -0.046000 0.469300
H10 H 0.644900 -0.050800 0.479200
C11 C 0.700800 0.151000 0.470300
H12 H 0.580600 0.163200 0.515700
C13 C 0.660000 0.370800 0.299600
C14 C 0.703100 0.443000 0.153000
H15 H 0.633000 0.527300 0.141000
H16 H 0.686300 0.379700 0.109900
H17 H 0.817500 0.468000 0.114600
C18 C 1.034300 0.207600 0.197400
C19 C 1.150600 0.131400 0.113500
H20 H 1.115500 0.062400 0.090400
C21 C 1.317400 0.158600 0.065300
H22 H 1.393700 0.107000 0.010100
C23 C 1.373100 0.260800 0.097100
H24 H 1.485900 0.277800 0.064200
C25 C 1.258700 0.337600 0.178800
H26 H 1.295000 0.406900 0.200900
C27 C 1.090500 0.312300 0.228100
H28 H 1.014700 0.365400 0.282000
C29 C 0.663800 0.036400 0.234200
H30 H 0.706700 0.062200 0.138600
H31 H 0.574300 0.102100 0.264500
H32 H 0.623300 -0.057800 0.267600
C33 C 0.794300 0.162000 0.557000
H34 H 0.912700 0.150500 0.509400
H35 H 0.764400 0.083700 0.637300
C36 C 0.762700 0.300600 0.597900
H37 H 0.781300 0.381100 0.517900
C38 C 0.881700 0.305400 0.664600
C39 C 0.834400 0.273600 0.802500
H40 H 0.724200 0.253900 0.855800
C41 C 0.948100 0.270700 0.861200
H42 H 0.913100 0.249900 0.953500
C43 C 1.114800 0.298400 0.785100
H44 H 1.191200 0.295100 0.825500
C45 C 1.164200 0.331300 0.646600
H46 H 1.274500 0.350600 0.593500
C47 C 1.047800 0.335200 0.588300
H48 H 1.081800 0.358200 0.496000
O49 O 0.453500 0.584300 0.613900
O50 O 0.408000 0.693600 0.316700
H51 H 0.452900 0.608000 0.343800
N52 N 0.245100 0.746000 0.664200
N53 N 0.137100 0.812800 0.762800
C54 C 0.199000 0.959500 0.715500
H55 H 0.107000 1.025600 0.747200
C56 C 0.257500 0.993900 0.562400
H57 H 0.170100 1.046000 0.530700
H58 H 0.355100 1.050800 0.520800
C59 C 0.299200 0.849000 0.529700
H60 H 0.419400 0.836800 0.484300
C61 C 0.340000 0.629200 0.700400
C62 C 0.296900 0.557000 0.847000
H63 H 0.367000 0.472700 0.859000
H64 H 0.313700 0.620300 0.890100
H65 H 0.182500 0.532000 0.885400
C66 C -0.034300 0.792400 0.802600
C67 C -0.150600 0.868600 0.886500
H68 H -0.115500 0.937600 0.909600
C69 C -0.317400 0.841400 0.934700
H70 H -0.393700 0.893000 0.989900
C71 C -0.373100 0.739200 0.902900
H72 H -0.485900 0.722200 0.935800
C73 C -0.258700 0.662400 0.821200
H74 H -0.295000 0.593100 0.799100
C75 C -0.090500 0.687700 0.771900
H76 H -0.014700 0.634600 0.718000
C77 C 0.336200 0.963600 0.765800
H78 H 0.293300 0.937800 0.861400
H79 H 0.425700 0.897900 0.735500
H80 H 0.376700 1.057800 0.732400
C81 C 0.205700 0.838000 0.443000
H82 H 0.087300 0.849500 0.490600
H83 H 0.235600 0.916300 0.362700
C84 C 0.237300 0.699400 0.402100
H85 H 0.218700 0.618900 0.482100
C86 C 0.118300 0.694600 0.335400
C87 C 0.165600 0.726400 0.197500
H88 H 0.275800 0.746100 0.144200
C89 C 0.051900 0.729300 0.138800
H90 H 0.086900 0.750100 0.046500
C91 C -0.114800 0.701600 0.214900
H92 H -0.191200 0.704900 0.174500
C93 C -0.164200 0.668700 0.353400
H94 H -0.274500 0.649400 0.406500
C95 C -0.047800 0.664800 0.411700
H96 H -0.081800 0.641800 0.504000

#END
