./LAFKEL_from_xyz.cif_generated_by_CrystalShift
_symmetry_cell_setting triclinic
_symmetry_space_group_name_H-M 'P 1'
loop_
_symmetry_equiv_pos_site_id
_symmetry_equiv_pos_as_xyz
1 x,y,z
_cell_length_a 15.173900
_cell_length_b 10.979200
_cell_length_c 8.286160
_cell_angle_alpha 90.000000
_cell_angle_beta 96.222000
_cell_angle_gamma 90.000000
_cell_volume 1372.320128
loop_
_atom_site_label
_atom_site_type_symbol
_atom_site_fract_x
_atom_site_fract_y
_atom_site_fract_z
O1 O 0.557910 0.320200 0.461930
O2 O 0.973560 0.367630 0.683200
N3 N 0.585850 0.476600 0.305450
C4 C 0.710540 0.385330 0.482820
C5 C 0.618910 0.397820 0.410660
C6 C 0.886160 0.367990 0.621990
C7 C 0.478390 0.356130 0.378160
C8 C 0.860900 0.460250 0.511730
H9 H 0.902700 0.516300 0.484000
C10 C 0.774260 0.469090 0.443310
H11 H 0.758000 0.531400 0.370100
C12 C 0.736810 0.293030 0.591520
H13 H 0.695300 0.236100 0.618000
C14 C 0.823670 0.283860 0.661610
H15 H 0.840100 0.221600 0.734900
C16 C 0.495020 0.450910 0.283900
C17 C 0.397970 0.287810 0.410100
H18 H 0.400900 0.206700 0.367800
H19 H 0.346400 0.328200 0.358100
H20 H 0.394500 0.284200 0.524900
C21 C 1.001630 0.281110 0.806700
H22 H 0.995300 0.199100 0.763400
H23 H 0.965500 0.288300 0.895900
C24 C 1.097230 0.306380 0.865400
H25 H 1.131300 0.305600 0.772900
H26 H 1.119400 0.241200 0.937700
C27 C 0.431940 0.525770 0.175780
H28 H 0.443000 0.610600 0.197800
H29 H 0.372300 0.506300 0.195100
H30 H 0.439700 0.508800 0.064600
C31 C 1.112500 0.426330 0.953100
H32 H 1.074600 0.430400 1.040000
H33 H 1.095600 0.492200 0.878000
C34 C 1.207690 0.444700 1.023800
H35 H 1.245500 0.443500 0.938100
H36 H 1.224700 0.380500 1.099500
H37 H 1.213300 0.521700 1.078700
O38 O 0.442090 0.820200 1.038070
O39 O 0.026440 0.867630 0.816800
N40 N 0.414150 0.976600 1.194550
C41 C 0.289460 0.885330 1.017180
C42 C 0.381090 0.897820 1.089340
C43 C 0.113840 0.867990 0.878010
C44 C 0.521610 0.856130 1.121840
C45 C 0.139100 0.960250 0.988270
H46 H 0.097300 1.016300 1.016000
C47 C 0.225740 0.969090 1.056690
H48 H 0.242000 1.031400 1.129900
C49 C 0.263190 0.793030 0.908480
H50 H 0.304700 0.736100 0.882000
C51 C 0.176330 0.783860 0.838390
H52 H 0.159900 0.721600 0.765100
C53 C 0.504980 0.950910 1.216100
C54 C 0.602030 0.787810 1.089900
H55 H 0.599100 0.706700 1.132200
H56 H 0.653600 0.828200 1.141900
H57 H 0.605500 0.784200 0.975100
C58 C -0.001630 0.781110 0.693300
H59 H 0.004700 0.699100 0.736600
H60 H 0.034500 0.788300 0.604100
C61 C -0.097230 0.806380 0.634600
H62 H -0.131300 0.805600 0.727100
H63 H -0.119400 0.741200 0.562300
C64 C 0.568060 1.025770 1.324220
H65 H 0.557000 1.110600 1.302200
H66 H 0.627700 1.006300 1.304900
H67 H 0.560300 1.008800 1.435400
C68 C -0.112500 0.926330 0.546900
H69 H -0.074600 0.930400 0.460000
H70 H -0.095600 0.992200 0.622000
C71 C -0.207690 0.944700 0.476200
H72 H -0.245500 0.943500 0.561900
H73 H -0.224700 0.880500 0.400500
H74 H -0.213300 1.021700 0.421300
O75 O 0.442090 0.679800 0.538070
O76 O 0.026440 0.632370 0.316800
N77 N 0.414150 0.523400 0.694550
C78 C 0.289460 0.614670 0.517180
C79 C 0.381090 0.602180 0.589340
C80 C 0.113840 0.632010 0.378010
C81 C 0.521610 0.643870 0.621840
C82 C 0.139100 0.539750 0.488270
H83 H 0.097300 0.483700 0.516000
C84 C 0.225740 0.530910 0.556690
H85 H 0.242000 0.468600 0.629900
C86 C 0.263190 0.706970 0.408480
H87 H 0.304700 0.763900 0.382000
C88 C 0.176330 0.716140 0.338390
H89 H 0.159900 0.778400 0.265100
C90 C 0.504980 0.549090 0.716100
C91 C 0.602030 0.712190 0.589900
H92 H 0.599100 0.793300 0.632200
H93 H 0.653600 0.671800 0.641900
H94 H 0.605500 0.715800 0.475100
C95 C -0.001630 0.718890 0.193300
H96 H 0.004700 0.800900 0.236600
H97 H 0.034500 0.711700 0.104100
C98 C -0.097230 0.693620 0.134600
H99 H -0.131300 0.694400 0.227100
H100 H -0.119400 0.758800 0.062300
C101 C 0.568060 0.474230 0.824220
H102 H 0.557000 0.389400 0.802200
H103 H 0.627700 0.493700 0.804900
H104 H 0.560300 0.491200 0.935400
C105 C -0.112500 0.573670 0.046900
H106 H -0.074600 0.569600 -0.040000
H107 H -0.095600 0.507800 0.122000
C108 C -0.207690 0.555300 -0.023800
H109 H -0.245500 0.556500 0.061900
H110 H -0.224700 0.619500 -0.099500
H111 H -0.213300 0.478300 -0.078700
O112 O 0.557910 0.179800 -0.038070
O113 O 0.973560 0.132370 0.183200
N114 N 0.585850 0.023400 -0.194550
C115 C 0.710540 0.114670 -0.017180
C116 C 0.618910 0.102180 -0.089340
C117 C 0.886160 0.132010 0.121990
C118 C 0.478390 0.143870 -0.121840
C119 C 0.860900 0.039750 0.011730
H120 H 0.902700 -0.016300 -0.016000
C121 C 0.774260 0.030910 -0.056690
H122 H 0.758000 -0.031400 -0.129900
C123 C 0.736810 0.206970 0.091520
H124 H 0.695300 0.263900 0.118000
C125 C 0.823670 0.216140 0.161610
H126 H 0.840100 0.278400 0.234900
C127 C 0.495020 0.049090 -0.216100
C128 C 0.397970 0.212190 -0.089900
H129 H 0.400900 0.293300 -0.132200
H130 H 0.346400 0.171800 -0.141900
H131 H 0.394500 0.215800 0.024900
C132 C 1.001630 0.218890 0.306700
H133 H 0.995300 0.300900 0.263400
H134 H 0.965500 0.211700 0.395900
C135 C 1.097230 0.193620 0.365400
H136 H 1.131300 0.194400 0.272900
H137 H 1.119400 0.258800 0.437700
C138 C 0.431940 -0.025770 -0.324220
H139 H 0.443000 -0.110600 -0.302200
H140 H 0.372300 -0.006300 -0.304900
H141 H 0.439700 -0.008800 -0.435400
C142 C 1.112500 0.073670 0.453100
H143 H 1.074600 0.069600 0.540000
H144 H 1.095600 0.007800 0.378000
C145 C 1.207690 0.055300 0.523800
H146 H 1.245500 0.056500 0.438100
H147 H 1.224700 0.119500 0.599500
H148 H 1.213300 -0.021700 0.578700

#END
