
#######################################################################
#
#                 Cambridge Crystallographic Data Centre
#                                CCDC 
#
#######################################################################
#
# If this CIF has been generated from an entry in the Cambridge 
# Structural Database, then it will include bibliographic, chemical, 
# crystal, experimental, refinement or atomic coordinate data resulting 
# from the CCDC's data processing and validation procedures.
#
#######################################################################

data_LAFLAH
_symmetry_cell_setting           triclinic
_symmetry_space_group_name_H-M   'P -1'
_symmetry_Int_Tables_number      2
_space_group_name_Hall           '-P 1'
loop_
_symmetry_equiv_pos_site_id
_symmetry_equiv_pos_as_xyz
1 x,y,z
2 -x,-y,-z
_cell_length_a                   8.6867(17)
_cell_length_b                   9.3493(19)
_cell_length_c                   11.691(2)
_cell_angle_alpha                73.50(3)
_cell_angle_beta                 77.58(3)
_cell_angle_gamma                78.73(3)
_cell_volume                     879.876
loop_
_atom_site_label
_atom_site_type_symbol
_atom_site_fract_x
_atom_site_fract_y
_atom_site_fract_z
O1 O 0.85391(13) 0.66453(12) 0.19972(11)
O2 O 0.86019(13) -0.09606(13) 0.28996(13)
H1 H 0.880(3) -0.177(3) 0.249(2)
N1 N 0.72755(14) 0.47492(13) 0.20839(11)
N2 N 0.66170(13) 0.34206(12) 0.27800(11)
C1 C 0.7913(2) 0.47062(19) 0.08154(15)
H2 H 0.910(2) 0.4760(18) 0.0680(14)
C2 C 0.7612(2) 0.3162(2) 0.07900(16)
H3 H 0.660(2) 0.324(2) 0.0487(16)
H4 H 0.852(2) 0.269(2) 0.0288(16)
C3 C 0.74501(17) 0.22691(16) 0.21154(14)
H5 H 0.6781(18) 0.1455(17) 0.2290(13)
C4 C 0.77450(16) 0.56474(15) 0.26259(14)
C5 C 0.7202(2) 0.5430(2) 0.39545(16)
H6 H 0.604(3) 0.559(2) 0.4151(17)
H7 H 0.752(2) 0.440(2) 0.4355(17)
H8 H 0.765(2) 0.614(2) 0.4183(18)
C6 C 0.49043(16) 0.36158(15) 0.29709(13)
C7 C 0.41628(18) 0.23531(17) 0.35858(15)
H9 H 0.4790(19) 0.1428(19) 0.3835(14)
C8 C 0.25168(19) 0.2487(2) 0.38348(17)
H10 H 0.204(2) 0.163(2) 0.4256(16)
C9 C 0.15986(19) 0.3865(2) 0.35028(17)
H11 H 0.046(2) 0.393(2) 0.3712(16)
C10 C 0.23230(19) 0.51206(19) 0.29285(17)
H12 H 0.171(2) 0.609(2) 0.2714(16)
C11 C 0.39725(18) 0.50099(17) 0.26582(15)
H13 H 0.4452(19) 0.5851(19) 0.2255(14)
C12 C 0.7137(3) 0.6037(2) -0.00735(19)
H14 H 0.763(3) 0.603(2) -0.090(2)
H15 H 0.601(3) 0.598(2) 0.0028(17)
H16 H 0.735(3) 0.695(3) 0.009(2)
C13 C 0.90364(17) 0.15567(16) 0.25266(16)
H17 H 0.9835(18) 0.2257(17) 0.2180(13)
H18 H 0.889(2) 0.1333(19) 0.3419(17)
C14 C 0.96792(18) 0.00511(16) 0.21981(15)
H19 H 0.9677(18) 0.0190(17) 0.1356(15)
C15 C 1.13629(17) -0.04773(15) 0.24534(15)
C16 C 1.1654(2) -0.11299(17) 0.36284(17)
H20 H 1.075(2) -0.129(2) 0.4254(16)
C17 C 1.3193(2) -0.14909(18) 0.3870(2)
H21 H 1.336(2) -0.192(2) 0.4752(19)
C18 C 1.4459(2) -0.12025(19) 0.2948(2)
H22 H 1.554(3) -0.139(2) 0.3116(18)
C19 C 1.4200(2) -0.0591(2) 0.1780(2)
H23 H 1.510(3) -0.042(2) 0.1096(19)
C20 C 1.2654(2) -0.02324(19) 0.15296(18)
H24 H 1.246(2) 0.0152(19) 0.0713(16)
O1 O 0.14609(13) 0.33547(12) 0.80028(11)
O2 O 0.13981(13) 1.09606(13) 0.71004(13)
H1 H 0.120(3) 1.177(3) 0.751(2)
N1 N 0.27245(14) 0.52508(13) 0.79161(11)
N2 N 0.33830(13) 0.65794(12) 0.72200(11)
C1 C 0.2087(2) 0.52938(19) 0.91846(15)
H2 H 0.090(2) 0.5240(18) 0.9320(14)
C2 C 0.2388(2) 0.6838(2) 0.92100(16)
H3 H 0.340(2) 0.676(2) 0.9513(16)
H4 H 0.148(2) 0.731(2) 0.9712(16)
C3 C 0.25499(17) 0.77309(16) 0.78846(14)
H5 H 0.3219(18) 0.8545(17) 0.7710(13)
C4 C 0.22550(16) 0.43526(15) 0.73741(14)
C5 C 0.2798(2) 0.4570(2) 0.60455(16)
H6 H 0.396(3) 0.441(2) 0.5849(17)
H7 H 0.248(2) 0.560(2) 0.5645(17)
H8 H 0.235(2) 0.386(2) 0.5817(18)
C6 C 0.50957(16) 0.63842(15) 0.70291(13)
C7 C 0.58372(18) 0.76469(17) 0.64142(15)
H9 H 0.5210(19) 0.8572(19) 0.6165(14)
C8 C 0.74832(19) 0.7513(2) 0.61652(17)
H10 H 0.796(2) 0.837(2) 0.5744(16)
C9 C 0.84014(19) 0.6135(2) 0.64972(17)
H11 H 0.954(2) 0.607(2) 0.6288(16)
C10 C 0.76770(19) 0.48794(19) 0.70715(17)
H12 H 0.829(2) 0.391(2) 0.7286(16)
C11 C 0.60275(18) 0.49901(17) 0.73418(15)
H13 H 0.5548(19) 0.4149(19) 0.7745(14)
C12 C 0.2863(3) 0.3963(2) 1.00735(19)
H14 H 0.237(3) 0.397(2) 1.090(2)
H15 H 0.399(3) 0.402(2) 0.9972(17)
H16 H 0.265(3) 0.305(3) 0.991(2)
C13 C 0.09636(17) 0.84433(16) 0.74734(16)
H17 H 0.0165(18) 0.7743(17) 0.7820(13)
H18 H 0.111(2) 0.8667(19) 0.6581(17)
C14 C 0.03208(18) 0.99489(16) 0.78019(15)
H19 H 0.0323(18) 0.9810(17) 0.8644(15)
C15 C -0.13629(17) 1.04773(15) 0.75466(15)
C16 C -0.1654(2) 1.11299(17) 0.63716(17)
H20 H -0.075(2) 1.129(2) 0.5746(16)
C17 C -0.3193(2) 1.14909(18) 0.6130(2)
H21 H -0.336(2) 1.192(2) 0.5248(19)
C18 C -0.4459(2) 1.12025(19) 0.7052(2)
H22 H -0.554(3) 1.139(2) 0.6884(18)
C19 C -0.4200(2) 1.0591(2) 0.8220(2)
H23 H -0.510(3) 1.042(2) 0.8904(19)
C20 C -0.2654(2) 1.02324(19) 0.84704(18)
H24 H -0.246(2) 0.9848(19) 0.9287(16)

#END
