./LAFRUH_from_xyz.cif_generated_by_CrystalShift
_symmetry_cell_setting triclinic
_symmetry_space_group_name_H-M 'P 1'
loop_
_symmetry_equiv_pos_site_id
_symmetry_equiv_pos_as_xyz
1 x,y,z
_cell_length_a 9.005300
_cell_length_b 9.206200
_cell_length_c 10.840900
_cell_angle_alpha 96.902000
_cell_angle_beta 94.445000
_cell_angle_gamma 115.893000
_cell_volume 794.128995
loop_
_atom_site_label
_atom_site_type_symbol
_atom_site_fract_x
_atom_site_fract_y
_atom_site_fract_z
C1 C 0.436750 0.690210 0.176460
H2 H 0.436100 0.715100 0.266800
H3 H 0.349000 0.706400 0.129900
H4 H 0.545500 0.763200 0.155300
C5 C 0.405440 0.514750 0.141640
C6 C 0.495690 0.452080 0.215840
C7 C 0.600210 0.533090 0.334990
C8 C 0.751810 0.501160 0.510820
H9 H 0.695600 0.531900 0.576700
H10 H 0.852600 0.600200 0.501400
C11 C 0.797900 0.370610 0.544680
H12 H 0.854800 0.342800 0.479200
H13 H 0.696600 0.272700 0.551800
H14 H 0.872300 0.411400 0.625100
C15 C 0.647160 0.241240 0.178040
C16 C 0.789850 0.356960 0.140190
H17 H 0.786400 0.443400 0.102200
C18 C 0.937380 0.343120 0.159280
H19 H 1.036100 0.421300 0.134800
C20 C 0.941020 0.215220 0.214100
H21 H 1.042300 0.206700 0.227200
C22 C 0.796970 0.100070 0.249670
H23 H 0.799900 0.012500 0.286400
C24 C 0.648010 0.112390 0.231690
H25 H 0.549100 0.033900 0.255800
C26 C 0.303420 0.102770 0.205330
C27 C 0.154150 -0.010350 0.370820
H28 H 0.143500 -0.006500 0.457500
C29 C 0.290600 0.112450 0.332840
H30 H 0.373000 0.200800 0.392500
C31 C 0.183270 -0.025150 0.116290
H32 H 0.194200 -0.029400 0.029600
C33 C 0.046930 -0.146700 0.155830
H34 H -0.036100 -0.234500 0.096200
C35 C 0.032920 -0.139000 0.282880
H36 H -0.059900 -0.222000 0.310000
O37 O 0.301180 0.426080 0.049010
O38 O 0.648990 0.676700 0.382150
O39 O 0.640730 0.430910 0.393560
S40 S 0.460314 0.260273 0.141736
C41 C 0.563250 0.309790 0.823540
H42 H 0.563900 0.284900 0.733200
H43 H 0.651000 0.293600 0.870100
H44 H 0.454500 0.236800 0.844700
C45 C 0.594560 0.485250 0.858360
C46 C 0.504310 0.547920 0.784160
C47 C 0.399790 0.466910 0.665010
C48 C 0.248190 0.498840 0.489180
H49 H 0.304400 0.468100 0.423300
H50 H 0.147400 0.399800 0.498600
C51 C 0.202100 0.629390 0.455320
H52 H 0.145200 0.657200 0.520800
H53 H 0.303400 0.727300 0.448200
H54 H 0.127700 0.588600 0.374900
C55 C 0.352840 0.758760 0.821960
C56 C 0.210150 0.643040 0.859810
H57 H 0.213600 0.556600 0.897800
C58 C 0.062620 0.656880 0.840720
H59 H -0.036100 0.578700 0.865200
C60 C 0.058980 0.784780 0.785900
H61 H -0.042300 0.793300 0.772800
C62 C 0.203030 0.899930 0.750330
H63 H 0.200100 0.987500 0.713600
C64 C 0.351990 0.887610 0.768310
H65 H 0.450900 0.966100 0.744200
C66 C 0.696580 0.897230 0.794670
C67 C 0.845850 1.010350 0.629180
H68 H 0.856500 1.006500 0.542500
C69 C 0.709400 0.887550 0.667160
H70 H 0.627000 0.799200 0.607500
C71 C 0.816730 1.025150 0.883710
H72 H 0.805800 1.029400 0.970400
C73 C 0.953070 1.146700 0.844170
H74 H 1.036100 1.234500 0.903800
C75 C 0.967080 1.139000 0.717120
H76 H 1.059900 1.222000 0.690000
O77 O 0.698820 0.573920 0.950990
O78 O 0.351010 0.323300 0.617850
O79 O 0.359270 0.569090 0.606440
S80 S 0.539686 0.739727 0.858264

#END
