
#######################################################################
#
#                 Cambridge Crystallographic Data Centre
#                                CCDC 
#
#######################################################################
#
# If this CIF has been generated from an entry in the Cambridge 
# Structural Database, then it will include bibliographic, chemical, 
# crystal, experimental, refinement or atomic coordinate data resulting 
# from the CCDC's data processing and validation procedures.
#
#######################################################################

data_LAFSOC
_symmetry_cell_setting           monoclinic
_symmetry_space_group_name_H-M   'P 21/c'
_symmetry_Int_Tables_number      14
_space_group_name_Hall           '-P 2ybc'
loop_
_symmetry_equiv_pos_site_id
_symmetry_equiv_pos_as_xyz
1 x,y,z
2 -x,1/2+y,1/2-z
3 -x,-y,-z
4 x,1/2-y,1/2+z
_cell_length_a                   6.2630(7)
_cell_length_b                   9.2191(10)
_cell_length_c                   28.440(3)
_cell_angle_alpha                90
_cell_angle_beta                 91.412(2)
_cell_angle_gamma                90
_cell_volume                     1641.6
loop_
_atom_site_label
_atom_site_type_symbol
_atom_site_fract_x
_atom_site_fract_y
_atom_site_fract_z
C1 C 0.2863(4) 0.9602(2) 0.88125(8)
C2 C 0.1667(3) 1.0686(2) 0.85709(8)
C3 C 0.0049(4) 1.0245(2) 0.82005(8)
C4 C 0.0455(4) 0.9264(2) 0.78423(8)
H1 H 0.1787 0.8773 0.7836
C5 C -0.1090(4) 0.9004(3) 0.74939(8)
H2 H -0.0817 0.8326 0.7251
C6 C -0.3017(4) 0.9726(3) 0.74993(9)
H3 H -0.4066 0.9544 0.7260
C7 C -0.3431(4) 1.0707(3) 0.78498(9)
H4 H -0.4758 1.1205 0.7852
C8 C -0.1908(4) 1.0964(2) 0.81987(9)
H5 H -0.2198 1.1640 0.8441
C9 C 0.4130(3) 0.6667(2) 0.86858(8)
C10 C 0.3873(4) 0.5198(2) 0.87703(8)
H6 H 0.2606 0.4845 0.8907
C11 C 0.5483(3) 0.4259(2) 0.86526(8)
H7 H 0.5350 0.3252 0.8717
C12 C 0.7298(4) 0.4781(2) 0.84405(8)
H8 H 0.8424 0.4135 0.8368
C13 C 0.7473(4) 0.6229(2) 0.83352(8)
H9 H 0.8688 0.6569 0.8175
C14 C 0.5895(3) 0.7198(3) 0.84604(8)
H10 H 0.6024 0.8203 0.8393
C15 C 0.1576(3) 0.7416(2) 0.94351(8)
C16 C -0.0432(4) 0.7726(3) 0.95991(9)
H11 H -0.1517 0.8090 0.9392
C17 C -0.0839(4) 0.7498(3) 1.00691(10)
H12 H -0.2206 0.7721 1.0187
C18 C 0.0725(4) 0.6951(3) 1.03667(9)
H13 H 0.0438 0.6794 1.0689
C19 C 0.2714(4) 0.6631(3) 1.01957(8)
H14 H 0.3787 0.6243 1.0401
C20 C 0.3160(4) 0.6868(2) 0.97301(8)
H15 H 0.4536 0.6658 0.9614
Br1 Br 0.49847(4) 1.02066(2) 0.925935(8)
O1 O 0.1923(2) 1.19972(16) 0.86439(6)
S1 S 0.19912(9) 0.78716(6) 0.88326(2)
C1 C 0.7137(4) 0.4602(2) 0.61875(8)
C2 C 0.8333(3) 0.5686(2) 0.64291(8)
C3 C 0.9951(4) 0.5245(2) 0.67995(8)
C4 C 0.9545(4) 0.4264(2) 0.71577(8)
H1 H 0.8213 0.3773 0.7164
C5 C 1.1090(4) 0.4004(3) 0.75061(8)
H2 H 1.0817 0.3326 0.7749
C6 C 1.3017(4) 0.4726(3) 0.75007(9)
H3 H 1.4066 0.4544 0.7740
C7 C 1.3431(4) 0.5707(3) 0.71502(9)
H4 H 1.4758 0.6205 0.7148
C8 C 1.1908(4) 0.5964(2) 0.68013(9)
H5 H 1.2198 0.6640 0.6559
C9 C 0.5870(3) 0.1667(2) 0.63142(8)
C10 C 0.6127(4) 0.0198(2) 0.62297(8)
H6 H 0.7394 -0.0155 0.6093
C11 C 0.4517(3) -0.0741(2) 0.63474(8)
H7 H 0.4650 -0.1748 0.6283
C12 C 0.2702(4) -0.0219(2) 0.65595(8)
H8 H 0.1576 -0.0865 0.6632
C13 C 0.2527(4) 0.1229(2) 0.66648(8)
H9 H 0.1312 0.1569 0.6825
C14 C 0.4105(3) 0.2198(3) 0.65396(8)
H10 H 0.3976 0.3203 0.6607
C15 C 0.8424(3) 0.2416(2) 0.55649(8)
C16 C 1.0432(4) 0.2726(3) 0.54009(9)
H11 H 1.1517 0.3090 0.5608
C17 C 1.0839(4) 0.2498(3) 0.49309(10)
H12 H 1.2206 0.2721 0.4813
C18 C 0.9275(4) 0.1951(3) 0.46333(9)
H13 H 0.9562 0.1794 0.4311
C19 C 0.7286(4) 0.1631(3) 0.48043(8)
H14 H 0.6213 0.1243 0.4599
C20 C 0.6840(4) 0.1868(2) 0.52699(8)
H15 H 0.5464 0.1658 0.5386
Br1 Br 0.50153(4) 0.52066(2) 0.574065(8)
O1 O 0.8077(2) 0.69972(16) 0.63561(6)
S1 S 0.80088(9) 0.28716(6) 0.61674(2)
C1 C 0.7137(4) 0.0398(2) 0.11875(8)
C2 C 0.8333(3) -0.0686(2) 0.14291(8)
C3 C 0.9951(4) -0.0245(2) 0.17995(8)
C4 C 0.9545(4) 0.0736(2) 0.21577(8)
H1 H 0.8213 0.1227 0.2164
C5 C 1.1090(4) 0.0996(3) 0.25061(8)
H2 H 1.0817 0.1674 0.2749
C6 C 1.3017(4) 0.0274(3) 0.25007(9)
H3 H 1.4066 0.0456 0.2740
C7 C 1.3431(4) -0.0707(3) 0.21502(9)
H4 H 1.4758 -0.1205 0.2148
C8 C 1.1908(4) -0.0964(2) 0.18013(9)
H5 H 1.2198 -0.1640 0.1559
C9 C 0.5870(3) 0.3333(2) 0.13142(8)
C10 C 0.6127(4) 0.4802(2) 0.12297(8)
H6 H 0.7394 0.5155 0.1093
C11 C 0.4517(3) 0.5741(2) 0.13474(8)
H7 H 0.4650 0.6748 0.1283
C12 C 0.2702(4) 0.5219(2) 0.15595(8)
H8 H 0.1576 0.5865 0.1632
C13 C 0.2527(4) 0.3771(2) 0.16648(8)
H9 H 0.1312 0.3431 0.1825
C14 C 0.4105(3) 0.2802(3) 0.15396(8)
H10 H 0.3976 0.1797 0.1607
C15 C 0.8424(3) 0.2584(2) 0.05649(8)
C16 C 1.0432(4) 0.2274(3) 0.04009(9)
H11 H 1.1517 0.1910 0.0608
C17 C 1.0839(4) 0.2502(3) -0.00691(10)
H12 H 1.2206 0.2279 -0.0187
C18 C 0.9275(4) 0.3049(3) -0.03667(9)
H13 H 0.9562 0.3206 -0.0689
C19 C 0.7286(4) 0.3369(3) -0.01957(8)
H14 H 0.6213 0.3757 -0.0401
C20 C 0.6840(4) 0.3132(2) 0.02699(8)
H15 H 0.5464 0.3342 0.0386
Br1 Br 0.50153(4) -0.02066(2) 0.074065(8)
O1 O 0.8077(2) -0.19972(16) 0.13561(6)
S1 S 0.80088(9) 0.21284(6) 0.11674(2)
C1 C 0.2863(4) 0.5398(2) 0.38125(8)
C2 C 0.1667(3) 0.4314(2) 0.35709(8)
C3 C 0.0049(4) 0.4755(2) 0.32005(8)
C4 C 0.0455(4) 0.5736(2) 0.28423(8)
H1 H 0.1787 0.6227 0.2836
C5 C -0.1090(4) 0.5996(3) 0.24939(8)
H2 H -0.0817 0.6674 0.2251
C6 C -0.3017(4) 0.5274(3) 0.24993(9)
H3 H -0.4066 0.5456 0.2260
C7 C -0.3431(4) 0.4293(3) 0.28498(9)
H4 H -0.4758 0.3795 0.2852
C8 C -0.1908(4) 0.4036(2) 0.31987(9)
H5 H -0.2198 0.3360 0.3441
C9 C 0.4130(3) 0.8333(2) 0.36858(8)
C10 C 0.3873(4) 0.9802(2) 0.37703(8)
H6 H 0.2606 1.0155 0.3907
C11 C 0.5483(3) 1.0741(2) 0.36526(8)
H7 H 0.5350 1.1748 0.3717
C12 C 0.7298(4) 1.0219(2) 0.34405(8)
H8 H 0.8424 1.0865 0.3368
C13 C 0.7473(4) 0.8771(2) 0.33352(8)
H9 H 0.8688 0.8431 0.3175
C14 C 0.5895(3) 0.7802(3) 0.34604(8)
H10 H 0.6024 0.6797 0.3393
C15 C 0.1576(3) 0.7584(2) 0.44351(8)
C16 C -0.0432(4) 0.7274(3) 0.45991(9)
H11 H -0.1517 0.6910 0.4392
C17 C -0.0839(4) 0.7502(3) 0.50691(10)
H12 H -0.2206 0.7279 0.5187
C18 C 0.0725(4) 0.8049(3) 0.53667(9)
H13 H 0.0438 0.8206 0.5689
C19 C 0.2714(4) 0.8369(3) 0.51957(8)
H14 H 0.3787 0.8757 0.5401
C20 C 0.3160(4) 0.8132(2) 0.47301(8)
H15 H 0.4536 0.8342 0.4614
Br1 Br 0.49847(4) 0.47934(2) 0.425935(8)
O1 O 0.1923(2) 0.30028(16) 0.36439(6)
S1 S 0.19912(9) 0.71284(6) 0.38326(2)

#END
