
#######################################################################
#
#                 Cambridge Crystallographic Data Centre
#                                CCDC 
#
#######################################################################
#
# If this CIF has been generated from an entry in the Cambridge 
# Structural Database, then it will include bibliographic, chemical, 
# crystal, experimental, refinement or atomic coordinate data resulting 
# from the CCDC's data processing and validation procedures.
#
#######################################################################

data_LAFSES
_symmetry_cell_setting           monoclinic
_symmetry_space_group_name_H-M   'P 21/n'
_symmetry_Int_Tables_number      14
_space_group_name_Hall           '-P 2yn'
loop_
_symmetry_equiv_pos_site_id
_symmetry_equiv_pos_as_xyz
1 x,y,z
2 1/2-x,1/2+y,1/2-z
3 -x,-y,-z
4 1/2+x,1/2-y,1/2+z
_cell_length_a                   10.0921(4)
_cell_length_b                   10.1248(4)
_cell_length_c                   14.7903(6)
_cell_angle_alpha                90
_cell_angle_beta                 95.757(2)
_cell_angle_gamma                90
_cell_volume                     1503.66
loop_
_atom_site_label
_atom_site_type_symbol
_atom_site_fract_x
_atom_site_fract_y
_atom_site_fract_z
C1 C 0.6413(2) 0.8918(2) -0.00608(15)
H1 H 0.7057 0.8791 -0.0507
H2 H 0.6391 0.9853 0.0109
H3 H 0.5527 0.8644 -0.0326
C2 C 0.59775(19) 0.81758(19) 0.14073(14)
C3 C 0.64832(18) 0.73845(19) 0.21772(13)
C4 C 0.58570(19) 0.74113(19) 0.30134(14)
C5 C 0.5943(2) 0.6652(2) 0.45326(15)
H4 H 0.5009 0.6369 0.4464
H5 H 0.6001 0.7560 0.4762
H6 H 0.6458 0.6067 0.4963
C6 C 1.0693(2) 0.9071(2) 0.19552(14)
H7 H 1.0770 0.9972 0.1788
C7 C 1.04718(19) 0.6445(2) 0.24529(13)
H8 H 1.0393 0.5548 0.2629
C8 C 0.75729(18) 0.54882(18) 0.10613(13)
C9 C 1.18246(19) 0.8369(2) 0.22598(14)
H9 H 1.2674 0.8781 0.2297
C10 C 0.8335(2) 0.5764(2) 0.03555(14)
H10 H 0.9047 0.6380 0.0436
C11 C 0.93547(18) 0.71651(19) 0.21332(13)
C12 C 1.17087(19) 0.7056(2) 0.25114(14)
H11 H 1.2483 0.6571 0.2726
C13 C 0.8042(2) 0.5124(2) -0.04709(14)
H12 H 0.8551 0.5305 -0.0963
C14 C 0.94427(19) 0.84809(19) 0.18894(14)
H13 H 0.8667 0.8969 0.1682
C15 C 0.7006(2) 0.4221(2) -0.05775(15)
H14 H 0.6800 0.3792 -0.1146
C16 C 0.65521(19) 0.4575(2) 0.09651(14)
H15 H 0.6049 0.4383 0.1459
C17 C 0.6274(2) 0.3942(2) 0.01379(15)
H16 H 0.5574 0.3312 0.0063
O1 O 0.49431(13) 0.88053(14) 0.13247(10)
O2 O 0.49038(13) 0.80728(15) 0.31645(10)
O3 O 0.68006(13) 0.81371(14) 0.07330(9)
O4 O 0.64719(13) 0.65924(13) 0.36643(9)
S1 S 0.77997(4) 0.63071(5) 0.21422(3)
C1 C 0.8587(2) 0.3918(2) 0.50608(15)
H1 H 0.7943 0.3791 0.5507
H2 H 0.8609 0.4853 0.4891
H3 H 0.9473 0.3644 0.5326
C2 C 0.90225(19) 0.31758(19) 0.35927(14)
C3 C 0.85168(18) 0.23845(19) 0.28228(13)
C4 C 0.91430(19) 0.24113(19) 0.19866(14)
C5 C 0.9057(2) 0.1652(2) 0.04674(15)
H4 H 0.9991 0.1369 0.0536
H5 H 0.8999 0.2560 0.0238
H6 H 0.8542 0.1067 0.0037
C6 C 0.4307(2) 0.4071(2) 0.30448(14)
H7 H 0.4230 0.4972 0.3212
C7 C 0.45282(19) 0.1445(2) 0.25471(13)
H8 H 0.4607 0.0548 0.2371
C8 C 0.74271(18) 0.04882(18) 0.39387(13)
C9 C 0.31754(19) 0.3369(2) 0.27402(14)
H9 H 0.2326 0.3781 0.2703
C10 C 0.6665(2) 0.0764(2) 0.46445(14)
H10 H 0.5953 0.1380 0.4564
C11 C 0.56453(18) 0.21651(19) 0.28668(13)
C12 C 0.32913(19) 0.2056(2) 0.24886(14)
H11 H 0.2517 0.1571 0.2274
C13 C 0.6958(2) 0.0124(2) 0.54709(14)
H12 H 0.6449 0.0305 0.5963
C14 C 0.55573(19) 0.34809(19) 0.31106(14)
H13 H 0.6333 0.3969 0.3318
C15 C 0.7994(2) -0.0779(2) 0.55775(15)
H14 H 0.8200 -0.1208 0.6146
C16 C 0.84479(19) -0.0425(2) 0.40349(14)
H15 H 0.8951 -0.0617 0.3541
C17 C 0.8726(2) -0.1058(2) 0.48621(15)
H16 H 0.9426 -0.1688 0.4937
O1 O 1.00569(13) 0.38053(14) 0.36753(10)
O2 O 1.00962(13) 0.30728(15) 0.18355(10)
O3 O 0.81994(13) 0.31371(14) 0.42670(9)
O4 O 0.85281(13) 0.15924(13) 0.13357(9)
S1 S 0.72003(4) 0.13071(5) 0.28578(3)
C1 C 0.3587(2) 0.1082(2) 1.00608(15)
H1 H 0.2943 0.1209 1.0507
H2 H 0.3609 0.0147 0.9891
H3 H 0.4473 0.1356 1.0326
C2 C 0.40225(19) 0.18242(19) 0.85927(14)
C3 C 0.35168(18) 0.26155(19) 0.78228(13)
C4 C 0.41430(19) 0.25887(19) 0.69866(14)
C5 C 0.4057(2) 0.3348(2) 0.54674(15)
H4 H 0.4991 0.3631 0.5536
H5 H 0.3999 0.2440 0.5238
H6 H 0.3542 0.3933 0.5037
C6 C -0.0693(2) 0.0929(2) 0.80448(14)
H7 H -0.0770 0.0028 0.8212
C7 C -0.04718(19) 0.3555(2) 0.75471(13)
H8 H -0.0393 0.4452 0.7371
C8 C 0.24271(18) 0.45118(18) 0.89387(13)
C9 C -0.18246(19) 0.1631(2) 0.77402(14)
H9 H -0.2674 0.1219 0.7703
C10 C 0.1665(2) 0.4236(2) 0.96445(14)
H10 H 0.0953 0.3620 0.9564
C11 C 0.06453(18) 0.28349(19) 0.78668(13)
C12 C -0.17087(19) 0.2944(2) 0.74886(14)
H11 H -0.2483 0.3429 0.7274
C13 C 0.1958(2) 0.4876(2) 1.04709(14)
H12 H 0.1449 0.4695 1.0963
C14 C 0.05573(19) 0.15191(19) 0.81106(14)
H13 H 0.1333 0.1031 0.8318
C15 C 0.2994(2) 0.5779(2) 1.05775(15)
H14 H 0.3200 0.6208 1.1146
C16 C 0.34479(19) 0.5425(2) 0.90349(14)
H15 H 0.3951 0.5617 0.8541
C17 C 0.3726(2) 0.6058(2) 0.98621(15)
H16 H 0.4426 0.6688 0.9937
O1 O 0.50569(13) 0.11947(14) 0.86753(10)
O2 O 0.50962(13) 0.19272(15) 0.68355(10)
O3 O 0.31994(13) 0.18629(14) 0.92670(9)
O4 O 0.35281(13) 0.34076(13) 0.63357(9)
S1 S 0.22003(4) 0.36929(5) 0.78578(3)
C1 C 0.1413(2) 0.6082(2) 0.49392(15)
H1 H 0.2057 0.6209 0.4493
H2 H 0.1391 0.5147 0.5109
H3 H 0.0527 0.6356 0.4674
C2 C 0.09775(19) 0.68242(19) 0.64073(14)
C3 C 0.14832(18) 0.76155(19) 0.71772(13)
C4 C 0.08570(19) 0.75887(19) 0.80134(14)
C5 C 0.0943(2) 0.8348(2) 0.95326(15)
H4 H 0.0009 0.8631 0.9464
H5 H 0.1001 0.7440 0.9762
H6 H 0.1458 0.8933 0.9963
C6 C 0.5693(2) 0.5929(2) 0.69552(14)
H7 H 0.5770 0.5028 0.6788
C7 C 0.54718(19) 0.8555(2) 0.74529(13)
H8 H 0.5393 0.9452 0.7629
C8 C 0.25729(18) 0.95118(18) 0.60613(13)
C9 C 0.68246(19) 0.6631(2) 0.72598(14)
H9 H 0.7674 0.6219 0.7297
C10 C 0.3335(2) 0.9236(2) 0.53555(14)
H10 H 0.4047 0.8620 0.5436
C11 C 0.43547(18) 0.78349(19) 0.71332(13)
C12 C 0.67087(19) 0.7944(2) 0.75114(14)
H11 H 0.7483 0.8429 0.7726
C13 C 0.3042(2) 0.9876(2) 0.45291(14)
H12 H 0.3551 0.9695 0.4037
C14 C 0.44427(19) 0.65191(19) 0.68894(14)
H13 H 0.3667 0.6031 0.6682
C15 C 0.2006(2) 1.0779(2) 0.44225(15)
H14 H 0.1800 1.1208 0.3854
C16 C 0.15521(19) 1.0425(2) 0.59651(14)
H15 H 0.1049 1.0617 0.6459
C17 C 0.1274(2) 1.1058(2) 0.51379(15)
H16 H 0.0574 1.1688 0.5063
O1 O -0.00569(13) 0.61947(14) 0.63247(10)
O2 O -0.00962(13) 0.69272(15) 0.81645(10)
O3 O 0.18006(13) 0.68629(14) 0.57330(9)
O4 O 0.14719(13) 0.84076(13) 0.86643(9)
S1 S 0.27997(4) 0.86929(5) 0.71422(3)

#END
