./LAFTAQ_from_xyz.cif_generated_by_CrystalShift
_symmetry_cell_setting triclinic
_symmetry_space_group_name_H-M 'P 1'
loop_
_symmetry_equiv_pos_site_id
_symmetry_equiv_pos_as_xyz
1 x,y,z
_cell_length_a 19.348300
_cell_length_b 19.348300
_cell_length_c 6.225200
_cell_angle_alpha 90.000000
_cell_angle_beta 90.000000
_cell_angle_gamma 120.000000
_cell_volume 2018.224888
loop_
_atom_site_label
_atom_site_type_symbol
_atom_site_fract_x
_atom_site_fract_y
_atom_site_fract_z
C1 C -0.237280 -0.053420 0.011200
C2 C -0.233620 -0.007990 -0.168800
C3 C -0.182600 0.073820 -0.170400
C4 C -0.135270 0.113070 0.008000
C5 C -0.154850 0.070140 0.199300
C6 C -0.204870 -0.011670 0.200600
H7 H -0.264100 -0.035600 -0.304000
H8 H -0.177500 0.101500 -0.312000
H9 H -0.126000 0.093800 0.339000
H10 H -0.207700 -0.039100 0.334000
C11 C -0.053420 0.183860 -0.011200
C12 C -0.007990 0.225630 0.168800
C13 C 0.073820 0.256420 0.170400
C14 C 0.113070 0.248340 -0.008000
C15 C 0.070140 0.224990 -0.199300
C16 C -0.011670 0.193200 -0.200600
H17 H -0.035600 0.228500 0.304000
H18 H 0.101500 0.279000 0.312000
H19 H 0.093800 0.219800 -0.339000
H20 H -0.039100 0.168600 -0.334000
C21 C -0.183860 -0.237280 -0.011200
C22 C -0.225630 -0.233620 0.168800
C23 C -0.256420 -0.182600 0.170400
C24 C -0.248340 -0.135270 -0.008000
C25 C -0.224990 -0.154850 -0.199300
C26 C -0.193200 -0.204870 -0.200600
H27 H -0.228500 -0.264100 0.304000
H28 H -0.279000 -0.177500 0.312000
H29 H -0.219800 -0.126000 -0.339000
H30 H -0.168600 -0.207700 -0.334000
C31 C 0.053420 -0.183860 0.011200
C32 C 0.007990 -0.225630 -0.168800
C33 C -0.073820 -0.256420 -0.170400
C34 C -0.113070 -0.248340 0.008000
C35 C -0.070140 -0.224990 0.199300
C36 C 0.011670 -0.193200 0.200600
H37 H 0.035600 -0.228500 -0.304000
H38 H -0.101500 -0.279000 -0.312000
H39 H -0.093800 -0.219800 0.339000
H40 H 0.039100 -0.168600 0.334000
C41 C 0.183860 0.237280 0.011200
C42 C 0.225630 0.233620 -0.168800
C43 C 0.256420 0.182600 -0.170400
C44 C 0.248340 0.135270 0.008000
C45 C 0.224990 0.154850 0.199300
C46 C 0.193200 0.204870 0.200600
H47 H 0.228500 0.264100 -0.304000
H48 H 0.279000 0.177500 -0.312000
H49 H 0.219800 0.126000 0.339000
H50 H 0.168600 0.207700 0.334000
C51 C 0.237280 0.053420 -0.011200
C52 C 0.233620 0.007990 0.168800
C53 C 0.182600 -0.073820 0.170400
C54 C 0.135270 -0.113070 -0.008000
C55 C 0.154850 -0.070140 -0.199300
C56 C 0.204870 0.011670 -0.200600
H57 H 0.264100 0.035600 0.304000
H58 H 0.177500 -0.101500 0.312000
H59 H 0.126000 -0.093800 -0.339000
H60 H 0.207700 0.039100 -0.334000
C61 C -0.237280 -0.053420 1.011200
C62 C -0.233620 -0.007990 0.831200
C63 C -0.182600 0.073820 0.829600
C64 C -0.135270 0.113070 1.008000
C65 C -0.154850 0.070140 1.199300
C66 C -0.204870 -0.011670 1.200600
H67 H -0.264100 -0.035600 0.696000
H68 H -0.177500 0.101500 0.688000
H69 H -0.126000 0.093800 1.339000
H70 H -0.207700 -0.039100 1.334000
C71 C -0.053420 0.183860 0.988800
C72 C -0.007990 0.225630 1.168800
C73 C 0.073820 0.256420 1.170400
C74 C 0.113070 0.248340 0.992000
C75 C 0.070140 0.224990 0.800700
C76 C -0.011670 0.193200 0.799400
H77 H -0.035600 0.228500 1.304000
H78 H 0.101500 0.279000 1.312000
H79 H 0.093800 0.219800 0.661000
H80 H -0.039100 0.168600 0.666000
C81 C -0.183860 -0.237280 0.988800
C82 C -0.225630 -0.233620 1.168800
C83 C -0.256420 -0.182600 1.170400
C84 C -0.248340 -0.135270 0.992000
C85 C -0.224990 -0.154850 0.800700
C86 C -0.193200 -0.204870 0.799400
H87 H -0.228500 -0.264100 1.304000
H88 H -0.279000 -0.177500 1.312000
H89 H -0.219800 -0.126000 0.661000
H90 H -0.168600 -0.207700 0.666000
C91 C 0.053420 -0.183860 1.011200
C92 C 0.007990 -0.225630 0.831200
C93 C -0.073820 -0.256420 0.829600
C94 C -0.113070 -0.248340 1.008000
C95 C -0.070140 -0.224990 1.199300
C96 C 0.011670 -0.193200 1.200600
H97 H 0.035600 -0.228500 0.696000
H98 H -0.101500 -0.279000 0.688000
H99 H -0.093800 -0.219800 1.339000
H100 H 0.039100 -0.168600 1.334000
C101 C 0.183860 0.237280 1.011200
C102 C 0.225630 0.233620 0.831200
C103 C 0.256420 0.182600 0.829600
C104 C 0.248340 0.135270 1.008000
C105 C 0.224990 0.154850 1.199300
C106 C 0.193200 0.204870 1.200600
H107 H 0.228500 0.264100 0.696000
H108 H 0.279000 0.177500 0.688000
H109 H 0.219800 0.126000 1.339000
H110 H 0.168600 0.207700 1.334000
C111 C 0.237280 0.053420 0.988800
C112 C 0.233620 0.007990 1.168800
C113 C 0.182600 -0.073820 1.170400
C114 C 0.135270 -0.113070 0.992000
C115 C 0.154850 -0.070140 0.800700
C116 C 0.204870 0.011670 0.799400
H117 H 0.264100 0.035600 1.304000
H118 H 0.177500 -0.101500 1.312000
H119 H 0.126000 -0.093800 0.661000
H120 H 0.207700 0.039100 0.666000
C121 C -0.237280 0.946580 0.011200
C122 C -0.233620 0.992010 -0.168800
C123 C -0.182600 1.073820 -0.170400
C124 C -0.135270 1.113070 0.008000
C125 C -0.154850 1.070140 0.199300
C126 C -0.204870 0.988330 0.200600
H127 H -0.264100 0.964400 -0.304000
H128 H -0.177500 1.101500 -0.312000
H129 H -0.126000 1.093800 0.339000
H130 H -0.207700 0.960900 0.334000
C131 C -0.053420 1.183860 -0.011200
C132 C -0.007990 1.225630 0.168800
C133 C 0.073820 1.256420 0.170400
C134 C 0.113070 1.248340 -0.008000
C135 C 0.070140 1.224990 -0.199300
C136 C -0.011670 1.193200 -0.200600
H137 H -0.035600 1.228500 0.304000
H138 H 0.101500 1.279000 0.312000
H139 H 0.093800 1.219800 -0.339000
H140 H -0.039100 1.168600 -0.334000
C141 C -0.183860 0.762720 -0.011200
C142 C -0.225630 0.766380 0.168800
C143 C -0.256420 0.817400 0.170400
C144 C -0.248340 0.864730 -0.008000
C145 C -0.224990 0.845150 -0.199300
C146 C -0.193200 0.795130 -0.200600
H147 H -0.228500 0.735900 0.304000
H148 H -0.279000 0.822500 0.312000
H149 H -0.219800 0.874000 -0.339000
H150 H -0.168600 0.792300 -0.334000
C151 C 0.053420 0.816140 0.011200
C152 C 0.007990 0.774370 -0.168800
C153 C -0.073820 0.743580 -0.170400
C154 C -0.113070 0.751660 0.008000
C155 C -0.070140 0.775010 0.199300
C156 C 0.011670 0.806800 0.200600
H157 H 0.035600 0.771500 -0.304000
H158 H -0.101500 0.721000 -0.312000
H159 H -0.093800 0.780200 0.339000
H160 H 0.039100 0.831400 0.334000
C161 C 0.183860 1.237280 0.011200
C162 C 0.225630 1.233620 -0.168800
C163 C 0.256420 1.182600 -0.170400
C164 C 0.248340 1.135270 0.008000
C165 C 0.224990 1.154850 0.199300
C166 C 0.193200 1.204870 0.200600
H167 H 0.228500 1.264100 -0.304000
H168 H 0.279000 1.177500 -0.312000
H169 H 0.219800 1.126000 0.339000
H170 H 0.168600 1.207700 0.334000
C171 C 0.237280 1.053420 -0.011200
C172 C 0.233620 1.007990 0.168800
C173 C 0.182600 0.926180 0.170400
C174 C 0.135270 0.886930 -0.008000
C175 C 0.154850 0.929860 -0.199300
C176 C 0.204870 1.011670 -0.200600
H177 H 0.264100 1.035600 0.304000
H178 H 0.177500 0.898500 0.312000
H179 H 0.126000 0.906200 -0.339000
H180 H 0.207700 1.039100 -0.334000
C181 C -0.237280 0.946580 1.011200
C182 C -0.233620 0.992010 0.831200
C183 C -0.182600 1.073820 0.829600
C184 C -0.135270 1.113070 1.008000
C185 C -0.154850 1.070140 1.199300
C186 C -0.204870 0.988330 1.200600
H187 H -0.264100 0.964400 0.696000
H188 H -0.177500 1.101500 0.688000
H189 H -0.126000 1.093800 1.339000
H190 H -0.207700 0.960900 1.334000
C191 C -0.053420 1.183860 0.988800
C192 C -0.007990 1.225630 1.168800
C193 C 0.073820 1.256420 1.170400
C194 C 0.113070 1.248340 0.992000
C195 C 0.070140 1.224990 0.800700
C196 C -0.011670 1.193200 0.799400
H197 H -0.035600 1.228500 1.304000
H198 H 0.101500 1.279000 1.312000
H199 H 0.093800 1.219800 0.661000
H200 H -0.039100 1.168600 0.666000
C201 C -0.183860 0.762720 0.988800
C202 C -0.225630 0.766380 1.168800
C203 C -0.256420 0.817400 1.170400
C204 C -0.248340 0.864730 0.992000
C205 C -0.224990 0.845150 0.800700
C206 C -0.193200 0.795130 0.799400
H207 H -0.228500 0.735900 1.304000
H208 H -0.279000 0.822500 1.312000
H209 H -0.219800 0.874000 0.661000
H210 H -0.168600 0.792300 0.666000
C211 C 0.053420 0.816140 1.011200
C212 C 0.007990 0.774370 0.831200
C213 C -0.073820 0.743580 0.829600
C214 C -0.113070 0.751660 1.008000
C215 C -0.070140 0.775010 1.199300
C216 C 0.011670 0.806800 1.200600
H217 H 0.035600 0.771500 0.696000
H218 H -0.101500 0.721000 0.688000
H219 H -0.093800 0.780200 1.339000
H220 H 0.039100 0.831400 1.334000
C221 C 0.183860 1.237280 1.011200
C222 C 0.225630 1.233620 0.831200
C223 C 0.256420 1.182600 0.829600
C224 C 0.248340 1.135270 1.008000
C225 C 0.224990 1.154850 1.199300
C226 C 0.193200 1.204870 1.200600
H227 H 0.228500 1.264100 0.696000
H228 H 0.279000 1.177500 0.688000
H229 H 0.219800 1.126000 1.339000
H230 H 0.168600 1.207700 1.334000
C231 C 0.237280 1.053420 0.988800
C232 C 0.233620 1.007990 1.168800
C233 C 0.182600 0.926180 1.170400
C234 C 0.135270 0.886930 0.992000
C235 C 0.154850 0.929860 0.800700
C236 C 0.204870 1.011670 0.799400
H237 H 0.264100 1.035600 1.304000
H238 H 0.177500 0.898500 1.312000
H239 H 0.126000 0.906200 0.661000
H240 H 0.207700 1.039100 0.666000
C241 C 0.762720 -0.053420 0.011200
C242 C 0.766380 -0.007990 -0.168800
C243 C 0.817400 0.073820 -0.170400
C244 C 0.864730 0.113070 0.008000
C245 C 0.845150 0.070140 0.199300
C246 C 0.795130 -0.011670 0.200600
H247 H 0.735900 -0.035600 -0.304000
H248 H 0.822500 0.101500 -0.312000
H249 H 0.874000 0.093800 0.339000
H250 H 0.792300 -0.039100 0.334000
C251 C 0.946580 0.183860 -0.011200
C252 C 0.992010 0.225630 0.168800
C253 C 1.073820 0.256420 0.170400
C254 C 1.113070 0.248340 -0.008000
C255 C 1.070140 0.224990 -0.199300
C256 C 0.988330 0.193200 -0.200600
H257 H 0.964400 0.228500 0.304000
H258 H 1.101500 0.279000 0.312000
H259 H 1.093800 0.219800 -0.339000
H260 H 0.960900 0.168600 -0.334000
C261 C 0.816140 -0.237280 -0.011200
C262 C 0.774370 -0.233620 0.168800
C263 C 0.743580 -0.182600 0.170400
C264 C 0.751660 -0.135270 -0.008000
C265 C 0.775010 -0.154850 -0.199300
C266 C 0.806800 -0.204870 -0.200600
H267 H 0.771500 -0.264100 0.304000
H268 H 0.721000 -0.177500 0.312000
H269 H 0.780200 -0.126000 -0.339000
H270 H 0.831400 -0.207700 -0.334000
C271 C 1.053420 -0.183860 0.011200
C272 C 1.007990 -0.225630 -0.168800
C273 C 0.926180 -0.256420 -0.170400
C274 C 0.886930 -0.248340 0.008000
C275 C 0.929860 -0.224990 0.199300
C276 C 1.011670 -0.193200 0.200600
H277 H 1.035600 -0.228500 -0.304000
H278 H 0.898500 -0.279000 -0.312000
H279 H 0.906200 -0.219800 0.339000
H280 H 1.039100 -0.168600 0.334000
C281 C 1.183860 0.237280 0.011200
C282 C 1.225630 0.233620 -0.168800
C283 C 1.256420 0.182600 -0.170400
C284 C 1.248340 0.135270 0.008000
C285 C 1.224990 0.154850 0.199300
C286 C 1.193200 0.204870 0.200600
H287 H 1.228500 0.264100 -0.304000
H288 H 1.279000 0.177500 -0.312000
H289 H 1.219800 0.126000 0.339000
H290 H 1.168600 0.207700 0.334000
C291 C 1.237280 0.053420 -0.011200
C292 C 1.233620 0.007990 0.168800
C293 C 1.182600 -0.073820 0.170400
C294 C 1.135270 -0.113070 -0.008000
C295 C 1.154850 -0.070140 -0.199300
C296 C 1.204870 0.011670 -0.200600
H297 H 1.264100 0.035600 0.304000
H298 H 1.177500 -0.101500 0.312000
H299 H 1.126000 -0.093800 -0.339000
H300 H 1.207700 0.039100 -0.334000
C301 C 0.762720 -0.053420 1.011200
C302 C 0.766380 -0.007990 0.831200
C303 C 0.817400 0.073820 0.829600
C304 C 0.864730 0.113070 1.008000
C305 C 0.845150 0.070140 1.199300
C306 C 0.795130 -0.011670 1.200600
H307 H 0.735900 -0.035600 0.696000
H308 H 0.822500 0.101500 0.688000
H309 H 0.874000 0.093800 1.339000
H310 H 0.792300 -0.039100 1.334000
C311 C 0.946580 0.183860 0.988800
C312 C 0.992010 0.225630 1.168800
C313 C 1.073820 0.256420 1.170400
C314 C 1.113070 0.248340 0.992000
C315 C 1.070140 0.224990 0.800700
C316 C 0.988330 0.193200 0.799400
H317 H 0.964400 0.228500 1.304000
H318 H 1.101500 0.279000 1.312000
H319 H 1.093800 0.219800 0.661000
H320 H 0.960900 0.168600 0.666000
C321 C 0.816140 -0.237280 0.988800
C322 C 0.774370 -0.233620 1.168800
C323 C 0.743580 -0.182600 1.170400
C324 C 0.751660 -0.135270 0.992000
C325 C 0.775010 -0.154850 0.800700
C326 C 0.806800 -0.204870 0.799400
H327 H 0.771500 -0.264100 1.304000
H328 H 0.721000 -0.177500 1.312000
H329 H 0.780200 -0.126000 0.661000
H330 H 0.831400 -0.207700 0.666000
C331 C 1.053420 -0.183860 1.011200
C332 C 1.007990 -0.225630 0.831200
C333 C 0.926180 -0.256420 0.829600
C334 C 0.886930 -0.248340 1.008000
C335 C 0.929860 -0.224990 1.199300
C336 C 1.011670 -0.193200 1.200600
H337 H 1.035600 -0.228500 0.696000
H338 H 0.898500 -0.279000 0.688000
H339 H 0.906200 -0.219800 1.339000
H340 H 1.039100 -0.168600 1.334000
C341 C 1.183860 0.237280 1.011200
C342 C 1.225630 0.233620 0.831200
C343 C 1.256420 0.182600 0.829600
C344 C 1.248340 0.135270 1.008000
C345 C 1.224990 0.154850 1.199300
C346 C 1.193200 0.204870 1.200600
H347 H 1.228500 0.264100 0.696000
H348 H 1.279000 0.177500 0.688000
H349 H 1.219800 0.126000 1.339000
H350 H 1.168600 0.207700 1.334000
C351 C 1.237280 0.053420 0.988800
C352 C 1.233620 0.007990 1.168800
C353 C 1.182600 -0.073820 1.170400
C354 C 1.135270 -0.113070 0.992000
C355 C 1.154850 -0.070140 0.800700
C356 C 1.204870 0.011670 0.799400
H357 H 1.264100 0.035600 1.304000
H358 H 1.177500 -0.101500 1.312000
H359 H 1.126000 -0.093800 0.661000
H360 H 1.207700 0.039100 0.666000
C361 C 0.762720 0.946580 0.011200
C362 C 0.766380 0.992010 -0.168800
C363 C 0.817400 1.073820 -0.170400
C364 C 0.864730 1.113070 0.008000
C365 C 0.845150 1.070140 0.199300
C366 C 0.795130 0.988330 0.200600
H367 H 0.735900 0.964400 -0.304000
H368 H 0.822500 1.101500 -0.312000
H369 H 0.874000 1.093800 0.339000
H370 H 0.792300 0.960900 0.334000
C371 C 0.946580 1.183860 -0.011200
C372 C 0.992010 1.225630 0.168800
C373 C 1.073820 1.256420 0.170400
C374 C 1.113070 1.248340 -0.008000
C375 C 1.070140 1.224990 -0.199300
C376 C 0.988330 1.193200 -0.200600
H377 H 0.964400 1.228500 0.304000
H378 H 1.101500 1.279000 0.312000
H379 H 1.093800 1.219800 -0.339000
H380 H 0.960900 1.168600 -0.334000
C381 C 0.816140 0.762720 -0.011200
C382 C 0.774370 0.766380 0.168800
C383 C 0.743580 0.817400 0.170400
C384 C 0.751660 0.864730 -0.008000
C385 C 0.775010 0.845150 -0.199300
C386 C 0.806800 0.795130 -0.200600
H387 H 0.771500 0.735900 0.304000
H388 H 0.721000 0.822500 0.312000
H389 H 0.780200 0.874000 -0.339000
H390 H 0.831400 0.792300 -0.334000
C391 C 1.053420 0.816140 0.011200
C392 C 1.007990 0.774370 -0.168800
C393 C 0.926180 0.743580 -0.170400
C394 C 0.886930 0.751660 0.008000
C395 C 0.929860 0.775010 0.199300
C396 C 1.011670 0.806800 0.200600
H397 H 1.035600 0.771500 -0.304000
H398 H 0.898500 0.721000 -0.312000
H399 H 0.906200 0.780200 0.339000
H400 H 1.039100 0.831400 0.334000
C401 C 1.183860 1.237280 0.011200
C402 C 1.225630 1.233620 -0.168800
C403 C 1.256420 1.182600 -0.170400
C404 C 1.248340 1.135270 0.008000
C405 C 1.224990 1.154850 0.199300
C406 C 1.193200 1.204870 0.200600
H407 H 1.228500 1.264100 -0.304000
H408 H 1.279000 1.177500 -0.312000
H409 H 1.219800 1.126000 0.339000
H410 H 1.168600 1.207700 0.334000
C411 C 1.237280 1.053420 -0.011200
C412 C 1.233620 1.007990 0.168800
C413 C 1.182600 0.926180 0.170400
C414 C 1.135270 0.886930 -0.008000
C415 C 1.154850 0.929860 -0.199300
C416 C 1.204870 1.011670 -0.200600
H417 H 1.264100 1.035600 0.304000
H418 H 1.177500 0.898500 0.312000
H419 H 1.126000 0.906200 -0.339000
H420 H 1.207700 1.039100 -0.334000
C421 C 0.762720 0.946580 1.011200
C422 C 0.766380 0.992010 0.831200
C423 C 0.817400 1.073820 0.829600
C424 C 0.864730 1.113070 1.008000
C425 C 0.845150 1.070140 1.199300
C426 C 0.795130 0.988330 1.200600
H427 H 0.735900 0.964400 0.696000
H428 H 0.822500 1.101500 0.688000
H429 H 0.874000 1.093800 1.339000
H430 H 0.792300 0.960900 1.334000
C431 C 0.946580 1.183860 0.988800
C432 C 0.992010 1.225630 1.168800
C433 C 1.073820 1.256420 1.170400
C434 C 1.113070 1.248340 0.992000
C435 C 1.070140 1.224990 0.800700
C436 C 0.988330 1.193200 0.799400
H437 H 0.964400 1.228500 1.304000
H438 H 1.101500 1.279000 1.312000
H439 H 1.093800 1.219800 0.661000
H440 H 0.960900 1.168600 0.666000
C441 C 0.816140 0.762720 0.988800
C442 C 0.774370 0.766380 1.168800
C443 C 0.743580 0.817400 1.170400
C444 C 0.751660 0.864730 0.992000
C445 C 0.775010 0.845150 0.800700
C446 C 0.806800 0.795130 0.799400
H447 H 0.771500 0.735900 1.304000
H448 H 0.721000 0.822500 1.312000
H449 H 0.780200 0.874000 0.661000
H450 H 0.831400 0.792300 0.666000
C451 C 1.053420 0.816140 1.011200
C452 C 1.007990 0.774370 0.831200
C453 C 0.926180 0.743580 0.829600
C454 C 0.886930 0.751660 1.008000
C455 C 0.929860 0.775010 1.199300
C456 C 1.011670 0.806800 1.200600
H457 H 1.035600 0.771500 0.696000
H458 H 0.898500 0.721000 0.688000
H459 H 0.906200 0.780200 1.339000
H460 H 1.039100 0.831400 1.334000
C461 C 1.183860 1.237280 1.011200
C462 C 1.225630 1.233620 0.831200
C463 C 1.256420 1.182600 0.829600
C464 C 1.248340 1.135270 1.008000
C465 C 1.224990 1.154850 1.199300
C466 C 1.193200 1.204870 1.200600
H467 H 1.228500 1.264100 0.696000
H468 H 1.279000 1.177500 0.688000
H469 H 1.219800 1.126000 1.339000
H470 H 1.168600 1.207700 1.334000
C471 C 1.237280 1.053420 0.988800
C472 C 1.233620 1.007990 1.168800
C473 C 1.182600 0.926180 1.170400
C474 C 1.135270 0.886930 0.992000
C475 C 1.154850 0.929860 0.800700
C476 C 1.204870 1.011670 0.799400
H477 H 1.264100 1.035600 1.304000
H478 H 1.177500 0.898500 1.312000
H479 H 1.126000 0.906200 0.661000
H480 H 1.207700 1.039100 0.666000
C481 C 0.429390 0.279910 0.344500
C482 C 0.433050 0.325340 0.164500
C483 C 0.484070 0.407150 0.162900
C484 C 0.531400 0.446400 0.341300
C485 C 0.511820 0.403470 0.532600
C486 C 0.461800 0.321660 0.533900
H487 H 0.402600 0.297700 0.029000
H488 H 0.489200 0.434800 0.021000
H489 H 0.540700 0.427100 0.672000
H490 H 0.459000 0.294200 0.667000
C491 C 0.613250 0.517190 0.322100
C492 C 0.658680 0.558960 0.502100
C493 C 0.740490 0.589750 0.503700
C494 C 0.779740 0.581670 0.325300
C495 C 0.736810 0.558320 0.134000
C496 C 0.655000 0.526530 0.132700
H497 H 0.631100 0.561800 0.637000
H498 H 0.768200 0.612300 0.645000
H499 H 0.760500 0.553100 -0.006000
H500 H 0.627600 0.501900 -0.001000
C501 C 0.482810 0.096050 0.322100
C502 C 0.441040 0.099710 0.502100
C503 C 0.410250 0.150730 0.503700
C504 C 0.418330 0.198060 0.325300
C505 C 0.441680 0.178480 0.134000
C506 C 0.473470 0.128460 0.132700
H507 H 0.438200 0.069200 0.637000
H508 H 0.387700 0.155800 0.645000
H509 H 0.446900 0.207300 -0.006000
H510 H 0.498100 0.125600 -0.001000
C511 C 0.720090 0.149470 0.344500
C512 C 0.674660 0.107700 0.164500
C513 C 0.592850 0.076910 0.162900
C514 C 0.553600 0.084990 0.341300
C515 C 0.596530 0.108340 0.532600
C516 C 0.678340 0.140130 0.533900
H517 H 0.702300 0.104800 0.029000
H518 H 0.565200 0.054300 0.021000
H519 H 0.572900 0.113500 0.672000
H520 H 0.705800 0.164700 0.667000
C521 C 0.850530 0.570610 0.344500
C522 C 0.892300 0.566950 0.164500
C523 C 0.923090 0.515930 0.162900
C524 C 0.915010 0.468600 0.341300
C525 C 0.891660 0.488180 0.532600
C526 C 0.859870 0.538200 0.533900
H527 H 0.895200 0.597400 0.029000
H528 H 0.945700 0.510800 0.021000
H529 H 0.886500 0.459300 0.672000
H530 H 0.835300 0.541000 0.667000
C531 C 0.903950 0.386750 0.322100
C532 C 0.900290 0.341320 0.502100
C533 C 0.849270 0.259510 0.503700
C534 C 0.801940 0.220260 0.325300
C535 C 0.821520 0.263190 0.134000
C536 C 0.871540 0.345000 0.132700
H537 H 0.930800 0.368900 0.637000
H538 H 0.844200 0.231800 0.645000
H539 H 0.792700 0.239500 -0.006000
H540 H 0.874400 0.372400 -0.001000
C541 C 0.096050 0.613250 0.677900
C542 C 0.099710 0.658680 0.497900
C543 C 0.150730 0.740490 0.496300
C544 C 0.198060 0.779740 0.674700
C545 C 0.178480 0.736810 0.866000
C546 C 0.128460 0.655000 0.867300
H547 H 0.069200 0.631100 0.363000
H548 H 0.155800 0.768200 0.355000
H549 H 0.207300 0.760500 1.006000
H550 H 0.125600 0.627600 1.001000
C551 C 0.279910 0.850530 0.655500
C552 C 0.325340 0.892300 0.835500
C553 C 0.407150 0.923090 0.837100
C554 C 0.446400 0.915010 0.658700
C555 C 0.403470 0.891660 0.467400
C556 C 0.321660 0.859870 0.466100
H557 H 0.297700 0.895200 0.971000
H558 H 0.434800 0.945700 0.979000
H559 H 0.427100 0.886500 0.328000
H560 H 0.294200 0.835300 0.333000
C561 C 0.149470 0.429390 0.655500
C562 C 0.107700 0.433050 0.835500
C563 C 0.076910 0.484070 0.837100
C564 C 0.084990 0.531400 0.658700
C565 C 0.108340 0.511820 0.467400
C566 C 0.140130 0.461800 0.466100
H567 H 0.104800 0.402600 0.971000
H568 H 0.054300 0.489200 0.979000
H569 H 0.113500 0.540700 0.328000
H570 H 0.164700 0.459000 0.333000
C571 C 0.386750 0.482810 0.677900
C572 C 0.341320 0.441040 0.497900
C573 C 0.259510 0.410250 0.496300
C574 C 0.220260 0.418330 0.674700
C575 C 0.263190 0.441680 0.866000
C576 C 0.345000 0.473470 0.867300
H577 H 0.368900 0.438200 0.363000
H578 H 0.231800 0.387700 0.355000
H579 H 0.239500 0.446900 1.006000
H580 H 0.372400 0.498100 1.001000
C581 C 0.517190 0.903950 0.677900
C582 C 0.558960 0.900290 0.497900
C583 C 0.589750 0.849270 0.496300
C584 C 0.581670 0.801940 0.674700
C585 C 0.558320 0.821520 0.866000
C586 C 0.526530 0.871540 0.867300
H587 H 0.561800 0.930800 0.363000
H588 H 0.612300 0.844200 0.355000
H589 H 0.553100 0.792700 1.006000
H590 H 0.501900 0.874400 1.001000
C591 C 0.570610 0.720090 0.655500
C592 C 0.566950 0.674660 0.835500
C593 C 0.515930 0.592850 0.837100
C594 C 0.468600 0.553600 0.658700
C595 C 0.488180 0.596530 0.467400
C596 C 0.538200 0.678340 0.466100
H597 H 0.597400 0.702300 0.971000
H598 H 0.510800 0.565200 0.979000
H599 H 0.459300 0.572900 0.328000
H600 H 0.541000 0.705800 0.333000
N601 N 0.766380 -0.007990 -0.168800
N602 N 0.817400 0.073820 -0.170400
N603 N 0.845150 0.070140 0.199300
N604 N 0.795130 -0.011670 0.200600
N605 N 1.007990 0.774370 -0.168800
N606 N 0.926180 0.743580 -0.170400
N607 N 0.929860 0.775010 0.199300
N608 N 1.011670 0.806800 0.200600
N609 N 0.225630 0.233620 -0.168800
N610 N 0.256420 0.182600 -0.170400
N611 N 0.224990 0.154850 0.199300
N612 N 0.193200 0.204870 0.200600
N613 N 0.433050 0.325340 0.164500
N614 N 0.484070 0.407150 0.162900
N615 N 0.511820 0.403470 0.532600
N616 N 0.461800 0.321660 0.533900
N617 N 0.674660 0.107700 0.164500
N618 N 0.592850 0.076910 0.162900
N619 N 0.596530 0.108340 0.532600
N620 N 0.678340 0.140130 0.533900
N621 N 0.892300 0.566950 0.164500
N622 N 0.923090 0.515930 0.162900
N623 N 0.891660 0.488180 0.532600
N624 N 0.859870 0.538200 0.533900
N625 N 0.099710 0.658680 0.497900
N626 N 0.150730 0.740490 0.496300
N627 N 0.178480 0.736810 0.866000
N628 N 0.128460 0.655000 0.867300
N629 N 0.341320 0.441040 0.497900
N630 N 0.259510 0.410250 0.496300
N631 N 0.263190 0.441680 0.866000
N632 N 0.345000 0.473470 0.867300
N633 N 0.558960 0.900290 0.497900
N634 N 0.589750 0.849270 0.496300
N635 N 0.558320 0.821520 0.866000
N636 N 0.526530 0.871540 0.867300
N637 N 0.233620 1.007990 1.168800
N638 N 0.182600 0.926180 1.170400
N639 N 0.154850 0.929860 0.800700
N640 N 0.204870 1.011670 0.799400
N641 N -0.007990 0.225630 1.168800
N642 N 0.073820 0.256420 1.170400
N643 N 0.070140 0.224990 0.800700
N644 N -0.011670 0.193200 0.799400
N645 N 0.774370 0.766380 1.168800
N646 N 0.743580 0.817400 1.170400
N647 N 0.775010 0.845150 0.800700
N648 N 0.806800 0.795130 0.799400
N649 N 0.566950 0.674660 0.835500
N650 N 0.515930 0.592850 0.837100
N651 N 0.488180 0.596530 0.467400
N652 N 0.538200 0.678340 0.466100
N653 N 0.325340 0.892300 0.835500
N654 N 0.407150 0.923090 0.837100
N655 N 0.403470 0.891660 0.467400
N656 N 0.321660 0.859870 0.466100
N657 N 0.107700 0.433050 0.835500
N658 N 0.076910 0.484070 0.837100
N659 N 0.108340 0.511820 0.467400
N660 N 0.140130 0.461800 0.466100
N661 N 0.900290 0.341320 0.502100
N662 N 0.849270 0.259510 0.503700
N663 N 0.821520 0.263190 0.134000
N664 N 0.871540 0.345000 0.132700
N665 N 0.658680 0.558960 0.502100
N666 N 0.740490 0.589750 0.503700
N667 N 0.736810 0.558320 0.134000
N668 N 0.655000 0.526530 0.132700
N669 N 0.441040 0.099710 0.502100
N670 N 0.410250 0.150730 0.503700
N671 N 0.441680 0.178480 0.134000
N672 N 0.473470 0.128460 0.132700

#END
