
#######################################################################
#
#                 Cambridge Crystallographic Data Centre
#                                CCDC 
#
#######################################################################
#
# If this CIF has been generated from an entry in the Cambridge 
# Structural Database, then it will include bibliographic, chemical, 
# crystal, experimental, refinement or atomic coordinate data resulting 
# from the CCDC's data processing and validation procedures.
#
#######################################################################

data_LAFTAP
_symmetry_cell_setting           triclinic
_symmetry_space_group_name_H-M   'P -1'
_symmetry_Int_Tables_number      2
_space_group_name_Hall           '-P 1'
loop_
_symmetry_equiv_pos_site_id
_symmetry_equiv_pos_as_xyz
1 x,y,z
2 -x,-y,-z
_cell_length_a                   8.6837(11)
_cell_length_b                   9.1777(11)
_cell_length_c                   12.7666(16)
_cell_angle_alpha                100.399(2)
_cell_angle_beta                 108.776(2)
_cell_angle_gamma                102.207(2)
_cell_volume                     906.927
loop_
_atom_site_label
_atom_site_type_symbol
_atom_site_fract_x
_atom_site_fract_y
_atom_site_fract_z
S1 S 0.86598(3) 0.75411(3) 0.20744(2)
O1 O 0.73100(12) 0.67150(9) 0.38384(8)
O2 O 0.72340(10) 0.85715(9) 0.52231(7)
N1 N 0.81140(11) 1.08018(10) 0.42565(8)
C1 C 0.80364(12) 0.93499(11) 0.37887(8)
C2 C 0.84624(12) 0.92092(11) 0.27948(8)
C3 C 0.88844(12) 1.07458(11) 0.26652(9)
C4 C 0.94592(14) 1.14464(12) 0.19155(9)
H1 H 0.9636 1.0847 0.1299
C5 C 0.97611(15) 1.30316(13) 0.20963(10)
H2 H 1.0161 1.3522 0.1600
C6 C 0.94878(15) 1.39346(13) 0.30006(10)
H3 H 0.9698 1.5019 0.3100
C7 C 0.89196(14) 1.32655(12) 0.37425(9)
H4 H 0.8729 1.3876 0.4347
C8 C 0.86287(13) 1.16641(12) 0.35865(9)
C9 C 0.75048(13) 0.80624(12) 0.42685(9)
C10 C 0.66338(15) 0.74110(13) 0.57510(10)
H5 H 0.7020 0.7869 0.6589
H6 H 0.7121 0.6541 0.5629
C11 C 0.47204(15) 0.68145(15) 0.52408(11)
H7 H 0.4342 0.6334 0.4416
H8 H 0.4240 0.7676 0.5361
H9 H 0.4336 0.6046 0.5614
C12 C 1.07236(13) 0.81018(12) 0.20034(9)
C13 C 1.20581(13) 0.84759(12) 0.30569(9)
H10 H 1.1849 0.8389 0.3732
C14 C 1.37066(14) 0.89807(13) 0.30965(9)
H11 H 1.4638 0.9260 0.3810
C15 C 1.40038(14) 0.90805(14) 0.21036(10)
H12 H 1.5136 0.9434 0.2141
C16 C 1.26546(14) 0.86665(15) 0.10545(10)
H13 H 1.2867 0.8715 0.0375
C17 C 1.09922(14) 0.81807(14) 0.09973(9)
H14 H 1.0061 0.7909 0.0285
C18 C 0.72593(13) 0.70364(12) 0.06048(9)
C19 C 0.71174(15) 0.56049(13) -0.00761(10)
H15 H 0.7770 0.4965 0.0234
C20 C 0.60033(16) 0.51324(14) -0.12165(10)
H16 H 0.5914 0.4175 -0.1698
C21 C 0.50170(16) 0.60573(14) -0.16557(10)
H17 H 0.4250 0.5723 -0.2434
C22 C 0.51489(15) 0.74644(14) -0.09621(10)
H18 H 0.4464 0.8085 -0.1265
C23 C 0.62841(14) 0.79706(13) 0.01781(9)
H19 H 0.6388 0.8938 0.0655
S1 S 0.13402(3) 0.24589(3) 0.79256(2)
O1 O 0.26900(12) 0.32850(9) 0.61616(8)
O2 O 0.27660(10) 0.14285(9) 0.47769(7)
N1 N 0.18860(11) -0.08018(10) 0.57435(8)
C1 C 0.19636(12) 0.06501(11) 0.62113(8)
C2 C 0.15376(12) 0.07908(11) 0.72052(8)
C3 C 0.11156(12) -0.07458(11) 0.73348(9)
C4 C 0.05408(14) -0.14464(12) 0.80845(9)
H1 H 0.0364 -0.0847 0.8701
C5 C 0.02389(15) -0.30316(13) 0.79037(10)
H2 H -0.0161 -0.3522 0.8400
C6 C 0.05122(15) -0.39346(13) 0.69994(10)
H3 H 0.0302 -0.5019 0.6900
C7 C 0.10804(14) -0.32655(12) 0.62575(9)
H4 H 0.1271 -0.3876 0.5653
C8 C 0.13713(13) -0.16641(12) 0.64135(9)
C9 C 0.24952(13) 0.19376(12) 0.57315(9)
C10 C 0.33662(15) 0.25890(13) 0.42490(10)
H5 H 0.2980 0.2131 0.3411
H6 H 0.2879 0.3459 0.4371
C11 C 0.52796(15) 0.31855(15) 0.47592(11)
H7 H 0.5658 0.3666 0.5584
H8 H 0.5760 0.2324 0.4639
H9 H 0.5664 0.3954 0.4386
C12 C -0.07236(13) 0.18982(12) 0.79966(9)
C13 C -0.20581(13) 0.15241(12) 0.69431(9)
H10 H -0.1849 0.1611 0.6268
C14 C -0.37066(14) 0.10193(13) 0.69035(9)
H11 H -0.4638 0.0740 0.6190
C15 C -0.40038(14) 0.09195(14) 0.78964(10)
H12 H -0.5136 0.0566 0.7859
C16 C -0.26546(14) 0.13335(15) 0.89455(10)
H13 H -0.2867 0.1285 0.9625
C17 C -0.09922(14) 0.18193(14) 0.90027(9)
H14 H -0.0061 0.2091 0.9715
C18 C 0.27407(13) 0.29636(12) 0.93952(9)
C19 C 0.28826(15) 0.43951(13) 1.00761(10)
H15 H 0.2230 0.5035 0.9766
C20 C 0.39967(16) 0.48676(14) 1.12165(10)
H16 H 0.4086 0.5825 1.1698
C21 C 0.49830(16) 0.39427(14) 1.16557(10)
H17 H 0.5750 0.4277 1.2434
C22 C 0.48511(15) 0.25356(14) 1.09621(10)
H18 H 0.5536 0.1915 1.1265
C23 C 0.37159(14) 0.20294(13) 0.98219(9)
H19 H 0.3612 0.1062 0.9345

#END
