./LAFVEW_from_xyz.cif_generated_by_CrystalShift
_symmetry_cell_setting triclinic
_symmetry_space_group_name_H-M 'P 1'
loop_
_symmetry_equiv_pos_site_id
_symmetry_equiv_pos_as_xyz
1 x,y,z
_cell_length_a 3.932900
_cell_length_b 21.721000
_cell_length_c 27.730000
_cell_angle_alpha 90.000000
_cell_angle_beta 90.000000
_cell_angle_gamma 90.000000
_cell_volume 2368.877425
loop_
_atom_site_label
_atom_site_type_symbol
_atom_site_fract_x
_atom_site_fract_y
_atom_site_fract_z
O1 O 0.588600 0.569870 0.841070
O2 O 0.316400 0.570100 0.767440
O3 O 0.478200 0.349720 0.751820
C4 C 1.195600 0.228600 0.932200
H5 H 1.289500 0.203600 0.956000
C6 C 1.160600 0.291600 0.939900
H7 H 1.235100 0.308800 0.968700
C8 C 1.018900 0.328300 0.905710
H9 H 0.998300 0.370300 0.911500
C10 C 0.902200 0.304000 0.861610
C11 C 0.746600 0.339500 0.824780
C12 C 0.656500 0.403800 0.818060
C13 C 0.703000 0.458600 0.844220
H14 H 0.810500 0.459400 0.874100
C15 C 0.579900 0.510200 0.822820
C16 C 0.488200 0.608300 0.801540
H17 H 0.338300 0.640700 0.812700
H18 H 0.686400 0.627100 0.786800
C19 C 0.420900 0.510900 0.778410
C20 C 0.496700 0.406800 0.773620
C21 C 0.634500 0.310100 0.783900
C22 C 1.091900 0.203700 0.889700
H23 H 1.122300 0.161800 0.884400
C24 C 0.939000 0.240000 0.853600
C25 C 0.823600 0.213000 0.809800
H26 H 0.853400 0.170900 0.804900
C27 C 0.670500 0.247300 0.774800
H28 H 0.593700 0.229600 0.746300
C29 C 0.366500 0.459400 0.751980
H30 H 0.253900 0.459300 0.722500
O31 O 0.088600 -0.069870 0.158930
O32 O -0.183600 -0.070100 0.232560
O33 O -0.021800 0.150280 0.248180
C34 C 0.695600 0.271400 0.067800
H35 H 0.789500 0.296400 0.044000
C36 C 0.660600 0.208400 0.060100
H37 H 0.735100 0.191200 0.031300
C38 C 0.518900 0.171700 0.094290
H39 H 0.498300 0.129700 0.088500
C40 C 0.402200 0.196000 0.138390
C41 C 0.246600 0.160500 0.175220
C42 C 0.156500 0.096200 0.181940
C43 C 0.203000 0.041400 0.155780
H44 H 0.310500 0.040600 0.125900
C45 C 0.079900 -0.010200 0.177180
C46 C -0.011800 -0.108300 0.198460
H47 H -0.161700 -0.140700 0.187300
H48 H 0.186400 -0.127100 0.213200
C49 C -0.079100 -0.010900 0.221590
C50 C -0.003300 0.093200 0.226380
C51 C 0.134500 0.189900 0.216100
C52 C 0.591900 0.296300 0.110300
H53 H 0.622300 0.338200 0.115600
C54 C 0.439000 0.260000 0.146400
C55 C 0.323600 0.287000 0.190200
H56 H 0.353400 0.329100 0.195100
C57 C 0.170500 0.252700 0.225200
H58 H 0.093700 0.270400 0.253700
C59 C -0.133500 0.040600 0.248020
H60 H -0.246100 0.040700 0.277500
O61 O 0.411400 1.069870 0.658930
O62 O 0.683600 1.070100 0.732560
O63 O 0.521800 0.849720 0.748180
C64 C -0.195600 0.728600 0.567800
H65 H -0.289500 0.703600 0.544000
C66 C -0.160600 0.791600 0.560100
H67 H -0.235100 0.808800 0.531300
C68 C -0.018900 0.828300 0.594290
H69 H 0.001700 0.870300 0.588500
C70 C 0.097800 0.804000 0.638390
C71 C 0.253400 0.839500 0.675220
C72 C 0.343500 0.903800 0.681940
C73 C 0.297000 0.958600 0.655780
H74 H 0.189500 0.959400 0.625900
C75 C 0.420100 1.010200 0.677180
C76 C 0.511800 1.108300 0.698460
H77 H 0.661700 1.140700 0.687300
H78 H 0.313600 1.127100 0.713200
C79 C 0.579100 1.010900 0.721590
C80 C 0.503300 0.906800 0.726380
C81 C 0.365500 0.810100 0.716100
C82 C -0.091900 0.703700 0.610300
H83 H -0.122300 0.661800 0.615600
C84 C 0.061000 0.740000 0.646400
C85 C 0.176400 0.713000 0.690200
H86 H 0.146600 0.670900 0.695100
C87 C 0.329500 0.747300 0.725200
H88 H 0.406300 0.729600 0.753700
C89 C 0.633500 0.959400 0.748020
H90 H 0.746100 0.959300 0.777500
O91 O 0.911400 0.430130 0.341070
O92 O 1.183600 0.429900 0.267440
O93 O 1.021800 0.650280 0.251820
C94 C 0.304400 0.771400 0.432200
H95 H 0.210500 0.796400 0.456000
C96 C 0.339400 0.708400 0.439900
H97 H 0.264900 0.691200 0.468700
C98 C 0.481100 0.671700 0.405710
H99 H 0.501700 0.629700 0.411500
C100 C 0.597800 0.696000 0.361610
C101 C 0.753400 0.660500 0.324780
C102 C 0.843500 0.596200 0.318060
C103 C 0.797000 0.541400 0.344220
H104 H 0.689500 0.540600 0.374100
C105 C 0.920100 0.489800 0.322820
C106 C 1.011800 0.391700 0.301540
H107 H 1.161700 0.359300 0.312700
H108 H 0.813600 0.372900 0.286800
C109 C 1.079100 0.489100 0.278410
C110 C 1.003300 0.593200 0.273620
C111 C 0.865500 0.689900 0.283900
C112 C 0.408100 0.796300 0.389700
H113 H 0.377700 0.838200 0.384400
C114 C 0.561000 0.760000 0.353600
C115 C 0.676400 0.787000 0.309800
H116 H 0.646600 0.829100 0.304900
C117 C 0.829500 0.752700 0.274800
H118 H 0.906300 0.770400 0.246300
C119 C 1.133500 0.540600 0.251980
H120 H 1.246100 0.540700 0.222500
O121 O 0.120700 0.703700 0.941610
O122 O -0.116600 0.701800 0.865240
O123 O 0.162400 0.917760 0.842050
C124 C -0.065500 0.667500 0.908110
H125 H 0.059100 0.630000 0.900900
H126 H -0.283300 0.656100 0.921900
C127 C 0.146300 0.761900 0.920930
C128 C 0.289300 0.812900 0.940860
H129 H 0.381500 0.812800 0.971700
C130 C 0.288500 0.865900 0.911640
C131 C 0.406200 0.928600 0.916180
C132 C 0.570400 0.963700 0.953040
C133 C 0.640000 1.026800 0.943070
C134 C 0.798500 1.062600 0.978900
H135 H 0.846100 1.103800 0.972700
C136 C 0.882800 1.038400 1.022000
H137 H 0.981900 1.063200 1.045400
C138 C 0.006600 0.760300 0.875150
C139 C -0.002500 0.810100 0.845710
H140 H -0.096900 0.809400 0.815000
C141 C 0.141400 0.861900 0.865760
C142 C 0.325300 0.957200 0.873810
C143 C 0.547100 1.052200 0.897900
H144 H 0.597000 1.093300 0.891900
C145 C 0.388500 1.019000 0.863200
H146 H 0.325200 1.036400 0.833900
C147 C 0.822500 0.976200 1.031800
H148 H 0.887200 0.959600 1.061300
C149 C 0.669100 0.940100 0.998180
H150 H 0.628600 0.898900 1.005200
O151 O 0.620700 0.796300 0.058390
O152 O 0.383400 0.798200 0.134760
O153 O 0.662400 0.582240 0.157950
C154 C 0.434500 0.832500 0.091890
H155 H 0.559100 0.870000 0.099100
H156 H 0.216700 0.843900 0.078100
C157 C 0.646300 0.738100 0.079070
C158 C 0.789300 0.687100 0.059140
H159 H 0.881500 0.687200 0.028300
C160 C 0.788500 0.634100 0.088360
C161 C 0.906200 0.571400 0.083820
C162 C 1.070400 0.536300 0.046960
C163 C 1.140000 0.473200 0.056930
C164 C 1.298500 0.437400 0.021100
H165 H 1.346100 0.396200 0.027300
C166 C 1.382800 0.461600 -0.022000
H167 H 1.481900 0.436800 -0.045400
C168 C 0.506600 0.739700 0.124850
C169 C 0.497500 0.689900 0.154290
H170 H 0.403100 0.690600 0.185000
C171 C 0.641400 0.638100 0.134240
C172 C 0.825300 0.542800 0.126190
C173 C 1.047100 0.447800 0.102100
H174 H 1.097000 0.406700 0.108100
C175 C 0.888500 0.481000 0.136800
H176 H 0.825200 0.463600 0.166100
C177 C 1.322500 0.523800 -0.031800
H178 H 1.387200 0.540400 -0.061300
C179 C 1.169100 0.559900 0.001820
H180 H 1.128600 0.601100 -0.005200
O181 O 0.879300 0.203700 0.558390
O182 O 1.116600 0.201800 0.634760
O183 O 0.837600 0.417760 0.657950
C184 C 1.065500 0.167500 0.591890
H185 H 0.940900 0.130000 0.599100
H186 H 1.283300 0.156100 0.578100
C187 C 0.853700 0.261900 0.579070
C188 C 0.710700 0.312900 0.559140
H189 H 0.618500 0.312800 0.528300
C190 C 0.711500 0.365900 0.588360
C191 C 0.593800 0.428600 0.583820
C192 C 0.429600 0.463700 0.546960
C193 C 0.360000 0.526800 0.556930
C194 C 0.201500 0.562600 0.521100
H195 H 0.153900 0.603800 0.527300
C196 C 0.117200 0.538400 0.478000
H197 H 0.018100 0.563200 0.454600
C198 C 0.993400 0.260300 0.624850
C199 C 1.002500 0.310100 0.654290
H200 H 1.096900 0.309400 0.685000
C201 C 0.858600 0.361900 0.634240
C202 C 0.674700 0.457200 0.626190
C203 C 0.452900 0.552200 0.602100
H204 H 0.403000 0.593300 0.608100
C205 C 0.611500 0.519000 0.636800
H206 H 0.674800 0.536400 0.666100
C207 C 0.177500 0.476200 0.468200
H208 H 0.112800 0.459600 0.438700
C209 C 0.330900 0.440100 0.501820
H210 H 0.371400 0.398900 0.494800
O211 O 0.379300 0.296300 0.441610
O212 O 0.616600 0.298200 0.365240
O213 O 0.337600 0.082240 0.342050
C214 C 0.565500 0.332500 0.408110
H215 H 0.440900 0.370000 0.400900
H216 H 0.783300 0.343900 0.421900
C217 C 0.353700 0.238100 0.420930
C218 C 0.210700 0.187100 0.440860
H219 H 0.118500 0.187200 0.471700
C220 C 0.211500 0.134100 0.411640
C221 C 0.093800 0.071400 0.416180
C222 C -0.070400 0.036300 0.453040
C223 C -0.140000 -0.026800 0.443070
C224 C -0.298500 -0.062600 0.478900
H225 H -0.346100 -0.103800 0.472700
C226 C -0.382800 -0.038400 0.522000
H227 H -0.481900 -0.063200 0.545400
C228 C 0.493400 0.239700 0.375150
C229 C 0.502500 0.189900 0.345710
H230 H 0.596900 0.190600 0.315000
C231 C 0.358600 0.138100 0.365760
C232 C 0.174700 0.042800 0.373810
C233 C -0.047100 -0.052200 0.397900
H234 H -0.097000 -0.093300 0.391900
C235 C 0.111500 -0.019000 0.363200
H236 H 0.174800 -0.036400 0.333900
C237 C -0.322500 0.023800 0.531800
H238 H -0.387200 0.040400 0.561300
C239 C -0.169100 0.059900 0.498180
H240 H -0.128600 0.101100 0.505200

#END
