./LAFWIZ01_from_xyz.cif_generated_by_CrystalShift
_symmetry_cell_setting triclinic
_symmetry_space_group_name_H-M 'P 1'
loop_
_symmetry_equiv_pos_site_id
_symmetry_equiv_pos_as_xyz
1 x,y,z
_cell_length_a 6.077000
_cell_length_b 17.720000
_cell_length_c 17.275000
_cell_angle_alpha 90.000000
_cell_angle_beta 106.270000
_cell_angle_gamma 90.000000
_cell_volume 1785.749698
loop_
_atom_site_label
_atom_site_type_symbol
_atom_site_fract_x
_atom_site_fract_y
_atom_site_fract_z
S1 S 1.170110 0.617190 0.221510
N2 N 0.942500 0.570380 0.322430
H3 H 0.833700 0.542700 0.329600
N4 N 0.857300 0.514240 0.201610
H5 H 0.859300 0.511400 0.152100
N6 N 0.721500 0.467940 0.229040
N7 N 0.758900 0.429400 0.070300
C8 C 0.892800 0.641800 0.434300
H9 H 0.762800 0.667900 0.398900
H10 H 0.836500 0.597000 0.454800
C11 C 1.010200 0.692400 0.503200
H12 H 1.046300 0.740200 0.482200
H13 H 0.907100 0.702400 0.535900
C14 C 1.226300 0.657400 0.554800
H15 H 1.302600 0.692700 0.596700
H16 H 1.188800 0.612500 0.580600
C17 C 1.381900 0.637100 0.506100
H18 H 1.517200 0.612600 0.540100
H19 H 1.430600 0.682600 0.484300
C20 C 1.265000 0.585000 0.437700
H21 H 1.369000 0.573600 0.405800
H22 H 1.226300 0.538000 0.459600
C23 C 1.059600 0.619200 0.387100
H24 H 1.104000 0.665000 0.363400
C25 C 0.986500 0.565520 0.252020
C26 C 0.603400 0.417600 0.183210
C27 C 0.590000 0.404400 0.097600
C28 C 0.396800 0.371600 0.048500
H29 H 0.278900 0.355500 0.069200
C30 C 0.381800 0.363100 -0.031500
H31 H 0.253200 0.340700 -0.066200
C32 C 0.552400 0.387000 -0.058900
H33 H 0.543600 0.382200 -0.113300
C34 C 0.741800 0.419000 -0.006600
H35 H 0.862900 0.433800 -0.026200
C36 C 0.462600 0.371570 0.221180
C37 C 0.464800 0.294100 0.218600
H38 H 0.558000 0.269700 0.192000
C39 C 0.333200 0.252900 0.254200
H40 H 0.337900 0.200500 0.252600
C41 C 0.193000 0.288100 0.292600
H42 H 0.099800 0.259700 0.316000
C43 C 0.190500 0.364400 0.296700
H44 H 0.096800 0.388500 0.323300
C45 C 0.323600 0.405400 0.262000
H46 H 0.321900 0.457700 0.265700
S47 S -0.170110 1.117190 0.278490
N48 N 0.057500 1.070380 0.177570
H49 H 0.166300 1.042700 0.170400
N50 N 0.142700 1.014240 0.298390
H51 H 0.140700 1.011400 0.347900
N52 N 0.278500 0.967940 0.270960
N53 N 0.241100 0.929400 0.429700
C54 C 0.107200 1.141800 0.065700
H55 H 0.237200 1.167900 0.101100
H56 H 0.163500 1.097000 0.045200
C57 C -0.010200 1.192400 -0.003200
H58 H -0.046300 1.240200 0.017800
H59 H 0.092900 1.202400 -0.035900
C60 C -0.226300 1.157400 -0.054800
H61 H -0.302600 1.192700 -0.096700
H62 H -0.188800 1.112500 -0.080600
C63 C -0.381900 1.137100 -0.006100
H64 H -0.517200 1.112600 -0.040100
H65 H -0.430600 1.182600 0.015700
C66 C -0.265000 1.085000 0.062300
H67 H -0.369000 1.073600 0.094200
H68 H -0.226300 1.038000 0.040400
C69 C -0.059600 1.119200 0.112900
H70 H -0.104000 1.165000 0.136600
C71 C 0.013500 1.065520 0.247980
C72 C 0.396600 0.917600 0.316790
C73 C 0.410000 0.904400 0.402400
C74 C 0.603200 0.871600 0.451500
H75 H 0.721100 0.855500 0.430800
C76 C 0.618200 0.863100 0.531500
H77 H 0.746800 0.840700 0.566200
C78 C 0.447600 0.887000 0.558900
H79 H 0.456400 0.882200 0.613300
C80 C 0.258200 0.919000 0.506600
H81 H 0.137100 0.933800 0.526200
C82 C 0.537400 0.871570 0.278820
C83 C 0.535200 0.794100 0.281400
H84 H 0.442000 0.769700 0.308000
C85 C 0.666800 0.752900 0.245800
H86 H 0.662100 0.700500 0.247400
C87 C 0.807000 0.788100 0.207400
H88 H 0.900200 0.759700 0.184000
C89 C 0.809500 0.864400 0.203300
H90 H 0.903200 0.888500 0.176700
C91 C 0.676400 0.905400 0.238000
H92 H 0.678100 0.957700 0.234300
S93 S -0.170110 0.382810 0.778490
N94 N 0.057500 0.429620 0.677570
H95 H 0.166300 0.457300 0.670400
N96 N 0.142700 0.485760 0.798390
H97 H 0.140700 0.488600 0.847900
N98 N 0.278500 0.532060 0.770960
N99 N 0.241100 0.570600 0.929700
C100 C 0.107200 0.358200 0.565700
H101 H 0.237200 0.332100 0.601100
H102 H 0.163500 0.403000 0.545200
C103 C -0.010200 0.307600 0.496800
H104 H -0.046300 0.259800 0.517800
H105 H 0.092900 0.297600 0.464100
C106 C -0.226300 0.342600 0.445200
H107 H -0.302600 0.307300 0.403300
H108 H -0.188800 0.387500 0.419400
C109 C -0.381900 0.362900 0.493900
H110 H -0.517200 0.387400 0.459900
H111 H -0.430600 0.317400 0.515700
C112 C -0.265000 0.415000 0.562300
H113 H -0.369000 0.426400 0.594200
H114 H -0.226300 0.462000 0.540400
C115 C -0.059600 0.380800 0.612900
H116 H -0.104000 0.335000 0.636600
C117 C 0.013500 0.434480 0.747980
C118 C 0.396600 0.582400 0.816790
C119 C 0.410000 0.595600 0.902400
C120 C 0.603200 0.628400 0.951500
H121 H 0.721100 0.644500 0.930800
C122 C 0.618200 0.636900 1.031500
H123 H 0.746800 0.659300 1.066200
C124 C 0.447600 0.613000 1.058900
H125 H 0.456400 0.617800 1.113300
C126 C 0.258200 0.581000 1.006600
H127 H 0.137100 0.566200 1.026200
C128 C 0.537400 0.628430 0.778820
C129 C 0.535200 0.705900 0.781400
H130 H 0.442000 0.730300 0.808000
C131 C 0.666800 0.747100 0.745800
H132 H 0.662100 0.799500 0.747400
C133 C 0.807000 0.711900 0.707400
H134 H 0.900200 0.740300 0.684000
C135 C 0.809500 0.635600 0.703300
H136 H 0.903200 0.611500 0.676700
C137 C 0.676400 0.594600 0.738000
H138 H 0.678100 0.542300 0.734300
S139 S 1.170110 -0.117190 0.721510
N140 N 0.942500 -0.070380 0.822430
H141 H 0.833700 -0.042700 0.829600
N142 N 0.857300 -0.014240 0.701610
H143 H 0.859300 -0.011400 0.652100
N144 N 0.721500 0.032060 0.729040
N145 N 0.758900 0.070600 0.570300
C146 C 0.892800 -0.141800 0.934300
H147 H 0.762800 -0.167900 0.898900
H148 H 0.836500 -0.097000 0.954800
C149 C 1.010200 -0.192400 1.003200
H150 H 1.046300 -0.240200 0.982200
H151 H 0.907100 -0.202400 1.035900
C152 C 1.226300 -0.157400 1.054800
H153 H 1.302600 -0.192700 1.096700
H154 H 1.188800 -0.112500 1.080600
C155 C 1.381900 -0.137100 1.006100
H156 H 1.517200 -0.112600 1.040100
H157 H 1.430600 -0.182600 0.984300
C158 C 1.265000 -0.085000 0.937700
H159 H 1.369000 -0.073600 0.905800
H160 H 1.226300 -0.038000 0.959600
C161 C 1.059600 -0.119200 0.887100
H162 H 1.104000 -0.165000 0.863400
C163 C 0.986500 -0.065520 0.752020
C164 C 0.603400 0.082400 0.683210
C165 C 0.590000 0.095600 0.597600
C166 C 0.396800 0.128400 0.548500
H167 H 0.278900 0.144500 0.569200
C168 C 0.381800 0.136900 0.468500
H169 H 0.253200 0.159300 0.433800
C170 C 0.552400 0.113000 0.441100
H171 H 0.543600 0.117800 0.386700
C172 C 0.741800 0.081000 0.493400
H173 H 0.862900 0.066200 0.473800
C174 C 0.462600 0.128430 0.721180
C175 C 0.464800 0.205900 0.718600
H176 H 0.558000 0.230300 0.692000
C177 C 0.333200 0.247100 0.754200
H178 H 0.337900 0.299500 0.752600
C179 C 0.193000 0.211900 0.792600
H180 H 0.099800 0.240300 0.816000
C181 C 0.190500 0.135600 0.796700
H182 H 0.096800 0.111500 0.823300
C183 C 0.323600 0.094600 0.762000
H184 H 0.321900 0.042300 0.765700

#END
