./ACRLAC_from_POSCAR.cif_generated_by_CrystalShift
_symmetry_cell_setting triclinic
_symmetry_space_group_name_H-M 'P 1'
loop_
_symmetry_equiv_pos_site_id
_symmetry_equiv_pos_as_xyz
1 x,y,z
_cell_length_a 9.966000
_cell_length_b 11.744000
_cell_length_c 6.306000
_cell_angle_alpha 90.000000
_cell_angle_beta 90.000000
_cell_angle_gamma 90.000000
_cell_volume 738.058679
loop_
_atom_site_label
_atom_site_type_symbol
_atom_site_fract_x
_atom_site_fract_y
_atom_site_fract_z
H1 H 0.744000 0.742000 1.000000
H2 H 0.244000 0.758000 0.000000
H3 H -0.014000 0.653000 0.500000
H4 H 0.113000 -0.004000 0.000000
H5 H 0.256000 0.258000 0.000000
H6 H 0.130000 0.442000 0.000000
H7 H -0.014000 0.347000 0.000000
H8 H 1.014000 0.347000 0.500000
H9 H 0.870000 0.442000 0.500000
H10 H 0.130000 0.558000 0.500000
H11 H 0.256000 0.742000 0.500000
H12 H 0.113000 1.004000 0.500000
H13 H 0.113000 -0.004000 1.000000
H14 H 0.256000 0.258000 1.000000
H15 H 0.130000 0.442000 1.000000
H16 H -0.014000 0.347000 1.000000
H17 H 0.744000 0.258000 0.500000
H18 H 0.887000 -0.004000 0.500000
H19 H 0.370000 0.942000 0.000000
H20 H 0.514000 0.847000 0.000000
H21 H 0.486000 0.153000 1.000000
H22 H 0.613000 0.496000 0.500000
H23 H 0.756000 0.758000 0.500000
H24 H 0.630000 0.942000 0.500000
H25 H 0.486000 0.847000 0.500000
H26 H 0.630000 0.058000 1.000000
H27 H 0.756000 0.242000 1.000000
H28 H 0.613000 0.504000 1.000000
H29 H 0.486000 0.153000 0.000000
H30 H 0.630000 0.058000 0.000000
H31 H 0.887000 1.004000 0.000000
H32 H 0.744000 0.742000 0.000000
H33 H 0.870000 0.558000 0.000000
H34 H 1.014000 0.653000 0.000000
H35 H 0.756000 0.242000 0.000000
H36 H 0.514000 0.847000 1.000000
H37 H 0.613000 0.504000 0.000000
H38 H 0.387000 0.496000 1.000000
H39 H 0.514000 0.153000 0.500000
H40 H 0.887000 1.004000 1.000000
H41 H 0.387000 0.496000 0.000000
H42 H 0.870000 0.558000 1.000000
H43 H 1.014000 0.653000 1.000000
H44 H 0.370000 0.942000 1.000000
H45 H 0.244000 0.758000 1.000000
H46 H 0.370000 0.058000 0.500000
H47 H 0.244000 0.242000 0.500000
H48 H 0.387000 0.504000 0.500000
C49 C 0.423500 0.146200 0.500000
C50 C 0.350800 0.238500 0.500000
C51 C 0.414600 0.351300 0.500000
C52 C 0.923500 0.646200 1.000000
C53 C 0.850800 0.738500 1.000000
C54 C 0.423500 0.853800 1.000000
C55 C 0.585400 0.351300 0.000000
C56 C 0.649200 0.238500 0.000000
C57 C 0.576500 0.146200 0.000000
C58 C 0.914600 0.851300 1.000000
C59 C 0.914600 0.148700 0.500000
C60 C 0.923500 0.646200 0.000000
C61 C 0.850800 0.738500 0.000000
C62 C 0.350800 0.761500 1.000000
C63 C 0.414600 0.648700 1.000000
C64 C 0.585400 0.351300 1.000000
C65 C 0.649200 0.238500 1.000000
C66 C 0.576500 0.146200 1.000000
C67 C 0.914600 0.851300 0.000000
C68 C 0.850800 0.261500 0.500000
C69 C 0.923500 0.353800 0.500000
C70 C 0.576500 0.853800 0.500000
C71 C 0.649200 0.761500 0.500000
C72 C 0.585400 0.648700 0.500000
C73 C 0.085400 0.851300 0.500000
C74 C 0.149200 0.738500 0.500000
C75 C 0.076500 0.646200 0.500000
C76 C 0.076500 0.353800 1.000000
C77 C 0.149200 0.261500 1.000000
C78 C 0.085400 0.148700 1.000000
C79 C 0.076500 0.353800 0.000000
C80 C 0.149200 0.261500 0.000000
C81 C 0.085400 0.148700 0.000000
C82 C 0.414600 0.648700 0.000000
C83 C 0.350800 0.761500 0.000000
C84 C 0.423500 0.853800 0.000000
O85 O -0.040200 0.863800 0.500000
O86 O 0.165500 0.936500 0.500000
O87 O 0.459800 0.363800 1.000000
O88 O 0.665500 0.436500 1.000000
O89 O 0.334500 0.563500 0.000000
O90 O 0.540200 0.636200 0.000000
O91 O 0.459800 0.363800 0.000000
O92 O 0.665500 0.436500 0.000000
O93 O 0.540200 0.363800 0.500000
O94 O 0.334500 0.436500 0.500000
O95 O 1.040200 0.863800 1.000000
O96 O 0.834500 0.936500 1.000000
O97 O 1.040200 0.863800 0.000000
O98 O 0.334500 0.563500 1.000000
O99 O 0.540200 0.636200 1.000000
O100 O 0.834500 0.936500 0.000000
O101 O 0.459800 0.636200 0.500000
O102 O 0.665500 0.563500 0.500000
O103 O -0.040200 0.136200 1.000000
O104 O 0.165500 0.063500 1.000000
O105 O -0.040200 0.136200 0.000000
O106 O 0.165500 0.063500 0.000000
O107 O 0.834500 0.063500 0.500000
O108 O 1.040200 0.136200 0.500000

#END
