./ACSLCB10_from_POSCAR.cif_generated_by_CrystalShift
_symmetry_cell_setting triclinic
_symmetry_space_group_name_H-M 'P 1'
loop_
_symmetry_equiv_pos_site_id
_symmetry_equiv_pos_as_xyz
1 x,y,z
_cell_length_a 4.566000
_cell_length_b 10.043000
_cell_length_c 9.340000
_cell_angle_alpha 94.450000
_cell_angle_beta 94.230000
_cell_angle_gamma 97.220000
_cell_volume 422.108563
loop_
_atom_site_label
_atom_site_type_symbol
_atom_site_fract_x
_atom_site_fract_y
_atom_site_fract_z
H1 H 0.471900 0.657000 0.119600
H2 H 0.735100 0.639400 0.054700
H3 H 0.075300 0.597800 0.582400
H4 H -0.046900 0.628400 0.822900
H5 H 0.165000 0.838800 0.955900
H6 H 0.539000 0.982600 0.860300
H7 H 0.775400 0.856500 0.430800
H8 H 0.847600 1.015800 0.672500
H9 H 0.528100 0.343000 0.880400
H10 H 0.279200 0.449300 0.812200
H11 H 0.264900 0.360600 0.945300
H12 H 0.924700 0.402200 0.417600
H13 H 1.046900 0.371600 0.177100
H14 H 0.152400 -0.015800 0.327500
H15 H 0.224600 0.143500 0.569200
H16 H 0.461000 0.017400 0.139700
H17 H 0.835000 0.161200 0.044100
H18 H 0.720800 0.550700 0.187800
C19 C 0.210400 0.241300 0.754500
C20 C 0.543700 0.297300 0.562900
C21 C 0.828000 0.329900 0.355600
C22 C 0.912100 0.296200 0.220800
C23 C 0.608500 0.247900 0.416200
C24 C 0.469600 0.131500 0.335100
C25 C 0.553200 0.097300 0.198700
C26 C 0.773300 0.179900 0.142500
C27 C 0.391500 0.752100 0.583800
C28 C 0.530400 0.868500 0.664900
C29 C 0.446800 0.902700 0.801300
C30 C 0.226700 0.820100 0.857500
C31 C 0.087900 0.703800 0.779200
C32 C 0.172000 0.670100 0.644400
C33 C 0.456300 0.702700 0.437100
C34 C 0.789600 0.758700 0.245500
C35 C 0.660400 0.641800 0.143000
C36 C 0.339600 0.358200 0.857000
N37 N 0.315100 0.221200 0.623400
N38 N 0.684900 0.778800 0.376600
O39 O 0.315300 0.602600 0.372200
O40 O 0.001000 0.161300 0.785700
O41 O 0.251200 0.049500 0.390100
O42 O 0.748800 0.950500 0.609900
O43 O 0.999000 0.838700 0.214300
O44 O 0.684700 0.397400 0.627800

#END
