./ADAJEW_from_POSCAR.cif_generated_by_CrystalShift
_symmetry_cell_setting triclinic
_symmetry_space_group_name_H-M 'P 1'
loop_
_symmetry_equiv_pos_site_id
_symmetry_equiv_pos_as_xyz
1 x,y,z
_cell_length_a 13.644600
_cell_length_b 8.174200
_cell_length_c 14.879600
_cell_angle_alpha 90.000000
_cell_angle_beta 112.454000
_cell_angle_gamma 90.000000
_cell_volume 1533.758321
loop_
_atom_site_label
_atom_site_type_symbol
_atom_site_fract_x
_atom_site_fract_y
_atom_site_fract_z
H1 H 0.094600 0.663500 0.570800
H2 H 0.194600 0.653900 0.671800
H3 H 0.077200 0.632200 0.669800
H4 H -0.017100 -0.005900 0.687600
H5 H -0.074600 -0.000100 0.571700
H6 H -0.097000 0.140200 0.636400
H7 H 0.512600 0.311100 -0.066400
H8 H 0.312200 0.063600 0.549100
H9 H 0.326700 0.313100 -0.182500
H10 H 0.314600 -0.028800 0.644700
H11 H 0.380600 0.136600 0.654200
H12 H 0.549600 0.230900 0.167700
H13 H 0.614100 0.214100 0.098100
H14 H 0.567000 0.054600 0.129500
H15 H -0.010700 0.388600 0.634200
H16 H 0.149500 0.244900 -0.174100
H17 H 0.146300 0.178500 -0.074100
H18 H 0.166700 0.054300 -0.148200
H19 H 0.140400 -0.027100 0.623300
H20 H 0.166700 0.445700 0.351800
H21 H 0.146300 0.321500 0.425900
H22 H 0.140400 0.527100 0.123300
H23 H 0.149500 0.255100 0.325900
H24 H 0.567000 0.445400 0.629500
H25 H -0.010700 0.111400 0.134200
H26 H 0.614100 0.285900 0.598100
H27 H 0.549600 0.269100 0.667700
H28 H 0.380600 0.363400 0.154200
H29 H 0.314600 0.528800 0.144700
H30 H 0.312200 0.436400 0.049100
H31 H 0.326700 0.186900 0.317500
H32 H -0.097000 0.359800 0.136400
H33 H -0.074600 0.500100 0.071700
H34 H -0.017100 0.505900 0.187600
H35 H 0.512600 0.188900 0.433600
H36 H 0.077200 -0.132200 0.169800
H37 H 0.194600 -0.153900 0.171800
H38 H 0.094600 -0.163500 0.070800
H39 H 0.673300 0.686900 1.182500
H40 H 0.487400 0.688900 1.066400
H41 H 0.905400 1.163500 0.929200
H42 H 0.805400 1.153900 0.828200
H43 H 0.922800 1.132200 0.830200
H44 H 1.017100 0.494100 0.812400
H45 H 0.487400 0.811100 0.566400
H46 H 1.074600 0.499900 0.928300
H47 H 0.673300 0.813100 0.682500
H48 H 1.097000 0.640200 0.863600
H49 H 0.687800 0.563600 0.950900
H50 H 0.450400 0.730900 0.332300
H51 H 0.385900 0.714100 0.401900
H52 H 0.433000 0.554600 0.370500
H53 H 0.685400 0.471200 0.855300
H54 H 0.850500 0.744900 0.674100
H55 H 0.853700 0.678500 0.574100
H56 H 0.833300 0.554300 0.648200
H57 H 0.619400 0.636600 0.845800
H58 H 1.010700 0.888600 0.865800
H59 H 0.859600 0.472900 0.876700
H60 H 0.859600 1.027100 0.376700
H61 H 0.833300 0.945700 1.148200
H62 H 0.853700 0.821500 1.074100
H63 H 1.010700 0.611400 0.365800
H64 H 0.850500 0.755100 1.174100
H65 H 0.433000 0.945400 0.870500
H66 H 0.619400 0.863400 0.345800
H67 H 0.685400 1.028800 0.355300
H68 H 0.687800 0.936400 0.450900
H69 H 0.385900 0.785900 0.901900
H70 H 1.097000 0.859800 0.363600
H71 H 1.074600 1.000100 0.428300
H72 H 1.017100 1.005900 0.312400
H73 H 0.450400 0.769100 0.832300
H74 H 0.922800 0.367800 0.330200
H75 H 0.805400 0.346100 0.328200
H76 H 0.905400 0.336500 0.429200
B77 B 0.690010 0.550800 0.411360
B78 B 0.309990 0.449200 0.588640
B79 B 0.690010 0.949200 0.911360
B80 B 0.309990 0.050800 0.088640
C81 C 0.123610 0.610400 0.634620
C82 C 0.546470 0.733000 1.055800
C83 C 0.357010 0.144900 0.017340
C84 C 0.647160 0.731500 1.118730
C85 C 0.453530 0.267000 -0.055800
C86 C -0.043230 0.066100 0.630670
C87 C 0.445120 0.829200 0.887280
C88 C 0.876390 0.389600 0.365380
C89 C 1.043230 0.933900 0.369330
C90 C 0.684680 0.921600 0.384530
C91 C 0.820320 0.834600 1.121410
C92 C 0.869430 0.572800 0.378590
C93 C 0.952260 0.666100 0.372230
C94 C 0.952400 0.835300 0.374900
C95 C 0.783150 0.850900 0.892510
C96 C 0.779670 0.677000 0.887000
C97 C 0.863540 0.588900 0.879160
C98 C 0.863540 0.911100 0.379160
C99 C 0.952400 0.664700 0.874900
C100 C 0.952260 0.833900 0.872230
C101 C 0.779670 0.823000 0.387000
C102 C 0.869430 0.927200 0.878590
C103 C 0.684680 0.578400 0.884530
C104 C 0.783150 0.649100 0.392510
C105 C 0.820320 0.665400 0.621410
C106 C 0.445120 0.670800 0.387280
C107 C 1.043230 0.566100 0.869330
C108 C 0.352840 0.268500 -0.118730
C109 C 0.647160 0.768500 0.618730
C110 C 0.546470 0.767000 0.555800
C111 C 0.876390 1.110400 0.865380
C112 C 0.554880 0.170800 0.112720
C113 C 0.642990 0.644900 0.482660
C114 C 0.315320 0.078400 0.615470
C115 C 0.130570 0.427200 0.621410
C116 C 0.642990 0.855100 0.982660
C117 C 0.179680 0.165400 -0.121410
C118 C 0.357010 0.355100 0.517340
C119 C 0.047740 0.333900 0.627770
C120 C 0.453530 0.233000 0.444200
C121 C 0.123610 -0.110400 0.134620
C122 C 0.352840 0.231500 0.381270
C123 C -0.043230 0.433900 0.130670
C124 C 0.047600 0.164700 0.625100
C125 C 0.554880 0.329200 0.612720
C126 C 0.315320 0.421600 0.115470
C127 C 0.130570 0.072800 0.121410
C128 C 0.047740 0.166100 0.127770
C129 C 0.179680 0.334600 0.378590
C130 C 0.047600 0.335300 0.125100
C131 C 0.136460 0.411100 0.120840
C132 C 0.220330 0.323000 0.113000
C133 C 0.216850 0.350900 0.607490
C134 C 0.220330 0.177000 0.613000
C135 C 0.136460 0.088900 0.620840
C136 C 0.216850 0.149100 0.107490
N137 N 0.294200 0.307280 0.426740
N138 N 0.456090 0.310260 0.527480
N139 N 0.543910 0.810260 0.972520
N140 N 0.456090 0.189740 0.027480
N141 N 0.705800 0.807280 1.073260
N142 N 0.543910 0.689740 0.472520
N143 N 0.294200 0.192720 -0.073260
N144 N 0.705800 0.692720 0.573260
Cl145 Cl 0.583620 1.001370 0.790560
Cl146 Cl 0.583620 0.498630 0.290560
Cl147 Cl 0.733310 1.152000 0.979770
Cl148 Cl 0.266690 0.652000 0.520230
Cl149 Cl 0.266690 -0.152000 0.020230
Cl150 Cl 0.416380 -0.001370 0.209440
Cl151 Cl 0.416380 0.501370 0.709440
Cl152 Cl 0.733310 0.348000 0.479770

#END
