
#######################################################################
#
#                 Cambridge Crystallographic Data Centre
#                                CCDC 
#
#######################################################################
#
# If this CIF has been generated from an entry in the Cambridge 
# Structural Database, then it will include bibliographic, chemical, 
# crystal, experimental, refinement or atomic coordinate data resulting 
# from the CCDC's data processing and validation procedures.
#
#######################################################################

data_ADECUI
_symmetry_cell_setting           monoclinic
_symmetry_space_group_name_H-M   'P 21/n'
_symmetry_Int_Tables_number      14
_space_group_name_Hall           '-P 2yn'
loop_
_symmetry_equiv_pos_site_id
_symmetry_equiv_pos_as_xyz
1 x,y,z
2 1/2-x,1/2+y,1/2-z
3 -x,-y,-z
4 1/2+x,1/2-y,1/2+z
_cell_length_a                   4.7220(10)
_cell_length_b                   20.087(4)
_cell_length_c                   12.824(3)
_cell_angle_alpha                90
_cell_angle_beta                 91.13(3)
_cell_angle_gamma                90
_cell_volume                     1216.13
loop_
_atom_site_label
_atom_site_type_symbol
_atom_site_fract_x
_atom_site_fract_y
_atom_site_fract_z
O1 O 0.04424(16) -0.07123(4) 0.63479(6)
C1 C 0.26259(18) 0.02380(5) 0.71549(7)
C2 C 0.36662(19) 0.04029(5) 0.61798(8)
H1 H 0.2986 0.0171 0.5580
C3 C 0.56877(19) 0.09023(5) 0.60671(8)
H2 H 0.6373 0.1003 0.5394
C4 C 0.67158(17) 0.12554(5) 0.69332(7)
C5 C 0.88425(19) 0.17655(5) 0.68504(8)
H3 H 0.9578 0.1869 0.6186
C6 C 0.98138(18) 0.21004(5) 0.77007(8)
H4 H 1.1218 0.2434 0.7620
C7 C 0.87668(18) 0.19620(4) 0.87217(8)
C8 C 0.97849(19) 0.22947(5) 0.96121(8)
H5 H 1.1197 0.2628 0.9546
C9 C 0.8755(2) 0.21427(5) 1.05897(8)
H6 H 0.9479 0.2371 1.1187
C10 C 0.66754(19) 0.16598(5) 1.07035(8)
H7 H 0.5973 0.1565 1.1376
C11 C 0.56059(18) 0.13121(5) 0.98328(7)
C12 C 0.34717(19) 0.08086(5) 0.99180(8)
H8 H 0.2722 0.0711 1.0583
C13 C 0.24988(19) 0.04685(5) 0.90723(8)
H9 H 0.1082 0.0138 0.9158
C14 C 0.35606(17) 0.05950(4) 0.80448(7)
C15 C 0.56372(17) 0.11044(4) 0.79344(7)
C16 C 0.66550(17) 0.14610(4) 0.88302(7)
C17 C 0.05130(19) -0.03194(5) 0.72627(8)
H10 H 0.1047 -0.0600 0.7870
H11 H -0.1391 -0.0132 0.7384
C18 C -0.1534(2) -0.12402(6) 0.64211(9)
H12 H -0.1540 -0.1500 0.5774
H13 H -0.3429 -0.1057 0.6530
H14 H -0.1000 -0.1528 0.7009
O1 O 0.45576(16) 0.42877(4) 0.86521(6)
C1 C 0.23741(18) 0.52380(5) 0.78451(7)
C2 C 0.13338(19) 0.54029(5) 0.88202(8)
H1 H 0.2014 0.5171 0.9420
C3 C -0.06877(19) 0.59023(5) 0.89329(8)
H2 H -0.1373 0.6003 0.9606
C4 C -0.17158(17) 0.62554(5) 0.80668(7)
C5 C -0.38425(19) 0.67655(5) 0.81496(8)
H3 H -0.4578 0.6869 0.8814
C6 C -0.48138(18) 0.71004(5) 0.72993(8)
H4 H -0.6218 0.7434 0.7380
C7 C -0.37668(18) 0.69620(4) 0.62783(8)
C8 C -0.47849(19) 0.72947(5) 0.53879(8)
H5 H -0.6197 0.7628 0.5454
C9 C -0.3755(2) 0.71427(5) 0.44103(8)
H6 H -0.4479 0.7371 0.3813
C10 C -0.16754(19) 0.66598(5) 0.42965(8)
H7 H -0.0973 0.6565 0.3624
C11 C -0.06059(18) 0.63121(5) 0.51672(7)
C12 C 0.15283(19) 0.58086(5) 0.50820(8)
H8 H 0.2278 0.5711 0.4417
C13 C 0.25012(19) 0.54685(5) 0.59277(8)
H9 H 0.3918 0.5138 0.5842
C14 C 0.14394(17) 0.55950(4) 0.69552(7)
C15 C -0.06372(17) 0.61044(4) 0.70656(7)
C16 C -0.16550(17) 0.64610(4) 0.61698(7)
C17 C 0.44870(19) 0.46806(5) 0.77373(8)
H10 H 0.3953 0.4400 0.7130
H11 H 0.6391 0.4868 0.7616
C18 C 0.6534(2) 0.37598(6) 0.85789(9)
H12 H 0.6540 0.3500 0.9226
H13 H 0.8429 0.3943 0.8470
H14 H 0.6000 0.3472 0.7991
O1 O 0.95576(16) 1.07123(4) 0.36521(6)
C1 C 0.73741(18) 0.97620(5) 0.28451(7)
C2 C 0.63338(19) 0.95971(5) 0.38202(8)
H1 H 0.7014 0.9829 0.4420
C3 C 0.43123(19) 0.90977(5) 0.39329(8)
H2 H 0.3627 0.8997 0.4606
C4 C 0.32842(17) 0.87446(5) 0.30668(7)
C5 C 0.11575(19) 0.82345(5) 0.31496(8)
H3 H 0.0422 0.8131 0.3814
C6 C 0.01862(18) 0.78996(5) 0.22993(8)
H4 H -0.1218 0.7566 0.2380
C7 C 0.12332(18) 0.80380(4) 0.12783(8)
C8 C 0.02151(19) 0.77053(5) 0.03879(8)
H5 H -0.1197 0.7372 0.0454
C9 C 0.1245(2) 0.78573(5) -0.05897(8)
H6 H 0.0521 0.7629 -0.1187
C10 C 0.33246(19) 0.83402(5) -0.07035(8)
H7 H 0.4027 0.8435 -0.1376
C11 C 0.43941(18) 0.86879(5) 0.01672(7)
C12 C 0.65283(19) 0.91914(5) 0.00820(8)
H8 H 0.7278 0.9289 -0.0583
C13 C 0.75012(19) 0.95315(5) 0.09277(8)
H9 H 0.8918 0.9862 0.0842
C14 C 0.64394(17) 0.94050(4) 0.19552(7)
C15 C 0.43628(17) 0.88956(4) 0.20656(7)
C16 C 0.33450(17) 0.85390(4) 0.11698(7)
C17 C 0.94870(19) 1.03194(5) 0.27373(8)
H10 H 0.8953 1.0600 0.2130
H11 H 1.1391 1.0132 0.2616
C18 C 1.1534(2) 1.12402(6) 0.35789(9)
H12 H 1.1540 1.1500 0.4226
H13 H 1.3429 1.1057 0.3470
H14 H 1.1000 1.1528 0.2991
O1 O 0.54424(16) 0.57123(4) 0.13479(6)
C1 C 0.76259(18) 0.47620(5) 0.21549(7)
C2 C 0.86662(19) 0.45971(5) 0.11798(8)
H1 H 0.7986 0.4829 0.0580
C3 C 1.06877(19) 0.40977(5) 0.10671(8)
H2 H 1.1373 0.3997 0.0394
C4 C 1.17158(17) 0.37446(5) 0.19332(7)
C5 C 1.38425(19) 0.32345(5) 0.18504(8)
H3 H 1.4578 0.3131 0.1186
C6 C 1.48138(18) 0.28996(5) 0.27007(8)
H4 H 1.6218 0.2566 0.2620
C7 C 1.37668(18) 0.30380(4) 0.37217(8)
C8 C 1.47849(19) 0.27053(5) 0.46121(8)
H5 H 1.6197 0.2372 0.4546
C9 C 1.3755(2) 0.28573(5) 0.55897(8)
H6 H 1.4479 0.2629 0.6187
C10 C 1.16754(19) 0.33402(5) 0.57035(8)
H7 H 1.0973 0.3435 0.6376
C11 C 1.06059(18) 0.36879(5) 0.48328(7)
C12 C 0.84717(19) 0.41914(5) 0.49180(8)
H8 H 0.7722 0.4289 0.5583
C13 C 0.74988(19) 0.45315(5) 0.40723(8)
H9 H 0.6082 0.4862 0.4158
C14 C 0.85606(17) 0.44050(4) 0.30448(7)
C15 C 1.06372(17) 0.38956(4) 0.29344(7)
C16 C 1.16550(17) 0.35390(4) 0.38302(7)
C17 C 0.55130(19) 0.53194(5) 0.22627(8)
H10 H 0.6047 0.5600 0.2870
H11 H 0.3609 0.5132 0.2384
C18 C 0.3466(2) 0.62402(6) 0.14211(9)
H12 H 0.3460 0.6500 0.0774
H13 H 0.1571 0.6057 0.1530
H14 H 0.4000 0.6528 0.2009

#END
