./ADEDAP_from_POSCAR.cif_generated_by_CrystalShift
_symmetry_cell_setting triclinic
_symmetry_space_group_name_H-M 'P 1'
loop_
_symmetry_equiv_pos_site_id
_symmetry_equiv_pos_as_xyz
1 x,y,z
_cell_length_a 15.998000
_cell_length_b 5.299300
_cell_length_c 12.336000
_cell_angle_alpha 90.000000
_cell_angle_beta 111.215000
_cell_angle_gamma 90.000000
_cell_volume 974.947462
loop_
_atom_site_label
_atom_site_type_symbol
_atom_site_fract_x
_atom_site_fract_y
_atom_site_fract_z
H1 H 0.520800 1.131400 0.619200
H2 H 0.446600 1.313900 0.538300
H3 H 0.203300 0.285700 0.339400
H4 H 0.291200 0.595000 0.456200
H5 H 0.291200 0.905000 -0.043800
H6 H 0.143500 0.567600 0.657200
H7 H 0.203300 1.214300 -0.160600
H8 H 0.479200 0.631400 0.880800
H9 H 0.553400 0.813900 0.961700
H10 H 0.056000 1.243200 0.040700
H11 H 0.646400 0.491800 1.021200
H12 H 0.143500 0.932400 0.157200
H13 H 0.572500 0.309500 0.938900
H14 H 0.737900 0.351800 0.790100
H15 H 0.262100 0.648200 0.209900
H16 H 0.856500 0.067600 0.842800
H17 H 0.944000 -0.243200 0.959300
H18 H 0.427500 0.690500 0.061100
H19 H 0.353600 0.508200 -0.021200
H20 H 0.796700 -0.214300 1.160600
H21 H 0.446600 0.186100 0.038300
H22 H 0.520800 0.368600 0.119200
H23 H 0.708800 0.095000 1.043800
H24 H 0.353600 0.991800 0.478800
H25 H 0.427500 0.809500 0.561100
H26 H 0.262100 0.851800 0.709900
H27 H 0.479200 -0.131400 0.380800
H28 H 0.708800 0.405000 0.543800
H29 H 0.553400 -0.313900 0.461700
H30 H 0.796700 0.714300 0.660600
H31 H 0.646400 0.008200 0.521200
H32 H 0.572500 0.190500 0.438900
H33 H 0.944000 0.743200 0.459300
H34 H 0.056000 0.256800 0.540700
H35 H 0.856500 0.432400 0.342800
H36 H 0.737900 0.148200 0.290100
C37 C 0.721160 0.181700 0.353430
C38 C 0.772790 0.379700 0.430560
C39 C 0.653650 0.040200 0.358710
C40 C 0.844220 0.487800 0.407000
C41 C 0.896800 0.674100 0.476500
C42 C 0.879040 0.756900 0.571200
C43 C 0.540710 -0.187700 0.400840
C44 C 0.808690 0.656700 0.596600
C45 C 0.756410 0.471100 0.526500
C46 C 0.614580 -0.158100 0.271400
C47 C 0.346350 0.959800 0.641290
C48 C 0.395020 0.965500 0.557800
C49 C 0.278840 0.818300 0.646570
C50 C 0.756410 0.028900 1.026500
C51 C 0.385420 0.341900 0.228600
C52 C 0.808690 -0.156700 1.096600
C53 C 0.459290 0.312300 0.099160
C54 C 0.879040 -0.256900 1.071200
C55 C 0.896800 -0.174100 0.976500
C56 C 0.395020 0.534500 0.057800
C57 C 0.844220 0.012200 0.907000
C58 C 0.346350 0.540200 0.141290
C59 C 0.772790 0.120300 0.930560
C60 C 0.721160 0.318300 0.853430
C61 C 0.278840 0.681700 0.146570
C62 C 0.653650 0.459800 0.858710
C63 C 0.604980 0.465500 0.942200
C64 C 0.227210 0.879700 0.069440
C65 C 0.155780 0.987800 0.093000
C66 C 0.540710 0.687700 0.900840
C67 C 0.103200 1.174100 0.023500
C68 C 0.120960 1.256900 -0.071200
C69 C 0.614580 0.658100 0.771400
C70 C 0.227210 0.620300 0.569440
C71 C 0.191310 1.156700 -0.096600
C72 C 0.155780 0.512200 0.593000
C73 C 0.243590 0.528900 0.473500
C74 C 0.243590 0.971100 -0.026500
C75 C 0.191310 0.343300 0.403400
C76 C 0.459290 1.187700 0.599160
C77 C 0.120960 0.243100 0.428800
C78 C 0.103200 0.325900 0.523500
C79 C 0.604980 0.034500 0.442200
C80 C 0.385420 1.158100 0.728600
O81 O 0.446270 1.292400 0.700200
O82 O 0.446270 0.207600 0.200200
O83 O 0.630780 0.709400 0.685850
O84 O 0.553730 0.792400 0.799800
O85 O 0.369220 0.290600 0.314150
O86 O 0.630780 -0.209400 0.185850
O87 O 0.553730 -0.292400 0.299800
O88 O 0.369220 1.209400 0.814150
Cl89 Cl 0.055230 0.006960 0.340200
Cl90 Cl 0.944770 -0.493040 1.159800
Cl91 Cl 0.944770 0.993040 0.659800
Cl92 Cl 0.055230 1.493040 -0.159800

#END
