./ADERUW01_from_POSCAR.cif_generated_by_CrystalShift
_symmetry_cell_setting triclinic
_symmetry_space_group_name_H-M 'P 1'
loop_
_symmetry_equiv_pos_site_id
_symmetry_equiv_pos_as_xyz
1 x,y,z
_cell_length_a 10.288000
_cell_length_b 10.716000
_cell_length_c 12.243000
_cell_angle_alpha 89.190000
_cell_angle_beta 75.390000
_cell_angle_gamma 64.180000
_cell_volume 1168.587419
loop_
_atom_site_label
_atom_site_type_symbol
_atom_site_fract_x
_atom_site_fract_y
_atom_site_fract_z
H1 H 0.843900 0.454700 -0.004500
H2 H 0.472000 0.662000 -0.125300
H3 H 0.427000 0.865000 -0.026900
H4 H 0.578900 0.876000 0.079600
H5 H 0.819700 0.849400 0.076500
H6 H 0.794000 1.060600 0.129500
H7 H 0.857000 1.235000 0.113100
H8 H 1.074000 1.222000 0.152500
H9 H 1.230000 1.012000 0.203800
H10 H 1.168000 0.825000 0.221200
H11 H 1.368000 0.216500 0.283000
H12 H 1.584000 0.008700 0.279300
H13 H 1.557000 -0.167000 0.385100
H14 H 1.322000 -0.122000 0.497500
H15 H 1.117000 0.086000 0.518200
H16 H 0.950200 0.287800 0.533500
H17 H 0.753000 0.300000 0.632300
H18 H 0.527800 0.330000 0.752600
H19 H 0.314900 0.533100 0.766300
H20 H 0.320000 0.710800 0.657100
H21 H 0.549700 0.675500 0.536700
H22 H 0.156100 0.545300 1.004500
H23 H 0.320000 0.542000 1.108700
H24 H 0.528000 0.338000 1.125300
H25 H 0.573000 0.135000 1.026900
H26 H 0.421100 0.124000 0.920400
H27 H 0.180300 0.150600 0.923500
H28 H 0.206000 -0.060600 0.870500
H29 H 0.143000 -0.235000 0.886900
H30 H -0.074000 -0.222000 0.847500
H31 H -0.230000 -0.012000 0.796200
H32 H -0.168000 0.175000 0.778800
H33 H -0.368000 0.783500 0.717000
H34 H -0.584000 0.991300 0.720700
H35 H -0.557000 1.167000 0.614900
H36 H 0.450300 0.324500 0.463300
H37 H 0.680000 0.289200 0.342900
H38 H 0.685100 0.466900 0.233700
H39 H 0.472200 0.670000 0.247400
H40 H 0.247000 0.700000 0.367700
H41 H 0.049800 0.712200 0.466500
H42 H -0.117000 0.914000 0.481800
H43 H -0.322000 1.122000 0.502500
H44 H 0.680000 0.458000 -0.108700
C45 C 0.337900 0.459700 1.072900
C46 C 0.459900 0.338300 1.079800
C47 C 0.488100 0.214200 1.024700
C48 C 0.393000 0.210600 0.963100
C49 C 0.270800 0.332600 0.954700
C50 C 0.182500 0.530800 0.514700
C51 C 0.172500 0.333800 0.882900
C52 C 0.145100 0.216900 0.874300
C53 C 0.115600 -0.046200 0.856200
C54 C 0.078300 -0.156500 0.865700
C55 C -0.050300 -0.144500 0.842700
C56 C -0.145000 -0.020200 0.811600
C57 C -0.107600 0.090200 0.800000
C58 C 0.324300 0.513000 0.429300
C59 C 0.454400 0.390400 0.420700
C60 C 0.817500 0.469200 0.485300
C61 C 0.675700 0.487000 0.570700
C62 C 0.545600 0.609600 0.579300
C63 C 0.409900 0.627300 0.651800
C64 C 0.402400 0.523000 0.716700
C65 C 0.531200 0.401200 0.709800
C66 C 0.667300 0.383300 0.636900
C67 C 0.952000 0.349000 0.478500
C68 C 1.089400 0.309700 0.396800
C69 C 0.590100 0.372700 0.348200
C70 C 1.220600 0.174000 0.399000
C71 C 1.208400 0.071400 0.465100
C72 C 1.333700 -0.055400 0.459100
C73 C 1.472200 -0.079800 0.388900
C74 C 1.485400 0.022000 0.323900
C75 C 1.361200 0.147300 0.327900
C76 C 0.597600 0.477000 0.283300
C77 C 0.942200 0.799400 0.190000
C78 C 0.976600 0.922000 0.177600
C79 C 1.107600 0.909800 0.200000
C80 C 1.145000 1.020200 0.188400
C81 C 1.050300 1.144500 0.157300
C82 C 0.921700 1.156500 0.134300
C83 C 0.884400 1.046200 0.143800
C84 C 0.854900 0.783100 0.125700
C85 C 0.827500 0.666200 0.117100
C86 C 0.468800 0.598800 0.290200
C87 C 0.729200 0.667400 0.045300
C88 C 0.607000 0.789400 0.036900
C89 C 0.511900 0.785800 -0.024700
C90 C 0.540100 0.661700 -0.079800
C91 C 0.662100 0.540300 -0.072900
C92 C 0.755500 0.542200 -0.009500
C93 C 0.023400 0.078000 0.822400
C94 C 0.057800 0.200600 0.810000
C95 C 0.332700 0.616700 0.363100
C96 C -0.361200 0.852700 0.672100
C97 C -0.485400 0.978000 0.676100
C98 C -0.472200 1.079800 0.611100
C99 C -0.333700 1.055400 0.540900
C100 C -0.208400 0.928600 0.534900
C101 C -0.220600 0.826000 0.601000
C102 C 0.048000 0.651000 0.521500
C103 C -0.089400 0.690300 0.603200
C104 C 0.244500 0.457800 1.009500
O105 O -0.001300 0.284600 0.741500
O106 O 0.882700 0.555500 0.164100
O107 O 1.001300 0.715400 0.258500
O108 O 1.116200 0.379500 0.315900
O109 O 0.803500 0.567700 0.422400
O110 O 0.196500 0.432300 0.577600
O111 O 0.117300 0.444500 0.835900
O112 O -0.116200 0.620500 0.684100
Zn113 Zn 0.965900 0.554300 0.292800
Zn114 Zn 0.034100 0.445700 0.707200

#END
