./ADICOF_from_POSCAR.cif_generated_by_CrystalShift
_symmetry_cell_setting triclinic
_symmetry_space_group_name_H-M 'P 1'
loop_
_symmetry_equiv_pos_site_id
_symmetry_equiv_pos_as_xyz
1 x,y,z
_cell_length_a 11.396000
_cell_length_b 11.490000
_cell_length_c 20.141000
_cell_angle_alpha 78.490000
_cell_angle_beta 89.590000
_cell_angle_gamma 88.000000
_cell_volume 2582.653407
loop_
_atom_site_label
_atom_site_type_symbol
_atom_site_fract_x
_atom_site_fract_y
_atom_site_fract_z
H1 H 0.472000 0.486000 0.593000
H2 H 0.396000 0.313000 0.666900
H3 H 0.093000 0.441000 0.470400
H4 H -0.042000 0.304000 0.523000
H5 H -0.007000 -0.024000 0.786000
H6 H 0.147000 -0.059000 0.863100
H7 H 0.633000 0.062000 0.831200
H8 H 0.019000 0.232000 0.272000
H9 H 0.737000 0.151000 0.738000
H10 H 0.014000 0.386000 0.178000
H11 H 0.586000 0.261000 0.452000
H12 H 0.407000 0.215000 0.404400
H13 H 0.055000 -0.099000 0.512000
H14 H 0.432000 0.182000 0.177000
H15 H 0.048000 -0.243000 0.602000
H16 H 0.486000 0.307000 0.078000
H17 H 0.455000 -0.114000 0.693000
H18 H 0.410000 -0.301000 0.769000
H19 H 0.528000 0.514000 0.407000
H20 H 0.604000 0.687000 0.333100
H21 H 0.907000 0.559000 0.529600
H22 H 0.213000 0.669000 -0.101600
H23 H 1.042000 0.696000 0.477000
H24 H 0.023000 0.755000 -0.087000
H25 H 1.007000 1.024000 0.214000
H26 H 0.853000 1.059000 0.136900
H27 H 0.367000 0.938000 0.168800
H28 H 0.263000 0.849000 0.262000
H29 H 0.414000 0.739000 0.548000
H30 H -0.255000 0.716000 0.156000
H31 H 0.593000 0.785000 0.595600
H32 H -0.203000 0.615000 0.274000
H33 H 0.945000 1.099000 0.488000
H34 H 0.952000 1.243000 0.398000
H35 H 0.545000 1.114000 0.307000
H36 H 0.590000 1.301000 0.231000
H37 H 0.937000 -0.003000 0.934000
H38 H 0.253000 0.411000 0.373300
H39 H 0.898000 0.182000 0.849100
H40 H 0.438000 0.433000 0.316000
H41 H 0.531000 0.119000 1.007000
H42 H 0.427000 0.274000 0.935000
H43 H 0.562000 0.567000 0.684000
H44 H 0.747000 0.589000 0.626700
H45 H 1.203000 0.385000 0.726000
H46 H 0.573000 0.726000 0.065000
H47 H 1.255000 0.284000 0.844000
H48 H 0.469000 0.881000 -0.007000
H49 H 0.977000 0.245000 1.087000
H50 H 0.787000 0.331000 1.101600
H51 H 0.514000 0.693000 0.922000
H52 H 0.102000 0.818000 0.150900
H53 H 0.568000 0.818000 0.823000
H54 H 0.063000 1.003000 0.066000
H55 H 0.986000 0.614000 0.822000
H56 H 0.981000 0.768000 0.728000
C57 C 0.396300 0.852000 0.330300
C58 C 0.361400 0.353500 0.626800
C59 C 0.254900 0.314200 0.601300
C60 C 0.218000 0.392800 0.542100
C61 C 0.915600 0.750300 0.755300
C62 C 0.110400 0.386400 0.510900
C63 C 0.917500 0.659500 0.807600
C64 C 0.033900 0.303100 0.540700
C65 C 0.807400 0.645800 0.842500
C66 C 0.725100 0.737400 0.813800
C67 C 0.615100 0.753400 0.842700
C68 C 0.126000 0.949100 0.067600
C69 C 0.586900 0.682800 0.902500
C70 C 0.146900 0.848000 0.112900
C71 C 0.664900 0.590500 0.932700
C72 C 0.770100 0.564400 0.901700
C73 C 0.831800 0.461000 0.943400
C74 C 0.780500 0.429300 1.007600
C75 C 0.831600 0.349500 1.061300
C76 C 0.256800 0.789300 0.101300
C77 C 0.941900 0.300500 1.051600
C78 C 0.316700 0.856600 0.046200
C79 C 0.990600 0.322500 0.987400
C80 C 0.932700 0.391200 0.930600
C81 C 0.991100 0.378300 0.867800
C82 C 1.104600 0.326700 0.881000
C83 C 1.185500 0.324800 0.828300
C84 C 0.434200 0.832000 0.030400
C85 C 1.154800 0.373300 0.764100
C86 C 0.493500 0.739600 0.072200
C87 C 1.038400 0.411500 0.749500
C88 C 0.950700 0.400600 0.799800
C89 C 0.834800 0.423500 0.772000
C90 C 0.838300 0.481400 0.703600
C91 C 0.739500 0.537400 0.668500
C92 C 0.435900 0.670500 0.125900
C93 C 0.633500 0.530800 0.701400
C94 C 0.315200 0.686100 0.140000
C95 C 0.624300 0.459500 0.765900
C96 C 0.721400 0.396800 0.801000
C97 C 0.684800 0.313900 0.860000
C98 C 0.564100 0.329500 0.874100
C99 C 0.506500 0.260400 0.927800
C100 C 0.278600 0.603200 0.199000
C101 C 0.565800 0.168000 0.969600
C102 C 0.375700 0.540500 0.234100
C103 C 0.683300 0.143400 0.953800
C104 C 0.743200 0.210700 0.898700
C105 C 0.853100 0.152000 0.887100
C106 C 0.366500 0.469200 0.298600
C107 C 0.874000 0.050900 0.932400
C108 C 0.260500 0.462600 0.331500
C109 C 0.068500 0.222000 0.599900
C110 C 0.182200 0.220200 0.628800
C111 C 0.193100 0.127000 0.689200
C112 C 0.083800 0.078500 0.708800
C113 C 0.065200 0.007100 0.773200
C114 C 0.153700 -0.015900 0.819100
C115 C 0.634000 1.260100 0.268400
C116 C 0.161700 0.518600 0.296400
C117 C 0.611600 1.157500 0.311300
C118 C 0.165200 0.576500 0.228000
C119 C 0.703800 1.120500 0.360200
C120 C 0.794300 1.204900 0.352300
C121 C 0.885200 1.199200 0.397500
C122 C 0.049300 0.599400 0.200200
C123 C 0.887300 1.111300 0.454100
C124 C -0.038400 0.588500 0.250500
C125 C 0.799600 1.026400 0.465400
C126 C 0.711600 1.023900 0.417000
C127 C 0.632300 0.927700 0.441000
C128 C 0.651700 0.879700 0.509800
C129 C 0.573600 0.803700 0.549500
C130 C -0.154800 0.626700 0.235900
C131 C 0.471500 0.778800 0.521200
C132 C -0.185500 0.675200 0.171700
C133 C 0.454500 0.816600 0.451500
C134 C 0.539400 0.880900 0.408900
C135 C 0.512700 0.886300 0.338300
C136 C 0.400900 0.451000 0.587300
C137 C 0.340500 0.868600 0.267600
C138 C -0.104600 0.673300 0.119000
C139 C 0.403100 0.918200 0.211200
C140 C 0.008900 0.621700 0.132200
C141 C 0.521800 0.937200 0.216700
C142 C 0.583300 0.909700 0.278700
C143 C 0.709200 0.917300 0.268200
C144 C 0.735100 0.978000 0.201700
C145 C 0.846300 1.015900 0.180900
C146 C 0.067300 0.608800 0.069400
C147 C 0.934800 0.992900 0.226800
C148 C 0.009400 0.677500 0.012600
C149 C 0.916200 0.921500 0.291200
C150 C 0.806900 0.873000 0.310800
C151 C 0.817800 0.779800 0.371200
C152 C 0.931500 0.778000 0.400100
C153 C 0.966100 0.696900 0.459300
C154 C 0.058100 0.699500 -0.051600
C155 C 0.889600 0.613600 0.489100
C156 C 0.168400 0.650500 -0.061300
C157 C 0.782000 0.607200 0.457900
C158 C 0.745100 0.685800 0.398700
C159 C 0.638600 0.646500 0.373200
C160 C 0.219500 0.570700 -0.007600
C161 C 0.599100 0.549000 0.412700
C162 C 0.168200 0.539000 0.056600
C163 C 0.264900 0.022000 0.798300
C164 C 0.290800 0.082700 0.731800
C165 C 0.416700 0.090300 0.721300
C166 C 0.478200 0.062800 0.783300
C167 C 0.084400 0.249700 0.244700
C168 C 0.596900 0.081800 0.788800
C169 C 0.366000 -0.260100 0.731600
C170 C 0.229900 0.435600 0.098300
C171 C 0.388400 -0.157500 0.688700
C172 C 0.335100 0.409500 0.067300
C173 C 0.296200 -0.120500 0.639800
C174 C 0.205700 -0.204900 0.647700
C175 C 0.114800 -0.199200 0.602500
C176 C 0.413100 0.317200 0.097500
C177 C 0.112700 -0.111300 0.545900
C178 C 0.384900 0.246600 0.157300
C179 C 0.200400 -0.026400 0.534600
C180 C 0.288400 -0.023900 0.583000
C181 C 0.367700 0.072300 0.559000
C182 C 0.348300 0.120300 0.490200
C183 C 0.426400 0.196300 0.450500
C184 C 0.274900 0.262600 0.186200
C185 C 0.528500 0.221200 0.478800
C186 C 0.192600 0.354200 0.157500
C187 C 0.545500 0.183400 0.548500
C188 C 0.460600 0.119100 0.591100
C189 C 0.487300 0.113700 0.661700
C190 C 0.603700 0.148000 0.669700
C191 C 0.659500 0.131400 0.732400
C192 C 0.082500 0.340500 0.192400
S193 S 0.316120 0.504740 0.516630
S194 S -0.025490 0.124140 0.649300
S195 S 0.388000 0.001920 0.850410
S196 S 0.667150 0.211870 0.593070
S197 S 0.219270 0.073170 0.459510
S198 S 0.235550 -0.320090 0.716470
S199 S 0.683880 0.495260 0.483370
S200 S 0.237070 0.982590 0.008650
S201 S 1.025490 0.875860 0.350700
S202 S 0.505840 0.565500 0.188850
S203 S 0.612000 0.998080 0.149590
S204 S 0.332850 0.788130 0.406930
S205 S 0.780730 0.926830 0.540490
S206 S 0.764450 1.320090 0.283530
S207 S 0.782790 0.827750 0.742600
S208 S 0.019360 0.520510 0.329250
S209 S 0.646880 0.503670 1.012870
S210 S -0.128400 0.730670 0.033550
S211 S 0.762930 0.017410 0.991350
S212 S 0.494160 0.434500 0.811150
S213 S 0.980640 0.479490 0.670750
S214 S 0.353120 0.496330 -0.012870
S215 S 1.128400 0.269330 0.966450
S216 S 0.217210 0.172250 0.257400

#END
