./ADIPAM10_from_POSCAR.cif_generated_by_CrystalShift
_symmetry_cell_setting triclinic
_symmetry_space_group_name_H-M 'P 1'
loop_
_symmetry_equiv_pos_site_id
_symmetry_equiv_pos_as_xyz
1 x,y,z
_cell_length_a 6.890000
_cell_length_b 5.150000
_cell_length_c 10.670000
_cell_angle_alpha 90.000000
_cell_angle_beta 111.000000
_cell_angle_gamma 90.000000
_cell_volume 353.461900
loop_
_atom_site_label
_atom_site_type_symbol
_atom_site_fract_x
_atom_site_fract_y
_atom_site_fract_z
H1 H 0.862000 1.084800 0.833800
H2 H 0.286400 0.587600 0.956700
H3 H 0.862000 1.084800 -0.166200
H4 H 0.713600 0.087600 0.543300
H5 H 0.525700 0.104500 0.393000
H6 H 0.707600 -0.288200 0.492000
H7 H 0.534500 -0.272400 0.364700
H8 H 0.953000 -0.312000 0.293000
H9 H 0.862000 -0.584800 0.333800
H10 H 0.953000 0.812000 0.793000
H11 H 0.534500 0.772400 0.864700
H12 H 0.953000 0.812000 -0.207000
H13 H 0.292400 0.211800 1.008000
H14 H 0.286400 -0.087600 0.456700
H15 H 0.474300 -0.104500 0.607000
H16 H 0.465500 0.227600 1.135300
H17 H 0.292400 0.288200 0.508000
H18 H 0.465500 0.272400 0.635300
H19 H 0.707600 0.788200 0.992000
H20 H 0.534500 0.772400 -0.135300
H21 H 0.047000 0.312000 0.707000
H22 H 0.138000 0.584800 0.666200
H23 H 0.707600 0.788200 -0.008000
H24 H 0.525700 0.395500 -0.107000
H25 H 0.713600 0.412400 0.043300
H26 H 0.713600 1.087600 0.543300
H27 H 0.525700 1.104500 0.393000
H28 H 0.707600 0.711800 0.492000
H29 H 0.534500 0.727600 0.364700
H30 H 0.953000 0.688000 0.293000
H31 H 0.862000 0.415200 0.333800
H32 H 0.525700 0.395500 0.893000
H33 H 0.713600 0.412400 1.043300
H34 H 0.047000 0.188000 1.207000
H35 H 0.138000 -0.084800 1.166200
H36 H 0.286400 0.912400 0.456700
H37 H 0.474300 0.895500 0.607000
H38 H 0.138000 -0.084800 0.166200
H39 H 0.292400 1.288200 0.508000
H40 H 0.465500 1.272400 0.635300
H41 H 0.047000 0.188000 0.207000
H42 H 0.465500 0.227600 0.135300
H43 H 0.047000 1.312000 0.707000
H44 H 0.138000 1.584800 0.666200
H45 H 0.292400 0.211800 0.008000
H46 H 0.474300 0.604500 0.107000
H47 H 0.286400 0.587600 -0.043300
H48 H 0.474300 0.604500 1.107000
C49 C 0.351600 0.275500 0.075100
C50 C 0.416900 0.526700 0.029300
C51 C 0.583100 0.473300 0.970700
C52 C 0.648400 0.724500 0.924900
C53 C 0.198800 1.192300 0.643800
C54 C 0.351600 1.224500 0.575100
C55 C 0.416900 0.973300 0.529300
C56 C 0.583100 0.473300 -0.029300
C57 C 0.648400 0.724500 -0.075100
C58 C 0.801200 0.807700 0.356200
C59 C 0.648400 0.775500 0.424900
C60 C 0.801200 0.692300 -0.143800
C61 C 0.583100 1.026700 0.470700
C62 C 0.801200 0.692300 0.856200
C63 C 0.198800 0.192300 0.643800
C64 C 0.351600 0.224500 0.575100
C65 C 0.416900 -0.026700 0.529300
C66 C 0.801200 -0.192300 0.356200
C67 C 0.416900 0.526700 1.029300
C68 C 0.351600 0.275500 1.075100
C69 C 0.198800 0.307700 1.143800
C70 C 0.648400 -0.224500 0.424900
C71 C 0.198800 0.307700 0.143800
C72 C 0.583100 0.026700 0.470700
N73 N 0.883000 0.910800 -0.169400
N74 N 0.883000 0.910800 0.830600
N75 N 0.117000 0.089200 0.169400
N76 N 0.117000 0.089200 1.169400
N77 N 0.117000 0.410800 0.669400
N78 N 0.883000 0.589200 0.330600
N79 N 0.117000 1.410800 0.669400
N80 N 0.883000 -0.410800 0.330600
O81 O 0.155800 -0.023100 0.675600
O82 O 0.155800 0.523100 1.175600
O83 O 0.844200 0.023100 0.324400
O84 O 0.155800 0.523100 0.175600
O85 O 0.844200 0.476900 0.824400
O86 O 0.844200 1.023100 0.324400
O87 O 0.155800 0.976900 0.675600
O88 O 0.844200 0.476900 -0.175600

#END
