./ADIVOY_from_POSCAR.cif_generated_by_CrystalShift
_symmetry_cell_setting triclinic
_symmetry_space_group_name_H-M 'P 1'
loop_
_symmetry_equiv_pos_site_id
_symmetry_equiv_pos_as_xyz
1 x,y,z
_cell_length_a 8.871000
_cell_length_b 10.901000
_cell_length_c 17.446000
_cell_angle_alpha 92.066000
_cell_angle_beta 98.906000
_cell_angle_gamma 105.792000
_cell_volume 1598.394281
loop_
_atom_site_label
_atom_site_type_symbol
_atom_site_fract_x
_atom_site_fract_y
_atom_site_fract_z
H1 H 1.015700 0.503900 0.428100
H2 H 0.234000 0.561700 0.669900
H3 H 0.383600 0.393200 0.959200
H4 H -0.240100 0.551000 0.807000
H5 H -0.363400 0.710400 0.776700
H6 H 0.380100 0.397200 0.667600
H7 H -0.450400 0.734400 0.647300
H8 H -0.407900 0.604100 0.550800
H9 H -0.282300 0.449600 0.579100
H10 H 0.030400 0.655400 0.716200
H11 H 0.196900 0.852600 0.766000
H12 H 0.809500 0.494200 0.090700
H13 H 0.360500 0.880600 0.883900
H14 H 0.648800 0.291800 0.042600
H15 H 0.351200 0.708200 0.957400
H16 H 0.639500 0.119400 0.116100
H17 H 0.190500 0.505800 0.909300
H18 H 0.803100 0.147400 0.234000
H19 H -0.015700 0.496100 0.571900
H20 H 0.969600 0.344600 0.283800
H21 H 0.450800 0.091500 0.834600
H22 H 0.481200 0.278400 0.747700
H23 H 0.438800 0.465300 0.826300
H24 H -0.025000 0.287100 0.502300
H25 H 1.282300 0.550400 0.420900
H26 H 0.219600 0.223500 0.564100
H27 H 1.407900 0.395900 0.449200
H28 H 0.391300 0.158700 0.963900
H29 H 1.450400 0.265600 0.352700
H30 H 0.766000 0.438300 0.330100
H31 H 1.363400 0.289600 0.223300
H32 H 0.619900 0.602800 0.332400
H33 H 1.240100 0.449000 0.193000
H34 H 0.780400 0.776500 0.435900
H35 H 0.616400 0.606800 0.040800
H36 H 1.025000 0.712900 0.497700
H37 H 0.608700 0.841300 0.036100
H38 H 0.561200 0.534700 0.173700
H39 H 0.549200 0.908500 0.165400
H40 H 0.518800 0.721600 0.252300
C41 C 0.553100 0.724200 0.201500
C42 C 0.575200 0.621800 0.157700
C43 C 0.568000 0.826400 0.152300
C44 C 0.948500 0.669300 0.451600
C45 C 0.602800 0.791200 0.081600
C46 C 0.813000 0.702800 0.418200
C47 C 0.606300 0.661600 0.084400
C48 C 0.725700 0.609200 0.361800
C49 C 1.271900 0.437100 0.244900
C50 C 0.805600 0.520700 0.361300
C51 C 1.347800 0.342100 0.262800
C52 C 0.944600 0.557000 0.413300
C53 C 1.398900 0.327600 0.339600
C54 C 1.125900 0.645900 0.078500
C55 C 0.274300 0.390800 0.638200
C56 C 0.916200 0.751800 0.001400
C57 C 1.372800 0.406300 0.397400
C58 C 1.223800 0.891300 0.060300
C59 C 0.187000 0.297200 0.581800
C60 C 1.299800 0.984700 0.237000
C61 C 1.297500 0.498500 0.381100
C62 C 1.314400 0.795000 0.456900
C63 C 0.051500 0.330700 0.548400
C64 C 1.246500 1.007400 0.422000
C65 C 1.243300 0.513400 0.302600
C66 C 1.491000 0.943800 0.371400
C67 C 0.424800 0.378200 0.842300
C68 C 1.155600 0.608800 0.275100
C69 C -0.223800 0.108700 0.939700
C70 C 0.446900 0.275800 0.798500
C71 C 0.083800 0.248200 0.998600
C72 C 1.211500 0.743500 0.294000
C73 C -0.125900 0.354100 0.921500
C74 C 0.904300 0.336100 0.235700
C75 C 0.026300 0.313600 0.812700
C76 C -0.006000 0.426600 0.778200
C77 C 0.093800 0.556300 0.807100
C78 C 0.190600 0.574900 0.879600
C79 C 0.804100 0.217600 0.205200
C80 C 0.288400 0.697100 0.908400
C81 C 0.707100 0.199700 0.134600
C82 C 0.292900 0.800300 0.865400
C83 C 0.711600 0.302900 0.091600
C84 C 0.195900 0.782400 0.794800
C85 C 0.809400 0.425100 0.120400
C86 C 0.095700 0.663900 0.764300
C87 C 0.906200 0.443700 0.192900
C88 C -0.211500 0.256500 0.706000
C89 C -0.155600 0.391200 0.724900
C90 C -0.243300 0.486600 0.697400
C91 C -0.297500 0.501500 0.618900
C92 C 1.006000 0.573400 0.221800
C93 C -0.372800 0.593700 0.602600
C94 C 0.973700 0.686400 0.187300
C95 C -0.398900 0.672400 0.660400
C96 C -0.299800 0.015300 0.763000
C97 C -0.347800 0.657900 0.737200
C98 C -0.314400 0.205000 0.543100
C99 C -0.271900 0.562900 0.755100
C100 C 0.194400 0.479300 0.638700
C101 C 0.393700 0.338400 0.915600
C102 C -0.246500 -0.007400 0.578000
C103 C 0.397200 0.208800 0.918400
C104 C -0.491000 0.056200 0.628600
C105 C 0.432000 0.173600 0.847700
C106 C 0.055400 0.443000 0.586700
O107 O 0.172300 0.267700 1.058600
O108 O -0.331200 0.038900 0.957800
O109 O 1.622100 0.982900 0.372200
O110 O 1.225900 1.090300 0.456800
O111 O 1.342800 0.749500 0.515900
O112 O 1.410900 1.062500 0.227600
O113 O 1.331200 0.961100 0.042200
O114 O 0.827700 0.732300 -0.058600
O115 O 1.178700 0.563200 0.069800
O116 O -0.410900 -0.062500 0.772400
O117 O -0.342800 0.250500 0.484100
O118 O -0.225900 -0.090300 0.543200
O119 O -0.178700 0.436800 0.930200
O120 O -0.622100 0.017100 0.627800
Fe121 Fe 1.115440 0.862540 0.235210
Fe122 Fe -0.283550 0.127430 0.627270
Fe123 Fe -0.115440 0.137460 0.764790
Fe124 Fe -0.054150 0.216610 0.909920
Fe125 Fe 1.054150 0.783390 0.090080
Fe126 Fe 1.283550 0.872570 0.372730
Se127 Se 0.931290 0.916950 0.304640
Se128 Se 1.000860 0.971200 0.135150
Se129 Se 0.068710 0.083050 0.695360
Se130 Se -0.000860 0.028800 0.864850
Mo131 Mo 0.972180 0.702130 0.323210
Mo132 Mo 0.027820 0.297870 0.676790
Mo133 Mo 0.183990 0.215110 0.821970
Mo134 Mo 0.816010 0.784890 0.178030

#END
