
#######################################################################
#
#                 Cambridge Crystallographic Data Centre
#                                CCDC 
#
#######################################################################
#
# If this CIF has been generated from an entry in the Cambridge 
# Structural Database, then it will include bibliographic, chemical, 
# crystal, experimental, refinement or atomic coordinate data resulting 
# from the CCDC's data processing and validation procedures.
#
#######################################################################

data_ADMHEP
_symmetry_cell_setting           monoclinic
_symmetry_space_group_name_H-M   'P 21'
_symmetry_Int_Tables_number      4
_space_group_name_Hall           'P 2yb'
loop_
_symmetry_equiv_pos_site_id
_symmetry_equiv_pos_as_xyz
1 x,y,z
2 -x,1/2+y,-z
_cell_length_a                   6.626(3)
_cell_length_b                   7.049(2)
_cell_length_c                   9.499(4)
_cell_angle_alpha                90
_cell_angle_beta                 102.21(4)
_cell_angle_gamma                90
_cell_volume                     433.631
loop_
_atom_site_label
_atom_site_type_symbol
_atom_site_fract_x
_atom_site_fract_y
_atom_site_fract_z
O1 O 1.03430 0.17460 0.02800
O2 O 0.67350 0.39430 0.01070
O3 O 0.65400 0.11710 0.32740
O4 O 0.32830 0.35120 0.34340
O5 O 0.53580 0.71420 0.38490
O6 O 0.89950 0.41720 0.23710
O7 O 1.11860 0.76140 0.27280
C1 C 0.88530 0.12630 0.11220
C2 C 0.75910 0.29740 0.14000
C3 C 0.57660 0.24010 0.20830
C4 C 0.47600 0.41280 0.26200
C5 C 0.63710 0.54110 0.35720
C6 C 0.80790 0.58990 0.27720
C7 C 0.98330 0.70340 0.36430
H1 H 0.96700 0.07300 0.20100
H2 H 0.79400 0.02700 0.06000
H3 H 0.47600 0.16500 0.13500
H4 H 0.40300 0.49200 0.18300
H5 H 0.70000 0.47800 0.45200
H6 H 0.74400 0.66000 0.18900
H7 H 1.06000 0.63000 0.44800
H8 H 0.93300 0.81100 0.40700
H9 H 0.96600 0.20700 -0.05500
H10 H 0.76100 0.44900 -0.01600
H11 H 0.59000 0.02300 0.31200
H12 H 0.22100 0.37100 0.30400
H13 H 0.57400 0.74500 0.46700
H14 H 1.22700 0.73700 0.30500
O1 O -0.03430 0.67460 0.97200
O2 O 0.32650 0.89430 0.98930
O3 O 0.34600 0.61710 0.67260
O4 O 0.67170 0.85120 0.65660
O5 O 0.46420 1.21420 0.61510
O6 O 0.10050 0.91720 0.76290
O7 O -0.11860 1.26140 0.72720
C1 C 0.11470 0.62630 0.88780
C2 C 0.24090 0.79740 0.86000
C3 C 0.42340 0.74010 0.79170
C4 C 0.52400 0.91280 0.73800
C5 C 0.36290 1.04110 0.64280
C6 C 0.19210 1.08990 0.72280
C7 C 0.01670 1.20340 0.63570
H1 H 0.03300 0.57300 0.79900
H2 H 0.20600 0.52700 0.94000
H3 H 0.52400 0.66500 0.86500
H4 H 0.59700 0.99200 0.81700
H5 H 0.30000 0.97800 0.54800
H6 H 0.25600 1.16000 0.81100
H7 H -0.06000 1.13000 0.55200
H8 H 0.06700 1.31100 0.59300
H9 H 0.03400 0.70700 1.05500
H10 H 0.23900 0.94900 1.01600
H11 H 0.41000 0.52300 0.68800
H12 H 0.77900 0.87100 0.69600
H13 H 0.42600 1.24500 0.53300
H14 H -0.22700 1.23700 0.69500

#END
