./ADOLIP_from_POSCAR.cif_generated_by_CrystalShift
_symmetry_cell_setting triclinic
_symmetry_space_group_name_H-M 'P 1'
loop_
_symmetry_equiv_pos_site_id
_symmetry_equiv_pos_as_xyz
1 x,y,z
_cell_length_a 4.229000
_cell_length_b 14.112000
_cell_length_c 23.312000
_cell_angle_alpha 90.000000
_cell_angle_beta 90.000000
_cell_angle_gamma 90.000000
_cell_volume 1391.251954
loop_
_atom_site_label
_atom_site_type_symbol
_atom_site_fract_x
_atom_site_fract_y
_atom_site_fract_z
H1 H 0.307200 -0.021000 0.574400
H2 H 0.731500 0.472000 0.651200
H3 H 0.478400 0.609500 0.604800
H4 H 0.347100 0.696100 0.524600
H5 H 0.807200 0.521000 0.425600
H6 H 0.937100 0.426200 0.501600
H7 H 0.562900 0.573800 0.001600
H8 H 0.062900 0.926200 0.998400
H9 H 0.692800 0.479000 -0.074400
H10 H 0.192800 1.021000 1.074400
H11 H 0.400300 0.636800 0.079200
H12 H 0.599700 0.136800 0.420800
H13 H 0.652900 1.196100 0.975400
H14 H 0.231500 0.028000 0.348800
H15 H 0.521600 1.109500 0.895200
H16 H -0.021600 -0.109500 0.395200
H17 H 0.268500 0.972000 0.848800
H18 H -0.152900 -0.196100 0.475400
H19 H -0.099700 0.863200 0.920800
H20 H 1.152900 0.303900 0.024600
H21 H 1.099700 0.363200 0.579200
H22 H 0.437100 0.073800 0.498400
H23 H 1.021600 0.390500 0.104800
H24 H 0.768500 0.528000 0.151200
C25 C -0.052300 0.837800 0.777400
C26 C 0.483400 0.619600 0.115600
C27 C -0.157800 0.782500 0.732600
C28 C 0.679000 0.546800 0.115600
C29 C -0.343600 0.705000 0.747500
C30 C 0.950000 0.410800 0.068200
C31 C 0.231500 -0.007700 0.436500
C32 C 0.320000 0.017400 0.492000
C33 C -0.426100 0.682900 0.803400
C34 C 0.237700 -0.039400 0.537200
C35 C -0.315100 0.743300 0.845800
C36 C -0.125300 0.821500 0.835100
C37 C -0.026000 -0.141200 0.480200
C38 C -0.016600 0.880400 0.884400
C39 C 0.050000 -0.089200 0.431800
C40 C 0.179000 0.953200 0.884400
C41 C 0.321000 0.046800 0.384400
C42 C 0.450000 1.089200 0.931800
C43 C 0.516600 0.119600 0.384400
C44 C 0.526000 1.141200 0.980200
C45 C 0.625300 0.178500 0.335100
C46 C 0.815100 0.256700 0.345800
C47 C 0.926100 0.317100 0.303400
C48 C 0.843600 0.295000 0.247500
C49 C 0.657800 0.217500 0.232600
C50 C 0.552300 0.162200 0.277400
C51 C 1.026000 0.358800 0.019800
C52 C 0.262300 1.039400 1.037200
C53 C 0.762300 0.460600 -0.037200
C54 C 0.180000 0.982600 0.992000
C55 C 0.680000 0.517400 0.008000
C56 C 0.731500 0.507700 0.563500
C57 C 0.820000 0.482600 0.508000
C58 C 0.268500 1.007700 0.936500
C59 C 0.737700 0.539400 0.462800
C60 C 0.374700 0.678500 0.164900
C61 C 0.768500 0.492300 0.063500
C62 C 0.474000 0.641200 0.519800
C63 C 0.184900 0.756700 0.154200
C64 C 0.550000 0.589200 0.568200
C65 C 0.073900 0.817100 0.196600
C66 C 0.821000 0.453200 0.615600
C67 C 0.156400 0.795000 0.252500
C68 C 1.016600 0.380400 0.615600
C69 C 0.447700 0.662200 0.222600
C70 C 1.125300 0.321500 0.664900
C71 C 1.315100 0.243300 0.654200
C72 C 1.426100 0.182900 0.696600
C73 C 1.343600 0.205000 0.752500
C74 C 1.157800 0.282500 0.767400
C75 C 1.052300 0.337800 0.722600
C76 C 0.342200 0.717500 0.267400
N77 N 0.433600 1.119200 1.033000
N78 N 0.066400 -0.119200 0.533000
N79 N 0.933600 0.380800 -0.033000
N80 N 0.566400 0.619200 0.467000
F81 F 0.638000 0.587900 0.235030
F82 F 0.862000 0.412100 0.735030
F83 F 1.446500 0.146400 0.794510
F84 F 1.389100 0.222600 0.599220
F85 F -0.389100 0.722600 0.900780
F86 F 0.053500 0.853600 0.294510
F87 F -0.446500 0.646400 0.705490
F88 F 0.110900 0.777400 0.099220
F89 F 0.362000 0.087900 0.264970
F90 F 0.946500 0.353600 0.205490
F91 F 0.889100 0.277400 0.400780
F92 F 0.138000 0.912100 0.764970
I93 I -0.174550 0.940270 0.177510
I94 I 1.174550 0.440270 0.322490
I95 I 1.054740 0.313980 0.853294
I96 I 1.674550 0.059730 0.677510
I97 I -0.674550 0.559730 0.822490
I98 I 0.445260 0.686020 0.353294
I99 I 0.554740 0.186020 0.146706
I100 I -0.054740 0.813980 0.646706

#END
