./ADOYAT_from_POSCAR.cif_generated_by_CrystalShift
_symmetry_cell_setting triclinic
_symmetry_space_group_name_H-M 'P 1'
loop_
_symmetry_equiv_pos_site_id
_symmetry_equiv_pos_as_xyz
1 x,y,z
_cell_length_a 9.166000
_cell_length_b 9.860000
_cell_length_c 16.987000
_cell_angle_alpha 90.000000
_cell_angle_beta 90.000000
_cell_angle_gamma 90.000000
_cell_volume 1535.230022
loop_
_atom_site_label
_atom_site_type_symbol
_atom_site_fract_x
_atom_site_fract_y
_atom_site_fract_z
H1 H 0.911150 0.646870 0.042180
H2 H 0.895360 0.845570 -0.034260
H3 H 0.289100 1.088080 0.222190
H4 H 0.428830 1.103090 0.273170
H5 H 0.720020 1.009640 -0.004950
H6 H 0.561040 0.976830 0.100610
H7 H 0.571060 0.774980 0.173510
H8 H 1.071920 0.087300 0.044390
H9 H 1.321520 0.090220 0.015800
H10 H 1.472980 0.252930 0.074280
H11 H 0.019390 0.806180 0.210870
H12 H 0.075870 0.954970 0.209550
H13 H 1.376420 0.403200 0.167650
H14 H -0.176640 0.945960 0.237450
H15 H -0.090290 1.019290 0.303460
H16 H 0.896430 0.150330 0.172460
H17 H 0.858630 0.225250 0.094820
H18 H 1.090290 0.519290 0.196540
H19 H 0.141370 0.725250 0.405180
H20 H 0.103570 0.650330 0.327540
H21 H 1.176640 0.445960 0.262550
H22 H -0.376420 0.903200 0.332350
H23 H 0.924130 0.454970 0.290450
H24 H -0.472980 0.752930 0.425720
H25 H 0.980610 0.306180 0.289130
H26 H -0.321520 0.590220 0.484200
H27 H 0.571170 0.603090 0.226830
H28 H -0.071920 0.587300 0.455610
H29 H 0.710900 0.588080 0.277810
H30 H 0.588850 0.353130 0.542180
H31 H 0.428940 1.274980 0.326490
H32 H 0.604640 0.154430 0.465740
H33 H 0.438960 1.476830 0.399390
H34 H 0.779980 -0.009640 0.495050
H35 H 0.279980 1.509640 0.504950
H36 H 0.938960 0.023170 0.600610
H37 H 0.104640 1.345570 0.534260
H38 H 0.928940 0.225020 0.673510
H39 H 0.088850 1.146870 0.457820
H40 H 0.428080 0.912700 0.544390
H41 H 0.178480 0.909780 0.515800
H42 H 0.210900 -0.088080 0.722190
H43 H 0.071170 -0.103090 0.773170
H44 H 0.027020 0.747070 0.574280
H45 H 0.123580 0.596800 0.667650
H46 H 0.603570 0.849670 0.672460
H47 H 0.641370 0.774750 0.594820
H48 H 0.409710 0.480710 0.696540
H49 H 0.323360 0.554040 0.762550
H50 H 0.480610 0.193820 0.710870
H51 H 0.424130 0.045030 0.709550
H52 H 0.575870 0.545030 0.790450
H53 H 0.676640 0.054040 0.737450
H54 H 0.590290 -0.019290 0.803460
H55 H 0.519390 0.693820 0.789130
H56 H 0.928830 0.396910 0.726830
H57 H 0.789100 0.411920 0.777810
H58 H 0.358630 0.274750 0.905180
H59 H 0.396430 0.349670 0.827540
H60 H 0.411150 -0.146870 0.957820
H61 H 0.876420 0.096800 0.832350
H62 H 0.395360 -0.345570 1.034260
H63 H 0.972980 0.247070 0.925720
H64 H 0.220020 -0.509640 1.004950
H65 H 0.821520 0.409780 0.984200
H66 H 0.061040 -0.476830 0.899390
H67 H 0.571920 0.412700 0.955610
H68 H 0.071060 -0.274980 0.826490
C69 C 0.138200 -0.289800 0.869000
C70 C 0.240060 -0.190580 0.885960
C71 C 0.131960 -0.408940 0.912680
C72 C 0.634370 0.348360 0.929850
C73 C 0.225890 -0.427950 0.974360
C74 C 0.781540 0.345570 0.947600
C75 C 0.328970 -0.331350 0.991340
C76 C 0.871450 0.251220 0.912050
C77 C 0.336900 -0.213060 0.947210
C78 C 0.813690 0.160960 0.858070
C79 C 0.341490 1.050760 0.266070
C80 C 0.841490 0.449240 0.733930
C81 C 0.412640 0.267880 0.856920
C82 C 0.573970 0.257940 0.875800
C83 C 0.750510 0.436990 0.660580
C84 C 0.828970 0.831350 0.008660
C85 C 0.646660 0.648680 0.691030
C86 C 0.790030 0.688960 0.729670
C87 C 0.250510 1.063010 0.339420
C88 C 0.536520 0.614930 0.757330
C89 C 0.664710 0.164600 0.839150
C90 C 0.605880 0.066810 0.778450
C91 C 0.394120 0.566810 0.721550
C92 C 0.463480 0.114930 0.742670
C93 C 0.725890 0.927950 0.025640
C94 C 0.335290 0.664600 0.660850
C95 C 0.426030 0.757940 0.624200
C96 C 0.587360 0.767880 0.643080
C97 C 0.209970 0.188960 0.770330
C98 C 0.353340 0.148680 0.808970
C99 C 0.186310 0.660960 0.641930
C100 C 0.631960 0.908940 0.087320
C101 C 0.128550 0.751220 0.587950
C102 C 0.249490 -0.063010 0.839420
C103 C 0.218460 0.845570 0.552400
C104 C 0.158510 -0.050760 0.766070
C105 C 0.365630 0.848360 0.570150
C106 C 0.146660 0.851320 0.308970
C107 C 0.759940 0.309420 0.614040
C108 C 0.861800 0.210200 0.631000
C109 C 0.163100 1.213060 0.447210
C110 C 0.868040 0.091060 0.587320
C111 C 0.171030 1.331350 0.491340
C112 C 0.774110 0.072050 0.525640
C113 C 0.274110 1.427950 0.474360
C114 C 0.671030 0.168650 0.508660
C115 C 0.368040 1.408940 0.412680
C116 C 0.663100 0.286940 0.552790
C117 C 0.361800 1.289800 0.369000
C118 C 0.638200 0.789800 0.131000
C119 C 0.658510 0.550760 0.233930
C120 C 0.259940 1.190580 0.385960
C121 C -0.134370 0.651640 0.429850
C122 C 0.749490 0.563010 0.160580
C123 C 0.740060 0.690580 0.114040
C124 C 0.853340 0.351320 0.191030
C125 C 0.709970 0.311040 0.229670
C126 C 0.290030 0.811040 0.270330
C127 C 0.963480 0.385070 0.257330
C128 C -0.281540 0.654430 0.447600
C129 C -0.371450 0.748780 0.412050
C130 C 1.105880 0.433190 0.221550
C131 C -0.313690 0.839040 0.358070
C132 C 0.087360 0.732120 0.356920
C133 C 1.164710 0.335400 0.160850
C134 C 1.073970 0.242060 0.124200
C135 C 0.912640 0.232120 0.143080
C136 C -0.073970 0.742060 0.375800
C137 C -0.164710 0.835400 0.339150
C138 C 1.313690 0.339040 0.141930
C139 C -0.105880 0.933190 0.278450
C140 C 1.371450 0.248780 0.087950
C141 C 0.036520 0.885070 0.242670
C142 C 1.281540 0.154430 0.052400
C143 C 1.134370 0.151640 0.070150
C144 C 0.836900 0.713060 0.052790
N145 N 0.663130 0.530460 0.638970
N146 N 0.836870 0.469540 0.138970
N147 N 0.163130 0.969540 0.361030
N148 N 0.336870 0.030460 0.861030
O149 O 0.619110 0.411970 0.250170
O150 O 0.172960 0.303190 0.756620
O151 O 0.827040 0.803190 0.743380
O152 O 0.672960 0.196810 0.243380
O153 O 0.880890 0.588030 0.750170
O154 O 0.327040 0.696810 0.256620
O155 O 0.119110 0.088030 0.749830
O156 O 0.380890 0.911970 0.249830

#END
