./ADUQOG_from_POSCAR.cif_generated_by_CrystalShift
_symmetry_cell_setting triclinic
_symmetry_space_group_name_H-M 'P 1'
loop_
_symmetry_equiv_pos_site_id
_symmetry_equiv_pos_as_xyz
1 x,y,z
_cell_length_a 13.717000
_cell_length_b 5.156700
_cell_length_c 18.788000
_cell_angle_alpha 90.000000
_cell_angle_beta 104.187000
_cell_angle_gamma 90.000000
_cell_volume 1288.426980
loop_
_atom_site_label
_atom_site_type_symbol
_atom_site_fract_x
_atom_site_fract_y
_atom_site_fract_z
H1 H 0.921900 0.600800 1.138400
H2 H 0.616400 0.374100 0.697100
H3 H 0.615600 0.686100 0.958700
H4 H 0.685000 0.857100 0.919800
H5 H 0.517500 0.305600 0.950800
H6 H 0.777100 0.794800 1.062700
H7 H 0.921200 0.074200 0.978400
H8 H 0.276300 0.731200 0.404900
H9 H 0.314100 -0.429100 0.875000
H10 H 0.253500 -0.169400 0.844000
H11 H 0.996100 0.251100 1.091300
H12 H -0.032700 1.028500 0.205500
H13 H 0.467300 -0.028500 0.705500
H14 H 0.496100 0.748900 0.591300
H15 H 0.776300 0.268800 0.904900
H16 H -0.246500 1.169400 0.344000
H17 H -0.185900 1.429100 0.375000
H18 H 0.578100 0.600800 0.361600
H19 H 0.883600 0.374100 0.802900
H20 H 0.884400 0.686100 0.541300
H21 H 0.421200 0.925800 0.478400
H22 H 0.815000 0.857100 0.580200
H23 H 0.982500 0.305600 0.549200
H24 H 0.277100 0.205200 0.562700
H25 H 0.722900 0.794800 0.437300
H26 H 0.017500 0.694400 0.450800
H27 H 0.578800 0.074200 0.521600
H28 H 0.185000 0.142900 0.419800
H29 H 0.115600 0.313900 0.458700
H30 H 1.185900 -0.429100 0.625000
H31 H 0.116400 0.625900 0.197100
H32 H 1.246500 -0.169400 0.656000
H33 H 0.421900 0.399200 0.638400
H34 H 0.503900 0.251100 0.408700
H35 H 1.032700 -0.028500 0.794500
H36 H 0.723700 0.268800 0.595100
H37 H 0.078100 0.399200 -0.138400
H38 H 0.383600 0.625900 0.302900
H39 H 0.384400 0.313900 0.041300
H40 H 0.315000 0.142900 0.080200
H41 H 0.223700 0.731200 0.095100
H42 H 0.482500 0.694400 0.049200
H43 H 0.222900 0.205200 -0.062700
H44 H 0.078800 0.925800 0.021600
H45 H 0.532700 1.028500 0.294500
H46 H 0.685900 1.429100 0.125000
H47 H 0.003900 0.748900 -0.091300
H48 H 0.746500 1.169400 0.156000
C49 C 0.679100 1.251000 0.142900
C50 C 0.064400 0.675300 -0.062800
C51 C 0.571700 1.052500 0.196200
C52 C 0.259500 0.261000 0.211700
C53 C 0.107500 0.778200 0.004400
C54 C 0.522300 0.960000 0.246300
C55 C 0.440800 0.656300 0.147900
C56 C 0.194200 0.353300 -0.045700
C57 C 0.556200 0.956000 0.125800
C58 C 0.491800 0.757600 0.097900
C59 C 0.237900 0.452600 0.021200
C60 C 0.332000 0.322900 0.069300
C61 C 0.194300 0.664200 0.047600
C62 C 0.339200 0.430000 0.202000
C63 C 0.390300 0.607000 0.254100
C64 C 0.454300 0.753800 0.220300
C65 C 0.107000 0.465000 -0.090700
C66 C 0.609700 0.393000 0.745900
C67 C 0.668000 0.677100 0.930700
C68 C 0.045700 0.753800 0.279700
C69 C 0.508200 0.242400 0.902100
C70 C 0.160800 0.430000 0.298000
C71 C 0.954300 0.246200 0.720300
C72 C 0.839200 0.570000 0.702000
C73 C 0.694300 0.335800 0.547600
C74 C 0.805800 0.646700 1.045700
C75 C 0.737900 0.547400 0.521200
C76 C 1.056200 0.044000 0.625800
C77 C 1.022300 0.040000 0.746300
C78 C 0.559200 0.343700 0.852100
C79 C 0.564400 0.324700 0.437200
C80 C 0.305700 0.664200 0.452400
C81 C 1.179100 -0.251000 0.642900
C82 C 0.393000 0.465000 0.590700
C83 C 0.109700 0.607000 0.245900
C84 C 1.071700 -0.052500 0.696200
C85 C 0.759500 0.739000 0.711700
C86 C 0.607500 0.221800 0.504400
C87 C 0.168000 0.322900 0.430700
C88 C 0.940800 0.343700 0.647900
C89 C 0.694200 0.646700 0.454300
C90 C 0.008200 0.757600 0.402100
C91 C 0.991800 0.242400 0.597900
C92 C 0.305800 0.353300 0.545700
C93 C 0.832000 0.677100 0.569300
C94 C 0.059200 0.656300 0.352100
C95 C 0.392500 0.778200 0.495600
C96 C 0.890300 0.393000 0.754100
C97 C 0.240500 0.261000 0.288300
C98 C 0.607000 0.535000 0.409300
C99 C -0.071700 1.052500 0.303800
C100 C 0.892500 0.221800 0.995600
C101 C 0.740500 0.739000 0.788300
C102 C 0.428300 -0.052500 0.803800
C103 C 0.262100 0.452600 0.478800
C104 C 0.545700 0.246200 0.779700
C105 C 0.660800 0.570000 0.798000
C106 C 0.805700 0.335800 0.952400
C107 C -0.179100 1.251000 0.357100
C108 C 0.762100 0.547400 0.978800
C109 C 0.443800 0.044000 0.874200
C110 C 0.477700 0.040000 0.753700
C111 C 0.435600 0.675300 0.562800
C112 C 0.935600 0.324700 1.062800
C113 C -0.022300 0.960000 0.253700
C114 C 0.320900 -0.251000 0.857100
C115 C -0.056200 0.956000 0.374200
C116 C 0.893000 0.535000 1.090700
N117 N 0.372800 0.457200 0.137900
N118 N 0.127200 0.457200 0.362100
N119 N 0.627200 0.542800 0.862100
N120 N 0.872800 0.542800 0.637900
O121 O 0.611500 1.101300 0.087300
O122 O 0.206500 0.124400 0.164000
O123 O 0.636700 1.257700 0.205800
O124 O 0.363300 -0.257700 0.794200
O125 O 1.111500 -0.101300 0.587300
O126 O 1.136700 -0.257700 0.705800
O127 O 0.388500 -0.101300 0.912700
O128 O 0.293500 0.124400 0.336000
O129 O 0.793500 0.875600 0.836000
O130 O -0.111500 1.101300 0.412700
O131 O 0.706500 0.875600 0.664000
O132 O -0.136700 1.257700 0.294200

#END
