
#######################################################################
#
#                 Cambridge Crystallographic Data Centre
#                                CCDC 
#
#######################################################################
#
# If this CIF has been generated from an entry in the Cambridge 
# Structural Database, then it will include bibliographic, chemical, 
# crystal, experimental, refinement or atomic coordinate data resulting 
# from the CCDC's data processing and validation procedures.
#
#######################################################################

data_KAGXIC
_symmetry_cell_setting           monoclinic
_symmetry_space_group_name_H-M   'P 21/c'
_symmetry_Int_Tables_number      14
_space_group_name_Hall           '-P 2ybc'
loop_
_symmetry_equiv_pos_site_id
_symmetry_equiv_pos_as_xyz
1 x,y,z
2 -x,1/2+y,1/2-z
3 -x,-y,-z
4 x,1/2-y,1/2+z
_cell_length_a                   11.4093(9)
_cell_length_b                   5.7749(4)
_cell_length_c                   14.7469(8)
_cell_angle_alpha                90
_cell_angle_beta                 96.300(6)
_cell_angle_gamma                90
_cell_volume                     965.77
loop_
_atom_site_label
_atom_site_type_symbol
_atom_site_fract_x
_atom_site_fract_y
_atom_site_fract_z
F1 F 0.33889(15) 0.9642(4) 0.53424(11)
F2 F 0.16331(17) 1.0064(3) 0.47259(11)
F3 F 0.23597(19) 1.2390(3) 0.57582(12)
O1 O -0.01828(17) 0.4089(3) 0.62622(12)
H1 H -0.042(3) 0.311(6) 0.674(2)
O2 O 0.06645(14) 0.5790(3) 0.75208(10)
C1 C 0.04817(19) 0.5707(4) 0.66953(15)
C2 C 0.0965(2) 0.7311(4) 0.60493(15)
H2 H 0.0581 0.7394 0.5460
C3 C 0.19045(19) 0.8642(4) 0.62488(14)
C4 C 0.2304(2) 1.0167(5) 0.55131(17)
C5 C 0.26860(18) 0.8691(4) 0.71297(14)
C6 C 0.3474(2) 0.6892(4) 0.73361(17)
H3 H 0.3493 0.5657 0.6933
C7 C 0.4226(2) 0.6914(5) 0.81282(19)
H4 H 0.4753 0.5699 0.8258
C8 C 0.4205(3) 0.8706(6) 0.87260(18)
H5 H 0.4713 0.8706 0.9264
C9 C 0.3438(3) 1.0505(5) 0.85370(18)
H6 H 0.3428 1.1728 0.8947
C10 C 0.2672(2) 1.0519(4) 0.77358(17)
H7 H 0.2153 1.1748 0.7608
F1 F 0.66111(15) 0.4642(4) 0.96576(11)
F2 F 0.83669(17) 0.5064(3) 1.02741(11)
F3 F 0.76403(19) 0.7390(3) 0.92418(12)
O1 O 1.01828(17) -0.0911(3) 0.87378(12)
H1 H 1.042(3) -0.189(6) 0.826(2)
O2 O 0.93355(14) 0.0790(3) 0.74792(10)
C1 C 0.95183(19) 0.0707(4) 0.83047(15)
C2 C 0.9035(2) 0.2311(4) 0.89507(15)
H2 H 0.9419 0.2394 0.9540
C3 C 0.80955(19) 0.3642(4) 0.87512(14)
C4 C 0.7696(2) 0.5167(5) 0.94869(17)
C5 C 0.73140(18) 0.3691(4) 0.78703(14)
C6 C 0.6526(2) 0.1892(4) 0.76639(17)
H3 H 0.6507 0.0657 0.8067
C7 C 0.5774(2) 0.1914(5) 0.68718(19)
H4 H 0.5247 0.0699 0.6742
C8 C 0.5795(3) 0.3706(6) 0.62740(18)
H5 H 0.5287 0.3706 0.5736
C9 C 0.6562(3) 0.5505(5) 0.64630(18)
H6 H 0.6572 0.6728 0.6053
C10 C 0.7328(2) 0.5519(4) 0.72642(17)
H7 H 0.7847 0.6748 0.7392
F1 F 0.66111(15) 0.0358(4) 0.46576(11)
F2 F 0.83669(17) -0.0064(3) 0.52741(11)
F3 F 0.76403(19) -0.2390(3) 0.42418(12)
O1 O 1.01828(17) 0.5911(3) 0.37378(12)
H1 H 1.042(3) 0.689(6) 0.326(2)
O2 O 0.93355(14) 0.4210(3) 0.24792(10)
C1 C 0.95183(19) 0.4293(4) 0.33047(15)
C2 C 0.9035(2) 0.2689(4) 0.39507(15)
H2 H 0.9419 0.2606 0.4540
C3 C 0.80955(19) 0.1358(4) 0.37512(14)
C4 C 0.7696(2) -0.0167(5) 0.44869(17)
C5 C 0.73140(18) 0.1309(4) 0.28703(14)
C6 C 0.6526(2) 0.3108(4) 0.26639(17)
H3 H 0.6507 0.4343 0.3067
C7 C 0.5774(2) 0.3086(5) 0.18718(19)
H4 H 0.5247 0.4301 0.1742
C8 C 0.5795(3) 0.1294(6) 0.12740(18)
H5 H 0.5287 0.1294 0.0736
C9 C 0.6562(3) -0.0505(5) 0.14630(18)
H6 H 0.6572 -0.1728 0.1053
C10 C 0.7328(2) -0.0519(4) 0.22642(17)
H7 H 0.7847 -0.1748 0.2392
F1 F 0.33889(15) 0.5358(4) 0.03424(11)
F2 F 0.16331(17) 0.4936(3) -0.02741(11)
F3 F 0.23597(19) 0.2610(3) 0.07582(12)
O1 O -0.01828(17) 1.0911(3) 0.12622(12)
H1 H -0.042(3) 1.189(6) 0.174(2)
O2 O 0.06645(14) 0.9210(3) 0.25208(10)
C1 C 0.04817(19) 0.9293(4) 0.16953(15)
C2 C 0.0965(2) 0.7689(4) 0.10493(15)
H2 H 0.0581 0.7606 0.0460
C3 C 0.19045(19) 0.6358(4) 0.12488(14)
C4 C 0.2304(2) 0.4833(5) 0.05131(17)
C5 C 0.26860(18) 0.6309(4) 0.21297(14)
C6 C 0.3474(2) 0.8108(4) 0.23361(17)
H3 H 0.3493 0.9343 0.1933
C7 C 0.4226(2) 0.8086(5) 0.31282(19)
H4 H 0.4753 0.9301 0.3258
C8 C 0.4205(3) 0.6294(6) 0.37260(18)
H5 H 0.4713 0.6294 0.4264
C9 C 0.3438(3) 0.4495(5) 0.35370(18)
H6 H 0.3428 0.3272 0.3947
C10 C 0.2672(2) 0.4481(4) 0.27358(17)
H7 H 0.2153 0.3252 0.2608

#END
