./KAGZIE_from_xyz.cif_generated_by_CrystalShift
_symmetry_cell_setting triclinic
_symmetry_space_group_name_H-M 'P 1'
loop_
_symmetry_equiv_pos_site_id
_symmetry_equiv_pos_as_xyz
1 x,y,z
_cell_length_a 12.083900
_cell_length_b 6.419700
_cell_length_c 19.742700
_cell_angle_alpha 90.000000
_cell_angle_beta 104.826400
_cell_angle_gamma 90.000000
_cell_volume 1480.548443
loop_
_atom_site_label
_atom_site_type_symbol
_atom_site_fract_x
_atom_site_fract_y
_atom_site_fract_z
O1 O 0.203480 0.433100 0.351290
O2 O 0.542860 -0.131300 0.564360
N3 N 0.642400 0.172600 0.581030
N4 N 0.688810 0.331800 0.627470
C5 C 0.492140 0.472600 0.462090
H6 H 0.539300 0.578200 0.488400
C7 C 0.381930 0.520700 0.424250
H8 H 0.354300 0.659100 0.424600
C9 C 0.311100 0.367200 0.385560
C10 C 0.352700 0.165000 0.383600
H11 H 0.305900 0.060300 0.356600
C12 C 0.464430 0.118800 0.422030
H13 H 0.493000 -0.018700 0.420800
C14 C 0.534520 0.269800 0.461900
C15 C 0.651130 0.210000 0.508260
H16 H 0.681500 0.083800 0.489400
C17 C 0.741080 0.387000 0.522050
H18 H 0.817400 0.334500 0.520400
H19 H 0.718200 0.501200 0.487600
C20 C 0.741020 0.458000 0.594980
C21 C 0.798960 0.644800 0.629250
C22 C 0.795960 0.695700 0.697680
H23 H 0.755300 0.609100 0.722000
C24 C 0.852020 0.871900 0.730260
H25 H 0.848700 0.904900 0.776600
C26 C 0.913240 1.001500 0.696040
C27 C 0.915050 0.952000 0.627590
H28 H 0.955400 1.039400 0.603300
C29 C 0.858520 0.776000 0.594140
H30 H 0.860400 0.745100 0.547400
C31 C 0.128630 0.285200 0.308730
H32 H 0.055100 0.351900 0.287100
H33 H 0.116300 0.168200 0.337800
H34 H 0.163100 0.234000 0.272000
C35 C 0.587980 0.012000 0.602450
H36 H 0.584400 0.009900 0.650000
C37 C 0.975660 1.190800 0.732070
H38 H 1.048400 1.206400 0.719200
H39 H 0.990600 1.174000 0.782900
H40 H 0.928500 1.315100 0.717400
O41 O 0.203480 0.566900 -0.148710
O42 O 0.542860 1.131300 0.064360
N43 N 0.642400 0.827400 0.081030
N44 N 0.688810 0.668200 0.127470
C45 C 0.492140 0.527400 -0.037910
H46 H 0.539300 0.421800 -0.011600
C47 C 0.381930 0.479300 -0.075750
H48 H 0.354300 0.340900 -0.075400
C49 C 0.311100 0.632800 -0.114440
C50 C 0.352700 0.835000 -0.116400
H51 H 0.305900 0.939700 -0.143400
C52 C 0.464430 0.881200 -0.077970
H53 H 0.493000 1.018700 -0.079200
C54 C 0.534520 0.730200 -0.038100
C55 C 0.651130 0.790000 0.008260
H56 H 0.681500 0.916200 -0.010600
C57 C 0.741080 0.613000 0.022050
H58 H 0.817400 0.665500 0.020400
H59 H 0.718200 0.498800 -0.012400
C60 C 0.741020 0.542000 0.094980
C61 C 0.798960 0.355200 0.129250
C62 C 0.795960 0.304300 0.197680
H63 H 0.755300 0.390900 0.222000
C64 C 0.852020 0.128100 0.230260
H65 H 0.848700 0.095100 0.276600
C66 C 0.913240 -0.001500 0.196040
C67 C 0.915050 0.048000 0.127590
H68 H 0.955400 -0.039400 0.103300
C69 C 0.858520 0.224000 0.094140
H70 H 0.860400 0.254900 0.047400
C71 C 0.128630 0.714800 -0.191270
H72 H 0.055100 0.648100 -0.212900
H73 H 0.116300 0.831800 -0.162200
H74 H 0.163100 0.766000 -0.228000
C75 C 0.587980 0.988000 0.102450
H76 H 0.584400 0.990100 0.150000
C77 C 0.975660 -0.190800 0.232070
H78 H 1.048400 -0.206400 0.219200
H79 H 0.990600 -0.174000 0.282900
H80 H 0.928500 -0.315100 0.217400
O81 O -0.296520 -0.066900 0.351290
O82 O 0.042860 -0.631300 0.564360
N83 N 0.142400 -0.327400 0.581030
N84 N 0.188810 -0.168200 0.627470
C85 C -0.007860 -0.027400 0.462090
H86 H 0.039300 0.078200 0.488400
C87 C -0.118070 0.020700 0.424250
H88 H -0.145700 0.159100 0.424600
C89 C -0.188900 -0.132800 0.385560
C90 C -0.147300 -0.335000 0.383600
H91 H -0.194100 -0.439700 0.356600
C92 C -0.035570 -0.381200 0.422030
H93 H -0.007000 -0.518700 0.420800
C94 C 0.034520 -0.230200 0.461900
C95 C 0.151130 -0.290000 0.508260
H96 H 0.181500 -0.416200 0.489400
C97 C 0.241080 -0.113000 0.522050
H98 H 0.317400 -0.165500 0.520400
H99 H 0.218200 0.001200 0.487600
C100 C 0.241020 -0.042000 0.594980
C101 C 0.298960 0.144800 0.629250
C102 C 0.295960 0.195700 0.697680
H103 H 0.255300 0.109100 0.722000
C104 C 0.352020 0.371900 0.730260
H105 H 0.348700 0.404900 0.776600
C106 C 0.413240 0.501500 0.696040
C107 C 0.415050 0.452000 0.627590
H108 H 0.455400 0.539400 0.603300
C109 C 0.358520 0.276000 0.594140
H110 H 0.360400 0.245100 0.547400
C111 C -0.371370 -0.214800 0.308730
H112 H -0.444900 -0.148100 0.287100
H113 H -0.383700 -0.331800 0.337800
H114 H -0.336900 -0.266000 0.272000
C115 C 0.087980 -0.488000 0.602450
H116 H 0.084400 -0.490100 0.650000
C117 C 0.475660 0.690800 0.732070
H118 H 0.548400 0.706400 0.719200
H119 H 0.490600 0.674000 0.782900
H120 H 0.428500 0.815100 0.717400
O121 O -0.296520 1.066900 -0.148710
O122 O 0.042860 1.631300 0.064360
N123 N 0.142400 1.327400 0.081030
N124 N 0.188810 1.168200 0.127470
C125 C -0.007860 1.027400 -0.037910
H126 H 0.039300 0.921800 -0.011600
C127 C -0.118070 0.979300 -0.075750
H128 H -0.145700 0.840900 -0.075400
C129 C -0.188900 1.132800 -0.114440
C130 C -0.147300 1.335000 -0.116400
H131 H -0.194100 1.439700 -0.143400
C132 C -0.035570 1.381200 -0.077970
H133 H -0.007000 1.518700 -0.079200
C134 C 0.034520 1.230200 -0.038100
C135 C 0.151130 1.290000 0.008260
H136 H 0.181500 1.416200 -0.010600
C137 C 0.241080 1.113000 0.022050
H138 H 0.317400 1.165500 0.020400
H139 H 0.218200 0.998800 -0.012400
C140 C 0.241020 1.042000 0.094980
C141 C 0.298960 0.855200 0.129250
C142 C 0.295960 0.804300 0.197680
H143 H 0.255300 0.890900 0.222000
C144 C 0.352020 0.628100 0.230260
H145 H 0.348700 0.595100 0.276600
C146 C 0.413240 0.498500 0.196040
C147 C 0.415050 0.548000 0.127590
H148 H 0.455400 0.460600 0.103300
C149 C 0.358520 0.724000 0.094140
H150 H 0.360400 0.754900 0.047400
C151 C -0.371370 1.214800 -0.191270
H152 H -0.444900 1.148100 -0.212900
H153 H -0.383700 1.331800 -0.162200
H154 H -0.336900 1.266000 -0.228000
C155 C 0.087980 1.488000 0.102450
H156 H 0.084400 1.490100 0.150000
C157 C 0.475660 0.309200 0.232070
H158 H 0.548400 0.293600 0.219200
H159 H 0.490600 0.326000 0.282900
H160 H 0.428500 0.184900 0.217400

#END
