./KAHDUS_from_xyz.cif_generated_by_CrystalShift
_symmetry_cell_setting triclinic
_symmetry_space_group_name_H-M 'P 1'
loop_
_symmetry_equiv_pos_site_id
_symmetry_equiv_pos_as_xyz
1 x,y,z
_cell_length_a 12.113000
_cell_length_b 13.327000
_cell_length_c 10.094000
_cell_angle_alpha 90.000000
_cell_angle_beta 95.970000
_cell_angle_gamma 90.000000
_cell_volume 1620.636443
loop_
_atom_site_label
_atom_site_type_symbol
_atom_site_fract_x
_atom_site_fract_y
_atom_site_fract_z
C1 C 0.072900 0.871500 0.851900
C2 C 0.076000 0.869800 0.990400
C3 C 0.108100 0.784000 1.059300
C4 C 0.139600 0.700500 0.992000
C5 C 0.140000 0.700300 0.854900
C6 C 0.184200 0.610300 0.787600
C7 C 0.298400 0.628500 0.740100
C8 C 0.311000 0.731300 0.677100
C9 C 0.214100 0.761800 0.575500
C10 C 0.179000 0.683900 0.470000
C11 C 0.242500 0.636000 0.382500
C12 C 0.192000 0.565500 0.294800
C13 C 0.080200 0.546400 0.293300
C14 C 0.015100 0.593100 0.380100
C15 C 0.066400 0.661700 0.470300
N16 N 0.022600 0.710800 0.573800
C17 C 0.100100 0.786600 0.632300
C18 C 0.104100 0.787800 0.783400
N19 N 0.069300 0.886400 0.573300
C20 C 0.139800 0.925300 0.494000
C21 C 0.241400 0.857200 0.502900
C22 C -0.093400 0.714800 0.591500
O23 O 0.128500 1.002900 0.428600
O24 O 0.326400 0.877700 0.458200
H25 H 0.048100 0.932300 0.802500
H26 H 0.057000 0.929900 1.040300
H27 H 0.108800 0.780700 1.155400
H28 H 0.161000 0.639200 1.042000
H29 H 0.189100 0.553800 0.849100
H30 H 0.132400 0.591800 0.711500
H31 H 0.312100 0.577900 0.674000
H32 H 0.354500 0.620800 0.814700
H33 H 0.379000 0.732300 0.633700
H34 H 0.318700 0.780900 0.748000
H35 H 0.321700 0.652500 0.382500
H36 H 0.235700 0.529300 0.234700
H37 H 0.045900 0.498300 0.228800
H38 H -0.064300 0.578400 0.379900
H39 H 0.002600 0.917400 0.583700
H40 H -0.104200 0.753700 0.670700
H41 H -0.122400 0.648600 0.602300
H42 H -0.134800 0.746600 0.516200
C43 C 0.427100 0.371500 0.648100
C44 C 0.424000 0.369800 0.509600
C45 C 0.391900 0.284000 0.440700
C46 C 0.360400 0.200500 0.508000
C47 C 0.360000 0.200300 0.645100
C48 C 0.315800 0.110300 0.712400
C49 C 0.201600 0.128500 0.759900
C50 C 0.189000 0.231300 0.822900
C51 C 0.285900 0.261800 0.924500
C52 C 0.321000 0.183900 1.030000
C53 C 0.257500 0.136000 1.117500
C54 C 0.308000 0.065500 1.205200
C55 C 0.419800 0.046400 1.206700
C56 C 0.484900 0.093100 1.119900
C57 C 0.433600 0.161700 1.029700
N58 N 0.477400 0.210800 0.926200
C59 C 0.399900 0.286600 0.867700
C60 C 0.395900 0.287800 0.716600
N61 N 0.430700 0.386400 0.926700
C62 C 0.360200 0.425300 1.006000
C63 C 0.258600 0.357200 0.997100
C64 C 0.593400 0.214800 0.908500
O65 O 0.371500 0.502900 1.071400
O66 O 0.173600 0.377700 1.041800
H67 H 0.451900 0.432300 0.697500
H68 H 0.443000 0.429900 0.459700
H69 H 0.391200 0.280700 0.344600
H70 H 0.339000 0.139200 0.458000
H71 H 0.310900 0.053800 0.650900
H72 H 0.367600 0.091800 0.788500
H73 H 0.187900 0.077900 0.826000
H74 H 0.145500 0.120800 0.685300
H75 H 0.121000 0.232300 0.866300
H76 H 0.181300 0.280900 0.752000
H77 H 0.178300 0.152500 1.117500
H78 H 0.264300 0.029300 1.265300
H79 H 0.454100 -0.001700 1.271200
H80 H 0.564300 0.078400 1.120100
H81 H 0.497400 0.417400 0.916300
H82 H 0.604200 0.253700 0.829300
H83 H 0.622400 0.148600 0.897700
H84 H 0.634800 0.246600 0.983800
C85 C 0.927100 0.128500 0.148100
C86 C 0.924000 0.130200 0.009600
C87 C 0.891900 0.216000 -0.059300
C88 C 0.860400 0.299500 0.008000
C89 C 0.860000 0.299700 0.145100
C90 C 0.815800 0.389700 0.212400
C91 C 0.701600 0.371500 0.259900
C92 C 0.689000 0.268700 0.322900
C93 C 0.785900 0.238200 0.424500
C94 C 0.821000 0.316100 0.530000
C95 C 0.757500 0.364000 0.617500
C96 C 0.808000 0.434500 0.705200
C97 C 0.919800 0.453600 0.706700
C98 C 0.984900 0.406900 0.619900
C99 C 0.933600 0.338300 0.529700
N100 N 0.977400 0.289200 0.426200
C101 C 0.899900 0.213400 0.367700
C102 C 0.895900 0.212200 0.216600
N103 N 0.930700 0.113600 0.426700
C104 C 0.860200 0.074700 0.506000
C105 C 0.758600 0.142800 0.497100
C106 C 1.093400 0.285200 0.408500
O107 O 0.871500 -0.002900 0.571400
O108 O 0.673600 0.122300 0.541800
H109 H 0.951900 0.067700 0.197500
H110 H 0.943000 0.070100 -0.040300
H111 H 0.891200 0.219300 -0.155400
H112 H 0.839000 0.360800 -0.042000
H113 H 0.810900 0.446200 0.150900
H114 H 0.867600 0.408200 0.288500
H115 H 0.687900 0.422100 0.326000
H116 H 0.645500 0.379200 0.185300
H117 H 0.621000 0.267700 0.366300
H118 H 0.681300 0.219100 0.252000
H119 H 0.678300 0.347500 0.617500
H120 H 0.764300 0.470700 0.765300
H121 H 0.954100 0.501700 0.771200
H122 H 1.064300 0.421600 0.620100
H123 H 0.997400 0.082600 0.416300
H124 H 1.104200 0.246300 0.329300
H125 H 1.122400 0.351400 0.397700
H126 H 1.134800 0.253400 0.483800
C127 C 0.572900 0.628500 0.351900
C128 C 0.576000 0.630200 0.490400
C129 C 0.608100 0.716000 0.559300
C130 C 0.639600 0.799500 0.492000
C131 C 0.640000 0.799700 0.354900
C132 C 0.684200 0.889700 0.287600
C133 C 0.798400 0.871500 0.240100
C134 C 0.811000 0.768700 0.177100
C135 C 0.714100 0.738200 0.075500
C136 C 0.679000 0.816100 -0.030000
C137 C 0.742500 0.864000 -0.117500
C138 C 0.692000 0.934500 -0.205200
C139 C 0.580200 0.953600 -0.206700
C140 C 0.515100 0.906900 -0.119900
C141 C 0.566400 0.838300 -0.029700
N142 N 0.522600 0.789200 0.073800
C143 C 0.600100 0.713400 0.132300
C144 C 0.604100 0.712200 0.283400
N145 N 0.569300 0.613600 0.073300
C146 C 0.639800 0.574700 -0.006000
C147 C 0.741400 0.642800 0.002900
C148 C 0.406600 0.785200 0.091500
O149 O 0.628500 0.497100 -0.071400
O150 O 0.826400 0.622300 -0.041800
H151 H 0.548100 0.567700 0.302500
H152 H 0.557000 0.570100 0.540300
H153 H 0.608800 0.719300 0.655400
H154 H 0.661000 0.860800 0.542000
H155 H 0.689100 0.946200 0.349100
H156 H 0.632400 0.908200 0.211500
H157 H 0.812100 0.922100 0.174000
H158 H 0.854500 0.879200 0.314700
H159 H 0.879000 0.767700 0.133700
H160 H 0.818700 0.719100 0.248000
H161 H 0.821700 0.847500 -0.117500
H162 H 0.735700 0.970700 -0.265300
H163 H 0.545900 1.001700 -0.271200
H164 H 0.435700 0.921600 -0.120100
H165 H 0.502600 0.582600 0.083700
H166 H 0.395800 0.746300 0.170700
H167 H 0.377600 0.851400 0.102300
H168 H 0.365200 0.753400 0.016200

#END
