
#######################################################################
#
#                 Cambridge Crystallographic Data Centre
#                                CCDC 
#
#######################################################################
#
# If this CIF has been generated from an entry in the Cambridge 
# Structural Database, then it will include bibliographic, chemical, 
# crystal, experimental, refinement or atomic coordinate data resulting 
# from the CCDC's data processing and validation procedures.
#
#######################################################################

data_KAHGIK
_symmetry_cell_setting           rhombohedral
_symmetry_space_group_name_H-M   'R 3'
_symmetry_Int_Tables_number      146
_space_group_name_Hall           'R 3'
loop_
_symmetry_equiv_pos_site_id
_symmetry_equiv_pos_as_xyz
1 x,y,z
2 -y,x-y,z
3 -x+y,-x,z
4 2/3+x,1/3+y,1/3+z
5 2/3-y,1/3+x-y,1/3+z
6 2/3-x+y,1/3-x,1/3+z
7 1/3+x,2/3+y,2/3+z
8 1/3-y,2/3+x-y,2/3+z
9 1/3-x+y,2/3-x,2/3+z
_cell_length_a                   14.2214(10)
_cell_length_b                   14.2214(10)
_cell_length_c                   9.6190(10)
_cell_angle_alpha                90
_cell_angle_beta                 90
_cell_angle_gamma                120.00
_cell_volume                     1684.79
loop_
_atom_site_label
_atom_site_type_symbol
_atom_site_fract_x
_atom_site_fract_y
_atom_site_fract_z
N1 N 0.02242(12) 0.15897(12) 0.45851(15)
H1 H -0.0371(19) 0.1190(17) 0.502(3)
C1 C 0.06114(13) 0.11862(13) 0.35809(18)
C2 C 0.15681(14) 0.19996(13) 0.30537(19)
C3 C 0.17762(13) 0.29733(14) 0.37631(18)
C4 C 0.26097(16) 0.40658(16) 0.3675(2)
H2 H 0.322(2) 0.4221(18) 0.304(2)
C5 C 0.25420(19) 0.48108(16) 0.4508(2)
H3 H 0.318(3) 0.556(2) 0.445(3)
C6 C 0.1680(2) 0.45187(17) 0.5422(3)
H4 H 0.164(2) 0.497(3) 0.602(3)
C7 C 0.08548(18) 0.34513(16) 0.5553(2)
H5 H 0.019(3) 0.327(2) 0.619(3)
C8 C 0.09180(14) 0.26896(13) 0.47107(17)
C9 C 0.2253(2) 0.1894(3) 0.1956(3)
H6 H 0.246(3) 0.239(3) 0.138(4)
H7 H 0.283(3) 0.179(4) 0.238(5)
H8 H 0.194(3) 0.111(4) 0.159(5)
C10 C 0.0000 0.0000 0.3152(3)
H9 H 0.0000 0.0000 0.212(4)
C1B C 0.05748(18) -0.06114(13) 0.35809(18)
N1B N 0.13655(17) -0.02242(12) 0.45851(15)
H1B H 0.1561(25) 0.0371(19) 0.502(3)
C8B C 0.17716(19) -0.09180(14) 0.47107(17)
C3B C 0.11971(19) -0.17762(13) 0.37631(18)
C2B C 0.04315(19) -0.15681(14) 0.30537(19)
C9B C -0.0359(4) -0.2253(2) 0.1956(3)
H6B H -0.007(4) -0.246(3) 0.138(4)
H7B H -0.104(5) -0.283(3) 0.238(5)
H8B H -0.083(5) -0.194(3) 0.159(5)
C4B C 0.14561(23) -0.26097(16) 0.3675(2)
H2B H 0.1001(27) -0.322(2) 0.304(2)
C5B C 0.22688(25) -0.25420(19) 0.4508(2)
H3B H 0.238(4) -0.318(3) 0.445(3)
C6B C 0.28387(26) -0.1680(2) 0.5422(3)
H4B H 0.333(4) -0.164(2) 0.602(3)
C7B C 0.25965(24) -0.08548(18) 0.5553(2)
H5B H 0.308(4) -0.019(3) 0.619(3)
C1A C -0.11862(13) -0.05748(18) 0.35809(18)
N1A N -0.15897(12) -0.13655(17) 0.45851(15)
H1A H -0.1190(17) -0.1561(25) 0.502(3)
C8A C -0.26896(13) -0.17716(19) 0.47107(17)
C3A C -0.29733(14) -0.11971(19) 0.37631(18)
C2A C -0.19996(13) -0.04315(19) 0.30537(19)
C9A C -0.1894(3) 0.0359(4) 0.1956(3)
H6A H -0.239(3) 0.007(4) 0.138(4)
H7A H -0.179(4) 0.104(5) 0.238(5)
H8A H -0.111(4) 0.083(5) 0.159(5)
C4A C -0.40658(16) -0.14561(23) 0.3675(2)
H2A H -0.4221(18) -0.1001(27) 0.304(2)
C5A C -0.48108(16) -0.22688(25) 0.4508(2)
H3A H -0.556(2) -0.238(4) 0.445(3)
C6A C -0.45187(17) -0.28387(26) 0.5422(3)
H4A H -0.497(3) -0.333(4) 0.602(3)
C7A C -0.34513(16) -0.25965(24) 0.5553(2)
H5A H -0.327(2) -0.308(4) 0.619(3)
N1 N 0.02242(12) 1.15897(12) 0.45851(15)
H1 H -0.0371(19) 1.1190(17) 0.502(3)
C1 C 0.06114(13) 1.11862(13) 0.35809(18)
C2 C 0.15681(14) 1.19996(13) 0.30537(19)
C3 C 0.17762(13) 1.29733(14) 0.37631(18)
C4 C 0.26097(16) 1.40658(16) 0.3675(2)
H2 H 0.322(2) 1.4221(18) 0.304(2)
C5 C 0.25420(19) 1.48108(16) 0.4508(2)
H3 H 0.318(3) 1.556(2) 0.445(3)
C6 C 0.1680(2) 1.45187(17) 0.5422(3)
H4 H 0.164(2) 1.497(3) 0.602(3)
C7 C 0.08548(18) 1.34513(16) 0.5553(2)
H5 H 0.019(3) 1.327(2) 0.619(3)
C8 C 0.09180(14) 1.26896(13) 0.47107(17)
C9 C 0.2253(2) 1.1894(3) 0.1956(3)
H6 H 0.246(3) 1.239(3) 0.138(4)
H7 H 0.283(3) 1.179(4) 0.238(5)
H8 H 0.194(3) 1.111(4) 0.159(5)
C10 C 0.0000 1.0000 0.3152(3)
H9 H 0.0000 1.0000 0.212(4)
C1B C 0.05748(18) 0.93886(13) 0.35809(18)
N1B N 0.13655(17) 0.97758(12) 0.45851(15)
H1B H 0.1561(25) 1.0371(19) 0.502(3)
C8B C 0.17716(19) 0.90820(14) 0.47107(17)
C3B C 0.11971(19) 0.82238(13) 0.37631(18)
C2B C 0.04315(19) 0.84319(14) 0.30537(19)
C9B C -0.0359(4) 0.7747(2) 0.1956(3)
H6B H -0.007(4) 0.754(3) 0.138(4)
H7B H -0.104(5) 0.717(3) 0.238(5)
H8B H -0.083(5) 0.806(3) 0.159(5)
C4B C 0.14561(23) 0.73903(16) 0.3675(2)
H2B H 0.1001(27) 0.678(2) 0.304(2)
C5B C 0.22688(25) 0.74580(19) 0.4508(2)
H3B H 0.238(4) 0.682(3) 0.445(3)
C6B C 0.28387(26) 0.8320(2) 0.5422(3)
H4B H 0.333(4) 0.836(2) 0.602(3)
C7B C 0.25965(24) 0.91452(18) 0.5553(2)
H5B H 0.308(4) 0.981(3) 0.619(3)
C1A C -0.11862(13) 0.94252(18) 0.35809(18)
N1A N -0.15897(12) 0.86345(17) 0.45851(15)
H1A H -0.1190(17) 0.8439(25) 0.502(3)
C8A C -0.26896(13) 0.82284(19) 0.47107(17)
C3A C -0.29733(14) 0.88029(19) 0.37631(18)
C2A C -0.19996(13) 0.95685(19) 0.30537(19)
C9A C -0.1894(3) 1.0359(4) 0.1956(3)
H6A H -0.239(3) 1.007(4) 0.138(4)
H7A H -0.179(4) 1.104(5) 0.238(5)
H8A H -0.111(4) 1.083(5) 0.159(5)
C4A C -0.40658(16) 0.85439(23) 0.3675(2)
H2A H -0.4221(18) 0.8999(27) 0.304(2)
C5A C -0.48108(16) 0.77312(25) 0.4508(2)
H3A H -0.556(2) 0.762(4) 0.445(3)
C6A C -0.45187(17) 0.71613(26) 0.5422(3)
H4A H -0.497(3) 0.667(4) 0.602(3)
C7A C -0.34513(16) 0.74035(24) 0.5553(2)
H5A H -0.327(2) 0.692(4) 0.619(3)
N1 N 1.02242(12) 0.15897(12) 0.45851(15)
H1 H 0.9629(19) 0.1190(17) 0.502(3)
C1 C 1.06114(13) 0.11862(13) 0.35809(18)
C2 C 1.15681(14) 0.19996(13) 0.30537(19)
C3 C 1.17762(13) 0.29733(14) 0.37631(18)
C4 C 1.26097(16) 0.40658(16) 0.3675(2)
H2 H 1.322(2) 0.4221(18) 0.304(2)
C5 C 1.25420(19) 0.48108(16) 0.4508(2)
H3 H 1.318(3) 0.556(2) 0.445(3)
C6 C 1.1680(2) 0.45187(17) 0.5422(3)
H4 H 1.164(2) 0.497(3) 0.602(3)
C7 C 1.08548(18) 0.34513(16) 0.5553(2)
H5 H 1.019(3) 0.327(2) 0.619(3)
C8 C 1.09180(14) 0.26896(13) 0.47107(17)
C9 C 1.2253(2) 0.1894(3) 0.1956(3)
H6 H 1.246(3) 0.239(3) 0.138(4)
H7 H 1.283(3) 0.179(4) 0.238(5)
H8 H 1.194(3) 0.111(4) 0.159(5)
C10 C 1.0000 0.0000 0.3152(3)
H9 H 1.0000 0.0000 0.212(4)
C1B C 1.05748(18) -0.06114(13) 0.35809(18)
N1B N 1.13655(17) -0.02242(12) 0.45851(15)
H1B H 1.1561(25) 0.0371(19) 0.502(3)
C8B C 1.17716(19) -0.09180(14) 0.47107(17)
C3B C 1.11971(19) -0.17762(13) 0.37631(18)
C2B C 1.04315(19) -0.15681(14) 0.30537(19)
C9B C 0.9641(4) -0.2253(2) 0.1956(3)
H6B H 0.993(4) -0.246(3) 0.138(4)
H7B H 0.896(5) -0.283(3) 0.238(5)
H8B H 0.917(5) -0.194(3) 0.159(5)
C4B C 1.14561(23) -0.26097(16) 0.3675(2)
H2B H 1.1001(27) -0.322(2) 0.304(2)
C5B C 1.22688(25) -0.25420(19) 0.4508(2)
H3B H 1.238(4) -0.318(3) 0.445(3)
C6B C 1.28387(26) -0.1680(2) 0.5422(3)
H4B H 1.333(4) -0.164(2) 0.602(3)
C7B C 1.25965(24) -0.08548(18) 0.5553(2)
H5B H 1.308(4) -0.019(3) 0.619(3)
C1A C 0.88138(13) -0.05748(18) 0.35809(18)
N1A N 0.84103(12) -0.13655(17) 0.45851(15)
H1A H 0.8810(17) -0.1561(25) 0.502(3)
C8A C 0.73104(13) -0.17716(19) 0.47107(17)
C3A C 0.70267(14) -0.11971(19) 0.37631(18)
C2A C 0.80004(13) -0.04315(19) 0.30537(19)
C9A C 0.8106(3) 0.0359(4) 0.1956(3)
H6A H 0.761(3) 0.007(4) 0.138(4)
H7A H 0.821(4) 0.104(5) 0.238(5)
H8A H 0.889(4) 0.083(5) 0.159(5)
C4A C 0.59342(16) -0.14561(23) 0.3675(2)
H2A H 0.5779(18) -0.1001(27) 0.304(2)
C5A C 0.51892(16) -0.22688(25) 0.4508(2)
H3A H 0.444(2) -0.238(4) 0.445(3)
C6A C 0.54813(17) -0.28387(26) 0.5422(3)
H4A H 0.503(3) -0.333(4) 0.602(3)
C7A C 0.65487(16) -0.25965(24) 0.5553(2)
H5A H 0.673(2) -0.308(4) 0.619(3)
N1 N 1.02242(12) 1.15897(12) 0.45851(15)
H1 H 0.9629(19) 1.1190(17) 0.502(3)
C1 C 1.06114(13) 1.11862(13) 0.35809(18)
C2 C 1.15681(14) 1.19996(13) 0.30537(19)
C3 C 1.17762(13) 1.29733(14) 0.37631(18)
C4 C 1.26097(16) 1.40658(16) 0.3675(2)
H2 H 1.322(2) 1.4221(18) 0.304(2)
C5 C 1.25420(19) 1.48108(16) 0.4508(2)
H3 H 1.318(3) 1.556(2) 0.445(3)
C6 C 1.1680(2) 1.45187(17) 0.5422(3)
H4 H 1.164(2) 1.497(3) 0.602(3)
C7 C 1.08548(18) 1.34513(16) 0.5553(2)
H5 H 1.019(3) 1.327(2) 0.619(3)
C8 C 1.09180(14) 1.26896(13) 0.47107(17)
C9 C 1.2253(2) 1.1894(3) 0.1956(3)
H6 H 1.246(3) 1.239(3) 0.138(4)
H7 H 1.283(3) 1.179(4) 0.238(5)
H8 H 1.194(3) 1.111(4) 0.159(5)
C10 C 1.0000 1.0000 0.3152(3)
H9 H 1.0000 1.0000 0.212(4)
C1B C 1.05748(18) 0.93886(13) 0.35809(18)
N1B N 1.13655(17) 0.97758(12) 0.45851(15)
H1B H 1.1561(25) 1.0371(19) 0.502(3)
C8B C 1.17716(19) 0.90820(14) 0.47107(17)
C3B C 1.11971(19) 0.82238(13) 0.37631(18)
C2B C 1.04315(19) 0.84319(14) 0.30537(19)
C9B C 0.9641(4) 0.7747(2) 0.1956(3)
H6B H 0.993(4) 0.754(3) 0.138(4)
H7B H 0.896(5) 0.717(3) 0.238(5)
H8B H 0.917(5) 0.806(3) 0.159(5)
C4B C 1.14561(23) 0.73903(16) 0.3675(2)
H2B H 1.1001(27) 0.678(2) 0.304(2)
C5B C 1.22688(25) 0.74580(19) 0.4508(2)
H3B H 1.238(4) 0.682(3) 0.445(3)
C6B C 1.28387(26) 0.8320(2) 0.5422(3)
H4B H 1.333(4) 0.836(2) 0.602(3)
C7B C 1.25965(24) 0.91452(18) 0.5553(2)
H5B H 1.308(4) 0.981(3) 0.619(3)
C1A C 0.88138(13) 0.94252(18) 0.35809(18)
N1A N 0.84103(12) 0.86345(17) 0.45851(15)
H1A H 0.8810(17) 0.8439(25) 0.502(3)
C8A C 0.73104(13) 0.82284(19) 0.47107(17)
C3A C 0.70267(14) 0.88029(19) 0.37631(18)
C2A C 0.80004(13) 0.95685(19) 0.30537(19)
C9A C 0.8106(3) 1.0359(4) 0.1956(3)
H6A H 0.761(3) 1.007(4) 0.138(4)
H7A H 0.821(4) 1.104(5) 0.238(5)
H8A H 0.889(4) 1.083(5) 0.159(5)
C4A C 0.59342(16) 0.85439(23) 0.3675(2)
H2A H 0.5779(18) 0.8999(27) 0.304(2)
C5A C 0.51892(16) 0.77312(25) 0.4508(2)
H3A H 0.444(2) 0.762(4) 0.445(3)
C6A C 0.54813(17) 0.71613(26) 0.5422(3)
H4A H 0.503(3) 0.667(4) 0.602(3)
C7A C 0.65487(16) 0.74035(24) 0.5553(2)
H5A H 0.673(2) 0.692(4) 0.619(3)
N1 N 0.68909(12) 0.49230(12) 0.79184(15)
H1 H 0.6296(19) 0.4523(17) 0.835(3)
C1 C 0.72781(13) 0.45195(13) 0.69142(18)
C2 C 0.82348(14) 0.53329(13) 0.63870(19)
C3 C 0.84429(13) 0.63066(14) 0.70964(18)
C4 C 0.92764(16) 0.73991(16) 0.7008(2)
H2 H 0.989(2) 0.7554(18) 0.637(2)
C5 C 0.92087(19) 0.81441(16) 0.7841(2)
H3 H 0.985(3) 0.889(2) 0.778(3)
C6 C 0.8347(2) 0.78520(17) 0.8755(3)
H4 H 0.831(2) 0.830(3) 0.935(3)
C7 C 0.75215(18) 0.67846(16) 0.8886(2)
H5 H 0.686(3) 0.660(2) 0.952(3)
C8 C 0.75847(14) 0.60229(13) 0.80440(17)
C9 C 0.8920(2) 0.5227(3) 0.5289(3)
H6 H 0.913(3) 0.572(3) 0.471(4)
H7 H 0.950(3) 0.512(4) 0.571(5)
H8 H 0.861(3) 0.444(4) 0.492(5)
C10 C 0.6667 0.3333 0.6485(3)
H9 H 0.6667 0.3333 0.545(4)
C1B C 0.72415(18) 0.27219(13) 0.69142(18)
N1B N 0.80322(17) 0.31091(12) 0.79184(15)
H1B H 0.8228(25) 0.3704(19) 0.835(3)
C8B C 0.84383(19) 0.24153(14) 0.80440(17)
C3B C 0.78638(19) 0.15571(13) 0.70964(18)
C2B C 0.70982(19) 0.17652(14) 0.63870(19)
C9B C 0.6308(4) 0.1080(2) 0.5289(3)
H6B H 0.660(4) 0.087(3) 0.471(4)
H7B H 0.563(5) 0.050(3) 0.571(5)
H8B H 0.584(5) 0.139(3) 0.492(5)
C4B C 0.81228(23) 0.07236(16) 0.7008(2)
H2B H 0.7668(27) 0.011(2) 0.637(2)
C5B C 0.89355(25) 0.07913(19) 0.7841(2)
H3B H 0.905(4) 0.015(3) 0.778(3)
C6B C 0.95054(26) 0.1653(2) 0.8755(3)
H4B H 1.000(4) 0.169(2) 0.935(3)
C7B C 0.92632(24) 0.24785(18) 0.8886(2)
H5B H 0.975(4) 0.314(3) 0.952(3)
C1A C 0.54805(13) 0.27585(18) 0.69142(18)
N1A N 0.50770(12) 0.19678(17) 0.79184(15)
H1A H 0.5477(17) 0.1772(25) 0.835(3)
C8A C 0.39771(13) 0.15617(19) 0.80440(17)
C3A C 0.36934(14) 0.21362(19) 0.70964(18)
C2A C 0.46671(13) 0.29018(19) 0.63870(19)
C9A C 0.4773(3) 0.3692(4) 0.5289(3)
H6A H 0.428(3) 0.340(4) 0.471(4)
H7A H 0.488(4) 0.437(5) 0.571(5)
H8A H 0.556(4) 0.416(5) 0.492(5)
C4A C 0.26009(16) 0.18772(23) 0.7008(2)
H2A H 0.2446(18) 0.2332(27) 0.637(2)
C5A C 0.18559(16) 0.10645(25) 0.7841(2)
H3A H 0.111(2) 0.095(4) 0.778(3)
C6A C 0.21480(17) 0.04946(26) 0.8755(3)
H4A H 0.170(3) 0.000(4) 0.935(3)
C7A C 0.32154(16) 0.07368(24) 0.8886(2)
H5A H 0.340(2) 0.025(4) 0.952(3)
N1 N 0.35575(12) 0.82564(12) 0.12518(15)
H1 H 0.2962(19) 0.7857(17) 0.169(3)
C1 C 0.39447(13) 0.78529(13) 0.02476(18)
C2 C 0.49014(14) 0.86663(13) -0.02796(19)
C3 C 0.51095(13) 0.96400(14) 0.04298(18)
C4 C 0.59430(16) 1.07325(16) 0.0342(2)
H2 H 0.655(2) 1.0888(18) -0.029(2)
C5 C 0.58753(19) 1.14775(16) 0.1175(2)
H3 H 0.651(3) 1.223(2) 0.112(3)
C6 C 0.5013(2) 1.11854(17) 0.2089(3)
H4 H 0.497(2) 1.164(3) 0.269(3)
C7 C 0.41881(18) 1.01180(16) 0.2220(2)
H5 H 0.352(3) 0.994(2) 0.286(3)
C8 C 0.42513(14) 0.93563(13) 0.13774(17)
C9 C 0.5586(2) 0.8561(3) -0.1377(3)
H6 H 0.579(3) 0.906(3) -0.195(4)
H7 H 0.616(3) 0.846(4) -0.095(5)
H8 H 0.527(3) 0.778(4) -0.174(5)
C10 C 0.3333 0.6667 -0.0181(3)
H9 H 0.3333 0.6667 -0.121(4)
C1B C 0.39081(18) 0.60553(13) 0.02476(18)
N1B N 0.46988(17) 0.64425(12) 0.12518(15)
H1B H 0.4894(25) 0.7038(19) 0.169(3)
C8B C 0.51049(19) 0.57487(14) 0.13774(17)
C3B C 0.45304(19) 0.48905(13) 0.04298(18)
C2B C 0.37648(19) 0.50986(14) -0.02796(19)
C9B C 0.2974(4) 0.4414(2) -0.1377(3)
H6B H 0.326(4) 0.421(3) -0.195(4)
H7B H 0.229(5) 0.384(3) -0.095(5)
H8B H 0.250(5) 0.473(3) -0.174(5)
C4B C 0.47894(23) 0.40570(16) 0.0342(2)
H2B H 0.4334(27) 0.345(2) -0.029(2)
C5B C 0.56021(25) 0.41247(19) 0.1175(2)
H3B H 0.571(4) 0.349(3) 0.112(3)
C6B C 0.61720(26) 0.4987(2) 0.2089(3)
H4B H 0.666(4) 0.503(2) 0.269(3)
C7B C 0.59298(24) 0.58119(18) 0.2220(2)
H5B H 0.641(4) 0.648(3) 0.286(3)
C1A C 0.21471(13) 0.60919(18) 0.02476(18)
N1A N 0.17436(12) 0.53012(17) 0.12518(15)
H1A H 0.2143(17) 0.5106(25) 0.169(3)
C8A C 0.06437(13) 0.48951(19) 0.13774(17)
C3A C 0.03600(14) 0.54696(19) 0.04298(18)
C2A C 0.13337(13) 0.62352(19) -0.02796(19)
C9A C 0.1439(3) 0.7026(4) -0.1377(3)
H6A H 0.094(3) 0.674(4) -0.195(4)
H7A H 0.154(4) 0.771(5) -0.095(5)
H8A H 0.222(4) 0.750(5) -0.174(5)
C4A C -0.07325(16) 0.52106(23) 0.0342(2)
H2A H -0.0888(18) 0.5666(27) -0.029(2)
C5A C -0.14775(16) 0.43979(25) 0.1175(2)
H3A H -0.223(2) 0.429(4) 0.112(3)
C6A C -0.11854(17) 0.38280(26) 0.2089(3)
H4A H -0.164(3) 0.334(4) 0.269(3)
C7A C -0.01180(16) 0.40702(24) 0.2220(2)
H5A H 0.006(2) 0.359(4) 0.286(3)

#END
