./KAHJAE_from_xyz.cif_generated_by_CrystalShift
_symmetry_cell_setting triclinic
_symmetry_space_group_name_H-M 'P 1'
loop_
_symmetry_equiv_pos_site_id
_symmetry_equiv_pos_as_xyz
1 x,y,z
_cell_length_a 6.294000
_cell_length_b 15.865000
_cell_length_c 8.808000
_cell_angle_alpha 90.000000
_cell_angle_beta 90.000000
_cell_angle_gamma 90.000000
_cell_volume 879.516762
loop_
_atom_site_label
_atom_site_type_symbol
_atom_site_fract_x
_atom_site_fract_y
_atom_site_fract_z
O1 O 0.465600 0.076700 0.392800
O2 O 0.807000 0.149300 0.434100
N3 N 0.501100 0.143700 0.298900
N4 N 0.682700 0.174500 0.332800
C5 C 0.265200 0.037800 0.349200
C6 C 0.738200 0.250000 0.239500
C7 C 0.971400 0.250000 0.200300
H8 H 0.252500 0.026700 0.229900
H9 H 0.264300 -0.008500 0.417200
H10 H 0.160700 0.079400 0.387500
H11 H 0.645200 0.250000 0.152100
H12 H 1.008500 0.199900 0.136300
H13 H 1.053900 0.250000 0.309900
N14 N 0.682700 0.325500 0.332800
H15 H 1.008500 0.300100 0.136300
O16 O 0.807000 0.350700 0.434100
N17 N 0.501100 0.356300 0.298900
O18 O 0.465600 0.423300 0.392800
C19 C 0.265200 0.462200 0.349200
H20 H 0.252500 0.473300 0.229900
H21 H 0.264300 0.508500 0.417200
H22 H 0.160700 0.420600 0.387500
O23 O 1.034400 0.076700 0.892800
O24 O 0.693000 0.149300 0.934100
N25 N 0.998900 0.143700 0.798900
N26 N 0.817300 0.174500 0.832800
C27 C 1.234800 0.037800 0.849200
C28 C 0.761800 0.250000 0.739500
C29 C 0.528600 0.250000 0.700300
H30 H 1.247500 0.026700 0.729900
H31 H 1.235700 -0.008500 0.917200
H32 H 1.339300 0.079400 0.887500
H33 H 0.854800 0.250000 0.652100
H34 H 0.491500 0.199900 0.636300
H35 H 0.446100 0.250000 0.809900
N36 N 0.817300 0.325500 0.832800
H37 H 0.491500 0.300100 0.636300
O38 O 0.693000 0.350700 0.934100
N39 N 0.998900 0.356300 0.798900
O40 O 1.034400 0.423300 0.892800
C41 C 1.234800 0.462200 0.849200
H42 H 1.247500 0.473300 0.729900
H43 H 1.235700 0.508500 0.917200
H44 H 1.339300 0.420600 0.887500
O45 O 0.534400 0.923300 0.607200
O46 O 0.193000 0.850700 0.565900
N47 N 0.498900 0.856300 0.701100
N48 N 0.317300 0.825500 0.667200
C49 C 0.734800 0.962200 0.650800
C50 C 0.261800 0.750000 0.760500
C51 C 0.028600 0.750000 0.799700
H52 H 0.747500 0.973300 0.770100
H53 H 0.735700 1.008500 0.582800
H54 H 0.839300 0.920600 0.612500
H55 H 0.354800 0.750000 0.847900
H56 H -0.008500 0.800100 0.863700
H57 H -0.053900 0.750000 0.690100
N58 N 0.317300 0.674500 0.667200
H59 H -0.008500 0.699900 0.863700
O60 O 0.193000 0.649300 0.565900
N61 N 0.498900 0.643700 0.701100
O62 O 0.534400 0.576700 0.607200
C63 C 0.734800 0.537800 0.650800
H64 H 0.747500 0.526700 0.770100
H65 H 0.735700 0.491500 0.582800
H66 H 0.839300 0.579400 0.612500
O67 O -0.034400 0.923300 0.107200
O68 O 0.307000 0.850700 0.065900
N69 N 0.001100 0.856300 0.201100
N70 N 0.182700 0.825500 0.167200
C71 C -0.234800 0.962200 0.150800
C72 C 0.238200 0.750000 0.260500
C73 C 0.471400 0.750000 0.299700
H74 H -0.247500 0.973300 0.270100
H75 H -0.235700 1.008500 0.082800
H76 H -0.339300 0.920600 0.112500
H77 H 0.145200 0.750000 0.347900
H78 H 0.508500 0.800100 0.363700
H79 H 0.553900 0.750000 0.190100
N80 N 0.182700 0.674500 0.167200
H81 H 0.508500 0.699900 0.363700
O82 O 0.307000 0.649300 0.065900
N83 N 0.001100 0.643700 0.201100
O84 O -0.034400 0.576700 0.107200
C85 C -0.234800 0.537800 0.150800
H86 H -0.247500 0.526700 0.270100
H87 H -0.235700 0.491500 0.082800
H88 H -0.339300 0.579400 0.112500

#END
