./KAHLOX_from_xyz.cif_generated_by_CrystalShift
_symmetry_cell_setting triclinic
_symmetry_space_group_name_H-M 'P 1'
loop_
_symmetry_equiv_pos_site_id
_symmetry_equiv_pos_as_xyz
1 x,y,z
_cell_length_a 28.279800
_cell_length_b 28.279800
_cell_length_c 5.932100
_cell_angle_alpha 90.000000
_cell_angle_beta 90.000000
_cell_angle_gamma 120.000000
_cell_volume 4108.580105
loop_
_atom_site_label
_atom_site_type_symbol
_atom_site_fract_x
_atom_site_fract_y
_atom_site_fract_z
O1 O 0.948240 0.056130 1.138700
H2 H 0.935800 0.024700 1.084400
C3 C 0.900530 0.158320 1.110600
H4 H 0.865000 0.137800 1.189500
H5 H 0.918400 0.196800 1.161800
C6 C 0.936790 0.133900 1.172700
H7 H 0.974200 0.157800 1.114700
H8 H 0.938900 0.131900 1.338700
C9 C 0.913910 0.077700 1.073900
H10 H 0.876800 0.053800 1.139700
C11 C 0.908190 0.078190 0.819500
H12 H 0.944700 0.100100 0.750400
H13 H 0.891700 0.040400 0.760900
C14 C 0.872710 0.102210 0.755500
C15 C 0.828570 0.075600 0.623600
H16 H 0.821700 0.041800 0.561300
C17 C 0.790340 0.094040 0.567600
H18 H 0.790400 0.120500 0.666100
C19 C 0.755470 0.078690 0.397100
C20 C 0.749900 0.038500 0.215700
H21 H 0.765500 0.016200 0.272500
H22 H 0.771600 0.059100 0.082800
C23 C 0.890880 0.156060 0.861800
C24 C 0.691100 0.000300 0.141500
H25 H 0.691400 -0.019000 0.002700
H26 H 0.672100 -0.027600 0.260100
C27 C 0.659060 0.029400 0.096500
H28 H 0.620700 0.002000 0.061500
H29 H 0.674700 0.053400 -0.036600
C30 C 0.660360 0.063630 0.298700
C31 C 0.721730 0.104940 0.345300
H32 H 0.736700 0.125700 0.201700
C33 C 0.720600 0.145400 0.512200
H34 H 0.754500 0.181300 0.502700
H35 H 0.716000 0.131600 0.668700
C36 C 0.670700 0.149300 0.435800
H37 H 0.682700 0.185700 0.369900
H38 H 0.646800 0.144100 0.566300
C39 C 0.639300 0.104200 0.257400
H40 H 0.652400 0.121000 0.105300
C41 C 0.632700 0.027800 0.502600
H42 H 0.596200 -0.001500 0.460300
H43 H 0.629700 0.049900 0.622700
H44 H 0.654500 0.011900 0.556100
C45 C 0.900970 0.200030 0.740300
H46 H 0.896500 0.197300 0.581300
H47 H 0.912600 0.234000 0.813200
C48 C 0.577100 0.082300 0.267100
H49 H 0.564300 0.067100 0.421600
C50 C 0.545000 0.036300 0.098000
H51 H 0.506400 0.026200 0.102300
H52 H 0.548500 0.004600 0.137300
H53 H 0.559500 0.048800 -0.054000
C54 C 0.565300 0.128700 0.233300
H55 H 0.565100 0.135800 0.070000
H56 H 0.594600 0.162300 0.304300
C57 C 0.507400 0.114400 0.341000
H58 H 0.478000 0.082300 0.262200
H59 H 0.506700 0.104300 0.501400
C60 C 0.496500 0.158000 0.327600
H61 H 0.498000 0.168400 0.167300
H62 H 0.525800 0.189800 0.408200
C63 C 0.442000 0.145800 0.424300
H64 H 0.413100 0.110400 0.359200
C65 C 0.429800 0.190100 0.353400
H66 H 0.399000 0.186800 0.441300
H67 H 0.420600 0.186100 0.192600
H68 H 0.462000 0.226000 0.380200
C69 C 0.439100 0.140600 0.679300
H70 H 0.445400 0.110800 0.724600
H71 H 0.403000 0.132700 0.731000
H72 H 0.467200 0.174900 0.746700
O73 O 0.892110 0.948240 0.972000
H74 H 0.911100 0.935800 0.917700
C75 C 0.742210 0.900530 0.943900
H76 H 0.727200 0.865000 1.022800
H77 H 0.721600 0.918400 0.995100
C78 C 0.802890 0.936790 1.006000
H79 H 0.816400 0.974200 0.948000
H80 H 0.807000 0.938900 1.172000
C81 C 0.836210 0.913910 0.907200
H82 H 0.823000 0.876800 0.973000
C83 C 0.830000 0.908190 0.652800
H84 H 0.844600 0.944700 0.583700
H85 H 0.851300 0.891700 0.594200
C86 C 0.770500 0.872710 0.588800
C87 C 0.752970 0.828570 0.456900
H88 H 0.779900 0.821700 0.394600
C89 C 0.696300 0.790340 0.400900
H90 H 0.669900 0.790400 0.499400
C91 C 0.676780 0.755470 0.230400
C92 C 0.711400 0.749900 0.049000
H93 H 0.749300 0.765500 0.105800
H94 H 0.712500 0.771600 -0.083900
C95 C 0.734820 0.890880 0.695100
C96 C 0.690800 0.691100 -0.025200
H97 H 0.710400 0.691400 -0.164000
H98 H 0.699700 0.672100 0.093400
C99 C 0.629660 0.659060 -0.070200
H100 H 0.618700 0.620700 -0.105200
H101 H 0.621300 0.674700 -0.203300
C102 C 0.596730 0.660360 0.132000
C103 C 0.616790 0.721730 0.178600
H104 H 0.611000 0.736700 0.035000
C105 C 0.575200 0.720600 0.345500
H106 H 0.573200 0.754500 0.336000
H107 H 0.584400 0.716000 0.502000
C108 C 0.521400 0.670700 0.269100
H109 H 0.497000 0.682700 0.203200
H110 H 0.502700 0.646800 0.399600
C111 C 0.535100 0.639300 0.090700
H112 H 0.531400 0.652400 -0.061400
C113 C 0.604900 0.632700 0.335900
H114 H 0.597700 0.596200 0.293600
H115 H 0.579800 0.629700 0.456000
H116 H 0.642600 0.654500 0.389400
C117 C 0.700940 0.900970 0.573600
H118 H 0.699200 0.896500 0.414600
H119 H 0.678600 0.912600 0.646500
C120 C 0.494800 0.577100 0.100400
H121 H 0.497200 0.564300 0.254900
C122 C 0.508700 0.545000 -0.068700
H123 H 0.480200 0.506400 -0.064400
H124 H 0.543900 0.548500 -0.029400
H125 H 0.510700 0.559500 -0.220700
C126 C 0.436600 0.565300 0.066600
H127 H 0.429300 0.565100 -0.096700
H128 H 0.432300 0.594600 0.137600
C129 C 0.393000 0.507400 0.174000
H130 H 0.395700 0.478000 0.095500
H131 H 0.402400 0.506700 0.334700
C132 C 0.338500 0.496500 0.160900
H133 H 0.329600 0.498000 0.000600
H134 H 0.336000 0.525800 0.241500
C135 C 0.296200 0.442000 0.257600
H136 H 0.302700 0.413100 0.192500
C137 C 0.239700 0.429800 0.186700
H138 H 0.212200 0.399000 0.274600
H139 H 0.234500 0.420600 0.025900
H140 H 0.236000 0.462000 0.213500
C141 C 0.298500 0.439100 0.512600
H142 H 0.334600 0.445400 0.557900
H143 H 0.270300 0.403000 0.564300
H144 H 0.292300 0.467200 0.580000
O145 O 0.056130 0.107890 1.305400
H146 H 0.024700 0.088900 1.251100
C147 C 0.158320 0.257790 1.277300
H148 H 0.137800 0.272800 1.356200
H149 H 0.196800 0.278400 1.328500
C150 C 0.133900 0.197110 1.339400
H151 H 0.157800 0.183600 1.281400
H152 H 0.131900 0.193000 1.505400
C153 C 0.077700 0.163790 1.240600
H154 H 0.053800 0.177000 1.306400
C155 C 0.078190 0.170000 0.986200
H156 H 0.100100 0.155400 0.917100
H157 H 0.040400 0.148700 0.927600
C158 C 0.102210 0.229500 0.922200
C159 C 0.075600 0.247030 0.790300
H160 H 0.041800 0.220100 0.728000
C161 C 0.094040 0.303700 0.734300
H162 H 0.120500 0.330100 0.832800
C163 C 0.078690 0.323220 0.563800
C164 C 0.038500 0.288600 0.382400
H165 H 0.016200 0.250700 0.439200
H166 H 0.059100 0.287500 0.249500
C167 C 0.156060 0.265180 1.028500
C168 C 0.000300 0.309200 0.308200
H169 H -0.019000 0.289600 0.169400
H170 H -0.027600 0.300300 0.426800
C171 C 0.029400 0.370340 0.263200
H172 H 0.002000 0.381300 0.228200
H173 H 0.053400 0.378700 0.130100
C174 C 0.063630 0.403270 0.465400
C175 C 0.104940 0.383210 0.512000
H176 H 0.125700 0.389000 0.368400
C177 C 0.145400 0.424800 0.678900
H178 H 0.181300 0.426800 0.669400
H179 H 0.131600 0.415600 0.835400
C180 C 0.149300 0.478600 0.602500
H181 H 0.185700 0.503000 0.536600
H182 H 0.144100 0.497300 0.733000
C183 C 0.104200 0.464900 0.424100
H184 H 0.121000 0.468600 0.272000
C185 C 0.027800 0.395100 0.669300
H186 H -0.001500 0.402300 0.627000
H187 H 0.049900 0.420200 0.789400
H188 H 0.011900 0.357400 0.722800
C189 C 0.200030 0.299060 0.907000
H190 H 0.197300 0.300800 0.748000
H191 H 0.234000 0.321400 0.979900
C192 C 0.082300 0.505200 0.433800
H193 H 0.067100 0.502800 0.588300
C194 C 0.036300 0.491300 0.264700
H195 H 0.026200 0.519800 0.269000
H196 H 0.004600 0.456100 0.304000
H197 H 0.048800 0.489300 0.112700
C198 C 0.128700 0.563400 0.400000
H199 H 0.135800 0.570700 0.236700
H200 H 0.162300 0.567700 0.471000
C201 C 0.114400 0.607000 0.508000
H202 H 0.082300 0.604300 0.428900
H203 H 0.104300 0.597600 0.668100
C204 C 0.158000 0.661500 0.494300
H205 H 0.168400 0.670400 0.334000
H206 H 0.189800 0.664000 0.574900
C207 C 0.145800 0.703800 0.591000
H208 H 0.110400 0.697300 0.525900
C209 C 0.190100 0.760300 0.520100
H210 H 0.186800 0.787800 0.608000
H211 H 0.186100 0.765500 0.359300
H212 H 0.226000 0.764000 0.546900
C213 C 0.140600 0.701500 0.846000
H214 H 0.110800 0.665400 0.891300
H215 H 0.132700 0.729700 0.897700
H216 H 0.174900 0.707700 0.913400
O217 O 0.943870 0.892110 0.805400
H218 H 0.975300 0.911100 0.751100
C219 C 0.841680 0.742210 0.777300
H220 H 0.862200 0.727200 0.856200
H221 H 0.803200 0.721600 0.828500
C222 C 0.866100 0.802890 0.839400
H223 H 0.842200 0.816400 0.781400
H224 H 0.868100 0.807000 1.005400
C225 C 0.922300 0.836210 0.740600
H226 H 0.946200 0.823000 0.806400
C227 C 0.921810 0.830000 0.486200
H228 H 0.899900 0.844600 0.417100
H229 H 0.959600 0.851300 0.427600
C230 C 0.897790 0.770500 0.422200
C231 C 0.924400 0.752970 0.290300
H232 H 0.958200 0.779900 0.228000
C233 C 0.905960 0.696300 0.234300
H234 H 0.879500 0.669900 0.332800
C235 C 0.921310 0.676780 0.063800
C236 C 0.961500 0.711400 -0.117600
H237 H 0.983800 0.749300 -0.060800
H238 H 0.940900 0.712500 -0.250500
C239 C 0.843940 0.734820 0.528500
C240 C 0.999700 0.690800 -0.191800
H241 H 1.019000 0.710400 -0.330600
H242 H 1.027600 0.699700 -0.073200
C243 C 0.970600 0.629660 -0.236800
H244 H 0.998000 0.618700 -0.271800
H245 H 0.946600 0.621300 -0.369900
C246 C 0.936370 0.596730 -0.034600
C247 C 0.895060 0.616790 0.012000
H248 H 0.874300 0.611000 -0.131600
C249 C 0.854600 0.575200 0.178900
H250 H 0.818700 0.573200 0.169400
H251 H 0.868400 0.584400 0.335400
C252 C 0.850700 0.521400 0.102500
H253 H 0.814300 0.497000 0.036600
H254 H 0.855900 0.502700 0.233000
C255 C 0.895800 0.535100 -0.075900
H256 H 0.879000 0.531400 -0.228000
C257 C 0.972200 0.604900 0.169300
H258 H 1.001500 0.597700 0.127000
H259 H 0.950100 0.579800 0.289400
H260 H 0.988100 0.642600 0.222800
C261 C 0.799970 0.700940 0.407000
H262 H 0.802700 0.699200 0.248000
H263 H 0.766000 0.678600 0.479900
C264 C 0.917700 0.494800 -0.066200
H265 H 0.932900 0.497200 0.088300
C266 C 0.963700 0.508700 -0.235300
H267 H 0.973800 0.480200 -0.231000
H268 H 0.995400 0.543900 -0.196000
H269 H 0.951200 0.510700 -0.387300
C270 C 0.871300 0.436600 -0.100000
H271 H 0.864200 0.429300 -0.263300
H272 H 0.837700 0.432300 -0.029000
C273 C 0.885600 0.393000 0.008000
H274 H 0.917700 0.395700 -0.071100
H275 H 0.895700 0.402400 0.168100
C276 C 0.842000 0.338500 -0.005700
H277 H 0.831600 0.329600 -0.166000
H278 H 0.810200 0.336000 0.074900
C279 C 0.854200 0.296200 0.091000
H280 H 0.889600 0.302700 0.025900
C281 C 0.809900 0.239700 0.020100
H282 H 0.813200 0.212200 0.108000
H283 H 0.813900 0.234500 -0.140700
H284 H 0.774000 0.236000 0.046900
C285 C 0.859400 0.298500 0.346000
H286 H 0.889200 0.334600 0.391300
H287 H 0.867300 0.270300 0.397700
H288 H 0.825100 0.292300 0.413400
O289 O 0.107890 0.051760 1.472000
H290 H 0.088900 0.064200 1.417700
C291 C 0.257790 0.099470 1.443900
H292 H 0.272800 0.135000 1.522800
H293 H 0.278400 0.081600 1.495100
C294 C 0.197110 0.063210 1.506000
H295 H 0.183600 0.025800 1.448000
H296 H 0.193000 0.061100 1.672000
C297 C 0.163790 0.086090 1.407200
H298 H 0.177000 0.123200 1.473000
C299 C 0.170000 0.091810 1.152800
H300 H 0.155400 0.055300 1.083700
H301 H 0.148700 0.108300 1.094200
C302 C 0.229500 0.127290 1.088800
C303 C 0.247030 0.171430 0.956900
H304 H 0.220100 0.178300 0.894600
C305 C 0.303700 0.209660 0.900900
H306 H 0.330100 0.209600 0.999400
C307 C 0.323220 0.244530 0.730400
C308 C 0.288600 0.250100 0.549000
H309 H 0.250700 0.234500 0.605800
H310 H 0.287500 0.228400 0.416100
C311 C 0.265180 0.109120 1.195100
C312 C 0.309200 0.308900 0.474800
H313 H 0.289600 0.308600 0.336000
H314 H 0.300300 0.327900 0.593400
C315 C 0.370340 0.340940 0.429800
H316 H 0.381300 0.379300 0.394800
H317 H 0.378700 0.325300 0.296700
C318 C 0.403270 0.339640 0.632000
C319 C 0.383210 0.278270 0.678600
H320 H 0.389000 0.263300 0.535000
C321 C 0.424800 0.279400 0.845500
H322 H 0.426800 0.245500 0.836000
H323 H 0.415600 0.284000 1.002000
C324 C 0.478600 0.329300 0.769100
H325 H 0.503000 0.317300 0.703200
H326 H 0.497300 0.353200 0.899600
C327 C 0.464900 0.360700 0.590700
H328 H 0.468600 0.347600 0.438600
C329 C 0.395100 0.367300 0.835900
H330 H 0.402300 0.403800 0.793600
H331 H 0.420200 0.370300 0.956000
H332 H 0.357400 0.345500 0.889400
C333 C 0.299060 0.099030 1.073600
H334 H 0.300800 0.103500 0.914600
H335 H 0.321400 0.087400 1.146500
C336 C 0.505200 0.422900 0.600400
H337 H 0.502800 0.435700 0.754900
C338 C 0.491300 0.455000 0.431300
H339 H 0.519800 0.493600 0.435600
H340 H 0.456100 0.451500 0.470600
H341 H 0.489300 0.440500 0.279300
C342 C 0.563400 0.434700 0.566600
H343 H 0.570700 0.434900 0.403300
H344 H 0.567700 0.405400 0.637600
C345 C 0.607000 0.492600 0.674000
H346 H 0.604300 0.522000 0.595500
H347 H 0.597600 0.493300 0.834700
C348 C 0.661500 0.503500 0.660900
H349 H 0.670400 0.502000 0.500600
H350 H 0.664000 0.474200 0.741500
C351 C 0.703800 0.558000 0.757600
H352 H 0.697300 0.586900 0.692500
C353 C 0.760300 0.570200 0.686700
H354 H 0.787800 0.601000 0.774600
H355 H 0.765500 0.579400 0.525900
H356 H 0.764000 0.538000 0.713500
C357 C 0.701500 0.560900 1.012600
H358 H 0.665400 0.554600 1.057900
H359 H 0.729700 0.597000 1.064300
H360 H 0.707700 0.532800 1.080000
O361 O 0.051760 0.943870 0.638700
H362 H 0.064200 0.975300 0.584400
C363 C 0.099470 0.841680 0.610600
H364 H 0.135000 0.862200 0.689500
H365 H 0.081600 0.803200 0.661800
C366 C 0.063210 0.866100 0.672700
H367 H 0.025800 0.842200 0.614700
H368 H 0.061100 0.868100 0.838700
C369 C 0.086090 0.922300 0.573900
H370 H 0.123200 0.946200 0.639700
C371 C 0.091810 0.921810 0.319500
H372 H 0.055300 0.899900 0.250400
H373 H 0.108300 0.959600 0.260900
C374 C 0.127290 0.897790 0.255500
C375 C 0.171430 0.924400 0.123600
H376 H 0.178300 0.958200 0.061300
C377 C 0.209660 0.905960 0.067600
H378 H 0.209600 0.879500 0.166100
C379 C 0.244530 0.921310 -0.102900
C380 C 0.250100 0.961500 -0.284300
H381 H 0.234500 0.983800 -0.227500
H382 H 0.228400 0.940900 -0.417200
C383 C 0.109120 0.843940 0.361800
C384 C 0.308900 0.999700 -0.358500
H385 H 0.308600 1.019000 -0.497300
H386 H 0.327900 1.027600 -0.239900
C387 C 0.340940 0.970600 -0.403500
H388 H 0.379300 0.998000 -0.438500
H389 H 0.325300 0.946600 -0.536600
C390 C 0.339640 0.936370 -0.201300
C391 C 0.278270 0.895060 -0.154700
H392 H 0.263300 0.874300 -0.298300
C393 C 0.279400 0.854600 0.012200
H394 H 0.245500 0.818700 0.002700
H395 H 0.284000 0.868400 0.168700
C396 C 0.329300 0.850700 -0.064200
H397 H 0.317300 0.814300 -0.130100
H398 H 0.353200 0.855900 0.066300
C399 C 0.360700 0.895800 -0.242600
H400 H 0.347600 0.879000 -0.394700
C401 C 0.367300 0.972200 0.002600
H402 H 0.403800 1.001500 -0.039700
H403 H 0.370300 0.950100 0.122700
H404 H 0.345500 0.988100 0.056100
C405 C 0.099030 0.799970 0.240300
H406 H 0.103500 0.802700 0.081300
H407 H 0.087400 0.766000 0.313200
C408 C 0.422900 0.917700 -0.232900
H409 H 0.435700 0.932900 -0.078400
C410 C 0.455000 0.963700 -0.402000
H411 H 0.493600 0.973800 -0.397700
H412 H 0.451500 0.995400 -0.362700
H413 H 0.440500 0.951200 -0.554000
C414 C 0.434700 0.871300 -0.266700
H415 H 0.434900 0.864200 -0.430000
H416 H 0.405400 0.837700 -0.195700
C417 C 0.492600 0.885600 -0.159000
H418 H 0.522000 0.917700 -0.237800
H419 H 0.493300 0.895700 0.001400
C420 C 0.503500 0.842000 -0.172400
H421 H 0.502000 0.831600 -0.332700
H422 H 0.474200 0.810200 -0.091800
C423 C 0.558000 0.854200 -0.075700
H424 H 0.586900 0.889600 -0.140800
C425 C 0.570200 0.809900 -0.146600
H426 H 0.601000 0.813200 -0.058700
H427 H 0.579400 0.813900 -0.307400
H428 H 0.538000 0.774000 -0.119800
C429 C 0.560900 0.859400 0.179300
H430 H 0.554600 0.889200 0.224600
H431 H 0.597000 0.867300 0.231000
H432 H 0.532800 0.825100 0.246700

#END
