./KAHTOC_from_xyz.cif_generated_by_CrystalShift
_symmetry_cell_setting triclinic
_symmetry_space_group_name_H-M 'P 1'
loop_
_symmetry_equiv_pos_site_id
_symmetry_equiv_pos_as_xyz
1 x,y,z
_cell_length_a 9.948900
_cell_length_b 10.055500
_cell_length_c 10.141800
_cell_angle_alpha 115.006000
_cell_angle_beta 102.820000
_cell_angle_gamma 93.647000
_cell_volume 882.233360
loop_
_atom_site_label
_atom_site_type_symbol
_atom_site_fract_x
_atom_site_fract_y
_atom_site_fract_z
C1 C -0.118200 0.037200 -0.069000
C2 C 0.006000 0.049200 -0.107800
C3 C -0.125200 -0.011800 0.038500
C4 C -0.238100 0.081000 -0.138200
C5 C 0.012500 0.105700 -0.214500
C6 C -0.253200 -0.023700 0.078900
N7 N -0.329300 0.121700 -0.190100
N8 N 0.016600 0.154600 -0.296400
N9 N -0.353200 -0.031100 0.113100
C10 C 0.125200 0.011800 -0.038500
C11 C -0.006000 -0.049200 0.107800
C12 C 0.118200 -0.037200 0.069000
C13 C 0.253200 0.023700 -0.078900
C14 C -0.012500 -0.105700 0.214500
C15 C 0.238100 -0.081000 0.138200
N16 N 0.353200 0.031100 -0.113100
N17 N -0.016600 -0.154600 0.296400
N18 N 0.329300 -0.121700 0.190100
C19 C -0.118200 0.037200 0.931000
C20 C 0.006000 0.049200 0.892200
C21 C -0.125200 -0.011800 1.038500
C22 C -0.238100 0.081000 0.861800
C23 C 0.012500 0.105700 0.785500
C24 C -0.253200 -0.023700 1.078900
N25 N -0.329300 0.121700 0.809900
N26 N 0.016600 0.154600 0.703600
N27 N -0.353200 -0.031100 1.113100
C28 C 0.125200 0.011800 0.961500
C29 C -0.006000 -0.049200 1.107800
C30 C 0.118200 -0.037200 1.069000
C31 C 0.253200 0.023700 0.921100
C32 C -0.012500 -0.105700 1.214500
C33 C 0.238100 -0.081000 1.138200
N34 N 0.353200 0.031100 0.886900
N35 N -0.016600 -0.154600 1.296400
N36 N 0.329300 -0.121700 1.190100
C37 C -0.118200 1.037200 -0.069000
C38 C 0.006000 1.049200 -0.107800
C39 C -0.125200 0.988200 0.038500
C40 C -0.238100 1.081000 -0.138200
C41 C 0.012500 1.105700 -0.214500
C42 C -0.253200 0.976300 0.078900
N43 N -0.329300 1.121700 -0.190100
N44 N 0.016600 1.154600 -0.296400
N45 N -0.353200 0.968900 0.113100
C46 C 0.125200 1.011800 -0.038500
C47 C -0.006000 0.950800 0.107800
C48 C 0.118200 0.962800 0.069000
C49 C 0.253200 1.023700 -0.078900
C50 C -0.012500 0.894300 0.214500
C51 C 0.238100 0.919000 0.138200
N52 N 0.353200 1.031100 -0.113100
N53 N -0.016600 0.845400 0.296400
N54 N 0.329300 0.878300 0.190100
C55 C -0.118200 1.037200 0.931000
C56 C 0.006000 1.049200 0.892200
C57 C -0.125200 0.988200 1.038500
C58 C -0.238100 1.081000 0.861800
C59 C 0.012500 1.105700 0.785500
C60 C -0.253200 0.976300 1.078900
N61 N -0.329300 1.121700 0.809900
N62 N 0.016600 1.154600 0.703600
N63 N -0.353200 0.968900 1.113100
C64 C 0.125200 1.011800 0.961500
C65 C -0.006000 0.950800 1.107800
C66 C 0.118200 0.962800 1.069000
C67 C 0.253200 1.023700 0.921100
C68 C -0.012500 0.894300 1.214500
C69 C 0.238100 0.919000 1.138200
N70 N 0.353200 1.031100 0.886900
N71 N -0.016600 0.845400 1.296400
N72 N 0.329300 0.878300 1.190100
C73 C 0.881800 0.037200 -0.069000
C74 C 1.006000 0.049200 -0.107800
C75 C 0.874800 -0.011800 0.038500
C76 C 0.761900 0.081000 -0.138200
C77 C 1.012500 0.105700 -0.214500
C78 C 0.746800 -0.023700 0.078900
N79 N 0.670700 0.121700 -0.190100
N80 N 1.016600 0.154600 -0.296400
N81 N 0.646800 -0.031100 0.113100
C82 C 1.125200 0.011800 -0.038500
C83 C 0.994000 -0.049200 0.107800
C84 C 1.118200 -0.037200 0.069000
C85 C 1.253200 0.023700 -0.078900
C86 C 0.987500 -0.105700 0.214500
C87 C 1.238100 -0.081000 0.138200
N88 N 1.353200 0.031100 -0.113100
N89 N 0.983400 -0.154600 0.296400
N90 N 1.329300 -0.121700 0.190100
C91 C 0.881800 0.037200 0.931000
C92 C 1.006000 0.049200 0.892200
C93 C 0.874800 -0.011800 1.038500
C94 C 0.761900 0.081000 0.861800
C95 C 1.012500 0.105700 0.785500
C96 C 0.746800 -0.023700 1.078900
N97 N 0.670700 0.121700 0.809900
N98 N 1.016600 0.154600 0.703600
N99 N 0.646800 -0.031100 1.113100
C100 C 1.125200 0.011800 0.961500
C101 C 0.994000 -0.049200 1.107800
C102 C 1.118200 -0.037200 1.069000
C103 C 1.253200 0.023700 0.921100
C104 C 0.987500 -0.105700 1.214500
C105 C 1.238100 -0.081000 1.138200
N106 N 1.353200 0.031100 0.886900
N107 N 0.983400 -0.154600 1.296400
N108 N 1.329300 -0.121700 1.190100
C109 C 0.881800 1.037200 -0.069000
C110 C 1.006000 1.049200 -0.107800
C111 C 0.874800 0.988200 0.038500
C112 C 0.761900 1.081000 -0.138200
C113 C 1.012500 1.105700 -0.214500
C114 C 0.746800 0.976300 0.078900
N115 N 0.670700 1.121700 -0.190100
N116 N 1.016600 1.154600 -0.296400
N117 N 0.646800 0.968900 0.113100
C118 C 1.125200 1.011800 -0.038500
C119 C 0.994000 0.950800 0.107800
C120 C 1.118200 0.962800 0.069000
C121 C 1.253200 1.023700 -0.078900
C122 C 0.987500 0.894300 0.214500
C123 C 1.238100 0.919000 0.138200
N124 N 1.353200 1.031100 -0.113100
N125 N 0.983400 0.845400 0.296400
N126 N 1.329300 0.878300 0.190100
C127 C 0.881800 1.037200 0.931000
C128 C 1.006000 1.049200 0.892200
C129 C 0.874800 0.988200 1.038500
C130 C 0.761900 1.081000 0.861800
C131 C 1.012500 1.105700 0.785500
C132 C 0.746800 0.976300 1.078900
N133 N 0.670700 1.121700 0.809900
N134 N 1.016600 1.154600 0.703600
N135 N 0.646800 0.968900 1.113100
C136 C 1.125200 1.011800 0.961500
C137 C 0.994000 0.950800 1.107800
C138 C 1.118200 0.962800 1.069000
C139 C 1.253200 1.023700 0.921100
C140 C 0.987500 0.894300 1.214500
C141 C 1.238100 0.919000 1.138200
N142 N 1.353200 1.031100 0.886900
N143 N 0.983400 0.845400 1.296400
N144 N 1.329300 0.878300 1.190100
C145 C 0.717900 0.737400 0.587600
C146 C 0.672000 0.691500 0.684500
C147 C 0.761800 0.643600 0.774500
C148 C 0.899400 0.643400 0.768700
C149 C 0.948900 0.693000 0.676900
C150 C 0.858000 0.740100 0.586800
C151 C 0.672100 0.830600 0.398200
C152 C 0.481900 0.780200 0.500000
C153 C 0.568500 0.592600 0.871700
C154 C 0.790100 0.515000 0.934400
C155 C 1.180000 0.627000 0.745600
C156 C 1.137300 0.729000 0.569100
N157 N 0.626200 0.778700 0.494300
N158 N 0.714900 0.601400 0.872600
N159 N 1.089100 0.701800 0.680300
H160 H 0.565500 0.670600 0.658900
H161 H 0.967020 0.617340 0.824840
H162 H 0.890860 0.775460 0.526390
H163 H 0.602300 0.869900 0.359300
H164 H 0.763900 0.903900 0.442800
H165 H 0.725200 0.764700 0.314700
H166 H 0.429100 0.793100 0.408900
H167 H 0.484900 0.861300 0.599500
H168 H 0.437900 0.668500 0.493900
H169 H 0.569900 0.516000 0.912500
H170 H 0.527500 0.692100 0.868700
H171 H 0.491200 0.509900 0.768200
H172 H 0.916200 0.570200 0.989600
H173 H 0.826100 0.430000 0.864900
H174 H 0.726300 0.472300 0.994000
H175 H 1.154500 0.630000 0.825500
H176 H 1.153300 0.532100 0.721000
H177 H 1.246700 0.630300 0.673600
H178 H 1.122500 0.810800 0.568300
H179 H 1.086300 0.664100 0.447500
H180 H 1.246000 0.793900 0.626900
C181 C 0.282100 0.262600 0.412400
C182 C 0.328000 0.308500 0.315500
C183 C 0.238200 0.356400 0.225500
C184 C 0.100600 0.356600 0.231300
C185 C 0.051100 0.307000 0.323100
C186 C 0.142000 0.259900 0.413200
C187 C 0.327900 0.169400 0.601800
C188 C 0.518100 0.219800 0.500000
C189 C 0.431500 0.407400 0.128300
C190 C 0.209900 0.485000 0.065600
C191 C -0.180000 0.373000 0.254400
C192 C -0.137300 0.271000 0.430900
N193 N 0.373800 0.221300 0.505700
N194 N 0.285100 0.398600 0.127400
N195 N -0.089100 0.298200 0.319700
H196 H 0.434500 0.329400 0.341100
H197 H 0.032980 0.382660 0.175160
H198 H 0.109140 0.224540 0.473610
H199 H 0.397700 0.130100 0.640700
H200 H 0.236100 0.096100 0.557200
H201 H 0.274800 0.235300 0.685300
H202 H 0.570900 0.206900 0.591100
H203 H 0.515100 0.138700 0.400500
H204 H 0.562100 0.331500 0.506100
H205 H 0.430100 0.484000 0.087500
H206 H 0.472500 0.307900 0.131300
H207 H 0.508800 0.490100 0.231800
H208 H 0.083800 0.429800 0.010400
H209 H 0.173900 0.570000 0.135100
H210 H 0.273700 0.527700 0.006000
H211 H -0.154500 0.370000 0.174500
H212 H -0.153300 0.467900 0.279000
H213 H -0.246700 0.369700 0.326400
H214 H -0.122500 0.189200 0.431700
H215 H -0.086300 0.335900 0.552500
H216 H -0.246000 0.206100 0.373100

#END
