
#######################################################################
#
#                 Cambridge Crystallographic Data Centre
#                                CCDC 
#
#######################################################################
#
# If this CIF has been generated from an entry in the Cambridge 
# Structural Database, then it will include bibliographic, chemical, 
# crystal, experimental, refinement or atomic coordinate data resulting 
# from the CCDC's data processing and validation procedures.
#
#######################################################################

data_LIBJOV01
_symmetry_cell_setting           orthorhombic
_symmetry_space_group_name_H-M   'P b c a'
_symmetry_Int_Tables_number      61
_space_group_name_Hall           '-P 2ac 2ab'
loop_
_symmetry_equiv_pos_site_id
_symmetry_equiv_pos_as_xyz
1 x,y,z
2 1/2+x,y,1/2-z
3 x,1/2-y,1/2+z
4 1/2-x,1/2+y,z
5 -x,-y,-z
6 1/2-x,-y,1/2+z
7 -x,1/2+y,1/2-z
8 1/2+x,1/2-y,-z
_cell_length_a                   11.3495(5)
_cell_length_b                   11.6211(6)
_cell_length_c                   17.3113(5)
_cell_angle_alpha                90
_cell_angle_beta                 90
_cell_angle_gamma                90
_cell_volume                     2283.25
loop_
_atom_site_label
_atom_site_type_symbol
_atom_site_fract_x
_atom_site_fract_y
_atom_site_fract_z
N1 N 0.23753(10) 0.19798(10) 0.42779(7)
C1 C 0.18061(12) 0.10484(13) 0.39730(8)
N2 N 0.11802(10) 0.15299(11) 0.33816(6)
C2 C 0.21098(14) 0.29891(14) 0.38949(9)
H1 H 0.2398 0.3737 0.4011
C3 C 0.13621(14) 0.27019(14) 0.33263(9)
H2 H 0.1023 0.3208 0.2957
C4 C 0.31262(13) 0.19286(15) 0.49825(8)
C5 C 0.3540(2) 0.07075(19) 0.50999(11)
H3 H 0.2857 0.0204 0.5176
H4 H 0.4050 0.0671 0.5556
H5 H 0.3982 0.0454 0.4644
C6 C 0.23952(14) 0.23089(17) 0.56709(9)
H6 H 0.1720 0.1791 0.5732
H7 H 0.2112 0.3096 0.5586
H8 H 0.2881 0.2286 0.6139
C7 C 0.41722(16) 0.2734(2) 0.48754(11)
H9 H 0.4602 0.2521 0.4406
H10 H 0.4698 0.2672 0.5322
H11 H 0.3890 0.3528 0.4829
C8 C 0.04284(13) 0.08257(14) 0.28548(8)
C9 C 0.12389(17) 0.00881(17) 0.23592(10)
H12 H 0.1695 -0.0429 0.2692
H13 H 0.1777 0.0586 0.2069
H14 H 0.0766 -0.0368 0.1998
C10 C -0.03175(18) 0.16066(18) 0.23471(11)
H15 H 0.0199 0.2081 0.2024
H16 H -0.0804 0.2105 0.2673
H17 H -0.0827 0.1136 0.2017
C11 C -0.03706(15) 0.00717(15) 0.33443(9)
H18 H 0.0110 -0.0454 0.3655
H19 H -0.0892 -0.0375 0.3007
H20 H -0.0846 0.0558 0.3687
N1 N 0.73753(10) 0.19798(10) 0.07221(7)
C1 C 0.68061(12) 0.10484(13) 0.10270(8)
N2 N 0.61802(10) 0.15299(11) 0.16184(6)
C2 C 0.71098(14) 0.29891(14) 0.11051(9)
H1 H 0.7398 0.3737 0.0989
C3 C 0.63621(14) 0.27019(14) 0.16737(9)
H2 H 0.6023 0.3208 0.2043
C4 C 0.81262(13) 0.19286(15) 0.00175(8)
C5 C 0.8540(2) 0.07075(19) -0.00999(11)
H3 H 0.7857 0.0204 -0.0176
H4 H 0.9050 0.0671 -0.0556
H5 H 0.8982 0.0454 0.0356
C6 C 0.73952(14) 0.23089(17) -0.06709(9)
H6 H 0.6720 0.1791 -0.0732
H7 H 0.7112 0.3096 -0.0586
H8 H 0.7881 0.2286 -0.1139
C7 C 0.91722(16) 0.2734(2) 0.01246(11)
H9 H 0.9602 0.2521 0.0594
H10 H 0.9698 0.2672 -0.0322
H11 H 0.8890 0.3528 0.0171
C8 C 0.54284(13) 0.08257(14) 0.21452(8)
C9 C 0.62389(17) 0.00881(17) 0.26408(10)
H12 H 0.6695 -0.0429 0.2308
H13 H 0.6777 0.0586 0.2931
H14 H 0.5766 -0.0368 0.3002
C10 C 0.46825(18) 0.16066(18) 0.26529(11)
H15 H 0.5199 0.2081 0.2976
H16 H 0.4196 0.2105 0.2327
H17 H 0.4173 0.1136 0.2983
C11 C 0.46294(15) 0.00717(15) 0.16557(9)
H18 H 0.5110 -0.0454 0.1345
H19 H 0.4108 -0.0375 0.1993
H20 H 0.4154 0.0558 0.1313
N1 N 0.23753(10) 0.30202(10) 0.92779(7)
C1 C 0.18061(12) 0.39516(13) 0.89730(8)
N2 N 0.11802(10) 0.34701(11) 0.83816(6)
C2 C 0.21098(14) 0.20109(14) 0.88949(9)
H1 H 0.2398 0.1263 0.9011
C3 C 0.13621(14) 0.22981(14) 0.83263(9)
H2 H 0.1023 0.1792 0.7957
C4 C 0.31262(13) 0.30714(15) 0.99825(8)
C5 C 0.3540(2) 0.42925(19) 1.00999(11)
H3 H 0.2857 0.4796 1.0176
H4 H 0.4050 0.4329 1.0556
H5 H 0.3982 0.4546 0.9644
C6 C 0.23952(14) 0.26911(17) 1.06709(9)
H6 H 0.1720 0.3209 1.0732
H7 H 0.2112 0.1904 1.0586
H8 H 0.2881 0.2714 1.1139
C7 C 0.41722(16) 0.2266(2) 0.98754(11)
H9 H 0.4602 0.2479 0.9406
H10 H 0.4698 0.2328 1.0322
H11 H 0.3890 0.1472 0.9829
C8 C 0.04284(13) 0.41743(14) 0.78548(8)
C9 C 0.12389(17) 0.49119(17) 0.73592(10)
H12 H 0.1695 0.5429 0.7692
H13 H 0.1777 0.4414 0.7069
H14 H 0.0766 0.5368 0.6998
C10 C -0.03175(18) 0.33934(18) 0.73471(11)
H15 H 0.0199 0.2919 0.7024
H16 H -0.0804 0.2895 0.7673
H17 H -0.0827 0.3864 0.7017
C11 C -0.03706(15) 0.49283(15) 0.83443(9)
H18 H 0.0110 0.5454 0.8655
H19 H -0.0892 0.5375 0.8007
H20 H -0.0846 0.4442 0.8687
N1 N 0.26247(10) 0.69798(10) 0.42779(7)
C1 C 0.31939(12) 0.60484(13) 0.39730(8)
N2 N 0.38198(10) 0.65299(11) 0.33816(6)
C2 C 0.28902(14) 0.79891(14) 0.38949(9)
H1 H 0.2602 0.8737 0.4011
C3 C 0.36379(14) 0.77019(14) 0.33263(9)
H2 H 0.3977 0.8208 0.2957
C4 C 0.18738(13) 0.69286(15) 0.49825(8)
C5 C 0.1460(2) 0.57075(19) 0.50999(11)
H3 H 0.2143 0.5204 0.5176
H4 H 0.0950 0.5671 0.5556
H5 H 0.1018 0.5454 0.4644
C6 C 0.26048(14) 0.73089(17) 0.56709(9)
H6 H 0.3280 0.6791 0.5732
H7 H 0.2888 0.8096 0.5586
H8 H 0.2119 0.7286 0.6139
C7 C 0.08278(16) 0.7734(2) 0.48754(11)
H9 H 0.0398 0.7521 0.4406
H10 H 0.0302 0.7672 0.5322
H11 H 0.1110 0.8528 0.4829
C8 C 0.45716(13) 0.58257(14) 0.28548(8)
C9 C 0.37611(17) 0.50881(17) 0.23592(10)
H12 H 0.3305 0.4571 0.2692
H13 H 0.3223 0.5586 0.2069
H14 H 0.4234 0.4632 0.1998
C10 C 0.53175(18) 0.66066(18) 0.23471(11)
H15 H 0.4801 0.7081 0.2024
H16 H 0.5804 0.7105 0.2673
H17 H 0.5827 0.6136 0.2017
C11 C 0.53706(15) 0.50717(15) 0.33443(9)
H18 H 0.4890 0.4546 0.3655
H19 H 0.5892 0.4625 0.3007
H20 H 0.5846 0.5558 0.3687
N1 N 0.76247(10) 0.80202(10) 0.57221(7)
C1 C 0.81939(12) 0.89516(13) 0.60270(8)
N2 N 0.88198(10) 0.84701(11) 0.66184(6)
C2 C 0.78902(14) 0.70109(14) 0.61051(9)
H1 H 0.7602 0.6263 0.5989
C3 C 0.86379(14) 0.72981(14) 0.66737(9)
H2 H 0.8977 0.6792 0.7043
C4 C 0.68738(13) 0.80714(15) 0.50175(8)
C5 C 0.6460(2) 0.92925(19) 0.49001(11)
H3 H 0.7143 0.9796 0.4824
H4 H 0.5950 0.9329 0.4444
H5 H 0.6018 0.9546 0.5356
C6 C 0.76048(14) 0.76911(17) 0.43291(9)
H6 H 0.8280 0.8209 0.4268
H7 H 0.7888 0.6904 0.4414
H8 H 0.7119 0.7714 0.3861
C7 C 0.58278(16) 0.7266(2) 0.51246(11)
H9 H 0.5398 0.7479 0.5594
H10 H 0.5302 0.7328 0.4678
H11 H 0.6110 0.6472 0.5171
C8 C 0.95716(13) 0.91743(14) 0.71452(8)
C9 C 0.87611(17) 0.99119(17) 0.76408(10)
H12 H 0.8305 1.0429 0.7308
H13 H 0.8223 0.9414 0.7931
H14 H 0.9234 1.0368 0.8002
C10 C 1.03175(18) 0.83934(18) 0.76529(11)
H15 H 0.9801 0.7919 0.7976
H16 H 1.0804 0.7895 0.7327
H17 H 1.0827 0.8864 0.7983
C11 C 1.03706(15) 0.99283(15) 0.66557(9)
H18 H 0.9890 1.0454 0.6345
H19 H 1.0892 1.0375 0.6993
H20 H 1.0846 0.9442 0.6313
N1 N 0.26247(10) 0.80202(10) 0.92779(7)
C1 C 0.31939(12) 0.89516(13) 0.89730(8)
N2 N 0.38198(10) 0.84701(11) 0.83816(6)
C2 C 0.28902(14) 0.70109(14) 0.88949(9)
H1 H 0.2602 0.6263 0.9011
C3 C 0.36379(14) 0.72981(14) 0.83263(9)
H2 H 0.3977 0.6792 0.7957
C4 C 0.18738(13) 0.80714(15) 0.99825(8)
C5 C 0.1460(2) 0.92925(19) 1.00999(11)
H3 H 0.2143 0.9796 1.0176
H4 H 0.0950 0.9329 1.0556
H5 H 0.1018 0.9546 0.9644
C6 C 0.26048(14) 0.76911(17) 1.06709(9)
H6 H 0.3280 0.8209 1.0732
H7 H 0.2888 0.6904 1.0586
H8 H 0.2119 0.7714 1.1139
C7 C 0.08278(16) 0.7266(2) 0.98754(11)
H9 H 0.0398 0.7479 0.9406
H10 H 0.0302 0.7328 1.0322
H11 H 0.1110 0.6472 0.9829
C8 C 0.45716(13) 0.91743(14) 0.78548(8)
C9 C 0.37611(17) 0.99119(17) 0.73592(10)
H12 H 0.3305 1.0429 0.7692
H13 H 0.3223 0.9414 0.7069
H14 H 0.4234 1.0368 0.6998
C10 C 0.53175(18) 0.83934(18) 0.73471(11)
H15 H 0.4801 0.7919 0.7024
H16 H 0.5804 0.7895 0.7673
H17 H 0.5827 0.8864 0.7017
C11 C 0.53706(15) 0.99283(15) 0.83443(9)
H18 H 0.4890 1.0454 0.8655
H19 H 0.5892 1.0375 0.8007
H20 H 0.5846 0.9442 0.8687
N1 N 0.76247(10) 0.69798(10) 0.07221(7)
C1 C 0.81939(12) 0.60484(13) 0.10270(8)
N2 N 0.88198(10) 0.65299(11) 0.16184(6)
C2 C 0.78902(14) 0.79891(14) 0.11051(9)
H1 H 0.7602 0.8737 0.0989
C3 C 0.86379(14) 0.77019(14) 0.16737(9)
H2 H 0.8977 0.8208 0.2043
C4 C 0.68738(13) 0.69286(15) 0.00175(8)
C5 C 0.6460(2) 0.57075(19) -0.00999(11)
H3 H 0.7143 0.5204 -0.0176
H4 H 0.5950 0.5671 -0.0556
H5 H 0.6018 0.5454 0.0356
C6 C 0.76048(14) 0.73089(17) -0.06709(9)
H6 H 0.8280 0.6791 -0.0732
H7 H 0.7888 0.8096 -0.0586
H8 H 0.7119 0.7286 -0.1139
C7 C 0.58278(16) 0.7734(2) 0.01246(11)
H9 H 0.5398 0.7521 0.0594
H10 H 0.5302 0.7672 -0.0322
H11 H 0.6110 0.8528 0.0171
C8 C 0.95716(13) 0.58257(14) 0.21452(8)
C9 C 0.87611(17) 0.50881(17) 0.26408(10)
H12 H 0.8305 0.4571 0.2308
H13 H 0.8223 0.5586 0.2931
H14 H 0.9234 0.4632 0.3002
C10 C 1.03175(18) 0.66066(18) 0.26529(11)
H15 H 0.9801 0.7081 0.2976
H16 H 1.0804 0.7105 0.2327
H17 H 1.0827 0.6136 0.2983
C11 C 1.03706(15) 0.50717(15) 0.16557(9)
H18 H 0.9890 0.4546 0.1345
H19 H 1.0892 0.4625 0.1993
H20 H 1.0846 0.5558 0.1313
N1 N 0.73753(10) 0.30202(10) 0.57221(7)
C1 C 0.68061(12) 0.39516(13) 0.60270(8)
N2 N 0.61802(10) 0.34701(11) 0.66184(6)
C2 C 0.71098(14) 0.20109(14) 0.61051(9)
H1 H 0.7398 0.1263 0.5989
C3 C 0.63621(14) 0.22981(14) 0.66737(9)
H2 H 0.6023 0.1792 0.7043
C4 C 0.81262(13) 0.30714(15) 0.50175(8)
C5 C 0.8540(2) 0.42925(19) 0.49001(11)
H3 H 0.7857 0.4796 0.4824
H4 H 0.9050 0.4329 0.4444
H5 H 0.8982 0.4546 0.5356
C6 C 0.73952(14) 0.26911(17) 0.43291(9)
H6 H 0.6720 0.3209 0.4268
H7 H 0.7112 0.1904 0.4414
H8 H 0.7881 0.2714 0.3861
C7 C 0.91722(16) 0.2266(2) 0.51246(11)
H9 H 0.9602 0.2479 0.5594
H10 H 0.9698 0.2328 0.4678
H11 H 0.8890 0.1472 0.5171
C8 C 0.54284(13) 0.41743(14) 0.71452(8)
C9 C 0.62389(17) 0.49119(17) 0.76408(10)
H12 H 0.6695 0.5429 0.7308
H13 H 0.6777 0.4414 0.7931
H14 H 0.5766 0.5368 0.8002
C10 C 0.46825(18) 0.33934(18) 0.76529(11)
H15 H 0.5199 0.2919 0.7976
H16 H 0.4196 0.2895 0.7327
H17 H 0.4173 0.3864 0.7983
C11 C 0.46294(15) 0.49283(15) 0.66557(9)
H18 H 0.5110 0.5454 0.6345
H19 H 0.4108 0.5375 0.6993
H20 H 0.4154 0.4442 0.6313

#END
