./LIBJIP_from_POSCAR.cif_generated_by_CrystalShift
_symmetry_cell_setting triclinic
_symmetry_space_group_name_H-M 'P 1'
loop_
_symmetry_equiv_pos_site_id
_symmetry_equiv_pos_as_xyz
1 x,y,z
_cell_length_a 11.388000
_cell_length_b 10.536000
_cell_length_c 13.154000
_cell_angle_alpha 90.000000
_cell_angle_beta 105.990000
_cell_angle_gamma 90.000000
_cell_volume 1517.205550
loop_
_atom_site_label
_atom_site_type_symbol
_atom_site_fract_x
_atom_site_fract_y
_atom_site_fract_z
H1 H 0.553000 0.212000 0.529000
H2 H 0.415000 0.179000 0.485000
H3 H 0.360000 0.342000 0.299000
H4 H 0.390000 0.246000 0.220000
H5 H 0.315000 0.203000 0.297000
H6 H 0.541000 0.082000 0.280000
H7 H 0.610000 0.067000 0.399000
H8 H 0.472000 0.030000 0.358000
H9 H 0.588000 0.343000 0.286000
H10 H 0.753000 0.234000 0.561000
H11 H 0.764000 0.361000 0.690000
H12 H 0.667000 0.437000 0.606000
H13 H 0.874000 0.538000 0.702000
H14 H 0.807000 0.512000 0.400000
H15 H 0.807000 0.577000 0.587000
H16 H 1.050000 0.227000 0.657000
H17 H 1.185000 0.071000 0.631000
H18 H 1.196000 0.023000 0.462000
H19 H 1.068000 0.125000 0.316000
H20 H 0.447000 0.712000 -0.029000
H21 H 0.542000 0.819000 0.010000
H22 H 1.068000 0.375000 0.816000
H23 H 1.196000 0.477000 0.962000
H24 H 1.185000 0.429000 1.131000
H25 H 1.050000 0.273000 1.157000
H26 H 0.807000 -0.077000 1.087000
H27 H 0.807000 -0.012000 0.900000
H28 H 0.874000 -0.038000 1.202000
H29 H 0.667000 0.063000 1.106000
H30 H 0.764000 0.139000 1.190000
H31 H 0.753000 0.266000 1.061000
H32 H 0.588000 0.157000 0.786000
H33 H 0.472000 0.470000 0.858000
H34 H 0.610000 0.433000 0.899000
H35 H 0.541000 0.418000 0.780000
H36 H 0.315000 0.297000 0.797000
H37 H 0.390000 0.254000 0.720000
H38 H 0.360000 0.158000 0.799000
H39 H 0.415000 0.321000 0.985000
H40 H 0.458000 0.181000 0.990000
H41 H 0.553000 0.288000 1.029000
H42 H 0.585000 0.679000 0.015000
H43 H 0.640000 0.842000 0.201000
H44 H 0.610000 0.746000 0.280000
H45 H 0.685000 0.703000 0.203000
H46 H 0.459000 0.582000 0.220000
H47 H 0.390000 0.567000 0.101000
H48 H 0.528000 0.530000 0.142000
H49 H 0.412000 0.843000 0.214000
H50 H 0.247000 0.734000 -0.061000
H51 H 0.236000 0.861000 -0.190000
H52 H 0.333000 0.937000 -0.106000
H53 H 0.126000 1.038000 -0.202000
H54 H 0.193000 1.012000 0.100000
H55 H 0.193000 1.077000 -0.087000
H56 H -0.050000 0.727000 -0.157000
H57 H -0.185000 0.571000 -0.131000
H58 H -0.196000 0.523000 0.038000
H59 H -0.068000 0.625000 0.184000
H60 H 0.447000 0.788000 0.471000
H61 H 0.542000 0.681000 0.510000
H62 H 0.585000 0.821000 0.515000
H63 H -0.068000 0.875000 0.684000
H64 H -0.196000 0.977000 0.538000
H65 H -0.185000 0.929000 0.369000
H66 H -0.050000 0.773000 0.343000
H67 H 0.193000 0.423000 0.413000
H68 H 0.193000 0.488000 0.600000
H69 H 0.126000 0.462000 0.298000
H70 H 0.333000 0.563000 0.394000
H71 H 0.236000 0.639000 0.310000
H72 H 0.247000 0.766000 0.439000
H73 H 0.412000 0.657000 0.714000
H74 H 0.528000 0.970000 0.642000
H75 H 0.390000 0.933000 0.601000
H76 H 0.459000 0.918000 0.720000
H77 H 0.685000 0.797000 0.703000
H78 H 0.610000 0.754000 0.780000
H79 H 0.640000 0.658000 0.701000
H80 H 0.458000 0.319000 0.490000
C81 C 0.620700 0.744100 0.710900
C82 C 0.466700 0.912400 0.649900
C83 C 0.986200 0.259000 0.901900
C84 C 1.066000 0.352600 0.885700
C85 C 1.139800 0.414100 0.971900
C86 C 0.013800 0.741000 0.098100
C87 C -0.066000 0.647400 0.114300
C88 C -0.139800 0.585900 0.028100
C89 C -0.133700 0.614800 -0.071400
C90 C -0.053100 0.706900 -0.087000
C91 C 0.021500 0.771300 -0.001300
C92 C 0.114400 0.866400 -0.015200
C93 C 0.193000 0.922500 0.090300
C94 C 0.166400 0.894900 0.190700
C95 C 0.156600 1.008500 -0.131200
C96 C 0.251500 0.904200 -0.124400
C97 C 0.233100 0.816000 -0.037200
C98 C 0.300900 0.846700 0.075700
C99 C 0.401000 0.810100 0.145000
C100 C 0.501700 0.722400 0.130900
C101 C 0.466700 0.587600 0.149900
C102 C 0.620700 0.755900 0.210900
C103 C 0.521300 0.734300 0.021800
C104 C 0.501700 0.777600 0.630900
C105 C 0.401000 0.689900 0.645000
C106 C 0.300900 0.653300 0.575700
C107 C 0.233100 0.684000 0.462800
C108 C 0.251500 0.595800 0.375600
C109 C 0.156600 0.491500 0.368800
C110 C 0.166400 0.605100 0.690700
C111 C 0.193000 0.577500 0.590300
C112 C 0.114400 0.633600 0.484800
C113 C 0.021500 0.728700 0.498700
C114 C -0.053100 0.793100 0.413000
C115 C -0.133700 0.885200 0.428600
C116 C -0.139800 0.914100 0.528100
C117 C -0.066000 0.852600 0.614300
C118 C 0.013800 0.759000 0.598100
C119 C 1.133700 0.385200 1.071400
C120 C 1.053100 0.293100 1.087000
C121 C 0.978500 0.228700 1.001300
C122 C 0.478700 0.265700 0.978200
C123 C 0.379300 0.244100 0.789100
C124 C 0.885600 0.133600 1.015200
C125 C 0.807000 0.077500 0.909700
C126 C 0.833600 0.105100 0.809300
C127 C 0.986200 0.241000 0.401900
C128 C 1.066000 0.147400 0.385700
C129 C 1.139800 0.085900 0.471900
C130 C 1.133700 0.114800 0.571400
C131 C 1.053100 0.206900 0.587000
C132 C 0.978500 0.271300 0.501300
C133 C 0.885600 0.366400 0.515200
C134 C 0.807000 0.422500 0.409700
C135 C 0.833600 0.394900 0.309300
C136 C 0.843400 0.508500 0.631200
C137 C 0.748500 0.404200 0.624400
C138 C 0.766900 0.316000 0.537200
C139 C 0.699100 0.346700 0.424300
C140 C 0.599000 0.310100 0.355000
C141 C 0.498300 0.222400 0.369100
C142 C 0.533300 0.087600 0.350100
C143 C 0.379300 0.255900 0.289100
C144 C 0.478700 0.234300 0.478200
C145 C 0.533300 0.412400 0.850100
C146 C 0.498300 0.277600 0.869100
C147 C 0.599000 0.189900 0.855000
C148 C 0.699100 0.153300 0.924300
C149 C 0.766900 0.184000 1.037200
C150 C 0.748500 0.095800 1.124400
C151 C 0.843400 -0.008500 1.131200
C152 C 0.521300 0.765700 0.521800
O153 O 0.941200 0.455500 0.595800
O154 O 0.919700 0.300000 0.309000
O155 O 0.080300 0.700000 0.691000
O156 O 0.058800 0.544500 0.404200
O157 O 0.210000 0.556900 0.774000
O158 O 0.210000 0.943100 0.274000
O159 O 0.058800 0.955500 -0.095800
O160 O 0.080300 0.800000 0.191000
O161 O 0.790000 0.056900 0.726000
O162 O 0.941200 0.044500 1.095800
O163 O 0.790000 0.443100 0.226000
O164 O 0.919700 0.200000 0.809000

#END
