
#######################################################################
#
#                 Cambridge Crystallographic Data Centre
#                                CCDC 
#
#######################################################################
#
# If this CIF has been generated from an entry in the Cambridge 
# Structural Database, then it will include bibliographic, chemical, 
# crystal, experimental, refinement or atomic coordinate data resulting 
# from the CCDC's data processing and validation procedures.
#
#######################################################################

data_LIBLEN
_symmetry_cell_setting           triclinic
_symmetry_space_group_name_H-M   'P -1'
_symmetry_Int_Tables_number      2
_space_group_name_Hall           '-P 1'
loop_
_symmetry_equiv_pos_site_id
_symmetry_equiv_pos_as_xyz
1 x,y,z
2 -x,-y,-z
_cell_length_a                   10.542(7)
_cell_length_b                   16.909(7)
_cell_length_c                   10.165(3)
_cell_angle_alpha                94.56(3)
_cell_angle_beta                 113.62(3)
_cell_angle_gamma                97.62(4)
_cell_volume                     1627.85
loop_
_atom_site_label
_atom_site_type_symbol
_atom_site_fract_x
_atom_site_fract_y
_atom_site_fract_z
V1 V 0.72868(4) 0.75938(2) 0.26683(4)
O1 O 0.6951(1) 0.8195(1) 0.4309(2)
N1 N 0.5453(2) 0.7022(1) 0.1267(2)
N2 N 0.8103(2) 0.8592(1) 0.2220(2)
N3 N 0.8544(2) 0.6929(1) 0.3821(2)
C1 C 0.8846(2) 0.6328(1) 0.3008(2)
C2 C 0.8509(2) 0.6384(1) 0.1532(2)
C3 C 0.8600(2) 0.5763(2) 0.0624(3)
C4 C 0.9096(2) 0.5083(1) 0.1169(3)
C5 C 0.9499(3) 0.5042(1) 0.2628(3)
C6 C 0.9375(2) 0.5646(1) 0.3536(3)
C7 C 0.9025(2) 0.6927(1) 0.5349(2)
C8 C 0.8055(3) 0.6783(2) 0.5953(3)
C9 C 0.8514(3) 0.6842(2) 0.7454(3)
C10 C 0.9925(3) 0.7026(2) 0.8356(3)
C11 C 1.0898(3) 0.7151(1) 0.7760(3)
C12 C 1.0455(2) 0.7099(1) 0.6273(3)
C13 C 0.9335(2) 0.8648(1) 0.1945(2)
C14 C 0.9377(3) 0.8951(2) 0.0720(3)
C15 C 1.0571(3) 0.8978(2) 0.0449(3)
C16 C 1.1733(3) 0.8703(2) 0.1376(4)
C17 C 1.1700(3) 0.8397(2) 0.2579(4)
C18 C 1.0511(3) 0.8373(2) 0.2870(3)
C19 C 0.7516(2) 0.9300(1) 0.2172(2)
C20 C 0.8358(3) 1.0066(1) 0.2650(3)
C21 C 0.7769(3) 1.0749(2) 0.2681(3)
C22 C 0.6329(3) 1.0685(2) 0.2237(3)
C23 C 0.5492(3) 0.9939(2) 0.1760(3)
C24 C 0.6061(2) 0.9247(2) 0.1701(3)
C25 C 0.4621(2) 0.6524(1) 0.1820(2)
C26 C 0.5077(3) 0.5851(2) 0.2431(3)
C27 C 0.4303(3) 0.5388(2) 0.3023(3)
C28 C 0.3067(3) 0.5590(2) 0.2997(3)
C29 C 0.2595(3) 0.6254(2) 0.2374(3)
C30 C 0.3361(2) 0.6717(2) 0.1777(2)
C31 C 0.5030(2) 0.6891(1) -0.0257(2)
C32 C 0.4030(2) 0.6239(2) -0.1172(3)
C33 C 0.3637(3) 0.6143(2) -0.2663(3)
C34 C 0.4243(3) 0.6691(2) -0.3280(3)
C35 C 0.5248(3) 0.7334(2) -0.2375(3)
C36 C 0.5640(2) 0.7442(1) -0.0891(3)
C37 C 0.8101(3) 0.8774(2) 0.5455(3)
C38 C 0.7468(3) 0.9096(2) 0.6430(3)
C39 C 0.5952(3) 0.9060(2) 0.5379(3)
C40 C 0.5613(2) 0.8286(2) 0.4362(3)
H1 H 0.820(3) 0.688(2) 0.115(3)
H2 H 0.827(3) 0.581(2) -0.043(3)
H3 H 0.911(2) 0.463(1) 0.052(3)
H4 H 0.986(3) 0.457(2) 0.300(3)
H5 H 0.961(3) 0.561(2) 0.452(3)
H6 H 0.711(3) 0.664(2) 0.536(3)
H7 H 0.784(3) 0.673(2) 0.781(3)
H8 H 1.021(3) 0.708(2) 0.936(3)
H9 H 1.187(3) 0.727(1) 0.837(3)
H10 H 1.113(3) 0.718(2) 0.587(3)
H11 H 0.852(3) 0.910(2) 0.005(3)
H12 H 1.057(3) 0.918(2) -0.041(3)
H13 H 1.258(3) 0.875(2) 0.121(3)
H14 H 1.251(3) 0.823(2) 0.327(3)
H15 H 1.050(3) 0.816(2) 0.368(3)
H16 H 0.937(3) 1.012(1) 0.299(3)
H17 H 0.839(3) 1.124(2) 0.304(3)
H18 H 0.589(3) 1.115(2) 0.219(3)
H19 H 0.448(3) 0.986(2) 0.141(3)
H20 H 0.544(2) 0.870(2) 0.129(2)
H21 H 0.598(3) 0.572(2) 0.249(3)
H22 H 0.463(3) 0.492(2) 0.341(3)
H23 H 0.252(3) 0.522(2) 0.334(3)
H24 H 0.172(3) 0.638(2) 0.230(3)
H25 H 0.307(2) 0.721(1) 0.135(2)
H26 H 0.361(3) 0.585(2) -0.080(3)
H27 H 0.295(3) 0.570(2) -0.324(3)
H28 H 0.397(3) 0.660(2) -0.427(3)
H29 H 0.567(3) 0.773(2) -0.275(3)
H30 H 0.633(3) 0.790(2) -0.026(3)
H31 H 0.883(3) 0.851(2) 0.593(3)
H32 H 0.841(3) 0.922(2) 0.500(3)
H33 H 0.753(3) 0.870(2) 0.722(4)
H34 H 0.794(3) 0.965(2) 0.689(3)
H35 H 0.534(3) 0.908(2) 0.577(3)
H36 H 0.585(3) 0.954(2) 0.486(3)
H37 H 0.493(3) 0.831(1) 0.337(3)
H38 H 0.534(2) 0.779(2) 0.475(3)
V1 V 0.27132(4) 0.24062(2) 0.73317(4)
O1 O 0.3049(1) 0.1805(1) 0.5691(2)
N1 N 0.4547(2) 0.2978(1) 0.8733(2)
N2 N 0.1897(2) 0.1408(1) 0.7780(2)
N3 N 0.1456(2) 0.3071(1) 0.6179(2)
C1 C 0.1154(2) 0.3672(1) 0.6992(2)
C2 C 0.1491(2) 0.3616(1) 0.8468(2)
C3 C 0.1400(2) 0.4237(2) 0.9376(3)
C4 C 0.0904(2) 0.4917(1) 0.8831(3)
C5 C 0.0501(3) 0.4958(1) 0.7372(3)
C6 C 0.0625(2) 0.4354(1) 0.6464(3)
C7 C 0.0975(2) 0.3073(1) 0.4651(2)
C8 C 0.1945(3) 0.3217(2) 0.4047(3)
C9 C 0.1486(3) 0.3158(2) 0.2546(3)
C10 C 0.0075(3) 0.2974(2) 0.1644(3)
C11 C -0.0898(3) 0.2849(1) 0.2240(3)
C12 C -0.0455(2) 0.2901(1) 0.3727(3)
C13 C 0.0665(2) 0.1352(1) 0.8055(2)
C14 C 0.0623(3) 0.1049(2) 0.9280(3)
C15 C -0.0571(3) 0.1022(2) 0.9551(3)
C16 C -0.1733(3) 0.1297(2) 0.8624(4)
C17 C -0.1700(3) 0.1603(2) 0.7421(4)
C18 C -0.0511(3) 0.1627(2) 0.7130(3)
C19 C 0.2484(2) 0.0700(1) 0.7828(2)
C20 C 0.1642(3) -0.0066(1) 0.7350(3)
C21 C 0.2231(3) -0.0749(2) 0.7319(3)
C22 C 0.3671(3) -0.0685(2) 0.7763(3)
C23 C 0.4508(3) 0.0061(2) 0.8240(3)
C24 C 0.3939(2) 0.0753(2) 0.8299(3)
C25 C 0.5379(2) 0.3476(1) 0.8180(2)
C26 C 0.4923(3) 0.4149(2) 0.7569(3)
C27 C 0.5697(3) 0.4612(2) 0.6977(3)
C28 C 0.6933(3) 0.4410(2) 0.7003(3)
C29 C 0.7405(3) 0.3746(2) 0.7626(3)
C30 C 0.6639(2) 0.3283(2) 0.8223(2)
C31 C 0.4970(2) 0.3109(1) 1.0257(2)
C32 C 0.5970(2) 0.3761(2) 1.1172(3)
C33 C 0.6363(3) 0.3857(2) 1.2663(3)
C34 C 0.5757(3) 0.3309(2) 1.3280(3)
C35 C 0.4752(3) 0.2666(2) 1.2375(3)
C36 C 0.4360(2) 0.2558(1) 1.0891(3)
C37 C 0.1899(3) 0.1226(2) 0.4545(3)
C38 C 0.2532(3) 0.0904(2) 0.3570(3)
C39 C 0.4048(3) 0.0940(2) 0.4621(3)
C40 C 0.4387(2) 0.1714(2) 0.5638(3)
H1 H 0.180(3) 0.312(2) 0.885(3)
H2 H 0.173(3) 0.419(2) 1.043(3)
H3 H 0.089(2) 0.537(1) 0.948(3)
H4 H 0.014(3) 0.543(2) 0.700(3)
H5 H 0.039(3) 0.439(2) 0.548(3)
H6 H 0.289(3) 0.336(2) 0.464(3)
H7 H 0.216(3) 0.327(2) 0.219(3)
H8 H -0.021(3) 0.292(2) 0.064(3)
H9 H -0.187(3) 0.273(1) 0.163(3)
H10 H -0.113(3) 0.282(2) 0.413(3)
H11 H 0.148(3) 0.090(2) 0.995(3)
H12 H -0.057(3) 0.082(2) 1.041(3)
H13 H -0.258(3) 0.125(2) 0.879(3)
H14 H -0.251(3) 0.177(2) 0.673(3)
H15 H -0.050(3) 0.184(2) 0.632(3)
H16 H 0.063(3) -0.012(1) 0.701(3)
H17 H 0.161(3) -0.124(2) 0.696(3)
H18 H 0.411(3) -0.115(2) 0.781(3)
H19 H 0.552(3) 0.014(2) 0.859(3)
H20 H 0.456(2) 0.130(2) 0.871(2)
H21 H 0.402(3) 0.428(2) 0.751(3)
H22 H 0.537(3) 0.508(2) 0.659(3)
H23 H 0.748(3) 0.478(2) 0.666(3)
H24 H 0.828(3) 0.362(2) 0.770(3)
H25 H 0.693(2) 0.279(1) 0.865(2)
H26 H 0.639(3) 0.415(2) 1.080(3)
H27 H 0.705(3) 0.430(2) 1.324(3)
H28 H 0.603(3) 0.340(2) 1.427(3)
H29 H 0.433(3) 0.227(2) 1.275(3)
H30 H 0.367(3) 0.210(2) 1.026(3)
H31 H 0.117(3) 0.149(2) 0.407(3)
H32 H 0.159(3) 0.078(2) 0.500(3)
H33 H 0.247(3) 0.130(2) 0.278(4)
H34 H 0.206(3) 0.035(2) 0.311(3)
H35 H 0.466(3) 0.092(2) 0.423(3)
H36 H 0.415(3) 0.046(2) 0.514(3)
H37 H 0.507(3) 0.169(1) 0.663(3)
H38 H 0.466(2) 0.221(2) 0.525(3)

#END
