./LIBMIU_from_POSCAR.cif_generated_by_CrystalShift
_symmetry_cell_setting triclinic
_symmetry_space_group_name_H-M 'P 1'
loop_
_symmetry_equiv_pos_site_id
_symmetry_equiv_pos_as_xyz
1 x,y,z
_cell_length_a 7.807600
_cell_length_b 10.386400
_cell_length_c 18.940800
_cell_angle_alpha 90.000000
_cell_angle_beta 98.284000
_cell_angle_gamma 90.000000
_cell_volume 1519.937431
loop_
_atom_site_label
_atom_site_type_symbol
_atom_site_fract_x
_atom_site_fract_y
_atom_site_fract_z
H1 H -0.161800 0.083500 -0.166100
H2 H 1.010000 0.534000 0.531900
H3 H 0.452200 0.653800 1.074500
H4 H 0.976400 0.474500 0.604700
H5 H 0.379300 0.705100 0.953900
H6 H 0.439800 0.561000 0.953100
H7 H 0.805000 0.825000 0.555200
H8 H 0.999100 0.811300 0.543800
H9 H 0.855400 0.731400 0.496600
H10 H 1.096500 0.719500 1.137800
H11 H 1.161800 0.583500 1.166100
H12 H 0.179300 0.001600 0.455500
H13 H 0.960000 0.486000 1.077100
H14 H 1.093300 0.571200 1.043300
H15 H -0.010000 0.034000 0.468100
H16 H 0.494600 0.518900 1.329900
H17 H 0.023600 -0.025500 0.395300
H18 H 0.195000 0.325000 0.444800
H19 H 0.000900 0.311300 0.456200
H20 H 0.712400 0.523200 1.275900
H21 H 0.144600 0.231400 0.503400
H22 H 0.511200 0.710600 1.193500
H23 H 0.542900 0.571000 1.167900
H24 H -0.176700 0.301100 -0.319000
H25 H -0.238900 0.236200 -0.252400
H26 H -0.098600 0.345100 -0.241900
H27 H 0.026600 -0.000500 -0.319900
H28 H 0.562900 0.562300 0.838300
H29 H -0.147900 0.009400 -0.288400
H30 H 0.525800 0.824100 0.797100
H31 H -0.125800 0.083000 -0.358700
H32 H 0.621100 0.701100 0.707300
H33 H 0.324400 -0.057200 0.012300
H34 H 0.297500 -0.062200 0.092700
H35 H 0.139300 -0.081600 0.032600
H36 H 0.416500 0.574900 0.472000
H37 H 0.486000 0.716600 0.472900
H38 H 0.286400 0.690700 0.465600
H39 H 0.714000 0.282800 0.153500
H40 H 0.776800 0.269800 0.235600
H41 H 0.891400 0.535600 1.196300
H42 H 0.738600 0.146100 0.188500
H43 H 0.893700 0.741700 1.029600
H44 H 0.687800 0.057700 0.300200
H45 H 0.499300 0.000800 0.289900
H46 H 0.651400 0.876900 1.139100
H47 H 0.850700 0.868700 1.136100
H48 H 0.782200 0.866400 1.209900
H49 H 0.573400 -0.019000 0.413200
H50 H 0.544700 0.876500 0.913400
H51 H 0.741500 0.859100 0.907300
H52 H 0.678700 0.853200 0.982200
H53 H 0.027100 0.220100 0.085600
H54 H 0.816000 0.579300 0.798700
H55 H 0.820800 0.730500 0.805400
H56 H 0.003700 0.071600 0.098700
H57 H 0.996300 0.571600 0.901300
H58 H 0.972900 0.720100 0.914400
H59 H 0.179200 0.230500 0.194600
H60 H 0.426600 0.481000 0.586800
H61 H 0.184000 0.079300 0.201300
H62 H 0.500700 0.500800 0.710100
H63 H 0.312200 0.557700 0.699800
H64 H 0.321300 0.353200 0.017800
H65 H 0.261400 0.646100 0.811500
H66 H 0.223200 0.769800 0.764400
H67 H 0.286000 0.782800 0.846500
H68 H 0.258500 0.359100 0.092700
H69 H 0.860700 0.418400 0.967400
H70 H 0.702500 0.437800 0.907300
H71 H 0.675600 0.442800 0.987700
H72 H 0.455300 0.376500 0.086600
H73 H 1.125800 0.583000 1.358700
H74 H 1.147900 0.509400 1.288400
H75 H 0.973400 0.499500 1.319900
H76 H 0.217800 0.366400 -0.209900
H77 H 1.098600 0.845100 1.241900
H78 H 1.238900 0.736200 1.252400
H79 H 1.176700 0.801100 1.319000
H80 H 0.149300 0.368700 -0.136100
H81 H 0.348600 0.376900 -0.139100
H82 H 0.547800 0.153800 -0.074500
H83 H 0.106300 0.241700 -0.029600
H84 H 0.620700 0.205100 0.046100
H85 H 0.560200 0.061000 0.046900
H86 H 0.108600 0.035600 -0.196300
H87 H 0.713600 0.190700 0.534400
H88 H 0.514000 0.216600 0.527100
H89 H -0.096500 0.219500 -0.137800
H90 H 0.583500 0.074900 0.528000
H91 H 0.378900 0.201100 0.292700
H92 H 0.040000 -0.014000 -0.077100
H93 H -0.093300 0.071200 -0.043300
H94 H 0.474200 0.324100 0.202900
H95 H 0.505400 0.018900 -0.329900
H96 H 0.437100 0.062300 0.161700
H97 H 0.457100 0.071000 -0.167900
H98 H 0.488800 0.210600 -0.193500
H99 H 0.287600 0.023200 -0.275900
H100 H 0.820700 0.501600 0.544500
C101 C 0.364000 0.098400 -0.272930
C102 C 0.278400 0.203700 -0.319760
C103 C 0.253580 0.192300 -0.157060
C104 C 0.297850 0.160200 -0.076760
C105 C 0.377640 0.186760 0.075990
C106 C 0.394700 0.151080 0.156540
C107 C 0.537430 0.654160 1.044910
C108 C 0.515200 0.235100 0.209480
C109 C 0.477370 0.647910 0.966080
C110 C 0.501300 0.197900 0.286460
C111 C 0.001130 0.073600 -0.071430
C112 C 0.607300 0.290400 0.400940
C113 C 0.591400 0.164800 0.432760
C114 C 0.601600 0.161400 0.512870
C115 C 0.931800 0.531700 0.566700
C116 C -0.061520 0.131000 -0.143610
C117 C 1.061520 0.631000 1.143610
C118 C 0.001200 0.171700 -0.269480
C119 C 0.080720 0.126920 -0.191800
C120 C 0.891400 0.766300 0.543300
C121 C 0.149950 0.153760 -0.032650
C122 C 0.522630 0.147910 0.033920
C123 C 0.212830 0.109320 0.044440
C124 C 0.241200 0.339930 -0.160880
C125 C 0.462570 0.154160 -0.044910
C126 C 0.914100 0.661900 0.595480
C127 C 1.141600 0.773000 1.270840
C128 C 0.350700 0.332540 0.067510
C129 C 1.067800 0.555200 1.313140
C130 C 0.753300 0.463350 0.954370
C131 C 0.296200 0.733300 0.804530
C132 C 0.204400 0.151300 0.170930
C133 C 0.427600 0.568900 0.687430
C134 C 0.421300 0.561400 0.608000
C135 C 0.088000 0.140000 0.097920
C136 C 0.912000 0.640000 0.902080
C137 C 0.795600 0.651300 0.829070
C138 C 0.578700 0.061400 0.392000
C139 C 0.649300 0.832540 0.932490
C140 C 0.572400 0.068900 0.312570
C141 C 0.758800 0.839930 1.160880
C142 C 0.787170 0.609320 0.955560
C143 C 0.703800 0.233300 0.195470
C144 C 0.850050 0.653760 1.032650
C145 C 0.919280 0.626920 1.191800
C146 C 0.998800 0.671700 1.269480
C147 C 0.246700 -0.036650 0.045630
C148 C 0.398400 0.661400 0.487130
C149 C 0.408600 0.664800 0.567240
C150 C 0.392700 0.790400 0.599060
C151 C -0.067800 0.055200 -0.313140
C152 C 0.498700 0.697900 0.713540
C153 C 0.484800 0.735100 0.790520
C154 C 0.605300 0.651080 0.843460
C155 C -0.141600 0.273000 -0.270840
C156 C 0.622360 0.686760 0.924010
C157 C 0.702150 0.660200 1.076760
C158 C 0.746420 0.692300 1.157060
C159 C 0.085900 0.161900 0.404520
C160 C 0.108600 0.266300 0.456700
C161 C 0.596960 0.642600 1.195570
C162 C 0.636000 0.598400 1.272930
C163 C 0.721600 0.703700 1.319760
C164 C 0.068200 0.031700 0.433300
C165 C 0.998870 0.573600 1.071430
C166 C 0.403040 0.142600 -0.195570
O167 O 0.357400 0.889600 0.566300
O168 O 0.071700 0.182100 0.343000
O169 O 0.350100 0.260200 -0.362580
O170 O 0.591600 0.300120 0.329300
O171 O 0.120820 0.241380 -0.310080
O172 O 0.879180 0.741380 1.310080
O173 O 0.408400 0.800120 0.670700
O174 O 0.649900 0.760200 1.362580
O175 O 0.522880 0.063230 -0.293780
O176 O 0.642600 0.389600 0.433700
O177 O 0.477120 0.563230 1.293780
O178 O 0.928300 0.682100 0.657000

#END
