
#######################################################################
#
#                 Cambridge Crystallographic Data Centre
#                                CCDC 
#
#######################################################################
#
# If this CIF has been generated from an entry in the Cambridge 
# Structural Database, then it will include bibliographic, chemical, 
# crystal, experimental, refinement or atomic coordinate data resulting 
# from the CCDC's data processing and validation procedures.
#
#######################################################################

data_LIBMIU
_symmetry_cell_setting           monoclinic
_symmetry_space_group_name_H-M   'P 21'
_symmetry_Int_Tables_number      4
_space_group_name_Hall           'P 2yb'
loop_
_symmetry_equiv_pos_site_id
_symmetry_equiv_pos_as_xyz
1 x,y,z
2 -x,1/2+y,-z
_cell_length_a                   7.8076(2)
_cell_length_b                   10.3864(3)
_cell_length_c                   18.9408(5)
_cell_angle_alpha                90
_cell_angle_beta                 98.2840(10)
_cell_angle_gamma                90
_cell_volume                     1519.94
loop_
_atom_site_label
_atom_site_type_symbol
_atom_site_fract_x
_atom_site_fract_y
_atom_site_fract_z
O1 O 0.6499(3) 0.7602(2) 1.36258(9)
C1 C 0.53743(17) 0.65416(17) 1.04491(8)
H1 H 0.4522 0.6538 1.0745
C2 C 0.47737(17) 0.64791(19) 0.96608(8)
H2 H 0.3793 0.7051 0.9539
H3 H 0.4398 0.5610 0.9531
O2 O 0.4084(2) 0.80012(16) 0.67070(7)
O3 O 0.87918(16) 0.74138(16) 1.31008(6)
C3 C 1.06152(18) 0.6310(2) 1.14361(9)
H4 H 1.0965 0.7195 1.1378
H5 H 1.1618 0.5835 1.1661
C4 C 0.99887(19) 0.5736(2) 1.07143(9)
H6 H 0.9600 0.4860 1.0771
H7 H 1.0933 0.5712 1.0433
O4 O 0.47712(16) 0.56323(18) 1.29378(7)
H8 H 0.4946 0.5189 1.3299
O5 O 0.3574(4) 0.8896(3) 0.56630(10)
C5 C 0.7216(2) 0.7037(2) 1.31976(9)
C6 C 0.6360(2) 0.5984(2) 1.27293(8)
H9 H 0.7124 0.5232 1.2759
C7 C 0.59696(18) 0.6426(2) 1.19557(8)
H10 H 0.5112 0.7106 1.1935
H11 H 0.5429 0.5710 1.1679
C8 C 0.74642(16) 0.69230(16) 1.15706(7)
C9 C 0.70215(16) 0.66020(14) 1.07676(7)
C10 C 0.62236(18) 0.68676(16) 0.92401(7)
C11 C 0.6053(2) 0.65108(18) 0.84346(8)
H12 H 0.5629 0.5623 0.8383
C12 C 0.4848(2) 0.7351(2) 0.79052(8)
H13 H 0.5258 0.8241 0.7971
C13 C 0.4987(3) 0.6979(2) 0.71354(9)
H14 H 0.6211 0.7011 0.7073
C14 C 0.3927(3) 0.7904(3) 0.59906(11)
C15 C 0.4086(3) 0.6648(3) 0.56724(10)
C16 C 0.3984(4) 0.6614(5) 0.48713(11)
H15 H 0.4165 0.5749 0.4720
H16 H 0.4860 0.7166 0.4729
H17 H 0.2864 0.6907 0.4656
C17 C 0.9988(2) 0.6717(2) 1.26948(9)
C18 C 0.91928(17) 0.62692(17) 1.19180(8)
H18 H 0.8914 0.5356 1.1963
C19 C 0.85005(16) 0.65376(17) 1.03265(8)
H19 H 0.8937 0.7417 1.0296
C20 C 0.78717(19) 0.60932(17) 0.95556(8)
C21 C 0.7588(2) 0.83993(19) 1.16088(9)
H20 H 0.6514 0.8769 1.1391
H21 H 0.8507 0.8687 1.1361
H22 H 0.7822 0.8664 1.2099
C22 C 0.6493(2) 0.83254(17) 0.93249(8)
H23 H 0.5447 0.8765 0.9134
H24 H 0.7415 0.8591 0.9073
H25 H 0.6787 0.8532 0.9822
C23 C 0.7956(2) 0.6513(2) 0.82907(9)
H26 H 0.8160 0.5793 0.7987
H27 H 0.8208 0.7305 0.8054
C24 C 0.9120(2) 0.6400(2) 0.90208(9)
H28 H 0.9963 0.5716 0.9013
H29 H 0.9729 0.7201 0.9144
C25 C 0.4213(4) 0.5614(3) 0.60800(12)
H30 H 0.4266 0.4810 0.5868
C26 C 0.4276(4) 0.5689(2) 0.68743(11)
H31 H 0.5007 0.5008 0.7101
H32 H 0.3122 0.5577 0.6998
C27 C 0.2962(3) 0.7333(3) 0.80453(10)
H33 H 0.2614 0.6461 0.8115
H34 H 0.2232 0.7698 0.7644
H35 H 0.2860 0.7828 0.8465
C28 C 0.7533(3) 0.46335(19) 0.95437(10)
H36 H 0.8607 0.4184 0.9674
H37 H 0.7025 0.4378 0.9073
H38 H 0.6756 0.4428 0.9877
C29 C 1.0678(2) 0.5552(3) 1.31314(11)
H39 H 1.1258 0.5830 1.3587
H40 H 1.1479 0.5094 1.2884
H41 H 0.9734 0.4995 1.3199
C30 C 1.1416(3) 0.7730(3) 1.27084(11)
H42 H 1.0986 0.8451 1.2419
H43 H 1.2389 0.7362 1.2524
H44 H 1.1767 0.8011 1.3190
O1 O 0.3501(3) 0.2602(2) -0.36258(9)
C1 C 0.46257(17) 0.15416(17) -0.04491(8)
H1 H 0.5478 0.1538 -0.0745
C2 C 0.52263(17) 0.14791(19) 0.03392(8)
H2 H 0.6207 0.2051 0.0461
H3 H 0.5602 0.0610 0.0469
O2 O 0.5916(2) 0.30012(16) 0.32930(7)
O3 O 0.12082(16) 0.24138(16) -0.31008(6)
C3 C -0.06152(18) 0.1310(2) -0.14361(9)
H4 H -0.0965 0.2195 -0.1378
H5 H -0.1618 0.0835 -0.1661
C4 C 0.00113(19) 0.0736(2) -0.07143(9)
H6 H 0.0400 -0.0140 -0.0771
H7 H -0.0933 0.0712 -0.0433
O4 O 0.52288(16) 0.06323(18) -0.29378(7)
H8 H 0.5054 0.0189 -0.3299
O5 O 0.6426(4) 0.3896(3) 0.43370(10)
C5 C 0.2784(2) 0.2037(2) -0.31976(9)
C6 C 0.3640(2) 0.0984(2) -0.27293(8)
H9 H 0.2876 0.0232 -0.2759
C7 C 0.40304(18) 0.1426(2) -0.19557(8)
H10 H 0.4888 0.2106 -0.1935
H11 H 0.4571 0.0710 -0.1679
C8 C 0.25358(16) 0.19230(16) -0.15706(7)
C9 C 0.29785(16) 0.16020(14) -0.07676(7)
C10 C 0.37764(18) 0.18676(16) 0.07599(7)
C11 C 0.3947(2) 0.15108(18) 0.15654(8)
H12 H 0.4371 0.0623 0.1617
C12 C 0.5152(2) 0.2351(2) 0.20948(8)
H13 H 0.4742 0.3241 0.2029
C13 C 0.5013(3) 0.1979(2) 0.28646(9)
H14 H 0.3789 0.2011 0.2927
C14 C 0.6073(3) 0.2904(3) 0.40094(11)
C15 C 0.5914(3) 0.1648(3) 0.43276(10)
C16 C 0.6016(4) 0.1614(5) 0.51287(11)
H15 H 0.5835 0.0749 0.5280
H16 H 0.5140 0.2166 0.5271
H17 H 0.7136 0.1907 0.5344
C17 C 0.0012(2) 0.1717(2) -0.26948(9)
C18 C 0.08072(17) 0.12692(17) -0.19180(8)
H18 H 0.1086 0.0356 -0.1963
C19 C 0.14995(16) 0.15376(17) -0.03265(8)
H19 H 0.1063 0.2417 -0.0296
C20 C 0.21283(19) 0.10932(17) 0.04444(8)
C21 C 0.2412(2) 0.33993(19) -0.16088(9)
H20 H 0.3486 0.3769 -0.1391
H21 H 0.1493 0.3687 -0.1361
H22 H 0.2178 0.3664 -0.2099
C22 C 0.3507(2) 0.33254(17) 0.06751(8)
H23 H 0.4553 0.3765 0.0866
H24 H 0.2585 0.3591 0.0927
H25 H 0.3213 0.3532 0.0178
C23 C 0.2044(2) 0.1513(2) 0.17093(9)
H26 H 0.1840 0.0793 0.2013
H27 H 0.1792 0.2305 0.1946
C24 C 0.0880(2) 0.1400(2) 0.09792(9)
H28 H 0.0037 0.0716 0.0987
H29 H 0.0271 0.2201 0.0856
C25 C 0.5787(4) 0.0614(3) 0.39200(12)
H30 H 0.5734 -0.0190 0.4132
C26 C 0.5724(4) 0.0689(2) 0.31257(11)
H31 H 0.4993 0.0008 0.2899
H32 H 0.6878 0.0577 0.3002
C27 C 0.7038(3) 0.2333(3) 0.19547(10)
H33 H 0.7386 0.1461 0.1885
H34 H 0.7768 0.2698 0.2356
H35 H 0.7140 0.2828 0.1535
C28 C 0.2467(3) -0.03665(19) 0.04563(10)
H36 H 0.1393 -0.0816 0.0326
H37 H 0.2975 -0.0622 0.0927
H38 H 0.3244 -0.0572 0.0123
C29 C -0.0678(2) 0.0552(3) -0.31314(11)
H39 H -0.1258 0.0830 -0.3587
H40 H -0.1479 0.0094 -0.2884
H41 H 0.0266 -0.0005 -0.3199
C30 C -0.1416(3) 0.2730(3) -0.27084(11)
H42 H -0.0986 0.3451 -0.2419
H43 H -0.2389 0.2362 -0.2524
H44 H -0.1767 0.3011 -0.3190
C31 C 0.0859(5) 0.1619(6) 0.40452(18)
C32 C 0.1086(9) 0.2663(10) 0.4567(4)
H45 H 0.1446 0.2314 0.5034
H46 H 0.0009 0.3113 0.4562
H47 H 0.1950 0.3250 0.4448
C33 C 0.0682(9) 0.0317(8) 0.4333(4)
H48 H 0.0236 -0.0255 0.3953
H49 H -0.0100 0.0340 0.4681
H50 H 0.1793 0.0016 0.4555
O6 O 0.0717(6) 0.1821(8) 0.34300(19)
C31 C 0.9141(5) 0.6619(6) 0.59548(18)
C32 C 0.8914(9) 0.7663(10) 0.5433(4)
H45 H 0.8554 0.7314 0.4966
H46 H 0.9991 0.8113 0.5438
H47 H 0.8050 0.8250 0.5552
C33 C 0.9318(9) 0.5317(8) 0.5667(4)
H48 H 0.9764 0.4745 0.6047
H49 H 1.0100 0.5340 0.5319
H50 H 0.8207 0.5016 0.5445
O6 O 0.9283(6) 0.6821(8) 0.65700(19)

#END
