
#######################################################################
#
#                 Cambridge Crystallographic Data Centre
#                                CCDC 
#
#######################################################################
#
# If this CIF has been generated from an entry in the Cambridge 
# Structural Database, then it will include bibliographic, chemical, 
# crystal, experimental, refinement or atomic coordinate data resulting 
# from the CCDC's data processing and validation procedures.
#
#######################################################################

data_LIBNUH
_symmetry_cell_setting           monoclinic
_symmetry_space_group_name_H-M   'P 21/c'
_symmetry_Int_Tables_number      14
_space_group_name_Hall           '-P 2ybc'
loop_
_symmetry_equiv_pos_site_id
_symmetry_equiv_pos_as_xyz
1 x,y,z
2 -x,1/2+y,1/2-z
3 -x,-y,-z
4 x,1/2-y,1/2+z
_cell_length_a                   11.4842(3)
_cell_length_b                   9.7771(3)
_cell_length_c                   13.1498(4)
_cell_angle_alpha                90
_cell_angle_beta                 99.988(2)
_cell_angle_gamma                90
_cell_volume                     1454.11
loop_
_atom_site_label
_atom_site_type_symbol
_atom_site_fract_x
_atom_site_fract_y
_atom_site_fract_z
N1 N 1.1384(3) 0.7323(4) 0.3521(3)
O1 O 0.6482(2) 0.4381(3) 0.3354(2)
O2 O 0.5386(3) 0.0760(3) 0.2625(3)
O3 O 0.9206(3) 0.7911(3) 0.3231(3)
N2 N 0.7206(3) 0.1983(4) 0.3843(3)
C1 C 0.5843(4) 0.0085(5) 0.3505(3)
C2 C 0.9677(3) 0.4278(4) 0.3713(3)
C3 C 0.5382(3) -0.1138(5) 0.3803(3)
C4 C 1.2167(4) 0.5088(6) 0.3774(4)
C5 C 0.7277(4) 0.0063(5) 0.5071(4)
C6 C 0.8311(4) 0.2382(4) 0.3858(3)
C7 C 0.9316(4) 0.1362(5) 0.4077(3)
C8 C 0.6814(4) 0.0679(4) 0.4143(3)
C9 C 0.5851(4) -0.1768(5) 0.4713(3)
C10 C 0.8523(3) 0.3801(4) 0.3666(3)
C11 C 0.7557(4) 0.4776(5) 0.3432(3)
C12 C 0.5332(4) -0.3076(5) 0.5038(4)
C13 C 0.9951(4) 0.5634(5) 0.3574(3)
C14 C 1.1169(4) 0.6121(6) 0.3618(3)
C15 C 0.8980(4) 0.6584(5) 0.3359(3)
C16 C 0.6815(4) -0.1152(5) 0.5361(3)
C17 C 0.7849(4) 0.6166(5) 0.3312(3)
H1 H 1.032539 0.364777 0.385948
H2 H 0.472639 -0.156329 0.336502
H3 H 1.184941 0.418918 0.383720
H4 H 1.272000 0.530233 0.438815
H5 H 1.256166 0.511411 0.318811
H6 H 0.792928 0.048170 0.551832
H7 H 1.005118 0.181977 0.405917
H8 H 0.920296 0.065036 0.356588
H9 H 0.933009 0.096989 0.474826
H10 H 0.716025 -0.158251 0.599871
H11 H 0.723157 0.683792 0.318487
H12 H 1.155616 0.827496 0.344598
H13 H 0.936140 0.886359 0.313850
H14 H 0.506161 0.123722 0.200277
H15 H 0.576820 -0.336659 0.569252
H16 H 0.537303 -0.377191 0.453042
H17 H 0.452151 -0.292398 0.509958
H18 H 0.567520 0.408668 0.329516
N1 N -0.1384(3) 1.2323(4) 0.1479(3)
O1 O 0.3518(2) 0.9381(3) 0.1646(2)
O2 O 0.4614(3) 0.5760(3) 0.2375(3)
O3 O 0.0794(3) 1.2911(3) 0.1769(3)
N2 N 0.2794(3) 0.6983(4) 0.1157(3)
C1 C 0.4157(4) 0.5085(5) 0.1495(3)
C2 C 0.0323(3) 0.9278(4) 0.1287(3)
C3 C 0.4618(3) 0.3862(5) 0.1197(3)
C4 C -0.2167(4) 1.0088(6) 0.1226(4)
C5 C 0.2723(4) 0.5063(5) -0.0071(4)
C6 C 0.1689(4) 0.7382(4) 0.1142(3)
C7 C 0.0684(4) 0.6362(5) 0.0923(3)
C8 C 0.3186(4) 0.5679(4) 0.0857(3)
C9 C 0.4149(4) 0.3232(5) 0.0287(3)
C10 C 0.1477(3) 0.8801(4) 0.1334(3)
C11 C 0.2443(4) 0.9776(5) 0.1568(3)
C12 C 0.4668(4) 0.1924(5) -0.0038(4)
C13 C 0.0049(4) 1.0634(5) 0.1426(3)
C14 C -0.1169(4) 1.1121(6) 0.1382(3)
C15 C 0.1020(4) 1.1584(5) 0.1641(3)
C16 C 0.3185(4) 0.3848(5) -0.0361(3)
C17 C 0.2151(4) 1.1166(5) 0.1688(3)
H1 H -0.032539 0.864777 0.114052
H2 H 0.527361 0.343671 0.163498
H3 H -0.184941 0.918918 0.116280
H4 H -0.272000 1.030233 0.061185
H5 H -0.256166 1.011411 0.181189
H6 H 0.207072 0.548170 -0.051832
H7 H -0.005118 0.681977 0.094083
H8 H 0.079704 0.565036 0.143412
H9 H 0.066991 0.596989 0.025174
H10 H 0.283975 0.341749 -0.099871
H11 H 0.276843 1.183792 0.181513
H12 H -0.155616 1.327496 0.155402
H13 H 0.063860 1.386359 0.186150
H14 H 0.493839 0.623722 0.299723
H15 H 0.423180 0.163341 -0.069252
H16 H 0.462697 0.122809 0.046958
H17 H 0.547849 0.207602 -0.009958
H18 H 0.432480 0.908668 0.170484
N1 N -0.1384(3) 0.2677(4) 0.6479(3)
O1 O 0.3518(2) 0.5619(3) 0.6646(2)
O2 O 0.4614(3) 0.9240(3) 0.7375(3)
O3 O 0.0794(3) 0.2089(3) 0.6769(3)
N2 N 0.2794(3) 0.8017(4) 0.6157(3)
C1 C 0.4157(4) 0.9915(5) 0.6495(3)
C2 C 0.0323(3) 0.5722(4) 0.6287(3)
C3 C 0.4618(3) 1.1138(5) 0.6197(3)
C4 C -0.2167(4) 0.4912(6) 0.6226(4)
C5 C 0.2723(4) 0.9937(5) 0.4929(4)
C6 C 0.1689(4) 0.7618(4) 0.6142(3)
C7 C 0.0684(4) 0.8638(5) 0.5923(3)
C8 C 0.3186(4) 0.9321(4) 0.5857(3)
C9 C 0.4149(4) 1.1768(5) 0.5287(3)
C10 C 0.1477(3) 0.6199(4) 0.6334(3)
C11 C 0.2443(4) 0.5224(5) 0.6568(3)
C12 C 0.4668(4) 1.3076(5) 0.4962(4)
C13 C 0.0049(4) 0.4366(5) 0.6426(3)
C14 C -0.1169(4) 0.3879(6) 0.6382(3)
C15 C 0.1020(4) 0.3416(5) 0.6641(3)
C16 C 0.3185(4) 1.1152(5) 0.4639(3)
C17 C 0.2151(4) 0.3834(5) 0.6688(3)
H1 H -0.032539 0.635223 0.614052
H2 H 0.527361 1.156329 0.663498
H3 H -0.184941 0.581082 0.616280
H4 H -0.272000 0.469767 0.561185
H5 H -0.256166 0.488589 0.681189
H6 H 0.207072 0.951830 0.448168
H7 H -0.005118 0.818023 0.594083
H8 H 0.079704 0.934964 0.643412
H9 H 0.066991 0.903011 0.525174
H10 H 0.283975 1.158251 0.400129
H11 H 0.276843 0.316208 0.681513
H12 H -0.155616 0.172504 0.655402
H13 H 0.063860 0.113641 0.686150
H14 H 0.493839 0.876278 0.799723
H15 H 0.423180 1.336659 0.430748
H16 H 0.462697 1.377191 0.546958
H17 H 0.547849 1.292398 0.490042
H18 H 0.432480 0.591332 0.670484
N1 N 1.1384(3) -0.2323(4) 0.8521(3)
O1 O 0.6482(2) 0.0619(3) 0.8354(2)
O2 O 0.5386(3) 0.4240(3) 0.7625(3)
O3 O 0.9206(3) -0.2911(3) 0.8231(3)
N2 N 0.7206(3) 0.3017(4) 0.8843(3)
C1 C 0.5843(4) 0.4915(5) 0.8505(3)
C2 C 0.9677(3) 0.0722(4) 0.8713(3)
C3 C 0.5382(3) 0.6138(5) 0.8803(3)
C4 C 1.2167(4) -0.0088(6) 0.8774(4)
C5 C 0.7277(4) 0.4937(5) 1.0071(4)
C6 C 0.8311(4) 0.2618(4) 0.8858(3)
C7 C 0.9316(4) 0.3638(5) 0.9077(3)
C8 C 0.6814(4) 0.4321(4) 0.9143(3)
C9 C 0.5851(4) 0.6768(5) 0.9713(3)
C10 C 0.8523(3) 0.1199(4) 0.8666(3)
C11 C 0.7557(4) 0.0224(5) 0.8432(3)
C12 C 0.5332(4) 0.8076(5) 1.0038(4)
C13 C 0.9951(4) -0.0634(5) 0.8574(3)
C14 C 1.1169(4) -0.1121(6) 0.8618(3)
C15 C 0.8980(4) -0.1584(5) 0.8359(3)
C16 C 0.6815(4) 0.6152(5) 1.0361(3)
C17 C 0.7849(4) -0.1166(5) 0.8312(3)
H1 H 1.032539 0.135223 0.885948
H2 H 0.472639 0.656329 0.836502
H3 H 1.184941 0.081082 0.883720
H4 H 1.272000 -0.030233 0.938815
H5 H 1.256166 -0.011411 0.818811
H6 H 0.792928 0.451830 1.051832
H7 H 1.005118 0.318023 0.905917
H8 H 0.920296 0.434964 0.856588
H9 H 0.933009 0.403011 0.974826
H10 H 0.716025 0.658251 1.099871
H11 H 0.723157 -0.183792 0.818487
H12 H 1.155616 -0.327496 0.844598
H13 H 0.936140 -0.386359 0.813850
H14 H 0.506161 0.376278 0.700277
H15 H 0.576820 0.836659 1.069252
H16 H 0.537303 0.877191 0.953042
H17 H 0.452151 0.792398 1.009958
H18 H 0.567520 0.091332 0.829516

#END
