./LIBNUH_from_POSCAR.cif_generated_by_CrystalShift
_symmetry_cell_setting triclinic
_symmetry_space_group_name_H-M 'P 1'
loop_
_symmetry_equiv_pos_site_id
_symmetry_equiv_pos_as_xyz
1 x,y,z
_cell_length_a 11.484200
_cell_length_b 9.777100
_cell_length_c 13.149800
_cell_angle_alpha 90.000000
_cell_angle_beta 99.988000
_cell_angle_gamma 90.000000
_cell_volume 1454.110597
loop_
_atom_site_label
_atom_site_type_symbol
_atom_site_fract_x
_atom_site_fract_y
_atom_site_fract_z
H1 H 0.567520 0.091332 0.829516
H2 H 0.452151 0.792398 1.009958
H3 H 0.537303 0.877191 0.953042
H4 H 0.576820 0.836659 1.069252
H5 H 1.272000 -0.030233 0.938815
H6 H 1.184941 0.081082 0.883720
H7 H 0.472639 0.656329 0.836502
H8 H 1.032539 0.135223 0.885948
H9 H 0.792928 0.451830 1.051832
H10 H 1.005118 0.318023 0.905917
H11 H 0.920296 0.434964 0.856588
H12 H 0.432480 0.591332 0.670484
H13 H 0.547849 1.292398 0.490042
H14 H 0.462697 1.377191 0.546958
H15 H 0.423180 1.336659 0.430748
H16 H 0.493839 0.876278 0.799723
H17 H 0.063860 0.113641 0.686150
H18 H -0.155616 0.172504 0.655402
H19 H 0.276843 0.316208 0.681513
H20 H 0.283975 1.158251 0.400129
H21 H 0.066991 0.903011 0.525174
H22 H 0.079704 0.934964 0.643412
H23 H 1.032539 0.364777 0.385948
H24 H 0.472639 -0.156329 0.336502
H25 H 1.184941 0.418918 0.383720
H26 H 1.272000 0.530233 0.438815
H27 H 1.256166 0.511411 0.318811
H28 H 0.792928 0.048170 0.551832
H29 H 1.005118 0.181977 0.405917
H30 H 0.920296 0.065036 0.356588
H31 H 0.933009 0.096989 0.474826
H32 H 0.716025 -0.158251 0.599871
H33 H 0.723157 0.683792 0.318487
H34 H 1.155616 0.827496 0.344598
H35 H 0.936140 0.886359 0.313850
H36 H 0.506161 0.123722 0.200277
H37 H 0.576820 -0.336659 0.569252
H38 H 0.537303 -0.377191 0.453042
H39 H 0.452151 -0.292398 0.509958
H40 H 0.567520 0.408668 0.329516
H41 H -0.005118 0.818023 0.594083
H42 H 0.506161 0.376278 0.700277
H43 H 0.936140 -0.386359 0.813850
H44 H 1.155616 -0.327496 0.844598
H45 H 0.207072 0.951830 0.448168
H46 H -0.256166 0.488589 0.681189
H47 H -0.272000 0.469767 0.561185
H48 H -0.184941 0.581082 0.616280
H49 H 0.527361 1.156329 0.663498
H50 H -0.032539 0.635223 0.614052
H51 H 0.933009 0.403011 0.974826
H52 H 0.716025 0.658251 1.099871
H53 H 0.723157 -0.183792 0.818487
H54 H 0.432480 0.908668 0.170484
H55 H 0.547849 0.207602 -0.009958
H56 H 0.462697 0.122809 0.046958
H57 H 0.423180 0.163341 -0.069252
H58 H 0.493839 0.623722 0.299723
H59 H 0.063860 1.386359 0.186150
H60 H -0.155616 1.327496 0.155402
H61 H 0.276843 1.183792 0.181513
H62 H 0.283975 0.341749 -0.099871
H63 H -0.032539 0.864777 0.114052
H64 H 0.527361 0.343671 0.163498
H65 H -0.184941 0.918918 0.116280
H66 H -0.272000 1.030233 0.061185
H67 H -0.256166 1.011411 0.181189
H68 H 0.207072 0.548170 -0.051832
H69 H -0.005118 0.681977 0.094083
H70 H 0.079704 0.565036 0.143412
H71 H 0.066991 0.596989 0.025174
H72 H 1.256166 -0.011411 0.818811
C73 C 0.318500 0.384800 -0.036100
C74 C 0.102000 1.158400 0.164100
C75 C -0.116900 1.112100 0.138200
C76 C 0.004900 1.063400 0.142600
C77 C 0.466800 0.192400 -0.003800
C78 C 0.244300 0.977600 0.156800
C79 C 0.147700 0.880100 0.133400
C80 C 0.414900 0.323200 0.028700
C81 C 0.584300 0.008500 0.350500
C82 C 0.318600 0.567900 0.085700
C83 C 0.068400 0.636200 0.092300
C84 C 0.168900 0.738200 0.114200
C85 C 0.967700 0.427800 0.371300
C86 C 0.415700 0.991500 0.649500
C87 C 0.032300 0.572200 0.628700
C88 C 0.461800 1.113800 0.619700
C89 C -0.216700 0.491200 0.622600
C90 C 0.272300 0.993700 0.492900
C91 C 0.168900 0.761800 0.614200
C92 C 0.068400 0.863800 0.592300
C93 C 0.318600 0.932100 0.585700
C94 C 0.414900 1.176800 0.528700
C95 C 0.147700 0.619900 0.633400
C96 C 0.244300 0.522400 0.656800
C97 C 0.466800 1.307600 0.496200
C98 C 0.004900 0.436600 0.642600
C99 C -0.116900 0.387900 0.638200
C100 C 0.102000 0.341600 0.664100
C101 C 0.318500 1.115200 0.463900
C102 C 0.215100 0.383400 0.668800
C103 C 0.272300 0.506300 -0.007100
C104 C -0.216700 1.008800 0.122600
C105 C 0.461800 0.386200 0.119700
C106 C 0.032300 0.927800 0.128700
C107 C 0.415700 0.508500 0.149500
C108 C 0.538200 -0.113800 0.380300
C109 C 0.784900 -0.116600 0.831200
C110 C 0.784900 0.616600 0.331200
C111 C 0.681500 -0.115200 0.536100
C112 C 0.898000 0.658400 0.335900
C113 C 1.116900 0.612100 0.361800
C114 C 0.995100 0.563400 0.357400
C115 C 0.533200 -0.307600 0.503800
C116 C 0.755700 0.477600 0.343200
C117 C 0.852300 0.380100 0.366600
C118 C 0.585100 -0.176800 0.471300
C119 C 0.681400 0.067900 0.414300
C120 C 0.931600 0.136200 0.407700
C121 C 0.681500 0.615200 1.036100
C122 C 0.831100 0.238200 0.385800
C123 C 0.727700 0.006300 0.507100
C124 C 1.216700 0.508800 0.377400
C125 C 0.898000 -0.158400 0.835900
C126 C 0.584300 0.491500 0.850500
C127 C 0.967700 0.072200 0.871300
C128 C 0.538200 0.613800 0.880300
C129 C 1.216700 -0.008800 0.877400
C130 C 0.727700 0.493700 1.007100
C131 C 0.831100 0.261800 0.885800
C132 C 0.931600 0.363800 0.907700
C133 C 0.681400 0.432100 0.914300
C134 C 0.585100 0.676800 0.971300
C135 C 0.852300 0.119900 0.866600
C136 C 0.755700 0.022400 0.843200
C137 C 0.533200 0.807600 1.003800
C138 C 0.995100 -0.063400 0.857400
C139 C 1.116900 -0.112100 0.861800
C140 C 0.215100 1.116600 0.168800
N141 N -0.138400 1.232300 0.147900
N142 N 0.279400 0.698300 0.115700
N143 N 0.279400 0.801700 0.615700
N144 N -0.138400 0.267700 0.647900
N145 N 0.720600 0.198300 0.384300
N146 N 1.138400 -0.232300 0.852100
N147 N 0.720600 0.301700 0.884300
N148 N 1.138400 0.732300 0.352100
O149 O 0.538600 0.424000 0.762500
O150 O 0.648200 0.061900 0.835400
O151 O 0.079400 0.208900 0.676900
O152 O 0.461400 0.924000 0.737500
O153 O 0.351800 0.561900 0.664600
O154 O 0.079400 1.291100 0.176900
O155 O 0.461400 0.576000 0.237500
O156 O 0.351800 0.938100 0.164600
O157 O 0.920600 0.791100 0.323100
O158 O 0.538600 0.076000 0.262500
O159 O 0.648200 0.438100 0.335400
O160 O 0.920600 -0.291100 0.823100

#END
