./LIBPAP_from_POSCAR.cif_generated_by_CrystalShift
_symmetry_cell_setting triclinic
_symmetry_space_group_name_H-M 'P 1'
loop_
_symmetry_equiv_pos_site_id
_symmetry_equiv_pos_as_xyz
1 x,y,z
_cell_length_a 7.458400
_cell_length_b 8.513900
_cell_length_c 15.616300
_cell_angle_alpha 85.088000
_cell_angle_beta 79.510000
_cell_angle_gamma 75.998000
_cell_volume 945.192233
loop_
_atom_site_label
_atom_site_type_symbol
_atom_site_fract_x
_atom_site_fract_y
_atom_site_fract_z
H1 H 1.125000 0.789400 0.581200
H2 H 1.368500 0.895000 0.499400
H3 H 1.160500 0.875600 0.282100
H4 H 0.926100 0.764700 0.363900
H5 H 0.759300 0.685200 0.495200
H6 H 0.902100 0.665500 0.645200
H7 H 0.513600 0.417600 0.842700
H8 H 0.650100 0.779000 0.134800
H9 H 0.790500 0.621400 0.097100
H10 H 0.746000 0.538700 0.771500
H11 H 0.521600 0.594700 0.555300
H12 H 1.107000 0.631000 0.038900
H13 H 0.286400 0.478200 0.626100
H14 H 0.214200 0.010300 0.813000
H15 H 1.290500 1.034700 0.057700
H16 H -0.290500 -0.034700 0.942300
H17 H -0.107000 0.369000 0.961100
H18 H 0.785800 0.989700 0.187000
H19 H 0.209500 0.378600 0.902900
H20 H 0.349900 0.221000 0.865200
H21 H 0.713600 0.521800 0.373900
H22 H -0.125000 0.210600 0.418800
H23 H 0.478400 0.405300 0.444700
H24 H -0.368500 0.105000 0.500600
H25 H -0.160500 0.124400 0.717900
H26 H 0.254000 0.461300 0.228500
H27 H 0.073900 0.235300 0.636100
H28 H 0.486400 0.582400 0.157300
H29 H 0.240700 0.314800 0.504800
H30 H 0.097900 0.334500 0.354800
C31 C 0.153000 0.302500 0.472000
C32 C 0.183100 0.348600 0.388600
C33 C -0.001300 0.234400 0.519000
C34 C -0.014300 0.208200 0.608500
C35 C 0.484900 0.546400 0.215300
C36 C -0.154500 0.143100 0.658000
C37 C 0.345800 0.473900 0.258700
C38 C -0.284400 0.107000 0.615800
C39 C -0.278500 0.130700 0.527500
C40 C 0.336500 0.419400 0.344300
C41 C -0.132700 0.194800 0.478900
C42 C 0.479200 0.440200 0.386600
C43 C 1.278500 0.869300 0.472500
C44 C 1.284400 0.893000 0.384200
C45 C 1.154500 0.856900 0.342000
C46 C 1.014300 0.791800 0.391500
C47 C 1.001300 0.765600 0.481000
C48 C 0.847000 0.697500 0.528000
C49 C 0.229900 0.294900 0.861400
C50 C 0.619700 0.510600 0.344600
C51 C 0.621800 0.564200 0.259900
C52 C 0.075600 0.205000 0.881900
C53 C -0.088600 0.268100 0.938100
C54 C 0.897500 0.945300 0.151200
C55 C -0.225200 0.179300 0.959500
C56 C -0.201200 0.026700 0.926700
C57 C 1.034700 1.028300 0.131200
C58 C -0.034700 -0.028300 0.868800
C59 C 0.102500 0.054700 0.848800
C60 C 1.201200 0.973300 0.073300
C61 C 0.378200 0.435800 0.740100
C62 C 0.380300 0.489400 0.655400
C63 C 1.225200 0.820700 0.040500
C64 C 0.520800 0.559800 0.613400
C65 C 1.088600 0.731900 0.061900
C66 C 0.663500 0.580600 0.655700
C67 C 0.654200 0.526100 0.741300
C68 C 0.924400 0.795000 0.118100
C69 C 0.515100 0.453600 0.784700
C70 C 0.770100 0.705100 0.138600
C71 C 0.816900 0.651400 0.611400
C72 C 1.132700 0.805200 0.521100
N73 N -0.437900 0.040800 0.668400
N74 N 1.437900 0.959200 0.331600
O75 O 1.563300 0.976300 0.368400
O76 O 0.229200 0.364900 0.776400
O77 O 0.770800 0.635100 0.223600
O78 O -0.563300 0.023700 0.631600
O79 O 1.431300 0.993900 0.255400
O80 O -0.431300 0.006100 0.744600
Br81 Br 0.996380 1.238100 0.174400
Br82 Br -0.444700 0.259280 1.038660
Br83 Br 0.003620 -0.238100 0.825600
Br84 Br 1.444700 0.740720 -0.038660

#END
