
#######################################################################
#
#                 Cambridge Crystallographic Data Centre
#                                CCDC 
#
#######################################################################
#
# If this CIF has been generated from an entry in the Cambridge 
# Structural Database, then it will include bibliographic, chemical, 
# crystal, experimental, refinement or atomic coordinate data resulting 
# from the CCDC's data processing and validation procedures.
#
#######################################################################

data_LIBSOG
_symmetry_cell_setting           triclinic
_symmetry_space_group_name_H-M   'P 1'
_symmetry_Int_Tables_number      1
_space_group_name_Hall           'P 1'
loop_
_symmetry_equiv_pos_site_id
_symmetry_equiv_pos_as_xyz
1 x,y,z
_cell_length_a                   9.922(3)
_cell_length_b                   11.229(4)
_cell_length_c                   26.423(9)
_cell_angle_alpha                87.146(6)
_cell_angle_beta                 89.440(6)
_cell_angle_gamma                73.282(7)
_cell_volume                     2815.93
loop_
_atom_site_label
_atom_site_type_symbol
_atom_site_fract_x
_atom_site_fract_y
_atom_site_fract_z
C1 C 0.616(2) 1.213(3) 0.5503(9)
C2 C 0.458(3) 1.265(2) 0.5517(11)
H1 H 0.4155 1.2119 0.5345
H2 H 0.4311 1.3469 0.5351
H3 H 0.4271 1.2709 0.5862
C3 C 0.658(4) 1.198(3) 0.4879(10)
H4 H 0.5995 1.1552 0.4722
H5 H 0.7548 1.1514 0.4848
H6 H 0.6425 1.2791 0.4716
C4 C 0.696(3) 1.277(3) 0.5735(8)
H7 H 0.7941 1.2318 0.5711
H8 H 0.6706 1.2853 0.6086
H9 H 0.6801 1.3579 0.5571
O1 O 0.6538(13) 1.0777(18) 0.5670(4)
C5 C 0.592(2) 0.989(4) 0.5533(8)
O2 O 0.4828(15) 1.0144(13) 0.5265(6)
N1 N 0.6496(15) 0.866(2) 0.5722(5)
H10 H 0.7238 0.8547 0.5905
C6 C 0.6086(19) 0.761(3) 0.5667(6)
H11 H 0.5301 0.7829 0.5425
C7 C 0.5456(19) 0.7327(14) 0.6214(6)
O3 O 0.4270(11) 0.7188(11) 0.6234(4)
C8 C 0.707(2) 0.647(2) 0.5507(7)
H12 H 0.6650 0.5789 0.5543
H13 H 0.7914 0.6258 0.5716
C9 C 0.746(3) 0.667(4) 0.4930(9)
H14 H 0.7723 0.7425 0.4821
C10 C 0.615(5) 0.632(5) 0.4632(12)
H15 H 0.5313 0.7002 0.4642
H16 H 0.5987 0.5591 0.4798
H17 H 0.6412 0.6150 0.4286
C11 C 0.854(3) 0.532(3) 0.4838(11)
H18 H 0.9459 0.5291 0.4956
H19 H 0.8572 0.5172 0.4483
H20 H 0.8218 0.4693 0.5021
N2 N 0.6313(12) 0.7140(12) 0.6607(5)
H21 H 0.7135 0.7232 0.6556
C12 C 0.5995(15) 0.6806(17) 0.7097(6)
H22 H 0.4981 0.6906 0.7092
C13 C 0.617(2) 0.7798(17) 0.7438(6)
O4 O 0.7412(13) 0.7845(10) 0.7495(3)
C14 C 0.669(2) 0.5417(18) 0.7292(7)
H23 H 0.7706 0.5275 0.7320
C15 C 0.611(2) 0.5226(19) 0.7813(7)
H24 H 0.6354 0.5773 0.8042
H25 H 0.6516 0.4378 0.7935
H26 H 0.5109 0.5405 0.7795
C16 C 0.6414(18) 0.4562(15) 0.6914(8)
H27 H 0.6843 0.4693 0.6597
H28 H 0.5417 0.4729 0.6866
H29 H 0.6806 0.3714 0.7037
N3 N 0.5012(13) 0.8582(14) 0.7644(5)
H30 H 0.4204 0.8454 0.7613
C17 C 0.5136(16) 0.9618(19) 0.7912(6)
H31 H 0.6120 0.9624 0.7931
C18 C 0.456(2) 0.9388(16) 0.8452(6)
O5 O 0.3300(11) 0.9634(10) 0.8529(4)
C19 C 0.4196(17) 1.0865(17) 0.7674(6)
H32 H 0.3210 1.0863 0.7695
C20 C 0.437(2) 1.1883(17) 0.7944(9)
H33 H 0.3747 1.2647 0.7803
H34 H 0.5322 1.1909 0.7916
H35 H 0.4141 1.1778 0.8294
C21 C 0.4594(19) 1.1002(16) 0.7099(6)
H36 H 0.4446 1.0326 0.6920
H37 H 0.5565 1.0985 0.7074
H38 H 0.4014 1.1777 0.6953
N4 N 0.5391(15) 0.8937(15) 0.8880(7)
C22 C 0.4968(19) 0.8478(19) 0.9313(7)
H39 H 0.4332 0.9132 0.9506
C23 C 0.4265(18) 0.751(2) 0.9161(6)
O6 O 0.4816(12) 0.6658(13) 0.8901(5)
C24 C 0.636(2) 0.790(2) 0.9589(9)
H40 H 0.6273 0.8182 0.9932
H41 H 0.6535 0.7001 0.9612
C25 C 0.746(3) 0.816(3) 0.9371(8)
H42 H 0.8284 0.7441 0.9402
H43 H 0.7667 0.8842 0.9537
C26 C 0.7106(15) 0.853(2) 0.8799(7)
H44 H 0.7435 0.7838 0.8581
H45 H 0.7444 0.9224 0.8676
N5 N 0.2946(15) 0.7672(15) 0.9388(5)
C27 C 0.214(2) 0.676(2) 0.9282(7)
H46 H 0.2811 0.5936 0.9245
C28 C 0.1230(17) 0.713(2) 0.8790(6)
O7 O 0.0475(16) 0.6455(15) 0.8707(5)
C29 C 0.143(3) 0.677(2) 0.9768(8)
H47 H 0.0667 0.6393 0.9743
H48 H 0.2088 0.6294 1.0025
C30 C 0.0922(19) 0.799(3) 0.9892(8)
H49 H 0.0649 0.8043 1.0245
H50 H 0.0112 0.8416 0.9683
C31 C 0.2238(15) 0.8590(17) 0.9781(7)
H51 H 0.1926 0.9442 0.9643
H52 H 0.2825 0.8538 1.0078
N6 N 0.1320(14) 0.8094(15) 0.8525(4)
H53 H 0.1824 0.8545 0.8626
C32 C 0.0532(17) 0.841(2) 0.8037(7)
H54 H -0.0384 0.8247 0.8073
C33 C 0.128(2) 0.7792(17) 0.7586(6)
O8 O 0.2554(12) 0.7734(13) 0.7503(4)
C34 C 0.032(2) 0.991(3) 0.7986(7)
H55 H -0.0350 1.0308 0.8240
H56 H 0.1206 1.0065 0.8055
C35 C -0.019(2) 1.046(3) 0.7493(12)
H57 H 0.0401 1.0034 0.7218
C36 C -0.024(5) 1.193(3) 0.7505(15)
H58 H -0.0547 1.2336 0.7182
H59 H 0.0687 1.1988 0.7578
H60 H -0.0877 1.2316 0.7763
C37 C -0.162(4) 1.058(2) 0.7418(12)
H61 H -0.1889 1.0902 0.7079
H62 H -0.2170 1.1150 0.7654
H63 H -0.1790 0.9786 0.7471
N7 N 0.0549(12) 0.7326(13) 0.7289(5)
H64 H -0.0299 0.7348 0.7370
C38 C 0.1136(16) 0.6765(19) 0.6819(6)
H65 H 0.2147 0.6680 0.6816
C39 C 0.045(2) 0.7654(16) 0.6390(6)
O9 O -0.0912(11) 0.7920(11) 0.6319(4)
C40 C 0.0935(19) 0.545(3) 0.6797(8)
H66 H -0.0090 0.5616 0.6789
C41 C 0.135(3) 0.464(2) 0.7223(11)
H67 H 0.0906 0.5042 0.7519
H68 H 0.2350 0.4420 0.7261
H69 H 0.1064 0.3902 0.7181
C42 C 0.137(2) 0.505(2) 0.6280(7)
H70 H 0.1193 0.4262 0.6232
H71 H 0.2353 0.4959 0.6237
H72 H 0.0838 0.5657 0.6034
N8 N 0.1229(13) 0.8142(14) 0.6113(5)
H73 H 0.2121 0.7908 0.6170
C43 C 0.0656(18) 0.9127(19) 0.5685(7)
H74 H -0.0310 0.9603 0.5763
C44 C 0.066(3) 0.849(3) 0.5235(8)
O10 O 0.145(2) 0.762(2) 0.5090(9)
C45 C 0.160(2) 1.003(2) 0.5631(9)
H75 H 0.2560 0.9558 0.5543
C46 C 0.161(2) 1.054(2) 0.6158(7)
H76 H 0.2068 0.9875 0.6395
H77 H 0.0666 1.0918 0.6264
H78 H 0.2119 1.1157 0.6145
C47 C 0.106(2) 1.090(2) 0.5247(7)
H79 H 0.1153 1.0502 0.4931
H80 H 0.1572 1.1514 0.5230
H81 H 0.0088 1.1305 0.5310
O11 O -0.056(2) 0.908(2) 0.4971(7)
C48 C -0.058(4) 0.877(3) 0.4449(12)
H82 H -0.1445 0.9251 0.4293
H83 H -0.0501 0.7898 0.4434
H84 H 0.0198 0.8945 0.4273
C49 C 0.331(2) 0.475(2) 0.3496(13)
C50 C 0.1725(13) 0.5313(17) 0.3387(6)
H85 H 0.1584 0.5533 0.3031
H86 H 0.1366 0.6043 0.3577
H87 H 0.1239 0.4712 0.3483
C51 C 0.422(3) 0.555(2) 0.3238(18)
H88 H 0.5194 0.5174 0.3324
H89 H 0.3921 0.6378 0.3357
H90 H 0.4103 0.5580 0.2877
C52 C 0.318(3) 0.441(3) 0.4102(7)
H91 H 0.4101 0.4065 0.4245
H92 H 0.2653 0.3815 0.4145
H93 H 0.2700 0.5153 0.4270
O12 O 0.3618(11) 0.3599(12) 0.3266(4)
C53 C 0.4860(17) 0.281(2) 0.3267(7)
O13 O 0.5888(14) 0.2946(16) 0.3491(6)
N9 N 0.5017(13) 0.1760(14) 0.3006(4)
H94 H 0.4268 0.1697 0.2862
C54 C 0.6251(15) 0.0755(15) 0.2939(6)
H95 H 0.6930 0.0780 0.3202
C55 C 0.6871(14) 0.0919(12) 0.2452(5)
O14 O 0.8150(10) 0.0804(10) 0.2384(4)
C56 C 0.5907(17) -0.0441(14) 0.3011(6)
H96 H 0.5095 -0.0401 0.2802
H97 H 0.5637 -0.0532 0.3362
C57 C 0.705(2) -0.157(2) 0.2890(9)
H98 H 0.7370 -0.1429 0.2546
C58 C 0.653(3) -0.269(2) 0.2890(11)
H99 H 0.7288 -0.3395 0.2799
H100 H 0.5779 -0.2550 0.2649
H101 H 0.6199 -0.2844 0.3222
C59 C 0.839(2) -0.178(2) 0.3271(9)
H102 H 0.8692 -0.1039 0.3264
H103 H 0.9152 -0.2463 0.3164
H104 H 0.8124 -0.1962 0.3610
N10 N 0.6079(11) 0.1004(11) 0.2025(4)
H105 H 0.5215 0.1014 0.2065
C60 C 0.6581(14) 0.1082(14) 0.1499(5)
H106 H 0.7536 0.1163 0.1520
C61 C 0.5675(13) 0.2273(13) 0.1239(4)
O15 O 0.4353(10) 0.2432(10) 0.1243(3)
C62 C 0.666(4) 0.007(3) 0.1219(10)
H107 H 0.7426 -0.0527 0.1411
C63 C 0.739(3) -0.0044(19) 0.0705(7)
H108 H 0.8182 0.0278 0.0718
H109 H 0.6736 0.0423 0.0451
H110 H 0.7697 -0.0903 0.0623
C64 C 0.589(3) -0.048(3) 0.1249(8)
H111 H 0.6225 -0.1219 0.1060
H112 H 0.4999 0.0011 0.1114
H113 H 0.5781 -0.0715 0.1598
N11 N 0.6234(12) 0.3018(11) 0.1034(4)
H114 H 0.7139 0.2799 0.1039
C65 C 0.5575(15) 0.4182(14) 0.0793(5)
H115 H 0.4575 0.4236 0.0765
C66 C 0.6140(14) 0.4190(14) 0.0249(6)
O16 O 0.7197(10) 0.4616(9) 0.0228(4)
C67 C 0.5665(14) 0.5229(15) 0.1133(6)
H116 H 0.6646 0.5247 0.1143
C68 C 0.518(2) 0.514(2) 0.1649(9)
H117 H 0.5286 0.5826 0.1831
H118 H 0.5725 0.4371 0.1812
H119 H 0.4206 0.5159 0.1645
C69 C 0.474(2) 0.6478(17) 0.0819(9)
H120 H 0.5071 0.6473 0.0476
H121 H 0.4844 0.7201 0.0975
H122 H 0.3770 0.6495 0.0820
N12 N 0.5675(12) 0.3726(14) -0.0119(5)
C70 C 0.6499(16) 0.3616(18) -0.0598(5)
H123 H 0.6582 0.4435 -0.0712
C71 C 0.7941(17) 0.2734(17) -0.0500(6)
O17 O 0.8115(10) 0.1814(12) -0.0233(4)
C72 C 0.548(2) 0.324(3) -0.0946(6)
H124 H 0.5968 0.2824 -0.1237
H125 H 0.4727 0.3962 -0.1063
C73 C 0.494(2) 0.237(2) -0.0601(8)
H126 H 0.5660 0.1585 -0.0537
H127 H 0.4116 0.2218 -0.0743
C74 C 0.4588(16) 0.3096(17) -0.0117(6)
H128 H 0.3655 0.3684 -0.0136
H129 H 0.4654 0.2542 0.0181
N13 N 0.9081(12) 0.3091(13) -0.0683(4)
C75 C 1.0548(17) 0.2277(19) -0.0626(5)
H130 H 1.0548 0.1425 -0.0691
C76 C 1.1104(16) 0.2269(17) -0.0093(6)
O18 O 1.2220(10) 0.1499(11) 0.0028(4)
C77 C 1.1260(18) 0.273(3) -0.1050(6)
H131 H 1.2014 0.3007 -0.0912
H132 H 1.1692 0.2028 -0.1256
C78 C 1.051(2) 0.3615(18) -0.1344(7)
H133 H 1.0327 0.3302 -0.1665
H134 H 1.0972 0.4257 -0.1409
C79 C 0.9013(19) 0.4168(17) -0.1028(6)
H135 H 0.9013 0.4898 -0.0846
H136 H 0.8197 0.4364 -0.1250
N14 N 1.0376(12) 0.3150(12) 0.0204(4)
H137 H 0.9600 0.3662 0.0094
C80 C 1.0897(15) 0.3263(14) 0.0731(6)
H138 H 1.1920 0.3107 0.0739
C81 C 1.0439(14) 0.2350(13) 0.1076(5)
O19 O 0.9276(9) 0.2214(9) 0.1099(3)
C82 C 1.0123(18) 0.4583(16) 0.0908(5)
H139 H 0.9157 0.4789 0.0789
H140 H 1.0550 0.5165 0.0735
C83 C 1.008(2) 0.4851(18) 0.1534(14)
H141 H 0.9802 0.4204 0.1735
C84 C 0.903(3) 0.621(3) 0.1626(14)
H142 H 0.8076 0.6212 0.1566
H143 H 0.9260 0.6816 0.1397
H144 H 0.9124 0.6423 0.1969
C85 C 1.152(3) 0.462(3) 0.1529(9)
H145 H 1.1845 0.4675 0.1866
H146 H 1.1762 0.5231 0.1307
H147 H 1.1948 0.3806 0.1412
N15 N 1.1517(10) 0.1691(9) 0.1400(4)
H148 H 1.2328 0.1818 0.1367
C86 C 1.1330(13) 0.0749(13) 0.1811(4)
H149 H 1.0320 0.0838 0.1836
C87 C 1.1754(13) 0.1155(13) 0.2279(5)
O20 O 1.2913(9) 0.1274(10) 0.2359(3)
C88 C 1.2047(16) -0.0574(14) 0.1670(6)
H150 H 1.3054 -0.0669 0.1628
C89 C 1.1553(16) -0.0903(15) 0.1238(6)
H151 H 1.2084 -0.1735 0.1165
H152 H 1.1644 -0.0340 0.0963
H153 H 1.0579 -0.0865 0.1280
C90 C 1.1870(18) -0.1486(14) 0.2093(6)
H154 H 1.2234 -0.1292 0.2404
H155 H 1.2375 -0.2318 0.2009
H156 H 1.0890 -0.1424 0.2132
N16 N 1.0785(11) 0.1323(11) 0.2652(4)
H157 H 0.9999 0.1187 0.2583
C91 C 1.0955(16) 0.1729(17) 0.3183(6)
H158 H 1.1554 0.2287 0.3183
C92 C 1.1642(15) 0.0506(18) 0.3457(6)
O21 O 1.1609(18) -0.0409(14) 0.3457(4)
C93 C 0.947(2) 0.2363(19) 0.3383(7)
H159 H 0.8874 0.1803 0.3365
C94 C 0.960(2) 0.268(2) 0.3925(7)
H160 H 1.0029 0.1936 0.4126
H161 H 0.8684 0.3079 0.4056
H162 H 1.0175 0.3239 0.3937
C95 C 0.8849(16) 0.3457(17) 0.3137(7)
H163 H 0.8705 0.3320 0.2788
H164 H 0.9442 0.3995 0.3156
H165 H 0.7958 0.3837 0.3290
O22 O 1.2615(12) 0.0772(16) 0.3821(5)
C96 C 1.334(2) -0.051(3) 0.4140(6)
H166 H 1.3980 -0.0370 0.4384
H167 H 1.3836 -0.1127 0.3915
H168 H 1.2621 -0.0791 0.4313

#END
