./LIBVOI_from_POSCAR.cif_generated_by_CrystalShift
_symmetry_cell_setting triclinic
_symmetry_space_group_name_H-M 'P 1'
loop_
_symmetry_equiv_pos_site_id
_symmetry_equiv_pos_as_xyz
1 x,y,z
_cell_length_a 5.930900
_cell_length_b 5.652900
_cell_length_c 17.269700
_cell_angle_alpha 90.000000
_cell_angle_beta 91.762000
_cell_angle_gamma 90.000000
_cell_volume 578.723746
loop_
_atom_site_label
_atom_site_type_symbol
_atom_site_fract_x
_atom_site_fract_y
_atom_site_fract_z
H1 H 0.141800 0.575700 0.910900
H2 H -0.412000 0.188200 0.961400
H3 H -0.015900 -0.011000 0.783100
H4 H 0.364000 0.491700 0.803400
H5 H 0.602500 0.361800 0.713300
H6 H 0.632600 -0.414800 0.522700
H7 H 0.946100 -0.148800 0.522100
H8 H 0.902700 0.193200 0.611400
H9 H 0.858200 1.075700 0.089100
H10 H 1.168100 1.005500 0.012300
H11 H 1.412000 0.688200 0.038600
H12 H 1.015900 0.489000 0.216900
H13 H 0.636000 0.991700 0.196600
H14 H 0.397500 0.861800 0.286700
H15 H 0.367400 0.085200 0.477300
H16 H 0.053900 0.351200 0.477900
H17 H 0.097300 0.693200 0.388600
H18 H -0.168100 0.505500 0.987700
C19 C 1.139400 0.902200 0.054290
C20 C 1.283200 0.714100 0.068860
C21 C 0.407000 0.558200 0.356490
C22 C 0.205300 0.570300 0.395300
C23 C 0.181300 0.373500 0.446690
C24 C 1.231400 0.563800 0.129750
C25 C 1.046200 0.596300 0.176220
C26 C 0.907400 0.789200 0.161530
C27 C 0.356700 0.223900 0.446330
C28 C 0.593000 0.058200 0.643510
C29 C 0.794700 0.070300 0.604700
C30 C 0.818700 -0.126500 0.553310
C31 C 0.643300 -0.276100 0.553670
C32 C 0.517700 0.223000 0.701700
C33 C 0.482300 0.723000 0.298300
C34 C 0.046400 0.443900 0.900370
C35 C 0.092600 0.289200 0.838470
C36 C -0.046200 0.096300 0.823780
C37 C -0.231400 0.063800 0.870250
C38 C -0.139400 0.402200 0.945710
C39 C -0.283200 0.214100 0.931140
C40 C 0.953600 0.943900 0.099630
N41 N 1.380100 0.363100 0.145860
N42 N -0.380100 -0.136900 0.854140
N43 N 0.277200 0.338000 0.793410
N44 N 0.722800 0.838000 0.206590
N45 N 0.665700 0.679600 0.262320
N46 N 0.334300 0.179600 0.737680
O47 O -0.337600 -0.270600 0.800100
O48 O 1.337600 0.229400 0.199900
O49 O 1.544400 0.333700 0.104710
O50 O -0.544400 -0.166300 0.895290
S51 S 0.439170 -0.188300 0.616610
S52 S 0.560830 0.311700 0.383390

#END
