./LIBWEZ_from_POSCAR.cif_generated_by_CrystalShift
_symmetry_cell_setting triclinic
_symmetry_space_group_name_H-M 'P 1'
loop_
_symmetry_equiv_pos_site_id
_symmetry_equiv_pos_as_xyz
1 x,y,z
_cell_length_a 8.077000
_cell_length_b 10.045000
_cell_length_c 12.238000
_cell_angle_alpha 90.000000
_cell_angle_beta 90.000000
_cell_angle_gamma 90.000000
_cell_volume 992.911345
loop_
_atom_site_label
_atom_site_type_symbol
_atom_site_fract_x
_atom_site_fract_y
_atom_site_fract_z
H1 H 0.819700 -0.075000 -0.119500
H2 H 0.680300 1.075000 0.380500
H3 H 1.035200 1.153200 0.600100
H4 H 0.464800 -0.153200 0.100100
H5 H 0.979600 0.954600 0.686000
H6 H 0.687400 0.638800 0.528100
H7 H 0.173800 -0.084800 0.909600
H8 H 0.544200 0.694700 0.601500
H9 H 0.228200 -0.239200 0.760200
H10 H 0.501600 0.574200 0.791200
H11 H 0.498400 0.074200 0.708800
H12 H 0.771800 0.260800 0.739800
H13 H 0.455800 0.194700 0.898500
H14 H 0.312600 0.138800 0.971900
H15 H 0.826200 0.415200 0.590400
H16 H 0.728200 0.739200 0.239800
H17 H 0.998400 0.425800 0.291200
H18 H 0.020400 0.454600 0.814000
H19 H 0.955800 0.305300 0.101500
H20 H -0.035200 0.653200 0.899900
H21 H 0.180300 0.425000 0.619500
H22 H 0.535200 0.346800 0.399900
H23 H 0.319700 0.575000 1.119500
H24 H 0.479600 0.545400 0.314000
H25 H 0.520400 0.045400 0.186000
H26 H 0.187400 0.861200 0.471900
H27 H 0.044200 0.805300 0.398500
H28 H 0.001600 0.925800 0.208800
H29 H 0.812600 0.361200 0.028100
H30 H 0.271800 1.239200 0.260200
H31 H 0.326200 1.084800 0.409600
H32 H 0.673800 0.584800 0.090400
C33 C 0.253900 1.071300 0.351500
C34 C 0.075500 0.985700 0.240100
C35 C 0.728900 0.236300 0.147000
C36 C 0.156000 0.840700 0.397200
C37 C 0.703600 0.109000 0.086400
C38 C 0.581000 0.021800 0.124300
C39 C 0.271100 0.736300 0.353000
C40 C 0.296400 0.609000 0.413600
C41 C 0.419000 0.521800 0.375700
C42 C 0.289100 0.431700 1.005600
C43 C 0.452800 0.403000 0.426100
C44 C 0.259600 0.550200 1.058000
C45 C 0.361500 0.369900 0.516200
C46 C 0.240400 0.449800 0.558000
C47 C 0.138500 0.630100 1.016200
C48 C 0.210900 0.568300 0.505600
C49 C 0.047200 0.597000 0.926100
C50 C 0.844000 0.340700 0.102800
C51 C 0.081000 0.478200 0.875700
C52 C 0.924500 0.485700 0.259900
C53 C 0.203600 0.391000 0.913600
C54 C 0.753900 0.428700 0.648500
C55 C 0.228900 0.263700 0.853000
C56 C 0.723000 0.344100 0.731700
C57 C 0.344000 0.159300 0.897200
C58 C 0.575500 0.514300 0.759900
C59 C 0.424500 0.014300 0.740100
C60 C 0.656000 0.659300 0.602800
C61 C 0.277000 -0.155900 0.768300
C62 C 0.246100 -0.071300 0.851500
C63 C 0.771100 0.763700 0.647000
C64 C 0.796400 0.891000 0.586400
C65 C 0.919000 0.978200 0.624300
C66 C 0.547200 -0.097000 0.073900
C67 C 0.952800 1.097000 0.573900
C68 C 0.638500 -0.130100 -0.016200
C69 C 0.861500 1.130100 0.483800
C70 C 0.740400 1.050200 0.442000
C71 C 0.759600 -0.050200 -0.058000
C72 C 0.710900 0.931700 0.494400
C73 C 0.777000 0.655900 0.231700
C74 C 0.223000 1.155900 0.268300
C75 C 0.746100 0.571300 0.148500
C76 C 0.789100 0.068300 -0.005600
N77 N 0.889600 0.602600 0.302300
N78 N 0.342100 0.037800 0.833300
N79 N 0.389600 -0.102600 0.697700
N80 N 0.157900 0.962200 0.333300
N81 N 0.610400 0.397400 0.802300
N82 N 0.657900 0.537800 0.666700
N83 N 0.110400 1.102600 0.197700
N84 N 0.842100 0.462200 0.166700
O85 O 0.654700 0.254700 0.231420
O86 O 0.845300 0.745300 0.731420
O87 O 0.154700 0.245300 0.768580
O88 O 0.345300 0.754700 0.268580
F89 F 0.392200 0.252500 0.566300
F90 F 0.908800 0.147000 -0.048600
F91 F 0.892200 1.247500 0.433700
F92 F 0.091200 0.647000 0.548600
F93 F 0.607800 -0.247500 -0.066300
F94 F 0.408800 0.353000 1.048600
F95 F 0.591200 0.853000 0.451400
F96 F 0.107800 0.747500 1.066300

#END
