
#######################################################################
#
#                 Cambridge Crystallographic Data Centre
#                                CCDC 
#
#######################################################################
#
# If this CIF has been generated from an entry in the Cambridge 
# Structural Database, then it will include bibliographic, chemical, 
# crystal, experimental, refinement or atomic coordinate data resulting 
# from the CCDC's data processing and validation procedures.
#
#######################################################################

data_LICBII
_symmetry_cell_setting           monoclinic
_symmetry_space_group_name_H-M   'C 2/c'
_symmetry_Int_Tables_number      15
_space_group_name_Hall           '-C 2yn'
loop_
_symmetry_equiv_pos_site_id
_symmetry_equiv_pos_as_xyz
1 x,y,z
2 -x,y,1/2-z
3 1/2+x,1/2+y,z
4 1/2-x,1/2+y,1/2-z
5 -x,-y,-z
6 x,-y,1/2+z
7 1/2-x,1/2-y,-z
8 1/2+x,1/2-y,1/2+z
_cell_length_a                   24.215(6)
_cell_length_b                   8.967(2)
_cell_length_c                   15.006(3)
_cell_angle_alpha                90
_cell_angle_beta                 115.57(2)
_cell_angle_gamma                90
_cell_volume                     2939.22
loop_
_atom_site_label
_atom_site_type_symbol
_atom_site_fract_x
_atom_site_fract_y
_atom_site_fract_z
Cl1 Cl 0.0098(1) 1.1028(1) 0.3914(1)
N1 N 0.2636(1) 0.9887(2) 0.4591(1)
C1 C 0.0954(1) 0.9471(3) 0.3645(2)
C2 C 0.0846(1) 1.0646(3) 0.4110(2)
C3 C 0.1314(1) 1.1561(3) 0.4752(2)
C4 C 0.1901(1) 1.1264(3) 0.4922(2)
C5 C 0.2038(1) 1.0076(3) 0.4432(2)
C6 C 0.1561(1) 0.9161(3) 0.3787(2)
C7 C 0.1713(1) 0.7991(3) 0.3292(2)
C8 C 0.2314(1) 0.7839(3) 0.3435(2)
C9 C 0.2762(1) 0.8821(3) 0.4108(2)
C10 C 0.3419(1) 0.8720(3) 0.4273(2)
C11 C 0.3583(1) 0.7305(3) 0.3902(2)
C12 C 0.3101(1) 0.6962(3) 0.2868(2)
C13 C 0.2493(1) 0.6676(3) 0.2892(2)
C14 C 0.1224(1) 0.6970(3) 0.2637(2)
C15 C 0.1186(1) 0.5522(3) 0.2926(2)
C16 C 0.0713(1) 0.4609(3) 0.2342(2)
C17 C 0.0274(1) 0.5114(3) 0.1459(2)
C18 C 0.0307(1) 0.6529(4) 0.1156(2)
C19 C 0.0781(1) 0.7462(3) 0.1737(2)
H1 H 0.064(1) 0.886(1) 0.324(1)
H2 H 0.121(1) 1.238(1) 0.504(1)
H3 H 0.223(1) 1.190(1) 0.535(1)
H4 H 0.354(1) 0.963(1) 0.397(1)
H5 H 0.365(1) 0.889(1) 0.491(1)
H6 H 0.397(1) 0.743(1) 0.397(1)
H7 H 0.357(1) 0.631(1) 0.434(1)
H8 H 0.307(1) 0.785(1) 0.243(1)
H9 H 0.330(1) 0.611(1) 0.266(1)
H10 H 0.219(1) 0.651(1) 0.222(1)
H11 H 0.249(1) 0.568(1) 0.318(1)
H12 H 0.147(1) 0.520(1) 0.351(1)
H13 H 0.071(1) 0.360(1) 0.251(1)
H14 H -0.007(1) 0.445(1) 0.105(1)
H15 H 0.002(1) 0.695(1) 0.053(1)
H16 H 0.078(1) 0.839(1) 0.151(1)
Cl1 Cl 0.9902(1) 1.1028(1) 0.1086(1)
N1 N 0.7364(1) 0.9887(2) 0.0409(1)
C1 C 0.9046(1) 0.9471(3) 0.1355(2)
C2 C 0.9154(1) 1.0646(3) 0.0890(2)
C3 C 0.8686(1) 1.1561(3) 0.0248(2)
C4 C 0.8099(1) 1.1264(3) 0.0078(2)
C5 C 0.7962(1) 1.0076(3) 0.0568(2)
C6 C 0.8439(1) 0.9161(3) 0.1213(2)
C7 C 0.8287(1) 0.7991(3) 0.1708(2)
C8 C 0.7686(1) 0.7839(3) 0.1565(2)
C9 C 0.7238(1) 0.8821(3) 0.0892(2)
C10 C 0.6581(1) 0.8720(3) 0.0727(2)
C11 C 0.6417(1) 0.7305(3) 0.1098(2)
C12 C 0.6899(1) 0.6962(3) 0.2132(2)
C13 C 0.7507(1) 0.6676(3) 0.2108(2)
C14 C 0.8776(1) 0.6970(3) 0.2363(2)
C15 C 0.8814(1) 0.5522(3) 0.2074(2)
C16 C 0.9287(1) 0.4609(3) 0.2658(2)
C17 C 0.9726(1) 0.5114(3) 0.3541(2)
C18 C 0.9693(1) 0.6529(4) 0.3844(2)
C19 C 0.9219(1) 0.7462(3) 0.3263(2)
H1 H 0.936(1) 0.886(1) 0.176(1)
H2 H 0.879(1) 1.238(1) -0.004(1)
H3 H 0.777(1) 1.190(1) -0.035(1)
H4 H 0.646(1) 0.963(1) 0.103(1)
H5 H 0.635(1) 0.889(1) 0.009(1)
H6 H 0.603(1) 0.743(1) 0.103(1)
H7 H 0.643(1) 0.631(1) 0.066(1)
H8 H 0.693(1) 0.785(1) 0.257(1)
H9 H 0.670(1) 0.611(1) 0.234(1)
H10 H 0.781(1) 0.651(1) 0.278(1)
H11 H 0.751(1) 0.568(1) 0.182(1)
H12 H 0.853(1) 0.520(1) 0.149(1)
H13 H 0.929(1) 0.360(1) 0.249(1)
H14 H 1.007(1) 0.445(1) 0.395(1)
H15 H 0.998(1) 0.695(1) 0.447(1)
H16 H 0.922(1) 0.839(1) 0.349(1)
Cl1 Cl 0.5098(1) 0.6028(1) 0.3914(1)
N1 N 0.7636(1) 0.4887(2) 0.4591(1)
C1 C 0.5954(1) 0.4471(3) 0.3645(2)
C2 C 0.5846(1) 0.5646(3) 0.4110(2)
C3 C 0.6314(1) 0.6561(3) 0.4752(2)
C4 C 0.6901(1) 0.6264(3) 0.4922(2)
C5 C 0.7038(1) 0.5076(3) 0.4432(2)
C6 C 0.6561(1) 0.4161(3) 0.3787(2)
C7 C 0.6713(1) 0.2991(3) 0.3292(2)
C8 C 0.7314(1) 0.2839(3) 0.3435(2)
C9 C 0.7762(1) 0.3821(3) 0.4108(2)
C10 C 0.8419(1) 0.3720(3) 0.4273(2)
C11 C 0.8583(1) 0.2305(3) 0.3902(2)
C12 C 0.8101(1) 0.1962(3) 0.2868(2)
C13 C 0.7493(1) 0.1676(3) 0.2892(2)
C14 C 0.6224(1) 0.1970(3) 0.2637(2)
C15 C 0.6186(1) 0.0522(3) 0.2926(2)
C16 C 0.5713(1) -0.0391(3) 0.2342(2)
C17 C 0.5274(1) 0.0114(3) 0.1459(2)
C18 C 0.5307(1) 0.1529(4) 0.1156(2)
C19 C 0.5781(1) 0.2462(3) 0.1737(2)
H1 H 0.564(1) 0.386(1) 0.324(1)
H2 H 0.621(1) 0.738(1) 0.504(1)
H3 H 0.723(1) 0.690(1) 0.535(1)
H4 H 0.854(1) 0.463(1) 0.397(1)
H5 H 0.865(1) 0.389(1) 0.491(1)
H6 H 0.897(1) 0.243(1) 0.397(1)
H7 H 0.857(1) 0.131(1) 0.434(1)
H8 H 0.807(1) 0.285(1) 0.243(1)
H9 H 0.830(1) 0.111(1) 0.266(1)
H10 H 0.719(1) 0.151(1) 0.222(1)
H11 H 0.749(1) 0.068(1) 0.318(1)
H12 H 0.647(1) 0.020(1) 0.351(1)
H13 H 0.571(1) -0.140(1) 0.251(1)
H14 H 0.493(1) -0.055(1) 0.105(1)
H15 H 0.502(1) 0.195(1) 0.053(1)
H16 H 0.578(1) 0.339(1) 0.151(1)
Cl1 Cl 0.4902(1) 0.6028(1) 0.1086(1)
N1 N 0.2364(1) 0.4887(2) 0.0409(1)
C1 C 0.4046(1) 0.4471(3) 0.1355(2)
C2 C 0.4154(1) 0.5646(3) 0.0890(2)
C3 C 0.3686(1) 0.6561(3) 0.0248(2)
C4 C 0.3099(1) 0.6264(3) 0.0078(2)
C5 C 0.2962(1) 0.5076(3) 0.0568(2)
C6 C 0.3439(1) 0.4161(3) 0.1213(2)
C7 C 0.3287(1) 0.2991(3) 0.1708(2)
C8 C 0.2686(1) 0.2839(3) 0.1565(2)
C9 C 0.2238(1) 0.3821(3) 0.0892(2)
C10 C 0.1581(1) 0.3720(3) 0.0727(2)
C11 C 0.1417(1) 0.2305(3) 0.1098(2)
C12 C 0.1899(1) 0.1962(3) 0.2132(2)
C13 C 0.2507(1) 0.1676(3) 0.2108(2)
C14 C 0.3776(1) 0.1970(3) 0.2363(2)
C15 C 0.3814(1) 0.0522(3) 0.2074(2)
C16 C 0.4287(1) -0.0391(3) 0.2658(2)
C17 C 0.4726(1) 0.0114(3) 0.3541(2)
C18 C 0.4693(1) 0.1529(4) 0.3844(2)
C19 C 0.4219(1) 0.2462(3) 0.3263(2)
H1 H 0.436(1) 0.386(1) 0.176(1)
H2 H 0.379(1) 0.738(1) -0.004(1)
H3 H 0.277(1) 0.690(1) -0.035(1)
H4 H 0.146(1) 0.463(1) 0.103(1)
H5 H 0.135(1) 0.389(1) 0.009(1)
H6 H 0.103(1) 0.243(1) 0.103(1)
H7 H 0.143(1) 0.131(1) 0.066(1)
H8 H 0.193(1) 0.285(1) 0.257(1)
H9 H 0.170(1) 0.111(1) 0.234(1)
H10 H 0.281(1) 0.151(1) 0.278(1)
H11 H 0.251(1) 0.068(1) 0.182(1)
H12 H 0.353(1) 0.020(1) 0.149(1)
H13 H 0.429(1) -0.140(1) 0.249(1)
H14 H 0.507(1) -0.055(1) 0.395(1)
H15 H 0.498(1) 0.195(1) 0.447(1)
H16 H 0.422(1) 0.339(1) 0.349(1)
Cl1 Cl 0.9902(1) -0.1028(1) 0.6086(1)
N1 N 0.7364(1) 0.0113(2) 0.5409(1)
C1 C 0.9046(1) 0.0529(3) 0.6355(2)
C2 C 0.9154(1) -0.0646(3) 0.5890(2)
C3 C 0.8686(1) -0.1561(3) 0.5248(2)
C4 C 0.8099(1) -0.1264(3) 0.5078(2)
C5 C 0.7962(1) -0.0076(3) 0.5568(2)
C6 C 0.8439(1) 0.0839(3) 0.6213(2)
C7 C 0.8287(1) 0.2009(3) 0.6708(2)
C8 C 0.7686(1) 0.2161(3) 0.6565(2)
C9 C 0.7238(1) 0.1179(3) 0.5892(2)
C10 C 0.6581(1) 0.1280(3) 0.5727(2)
C11 C 0.6417(1) 0.2695(3) 0.6098(2)
C12 C 0.6899(1) 0.3038(3) 0.7132(2)
C13 C 0.7507(1) 0.3324(3) 0.7108(2)
C14 C 0.8776(1) 0.3030(3) 0.7363(2)
C15 C 0.8814(1) 0.4478(3) 0.7074(2)
C16 C 0.9287(1) 0.5391(3) 0.7658(2)
C17 C 0.9726(1) 0.4886(3) 0.8541(2)
C18 C 0.9693(1) 0.3471(4) 0.8844(2)
C19 C 0.9219(1) 0.2538(3) 0.8263(2)
H1 H 0.936(1) 0.114(1) 0.676(1)
H2 H 0.879(1) -0.238(1) 0.496(1)
H3 H 0.777(1) -0.190(1) 0.465(1)
H4 H 0.646(1) 0.037(1) 0.603(1)
H5 H 0.635(1) 0.111(1) 0.509(1)
H6 H 0.603(1) 0.257(1) 0.603(1)
H7 H 0.643(1) 0.369(1) 0.566(1)
H8 H 0.693(1) 0.215(1) 0.757(1)
H9 H 0.670(1) 0.389(1) 0.734(1)
H10 H 0.781(1) 0.349(1) 0.778(1)
H11 H 0.751(1) 0.432(1) 0.682(1)
H12 H 0.853(1) 0.480(1) 0.649(1)
H13 H 0.929(1) 0.640(1) 0.749(1)
H14 H 1.007(1) 0.555(1) 0.895(1)
H15 H 0.998(1) 0.305(1) 0.947(1)
H16 H 0.922(1) 0.161(1) 0.849(1)
Cl1 Cl 0.0098(1) -0.1028(1) 0.8914(1)
N1 N 0.2636(1) 0.0113(2) 0.9591(1)
C1 C 0.0954(1) 0.0529(3) 0.8645(2)
C2 C 0.0846(1) -0.0646(3) 0.9110(2)
C3 C 0.1314(1) -0.1561(3) 0.9752(2)
C4 C 0.1901(1) -0.1264(3) 0.9922(2)
C5 C 0.2038(1) -0.0076(3) 0.9432(2)
C6 C 0.1561(1) 0.0839(3) 0.8787(2)
C7 C 0.1713(1) 0.2009(3) 0.8292(2)
C8 C 0.2314(1) 0.2161(3) 0.8435(2)
C9 C 0.2762(1) 0.1179(3) 0.9108(2)
C10 C 0.3419(1) 0.1280(3) 0.9273(2)
C11 C 0.3583(1) 0.2695(3) 0.8902(2)
C12 C 0.3101(1) 0.3038(3) 0.7868(2)
C13 C 0.2493(1) 0.3324(3) 0.7892(2)
C14 C 0.1224(1) 0.3030(3) 0.7637(2)
C15 C 0.1186(1) 0.4478(3) 0.7926(2)
C16 C 0.0713(1) 0.5391(3) 0.7342(2)
C17 C 0.0274(1) 0.4886(3) 0.6459(2)
C18 C 0.0307(1) 0.3471(4) 0.6156(2)
C19 C 0.0781(1) 0.2538(3) 0.6737(2)
H1 H 0.064(1) 0.114(1) 0.824(1)
H2 H 0.121(1) -0.238(1) 1.004(1)
H3 H 0.223(1) -0.190(1) 1.035(1)
H4 H 0.354(1) 0.037(1) 0.897(1)
H5 H 0.365(1) 0.111(1) 0.991(1)
H6 H 0.397(1) 0.257(1) 0.897(1)
H7 H 0.357(1) 0.369(1) 0.934(1)
H8 H 0.307(1) 0.215(1) 0.743(1)
H9 H 0.330(1) 0.389(1) 0.766(1)
H10 H 0.219(1) 0.349(1) 0.722(1)
H11 H 0.249(1) 0.432(1) 0.818(1)
H12 H 0.147(1) 0.480(1) 0.851(1)
H13 H 0.071(1) 0.640(1) 0.751(1)
H14 H -0.007(1) 0.555(1) 0.605(1)
H15 H 0.002(1) 0.305(1) 0.553(1)
H16 H 0.078(1) 0.161(1) 0.651(1)
Cl1 Cl 0.4902(1) 0.3972(1) 0.6086(1)
N1 N 0.2364(1) 0.5113(2) 0.5409(1)
C1 C 0.4046(1) 0.5529(3) 0.6355(2)
C2 C 0.4154(1) 0.4354(3) 0.5890(2)
C3 C 0.3686(1) 0.3439(3) 0.5248(2)
C4 C 0.3099(1) 0.3736(3) 0.5078(2)
C5 C 0.2962(1) 0.4924(3) 0.5568(2)
C6 C 0.3439(1) 0.5839(3) 0.6213(2)
C7 C 0.3287(1) 0.7009(3) 0.6708(2)
C8 C 0.2686(1) 0.7161(3) 0.6565(2)
C9 C 0.2238(1) 0.6179(3) 0.5892(2)
C10 C 0.1581(1) 0.6280(3) 0.5727(2)
C11 C 0.1417(1) 0.7695(3) 0.6098(2)
C12 C 0.1899(1) 0.8038(3) 0.7132(2)
C13 C 0.2507(1) 0.8324(3) 0.7108(2)
C14 C 0.3776(1) 0.8030(3) 0.7363(2)
C15 C 0.3814(1) 0.9478(3) 0.7074(2)
C16 C 0.4287(1) 1.0391(3) 0.7658(2)
C17 C 0.4726(1) 0.9886(3) 0.8541(2)
C18 C 0.4693(1) 0.8471(4) 0.8844(2)
C19 C 0.4219(1) 0.7538(3) 0.8263(2)
H1 H 0.436(1) 0.614(1) 0.676(1)
H2 H 0.379(1) 0.262(1) 0.496(1)
H3 H 0.277(1) 0.310(1) 0.465(1)
H4 H 0.146(1) 0.537(1) 0.603(1)
H5 H 0.135(1) 0.611(1) 0.509(1)
H6 H 0.103(1) 0.757(1) 0.603(1)
H7 H 0.143(1) 0.869(1) 0.566(1)
H8 H 0.193(1) 0.715(1) 0.757(1)
H9 H 0.170(1) 0.889(1) 0.734(1)
H10 H 0.281(1) 0.849(1) 0.778(1)
H11 H 0.251(1) 0.932(1) 0.682(1)
H12 H 0.353(1) 0.980(1) 0.649(1)
H13 H 0.429(1) 1.140(1) 0.749(1)
H14 H 0.507(1) 1.055(1) 0.895(1)
H15 H 0.498(1) 0.805(1) 0.947(1)
H16 H 0.422(1) 0.661(1) 0.849(1)
Cl1 Cl 0.5098(1) 0.3972(1) 0.8914(1)
N1 N 0.7636(1) 0.5113(2) 0.9591(1)
C1 C 0.5954(1) 0.5529(3) 0.8645(2)
C2 C 0.5846(1) 0.4354(3) 0.9110(2)
C3 C 0.6314(1) 0.3439(3) 0.9752(2)
C4 C 0.6901(1) 0.3736(3) 0.9922(2)
C5 C 0.7038(1) 0.4924(3) 0.9432(2)
C6 C 0.6561(1) 0.5839(3) 0.8787(2)
C7 C 0.6713(1) 0.7009(3) 0.8292(2)
C8 C 0.7314(1) 0.7161(3) 0.8435(2)
C9 C 0.7762(1) 0.6179(3) 0.9108(2)
C10 C 0.8419(1) 0.6280(3) 0.9273(2)
C11 C 0.8583(1) 0.7695(3) 0.8902(2)
C12 C 0.8101(1) 0.8038(3) 0.7868(2)
C13 C 0.7493(1) 0.8324(3) 0.7892(2)
C14 C 0.6224(1) 0.8030(3) 0.7637(2)
C15 C 0.6186(1) 0.9478(3) 0.7926(2)
C16 C 0.5713(1) 1.0391(3) 0.7342(2)
C17 C 0.5274(1) 0.9886(3) 0.6459(2)
C18 C 0.5307(1) 0.8471(4) 0.6156(2)
C19 C 0.5781(1) 0.7538(3) 0.6737(2)
H1 H 0.564(1) 0.614(1) 0.824(1)
H2 H 0.621(1) 0.262(1) 1.004(1)
H3 H 0.723(1) 0.310(1) 1.035(1)
H4 H 0.854(1) 0.537(1) 0.897(1)
H5 H 0.865(1) 0.611(1) 0.991(1)
H6 H 0.897(1) 0.757(1) 0.897(1)
H7 H 0.857(1) 0.869(1) 0.934(1)
H8 H 0.807(1) 0.715(1) 0.743(1)
H9 H 0.830(1) 0.889(1) 0.766(1)
H10 H 0.719(1) 0.849(1) 0.722(1)
H11 H 0.749(1) 0.932(1) 0.818(1)
H12 H 0.647(1) 0.980(1) 0.851(1)
H13 H 0.571(1) 1.140(1) 0.751(1)
H14 H 0.493(1) 1.055(1) 0.605(1)
H15 H 0.502(1) 0.805(1) 0.553(1)
H16 H 0.578(1) 0.661(1) 0.651(1)

#END
