./LICFUZ_from_POSCAR.cif_generated_by_CrystalShift
_symmetry_cell_setting triclinic
_symmetry_space_group_name_H-M 'P 1'
loop_
_symmetry_equiv_pos_site_id
_symmetry_equiv_pos_as_xyz
1 x,y,z
_cell_length_a 5.958000
_cell_length_b 12.298400
_cell_length_c 11.916800
_cell_angle_alpha 90.000000
_cell_angle_beta 90.185000
_cell_angle_gamma 90.000000
_cell_volume 873.185469
loop_
_atom_site_label
_atom_site_type_symbol
_atom_site_fract_x
_atom_site_fract_y
_atom_site_fract_z
H1 H 0.899100 0.817000 0.482900
H2 H 1.185000 0.725300 0.447800
H3 H 1.336600 0.382000 0.445100
H4 H -0.079300 -0.071400 0.195200
H5 H 1.072400 0.405000 0.448800
H6 H -0.384500 0.004100 0.287900
H7 H 1.197600 0.394500 0.330700
H8 H -0.425100 0.192900 0.299400
H9 H 1.659500 0.805300 0.283300
H10 H -0.159500 0.305300 0.216700
H11 H 1.925100 0.692900 0.200600
H12 H 0.302400 -0.105500 0.169300
H13 H 0.427600 -0.095000 0.051200
H14 H 0.163400 -0.118000 0.054900
H15 H 1.884500 0.504100 0.212100
H16 H 0.315000 0.225300 0.052200
H17 H 1.579300 0.428600 0.304800
H18 H 1.100900 0.183000 0.517100
H19 H 0.158100 0.561400 0.069500
H20 H 0.658100 -0.061400 0.569500
H21 H 0.600900 0.317000 0.017100
H22 H 1.100900 1.183000 0.517100
H23 H 0.815000 0.274700 0.552200
H24 H 0.663400 0.618000 0.554900
H25 H 0.927600 0.595000 0.551200
H26 H 0.802400 0.605500 0.669300
H27 H 1.079300 1.071400 -0.195200
H28 H 0.340500 0.194700 0.716700
H29 H 1.384500 0.995900 -0.287900
H30 H 0.074900 0.307100 0.799400
H31 H 1.425100 0.807100 -0.299400
H32 H 0.115500 0.495900 0.787900
H33 H 1.159500 0.694700 -0.216700
H34 H 0.420700 0.571400 0.695200
H35 H 0.697600 1.105500 -0.169300
H36 H 0.572400 1.095000 -0.051200
H37 H 0.836600 1.118000 -0.054900
H38 H 0.420700 1.571400 0.695200
H39 H 0.685000 0.774700 -0.052200
H40 H 0.899100 -0.183000 0.482900
H41 H 1.341900 0.061400 0.430500
H42 H 0.841900 0.438600 -0.069500
H43 H 1.185000 -0.274700 0.447800
H44 H 0.399100 0.683000 -0.017100
H45 H 0.658100 0.938600 0.569500
H46 H 1.336600 -0.618000 0.445100
H47 H 1.072400 -0.595000 0.448800
H48 H 1.197600 -0.605500 0.330700
H49 H 1.659500 -0.194700 0.283300
H50 H -0.079300 -0.071400 1.195200
H51 H 1.925100 -0.307100 0.200600
H52 H -0.384500 0.004100 1.287900
H53 H 1.884500 -0.495900 0.212100
H54 H -0.425100 0.192900 1.299400
H55 H 1.579300 -0.571400 0.304800
H56 H -0.159500 0.305300 1.216700
H57 H 0.115500 1.495900 0.787900
H58 H 0.302400 -0.105500 1.169300
H59 H 0.427600 -0.095000 1.051200
H60 H 0.163400 -0.118000 1.054900
H61 H 0.100900 1.183000 0.517100
H62 H 0.315000 0.225300 1.052200
H63 H -0.341900 0.938600 0.569500
H64 H -0.185000 1.274700 0.552200
H65 H 0.158100 0.561400 1.069500
H66 H -0.336600 1.618000 0.554900
H67 H 0.600900 0.317000 1.017100
H68 H -0.072400 1.595000 0.551200
H69 H 0.815000 1.274700 0.552200
H70 H -0.197600 1.605500 0.669300
H71 H -0.659500 1.194700 0.716700
H72 H -0.925100 1.307100 0.799400
H73 H 1.079300 1.071400 0.804800
H74 H -0.884500 1.495900 0.787900
H75 H 1.384500 0.995900 0.712100
H76 H -0.579300 1.571400 0.695200
H77 H 1.425100 0.807100 0.700600
H78 H 0.074900 1.307100 0.799400
H79 H 1.159500 0.694700 0.783300
H80 H -0.100900 0.817000 0.482900
H81 H 0.697600 1.105500 0.830700
H82 H 0.572400 1.095000 0.948800
H83 H 0.836600 1.118000 0.945100
H84 H 0.341900 1.061400 0.430500
H85 H 0.685000 0.774700 0.947800
H86 H 0.185000 0.725300 0.447800
H87 H 0.336600 0.382000 0.445100
H88 H 0.841900 0.438600 0.930500
H89 H 0.072400 0.405000 0.448800
H90 H 0.399100 0.683000 0.982900
H91 H 0.197600 0.394500 0.330700
H92 H 0.663400 1.618000 0.554900
H93 H 0.659500 0.805300 0.283300
H94 H 0.925100 0.692900 0.200600
H95 H 0.884500 0.504100 0.212100
H96 H 0.579300 -0.571400 0.304800
H97 H 0.579300 0.428600 0.304800
H98 H 0.884500 -0.495900 0.212100
H99 H 0.340500 1.194700 0.716700
H100 H 0.925100 -0.307100 0.200600
H101 H 0.100900 0.183000 0.517100
H102 H 0.659500 -0.194700 0.283300
H103 H -0.341900 -0.061400 0.569500
H104 H 0.197600 -0.605500 0.330700
H105 H 0.072400 -0.595000 0.448800
H106 H 0.336600 -0.618000 0.445100
H107 H -0.185000 0.274700 0.552200
H108 H 0.185000 -0.274700 0.447800
H109 H -0.336600 0.618000 0.554900
H110 H -0.072400 0.595000 0.551200
H111 H 0.341900 0.061400 0.430500
H112 H -0.197600 0.605500 0.669300
H113 H -0.100900 -0.183000 0.482900
H114 H 0.927600 1.595000 0.551200
H115 H 0.802400 1.605500 0.669300
H116 H -0.659500 0.194700 0.716700
H117 H -0.925100 0.307100 0.799400
H118 H -0.884500 0.495900 0.787900
H119 H -0.579300 0.571400 0.695200
H120 H 1.341900 1.061400 0.430500
C121 C -0.595200 0.494630 0.698910
C122 C -0.800700 0.337730 0.761020
C123 C -0.436800 0.428130 0.648660
C124 C -0.642900 0.271320 0.711550
C125 C -0.459300 0.314310 0.654060
C126 C -0.211900 0.580050 0.591690
C127 C -0.059100 -0.108730 0.489860
C128 C 0.202600 0.036130 0.458980
C129 C 0.147600 -0.073620 0.448140
C130 C -0.298500 0.243120 0.597540
C131 C 0.298500 -0.243120 0.402460
C132 C -0.147600 0.073620 0.551860
C133 C -0.202600 -0.036130 0.541020
C134 C 0.211900 -0.580050 0.408310
C135 C 0.059100 0.108730 0.510140
C136 C 0.642900 -0.271320 0.288450
C137 C 0.788100 1.580050 0.591690
C138 C 0.800700 -0.337730 0.238980
C139 C 0.459300 0.685690 0.345940
C140 C 0.436800 0.571870 0.351340
C141 C 0.595200 0.505370 0.301090
C142 C 0.776100 -0.449750 0.245760
C143 C 0.776100 0.550250 0.245760
C144 C 0.595200 -0.494630 0.301090
C145 C 0.800700 0.662270 0.238980
C146 C 0.436800 -0.428130 0.351340
C147 C 0.642900 0.728680 0.288450
C148 C 0.459300 -0.314310 0.345940
C149 C 0.211900 0.419950 0.408310
C150 C 0.701500 1.243120 0.597540
C151 C 0.440900 0.608730 0.989860
C152 C 0.702600 0.463870 0.958980
C153 C 0.298500 0.756880 0.402460
C154 C 0.647600 0.573620 0.948140
C155 C 0.147600 0.926380 0.448140
C156 C 0.202600 1.036130 0.458980
C157 C 0.798500 0.743120 0.902460
C158 C -0.059100 0.891270 0.489860
C159 C 0.711900 1.080050 0.908310
C160 C 0.357100 1.271320 0.711550
C161 C 1.142900 0.771320 0.788450
C162 C -0.459300 1.314310 0.654060
C163 C -0.436800 1.428130 0.648660
C164 C -0.595200 1.494630 0.698910
C165 C 1.300700 0.837730 0.738980
C166 C -0.776100 1.449750 0.754240
C167 C 1.276100 0.949750 0.745760
C168 C -0.800700 1.337730 0.761020
C169 C 1.095200 0.994630 0.801090
C170 C -0.642900 1.271320 0.711550
C171 C 0.936800 0.928130 0.851340
C172 C -0.211900 1.580050 0.591690
C173 C 0.959300 0.814310 0.845940
C174 C 0.852400 1.073620 0.551860
C175 C 0.559100 0.391270 1.010140
C176 C -0.298500 1.243120 0.597540
C177 C 0.297400 0.536130 1.041020
C178 C -0.147600 1.073620 0.551860
C179 C -0.202600 0.963870 0.541020
C180 C 0.352400 0.426380 1.051860
C181 C 0.059100 1.108730 0.510140
C182 C 0.201500 0.256880 1.097540
C183 C 0.199300 1.337730 0.761020
C184 C 0.288100 -0.080050 1.091690
C185 C 1.459300 -0.314310 0.345940
C186 C 1.436800 -0.428130 0.351340
C187 C 1.595200 -0.494630 0.301090
C188 C -0.142900 0.228680 1.211550
C189 C 1.776100 -0.449750 0.245760
C190 C -0.300700 0.162270 1.261020
C191 C 1.800700 -0.337730 0.238980
C192 C -0.276100 0.050250 1.254240
C193 C 1.642900 -0.271320 0.288450
C194 C -0.095200 0.005370 1.198910
C195 C 1.211900 -0.580050 0.408310
C196 C 0.063200 0.071870 1.148660
C197 C 0.040700 0.185690 1.154060
C198 C 0.797400 0.963870 0.541020
C199 C 1.298500 -0.243120 0.402460
C200 C 0.440900 0.608730 -0.010140
C201 C 1.147600 -0.073620 0.448140
C202 C 1.202600 0.036130 0.458980
C203 C 0.702600 0.463870 -0.041020
C204 C 0.940900 -0.108730 0.489860
C205 C 0.647600 0.573620 -0.051860
C206 C 0.223900 1.449750 0.754240
C207 C 0.798500 0.743120 -0.097540
C208 C 0.540700 0.314310 0.654060
C209 C 0.563200 0.428130 0.648660
C210 C 0.404800 0.494630 0.698910
C211 C 0.711900 1.080050 -0.091690
C212 C 0.223900 0.449750 0.754240
C213 C 1.142900 0.771320 -0.211550
C214 C 0.199300 0.337730 0.761020
C215 C 1.300700 0.837730 -0.261020
C216 C 0.357100 0.271320 0.711550
C217 C 1.276100 0.949750 -0.254240
C218 C 0.788100 0.580050 0.591690
C219 C 1.095200 0.994630 -0.198910
C220 C 0.936800 0.928130 -0.148660
C221 C 0.959300 0.814310 -0.154060
C222 C 0.701500 0.243120 0.597540
C223 C 1.059100 1.108730 0.510140
C224 C 0.852400 0.073620 0.551860
C225 C 0.797400 -0.036130 0.541020
C226 C 0.559100 0.391270 0.010140
C227 C 1.059100 0.108730 0.510140
C228 C 0.297400 0.536130 0.041020
C229 C 0.404800 1.494630 0.698910
C230 C 0.563200 1.428130 0.648660
C231 C 1.459300 0.685690 0.345940
C232 C 1.436800 0.571870 0.351340
C233 C 1.595200 0.505370 0.301090
C234 C 0.352400 0.426380 0.051860
C235 C 1.776100 0.550250 0.245760
C236 C 0.201500 0.256880 0.097540
C237 C 1.800700 0.662270 0.238980
C238 C 0.288100 -0.080050 0.091690
C239 C 1.642900 0.728680 0.288450
C240 C -0.142900 0.228680 0.211550
C241 C 1.211900 0.419950 0.408310
C242 C -0.300700 0.162270 0.261020
C243 C -0.276100 0.050250 0.254240
C244 C -0.095200 0.005370 0.198910
C245 C 1.298500 0.756880 0.402460
C246 C 0.063200 0.071870 0.148660
C247 C 1.147600 0.926380 0.448140
C248 C 1.202600 1.036130 0.458980
C249 C -0.776100 0.449750 0.754240
C250 C 0.940900 0.891270 0.489860
C251 C 0.040700 0.185690 0.154060
C252 C 0.540700 1.314310 0.654060
N253 N -0.306140 0.140310 0.607390
N254 N 1.306140 0.859690 0.392610
N255 N 0.193860 0.359690 0.107390
N256 N 0.693860 0.140310 0.607390
N257 N 0.806140 0.640310 -0.107390
N258 N 1.306140 -0.140310 0.392610
N259 N 0.193860 0.359690 1.107390
N260 N -0.306140 1.140310 0.607390
N261 N 0.806140 0.640310 0.892610
N262 N 0.306140 0.859690 0.392610
N263 N 0.306140 -0.140310 0.392610
N264 N 0.693860 1.140310 0.607390
O265 O 0.254530 -0.465460 0.408790
O266 O -0.254530 0.465460 0.591210
O267 O 0.754530 0.965460 0.908790
O268 O 0.254530 0.534540 0.408790
O269 O 0.245470 0.034540 1.091210
O270 O -0.254530 1.465460 0.591210
O271 O 0.754530 0.965460 -0.091210
O272 O 1.254530 -0.465460 0.408790
O273 O 0.245470 0.034540 0.091210
O274 O 0.745470 0.465460 0.591210
O275 O 1.254530 0.534540 0.408790
O276 O 0.745470 1.465460 0.591210

#END
