./LICFOU_from_POSCAR.cif_generated_by_CrystalShift
_symmetry_cell_setting triclinic
_symmetry_space_group_name_H-M 'P 1'
loop_
_symmetry_equiv_pos_site_id
_symmetry_equiv_pos_as_xyz
1 x,y,z
_cell_length_a 19.935600
_cell_length_b 12.438900
_cell_length_c 9.599200
_cell_angle_alpha 90.000000
_cell_angle_beta 90.524000
_cell_angle_gamma 90.000000
_cell_volume 2380.280645
loop_
_atom_site_label
_atom_site_type_symbol
_atom_site_fract_x
_atom_site_fract_y
_atom_site_fract_z
H1 H 0.849000 0.490000 0.523000
H2 H 0.633400 0.106700 1.506600
H3 H 0.935500 0.480100 0.319100
H4 H 0.543300 0.185900 1.402300
H5 H 1.035500 0.473600 0.205500
H6 H 0.543800 0.216200 1.164100
H7 H 0.968600 0.230100 -0.027000
H8 H 0.633500 0.167800 1.033100
H9 H 0.868900 0.234800 0.091800
H10 H 0.794400 0.306400 0.264100
H11 H 0.645300 0.406700 0.268300
H12 H 0.582100 0.538400 0.161300
H13 H 0.837900 -0.021100 1.367600
H14 H 0.685000 0.763000 0.370000
H15 H 0.747900 0.028300 1.493700
H16 H 0.746400 0.629700 0.476900
H17 H 0.725300 0.345900 0.428700
H18 H 0.725300 0.154100 0.928700
H19 H 0.747900 0.471700 0.993700
H20 H 0.837900 0.521100 0.867600
H21 H 0.746400 -0.129700 0.976900
H22 H 0.633500 0.332200 0.533100
H23 H 0.685000 -0.263000 0.870000
H24 H 0.543800 0.283800 0.664100
H25 H 0.543300 0.314100 0.902300
H26 H 0.582100 -0.038400 0.661300
H27 H 0.633400 0.393300 1.006600
H28 H 0.645300 0.093300 0.768300
H29 H 0.151000 0.990000 -0.023000
H30 H 0.794400 0.193600 0.764100
H31 H 0.638000 0.871700 0.194900
H32 H 0.498800 0.874200 0.142200
H33 H 0.868900 0.265200 0.591800
H34 H 0.541900 0.979500 0.151400
H35 H 0.968600 0.269900 0.473000
H36 H -0.166500 0.758700 0.723100
H37 H -0.187000 0.801600 0.575200
H38 H 1.035500 0.026400 0.705500
H39 H -0.156500 0.880400 0.686300
H40 H 0.935500 0.019900 0.819100
H41 H -0.053700 0.794100 0.673000
H42 H 0.584700 -0.360500 0.814100
H43 H 0.638000 -0.371700 0.694900
H44 H -0.084000 0.710400 0.566600
H45 H 0.498800 -0.374200 0.642200
H46 H 0.541900 -0.479500 0.651400
H47 H 0.554100 -0.396900 0.530900
H48 H 0.445900 1.396900 0.469100
H49 H 1.084000 0.289600 0.433400
H50 H 1.053700 0.205900 0.327000
H51 H 0.458100 1.479500 0.348600
H52 H 1.156500 0.119600 0.313700
H53 H 1.187000 0.198400 0.424800
H54 H 1.166500 0.241300 0.276900
H55 H 1.166500 0.258700 -0.223100
H56 H 1.187000 0.301600 -0.075200
H57 H 1.156500 0.380400 -0.186300
H58 H 0.501200 1.374200 0.357800
H59 H 0.849000 0.010000 1.023000
H60 H 0.362000 1.371700 0.305100
H61 H 0.366600 0.606700 -0.006600
H62 H 0.415300 1.360500 0.185900
H63 H 0.456700 0.685900 0.097700
H64 H 0.064500 0.980100 0.180900
H65 H 0.456200 0.716200 0.335900
H66 H -0.035500 0.973600 0.294500
H67 H 0.366500 0.667800 0.466900
H68 H 0.031400 0.730100 0.527000
H69 H 0.131100 0.734800 0.408200
H70 H 0.205600 0.806400 0.235900
H71 H 0.354700 0.906700 0.231700
H72 H 0.162100 0.478900 0.132400
H73 H 0.417900 1.038400 0.338700
H74 H 0.252100 0.528300 0.006300
H75 H 0.315000 1.263000 0.130000
H76 H 0.253600 1.129700 0.023100
H77 H 0.274700 0.654100 0.571300
H78 H 0.274700 0.845900 0.071300
H79 H 0.252100 0.971700 -0.493700
H80 H 0.253600 0.370300 0.523100
H81 H 0.162100 1.021100 -0.367600
H82 H 0.315000 0.237000 0.630000
H83 H 0.366500 0.832200 -0.033100
H84 H 0.456200 0.783800 -0.164100
H85 H 0.417900 0.461600 0.838700
H86 H 0.456700 0.814100 -0.402300
H87 H 0.354700 0.593300 0.731700
H88 H 0.366600 0.893300 -0.506600
H89 H 0.205600 0.693600 0.735900
H90 H 0.151000 0.510000 0.477000
H91 H 0.554100 0.896900 0.030900
H92 H 0.131100 0.765200 0.908200
H93 H 1.084000 0.210400 -0.066600
H94 H 0.031400 0.769900 1.027000
H95 H 1.053700 0.294100 -0.173000
H96 H -0.166500 0.741300 1.223100
H97 H -0.035500 0.526400 0.794500
H98 H -0.187000 0.698400 1.075200
H99 H 0.064500 0.519900 0.680900
H100 H -0.156500 0.619600 1.186300
H101 H 0.415300 0.139500 0.685900
H102 H 0.362000 0.128300 0.805100
H103 H 0.584700 0.860500 0.314100
H104 H 0.501200 0.125800 0.857800
H105 H 0.458100 0.020500 0.848600
H106 H 0.445900 0.103100 0.969100
H107 H -0.053700 0.705900 1.173000
H108 H -0.084000 0.789600 1.066600
C109 C -0.086480 0.715700 1.098700
C110 C 0.457600 0.095400 0.872800
C111 C 0.406910 0.152900 0.783800
C112 C 0.058010 0.571200 0.749900
C113 C -0.001620 0.574400 0.818800
C114 C -0.012100 0.647600 0.923400
C115 C 0.037790 0.719500 0.956800
C116 C 1.086480 0.284300 -0.098700
C117 C 0.097570 0.716200 0.885100
C118 C 0.109030 0.643300 0.781300
C119 C 0.365800 0.880400 -0.411200
C120 C 0.173250 0.643900 0.708500
C121 C 0.419740 0.833900 -0.349700
C122 C 0.346540 0.521500 0.710400
C123 C 0.419240 0.815900 -0.207000
C124 C 0.384490 0.442600 0.775000
C125 C 0.365320 0.844800 -0.128600
C126 C 0.372890 0.335900 0.745000
C127 C 0.307760 0.893300 -0.188700
C128 C 0.251350 0.927100 -0.107900
C129 C 0.198250 0.975400 -0.177700
C130 C 0.198960 0.990000 -0.323000
C131 C 0.323530 0.308800 0.650800
C132 C 0.252210 0.959600 -0.398100
C133 C 0.286700 0.389200 0.587400
C134 C 0.308100 0.910000 -0.335400
C135 C 0.254500 0.915600 0.048800
C136 C 0.297100 0.496200 0.615800
C137 C 0.297100 1.003800 0.115800
C138 C 0.286700 1.110800 0.087400
C139 C 0.254500 0.584400 0.548800
C140 C 0.323530 1.191200 0.150800
C141 C 0.308100 0.590000 0.164600
C142 C 0.372890 1.164100 0.245000
C143 C 0.384490 1.057400 0.275000
C144 C 0.252210 0.540400 0.101900
C145 C 0.346540 0.978500 0.210400
C146 C 0.198960 0.510000 0.177000
C147 C 0.173250 0.856100 0.208500
C148 C 0.198250 0.524600 0.322300
C149 C 0.109030 0.856700 0.281300
C150 C 0.097570 0.783800 0.385100
C151 C 0.251350 0.572900 0.392100
C152 C 0.037790 0.780500 0.456800
C153 C 0.307760 0.606700 0.311300
C154 C -0.012100 0.852400 0.423400
C155 C -0.001620 0.925600 0.318800
C156 C 0.365320 0.655200 0.371400
C157 C 0.058010 0.928800 0.249900
C158 C 0.419240 0.684100 0.293000
C159 C 0.406910 1.347100 0.283800
C160 C 0.419740 0.666100 0.150300
C161 C 0.365800 0.619600 0.088800
C162 C 0.457600 1.404600 0.372800
C163 C 1.155300 0.308400 -0.150400
C164 C 1.155300 0.191600 0.349600
C165 C 1.086480 0.215700 0.401300
C166 C -0.086480 0.784300 0.598700
C167 C 0.542400 -0.404600 0.627200
C168 C 0.593090 -0.347100 0.716200
C169 C -0.155300 0.808400 0.650400
C170 C 0.941990 0.071200 0.750100
C171 C 1.001620 0.074400 0.681200
C172 C 1.012100 0.147600 0.576600
C173 C 0.962210 0.219500 0.543200
C174 C 0.902430 0.216200 0.614900
C175 C 0.542400 0.904600 0.127200
C176 C 0.890970 0.143300 0.718700
C177 C 0.826750 0.143900 0.791500
C178 C 0.634200 0.380400 0.911200
C179 C 0.653460 0.021500 0.789600
C180 C 0.580260 0.333900 0.849700
C181 C 0.615510 -0.057400 0.725000
C182 C 0.580760 0.315900 0.707000
C183 C 0.627110 -0.164100 0.755000
C184 C 0.634680 0.344800 0.628600
C185 C 0.676470 -0.191200 0.849200
C186 C 0.692240 0.393300 0.688700
C187 C 0.748650 0.427100 0.607900
C188 C 0.801750 0.475400 0.677700
C189 C 0.801040 0.490000 0.823000
C190 C 0.713300 -0.110800 0.912600
C191 C 0.747790 0.459600 0.898100
C192 C 0.702900 -0.003800 0.884200
C193 C 0.691900 0.410000 0.835400
C194 C 0.745500 0.415600 0.451200
C195 C 0.745500 0.084400 0.951200
C196 C 0.702900 0.503800 0.384200
C197 C 0.713300 0.610800 0.412600
C198 C 0.691900 0.090000 1.335400
C199 C 0.676470 0.691200 0.349200
C200 C 0.747790 0.040400 1.398100
C201 C 0.627110 0.664100 0.255000
C202 C 0.615510 0.557400 0.225000
C203 C 0.801040 0.010000 1.323000
C204 C 0.653460 0.478500 0.289600
C205 C 0.801750 0.024600 1.177700
C206 C 0.826750 0.356100 0.291500
C207 C 0.748650 0.072900 1.107900
C208 C 0.890970 0.356700 0.218700
C209 C 0.902430 0.283800 0.114900
C210 C 0.692240 0.106700 1.188700
C211 C 0.962210 0.280500 0.043200
C212 C 0.634680 0.155200 1.128600
C213 C 1.012100 0.352400 0.076600
C214 C 1.001620 0.425600 0.181200
C215 C 0.580760 0.184100 1.207000
C216 C 0.941990 0.428800 0.250100
C217 C 0.580260 0.166100 1.349700
C218 C 0.593090 0.847100 0.216200
C219 C -0.155300 0.691600 1.150400
C220 C 0.634200 0.119600 1.411200
N221 N 0.813190 0.080380 0.889400
N222 N 0.186810 0.580380 0.610600
N223 N 0.186810 0.919620 0.110600
N224 N 0.813190 0.419620 0.389400
O225 O -0.073000 0.643740 0.986700
O226 O 0.142840 1.013700 -0.112200
O227 O 1.073000 0.143740 0.513300
O228 O 0.586570 -0.236160 0.686400
O229 O 0.857160 -0.013700 1.112200
O230 O 0.413430 1.236160 0.313600
O231 O 0.142840 0.486300 0.387800
O232 O 0.413430 0.263840 0.813600
O233 O 0.857160 0.513700 0.612200
O234 O 0.586570 0.736160 0.186400
O235 O 1.073000 0.356260 0.013300
O236 O -0.073000 0.856260 0.486700

#END
