./LICGAH_from_POSCAR.cif_generated_by_CrystalShift
_symmetry_cell_setting triclinic
_symmetry_space_group_name_H-M 'P 1'
loop_
_symmetry_equiv_pos_site_id
_symmetry_equiv_pos_as_xyz
1 x,y,z
_cell_length_a 14.101100
_cell_length_b 5.721600
_cell_length_c 22.252000
_cell_angle_alpha 90.000000
_cell_angle_beta 104.247000
_cell_angle_gamma 90.000000
_cell_volume 1740.093428
loop_
_atom_site_label
_atom_site_type_symbol
_atom_site_fract_x
_atom_site_fract_y
_atom_site_fract_z
H1 H 0.617000 0.614000 0.670900
H2 H 0.126600 0.399200 0.461400
H3 H 0.551200 0.620800 0.548500
H4 H 0.041500 0.696900 0.492100
H5 H 0.498500 0.982700 0.631100
H6 H -0.036400 0.973300 0.421500
H7 H 0.388200 0.375800 0.650400
H8 H -0.029400 0.955300 0.320400
H9 H 0.221200 0.378000 0.616400
H10 H 0.131700 0.685600 0.641400
H11 H 0.212500 0.992700 0.698800
H12 H 0.380200 0.991800 0.732100
H13 H 0.203000 0.190800 0.279000
H14 H 0.530700 0.517200 0.735100
H15 H 0.191600 0.210700 0.379400
H16 H 0.691600 1.289300 0.879400
H17 H 0.703000 1.309200 0.779000
H18 H 0.030700 0.982800 0.235100
H19 H 0.470600 0.544700 0.820400
H20 H 0.463600 0.526700 0.921500
H21 H -0.119800 0.508200 0.232100
H22 H 0.541500 0.803100 0.992100
H23 H -0.287500 0.507300 0.198800
H24 H 0.626600 1.100800 0.961400
H25 H -0.368300 0.814400 0.141400
H26 H 0.883000 0.114000 0.829100
H27 H -0.278800 1.122000 0.116400
H28 H 0.696200 0.961600 0.442100
H29 H -0.111800 1.124200 0.150400
H30 H 0.831900 0.743700 0.898700
H31 H -0.001500 0.517300 0.131100
H32 H 0.776700 0.764300 0.987900
H33 H 0.803800 0.461600 1.057900
H34 H 0.051200 0.879200 0.048500
H35 H 0.891300 0.139600 1.039700
H36 H 0.108700 0.860400 -0.039700
H37 H 0.948800 0.120800 0.951500
H38 H 0.196200 0.538400 -0.057900
H39 H 1.001500 0.482700 0.868900
H40 H 0.223300 0.235700 0.012100
H41 H 1.111800 -0.124200 0.849600
H42 H 0.168100 0.256300 0.101300
H43 H 0.668100 1.243700 0.601300
H44 H 1.278800 -0.122000 0.883600
H45 H 0.117000 0.886000 0.170900
H46 H 1.368300 0.185600 0.858600
H47 H 0.373400 -0.100800 0.038600
H48 H 1.287500 0.492700 0.801200
H49 H 0.458500 0.196900 0.007900
H50 H 1.119800 0.491800 0.767900
H51 H 0.536400 0.473300 0.078500
H52 H 0.969300 0.017200 0.764900
H53 H 0.529400 0.455300 0.179600
H54 H 0.808400 0.789300 0.620600
H55 H 0.797000 0.809200 0.721000
H56 H 1.029400 0.044700 0.679600
H57 H 1.036400 0.026700 0.578500
H58 H 0.297000 -0.309200 0.221000
H59 H 0.958500 0.303100 0.507900
H60 H 0.308400 -0.289300 0.120600
H61 H 0.873400 0.600800 0.538600
H62 H 0.383000 0.386000 0.329100
H63 H 0.469300 0.482800 0.264900
H64 H 0.723300 1.264300 0.512100
H65 H 0.331900 -0.243700 0.398700
H66 H 0.619800 0.008200 0.267900
H67 H 0.608700 0.639600 0.460300
H68 H 0.787500 0.007300 0.301200
H69 H 0.276700 -0.264300 0.487900
H70 H 0.868300 0.314400 0.358600
H71 H 0.303800 0.038400 0.557900
H72 H 0.778800 0.622000 0.383600
H73 H 0.391300 0.360400 0.539700
H74 H 0.611800 0.624200 0.349600
H75 H 0.448800 0.379200 0.451500
H76 H 0.501500 0.017300 0.368900
C77 C 0.396310 0.070500 0.415500
C78 C 0.413500 0.248900 0.458330
C79 C 0.435840 0.086400 0.358680
C80 C 0.379200 0.237800 0.511390
C81 C 0.646800 0.498300 0.339630
C82 C 0.327400 0.046300 0.522390
C83 C 0.747000 0.498000 0.359930
C84 C 0.310900 -0.132800 0.480450
C85 C 0.800400 0.314700 0.345360
C86 C 0.752100 0.132500 0.311080
C87 C 0.651420 0.133400 0.291100
C88 C 0.596600 0.317200 0.304940
C89 C 0.689100 1.132800 0.519550
C90 C 0.485770 0.328900 0.283920
C91 C 0.903800 0.488800 0.567220
C92 C 0.396400 -0.003400 0.129440
C93 C 0.954900 0.312500 0.549030
C94 C 0.341100 -0.179600 0.149150
C95 C 1.001600 0.146700 0.591390
C96 C 0.334350 -0.192700 0.208850
C97 C 0.997180 0.157300 0.651860
C98 C 0.384470 -0.028000 0.252200
C99 C 0.944630 0.335700 0.673150
C100 C 0.938720 0.350500 0.736150
C101 C 0.884470 0.528000 0.752200
C102 C 0.834350 0.692700 0.708850
C103 C 0.438720 0.149500 0.236150
C104 C 0.841100 0.679600 0.649150
C105 C 0.444630 0.164300 0.173150
C106 C 0.896400 0.503400 0.629440
C107 C 0.985770 0.171100 0.783920
C108 C 0.497180 0.342700 0.151860
C109 C 1.096600 0.182800 0.804940
C110 C 1.151420 0.366600 0.791100
C111 C 0.501600 0.353300 0.091390
C112 C 1.252100 0.367500 0.811080
C113 C 0.454900 0.187500 0.049030
C114 C 1.300400 0.185300 0.845360
C115 C 0.403800 0.011200 0.067220
C116 C 1.247000 0.002000 0.859930
C117 C 0.655500 1.121100 0.572960
C118 C 1.146800 0.001700 0.839630
C119 C 0.155500 0.378900 0.072960
C120 C 0.935840 0.413600 0.858680
C121 C 0.189100 0.367200 0.019550
C122 C 0.896310 0.429500 0.915500
C123 C 0.913500 0.251100 0.958330
C124 C 0.172600 0.546300 -0.022390
C125 C 0.879200 0.262200 1.011390
C126 C 0.120800 0.737800 -0.011390
C127 C 0.827400 0.453700 1.022390
C128 C 0.086500 0.748900 0.041670
C129 C 0.810900 0.632800 0.980450
C130 C 0.103690 0.570500 0.084500
C131 C 0.844500 0.621100 0.927040
C132 C 0.064160 0.586400 0.141320
C133 C -0.146800 0.998300 0.160370
C134 C 0.672600 0.953700 0.477610
C135 C -0.247000 0.998000 0.140070
C136 C 0.596200 0.988800 0.932780
C137 C -0.300400 0.814700 0.154640
C138 C 0.545100 0.812500 0.950970
C139 C -0.252100 0.632500 0.188920
C140 C 0.498400 0.646700 0.908610
C141 C -0.151420 0.633400 0.208900
C142 C 0.502820 0.657300 0.848140
C143 C -0.096600 0.817200 0.195060
C144 C 0.555370 0.835700 0.826850
C145 C 0.561280 0.850500 0.763850
C146 C 0.615530 1.028000 0.747800
C147 C 0.665650 1.192700 0.791150
C148 C 0.014230 0.828900 0.216080
C149 C 0.658900 1.179600 0.850850
C150 C 0.103600 0.496600 0.370560
C151 C 0.603600 1.003400 0.870560
C152 C 0.514230 0.671100 0.716080
C153 C 0.158900 0.320400 0.350850
C154 C 0.403400 0.682800 0.695060
C155 C 0.348580 0.866600 0.708900
C156 C 0.165650 0.307300 0.291150
C157 C 0.247900 0.867500 0.688920
C158 C 0.115530 0.472000 0.247800
C159 C 0.199600 0.685300 0.654640
C160 C 0.061280 0.649500 0.263850
C161 C 0.253000 0.502000 0.640070
C162 C 0.055370 0.664300 0.326850
C163 C 0.353200 0.501700 0.660370
C164 C 0.002820 0.842700 0.348140
C165 C 0.564160 0.913600 0.641320
C166 C -0.001600 0.853300 0.408610
C167 C 0.603690 0.929500 0.584500
C168 C 0.586500 0.751100 0.541670
C169 C 0.045100 0.687500 0.450970
C170 C 0.620800 0.762200 0.488610
C171 C 0.344500 -0.121100 0.427040
C172 C 0.096200 0.511200 0.432780
N173 N 0.555620 0.680500 0.661200
N174 N 0.444380 0.319500 0.338800
N175 N 0.055620 0.819500 0.161200
N176 N 0.944380 0.180500 0.838800
O177 O 0.126720 0.439300 0.188530
O178 O 0.373280 -0.060700 0.311470
O179 O 0.626720 1.060700 0.688530
O180 O 0.873280 0.560700 0.811470

#END
