./LICGOU_from_POSCAR.cif_generated_by_CrystalShift
_symmetry_cell_setting triclinic
_symmetry_space_group_name_H-M 'P 1'
loop_
_symmetry_equiv_pos_site_id
_symmetry_equiv_pos_as_xyz
1 x,y,z
_cell_length_a 12.471700
_cell_length_b 5.085900
_cell_length_c 21.041200
_cell_angle_alpha 90.000000
_cell_angle_beta 105.243000
_cell_angle_gamma 90.000000
_cell_volume 1287.686159
loop_
_atom_site_label
_atom_site_type_symbol
_atom_site_fract_x
_atom_site_fract_y
_atom_site_fract_z
H1 H 0.435000 1.149000 0.741200
H2 H 0.230500 0.796100 0.584300
H3 H 0.173700 0.504800 0.653800
H4 H 0.248000 0.533500 0.767000
H5 H 0.425000 1.225600 0.846200
H6 H 0.530300 1.045000 0.848800
H7 H 0.130200 0.987100 0.796800
H8 H 0.003700 0.664100 0.802000
H9 H -0.029100 0.554300 0.901000
H10 H 0.067800 0.764600 0.995700
H11 H 0.198400 1.087400 0.992000
H12 H 0.290600 1.416700 0.972800
H13 H 0.363100 1.519500 0.926400
H14 H 0.565000 0.851000 1.258800
H15 H 0.641600 0.881000 1.372300
H16 H 0.769500 1.203900 1.415700
H17 H 0.826300 1.495200 1.346200
H18 H 0.752000 1.466500 1.233000
H19 H 0.575000 0.774400 1.153800
H20 H 0.363100 -0.019500 0.426400
H21 H 0.290600 0.083300 0.472800
H22 H 0.198400 0.412600 0.492000
H23 H 0.067800 0.735400 0.495700
H24 H -0.029100 0.945700 0.401000
H25 H 0.003700 0.835900 0.302000
H26 H 0.130200 0.512900 0.296800
H27 H 0.530300 0.455000 0.348800
H28 H 0.425000 0.274400 0.346200
H29 H 0.248000 0.966500 0.267000
H30 H 0.173700 0.995200 0.153800
H31 H 0.230500 0.703900 0.084300
H32 H 0.358400 0.381000 0.127700
H33 H 0.435000 0.351000 0.241200
H34 H 0.469700 0.955000 1.151200
H35 H 0.869800 1.012900 1.203200
H36 H 0.996300 1.335900 1.198000
H37 H 1.029100 1.445700 1.099000
H38 H 0.932200 1.235400 1.004300
H39 H 0.801600 0.912600 1.008000
H40 H 0.709400 0.583300 1.027200
H41 H 0.636900 0.480500 1.073600
H42 H 0.435000 1.149000 -0.258800
H43 H 0.358400 1.119000 -0.372300
H44 H 0.230500 0.796100 -0.415700
H45 H 0.173700 0.504800 -0.346200
H46 H 0.248000 0.533500 -0.233000
H47 H 0.425000 1.225600 -0.153800
H48 H 0.530300 1.045000 -0.151200
H49 H 0.130200 0.987100 -0.203200
H50 H 0.003700 0.664100 -0.198000
H51 H -0.029100 0.554300 -0.099000
H52 H 0.067800 0.764600 -0.004300
H53 H 0.636900 1.019500 0.573600
H54 H 0.709400 0.916700 0.527200
H55 H 0.801600 0.587400 0.508000
H56 H 0.932200 0.264600 0.504300
H57 H 1.029100 0.054300 0.599000
H58 H 0.996300 0.164100 0.698000
H59 H 0.869800 0.487100 0.703200
H60 H 0.469700 0.545000 0.651200
H61 H 0.575000 0.725600 0.653800
H62 H 0.752000 0.033500 0.733000
H63 H 0.826300 0.004800 0.846200
H64 H 0.769500 0.296100 0.915700
H65 H 0.641600 0.619000 0.872300
H66 H 0.565000 0.649000 0.758800
H67 H 0.198400 1.087400 -0.008000
H68 H 0.290600 1.416700 -0.027200
H69 H 0.363100 1.519500 -0.073600
H70 H 0.565000 0.851000 0.258800
H71 H 0.641600 0.881000 0.372300
H72 H 0.769500 1.203900 0.415700
H73 H 0.826300 1.495200 0.346200
H74 H 0.752000 1.466500 0.233000
H75 H 0.575000 0.774400 0.153800
H76 H 0.469700 0.955000 0.151200
H77 H 0.869800 1.012900 0.203200
H78 H 0.996300 1.335900 0.198000
H79 H 1.029100 1.445700 0.099000
H80 H 0.932200 1.235400 0.004300
H81 H 0.801600 0.912600 0.008000
H82 H 0.709400 0.583300 0.027200
H83 H 0.636900 0.480500 0.073600
H84 H 0.435000 0.149000 0.741200
H85 H 0.358400 0.119000 0.627700
H86 H 0.636900 -0.519500 0.073600
H87 H 0.709400 -0.416700 0.027200
H88 H 0.801600 -0.087400 0.008000
H89 H 0.932200 0.235400 0.004300
H90 H 1.029100 0.445700 0.099000
H91 H 0.996300 0.335900 0.198000
H92 H 0.869800 0.012900 0.203200
H93 H 0.469700 -0.045000 0.151200
H94 H 0.575000 -0.225600 0.153800
H95 H 0.752000 0.466500 0.233000
H96 H 0.826300 0.495200 0.346200
H97 H 0.769500 0.203900 0.415700
H98 H 0.641600 -0.119000 0.372300
H99 H 0.565000 -0.149000 0.258800
H100 H 0.230500 -0.203900 0.584300
H101 H 0.173700 -0.495200 0.653800
H102 H 0.248000 -0.466500 0.767000
H103 H 0.425000 0.225600 0.846200
H104 H 0.530300 0.045000 0.848800
H105 H 0.130200 -0.012900 0.796800
H106 H 0.003700 -0.335900 0.802000
H107 H -0.029100 -0.445700 0.901000
H108 H 0.067800 -0.235400 0.995700
H109 H 0.198400 0.087400 0.992000
H110 H 0.290600 0.416700 0.972800
H111 H 0.363100 0.519500 0.926400
H112 H 0.565000 -0.149000 1.258800
H113 H 0.641600 -0.119000 1.372300
H114 H 0.769500 0.203900 1.415700
H115 H 0.826300 0.495200 1.346200
H116 H 0.752000 0.466500 1.233000
H117 H 0.575000 -0.225600 1.153800
H118 H 0.469700 -0.045000 1.151200
H119 H 0.363100 0.519500 -0.073600
H120 H 0.290600 0.416700 -0.027200
H121 H 0.198400 0.087400 -0.008000
H122 H 0.067800 -0.235400 -0.004300
H123 H -0.029100 -0.445700 -0.099000
H124 H 0.003700 -0.335900 -0.198000
H125 H 0.130200 -0.012900 -0.203200
H126 H 0.530300 0.045000 -0.151200
H127 H 0.425000 0.225600 -0.153800
H128 H 0.248000 -0.466500 -0.233000
H129 H 0.173700 -0.495200 -0.346200
H130 H 0.230500 -0.203900 -0.415700
H131 H 0.358400 0.119000 -0.372300
H132 H 0.435000 0.149000 -0.258800
H133 H 0.869800 0.012900 1.203200
H134 H 0.996300 0.335900 1.198000
H135 H 1.029100 0.445700 1.099000
H136 H 0.932200 0.235400 1.004300
H137 H 0.801600 -0.087400 1.008000
H138 H 0.709400 -0.416700 1.027200
H139 H 0.636900 -0.519500 1.073600
H140 H 0.358400 1.119000 0.627700
C141 C 0.919000 0.190000 1.044900
C142 C 0.976700 0.315300 1.101000
C143 C 0.957400 0.249500 1.159300
C144 C 0.881800 0.058100 1.162340
C145 C 0.540000 -0.056200 1.138780
C146 C 0.652300 0.156500 1.235270
C147 C 0.729300 0.347600 1.261150
C148 C 0.773400 0.364900 1.328530
C149 C 0.739900 0.191200 1.369880
C150 C 0.663500 0.000400 1.344010
C151 C 0.618100 -0.019000 1.276360
C152 C 0.823300 -0.068700 1.106320
C153 C 0.671200 -0.362700 1.060280
C154 C 0.520000 -0.029800 1.065530
C155 C 0.581300 -0.167700 1.029620
C156 C 0.418700 0.332300 0.470380
C157 C 0.480000 0.470200 0.434470
C158 C 0.328800 0.137300 0.439720
C159 C 0.381900 0.019000 -0.276360
C160 C 0.336500 -0.000400 -0.344010
C161 C 0.260100 -0.191200 -0.369880
C162 C 0.226600 -0.364900 -0.328530
C163 C 0.270700 -0.347600 -0.261150
C164 C 0.347700 -0.156500 -0.235270
C165 C 0.460000 0.056200 -0.138780
C166 C 0.176700 0.431300 0.393680
C167 C 0.158700 0.496900 0.453170
C168 C 0.081000 0.690000 0.455100
C169 C 0.418700 0.167700 0.970380
C170 C 0.480000 0.029800 0.934470
C171 C 0.328800 0.362700 0.939720
C172 C 0.176700 0.068700 0.893680
C173 C 0.158700 0.003100 0.953170
C174 C 0.081000 -0.190000 0.955100
C175 C 0.023300 -0.315300 0.899000
C176 C 0.042600 -0.249500 0.840700
C177 C 0.118200 -0.058100 0.837660
C178 C 0.460000 0.056200 0.861220
C179 C 0.347700 -0.156500 0.764730
C180 C 0.270700 -0.347600 0.738850
C181 C 0.226600 -0.364900 0.671470
C182 C 0.260100 -0.191200 0.630120
C183 C 0.336500 -0.000400 0.655990
C184 C 0.381900 0.019000 0.723640
C185 C 0.118200 -0.058100 -0.162340
C186 C 0.042600 -0.249500 -0.159300
C187 C 0.023300 -0.315300 -0.101000
C188 C 0.081000 -0.190000 -0.044900
C189 C 0.158700 0.003100 -0.046830
C190 C 0.176700 0.068700 -0.106320
C191 C 0.328800 0.362700 -0.060280
C192 C 0.480000 0.029800 -0.065530
C193 C 0.418700 0.167700 -0.029620
C194 C 0.023300 0.815300 0.399000
C195 C 0.042600 0.749500 0.340700
C196 C 0.118200 0.558100 0.337660
C197 C 0.618100 -0.019000 0.276360
C198 C 0.663500 0.000400 0.344010
C199 C 0.460000 0.443800 0.361220
C200 C 0.381900 1.019000 0.723640
C201 C 0.336500 0.999600 0.655990
C202 C 0.581300 0.832300 0.029620
C203 C 0.520000 0.970200 0.065530
C204 C 0.671200 0.637300 0.060280
C205 C 0.823300 0.931300 0.106320
C206 C 0.841300 0.996900 0.046830
C207 C 0.919000 1.190000 0.044900
C208 C 0.976700 1.315300 0.101000
C209 C 0.957400 1.249500 0.159300
C210 C 0.881800 1.058100 0.162340
C211 C 0.540000 0.943800 0.138780
C212 C 0.652300 1.156500 0.235270
C213 C 0.729300 1.347600 0.261150
C214 C 0.773400 1.364900 0.328530
C215 C 0.739900 1.191200 0.369880
C216 C 0.663500 1.000400 0.344010
C217 C 0.618100 0.981000 0.276360
C218 C 0.739900 0.191200 0.369880
C219 C 0.773400 0.364900 0.328530
C220 C 0.729300 0.347600 0.261150
C221 C 0.652300 0.156500 0.235270
C222 C 0.540000 -0.056200 0.138780
C223 C 0.881800 0.058100 0.162340
C224 C 0.957400 0.249500 0.159300
C225 C 0.976700 0.315300 0.101000
C226 C 0.919000 0.190000 0.044900
C227 C 0.841300 -0.003100 0.046830
C228 C 0.823300 -0.068700 0.106320
C229 C 0.671200 -0.362700 0.060280
C230 C 0.520000 -0.029800 0.065530
C231 C 0.581300 -0.167700 0.029620
C232 C 0.260100 0.808800 0.630120
C233 C 0.226600 0.635100 0.671470
C234 C 0.270700 0.652400 0.738850
C235 C 0.418700 1.167700 -0.029620
C236 C 0.480000 1.029800 -0.065530
C237 C 0.328800 1.362700 -0.060280
C238 C 0.176700 1.068700 -0.106320
C239 C 0.158700 1.003100 -0.046830
C240 C 0.081000 0.810000 -0.044900
C241 C 0.023300 0.684700 -0.101000
C242 C 0.042600 0.750500 -0.159300
C243 C 0.118200 0.941900 -0.162340
C244 C 0.460000 1.056200 -0.138780
C245 C 0.347700 0.843500 -0.235270
C246 C 0.270700 0.652400 -0.261150
C247 C 0.226600 0.635100 -0.328530
C248 C 0.260100 0.808800 -0.369880
C249 C 0.336500 0.999600 -0.344010
C250 C 0.381900 1.019000 -0.276360
C251 C 0.347700 0.843500 0.764730
C252 C 0.460000 1.056200 0.861220
C253 C 0.118200 0.941900 0.837660
C254 C 0.618100 0.519000 0.776360
C255 C 0.663500 0.499600 0.844010
C256 C 0.739900 0.308800 0.869880
C257 C 0.773400 0.135100 0.828530
C258 C 0.729300 0.152400 0.761150
C259 C 0.652300 0.343500 0.735270
C260 C 0.540000 0.556200 0.638780
C261 C 0.881800 0.441900 0.662340
C262 C 0.957400 0.250500 0.659300
C263 C 0.976700 0.184700 0.601000
C264 C 0.919000 0.310000 0.544900
C265 C 0.042600 0.750500 0.840700
C266 C 0.023300 0.684700 0.899000
C267 C 0.081000 0.810000 0.955100
C268 C 0.581300 0.832300 1.029620
C269 C 0.520000 0.970200 1.065530
C270 C 0.671200 0.637300 1.060280
C271 C 0.823300 0.931300 1.106320
C272 C 0.841300 0.996900 1.046830
C273 C 0.919000 1.190000 1.044900
C274 C 0.976700 1.315300 1.101000
C275 C 0.957400 1.249500 1.159300
C276 C 0.881800 1.058100 1.162340
C277 C 0.540000 0.943800 1.138780
C278 C 0.652300 1.156500 1.235270
C279 C 0.729300 1.347600 1.261150
C280 C 0.773400 1.364900 1.328530
C281 C 0.739900 1.191200 1.369880
C282 C 0.663500 1.000400 1.344010
C283 C 0.618100 0.981000 1.276360
C284 C 0.841300 0.503100 0.546830
C285 C 0.823300 0.568700 0.606320
C286 C 0.671200 0.862700 0.560280
C287 C 0.520000 0.529800 0.565530
C288 C 0.581300 0.667700 0.529620
C289 C 0.158700 1.003100 0.953170
C290 C 0.176700 1.068700 0.893680
C291 C 0.328800 1.362700 0.939720
C292 C 0.381900 0.481000 0.223640
C293 C 0.336500 0.500400 0.155990
C294 C 0.260100 0.691200 0.130120
C295 C 0.226600 0.864900 0.171470
C296 C 0.270700 0.847600 0.238850
C297 C 0.347700 0.656500 0.264730
C298 C 0.480000 1.029800 0.934470
C299 C 0.418700 1.167700 0.970380
C300 C 0.841300 -0.003100 1.046830
N301 N 0.439110 0.363400 0.535770
N302 N 0.560890 -0.136600 0.964230
N303 N 0.439110 0.136600 1.035770
N304 N 0.439110 0.136600 0.035770
N305 N 0.560890 0.636600 0.464230
N306 N 0.560890 0.863400 0.964230
N307 N 0.560890 0.863400 -0.035770
N308 N 0.439110 1.136600 0.035770
N309 N 0.560890 -0.136600 -0.035770
N310 N 0.439110 1.136600 1.035770
O311 O 0.750880 -0.258900 0.116250
O312 O 0.750880 0.741100 1.116250
O313 O 0.387960 0.843600 -0.167520
O314 O 0.249120 1.258900 -0.116250
O315 O 0.612040 1.156400 1.167520
O316 O 0.612040 1.156400 0.167520
O317 O 0.750880 0.741100 0.116250
O318 O 0.249120 0.258900 -0.116250
O319 O 0.387960 -0.156400 -0.167520
O320 O 0.612040 0.343600 0.667520
O321 O 0.750880 0.758900 0.616250
O322 O 0.387960 -0.156400 0.832480
O323 O 0.249120 0.258900 0.883750
O324 O 0.750880 -0.258900 1.116250
O325 O 0.612040 0.156400 1.167520
O326 O 0.249120 1.258900 0.883750
O327 O 0.387960 0.843600 0.832480
O328 O 0.387960 0.656400 0.332480
O329 O 0.612040 0.156400 0.167520
O330 O 0.249120 0.241100 0.383750

#END
