
#######################################################################
#
#                 Cambridge Crystallographic Data Centre
#                                CCDC 
#
#######################################################################
#
# If this CIF has been generated from an entry in the Cambridge 
# Structural Database, then it will include bibliographic, chemical, 
# crystal, experimental, refinement or atomic coordinate data resulting 
# from the CCDC's data processing and validation procedures.
#
#######################################################################

data_LICHUB
_symmetry_cell_setting           monoclinic
_symmetry_space_group_name_H-M   'P 21/n'
_symmetry_Int_Tables_number      14
_space_group_name_Hall           '-P 2yn'
loop_
_symmetry_equiv_pos_site_id
_symmetry_equiv_pos_as_xyz
1 x,y,z
2 1/2-x,1/2+y,1/2-z
3 -x,-y,-z
4 1/2+x,1/2-y,1/2+z
_cell_length_a                   4.7535(2)
_cell_length_b                   15.7179(4)
_cell_length_c                   16.0700(5)
_cell_angle_alpha                90
_cell_angle_beta                 97.123(2)
_cell_angle_gamma                90
_cell_volume                     1191.4
loop_
_atom_site_label
_atom_site_type_symbol
_atom_site_fract_x
_atom_site_fract_y
_atom_site_fract_z
I1 I 0.10231(6) 0.045792(18) 0.639545(18)
O1 O 0.8879(7) 0.3011(2) 0.37346(19)
O2 O 1.2042(7) 0.3917(2) 0.44328(19)
O3 O 1.0130(7) 0.3681(2) 0.67550(19)
O4 O 0.8062(7) 0.4056(2) 0.8138(2)
N1 N 0.9391(8) 0.3151(2) 0.5174(2)
C1 C 0.7438(9) 0.2572(3) 0.5418(3)
C2 C 0.6837(9) 0.2599(3) 0.6267(3)
C3 C 0.4910(9) 0.1996(3) 0.6528(3)
C4 C 0.3688(9) 0.1396(3) 0.5981(3)
C5 C 0.4244(9) 0.1379(3) 0.5151(3)
C6 C 0.6094(10) 0.1966(3) 0.4878(3)
C7 C 1.0001(9) 0.3320(3) 0.4381(3)
C8 C 1.2883(10) 0.4218(3) 0.3647(3)
C9 C 1.5012(10) 0.4911(3) 0.3860(3)
C10 C 0.8122(9) 0.3226(3) 0.6876(3)
C11 C 0.6929(10) 0.3340(3) 0.7701(3)
H1 H 1.0352 0.3445 0.5580
H2 H 0.4461 0.2009 0.7088
H3 H 0.3356 0.0966 0.4773
H4 H 0.6454 0.1955 0.4309
H5 H 1.1218 0.4440 0.3280
H6 H 1.3730 0.3749 0.3350
H7 H 1.4151 0.5368 0.4157
H8 H 1.5625 0.5137 0.3343
H9 H 1.6653 0.4681 0.4219
H10 H 0.4842 0.3398 0.7590
H11 H 0.7356 0.2827 0.8052
H12 H 0.9555 0.4206 0.7948
I1 I 1.39769(6) 0.545792(18) 0.860455(18)
O1 O 0.6121(7) 0.8011(2) 1.12654(19)
O2 O 0.2958(7) 0.8917(2) 1.05672(19)
O3 O 0.4870(7) 0.8681(2) 0.82450(19)
O4 O 0.6938(7) 0.9056(2) 0.6862(2)
N1 N 0.5609(8) 0.8151(2) 0.9826(2)
C1 C 0.7562(9) 0.7572(3) 0.9582(3)
C2 C 0.8163(9) 0.7599(3) 0.8733(3)
C3 C 1.0090(9) 0.6996(3) 0.8472(3)
C4 C 1.1312(9) 0.6396(3) 0.9019(3)
C5 C 1.0756(9) 0.6379(3) 0.9849(3)
C6 C 0.8906(10) 0.6966(3) 1.0122(3)
C7 C 0.4999(9) 0.8320(3) 1.0619(3)
C8 C 0.2117(10) 0.9218(3) 1.1353(3)
C9 C -0.0012(10) 0.9911(3) 1.1140(3)
C10 C 0.6878(9) 0.8226(3) 0.8124(3)
C11 C 0.8071(10) 0.8340(3) 0.7299(3)
H1 H 0.4648 0.8445 0.9420
H2 H 1.0539 0.7009 0.7912
H3 H 1.1644 0.5966 1.0227
H4 H 0.8546 0.6955 1.0691
H5 H 0.3782 0.9440 1.1720
H6 H 0.1270 0.8749 1.1650
H7 H 0.0849 1.0368 1.0843
H8 H -0.0625 1.0137 1.1657
H9 H -0.1653 0.9681 1.0781
H10 H 1.0158 0.8398 0.7410
H11 H 0.7644 0.7827 0.6948
H12 H 0.5445 0.9206 0.7052
I1 I 0.89769(6) 0.954208(18) 0.360455(18)
O1 O 0.1121(7) 0.6989(2) 0.62654(19)
O2 O -0.2042(7) 0.6083(2) 0.55672(19)
O3 O -0.0130(7) 0.6319(2) 0.32450(19)
O4 O 0.1938(7) 0.5944(2) 0.1862(2)
N1 N 0.0609(8) 0.6849(2) 0.4826(2)
C1 C 0.2562(9) 0.7428(3) 0.4582(3)
C2 C 0.3163(9) 0.7401(3) 0.3733(3)
C3 C 0.5090(9) 0.8004(3) 0.3472(3)
C4 C 0.6312(9) 0.8604(3) 0.4019(3)
C5 C 0.5756(9) 0.8621(3) 0.4849(3)
C6 C 0.3906(10) 0.8034(3) 0.5122(3)
C7 C -0.0001(9) 0.6680(3) 0.5619(3)
C8 C -0.2883(10) 0.5782(3) 0.6353(3)
C9 C -0.5012(10) 0.5089(3) 0.6140(3)
C10 C 0.1878(9) 0.6774(3) 0.3124(3)
C11 C 0.3071(10) 0.6660(3) 0.2299(3)
H1 H -0.0352 0.6555 0.4420
H2 H 0.5539 0.7991 0.2912
H3 H 0.6644 0.9034 0.5227
H4 H 0.3546 0.8045 0.5691
H5 H -0.1218 0.5560 0.6720
H6 H -0.3730 0.6251 0.6650
H7 H -0.4151 0.4632 0.5843
H8 H -0.5625 0.4863 0.6657
H9 H -0.6653 0.5319 0.5781
H10 H 0.5158 0.6602 0.2410
H11 H 0.2644 0.7173 0.1948
H12 H 0.0445 0.5794 0.2052
I1 I -0.39769(6) 0.454208(18) 0.139545(18)
O1 O 0.3879(7) 0.1989(2) -0.12654(19)
O2 O 0.7042(7) 0.1083(2) -0.05672(19)
O3 O 0.5130(7) 0.1319(2) 0.17550(19)
O4 O 0.3062(7) 0.0944(2) 0.3138(2)
N1 N 0.4391(8) 0.1849(2) 0.0174(2)
C1 C 0.2438(9) 0.2428(3) 0.0418(3)
C2 C 0.1837(9) 0.2401(3) 0.1267(3)
C3 C -0.0090(9) 0.3004(3) 0.1528(3)
C4 C -0.1312(9) 0.3604(3) 0.0981(3)
C5 C -0.0756(9) 0.3621(3) 0.0151(3)
C6 C 0.1094(10) 0.3034(3) -0.0122(3)
C7 C 0.5001(9) 0.1680(3) -0.0619(3)
C8 C 0.7883(10) 0.0782(3) -0.1353(3)
C9 C 1.0012(10) 0.0089(3) -0.1140(3)
C10 C 0.3122(9) 0.1774(3) 0.1876(3)
C11 C 0.1929(10) 0.1660(3) 0.2701(3)
H1 H 0.5352 0.1555 0.0580
H2 H -0.0539 0.2991 0.2088
H3 H -0.1644 0.4034 -0.0227
H4 H 0.1454 0.3045 -0.0691
H5 H 0.6218 0.0560 -0.1720
H6 H 0.8730 0.1251 -0.1650
H7 H 0.9151 -0.0368 -0.0843
H8 H 1.0625 -0.0137 -0.1657
H9 H 1.1653 0.0319 -0.0781
H10 H -0.0158 0.1602 0.2590
H11 H 0.2356 0.2173 0.3052
H12 H 0.4555 0.0794 0.2948

#END
