./LICHAH_from_POSCAR.cif_generated_by_CrystalShift
_symmetry_cell_setting triclinic
_symmetry_space_group_name_H-M 'P 1'
loop_
_symmetry_equiv_pos_site_id
_symmetry_equiv_pos_as_xyz
1 x,y,z
_cell_length_a 6.785400
_cell_length_b 10.276600
_cell_length_c 16.024200
_cell_angle_alpha 101.338000
_cell_angle_beta 94.775000
_cell_angle_gamma 99.492000
_cell_volume 1072.818138
loop_
_atom_site_label
_atom_site_type_symbol
_atom_site_fract_x
_atom_site_fract_y
_atom_site_fract_z
H1 H 0.763800 0.804400 0.590800
H2 H 0.964200 0.787700 0.481200
H3 H 1.292100 0.903400 0.505400
H4 H 1.420400 1.034300 0.638200
H5 H 1.222800 1.053000 0.748700
H6 H 0.428400 0.886900 0.914100
H7 H 0.384300 0.519300 0.588000
H8 H 0.298200 0.632500 0.552100
H9 H 0.244500 0.482400 0.500600
H10 H 1.206600 0.720900 0.164600
H11 H 0.390500 0.694000 0.700600
H12 H 1.376200 0.723900 0.046100
H13 H 0.089700 0.772200 0.905400
H14 H -0.191400 0.625400 0.830500
H15 H 1.840200 0.614500 0.165000
H16 H -0.799800 0.233600 0.983000
H17 H 1.677700 0.616500 0.285000
H18 H -0.840400 0.379700 0.984000
H19 H -0.645500 0.359300 1.035800
H20 H 1.645500 0.640700 -0.035800
H21 H 1.840400 0.620300 0.016000
H22 H 1.799800 0.766400 0.017000
H23 H -0.677700 0.383500 0.715000
H24 H -0.840200 0.385500 0.835000
H25 H 1.191400 0.374600 0.169500
H26 H -0.376200 0.276100 0.953900
H27 H 0.910300 0.227800 0.094600
H28 H -0.206600 0.279100 0.835400
H29 H 0.236200 0.195600 0.409200
H30 H 0.609500 0.306000 0.299400
H31 H 0.035800 0.212300 0.518800
H32 H -0.292100 0.096600 0.494600
H33 H 0.755500 0.517600 0.499400
H34 H 0.701800 0.367500 0.447900
H35 H 0.615700 0.480700 0.412000
H36 H -0.420400 -0.034300 0.361800
H37 H 0.571600 0.113100 0.085900
H38 H -0.222800 -0.053000 0.251300
C39 C 0.223300 0.002300 0.118400
C40 C 0.153500 0.066200 0.250110
C41 C 0.027500 0.069900 0.319080
C42 C -0.170400 0.000500 0.304900
C43 C 0.388400 0.102100 0.171600
C44 C -0.287800 0.011700 0.371000
C45 C 0.559900 0.149100 0.142870
C46 C -0.211200 0.090100 0.450400
C47 C 0.729600 0.460300 0.443160
C48 C -0.015500 0.159100 0.465000
C49 C 0.892500 0.409500 0.318020
C50 C 0.103800 0.149100 0.399500
C51 C 0.726500 0.320100 0.273430
C52 C 1.015500 0.840900 0.535000
C53 C 1.211200 0.909900 0.549600
C54 C 1.287800 0.988300 0.629000
C55 C 1.170400 0.999500 0.695100
C56 C 0.972500 0.930100 0.680920
C57 C 0.846500 0.933800 0.749890
C58 C 0.776700 0.997700 0.881600
C59 C 0.611600 0.897900 0.828400
C60 C -0.334700 0.300100 0.835080
C61 C 0.730700 0.249600 0.189340
C62 C -0.436800 0.298800 0.905900
C63 C 0.906400 0.272400 0.150710
C64 C -0.627100 0.330400 0.907340
C65 C -0.712900 0.363000 0.835190
C66 C 1.074000 0.360400 0.195170
C67 C -0.615600 0.363200 0.763600
C68 C 1.067200 0.427500 0.277840
C69 C -0.425200 0.333000 0.764090
C70 C -0.738300 0.325300 0.984500
C71 C 1.738300 0.674700 0.015500
C72 C 1.425200 0.667000 0.235910
C73 C 1.615600 0.636800 0.236400
C74 C -0.067200 0.572500 0.722160
C75 C -0.074000 0.639600 0.804830
C76 C 1.712900 0.637000 0.164810
C77 C 0.093600 0.727600 0.849290
C78 C 1.627100 0.669600 0.092660
C79 C 0.269300 0.750400 0.810660
C80 C 0.273500 0.679900 0.726570
C81 C 1.436800 0.701200 0.094100
C82 C 0.107500 0.590500 0.681980
C83 C 0.270400 0.539700 0.556840
C84 C 1.334700 0.699900 0.164920
C85 C 0.440100 0.850900 0.857130
C86 C 0.896200 0.850900 0.600500
N87 N 0.669900 0.863800 0.746340
N88 N 0.330100 0.136200 0.253660
O89 O 0.076000 -0.018600 0.171850
O90 O 0.798900 1.057400 0.955200
O91 O 0.924000 1.018600 0.828150
O92 O 0.097500 0.517400 0.601330
O93 O -0.243900 0.493690 0.673450
O94 O 0.902500 0.482600 0.398670
O95 O -0.439800 0.284900 0.598430
O96 O 1.243900 0.506310 0.326550
O97 O -0.120300 0.283800 0.683880
O98 O 1.439800 0.715100 0.401570
O99 O 1.120300 0.716200 0.316120
O100 O 0.201100 -0.057400 0.044800
S101 S -0.299570 0.335980 0.673040
S102 S 1.299570 0.664020 0.326960

#END
