
#######################################################################
#
#                 Cambridge Crystallographic Data Centre
#                                CCDC 
#
#######################################################################
#
# If this CIF has been generated from an entry in the Cambridge 
# Structural Database, then it will include bibliographic, chemical, 
# crystal, experimental, refinement or atomic coordinate data resulting 
# from the CCDC's data processing and validation procedures.
#
#######################################################################

data_LICHIP
_symmetry_cell_setting           orthorhombic
_symmetry_space_group_name_H-M   'P 21 21 21'
_symmetry_Int_Tables_number      19
_space_group_name_Hall           'P 2ac 2ab'
loop_
_symmetry_equiv_pos_site_id
_symmetry_equiv_pos_as_xyz
1 x,y,z
2 1/2-x,-y,1/2+z
3 1/2+x,1/2-y,-z
4 -x,1/2+y,1/2-z
_cell_length_a                   9.397(3)
_cell_length_b                   18.314(2)
_cell_length_c                   7.399(4)
_cell_angle_alpha                90
_cell_angle_beta                 90
_cell_angle_gamma                90
_cell_volume                     1273.34
loop_
_atom_site_label
_atom_site_type_symbol
_atom_site_fract_x
_atom_site_fract_y
_atom_site_fract_z
N1 N 0.9153(2) 0.42667(11) 0.9877(3)
N2 N 1.1038(3) 0.67413(12) 0.8972(4)
H1 H 1.1761 0.7027 0.9058
H2 H 1.0274 0.6890 0.8448
N3 N 0.6600(3) 0.25546(12) 0.8364(4)
C1 C 0.7888(3) 0.44510(13) 0.9238(3)
C2 C 0.7521(3) 0.51823(13) 0.8886(4)
H3 H 0.6597 0.5293 0.8530
C3 C 0.8495(3) 0.57342(13) 0.9056(3)
C4 C 0.9910(3) 0.55483(13) 0.9586(3)
C5 C 1.1104(3) 0.60344(13) 0.9683(4)
C6 C 1.2355(3) 0.58178(14) 1.0514(4)
C7 C 1.2492(3) 0.50951(15) 1.1124(4)
H4 H 1.3323 0.4955 1.1711
C8 C 1.1442(3) 0.45955(13) 1.0880(4)
H5 H 1.1585 0.4114 1.1232
C9 C 1.0140(3) 0.48030(13) 1.0097(3)
C10 C 1.3600(3) 0.63368(16) 1.0729(5)
H6 H 1.3301 0.6757 1.1405
H7 H 1.3915 0.6499 0.9561
H8 H 1.4386 0.6117 1.1354
C11 C 0.7974(3) 0.65075(13) 0.8761(4)
H9 H 0.8021 0.6635 0.7504
H10 H 0.8561 0.6842 0.9427
H11 H 0.7009 0.6536 0.9181
C12 C 0.6869(3) 0.38412(13) 0.8968(3)
C13 C 0.7389(3) 0.31504(14) 0.8563(4)
H12 H 0.8368 0.3101 0.8420
C14 C 0.5195(3) 0.26343(17) 0.8630(5)
H13 H 0.4619 0.2222 0.8557
C15 C 0.4568(3) 0.32930(17) 0.9003(5)
H14 H 0.3587 0.3326 0.9149
C16 C 0.5405(3) 0.39026(16) 0.9158(4)
H15 H 0.4994 0.4355 0.9390
N1 N 0.5847(2) 0.57333(11) 0.4877(3)
N2 N 0.3962(3) 0.32587(12) 0.3972(4)
H1 H 0.3239 0.2973 0.4058
H2 H 0.4726 0.3110 0.3448
N3 N 0.8400(3) 0.74454(12) 0.3364(4)
C1 C 0.7112(3) 0.55490(13) 0.4238(3)
C2 C 0.7479(3) 0.48177(13) 0.3886(4)
H3 H 0.8403 0.4707 0.3530
C3 C 0.6505(3) 0.42658(13) 0.4056(3)
C4 C 0.5090(3) 0.44517(13) 0.4586(3)
C5 C 0.3896(3) 0.39656(13) 0.4683(4)
C6 C 0.2645(3) 0.41822(14) 0.5514(4)
C7 C 0.2508(3) 0.49049(15) 0.6124(4)
H4 H 0.1677 0.5045 0.6711
C8 C 0.3558(3) 0.54045(13) 0.5880(4)
H5 H 0.3415 0.5886 0.6232
C9 C 0.4860(3) 0.51970(13) 0.5097(3)
C10 C 0.1400(3) 0.36632(16) 0.5729(5)
H6 H 0.1699 0.3243 0.6405
H7 H 0.1085 0.3501 0.4561
H8 H 0.0614 0.3883 0.6354
C11 C 0.7026(3) 0.34925(13) 0.3761(4)
H9 H 0.6979 0.3365 0.2504
H10 H 0.6439 0.3158 0.4427
H11 H 0.7991 0.3464 0.4181
C12 C 0.8131(3) 0.61588(13) 0.3968(3)
C13 C 0.7611(3) 0.68496(14) 0.3563(4)
H12 H 0.6632 0.6899 0.3420
C14 C 0.9805(3) 0.73657(17) 0.3630(5)
H13 H 1.0381 0.7778 0.3557
C15 C 1.0432(3) 0.67070(17) 0.4003(5)
H14 H 1.1413 0.6674 0.4149
C16 C 0.9595(3) 0.60974(16) 0.4158(4)
H15 H 1.0006 0.5645 0.4390
N1 N 0.4153(2) 1.07333(11) 0.0123(3)
N2 N 0.6038(3) 0.82587(12) 0.1028(4)
H1 H 0.6761 0.7973 0.0942
H2 H 0.5274 0.8110 0.1552
N3 N 0.1600(3) 1.24454(12) 0.1636(4)
C1 C 0.2888(3) 1.05490(13) 0.0762(3)
C2 C 0.2521(3) 0.98177(13) 0.1114(4)
H3 H 0.1597 0.9707 0.1470
C3 C 0.3495(3) 0.92658(13) 0.0944(3)
C4 C 0.4910(3) 0.94517(13) 0.0414(3)
C5 C 0.6104(3) 0.89656(13) 0.0317(4)
C6 C 0.7355(3) 0.91822(14) -0.0514(4)
C7 C 0.7492(3) 0.99049(15) -0.1124(4)
H4 H 0.8323 1.0045 -0.1711
C8 C 0.6442(3) 1.04045(13) -0.0880(4)
H5 H 0.6585 1.0886 -0.1232
C9 C 0.5140(3) 1.01970(13) -0.0097(3)
C10 C 0.8600(3) 0.86632(16) -0.0729(5)
H6 H 0.8301 0.8243 -0.1405
H7 H 0.8915 0.8501 0.0439
H8 H 0.9386 0.8883 -0.1354
C11 C 0.2974(3) 0.84925(13) 0.1239(4)
H9 H 0.3021 0.8365 0.2496
H10 H 0.3561 0.8158 0.0573
H11 H 0.2009 0.8464 0.0819
C12 C 0.1869(3) 1.11588(13) 0.1032(3)
C13 C 0.2389(3) 1.18496(14) 0.1437(4)
H12 H 0.3368 1.1899 0.1580
C14 C 0.0195(3) 1.23657(17) 0.1370(5)
H13 H -0.0381 1.2778 0.1443
C15 C -0.0432(3) 1.17070(17) 0.0997(5)
H14 H -0.1413 1.1674 0.0851
C16 C 0.0405(3) 1.10974(16) 0.0842(4)
H15 H -0.0006 1.0645 0.0610
N1 N 0.0847(2) -0.07333(11) 0.5123(3)
N2 N -0.1038(3) 0.17413(12) 0.6028(4)
H1 H -0.1761 0.2027 0.5942
H2 H -0.0274 0.1890 0.6552
N3 N 0.3400(3) -0.24454(12) 0.6636(4)
C1 C 0.2112(3) -0.05490(13) 0.5762(3)
C2 C 0.2479(3) 0.01823(13) 0.6114(4)
H3 H 0.3403 0.0293 0.6470
C3 C 0.1505(3) 0.07342(13) 0.5944(3)
C4 C 0.0090(3) 0.05483(13) 0.5414(3)
C5 C -0.1104(3) 0.10344(13) 0.5317(4)
C6 C -0.2355(3) 0.08178(14) 0.4486(4)
C7 C -0.2492(3) 0.00951(15) 0.3876(4)
H4 H -0.3323 -0.0045 0.3289
C8 C -0.1442(3) -0.04045(13) 0.4120(4)
H5 H -0.1585 -0.0886 0.3768
C9 C -0.0140(3) -0.01970(13) 0.4903(3)
C10 C -0.3600(3) 0.13368(16) 0.4271(5)
H6 H -0.3301 0.1757 0.3595
H7 H -0.3915 0.1499 0.5439
H8 H -0.4386 0.1117 0.3646
C11 C 0.2026(3) 0.15075(13) 0.6239(4)
H9 H 0.1979 0.1635 0.7496
H10 H 0.1439 0.1842 0.5573
H11 H 0.2991 0.1536 0.5819
C12 C 0.3131(3) -0.11588(13) 0.6032(3)
C13 C 0.2611(3) -0.18496(14) 0.6437(4)
H12 H 0.1632 -0.1899 0.6580
C14 C 0.4805(3) -0.23657(17) 0.6370(5)
H13 H 0.5381 -0.2778 0.6443
C15 C 0.5432(3) -0.17070(17) 0.5997(5)
H14 H 0.6413 -0.1674 0.5851
C16 C 0.4595(3) -0.10974(16) 0.5842(4)
H15 H 0.5006 -0.0645 0.5610

#END
