./LICJIR_from_POSCAR.cif_generated_by_CrystalShift
_symmetry_cell_setting triclinic
_symmetry_space_group_name_H-M 'P 1'
loop_
_symmetry_equiv_pos_site_id
_symmetry_equiv_pos_as_xyz
1 x,y,z
_cell_length_a 5.843200
_cell_length_b 13.207300
_cell_length_c 15.695900
_cell_angle_alpha 90.000000
_cell_angle_beta 109.327000
_cell_angle_gamma 90.000000
_cell_volume 1143.035463
loop_
_atom_site_label
_atom_site_type_symbol
_atom_site_fract_x
_atom_site_fract_y
_atom_site_fract_z
H1 H 0.382700 0.934050 0.914630
H2 H 0.280280 0.871680 0.825020
H3 H 0.662490 0.816210 0.901270
H4 H 0.590400 0.796460 0.987970
H5 H 0.075600 0.228090 0.755160
H6 H 0.338050 0.091770 0.780340
H7 H 0.892210 0.269140 0.917940
H8 H 0.810760 0.455900 0.933400
H9 H 0.617300 1.434050 0.585370
H10 H 0.802820 1.346160 0.592150
H11 H 0.719720 1.371680 0.674980
H12 H 0.337510 1.316210 0.598730
H13 H 0.409600 1.296460 0.512030
H14 H 0.924400 0.728090 0.744840
H15 H 0.661950 0.591770 0.719660
H16 H 0.107790 0.769140 0.582060
H17 H 0.189240 0.955900 0.566600
H18 H 0.810760 0.044100 0.433400
H19 H 0.892210 0.230860 0.417940
H20 H 0.338050 0.408230 0.280340
H21 H 0.075600 0.271910 0.255160
H22 H 0.590400 -0.296460 0.487970
H23 H 0.662490 -0.316210 0.401270
H24 H 0.280280 -0.371680 0.325020
H25 H 0.197180 -0.346160 0.407850
H26 H 0.382700 -0.434050 0.414630
H27 H 0.617300 0.065950 0.085370
H28 H 0.802820 0.153840 0.092150
H29 H 0.719720 0.128320 0.174980
H30 H 0.337510 0.183790 0.098730
H31 H 0.409600 0.203540 0.012030
H32 H 0.924400 0.771910 0.244840
H33 H 0.661950 0.908230 0.219660
H34 H 0.107790 0.730860 0.082060
H35 H 0.189240 0.544100 0.066600
H36 H 0.197180 0.846160 0.907850
C37 C 0.605200 0.844800 0.196400
C38 C 0.761300 0.763900 0.211200
C39 C 0.674100 0.671000 0.175880
C40 C 0.429000 0.656500 0.128190
C41 C 0.416800 0.378600 0.072720
C42 C 0.469500 0.203200 0.077500
C43 C 0.669400 0.131700 0.110300
C44 C 0.272100 0.738900 0.113770
C45 C 0.352900 0.556650 0.096430
C46 C 0.512600 0.480600 0.108730
C47 C 0.773000 0.498400 0.151550
C48 C 0.227000 -0.001600 0.348450
C49 C 0.487400 -0.019400 0.391270
C50 C 0.647100 0.056650 0.403570
C51 C 0.330600 0.868300 0.889700
C52 C 0.530500 0.796800 0.922500
C53 C 0.583200 0.621400 0.927280
C54 C 0.571000 0.343500 0.871810
C55 C 0.325900 0.329000 0.824120
C56 C 0.238700 0.236100 0.788800
C57 C 0.394800 0.155200 0.803600
C58 C 0.773000 1.001600 0.651550
C59 C 0.512600 1.019400 0.608730
C60 C 0.352900 0.943350 0.596430
C61 C 0.272100 0.761100 0.613770
C62 C 0.361500 0.669000 0.646470
C63 C 0.605200 0.655200 0.696400
C64 C 0.761300 0.736100 0.711200
C65 C 0.674100 0.829000 0.675880
C66 C 0.429000 0.843500 0.628190
C67 C 0.416800 1.121400 0.572720
C68 C 0.469500 1.296800 0.577500
C69 C 0.669400 1.368300 0.610300
C70 C 0.330600 -0.368300 0.389700
C71 C 0.530500 -0.296800 0.422500
C72 C 0.583200 -0.121400 0.427280
C73 C 0.571000 0.156500 0.371810
C74 C 0.325900 0.171000 0.324120
C75 C 0.238700 0.263900 0.288800
C76 C 0.394800 0.344800 0.303600
C77 C 0.638500 0.331000 0.353530
C78 C 0.727900 0.238900 0.386230
C79 C 0.638500 0.169000 0.853530
C80 C 0.727900 0.261100 0.886230
C81 C 0.647100 0.443350 0.903570
C82 C 0.487400 0.519400 0.891270
C83 C 0.227000 0.501600 0.848450
C84 C 0.361500 0.831000 0.146470
O85 O 0.774100 0.630870 0.986320
O86 O 0.065600 0.558800 0.843030
O87 O 0.163500 0.406520 0.812000
O88 O 0.163500 0.093480 0.312000
O89 O 0.559000 1.196860 0.611500
O90 O 0.225900 1.130870 0.513680
O91 O 0.934400 1.058800 0.656970
O92 O 0.836500 0.906520 0.688000
O93 O 0.065600 -0.058800 0.343030
O94 O 0.441000 0.696860 0.888500
O95 O 0.836500 0.593480 0.188000
O96 O 0.934400 0.441200 0.156970
O97 O 0.225900 0.369130 0.013680
O98 O 0.559000 0.303140 0.111500
O99 O 0.441000 -0.196860 0.388500
O100 O 0.774100 -0.130870 0.486320
Br101 Br 0.849210 0.056370 0.878540
Br102 Br 0.150790 0.943630 0.121460
Br103 Br 0.150790 0.556370 0.621460
Br104 Br 0.849210 0.443630 0.378540

#END
