
#######################################################################
#
#                 Cambridge Crystallographic Data Centre
#                                CCDC 
#
#######################################################################
#
# If this CIF has been generated from an entry in the Cambridge 
# Structural Database, then it will include bibliographic, chemical, 
# crystal, experimental, refinement or atomic coordinate data resulting 
# from the CCDC's data processing and validation procedures.
#
#######################################################################

data_LICJIR
_symmetry_cell_setting           monoclinic
_symmetry_space_group_name_H-M   'P 21/c'
_symmetry_Int_Tables_number      14
_space_group_name_Hall           '-P 2ybc'
loop_
_symmetry_equiv_pos_site_id
_symmetry_equiv_pos_as_xyz
1 x,y,z
2 -x,1/2+y,1/2-z
3 -x,-y,-z
4 x,1/2-y,1/2+z
_cell_length_a                   5.8432(6)
_cell_length_b                   13.2073(14)
_cell_length_c                   15.6959(15)
_cell_angle_alpha                90
_cell_angle_beta                 109.327(3)
_cell_angle_gamma                90
_cell_volume                     1143.04
loop_
_atom_site_label
_atom_site_type_symbol
_atom_site_fract_x
_atom_site_fract_y
_atom_site_fract_z
Br1 Br 0.84921(6) 0.44363(2) 0.37854(3)
O1 O 0.1635(3) 0.09348(15) 0.31200(14)
O2 O 0.0656(4) -0.05880(16) 0.34303(17)
O3 O 0.7741(4) -0.13087(16) 0.48632(15)
O4 O 0.4410(4) -0.19686(15) 0.38850(15)
C1 C 0.2270(5) -0.0016(2) 0.34845(18)
C2 C 0.4874(5) -0.0194(2) 0.39127(18)
C3 C 0.6471(5) 0.05665(19) 0.40357(19)
C4 C 0.7279(5) 0.2389(2) 0.38623(19)
C5 C 0.6385(5) 0.3310(2) 0.35353(19)
C6 C 0.3948(5) 0.3448(2) 0.3036(2)
C7 C 0.2387(5) 0.2639(2) 0.2888(2)
C8 C 0.3259(5) 0.1710(2) 0.32412(18)
C9 C 0.5710(5) 0.1565(2) 0.37181(18)
C10 C 0.5832(5) -0.1214(2) 0.42728(18)
C11 C 0.5305(7) -0.2968(2) 0.4225(3)
C12 C 0.3306(8) -0.3683(3) 0.3897(3)
H1 H 0.81076 0.04410 0.43340
H2 H 0.89221 0.23086 0.41794
H3 H 0.33805 0.40823 0.28034
H4 H 0.07560 0.27191 0.25516
H5 H 0.59040 -0.29646 0.48797
H6 H 0.66249 -0.31621 0.40127
H7 H 0.28028 -0.37168 0.32502
H8 H 0.19718 -0.34616 0.40785
H9 H 0.38270 -0.43405 0.41463
Br1 Br 0.15079(6) 0.94363(2) 0.12146(3)
O1 O 0.8365(3) 0.59348(15) 0.18800(14)
O2 O 0.9344(4) 0.44120(16) 0.15697(17)
O3 O 0.2259(4) 0.36913(16) 0.01368(15)
O4 O 0.5590(4) 0.30314(15) 0.11150(15)
C1 C 0.7730(5) 0.4984(2) 0.15155(18)
C2 C 0.5126(5) 0.4806(2) 0.10873(18)
C3 C 0.3529(5) 0.55665(19) 0.09643(19)
C4 C 0.2721(5) 0.7389(2) 0.11377(19)
C5 C 0.3615(5) 0.8310(2) 0.14647(19)
C6 C 0.6052(5) 0.8448(2) 0.1964(2)
C7 C 0.7613(5) 0.7639(2) 0.2112(2)
C8 C 0.6741(5) 0.6710(2) 0.17588(18)
C9 C 0.4290(5) 0.6565(2) 0.12819(18)
C10 C 0.4168(5) 0.3786(2) 0.07272(18)
C11 C 0.4695(7) 0.2032(2) 0.0775(3)
C12 C 0.6694(8) 0.1317(3) 0.1103(3)
H1 H 0.18924 0.54410 0.06660
H2 H 0.10779 0.73086 0.08206
H3 H 0.66195 0.90823 0.21966
H4 H 0.92440 0.77191 0.24484
H5 H 0.40960 0.20354 0.01203
H6 H 0.33751 0.18379 0.09873
H7 H 0.71972 0.12832 0.17498
H8 H 0.80282 0.15384 0.09215
H9 H 0.61730 0.06595 0.08537
Br1 Br 0.15079(6) 0.55637(2) 0.62146(3)
O1 O 0.8365(3) 0.90652(15) 0.68800(14)
O2 O 0.9344(4) 1.05880(16) 0.65697(17)
O3 O 0.2259(4) 1.13087(16) 0.51368(15)
O4 O 0.5590(4) 1.19686(15) 0.61150(15)
C1 C 0.7730(5) 1.0016(2) 0.65155(18)
C2 C 0.5126(5) 1.0194(2) 0.60873(18)
C3 C 0.3529(5) 0.94335(19) 0.59643(19)
C4 C 0.2721(5) 0.7611(2) 0.61377(19)
C5 C 0.3615(5) 0.6690(2) 0.64647(19)
C6 C 0.6052(5) 0.6552(2) 0.6964(2)
C7 C 0.7613(5) 0.7361(2) 0.7112(2)
C8 C 0.6741(5) 0.8290(2) 0.67588(18)
C9 C 0.4290(5) 0.8435(2) 0.62819(18)
C10 C 0.4168(5) 1.1214(2) 0.57272(18)
C11 C 0.4695(7) 1.2968(2) 0.5775(3)
C12 C 0.6694(8) 1.3683(3) 0.6103(3)
H1 H 0.18924 0.95590 0.56660
H2 H 0.10779 0.76914 0.58206
H3 H 0.66195 0.59177 0.71966
H4 H 0.92440 0.72809 0.74484
H5 H 0.40960 1.29646 0.51203
H6 H 0.33751 1.31621 0.59873
H7 H 0.71972 1.37168 0.67498
H8 H 0.80282 1.34616 0.59215
H9 H 0.61730 1.43405 0.58537
Br1 Br 0.84921(6) 0.05637(2) 0.87854(3)
O1 O 0.1635(3) 0.40652(15) 0.81200(14)
O2 O 0.0656(4) 0.55880(16) 0.84303(17)
O3 O 0.7741(4) 0.63087(16) 0.98632(15)
O4 O 0.4410(4) 0.69686(15) 0.88850(15)
C1 C 0.2270(5) 0.5016(2) 0.84845(18)
C2 C 0.4874(5) 0.5194(2) 0.89127(18)
C3 C 0.6471(5) 0.44335(19) 0.90357(19)
C4 C 0.7279(5) 0.2611(2) 0.88623(19)
C5 C 0.6385(5) 0.1690(2) 0.85353(19)
C6 C 0.3948(5) 0.1552(2) 0.8036(2)
C7 C 0.2387(5) 0.2361(2) 0.7888(2)
C8 C 0.3259(5) 0.3290(2) 0.82412(18)
C9 C 0.5710(5) 0.3435(2) 0.87181(18)
C10 C 0.5832(5) 0.6214(2) 0.92728(18)
C11 C 0.5305(7) 0.7968(2) 0.9225(3)
C12 C 0.3306(8) 0.8683(3) 0.8897(3)
H1 H 0.81076 0.45590 0.93340
H2 H 0.89221 0.26914 0.91794
H3 H 0.33805 0.09177 0.78034
H4 H 0.07560 0.22809 0.75516
H5 H 0.59040 0.79646 0.98797
H6 H 0.66249 0.81621 0.90127
H7 H 0.28028 0.87168 0.82502
H8 H 0.19718 0.84616 0.90785
H9 H 0.38270 0.93405 0.91463

#END
