
#######################################################################
#
#                 Cambridge Crystallographic Data Centre
#                                CCDC 
#
#######################################################################
#
# If this CIF has been generated from an entry in the Cambridge 
# Structural Database, then it will include bibliographic, chemical, 
# crystal, experimental, refinement or atomic coordinate data resulting 
# from the CCDC's data processing and validation procedures.
#
#######################################################################

data_LICJAJ
_symmetry_cell_setting           triclinic
_symmetry_space_group_name_H-M   'P -1'
_symmetry_Int_Tables_number      2
_space_group_name_Hall           '-P 1'
loop_
_symmetry_equiv_pos_site_id
_symmetry_equiv_pos_as_xyz
1 x,y,z
2 -x,-y,-z
_cell_length_a                   7.085(7)
_cell_length_b                   10.711(11)
_cell_length_c                   15.587(16)
_cell_angle_alpha                87.916(11)
_cell_angle_beta                 80.861(13)
_cell_angle_gamma                89.664(11)
_cell_volume                     1167.07
loop_
_atom_site_label
_atom_site_type_symbol
_atom_site_fract_x
_atom_site_fract_y
_atom_site_fract_z
O1 O 0.5781(7) 0.7984(4) 0.1820(2)
O2 O 0.5297(4) 0.6568(3) 0.08578(19)
O3 O 0.7641(5) 0.8424(3) -0.1363(2)
O4 O 0.9040(6) 0.9349(4) -0.2879(2)
N1 N 0.6480(5) 0.8411(3) 0.0346(2)
C1 C 0.7102(6) 0.9653(4) 0.0298(3)
C2 C 0.7942(6) 1.0204(4) -0.0512(3)
C3 C 0.8572(6) 1.1445(4) -0.0546(3)
C4 C 0.8441(6) 1.2165(4) 0.0189(3)
C5 C 0.7557(6) 1.1594(4) 0.0969(3)
C6 C 0.6917(6) 1.0373(4) 0.1035(3)
C13 C 0.5839(7) 0.7690(5) 0.1078(3)
C14 C 0.4562(9) 0.5702(5) 0.1576(3)
C15 C 0.3917(7) 0.4557(5) 0.1244(3)
C16 C 0.8120(6) 0.9528(5) -0.1332(3)
C17 C 0.8920(8) 1.0191(5) -0.2189(3)
C18 C 0.9233(7) 1.3460(4) 0.0149(3)
H1 H 0.6498 0.8024 -0.0227
H2 H 0.5579 0.5508 0.1928
H3 H 0.3485 0.6095 0.1955
H4 H 0.2846 0.4743 0.0932
H5 H 0.3501 0.3963 0.1729
H6 H 0.4969 0.4192 0.0846
H7 H 0.8083 1.0902 -0.2301
H8 H 1.0207 1.0524 -0.2158
H9 H 0.8679 0.8636 -0.2678
H10 H 0.9112 1.1812 -0.1093
H11 H 0.9850 1.3672 -0.0446
H12 H 1.0174 1.3506 0.0545
H13 H 0.8193 1.4052 0.0323
H14 H 0.7387 1.2068 0.1479
H15 H 0.6351 1.0022 0.1584
O1 O 0.4219(7) 0.2016(4) 0.8180(2)
O2 O 0.4703(4) 0.3432(3) 0.91422(19)
O3 O 0.2359(5) 0.1576(3) 1.1363(2)
O4 O 0.0960(6) 0.0651(4) 1.2879(2)
N1 N 0.3520(5) 0.1589(3) 0.9654(2)
C1 C 0.2898(6) 0.0347(4) 0.9702(3)
C2 C 0.2058(6) -0.0204(4) 1.0512(3)
C3 C 0.1428(6) -0.1445(4) 1.0546(3)
C4 C 0.1559(6) -0.2165(4) 0.9811(3)
C5 C 0.2443(6) -0.1594(4) 0.9031(3)
C6 C 0.3083(6) -0.0373(4) 0.8965(3)
C13 C 0.4161(7) 0.2310(5) 0.8922(3)
C14 C 0.5438(9) 0.4298(5) 0.8424(3)
C15 C 0.6083(7) 0.5443(5) 0.8756(3)
C16 C 0.1880(6) 0.0472(5) 1.1332(3)
C17 C 0.1080(8) -0.0191(5) 1.2189(3)
C18 C 0.0767(7) -0.3460(4) 0.9851(3)
H1 H 0.3502 0.1976 1.0227
H2 H 0.4421 0.4492 0.8072
H3 H 0.6515 0.3905 0.8045
H4 H 0.7154 0.5257 0.9068
H5 H 0.6499 0.6037 0.8271
H6 H 0.5031 0.5808 0.9154
H7 H 0.1917 -0.0902 1.2301
H8 H -0.0207 -0.0524 1.2158
H9 H 0.1321 0.1364 1.2678
H10 H 0.0888 -0.1812 1.1093
H11 H 0.0150 -0.3672 1.0446
H12 H -0.0174 -0.3506 0.9455
H13 H 0.1807 -0.4052 0.9677
H14 H 0.2613 -0.2068 0.8521
H15 H 0.3649 -0.0022 0.8416
O5 O 0.5168(6) 0.6625(3) 0.6814(2)
O6 O 0.5182(4) 0.8301(3) 0.58795(19)
O7 O 0.7679(4) 0.6823(3) 0.3659(2)
O8 O 0.9253(5) 0.6166(3) 0.2135(2)
N2 N 0.6420(5) 0.6541(3) 0.5351(2)
C7 C 0.7062(6) 0.5314(4) 0.5286(3)
C8 C 0.7995(6) 0.4899(4) 0.4468(3)
C9 C 0.8672(6) 0.3661(4) 0.4413(3)
C10 C 0.8525(6) 0.2841(4) 0.5115(3)
C11 C 0.7564(6) 0.3255(4) 0.5908(3)
C12 C 0.6868(6) 0.4455(4) 0.5995(3)
C19 C 0.5554(7) 0.7112(5) 0.6079(3)
C20 C 0.4237(7) 0.9022(4) 0.6594(3)
C21 C 0.4147(8) 1.0353(5) 0.6290(4)
C22 C 0.8193(6) 0.5735(4) 0.3665(3)
C23 C 0.9111(7) 0.5218(5) 0.2801(3)
C24 C 0.9321(7) 0.1528(5) 0.5049(3)
H16 H 0.6440 0.6870 0.4787
H17 H 0.4958 0.8954 0.7089
H18 H 0.2930 0.8696 0.6793
H19 H 0.5437 1.0648 0.6051
H20 H 0.3613 1.0862 0.6780
H21 H 0.3331 1.0423 0.5838
H22 H 1.0402 0.4894 0.2852
H23 H 0.8333 0.4518 0.2651
H24 H 0.8587 0.6783 0.2315
H25 H 0.9259 0.3382 0.3862
H26 H 1.0154 0.1449 0.4488
H27 H 0.8266 0.0929 0.5095
H28 H 1.0059 0.1356 0.5521
H29 H 0.7388 0.2694 0.6401
H30 H 0.6243 0.4706 0.6547
O5 O 0.4832(6) 0.3375(3) 0.3186(2)
O6 O 0.4818(4) 0.1699(3) 0.41205(19)
O7 O 0.2321(4) 0.3177(3) 0.6341(2)
O8 O 0.0747(5) 0.3834(3) 0.7865(2)
N2 N 0.3580(5) 0.3459(3) 0.4649(2)
C7 C 0.2938(6) 0.4686(4) 0.4714(3)
C8 C 0.2005(6) 0.5101(4) 0.5532(3)
C9 C 0.1328(6) 0.6339(4) 0.5587(3)
C10 C 0.1475(6) 0.7159(4) 0.4885(3)
C11 C 0.2436(6) 0.6745(4) 0.4092(3)
C12 C 0.3132(6) 0.5545(4) 0.4005(3)
C19 C 0.4446(7) 0.2888(5) 0.3921(3)
C20 C 0.5763(7) 0.0978(4) 0.3406(3)
C21 C 0.5853(8) -0.0353(5) 0.3710(4)
C22 C 0.1807(6) 0.4265(4) 0.6335(3)
C23 C 0.0889(7) 0.4782(5) 0.7199(3)
C24 C 0.0679(7) 0.8472(5) 0.4951(3)
H16 H 0.3560 0.3130 0.5213
H17 H 0.5042 0.1046 0.2911
H18 H 0.7070 0.1304 0.3207
H19 H 0.4563 -0.0648 0.3949
H20 H 0.6387 -0.0862 0.3220
H21 H 0.6669 -0.0423 0.4162
H22 H -0.0402 0.5106 0.7148
H23 H 0.1667 0.5482 0.7349
H24 H 0.1413 0.3217 0.7685
H25 H 0.0741 0.6618 0.6138
H26 H -0.0154 0.8551 0.5512
H27 H 0.1734 0.9071 0.4905
H28 H -0.0059 0.8644 0.4479
H29 H 0.2612 0.7306 0.3599
H30 H 0.3757 0.5294 0.3453

#END
