
#######################################################################
#
#                 Cambridge Crystallographic Data Centre
#                                CCDC 
#
#######################################################################
#
# If this CIF has been generated from an entry in the Cambridge 
# Structural Database, then it will include bibliographic, chemical, 
# crystal, experimental, refinement or atomic coordinate data resulting 
# from the CCDC's data processing and validation procedures.
#
#######################################################################

data_LICJUD
_symmetry_cell_setting           monoclinic
_symmetry_space_group_name_H-M   'P 21/c'
_symmetry_Int_Tables_number      14
_space_group_name_Hall           '-P 2ybc'
loop_
_symmetry_equiv_pos_site_id
_symmetry_equiv_pos_as_xyz
1 x,y,z
2 -x,1/2+y,1/2-z
3 -x,-y,-z
4 x,1/2-y,1/2+z
_cell_length_a                   10.7800(16)
_cell_length_b                   11.8800(11)
_cell_length_c                   11.4700(15)
_cell_angle_alpha                90
_cell_angle_beta                 114.820(5)
_cell_angle_gamma                90
_cell_volume                     1333.24
loop_
_atom_site_label
_atom_site_type_symbol
_atom_site_fract_x
_atom_site_fract_y
_atom_site_fract_z
O1 O 0.18458(15) 0.58214(12) 0.09720(13)
O2 O 0.23290(15) 0.40082(11) 0.14199(12)
H1 H 0.1983 0.3959 0.0615
O3 O 0.21240(16) 0.71931(11) 0.28290(15)
H2 H 0.1944 0.6991 0.2073
C1 C 0.22627(17) 0.50500(15) 0.17531(16)
C2 C 0.27113(15) 0.52152(13) 0.31465(15)
C3 C 0.26163(16) 0.62990(14) 0.36358(18)
C4 C 0.30015(17) 0.64514(15) 0.49205(18)
H3 H 0.2940 0.7180 0.5234
C5 C 0.3877(2) 0.5660(2) 0.7132(2)
H4 H 0.3831 0.6378 0.7476
C6 C 0.4312(2) 0.4754(2) 0.79280(19)
H5 H 0.4566 0.4851 0.8821
C7 C 0.43941(19) 0.3681(2) 0.74570(18)
H6 H 0.4696 0.3057 0.8027
C8 C 0.40393(16) 0.35361(16) 0.61795(16)
H7 H 0.4099 0.2809 0.5861
C9 C 0.31936(15) 0.43305(13) 0.39928(15)
H8 H 0.3267 0.3609 0.3670
C10 C 0.35824(15) 0.44576(13) 0.53190(15)
C11 C 0.34909(16) 0.55425(15) 0.57941(17)
O1 O 0.81542(15) 0.08214(12) 0.40280(13)
O2 O 0.76710(15) -0.09918(11) 0.35801(12)
H1 H 0.8017 -0.1041 0.4385
O3 O 0.78760(16) 0.21931(11) 0.21710(15)
H2 H 0.8056 0.1991 0.2927
C1 C 0.77373(17) 0.00500(15) 0.32469(16)
C2 C 0.72887(15) 0.02152(13) 0.18535(15)
C3 C 0.73837(16) 0.12990(14) 0.13642(18)
C4 C 0.69985(17) 0.14514(15) 0.00795(18)
H3 H 0.7060 0.2180 -0.0234
C5 C 0.6123(2) 0.0660(2) -0.2132(2)
H4 H 0.6169 0.1378 -0.2476
C6 C 0.5688(2) -0.0246(2) -0.29280(19)
H5 H 0.5434 -0.0149 -0.3821
C7 C 0.56059(19) -0.1319(2) -0.24570(18)
H6 H 0.5304 -0.1943 -0.3027
C8 C 0.59607(16) -0.14639(16) -0.11795(16)
H7 H 0.5901 -0.2191 -0.0861
C9 C 0.68064(15) -0.06695(13) 0.10072(15)
H8 H 0.6733 -0.1391 0.1330
C10 C 0.64176(15) -0.05424(13) -0.03190(15)
C11 C 0.65091(16) 0.05425(15) -0.07941(17)
O1 O 0.81542(15) 0.41786(12) 0.90280(13)
O2 O 0.76710(15) 0.59918(11) 0.85801(12)
H1 H 0.8017 0.6041 0.9385
O3 O 0.78760(16) 0.28069(11) 0.71710(15)
H2 H 0.8056 0.3009 0.7927
C1 C 0.77373(17) 0.49500(15) 0.82469(16)
C2 C 0.72887(15) 0.47848(13) 0.68535(15)
C3 C 0.73837(16) 0.37010(14) 0.63642(18)
C4 C 0.69985(17) 0.35486(15) 0.50795(18)
H3 H 0.7060 0.2820 0.4766
C5 C 0.6123(2) 0.4340(2) 0.2868(2)
H4 H 0.6169 0.3622 0.2524
C6 C 0.5688(2) 0.5246(2) 0.20720(19)
H5 H 0.5434 0.5149 0.1179
C7 C 0.56059(19) 0.6319(2) 0.25430(18)
H6 H 0.5304 0.6943 0.1973
C8 C 0.59607(16) 0.64639(16) 0.38205(16)
H7 H 0.5901 0.7191 0.4139
C9 C 0.68064(15) 0.56695(13) 0.60072(15)
H8 H 0.6733 0.6391 0.6330
C10 C 0.64176(15) 0.55424(13) 0.46810(15)
C11 C 0.65091(16) 0.44575(15) 0.42059(17)
O1 O 0.18458(15) 0.91786(12) 0.59720(13)
O2 O 0.23290(15) 1.09918(11) 0.64199(12)
H1 H 0.1983 1.1041 0.5615
O3 O 0.21240(16) 0.78069(11) 0.78290(15)
H2 H 0.1944 0.8009 0.7073
C1 C 0.22627(17) 0.99500(15) 0.67531(16)
C2 C 0.27113(15) 0.97848(13) 0.81465(15)
C3 C 0.26163(16) 0.87010(14) 0.86358(18)
C4 C 0.30015(17) 0.85486(15) 0.99205(18)
H3 H 0.2940 0.7820 1.0234
C5 C 0.3877(2) 0.9340(2) 1.2132(2)
H4 H 0.3831 0.8622 1.2476
C6 C 0.4312(2) 1.0246(2) 1.29280(19)
H5 H 0.4566 1.0149 1.3821
C7 C 0.43941(19) 1.1319(2) 1.24570(18)
H6 H 0.4696 1.1943 1.3027
C8 C 0.40393(16) 1.14639(16) 1.11795(16)
H7 H 0.4099 1.2191 1.0861
C9 C 0.31936(15) 1.06695(13) 0.89928(15)
H8 H 0.3267 1.1391 0.8670
C10 C 0.35824(15) 1.05424(13) 1.03190(15)
C11 C 0.34909(16) 0.94575(15) 1.07941(17)
O4 O 0.14552(17) 0.32739(12) 0.91843(12)
N1 N 0.10763(15) 0.37778(12) 0.80560(12)
C12 C 0.09075(19) 0.31387(15) 0.70389(16)
H9 H 0.1076 0.2352 0.7150
C13 C 0.04963(17) 0.36008(14) 0.58441(15)
H10 H 0.0389 0.3131 0.5138
C14 C 0.08520(18) 0.48919(14) 0.79176(16)
H11 H 0.0987 0.5343 0.8645
C15 C 0.04288(17) 0.53811(14) 0.67292(14)
H12 H 0.0266 0.6169 0.6644
C16 C 0.02329(14) 0.47465(13) 0.56446(14)
O4B O -0.14552(17) 0.67261(12) 0.08157(12)
N1B N -0.10763(15) 0.62222(12) 0.19440(12)
C12B C -0.09075(19) 0.68613(15) 0.29611(16)
H9B H -0.1076 0.7648 0.2850
C13B C -0.04963(17) 0.63992(14) 0.41559(15)
H10B H -0.0389 0.6869 0.4862
C14B C -0.08520(18) 0.51081(14) 0.20824(16)
H11B H -0.0987 0.4657 0.1355
C15B C -0.04288(17) 0.46189(14) 0.32708(14)
H12B H -0.0266 0.3831 0.3356
C16B C -0.02329(14) 0.52535(13) 0.43554(14)
O4 O 1.14552(17) 0.32739(12) 0.91843(12)
N1 N 1.10763(15) 0.37778(12) 0.80560(12)
C12 C 1.09075(19) 0.31387(15) 0.70389(16)
H9 H 1.1076 0.2352 0.7150
C13 C 1.04963(17) 0.36008(14) 0.58441(15)
H10 H 1.0389 0.3131 0.5138
C14 C 1.08520(18) 0.48919(14) 0.79176(16)
H11 H 1.0987 0.5343 0.8645
C15 C 1.04288(17) 0.53811(14) 0.67292(14)
H12 H 1.0266 0.6169 0.6644
C16 C 1.02329(14) 0.47465(13) 0.56446(14)
O4B O 0.85448(17) 0.67261(12) 0.08157(12)
N1B N 0.89237(15) 0.62222(12) 0.19440(12)
C12B C 0.90925(19) 0.68613(15) 0.29611(16)
H9B H 0.8924 0.7648 0.2850
C13B C 0.95037(17) 0.63992(14) 0.41559(15)
H10B H 0.9611 0.6869 0.4862
C14B C 0.91480(18) 0.51081(14) 0.20824(16)
H11B H 0.9013 0.4657 0.1355
C15B C 0.95712(17) 0.46189(14) 0.32708(14)
H12B H 0.9734 0.3831 0.3356
C16B C 0.97671(14) 0.52535(13) 0.43554(14)
O4 O -0.14552(17) -0.17261(12) -0.41843(12)
N1 N -0.10763(15) -0.12222(12) -0.30560(12)
C12 C -0.09075(19) -0.18613(15) -0.20389(16)
H9 H -0.1076 -0.2648 -0.2150
C13 C -0.04963(17) -0.13992(14) -0.08441(15)
H10 H -0.0389 -0.1869 -0.0138
C14 C -0.08520(18) -0.01081(14) -0.29176(16)
H11 H -0.0987 0.0343 -0.3645
C15 C -0.04288(17) 0.03811(14) -0.17292(14)
H12 H -0.0266 0.1169 -0.1644
C16 C -0.02329(14) -0.02535(13) -0.06446(14)
O4B O 0.14552(17) 0.17261(12) 0.41843(12)
N1B N 0.10763(15) 0.12222(12) 0.30560(12)
C12B C 0.09075(19) 0.18613(15) 0.20389(16)
H9B H 0.1076 0.2648 0.2150
C13B C 0.04963(17) 0.13992(14) 0.08441(15)
H10B H 0.0389 0.1869 0.0138
C14B C 0.08520(18) 0.01081(14) 0.29176(16)
H11B H 0.0987 -0.0343 0.3645
C15B C 0.04288(17) -0.03811(14) 0.17292(14)
H12B H 0.0266 -0.1169 0.1644
C16B C 0.02329(14) 0.02535(13) 0.06446(14)
O4 O -0.14552(17) -0.17261(12) 0.58157(12)
N1 N -0.10763(15) -0.12222(12) 0.69440(12)
C12 C -0.09075(19) -0.18613(15) 0.79611(16)
H9 H -0.1076 -0.2648 0.7850
C13 C -0.04963(17) -0.13992(14) 0.91559(15)
H10 H -0.0389 -0.1869 0.9862
C14 C -0.08520(18) -0.01081(14) 0.70824(16)
H11 H -0.0987 0.0343 0.6355
C15 C -0.04288(17) 0.03811(14) 0.82708(14)
H12 H -0.0266 0.1169 0.8356
C16 C -0.02329(14) -0.02535(13) 0.93554(14)
O4B O 0.14552(17) 0.17261(12) 1.41843(12)
N1B N 0.10763(15) 0.12222(12) 1.30560(12)
C12B C 0.09075(19) 0.18613(15) 1.20389(16)
H9B H 0.1076 0.2648 1.2150
C13B C 0.04963(17) 0.13992(14) 1.08441(15)
H10B H 0.0389 0.1869 1.0138
C14B C 0.08520(18) 0.01081(14) 1.29176(16)
H11B H 0.0987 -0.0343 1.3645
C15B C 0.04288(17) -0.03811(14) 1.17292(14)
H12B H 0.0266 -0.1169 1.1644
C16B C 0.02329(14) 0.02535(13) 1.06446(14)
O4 O -0.14552(17) 0.82739(12) -0.41843(12)
N1 N -0.10763(15) 0.87778(12) -0.30560(12)
C12 C -0.09075(19) 0.81387(15) -0.20389(16)
H9 H -0.1076 0.7352 -0.2150
C13 C -0.04963(17) 0.86008(14) -0.08441(15)
H10 H -0.0389 0.8131 -0.0138
C14 C -0.08520(18) 0.98919(14) -0.29176(16)
H11 H -0.0987 1.0343 -0.3645
C15 C -0.04288(17) 1.03811(14) -0.17292(14)
H12 H -0.0266 1.1169 -0.1644
C16 C -0.02329(14) 0.97465(13) -0.06446(14)
O4B O 0.14552(17) 1.17261(12) 0.41843(12)
N1B N 0.10763(15) 1.12222(12) 0.30560(12)
C12B C 0.09075(19) 1.18613(15) 0.20389(16)
H9B H 0.1076 1.2648 0.2150
C13B C 0.04963(17) 1.13992(14) 0.08441(15)
H10B H 0.0389 1.1869 0.0138
C14B C 0.08520(18) 1.01081(14) 0.29176(16)
H11B H 0.0987 0.9657 0.3645
C15B C 0.04288(17) 0.96189(14) 0.17292(14)
H12B H 0.0266 0.8831 0.1644
C16B C 0.02329(14) 1.02535(13) 0.06446(14)
O4 O -0.14552(17) 0.82739(12) 0.58157(12)
N1 N -0.10763(15) 0.87778(12) 0.69440(12)
C12 C -0.09075(19) 0.81387(15) 0.79611(16)
H9 H -0.1076 0.7352 0.7850
C13 C -0.04963(17) 0.86008(14) 0.91559(15)
H10 H -0.0389 0.8131 0.9862
C14 C -0.08520(18) 0.98919(14) 0.70824(16)
H11 H -0.0987 1.0343 0.6355
C15 C -0.04288(17) 1.03811(14) 0.82708(14)
H12 H -0.0266 1.1169 0.8356
C16 C -0.02329(14) 0.97465(13) 0.93554(14)
O4B O 0.14552(17) 1.17261(12) 1.41843(12)
N1B N 0.10763(15) 1.12222(12) 1.30560(12)
C12B C 0.09075(19) 1.18613(15) 1.20389(16)
H9B H 0.1076 1.2648 1.2150
C13B C 0.04963(17) 1.13992(14) 1.08441(15)
H10B H 0.0389 1.1869 1.0138
C14B C 0.08520(18) 1.01081(14) 1.29176(16)
H11B H 0.0987 0.9657 1.3645
C15B C 0.04288(17) 0.96189(14) 1.17292(14)
H12B H 0.0266 0.8831 1.1644
C16B C 0.02329(14) 1.02535(13) 1.06446(14)
O4 O 0.85448(17) -0.17261(12) -0.41843(12)
N1 N 0.89237(15) -0.12222(12) -0.30560(12)
C12 C 0.90925(19) -0.18613(15) -0.20389(16)
H9 H 0.8924 -0.2648 -0.2150
C13 C 0.95037(17) -0.13992(14) -0.08441(15)
H10 H 0.9611 -0.1869 -0.0138
C14 C 0.91480(18) -0.01081(14) -0.29176(16)
H11 H 0.9013 0.0343 -0.3645
C15 C 0.95712(17) 0.03811(14) -0.17292(14)
H12 H 0.9734 0.1169 -0.1644
C16 C 0.97671(14) -0.02535(13) -0.06446(14)
O4B O 1.14552(17) 0.17261(12) 0.41843(12)
N1B N 1.10763(15) 0.12222(12) 0.30560(12)
C12B C 1.09075(19) 0.18613(15) 0.20389(16)
H9B H 1.1076 0.2648 0.2150
C13B C 1.04963(17) 0.13992(14) 0.08441(15)
H10B H 1.0389 0.1869 0.0138
C14B C 1.08520(18) 0.01081(14) 0.29176(16)
H11B H 1.0987 -0.0343 0.3645
C15B C 1.04288(17) -0.03811(14) 0.17292(14)
H12B H 1.0266 -0.1169 0.1644
C16B C 1.02329(14) 0.02535(13) 0.06446(14)
O4 O 0.85448(17) -0.17261(12) 0.58157(12)
N1 N 0.89237(15) -0.12222(12) 0.69440(12)
C12 C 0.90925(19) -0.18613(15) 0.79611(16)
H9 H 0.8924 -0.2648 0.7850
C13 C 0.95037(17) -0.13992(14) 0.91559(15)
H10 H 0.9611 -0.1869 0.9862
C14 C 0.91480(18) -0.01081(14) 0.70824(16)
H11 H 0.9013 0.0343 0.6355
C15 C 0.95712(17) 0.03811(14) 0.82708(14)
H12 H 0.9734 0.1169 0.8356
C16 C 0.97671(14) -0.02535(13) 0.93554(14)
O4B O 1.14552(17) 0.17261(12) 1.41843(12)
N1B N 1.10763(15) 0.12222(12) 1.30560(12)
C12B C 1.09075(19) 0.18613(15) 1.20389(16)
H9B H 1.1076 0.2648 1.2150
C13B C 1.04963(17) 0.13992(14) 1.08441(15)
H10B H 1.0389 0.1869 1.0138
C14B C 1.08520(18) 0.01081(14) 1.29176(16)
H11B H 1.0987 -0.0343 1.3645
C15B C 1.04288(17) -0.03811(14) 1.17292(14)
H12B H 1.0266 -0.1169 1.1644
C16B C 1.02329(14) 0.02535(13) 1.06446(14)
O4 O 0.85448(17) 0.82739(12) -0.41843(12)
N1 N 0.89237(15) 0.87778(12) -0.30560(12)
C12 C 0.90925(19) 0.81387(15) -0.20389(16)
H9 H 0.8924 0.7352 -0.2150
C13 C 0.95037(17) 0.86008(14) -0.08441(15)
H10 H 0.9611 0.8131 -0.0138
C14 C 0.91480(18) 0.98919(14) -0.29176(16)
H11 H 0.9013 1.0343 -0.3645
C15 C 0.95712(17) 1.03811(14) -0.17292(14)
H12 H 0.9734 1.1169 -0.1644
C16 C 0.97671(14) 0.97465(13) -0.06446(14)
O4B O 1.14552(17) 1.17261(12) 0.41843(12)
N1B N 1.10763(15) 1.12222(12) 0.30560(12)
C12B C 1.09075(19) 1.18613(15) 0.20389(16)
H9B H 1.1076 1.2648 0.2150
C13B C 1.04963(17) 1.13992(14) 0.08441(15)
H10B H 1.0389 1.1869 0.0138
C14B C 1.08520(18) 1.01081(14) 0.29176(16)
H11B H 1.0987 0.9657 0.3645
C15B C 1.04288(17) 0.96189(14) 0.17292(14)
H12B H 1.0266 0.8831 0.1644
C16B C 1.02329(14) 1.02535(13) 0.06446(14)
O4 O 0.85448(17) 0.82739(12) 0.58157(12)
N1 N 0.89237(15) 0.87778(12) 0.69440(12)
C12 C 0.90925(19) 0.81387(15) 0.79611(16)
H9 H 0.8924 0.7352 0.7850
C13 C 0.95037(17) 0.86008(14) 0.91559(15)
H10 H 0.9611 0.8131 0.9862
C14 C 0.91480(18) 0.98919(14) 0.70824(16)
H11 H 0.9013 1.0343 0.6355
C15 C 0.95712(17) 1.03811(14) 0.82708(14)
H12 H 0.9734 1.1169 0.8356
C16 C 0.97671(14) 0.97465(13) 0.93554(14)
O4B O 1.14552(17) 1.17261(12) 1.41843(12)
N1B N 1.10763(15) 1.12222(12) 1.30560(12)
C12B C 1.09075(19) 1.18613(15) 1.20389(16)
H9B H 1.1076 1.2648 1.2150
C13B C 1.04963(17) 1.13992(14) 1.08441(15)
H10B H 1.0389 1.1869 1.0138
C14B C 1.08520(18) 1.01081(14) 1.29176(16)
H11B H 1.0987 0.9657 1.3645
C15B C 1.04288(17) 0.96189(14) 1.17292(14)
H12B H 1.0266 0.8831 1.1644
C16B C 1.02329(14) 1.02535(13) 1.06446(14)

#END
