./LICLOY_from_POSCAR.cif_generated_by_CrystalShift
_symmetry_cell_setting triclinic
_symmetry_space_group_name_H-M 'P 1'
loop_
_symmetry_equiv_pos_site_id
_symmetry_equiv_pos_as_xyz
1 x,y,z
_cell_length_a 9.387000
_cell_length_b 10.607000
_cell_length_c 12.364000
_cell_angle_alpha 78.530000
_cell_angle_beta 81.280000
_cell_angle_gamma 80.240000
_cell_volume 1180.118963
loop_
_atom_site_label
_atom_site_type_symbol
_atom_site_fract_x
_atom_site_fract_y
_atom_site_fract_z
H1 H 0.216800 1.047400 0.626500
H2 H -0.345800 1.507800 0.672100
H3 H -0.562200 1.404300 0.759200
H4 H -0.538300 1.175500 0.801000
H5 H -0.318200 1.049400 0.769700
H6 H 0.276700 0.777800 0.568700
H7 H 0.475600 0.664700 0.500500
H8 H 0.720500 0.711300 0.506300
H9 H 0.742600 0.883600 0.610000
H10 H 0.512000 1.006100 0.672000
H11 H 0.325200 0.624200 0.824400
H12 H 0.557900 0.542600 0.882900
H13 H 0.679500 0.677200 0.955300
H14 H 0.575200 0.885200 0.970700
H15 H 0.340600 0.968600 0.919900
H16 H -0.203700 0.695300 1.297900
H17 H -0.194800 0.512600 1.437300
H18 H -0.038900 0.315700 1.419900
H19 H 0.098200 0.306500 1.241900
H20 H 0.087400 0.478000 1.097400
H21 H 0.140400 0.683300 1.024700
H22 H 0.783200 -0.047400 0.373500
H23 H 1.123800 -0.369800 0.364000
H24 H 1.345800 -0.507800 0.327900
H25 H 1.562200 -0.404300 0.240800
H26 H 1.538300 -0.175500 0.199000
H27 H 1.318200 -0.049400 0.230300
H28 H 0.723300 0.222200 0.431300
H29 H 0.524400 0.335300 0.499500
H30 H 0.279500 0.288700 0.493700
H31 H 0.257400 0.116400 0.390000
H32 H 0.488000 -0.006100 0.328000
H33 H 0.674800 0.375800 0.175600
H34 H 0.442100 0.457400 0.117100
H35 H 0.320500 0.322800 0.044700
H36 H 0.859600 0.316700 -0.024700
H37 H 0.912600 0.522000 -0.097400
H38 H 0.901800 0.693500 -0.241900
H39 H 1.038900 0.684300 -0.419900
H40 H 1.194800 0.487400 -0.437300
H41 H 1.203700 0.304700 -0.297900
H42 H 0.659400 0.031400 0.080100
H43 H 0.424800 0.114800 0.029300
H44 H -0.123800 1.369800 0.636000
C45 C 1.344900 -0.408100 0.306700
C46 C 1.465500 -0.351500 0.258600
C47 C 1.454700 -0.218800 0.228900
C48 C 1.320700 -0.141200 0.246600
C49 C 1.199200 -0.197400 0.295800
C50 C 1.050700 -0.121700 0.317500
C51 C 0.634200 0.202200 0.423000
C52 C 0.500600 0.272900 0.464100
C53 C 0.372300 0.238200 0.451400
C54 C 0.367700 0.137400 0.402200
C55 C 0.494600 0.068800 0.362800
C56 C 0.627500 0.099800 0.371300
C57 C 0.622700 0.324700 0.143100
C58 C 0.947800 0.167000 0.078000
C59 C 0.858500 0.052000 0.248500
C60 C 1.001200 -0.011200 0.238800
C61 C 0.944800 0.261600 -0.013600
C62 C 1.069700 0.277700 -0.092900
C63 C 0.052200 0.833000 0.922000
C64 C 0.141500 0.948000 0.751500
C65 C -0.001200 1.011200 0.761200
C66 C 0.055200 0.738400 1.013600
C67 C -0.069700 0.722300 1.092900
C68 C -0.062300 0.605600 1.183900
C69 C 0.030400 0.491500 1.170000
C70 C 0.038300 0.386000 1.257600
C71 C -0.045200 0.393000 1.357400
C72 C -0.138900 0.505200 1.370100
C73 C -0.148600 0.610700 1.284600
C74 C 0.316300 0.800600 0.869200
C75 C 0.387800 0.879100 0.910700
C76 C 0.526100 0.833800 0.940000
C77 C 0.588500 0.709600 0.928200
C78 C 0.517100 0.631100 0.888600
C79 C 0.377300 0.675300 0.856900
C80 C 0.372500 0.900200 0.628700
C81 C 0.505400 0.931200 0.637200
C82 C 0.632300 0.862600 0.597800
C83 C 0.627700 0.761800 0.548600
C84 C 0.499400 0.727100 0.535900
C85 C 0.365800 0.797800 0.577000
C86 C -0.050700 1.121700 0.682500
C87 C -0.199200 1.197400 0.704200
C88 C -0.320700 1.141200 0.753400
C89 C -0.454700 1.218800 0.771100
C90 C -0.465500 1.351500 0.741400
C91 C -0.344900 1.408100 0.693300
C92 C -0.212500 1.332100 0.673300
C93 C 0.482900 0.368900 0.111400
C94 C 0.411500 0.290400 0.071800
C95 C 0.473900 0.166200 0.060000
C96 C 0.612200 0.120900 0.089300
C97 C 0.683700 0.199400 0.130800
C98 C 1.148600 0.389300 -0.284600
C99 C 1.138900 0.494800 -0.370100
C100 C 1.045200 0.607000 -0.357400
C101 C 0.961700 0.614000 -0.257600
C102 C 0.969600 0.508500 -0.170000
C103 C 1.062300 0.394400 -0.183900
C104 C 1.212500 -0.332100 0.326700
N105 N 0.170600 0.851200 0.840700
N106 N 0.829400 0.148800 0.159300
N107 N 0.756100 0.019700 0.333500
N108 N 0.243900 0.980300 0.666500
O109 O 0.029200 1.162200 0.597000
O110 O 0.970800 -0.162200 0.403000
O111 O 1.184300 0.198400 -0.087800
O112 O -0.184300 0.801600 1.087800
S113 S -0.097300 0.946400 0.888500
S114 S 1.097300 0.053600 0.111500

#END
