./LICLIU_from_POSCAR.cif_generated_by_CrystalShift
_symmetry_cell_setting triclinic
_symmetry_space_group_name_H-M 'P 1'
loop_
_symmetry_equiv_pos_site_id
_symmetry_equiv_pos_as_xyz
1 x,y,z
_cell_length_a 8.974800
_cell_length_b 10.401000
_cell_length_c 12.382700
_cell_angle_alpha 96.702000
_cell_angle_beta 99.469000
_cell_angle_gamma 108.771000
_cell_volume 1061.536987
loop_
_atom_site_label
_atom_site_type_symbol
_atom_site_fract_x
_atom_site_fract_y
_atom_site_fract_z
H1 H -0.451900 0.386800 0.404100
H2 H 0.626700 0.710000 1.127300
H3 H 0.850600 0.691800 0.712500
H4 H 0.835100 1.019600 0.909800
H5 H 0.443000 0.985500 0.210600
H6 H 0.772800 0.886600 1.045100
H7 H 0.702300 1.084600 0.319400
H8 H 1.182700 0.431800 0.548200
H9 H 0.804800 0.967600 0.438800
H10 H 1.081200 0.628400 0.869400
H11 H 0.651000 0.748300 0.459200
H12 H 0.349000 0.251700 0.540800
H13 H 0.195200 0.032400 0.561200
H14 H 0.297700 -0.084600 0.680600
H15 H 0.557000 0.014500 0.789400
H16 H -0.081200 0.371600 0.130600
H17 H 0.811800 0.748900 1.174200
H18 H 1.336200 0.734300 0.989300
H19 H 1.452500 0.880700 0.982000
H20 H -0.182700 0.568200 0.451800
H21 H 1.266900 0.837500 0.934600
H22 H 0.761800 0.473100 0.906400
H23 H -0.502000 0.282400 0.299700
H24 H 0.691600 0.603800 1.180800
H25 H 0.227200 0.113400 -0.045100
H26 H 1.451900 0.613200 0.595900
H27 H 0.164900 -0.019600 0.090200
H28 H 0.238200 0.526900 0.093600
H29 H 1.502000 0.717600 0.700300
H30 H 0.149400 0.308200 0.287500
H31 H -0.266900 0.162500 0.065400
H32 H 0.373300 0.290000 -0.127300
H33 H 0.308400 0.396200 -0.180800
H34 H 0.188200 0.251100 -0.174200
H35 H -0.452500 0.119300 0.018000
H36 H -0.336200 0.265700 0.010700
C37 C -0.356300 0.194700 0.055100
C38 C 0.286000 0.324800 -0.136910
C39 C 0.166040 0.270460 0.220620
C40 C 0.153260 0.133070 0.199550
C41 C 0.175200 0.073050 0.102330
C42 C 0.213200 0.153040 0.022100
C43 C 0.230340 0.290970 0.040860
C44 C 0.204050 0.350610 0.140430
C45 C -0.013570 0.577870 0.361390
C46 C -0.162760 0.526260 0.387910
C47 C -0.283260 0.411810 0.319400
C48 C 1.356300 0.805300 0.944900
C49 C -0.249170 0.356460 0.222160
C50 C 0.809420 0.428000 0.758100
C51 C 0.769080 0.283460 0.792900
C52 C 0.605980 0.195770 0.731730
C53 C 0.515400 0.062540 0.740970
C54 C -0.099570 0.409800 0.196640
C55 C 0.361100 0.004000 0.675520
C56 C 0.024380 0.519590 0.267850
C57 C 0.299800 0.074100 0.603270
C58 C 0.334330 0.597970 0.340360
C59 C 0.390000 0.205640 0.591360
C60 C 0.456090 0.733990 0.342210
C61 C 0.543910 0.266010 0.657790
C62 C 0.665670 0.402030 0.659640
C63 C 0.975620 0.480410 0.732150
C64 C 1.099570 0.590200 0.803360
C65 C 0.610000 0.794360 0.408640
C66 C 1.249170 0.643540 0.777840
C67 C 1.283260 0.588190 0.680600
C68 C 1.162760 0.473740 0.612090
C69 C 0.700200 0.925900 0.396730
C70 C 1.013570 0.422130 0.638610
C71 C 0.795950 0.649390 0.859570
C72 C 0.769660 0.709030 0.959140
C73 C 0.786800 0.846960 0.977900
C74 C 0.638900 0.996000 0.324480
C75 C 0.824800 0.926950 0.897670
C76 C 0.484600 0.937460 0.259030
C77 C 0.846740 0.866930 0.800450
C78 C 0.833960 0.729540 0.779380
C79 C 0.394020 0.804230 0.268270
C80 C 0.714000 0.675200 1.136910
C81 C 0.230920 0.716540 0.207100
C82 C 0.190580 0.572000 0.241900
N83 N -0.430670 0.353060 0.344110
N84 N 0.214760 0.487800 0.149050
N85 N 1.430670 0.646940 0.655890
N86 N 0.785240 0.512200 0.850950
O87 O 0.346500 0.519000 0.402920
O88 O 0.268380 0.379260 -0.031700
O89 O 0.144000 0.743480 0.135430
O90 O -0.375340 0.247170 0.157180
O91 O 0.731620 0.620740 1.031700
O92 O 1.375340 0.752830 0.842820
O93 O 0.856000 0.256520 0.864570
O94 O 0.653500 0.481000 0.597080
Cl95 Cl 0.127040 0.725710 0.448350
Cl96 Cl 0.103890 0.034340 0.301580
Cl97 Cl 0.872960 0.274290 0.551650
Cl98 Cl 0.896110 0.965660 0.698420

#END
