
#######################################################################
#
#                 Cambridge Crystallographic Data Centre
#                                CCDC 
#
#######################################################################
#
# If this CIF has been generated from an entry in the Cambridge 
# Structural Database, then it will include bibliographic, chemical, 
# crystal, experimental, refinement or atomic coordinate data resulting 
# from the CCDC's data processing and validation procedures.
#
#######################################################################

data_LICLOY
_symmetry_cell_setting           triclinic
_symmetry_space_group_name_H-M   'P -1'
_symmetry_Int_Tables_number      2
_space_group_name_Hall           '-P 1'
loop_
_symmetry_equiv_pos_site_id
_symmetry_equiv_pos_as_xyz
1 x,y,z
2 -x,-y,-z
_cell_length_a                   9.387(3)
_cell_length_b                   10.607(2)
_cell_length_c                   12.364(2)
_cell_angle_alpha                78.53(2)
_cell_angle_beta                 81.28(2)
_cell_angle_gamma                80.24(3)
_cell_volume                     1180.12
loop_
_atom_site_label
_atom_site_type_symbol
_atom_site_fract_x
_atom_site_fract_y
_atom_site_fract_z
S1 S 1.0973(1) 0.0536(1) 0.1115(1)
O1 O 1.1843(3) 0.1984(3) -0.0878(2)
O2 O 0.9708(3) -0.1622(3) 0.4030(2)
N1 N 0.8294(3) 0.1488(3) 0.1593(2)
N2 N 0.7561(4) 0.0197(3) 0.3335(3)
C1 C 0.9478(3) 0.1670(3) 0.0780(3)
C2 C 0.8585(4) 0.0520(3) 0.2485(3)
C3 C 1.0012(4) -0.0112(3) 0.2388(3)
C4 C 0.9448(4) 0.2616(3) -0.0136(3)
C5 C 1.0697(4) 0.2777(3) -0.0929(3)
C6 C 1.0623(4) 0.3944(3) -0.1839(3)
C7 C 0.9696(4) 0.5085(4) -0.1700(3)
C8 C 0.9617(5) 0.6140(4) -0.2576(4)
C9 C 1.0452(5) 0.6070(4) -0.3574(4)
C10 C 1.1389(5) 0.4948(5) -0.3701(4)
C11 C 1.1486(4) 0.3893(4) -0.2846(3)
C12 C 0.6837(3) 0.1994(3) 0.1308(3)
C13 C 0.6122(4) 0.1209(4) 0.0893(3)
C14 C 0.4739(4) 0.1662(5) 0.0600(3)
C15 C 0.4115(4) 0.2904(5) 0.0718(4)
C16 C 0.4829(5) 0.3689(4) 0.1114(4)
C17 C 0.6227(4) 0.3247(4) 0.1431(3)
C18 C 0.6275(4) 0.0998(3) 0.3713(3)
C19 C 0.4946(5) 0.0688(4) 0.3628(3)
C20 C 0.3677(5) 0.1374(5) 0.4022(4)
C21 C 0.3723(6) 0.2382(5) 0.4514(4)
C22 C 0.5006(8) 0.2729(5) 0.4641(4)
C23 C 0.6342(6) 0.2022(5) 0.4230(4)
C24 C 1.0507(4) -0.1217(4) 0.3175(3)
C25 C 1.1992(4) -0.1974(3) 0.2958(3)
C26 C 1.3207(4) -0.1412(4) 0.2466(3)
C27 C 1.4547(4) -0.2188(4) 0.2289(4)
C28 C 1.4655(5) -0.3515(4) 0.2586(4)
C29 C 1.3449(5) -0.4081(4) 0.3067(4)
C30 C 1.2125(4) -0.3321(4) 0.3267(3)
H1 H 0.8596(37) 0.3167(31) -0.0247(26)
H2 H 0.9126(44) 0.5220(38) -0.0974(34)
H3 H 0.9018(48) 0.6935(44) -0.2419(36)
H4 H 1.0389(38) 0.6843(36) -0.4199(31)
H5 H 1.1948(41) 0.4874(35) -0.4373(32)
H6 H 1.2037(39) 0.3047(35) -0.2979(29)
H7 H 0.6594(40) 0.0314(36) 0.0801(29)
H8 H 0.4248(42) 0.1148(37) 0.0293(32)
H9 H 0.3205(49) 0.3228(41) 0.0447(35)
H10 H 0.4421(42) 0.4574(39) 0.1171(31)
H11 H 0.6748(40) 0.3758(35) 0.1756(30)
H12 H 0.4880(39) -0.0061(36) 0.3280(30)
H13 H 0.2574(60) 0.1164(49) 0.3900(42)
H14 H 0.2795(71) 0.2887(60) 0.4937(52)
H15 H 0.5244(57) 0.3353(51) 0.4995(43)
H16 H 0.7233(50) 0.2222(43) 0.4313(37)
H17 H 1.3182(41) -0.0494(39) 0.2303(31)
H18 H 1.5383(43) -0.1755(36) 0.1990(31)
H19 H 1.5622(49) -0.4043(43) 0.2408(35)
H20 H 1.3458(47) -0.5078(44) 0.3279(35)
H21 H 1.1238(45) -0.3698(39) 0.3640(33)
H22 H 0.7832(45) -0.0474(41) 0.3735(34)
S1 S -0.0973(1) 0.9464(1) 0.8885(1)
O1 O -0.1843(3) 0.8016(3) 1.0878(2)
O2 O 0.0292(3) 1.1622(3) 0.5970(2)
N1 N 0.1706(3) 0.8512(3) 0.8407(2)
N2 N 0.2439(4) 0.9803(3) 0.6665(3)
C1 C 0.0522(3) 0.8330(3) 0.9220(3)
C2 C 0.1415(4) 0.9480(3) 0.7515(3)
C3 C -0.0012(4) 1.0112(3) 0.7612(3)
C4 C 0.0552(4) 0.7384(3) 1.0136(3)
C5 C -0.0697(4) 0.7223(3) 1.0929(3)
C6 C -0.0623(4) 0.6056(3) 1.1839(3)
C7 C 0.0304(4) 0.4915(4) 1.1700(3)
C8 C 0.0383(5) 0.3860(4) 1.2576(4)
C9 C -0.0452(5) 0.3930(4) 1.3574(4)
C10 C -0.1389(5) 0.5052(5) 1.3701(4)
C11 C -0.1486(4) 0.6107(4) 1.2846(3)
C12 C 0.3163(3) 0.8006(3) 0.8692(3)
C13 C 0.3878(4) 0.8791(4) 0.9107(3)
C14 C 0.5261(4) 0.8338(5) 0.9400(3)
C15 C 0.5885(4) 0.7096(5) 0.9282(4)
C16 C 0.5171(5) 0.6311(4) 0.8886(4)
C17 C 0.3773(4) 0.6753(4) 0.8569(3)
C18 C 0.3725(4) 0.9002(3) 0.6287(3)
C19 C 0.5054(5) 0.9312(4) 0.6372(3)
C20 C 0.6323(5) 0.8626(5) 0.5978(4)
C21 C 0.6277(6) 0.7618(5) 0.5486(4)
C22 C 0.4994(8) 0.7271(5) 0.5359(4)
C23 C 0.3658(6) 0.7978(5) 0.5770(4)
C24 C -0.0507(4) 1.1217(4) 0.6825(3)
C25 C -0.1992(4) 1.1974(3) 0.7042(3)
C26 C -0.3207(4) 1.1412(4) 0.7534(3)
C27 C -0.4547(4) 1.2188(4) 0.7711(4)
C28 C -0.4655(5) 1.3515(4) 0.7414(4)
C29 C -0.3449(5) 1.4081(4) 0.6933(4)
C30 C -0.2125(4) 1.3321(4) 0.6733(3)
H1 H 0.1404(37) 0.6833(31) 1.0247(26)
H2 H 0.0874(44) 0.4780(38) 1.0974(34)
H3 H 0.0982(48) 0.3065(44) 1.2419(36)
H4 H -0.0389(38) 0.3157(36) 1.4199(31)
H5 H -0.1948(41) 0.5126(35) 1.4373(32)
H6 H -0.2037(39) 0.6953(35) 1.2979(29)
H7 H 0.3406(40) 0.9686(36) 0.9199(29)
H8 H 0.5752(42) 0.8852(37) 0.9707(32)
H9 H 0.6795(49) 0.6772(41) 0.9553(35)
H10 H 0.5579(42) 0.5426(39) 0.8829(31)
H11 H 0.3252(40) 0.6242(35) 0.8244(30)
H12 H 0.5120(39) 1.0061(36) 0.6720(30)
H13 H 0.7426(60) 0.8836(49) 0.6100(42)
H14 H 0.7205(71) 0.7113(60) 0.5063(52)
H15 H 0.4756(57) 0.6647(51) 0.5005(43)
H16 H 0.2767(50) 0.7778(43) 0.5687(37)
H17 H -0.3182(41) 1.0494(39) 0.7697(31)
H18 H -0.5383(43) 1.1755(36) 0.8010(31)
H19 H -0.5622(49) 1.4043(43) 0.7592(35)
H20 H -0.3458(47) 1.5078(44) 0.6721(35)
H21 H -0.1238(45) 1.3698(39) 0.6360(33)
H22 H 0.2168(45) 1.0474(41) 0.6265(34)

#END
