./LICMIT01_from_POSCAR.cif_generated_by_CrystalShift
_symmetry_cell_setting triclinic
_symmetry_space_group_name_H-M 'P 1'
loop_
_symmetry_equiv_pos_site_id
_symmetry_equiv_pos_as_xyz
1 x,y,z
_cell_length_a 15.142000
_cell_length_b 12.320000
_cell_length_c 7.196000
_cell_angle_alpha 90.000000
_cell_angle_beta 99.180000
_cell_angle_gamma 90.000000
_cell_volume 1325.216205
loop_
_atom_site_label
_atom_site_type_symbol
_atom_site_fract_x
_atom_site_fract_y
_atom_site_fract_z
H1 H 0.782000 -0.127000 0.729000
H2 H 0.698000 -0.158000 0.579000
H3 H 0.898000 -0.019000 0.651000
H4 H 0.915000 -0.087000 0.481000
H5 H 0.899000 0.040000 0.447000
H6 H 0.713000 -0.190000 0.063000
H7 H 0.789000 -0.222000 0.222000
H8 H 0.697000 -0.226000 0.267000
H9 H 0.762000 0.000000 0.009000
H10 H 0.813000 0.075000 0.185000
H11 H 0.857000 -0.037000 0.128000
H12 H 0.591000 0.124000 0.687000
H13 H 0.410000 0.347000 0.431000
H14 H 0.444000 0.299000 0.138000
H15 H 0.500000 0.230000 0.844000
H16 H 0.570000 0.090000 0.053000
H17 H 0.718000 0.373000 -0.229000
H18 H 0.707000 0.286000 -0.069000
H19 H 0.802000 0.342000 -0.079000
H20 H 0.070000 0.410000 0.553000
H21 H 0.000000 0.270000 1.344000
H22 H -0.056000 0.201000 0.638000
H23 H -0.090000 0.153000 0.931000
H24 H 0.091000 0.376000 1.187000
H25 H 0.357000 0.537000 0.628000
H26 H 0.313000 0.425000 0.685000
H27 H 0.262000 0.500000 0.509000
H28 H 0.197000 0.726000 0.767000
H29 H 0.289000 0.722000 0.722000
H30 H 0.213000 0.690000 0.563000
H31 H 0.399000 0.460000 0.947000
H32 H 0.415000 0.587000 0.981000
H33 H 0.398000 0.519000 1.151000
H34 H 0.198000 0.658000 1.079000
H35 H 0.293000 0.714000 1.069000
H36 H 0.282000 0.627000 1.229000
H37 H 0.602000 0.481000 -0.151000
H38 H 0.585000 0.413000 0.019000
H39 H 0.601000 0.540000 0.053000
H40 H 0.787000 0.310000 0.437000
H41 H 0.711000 0.278000 0.278000
H42 H 0.803000 0.274000 0.233000
H43 H 0.738000 0.500000 0.491000
H44 H 0.687000 0.575000 0.315000
H45 H 0.643000 0.463000 0.372000
H46 H 0.909000 0.624000 -0.187000
H47 H 1.090000 0.847000 0.069000
H48 H 1.056000 0.799000 0.362000
H49 H 1.000000 0.730000 -0.344000
H50 H 0.930000 0.590000 0.447000
H51 H 0.218000 1.127000 0.271000
H52 H 0.207000 1.214000 0.431000
H53 H 0.302000 1.158000 0.421000
H54 H 0.102000 1.019000 0.349000
H55 H 0.085000 1.087000 0.519000
H56 H 0.430000 0.910000 0.947000
H57 H 0.500000 0.770000 0.156000
H58 H 0.556000 0.701000 0.862000
H59 H 0.590000 0.653000 0.569000
H60 H 0.409000 0.876000 0.313000
H61 H 0.143000 1.037000 0.872000
H62 H 0.187000 0.925000 0.815000
H63 H 0.238000 1.000000 0.991000
H64 H 0.303000 1.226000 0.733000
H65 H 0.211000 1.222000 0.778000
H66 H 0.287000 1.190000 0.937000
H67 H 0.101000 0.960000 0.553000
H68 H 0.793000 -0.214000 0.569000
C69 C 0.503400 0.759900 0.414300
C70 C 0.546000 0.709100 0.577100
C71 C 0.525500 0.737900 0.750400
C72 C 0.460400 0.815400 0.765000
C73 C 0.154400 0.444800 0.887600
C74 C 0.248000 0.568400 0.761100
C75 C 0.284300 0.553200 0.973700
C76 C 0.298200 0.502300 0.631300
C77 C 0.845600 0.555200 0.112400
C78 C 0.752000 0.431600 0.238900
C79 C 0.715700 0.446800 0.026300
C80 C 0.701800 0.497700 0.368700
C81 C 0.763300 0.314900 0.306100
C82 C 0.616300 0.472700 -0.017700
C83 C 0.739700 0.355000 -0.097600
C84 C 0.236700 0.685100 0.693900
C85 C 0.383700 0.527300 1.017700
C86 C 0.916900 0.633400 0.102100
C87 C 0.960400 0.684600 0.265000
C88 C 1.025500 0.762100 0.250400
C89 C 1.046000 0.790900 0.077100
C90 C 1.003400 0.740100 -0.085700
C91 C 0.939500 0.661700 -0.073600
C92 C 0.416900 0.866600 0.602100
C93 C 0.260300 0.645000 1.097600
C94 C 0.083100 0.366600 0.897900
C95 C 0.239700 1.145000 0.402400
C96 C 0.116300 1.027300 0.482300
C97 C 0.263300 1.185100 0.806100
C98 C 0.201800 1.002300 0.868700
C99 C 0.215700 1.053200 0.526300
C100 C 0.252000 1.068400 0.738900
C101 C 0.345600 0.944800 0.612400
C102 C 0.039600 0.315400 0.735000
C103 C -0.025500 0.237900 0.749600
C104 C 0.560500 0.161700 0.573600
C105 C 0.496600 0.240100 0.585700
C106 C 0.060500 0.338300 1.073600
C107 C -0.003400 0.259900 1.085700
C108 C -0.046000 0.209100 0.922900
C109 C 0.454000 0.290900 0.422900
C110 C 0.474500 0.262100 0.249600
C111 C 0.539600 0.184600 0.235000
C112 C 0.583100 0.133400 0.397900
C113 C 0.654400 0.055200 0.387600
C114 C 0.748000 -0.068400 0.261100
C115 C 0.784300 -0.053200 0.473700
C116 C 0.798200 -0.002300 0.131300
C117 C 0.736700 -0.185100 0.193900
C118 C 0.883700 -0.027300 0.517700
C119 C 0.760300 -0.145000 0.597600
C120 C 0.439500 0.838300 0.426400
N121 N 0.231000 0.455500 1.015600
N122 N 0.731000 0.044500 0.515600
N123 N 0.658100 -0.016300 0.250300
N124 N 0.841900 0.483700 0.249700
N125 N 0.769000 0.544500 -0.015600
N126 N 0.158100 0.516300 0.750300
N127 N 0.269000 0.955500 0.484400
N128 N 0.341900 1.016300 0.749700
O129 O 0.246800 0.897400 0.338300
O130 O 0.437200 0.834200 0.938100
O131 O 0.404200 1.032700 0.894200
O132 O 0.062800 0.334200 0.561900
O133 O 0.528100 0.728400 0.247500
O134 O 1.028100 0.771600 -0.252500
O135 O 0.937200 0.665800 0.438100
O136 O 0.595800 -0.032700 0.105800
O137 O 0.753200 0.102600 0.661700
O138 O 0.746800 0.602600 -0.161700
O139 O 0.904200 0.467300 0.394200
O140 O 0.471900 0.271600 0.752500
O141 O -0.028100 0.228400 1.252500
O142 O 0.253200 0.397400 1.161700
O143 O 0.562800 0.165800 0.061900
O144 O 0.095800 0.532700 0.605800

#END
