./LICMIT02_from_POSCAR.cif_generated_by_CrystalShift
_symmetry_cell_setting triclinic
_symmetry_space_group_name_H-M 'P 1'
loop_
_symmetry_equiv_pos_site_id
_symmetry_equiv_pos_as_xyz
1 x,y,z
_cell_length_a 10.586000
_cell_length_b 14.072000
_cell_length_c 9.744000
_cell_angle_alpha 90.000000
_cell_angle_beta 113.890000
_cell_angle_gamma 90.000000
_cell_volume 1327.166530
loop_
_atom_site_label
_atom_site_type_symbol
_atom_site_fract_x
_atom_site_fract_y
_atom_site_fract_z
H1 H -0.193000 0.148000 0.709000
H2 H 0.380000 0.579000 1.030000
H3 H 0.348000 0.469000 0.967000
H4 H 0.254000 0.524000 1.027000
H5 H 0.385000 0.643000 0.780000
H6 H 0.370000 0.534000 0.736000
H7 H 0.273000 0.602000 0.629000
H8 H 0.019000 0.754000 0.666000
H9 H 0.166000 0.745000 0.653000
H10 H 0.056000 0.667000 0.572000
H11 H 0.210000 0.686000 1.038000
H12 H 0.127000 0.773000 0.936000
H13 H 0.273000 0.746000 0.949000
H14 H 0.026000 0.334000 0.783000
H15 H -0.374000 0.258000 0.625000
H16 H -0.436000 0.415000 0.589000
H17 H 0.693000 -0.352000 0.291000
H18 H 0.728000 0.096000 0.297000
H19 H 0.120000 0.079000 -0.030000
H20 H 0.064000 1.085000 0.589000
H21 H 0.126000 1.242000 0.625000
H22 H 0.526000 1.166000 0.783000
H23 H 0.773000 0.754000 0.949000
H24 H 0.627000 0.727000 0.936000
H25 H 0.710000 0.814000 1.038000
H26 H 0.556000 0.833000 0.572000
H27 H 0.666000 0.755000 0.653000
H28 H 0.519000 0.746000 0.666000
H29 H 0.773000 0.898000 0.629000
H30 H 0.870000 0.966000 0.736000
H31 H 0.885000 0.857000 0.780000
H32 H 0.754000 0.976000 1.027000
H33 H 0.848000 1.031000 0.967000
H34 H 0.880000 0.921000 1.030000
H35 H 0.272000 0.904000 0.703000
H36 H 0.307000 1.352000 0.709000
H37 H 0.152000 -0.031000 0.033000
H38 H 0.246000 0.024000 -0.027000
H39 H 0.115000 0.143000 0.220000
H40 H 0.130000 0.034000 0.264000
H41 H 0.227000 0.102000 0.371000
H42 H 0.481000 0.254000 0.334000
H43 H 0.334000 0.245000 0.347000
H44 H 0.444000 0.167000 0.428000
H45 H 0.290000 0.186000 -0.038000
H46 H 0.373000 0.273000 0.064000
H47 H 0.227000 0.246000 0.051000
H48 H 0.474000 -0.166000 0.217000
H49 H 0.874000 -0.242000 0.375000
H50 H 0.936000 -0.085000 0.411000
H51 H 1.193000 0.852000 0.291000
H52 H 1.228000 0.404000 0.297000
H53 H 0.620000 0.421000 -0.030000
H54 H 0.652000 0.531000 0.033000
H55 H 0.746000 0.476000 -0.027000
H56 H 1.436000 0.585000 0.411000
H57 H 1.374000 0.742000 0.375000
H58 H 0.974000 0.666000 0.217000
H59 H 0.727000 0.254000 0.051000
H60 H 0.873000 0.227000 0.064000
H61 H 0.790000 0.314000 -0.038000
H62 H 0.944000 0.333000 0.428000
H63 H 0.834000 0.255000 0.347000
H64 H 0.981000 0.246000 0.334000
H65 H 0.727000 0.398000 0.371000
H66 H 0.630000 0.466000 0.264000
H67 H 0.615000 0.357000 0.220000
H68 H -0.228000 0.596000 0.703000
C69 C 1.165500 0.721800 0.290600
C70 C 1.303300 0.696900 0.348600
C71 C 1.342700 0.603000 0.371000
C72 C 1.244600 0.531400 0.338300
C73 C 0.504700 0.986900 0.750700
C74 C 0.636400 0.844900 0.810100
C75 C 0.731300 0.928800 0.814000
C76 C 0.691100 0.779000 0.944200
C77 C 0.495300 0.013100 0.249300
C78 C 0.363600 0.155100 0.189900
C79 C 0.268700 0.071200 0.186000
C80 C 0.308900 0.221000 0.055800
C81 C 0.413900 0.210500 0.335800
C82 C 0.173300 0.087700 0.264200
C83 C 0.188700 0.031300 0.028900
C84 C 0.586100 0.789500 0.664200
C85 C 0.826700 0.912300 0.735800
C86 C 0.605600 -0.056000 0.280900
C87 C 0.744600 -0.031400 0.338300
C88 C 0.842700 -0.103000 0.371000
C89 C 0.803300 -0.196900 0.348600
C90 C 0.665500 -0.221800 0.290600
C91 C 0.567700 -0.152000 0.255600
C92 C 1.105600 0.556000 0.280900
C93 C 0.811300 0.968700 0.971100
C94 C 0.394400 1.056000 0.719100
C95 C 0.688700 0.468700 0.028900
C96 C 0.673300 0.412300 0.264200
C97 C 0.913900 0.289500 0.335800
C98 C 0.808900 0.279000 0.055800
C99 C 0.768700 0.428800 0.186000
C100 C 0.863600 0.344900 0.189900
C101 C 0.995300 0.486900 0.249300
C102 C 0.255400 1.031400 0.661700
C103 C 0.157300 1.103000 0.629000
C104 C -0.067700 0.348000 0.744400
C105 C -0.165500 0.278200 0.709400
C106 C 0.432300 1.152000 0.744400
C107 C 0.334500 1.221800 0.709400
C108 C 0.196700 1.196900 0.651400
C109 C -0.303300 0.303100 0.651400
C110 C -0.342700 0.397000 0.629000
C111 C -0.244600 0.468600 0.661700
C112 C -0.105600 0.444000 0.719100
C113 C 0.004700 0.513100 0.750700
C114 C 0.136400 0.655100 0.810100
C115 C 0.231300 0.571200 0.814000
C116 C 0.191100 0.721000 0.944200
C117 C 0.086100 0.710500 0.664200
C118 C 0.326700 0.587700 0.735800
C119 C 0.311300 0.531300 0.971100
C120 C 1.067700 0.652000 0.255600
N121 N 0.624700 1.002100 0.733600
N122 N 0.124700 0.497900 0.733600
N123 N 0.013100 0.601300 0.808100
N124 N 0.486900 0.101300 0.191900
N125 N 0.375300 -0.002100 0.266400
N126 N 0.513100 0.898700 0.808100
N127 N 0.875300 0.502100 0.266400
N128 N 0.986900 0.398700 0.191900
O129 O 0.853200 0.572300 0.337000
O130 O 1.290800 0.440200 0.369900
O131 O 1.080000 0.359300 0.156200
O132 O 0.209200 0.940200 0.630100
O133 O 1.120300 0.814200 0.260600
O134 O 0.620300 -0.314200 0.260600
O135 O 0.790800 0.059800 0.369900
O136 O -0.080000 0.640700 0.843800
O137 O 0.146800 0.427700 0.663000
O138 O 0.353200 -0.072300 0.337000
O139 O 0.580000 0.140700 0.156200
O140 O -0.120300 0.185800 0.739400
O141 O 0.379700 1.314200 0.739400
O142 O 0.646800 1.072300 0.663000
O143 O -0.290800 0.559800 0.630100
O144 O 0.420000 0.859300 0.843800

#END
