
#######################################################################
#
#                 Cambridge Crystallographic Data Centre
#                                CCDC 
#
#######################################################################
#
# If this CIF has been generated from an entry in the Cambridge 
# Structural Database, then it will include bibliographic, chemical, 
# crystal, experimental, refinement or atomic coordinate data resulting 
# from the CCDC's data processing and validation procedures.
#
#######################################################################

data_LICPIY
_symmetry_cell_setting           monoclinic
_symmetry_space_group_name_H-M   'P 21/c'
_symmetry_Int_Tables_number      14
_space_group_name_Hall           '-P 2ybc'
loop_
_symmetry_equiv_pos_site_id
_symmetry_equiv_pos_as_xyz
1 x,y,z
2 -x,1/2+y,1/2-z
3 -x,-y,-z
4 x,1/2-y,1/2+z
_cell_length_a                   12.633(2)
_cell_length_b                   6.0545(11)
_cell_length_c                   31.019(6)
_cell_angle_alpha                90
_cell_angle_beta                 102.008(3)
_cell_angle_gamma                90
_cell_volume                     2320.62
loop_
_atom_site_label
_atom_site_type_symbol
_atom_site_fract_x
_atom_site_fract_y
_atom_site_fract_z
C12 C 0.17308(7) 1.15218(15) 0.21106(3)
H8 H 0.2078 1.2915 0.2114
C13 C 0.12487(7) 1.05822(15) 0.17142(3)
C14 C 0.07549(8) 0.84730(16) 0.17048(3)
H9 H 0.0430 0.7824 0.1430
C15 C 0.07434(8) 0.73667(15) 0.20894(3)
H10 H 0.0420 0.5946 0.2079
C16 C 0.11729(8) 0.72606(16) 0.29092(3)
H11 H 0.0840 0.5852 0.2907
C17 C 0.16130(8) 0.82513(18) 0.33030(3)
H12 H 0.1576 0.7529 0.3571
C18 C 0.21209(8) 1.03369(18) 0.33139(3)
H13 H 0.2428 1.1000 0.3589
C19 C 0.21734(8) 1.14099(16) 0.29283(3)
H14 H 0.2517 1.2810 0.2938
C20 C 0.17149(7) 1.04349(15) 0.25143(3)
C21 C 0.12107(7) 0.83250(15) 0.25040(3)
C22 C 0.12019(7) 1.17876(15) 0.12910(3)
O3 O 0.18331(6) 1.35542(12) 0.13369(2)
H15 H 0.1778 1.4182 0.1092
O4 O 0.06311(6) 1.12184(13) 0.09404(2)
C12 C 0.82692(7) 0.65218(15) 0.28894(3)
H8 H 0.7922 0.7915 0.2886
C13 C 0.87513(7) 0.55822(15) 0.32858(3)
C14 C 0.92451(8) 0.34730(16) 0.32952(3)
H9 H 0.9570 0.2824 0.3570
C15 C 0.92566(8) 0.23667(15) 0.29106(3)
H10 H 0.9580 0.0946 0.2921
C16 C 0.88271(8) 0.22606(16) 0.20908(3)
H11 H 0.9160 0.0852 0.2093
C17 C 0.83870(8) 0.32513(18) 0.16970(3)
H12 H 0.8424 0.2529 0.1429
C18 C 0.78791(8) 0.53369(18) 0.16861(3)
H13 H 0.7572 0.6000 0.1411
C19 C 0.78266(8) 0.64099(16) 0.20717(3)
H14 H 0.7483 0.7810 0.2062
C20 C 0.82851(7) 0.54349(15) 0.24857(3)
C21 C 0.87893(7) 0.33250(15) 0.24960(3)
C22 C 0.87981(7) 0.67876(15) 0.37090(3)
O3 O 0.81669(6) 0.85542(12) 0.36631(2)
H15 H 0.8222 0.9182 0.3908
O4 O 0.93689(6) 0.62184(13) 0.40596(2)
C12 C 0.82692(7) -0.15218(15) 0.78894(3)
H8 H 0.7922 -0.2915 0.7886
C13 C 0.87513(7) -0.05822(15) 0.82858(3)
C14 C 0.92451(8) 0.15270(16) 0.82952(3)
H9 H 0.9570 0.2176 0.8570
C15 C 0.92566(8) 0.26333(15) 0.79106(3)
H10 H 0.9580 0.4054 0.7921
C16 C 0.88271(8) 0.27394(16) 0.70908(3)
H11 H 0.9160 0.4148 0.7093
C17 C 0.83870(8) 0.17487(18) 0.66970(3)
H12 H 0.8424 0.2471 0.6429
C18 C 0.78791(8) -0.03369(18) 0.66861(3)
H13 H 0.7572 -0.1000 0.6411
C19 C 0.78266(8) -0.14099(16) 0.70717(3)
H14 H 0.7483 -0.2810 0.7062
C20 C 0.82851(7) -0.04349(15) 0.74857(3)
C21 C 0.87893(7) 0.16750(15) 0.74960(3)
C22 C 0.87981(7) -0.17876(15) 0.87090(3)
O3 O 0.81669(6) -0.35542(12) 0.86631(2)
H15 H 0.8222 -0.4182 0.8908
O4 O 0.93689(6) -0.12184(13) 0.90596(2)
C12 C 0.17308(7) 0.34782(15) 0.71106(3)
H8 H 0.2078 0.2085 0.7114
C13 C 0.12487(7) 0.44178(15) 0.67142(3)
C14 C 0.07549(8) 0.65270(16) 0.67048(3)
H9 H 0.0430 0.7176 0.6430
C15 C 0.07434(8) 0.76333(15) 0.70894(3)
H10 H 0.0420 0.9054 0.7079
C16 C 0.11729(8) 0.77394(16) 0.79092(3)
H11 H 0.0840 0.9148 0.7907
C17 C 0.16130(8) 0.67487(18) 0.83030(3)
H12 H 0.1576 0.7471 0.8571
C18 C 0.21209(8) 0.46631(18) 0.83139(3)
H13 H 0.2428 0.4000 0.8589
C19 C 0.21734(8) 0.35901(16) 0.79283(3)
H14 H 0.2517 0.2190 0.7938
C20 C 0.17149(7) 0.45651(15) 0.75143(3)
C21 C 0.12107(7) 0.66750(15) 0.75040(3)
C22 C 0.12019(7) 0.32124(15) 0.62910(3)
O3 O 0.18331(6) 0.14458(12) 0.63369(2)
H15 H 0.1778 0.0818 0.6092
O4 O 0.06311(6) 0.37816(13) 0.59404(2)
C23 C 0.19848(7) 0.30248(15) 0.94599(3)
C24 C 0.27316(7) 0.47305(16) 0.95711(3)
H16 H 0.2510 0.6103 0.9672
C25 C 0.38032(8) 0.44250(18) 0.95353(3)
H17 H 0.4312 0.5586 0.9614
C26 C 0.41301(9) 0.24239(19) 0.93845(4)
H18 H 0.4861 0.2219 0.9360
C27 C 0.33847(9) 0.07295(18) 0.92695(4)
H19 H 0.3604 -0.0633 0.9164
C28 C 0.23181(8) 0.10235(16) 0.93088(3)
H20 H 0.1812 -0.0146 0.9232
C29 C 0.08292(7) 0.32969(16) 0.95094(3)
H21 H 0.0601 0.4850 0.9449
H22 H 0.0351 0.2346 0.9293
N1 N 0.07187(6) 0.26830(12) 0.99666(2)
H23 H 0.1043 0.1356 1.0041
H24 H 0.0005 0.2588 0.9976
H25 H 0.1041 0.3733 1.0160
C23 C 0.80152(7) 0.80248(15) 0.55401(3)
C24 C 0.72684(7) 0.97305(16) 0.54289(3)
H16 H 0.7490 1.1103 0.5328
C25 C 0.61968(8) 0.94250(18) 0.54647(3)
H17 H 0.5688 1.0586 0.5386
C26 C 0.58699(9) 0.74239(19) 0.56155(4)
H18 H 0.5139 0.7219 0.5640
C27 C 0.66153(9) 0.57295(18) 0.57305(4)
H19 H 0.6396 0.4367 0.5836
C28 C 0.76819(8) 0.60235(16) 0.56912(3)
H20 H 0.8188 0.4854 0.5768
C29 C 0.91708(7) 0.82969(16) 0.54906(3)
H21 H 0.9399 0.9850 0.5551
H22 H 0.9649 0.7346 0.5707
N1 N 0.92813(6) 0.76830(12) 0.50334(2)
H23 H 0.8957 0.6356 0.4959
H24 H 0.9995 0.7588 0.5024
H25 H 0.8959 0.8733 0.4840
C23 C 0.80152(7) 0.69752(15) 0.05401(3)
C24 C 0.72684(7) 0.52695(16) 0.04289(3)
H16 H 0.7490 0.3897 0.0328
C25 C 0.61968(8) 0.55750(18) 0.04647(3)
H17 H 0.5688 0.4414 0.0386
C26 C 0.58699(9) 0.75761(19) 0.06155(4)
H18 H 0.5139 0.7781 0.0640
C27 C 0.66153(9) 0.92705(18) 0.07305(4)
H19 H 0.6396 1.0633 0.0836
C28 C 0.76819(8) 0.89765(16) 0.06912(3)
H20 H 0.8188 1.0146 0.0768
C29 C 0.91708(7) 0.67031(16) 0.04906(3)
H21 H 0.9399 0.5150 0.0551
H22 H 0.9649 0.7654 0.0707
N1 N 0.92813(6) 0.73170(12) 0.00334(2)
H23 H 0.8957 0.8644 -0.0041
H24 H 0.9995 0.7412 0.0024
H25 H 0.8959 0.6267 -0.0160
C23 C 0.19848(7) 0.19752(15) 0.44599(3)
C24 C 0.27316(7) 0.02695(16) 0.45711(3)
H16 H 0.2510 -0.1103 0.4672
C25 C 0.38032(8) 0.05750(18) 0.45353(3)
H17 H 0.4312 -0.0586 0.4614
C26 C 0.41301(9) 0.25761(19) 0.43845(4)
H18 H 0.4861 0.2781 0.4360
C27 C 0.33847(9) 0.42705(18) 0.42695(4)
H19 H 0.3604 0.5633 0.4164
C28 C 0.23181(8) 0.39765(16) 0.43088(3)
H20 H 0.1812 0.5146 0.4232
C29 C 0.08292(7) 0.17031(16) 0.45094(3)
H21 H 0.0601 0.0150 0.4449
H22 H 0.0351 0.2654 0.4293
N1 N 0.07187(6) 0.23170(12) 0.49666(2)
H23 H 0.1043 0.3644 0.5041
H24 H 0.0005 0.2412 0.4976
H25 H 0.1041 0.1267 0.5160
C1 C 0.33317(7) -0.18976(15) 0.11801(3)
H1 H 0.3101 -0.3257 0.1283
C2 C 0.28744(7) -0.11741(15) 0.07623(3)
C3 C 0.32329(7) 0.08427(15) 0.06058(3)
H2 H 0.2933 0.1325 0.0315
C4 C 0.40083(7) 0.20978(16) 0.08721(3)
H3 H 0.4232 0.3452 0.0764
C5 C 0.52905(8) 0.26540(17) 0.15900(3)
H4 H 0.5521 0.4024 0.1492
C6 C 0.57418(8) 0.1903(2) 0.20045(4)
H5 H 0.6283 0.2754 0.2191
C7 C 0.54067(8) -0.01317(19) 0.21574(3)
H6 H 0.5724 -0.0639 0.2445
C8 C 0.46243(8) -0.13727(18) 0.18910(3)
H7 H 0.4402 -0.2734 0.1996
C9 C 0.41447(7) -0.06403(16) 0.14603(3)
C10 C 0.44804(7) 0.14012(16) 0.13056(3)
C11 C 0.19731(7) -0.24505(14) 0.04768(3)
O1 O 0.17355(5) -0.43517(11) 0.05984(2)
O2 O 0.14794(5) -0.15851(11) 0.01200(2)
C1 C 0.66683(7) 0.31024(15) 0.38199(3)
H1 H 0.6899 0.1743 0.3717
C2 C 0.71256(7) 0.38259(15) 0.42377(3)
C3 C 0.67671(7) 0.58427(15) 0.43942(3)
H2 H 0.7067 0.6325 0.4685
C4 C 0.59917(7) 0.70978(16) 0.41279(3)
H3 H 0.5768 0.8452 0.4236
C5 C 0.47095(8) 0.76540(17) 0.34100(3)
H4 H 0.4479 0.9024 0.3508
C6 C 0.42582(8) 0.6903(2) 0.29955(4)
H5 H 0.3717 0.7754 0.2809
C7 C 0.45933(8) 0.48683(19) 0.28426(3)
H6 H 0.4276 0.4361 0.2555
C8 C 0.53757(8) 0.36273(18) 0.31090(3)
H7 H 0.5598 0.2266 0.3004
C9 C 0.58553(7) 0.43597(16) 0.35397(3)
C10 C 0.55196(7) 0.64012(16) 0.36944(3)
C11 C 0.80269(7) 0.25495(14) 0.45232(3)
O1 O 0.82645(5) 0.06483(11) 0.44016(2)
O2 O 0.85206(5) 0.34149(11) 0.48800(2)
C1 C 0.66683(7) 1.18976(15) 0.88199(3)
H1 H 0.6899 1.3257 0.8717
C2 C 0.71256(7) 1.11741(15) 0.92377(3)
C3 C 0.67671(7) 0.91573(15) 0.93942(3)
H2 H 0.7067 0.8675 0.9685
C4 C 0.59917(7) 0.79022(16) 0.91279(3)
H3 H 0.5768 0.6548 0.9236
C5 C 0.47095(8) 0.73460(17) 0.84100(3)
H4 H 0.4479 0.5976 0.8508
C6 C 0.42582(8) 0.8097(2) 0.79955(4)
H5 H 0.3717 0.7246 0.7809
C7 C 0.45933(8) 1.01317(19) 0.78426(3)
H6 H 0.4276 1.0639 0.7555
C8 C 0.53757(8) 1.13727(18) 0.81090(3)
H7 H 0.5598 1.2734 0.8004
C9 C 0.58553(7) 1.06403(16) 0.85397(3)
C10 C 0.55196(7) 0.85988(16) 0.86944(3)
C11 C 0.80269(7) 1.24505(14) 0.95232(3)
O1 O 0.82645(5) 1.43517(11) 0.94016(2)
O2 O 0.85206(5) 1.15851(11) 0.98800(2)
C1 C 0.33317(7) 0.68976(15) 0.61801(3)
H1 H 0.3101 0.8257 0.6283
C2 C 0.28744(7) 0.61741(15) 0.57623(3)
C3 C 0.32329(7) 0.41573(15) 0.56058(3)
H2 H 0.2933 0.3675 0.5315
C4 C 0.40083(7) 0.29022(16) 0.58721(3)
H3 H 0.4232 0.1548 0.5764
C5 C 0.52905(8) 0.23460(17) 0.65900(3)
H4 H 0.5521 0.0976 0.6492
C6 C 0.57418(8) 0.3097(2) 0.70045(4)
H5 H 0.6283 0.2246 0.7191
C7 C 0.54067(8) 0.51317(19) 0.71574(3)
H6 H 0.5724 0.5639 0.7445
C8 C 0.46243(8) 0.63727(18) 0.68910(3)
H7 H 0.4402 0.7734 0.6996
C9 C 0.41447(7) 0.56403(16) 0.64603(3)
C10 C 0.44804(7) 0.35988(16) 0.63056(3)
C11 C 0.19731(7) 0.74505(14) 0.54768(3)
O1 O 0.17355(5) 0.93517(11) 0.55984(2)
O2 O 0.14794(5) 0.65851(11) 0.51200(2)

#END
