./LICPIY_from_POSCAR.cif_generated_by_CrystalShift
_symmetry_cell_setting triclinic
_symmetry_space_group_name_H-M 'P 1'
loop_
_symmetry_equiv_pos_site_id
_symmetry_equiv_pos_as_xyz
1 x,y,z
_cell_length_a 12.633000
_cell_length_b 6.054500
_cell_length_c 31.019000
_cell_angle_alpha 90.000000
_cell_angle_beta 102.008000
_cell_angle_gamma 90.000000
_cell_volume 2320.620224
loop_
_atom_site_label
_atom_site_type_symbol
_atom_site_fract_x
_atom_site_fract_y
_atom_site_fract_z
H1 H 0.999500 0.758800 0.502400
H2 H 0.207800 1.291500 0.211400
H3 H 0.559800 1.273400 0.800400
H4 H 0.427600 1.063900 0.755500
H5 H 0.043000 0.782400 0.143000
H6 H 0.371700 0.724600 0.780900
H7 H 0.042000 0.594600 0.207900
H8 H 0.447900 0.597600 0.850800
H9 H 0.084000 0.585200 0.290700
H10 H 0.576800 0.654800 0.923600
H11 H 0.157600 0.752900 0.357100
H12 H 0.706700 0.867500 0.968500
H13 H 0.242800 1.100000 0.358900
H14 H 0.689900 1.325700 0.871700
H15 H 0.251700 1.281000 0.293800
H16 H 0.559800 0.226600 0.300400
H17 H 0.427600 0.436100 0.255500
H18 H 0.371700 0.775400 0.280900
H19 H 0.447900 0.902400 0.350800
H20 H 0.177800 1.418200 0.109200
H21 H 0.576800 0.845200 0.423600
H22 H 0.706700 0.632500 0.468500
H23 H 0.792200 0.791500 0.288600
H24 H 0.689900 0.174300 0.371700
H25 H 0.293300 0.367500 0.531500
H26 H 0.957000 0.282400 0.357000
H27 H 0.440200 -0.273400 0.199600
H28 H 0.958000 0.094600 0.292100
H29 H 0.572400 -0.063900 0.244500
H30 H 0.916000 0.085200 0.209300
H31 H 0.628300 0.275400 0.219100
H32 H 0.842400 0.252900 0.142900
H33 H 0.552100 0.402400 0.149200
H34 H 0.757200 0.600000 0.141100
H35 H 0.423200 0.345200 0.076400
H36 H 0.748300 0.781000 0.206200
H37 H 0.293300 0.132500 0.031500
H38 H 0.310100 -0.325700 0.128300
H39 H 0.104100 0.126700 0.516000
H40 H 0.000500 0.241200 0.497600
H41 H 0.822200 0.918200 0.390800
H42 H 0.440200 0.773400 0.699600
H43 H 0.104300 0.364400 0.504100
H44 H 0.792200 -0.291500 0.788600
H45 H 0.423200 0.154800 0.576400
H46 H 0.035100 0.265400 0.429300
H47 H 0.957000 0.217600 0.857000
H48 H 0.060100 0.015000 0.444900
H49 H 0.958000 0.405400 0.792100
H50 H 0.181200 0.514600 0.423200
H51 H 0.916000 0.414800 0.709300
H52 H 0.360400 0.563300 0.416400
H53 H 0.842400 0.247100 0.642900
H54 H 0.486100 0.278100 0.436000
H55 H 0.757200 -0.100000 0.641100
H56 H 0.431200 -0.058600 0.461400
H57 H 0.748300 -0.281000 0.706200
H58 H 0.251000 -0.110300 0.467200
H59 H 0.895900 0.626700 -0.016000
H60 H 0.999500 0.741200 0.002400
H61 H 0.895700 0.864400 -0.004100
H62 H 0.822200 -0.418200 0.890800
H63 H 0.572400 0.563900 0.744500
H64 H 0.964900 0.765400 0.070700
H65 H 0.207800 0.208500 0.711400
H66 H 0.939900 0.515000 0.055100
H67 H 0.818800 1.014600 0.076800
H68 H 0.043000 0.717600 0.643000
H69 H 0.639600 1.063300 0.083600
H70 H 0.042000 0.905400 0.707900
H71 H 0.513900 0.778100 0.064000
H72 H 0.084000 0.914800 0.790700
H73 H 0.568800 0.441400 0.038600
H74 H 0.157600 0.747100 0.857100
H75 H 0.749000 0.389700 0.032800
H76 H 0.242800 0.400000 0.858900
H77 H 0.895900 0.873300 0.484000
H78 H 0.251700 0.219000 0.793800
H79 H 0.895700 0.635600 0.495900
H80 H 0.552100 0.097600 0.649200
H81 H 0.964900 0.734600 0.570700
H82 H 0.939900 0.985000 0.555100
H83 H 0.177800 0.081800 0.609200
H84 H 0.628300 0.224600 0.719100
H85 H 0.818800 0.485400 0.576800
H86 H 0.639600 0.436700 0.583600
H87 H 0.251000 0.610300 0.967200
H88 H 0.513900 0.721900 0.564000
H89 H 0.431200 0.558600 0.961400
H90 H 0.310100 0.825700 0.628300
H91 H 0.486100 0.221900 0.936000
H92 H 0.568800 1.058600 0.538600
H93 H 0.360400 -0.063300 0.916400
H94 H 0.749000 1.110300 0.532800
H95 H 0.181200 -0.014600 0.923200
H96 H 0.104100 0.373300 1.016000
H97 H 0.060100 0.485000 0.944900
H98 H 0.035100 0.234600 0.929300
H99 H 0.000500 0.258800 0.997600
H100 H 0.104300 0.135600 1.004100
C101 C 0.574180 0.309700 0.700450
C102 C 0.082920 0.329690 0.950940
C103 C 0.801520 0.802480 0.554010
C104 C 0.726840 0.973050 0.542890
C105 C 0.231810 0.102350 0.930880
C106 C 0.619680 0.942500 0.546470
C107 C 0.338470 0.072950 0.926950
C108 C 0.413010 0.242390 0.938450
C109 C 0.380320 0.442500 0.953530
C110 C 0.661530 0.572950 0.573050
C111 C 0.273160 0.473050 0.957110
C112 C 0.768190 0.602350 0.569120
C113 C 0.198480 0.302480 0.945990
C114 C 0.917080 0.829690 0.549060
C115 C 0.540670 0.513170 0.715740
C116 C 0.120190 0.321240 0.629100
C117 C 0.121070 0.667500 0.750400
C118 C 0.171490 0.456510 0.751430
C119 C 0.173080 1.152180 0.211060
C120 C 0.217340 0.359010 0.792830
C121 C 0.801520 0.697520 0.054010
C122 C 0.726840 0.526950 0.042890
C123 C 0.212090 0.466310 0.831390
C124 C 0.619680 0.557500 0.046470
C125 C 0.161300 0.674870 0.830300
C126 C 0.586990 0.757610 0.061550
C127 C 0.117290 0.773940 0.790920
C128 C 0.661530 0.927050 0.073050
C129 C 0.074340 0.763330 0.708940
C130 C 0.768190 0.897650 0.069120
C131 C 0.075490 0.652700 0.670480
C132 C 0.917080 0.670310 0.049060
C133 C 0.124870 0.441780 0.671420
C134 C 0.173080 0.347820 0.711060
C135 C 0.529050 0.234600 0.659000
C136 C 0.462430 0.637270 0.689100
C137 C 0.879810 -0.178760 0.870900
C138 C 0.878930 0.167500 0.749600
C139 C 0.198480 0.197520 0.445990
C140 C 0.273160 0.026950 0.457110
C141 C 0.828510 -0.043490 0.748570
C142 C 0.380320 0.057500 0.453530
C143 C 0.782660 -0.140990 0.707170
C144 C 0.413010 0.257610 0.438450
C145 C 0.787910 -0.033690 0.668610
C146 C 0.338470 0.427050 0.426950
C147 C 0.838700 0.174870 0.669700
C148 C 0.231810 0.397650 0.430880
C149 C 0.882710 0.273940 0.709080
C150 C 0.082920 0.170310 0.450940
C151 C 0.925660 0.263330 0.791060
C152 C 0.924510 0.152700 0.829520
C153 C 0.875130 -0.058220 0.828580
C154 C 0.826920 -0.152180 0.788940
C155 C 0.414470 0.564030 0.646030
C156 C 0.879810 0.678760 0.370900
C157 C 0.333170 -0.189760 0.118010
C158 C 0.878930 0.332500 0.249600
C159 C 0.287440 -0.117410 0.076230
C160 C 0.323290 0.084270 0.060580
C161 C 0.828510 0.543490 0.248570
C162 C 0.400830 0.209780 0.087210
C163 C 0.782660 0.640990 0.207170
C164 C 0.529050 0.265400 0.159000
C165 C 0.787910 0.533690 0.168610
C166 C 0.574180 0.190300 0.200450
C167 C 0.838700 0.325130 0.169700
C168 C 0.540670 -0.013170 0.215740
C169 C 0.882710 0.226060 0.209080
C170 C 0.462430 -0.137270 0.189100
C171 C 0.925660 0.236670 0.291060
C172 C 0.414470 -0.064030 0.146030
C173 C 0.448040 0.140120 0.130560
C174 C 0.197310 -0.245050 0.047680
C175 C 0.400830 0.290220 0.587210
C176 C 0.924510 0.347300 0.329520
C177 C 0.666830 0.310240 0.381990
C178 C 0.875130 0.558220 0.328580
C179 C 0.712560 0.382590 0.423770
C180 C 0.676710 0.584270 0.439420
C181 C 0.826920 0.652180 0.288940
C182 C 0.599170 0.709780 0.412790
C183 C 0.448040 0.359880 0.630560
C184 C 0.470950 0.765400 0.341000
C185 C 0.197310 0.745050 0.547680
C186 C 0.425820 0.690300 0.299550
C187 C 0.120190 1.178760 0.129100
C188 C 0.459330 0.486830 0.284260
C189 C 0.121070 0.832500 0.250400
C190 C 0.537570 0.362730 0.310900
C191 C 0.171490 1.043490 0.251430
C192 C 0.585530 0.435970 0.353970
C193 C 0.551960 0.640120 0.369440
C194 C 0.802690 0.254950 0.452320
C195 C 0.323290 0.415730 0.560580
C196 C 0.287440 0.617410 0.576230
C197 C 0.666830 1.189760 0.881990
C198 C 0.217340 1.140990 0.292830
C199 C 0.712560 1.117410 0.923770
C200 C 0.676710 0.915730 0.939420
C201 C 0.212090 1.033690 0.331390
C202 C 0.599170 0.790220 0.912790
C203 C 0.161300 0.825130 0.330300
C204 C 0.470950 0.734600 0.841000
C205 C 0.117290 0.726060 0.290920
C206 C 0.425820 0.809700 0.799550
C207 C 0.074340 0.736670 0.208940
C208 C 0.459330 1.013170 0.784260
C209 C 0.075490 0.847300 0.170480
C210 C 0.537570 1.137270 0.810900
C211 C 0.124870 1.058220 0.171420
C212 C 0.585530 1.064030 0.853970
C213 C 0.551960 0.859880 0.869440
C214 C 0.802690 1.245050 0.952320
C215 C 0.586990 0.742390 0.561550
C216 C 0.333170 0.689760 0.618010
N217 N 0.071870 0.268300 0.996660
N218 N 0.928130 0.731700 0.003340
N219 N 0.071870 0.231700 0.496660
N220 N 0.928130 0.768300 0.503340
O221 O 0.173550 -0.435170 0.059840
O222 O 0.852060 0.341490 0.488000
O223 O 0.826450 1.435170 0.940160
O224 O 0.147940 -0.158510 0.012000
O225 O 0.826450 0.064830 0.440160
O226 O 0.852060 1.158510 0.988000
O227 O 0.063110 0.378160 0.594040
O228 O 0.183310 0.144580 0.633690
O229 O 0.936890 -0.121840 0.905960
O230 O 0.816690 -0.355420 0.866310
O231 O 0.936890 0.621840 0.405960
O232 O 0.816690 0.855420 0.366310
O233 O 0.063110 1.121840 0.094040
O234 O 0.183310 1.355420 0.133690
O235 O 0.173550 0.935170 0.559840
O236 O 0.147940 0.658510 0.512000

#END
