
#######################################################################
#
#                 Cambridge Crystallographic Data Centre
#                                CCDC 
#
#######################################################################
#
# If this CIF has been generated from an entry in the Cambridge 
# Structural Database, then it will include bibliographic, chemical, 
# crystal, experimental, refinement or atomic coordinate data resulting 
# from the CCDC's data processing and validation procedures.
#
#######################################################################

data_ABEQUU
_symmetry_cell_setting           triclinic
_symmetry_space_group_name_H-M   'P -1'
_symmetry_Int_Tables_number      2
_space_group_name_Hall           '-P 1'
loop_
_symmetry_equiv_pos_site_id
_symmetry_equiv_pos_as_xyz
1 x,y,z
2 -x,-y,-z
_cell_length_a                   4.9515(4)
_cell_length_b                   11.725(2)
_cell_length_c                   14.931(2)
_cell_angle_alpha                78.000(10)
_cell_angle_beta                 83.750(10)
_cell_angle_gamma                82.450(10)
_cell_volume                     837.568
loop_
_atom_site_label
_atom_site_type_symbol
_atom_site_fract_x
_atom_site_fract_y
_atom_site_fract_z
N1 N 0.2193(5) 0.4188(2) 0.63130(15)
N2 N 0.2124(6) 0.2545(2) 0.36075(16)
N3 N -0.3686(5) 0.10285(19) 0.63024(16)
O1 O -0.1246(4) 0.24869(17) 0.72821(12)
O2 O 0.0835(6) 0.4583(3) 0.69170(19)
O3 O 0.4521(5) 0.4442(3) 0.60584(18)
O4 O 0.4187(6) 0.3007(3) 0.32960(15)
O5 O 0.0867(6) 0.2053(3) 0.31615(15)
O6 O -0.5087(5) 0.1186(2) 0.69968(15)
O7 O -0.3949(7) 0.0224(2) 0.5923(2)
C1 C 0.1157(5) 0.3335(2) 0.58907(16)
C2 C 0.2117(5) 0.3318(2) 0.49988(17)
H1 H 0.3413 0.3806 0.4700
C3 C 0.1116(6) 0.2559(2) 0.45495(17)
C4 C -0.0787(6) 0.1827(2) 0.49851(17)
H2 H -0.1470 0.1337 0.4669
C5 C -0.1671(5) 0.1826(2) 0.58902(17)
C6 C -0.0702(5) 0.2552(2) 0.64415(16)
N1 N 0.7807(5) 0.5812(2) 0.36870(15)
N2 N 0.7876(6) 0.7455(2) 0.63925(16)
N3 N 1.3686(5) 0.89715(19) 0.36976(16)
O1 O 1.1246(4) 0.75131(17) 0.27179(12)
O2 O 0.9165(6) 0.5417(3) 0.30830(19)
O3 O 0.5479(5) 0.5558(3) 0.39416(18)
O4 O 0.5813(6) 0.6993(3) 0.67040(15)
O5 O 0.9133(6) 0.7947(3) 0.68385(15)
O6 O 1.5087(5) 0.8814(2) 0.30032(15)
O7 O 1.3949(7) 0.9776(2) 0.4077(2)
C1 C 0.8843(5) 0.6665(2) 0.41093(16)
C2 C 0.7883(5) 0.6682(2) 0.50012(17)
H1 H 0.6587 0.6194 0.5300
C3 C 0.8884(6) 0.7441(2) 0.54505(17)
C4 C 1.0787(6) 0.8173(2) 0.50149(17)
H2 H 1.1470 0.8663 0.5331
C5 C 1.1671(5) 0.8174(2) 0.41098(17)
C6 C 1.0702(5) 0.7448(2) 0.35585(16)
O8 O 1.0966(4) 0.14079(17) 0.01236(13)
O9 O 1.3585(4) -0.01841(17) 0.07414(14)
H3 H 1.4210 -0.0162 0.0207
C7 C 1.1512(5) 0.0602(2) 0.07667(17)
C8 C 0.9827(6) 0.0482(2) 0.16680(19)
H4 H 1.0956 0.0567 0.2136
H5 H 0.9266 -0.0302 0.1830
C9 C 0.7304(5) 0.1364(2) 0.1676(2)
H6 H 0.6167 0.1284 0.1208
H7 H 0.6260 0.1194 0.2267
N4 N 0.7987(4) 0.25867(18) 0.15046(15)
H8 H 0.6454 0.3076 0.1514
H9 H 0.8917 0.2751 0.0958
H10 H 0.9002 0.2669 0.1939
O8 O -0.0966(4) 0.85921(17) 0.98764(13)
O9 O -0.3585(4) 1.01841(17) 0.92586(14)
H3 H -0.4210 1.0162 0.9793
C7 C -0.1512(5) 0.9398(2) 0.92333(17)
C8 C 0.0173(6) 0.9518(2) 0.83320(19)
H4 H -0.0956 0.9433 0.7864
H5 H 0.0734 1.0302 0.8170
C9 C 0.2696(5) 0.8636(2) 0.8324(2)
H6 H 0.3833 0.8716 0.8792
H7 H 0.3740 0.8806 0.7733
N4 N 0.2013(4) 0.74133(18) 0.84954(15)
H8 H 0.3546 0.6924 0.8486
H9 H 0.1083 0.7249 0.9042
H10 H 0.0998 0.7331 0.8061
O10 O 0.6994(4) 0.61013(16) 0.88632(14)
O11 O 0.8837(5) 0.43951(17) 0.96091(17)
C10 C 0.7212(5) 0.5029(2) 0.90291(17)
C11 C 0.5643(5) 0.4370(2) 0.85284(17)
H12 H 0.3867 0.4808 0.8420
H13 H 0.6616 0.4321 0.7935
C12 C 0.5246(6) 0.3152(2) 0.90484(16)
H14 H 0.7004 0.2730 0.9206
H15 H 0.4111 0.3197 0.9615
N5 N 0.3918(5) 0.25010(19) 0.84817(15)
H16 H 0.3701 0.1783 0.8799
H17 H 0.4971 0.2452 0.7966
H18 H 0.2294 0.2883 0.8345
O10 O 0.3006(4) 0.38987(16) 0.11368(14)
O11 O 0.1163(5) 0.56049(17) 0.03909(17)
C10 C 0.2788(5) 0.4971(2) 0.09709(17)
C11 C 0.4357(5) 0.5630(2) 0.14716(17)
H12 H 0.6133 0.5192 0.1580
H13 H 0.3384 0.5679 0.2065
C12 C 0.4754(6) 0.6848(2) 0.09516(16)
H14 H 0.2996 0.7270 0.0794
H15 H 0.5889 0.6803 0.0385
N5 N 0.6082(5) 0.74990(19) 0.15183(15)
H16 H 0.6299 0.8217 0.1201
H17 H 0.5029 0.7548 0.2034
H18 H 0.7706 0.7117 0.1655
H11? H 0.9703 0.4823 0.9810
H11? H 0.0297 0.5177 0.0190

#END
