./ABEQAA_from_xyz.cif_generated_by_CrystalShift
_symmetry_cell_setting triclinic
_symmetry_space_group_name_H-M 'P 1'
loop_
_symmetry_equiv_pos_site_id
_symmetry_equiv_pos_as_xyz
1 x,y,z
_cell_length_a 11.025000
_cell_length_b 11.238000
_cell_length_c 11.666000
_cell_angle_alpha 90.000000
_cell_angle_beta 105.484000
_cell_angle_gamma 90.000000
_cell_volume 1392.944229
loop_
_atom_site_label
_atom_site_type_symbol
_atom_site_fract_x
_atom_site_fract_y
_atom_site_fract_z
N1 N 0.112800 0.126700 -0.018170
H2 H 0.131600 0.067800 -0.057300
N3 N -0.110400 0.373100 -0.074340
H4 H -0.129400 0.432000 -0.122900
O5 O 0.078660 0.351240 0.070540
O6 O -0.075290 0.148760 0.032060
C7 C 0.081400 0.364500 -0.136300
H8 H 0.037900 0.343500 -0.216500
H9 H 0.163900 0.329500 -0.116000
H10 H 0.088800 0.449500 -0.129600
C11 C 0.008000 0.318400 -0.051900
C12 C -0.006200 0.182100 -0.055600
C13 C -0.079900 0.134900 -0.176500
H14 H -0.035400 0.153200 -0.234700
H15 H -0.161500 0.171600 -0.199000
H16 H -0.089400 0.050300 -0.172100
C17 C 0.183500 0.283000 0.124300
C18 C 0.199200 0.169700 0.083900
C19 C 0.303200 0.103900 0.144500
H20 H 0.315700 0.028000 0.118000
C21 C 0.388600 0.150200 0.244100
H22 H 0.457500 0.104900 0.284300
C23 C 0.372000 0.261700 0.283300
H24 H 0.429400 0.292200 0.350300
C25 C 0.267900 0.330800 0.222500
H26 H 0.256500 0.407300 0.248200
C27 C -0.180100 0.216800 0.033100
C28 C -0.196200 0.330100 -0.016600
C29 C -0.301000 0.395600 -0.008100
H30 H -0.314300 0.471300 -0.041200
C31 C -0.385100 0.349300 0.048700
H32 H -0.454100 0.394300 0.054000
C33 C -0.368000 0.237300 0.097700
H34 H -0.424700 0.206700 0.136500
C35 C -0.264500 0.170000 0.088500
H36 H -0.252800 0.093500 0.120000
N37 N 0.112800 0.373300 0.481830
H38 H 0.131600 0.432200 0.442700
N39 N -0.110400 0.126900 0.425660
H40 H -0.129400 0.068000 0.377100
O41 O 0.078660 0.148760 0.570540
O42 O -0.075290 0.351240 0.532060
C43 C 0.081400 0.135500 0.363700
H44 H 0.037900 0.156500 0.283500
H45 H 0.163900 0.170500 0.384000
H46 H 0.088800 0.050500 0.370400
C47 C 0.008000 0.181600 0.448100
C48 C -0.006200 0.317900 0.444400
C49 C -0.079900 0.365100 0.323500
H50 H -0.035400 0.346800 0.265300
H51 H -0.161500 0.328400 0.301000
H52 H -0.089400 0.449700 0.327900
C53 C 0.183500 0.217000 0.624300
C54 C 0.199200 0.330300 0.583900
C55 C 0.303200 0.396100 0.644500
H56 H 0.315700 0.472000 0.618000
C57 C 0.388600 0.349800 0.744100
H58 H 0.457500 0.395100 0.784300
C59 C 0.372000 0.238300 0.783300
H60 H 0.429400 0.207800 0.850300
C61 C 0.267900 0.169200 0.722500
H62 H 0.256500 0.092700 0.748200
C63 C -0.180100 0.283200 0.533100
C64 C -0.196200 0.169900 0.483400
C65 C -0.301000 0.104400 0.491900
H66 H -0.314300 0.028700 0.458800
C67 C -0.385100 0.150700 0.548700
H68 H -0.454100 0.105700 0.554000
C69 C -0.368000 0.262700 0.597700
H70 H -0.424700 0.293300 0.636500
C71 C -0.264500 0.330000 0.588500
H72 H -0.252800 0.406500 0.620000
N73 N 0.887200 0.873300 1.018170
H74 H 0.868400 0.932200 1.057300
N75 N 1.110400 0.626900 1.074340
H76 H 1.129400 0.568000 1.122900
O77 O 0.921340 0.648760 0.929460
O78 O 1.075290 0.851240 0.967940
C79 C 0.918600 0.635500 1.136300
H80 H 0.962100 0.656500 1.216500
H81 H 0.836100 0.670500 1.116000
H82 H 0.911200 0.550500 1.129600
C83 C 0.992000 0.681600 1.051900
C84 C 1.006200 0.817900 1.055600
C85 C 1.079900 0.865100 1.176500
H86 H 1.035400 0.846800 1.234700
H87 H 1.161500 0.828400 1.199000
H88 H 1.089400 0.949700 1.172100
C89 C 0.816500 0.717000 0.875700
C90 C 0.800800 0.830300 0.916100
C91 C 0.696800 0.896100 0.855500
H92 H 0.684300 0.972000 0.882000
C93 C 0.611400 0.849800 0.755900
H94 H 0.542500 0.895100 0.715700
C95 C 0.628000 0.738300 0.716700
H96 H 0.570600 0.707800 0.649700
C97 C 0.732100 0.669200 0.777500
H98 H 0.743500 0.592700 0.751800
C99 C 1.180100 0.783200 0.966900
C100 C 1.196200 0.669900 1.016600
C101 C 1.301000 0.604400 1.008100
H102 H 1.314300 0.528700 1.041200
C103 C 1.385100 0.650700 0.951300
H104 H 1.454100 0.605700 0.946000
C105 C 1.368000 0.762700 0.902300
H106 H 1.424700 0.793300 0.863500
C107 C 1.264500 0.830000 0.911500
H108 H 1.252800 0.906500 0.880000
N109 N 0.887200 0.626700 0.518170
H110 H 0.868400 0.567800 0.557300
N111 N 1.110400 0.873100 0.574340
H112 H 1.129400 0.932000 0.622900
O113 O 0.921340 0.851240 0.429460
O114 O 1.075290 0.648760 0.467940
C115 C 0.918600 0.864500 0.636300
H116 H 0.962100 0.843500 0.716500
H117 H 0.836100 0.829500 0.616000
H118 H 0.911200 0.949500 0.629600
C119 C 0.992000 0.818400 0.551900
C120 C 1.006200 0.682100 0.555600
C121 C 1.079900 0.634900 0.676500
H122 H 1.035400 0.653200 0.734700
H123 H 1.161500 0.671600 0.699000
H124 H 1.089400 0.550300 0.672100
C125 C 0.816500 0.783000 0.375700
C126 C 0.800800 0.669700 0.416100
C127 C 0.696800 0.603900 0.355500
H128 H 0.684300 0.528000 0.382000
C129 C 0.611400 0.650200 0.255900
H130 H 0.542500 0.604900 0.215700
C131 C 0.628000 0.761700 0.216700
H132 H 0.570600 0.792200 0.149700
C133 C 0.732100 0.830800 0.277500
H134 H 0.743500 0.907300 0.251800
C135 C 1.180100 0.716800 0.466900
C136 C 1.196200 0.830100 0.516600
C137 C 1.301000 0.895600 0.508100
H138 H 1.314300 0.971300 0.541200
C139 C 1.385100 0.849300 0.451300
H140 H 1.454100 0.894300 0.446000
C141 C 1.368000 0.737300 0.402300
H142 H 1.424700 0.706700 0.363500
C143 C 1.264500 0.670000 0.411500
H144 H 1.252800 0.593500 0.380000

#END
