
#######################################################################
#
#                 Cambridge Crystallographic Data Centre
#                                CCDC 
#
#######################################################################
#
# If this CIF has been generated from an entry in the Cambridge 
# Structural Database, then it will include bibliographic, chemical, 
# crystal, experimental, refinement or atomic coordinate data resulting 
# from the CCDC's data processing and validation procedures.
#
#######################################################################

data_ABESEG
_symmetry_cell_setting           monoclinic
_symmetry_space_group_name_H-M   'I a'
_symmetry_Int_Tables_number      9
_space_group_name_Hall           'I -2ya'
loop_
_symmetry_equiv_pos_site_id
_symmetry_equiv_pos_as_xyz
1 x,y,z
2 1/2+x,-y,z
3 1/2+x,1/2+y,1/2+z
4 x,1/2-y,1/2+z
_cell_length_a                   9.4503(6)
_cell_length_b                   16.3882(8)
_cell_length_c                   11.4770(9)
_cell_angle_alpha                90
_cell_angle_beta                 110.502(4)
_cell_angle_gamma                90
_cell_volume                     1664.9
loop_
_atom_site_label
_atom_site_type_symbol
_atom_site_fract_x
_atom_site_fract_y
_atom_site_fract_z
N1 N 0.7357(4) 0.2087(2) 0.8088(3)
N2 N 0.6300(4) 0.1046(2) 0.6851(3)
C1 C 0.6057(4) 0.1915(2) 0.8331(3)
C2 C 0.7428(5) 0.1565(3) 0.7215(4)
H1 H 0.8205 0.1569 0.6894
C3 C 0.5392(4) 0.1247(2) 0.7551(3)
C4 C 0.4075(5) 0.0916(2) 0.7566(3)
H2 H 0.3631 0.0480 0.7049
C5 C 0.3398(5) 0.1246(3) 0.8379(3)
C6 C 0.2020(5) 0.0934(3) 0.8434(4)
H3 H 0.1551 0.0501 0.7920
C7 C 0.1376(6) 0.1247(3) 0.9207(4)
H4 H 0.0474 0.1030 0.9222
C8 C 0.4103(5) 0.1912(2) 0.9175(3)
C9 C 0.3385(6) 0.2219(3) 0.9996(4)
H5 H 0.3837 0.2641 1.0540
C10 C 0.2058(6) 0.1904(3) 0.9995(4)
H6 H 0.1595 0.2123 1.0519
C11 C 0.5450(5) 0.2252(2) 0.9143(3)
H7 H 0.5913 0.2688 0.9652
H8 H 0.797(6) 0.245(3) 0.844(4)
N1 N 1.2357(4) 0.7913(2) 0.8088(3)
N2 N 1.1300(4) 0.8954(2) 0.6851(3)
C1 C 1.1057(4) 0.8085(2) 0.8331(3)
C2 C 1.2428(5) 0.8435(3) 0.7215(4)
H1 H 1.3205 0.8431 0.6894
C3 C 1.0392(4) 0.8753(2) 0.7551(3)
C4 C 0.9075(5) 0.9084(2) 0.7566(3)
H2 H 0.8631 0.9520 0.7049
C5 C 0.8398(5) 0.8754(3) 0.8379(3)
C6 C 0.7020(5) 0.9066(3) 0.8434(4)
H3 H 0.6551 0.9499 0.7920
C7 C 0.6376(6) 0.8753(3) 0.9207(4)
H4 H 0.5474 0.8970 0.9222
C8 C 0.9103(5) 0.8088(2) 0.9175(3)
C9 C 0.8385(6) 0.7781(3) 0.9996(4)
H5 H 0.8837 0.7359 1.0540
C10 C 0.7058(6) 0.8096(3) 0.9995(4)
H6 H 0.6595 0.7877 1.0519
C11 C 1.0450(5) 0.7748(2) 0.9143(3)
H7 H 1.0913 0.7312 0.9652
H8 H 1.297(6) 0.755(3) 0.844(4)
N1 N 1.2357(4) 0.7087(2) 0.3088(3)
N2 N 1.1300(4) 0.6046(2) 0.1851(3)
C1 C 1.1057(4) 0.6915(2) 0.3331(3)
C2 C 1.2428(5) 0.6565(3) 0.2215(4)
H1 H 1.3205 0.6569 0.1894
C3 C 1.0392(4) 0.6247(2) 0.2551(3)
C4 C 0.9075(5) 0.5916(2) 0.2566(3)
H2 H 0.8631 0.5480 0.2049
C5 C 0.8398(5) 0.6246(3) 0.3379(3)
C6 C 0.7020(5) 0.5934(3) 0.3434(4)
H3 H 0.6551 0.5501 0.2920
C7 C 0.6376(6) 0.6247(3) 0.4207(4)
H4 H 0.5474 0.6030 0.4222
C8 C 0.9103(5) 0.6912(2) 0.4175(3)
C9 C 0.8385(6) 0.7219(3) 0.4996(4)
H5 H 0.8837 0.7641 0.5540
C10 C 0.7058(6) 0.6904(3) 0.4995(4)
H6 H 0.6595 0.7123 0.5519
C11 C 1.0450(5) 0.7252(2) 0.4143(3)
H7 H 1.0913 0.7688 0.4652
H8 H 1.297(6) 0.745(3) 0.344(4)
N1 N 0.7357(4) 0.2913(2) 0.3088(3)
N2 N 0.6300(4) 0.3954(2) 0.1851(3)
C1 C 0.6057(4) 0.3085(2) 0.3331(3)
C2 C 0.7428(5) 0.3435(3) 0.2215(4)
H1 H 0.8205 0.3431 0.1894
C3 C 0.5392(4) 0.3753(2) 0.2551(3)
C4 C 0.4075(5) 0.4084(2) 0.2566(3)
H2 H 0.3631 0.4520 0.2049
C5 C 0.3398(5) 0.3754(3) 0.3379(3)
C6 C 0.2020(5) 0.4066(3) 0.3434(4)
H3 H 0.1551 0.4499 0.2920
C7 C 0.1376(6) 0.3753(3) 0.4207(4)
H4 H 0.0474 0.3970 0.4222
C8 C 0.4103(5) 0.3088(2) 0.4175(3)
C9 C 0.3385(6) 0.2781(3) 0.4996(4)
H5 H 0.3837 0.2359 0.5540
C10 C 0.2058(6) 0.3096(3) 0.4995(4)
H6 H 0.1595 0.2877 0.5519
C11 C 0.5450(5) 0.2748(2) 0.4143(3)
H7 H 0.5913 0.2312 0.4652
H8 H 0.797(6) 0.255(3) 0.344(4)
N3 N 0.4759(4) -0.0239(2) 0.5107(3)
N4 N 0.3630(4) -0.1421(2) 0.4366(3)
C12 C 0.3392(4) -0.0028(3) 0.4217(3)
C13 C 0.4817(5) -0.1065(3) 0.5137(4)
H9 H 0.5639 -0.1354 0.5665
C14 C 0.2681(4) -0.0775(2) 0.3758(3)
C15 C 0.1293(5) -0.0783(3) 0.2820(4)
H10 H 0.0820 -0.1275 0.2509
C16 C 0.0602(4) -0.0038(3) 0.2341(3)
C17 C -0.0828(5) -0.0003(3) 0.1375(4)
H11 H -0.1321 -0.0488 0.1051
C18 C -0.1492(5) 0.0711(3) 0.0911(4)
H12 H -0.2420 0.0712 0.0264
C19 C 0.1329(5) 0.0719(3) 0.2832(3)
C20 C 0.0573(5) 0.1453(3) 0.2326(4)
H13 H 0.1024 0.1950 0.2638
C21 C -0.0798(5) 0.1449(3) 0.1393(4)
H14 H -0.1274 0.1940 0.1077
C22 C 0.2754(5) 0.0711(3) 0.3780(4)
H15 H 0.3250 0.1195 0.4103
H16 H 0.543(6) 0.010(3) 0.552(4)
N3 N 0.9759(4) 1.0239(2) 0.5107(3)
N4 N 0.8630(4) 1.1421(2) 0.4366(3)
C12 C 0.8392(4) 1.0028(3) 0.4217(3)
C13 C 0.9817(5) 1.1065(3) 0.5137(4)
H9 H 1.0639 1.1354 0.5665
C14 C 0.7681(4) 1.0775(2) 0.3758(3)
C15 C 0.6293(5) 1.0783(3) 0.2820(4)
H10 H 0.5820 1.1275 0.2509
C16 C 0.5602(4) 1.0038(3) 0.2341(3)
C17 C 0.4172(5) 1.0003(3) 0.1375(4)
H11 H 0.3679 1.0488 0.1051
C18 C 0.3508(5) 0.9289(3) 0.0911(4)
H12 H 0.2580 0.9288 0.0264
C19 C 0.6329(5) 0.9281(3) 0.2832(3)
C20 C 0.5573(5) 0.8547(3) 0.2326(4)
H13 H 0.6024 0.8050 0.2638
C21 C 0.4202(5) 0.8551(3) 0.1393(4)
H14 H 0.3726 0.8060 0.1077
C22 C 0.7754(5) 0.9289(3) 0.3780(4)
H15 H 0.8250 0.8805 0.4103
H16 H 1.043(6) 0.990(3) 0.552(4)
N3 N 0.9759(4) 0.4761(2) 1.0107(3)
N4 N 0.8630(4) 0.3579(2) 0.9366(3)
C12 C 0.8392(4) 0.4972(3) 0.9217(3)
C13 C 0.9817(5) 0.3935(3) 1.0137(4)
H9 H 1.0639 0.3646 1.0665
C14 C 0.7681(4) 0.4225(2) 0.8758(3)
C15 C 0.6293(5) 0.4217(3) 0.7820(4)
H10 H 0.5820 0.3725 0.7509
C16 C 0.5602(4) 0.4962(3) 0.7341(3)
C17 C 0.4172(5) 0.4997(3) 0.6375(4)
H11 H 0.3679 0.4512 0.6051
C18 C 0.3508(5) 0.5711(3) 0.5911(4)
H12 H 0.2580 0.5712 0.5264
C19 C 0.6329(5) 0.5719(3) 0.7832(3)
C20 C 0.5573(5) 0.6453(3) 0.7326(4)
H13 H 0.6024 0.6950 0.7638
C21 C 0.4202(5) 0.6449(3) 0.6393(4)
H14 H 0.3726 0.6940 0.6077
C22 C 0.7754(5) 0.5711(3) 0.8780(4)
H15 H 0.8250 0.6195 0.9103
H16 H 1.043(6) 0.510(3) 1.052(4)
N3 N 0.4759(4) 0.5239(2) 1.0107(3)
N4 N 0.3630(4) 0.6421(2) 0.9366(3)
C12 C 0.3392(4) 0.5028(3) 0.9217(3)
C13 C 0.4817(5) 0.6065(3) 1.0137(4)
H9 H 0.5639 0.6354 1.0665
C14 C 0.2681(4) 0.5775(2) 0.8758(3)
C15 C 0.1293(5) 0.5783(3) 0.7820(4)
H10 H 0.0820 0.6275 0.7509
C16 C 0.0602(4) 0.5038(3) 0.7341(3)
C17 C -0.0828(5) 0.5003(3) 0.6375(4)
H11 H -0.1321 0.5488 0.6051
C18 C -0.1492(5) 0.4289(3) 0.5911(4)
H12 H -0.2420 0.4288 0.5264
C19 C 0.1329(5) 0.4281(3) 0.7832(3)
C20 C 0.0573(5) 0.3547(3) 0.7326(4)
H13 H 0.1024 0.3050 0.7638
C21 C -0.0798(5) 0.3551(3) 0.6393(4)
H14 H -0.1274 0.3060 0.6077
C22 C 0.2754(5) 0.4289(3) 0.8780(4)
H15 H 0.3250 0.3805 0.9103
H16 H 0.543(6) 0.490(3) 1.052(4)

#END
