
#######################################################################
#
#                 Cambridge Crystallographic Data Centre
#                                CCDC 
#
#######################################################################
#
# If this CIF has been generated from an entry in the Cambridge 
# Structural Database, then it will include bibliographic, chemical, 
# crystal, experimental, refinement or atomic coordinate data resulting 
# from the CCDC's data processing and validation procedures.
#
#######################################################################

data_ABESAC
_symmetry_cell_setting           orthorhombic
_symmetry_space_group_name_H-M   'P c a 21'
_symmetry_Int_Tables_number      29
_space_group_name_Hall           'P 2c -2ac'
loop_
_symmetry_equiv_pos_site_id
_symmetry_equiv_pos_as_xyz
1 x,y,z
2 -x,-y,1/2+z
3 1/2-x,y,1/2+z
4 1/2+x,-y,z
_cell_length_a                   19.1402(9)
_cell_length_b                   5.4608(2)
_cell_length_c                   16.8888(7)
_cell_angle_alpha                90
_cell_angle_beta                 90
_cell_angle_gamma                90
_cell_volume                     1765.23
loop_
_atom_site_label
_atom_site_type_symbol
_atom_site_fract_x
_atom_site_fract_y
_atom_site_fract_z
P1 P 0.79288(4) 0.73595(15) 0.61513(7)
O1 O 0.79709(12) 1.0072(4) 0.60987(19)
O2 O 0.55803(14) 1.0206(5) 0.74225(17)
O3 O 0.47919(12) 0.7426(5) 0.72288(18)
O4 O 0.74673(15) 0.0293(5) 0.82389(18)
O5 O 0.81876(15) 0.0729(5) 0.92162(17)
O6 O 0.97054(14) 0.0028(5) 0.56494(18)
O7 O 0.98516(16) -0.0385(5) 0.4384(2)
N1 N 0.53813(15) 0.8245(5) 0.7136(2)
N2 N 0.79523(17) 0.1349(5) 0.8572(2)
N3 N 0.95912(15) 0.0642(5) 0.4957(2)
C1 C 0.70323(16) 0.6291(6) 0.6153(3)
C2 C 0.65604(17) 0.7648(7) 0.6604(2)
H1 H 0.6706 0.9084 0.6876
C3 C 0.58770(18) 0.6854(6) 0.6645(2)
C4 C 0.56390(17) 0.4785(6) 0.6246(3)
H2 H 0.5165 0.4282 0.6285
C5 C 0.61127(18) 0.3479(6) 0.5791(2)
H3 H 0.5961 0.2073 0.5508
C6 C 0.68047(18) 0.4200(6) 0.5743(2)
H4 H 0.7126 0.3281 0.5434
C7 C 0.82896(18) 0.6206(6) 0.7069(2)
C8 C 0.80087(18) 0.4157(6) 0.7441(2)
H5 H 0.7647 0.3238 0.7197
C9 C 0.82680(18) 0.3490(6) 0.8172(2)
C10 C 0.88027(19) 0.4751(7) 0.8542(2)
H6 H 0.8978 0.4226 0.9040
C11 C 0.9077(2) 0.6798(7) 0.8169(3)
H7 H 0.9440 0.7709 0.8416
C12 C 0.88212(17) 0.7513(6) 0.7436(2)
H8 H 0.9012 0.8915 0.7182
C13 C 0.83592(18) 0.5791(6) 0.5346(2)
C14 C 0.88292(17) 0.3876(6) 0.5477(2)
H9 H 0.8945 0.3372 0.5999
C15 C 0.91210(17) 0.2735(6) 0.4825(2)
C16 C 0.89710(19) 0.3411(7) 0.4054(2)
H10 H 0.9178 0.2577 0.3620
C17 C 0.8509(2) 0.5346(7) 0.3930(3)
H11 H 0.8399 0.5852 0.3406
C18 C 0.82085(19) 0.6532(7) 0.4573(2)
H12 H 0.7898 0.7860 0.4486
P1 P 0.20712(4) 0.26405(15) 0.11513(7)
O1 O 0.20291(12) -0.0072(4) 0.10987(19)
O2 O 0.44197(14) -0.0206(5) 0.24225(17)
O3 O 0.52081(12) 0.2574(5) 0.22288(18)
O4 O 0.25327(15) 0.9707(5) 0.32389(18)
O5 O 0.18124(15) 0.9271(5) 0.42162(17)
O6 O 0.02946(14) 0.9972(5) 0.06494(18)
O7 O 0.01484(16) 1.0385(5) -0.0616(2)
N1 N 0.46187(15) 0.1755(5) 0.2136(2)
N2 N 0.20477(17) 0.8651(5) 0.3572(2)
N3 N 0.04088(15) 0.9358(5) -0.0043(2)
C1 C 0.29677(16) 0.3709(6) 0.1153(3)
C2 C 0.34396(17) 0.2352(7) 0.1604(2)
H1 H 0.3294 0.0916 0.1876
C3 C 0.41230(18) 0.3146(6) 0.1645(2)
C4 C 0.43610(17) 0.5215(6) 0.1246(3)
H2 H 0.4835 0.5718 0.1285
C5 C 0.38873(18) 0.6521(6) 0.0791(2)
H3 H 0.4039 0.7927 0.0508
C6 C 0.31953(18) 0.5800(6) 0.0743(2)
H4 H 0.2874 0.6719 0.0434
C7 C 0.17104(18) 0.3794(6) 0.2069(2)
C8 C 0.19913(18) 0.5843(6) 0.2441(2)
H5 H 0.2353 0.6762 0.2197
C9 C 0.17320(18) 0.6510(6) 0.3172(2)
C10 C 0.11973(19) 0.5249(7) 0.3542(2)
H6 H 0.1022 0.5774 0.4040
C11 C 0.0923(2) 0.3202(7) 0.3169(3)
H7 H 0.0560 0.2291 0.3416
C12 C 0.11788(17) 0.2487(6) 0.2436(2)
H8 H 0.0988 0.1085 0.2182
C13 C 0.16408(18) 0.4209(6) 0.0346(2)
C14 C 0.11708(17) 0.6124(6) 0.0477(2)
H9 H 0.1055 0.6628 0.0999
C15 C 0.08790(17) 0.7265(6) -0.0175(2)
C16 C 0.10290(19) 0.6589(7) -0.0946(2)
H10 H 0.0822 0.7423 -0.1380
C17 C 0.1491(2) 0.4654(7) -0.1070(3)
H11 H 0.1601 0.4148 -0.1594
C18 C 0.17915(19) 0.3468(7) -0.0427(2)
H12 H 0.2102 0.2140 -0.0514
P1 P 0.70712(4) 0.73595(15) 0.11513(7)
O1 O 0.70291(12) 1.0072(4) 0.10987(19)
O2 O 0.94197(14) 1.0206(5) 0.24225(17)
O3 O 1.02081(12) 0.7426(5) 0.22288(18)
O4 O 0.75327(15) 0.0293(5) 0.32389(18)
O5 O 0.68124(15) 0.0729(5) 0.42162(17)
O6 O 0.52946(14) 0.0028(5) 0.06494(18)
O7 O 0.51484(16) -0.0385(5) -0.0616(2)
N1 N 0.96187(15) 0.8245(5) 0.2136(2)
N2 N 0.70477(17) 0.1349(5) 0.3572(2)
N3 N 0.54088(15) 0.0642(5) -0.0043(2)
C1 C 0.79677(16) 0.6291(6) 0.1153(3)
C2 C 0.84396(17) 0.7648(7) 0.1604(2)
H1 H 0.8294 0.9084 0.1876
C3 C 0.91230(18) 0.6854(6) 0.1645(2)
C4 C 0.93610(17) 0.4785(6) 0.1246(3)
H2 H 0.9835 0.4282 0.1285
C5 C 0.88873(18) 0.3479(6) 0.0791(2)
H3 H 0.9039 0.2073 0.0508
C6 C 0.81953(18) 0.4200(6) 0.0743(2)
H4 H 0.7874 0.3281 0.0434
C7 C 0.67104(18) 0.6206(6) 0.2069(2)
C8 C 0.69913(18) 0.4157(6) 0.2441(2)
H5 H 0.7353 0.3238 0.2197
C9 C 0.67320(18) 0.3490(6) 0.3172(2)
C10 C 0.61973(19) 0.4751(7) 0.3542(2)
H6 H 0.6022 0.4226 0.4040
C11 C 0.5923(2) 0.6798(7) 0.3169(3)
H7 H 0.5560 0.7709 0.3416
C12 C 0.61788(17) 0.7513(6) 0.2436(2)
H8 H 0.5988 0.8915 0.2182
C13 C 0.66408(18) 0.5791(6) 0.0346(2)
C14 C 0.61708(17) 0.3876(6) 0.0477(2)
H9 H 0.6055 0.3372 0.0999
C15 C 0.58790(17) 0.2735(6) -0.0175(2)
C16 C 0.60290(19) 0.3411(7) -0.0946(2)
H10 H 0.5822 0.2577 -0.1380
C17 C 0.6491(2) 0.5346(7) -0.1070(3)
H11 H 0.6601 0.5852 -0.1594
C18 C 0.67915(19) 0.6532(7) -0.0427(2)
H12 H 0.7102 0.7860 -0.0514
P1 P 0.29288(4) 0.26405(15) 0.61513(7)
O1 O 0.29709(12) -0.0072(4) 0.60987(19)
O2 O 0.05803(14) -0.0206(5) 0.74225(17)
O3 O -0.02081(12) 0.2574(5) 0.72288(18)
O4 O 0.24673(15) 0.9707(5) 0.82389(18)
O5 O 0.31876(15) 0.9271(5) 0.92162(17)
O6 O 0.47054(14) 0.9972(5) 0.56494(18)
O7 O 0.48516(16) 1.0385(5) 0.4384(2)
N1 N 0.03813(15) 0.1755(5) 0.7136(2)
N2 N 0.29523(17) 0.8651(5) 0.8572(2)
N3 N 0.45912(15) 0.9358(5) 0.4957(2)
C1 C 0.20323(16) 0.3709(6) 0.6153(3)
C2 C 0.15604(17) 0.2352(7) 0.6604(2)
H1 H 0.1706 0.0916 0.6876
C3 C 0.08770(18) 0.3146(6) 0.6645(2)
C4 C 0.06390(17) 0.5215(6) 0.6246(3)
H2 H 0.0165 0.5718 0.6285
C5 C 0.11127(18) 0.6521(6) 0.5791(2)
H3 H 0.0961 0.7927 0.5508
C6 C 0.18047(18) 0.5800(6) 0.5743(2)
H4 H 0.2126 0.6719 0.5434
C7 C 0.32896(18) 0.3794(6) 0.7069(2)
C8 C 0.30087(18) 0.5843(6) 0.7441(2)
H5 H 0.2647 0.6762 0.7197
C9 C 0.32680(18) 0.6510(6) 0.8172(2)
C10 C 0.38027(19) 0.5249(7) 0.8542(2)
H6 H 0.3978 0.5774 0.9040
C11 C 0.4077(2) 0.3202(7) 0.8169(3)
H7 H 0.4440 0.2291 0.8416
C12 C 0.38212(17) 0.2487(6) 0.7436(2)
H8 H 0.4012 0.1085 0.7182
C13 C 0.33592(18) 0.4209(6) 0.5346(2)
C14 C 0.38292(17) 0.6124(6) 0.5477(2)
H9 H 0.3945 0.6628 0.5999
C15 C 0.41210(17) 0.7265(6) 0.4825(2)
C16 C 0.39710(19) 0.6589(7) 0.4054(2)
H10 H 0.4178 0.7423 0.3620
C17 C 0.3509(2) 0.4654(7) 0.3930(3)
H11 H 0.3399 0.4148 0.3406
C18 C 0.32085(19) 0.3468(7) 0.4573(2)
H12 H 0.2898 0.2140 0.4486

#END
