./ABICUK_from_xyz.cif_generated_by_CrystalShift
_symmetry_cell_setting triclinic
_symmetry_space_group_name_H-M 'P 1'
loop_
_symmetry_equiv_pos_site_id
_symmetry_equiv_pos_as_xyz
1 x,y,z
_cell_length_a 10.673500
_cell_length_b 11.616400
_cell_length_c 16.369900
_cell_angle_alpha 90.000000
_cell_angle_beta 103.738000
_cell_angle_gamma 90.000000
_cell_volume 1971.600330
loop_
_atom_site_label
_atom_site_type_symbol
_atom_site_fract_x
_atom_site_fract_y
_atom_site_fract_z
Rh1 Rh 0.799610 0.197810 0.687450
Br2 Br 0.600360 0.307880 0.618760
C3 C 0.870100 0.232100 0.600400
O4 O 0.909100 0.256200 0.542800
C5 C 0.951600 0.119600 0.753900
N6 N 1.073000 0.089300 0.751800
C7 C 1.136500 0.033300 0.826400
C8 C 1.054800 0.028900 0.876600
N9 N 0.942400 0.081700 0.832700
C10 C 0.822000 0.094000 0.848700
O11 O 0.799700 0.049400 0.918300
C12 C 0.661300 0.073500 0.911300
C13 C 0.615900 0.144400 0.829600
C14 C 0.582100 0.267400 0.849000
C15 C 0.507700 0.085000 0.767900
N16 N 0.733900 0.145900 0.795800
C17 C 1.130100 0.104100 0.680700
C18 C 1.192100 0.208400 0.672200
C19 C 1.248000 0.216900 0.603800
C20 C 1.244300 0.129500 0.547300
C21 C 1.180200 0.028100 0.557500
C22 C 1.120800 0.013900 0.624400
C23 C 1.198100 0.304200 0.734100
C24 C 1.309700 0.143100 0.475600
C25 C 1.051900 -0.095300 0.634900
H26 H 1.222000 0.004000 0.838800
H27 H 1.070500 -0.003800 0.931300
H28 H 0.650400 0.116500 0.958500
H29 H 0.614000 0.003600 0.907800
H30 H 0.506900 0.266800 0.870500
H31 H 0.651800 0.299900 0.889500
H32 H 0.566500 0.312000 0.799000
H33 H 0.432700 0.084200 0.789700
H34 H 0.489800 0.125200 0.715900
H35 H 0.532300 0.008200 0.759400
H36 H 1.290500 0.286500 0.596100
H37 H 1.176700 -0.032700 0.518200
H38 H 1.243500 0.367500 0.718200
H39 H 1.113000 0.327600 0.734800
H40 H 1.241500 0.278500 0.788500
H41 H 1.348300 0.217200 0.478400
H42 H 1.374300 0.085700 0.479700
H43 H 1.247700 0.135100 0.423600
H44 H 1.055600 -0.146700 0.590400
H45 H 1.092000 -0.129800 0.687200
H46 H 0.964400 -0.078700 0.633800
Rh47 Rh 0.799610 0.302190 0.187450
Br48 Br 0.600360 0.192120 0.118760
C49 C 0.870100 0.267900 0.100400
O50 O 0.909100 0.243800 0.042800
C51 C 0.951600 0.380400 0.253900
N52 N 1.073000 0.410700 0.251800
C53 C 1.136500 0.466700 0.326400
C54 C 1.054800 0.471100 0.376600
N55 N 0.942400 0.418300 0.332700
C56 C 0.822000 0.406000 0.348700
O57 O 0.799700 0.450600 0.418300
C58 C 0.661300 0.426500 0.411300
C59 C 0.615900 0.355600 0.329600
C60 C 0.582100 0.232600 0.349000
C61 C 0.507700 0.415000 0.267900
N62 N 0.733900 0.354100 0.295800
C63 C 1.130100 0.395900 0.180700
C64 C 1.192100 0.291600 0.172200
C65 C 1.248000 0.283100 0.103800
C66 C 1.244300 0.370500 0.047300
C67 C 1.180200 0.471900 0.057500
C68 C 1.120800 0.486100 0.124400
C69 C 1.198100 0.195800 0.234100
C70 C 1.309700 0.356900 -0.024400
C71 C 1.051900 0.595300 0.134900
H72 H 1.222000 0.496000 0.338800
H73 H 1.070500 0.503800 0.431300
H74 H 0.650400 0.383500 0.458500
H75 H 0.614000 0.496400 0.407800
H76 H 0.506900 0.233200 0.370500
H77 H 0.651800 0.200100 0.389500
H78 H 0.566500 0.188000 0.299000
H79 H 0.432700 0.415800 0.289700
H80 H 0.489800 0.374800 0.215900
H81 H 0.532300 0.491800 0.259400
H82 H 1.290500 0.213500 0.096100
H83 H 1.176700 0.532700 0.018200
H84 H 1.243500 0.132500 0.218200
H85 H 1.113000 0.172400 0.234800
H86 H 1.241500 0.221500 0.288500
H87 H 1.348300 0.282800 -0.021600
H88 H 1.374300 0.414300 -0.020300
H89 H 1.247700 0.364900 -0.076400
H90 H 1.055600 0.646700 0.090400
H91 H 1.092000 0.629800 0.187200
H92 H 0.964400 0.578700 0.133800
Rh93 Rh 0.200390 0.802190 0.312550
Br94 Br 0.399640 0.692120 0.381240
C95 C 0.129900 0.767900 0.399600
O96 O 0.090900 0.743800 0.457200
C97 C 0.048400 0.880400 0.246100
N98 N -0.073000 0.910700 0.248200
C99 C -0.136500 0.966700 0.173600
C100 C -0.054800 0.971100 0.123400
N101 N 0.057600 0.918300 0.167300
C102 C 0.178000 0.906000 0.151300
O103 O 0.200300 0.950600 0.081700
C104 C 0.338700 0.926500 0.088700
C105 C 0.384100 0.855600 0.170400
C106 C 0.417900 0.732600 0.151000
C107 C 0.492300 0.915000 0.232100
N108 N 0.266100 0.854100 0.204200
C109 C -0.130100 0.895900 0.319300
C110 C -0.192100 0.791600 0.327800
C111 C -0.248000 0.783100 0.396200
C112 C -0.244300 0.870500 0.452700
C113 C -0.180200 0.971900 0.442500
C114 C -0.120800 0.986100 0.375600
C115 C -0.198100 0.695800 0.265900
C116 C -0.309700 0.856900 0.524400
C117 C -0.051900 1.095300 0.365100
H118 H -0.222000 0.996000 0.161200
H119 H -0.070500 1.003800 0.068700
H120 H 0.349600 0.883500 0.041500
H121 H 0.386000 0.996400 0.092200
H122 H 0.493100 0.733200 0.129500
H123 H 0.348200 0.700100 0.110500
H124 H 0.433500 0.688000 0.201000
H125 H 0.567300 0.915800 0.210300
H126 H 0.510200 0.874800 0.284100
H127 H 0.467700 0.991800 0.240600
H128 H -0.290500 0.713500 0.403900
H129 H -0.176700 1.032700 0.481800
H130 H -0.243500 0.632500 0.281800
H131 H -0.113000 0.672400 0.265200
H132 H -0.241500 0.721500 0.211500
H133 H -0.348300 0.782800 0.521600
H134 H -0.374300 0.914300 0.520300
H135 H -0.247700 0.864900 0.576400
H136 H -0.055600 1.146700 0.409600
H137 H -0.092000 1.129800 0.312800
H138 H 0.035600 1.078700 0.366200
Rh139 Rh 0.200390 0.697810 0.812550
Br140 Br 0.399640 0.807880 0.881240
C141 C 0.129900 0.732100 0.899600
O142 O 0.090900 0.756200 0.957200
C143 C 0.048400 0.619600 0.746100
N144 N -0.073000 0.589300 0.748200
C145 C -0.136500 0.533300 0.673600
C146 C -0.054800 0.528900 0.623400
N147 N 0.057600 0.581700 0.667300
C148 C 0.178000 0.594000 0.651300
O149 O 0.200300 0.549400 0.581700
C150 C 0.338700 0.573500 0.588700
C151 C 0.384100 0.644400 0.670400
C152 C 0.417900 0.767400 0.651000
C153 C 0.492300 0.585000 0.732100
N154 N 0.266100 0.645900 0.704200
C155 C -0.130100 0.604100 0.819300
C156 C -0.192100 0.708400 0.827800
C157 C -0.248000 0.716900 0.896200
C158 C -0.244300 0.629500 0.952700
C159 C -0.180200 0.528100 0.942500
C160 C -0.120800 0.513900 0.875600
C161 C -0.198100 0.804200 0.765900
C162 C -0.309700 0.643100 1.024400
C163 C -0.051900 0.404700 0.865100
H164 H -0.222000 0.504000 0.661200
H165 H -0.070500 0.496200 0.568700
H166 H 0.349600 0.616500 0.541500
H167 H 0.386000 0.503600 0.592200
H168 H 0.493100 0.766800 0.629500
H169 H 0.348200 0.799900 0.610500
H170 H 0.433500 0.812000 0.701000
H171 H 0.567300 0.584200 0.710300
H172 H 0.510200 0.625200 0.784100
H173 H 0.467700 0.508200 0.740600
H174 H -0.290500 0.786500 0.903900
H175 H -0.176700 0.467300 0.981800
H176 H -0.243500 0.867500 0.781800
H177 H -0.113000 0.827600 0.765200
H178 H -0.241500 0.778500 0.711500
H179 H -0.348300 0.717200 1.021600
H180 H -0.374300 0.585700 1.020300
H181 H -0.247700 0.635100 1.076400
H182 H -0.055600 0.353300 0.909600
H183 H -0.092000 0.370200 0.812800
H184 H 0.035600 0.421300 0.866200

#END
