./ABIJUT_from_xyz.cif_generated_by_CrystalShift
_symmetry_cell_setting triclinic
_symmetry_space_group_name_H-M 'P 1'
loop_
_symmetry_equiv_pos_site_id
_symmetry_equiv_pos_as_xyz
1 x,y,z
_cell_length_a 19.901000
_cell_length_b 9.308000
_cell_length_c 10.561000
_cell_angle_alpha 90.000000
_cell_angle_beta 102.818000
_cell_angle_gamma 90.000000
_cell_volume 1907.552257
loop_
_atom_site_label
_atom_site_type_symbol
_atom_site_fract_x
_atom_site_fract_y
_atom_site_fract_z
C1 C 0.861200 0.158400 0.976500
C2 C 0.805500 0.179500 1.046700
C3 C 0.801200 0.053400 1.136000
C4 C 0.856000 -0.059900 1.166900
H5 H 0.875100 -0.075900 1.088000
C6 C 0.827900 -0.200700 1.203700
H7 H 0.793400 -0.238300 1.128800
H8 H 0.804700 -0.184800 1.276200
C9 C 0.885800 -0.310900 1.244400
H10 H 0.866400 -0.400500 1.272300
H11 H 0.905700 -0.334100 1.169000
C12 C 0.941700 -0.255500 1.353800
H13 H 0.979100 -0.327500 1.375200
H14 H 0.922800 -0.240600 1.431900
C15 C 0.970700 -0.114900 1.316300
H16 H 0.993300 -0.131900 1.243100
H17 H 1.006000 -0.078600 1.390700
C18 C 0.914500 -0.002500 1.277000
H19 H 0.934400 0.085300 1.247200
H20 H 0.895600 0.023100 1.353100
C21 C 0.816000 0.324100 1.119400
H22 H 0.805500 0.313900 1.206400
H23 H 0.864400 0.356300 1.130700
C24 C 0.767500 0.433100 1.038700
H25 H 0.744400 0.492700 1.094200
H26 H 0.792400 0.496600 0.989500
C27 C 0.717100 0.340600 0.950100
H28 H 0.674700 0.375300 0.899200
C29 C 0.737100 0.204600 0.949000
C30 C 0.699700 0.084100 0.875500
C31 C 0.632100 0.109400 0.782800
C32 C 0.578000 0.018600 0.787700
H33 H 0.584600 -0.057400 0.849200
C34 C 0.513600 0.037000 0.703500
H35 H 0.476600 -0.025700 0.708300
C36 C 0.504300 0.146600 0.613400
C37 C 0.558700 0.236200 0.606000
H38 H 0.552600 0.310400 0.542700
C39 C 0.622400 0.218100 0.691100
H40 H 0.659400 0.280700 0.686200
C41 C 0.434500 0.165100 0.526500
C42 C 0.365200 0.301500 0.359700
H43 H 0.336000 0.334900 0.412700
H44 H 0.372500 0.381600 0.303300
H45 H 0.340200 0.211300 0.318900
N46 N 0.905100 0.147900 0.922700
O47 O 0.752800 0.055000 1.190600
O48 O 0.723870 -0.037100 0.894600
O49 O 0.385460 0.093400 0.534200
O50 O 0.432550 0.272700 0.442500
C51 C 0.138800 0.658400 0.523500
C52 C 0.194500 0.679500 0.453300
C53 C 0.198800 0.553400 0.364000
C54 C 0.144000 0.440100 0.333100
H55 H 0.124900 0.424100 0.412000
C56 C 0.172100 0.299300 0.296300
H57 H 0.206600 0.261700 0.371200
H58 H 0.195300 0.315200 0.223800
C59 C 0.114200 0.189100 0.255600
H60 H 0.133600 0.099500 0.227700
H61 H 0.094300 0.165900 0.331000
C62 C 0.058300 0.244500 0.146200
H63 H 0.020900 0.172500 0.124800
H64 H 0.077200 0.259400 0.068100
C65 C 0.029300 0.385100 0.183700
H66 H 0.006700 0.368100 0.256900
H67 H -0.006000 0.421400 0.109300
C68 C 0.085500 0.497500 0.223000
H69 H 0.065600 0.585300 0.252800
H70 H 0.104400 0.523100 0.146900
C71 C 0.184000 0.824100 0.380600
H72 H 0.194500 0.813900 0.293600
H73 H 0.135600 0.856300 0.369300
C74 C 0.232500 0.933100 0.461300
H75 H 0.255600 0.992700 0.405800
H76 H 0.207600 0.996600 0.510500
C77 C 0.282900 0.840600 0.549900
H78 H 0.325300 0.875300 0.600800
C79 C 0.262900 0.704600 0.551000
C80 C 0.300300 0.584100 0.624500
C81 C 0.367900 0.609400 0.717200
C82 C 0.422000 0.518600 0.712300
H83 H 0.415400 0.442600 0.650800
C84 C 0.486400 0.537000 0.796500
H85 H 0.523400 0.474300 0.791700
C86 C 0.495700 0.646600 0.886600
C87 C 0.441300 0.736200 0.894000
H88 H 0.447400 0.810400 0.957300
C89 C 0.377600 0.718100 0.808900
H90 H 0.340600 0.780700 0.813800
C91 C 0.565500 0.665100 0.973500
C92 C 0.634800 0.801500 1.140300
H93 H 0.664000 0.834900 1.087300
H94 H 0.627500 0.881600 1.196700
H95 H 0.659800 0.711300 1.181100
N96 N 0.094900 0.647900 0.577300
O97 O 0.247200 0.555000 0.309400
O98 O 0.276130 0.462900 0.605400
O99 O 0.614540 0.593400 0.965800
O100 O 0.567450 0.772700 1.057500
C101 C 0.138800 0.841600 0.023500
C102 C 0.194500 0.820500 -0.046700
C103 C 0.198800 0.946600 -0.136000
C104 C 0.144000 1.059900 -0.166900
H105 H 0.124900 1.075900 -0.088000
C106 C 0.172100 1.200700 -0.203700
H107 H 0.206600 1.238300 -0.128800
H108 H 0.195300 1.184800 -0.276200
C109 C 0.114200 1.310900 -0.244400
H110 H 0.133600 1.400500 -0.272300
H111 H 0.094300 1.334100 -0.169000
C112 C 0.058300 1.255500 -0.353800
H113 H 0.020900 1.327500 -0.375200
H114 H 0.077200 1.240600 -0.431900
C115 C 0.029300 1.114900 -0.316300
H116 H 0.006700 1.131900 -0.243100
H117 H -0.006000 1.078600 -0.390700
C118 C 0.085500 1.002500 -0.277000
H119 H 0.065600 0.914700 -0.247200
H120 H 0.104400 0.976900 -0.353100
C121 C 0.184000 0.675900 -0.119400
H122 H 0.194500 0.686100 -0.206400
H123 H 0.135600 0.643700 -0.130700
C124 C 0.232500 0.566900 -0.038700
H125 H 0.255600 0.507300 -0.094200
H126 H 0.207600 0.503400 0.010500
C127 C 0.282900 0.659400 0.049900
H128 H 0.325300 0.624700 0.100800
C129 C 0.262900 0.795400 0.051000
C130 C 0.300300 0.915900 0.124500
C131 C 0.367900 0.890600 0.217200
C132 C 0.422000 0.981400 0.212300
H133 H 0.415400 1.057400 0.150800
C134 C 0.486400 0.963000 0.296500
H135 H 0.523400 1.025700 0.291700
C136 C 0.495700 0.853400 0.386600
C137 C 0.441300 0.763800 0.394000
H138 H 0.447400 0.689600 0.457300
C139 C 0.377600 0.781900 0.308900
H140 H 0.340600 0.719300 0.313800
C141 C 0.565500 0.834900 0.473500
C142 C 0.634800 0.698500 0.640300
H143 H 0.664000 0.665100 0.587300
H144 H 0.627500 0.618400 0.696700
H145 H 0.659800 0.788700 0.681100
N146 N 0.094900 0.852100 0.077300
O147 O 0.247200 0.945000 -0.190600
O148 O 0.276130 1.037100 0.105400
O149 O 0.614540 0.906600 0.465800
O150 O 0.567450 0.727300 0.557500
C151 C 0.861200 0.341600 0.476500
C152 C 0.805500 0.320500 0.546700
C153 C 0.801200 0.446600 0.636000
C154 C 0.856000 0.559900 0.666900
H155 H 0.875100 0.575900 0.588000
C156 C 0.827900 0.700700 0.703700
H157 H 0.793400 0.738300 0.628800
H158 H 0.804700 0.684800 0.776200
C159 C 0.885800 0.810900 0.744400
H160 H 0.866400 0.900500 0.772300
H161 H 0.905700 0.834100 0.669000
C162 C 0.941700 0.755500 0.853800
H163 H 0.979100 0.827500 0.875200
H164 H 0.922800 0.740600 0.931900
C165 C 0.970700 0.614900 0.816300
H166 H 0.993300 0.631900 0.743100
H167 H 1.006000 0.578600 0.890700
C168 C 0.914500 0.502500 0.777000
H169 H 0.934400 0.414700 0.747200
H170 H 0.895600 0.476900 0.853100
C171 C 0.816000 0.175900 0.619400
H172 H 0.805500 0.186100 0.706400
H173 H 0.864400 0.143700 0.630700
C174 C 0.767500 0.066900 0.538700
H175 H 0.744400 0.007300 0.594200
H176 H 0.792400 0.003400 0.489500
C177 C 0.717100 0.159400 0.450100
H178 H 0.674700 0.124700 0.399200
C179 C 0.737100 0.295400 0.449000
C180 C 0.699700 0.415900 0.375500
C181 C 0.632100 0.390600 0.282800
C182 C 0.578000 0.481400 0.287700
H183 H 0.584600 0.557400 0.349200
C184 C 0.513600 0.463000 0.203500
H185 H 0.476600 0.525700 0.208300
C186 C 0.504300 0.353400 0.113400
C187 C 0.558700 0.263800 0.106000
H188 H 0.552600 0.189600 0.042700
C189 C 0.622400 0.281900 0.191100
H190 H 0.659400 0.219300 0.186200
C191 C 0.434500 0.334900 0.026500
C192 C 0.365200 0.198500 -0.140300
H193 H 0.336000 0.165100 -0.087300
H194 H 0.372500 0.118400 -0.196700
H195 H 0.340200 0.288700 -0.181100
N196 N 0.905100 0.352100 0.422700
O197 O 0.752800 0.445000 0.690600
O198 O 0.723870 0.537100 0.394600
O199 O 0.385460 0.406600 0.034200
O200 O 0.432550 0.227300 -0.057500

#END
