
#######################################################################
#
#                 Cambridge Crystallographic Data Centre
#                                CCDC 
#
#######################################################################
#
# If this CIF has been generated from an entry in the Cambridge 
# Structural Database, then it will include bibliographic, chemical, 
# crystal, experimental, refinement or atomic coordinate data resulting 
# from the CCDC's data processing and validation procedures.
#
#######################################################################

data_ABIJAY
_symmetry_cell_setting           monoclinic
_symmetry_space_group_name_H-M   'P 21/n'
_symmetry_Int_Tables_number      14
_space_group_name_Hall           '-P 2yn'
loop_
_symmetry_equiv_pos_site_id
_symmetry_equiv_pos_as_xyz
1 x,y,z
2 1/2-x,1/2+y,1/2-z
3 -x,-y,-z
4 1/2+x,1/2-y,1/2+z
_cell_length_a                   9.388(6)
_cell_length_b                   11.595(8)
_cell_length_c                   15.005(10)
_cell_angle_alpha                90
_cell_angle_beta                 94.983(9)
_cell_angle_gamma                90
_cell_volume                     1627.18
loop_
_atom_site_label
_atom_site_type_symbol
_atom_site_fract_x
_atom_site_fract_y
_atom_site_fract_z
C1 C 0.2686(4) 0.7279(4) 0.1231(2)
C2 C 0.3801(4) 0.6681(4) 0.1702(3)
H1 H 0.3648 0.5950 0.1931
C3 C 0.5150(4) 0.7194(4) 0.1826(3)
H2 H 0.5889 0.6805 0.2152
C4 C 0.5410(4) 0.8266(4) 0.1476(3)
H3 H 0.6327 0.8577 0.1536
C5 C 0.4290(4) 0.8875(4) 0.1036(3)
H4 H 0.4446 0.9613 0.0820
C6 C 0.2935(4) 0.8386(4) 0.0914(3)
C7 C 0.1750(4) 0.9068(4) 0.0462(3)
C8 C 0.0112(4) 0.7581(3) 0.0949(3)
H5 H -0.0653 0.7193 0.0576
C9 C -0.0445(4) 0.7752(4) 0.1863(3)
C10 C -0.0798(4) 0.8798(4) 0.2226(3)
H6 H -0.0629 0.9483 0.1930
C11 C -0.1413(4) 0.8815(4) 0.3044(3)
H7 H -0.1655 0.9513 0.3296
C12 C -0.1656(5) 0.7795(4) 0.3471(3)
H8 H -0.2087 0.7812 0.4006
C13 C -0.1275(4) 0.6742(4) 0.3126(3)
H9 H -0.1445 0.6060 0.3426
C14 C -0.0636(4) 0.6720(4) 0.2323(3)
C15 C -0.0066(4) 0.5664(4) 0.1949(3)
H10 H -0.0426 0.4954 0.2109
C16 C 0.0960(4) 0.5694(3) 0.1381(3)
C17 C 0.1721(4) 0.4681(3) 0.1054(3)
C18 C 0.1736(4) 0.3640(4) 0.1513(3)
H11 H 0.1259 0.3579 0.2029
C19 C 0.2453(5) 0.2692(4) 0.1212(3)
H12 H 0.2420 0.1992 0.1512
C20 C 0.3215(4) 0.2779(4) 0.0470(3)
H13 H 0.3718 0.2148 0.0278
C21 C 0.3223(4) 0.3813(4) 0.0015(3)
H14 H 0.3734 0.3878 -0.0486
C22 C 0.2474(4) 0.4755(4) 0.0300(3)
H15 H 0.2477 0.5444 -0.0017
N1 N 0.0442(3) 0.8618(3) 0.0481(2)
H16 H -0.0255 0.8975 0.0191
N2 N 0.1317(3) 0.6788(3) 0.1027(2)
O1 O 0.1954(3) 0.9992(3) 0.0076(2)
C1 C 0.2314(4) 0.2279(4) 0.3769(2)
C2 C 0.1199(4) 0.1681(4) 0.3298(3)
H1 H 0.1352 0.0950 0.3069
C3 C -0.0150(4) 0.2194(4) 0.3174(3)
H2 H -0.0889 0.1805 0.2848
C4 C -0.0410(4) 0.3266(4) 0.3524(3)
H3 H -0.1327 0.3577 0.3464
C5 C 0.0710(4) 0.3875(4) 0.3964(3)
H4 H 0.0554 0.4613 0.4180
C6 C 0.2065(4) 0.3386(4) 0.4086(3)
C7 C 0.3250(4) 0.4068(4) 0.4538(3)
C8 C 0.4888(4) 0.2581(3) 0.4051(3)
H5 H 0.5653 0.2193 0.4424
C9 C 0.5445(4) 0.2752(4) 0.3137(3)
C10 C 0.5798(4) 0.3798(4) 0.2774(3)
H6 H 0.5629 0.4483 0.3070
C11 C 0.6413(4) 0.3815(4) 0.1956(3)
H7 H 0.6655 0.4513 0.1704
C12 C 0.6656(5) 0.2795(4) 0.1529(3)
H8 H 0.7087 0.2812 0.0994
C13 C 0.6275(4) 0.1742(4) 0.1874(3)
H9 H 0.6445 0.1060 0.1574
C14 C 0.5636(4) 0.1720(4) 0.2677(3)
C15 C 0.5066(4) 0.0664(4) 0.3051(3)
H10 H 0.5426 -0.0046 0.2891
C16 C 0.4040(4) 0.0694(3) 0.3619(3)
C17 C 0.3279(4) -0.0319(3) 0.3946(3)
C18 C 0.3264(4) -0.1360(4) 0.3487(3)
H11 H 0.3741 -0.1421 0.2971
C19 C 0.2547(5) -0.2308(4) 0.3788(3)
H12 H 0.2580 -0.3008 0.3488
C20 C 0.1785(4) -0.2221(4) 0.4530(3)
H13 H 0.1282 -0.2852 0.4722
C21 C 0.1777(4) -0.1187(4) 0.4985(3)
H14 H 0.1266 -0.1122 0.5486
C22 C 0.2526(4) -0.0245(4) 0.4700(3)
H15 H 0.2523 0.0444 0.5017
N1 N 0.4558(3) 0.3618(3) 0.4519(2)
H16 H 0.5255 0.3975 0.4809
N2 N 0.3683(3) 0.1788(3) 0.3973(2)
O1 O 0.3046(3) 0.4992(3) 0.4924(2)
C1 C 0.7314(4) 0.2721(4) 0.8769(2)
C2 C 0.6199(4) 0.3319(4) 0.8298(3)
H1 H 0.6352 0.4050 0.8069
C3 C 0.4850(4) 0.2806(4) 0.8174(3)
H2 H 0.4111 0.3195 0.7848
C4 C 0.4590(4) 0.1734(4) 0.8524(3)
H3 H 0.3673 0.1423 0.8464
C5 C 0.5710(4) 0.1125(4) 0.8964(3)
H4 H 0.5554 0.0387 0.9180
C6 C 0.7065(4) 0.1614(4) 0.9086(3)
C7 C 0.8250(4) 0.0932(4) 0.9538(3)
C8 C 0.9888(4) 0.2419(3) 0.9051(3)
H5 H 1.0653 0.2807 0.9424
C9 C 1.0445(4) 0.2248(4) 0.8137(3)
C10 C 1.0798(4) 0.1202(4) 0.7774(3)
H6 H 1.0629 0.0517 0.8070
C11 C 1.1413(4) 0.1185(4) 0.6956(3)
H7 H 1.1655 0.0487 0.6704
C12 C 1.1656(5) 0.2205(4) 0.6529(3)
H8 H 1.2087 0.2188 0.5994
C13 C 1.1275(4) 0.3258(4) 0.6874(3)
H9 H 1.1445 0.3940 0.6574
C14 C 1.0636(4) 0.3280(4) 0.7677(3)
C15 C 1.0066(4) 0.4336(4) 0.8051(3)
H10 H 1.0426 0.5046 0.7891
C16 C 0.9040(4) 0.4306(3) 0.8619(3)
C17 C 0.8279(4) 0.5319(3) 0.8946(3)
C18 C 0.8264(4) 0.6360(4) 0.8487(3)
H11 H 0.8741 0.6421 0.7971
C19 C 0.7547(5) 0.7308(4) 0.8788(3)
H12 H 0.7580 0.8008 0.8488
C20 C 0.6785(4) 0.7221(4) 0.9530(3)
H13 H 0.6282 0.7852 0.9722
C21 C 0.6777(4) 0.6187(4) 0.9985(3)
H14 H 0.6266 0.6122 1.0486
C22 C 0.7526(4) 0.5245(4) 0.9700(3)
H15 H 0.7523 0.4556 1.0017
N1 N 0.9558(3) 0.1382(3) 0.9519(2)
H16 H 1.0255 0.1025 0.9809
N2 N 0.8683(3) 0.3212(3) 0.8973(2)
O1 O 0.8046(3) 0.0008(3) 0.9924(2)
C1 C 0.7686(4) 0.7721(4) 0.6231(2)
C2 C 0.8801(4) 0.8319(4) 0.6702(3)
H1 H 0.8648 0.9050 0.6931
C3 C 1.0150(4) 0.7806(4) 0.6826(3)
H2 H 1.0889 0.8195 0.7152
C4 C 1.0410(4) 0.6734(4) 0.6476(3)
H3 H 1.1327 0.6423 0.6536
C5 C 0.9290(4) 0.6125(4) 0.6036(3)
H4 H 0.9446 0.5387 0.5820
C6 C 0.7935(4) 0.6614(4) 0.5914(3)
C7 C 0.6750(4) 0.5932(4) 0.5462(3)
C8 C 0.5112(4) 0.7419(3) 0.5949(3)
H5 H 0.4347 0.7807 0.5576
C9 C 0.4555(4) 0.7248(4) 0.6863(3)
C10 C 0.4202(4) 0.6202(4) 0.7226(3)
H6 H 0.4371 0.5517 0.6930
C11 C 0.3587(4) 0.6185(4) 0.8044(3)
H7 H 0.3345 0.5487 0.8296
C12 C 0.3344(5) 0.7205(4) 0.8471(3)
H8 H 0.2913 0.7188 0.9006
C13 C 0.3725(4) 0.8258(4) 0.8126(3)
H9 H 0.3555 0.8940 0.8426
C14 C 0.4364(4) 0.8280(4) 0.7323(3)
C15 C 0.4934(4) 0.9336(4) 0.6949(3)
H10 H 0.4574 1.0046 0.7109
C16 C 0.5960(4) 0.9306(3) 0.6381(3)
C17 C 0.6721(4) 1.0319(3) 0.6054(3)
C18 C 0.6736(4) 1.1360(4) 0.6513(3)
H11 H 0.6259 1.1421 0.7029
C19 C 0.7453(5) 1.2308(4) 0.6212(3)
H12 H 0.7420 1.3008 0.6512
C20 C 0.8215(4) 1.2221(4) 0.5470(3)
H13 H 0.8718 1.2852 0.5278
C21 C 0.8223(4) 1.1187(4) 0.5015(3)
H14 H 0.8734 1.1122 0.4514
C22 C 0.7474(4) 1.0245(4) 0.5300(3)
H15 H 0.7477 0.9556 0.4983
N1 N 0.5442(3) 0.6382(3) 0.5481(2)
H16 H 0.4745 0.6025 0.5191
N2 N 0.6317(3) 0.8212(3) 0.6027(2)
O1 O 0.6954(3) 0.5008(3) 0.5076(2)

#END
