./ABIKUS_from_xyz.cif_generated_by_CrystalShift
_symmetry_cell_setting triclinic
_symmetry_space_group_name_H-M 'P 1'
loop_
_symmetry_equiv_pos_site_id
_symmetry_equiv_pos_as_xyz
1 x,y,z
_cell_length_a 9.019500
_cell_length_b 11.780500
_cell_length_c 11.533700
_cell_angle_alpha 90.000000
_cell_angle_beta 99.592000
_cell_angle_gamma 90.000000
_cell_volume 1208.370908
loop_
_atom_site_label
_atom_site_type_symbol
_atom_site_fract_x
_atom_site_fract_y
_atom_site_fract_z
Mo1 Mo 0.500000 0.227550 0.750000
Cl2 Cl 0.332230 0.185020 0.880030
S3 S 0.372750 0.047150 0.620970
C4 C 0.482900 -0.073340 0.683180
H5 H 0.429000 -0.142400 0.657100
H6 H 0.577000 -0.074200 0.653000
C7 C 0.188600 0.012600 0.655120
H8 H 0.153100 -0.058000 0.616900
H9 H 0.195200 0.002700 0.739300
O10 O 0.380480 0.313560 0.661560
C11 C 0.079000 0.107500 0.612900
H12 H -0.018300 0.089100 0.631000
H13 H 0.072000 0.116500 0.529400
H14 H 0.113900 0.177000 0.651500
Cl15 Cl 0.667770 0.185020 0.619970
C16 C 0.517100 -0.073340 0.816820
S17 S 0.627250 0.047150 0.879030
O18 O 0.619520 0.313560 0.838440
C19 C 0.811400 0.012600 0.844880
H20 H 0.846900 -0.058000 0.883100
H21 H 0.804800 0.002700 0.760700
C22 C 0.921000 0.107500 0.887100
H23 H 1.018300 0.089100 0.869000
H24 H 0.928000 0.116500 0.970600
H25 H 0.886100 0.177000 0.848500
H26 H 0.571000 -0.142400 0.842900
H27 H 0.423000 -0.074200 0.847000
Mo28 Mo -0.000000 0.727550 0.750000
Cl29 Cl -0.167770 0.685020 0.880030
S30 S -0.127250 0.547150 0.620970
C31 C -0.017100 0.426660 0.683180
H32 H -0.071000 0.357600 0.657100
H33 H 0.077000 0.425800 0.653000
C34 C -0.311400 0.512600 0.655120
H35 H -0.346900 0.442000 0.616900
H36 H -0.304800 0.502700 0.739300
O37 O -0.119520 0.813560 0.661560
C38 C -0.421000 0.607500 0.612900
H39 H -0.518300 0.589100 0.631000
H40 H -0.428000 0.616500 0.529400
H41 H -0.386100 0.677000 0.651500
Cl42 Cl 0.167770 0.685020 0.619970
C43 C 0.017100 0.426660 0.816820
S44 S 0.127250 0.547150 0.879030
O45 O 0.119520 0.813560 0.838440
C46 C 0.311400 0.512600 0.844880
H47 H 0.346900 0.442000 0.883100
H48 H 0.304800 0.502700 0.760700
C49 C 0.421000 0.607500 0.887100
H50 H 0.518300 0.589100 0.869000
H51 H 0.428000 0.616500 0.970600
H52 H 0.386100 0.677000 0.848500
H53 H 0.071000 0.357600 0.842900
H54 H -0.077000 0.425800 0.847000
Mo55 Mo 1.000000 0.727550 0.750000
Cl56 Cl 0.832230 0.685020 0.880030
S57 S 0.872750 0.547150 0.620970
C58 C 0.982900 0.426660 0.683180
H59 H 0.929000 0.357600 0.657100
H60 H 1.077000 0.425800 0.653000
C61 C 0.688600 0.512600 0.655120
H62 H 0.653100 0.442000 0.616900
H63 H 0.695200 0.502700 0.739300
O64 O 0.880480 0.813560 0.661560
C65 C 0.579000 0.607500 0.612900
H66 H 0.481700 0.589100 0.631000
H67 H 0.572000 0.616500 0.529400
H68 H 0.613900 0.677000 0.651500
Cl69 Cl 1.167770 0.685020 0.619970
C70 C 1.017100 0.426660 0.816820
S71 S 1.127250 0.547150 0.879030
O72 O 1.119520 0.813560 0.838440
C73 C 1.311400 0.512600 0.844880
H74 H 1.346900 0.442000 0.883100
H75 H 1.304800 0.502700 0.760700
C76 C 1.421000 0.607500 0.887100
H77 H 1.518300 0.589100 0.869000
H78 H 1.428000 0.616500 0.970600
H79 H 1.386100 0.677000 0.848500
H80 H 1.071000 0.357600 0.842900
H81 H 0.923000 0.425800 0.847000
Mo82 Mo 0.500000 0.772450 0.250000
Cl83 Cl 0.332230 0.814980 0.380030
S84 S 0.372750 0.952850 0.120970
C85 C 0.482900 1.073340 0.183180
H86 H 0.429000 1.142400 0.157100
H87 H 0.577000 1.074200 0.153000
C88 C 0.188600 0.987400 0.155120
H89 H 0.153100 1.058000 0.116900
H90 H 0.195200 0.997300 0.239300
O91 O 0.380480 0.686440 0.161560
C92 C 0.079000 0.892500 0.112900
H93 H -0.018300 0.910900 0.131000
H94 H 0.072000 0.883500 0.029400
H95 H 0.113900 0.823000 0.151500
Cl96 Cl 0.667770 0.814980 0.119970
C97 C 0.517100 1.073340 0.316820
S98 S 0.627250 0.952850 0.379030
O99 O 0.619520 0.686440 0.338440
C100 C 0.811400 0.987400 0.344880
H101 H 0.846900 1.058000 0.383100
H102 H 0.804800 0.997300 0.260700
C103 C 0.921000 0.892500 0.387100
H104 H 1.018300 0.910900 0.369000
H105 H 0.928000 0.883500 0.470600
H106 H 0.886100 0.823000 0.348500
H107 H 0.571000 1.142400 0.342900
H108 H 0.423000 1.074200 0.347000
Mo109 Mo 0.000000 0.272450 0.250000
Cl110 Cl -0.167770 0.314980 0.380030
S111 S -0.127250 0.452850 0.120970
C112 C -0.017100 0.573340 0.183180
H113 H -0.071000 0.642400 0.157100
H114 H 0.077000 0.574200 0.153000
C115 C -0.311400 0.487400 0.155120
H116 H -0.346900 0.558000 0.116900
H117 H -0.304800 0.497300 0.239300
O118 O -0.119520 0.186440 0.161560
C119 C -0.421000 0.392500 0.112900
H120 H -0.518300 0.410900 0.131000
H121 H -0.428000 0.383500 0.029400
H122 H -0.386100 0.323000 0.151500
Cl123 Cl 0.167770 0.314980 0.119970
C124 C 0.017100 0.573340 0.316820
S125 S 0.127250 0.452850 0.379030
O126 O 0.119520 0.186440 0.338440
C127 C 0.311400 0.487400 0.344880
H128 H 0.346900 0.558000 0.383100
H129 H 0.304800 0.497300 0.260700
C130 C 0.421000 0.392500 0.387100
H131 H 0.518300 0.410900 0.369000
H132 H 0.428000 0.383500 0.470600
H133 H 0.386100 0.323000 0.348500
H134 H 0.071000 0.642400 0.342900
H135 H -0.077000 0.574200 0.347000
Mo136 Mo 1.000000 0.272450 0.250000
Cl137 Cl 0.832230 0.314980 0.380030
S138 S 0.872750 0.452850 0.120970
C139 C 0.982900 0.573340 0.183180
H140 H 0.929000 0.642400 0.157100
H141 H 1.077000 0.574200 0.153000
C142 C 0.688600 0.487400 0.155120
H143 H 0.653100 0.558000 0.116900
H144 H 0.695200 0.497300 0.239300
O145 O 0.880480 0.186440 0.161560
C146 C 0.579000 0.392500 0.112900
H147 H 0.481700 0.410900 0.131000
H148 H 0.572000 0.383500 0.029400
H149 H 0.613900 0.323000 0.151500
Cl150 Cl 1.167770 0.314980 0.119970
C151 C 1.017100 0.573340 0.316820
S152 S 1.127250 0.452850 0.379030
O153 O 1.119520 0.186440 0.338440
C154 C 1.311400 0.487400 0.344880
H155 H 1.346900 0.558000 0.383100
H156 H 1.304800 0.497300 0.260700
C157 C 1.421000 0.392500 0.387100
H158 H 1.518300 0.410900 0.369000
H159 H 1.428000 0.383500 0.470600
H160 H 1.386100 0.323000 0.348500
H161 H 1.071000 0.642400 0.342900
H162 H 0.923000 0.574200 0.347000

#END
