
#######################################################################
#
#                 Cambridge Crystallographic Data Centre
#                                CCDC 
#
#######################################################################
#
# If this CIF has been generated from an entry in the Cambridge 
# Structural Database, then it will include bibliographic, chemical, 
# crystal, experimental, refinement or atomic coordinate data resulting 
# from the CCDC's data processing and validation procedures.
#
#######################################################################

data_ABISAG
_symmetry_cell_setting           orthorhombic
_symmetry_space_group_name_H-M   'P 21 21 21'
_symmetry_Int_Tables_number      19
_space_group_name_Hall           'P 2ac 2ab'
loop_
_symmetry_equiv_pos_site_id
_symmetry_equiv_pos_as_xyz
1 x,y,z
2 1/2+x,1/2-y,-z
3 -x,1/2+y,1/2-z
4 1/2-x,-y,1/2+z
_cell_length_a                   8.231(2)
_cell_length_b                   17.792(4)
_cell_length_c                   19.180(3)
_cell_angle_alpha                90
_cell_angle_beta                 90
_cell_angle_gamma                90
_cell_volume                     2808.83
loop_
_atom_site_label
_atom_site_type_symbol
_atom_site_fract_x
_atom_site_fract_y
_atom_site_fract_z
S1 S 0.3982(3) 0.85552(13) 0.36583(9)
S2 S 0.0919(3) 1.1293(2) 0.38354(10)
N1 N 0.2429(8) 0.9973(4) 0.3086(3)
C1 C 0.1265(10) 0.9317(5) 0.2058(4)
C2 C 0.1058(12) 0.8654(6) 0.1677(4)
C3 C 0.1656(13) 0.7980(5) 0.1908(4)
C4 C 0.2519(12) 0.7946(5) 0.2515(4)
C5 C 0.2752(10) 0.8626(6) 0.2890(4)
C6 C 0.2198(9) 0.9286(4) 0.2683(4)
C7 C 0.3121(9) 0.9277(5) 0.4144(3)
C8 C 0.3131(11) 0.9268(7) 0.4855(4)
C9 C 0.2629(13) 0.9819(8) 0.5284(5)
C10 C 0.1960(12) 1.0508(8) 0.4959(5)
C11 C 0.1844(11) 1.0557(6) 0.4220(4)
C12 C 0.2512(9) 0.9916(5) 0.3840(3)
C13 C 0.2073(11) 1.1314(4) 0.3062(4)
C14 C 0.2315(12) 1.1989(6) 0.2756(5)
C15 C 0.3213(13) 1.2047(5) 0.2134(5)
C16 C 0.3800(12) 1.1385(6) 0.1832(4)
C17 C 0.3573(9) 1.0712(4) 0.2144(4)
C18 C 0.2655(9) 1.0649(5) 0.2766(4)
H1 H 0.0813(9) 0.9846(5) 0.1896(4)
H2 H 0.0476(12) 0.8658(6) 0.1256(4)
H3 H 0.1400(12) 0.7528(5) 0.1641(4)
H4 H 0.2932(12) 0.7465(5) 0.2675(4)
H5 H 0.3553(11) 0.8788(7) 0.5057(4)
H6 H 0.2667(12) 0.9820(8) 0.5783(5)
H7 H 0.1573(11) 1.0933(8) 0.5213(5)
H8 H 0.1956(12) 1.2454(6) 0.2972(5)
H9 H 0.3347(13) 1.2544(5) 0.1953(4)
H10 H 0.4401(12) 1.1437(6) 0.1407(4)
H11 H 0.4022(9) 1.0256(4) 0.1916(4)
S1 S 0.8982(3) 0.64448(13) 0.63417(9)
S2 S 0.5919(3) 0.3707(2) 0.61646(10)
N1 N 0.7429(8) 0.5027(4) 0.6914(3)
C1 C 0.6265(10) 0.5683(5) 0.7942(4)
C2 C 0.6058(12) 0.6346(6) 0.8323(4)
C3 C 0.6656(13) 0.7020(5) 0.8092(4)
C4 C 0.7519(12) 0.7054(5) 0.7485(4)
C5 C 0.7752(10) 0.6374(6) 0.7110(4)
C6 C 0.7198(9) 0.5714(4) 0.7317(4)
C7 C 0.8121(9) 0.5723(5) 0.5856(3)
C8 C 0.8131(11) 0.5732(7) 0.5145(4)
C9 C 0.7629(13) 0.5181(8) 0.4716(5)
C10 C 0.6960(12) 0.4492(8) 0.5041(5)
C11 C 0.6844(11) 0.4443(6) 0.5780(4)
C12 C 0.7512(9) 0.5084(5) 0.6160(3)
C13 C 0.7073(11) 0.3686(4) 0.6938(4)
C14 C 0.7315(12) 0.3011(6) 0.7244(5)
C15 C 0.8213(13) 0.2953(5) 0.7866(5)
C16 C 0.8800(12) 0.3615(6) 0.8168(4)
C17 C 0.8573(9) 0.4288(4) 0.7856(4)
C18 C 0.7655(9) 0.4351(5) 0.7234(4)
H1 H 0.5813(9) 0.5154(5) 0.8104(4)
H2 H 0.5476(12) 0.6342(6) 0.8744(4)
H3 H 0.6400(12) 0.7472(5) 0.8359(4)
H4 H 0.7932(12) 0.7535(5) 0.7325(4)
H5 H 0.8553(11) 0.6212(7) 0.4943(4)
H6 H 0.7667(12) 0.5180(8) 0.4217(5)
H7 H 0.6573(11) 0.4067(8) 0.4787(5)
H8 H 0.6956(12) 0.2546(6) 0.7028(5)
H9 H 0.8347(13) 0.2456(5) 0.8047(4)
H10 H 0.9401(12) 0.3563(6) 0.8593(4)
H11 H 0.9022(9) 0.4744(4) 0.8084(4)
S1 S 0.6018(3) 0.35552(13) 0.13417(9)
S2 S 0.9081(3) 0.6293(2) 0.11646(10)
N1 N 0.7571(8) 0.4973(4) 0.1914(3)
C1 C 0.8735(10) 0.4317(5) 0.2942(4)
C2 C 0.8942(12) 0.3654(6) 0.3323(4)
C3 C 0.8344(13) 0.2980(5) 0.3092(4)
C4 C 0.7481(12) 0.2946(5) 0.2485(4)
C5 C 0.7248(10) 0.3626(6) 0.2110(4)
C6 C 0.7802(9) 0.4286(4) 0.2317(4)
C7 C 0.6879(9) 0.4277(5) 0.0856(3)
C8 C 0.6869(11) 0.4268(7) 0.0145(4)
C9 C 0.7371(13) 0.4819(8) -0.0284(5)
C10 C 0.8040(12) 0.5508(8) 0.0041(5)
C11 C 0.8156(11) 0.5557(6) 0.0780(4)
C12 C 0.7488(9) 0.4916(5) 0.1160(3)
C13 C 0.7927(11) 0.6314(4) 0.1938(4)
C14 C 0.7685(12) 0.6989(6) 0.2244(5)
C15 C 0.6787(13) 0.7047(5) 0.2866(5)
C16 C 0.6200(12) 0.6385(6) 0.3168(4)
C17 C 0.6427(9) 0.5712(4) 0.2856(4)
C18 C 0.7345(9) 0.5649(5) 0.2234(4)
H1 H 0.9187(9) 0.4846(5) 0.3104(4)
H2 H 0.9524(12) 0.3658(6) 0.3744(4)
H3 H 0.8600(12) 0.2528(5) 0.3359(4)
H4 H 0.7068(12) 0.2465(5) 0.2325(4)
H5 H 0.6447(11) 0.3788(7) -0.0057(4)
H6 H 0.7333(12) 0.4820(8) -0.0783(5)
H7 H 0.8427(11) 0.5933(8) -0.0213(5)
H8 H 0.8044(12) 0.7454(6) 0.2028(5)
H9 H 0.6653(13) 0.7544(5) 0.3047(4)
H10 H 0.5599(12) 0.6437(6) 0.3593(4)
H11 H 0.5978(9) 0.5256(4) 0.3084(4)
S1 S 0.1018(3) 0.14448(13) 0.86583(9)
S2 S 0.4081(3) -0.1293(2) 0.88354(10)
N1 N 0.2571(8) 0.0027(4) 0.8086(3)
C1 C 0.3735(10) 0.0683(5) 0.7058(4)
C2 C 0.3942(12) 0.1346(6) 0.6677(4)
C3 C 0.3344(13) 0.2020(5) 0.6908(4)
C4 C 0.2481(12) 0.2054(5) 0.7515(4)
C5 C 0.2248(10) 0.1374(6) 0.7890(4)
C6 C 0.2802(9) 0.0714(4) 0.7683(4)
C7 C 0.1879(9) 0.0723(5) 0.9144(3)
C8 C 0.1869(11) 0.0732(7) 0.9855(4)
C9 C 0.2371(13) 0.0181(8) 1.0284(5)
C10 C 0.3040(12) -0.0508(8) 0.9959(5)
C11 C 0.3156(11) -0.0557(6) 0.9220(4)
C12 C 0.2488(9) 0.0084(5) 0.8840(3)
C13 C 0.2927(11) -0.1314(4) 0.8062(4)
C14 C 0.2685(12) -0.1989(6) 0.7756(5)
C15 C 0.1787(13) -0.2047(5) 0.7134(5)
C16 C 0.1200(12) -0.1385(6) 0.6832(4)
C17 C 0.1427(9) -0.0712(4) 0.7144(4)
C18 C 0.2345(9) -0.0649(5) 0.7766(4)
H1 H 0.4187(9) 0.0154(5) 0.6896(4)
H2 H 0.4524(12) 0.1342(6) 0.6256(4)
H3 H 0.3600(12) 0.2472(5) 0.6641(4)
H4 H 0.2068(12) 0.2535(5) 0.7675(4)
H5 H 0.1447(11) 0.1212(7) 1.0057(4)
H6 H 0.2333(12) 0.0180(8) 1.0783(5)
H7 H 0.3427(11) -0.0933(8) 1.0213(5)
H8 H 0.3044(12) -0.2454(6) 0.7972(5)
H9 H 0.1653(13) -0.2544(5) 0.6953(4)
H10 H 0.0599(12) -0.1437(6) 0.6407(4)
H11 H 0.0978(9) -0.0256(4) 0.6916(4)
S3 S 0.6008(3) 0.8579(1) 0.62331(10)
S4 S 0.9063(3) 1.1292(1) 0.62752(12)
N2 N 0.7526(9) 0.9984(4) 0.5584(3)
C19 C 0.8584(10) 0.9283(5) 0.4591(4)
C20 C 0.8820(10) 0.8618(4) 0.4206(4)
C21 C 0.8206(13) 0.7971(7) 0.4451(5)
C22 C 0.7409(12) 0.7945(4) 0.5094(5)
C23 C 0.7119(9) 0.8621(4) 0.5465(3)
C24 C 0.7746(10) 0.9288(4) 0.5193(3)
C25 C 0.6951(10) 0.9360(6) 0.6691(4)
C26 C 0.696(1) 0.9312(7) 0.7414(4)
C27 C 0.750(2) 0.9917(9) 0.7763(4)
C28 C 0.8046(12) 1.0512(7) 0.7440(4)
C29 C 0.8148(10) 1.0512(5) 0.6721(4)
C30 C 0.7514(9) 0.9927(5) 0.6303(4)
C31 C 0.7840(9) 1.1355(5) 0.5516(4)
C32 C 0.7451(12) 1.1988(5) 0.5188(6)
C33 C 0.659(1) 1.1998(6) 0.4588(7)
C34 C 0.5977(11) 1.1342(6) 0.4302(5)
C35 C 0.6286(11) 1.0670(5) 0.4634(4)
C36 C 0.7196(9) 1.0646(5) 0.5235(4)
H12 H 0.9029(10) 0.9730(5) 0.4425(4)
H13 H 0.9418(10) 0.8645(4) 0.3767(4)
H14 H 0.8397(12) 0.7507(7) 0.4203(5)
H15 H 0.6927(12) 0.7493(4) 0.5283(5)
H16 H 0.656(1) 0.8840(7) 0.7674(4)
H17 H 0.736(2) 0.9836(9) 0.8251(4)
H18 H 0.8436(12) 1.0911(7) 0.7745(4)
H19 H 0.7887(11) 1.2437(5) 0.5402(6)
H20 H 0.637(1) 1.2453(6) 0.4336(7)
H21 H 0.5313(11) 1.1309(6) 0.3877(5)
H22 H 0.5875(11) 1.0228(5) 0.4457(4)
S3 S 0.1008(3) 0.6421(1) 0.37669(10)
S4 S 0.4063(3) 0.3708(1) 0.37248(12)
N2 N 0.2526(9) 0.5016(4) 0.4416(3)
C19 C 0.3584(10) 0.5717(5) 0.5409(4)
C20 C 0.3820(10) 0.6382(4) 0.5794(4)
C21 C 0.3206(13) 0.7029(7) 0.5549(5)
C22 C 0.2409(12) 0.7055(4) 0.4906(5)
C23 C 0.2119(9) 0.6379(4) 0.4535(3)
C24 C 0.2746(10) 0.5712(4) 0.4807(3)
C25 C 0.1951(10) 0.5640(6) 0.3309(4)
C26 C 0.196(1) 0.5688(7) 0.2586(4)
C27 C 0.250(2) 0.5083(9) 0.2237(4)
C28 C 0.3046(12) 0.4488(7) 0.2560(4)
C29 C 0.3148(10) 0.4488(5) 0.3279(4)
C30 C 0.2514(9) 0.5073(5) 0.3697(4)
C31 C 0.2840(9) 0.3645(5) 0.4484(4)
C32 C 0.2451(12) 0.3012(5) 0.4812(6)
C33 C 0.159(1) 0.3002(6) 0.5412(7)
C34 C 0.0977(11) 0.3658(6) 0.5698(5)
C35 C 0.1286(11) 0.4330(5) 0.5366(4)
C36 C 0.2196(9) 0.4354(5) 0.4765(4)
H12 H 0.4029(10) 0.5270(5) 0.5575(4)
H13 H 0.4418(10) 0.6355(4) 0.6233(4)
H14 H 0.3397(12) 0.7493(7) 0.5797(5)
H15 H 0.1927(12) 0.7507(4) 0.4717(5)
H16 H 0.156(1) 0.6160(7) 0.2326(4)
H17 H 0.236(2) 0.5164(9) 0.1749(4)
H18 H 0.3436(12) 0.4089(7) 0.2255(4)
H19 H 0.2887(11) 0.2563(5) 0.4598(6)
H20 H 0.137(1) 0.2547(6) 0.5664(7)
H21 H 0.0313(11) 0.3691(6) 0.6123(5)
H22 H 0.0875(11) 0.4772(5) 0.5543(4)
S3 S 0.3992(3) 0.3579(1) 0.87669(10)
S4 S 0.0937(3) 0.6292(1) 0.87248(12)
N2 N 0.2474(9) 0.4984(4) 0.9416(3)
C19 C 0.1416(10) 0.4283(5) 1.0409(4)
C20 C 0.1180(10) 0.3618(4) 1.0794(4)
C21 C 0.1794(13) 0.2971(7) 1.0549(5)
C22 C 0.2591(12) 0.2945(4) 0.9906(5)
C23 C 0.2881(9) 0.3621(4) 0.9535(3)
C24 C 0.2254(10) 0.4288(4) 0.9807(3)
C25 C 0.3049(10) 0.4360(6) 0.8309(4)
C26 C 0.304(1) 0.4312(7) 0.7586(4)
C27 C 0.250(2) 0.4917(9) 0.7237(4)
C28 C 0.1954(12) 0.5512(7) 0.7560(4)
C29 C 0.1852(10) 0.5512(5) 0.8279(4)
C30 C 0.2486(9) 0.4927(5) 0.8697(4)
C31 C 0.2160(9) 0.6355(5) 0.9484(4)
C32 C 0.2549(12) 0.6988(5) 0.9812(6)
C33 C 0.341(1) 0.6998(6) 1.0412(7)
C34 C 0.4023(11) 0.6342(6) 1.0698(5)
C35 C 0.3714(11) 0.5670(5) 1.0366(4)
C36 C 0.2804(9) 0.5646(5) 0.9765(4)
H12 H 0.0971(10) 0.4730(5) 1.0575(4)
H13 H 0.0582(10) 0.3645(4) 1.1233(4)
H14 H 0.1603(12) 0.2507(7) 1.0797(5)
H15 H 0.3073(12) 0.2493(4) 0.9717(5)
H16 H 0.344(1) 0.3840(7) 0.7326(4)
H17 H 0.264(2) 0.4836(9) 0.6749(4)
H18 H 0.1564(12) 0.5911(7) 0.7255(4)
H19 H 0.2113(11) 0.7437(5) 0.9598(6)
H20 H 0.363(1) 0.7453(6) 1.0664(7)
H21 H 0.4687(11) 0.6309(6) 1.1123(5)
H22 H 0.4125(11) 0.5228(5) 1.0543(4)
S3 S 0.8992(3) 0.1421(1) 0.12331(10)
S4 S 0.5937(3) -0.1292(1) 0.12752(12)
N2 N 0.7474(9) 0.0016(4) 0.0584(3)
C19 C 0.6416(10) 0.0717(5) -0.0409(4)
C20 C 0.6180(10) 0.1382(4) -0.0794(4)
C21 C 0.6794(13) 0.2029(7) -0.0549(5)
C22 C 0.7591(12) 0.2055(4) 0.0094(5)
C23 C 0.7881(9) 0.1379(4) 0.0465(3)
C24 C 0.7254(10) 0.0712(4) 0.0193(3)
C25 C 0.8049(10) 0.0640(6) 0.1691(4)
C26 C 0.804(1) 0.0688(7) 0.2414(4)
C27 C 0.750(2) 0.0083(9) 0.2763(4)
C28 C 0.6954(12) -0.0512(7) 0.2440(4)
C29 C 0.6852(10) -0.0512(5) 0.1721(4)
C30 C 0.7486(9) 0.0073(5) 0.1303(4)
C31 C 0.7160(9) -0.1355(5) 0.0516(4)
C32 C 0.7549(12) -0.1988(5) 0.0188(6)
C33 C 0.841(1) -0.1998(6) -0.0412(7)
C34 C 0.9023(11) -0.1342(6) -0.0698(5)
C35 C 0.8714(11) -0.0670(5) -0.0366(4)
C36 C 0.7804(9) -0.0646(5) 0.0235(4)
H12 H 0.5971(10) 0.0270(5) -0.0575(4)
H13 H 0.5582(10) 0.1355(4) -0.1233(4)
H14 H 0.6603(12) 0.2493(7) -0.0797(5)
H15 H 0.8073(12) 0.2507(4) 0.0283(5)
H16 H 0.844(1) 0.1160(7) 0.2674(4)
H17 H 0.764(2) 0.0164(9) 0.3251(4)
H18 H 0.6564(12) -0.0911(7) 0.2745(4)
H19 H 0.7113(11) -0.2437(5) 0.0402(6)
H20 H 0.863(1) -0.2453(6) -0.0664(7)
H21 H 0.9687(11) -0.1309(6) -0.1123(5)
H22 H 0.9125(11) -0.0228(5) -0.0543(4)

#END
