
#######################################################################
#
#                 Cambridge Crystallographic Data Centre
#                                CCDC 
#
#######################################################################
#
# If this CIF has been generated from an entry in the Cambridge 
# Structural Database, then it will include bibliographic, chemical, 
# crystal, experimental, refinement or atomic coordinate data resulting 
# from the CCDC's data processing and validation procedures.
#
#######################################################################

data_ABIVIR
_symmetry_cell_setting           monoclinic
_symmetry_space_group_name_H-M   'P 21/c'
_symmetry_Int_Tables_number      14
_space_group_name_Hall           '-P 2ybc'
loop_
_symmetry_equiv_pos_site_id
_symmetry_equiv_pos_as_xyz
1 x,y,z
2 -x,1/2+y,1/2-z
3 -x,-y,-z
4 x,1/2-y,1/2+z
_cell_length_a                   11.2701(7)
_cell_length_b                   13.4933(8)
_cell_length_c                   9.1035(5)
_cell_angle_alpha                90
_cell_angle_beta                 95.2960(10)
_cell_angle_gamma                90
_cell_volume                     1378.47
loop_
_atom_site_label
_atom_site_type_symbol
_atom_site_fract_x
_atom_site_fract_y
_atom_site_fract_z
C1 C -0.0247(1) 0.9585(1) 0.2898(2)
C2 C 0.0817(1) 0.8260(1) 0.1887(1)
C3 C 0.1004(1) 0.7242(1) 0.1824(1)
C4 C 0.1875(1) 0.6869(1) 0.1012(1)
C5 C 0.2583(1) 0.7498(1) 0.0249(1)
C6 C 0.2392(1) 0.8509(1) 0.0325(1)
C7 C 0.1511(1) 0.8900(1) 0.1136(1)
C8 C 0.3543(1) 0.7074(1) -0.0588(1)
C9 C 0.5403(1) 0.6311(1) 0.0013(1)
C10 C 0.6647(1) 0.6209(1) 0.2457(1)
C11 C 0.7758(1) 0.6588(1) 0.2939(1)
C12 C 0.8046(1) 0.6719(1) 0.4440(1)
C13 C 0.7230(1) 0.6475(1) 0.5431(1)
C14 C 0.6112(1) 0.6116(1) 0.4930(1)
C15 C 0.5812(1) 0.5974(1) 0.3429(1)
N1 N 0.5520(1) 0.6006(1) -0.1339(1)
N2 N 0.6598(1) 0.5536(1) -0.1247(1)
N3 N 0.7117(1) 0.5556(1) 0.0076(1)
N4 N 0.6365(1) 0.6050(1) 0.0913(1)
O1 O -0.0074(1) 0.8547(1) 0.2717(1)
O2 O 0.4521(1) 0.6808(1) 0.0523(1)
H1 H 0.0493 0.9885 0.3341
H2 H -0.0884 0.9695 0.3543
H3 H -0.0470 0.9889 0.1933
H4 H 0.0530 0.6804 0.2340
H5 H 0.1995 0.6173 0.0972
H6 H 0.2871 0.8947 -0.0186
H7 H 0.1387 0.9595 0.1173
H8 H 0.3250 0.6480 -0.1149
H9 H 0.3814 0.7568 -0.1288
H10 H 0.8312 0.6755 0.2253
H11 H 0.8805 0.6976 0.4790
H12 H 0.7437 0.6555 0.6459
H13 H 0.5550 0.5966 0.5614
H14 H 0.5051 0.5721 0.3077
C1 C 1.0247(1) 0.4585(1) 0.2102(2)
C2 C 0.9183(1) 0.3260(1) 0.3113(1)
C3 C 0.8996(1) 0.2242(1) 0.3176(1)
C4 C 0.8125(1) 0.1869(1) 0.3988(1)
C5 C 0.7417(1) 0.2498(1) 0.4751(1)
C6 C 0.7608(1) 0.3509(1) 0.4675(1)
C7 C 0.8489(1) 0.3900(1) 0.3864(1)
C8 C 0.6457(1) 0.2074(1) 0.5588(1)
C9 C 0.4597(1) 0.1311(1) 0.4987(1)
C10 C 0.3353(1) 0.1209(1) 0.2543(1)
C11 C 0.2242(1) 0.1588(1) 0.2061(1)
C12 C 0.1954(1) 0.1719(1) 0.0560(1)
C13 C 0.2770(1) 0.1475(1) -0.0431(1)
C14 C 0.3888(1) 0.1116(1) 0.0070(1)
C15 C 0.4188(1) 0.0974(1) 0.1571(1)
N1 N 0.4480(1) 0.1006(1) 0.6339(1)
N2 N 0.3402(1) 0.0536(1) 0.6247(1)
N3 N 0.2883(1) 0.0556(1) 0.4924(1)
N4 N 0.3635(1) 0.1050(1) 0.4087(1)
O1 O 1.0074(1) 0.3547(1) 0.2283(1)
O2 O 0.5479(1) 0.1808(1) 0.4477(1)
H1 H 0.9507 0.4885 0.1659
H2 H 1.0884 0.4695 0.1457
H3 H 1.0470 0.4889 0.3067
H4 H 0.9470 0.1804 0.2660
H5 H 0.8005 0.1173 0.4028
H6 H 0.7129 0.3947 0.5186
H7 H 0.8613 0.4595 0.3827
H8 H 0.6750 0.1480 0.6149
H9 H 0.6186 0.2568 0.6288
H10 H 0.1688 0.1755 0.2747
H11 H 0.1195 0.1976 0.0210
H12 H 0.2563 0.1555 -0.1459
H13 H 0.4450 0.0966 -0.0614
H14 H 0.4949 0.0721 0.1923
C1 C 1.0247(1) 0.0415(1) 0.7102(2)
C2 C 0.9183(1) 0.1740(1) 0.8113(1)
C3 C 0.8996(1) 0.2758(1) 0.8176(1)
C4 C 0.8125(1) 0.3131(1) 0.8988(1)
C5 C 0.7417(1) 0.2502(1) 0.9751(1)
C6 C 0.7608(1) 0.1491(1) 0.9675(1)
C7 C 0.8489(1) 0.1100(1) 0.8864(1)
C8 C 0.6457(1) 0.2926(1) 1.0588(1)
C9 C 0.4597(1) 0.3689(1) 0.9987(1)
C10 C 0.3353(1) 0.3791(1) 0.7543(1)
C11 C 0.2242(1) 0.3412(1) 0.7061(1)
C12 C 0.1954(1) 0.3281(1) 0.5560(1)
C13 C 0.2770(1) 0.3525(1) 0.4569(1)
C14 C 0.3888(1) 0.3884(1) 0.5070(1)
C15 C 0.4188(1) 0.4026(1) 0.6571(1)
N1 N 0.4480(1) 0.3994(1) 1.1339(1)
N2 N 0.3402(1) 0.4464(1) 1.1247(1)
N3 N 0.2883(1) 0.4444(1) 0.9924(1)
N4 N 0.3635(1) 0.3950(1) 0.9087(1)
O1 O 1.0074(1) 0.1453(1) 0.7283(1)
O2 O 0.5479(1) 0.3192(1) 0.9477(1)
H1 H 0.9507 0.0115 0.6659
H2 H 1.0884 0.0305 0.6457
H3 H 1.0470 0.0111 0.8067
H4 H 0.9470 0.3196 0.7660
H5 H 0.8005 0.3827 0.9028
H6 H 0.7129 0.1053 1.0186
H7 H 0.8613 0.0405 0.8827
H8 H 0.6750 0.3520 1.1149
H9 H 0.6186 0.2432 1.1288
H10 H 0.1688 0.3245 0.7747
H11 H 0.1195 0.3024 0.5210
H12 H 0.2563 0.3445 0.3541
H13 H 0.4450 0.4034 0.4386
H14 H 0.4949 0.4279 0.6923
C1 C -0.0247(1) 0.5415(1) 0.7898(2)
C2 C 0.0817(1) 0.6740(1) 0.6887(1)
C3 C 0.1004(1) 0.7758(1) 0.6824(1)
C4 C 0.1875(1) 0.8131(1) 0.6012(1)
C5 C 0.2583(1) 0.7502(1) 0.5249(1)
C6 C 0.2392(1) 0.6491(1) 0.5325(1)
C7 C 0.1511(1) 0.6100(1) 0.6136(1)
C8 C 0.3543(1) 0.7926(1) 0.4412(1)
C9 C 0.5403(1) 0.8689(1) 0.5013(1)
C10 C 0.6647(1) 0.8791(1) 0.7457(1)
C11 C 0.7758(1) 0.8412(1) 0.7939(1)
C12 C 0.8046(1) 0.8281(1) 0.9440(1)
C13 C 0.7230(1) 0.8525(1) 1.0431(1)
C14 C 0.6112(1) 0.8884(1) 0.9930(1)
C15 C 0.5812(1) 0.9026(1) 0.8429(1)
N1 N 0.5520(1) 0.8994(1) 0.3661(1)
N2 N 0.6598(1) 0.9464(1) 0.3753(1)
N3 N 0.7117(1) 0.9444(1) 0.5076(1)
N4 N 0.6365(1) 0.8950(1) 0.5913(1)
O1 O -0.0074(1) 0.6453(1) 0.7717(1)
O2 O 0.4521(1) 0.8192(1) 0.5523(1)
H1 H 0.0493 0.5115 0.8341
H2 H -0.0884 0.5305 0.8543
H3 H -0.0470 0.5111 0.6933
H4 H 0.0530 0.8196 0.7340
H5 H 0.1995 0.8827 0.5972
H6 H 0.2871 0.6053 0.4814
H7 H 0.1387 0.5405 0.6173
H8 H 0.3250 0.8520 0.3851
H9 H 0.3814 0.7432 0.3712
H10 H 0.8312 0.8245 0.7253
H11 H 0.8805 0.8024 0.9790
H12 H 0.7437 0.8445 1.1459
H13 H 0.5550 0.9034 1.0614
H14 H 0.5051 0.9279 0.8077

#END
