./ABIWAJ_from_xyz.cif_generated_by_CrystalShift
_symmetry_cell_setting triclinic
_symmetry_space_group_name_H-M 'P 1'
loop_
_symmetry_equiv_pos_site_id
_symmetry_equiv_pos_as_xyz
1 x,y,z
_cell_length_a 11.495000
_cell_length_b 11.909000
_cell_length_c 16.353000
_cell_angle_alpha 90.000000
_cell_angle_beta 90.500000
_cell_angle_gamma 90.000000
_cell_volume 2238.541561
loop_
_atom_site_label
_atom_site_type_symbol
_atom_site_fract_x
_atom_site_fract_y
_atom_site_fract_z
Se1 Se 0.677850 0.148600 0.541750
F2 F 0.182460 0.561840 0.316940
F3 F 1.032420 -0.300130 0.494770
C4 C 0.590940 0.237350 0.464600
C5 C 0.640950 0.225480 0.378590
C6 C 0.711390 0.117610 0.379840
C7 C 0.740960 0.070250 0.450610
C8 C 0.496900 0.292230 0.489620
C9 C 0.417220 0.364630 0.441970
C10 C 0.299700 0.337500 0.439690
C11 C 0.220800 0.402300 0.397600
C12 C 0.260000 0.496800 0.358960
C13 C 0.373800 0.527800 0.360590
C14 C 0.452240 0.461200 0.402030
C15 C 0.729040 0.318320 0.357830
C16 C 0.757500 0.403000 0.412570
C17 C 0.843300 0.481400 0.393970
C18 C 0.899800 0.476300 0.321000
C19 C 0.872300 0.393300 0.265700
C20 C 0.787700 0.314100 0.283600
C21 C 0.540480 0.215040 0.316370
C22 C 0.516330 0.295210 0.257670
C23 C 0.420900 0.283300 0.205110
C24 C 0.350400 0.191200 0.210290
C25 C 0.373800 0.109900 0.268500
C26 C 0.467800 0.121700 0.321350
C27 C 0.816390 -0.028100 0.462940
C28 C 0.845200 -0.097300 0.398190
C29 C 0.918200 -0.188600 0.408700
C30 C 0.962300 -0.209100 0.485300
C31 C 0.937500 -0.144300 0.550600
C32 C 0.862800 -0.053900 0.540140
H33 H 0.738000 0.088000 0.330400
H34 H 0.476000 0.285000 0.547200
H35 H 0.276000 0.267000 0.468900
H36 H 0.140000 0.385000 0.394000
H37 H 0.397000 0.590000 0.335400
H38 H 0.531000 0.485000 0.403900
H39 H 0.719000 0.412000 0.462300
H40 H 0.863000 0.537000 0.437200
H41 H 0.960000 0.533000 0.312000
H42 H 0.903000 0.387000 0.217000
H43 H 0.774000 0.253000 0.247300
H44 H 0.569000 0.359000 0.253200
H45 H 0.405000 0.343000 0.166800
H46 H 0.281000 0.183000 0.171000
H47 H 0.327000 0.047000 0.273900
H48 H 0.483000 0.072000 0.361500
H49 H 0.813000 -0.083000 0.342000
H50 H 0.938000 -0.238000 0.361000
H51 H 0.969000 -0.158000 0.600000
H52 H 0.841000 -0.011000 0.582000
Se53 Se 0.677850 0.351400 1.041750
F54 F 0.182460 -0.061840 0.816940
F55 F 1.032420 0.800130 0.994770
C56 C 0.590940 0.262650 0.964600
C57 C 0.640950 0.274520 0.878590
C58 C 0.711390 0.382390 0.879840
C59 C 0.740960 0.429750 0.950610
C60 C 0.496900 0.207770 0.989620
C61 C 0.417220 0.135370 0.941970
C62 C 0.299700 0.162500 0.939690
C63 C 0.220800 0.097700 0.897600
C64 C 0.260000 0.003200 0.858960
C65 C 0.373800 -0.027800 0.860590
C66 C 0.452240 0.038800 0.902030
C67 C 0.729040 0.181680 0.857830
C68 C 0.757500 0.097000 0.912570
C69 C 0.843300 0.018600 0.893970
C70 C 0.899800 0.023700 0.821000
C71 C 0.872300 0.106700 0.765700
C72 C 0.787700 0.185900 0.783600
C73 C 0.540480 0.284960 0.816370
C74 C 0.516330 0.204790 0.757670
C75 C 0.420900 0.216700 0.705110
C76 C 0.350400 0.308800 0.710290
C77 C 0.373800 0.390100 0.768500
C78 C 0.467800 0.378300 0.821350
C79 C 0.816390 0.528100 0.962940
C80 C 0.845200 0.597300 0.898190
C81 C 0.918200 0.688600 0.908700
C82 C 0.962300 0.709100 0.985300
C83 C 0.937500 0.644300 1.050600
C84 C 0.862800 0.553900 1.040140
H85 H 0.738000 0.412000 0.830400
H86 H 0.476000 0.215000 1.047200
H87 H 0.276000 0.233000 0.968900
H88 H 0.140000 0.115000 0.894000
H89 H 0.397000 -0.090000 0.835400
H90 H 0.531000 0.015000 0.903900
H91 H 0.719000 0.088000 0.962300
H92 H 0.863000 -0.037000 0.937200
H93 H 0.960000 -0.033000 0.812000
H94 H 0.903000 0.113000 0.717000
H95 H 0.774000 0.247000 0.747300
H96 H 0.569000 0.141000 0.753200
H97 H 0.405000 0.157000 0.666800
H98 H 0.281000 0.317000 0.671000
H99 H 0.327000 0.453000 0.773900
H100 H 0.483000 0.428000 0.861500
H101 H 0.813000 0.583000 0.842000
H102 H 0.938000 0.738000 0.861000
H103 H 0.969000 0.658000 1.100000
H104 H 0.841000 0.511000 1.082000
Se105 Se 0.322150 0.851400 0.458250
F106 F 0.817540 0.438160 0.683060
F107 F -0.032420 1.300130 0.505230
C108 C 0.409060 0.762650 0.535400
C109 C 0.359050 0.774520 0.621410
C110 C 0.288610 0.882390 0.620160
C111 C 0.259040 0.929750 0.549390
C112 C 0.503100 0.707770 0.510380
C113 C 0.582780 0.635370 0.558030
C114 C 0.700300 0.662500 0.560310
C115 C 0.779200 0.597700 0.602400
C116 C 0.740000 0.503200 0.641040
C117 C 0.626200 0.472200 0.639410
C118 C 0.547760 0.538800 0.597970
C119 C 0.270960 0.681680 0.642170
C120 C 0.242500 0.597000 0.587430
C121 C 0.156700 0.518600 0.606030
C122 C 0.100200 0.523700 0.679000
C123 C 0.127700 0.606700 0.734300
C124 C 0.212300 0.685900 0.716400
C125 C 0.459520 0.784960 0.683630
C126 C 0.483670 0.704790 0.742330
C127 C 0.579100 0.716700 0.794890
C128 C 0.649600 0.808800 0.789710
C129 C 0.626200 0.890100 0.731500
C130 C 0.532200 0.878300 0.678650
C131 C 0.183610 1.028100 0.537060
C132 C 0.154800 1.097300 0.601810
C133 C 0.081800 1.188600 0.591300
C134 C 0.037700 1.209100 0.514700
C135 C 0.062500 1.144300 0.449400
C136 C 0.137200 1.053900 0.459860
H137 H 0.262000 0.912000 0.669600
H138 H 0.524000 0.715000 0.452800
H139 H 0.724000 0.733000 0.531100
H140 H 0.860000 0.615000 0.606000
H141 H 0.603000 0.410000 0.664600
H142 H 0.469000 0.515000 0.596100
H143 H 0.281000 0.588000 0.537700
H144 H 0.137000 0.463000 0.562800
H145 H 0.040000 0.467000 0.688000
H146 H 0.097000 0.613000 0.783000
H147 H 0.226000 0.747000 0.752700
H148 H 0.431000 0.641000 0.746800
H149 H 0.595000 0.657000 0.833200
H150 H 0.719000 0.817000 0.829000
H151 H 0.673000 0.953000 0.726100
H152 H 0.517000 0.928000 0.638500
H153 H 0.187000 1.083000 0.658000
H154 H 0.062000 1.238000 0.639000
H155 H 0.031000 1.158000 0.400000
H156 H 0.159000 1.011000 0.418000
Se157 Se 0.322150 0.648600 -0.041750
F158 F 0.817540 1.061840 0.183060
F159 F -0.032420 0.199870 0.005230
C160 C 0.409060 0.737350 0.035400
C161 C 0.359050 0.725480 0.121410
C162 C 0.288610 0.617610 0.120160
C163 C 0.259040 0.570250 0.049390
C164 C 0.503100 0.792230 0.010380
C165 C 0.582780 0.864630 0.058030
C166 C 0.700300 0.837500 0.060310
C167 C 0.779200 0.902300 0.102400
C168 C 0.740000 0.996800 0.141040
C169 C 0.626200 1.027800 0.139410
C170 C 0.547760 0.961200 0.097970
C171 C 0.270960 0.818320 0.142170
C172 C 0.242500 0.903000 0.087430
C173 C 0.156700 0.981400 0.106030
C174 C 0.100200 0.976300 0.179000
C175 C 0.127700 0.893300 0.234300
C176 C 0.212300 0.814100 0.216400
C177 C 0.459520 0.715040 0.183630
C178 C 0.483670 0.795210 0.242330
C179 C 0.579100 0.783300 0.294890
C180 C 0.649600 0.691200 0.289710
C181 C 0.626200 0.609900 0.231500
C182 C 0.532200 0.621700 0.178650
C183 C 0.183610 0.471900 0.037060
C184 C 0.154800 0.402700 0.101810
C185 C 0.081800 0.311400 0.091300
C186 C 0.037700 0.290900 0.014700
C187 C 0.062500 0.355700 -0.050600
C188 C 0.137200 0.446100 -0.040140
H189 H 0.262000 0.588000 0.169600
H190 H 0.524000 0.785000 -0.047200
H191 H 0.724000 0.767000 0.031100
H192 H 0.860000 0.885000 0.106000
H193 H 0.603000 1.090000 0.164600
H194 H 0.469000 0.985000 0.096100
H195 H 0.281000 0.912000 0.037700
H196 H 0.137000 1.037000 0.062800
H197 H 0.040000 1.033000 0.188000
H198 H 0.097000 0.887000 0.283000
H199 H 0.226000 0.753000 0.252700
H200 H 0.431000 0.859000 0.246800
H201 H 0.595000 0.843000 0.333200
H202 H 0.719000 0.683000 0.329000
H203 H 0.673000 0.547000 0.226100
H204 H 0.517000 0.572000 0.138500
H205 H 0.187000 0.417000 0.158000
H206 H 0.062000 0.262000 0.139000
H207 H 0.031000 0.342000 -0.100000
H208 H 0.159000 0.489000 -0.082000

#END
