
#######################################################################
#
#                 Cambridge Crystallographic Data Centre
#                                CCDC 
#
#######################################################################
#
# If this CIF has been generated from an entry in the Cambridge 
# Structural Database, then it will include bibliographic, chemical, 
# crystal, experimental, refinement or atomic coordinate data resulting 
# from the CCDC's data processing and validation procedures.
#
#######################################################################

data_ABIYUI
_symmetry_cell_setting           monoclinic
_symmetry_space_group_name_H-M   'P 21/c'
_symmetry_Int_Tables_number      14
_space_group_name_Hall           '-P 2ybc'
loop_
_symmetry_equiv_pos_site_id
_symmetry_equiv_pos_as_xyz
1 x,y,z
2 -x,1/2+y,1/2-z
3 -x,-y,-z
4 x,1/2-y,1/2+z
_cell_length_a                   10.8314(6)
_cell_length_b                   12.0828(5)
_cell_length_c                   15.5269(6)
_cell_angle_alpha                90
_cell_angle_beta                 90.132(5)
_cell_angle_gamma                90
_cell_volume                     2032.06
loop_
_atom_site_label
_atom_site_type_symbol
_atom_site_fract_x
_atom_site_fract_y
_atom_site_fract_z
I1 I 0.38091(4) 0.74683(3) 1.12028(2)
Br1 Br 0.62923(5) 0.63209(4) 1.00959(4)
C1 C 0.4749(4) 0.6581(3) 0.9532(3)
C2 C 0.2635(4) 0.7386(3) 0.9351(3)
C3 C 0.2826(4) 0.8561(3) 0.8958(3)
C4 C 0.3171(4) 0.5267(3) 0.7683(3)
C5 C 0.3804(4) 0.7078(3) 0.9890(3)
C6 C 0.2488(4) 0.6533(3) 0.8632(3)
C7 C 0.4762(4) 0.6165(4) 0.8627(3)
H1 H 0.5174 0.6698 0.8260
H2 H 0.5217 0.5475 0.8601
C8 C 0.1478(4) 0.7346(3) 0.9923(3)
N1 N 0.3527(3) 0.5992(3) 0.8325(2)
C9 C 0.1466(4) 0.6189(3) 0.8178(3)
C10 C 0.0759(5) 0.8253(4) 1.0095(3)
H3 H 0.0970 0.8933 0.9857
C11 C 0.2428(4) 0.8799(4) 0.8126(3)
H4 H 0.2088 0.8239 0.7790
C12 C 0.1895(4) 0.5369(3) 0.7577(3)
C13 C 0.0141(4) 0.6599(4) 0.8211(3)
H5 H -0.0246 0.6330 0.8725
H6 H -0.0301 0.6331 0.7716
H7 H 0.0135 0.7393 0.8211
C14 C 0.3888(5) 0.4545(3) 0.7195(3)
H8 H 0.4736 0.4485 0.7278
C15 C 0.1316(5) 0.4711(4) 0.6953(3)
H9 H 0.0466 0.4754 0.6871
C16 C 0.3416(5) 1.0479(4) 0.9099(4)
H10 H 0.3752 1.1043 0.9433
C17 C 0.3278(5) 0.3923(4) 0.6582(3)
H11 H 0.3728 0.3438 0.6240
C18 C 0.3313(5) 0.9418(3) 0.9435(3)
H12 H 0.3579 0.9283 0.9996
C19 C 0.3027(5) 1.0698(4) 0.8279(4)
H13 H 0.3097 1.1409 0.8055
C20 C -0.0271(5) 0.8179(4) 1.0614(3)
H14 H -0.0743 0.8806 1.0721
C21 C 0.0113(5) 0.6268(4) 1.0801(3)
H15 H -0.0106 0.5588 1.1036
C22 C 0.2532(5) 0.9862(4) 0.7789(4)
H16 H 0.2265 1.0007 0.7230
C23 C -0.0602(5) 0.7181(5) 1.0975(3)
H17 H -0.1293 0.7126 1.1327
C24 C 0.1140(5) 0.6335(4) 1.0291(3)
H18 H 0.1613 0.5707 1.0189
C25 C 0.2013(6) 0.4001(4) 0.6461(3)
H19 H 0.1631 0.3569 0.6043
I1 I 0.61909(4) 0.24683(3) 0.37972(2)
Br1 Br 0.37077(5) 0.13209(4) 0.49041(4)
C1 C 0.5251(4) 0.1581(3) 0.5468(3)
C2 C 0.7365(4) 0.2386(3) 0.5649(3)
C3 C 0.7174(4) 0.3561(3) 0.6042(3)
C4 C 0.6829(4) 0.0267(3) 0.7317(3)
C5 C 0.6196(4) 0.2078(3) 0.5110(3)
C6 C 0.7512(4) 0.1533(3) 0.6368(3)
C7 C 0.5238(4) 0.1165(4) 0.6373(3)
H1 H 0.4826 0.1698 0.6740
H2 H 0.4783 0.0475 0.6399
C8 C 0.8522(4) 0.2346(3) 0.5077(3)
N1 N 0.6473(3) 0.0992(3) 0.6675(2)
C9 C 0.8534(4) 0.1189(3) 0.6822(3)
C10 C 0.9241(5) 0.3253(4) 0.4905(3)
H3 H 0.9030 0.3933 0.5143
C11 C 0.7572(4) 0.3799(4) 0.6874(3)
H4 H 0.7912 0.3239 0.7210
C12 C 0.8105(4) 0.0369(3) 0.7423(3)
C13 C 0.9859(4) 0.1599(4) 0.6789(3)
H5 H 1.0246 0.1330 0.6275
H6 H 1.0301 0.1331 0.7284
H7 H 0.9865 0.2393 0.6789
C14 C 0.6112(5) -0.0455(3) 0.7805(3)
H8 H 0.5264 -0.0515 0.7722
C15 C 0.8684(5) -0.0289(4) 0.8047(3)
H9 H 0.9534 -0.0246 0.8129
C16 C 0.6584(5) 0.5479(4) 0.5901(4)
H10 H 0.6248 0.6043 0.5567
C17 C 0.6722(5) -0.1077(4) 0.8418(3)
H11 H 0.6272 -0.1562 0.8760
C18 C 0.6687(5) 0.4418(3) 0.5565(3)
H12 H 0.6421 0.4283 0.5004
C19 C 0.6973(5) 0.5698(4) 0.6721(4)
H13 H 0.6903 0.6409 0.6945
C20 C 1.0271(5) 0.3179(4) 0.4386(3)
H14 H 1.0743 0.3806 0.4279
C21 C 0.9887(5) 0.1268(4) 0.4199(3)
H15 H 1.0106 0.0588 0.3964
C22 C 0.7468(5) 0.4862(4) 0.7211(4)
H16 H 0.7735 0.5007 0.7770
C23 C 1.0602(5) 0.2181(5) 0.4025(3)
H17 H 1.1293 0.2126 0.3673
C24 C 0.8860(5) 0.1335(4) 0.4709(3)
H18 H 0.8387 0.0707 0.4811
C25 C 0.7987(6) -0.0999(4) 0.8539(3)
H19 H 0.8369 -0.1431 0.8957
I1 I 0.61909(4) 0.25317(3) -0.12028(2)
Br1 Br 0.37077(5) 0.36791(4) -0.00959(4)
C1 C 0.5251(4) 0.3419(3) 0.0468(3)
C2 C 0.7365(4) 0.2614(3) 0.0649(3)
C3 C 0.7174(4) 0.1439(3) 0.1042(3)
C4 C 0.6829(4) 0.4733(3) 0.2317(3)
C5 C 0.6196(4) 0.2922(3) 0.0110(3)
C6 C 0.7512(4) 0.3467(3) 0.1368(3)
C7 C 0.5238(4) 0.3835(4) 0.1373(3)
H1 H 0.4826 0.3302 0.1740
H2 H 0.4783 0.4525 0.1399
C8 C 0.8522(4) 0.2654(3) 0.0077(3)
N1 N 0.6473(3) 0.4008(3) 0.1675(2)
C9 C 0.8534(4) 0.3811(3) 0.1822(3)
C10 C 0.9241(5) 0.1747(4) -0.0095(3)
H3 H 0.9030 0.1067 0.0143
C11 C 0.7572(4) 0.1201(4) 0.1874(3)
H4 H 0.7912 0.1761 0.2210
C12 C 0.8105(4) 0.4631(3) 0.2423(3)
C13 C 0.9859(4) 0.3401(4) 0.1789(3)
H5 H 1.0246 0.3670 0.1275
H6 H 1.0301 0.3669 0.2284
H7 H 0.9865 0.2607 0.1789
C14 C 0.6112(5) 0.5455(3) 0.2805(3)
H8 H 0.5264 0.5515 0.2722
C15 C 0.8684(5) 0.5289(4) 0.3047(3)
H9 H 0.9534 0.5246 0.3129
C16 C 0.6584(5) -0.0479(4) 0.0901(4)
H10 H 0.6248 -0.1043 0.0567
C17 C 0.6722(5) 0.6077(4) 0.3418(3)
H11 H 0.6272 0.6562 0.3760
C18 C 0.6687(5) 0.0582(3) 0.0565(3)
H12 H 0.6421 0.0717 0.0004
C19 C 0.6973(5) -0.0698(4) 0.1721(4)
H13 H 0.6903 -0.1409 0.1945
C20 C 1.0271(5) 0.1821(4) -0.0614(3)
H14 H 1.0743 0.1194 -0.0721
C21 C 0.9887(5) 0.3732(4) -0.0801(3)
H15 H 1.0106 0.4412 -0.1036
C22 C 0.7468(5) 0.0138(4) 0.2211(4)
H16 H 0.7735 -0.0007 0.2770
C23 C 1.0602(5) 0.2819(5) -0.0975(3)
H17 H 1.1293 0.2874 -0.1327
C24 C 0.8860(5) 0.3665(4) -0.0291(3)
H18 H 0.8387 0.4293 -0.0189
C25 C 0.7987(6) 0.5999(4) 0.3539(3)
H19 H 0.8369 0.6431 0.3957
I1 I 0.38091(4) 0.75317(3) 0.62028(2)
Br1 Br 0.62923(5) 0.86791(4) 0.50959(4)
C1 C 0.4749(4) 0.8419(3) 0.4532(3)
C2 C 0.2635(4) 0.7614(3) 0.4351(3)
C3 C 0.2826(4) 0.6439(3) 0.3958(3)
C4 C 0.3171(4) 0.9733(3) 0.2683(3)
C5 C 0.3804(4) 0.7922(3) 0.4890(3)
C6 C 0.2488(4) 0.8467(3) 0.3632(3)
C7 C 0.4762(4) 0.8835(4) 0.3627(3)
H1 H 0.5174 0.8302 0.3260
H2 H 0.5217 0.9525 0.3601
C8 C 0.1478(4) 0.7654(3) 0.4923(3)
N1 N 0.3527(3) 0.9008(3) 0.3325(2)
C9 C 0.1466(4) 0.8811(3) 0.3178(3)
C10 C 0.0759(5) 0.6747(4) 0.5095(3)
H3 H 0.0970 0.6067 0.4857
C11 C 0.2428(4) 0.6201(4) 0.3126(3)
H4 H 0.2088 0.6761 0.2790
C12 C 0.1895(4) 0.9631(3) 0.2577(3)
C13 C 0.0141(4) 0.8401(4) 0.3211(3)
H5 H -0.0246 0.8670 0.3725
H6 H -0.0301 0.8669 0.2716
H7 H 0.0135 0.7607 0.3211
C14 C 0.3888(5) 1.0455(3) 0.2195(3)
H8 H 0.4736 1.0515 0.2278
C15 C 0.1316(5) 1.0289(4) 0.1953(3)
H9 H 0.0466 1.0246 0.1871
C16 C 0.3416(5) 0.4521(4) 0.4099(4)
H10 H 0.3752 0.3957 0.4433
C17 C 0.3278(5) 1.1077(4) 0.1582(3)
H11 H 0.3728 1.1562 0.1240
C18 C 0.3313(5) 0.5582(3) 0.4435(3)
H12 H 0.3579 0.5717 0.4996
C19 C 0.3027(5) 0.4302(4) 0.3279(4)
H13 H 0.3097 0.3591 0.3055
C20 C -0.0271(5) 0.6821(4) 0.5614(3)
H14 H -0.0743 0.6194 0.5721
C21 C 0.0113(5) 0.8732(4) 0.5801(3)
H15 H -0.0106 0.9412 0.6036
C22 C 0.2532(5) 0.5138(4) 0.2789(4)
H16 H 0.2265 0.4993 0.2230
C23 C -0.0602(5) 0.7819(5) 0.5975(3)
H17 H -0.1293 0.7874 0.6327
C24 C 0.1140(5) 0.8665(4) 0.5291(3)
H18 H 0.1613 0.9293 0.5189
C25 C 0.2013(6) 1.0999(4) 0.1461(3)
H19 H 0.1631 1.1431 0.1043

#END
