
#######################################################################
#
#                 Cambridge Crystallographic Data Centre
#                                CCDC 
#
#######################################################################
#
# If this CIF has been generated from an entry in the Cambridge 
# Structural Database, then it will include bibliographic, chemical, 
# crystal, experimental, refinement or atomic coordinate data resulting 
# from the CCDC's data processing and validation procedures.
#
#######################################################################

data_ABIZAP
_symmetry_cell_setting           triclinic
_symmetry_space_group_name_H-M   'P -1'
_symmetry_Int_Tables_number      2
_space_group_name_Hall           '-P 1'
loop_
_symmetry_equiv_pos_site_id
_symmetry_equiv_pos_as_xyz
1 x,y,z
2 -x,-y,-z
_cell_length_a                   7.331(2)
_cell_length_b                   10.1068(15)
_cell_length_c                   14.572(2)
_cell_angle_alpha                84.948(15)
_cell_angle_beta                 83.20(3)
_cell_angle_gamma                79.942(14)
_cell_volume                     1053.1
loop_
_atom_site_label
_atom_site_type_symbol
_atom_site_fract_x
_atom_site_fract_y
_atom_site_fract_z
C1 C 0.9048(3) 0.3984(2) 0.82982(14)
C2 C 0.9105(3) 0.2518(2) 0.87649(15)
C3 C 0.8329(3) 0.2703(2) 0.97255(14)
C4 C 0.7987(3) 0.1823(2) 1.04876(16)
H1 H 0.8289 0.0895 1.0449
C5 C 0.7179(3) 0.2370(2) 1.13094(15)
H2 H 0.6926 0.1797 1.1827
C6 C 0.6741(3) 0.3748(2) 1.13770(13)
H3 H 0.6197 0.4082 1.1938
C7 C 0.7100(3) 0.4649(2) 1.06234(12)
C8 C 0.7886(3) 0.40758(19) 0.98090(12)
C9 C 0.6776(3) 0.6108(2) 1.05705(13)
C10 C 0.7214(3) 0.6880(2) 0.97779(14)
C11 C 0.6805(3) 0.8281(2) 0.99099(17)
H4 H 0.7026 0.8945 0.9446
C12 C 0.6066(4) 0.8547(2) 1.07773(18)
H5 H 0.5715 0.9412 1.0979
C13 C 0.8028(3) 0.6300(2) 0.88764(14)
H6 H 0.7196 0.6624 0.8405
H7 H 0.9211 0.6597 0.8679
N1 N 0.8308(2) 0.48268(17) 0.89753(11)
O1 O 0.9570(3) 0.42981(19) 0.75037(11)
O2 O 0.9685(3) 0.15109(18) 0.83615(12)
S1 S 0.58433(8) 0.71104(6) 1.14686(4)
C1 C 0.0952(3) 0.6016(2) 0.17018(14)
C2 C 0.0895(3) 0.7482(2) 0.12351(15)
C3 C 0.1671(3) 0.7297(2) 0.02745(14)
C4 C 0.2013(3) 0.8177(2) -0.04876(16)
H1 H 0.1711 0.9105 -0.0449
C5 C 0.2821(3) 0.7630(2) -0.13094(15)
H2 H 0.3074 0.8203 -0.1827
C6 C 0.3259(3) 0.6252(2) -0.13770(13)
H3 H 0.3803 0.5918 -0.1938
C7 C 0.2900(3) 0.5351(2) -0.06234(12)
C8 C 0.2114(3) 0.59242(19) 0.01910(12)
C9 C 0.3224(3) 0.3892(2) -0.05705(13)
C10 C 0.2786(3) 0.3120(2) 0.02221(14)
C11 C 0.3195(3) 0.1719(2) 0.00901(17)
H4 H 0.2974 0.1055 0.0554
C12 C 0.3934(4) 0.1453(2) -0.07773(18)
H5 H 0.4285 0.0588 -0.0979
C13 C 0.1972(3) 0.3700(2) 0.11236(14)
H6 H 0.2804 0.3376 0.1595
H7 H 0.0789 0.3403 0.1321
N1 N 0.1692(2) 0.51732(17) 0.10247(11)
O1 O 0.0430(3) 0.57019(19) 0.24963(11)
O2 O 0.0315(3) 0.84891(18) 0.16385(12)
S1 S 0.41567(8) 0.28896(6) -0.14686(4)
C14 C 0.6539(3) -0.0611(2) 0.68172(14)
C15 C 0.6407(3) -0.1901(2) 0.63393(15)
C16 C 0.6933(3) -0.15898(19) 0.53477(13)
C17 C 0.7104(3) -0.2298(2) 0.45660(15)
H8 H 0.6841 -0.3170 0.4606
C18 C 0.7676(3) -0.1678(2) 0.37201(14)
H9 H 0.7815 -0.2146 0.3188
C19 C 0.8047(3) -0.0366(2) 0.36550(13)
H10 H 0.8426 0.0027 0.3079
C20 C 0.7862(2) 0.03699(19) 0.44365(12)
C21 C 0.7316(2) -0.02866(19) 0.52720(12)
C22 C 0.8152(3) 0.17438(19) 0.45006(13)
C23 C 0.7853(3) 0.2363(2) 0.53192(13)
C24 C 0.8173(3) 0.3715(2) 0.51918(16)
H11 H 0.8024 0.4288 0.5670
C25 C 0.8717(3) 0.4079(2) 0.43040(16)
H12 H 0.8990 0.4929 0.4103
C26 C 0.7273(3) 0.1682(2) 0.62405(13)
H13 H 0.8193 0.1698 0.6664
H14 H 0.6090 0.2165 0.6502
N2 N 0.7093(2) 0.02841(17) 0.61309(10)
O3 O 0.6198(3) -0.0426(2) 0.76347(10)
O4 O 0.5940(2) -0.29036(17) 0.67435(12)
S2 S 0.88516(8) 0.28052(5) 0.35873(3)
C14 C 0.3461(3) 1.0611(2) 0.31828(14)
C15 C 0.3593(3) 1.1901(2) 0.36607(15)
C16 C 0.3067(3) 1.15898(19) 0.46523(13)
C17 C 0.2896(3) 1.2298(2) 0.54340(15)
H8 H 0.3159 1.3170 0.5394
C18 C 0.2324(3) 1.1678(2) 0.62799(14)
H9 H 0.2185 1.2146 0.6812
C19 C 0.1953(3) 1.0366(2) 0.63450(13)
H10 H 0.1574 0.9973 0.6921
C20 C 0.2138(2) 0.96301(19) 0.55635(12)
C21 C 0.2684(2) 1.02866(19) 0.47280(12)
C22 C 0.1848(3) 0.82562(19) 0.54994(13)
C23 C 0.2147(3) 0.7637(2) 0.46808(13)
C24 C 0.1827(3) 0.6285(2) 0.48082(16)
H11 H 0.1976 0.5712 0.4330
C25 C 0.1283(3) 0.5921(2) 0.56960(16)
H12 H 0.1010 0.5071 0.5897
C26 C 0.2727(3) 0.8318(2) 0.37595(13)
H13 H 0.1807 0.8302 0.3336
H14 H 0.3910 0.7835 0.3498
N2 N 0.2907(2) 0.97159(17) 0.38691(10)
O3 O 0.3802(3) 1.0426(2) 0.23653(10)
O4 O 0.4060(2) 1.29036(17) 0.32565(12)
S2 S 0.11484(8) 0.71948(5) 0.64127(3)

#END
