
#######################################################################
#
#                 Cambridge Crystallographic Data Centre
#                                CCDC 
#
#######################################################################
#
# If this CIF has been generated from an entry in the Cambridge 
# Structural Database, then it will include bibliographic, chemical, 
# crystal, experimental, refinement or atomic coordinate data resulting 
# from the CCDC's data processing and validation procedures.
#
#######################################################################

data_ABIZAP01
_symmetry_cell_setting           monoclinic
_symmetry_space_group_name_H-M   'P 21/n'
_symmetry_Int_Tables_number      14
_space_group_name_Hall           '-P 2yn'
loop_
_symmetry_equiv_pos_site_id
_symmetry_equiv_pos_as_xyz
1 x,y,z
2 1/2-x,1/2+y,1/2-z
3 -x,-y,-z
4 1/2+x,1/2-y,1/2+z
_cell_length_a                   5.3775(6)
_cell_length_b                   31.052(5)
_cell_length_c                   12.3237(13)
_cell_angle_alpha                90
_cell_angle_beta                 90.673(11)
_cell_angle_gamma                90
_cell_volume                     2057.7
loop_
_atom_site_label
_atom_site_type_symbol
_atom_site_fract_x
_atom_site_fract_y
_atom_site_fract_z
C1 C 0.6112(7) -0.00267(11) 0.2854(3)
C2 C 0.7483(7) 0.00413(11) 0.1755(3)
C3 C 0.6105(6) 0.03851(11) 0.1196(3)
C4 C 0.6426(7) 0.06119(13) 0.0241(3)
H1 H 0.7684 0.0538 -0.0236
C5 C 0.4847(8) 0.09493(13) 0.0009(3)
H2 H 0.5051 0.1105 -0.0628
C6 C 0.2950(7) 0.10619(12) 0.0715(3)
H3 H 0.1902 0.1290 0.0537
C7 C 0.2593(6) 0.08397(11) 0.1678(3)
C8 C 0.4199(6) 0.05030(11) 0.1884(3)
C9 C 0.0786(6) 0.09256(11) 0.2526(3)
C10 C 0.0673(6) 0.06841(11) 0.3461(3)
C11 C -0.1218(7) 0.08314(13) 0.4158(3)
H4 H -0.1566 0.0706 0.4825
C12 C -0.2470(8) 0.11762(13) 0.3746(3)
H5 H -0.3772 0.1313 0.4098
C13 C 0.2367(7) 0.03137(12) 0.3703(3)
H6 H 0.3245 0.0366 0.4382
H7 H 0.1389 0.0053 0.3785
N1 N 0.4162(5) 0.02529(9) 0.2838(2)
O1 O 0.6686(5) -0.02741(8) 0.3573(2)
O2 O 0.9312(5) -0.01576(9) 0.1499(2)
S1 S -0.13840(18) 0.13297(3) 0.25130(9)
C1 C -0.1112(7) 0.49733(11) 0.2146(3)
C2 C -0.2483(7) 0.50413(11) 0.3245(3)
C3 C -0.1105(6) 0.53851(11) 0.3804(3)
C4 C -0.1426(7) 0.56119(13) 0.4759(3)
H1 H -0.2684 0.5538 0.5236
C5 C 0.0153(8) 0.59493(13) 0.4991(3)
H2 H -0.0051 0.6105 0.5628
C6 C 0.2050(7) 0.60619(12) 0.4285(3)
H3 H 0.3098 0.6290 0.4463
C7 C 0.2407(6) 0.58397(11) 0.3322(3)
C8 C 0.0801(6) 0.55030(11) 0.3116(3)
C9 C 0.4214(6) 0.59256(11) 0.2474(3)
C10 C 0.4327(6) 0.56841(11) 0.1539(3)
C11 C 0.6218(7) 0.58314(13) 0.0842(3)
H4 H 0.6566 0.5706 0.0175
C12 C 0.7470(8) 0.61762(13) 0.1254(3)
H5 H 0.8772 0.6313 0.0902
C13 C 0.2633(7) 0.53137(12) 0.1297(3)
H6 H 0.1755 0.5366 0.0618
H7 H 0.3611 0.5053 0.1215
N1 N 0.0838(5) 0.52529(9) 0.2162(2)
O1 O -0.1686(5) 0.47259(8) 0.1427(2)
O2 O -0.4312(5) 0.48424(9) 0.3501(2)
S1 S 0.63840(18) 0.63297(3) 0.24870(9)
C1 C 0.3888(7) 1.00267(11) 0.7146(3)
C2 C 0.2517(7) 0.99587(11) 0.8245(3)
C3 C 0.3895(6) 0.96149(11) 0.8804(3)
C4 C 0.3574(7) 0.93881(13) 0.9759(3)
H1 H 0.2316 0.9462 1.0236
C5 C 0.5153(8) 0.90507(13) 0.9991(3)
H2 H 0.4949 0.8895 1.0628
C6 C 0.7050(7) 0.89381(12) 0.9285(3)
H3 H 0.8098 0.8710 0.9463
C7 C 0.7407(6) 0.91603(11) 0.8322(3)
C8 C 0.5801(6) 0.94970(11) 0.8116(3)
C9 C 0.9214(6) 0.90744(11) 0.7474(3)
C10 C 0.9327(6) 0.93159(11) 0.6539(3)
C11 C 1.1218(7) 0.91686(13) 0.5842(3)
H4 H 1.1566 0.9294 0.5175
C12 C 1.2470(8) 0.88238(13) 0.6254(3)
H5 H 1.3772 0.8687 0.5902
C13 C 0.7633(7) 0.96863(12) 0.6297(3)
H6 H 0.6755 0.9634 0.5618
H7 H 0.8611 0.9947 0.6215
N1 N 0.5838(5) 0.97471(9) 0.7162(2)
O1 O 0.3314(5) 1.02741(8) 0.6427(2)
O2 O 0.0688(5) 1.01576(9) 0.8501(2)
S1 S 1.13840(18) 0.86703(3) 0.74870(9)
C1 C 1.1112(7) 0.50267(11) 0.7854(3)
C2 C 1.2483(7) 0.49587(11) 0.6755(3)
C3 C 1.1105(6) 0.46149(11) 0.6196(3)
C4 C 1.1426(7) 0.43881(13) 0.5241(3)
H1 H 1.2684 0.4462 0.4764
C5 C 0.9847(8) 0.40507(13) 0.5009(3)
H2 H 1.0051 0.3895 0.4372
C6 C 0.7950(7) 0.39381(12) 0.5715(3)
H3 H 0.6902 0.3710 0.5537
C7 C 0.7593(6) 0.41603(11) 0.6678(3)
C8 C 0.9199(6) 0.44970(11) 0.6884(3)
C9 C 0.5786(6) 0.40744(11) 0.7526(3)
C10 C 0.5673(6) 0.43159(11) 0.8461(3)
C11 C 0.3782(7) 0.41686(13) 0.9158(3)
H4 H 0.3434 0.4294 0.9825
C12 C 0.2530(8) 0.38238(13) 0.8746(3)
H5 H 0.1228 0.3687 0.9098
C13 C 0.7367(7) 0.46863(12) 0.8703(3)
H6 H 0.8245 0.4634 0.9382
H7 H 0.6389 0.4947 0.8785
N1 N 0.9162(5) 0.47471(9) 0.7838(2)
O1 O 1.1686(5) 0.52741(8) 0.8573(2)
O2 O 1.4312(5) 0.51576(9) 0.6499(2)
S1 S 0.36160(18) 0.36703(3) 0.75130(9)
C14 C 1.0094(6) 0.24186(12) 0.7964(3)
C15 C 1.1186(7) 0.19808(12) 0.8383(3)
C16 C 0.9590(6) 0.16509(11) 0.7909(3)
C17 C 0.9631(7) 0.12024(11) 0.7900(3)
H8 H 1.0843 0.1052 0.8287
C18 C 0.7840(7) 0.09873(11) 0.7306(3)
H9 H 0.7836 0.0688 0.7301
C19 C 0.6044(7) 0.12080(11) 0.6715(3)
H10 H 0.4840 0.1054 0.6331
C20 C 0.6004(6) 0.16550(11) 0.6685(3)
C21 C 0.7792(6) 0.18618(10) 0.7301(3)
C22 C 0.4339(6) 0.19359(11) 0.6073(3)
C23 C 0.4479(7) 0.23782(11) 0.6114(3)
C24 C 0.2609(7) 0.25749(13) 0.5460(3)
H11 H 0.2410 0.2871 0.5395
C25 C 0.1162(7) 0.22868(14) 0.4945(3)
H12 H -0.0148 0.2362 0.4484
C26 C 0.6398(7) 0.26151(11) 0.6789(3)
H13 H 0.7362 0.2802 0.6325
H14 H 0.5568 0.2794 0.7320
N2 N 0.8058(5) 0.23146(8) 0.7346(2)
O3 O 1.0896(5) 0.27770(8) 0.8150(2)
O4 O 1.2981(5) 0.19533(9) 0.8980(2)
S2 S 0.19750(18) 0.17677(3) 0.52252(8)
C14 C 0.4906(6) 0.74186(12) 0.7036(3)
C15 C 0.3814(7) 0.69808(12) 0.6617(3)
C16 C 0.5410(6) 0.66509(11) 0.7091(3)
C17 C 0.5369(7) 0.62024(11) 0.7100(3)
H8 H 0.4157 0.6052 0.6713
C18 C 0.7160(7) 0.59873(11) 0.7694(3)
H9 H 0.7164 0.5688 0.7699
C19 C 0.8956(7) 0.62080(11) 0.8285(3)
H10 H 1.0160 0.6054 0.8669
C20 C 0.8996(6) 0.66550(11) 0.8315(3)
C21 C 0.7208(6) 0.68618(10) 0.7699(3)
C22 C 1.0661(6) 0.69359(11) 0.8927(3)
C23 C 1.0521(7) 0.73782(11) 0.8886(3)
C24 C 1.2391(7) 0.75749(13) 0.9540(3)
H11 H 1.2590 0.7871 0.9605
C25 C 1.3838(7) 0.72868(14) 1.0055(3)
H12 H 1.5148 0.7362 1.0516
C26 C 0.8602(7) 0.76151(11) 0.8211(3)
H13 H 0.7638 0.7802 0.8675
H14 H 0.9432 0.7794 0.7680
N2 N 0.6942(5) 0.73146(8) 0.7654(2)
O3 O 0.4104(5) 0.77770(8) 0.6850(2)
O4 O 0.2019(5) 0.69533(9) 0.6020(2)
S2 S 1.30250(18) 0.67677(3) 0.97748(8)
C14 C -0.0094(6) 0.75814(12) 0.2036(3)
C15 C -0.1186(7) 0.80192(12) 0.1617(3)
C16 C 0.0410(6) 0.83491(11) 0.2091(3)
C17 C 0.0369(7) 0.87976(11) 0.2100(3)
H8 H -0.0843 0.8948 0.1713
C18 C 0.2160(7) 0.90127(11) 0.2694(3)
H9 H 0.2164 0.9312 0.2699
C19 C 0.3956(7) 0.87920(11) 0.3285(3)
H10 H 0.5160 0.8946 0.3669
C20 C 0.3996(6) 0.83450(11) 0.3315(3)
C21 C 0.2208(6) 0.81382(10) 0.2699(3)
C22 C 0.5661(6) 0.80641(11) 0.3927(3)
C23 C 0.5521(7) 0.76218(11) 0.3886(3)
C24 C 0.7391(7) 0.74251(13) 0.4540(3)
H11 H 0.7590 0.7129 0.4605
C25 C 0.8838(7) 0.77132(14) 0.5055(3)
H12 H 1.0148 0.7638 0.5516
C26 C 0.3602(7) 0.73849(11) 0.3211(3)
H13 H 0.2638 0.7198 0.3675
H14 H 0.4432 0.7206 0.2680
N2 N 0.1942(5) 0.76854(8) 0.2654(2)
O3 O -0.0896(5) 0.72230(8) 0.1850(2)
O4 O -0.2981(5) 0.80467(9) 0.1020(2)
S2 S 0.80250(18) 0.82323(3) 0.47748(8)
C14 C 0.5094(6) 0.25814(12) 0.2964(3)
C15 C 0.6186(7) 0.30192(12) 0.3383(3)
C16 C 0.4590(6) 0.33491(11) 0.2909(3)
C17 C 0.4631(7) 0.37976(11) 0.2900(3)
H8 H 0.5843 0.3948 0.3287
C18 C 0.2840(7) 0.40127(11) 0.2306(3)
H9 H 0.2836 0.4312 0.2301
C19 C 0.1044(7) 0.37920(11) 0.1715(3)
H10 H -0.0160 0.3946 0.1331
C20 C 0.1004(6) 0.33450(11) 0.1685(3)
C21 C 0.2792(6) 0.31382(10) 0.2301(3)
C22 C -0.0661(6) 0.30641(11) 0.1073(3)
C23 C -0.0521(7) 0.26218(11) 0.1114(3)
C24 C -0.2391(7) 0.24251(13) 0.0460(3)
H11 H -0.2590 0.2129 0.0395
C25 C -0.3838(7) 0.27132(14) -0.0055(3)
H12 H -0.5148 0.2638 -0.0516
C26 C 0.1398(7) 0.23849(11) 0.1789(3)
H13 H 0.2362 0.2198 0.1325
H14 H 0.0568 0.2206 0.2320
N2 N 0.3058(5) 0.26854(8) 0.2346(2)
O3 O 0.5896(5) 0.22230(8) 0.3150(2)
O4 O 0.7981(5) 0.30467(9) 0.3980(2)
S2 S -0.30250(18) 0.32323(3) 0.02252(8)

#END
