./ABOCEC_from_xyz.cif_generated_by_CrystalShift
_symmetry_cell_setting triclinic
_symmetry_space_group_name_H-M 'P 1'
loop_
_symmetry_equiv_pos_site_id
_symmetry_equiv_pos_as_xyz
1 x,y,z
_cell_length_a 9.547400
_cell_length_b 13.324500
_cell_length_c 15.227800
_cell_angle_alpha 90.000000
_cell_angle_beta 94.942000
_cell_angle_gamma 90.000000
_cell_volume 1929.992664
loop_
_atom_site_label
_atom_site_type_symbol
_atom_site_fract_x
_atom_site_fract_y
_atom_site_fract_z
O1 O 0.647740 0.154580 0.573610
C2 C 0.638650 0.142060 0.659880
O3 O 0.573610 0.201680 0.701120
C4 C 0.713630 0.049920 0.694220
H5 H 0.784100 0.069400 0.741800
C6 C 0.614950 -0.026970 0.730200
H7 H 0.563900 0.003800 0.774700
H8 H 0.668800 -0.082300 0.755400
H9 H 0.550100 -0.050800 0.683200
C10 C 0.790740 0.012880 0.614900
H11 H 0.772200 -0.059200 0.608200
C12 C 0.948900 0.026350 0.628780
C13 C 1.010500 0.119830 0.642950
O14 O 0.923130 0.201000 0.640720
H15 H 0.969900 0.252600 0.640900
C16 C 1.154200 0.130450 0.661320
H17 H 1.194000 0.193900 0.669200
C18 C 1.237200 0.046300 0.667770
H19 H 1.333500 0.052800 0.681700
C20 C 1.180500 -0.046200 0.654070
H21 H 1.238300 -0.102500 0.657800
C22 C 1.035600 -0.057440 0.634290
H23 H 0.997300 -0.121100 0.624800
C24 C 0.710240 0.067180 0.534390
C25 C 0.800410 0.102680 0.464100
C26 C 0.804900 0.203630 0.440080
H27 H 0.748700 0.250000 0.466200
C28 C 0.892300 0.235180 0.377740
H29 H 0.893500 0.302600 0.361900
C30 C 0.976800 0.168800 0.339160
H31 H 1.037400 0.191100 0.298600
C32 C 0.971800 0.069070 0.360600
H33 H 1.030100 0.024000 0.334600
C34 C 0.880370 0.033470 0.421020
C35 C 0.869200 -0.074820 0.431620
H36 H 0.950900 -0.111900 0.427600
C37 C 0.754700 -0.125880 0.446390
H38 H 0.765700 -0.195100 0.451200
C39 C 0.613900 -0.087980 0.456030
C40 C 0.497600 -0.145740 0.422830
H41 H 0.512800 -0.209000 0.399700
C42 C 0.363000 -0.111040 0.423820
H43 H 0.287600 -0.150800 0.402300
C44 C 0.339900 -0.018110 0.456470
H45 H 0.248800 0.006800 0.455700
C46 C 0.451900 0.039340 0.490850
H47 H 0.434900 0.102600 0.513300
C48 C 0.588790 0.005040 0.492630
O49 O 0.647740 0.845420 0.073610
C50 C 0.638650 0.857940 0.159880
O51 O 0.573610 0.798320 0.201120
C52 C 0.713630 0.950080 0.194220
H53 H 0.784100 0.930600 0.241800
C54 C 0.614950 1.026970 0.230200
H55 H 0.563900 0.996200 0.274700
H56 H 0.668800 1.082300 0.255400
H57 H 0.550100 1.050800 0.183200
C58 C 0.790740 0.987120 0.114900
H59 H 0.772200 1.059200 0.108200
C60 C 0.948900 0.973650 0.128780
C61 C 1.010500 0.880170 0.142950
O62 O 0.923130 0.799000 0.140720
H63 H 0.969900 0.747400 0.140900
C64 C 1.154200 0.869550 0.161320
H65 H 1.194000 0.806100 0.169200
C66 C 1.237200 0.953700 0.167770
H67 H 1.333500 0.947200 0.181700
C68 C 1.180500 1.046200 0.154070
H69 H 1.238300 1.102500 0.157800
C70 C 1.035600 1.057440 0.134290
H71 H 0.997300 1.121100 0.124800
C72 C 0.710240 0.932820 0.034390
C73 C 0.800410 0.897320 -0.035900
C74 C 0.804900 0.796370 -0.059920
H75 H 0.748700 0.750000 -0.033800
C76 C 0.892300 0.764820 -0.122260
H77 H 0.893500 0.697400 -0.138100
C78 C 0.976800 0.831200 -0.160840
H79 H 1.037400 0.808900 -0.201400
C80 C 0.971800 0.930930 -0.139400
H81 H 1.030100 0.976000 -0.165400
C82 C 0.880370 0.966530 -0.078980
C83 C 0.869200 1.074820 -0.068380
H84 H 0.950900 1.111900 -0.072400
C85 C 0.754700 1.125880 -0.053610
H86 H 0.765700 1.195100 -0.048800
C87 C 0.613900 1.087980 -0.043970
C88 C 0.497600 1.145740 -0.077170
H89 H 0.512800 1.209000 -0.100300
C90 C 0.363000 1.111040 -0.076180
H91 H 0.287600 1.150800 -0.097700
C92 C 0.339900 1.018110 -0.043530
H93 H 0.248800 0.993200 -0.044300
C94 C 0.451900 0.960660 -0.009150
H95 H 0.434900 0.897400 0.013300
C96 C 0.588790 0.994960 -0.007370
O97 O 0.156070 0.393260 0.515630
C98 C 0.141580 0.424300 0.597160
O99 O 0.068690 0.377850 0.644350
C100 C 0.223440 0.516970 0.620000
H101 H 0.291000 0.502200 0.670500
C102 C 0.129500 0.603330 0.645330
H103 H 0.063000 0.619200 0.596400
H104 H 0.186400 0.661200 0.660600
H105 H 0.080100 0.583800 0.694900
C106 C 0.305600 0.536280 0.539360
H107 H 0.290200 0.606500 0.521900
C108 C 0.462030 0.521780 0.560320
C109 C 0.520290 0.433290 0.594350
O110 O 0.430730 0.354570 0.604680
H111 H 0.473800 0.308800 0.630900
C112 C 0.662900 0.425860 0.619490
H113 H 0.700600 0.365100 0.640200
C114 C 0.748000 0.507030 0.613950
H115 H 0.843400 0.502100 0.631700
C116 C 0.693000 0.596140 0.582200
H117 H 0.750900 0.651900 0.578800
C118 C 0.551700 0.602960 0.555210
H119 H 0.515700 0.663600 0.533000
C120 C 0.226640 0.468990 0.466290
C121 C 0.318890 0.413860 0.404450
C122 C 0.319400 0.309160 0.402450
H123 H 0.260600 0.273100 0.436500
C124 C 0.407300 0.259210 0.349750
H125 H 0.406000 0.189500 0.347700
C126 C 0.496400 0.311330 0.300430
H127 H 0.557500 0.277400 0.266400
C128 C 0.494200 0.414040 0.301910
H129 H 0.555200 0.449300 0.268800
C130 C 0.403560 0.467130 0.351410
C131 C 0.398100 0.575390 0.339760
H132 H 0.481900 0.605900 0.327400
C133 C 0.289700 0.635960 0.344440
H134 H 0.306900 0.703200 0.332900
C135 C 0.146600 0.612930 0.365090
C136 C 0.038400 0.675160 0.330280
H137 H 0.061000 0.733500 0.301100
C138 C -0.099700 0.653150 0.337710
H139 H -0.169700 0.695700 0.313100
C140 C -0.135200 0.568380 0.381370
H141 H -0.229200 0.551500 0.384000
C142 C -0.030000 0.507500 0.421800
H143 H -0.054200 0.451800 0.454000
C144 C 0.111210 0.529360 0.414360
O145 O 0.156070 0.606740 1.015630
C146 C 0.141580 0.575700 1.097160
O147 O 0.068690 0.622150 1.144350
C148 C 0.223440 0.483030 1.120000
H149 H 0.291000 0.497800 1.170500
C150 C 0.129500 0.396670 1.145330
H151 H 0.063000 0.380800 1.096400
H152 H 0.186400 0.338800 1.160600
H153 H 0.080100 0.416200 1.194900
C154 C 0.305600 0.463720 1.039360
H155 H 0.290200 0.393500 1.021900
C156 C 0.462030 0.478220 1.060320
C157 C 0.520290 0.566710 1.094350
O158 O 0.430730 0.645430 1.104680
H159 H 0.473800 0.691200 1.130900
C160 C 0.662900 0.574140 1.119490
H161 H 0.700600 0.634900 1.140200
C162 C 0.748000 0.492970 1.113950
H163 H 0.843400 0.497900 1.131700
C164 C 0.693000 0.403860 1.082200
H165 H 0.750900 0.348100 1.078800
C166 C 0.551700 0.397040 1.055210
H167 H 0.515700 0.336400 1.033000
C168 C 0.226640 0.531010 0.966290
C169 C 0.318890 0.586140 0.904450
C170 C 0.319400 0.690840 0.902450
H171 H 0.260600 0.726900 0.936500
C172 C 0.407300 0.740790 0.849750
H173 H 0.406000 0.810500 0.847700
C174 C 0.496400 0.688670 0.800430
H175 H 0.557500 0.722600 0.766400
C176 C 0.494200 0.585960 0.801910
H177 H 0.555200 0.550700 0.768800
C178 C 0.403560 0.532870 0.851410
C179 C 0.398100 0.424610 0.839760
H180 H 0.481900 0.394100 0.827400
C181 C 0.289700 0.364040 0.844440
H182 H 0.306900 0.296800 0.832900
C183 C 0.146600 0.387070 0.865090
C184 C 0.038400 0.324840 0.830280
H185 H 0.061000 0.266500 0.801100
C186 C -0.099700 0.346850 0.837710
H187 H -0.169700 0.304300 0.813100
C188 C -0.135200 0.431620 0.881370
H189 H -0.229200 0.448500 0.884000
C190 C -0.030000 0.492500 0.921800
H191 H -0.054200 0.548200 0.954000
C192 C 0.111210 0.470640 0.914360

#END
