./ABOFOP_from_xyz.cif_generated_by_CrystalShift
_symmetry_cell_setting triclinic
_symmetry_space_group_name_H-M 'P 1'
loop_
_symmetry_equiv_pos_site_id
_symmetry_equiv_pos_as_xyz
1 x,y,z
_cell_length_a 8.708000
_cell_length_b 9.023000
_cell_length_c 10.758000
_cell_angle_alpha 79.510000
_cell_angle_beta 74.700000
_cell_angle_gamma 89.790000
_cell_volume 800.816898
loop_
_atom_site_label
_atom_site_type_symbol
_atom_site_fract_x
_atom_site_fract_y
_atom_site_fract_z
O1 O 0.284600 0.226330 0.026340
C2 C 0.312300 0.080600 0.077200
O3 O 0.292000 -0.016300 0.019300
C4 C 0.364400 0.060200 0.195600
H5 H 0.384700 -0.037200 0.231700
C6 C 0.385500 0.170700 0.256600
C7 C 0.443000 0.136800 0.380500
H8 H 0.452100 0.027200 0.399900
C9 C 0.608400 0.206200 0.359400
C10 C 0.731700 0.189000 0.250200
H11 H 0.711500 0.135700 0.189500
C12 C 0.882300 0.249900 0.231400
H13 H 0.963200 0.237300 0.158400
C14 C 0.913800 0.329500 0.320200
H15 H 1.015100 0.372900 0.305900
C16 C 0.796200 0.344900 0.429600
H17 H 0.817700 0.396600 0.490900
C18 C 0.644100 0.282400 0.447900
O19 O 0.533100 0.303400 0.561900
C20 C 0.375900 0.250700 0.584900
C21 C 0.273100 0.276200 0.701100
H22 H 0.311100 0.324300 0.757300
C23 C 0.115800 0.230100 0.732600
H24 H 0.046100 0.246500 0.810300
C25 C 0.062300 0.160000 0.648700
H26 H -0.044900 0.130300 0.668700
C27 C 0.166400 0.132300 0.533600
H28 H 0.128500 0.083100 0.478100
C29 C 0.326900 0.178000 0.500900
C30 C 0.353700 0.325200 0.200900
C31 C 0.369600 0.453300 0.252700
H32 H 0.402900 0.443800 0.329000
C33 C 0.337000 0.592700 0.193500
H34 H 0.348800 0.676900 0.229300
C35 C 0.286200 0.608600 0.079600
H36 H 0.263200 0.703500 0.040000
C37 C 0.269900 0.485400 0.025700
H38 H 0.236400 0.495700 -0.050500
C39 C 0.304000 0.345100 0.086300
O40 O 0.715400 0.773670 0.973660
C41 C 0.687700 0.919400 0.922800
O42 O 0.708000 1.016300 0.980700
C43 C 0.635600 0.939800 0.804400
H44 H 0.615300 1.037200 0.768300
C45 C 0.614500 0.829300 0.743400
C46 C 0.557000 0.863200 0.619500
H47 H 0.547900 0.972800 0.600100
C48 C 0.391600 0.793800 0.640600
C49 C 0.268300 0.811000 0.749800
H50 H 0.288500 0.864300 0.810500
C51 C 0.117700 0.750100 0.768600
H52 H 0.036800 0.762700 0.841600
C53 C 0.086200 0.670500 0.679800
H54 H -0.015100 0.627100 0.694100
C55 C 0.203800 0.655100 0.570400
H56 H 0.182300 0.603400 0.509100
C57 C 0.355900 0.717600 0.552100
O58 O 0.466900 0.696600 0.438100
C59 C 0.624100 0.749300 0.415100
C60 C 0.726900 0.723800 0.298900
H61 H 0.688900 0.675700 0.242700
C62 C 0.884200 0.769900 0.267400
H63 H 0.953900 0.753500 0.189700
C64 C 0.937700 0.840000 0.351300
H65 H 1.044900 0.869700 0.331300
C66 C 0.833600 0.867700 0.466400
H67 H 0.871500 0.916900 0.521900
C68 C 0.673100 0.822000 0.499100
C69 C 0.646300 0.674800 0.799100
C70 C 0.630400 0.546700 0.747300
H71 H 0.597100 0.556200 0.671000
C72 C 0.663000 0.407300 0.806500
H73 H 0.651200 0.323100 0.770700
C74 C 0.713800 0.391400 0.920400
H75 H 0.736800 0.296500 0.960000
C76 C 0.730100 0.514600 0.974300
H77 H 0.763600 0.504300 1.050500
C78 C 0.696000 0.654900 0.913700

#END
