
#######################################################################
#
#                 Cambridge Crystallographic Data Centre
#                                CCDC 
#
#######################################################################
#
# If this CIF has been generated from an entry in the Cambridge 
# Structural Database, then it will include bibliographic, chemical, 
# crystal, experimental, refinement or atomic coordinate data resulting 
# from the CCDC's data processing and validation procedures.
#
#######################################################################

data_ABOGAC
_symmetry_cell_setting           triclinic
_symmetry_space_group_name_H-M   'P -1'
_symmetry_Int_Tables_number      2
_space_group_name_Hall           '-P 1'
loop_
_symmetry_equiv_pos_site_id
_symmetry_equiv_pos_as_xyz
1 x,y,z
2 -x,-y,-z
_cell_length_a                   7.369(15)
_cell_length_b                   14.00(3)
_cell_length_c                   18.06(5)
_cell_angle_alpha                106.5(2)
_cell_angle_beta                 100.9(2)
_cell_angle_gamma                100.08(15)
_cell_volume                     1701.67
loop_
_atom_site_label
_atom_site_type_symbol
_atom_site_fract_x
_atom_site_fract_y
_atom_site_fract_z
O1 O 0.8649(3) 1.16569(13) 0.32427(12)
C1 C 0.7232(5) 1.1670(2) 0.36266(18)
O2 O 0.6960(3) 1.24706(14) 0.39476(13)
C2 C 0.6103(4) 1.06811(19) 0.36268(15)
C3 C 0.4539(4) 1.07828(19) 0.40551(15)
H1 H 0.3416 1.0249 0.3753
H2 H 0.4260 1.1441 0.4111
H3 H 0.4947 1.0723 0.4574
C4 C 0.6545(3) 0.98271(17) 0.32797(14)
C5 C 0.5404(3) 0.88293(15) 0.33084(14)
H4 H 0.4464 0.9037 0.3599
C6 C 0.6563(3) 0.83488(16) 0.38183(13)
C7 C 0.8510(4) 0.87107(18) 0.41298(15)
H5 H 0.9166 0.9230 0.3984
C8 C 0.9483(4) 0.8323(2) 0.46452(16)
H6 H 1.0801 0.8553 0.4832
C9 C 0.8495(5) 0.7580(2) 0.48911(15)
H7 H 0.9147 0.7308 0.5243
C10 C 0.6572(4) 0.72530(19) 0.46139(16)
H8 H 0.5916 0.6769 0.4793
C11 C 0.5571(4) 0.76153(17) 0.40785(14)
C12 C 0.3529(4) 0.72141(19) 0.38414(17)
H9 H 0.2978 0.7043 0.4224
C13 C 0.2374(4) 0.70641(18) 0.31612(17)
H10 H 0.1102 0.6770 0.3106
C14 C 0.2815(3) 0.72959(18) 0.24796(16)
C15 C 0.1652(4) 0.66954(19) 0.17643(18)
H11 H 0.0703 0.6143 0.1736
C16 C 0.1855(4) 0.6890(2) 0.10833(17)
H12 H 0.1061 0.6462 0.0593
C17 C 0.3216(4) 0.7708(2) 0.11173(15)
H13 H 0.3336 0.7840 0.0650
C18 C 0.4390(3) 0.83266(18) 0.18242(15)
H14 H 0.5300 0.8892 0.1844
C19 C 0.4245(3) 0.81243(16) 0.25137(14)
C20 C 0.8084(4) 0.98556(18) 0.28896(15)
C21 C 0.8659(3) 0.90155(19) 0.25053(15)
H15 H 0.8068 0.8371 0.2505
C22 C 1.0090(4) 0.9096(2) 0.21190(16)
H16 H 1.0437 0.8507 0.1859
C23 C 1.1015(4) 1.0035(3) 0.21111(19)
H17 H 1.1970 1.0082 0.1843
C24 C 1.0521(4) 1.0875(2) 0.24934(19)
H18 H 1.1151 1.1518 0.2506
C25 C 0.9075(4) 1.0783(2) 0.28693(16)
O1 O 0.1351(3) -0.16569(13) 0.67573(12)
C1 C 0.2768(5) -0.1670(2) 0.63734(18)
O2 O 0.3040(3) -0.24706(14) 0.60524(13)
C2 C 0.3897(4) -0.06811(19) 0.63732(15)
C3 C 0.5461(4) -0.07828(19) 0.59449(15)
H1 H 0.6584 -0.0249 0.6247
H2 H 0.5740 -0.1441 0.5889
H3 H 0.5053 -0.0723 0.5426
C4 C 0.3455(3) 0.01729(17) 0.67203(14)
C5 C 0.4596(3) 0.11707(15) 0.66916(14)
H4 H 0.5536 0.0963 0.6401
C6 C 0.3437(3) 0.16512(16) 0.61817(13)
C7 C 0.1490(4) 0.12893(18) 0.58702(15)
H5 H 0.0834 0.0770 0.6016
C8 C 0.0517(4) 0.1677(2) 0.53548(16)
H6 H -0.0801 0.1447 0.5168
C9 C 0.1505(5) 0.2420(2) 0.51089(15)
H7 H 0.0853 0.2692 0.4757
C10 C 0.3428(4) 0.27470(19) 0.53861(16)
H8 H 0.4084 0.3231 0.5207
C11 C 0.4429(4) 0.23847(17) 0.59215(14)
C12 C 0.6471(4) 0.27859(19) 0.61586(17)
H9 H 0.7022 0.2957 0.5776
C13 C 0.7626(4) 0.29359(18) 0.68388(17)
H10 H 0.8898 0.3230 0.6894
C14 C 0.7185(3) 0.27041(18) 0.75204(16)
C15 C 0.8348(4) 0.33046(19) 0.82357(18)
H11 H 0.9297 0.3857 0.8264
C16 C 0.8145(4) 0.3110(2) 0.89167(17)
H12 H 0.8939 0.3538 0.9407
C17 C 0.6784(4) 0.2292(2) 0.88827(15)
H13 H 0.6664 0.2160 0.9350
C18 C 0.5610(3) 0.16734(18) 0.81758(15)
H14 H 0.4700 0.1108 0.8156
C19 C 0.5755(3) 0.18757(16) 0.74863(14)
C20 C 0.1916(4) 0.01444(18) 0.71104(15)
C21 C 0.1341(3) 0.09845(19) 0.74947(15)
H15 H 0.1932 0.1629 0.7495
C22 C -0.0090(4) 0.0904(2) 0.78810(16)
H16 H -0.0437 0.1493 0.8141
C23 C -0.1015(4) -0.0035(3) 0.78889(19)
H17 H -0.1970 -0.0082 0.8157
C24 C -0.0521(4) -0.0875(2) 0.75066(19)
H18 H -0.1151 -0.1518 0.7494
C25 C 0.0925(4) -0.0783(2) 0.71307(16)
O3 O 0.8430(3) 0.08181(12) 0.04847(11)
C26 C 0.7063(4) 0.0809(2) 0.09057(17)
O4 O 0.6080(3) -0.00081(12) 0.08342(11)
C27 C 0.6923(3) 0.17728(18) 0.14067(15)
C28 C 0.5224(3) 0.16727(18) 0.17558(15)
H19 H 0.5258 0.2325 0.2127
H20 H 0.5257 0.1176 0.2028
H21 H 0.4075 0.1453 0.1335
C29 C 0.8253(3) 0.26243(16) 0.15238(14)
C30 C 0.8175(3) 0.36066(16) 0.20963(14)
H22 H 0.7077 0.3415 0.2303
C31 C 0.7679(3) 0.44029(17) 0.17248(15)
C32 C 0.7722(3) 0.43348(17) 0.09631(15)
H23 H 0.8136 0.3796 0.0664
C33 C 0.7179(3) 0.50283(19) 0.06166(16)
H24 H 0.7237 0.4965 0.0095
C34 C 0.6560(4) 0.5805(2) 0.10478(19)
H25 H 0.6230 0.6298 0.0831
C35 C 0.6420(4) 0.58653(19) 0.1792(2)
H26 H 0.5926 0.6379 0.2075
C36 C 0.7002(4) 0.51723(19) 0.21390(17)
C37 C 0.6765(4) 0.5293(2) 0.2923(2)
H27 H 0.5726 0.5540 0.3042
C38 C 0.7854(5) 0.5095(2) 0.34922(18)
H28 H 0.7501 0.5226 0.3972
C39 C 0.9523(5) 0.4700(2) 0.34740(18)
C40 C 1.0918(6) 0.5023(2) 0.41725(18)
H29 H 1.0760 0.5496 0.4620
C41 C 1.2513(5) 0.4675(3) 0.4230(2)
H30 H 1.3428 0.4905 0.4714
C42 C 1.2793(4) 0.4000(2) 0.3595(2)
H31 H 1.3895 0.3759 0.3631
C43 C 1.1438(4) 0.36774(19) 0.29013(17)
H32 H 1.1611 0.3199 0.2460
C44 C 0.9814(4) 0.40302(18) 0.28234(16)
C45 C 0.9760(3) 0.25916(18) 0.10975(15)
C46 C 1.1212(3) 0.34176(18) 0.11559(15)
H33 H 1.1284 0.4062 0.1508
C47 C 1.2536(4) 0.3319(2) 0.07170(17)
H34 H 1.3481 0.3889 0.0772
C48 C 1.2461(4) 0.2391(2) 0.02035(17)
H35 H 1.3348 0.2313 -0.0099
C49 C 1.1079(4) 0.1579(2) 0.01371(17)
H36 H 1.1015 0.0938 -0.0219
C50 C 0.9768(4) 0.16746(19) 0.05809(17)
O3 O 0.1570(3) 0.91819(12) 0.95153(11)
C26 C 0.2937(4) 0.9191(2) 0.90943(17)
O4 O 0.3920(3) 1.00081(12) 0.91658(11)
C27 C 0.3077(3) 0.82272(18) 0.85933(15)
C28 C 0.4776(3) 0.83273(18) 0.82442(15)
H19 H 0.4742 0.7675 0.7873
H20 H 0.4743 0.8824 0.7972
H21 H 0.5925 0.8547 0.8665
C29 C 0.1747(3) 0.73757(16) 0.84762(14)
C30 C 0.1825(3) 0.63934(16) 0.79037(14)
H22 H 0.2923 0.6585 0.7697
C31 C 0.2321(3) 0.55971(17) 0.82752(15)
C32 C 0.2278(3) 0.56652(17) 0.90369(15)
H23 H 0.1864 0.6204 0.9336
C33 C 0.2821(3) 0.49717(19) 0.93834(16)
H24 H 0.2763 0.5035 0.9905
C34 C 0.3440(4) 0.4195(2) 0.89522(19)
H25 H 0.3770 0.3702 0.9169
C35 C 0.3580(4) 0.41347(19) 0.8208(2)
H26 H 0.4074 0.3621 0.7925
C36 C 0.2998(4) 0.48277(19) 0.78610(17)
C37 C 0.3235(4) 0.4707(2) 0.7077(2)
H27 H 0.4274 0.4460 0.6958
C38 C 0.2146(5) 0.4905(2) 0.65078(18)
H28 H 0.2499 0.4774 0.6028
C39 C 0.0477(5) 0.5300(2) 0.65260(18)
C40 C -0.0918(6) 0.4977(2) 0.58275(18)
H29 H -0.0760 0.4504 0.5380
C41 C -0.2513(5) 0.5325(3) 0.5770(2)
H30 H -0.3428 0.5095 0.5286
C42 C -0.2793(4) 0.6000(2) 0.6405(2)
H31 H -0.3895 0.6241 0.6369
C43 C -0.1438(4) 0.63226(19) 0.70987(17)
H32 H -0.1611 0.6801 0.7540
C44 C 0.0186(4) 0.59698(18) 0.71766(16)
C45 C 0.0240(3) 0.74084(18) 0.89025(15)
C46 C -0.1212(3) 0.65824(18) 0.88441(15)
H33 H -0.1284 0.5938 0.8492
C47 C -0.2536(4) 0.6681(2) 0.92830(17)
H34 H -0.3481 0.6111 0.9228
C48 C -0.2461(4) 0.7609(2) 0.97965(17)
H35 H -0.3348 0.7687 1.0099
C49 C -0.1079(4) 0.8421(2) 0.98629(17)
H36 H -0.1015 0.9062 1.0219
C50 C 0.0232(4) 0.83254(19) 0.94191(17)

#END
