C:\cif_editor\18336861_full.cif_generated_by_CrystalShift
_symmetry_cell_setting triclinic
_symmetry_space_group_name_H-M 'P 1'
loop_
_symmetry_equiv_pos_site_id
_symmetry_equiv_pos_as_xyz
1 x,y,z
_cell_length_a 15.484000
_cell_length_b 4.021000
_cell_length_c 19.824000
_cell_angle_alpha 90.000000
_cell_angle_beta 90.285000
_cell_angle_gamma 90.000000
_cell_volume 1234.250046
loop_
_atom_site_label
_atom_site_type_symbol
_atom_site_fract_x
_atom_site_fract_y
_atom_site_fract_z
C1 C 0.291900 -0.050900 0.085700
C2 C 0.226000 -0.214700 0.053500
H3 H 0.172500 -0.250800 0.075500
C4 C 0.238500 -0.326100 -0.011400
H5 H 0.193000 -0.436200 -0.034600
C6 C 0.317900 -0.278400 -0.043500
C7 C 0.381700 -0.106800 -0.009500
H8 H 0.434800 -0.062300 -0.031400
C9 C 0.369900 0.001300 0.055700
H10 H 0.415300 0.110400 0.079300
C11 C 0.328400 -0.414400 -0.111500
C12 C 0.425000 -0.443000 -0.204000
C13 C 0.373100 -0.367100 -0.258000
H14 H 0.320600 -0.249200 -0.251400
C15 C 0.397200 -0.462300 -0.321400
H16 H 0.361500 -0.412000 -0.359100
C17 C 0.473100 -0.630400 -0.330200
C18 C 0.526300 -0.706200 -0.276100
H19 H 0.579400 -0.819500 -0.283100
C20 C 0.501700 -0.616400 -0.212600
H21 H 0.536600 -0.672000 -0.174700
O22 O 0.406200 -0.334400 -0.138590
O23 O 0.276700 -0.587900 -0.140100
Br24 Br 0.275180 0.107120 0.175180
Br25 Br 0.505860 -0.764110 -0.418500
C26 C 0.208100 0.449100 0.414300
C27 C -0.291900 0.050900 -0.085700
C28 C -0.208100 -0.449100 -0.414300
C29 C 0.274000 0.285300 0.446500
C30 C -0.226000 0.214700 -0.053500
C31 C -0.274000 -0.285300 -0.446500
H32 H 0.327500 0.249200 0.424500
H33 H -0.172500 0.250800 -0.075500
H34 H -0.327500 -0.249200 -0.424500
C35 C 0.261500 0.173900 0.511400
C36 C -0.238500 0.326100 0.011400
C37 C -0.261500 -0.173900 -0.511400
H38 H 0.307000 0.063800 0.534600
H39 H -0.193000 0.436200 0.034600
H40 H -0.307000 -0.063800 -0.534600
C41 C 0.182100 0.221600 0.543500
C42 C -0.317900 0.278400 0.043500
C43 C -0.182100 -0.221600 -0.543500
C44 C 0.118300 0.393200 0.509500
C45 C -0.381700 0.106800 0.009500
C46 C -0.118300 -0.393200 -0.509500
H47 H 0.065200 0.437700 0.531400
H48 H -0.434800 0.062300 0.031400
H49 H -0.065200 -0.437700 -0.531400
C50 C 0.130100 0.501300 0.444300
C51 C -0.369900 -0.001300 -0.055700
C52 C -0.130100 -0.501300 -0.444300
H53 H 0.084700 0.610400 0.420700
H54 H -0.415300 -0.110400 -0.079300
H55 H -0.084700 -0.610400 -0.420700
C56 C 0.171600 0.085600 0.611500
C57 C -0.328400 0.414400 0.111500
C58 C -0.171600 -0.085600 -0.611500
C59 C 0.075000 0.057000 0.704000
C60 C -0.425000 0.443000 0.204000
C61 C -0.075000 -0.057000 -0.704000
C62 C 0.126900 0.132900 0.758000
C63 C -0.373100 0.367100 0.258000
C64 C -0.126900 -0.132900 -0.758000
H65 H 0.179400 0.250800 0.751400
H66 H -0.320600 0.249200 0.251400
H67 H -0.179400 -0.250800 -0.751400
C68 C 0.102800 0.037700 0.821400
C69 C -0.397200 0.462300 0.321400
C70 C -0.102800 -0.037700 -0.821400
H71 H 0.138500 0.088000 0.859100
H72 H -0.361500 0.412000 0.359100
H73 H -0.138500 -0.088000 -0.859100
C74 C 0.026900 -0.130400 0.830200
C75 C -0.473100 0.630400 0.330200
C76 C -0.026900 0.130400 -0.830200
C77 C -0.026300 -0.206200 0.776100
C78 C -0.526300 0.706200 0.276100
C79 C 0.026300 0.206200 -0.776100
H80 H -0.079400 -0.319500 0.783100
H81 H -0.579400 0.819500 0.283100
H82 H 0.079400 0.319500 -0.783100
C83 C -0.001700 -0.116400 0.712600
C84 C -0.501700 0.616400 0.212600
C85 C 0.001700 0.116400 -0.712600
H86 H -0.036600 -0.172000 0.674700
H87 H -0.536600 0.672000 0.174700
H88 H 0.036600 0.172000 -0.674700
O89 O 0.093800 0.165600 0.638590
O90 O -0.406200 0.334400 0.138590
O91 O -0.093800 -0.165600 -0.638590
O92 O 0.223300 -0.087900 0.640100
O93 O -0.276700 0.587900 0.140100
O94 O -0.223300 0.087900 -0.640100
Br95 Br 0.224820 0.607120 0.324820
Br96 Br -0.275180 -0.107120 -0.175180
Br97 Br -0.224820 -0.607120 -0.324820
Br98 Br -0.005860 -0.264110 0.918500
Br99 Br -0.505860 0.764110 0.418500
Br100 Br 0.005860 0.264110 -0.918500

#END
