
#######################################################################
#
#                 Cambridge Crystallographic Data Centre
#                                CCDC 
#
#######################################################################
#
# If this CIF has been generated from an entry in the Cambridge 
# Structural Database, then it will include bibliographic, chemical, 
# crystal, experimental, refinement or atomic coordinate data resulting 
# from the CCDC's data processing and validation procedures.
#
#######################################################################

data_VEWSIC
_symmetry_cell_setting           monoclinic
_symmetry_space_group_name_H-M   'P 21/n'
_symmetry_Int_Tables_number      14
_space_group_name_Hall           '-P 2yn'
loop_
_symmetry_equiv_pos_site_id
_symmetry_equiv_pos_as_xyz
1 x,y,z
2 1/2-x,1/2+y,1/2-z
3 -x,-y,-z
4 1/2+x,1/2-y,1/2+z
_cell_length_a                   15.484(13)
_cell_length_b                   4.021(3)
_cell_length_c                   19.824(15)
_cell_angle_alpha                90
_cell_angle_beta                 90.285(12)
_cell_angle_gamma                90
_cell_volume                     1234.25
loop_
_atom_site_label
_atom_site_type_symbol
_atom_site_fract_x
_atom_site_fract_y
_atom_site_fract_z
C1 C 0.2919(3) 0.9491(14) 1.0857(3)
C2 C 0.2260(4) 0.7853(15) 1.0535(3)
H1 H 0.1725 0.7492 1.0755
C3 C 0.2385(3) 0.6739(15) 0.9886(3)
H2 H 0.1930 0.5638 0.9654
C4 C 0.3179(3) 0.7216(14) 0.9565(3)
C5 C 0.3817(3) 0.8932(15) 0.9905(3)
H3 H 0.4348 0.9377 0.9686
C6 C 0.3699(4) 1.0013(16) 1.0557(3)
H4 H 0.4153 1.1104 1.0793
C7 C 0.3284(3) 0.5856(15) 0.8885(3)
C8 C 0.4250(3) 0.5570(14) 0.7960(3)
C9 C 0.3731(3) 0.6329(15) 0.7420(3)
H5 H 0.3206 0.7508 0.7486
C10 C 0.3972(3) 0.5377(14) 0.6786(3)
H6 H 0.3615 0.5880 0.6409
C11 C 0.4731(3) 0.3696(13) 0.6698(2)
C12 C 0.5263(4) 0.2938(15) 0.7239(3)
H7 H 0.5794 0.1805 0.7169
C13 C 0.5017(3) 0.3836(15) 0.7874(3)
H8 H 0.5366 0.3280 0.8253
O1 O 0.4062(2) 0.6656(11) 0.86141(18)
O2 O 0.2767(3) 0.4121(14) 0.8599(2)
Br1 Br 0.27518(5) 1.10712(18) 1.17518(3)
Br2 Br 0.50586(4) 0.23589(16) 0.58150(3)
C1 C 0.2081(3) 0.4491(14) 0.4143(3)
C2 C 0.2740(4) 0.2853(15) 0.4465(3)
H1 H 0.3275 0.2492 0.4245
C3 C 0.2615(3) 0.1739(15) 0.5114(3)
H2 H 0.3070 0.0638 0.5346
C4 C 0.1821(3) 0.2216(14) 0.5435(3)
C5 C 0.1183(3) 0.3932(15) 0.5095(3)
H3 H 0.0652 0.4377 0.5314
C6 C 0.1301(4) 0.5013(16) 0.4443(3)
H4 H 0.0847 0.6104 0.4207
C7 C 0.1716(3) 0.0856(15) 0.6115(3)
C8 C 0.0750(3) 0.0570(14) 0.7040(3)
C9 C 0.1269(3) 0.1329(15) 0.7580(3)
H5 H 0.1794 0.2508 0.7514
C10 C 0.1028(3) 0.0377(14) 0.8214(3)
H6 H 0.1385 0.0880 0.8591
C11 C 0.0269(3) -0.1304(13) 0.8302(2)
C12 C -0.0263(4) -0.2062(15) 0.7761(3)
H7 H -0.0794 -0.3195 0.7831
C13 C -0.0017(3) -0.1164(15) 0.7126(3)
H8 H -0.0366 -0.1720 0.6747
O1 O 0.0938(2) 0.1656(11) 0.63859(18)
O2 O 0.2233(3) -0.0879(14) 0.6401(2)
Br1 Br 0.22482(5) 0.60712(18) 0.32482(3)
Br2 Br -0.00586(4) -0.26411(16) 0.91850(3)
C1 C 0.7081(3) 0.0509(14) -0.0857(3)
C2 C 0.7740(4) 0.2147(15) -0.0535(3)
H1 H 0.8275 0.2508 -0.0755
C3 C 0.7615(3) 0.3261(15) 0.0114(3)
H2 H 0.8070 0.4362 0.0346
C4 C 0.6821(3) 0.2784(14) 0.0435(3)
C5 C 0.6183(3) 0.1068(15) 0.0095(3)
H3 H 0.5652 0.0623 0.0314
C6 C 0.6301(4) -0.0013(16) -0.0557(3)
H4 H 0.5847 -0.1104 -0.0793
C7 C 0.6716(3) 0.4144(15) 0.1115(3)
C8 C 0.5750(3) 0.4430(14) 0.2040(3)
C9 C 0.6269(3) 0.3671(15) 0.2580(3)
H5 H 0.6794 0.2492 0.2514
C10 C 0.6028(3) 0.4623(14) 0.3214(3)
H6 H 0.6385 0.4120 0.3591
C11 C 0.5269(3) 0.6304(13) 0.3302(2)
C12 C 0.4737(4) 0.7062(15) 0.2761(3)
H7 H 0.4206 0.8195 0.2831
C13 C 0.4983(3) 0.6164(15) 0.2126(3)
H8 H 0.4634 0.6720 0.1747
O1 O 0.5938(2) 0.3344(11) 0.13859(18)
O2 O 0.7233(3) 0.5879(14) 0.1401(2)
Br1 Br 0.72482(5) -0.10712(18) -0.17518(3)
Br2 Br 0.49414(4) 0.76411(16) 0.41850(3)
C1 C 0.7919(3) 0.5509(14) 0.5857(3)
C2 C 0.7260(4) 0.7147(15) 0.5535(3)
H1 H 0.6725 0.7508 0.5755
C3 C 0.7385(3) 0.8261(15) 0.4886(3)
H2 H 0.6930 0.9362 0.4654
C4 C 0.8179(3) 0.7784(14) 0.4565(3)
C5 C 0.8817(3) 0.6068(15) 0.4905(3)
H3 H 0.9348 0.5623 0.4686
C6 C 0.8699(4) 0.4987(16) 0.5557(3)
H4 H 0.9153 0.3896 0.5793
C7 C 0.8284(3) 0.9144(15) 0.3885(3)
C8 C 0.9250(3) 0.9430(14) 0.2960(3)
C9 C 0.8731(3) 0.8671(15) 0.2420(3)
H5 H 0.8206 0.7492 0.2486
C10 C 0.8972(3) 0.9623(14) 0.1786(3)
H6 H 0.8615 0.9120 0.1409
C11 C 0.9731(3) 1.1304(13) 0.1698(2)
C12 C 1.0263(4) 1.2062(15) 0.2239(3)
H7 H 1.0794 1.3195 0.2169
C13 C 1.0017(3) 1.1164(15) 0.2874(3)
H8 H 1.0366 1.1720 0.3253
O1 O 0.9062(2) 0.8344(11) 0.36141(18)
O2 O 0.7767(3) 1.0879(14) 0.3599(2)
Br1 Br 0.77518(5) 0.39288(18) 0.67518(3)
Br2 Br 1.00586(4) 1.26411(16) 0.08150(3)

#END
