C:\cif_editor\VEWSIC_supercell.cif_generated_by_CrystalShift
_symmetry_cell_setting triclinic
_symmetry_space_group_name_H-M 'P 1'
loop_
_symmetry_equiv_pos_site_id
_symmetry_equiv_pos_as_xyz
1 x,y,z
_cell_length_a 30.968000
_cell_length_b 4.021000
_cell_length_c 39.648000
_cell_angle_alpha 90.000000
_cell_angle_beta 90.285000
_cell_angle_gamma 90.000000
_cell_volume 4937.000183
loop_
_atom_site_label
_atom_site_type_symbol
_atom_site_fract_x
_atom_site_fract_y
_atom_site_fract_z
C1 C 0.145950 0.949100 0.542850
C2 C 0.113000 0.785300 0.526750
H3 H 0.086250 0.749200 0.537750
C4 C 0.119250 0.673900 0.494300
H5 H 0.096500 0.563800 0.482700
C6 C 0.158950 0.721600 0.478250
C7 C 0.190850 0.893200 0.495250
H8 H 0.217400 0.937700 0.484300
C9 C 0.184950 1.001300 0.527850
H10 H 0.207650 1.110400 0.539650
C11 C 0.164200 0.585600 0.444250
C12 C 0.212500 0.557000 0.398000
C13 C 0.186550 0.632900 0.371000
H14 H 0.160300 0.750800 0.374300
C15 C 0.198600 0.537700 0.339300
H16 H 0.180750 0.588000 0.320450
C17 C 0.236550 0.369600 0.334900
C18 C 0.263150 0.293800 0.361950
H19 H 0.289700 0.180500 0.358450
C20 C 0.250850 0.383600 0.393700
H21 H 0.268300 0.328000 0.412650
O22 O 0.203100 0.665600 0.430705
O23 O 0.138350 0.412100 0.429950
Br24 Br 0.137590 1.107120 0.587590
Br25 Br 0.252930 0.235890 0.290750
C26 C 0.104050 0.449100 0.207150
C27 C 0.137000 0.285300 0.223250
H28 H 0.163750 0.249200 0.212250
C29 C 0.130750 0.173900 0.255700
H30 H 0.153500 0.063800 0.267300
C31 C 0.091050 0.221600 0.271750
C32 C 0.059150 0.393200 0.254750
H33 H 0.032600 0.437700 0.265700
C34 C 0.065050 0.501300 0.222150
H35 H 0.042350 0.610400 0.210350
C36 C 0.085800 0.085600 0.305750
C37 C 0.037500 0.057000 0.352000
C38 C 0.063450 0.132900 0.379000
H39 H 0.089700 0.250800 0.375700
C40 C 0.051400 0.037700 0.410700
H41 H 0.069250 0.088000 0.429550
C42 C 0.013450 -0.130400 0.415100
C43 C -0.013150 -0.206200 0.388050
H44 H -0.039700 -0.319500 0.391550
C45 C -0.000850 -0.116400 0.356300
H46 H -0.018300 -0.172000 0.337350
O47 O 0.046900 0.165600 0.319295
O48 O 0.111650 -0.087900 0.320050
Br49 Br 0.112410 0.607120 0.162410
Br50 Br -0.002930 -0.264110 0.459250
C51 C 0.354050 0.050900 -0.042850
C52 C 0.387000 0.214700 -0.026750
H53 H 0.413750 0.250800 -0.037750
C54 C 0.380750 0.326100 0.005700
H55 H 0.403500 0.436200 0.017300
C56 C 0.341050 0.278400 0.021750
C57 C 0.309150 0.106800 0.004750
H58 H 0.282600 0.062300 0.015700
C59 C 0.315050 -0.001300 -0.027850
H60 H 0.292350 -0.110400 -0.039650
C61 C 0.335800 0.414400 0.055750
C62 C 0.287500 0.443000 0.102000
C63 C 0.313450 0.367100 0.129000
H64 H 0.339700 0.249200 0.125700
C65 C 0.301400 0.462300 0.160700
H66 H 0.319250 0.412000 0.179550
C67 C 0.263450 0.630400 0.165100
C68 C 0.236850 0.706200 0.138050
H69 H 0.210300 0.819500 0.141550
C70 C 0.249150 0.616400 0.106300
H71 H 0.231700 0.672000 0.087350
O72 O 0.296900 0.334400 0.069295
O73 O 0.361650 0.587900 0.070050
Br74 Br 0.362410 -0.107120 -0.087590
Br75 Br 0.247070 0.764110 0.209250
C76 C 0.395950 0.550900 0.292850
C77 C 0.363000 0.714700 0.276750
H78 H 0.336250 0.750800 0.287750
C79 C 0.369250 0.826100 0.244300
H80 H 0.346500 0.936200 0.232700
C81 C 0.408950 0.778400 0.228250
C82 C 0.440850 0.606800 0.245250
H83 H 0.467400 0.562300 0.234300
C84 C 0.434950 0.498700 0.277850
H85 H 0.457650 0.389600 0.289650
C86 C 0.414200 0.914400 0.194250
C87 C 0.462500 0.943000 0.148000
C88 C 0.436550 0.867100 0.121000
H89 H 0.410300 0.749200 0.124300
C90 C 0.448600 0.962300 0.089300
H91 H 0.430750 0.912000 0.070450
C92 C 0.486550 1.130400 0.084900
C93 C 0.513150 1.206200 0.111950
H94 H 0.539700 1.319500 0.108450
C95 C 0.500850 1.116400 0.143700
H96 H 0.518300 1.172000 0.162650
O97 O 0.453100 0.834400 0.180705
O98 O 0.388350 1.087900 0.179950
Br99 Br 0.387590 0.392880 0.337590
Br100 Br 0.502930 1.264110 0.040750
C101 C 0.145950 0.949100 1.042850
C102 C 0.113000 0.785300 1.026750
H103 H 0.086250 0.749200 1.037750
C104 C 0.119250 0.673900 0.994300
H105 H 0.096500 0.563800 0.982700
C106 C 0.158950 0.721600 0.978250
C107 C 0.190850 0.893200 0.995250
H108 H 0.217400 0.937700 0.984300
C109 C 0.184950 1.001300 1.027850
H110 H 0.207650 1.110400 1.039650
C111 C 0.164200 0.585600 0.944250
C112 C 0.212500 0.557000 0.898000
C113 C 0.186550 0.632900 0.871000
H114 H 0.160300 0.750800 0.874300
C115 C 0.198600 0.537700 0.839300
H116 H 0.180750 0.588000 0.820450
C117 C 0.236550 0.369600 0.834900
C118 C 0.263150 0.293800 0.861950
H119 H 0.289700 0.180500 0.858450
C120 C 0.250850 0.383600 0.893700
H121 H 0.268300 0.328000 0.912650
O122 O 0.203100 0.665600 0.930705
O123 O 0.138350 0.412100 0.929950
Br124 Br 0.137590 1.107120 1.087590
Br125 Br 0.252930 0.235890 0.790750
C126 C 0.104050 0.449100 0.707150
C127 C 0.137000 0.285300 0.723250
H128 H 0.163750 0.249200 0.712250
C129 C 0.130750 0.173900 0.755700
H130 H 0.153500 0.063800 0.767300
C131 C 0.091050 0.221600 0.771750
C132 C 0.059150 0.393200 0.754750
H133 H 0.032600 0.437700 0.765700
C134 C 0.065050 0.501300 0.722150
H135 H 0.042350 0.610400 0.710350
C136 C 0.085800 0.085600 0.805750
C137 C 0.037500 0.057000 0.852000
C138 C 0.063450 0.132900 0.879000
H139 H 0.089700 0.250800 0.875700
C140 C 0.051400 0.037700 0.910700
H141 H 0.069250 0.088000 0.929550
C142 C 0.013450 -0.130400 0.915100
C143 C -0.013150 -0.206200 0.888050
H144 H -0.039700 -0.319500 0.891550
C145 C -0.000850 -0.116400 0.856300
H146 H -0.018300 -0.172000 0.837350
O147 O 0.046900 0.165600 0.819295
O148 O 0.111650 -0.087900 0.820050
Br149 Br 0.112410 0.607120 0.662410
Br150 Br -0.002930 -0.264110 0.959250
C151 C 0.354050 0.050900 0.457150
C152 C 0.387000 0.214700 0.473250
H153 H 0.413750 0.250800 0.462250
C154 C 0.380750 0.326100 0.505700
H155 H 0.403500 0.436200 0.517300
C156 C 0.341050 0.278400 0.521750
C157 C 0.309150 0.106800 0.504750
H158 H 0.282600 0.062300 0.515700
C159 C 0.315050 -0.001300 0.472150
H160 H 0.292350 -0.110400 0.460350
C161 C 0.335800 0.414400 0.555750
C162 C 0.287500 0.443000 0.602000
C163 C 0.313450 0.367100 0.629000
H164 H 0.339700 0.249200 0.625700
C165 C 0.301400 0.462300 0.660700
H166 H 0.319250 0.412000 0.679550
C167 C 0.263450 0.630400 0.665100
C168 C 0.236850 0.706200 0.638050
H169 H 0.210300 0.819500 0.641550
C170 C 0.249150 0.616400 0.606300
H171 H 0.231700 0.672000 0.587350
O172 O 0.296900 0.334400 0.569295
O173 O 0.361650 0.587900 0.570050
Br174 Br 0.362410 -0.107120 0.412410
Br175 Br 0.247070 0.764110 0.709250
C176 C 0.395950 0.550900 0.792850
C177 C 0.363000 0.714700 0.776750
H178 H 0.336250 0.750800 0.787750
C179 C 0.369250 0.826100 0.744300
H180 H 0.346500 0.936200 0.732700
C181 C 0.408950 0.778400 0.728250
C182 C 0.440850 0.606800 0.745250
H183 H 0.467400 0.562300 0.734300
C184 C 0.434950 0.498700 0.777850
H185 H 0.457650 0.389600 0.789650
C186 C 0.414200 0.914400 0.694250
C187 C 0.462500 0.943000 0.648000
C188 C 0.436550 0.867100 0.621000
H189 H 0.410300 0.749200 0.624300
C190 C 0.448600 0.962300 0.589300
H191 H 0.430750 0.912000 0.570450
C192 C 0.486550 1.130400 0.584900
C193 C 0.513150 1.206200 0.611950
H194 H 0.539700 1.319500 0.608450
C195 C 0.500850 1.116400 0.643700
H196 H 0.518300 1.172000 0.662650
O197 O 0.453100 0.834400 0.680705
O198 O 0.388350 1.087900 0.679950
Br199 Br 0.387590 0.392880 0.837590
Br200 Br 0.502930 1.264110 0.540750
C201 C 0.645950 0.949100 0.542850
C202 C 0.613000 0.785300 0.526750
H203 H 0.586250 0.749200 0.537750
C204 C 0.619250 0.673900 0.494300
H205 H 0.596500 0.563800 0.482700
C206 C 0.658950 0.721600 0.478250
C207 C 0.690850 0.893200 0.495250
H208 H 0.717400 0.937700 0.484300
C209 C 0.684950 1.001300 0.527850
H210 H 0.707650 1.110400 0.539650
C211 C 0.664200 0.585600 0.444250
C212 C 0.712500 0.557000 0.398000
C213 C 0.686550 0.632900 0.371000
H214 H 0.660300 0.750800 0.374300
C215 C 0.698600 0.537700 0.339300
H216 H 0.680750 0.588000 0.320450
C217 C 0.736550 0.369600 0.334900
C218 C 0.763150 0.293800 0.361950
H219 H 0.789700 0.180500 0.358450
C220 C 0.750850 0.383600 0.393700
H221 H 0.768300 0.328000 0.412650
O222 O 0.703100 0.665600 0.430705
O223 O 0.638350 0.412100 0.429950
Br224 Br 0.637590 1.107120 0.587590
Br225 Br 0.752930 0.235890 0.290750
C226 C 0.604050 0.449100 0.207150
C227 C 0.637000 0.285300 0.223250
H228 H 0.663750 0.249200 0.212250
C229 C 0.630750 0.173900 0.255700
H230 H 0.653500 0.063800 0.267300
C231 C 0.591050 0.221600 0.271750
C232 C 0.559150 0.393200 0.254750
H233 H 0.532600 0.437700 0.265700
C234 C 0.565050 0.501300 0.222150
H235 H 0.542350 0.610400 0.210350
C236 C 0.585800 0.085600 0.305750
C237 C 0.537500 0.057000 0.352000
C238 C 0.563450 0.132900 0.379000
H239 H 0.589700 0.250800 0.375700
C240 C 0.551400 0.037700 0.410700
H241 H 0.569250 0.088000 0.429550
C242 C 0.513450 -0.130400 0.415100
C243 C 0.486850 -0.206200 0.388050
H244 H 0.460300 -0.319500 0.391550
C245 C 0.499150 -0.116400 0.356300
H246 H 0.481700 -0.172000 0.337350
O247 O 0.546900 0.165600 0.319295
O248 O 0.611650 -0.087900 0.320050
Br249 Br 0.612410 0.607120 0.162410
Br250 Br 0.497070 -0.264110 0.459250
C251 C 0.854050 0.050900 -0.042850
C252 C 0.887000 0.214700 -0.026750
H253 H 0.913750 0.250800 -0.037750
C254 C 0.880750 0.326100 0.005700
H255 H 0.903500 0.436200 0.017300
C256 C 0.841050 0.278400 0.021750
C257 C 0.809150 0.106800 0.004750
H258 H 0.782600 0.062300 0.015700
C259 C 0.815050 -0.001300 -0.027850
H260 H 0.792350 -0.110400 -0.039650
C261 C 0.835800 0.414400 0.055750
C262 C 0.787500 0.443000 0.102000
C263 C 0.813450 0.367100 0.129000
H264 H 0.839700 0.249200 0.125700
C265 C 0.801400 0.462300 0.160700
H266 H 0.819250 0.412000 0.179550
C267 C 0.763450 0.630400 0.165100
C268 C 0.736850 0.706200 0.138050
H269 H 0.710300 0.819500 0.141550
C270 C 0.749150 0.616400 0.106300
H271 H 0.731700 0.672000 0.087350
O272 O 0.796900 0.334400 0.069295
O273 O 0.861650 0.587900 0.070050
Br274 Br 0.862410 -0.107120 -0.087590
Br275 Br 0.747070 0.764110 0.209250
C276 C 0.895950 0.550900 0.292850
C277 C 0.863000 0.714700 0.276750
H278 H 0.836250 0.750800 0.287750
C279 C 0.869250 0.826100 0.244300
H280 H 0.846500 0.936200 0.232700
C281 C 0.908950 0.778400 0.228250
C282 C 0.940850 0.606800 0.245250
H283 H 0.967400 0.562300 0.234300
C284 C 0.934950 0.498700 0.277850
H285 H 0.957650 0.389600 0.289650
C286 C 0.914200 0.914400 0.194250
C287 C 0.962500 0.943000 0.148000
C288 C 0.936550 0.867100 0.121000
H289 H 0.910300 0.749200 0.124300
C290 C 0.948600 0.962300 0.089300
H291 H 0.930750 0.912000 0.070450
C292 C 0.986550 1.130400 0.084900
C293 C 1.013150 1.206200 0.111950
H294 H 1.039700 1.319500 0.108450
C295 C 1.000850 1.116400 0.143700
H296 H 1.018300 1.172000 0.162650
O297 O 0.953100 0.834400 0.180705
O298 O 0.888350 1.087900 0.179950
Br299 Br 0.887590 0.392880 0.337590
Br300 Br 1.002930 1.264110 0.040750
C301 C 0.645950 0.949100 1.042850
C302 C 0.613000 0.785300 1.026750
H303 H 0.586250 0.749200 1.037750
C304 C 0.619250 0.673900 0.994300
H305 H 0.596500 0.563800 0.982700
C306 C 0.658950 0.721600 0.978250
C307 C 0.690850 0.893200 0.995250
H308 H 0.717400 0.937700 0.984300
C309 C 0.684950 1.001300 1.027850
H310 H 0.707650 1.110400 1.039650
C311 C 0.664200 0.585600 0.944250
C312 C 0.712500 0.557000 0.898000
C313 C 0.686550 0.632900 0.871000
H314 H 0.660300 0.750800 0.874300
C315 C 0.698600 0.537700 0.839300
H316 H 0.680750 0.588000 0.820450
C317 C 0.736550 0.369600 0.834900
C318 C 0.763150 0.293800 0.861950
H319 H 0.789700 0.180500 0.858450
C320 C 0.750850 0.383600 0.893700
H321 H 0.768300 0.328000 0.912650
O322 O 0.703100 0.665600 0.930705
O323 O 0.638350 0.412100 0.929950
Br324 Br 0.637590 1.107120 1.087590
Br325 Br 0.752930 0.235890 0.790750
C326 C 0.604050 0.449100 0.707150
C327 C 0.637000 0.285300 0.723250
H328 H 0.663750 0.249200 0.712250
C329 C 0.630750 0.173900 0.755700
H330 H 0.653500 0.063800 0.767300
C331 C 0.591050 0.221600 0.771750
C332 C 0.559150 0.393200 0.754750
H333 H 0.532600 0.437700 0.765700
C334 C 0.565050 0.501300 0.722150
H335 H 0.542350 0.610400 0.710350
C336 C 0.585800 0.085600 0.805750
C337 C 0.537500 0.057000 0.852000
C338 C 0.563450 0.132900 0.879000
H339 H 0.589700 0.250800 0.875700
C340 C 0.551400 0.037700 0.910700
H341 H 0.569250 0.088000 0.929550
C342 C 0.513450 -0.130400 0.915100
C343 C 0.486850 -0.206200 0.888050
H344 H 0.460300 -0.319500 0.891550
C345 C 0.499150 -0.116400 0.856300
H346 H 0.481700 -0.172000 0.837350
O347 O 0.546900 0.165600 0.819295
O348 O 0.611650 -0.087900 0.820050
Br349 Br 0.612410 0.607120 0.662410
Br350 Br 0.497070 -0.264110 0.959250
C351 C 0.854050 0.050900 0.457150
C352 C 0.887000 0.214700 0.473250
H353 H 0.913750 0.250800 0.462250
C354 C 0.880750 0.326100 0.505700
H355 H 0.903500 0.436200 0.517300
C356 C 0.841050 0.278400 0.521750
C357 C 0.809150 0.106800 0.504750
H358 H 0.782600 0.062300 0.515700
C359 C 0.815050 -0.001300 0.472150
H360 H 0.792350 -0.110400 0.460350
C361 C 0.835800 0.414400 0.555750
C362 C 0.787500 0.443000 0.602000
C363 C 0.813450 0.367100 0.629000
H364 H 0.839700 0.249200 0.625700
C365 C 0.801400 0.462300 0.660700
H366 H 0.819250 0.412000 0.679550
C367 C 0.763450 0.630400 0.665100
C368 C 0.736850 0.706200 0.638050
H369 H 0.710300 0.819500 0.641550
C370 C 0.749150 0.616400 0.606300
H371 H 0.731700 0.672000 0.587350
O372 O 0.796900 0.334400 0.569295
O373 O 0.861650 0.587900 0.570050
Br374 Br 0.862410 -0.107120 0.412410
Br375 Br 0.747070 0.764110 0.709250
C376 C 0.895950 0.550900 0.792850
C377 C 0.863000 0.714700 0.776750
H378 H 0.836250 0.750800 0.787750
C379 C 0.869250 0.826100 0.744300
H380 H 0.846500 0.936200 0.732700
C381 C 0.908950 0.778400 0.728250
C382 C 0.940850 0.606800 0.745250
H383 H 0.967400 0.562300 0.734300
C384 C 0.934950 0.498700 0.777850
H385 H 0.957650 0.389600 0.789650
C386 C 0.914200 0.914400 0.694250
C387 C 0.962500 0.943000 0.648000
C388 C 0.936550 0.867100 0.621000
H389 H 0.910300 0.749200 0.624300
C390 C 0.948600 0.962300 0.589300
H391 H 0.930750 0.912000 0.570450
C392 C 0.986550 1.130400 0.584900
C393 C 1.013150 1.206200 0.611950
H394 H 1.039700 1.319500 0.608450
C395 C 1.000850 1.116400 0.643700
H396 H 1.018300 1.172000 0.662650
O397 O 0.953100 0.834400 0.680705
O398 O 0.888350 1.087900 0.679950
Br399 Br 0.887590 0.392880 0.837590
Br400 Br 1.002930 1.264110 0.540750

#END
