
#######################################################################
#
#                 Cambridge Crystallographic Data Centre
#                                CCDC 
#
#######################################################################
#
# If this CIF has been generated from an entry in the Cambridge 
# Structural Database, then it will include bibliographic, chemical, 
# crystal, experimental, refinement or atomic coordinate data resulting 
# from the CCDC's data processing and validation procedures.
#
#######################################################################

data_ABEGIA
_symmetry_cell_setting           monoclinic
_symmetry_space_group_name_H-M   'P 21/n'
_symmetry_Int_Tables_number      14
_space_group_name_Hall           '-P 2yn'
loop_
_symmetry_equiv_pos_site_id
_symmetry_equiv_pos_as_xyz
1 x,y,z
2 1/2-x,1/2+y,1/2-z
3 -x,-y,-z
4 1/2+x,1/2-y,1/2+z
_cell_length_a                   11.919(3)
_cell_length_b                   8.061(2)
_cell_length_c                   17.437(4)
_cell_angle_alpha                90
_cell_angle_beta                 102.89(3)
_cell_angle_gamma                90
_cell_volume                     1633.11
loop_
_atom_site_label
_atom_site_type_symbol
_atom_site_fract_x
_atom_site_fract_y
_atom_site_fract_z
O1 O 0.24238(10) 0.35223(13) 0.59647(6)
O2 O 0.29451(10) 0.34373(14) 0.72638(7)
N1 N 0.22326(11) 0.58550(17) 0.66898(8)
H1 H 0.2299(14) 0.627(2) 0.7145(11)
C1 C 0.25547(13) 0.4274(2) 0.66839(10)
C2 C 0.20645(12) 0.69917(19) 0.60171(9)
H2 H 0.1450 0.7801 0.6069
C3 C 0.16385(12) 0.60047(19) 0.52797(9)
C4 C 0.18485(12) 0.4350(2) 0.52858(9)
C5 C 0.15254(14) 0.3336(2) 0.46160(10)
H3 H 0.1699 0.2185 0.4643
C6 C 0.09571(13) 0.4040(2) 0.39268(10)
H4 H 0.0735 0.3368 0.3471
C7 C 0.06927(12) 0.5758(2) 0.38796(9)
C8 C 0.00988(13) 0.6508(2) 0.31700(10)
H5 H -0.0136 0.5848 0.2711
C9 C -0.01419(13) 0.8166(2) 0.31355(10)
H6 H -0.0539 0.8650 0.2654
C10 C 0.01965(13) 0.9159(2) 0.38109(10)
H7 H 0.0022 1.0311 0.3784
C11 C 0.07775(12) 0.8476(2) 0.45079(10)
H8 H 0.1006 0.9164 0.4958
C12 C 0.10408(12) 0.6763(2) 0.45645(9)
C13 C 0.31576(12) 0.7967(2) 0.60169(9)
C14 C 0.41284(13) 0.7168(2) 0.58835(10)
H9 H 0.4101 0.6016 0.5766
C15 C 0.51441(14) 0.8056(2) 0.59213(11)
H10 H 0.5804 0.7501 0.5829
C16 C 0.52032(13) 0.9746(2) 0.60931(10)
C17 C 0.42229(13) 1.0539(2) 0.62070(10)
H11 H 0.4242 1.1696 0.6311
C18 C 0.32091(13) 0.9652(2) 0.61708(9)
H12 H 0.2544 1.0213 0.6253
C19 C 0.63520(15) 1.0653(3) 0.61825(11)
H13 H 0.6656 1.0408 0.5704
C20 C 0.72115(15) 0.9951(3) 0.68962(13)
H14 H 0.6941 1.0188 0.7376
H15 H 0.7966 1.0466 0.6933
H16 H 0.7276 0.8748 0.6836
C21 C 0.62650(17) 1.2522(3) 0.62478(13)
H17 H 0.6007 1.2803 0.6728
H18 H 0.5710 1.2950 0.5789
H19 H 0.7021 1.3021 0.6269
O1 O 0.25762(10) -0.14777(13) 0.90353(6)
O2 O 0.20549(10) -0.15627(14) 0.77362(7)
N1 N 0.27674(11) 0.08550(17) 0.83102(8)
H1 H 0.2701(14) 0.127(2) 0.7855(11)
C1 C 0.24453(13) -0.0726(2) 0.83161(10)
C2 C 0.29355(12) 0.19917(19) 0.89829(9)
H2 H 0.3550 0.2801 0.8931
C3 C 0.33615(12) 0.10047(19) 0.97203(9)
C4 C 0.31515(12) -0.0650(2) 0.97142(9)
C5 C 0.34746(14) -0.1664(2) 1.03840(10)
H3 H 0.3301 -0.2815 1.0357
C6 C 0.40429(13) -0.0960(2) 1.10732(10)
H4 H 0.4265 -0.1632 1.1529
C7 C 0.43073(12) 0.0758(2) 1.11204(9)
C8 C 0.49012(13) 0.1508(2) 1.18300(10)
H5 H 0.5136 0.0848 1.2289
C9 C 0.51419(13) 0.3166(2) 1.18645(10)
H6 H 0.5539 0.3650 1.2346
C10 C 0.48035(13) 0.4159(2) 1.11891(10)
H7 H 0.4978 0.5311 1.1216
C11 C 0.42225(12) 0.3476(2) 1.04921(10)
H8 H 0.3994 0.4164 1.0042
C12 C 0.39592(12) 0.1763(2) 1.04355(9)
C13 C 0.18424(12) 0.2967(2) 0.89831(9)
C14 C 0.08716(13) 0.2168(2) 0.91165(10)
H9 H 0.0899 0.1016 0.9234
C15 C -0.01441(14) 0.3056(2) 0.90787(11)
H10 H -0.0804 0.2501 0.9171
C16 C -0.02032(13) 0.4746(2) 0.89069(10)
C17 C 0.07771(13) 0.5539(2) 0.87930(10)
H11 H 0.0758 0.6696 0.8689
C18 C 0.17909(13) 0.4652(2) 0.88292(9)
H12 H 0.2456 0.5213 0.8747
C19 C -0.13520(15) 0.5653(3) 0.88175(11)
H13 H -0.1656 0.5408 0.9296
C20 C -0.22115(15) 0.4951(3) 0.81038(13)
H14 H -0.1941 0.5188 0.7624
H15 H -0.2966 0.5466 0.8067
H16 H -0.2276 0.3748 0.8164
C21 C -0.12650(17) 0.7522(3) 0.87522(13)
H17 H -0.1007 0.7803 0.8272
H18 H -0.0710 0.7950 0.9211
H19 H -0.2021 0.8021 0.8731
O1 O 0.75762(10) 0.64777(13) 0.40353(6)
O2 O 0.70549(10) 0.65627(14) 0.27362(7)
N1 N 0.77674(11) 0.41450(17) 0.33102(8)
H1 H 0.7701(14) 0.373(2) 0.2855(11)
C1 C 0.74453(13) 0.5726(2) 0.33161(10)
C2 C 0.79355(12) 0.30083(19) 0.39829(9)
H2 H 0.8550 0.2199 0.3931
C3 C 0.83615(12) 0.39953(19) 0.47203(9)
C4 C 0.81515(12) 0.5650(2) 0.47142(9)
C5 C 0.84746(14) 0.6664(2) 0.53840(10)
H3 H 0.8301 0.7815 0.5357
C6 C 0.90429(13) 0.5960(2) 0.60732(10)
H4 H 0.9265 0.6632 0.6529
C7 C 0.93073(12) 0.4242(2) 0.61204(9)
C8 C 0.99012(13) 0.3492(2) 0.68300(10)
H5 H 1.0136 0.4152 0.7289
C9 C 1.01419(13) 0.1834(2) 0.68645(10)
H6 H 1.0539 0.1350 0.7346
C10 C 0.98035(13) 0.0841(2) 0.61891(10)
H7 H 0.9978 -0.0311 0.6216
C11 C 0.92225(12) 0.1524(2) 0.54921(10)
H8 H 0.8994 0.0836 0.5042
C12 C 0.89592(12) 0.3237(2) 0.54355(9)
C13 C 0.68424(12) 0.2033(2) 0.39831(9)
C14 C 0.58716(13) 0.2832(2) 0.41165(10)
H9 H 0.5899 0.3984 0.4234
C15 C 0.48559(14) 0.1944(2) 0.40787(11)
H10 H 0.4196 0.2499 0.4171
C16 C 0.47968(13) 0.0254(2) 0.39069(10)
C17 C 0.57771(13) -0.0539(2) 0.37930(10)
H11 H 0.5758 -0.1696 0.3689
C18 C 0.67909(13) 0.0348(2) 0.38292(9)
H12 H 0.7456 -0.0213 0.3747
C19 C 0.36480(15) -0.0653(3) 0.38175(11)
H13 H 0.3344 -0.0408 0.4296
C20 C 0.27885(15) 0.0049(3) 0.31038(13)
H14 H 0.3059 -0.0188 0.2624
H15 H 0.2034 -0.0466 0.3067
H16 H 0.2724 0.1252 0.3164
C21 C 0.37350(17) -0.2522(3) 0.37522(13)
H17 H 0.3993 -0.2803 0.3272
H18 H 0.4290 -0.2950 0.4211
H19 H 0.2979 -0.3021 0.3731
O1 O 0.74238(10) 1.14777(13) 0.09647(6)
O2 O 0.79451(10) 1.15627(14) 0.22638(7)
N1 N 0.72326(11) 0.91450(17) 0.16898(8)
H1 H 0.7299(14) 0.873(2) 0.2145(11)
C1 C 0.75547(13) 1.0726(2) 0.16839(10)
C2 C 0.70645(12) 0.80083(19) 0.10171(9)
H2 H 0.6450 0.7199 0.1069
C3 C 0.66385(12) 0.89953(19) 0.02797(9)
C4 C 0.68485(12) 1.0650(2) 0.02858(9)
C5 C 0.65254(14) 1.1664(2) -0.03840(10)
H3 H 0.6699 1.2815 -0.0357
C6 C 0.59571(13) 1.0960(2) -0.10732(10)
H4 H 0.5735 1.1632 -0.1529
C7 C 0.56927(12) 0.9242(2) -0.11204(9)
C8 C 0.50988(13) 0.8492(2) -0.18300(10)
H5 H 0.4864 0.9152 -0.2289
C9 C 0.48581(13) 0.6834(2) -0.18645(10)
H6 H 0.4461 0.6350 -0.2346
C10 C 0.51965(13) 0.5841(2) -0.11891(10)
H7 H 0.5022 0.4689 -0.1216
C11 C 0.57775(12) 0.6524(2) -0.04921(10)
H8 H 0.6006 0.5836 -0.0042
C12 C 0.60408(12) 0.8237(2) -0.04355(9)
C13 C 0.81576(12) 0.7033(2) 0.10169(9)
C14 C 0.91284(13) 0.7832(2) 0.08835(10)
H9 H 0.9101 0.8984 0.0766
C15 C 1.01441(14) 0.6944(2) 0.09213(11)
H10 H 1.0804 0.7499 0.0829
C16 C 1.02032(13) 0.5254(2) 0.10931(10)
C17 C 0.92229(13) 0.4461(2) 0.12070(10)
H11 H 0.9242 0.3304 0.1311
C18 C 0.82091(13) 0.5348(2) 0.11708(9)
H12 H 0.7544 0.4787 0.1253
C19 C 1.13520(15) 0.4347(3) 0.11825(11)
H13 H 1.1656 0.4592 0.0704
C20 C 1.22115(15) 0.5049(3) 0.18962(13)
H14 H 1.1941 0.4812 0.2376
H15 H 1.2966 0.4534 0.1933
H16 H 1.2276 0.6252 0.1836
C21 C 1.12650(17) 0.2478(3) 0.12478(13)
H17 H 1.1007 0.2197 0.1728
H18 H 1.0710 0.2050 0.0789
H19 H 1.2021 0.1979 0.1269

#END
