./ABEJEZ_from_POSCAR.cif_generated_by_CrystalShift
_symmetry_cell_setting triclinic
_symmetry_space_group_name_H-M 'P 1'
loop_
_symmetry_equiv_pos_site_id
_symmetry_equiv_pos_as_xyz
1 x,y,z
_cell_length_a 8.032700
_cell_length_b 6.810500
_cell_length_c 29.052100
_cell_angle_alpha 90.000000
_cell_angle_beta 95.350000
_cell_angle_gamma 90.000000
_cell_volume 1582.420971
loop_
_atom_site_label
_atom_site_type_symbol
_atom_site_fract_x
_atom_site_fract_y
_atom_site_fract_z
H1 H -0.120100 1.089200 0.590300
H2 H -0.108700 0.890700 0.561300
H3 H 0.615100 1.533300 0.651500
H4 H 0.652600 1.402300 0.607900
H5 H 0.798800 1.530100 0.634400
H6 H 0.859100 0.730200 0.741700
H7 H 0.826100 0.875900 0.783100
H8 H 0.098500 0.782800 0.017500
H9 H 0.235600 0.772400 -0.019000
H10 H 0.219700 0.965700 0.011600
H11 H 1.005400 0.871300 0.763300
H12 H 0.588200 0.724300 0.066700
H13 H 0.532200 0.924200 0.040700
H14 H 0.542600 0.725200 0.011800
H15 H 0.419100 1.283600 0.637300
H16 H 0.576600 0.779400 0.740900
H17 H 0.299800 0.808300 0.710800
H18 H 0.077200 0.487800 0.173000
H19 H 0.123600 0.297100 0.144800
H20 H 0.123600 1.202900 0.644800
H21 H 0.077200 1.012200 0.673000
H22 H 0.299800 0.691700 0.210800
H23 H 0.542600 0.774800 0.511800
H24 H 0.576600 0.720600 0.240900
H25 H 0.532200 0.575800 0.540700
H26 H 0.588200 0.775700 0.566700
H27 H 0.219700 0.534300 0.511600
H28 H 0.419100 0.216400 0.137300
H29 H 0.235600 0.727600 0.481000
H30 H 0.098500 0.717200 0.517500
H31 H 1.005400 0.628700 0.263300
H32 H 0.826100 0.624100 0.283100
H33 H 0.859100 0.769800 0.241700
H34 H 1.120100 0.589200 0.909700
H35 H 1.135600 0.381100 0.884800
H36 H 0.798800 -0.030100 0.134400
H37 H 0.652600 0.097700 0.107900
H38 H 0.615100 -0.033300 0.151500
H39 H 1.108700 0.390700 0.938700
H40 H -0.108700 0.609300 0.061300
H41 H -0.135600 0.618900 0.115200
H42 H -0.120100 0.410800 0.090300
H43 H 0.384900 1.033300 0.848500
H44 H 0.347400 0.902300 0.892100
H45 H 0.201200 1.030100 0.865600
H46 H 0.140900 0.230200 0.758300
H47 H 0.173900 0.375900 0.716900
H48 H -0.005400 0.371300 0.736700
H49 H 0.580900 0.783600 0.862700
H50 H 0.901500 0.282800 0.482500
H51 H 0.764400 0.272400 0.519000
H52 H 0.780300 0.465700 0.488400
H53 H 0.423400 0.279400 0.759100
H54 H 0.411800 0.224300 0.433300
H55 H 0.467800 0.424200 0.459300
H56 H 0.457400 0.225200 0.488200
H57 H 0.700200 0.308300 0.789200
H58 H 0.876400 0.702900 0.855200
H59 H 0.922800 0.512200 0.827000
H60 H 0.922800 -0.012200 0.327000
H61 H 0.876400 -0.202900 0.355200
H62 H 0.457400 0.274800 0.988200
H63 H 0.467800 0.075800 0.959300
H64 H 0.700200 0.191700 0.289200
H65 H 0.411800 0.275700 0.933300
H66 H 0.423400 0.220600 0.259100
H67 H 0.780300 0.034300 0.988400
H68 H 0.764400 0.227600 1.019000
H69 H 0.901500 0.217200 0.982500
H70 H 0.580900 -0.283600 0.362700
H71 H 1.120100 -0.089200 0.409700
H72 H 1.135600 0.118900 0.384800
H73 H -0.005400 0.128700 0.236700
H74 H 0.173900 0.124100 0.216900
H75 H 0.140900 0.269800 0.258300
H76 H 1.108700 0.109300 0.438700
H77 H 0.384900 -0.533300 0.348500
H78 H 0.201200 -0.530100 0.365600
H79 H 0.347400 -0.402300 0.392100
H80 H -0.135600 0.881100 0.615200
C81 C 1.081000 0.047200 0.408510
C82 C 0.336400 0.738300 0.048120
C83 C 0.115400 0.140200 0.244750
C84 C -0.081000 0.952800 0.591490
C85 C 0.169300 0.760200 0.111810
C86 C 0.663600 0.261700 0.951880
C87 C 0.109500 0.551200 0.103480
C88 C 0.830700 0.239800 0.888190
C89 C 0.890500 0.448800 0.896520
C90 C 0.806500 0.558700 0.933490
C91 C 0.788400 0.177800 0.988670
C92 C 0.549100 -0.180500 0.341710
C93 C 0.383900 -0.164700 0.323440
C94 C 0.335500 -0.011100 0.293020
C95 C 0.484700 0.218200 0.958760
C96 C 0.454700 0.118300 0.280380
C97 C 0.619700 0.101000 0.298390
C98 C 0.669700 -0.046100 0.329550
C99 C 0.698700 1.451500 0.638090
C100 C 0.193500 0.441300 0.066510
C101 C 0.849400 0.562400 0.849910
C102 C 0.849400 -0.062400 0.349910
C103 C 0.211600 0.822200 0.011330
C104 C 0.669700 0.546100 0.829550
C105 C 0.619700 0.399000 0.798390
C106 C 0.515300 0.781800 0.041240
C107 C 0.454700 0.381700 0.780380
C108 C 0.484700 0.281800 0.458760
C109 C 0.335500 0.511100 0.793020
C110 C 0.383900 0.664700 0.823440
C111 C 0.549100 0.680500 0.841710
C112 C 0.788400 0.322200 0.488670
C113 C 0.884600 0.859800 0.755250
C114 C 0.115400 0.359800 0.744750
C115 C 0.806500 -0.058700 0.433490
C116 C 0.890500 0.051200 0.396520
C117 C 0.830700 0.260200 0.388190
C118 C 0.450900 1.180500 0.658290
C119 C 0.301300 0.951500 0.861910
C120 C 0.616100 1.164700 0.676560
C121 C 0.663600 0.238300 0.451880
C122 C 0.664500 1.011100 0.706980
C123 C 1.081000 0.452800 0.908510
C124 C -0.081000 0.547200 0.091490
C125 C 0.698700 0.048500 0.138090
C126 C 0.545300 0.881700 0.719620
C127 C 0.150600 0.437600 0.150090
C128 C 0.336400 0.761700 0.548120
C129 C 0.380300 0.899000 0.701610
C130 C 0.169300 0.739800 0.611810
C131 C 0.109500 0.948800 0.603480
C132 C 0.193500 1.058700 0.566510
C133 C 0.211600 0.677800 0.511330
C134 C 0.884600 0.640200 0.255250
C135 C 0.330300 1.046100 0.670450
C136 C 0.450900 0.319500 0.158290
C137 C 0.515300 0.718200 0.541240
C138 C 0.616100 0.335300 0.176560
C139 C 0.664500 0.488900 0.206980
C140 C 0.545300 0.618300 0.219620
C141 C 0.330300 0.453900 0.170450
C142 C 0.380300 0.601000 0.201610
C143 C 0.150600 1.062400 0.650090
C144 C 0.301300 -0.451500 0.361910
O145 O 0.108000 0.629600 0.637880
O146 O 0.831010 0.491600 0.222510
O147 O 0.307200 0.682000 0.592140
O148 O 0.323500 0.972600 0.548260
O149 O 0.741600 0.208800 0.167830
O150 O 0.155500 0.277600 0.054570
O151 O 0.676500 0.027400 0.451740
O152 O 0.692800 0.318000 0.407860
O153 O 0.258400 0.791200 0.832170
O154 O 0.108000 0.870400 0.137880
O155 O 0.831010 1.008400 0.722510
O156 O 0.168990 0.508400 0.777490
O157 O 0.892000 0.370400 0.362120
O158 O 0.844500 -0.222400 0.445430
O159 O 0.844500 0.722400 0.945430
O160 O 0.741600 1.291200 0.667830
O161 O 0.892000 0.129600 0.862120
O162 O 0.692800 0.182000 0.907860
O163 O 0.676500 0.472600 0.951740
O164 O 0.307200 0.818000 0.092140
O165 O 0.168990 -0.008400 0.277490
O166 O 0.258400 -0.291200 0.332170
O167 O 0.155500 1.222400 0.554570
O168 O 0.323500 0.527400 0.048260

#END
