
#######################################################################
#
#                 Cambridge Crystallographic Data Centre
#                                CCDC 
#
#######################################################################
#
# If this CIF has been generated from an entry in the Cambridge 
# Structural Database, then it will include bibliographic, chemical, 
# crystal, experimental, refinement or atomic coordinate data resulting 
# from the CCDC's data processing and validation procedures.
#
#######################################################################

data_ABEKUN01
_symmetry_cell_setting           monoclinic
_symmetry_space_group_name_H-M   'P 21/n'
_symmetry_Int_Tables_number      14
_space_group_name_Hall           '-P 2yn'
loop_
_symmetry_equiv_pos_site_id
_symmetry_equiv_pos_as_xyz
1 x,y,z
2 1/2-x,1/2+y,1/2-z
3 -x,-y,-z
4 1/2+x,1/2-y,1/2+z
_cell_length_a                   10.1465(10)
_cell_length_b                   7.1871(7)
_cell_length_c                   20.042(2)
_cell_angle_alpha                90
_cell_angle_beta                 94.797(5)
_cell_angle_gamma                90
_cell_volume                     1456.42
loop_
_atom_site_label
_atom_site_type_symbol
_atom_site_fract_x
_atom_site_fract_y
_atom_site_fract_z
O1 O 0.93157(11) 0.62071(16) 0.55378(5)
H1 H 1.0081 0.6658 0.5547
O2 O 0.54331(10) 0.64940(17) 0.66535(5)
H2 H 0.5158 0.6725 0.7029
C1 C 0.87414(15) 0.6729(2) 0.61015(7)
C2 C 0.74121(14) 0.6320(2) 0.61256(7)
H3 H 0.6950 0.5669 0.5766
C3 C 0.67528(15) 0.6861(2) 0.66745(7)
C4 C 0.74410(16) 0.7756(2) 0.72111(8)
H4 H 0.7001 0.8120 0.7590
C5 C 0.87771(16) 0.8109(2) 0.71850(8)
H5 H 0.9252 0.8701 0.7555
C6 C 0.94389(15) 0.7623(2) 0.66353(8)
H6 H 1.0353 0.7895 0.6623
O1 O 0.56843(11) 0.12071(16) 0.94622(5)
H1 H 0.4919 0.1658 0.9453
O2 O 0.95669(10) 0.14940(17) 0.83465(5)
H2 H 0.9842 0.1725 0.7971
C1 C 0.62586(15) 0.1729(2) 0.88985(7)
C2 C 0.75879(14) 0.1320(2) 0.88744(7)
H3 H 0.8050 0.0669 0.9234
C3 C 0.82472(15) 0.1861(2) 0.83255(7)
C4 C 0.75590(16) 0.2756(2) 0.77889(8)
H4 H 0.7999 0.3120 0.7410
C5 C 0.62229(16) 0.3109(2) 0.78150(8)
H5 H 0.5748 0.3701 0.7445
C6 C 0.55611(15) 0.2623(2) 0.83647(8)
H6 H 0.4647 0.2895 0.8377
O1 O 0.06843(11) 0.37929(16) 0.44622(5)
H1 H -0.0081 0.3342 0.4453
O2 O 0.45669(10) 0.35060(17) 0.33465(5)
H2 H 0.4842 0.3275 0.2971
C1 C 0.12586(15) 0.3271(2) 0.38985(7)
C2 C 0.25879(14) 0.3680(2) 0.38744(7)
H3 H 0.3050 0.4331 0.4234
C3 C 0.32472(15) 0.3139(2) 0.33255(7)
C4 C 0.25590(16) 0.2244(2) 0.27889(8)
H4 H 0.2999 0.1880 0.2410
C5 C 0.12229(16) 0.1891(2) 0.28150(8)
H5 H 0.0748 0.1299 0.2445
C6 C 0.05611(15) 0.2377(2) 0.33647(8)
H6 H -0.0353 0.2105 0.3377
O1 O 0.43157(11) 0.87929(16) 0.05378(5)
H1 H 0.5081 0.8342 0.0547
O2 O 0.04331(10) 0.85060(17) 0.16535(5)
H2 H 0.0158 0.8275 0.2029
C1 C 0.37414(15) 0.8271(2) 0.11015(7)
C2 C 0.24121(14) 0.8680(2) 0.11256(7)
H3 H 0.1950 0.9331 0.0766
C3 C 0.17528(15) 0.8139(2) 0.16745(7)
C4 C 0.24410(16) 0.7244(2) 0.22111(8)
H4 H 0.2001 0.6880 0.2590
C5 C 0.37771(16) 0.6891(2) 0.21850(8)
H5 H 0.4252 0.6299 0.2555
C6 C 0.44389(15) 0.7377(2) 0.16353(8)
H6 H 0.5353 0.7105 0.1623
N1 N 0.17087(13) 0.78252(19) 0.53137(7)
N2 N 0.90742(13) 0.80203(18) 0.27599(6)
C7 C 0.15543(16) 0.8645(2) 0.47144(8)
H7 H 0.0700 0.9093 0.4564
C8 C 0.25633(16) 0.8879(2) 0.42998(8)
H8 H 0.2393 0.9460 0.3876
C9 C 0.38310(15) 0.8260(2) 0.45078(7)
C10 C 0.40052(15) 0.7460(2) 0.51444(8)
H9 H 0.4856 0.7049 0.5318
C11 C 0.29377(16) 0.7271(2) 0.55186(8)
H10 H 0.3080 0.6713 0.5948
C12 C 0.48813(15) 0.8438(2) 0.40523(8)
H11 H 0.4646 0.9011 0.3632
C13 C 0.61244(16) 0.7883(2) 0.41650(8)
H12 H 0.6383 0.7370 0.4593
C14 C 0.71357(15) 0.7994(2) 0.36855(7)
C15 C 0.69199(16) 0.8870(2) 0.30627(8)
H13 H 0.6104 0.9478 0.2941
C16 C 0.78984(16) 0.8842(2) 0.26286(8)
H14 H 0.7729 0.9445 0.2208
C17 C 0.83691(15) 0.7178(2) 0.38301(8)
H15 H 0.8578 0.6597 0.4251
C18 C 0.92905(15) 0.7214(2) 0.33612(8)
H16 H 1.0122 0.6636 0.3471
N1 N 1.32913(13) 0.28252(19) -0.03137(7)
N2 N 0.59258(13) 0.30203(18) 0.22401(6)
C7 C 1.34457(16) 0.3645(2) 0.02856(8)
H7 H 1.4300 0.4093 0.0436
C8 C 1.24367(16) 0.3879(2) 0.07002(8)
H8 H 1.2607 0.4460 0.1124
C9 C 1.11690(15) 0.3260(2) 0.04922(7)
C10 C 1.09948(15) 0.2460(2) -0.01444(8)
H9 H 1.0144 0.2049 -0.0318
C11 C 1.20623(16) 0.2271(2) -0.05186(8)
H10 H 1.1920 0.1713 -0.0948
C12 C 1.01187(15) 0.3438(2) 0.09477(8)
H11 H 1.0354 0.4011 0.1368
C13 C 0.88756(16) 0.2883(2) 0.08350(8)
H12 H 0.8617 0.2370 0.0407
C14 C 0.78643(15) 0.2994(2) 0.13145(7)
C15 C 0.80801(16) 0.3870(2) 0.19373(8)
H13 H 0.8896 0.4478 0.2059
C16 C 0.71016(16) 0.3842(2) 0.23714(8)
H14 H 0.7271 0.4445 0.2792
C17 C 0.66309(15) 0.2178(2) 0.11699(8)
H15 H 0.6422 0.1597 0.0749
C18 C 0.57095(15) 0.2214(2) 0.16388(8)
H16 H 0.4878 0.1636 0.1529
N1 N 0.82913(13) 0.21748(19) 0.46863(7)
N2 N 0.09258(13) 0.19797(18) 0.72401(6)
C7 C 0.84457(16) 0.1355(2) 0.52856(8)
H7 H 0.9300 0.0907 0.5436
C8 C 0.74367(16) 0.1121(2) 0.57002(8)
H8 H 0.7607 0.0540 0.6124
C9 C 0.61690(15) 0.1740(2) 0.54922(7)
C10 C 0.59948(15) 0.2540(2) 0.48556(8)
H9 H 0.5144 0.2951 0.4682
C11 C 0.70623(16) 0.2729(2) 0.44814(8)
H10 H 0.6920 0.3287 0.4052
C12 C 0.51187(15) 0.1562(2) 0.59477(8)
H11 H 0.5354 0.0989 0.6368
C13 C 0.38756(16) 0.2117(2) 0.58350(8)
H12 H 0.3617 0.2630 0.5407
C14 C 0.28643(15) 0.2006(2) 0.63145(7)
C15 C 0.30801(16) 0.1130(2) 0.69373(8)
H13 H 0.3896 0.0522 0.7059
C16 C 0.21016(16) 0.1158(2) 0.73714(8)
H14 H 0.2271 0.0555 0.7792
C17 C 0.16309(15) 0.2822(2) 0.61699(8)
H15 H 0.1422 0.3403 0.5749
C18 C 0.07095(15) 0.2786(2) 0.66388(8)
H16 H -0.0122 0.3364 0.6529
N1 N -0.32913(13) 0.71748(19) 1.03137(7)
N2 N 0.40742(13) 0.69797(18) 0.77599(6)
C7 C -0.34457(16) 0.6355(2) 0.97144(8)
H7 H -0.4300 0.5907 0.9564
C8 C -0.24367(16) 0.6121(2) 0.92998(8)
H8 H -0.2607 0.5540 0.8876
C9 C -0.11690(15) 0.6740(2) 0.95078(7)
C10 C -0.09948(15) 0.7540(2) 1.01444(8)
H9 H -0.0144 0.7951 1.0318
C11 C -0.20623(16) 0.7729(2) 1.05186(8)
H10 H -0.1920 0.8287 1.0948
C12 C -0.01187(15) 0.6562(2) 0.90523(8)
H11 H -0.0354 0.5989 0.8632
C13 C 0.11244(16) 0.7117(2) 0.91650(8)
H12 H 0.1383 0.7630 0.9593
C14 C 0.21357(15) 0.7006(2) 0.86855(7)
C15 C 0.19199(16) 0.6130(2) 0.80627(8)
H13 H 0.1104 0.5522 0.7941
C16 C 0.28984(16) 0.6158(2) 0.76286(8)
H14 H 0.2729 0.5555 0.7208
C17 C 0.33691(15) 0.7822(2) 0.88301(8)
H15 H 0.3578 0.8403 0.9251
C18 C 0.42905(15) 0.7786(2) 0.83612(8)
H16 H 0.5122 0.8364 0.8471

#END
