./ABEKUN01_from_POSCAR.cif_generated_by_CrystalShift
_symmetry_cell_setting triclinic
_symmetry_space_group_name_H-M 'P 1'
loop_
_symmetry_equiv_pos_site_id
_symmetry_equiv_pos_as_xyz
1 x,y,z
_cell_length_a 10.146500
_cell_length_b 7.187100
_cell_length_c 20.042000
_cell_angle_alpha 90.000000
_cell_angle_beta 94.797000
_cell_angle_gamma 90.000000
_cell_volume 1456.421579
loop_
_atom_site_label
_atom_site_type_symbol
_atom_site_fract_x
_atom_site_fract_y
_atom_site_fract_z
H1 H 0.512200 0.836400 0.847100
H2 H 1.008100 0.665800 0.554700
H3 H -0.430000 0.590700 0.956400
H4 H 0.515800 0.672500 0.702900
H5 H -0.014400 0.795100 1.031800
H6 H -0.012200 0.336400 0.652900
H7 H 0.695000 0.566900 0.576600
H8 H 0.142200 0.340300 0.574900
H9 H 0.227100 0.055500 0.779200
H10 H 0.700100 0.812000 0.759000
H11 H 0.389600 0.052200 0.705900
H12 H 0.925200 0.870100 0.755500
H13 H 0.361700 0.263000 0.540700
H14 H 1.035300 0.789500 0.662300
H15 H 0.357800 0.840300 0.925100
H16 H 0.491900 0.165800 0.945300
H17 H 0.535400 0.098900 0.636800
H18 H 0.984200 0.172500 0.797100
H19 H 0.692000 0.328700 0.405200
H20 H 0.514400 0.295100 0.468200
H21 H 0.805000 0.066900 0.923400
H22 H 0.760700 0.054000 0.612400
H23 H 0.930000 0.090700 0.543600
H24 H 0.799900 0.312000 0.741000
H25 H -0.192000 0.828700 1.094800
H26 H 0.574800 0.370100 0.744500
H27 H 0.487800 0.163600 0.152900
H28 H 0.464700 0.289500 0.837700
H29 H 0.272900 0.555500 0.720800
H30 H -0.008100 0.334200 0.445300
H31 H 0.642200 0.159700 0.074900
H32 H 0.484200 0.327500 0.297100
H33 H 0.727100 0.444500 0.279200
H34 H 0.889600 0.447800 0.205900
H35 H 0.305000 0.433100 0.423400
H36 H 0.861700 0.237000 0.040700
H37 H 1.035400 0.401100 0.136800
H38 H 0.299900 0.188000 0.241000
H39 H 1.192000 0.171300 -0.094800
H40 H 0.074800 0.129900 0.244500
H41 H 1.014400 0.204900 -0.031800
H42 H -0.035300 0.210500 0.337700
H43 H 0.110400 0.552200 0.794100
H44 H 0.508100 0.834200 0.054700
H45 H 1.260700 0.446000 0.112400
H46 H 0.015800 0.827500 0.202900
H47 H 1.430000 0.409300 0.043600
H48 H -0.035400 0.598900 0.863200
H49 H 0.195000 0.933100 0.076600
H50 H 1.012200 0.663600 0.347100
H51 H 0.857800 0.659700 0.425100
H52 H 0.200100 0.688000 0.259000
H53 H 0.772900 0.944500 0.220800
H54 H 0.425200 0.629900 0.255500
H55 H 0.610400 0.947800 0.294100
H56 H 0.535300 0.710500 0.162300
H57 H 0.638300 0.737000 0.459300
H58 H 0.138300 0.763000 0.959300
H59 H 0.464600 0.901100 0.363200
H60 H 0.070000 0.909300 0.456400
H61 H -0.260700 0.554000 0.887600
H62 H 0.239300 0.946000 0.387600
H63 H 0.308000 0.671300 0.594800
H64 H 0.485600 0.704900 0.531800
C65 C 0.400520 0.746000 0.514440
C66 C 0.293770 0.727100 0.551860
C67 C 0.383100 0.826000 0.450780
C68 C 0.256330 0.887900 0.429980
C69 C 0.155430 0.864500 0.471440
C70 C 0.612440 0.788300 0.416500
C71 C 0.213570 0.700600 0.868550
C72 C 0.713570 0.799400 0.368550
C73 C 0.691990 0.887000 0.306270
C74 C 0.443890 0.737700 0.163530
C75 C 0.789840 0.884200 0.262860
C76 C 0.377710 0.689100 0.218500
C77 C 0.836910 0.717800 0.383010
C78 C 0.244100 0.724400 0.221110
C79 C 0.929050 0.721400 0.336120
C80 C 0.175280 0.813900 0.167450
C81 C 0.112440 0.711700 0.916500
C82 C 0.241210 0.868000 0.112560
C83 C 1.344570 0.364500 0.028560
C84 C 0.374140 0.827100 0.110150
C85 C 1.243670 0.387900 0.070020
C86 C 0.191990 0.613000 0.806270
C87 C 1.116900 0.326000 0.049220
C88 C 1.099480 0.246000 -0.014440
C89 C 0.056110 0.237700 0.336470
C90 C 1.206230 0.227100 -0.051860
C91 C 0.122290 0.189100 0.281500
C92 C 1.011870 0.343800 0.094770
C93 C 0.255900 0.224400 0.278890
C94 C 0.887560 0.288300 0.083500
C95 C 0.324720 0.313900 0.332550
C96 C 0.786430 0.299400 0.131450
C97 C 0.808010 0.387000 0.193730
C98 C 0.258790 0.368000 0.387440
C99 C 0.710160 0.384200 0.237140
C100 C 0.125860 0.327100 0.389850
C101 C 0.663090 0.217800 0.116990
C102 C 0.289840 0.615800 0.762860
C103 C 0.570950 0.221400 0.163880
C104 C 0.556110 0.262300 0.836470
C105 C -0.011870 0.656200 0.905230
C106 C 0.622290 0.310900 0.781500
C107 C 0.844570 0.135500 0.528560
C108 C 0.755900 0.275600 0.778890
C109 C 0.743670 0.112100 0.570020
C110 C 0.824720 0.186100 0.832550
C111 C 0.616900 0.174000 0.549220
C112 C 0.599480 0.254000 0.485560
C113 C 0.758790 0.132000 0.887440
C114 C 0.706230 0.272900 0.448140
C115 C 0.625860 0.172900 0.889850
C116 C 0.511870 0.156200 0.594770
C117 C 0.336910 0.782200 0.883010
C118 C 0.387560 0.211700 0.583500
C119 C 0.943890 0.762300 0.663530
C120 C 0.286430 0.200600 0.631450
C121 C 0.308010 0.113000 0.693730
C122 C 0.877710 0.810900 0.718500
C123 C 0.210160 0.115800 0.737140
C124 C 0.744100 0.775600 0.721110
C125 C 0.163090 0.282200 0.616990
C126 C 0.675280 0.686100 0.667450
C127 C 0.070950 0.278600 0.663880
C128 C 0.741210 0.632000 0.612560
C129 C -0.206230 0.772900 1.051860
C130 C 0.874140 0.672900 0.610150
C131 C -0.344570 0.635500 0.971440
C132 C 0.429050 0.778600 0.836120
C133 C -0.243670 0.612100 0.929980
C134 C 0.488130 0.843800 0.405230
C135 C -0.116900 0.674000 0.950780
C136 C -0.099480 0.754000 1.014440
N137 N -0.329130 0.717480 1.031370
N138 N 0.092580 0.197970 0.724010
N139 N 0.829130 0.217480 0.468630
N140 N 0.592580 0.302030 0.224010
N141 N 1.329130 0.282520 -0.031370
N142 N 0.907420 0.802030 0.275990
N143 N 0.170870 0.782520 0.531370
N144 N 0.407420 0.697970 0.775990
O145 O 0.043310 0.850600 0.165350
O146 O 0.431570 0.879290 0.053780
O147 O 0.456690 0.350600 0.334650
O148 O 0.068430 0.379290 0.446220
O149 O 0.956690 0.149400 0.834650
O150 O 0.568430 0.120710 0.946220
O151 O 0.543310 0.649400 0.665350
O152 O 0.931570 0.620710 0.553780

#END
