
#######################################################################
#
#                 Cambridge Crystallographic Data Centre
#                                CCDC 
#
#######################################################################
#
# If this CIF has been generated from an entry in the Cambridge 
# Structural Database, then it will include bibliographic, chemical, 
# crystal, experimental, refinement or atomic coordinate data resulting 
# from the CCDC's data processing and validation procedures.
#
#######################################################################

data_ABEKEZ
_symmetry_cell_setting           monoclinic
_symmetry_space_group_name_H-M   'P n'
_symmetry_Int_Tables_number      7
_space_group_name_Hall           'P -2yac'
loop_
_symmetry_equiv_pos_site_id
_symmetry_equiv_pos_as_xyz
1 x,y,z
2 1/2+x,-y,1/2+z
_cell_length_a                   10.5615(12)
_cell_length_b                   8.3727(9)
_cell_length_c                   11.8537(12)
_cell_angle_alpha                90
_cell_angle_beta                 108.972(2)
_cell_angle_gamma                90
_cell_volume                     991.261
loop_
_atom_site_label
_atom_site_type_symbol
_atom_site_fract_x
_atom_site_fract_y
_atom_site_fract_z
O1 O 0.0409(3) -0.0771(3) 0.3293(3)
O2 O 0.4760(2) 0.2080(3) 0.2744(2)
O3 O 0.3337(2) 0.2848(3) 0.09635(19)
O4 O 0.6703(3) 0.1437(3) 0.1728(2)
H1 H 0.6538 0.0901 0.2243
O5 O 0.1577(2) 0.0882(2) -0.14337(19)
O6 O 0.2286(2) -0.0498(2) 0.02638(19)
C1 C 0.1344(3) 0.1133(4) 0.2376(3)
H2 H 0.1845 0.1570 0.3106
C2 C 0.0554(4) -0.0273(4) 0.2378(4)
C3 C 0.0026(4) -0.1133(5) 0.1227(4)
H3 H -0.0717 -0.1804 0.1242
H4 H 0.0720 -0.1821 0.1127
C4 C -0.0439(3) -0.0011(4) 0.0183(3)
H5 H -0.1266 0.0484 0.0192
H6 H -0.0644 -0.0636 -0.0544
C5 C 0.0559(3) 0.1338(3) 0.0129(3)
C6 C 0.1392(3) 0.1838(3) 0.1379(3)
C7 C 0.2295(3) 0.3262(4) 0.1478(3)
H7 H 0.2701 0.3569 0.2316
C8 C 0.1573(4) 0.4662(4) 0.0760(3)
H8 H 0.2218 0.5481 0.0746
H9 H 0.0964 0.5110 0.1136
C9 C 0.0788(4) 0.4174(4) -0.0517(3)
H10 H 0.1407 0.3823 -0.0916
H11 H 0.0306 0.5094 -0.0944
C10 C -0.0210(3) 0.2827(4) -0.0552(3)
C11 C 0.4522(4) 0.2341(4) 0.1709(3)
C12 C 0.5537(3) 0.2235(4) 0.1040(3)
H12 H 0.5136 0.1653 0.0291
C13 C 0.5856(3) 0.3907(4) 0.0766(3)
C14 C 0.6661(3) 0.4868(4) 0.1653(3)
H13 H 0.7058 0.4462 0.2417
C15 C 0.6876(4) 0.6433(4) 0.1407(4)
H14 H 0.7406 0.7081 0.2015
C16 C 0.6333(4) 0.7046(4) 0.0295(4)
H15 H 0.6499 0.8100 0.0138
C17 C 0.5531(4) 0.6090(5) -0.0600(4)
H16 H 0.5154 0.6493 -0.1368
C18 C 0.5291(3) 0.4538(4) -0.0353(3)
H17 H 0.4736 0.3903 -0.0956
C19 C 0.1515(3) 0.0596(4) -0.0470(3)
C20 C 0.3200(4) -0.1363(4) -0.0205(3)
H18 H 0.2701 -0.2080 -0.0821
H19 H 0.3822 -0.1961 0.0426
H20 H 0.3682 -0.0619 -0.0529
C21 C -0.0997(4) 0.2456(5) -0.1872(3)
H21 H -0.1594 0.3324 -0.2210
H22 H -0.1504 0.1493 -0.1919
H23 H -0.0381 0.2321 -0.2308
C22 C -0.1229(4) 0.3412(5) 0.0039(4)
H24 H -0.0811 0.3442 0.0889
H25 H -0.1979 0.2695 -0.0157
H26 H -0.1533 0.4464 -0.0246
O1 O 0.5409(3) 1.0771(3) 0.8293(3)
O2 O 0.9760(2) 0.7920(3) 0.7744(2)
O3 O 0.8337(2) 0.7152(3) 0.59635(19)
O4 O 1.1703(3) 0.8563(3) 0.6728(2)
H1 H 1.1538 0.9099 0.7243
O5 O 0.6577(2) 0.9118(2) 0.35663(19)
O6 O 0.7286(2) 1.0498(2) 0.52638(19)
C1 C 0.6344(3) 0.8867(4) 0.7376(3)
H2 H 0.6845 0.8430 0.8106
C2 C 0.5554(4) 1.0273(4) 0.7378(4)
C3 C 0.5026(4) 1.1133(5) 0.6227(4)
H3 H 0.4283 1.1804 0.6242
H4 H 0.5720 1.1821 0.6127
C4 C 0.4561(3) 1.0011(4) 0.5183(3)
H5 H 0.3734 0.9516 0.5192
H6 H 0.4356 1.0636 0.4456
C5 C 0.5559(3) 0.8662(3) 0.5129(3)
C6 C 0.6392(3) 0.8162(3) 0.6379(3)
C7 C 0.7295(3) 0.6738(4) 0.6478(3)
H7 H 0.7701 0.6431 0.7316
C8 C 0.6573(4) 0.5338(4) 0.5760(3)
H8 H 0.7218 0.4519 0.5746
H9 H 0.5964 0.4890 0.6136
C9 C 0.5788(4) 0.5826(4) 0.4483(3)
H10 H 0.6407 0.6177 0.4084
H11 H 0.5306 0.4906 0.4056
C10 C 0.4790(3) 0.7173(4) 0.4448(3)
C11 C 0.9522(4) 0.7659(4) 0.6709(3)
C12 C 1.0537(3) 0.7765(4) 0.6040(3)
H12 H 1.0136 0.8347 0.5291
C13 C 1.0856(3) 0.6093(4) 0.5766(3)
C14 C 1.1661(3) 0.5132(4) 0.6653(3)
H13 H 1.2058 0.5538 0.7417
C15 C 1.1876(4) 0.3567(4) 0.6407(4)
H14 H 1.2406 0.2919 0.7015
C16 C 1.1333(4) 0.2954(4) 0.5295(4)
H15 H 1.1499 0.1900 0.5138
C17 C 1.0531(4) 0.3910(5) 0.4400(4)
H16 H 1.0154 0.3507 0.3632
C18 C 1.0291(3) 0.5462(4) 0.4647(3)
H17 H 0.9736 0.6097 0.4044
C19 C 0.6515(3) 0.9404(4) 0.4530(3)
C20 C 0.8200(4) 1.1363(4) 0.4795(3)
H18 H 0.7701 1.2080 0.4179
H19 H 0.8822 1.1961 0.5426
H20 H 0.8682 1.0619 0.4471
C21 C 0.4003(4) 0.7544(5) 0.3128(3)
H21 H 0.3406 0.6676 0.2790
H22 H 0.3496 0.8507 0.3081
H23 H 0.4619 0.7679 0.2692
C22 C 0.3771(4) 0.6588(5) 0.5039(4)
H24 H 0.4189 0.6558 0.5889
H25 H 0.3021 0.7305 0.4843
H26 H 0.3467 0.5536 0.4754

#END
