
#######################################################################
#
#                 Cambridge Crystallographic Data Centre
#                                CCDC 
#
#######################################################################
#
# If this CIF has been generated from an entry in the Cambridge 
# Structural Database, then it will include bibliographic, chemical, 
# crystal, experimental, refinement or atomic coordinate data resulting 
# from the CCDC's data processing and validation procedures.
#
#######################################################################

data_ABELEY
_symmetry_cell_setting           monoclinic
_symmetry_space_group_name_H-M   'P 21/c'
_symmetry_Int_Tables_number      14
_space_group_name_Hall           '-P 2ybc'
loop_
_symmetry_equiv_pos_site_id
_symmetry_equiv_pos_as_xyz
1 x,y,z
2 -x,1/2+y,1/2-z
3 -x,-y,-z
4 x,1/2-y,1/2+z
_cell_length_a                   9.573(1)
_cell_length_b                   11.389(1)
_cell_length_c                   15.039(1)
_cell_angle_alpha                90
_cell_angle_beta                 94.317(1)
_cell_angle_gamma                90
_cell_volume                     1635
loop_
_atom_site_label
_atom_site_type_symbol
_atom_site_fract_x
_atom_site_fract_y
_atom_site_fract_z
O1 O 0.3296(1) 0.1423(1) -0.0891(1)
O2 O 0.2547(1) 0.0611(1) 0.2164(1)
O3 O 0.4236(1) 0.4348(1) 0.1270(1)
C1 C 0.3321(2) 0.1748(1) -0.0018(1)
C2 C 0.2946(1) 0.0964(1) 0.0632(1)
C3 C 0.2957(1) 0.1333(1) 0.1510(1)
C4 C 0.3386(1) 0.2462(1) 0.1761(1)
C5 C 0.3774(1) 0.3219(1) 0.1100(1)
C6 C 0.3731(2) 0.2881(1) 0.0210(1)
C7 C 0.4266(2) 0.4746(1) 0.2171(1)
H1 H 0.2954(16) 0.0746(6) -0.0952(2)
H2 H 0.2241(16) -0.0021(6) 0.1936(1)
H3 H 0.2684(1) 0.0183(1) 0.0475(1)
H4 H 0.3412(1) 0.2706(1) 0.2366(1)
H5 H 0.3979(2) 0.3419(1) -0.0235(1)
H6 H 0.4611(2) 0.5556(1) 0.2207(1)
H7 H 0.4889(2) 0.4240(1) 0.2550(1)
H8 H 0.3318(2) 0.4715(1) 0.2376(1)
O1 O 0.6704(1) 0.6423(1) 0.5891(1)
O2 O 0.7453(1) 0.5611(1) 0.2836(1)
O3 O 0.5764(1) 0.9348(1) 0.3730(1)
C1 C 0.6679(2) 0.6748(1) 0.5018(1)
C2 C 0.7054(1) 0.5964(1) 0.4368(1)
C3 C 0.7043(1) 0.6333(1) 0.3490(1)
C4 C 0.6614(1) 0.7462(1) 0.3239(1)
C5 C 0.6226(1) 0.8219(1) 0.3900(1)
C6 C 0.6269(2) 0.7881(1) 0.4790(1)
C7 C 0.5734(2) 0.9746(1) 0.2829(1)
H1 H 0.7046(16) 0.5746(6) 0.5952(2)
H2 H 0.7759(16) 0.4979(6) 0.3064(1)
H3 H 0.7316(1) 0.5183(1) 0.4525(1)
H4 H 0.6588(1) 0.7706(1) 0.2634(1)
H5 H 0.6021(2) 0.8419(1) 0.5235(1)
H6 H 0.5389(2) 1.0556(1) 0.2793(1)
H7 H 0.5111(2) 0.9240(1) 0.2450(1)
H8 H 0.6682(2) 0.9715(1) 0.2624(1)
O1 O 0.6704(1) 0.8577(1) 1.0891(1)
O2 O 0.7453(1) 0.9389(1) 0.7836(1)
O3 O 0.5764(1) 0.5652(1) 0.8730(1)
C1 C 0.6679(2) 0.8252(1) 1.0018(1)
C2 C 0.7054(1) 0.9036(1) 0.9368(1)
C3 C 0.7043(1) 0.8667(1) 0.8490(1)
C4 C 0.6614(1) 0.7538(1) 0.8239(1)
C5 C 0.6226(1) 0.6781(1) 0.8900(1)
C6 C 0.6269(2) 0.7119(1) 0.9790(1)
C7 C 0.5734(2) 0.5254(1) 0.7829(1)
H1 H 0.7046(16) 0.9254(6) 1.0952(2)
H2 H 0.7759(16) 1.0021(6) 0.8064(1)
H3 H 0.7316(1) 0.9817(1) 0.9525(1)
H4 H 0.6588(1) 0.7294(1) 0.7634(1)
H5 H 0.6021(2) 0.6581(1) 1.0235(1)
H6 H 0.5389(2) 0.4444(1) 0.7793(1)
H7 H 0.5111(2) 0.5760(1) 0.7450(1)
H8 H 0.6682(2) 0.5285(1) 0.7624(1)
O1 O 0.3296(1) 0.3577(1) 0.4109(1)
O2 O 0.2547(1) 0.4389(1) 0.7164(1)
O3 O 0.4236(1) 0.0652(1) 0.6270(1)
C1 C 0.3321(2) 0.3252(1) 0.4982(1)
C2 C 0.2946(1) 0.4036(1) 0.5632(1)
C3 C 0.2957(1) 0.3667(1) 0.6510(1)
C4 C 0.3386(1) 0.2538(1) 0.6761(1)
C5 C 0.3774(1) 0.1781(1) 0.6100(1)
C6 C 0.3731(2) 0.2119(1) 0.5210(1)
C7 C 0.4266(2) 0.0254(1) 0.7171(1)
H1 H 0.2954(16) 0.4254(6) 0.4048(2)
H2 H 0.2241(16) 0.5021(6) 0.6936(1)
H3 H 0.2684(1) 0.4817(1) 0.5475(1)
H4 H 0.3412(1) 0.2294(1) 0.7366(1)
H5 H 0.3979(2) 0.1581(1) 0.4765(1)
H6 H 0.4611(2) -0.0556(1) 0.7207(1)
H7 H 0.4889(2) 0.0760(1) 0.7550(1)
H8 H 0.3318(2) 0.0285(1) 0.7376(1)
N1 N 0.2123(1) 0.9167(1) 0.8927(1)
N2 N -0.1512(1) 0.1481(1) 0.8508(1)
C8 C 0.0810(2) 0.8833(1) 0.9061(1)
C9 C 0.0360(2) 0.7688(1) 0.9036(1)
C10 C 0.1290(2) 0.6793(1) 0.8853(1)
C11 C 0.2654(2) 0.7134(1) 0.8724(1)
C12 C 0.3021(2) 0.8305(1) 0.8772(1)
C13 C 0.0912(2) 0.5548(1) 0.8781(1)
C14 C -0.0337(2) 0.5081(1) 0.8888(1)
C15 C -0.0701(2) 0.3834(1) 0.8776(1)
C16 C -0.2024(2) 0.3438(1) 0.8958(1)
C17 C -0.2383(2) 0.2277(1) 0.8814(1)
C18 C -0.0229(2) 0.1854(1) 0.8354(1)
C19 C 0.0219(2) 0.2996(1) 0.8474(1)
H9 H 0.0152(2) 0.9426(1) 0.9181(1)
H10 H -0.0582(2) 0.7507(1) 0.9143(1)
H11 H 0.3335(2) 0.6560(1) 0.8603(1)
H12 H 0.3965(2) 0.8511(1) 0.8690(1)
H13 H 0.1634(2) 0.5021(1) 0.8645(1)
H14 H -0.1054(2) 0.5597(1) 0.9052(1)
H15 H -0.2681(2) 0.3967(1) 0.9180(1)
H16 H -0.3295(2) 0.2030(1) 0.8940(1)
H17 H 0.0413(2) 0.1297(1) 0.8149(1)
H18 H 0.1144(2) 0.3212(1) 0.8352(1)
N1 N 0.7877(1) 0.4167(1) 0.6073(1)
N2 N 1.1512(1) -0.3519(1) 0.6492(1)
C8 C 0.9190(2) 0.3833(1) 0.5939(1)
C9 C 0.9640(2) 0.2688(1) 0.5964(1)
C10 C 0.8710(2) 0.1793(1) 0.6147(1)
C11 C 0.7346(2) 0.2134(1) 0.6276(1)
C12 C 0.6979(2) 0.3305(1) 0.6228(1)
C13 C 0.9088(2) 0.0548(1) 0.6219(1)
C14 C 1.0337(2) 0.0081(1) 0.6112(1)
C15 C 1.0701(2) -0.1166(1) 0.6224(1)
C16 C 1.2024(2) -0.1562(1) 0.6042(1)
C17 C 1.2383(2) -0.2723(1) 0.6186(1)
C18 C 1.0229(2) -0.3146(1) 0.6646(1)
C19 C 0.9781(2) -0.2004(1) 0.6526(1)
H9 H 0.9848(2) 0.4426(1) 0.5819(1)
H10 H 1.0582(2) 0.2507(1) 0.5857(1)
H11 H 0.6665(2) 0.1560(1) 0.6397(1)
H12 H 0.6035(2) 0.3511(1) 0.6310(1)
H13 H 0.8366(2) 0.0021(1) 0.6355(1)
H14 H 1.1054(2) 0.0597(1) 0.5948(1)
H15 H 1.2681(2) -0.1033(1) 0.5820(1)
H16 H 1.3295(2) -0.2970(1) 0.6060(1)
H17 H 0.9587(2) -0.3703(1) 0.6851(1)
H18 H 0.8856(2) -0.1788(1) 0.6648(1)
N1 N 0.7877(1) 0.0833(1) 0.1073(1)
N2 N 1.1512(1) 0.8519(1) 0.1492(1)
C8 C 0.9190(2) 0.1167(1) 0.0939(1)
C9 C 0.9640(2) 0.2312(1) 0.0964(1)
C10 C 0.8710(2) 0.3207(1) 0.1147(1)
C11 C 0.7346(2) 0.2866(1) 0.1276(1)
C12 C 0.6979(2) 0.1695(1) 0.1228(1)
C13 C 0.9088(2) 0.4452(1) 0.1219(1)
C14 C 1.0337(2) 0.4919(1) 0.1112(1)
C15 C 1.0701(2) 0.6166(1) 0.1224(1)
C16 C 1.2024(2) 0.6562(1) 0.1042(1)
C17 C 1.2383(2) 0.7723(1) 0.1186(1)
C18 C 1.0229(2) 0.8146(1) 0.1646(1)
C19 C 0.9781(2) 0.7004(1) 0.1526(1)
H9 H 0.9848(2) 0.0574(1) 0.0819(1)
H10 H 1.0582(2) 0.2493(1) 0.0857(1)
H11 H 0.6665(2) 0.3440(1) 0.1397(1)
H12 H 0.6035(2) 0.1489(1) 0.1310(1)
H13 H 0.8366(2) 0.4979(1) 0.1355(1)
H14 H 1.1054(2) 0.4403(1) 0.0948(1)
H15 H 1.2681(2) 0.6033(1) 0.0820(1)
H16 H 1.3295(2) 0.7970(1) 0.1060(1)
H17 H 0.9587(2) 0.8703(1) 0.1851(1)
H18 H 0.8856(2) 0.6788(1) 0.1648(1)
N1 N 0.2123(1) 0.5833(1) 0.3927(1)
N2 N -0.1512(1) 1.3519(1) 0.3508(1)
C8 C 0.0810(2) 0.6167(1) 0.4061(1)
C9 C 0.0360(2) 0.7312(1) 0.4036(1)
C10 C 0.1290(2) 0.8207(1) 0.3853(1)
C11 C 0.2654(2) 0.7866(1) 0.3724(1)
C12 C 0.3021(2) 0.6695(1) 0.3772(1)
C13 C 0.0912(2) 0.9452(1) 0.3781(1)
C14 C -0.0337(2) 0.9919(1) 0.3888(1)
C15 C -0.0701(2) 1.1166(1) 0.3776(1)
C16 C -0.2024(2) 1.1562(1) 0.3958(1)
C17 C -0.2383(2) 1.2723(1) 0.3814(1)
C18 C -0.0229(2) 1.3146(1) 0.3354(1)
C19 C 0.0219(2) 1.2004(1) 0.3474(1)
H9 H 0.0152(2) 0.5574(1) 0.4181(1)
H10 H -0.0582(2) 0.7493(1) 0.4143(1)
H11 H 0.3335(2) 0.8440(1) 0.3603(1)
H12 H 0.3965(2) 0.6489(1) 0.3690(1)
H13 H 0.1634(2) 0.9979(1) 0.3645(1)
H14 H -0.1054(2) 0.9403(1) 0.4052(1)
H15 H -0.2681(2) 1.1033(1) 0.4180(1)
H16 H -0.3295(2) 1.2970(1) 0.3940(1)
H17 H 0.0413(2) 1.3703(1) 0.3149(1)
H18 H 0.1144(2) 1.1788(1) 0.3352(1)

#END
