./ABELAU_from_POSCAR.cif_generated_by_CrystalShift
_symmetry_cell_setting triclinic
_symmetry_space_group_name_H-M 'P 1'
loop_
_symmetry_equiv_pos_site_id
_symmetry_equiv_pos_as_xyz
1 x,y,z
_cell_length_a 11.367000
_cell_length_b 9.749000
_cell_length_c 14.273000
_cell_angle_alpha 90.000000
_cell_angle_beta 111.668000
_cell_angle_gamma 90.000000
_cell_volume 1469.925511
loop_
_atom_site_label
_atom_site_type_symbol
_atom_site_fract_x
_atom_site_fract_y
_atom_site_fract_z
H1 H 1.027500 0.610100 0.253600
H2 H 0.608200 0.975400 0.629800
H3 H 0.527500 0.889900 0.753600
H4 H 0.382800 0.895700 0.829900
H5 H 0.179100 1.167700 0.638000
H6 H 0.317900 1.170000 0.555100
H7 H 0.770700 1.020100 0.602800
H8 H 0.957100 1.111200 0.601700
H9 H 0.526200 0.178000 0.987300
H10 H 0.377700 0.476300 0.720300
H11 H 0.437900 0.331000 0.856700
H12 H 0.631900 0.383400 0.672100
H13 H 0.780800 0.223300 0.766200
H14 H 0.761200 0.117200 0.906100
H15 H 0.777800 1.429000 0.447500
H16 H 0.587800 1.346300 0.442400
H17 H 0.682100 0.830000 0.444900
H18 H 0.820900 0.832300 0.362000
H19 H 0.617200 1.104300 0.170100
H20 H 0.472500 1.110100 0.246400
H21 H 0.391800 1.024600 0.370200
H22 H 0.535100 0.817400 0.502300
H23 H 0.973800 0.678000 0.512700
H24 H 1.122300 0.976300 0.779700
H25 H 1.062100 0.831000 0.643300
H26 H 0.868100 0.883400 0.827900
H27 H 0.719200 0.723300 0.733800
H28 H 0.738800 0.617200 0.593900
H29 H 0.222200 0.571000 0.552500
H30 H 0.412200 0.653700 0.557600
H31 H 0.229300 0.979900 0.397200
H32 H 0.042900 0.888800 0.398300
H33 H 0.464900 0.182600 0.497700
H34 H 0.608200 -0.024600 0.629800
H35 H 0.527500 -0.110100 0.753600
H36 H 0.382800 -0.104300 0.829900
H37 H 0.473800 0.822000 0.012700
H38 H 0.622300 0.523700 0.279700
H39 H 0.562100 0.669000 0.143300
H40 H 0.368100 0.616600 0.327900
H41 H 0.219200 0.776700 0.233800
H42 H 0.238800 0.882800 0.093900
H43 H 0.179100 0.167700 0.638000
H44 H 0.317900 0.170000 0.555100
H45 H 0.770700 0.020100 0.602800
H46 H 0.957100 0.111200 0.601700
H47 H 0.777800 0.429000 0.447500
H48 H 0.587800 0.346300 0.442400
H49 H 0.682100 -0.170000 0.444900
H50 H 0.820900 -0.167700 0.362000
H51 H 0.026200 0.322000 0.487300
H52 H -0.122300 0.023700 0.220300
H53 H -0.062100 0.169000 0.356700
H54 H 0.131900 0.116600 0.172100
H55 H 0.280800 0.276700 0.266200
H56 H 0.261200 0.382800 0.406100
H57 H 0.617200 0.104300 0.170100
H58 H 0.472500 0.110100 0.246400
H59 H 0.391800 0.024600 0.370200
H60 H 0.535100 -0.182600 0.502300
H61 H 0.222200 -0.429000 0.552500
H62 H 0.412200 -0.346300 0.557600
H63 H 0.229300 -0.020100 0.397200
H64 H 0.042900 -0.111200 0.398300
H65 H 1.035100 0.682600 1.002300
H66 H 0.891800 0.475400 0.870200
H67 H 0.972500 0.389900 0.746400
H68 H 1.117200 0.395700 0.670100
H69 H 1.320900 0.667700 0.862000
H70 H 1.182100 0.670000 0.944900
H71 H 0.457100 0.388800 0.101700
H72 H 0.270700 0.479900 0.102800
H73 H 0.087800 0.153700 -0.057600
H74 H 0.277800 0.071000 -0.052500
H75 H -0.035100 0.317400 -0.002300
H76 H 0.108200 0.524600 0.129800
H77 H 0.027500 0.610100 0.253600
H78 H -0.117200 0.604300 0.329900
H79 H -0.320900 0.332300 0.138000
H80 H -0.182100 0.330000 0.055100
H81 H 0.729300 0.520100 0.897200
H82 H 0.542900 0.611200 0.898300
H83 H 0.722200 0.929000 1.052500
H84 H 0.912200 0.846300 1.057600
H85 H 0.817900 0.330000 1.055100
H86 H 0.679100 0.332300 1.138000
H87 H 0.882800 0.604300 1.329900
H88 H -0.087800 0.846300 0.057600
H89 H -0.277800 0.929000 0.052500
H90 H -0.457100 0.611200 -0.101700
H91 H -0.270700 0.520100 -0.102800
H92 H 1.027500 0.610100 1.253600
H93 H 1.108200 0.524600 1.129800
H94 H 0.964900 0.317400 0.997700
H95 H 1.277800 0.071000 0.947500
H96 H 1.087800 0.153700 0.942400
H97 H 1.270700 0.479900 1.102800
H98 H 1.457100 0.388800 1.101700
H99 H 0.182100 0.670000 -0.055100
H100 H 0.320900 0.667700 -0.138000
H101 H 0.117200 0.395700 -0.329900
H102 H -0.027500 0.389900 -0.253600
H103 H -0.108200 0.475400 -0.129800
H104 H 0.035100 0.682600 0.002300
H105 H 1.035100 0.682600 0.002300
H106 H 0.891800 0.475400 -0.129800
H107 H 0.972500 0.389900 -0.253600
H108 H 1.117200 0.395700 -0.329900
H109 H 1.320900 0.667700 -0.138000
H110 H 1.182100 0.670000 -0.055100
H111 H 0.729300 0.520100 -0.102800
H112 H 0.542900 0.611200 -0.101700
H113 H 0.722200 0.929000 0.052500
H114 H 0.912200 0.846300 0.057600
H115 H 0.817900 0.330000 0.055100
H116 H 0.679100 0.332300 0.138000
H117 H 0.882800 0.604300 0.329900
H118 H 0.464900 1.182600 0.497700
H119 H 0.457100 0.388800 1.101700
H120 H 0.270700 0.479900 1.102800
H121 H 0.087800 0.153700 0.942400
H122 H 0.277800 0.071000 0.947500
H123 H -0.035100 0.317400 0.997700
H124 H 0.108200 0.524600 1.129800
H125 H 0.027500 0.610100 1.253600
H126 H -0.117200 0.604300 1.329900
H127 H -0.320900 0.332300 1.138000
H128 H -0.182100 0.330000 1.055100
H129 H 1.108200 0.524600 0.129800
H130 H 0.964900 0.317400 -0.002300
H131 H 1.277800 0.071000 -0.052500
H132 H 1.087800 0.153700 -0.057600
H133 H 1.270700 0.479900 0.102800
H134 H 1.457100 0.388800 0.101700
H135 H 0.035100 0.682600 1.002300
H136 H -0.087800 0.846300 1.057600
H137 H -0.277800 0.929000 1.052500
H138 H -0.457100 0.611200 0.898300
H139 H -0.270700 0.520100 0.897200
H140 H -0.108200 0.475400 0.870200
H141 H -0.027500 0.389900 0.746400
H142 H 0.117200 0.395700 0.670100
H143 H 0.320900 0.667700 0.862000
H144 H 0.182100 0.670000 0.944900
C145 C 0.249700 0.608200 0.838900
C146 C 0.167500 0.609700 0.889400
C147 C 0.597000 0.213600 0.894600
C148 C 0.132200 0.451200 0.728000
C149 C 0.045400 0.446400 0.773600
C150 C 0.063700 0.523600 0.859400
C151 C -0.021300 0.501100 0.917300
C152 C -0.162600 0.794700 1.024500
C153 C 0.507800 0.308700 0.838200
C154 C 0.520300 0.370700 0.755500
C155 C 1.380500 0.340400 0.067900
C156 C 1.269300 0.395800 0.068800
C157 C 1.155600 0.328800 0.020100
C158 C 1.162600 0.205300 -0.024500
C159 C 1.276500 0.156900 -0.021500
C160 C 1.029500 0.391000 0.006600
C161 C 1.021300 0.498900 0.082700
C162 C 0.936300 0.476400 0.140600
C163 C 0.954600 0.553600 0.226400
C164 C 0.867800 0.548800 0.272000
C165 C 0.750300 0.391800 0.161100
C166 C 0.832500 0.390300 0.110600
C167 C -0.276500 0.843100 1.021500
C168 C 0.622600 0.339900 0.728500
C169 C -0.380500 0.659600 0.932100
C170 C -0.269300 0.604200 0.931200
C171 C -0.155600 0.671200 0.979900
C172 C -0.029500 0.609000 0.993400
C173 C -0.167500 0.390300 1.110600
C174 C -0.249700 0.391800 1.161100
C175 C -0.132200 0.548800 1.272000
C176 C -0.045400 0.553600 1.226400
C177 C 0.970500 0.609000 -0.006600
C178 C 0.844400 0.671200 -0.020100
C179 C 0.730700 0.604200 -0.068800
C180 C 0.619500 0.659600 -0.067900
C181 C 0.332500 1.109700 0.610600
C182 C 0.723500 0.843100 0.021500
C183 C 0.837400 0.794700 0.024500
C184 C -0.063700 0.476400 1.140600
C185 C 0.021300 0.498900 1.082700
C186 C 0.029500 0.391000 1.006600
C187 C 0.276500 0.156900 0.978500
C188 C 0.978700 0.501100 -0.082700
C189 C 1.063700 0.523600 -0.140600
C190 C 1.045400 0.446400 -0.226400
C191 C 1.132200 0.451200 -0.272000
C192 C 0.250300 1.108200 0.661100
C193 C 1.249700 0.608200 -0.161100
C194 C 1.167500 0.609700 -0.110600
C195 C 0.162600 0.205300 0.975500
C196 C 0.155600 0.328800 1.020100
C197 C 0.269300 0.395800 1.068800
C198 C 0.380500 0.340400 1.067900
C199 C 0.367800 0.951200 0.772000
C200 C 0.454600 0.946400 0.726400
C201 C 0.436300 1.023600 0.640600
C202 C 0.521300 1.001100 0.582700
C203 C 1.380500 0.340400 1.067900
C204 C 1.269300 0.395800 1.068800
C205 C 1.155600 0.328800 1.020100
C206 C 1.162600 0.205300 0.975500
C207 C 1.276500 0.156900 0.978500
C208 C 1.029500 0.391000 1.006600
C209 C 1.021300 0.498900 1.082700
C210 C 0.936300 0.476400 1.140600
C211 C 0.954600 0.553600 1.226400
C212 C 0.867800 0.548800 1.272000
C213 C 0.750300 0.391800 1.161100
C214 C 0.832500 0.390300 1.110600
C215 C 0.167500 0.609700 -0.110600
C216 C 0.249700 0.608200 -0.161100
C217 C 0.711000 0.245300 0.784800
C218 C 0.132200 0.451200 -0.272000
C219 C 0.045400 0.446400 -0.226400
C220 C 0.063700 0.523600 -0.140600
C221 C -0.021300 0.501100 -0.082700
C222 C -0.162600 0.794700 0.024500
C223 C -0.276500 0.843100 0.021500
C224 C 0.699600 0.181800 0.867800
C225 C 0.970500 0.609000 0.993400
C226 C 0.844400 0.671200 0.979900
C227 C 0.730700 0.604200 0.931200
C228 C 0.619500 0.659600 0.932100
C229 C 0.662600 1.294700 0.475500
C230 C 0.723500 0.843100 1.021500
C231 C 0.837400 0.794700 1.024500
C232 C -0.380500 0.659600 -0.067900
C233 C -0.269300 0.604200 -0.068800
C234 C -0.155600 0.671200 -0.020100
C235 C -0.029500 0.609000 -0.006600
C236 C 0.978700 0.501100 0.917300
C237 C 1.063700 0.523600 0.859400
C238 C 1.045400 0.446400 0.773600
C239 C 1.132200 0.451200 0.728000
C240 C 0.776500 1.343100 0.478500
C241 C 1.249700 0.608200 0.838900
C242 C 1.167500 0.609700 0.889400
C243 C -0.167500 0.390300 0.110600
C244 C -0.249700 0.391800 0.161100
C245 C -0.132200 0.548800 0.272000
C246 C -0.045400 0.553600 0.226400
C247 C -0.063700 0.476400 0.140600
C248 C 0.021300 0.498900 0.082700
C249 C 0.880500 1.159600 0.567900
C250 C 0.769300 1.104200 0.568800
C251 C 0.119500 -0.159600 0.432100
C252 C 0.230700 -0.104200 0.431200
C253 C 0.344400 -0.171200 0.479900
C254 C 0.337400 -0.294700 0.524500
C255 C 0.223500 -0.343100 0.521500
C256 C 0.470500 -0.109000 0.493400
C257 C 0.478700 -0.001100 0.417300
C258 C 0.563700 -0.023600 0.359400
C259 C 0.545400 0.053600 0.273600
C260 C 0.632200 0.048800 0.228000
C261 C 0.749700 -0.108200 0.338900
C262 C 0.667500 -0.109700 0.389400
C263 C 0.029500 0.391000 0.006600
C264 C 0.276500 0.156900 -0.021500
C265 C 0.162600 0.205300 -0.024500
C266 C 0.155600 0.328800 0.020100
C267 C 0.269300 0.395800 0.068800
C268 C 0.380500 0.340400 0.067900
C269 C 0.655600 1.171200 0.520100
C270 C 0.529500 1.109000 0.506600
C271 C 0.199600 0.318200 0.367800
C272 C 0.211000 0.254700 0.284800
C273 C 0.529500 0.109000 0.506600
C274 C 0.655600 0.171200 0.520100
C275 C 0.769300 0.104200 0.568800
C276 C 0.880500 0.159600 0.567900
C277 C 0.903000 0.713600 0.605400
C278 C 0.776500 0.343100 0.478500
C279 C 0.662600 0.294700 0.475500
C280 C 0.122600 0.160100 0.228500
C281 C 0.020300 0.129300 0.255500
C282 C 0.007800 0.191300 0.338200
C283 C 0.097000 0.286400 0.394600
C284 C 0.521300 0.001100 0.582700
C285 C 0.436300 0.023600 0.640600
C286 C 0.454600 -0.053600 0.726400
C287 C 0.367800 -0.048800 0.772000
C288 C 0.992200 0.808700 0.661800
C289 C 0.250300 0.108200 0.661100
C290 C 0.332500 0.109700 0.610600
C291 C 0.979700 0.870700 0.744500
C292 C 0.877400 0.839900 0.771500
C293 C 0.300400 0.818200 0.132200
C294 C 0.289000 0.754700 0.215200
C295 C 0.377400 0.660100 0.271500
C296 C 0.479700 0.629300 0.244500
C297 C 0.789000 0.745300 0.715200
C298 C 0.800400 0.681800 0.632200
C299 C 0.119500 0.840400 0.432100
C300 C 0.230700 0.895800 0.431200
C301 C 0.344400 0.828800 0.479900
C302 C 0.337400 0.705300 0.524500
C303 C 0.223500 0.656900 0.521500
C304 C 0.470500 0.891000 0.493400
C305 C 0.478700 0.998900 0.417300
C306 C 0.563700 0.976400 0.359400
C307 C 0.545400 1.053600 0.273600
C308 C 0.632200 1.048800 0.228000
C309 C 0.749700 0.891800 0.338900
C310 C 0.667500 0.890300 0.389400
C311 C 0.492200 0.691300 0.161800
C312 C 0.403000 0.786400 0.105400
N313 N 0.235900 0.528300 0.759300
N314 N 0.764100 0.471700 0.240700
N315 N 0.735900 0.971700 0.259300
N316 N 0.113400 0.722700 0.477500
N317 N -0.386600 0.777300 0.977500
N318 N 0.613400 0.777300 -0.022500
N319 N 0.264100 0.028300 0.740700
N320 N 0.886600 0.277300 0.522500
N321 N 0.386600 0.222700 0.022500
N322 N -0.235900 0.471700 0.240700
N323 N 0.735900 -0.028300 0.259300
N324 N 0.113400 -0.277300 0.477500
N325 N 0.886600 1.277300 0.522500
N326 N 1.235900 0.528300 0.759300
N327 N 0.613400 0.777300 0.977500
N328 N 1.235900 0.528300 -0.240700
N329 N 0.264100 1.028300 0.740700
N330 N -0.386600 0.777300 -0.022500
N331 N 0.235900 0.528300 -0.240700
N332 N 0.764100 0.471700 1.240700
N333 N 1.386600 0.222700 1.022500
N334 N 0.386600 0.222700 1.022500
N335 N -0.235900 0.471700 1.240700
N336 N 1.386600 0.222700 0.022500
O337 O -0.063800 0.033900 0.198300
O338 O 0.090600 0.349400 0.477400
O339 O 0.409400 0.849400 0.022600
O340 O 1.063800 0.966100 0.801700
O341 O 0.909400 0.650600 0.522600
O342 O 0.563800 0.533900 0.301700
O343 O 0.436200 0.466100 0.698300
O344 O 0.590600 0.150600 0.977400

#END
