
#######################################################################
#
#                 Cambridge Crystallographic Data Centre
#                                CCDC 
#
#######################################################################
#
# If this CIF has been generated from an entry in the Cambridge 
# Structural Database, then it will include bibliographic, chemical, 
# crystal, experimental, refinement or atomic coordinate data resulting 
# from the CCDC's data processing and validation procedures.
#
#######################################################################

data_ABELAW
_symmetry_cell_setting           monoclinic
_symmetry_space_group_name_H-M   'P 21'
_symmetry_Int_Tables_number      4
_space_group_name_Hall           'P 2yb'
loop_
_symmetry_equiv_pos_site_id
_symmetry_equiv_pos_as_xyz
1 x,y,z
2 -x,1/2+y,-z
_cell_length_a                   4.7784(18)
_cell_length_b                   10.846(4)
_cell_length_c                   8.480(3)
_cell_angle_alpha                90
_cell_angle_beta                 97.832(5)
_cell_angle_gamma                90
_cell_volume                     435.389
loop_
_atom_site_label
_atom_site_type_symbol
_atom_site_fract_x
_atom_site_fract_y
_atom_site_fract_z
C1 C 0.3987(7) 0.9159(2) 0.8431(3)
H1 H 0.2724 0.9851 0.8306
H2 H 0.5707 0.9366 0.8026
H3 H 0.4401 0.8952 0.9540
C2 C 0.2630(5) 0.8079(2) 0.7532(2)
C3 C 0.3490(5) 0.5595(2) 0.5624(3)
C4 C 0.5687(6) 0.5377(3) 0.7024(3)
H4 H 0.5018 0.5677 0.7971
H5 H 0.7388 0.5805 0.6872
H6 H 0.6067 0.4510 0.7131
C5 C 0.0357(4) 0.7038(2) 0.4032(2)
H7 H -0.0565 0.7797 0.4279
H8 H -0.1029 0.6381 0.3976
C6 C 0.1400(4) 0.71685(19) 0.2417(2)
N1 N 0.3798(4) 0.77437(15) 0.6228(2)
H9 H 0.5246 0.8131 0.5980
N2 N 0.2637(4) 0.67700(16) 0.5295(2)
N3 N -0.0633(4) 0.7295(2) 0.1210(2)
H10 H -0.0221 0.7388 0.0261
H11 H -0.2371 0.7284 0.1371
O1 O 0.0669(4) 0.75037(19) 0.7960(2)
O2 O 0.2423(4) 0.47525(16) 0.4763(2)
O3 O 0.3914(3) 0.71726(17) 0.23009(19)
C1 C 0.6013(7) 0.4159(2) 0.1569(3)
H1 H 0.7276 0.4851 0.1694
H2 H 0.4293 0.4366 0.1974
H3 H 0.5599 0.3952 0.0460
C2 C 0.7370(5) 0.3079(2) 0.2468(2)
C3 C 0.6510(5) 0.0595(2) 0.4376(3)
C4 C 0.4313(6) 0.0377(3) 0.2976(3)
H4 H 0.4982 0.0677 0.2029
H5 H 0.2612 0.0805 0.3128
H6 H 0.3933 -0.0490 0.2869
C5 C 0.9643(4) 0.2038(2) 0.5968(2)
H7 H 1.0565 0.2797 0.5721
H8 H 1.1029 0.1381 0.6024
C6 C 0.8600(4) 0.21685(19) 0.7583(2)
N1 N 0.6202(4) 0.27437(15) 0.3772(2)
H9 H 0.4754 0.3131 0.4020
N2 N 0.7363(4) 0.17700(16) 0.4705(2)
N3 N 1.0633(4) 0.2295(2) 0.8790(2)
H10 H 1.0221 0.2388 0.9739
H11 H 1.2371 0.2284 0.8629
O1 O 0.9331(4) 0.25037(19) 0.2040(2)
O2 O 0.7577(4) -0.02475(16) 0.5237(2)
O3 O 0.6086(3) 0.21726(17) 0.76991(19)

#END
