./ABEMOL_from_POSCAR.cif_generated_by_CrystalShift
_symmetry_cell_setting triclinic
_symmetry_space_group_name_H-M 'P 1'
loop_
_symmetry_equiv_pos_site_id
_symmetry_equiv_pos_as_xyz
1 x,y,z
_cell_length_a 3.779100
_cell_length_b 12.616000
_cell_length_c 17.874000
_cell_angle_alpha 90.000000
_cell_angle_beta 95.028000
_cell_angle_gamma 90.000000
_cell_volume 848.901739
loop_
_atom_site_label
_atom_site_type_symbol
_atom_site_fract_x
_atom_site_fract_y
_atom_site_fract_z
H1 H 0.674000 0.623900 0.350700
H2 H 1.483700 0.710100 0.930100
H3 H 0.983700 0.789900 0.430100
H4 H -0.023800 0.007600 -0.075500
H5 H 1.760800 0.470200 0.755600
H6 H 0.300200 -0.305400 -0.364700
H7 H 1.701700 0.562100 0.863500
H8 H 0.232900 -0.204600 -0.260400
H9 H 1.232900 0.795400 0.739600
H10 H 1.300200 0.694600 0.635300
H11 H 0.701700 -0.437900 -0.136500
H12 H 0.976200 1.007600 0.924500
H13 H 0.760800 -0.529800 -0.244400
H14 H 1.023800 0.992400 1.075500
H15 H 0.483700 -0.289900 -0.069900
H16 H 0.826000 1.123900 0.149300
H17 H 0.174000 -0.123900 -0.149300
H18 H 0.516300 1.289900 0.069900
H19 H 0.239200 1.529800 0.244400
H20 H 1.260800 1.029800 0.255600
H21 H 0.298300 1.437900 0.136500
H22 H 0.023800 -0.007600 0.075500
H23 H 0.767100 1.204600 0.260400
H24 H -0.300200 0.305400 0.364700
H25 H 0.699800 1.305400 0.364700
H26 H -0.232900 0.204600 0.260400
H27 H 1.023800 0.992400 0.075500
H28 H 0.699800 1.305400 1.364700
H29 H -0.701700 0.437900 0.136500
H30 H 0.767100 1.204600 1.260400
H31 H -0.760800 0.529800 0.244400
H32 H 1.174000 0.876100 -0.149300
H33 H -0.483700 0.289900 0.069900
H34 H 1.483700 0.710100 -0.069900
H35 H -0.174000 0.123900 0.149300
H36 H 1.760800 0.470200 -0.244400
H37 H 1.201700 0.937900 0.363500
H38 H 1.701700 0.562100 -0.136500
H39 H 1.232900 0.795400 -0.260400
H40 H -0.023800 0.007600 0.924500
H41 H 1.300200 0.694600 -0.364700
H42 H 0.300200 -0.305400 0.635300
H43 H 0.976200 1.007600 -0.075500
H44 H 0.232900 -0.204600 0.739600
H45 H 0.298300 1.437900 1.136500
H46 H 0.826000 0.123900 1.149300
H47 H 0.701700 -0.437900 0.863500
H48 H 0.516300 0.289900 1.069900
H49 H 0.760800 -0.529800 0.755600
H50 H 0.239200 0.529800 1.244400
H51 H 0.483700 -0.289900 0.930100
H52 H 0.298300 0.437900 1.136500
H53 H 0.174000 -0.123900 0.850700
H54 H 0.767100 0.204600 1.260400
H55 H 0.732900 0.704600 0.239600
H56 H 0.699800 0.305400 1.364700
H57 H 0.800200 0.805400 0.135300
H58 H 0.023800 -0.007600 1.075500
H59 H 1.023800 -0.007600 1.075500
H60 H -0.300200 0.305400 1.364700
H61 H 0.239200 1.529800 1.244400
H62 H -0.232900 0.204600 1.260400
H63 H 1.174000 -0.123900 0.850700
H64 H 1.483700 -0.289900 0.930100
H65 H -0.701700 0.437900 1.136500
H66 H 1.760800 -0.529800 0.755600
H67 H -0.760800 0.529800 1.244400
H68 H 1.701700 -0.437900 0.863500
H69 H -0.483700 0.289900 1.069900
H70 H 1.232900 -0.204600 0.739600
H71 H -0.174000 0.123900 1.149300
H72 H 1.300200 -0.305400 0.635300
H73 H 0.976200 0.007600 0.924500
H74 H 0.476200 0.492400 0.424500
H75 H 0.516300 1.289900 1.069900
H76 H -0.023800 1.007600 -0.075500
H77 H 0.826000 1.123900 1.149300
H78 H 0.300200 0.694600 -0.364700
H79 H 0.826000 0.123900 0.149300
H80 H 0.232900 0.795400 -0.260400
H81 H 0.516300 0.289900 0.069900
H82 H 0.239200 0.529800 0.244400
H83 H 0.701700 0.562100 -0.136500
H84 H 0.298300 0.437900 0.136500
H85 H 0.760800 0.470200 -0.244400
H86 H 0.767100 0.204600 0.260400
H87 H 0.483700 0.710100 -0.069900
H88 H 0.699800 0.305400 0.364700
H89 H 0.174000 0.876100 -0.149300
H90 H 1.023800 -0.007600 0.075500
H91 H 0.326000 0.376100 0.649300
H92 H 0.523800 0.507600 0.575500
H93 H 0.016300 0.210100 0.569900
H94 H 0.023800 0.992400 0.075500
H95 H 1.174000 -0.123900 -0.149300
H96 H -0.300200 1.305400 0.364700
H97 H 1.483700 -0.289900 -0.069900
H98 H -0.232900 1.204600 0.260400
H99 H 1.760800 -0.529800 -0.244400
H100 H 1.701700 -0.437900 -0.136500
H101 H -0.701700 1.437900 0.136500
H102 H 1.232900 -0.204600 -0.260400
H103 H -0.760800 1.529800 0.244400
H104 H 1.300200 -0.305400 -0.364700
H105 H -0.483700 1.289900 0.069900
H106 H 0.976200 0.007600 -0.075500
H107 H -0.174000 1.123900 0.149300
H108 H 0.199800 0.194600 0.864700
H109 H 0.267100 0.295400 0.760400
H110 H -0.260800 -0.029800 0.744400
H111 H -0.174000 1.123900 1.149300
H112 H -0.023800 1.007600 0.924500
H113 H -0.483700 1.289900 1.069900
H114 H 0.300200 0.694600 0.635300
H115 H -0.760800 1.529800 1.244400
H116 H 0.232900 0.795400 0.739600
H117 H -0.701700 1.437900 1.136500
H118 H 1.174000 0.876100 0.850700
H119 H 0.701700 0.562100 0.863500
H120 H -0.232900 1.204600 1.260400
H121 H 0.760800 0.470200 0.755600
H122 H -0.300200 1.305400 1.364700
H123 H 0.483700 0.710100 0.930100
H124 H 0.023800 0.992400 1.075500
H125 H 0.174000 0.876100 0.850700
H126 H -0.201700 0.062100 0.636500
C127 C 0.189800 0.881120 0.968070
C128 C -0.116000 0.091160 0.682360
C129 C 0.046700 0.189580 0.684690
C130 C 0.247500 0.837210 0.893480
C131 C -0.382800 1.332340 1.318000
C132 C 0.400400 0.744460 0.885980
C133 C -0.338300 1.271090 1.255350
C134 C 0.651100 0.536260 0.752230
C135 C 0.616000 0.591160 0.817640
C136 C -0.616000 1.408840 1.182360
C137 C 0.453300 0.689580 0.815310
C138 C -0.651100 1.463740 1.247770
C139 C 0.338300 0.728910 0.744650
C140 C -0.400400 1.255540 1.114020
C141 C 0.382800 0.667660 0.682000
C142 C -0.247500 1.162790 1.106520
C143 C -0.151100 0.036260 0.747770
C144 C -0.189800 1.118880 1.031930
C145 C 0.099600 0.244460 0.614020
C146 C 0.161700 0.228910 0.755350
C147 C -0.189800 1.118880 0.031930
C148 C -0.247500 1.162790 0.106520
C149 C 1.382800 -0.332340 -0.318000
C150 C -0.400400 1.255540 0.114020
C151 C 1.338300 -0.271090 -0.255350
C152 C -0.651100 1.463740 0.247770
C153 C 1.453300 -0.310420 -0.184690
C154 C 1.616000 -0.408840 -0.182360
C155 C -0.616000 1.408840 0.182360
C156 C 1.651100 -0.463740 -0.247770
C157 C -0.453300 1.310420 0.184690
C158 C 1.400400 -0.255540 -0.114020
C159 C -0.338300 1.271090 0.255350
C160 C 1.247500 -0.162790 -0.106520
C161 C -0.382800 1.332340 0.318000
C162 C 1.189800 -0.118880 -0.031930
C163 C 0.117200 0.167660 0.818000
C164 C 0.252500 0.337210 0.606520
C165 C 0.810200 1.118880 1.031930
C166 C 0.189800 0.881120 -0.031930
C167 C 0.617200 0.332340 0.318000
C168 C 0.247500 0.837210 -0.106520
C169 C 0.661700 0.271090 0.255350
C170 C 0.400400 0.744460 -0.114020
C171 C 0.546700 0.310420 0.184690
C172 C 0.384000 0.408840 0.182360
C173 C 0.651100 0.536260 -0.247770
C174 C 0.348900 0.463740 0.247770
C175 C 0.616000 0.591160 -0.182360
C176 C 0.599600 0.255540 0.114020
C177 C 0.453300 0.689580 -0.184690
C178 C 0.752500 0.162790 0.106520
C179 C 0.338300 0.728910 -0.255350
C180 C 0.810200 0.118880 0.031930
C181 C 0.382800 0.667660 -0.318000
C182 C 0.752500 1.162790 1.106520
C183 C 0.310200 0.381120 0.531930
C184 C 0.882800 0.832340 0.182000
C185 C 1.382800 -0.332340 0.682000
C186 C -0.189800 0.118880 1.031930
C187 C 1.338300 -0.271090 0.744650
C188 C -0.247500 0.162790 1.106520
C189 C 1.453300 -0.310420 0.815310
C190 C 1.616000 -0.408840 0.817640
C191 C -0.400400 0.255540 1.114020
C192 C 1.651100 -0.463740 0.752230
C193 C -0.651100 0.463740 1.247770
C194 C 1.400400 -0.255540 0.885980
C195 C -0.616000 0.408840 1.182360
C196 C 1.247500 -0.162790 0.893480
C197 C -0.453300 0.310420 1.184690
C198 C 1.189800 -0.118880 0.968070
C199 C 0.599600 1.255540 1.114020
C200 C -0.338300 0.271090 1.255350
C201 C 0.348900 1.463740 1.247770
C202 C -0.382800 0.332340 1.318000
C203 C 0.617200 0.332340 1.318000
C204 C 0.838300 0.771090 0.244650
C205 C 0.661700 0.271090 1.255350
C206 C 0.189800 -0.118880 0.968070
C207 C 0.546700 0.310420 1.184690
C208 C 0.384000 0.408840 1.182360
C209 C 0.247500 -0.162790 0.893480
C210 C 0.348900 0.463740 1.247770
C211 C 0.400400 -0.255540 0.885980
C212 C 0.599600 0.255540 1.114020
C213 C 0.651100 -0.463740 0.752230
C214 C 0.752500 0.162790 1.106520
C215 C 0.616000 -0.408840 0.817640
C216 C 0.810200 0.118880 1.031930
C217 C 0.453300 -0.310420 0.815310
C218 C 0.384000 1.408840 1.182360
C219 C 0.546700 1.310420 1.184690
C220 C 0.338300 -0.271090 0.744650
C221 C 1.382800 0.667660 -0.318000
C222 C 0.382800 -0.332340 0.682000
C223 C 1.338300 0.728910 -0.255350
C224 C 0.953300 0.810420 0.315310
C225 C 1.453300 0.689580 -0.184690
C226 C 1.616000 0.591160 -0.182360
C227 C 1.116000 0.908840 0.317640
C228 C 1.651100 0.536260 -0.247770
C229 C -0.189800 0.118880 0.031930
C230 C 1.400400 0.744460 -0.114020
C231 C -0.247500 0.162790 0.106520
C232 C 1.247500 0.837210 -0.106520
C233 C -0.400400 0.255540 0.114020
C234 C 1.189800 0.881120 -0.031930
C235 C -0.651100 0.463740 0.247770
C236 C 0.661700 1.271090 1.255350
C237 C -0.616000 0.408840 0.182360
C238 C -0.453300 0.310420 0.184690
C239 C 0.617200 1.332340 0.318000
C240 C -0.338300 0.271090 0.255350
C241 C 0.661700 1.271090 0.255350
C242 C -0.382800 0.332340 0.318000
C243 C 0.546700 1.310420 0.184690
C244 C 0.384000 1.408840 0.182360
C245 C 1.151100 0.963740 0.252230
C246 C 0.348900 1.463740 0.247770
C247 C 0.900400 0.755540 0.385980
C248 C 0.599600 1.255540 0.114020
C249 C 0.189800 -0.118880 -0.031930
C250 C 0.752500 1.162790 0.106520
C251 C 0.247500 -0.162790 -0.106520
C252 C 0.810200 1.118880 0.031930
C253 C 0.617200 1.332340 1.318000
C254 C 0.400400 -0.255540 -0.114020
C255 C 1.189800 0.881120 0.968070
C256 C 0.651100 -0.463740 -0.247770
C257 C 1.382800 0.667660 0.682000
C258 C 0.616000 -0.408840 -0.182360
C259 C 1.338300 0.728910 0.744650
C260 C 0.453300 -0.310420 -0.184690
C261 C 1.453300 0.689580 0.815310
C262 C 1.616000 0.591160 0.817640
C263 C 0.338300 -0.271090 -0.255350
C264 C 1.651100 0.536260 0.752230
C265 C 0.382800 -0.332340 -0.318000
C266 C 1.400400 0.744460 0.885980
C267 C 0.747500 0.662790 0.393480
C268 C 1.247500 0.837210 0.893480
C269 C -0.453300 1.310420 1.184690
C270 C 0.689800 0.618880 0.468070
N271 N 0.536600 -0.427570 -0.315680
N272 N 0.463400 1.427570 1.315680
N273 N 0.966300 1.023670 1.033420
N274 N 1.536600 0.572430 0.684320
N275 N 0.033700 -0.023670 -0.033420
N276 N 0.966300 1.023670 0.033420
N277 N 0.463400 1.427570 0.315680
N278 N -0.536600 0.427570 0.315680
N279 N 1.033700 0.976330 -0.033420
N280 N 1.536600 0.572430 -0.315680
N281 N -0.033700 0.023670 0.033420
N282 N 0.966300 0.023670 1.033420
N283 N 0.463400 0.427570 1.315680
N284 N 0.536600 -0.427570 0.684320
N285 N 1.033700 -0.023670 0.966580
N286 N 1.536600 -0.427570 0.684320
N287 N 0.033700 -0.023670 0.966580
N288 N 0.966300 0.023670 0.033420
N289 N -0.536600 0.427570 1.315680
N290 N -0.036600 0.072430 0.815680
N291 N 0.466300 0.476330 0.533420
N292 N 0.463400 0.427570 0.315680
N293 N -0.033700 0.023670 1.033420
N294 N 1.033700 -0.023670 -0.033420
N295 N 1.536600 -0.427570 -0.315680
N296 N 0.536600 0.572430 -0.315680
N297 N -0.033700 1.023670 1.033420
N298 N -0.536600 1.427570 1.315680
N299 N 0.533700 0.523670 0.466580
N300 N 0.033700 0.976330 0.966580
N301 N 0.536600 0.572430 0.684320
N302 N 1.036600 0.927570 0.184320
N303 N -0.033700 1.023670 0.033420
N304 N -0.536600 1.427570 0.315680
N305 N 0.033700 0.976330 -0.033420
N306 N 1.033700 0.976330 0.966580
O307 O 0.773900 0.665140 0.527580
O308 O 0.273900 0.834860 1.027580
O309 O -0.273900 1.165140 0.972420
O310 O 1.273900 -0.165140 0.027580
O311 O 0.273900 0.834860 0.027580
O312 O 0.726100 0.165140 -0.027580
O313 O 0.226100 0.334860 0.472420
O314 O -0.273900 0.165140 0.972420
O315 O 1.273900 -0.165140 1.027580
O316 O 0.726100 0.165140 0.972420
O317 O 0.273900 -0.165140 1.027580
O318 O 1.273900 0.834860 0.027580
O319 O 0.726100 1.165140 -0.027580
O320 O -0.273900 0.165140 -0.027580
O321 O 1.273900 0.834860 1.027580
O322 O 0.726100 1.165140 0.972420
O323 O -0.273900 1.165140 -0.027580
O324 O 0.273900 -0.165140 0.027580

#END
