
#######################################################################
#
#                 Cambridge Crystallographic Data Centre
#                                CCDC 
#
#######################################################################
#
# If this CIF has been generated from an entry in the Cambridge 
# Structural Database, then it will include bibliographic, chemical, 
# crystal, experimental, refinement or atomic coordinate data resulting 
# from the CCDC's data processing and validation procedures.
#
#######################################################################

data_ABEPUV
_symmetry_cell_setting           monoclinic
_symmetry_space_group_name_H-M   'P 21'
_symmetry_Int_Tables_number      4
_space_group_name_Hall           'P 2yb'
loop_
_symmetry_equiv_pos_site_id
_symmetry_equiv_pos_as_xyz
1 x,y,z
2 -x,1/2+y,-z
_cell_length_a                   9.450(4)
_cell_length_b                   6.141(2)
_cell_length_c                   13.667(5)
_cell_angle_alpha                90
_cell_angle_beta                 103.880(7)
_cell_angle_gamma                90
_cell_volume                     769.97
loop_
_atom_site_label
_atom_site_type_symbol
_atom_site_fract_x
_atom_site_fract_y
_atom_site_fract_z
S1 S 1.00274(13) 0.22283(17) 0.22631(8)
C1 C 0.7752(5) 0.2266(8) 0.0638(3)
H1 H 0.7855 0.3765 0.0442
H2 H 0.7041 0.2197 0.1045
N1 N 0.9156(4) 0.1350(5) 0.1176(3)
O1 O 1.1421(4) 0.1176(6) 0.2463(3)
O2 O 0.9930(4) 0.4559(5) 0.2229(3)
C2 C 0.7337(5) 0.0803(6) -0.0265(3)
O3 O 0.4927(4) 0.1113(7) -0.2829(3)
C3 C 0.8199(5) -0.0910(6) -0.0144(4)
H3 H 0.8111 -0.2026 -0.0615
C4 C 0.9336(6) -0.0875(6) 0.0829(3)
H4 H 0.9143 -0.1956 0.1298
H5 H 1.0304 -0.1103 0.0724
C5 C 0.6122(5) 0.1327(6) -0.1111(3)
C6 C 0.5843(7) 0.3587(8) -0.1548(5)
H6 H 0.6483 0.4796 -0.1256
C7 C 0.5417(9) 0.3279(12) -0.2649(5)
H7 H 0.4647 0.4287 -0.2951
H8 H 0.6244 0.3538 -0.2938
C8 C 0.5772(6) -0.0146(8) -0.2026(4)
H9 H 0.6661 -0.0643 -0.2191
H10 H 0.5225 -0.1408 -0.1898
C9 C 0.9110(5) 0.1350(7) 0.3174(3)
C10 C 0.8107(5) 0.2720(6) 0.3437(4)
H11 H 0.7915 0.4080 0.3134
C11 C 0.7391(5) 0.2053(10) 0.4155(4)
H12 H 0.6715 0.2976 0.4335
C12 C 0.7665(6) 0.0013(9) 0.4615(4)
C13 C 0.8669(6) -0.1327(8) 0.4326(4)
H13 H 0.8858 -0.2695 0.4620
C14 C 0.9398(5) -0.0683(6) 0.3614(3)
H14 H 1.0074 -0.1601 0.3432
C15 C 0.6870(8) -0.0745(14) 0.5379(5)
H15 H 0.6725 -0.2291 0.5319
H16 H 0.5942 -0.0028 0.5263
H17 H 0.7434 -0.0401 0.6043
C16 C 0.4835(7) 0.2617(11) -0.0986(5)
H18 H 0.3879 0.2167 -0.1371
H19 H 0.4857 0.3194 -0.0322
S1 S -0.00274(13) 0.72283(17) 0.77369(8)
C1 C 0.2248(5) 0.7266(8) 0.9362(3)
H1 H 0.2145 0.8765 0.9558
H2 H 0.2959 0.7197 0.8955
N1 N 0.0844(4) 0.6350(5) 0.8824(3)
O1 O -0.1421(4) 0.6176(6) 0.7537(3)
O2 O 0.0070(4) 0.9559(5) 0.7771(3)
C2 C 0.2663(5) 0.5803(6) 1.0265(3)
O3 O 0.5073(4) 0.6113(7) 1.2829(3)
C3 C 0.1801(5) 0.4090(6) 1.0144(4)
H3 H 0.1889 0.2974 1.0615
C4 C 0.0664(6) 0.4125(6) 0.9171(3)
H4 H 0.0857 0.3044 0.8702
H5 H -0.0304 0.3897 0.9276
C5 C 0.3878(5) 0.6327(6) 1.1111(3)
C6 C 0.4157(7) 0.8587(8) 1.1548(5)
H6 H 0.3517 0.9796 1.1256
C7 C 0.4583(9) 0.8279(12) 1.2649(5)
H7 H 0.5353 0.9287 1.2951
H8 H 0.3756 0.8538 1.2938
C8 C 0.4228(6) 0.4854(8) 1.2026(4)
H9 H 0.3339 0.4357 1.2191
H10 H 0.4775 0.3592 1.1898
C9 C 0.0890(5) 0.6350(7) 0.6826(3)
C10 C 0.1893(5) 0.7720(6) 0.6563(4)
H11 H 0.2085 0.9080 0.6866
C11 C 0.2609(5) 0.7053(10) 0.5845(4)
H12 H 0.3285 0.7976 0.5665
C12 C 0.2335(6) 0.5013(9) 0.5385(4)
C13 C 0.1331(6) 0.3673(8) 0.5674(4)
H13 H 0.1142 0.2305 0.5380
C14 C 0.0602(5) 0.4317(6) 0.6386(3)
H14 H -0.0074 0.3399 0.6568
C15 C 0.3130(8) 0.4255(14) 0.4621(5)
H15 H 0.3275 0.2709 0.4681
H16 H 0.4058 0.4972 0.4737
H17 H 0.2566 0.4599 0.3957
C16 C 0.5165(7) 0.7617(11) 1.0986(5)
H18 H 0.6121 0.7167 1.1371
H19 H 0.5143 0.8194 1.0322

#END
