
#######################################################################
#
#                 Cambridge Crystallographic Data Centre
#                                CCDC 
#
#######################################################################
#
# If this CIF has been generated from an entry in the Cambridge 
# Structural Database, then it will include bibliographic, chemical, 
# crystal, experimental, refinement or atomic coordinate data resulting 
# from the CCDC's data processing and validation procedures.
#
#######################################################################

data_ABEQAA
_symmetry_cell_setting           monoclinic
_symmetry_space_group_name_H-M   'P 21/c'
_symmetry_Int_Tables_number      14
_space_group_name_Hall           '-P 2ybc'
loop_
_symmetry_equiv_pos_site_id
_symmetry_equiv_pos_as_xyz
1 x,y,z
2 x,1/2-y,1/2+z
3 -x,-y,-z
4 -x,1/2+y,1/2-z
_cell_length_a                   11.025(7)
_cell_length_b                   11.238(7)
_cell_length_c                   11.666(7)
_cell_angle_alpha                90
_cell_angle_beta                 105.484(10)
_cell_angle_gamma                90
_cell_volume                     1392.94
loop_
_atom_site_label
_atom_site_type_symbol
_atom_site_fract_x
_atom_site_fract_y
_atom_site_fract_z
N1 N 0.1128(2) 0.1267(2) -0.01817(19)
H1 H 0.1316 0.0678 -0.0573
N2 N -0.1104(2) 0.3731(2) -0.07434(19)
H2 H -0.1294 0.4320 -0.1229
O1 O 0.07866(17) 0.35124(16) 0.07054(15)
O2 O -0.07529(17) 0.14876(16) 0.03206(15)
C1 C 0.0814(3) 0.3645(3) -0.1363(2)
H3 H 0.0379 0.3435 -0.2165
H4 H 0.1639 0.3295 -0.1160
H5 H 0.0888 0.4495 -0.1296
C2 C 0.0080(2) 0.3184(2) -0.0519(2)
C3 C -0.0062(2) 0.1821(2) -0.0556(2)
C4 C -0.0799(3) 0.1349(3) -0.1765(2)
H6 H -0.0354 0.1532 -0.2347
H7 H -0.1615 0.1716 -0.1990
H8 H -0.0894 0.0503 -0.1721
C5 C 0.1835(3) 0.2830(3) 0.1243(2)
C6 C 0.1992(3) 0.1697(3) 0.0839(2)
C7 C 0.3032(3) 0.1039(3) 0.1445(3)
H9 H 0.3157 0.0280 0.1180
C8 C 0.3886(3) 0.1502(4) 0.2441(3)
H10 H 0.4575 0.1049 0.2843
C9 C 0.3720(3) 0.2617(4) 0.2833(3)
H11 H 0.4294 0.2922 0.3503
C10 C 0.2679(3) 0.3308(3) 0.2225(3)
H12 H 0.2565 0.4073 0.2482
C11 C -0.1801(2) 0.2168(2) 0.0331(2)
C12 C -0.1962(3) 0.3301(2) -0.0166(2)
C13 C -0.3010(3) 0.3956(3) -0.0081(3)
H13 H -0.3143 0.4713 -0.0412
C14 C -0.3851(3) 0.3493(4) 0.0487(4)
H14 H -0.4541 0.3943 0.0540
C15 C -0.3680(3) 0.2373(4) 0.0977(3)
H15 H -0.4247 0.2067 0.1365
C16 C -0.2645(3) 0.1700(3) 0.0885(3)
H16 H -0.2528 0.0935 0.1200
N1 N 0.1128(2) 0.3733(2) 0.48183(19)
H1 H 0.1316 0.4322 0.4427
N2 N -0.1104(2) 0.1269(2) 0.42566(19)
H2 H -0.1294 0.0680 0.3771
O1 O 0.07866(17) 0.14876(16) 0.57054(15)
O2 O -0.07529(17) 0.35124(16) 0.53206(15)
C1 C 0.0814(3) 0.1355(3) 0.3637(2)
H3 H 0.0379 0.1565 0.2835
H4 H 0.1639 0.1705 0.3840
H5 H 0.0888 0.0505 0.3704
C2 C 0.0080(2) 0.1816(2) 0.4481(2)
C3 C -0.0062(2) 0.3179(2) 0.4444(2)
C4 C -0.0799(3) 0.3651(3) 0.3235(2)
H6 H -0.0354 0.3468 0.2653
H7 H -0.1615 0.3284 0.3010
H8 H -0.0894 0.4497 0.3279
C5 C 0.1835(3) 0.2170(3) 0.6243(2)
C6 C 0.1992(3) 0.3303(3) 0.5839(2)
C7 C 0.3032(3) 0.3961(3) 0.6445(3)
H9 H 0.3157 0.4720 0.6180
C8 C 0.3886(3) 0.3498(4) 0.7441(3)
H10 H 0.4575 0.3951 0.7843
C9 C 0.3720(3) 0.2383(4) 0.7833(3)
H11 H 0.4294 0.2078 0.8503
C10 C 0.2679(3) 0.1692(3) 0.7225(3)
H12 H 0.2565 0.0927 0.7482
C11 C -0.1801(2) 0.2832(2) 0.5331(2)
C12 C -0.1962(3) 0.1699(2) 0.4834(2)
C13 C -0.3010(3) 0.1044(3) 0.4919(3)
H13 H -0.3143 0.0287 0.4588
C14 C -0.3851(3) 0.1507(4) 0.5487(4)
H14 H -0.4541 0.1057 0.5540
C15 C -0.3680(3) 0.2627(4) 0.5977(3)
H15 H -0.4247 0.2933 0.6365
C16 C -0.2645(3) 0.3300(3) 0.5885(3)
H16 H -0.2528 0.4065 0.6200
N1 N 0.8872(2) 0.8733(2) 1.01817(19)
H1 H 0.8684 0.9322 1.0573
N2 N 1.1104(2) 0.6269(2) 1.07434(19)
H2 H 1.1294 0.5680 1.1229
O1 O 0.92134(17) 0.64876(16) 0.92946(15)
O2 O 1.07529(17) 0.85124(16) 0.96794(15)
C1 C 0.9186(3) 0.6355(3) 1.1363(2)
H3 H 0.9621 0.6565 1.2165
H4 H 0.8361 0.6705 1.1160
H5 H 0.9112 0.5505 1.1296
C2 C 0.9920(2) 0.6816(2) 1.0519(2)
C3 C 1.0062(2) 0.8179(2) 1.0556(2)
C4 C 1.0799(3) 0.8651(3) 1.1765(2)
H6 H 1.0354 0.8468 1.2347
H7 H 1.1615 0.8284 1.1990
H8 H 1.0894 0.9497 1.1721
C5 C 0.8165(3) 0.7170(3) 0.8757(2)
C6 C 0.8008(3) 0.8303(3) 0.9161(2)
C7 C 0.6968(3) 0.8961(3) 0.8555(3)
H9 H 0.6843 0.9720 0.8820
C8 C 0.6114(3) 0.8498(4) 0.7559(3)
H10 H 0.5425 0.8951 0.7157
C9 C 0.6280(3) 0.7383(4) 0.7167(3)
H11 H 0.5706 0.7078 0.6497
C10 C 0.7321(3) 0.6692(3) 0.7775(3)
H12 H 0.7435 0.5927 0.7518
C11 C 1.1801(2) 0.7832(2) 0.9669(2)
C12 C 1.1962(3) 0.6699(2) 1.0166(2)
C13 C 1.3010(3) 0.6044(3) 1.0081(3)
H13 H 1.3143 0.5287 1.0412
C14 C 1.3851(3) 0.6507(4) 0.9513(4)
H14 H 1.4541 0.6057 0.9460
C15 C 1.3680(3) 0.7627(4) 0.9023(3)
H15 H 1.4247 0.7933 0.8635
C16 C 1.2645(3) 0.8300(3) 0.9115(3)
H16 H 1.2528 0.9065 0.8800
N1 N 0.8872(2) 0.6267(2) 0.51817(19)
H1 H 0.8684 0.5678 0.5573
N2 N 1.1104(2) 0.8731(2) 0.57434(19)
H2 H 1.1294 0.9320 0.6229
O1 O 0.92134(17) 0.85124(16) 0.42946(15)
O2 O 1.07529(17) 0.64876(16) 0.46794(15)
C1 C 0.9186(3) 0.8645(3) 0.6363(2)
H3 H 0.9621 0.8435 0.7165
H4 H 0.8361 0.8295 0.6160
H5 H 0.9112 0.9495 0.6296
C2 C 0.9920(2) 0.8184(2) 0.5519(2)
C3 C 1.0062(2) 0.6821(2) 0.5556(2)
C4 C 1.0799(3) 0.6349(3) 0.6765(2)
H6 H 1.0354 0.6532 0.7347
H7 H 1.1615 0.6716 0.6990
H8 H 1.0894 0.5503 0.6721
C5 C 0.8165(3) 0.7830(3) 0.3757(2)
C6 C 0.8008(3) 0.6697(3) 0.4161(2)
C7 C 0.6968(3) 0.6039(3) 0.3555(3)
H9 H 0.6843 0.5280 0.3820
C8 C 0.6114(3) 0.6502(4) 0.2559(3)
H10 H 0.5425 0.6049 0.2157
C9 C 0.6280(3) 0.7617(4) 0.2167(3)
H11 H 0.5706 0.7922 0.1497
C10 C 0.7321(3) 0.8308(3) 0.2775(3)
H12 H 0.7435 0.9073 0.2518
C11 C 1.1801(2) 0.7168(2) 0.4669(2)
C12 C 1.1962(3) 0.8301(2) 0.5166(2)
C13 C 1.3010(3) 0.8956(3) 0.5081(3)
H13 H 1.3143 0.9713 0.5412
C14 C 1.3851(3) 0.8493(4) 0.4513(4)
H14 H 1.4541 0.8943 0.4460
C15 C 1.3680(3) 0.7373(4) 0.4023(3)
H15 H 1.4247 0.7067 0.3635
C16 C 1.2645(3) 0.6700(3) 0.4115(3)
H16 H 1.2528 0.5935 0.3800

#END
