
#######################################################################
#
#                 Cambridge Crystallographic Data Centre
#                                CCDC 
#
#######################################################################
#
# If this CIF has been generated from an entry in the Cambridge 
# Structural Database, then it will include bibliographic, chemical, 
# crystal, experimental, refinement or atomic coordinate data resulting 
# from the CCDC's data processing and validation procedures.
#
#######################################################################

data_ABESEI
_symmetry_cell_setting           triclinic
_symmetry_space_group_name_H-M   'P -1'
_symmetry_Int_Tables_number      2
_space_group_name_Hall           '-P 1'
loop_
_symmetry_equiv_pos_site_id
_symmetry_equiv_pos_as_xyz
1 x,y,z
2 -x,-y,-z
_cell_length_a                   7.7222(4)
_cell_length_b                   8.2260(4)
_cell_length_c                   13.5107(6)
_cell_angle_alpha                107.558(2)
_cell_angle_beta                 90.261(3)
_cell_angle_gamma                111.588(2)
_cell_volume                     754.366
loop_
_atom_site_label
_atom_site_type_symbol
_atom_site_fract_x
_atom_site_fract_y
_atom_site_fract_z
Ni1 Ni 0.5000 0.5000 0.0000
O1 O 0.3699(3) 0.3936(4) 0.10843(19)
O2 O 0.0671(3) 0.2573(4) 0.0424(2)
O3 O -0.1670(3) 0.0604(4) 0.1305(2)
O4 O 0.5011(4) 0.7572(4) 0.0832(3)
O5 O 0.2493(3) 0.4209(4) -0.0851(2)
C1 C 0.2025(4) 0.2935(5) 0.1090(2)
C2 C 0.1619(4) 0.2101(4) 0.1947(2)
C3 C -0.0212(4) 0.0960(5) 0.2006(3)
C4 C -0.0534(5) 0.0168(5) 0.2792(3)
C5 C 0.0909(6) 0.0547(5) 0.3530(3)
C6 C 0.2739(5) 0.1727(5) 0.3512(3)
C7 C 0.3053(4) 0.2466(4) 0.2707(3)
C8 C 0.4298(5) 0.2178(5) 0.4313(3)
C9 C 0.4112(7) 0.2524(6) 0.5372(3)
C10 C 0.5529(8) 0.2983(6) 0.6139(3)
C11 C 0.7233(9) 0.3126(7) 0.5831(4)
C12 C 0.7582(7) 0.2828(7) 0.4804(4)
C13 C 0.6092(6) 0.2350(6) 0.4051(3)
C14 C 0.3589(7) 0.8127(8) 0.1130(5)
C15 C 0.1931(6) 0.4790(7) -0.1608(3)
F1 F 0.2477(5) 0.2480(5) 0.5686(2)
F2 F 0.8687(6) 0.3596(6) 0.6569(3)
H1 H -0.1213 0.1084 0.0860
H2 H -0.1733 -0.0660 0.2809
H3 H 0.0668 -0.0015 0.4046
H4 H 0.4261 0.3262 0.2676
H5 H 0.5338 0.3195 0.6843
H6 H 0.8766 0.2940 0.4619
H7 H 0.6332 0.2103 0.3292
H8 H 0.3586 0.8959 0.0768
H9 H 0.2437 0.7056 0.0938
H10 H 0.3821 0.8731 0.1862
H11 H 0.0710 0.4786 -0.1549
H12 H 0.1964 0.4012 -0.2288
H13 H 0.2760 0.6027 -0.1535
H14 H 0.1664 0.3697 -0.0541
H15 H 0.5965 0.8444 0.0901
O1A O 0.6301(3) 0.6064(4) -0.10843(19)
O2A O 0.9329(3) 0.7427(4) -0.0424(2)
O3A O 1.1670(3) 0.9396(4) -0.1305(2)
O4A O 0.4989(4) 0.2428(4) -0.0832(3)
O5A O 0.7507(3) 0.5791(4) 0.0851(2)
C1A C 0.7975(4) 0.7065(5) -0.1090(2)
C2A C 0.8381(4) 0.7899(4) -0.1947(2)
C3A C 1.0212(4) 0.9040(5) -0.2006(3)
C4A C 1.0534(5) 0.9832(5) -0.2792(3)
C5A C 0.9091(6) 0.9453(5) -0.3530(3)
C6A C 0.7261(5) 0.8273(5) -0.3512(3)
C7A C 0.6947(4) 0.7534(4) -0.2707(3)
C8A C 0.5702(5) 0.7822(5) -0.4313(3)
C9A C 0.5888(7) 0.7476(6) -0.5372(3)
C10A C 0.4471(8) 0.7017(6) -0.6139(3)
C11A C 0.2767(9) 0.6874(7) -0.5831(4)
C12A C 0.2418(7) 0.7172(7) -0.4804(4)
C13A C 0.3908(6) 0.7650(6) -0.4051(3)
C14A C 0.6411(7) 0.1873(8) -0.1130(5)
C15A C 0.8069(6) 0.5210(7) 0.1608(3)
F1A F 0.7523(5) 0.7520(5) -0.5686(2)
F2A F 0.1313(6) 0.6404(6) -0.6569(3)
H1A H 1.1213 0.8916 -0.0860
H2A H 1.1733 1.0660 -0.2809
H3A H 0.9332 1.0015 -0.4046
H4A H 0.5739 0.6738 -0.2676
H5A H 0.4662 0.6805 -0.6843
H6A H 0.1234 0.7060 -0.4619
H7A H 0.3668 0.7897 -0.3292
H8A H 0.6414 0.1041 -0.0768
H9A H 0.7563 0.2944 -0.0938
H10A H 0.6179 0.1269 -0.1862
H11A H 0.9290 0.5214 0.1549
H12A H 0.8036 0.5988 0.2288
H13A H 0.7240 0.3973 0.1535
H14A H 0.8336 0.6303 0.0541
H15A H 0.4035 0.1556 -0.0901
Ni1 Ni 0.5000 0.5000 1.0000
O1 O 0.3699(3) 0.3936(4) 1.10843(19)
O2 O 0.0671(3) 0.2573(4) 1.0424(2)
O3 O -0.1670(3) 0.0604(4) 1.1305(2)
O4 O 0.5011(4) 0.7572(4) 1.0832(3)
O5 O 0.2493(3) 0.4209(4) 0.9149(2)
C1 C 0.2025(4) 0.2935(5) 1.1090(2)
C2 C 0.1619(4) 0.2101(4) 1.1947(2)
C3 C -0.0212(4) 0.0960(5) 1.2006(3)
C4 C -0.0534(5) 0.0168(5) 1.2792(3)
C5 C 0.0909(6) 0.0547(5) 1.3530(3)
C6 C 0.2739(5) 0.1727(5) 1.3512(3)
C7 C 0.3053(4) 0.2466(4) 1.2707(3)
C8 C 0.4298(5) 0.2178(5) 1.4313(3)
C9 C 0.4112(7) 0.2524(6) 1.5372(3)
C10 C 0.5529(8) 0.2983(6) 1.6139(3)
C11 C 0.7233(9) 0.3126(7) 1.5831(4)
C12 C 0.7582(7) 0.2828(7) 1.4804(4)
C13 C 0.6092(6) 0.2350(6) 1.4051(3)
C14 C 0.3589(7) 0.8127(8) 1.1130(5)
C15 C 0.1931(6) 0.4790(7) 0.8392(3)
F1 F 0.2477(5) 0.2480(5) 1.5686(2)
F2 F 0.8687(6) 0.3596(6) 1.6569(3)
H1 H -0.1213 0.1084 1.0860
H2 H -0.1733 -0.0660 1.2809
H3 H 0.0668 -0.0015 1.4046
H4 H 0.4261 0.3262 1.2676
H5 H 0.5338 0.3195 1.6843
H6 H 0.8766 0.2940 1.4619
H7 H 0.6332 0.2103 1.3292
H8 H 0.3586 0.8959 1.0768
H9 H 0.2437 0.7056 1.0938
H10 H 0.3821 0.8731 1.1862
H11 H 0.0710 0.4786 0.8451
H12 H 0.1964 0.4012 0.7712
H13 H 0.2760 0.6027 0.8465
H14 H 0.1664 0.3697 0.9459
H15 H 0.5965 0.8444 1.0901
O1A O 0.6301(3) 0.6064(4) 0.89157(19)
O2A O 0.9329(3) 0.7427(4) 0.9576(2)
O3A O 1.1670(3) 0.9396(4) 0.8695(2)
O4A O 0.4989(4) 0.2428(4) 0.9168(3)
O5A O 0.7507(3) 0.5791(4) 1.0851(2)
C1A C 0.7975(4) 0.7065(5) 0.8910(2)
C2A C 0.8381(4) 0.7899(4) 0.8053(2)
C3A C 1.0212(4) 0.9040(5) 0.7994(3)
C4A C 1.0534(5) 0.9832(5) 0.7208(3)
C5A C 0.9091(6) 0.9453(5) 0.6470(3)
C6A C 0.7261(5) 0.8273(5) 0.6488(3)
C7A C 0.6947(4) 0.7534(4) 0.7293(3)
C8A C 0.5702(5) 0.7822(5) 0.5687(3)
C9A C 0.5888(7) 0.7476(6) 0.4628(3)
C10A C 0.4471(8) 0.7017(6) 0.3861(3)
C11A C 0.2767(9) 0.6874(7) 0.4169(4)
C12A C 0.2418(7) 0.7172(7) 0.5196(4)
C13A C 0.3908(6) 0.7650(6) 0.5949(3)
C14A C 0.6411(7) 0.1873(8) 0.8870(5)
C15A C 0.8069(6) 0.5210(7) 1.1608(3)
F1A F 0.7523(5) 0.7520(5) 0.4314(2)
F2A F 0.1313(6) 0.6404(6) 0.3431(3)
H1A H 1.1213 0.8916 0.9140
H2A H 1.1733 1.0660 0.7191
H3A H 0.9332 1.0015 0.5954
H4A H 0.5739 0.6738 0.7324
H5A H 0.4662 0.6805 0.3157
H6A H 0.1234 0.7060 0.5381
H7A H 0.3668 0.7897 0.6708
H8A H 0.6414 0.1041 0.9232
H9A H 0.7563 0.2944 0.9062
H10A H 0.6179 0.1269 0.8138
H11A H 0.9290 0.5214 1.1549
H12A H 0.8036 0.5988 1.2288
H13A H 0.7240 0.3973 1.1535
H14A H 0.8336 0.6303 1.0541
H15A H 0.4035 0.1556 0.9099

#END
