
#######################################################################
#
#                 Cambridge Crystallographic Data Centre
#                                CCDC 
#
#######################################################################
#
# If this CIF has been generated from an entry in the Cambridge 
# Structural Database, then it will include bibliographic, chemical, 
# crystal, experimental, refinement or atomic coordinate data resulting 
# from the CCDC's data processing and validation procedures.
#
#######################################################################

data_ABESUY
_symmetry_cell_setting           monoclinic
_symmetry_space_group_name_H-M   'P 21/n'
_symmetry_Int_Tables_number      14
_space_group_name_Hall           '-P 2yn'
loop_
_symmetry_equiv_pos_site_id
_symmetry_equiv_pos_as_xyz
1 x,y,z
2 1/2-x,1/2+y,1/2-z
3 -x,-y,-z
4 1/2+x,1/2-y,1/2+z
_cell_length_a                   9.940(3)
_cell_length_b                   12.584(4)
_cell_length_c                   11.973(4)
_cell_angle_alpha                90
_cell_angle_beta                 112.959(3)
_cell_angle_gamma                90
_cell_volume                     1379.01
loop_
_atom_site_label
_atom_site_type_symbol
_atom_site_fract_x
_atom_site_fract_y
_atom_site_fract_z
S1 S 0.62908(4) 0.37223(3) 0.84370(4)
O1 O 0.30010(13) 0.39849(11) 0.75355(11)
N1 N 0.89229(15) 0.28333(11) 0.85167(12)
N2 N 0.68718(14) 0.27473(11) 0.67986(11)
C1 C 0.91942(17) 0.22882(13) 0.76028(14)
C2 C 1.04811(18) 0.18157(14) 0.76440(15)
H1 H 1.1347 0.1833 0.8362
C3 C 1.04558(18) 0.13201(14) 0.66050(16)
H2 H 1.1325 0.0999 0.6614
C4 C 0.91914(18) 0.12766(13) 0.55420(15)
H3 H 0.9224 0.0932 0.4847
C5 C 0.78948(18) 0.17238(13) 0.54819(14)
H4 H 0.7026 0.1688 0.4768
C6 C 0.79394(17) 0.22280(12) 0.65263(14)
C7 C 0.75341(17) 0.30711(13) 0.79925(14)
C8 C 0.54259(17) 0.30196(13) 0.62213(14)
H5 H 0.4845 0.2855 0.5399
C9 C 0.49291(17) 0.35509(13) 0.69649(14)
C10 C 0.34097(18) 0.38650(13) 0.67012(15)
C11 C 0.24032(17) 0.40122(13) 0.54115(15)
C12 C 0.28767(18) 0.44175(14) 0.45468(16)
H6 H 0.3879 0.4588 0.4772
C13 C 0.19083(19) 0.45752(14) 0.33640(16)
H7 H 0.2254 0.4861 0.2791
C14 C 0.04371(18) 0.43228(14) 0.29977(16)
C15 C -0.00331(18) 0.39139(14) 0.38671(16)
H8 H -0.1033 0.3730 0.3636
C16 C 0.09228(17) 0.37702(13) 0.50556(16)
H9 H 0.0572 0.3505 0.5635
C17 C -0.0614(2) 0.45066(17) 0.17071(17)
H10 H -0.1218 0.3872 0.1405
H11 H -0.0064 0.4653 0.1200
H12 H -0.1243 0.5115 0.1678
S1 S -0.12908(4) 0.87223(3) 0.65630(4)
O1 O 0.19990(13) 0.89849(11) 0.74645(11)
N1 N -0.39229(15) 0.78333(11) 0.64833(12)
N2 N -0.18718(14) 0.77473(11) 0.82014(11)
C1 C -0.41942(17) 0.72882(13) 0.73972(14)
C2 C -0.54811(18) 0.68157(14) 0.73560(15)
H1 H -0.6347 0.6833 0.6638
C3 C -0.54558(18) 0.63201(14) 0.83950(16)
H2 H -0.6325 0.5999 0.8386
C4 C -0.41914(18) 0.62766(13) 0.94580(15)
H3 H -0.4224 0.5932 1.0153
C5 C -0.28948(18) 0.67238(13) 0.95181(14)
H4 H -0.2026 0.6688 1.0232
C6 C -0.29394(17) 0.72280(12) 0.84737(14)
C7 C -0.25341(17) 0.80711(13) 0.70075(14)
C8 C -0.04259(17) 0.80196(13) 0.87787(14)
H5 H 0.0155 0.7855 0.9601
C9 C 0.00709(17) 0.85509(13) 0.80351(14)
C10 C 0.15903(18) 0.88650(13) 0.82988(15)
C11 C 0.25968(17) 0.90122(13) 0.95885(15)
C12 C 0.21233(18) 0.94175(14) 1.04532(16)
H6 H 0.1121 0.9588 1.0228
C13 C 0.30917(19) 0.95752(14) 1.16360(16)
H7 H 0.2746 0.9861 1.2209
C14 C 0.45629(18) 0.93228(14) 1.20023(16)
C15 C 0.50331(18) 0.89139(14) 1.11329(16)
H8 H 0.6033 0.8730 1.1364
C16 C 0.40772(17) 0.87702(13) 0.99444(16)
H9 H 0.4428 0.8505 0.9365
C17 C 0.5614(2) 0.95066(17) 1.32929(17)
H10 H 0.6218 0.8872 1.3595
H11 H 0.5064 0.9653 1.3800
H12 H 0.6243 1.0115 1.3322
S1 S 0.37092(4) 0.62777(3) 0.15630(4)
O1 O 0.69990(13) 0.60151(11) 0.24645(11)
N1 N 0.10771(15) 0.71667(11) 0.14833(12)
N2 N 0.31282(14) 0.72527(11) 0.32014(11)
C1 C 0.08058(17) 0.77118(13) 0.23972(14)
C2 C -0.04811(18) 0.81843(14) 0.23560(15)
H1 H -0.1347 0.8167 0.1638
C3 C -0.04558(18) 0.86799(14) 0.33950(16)
H2 H -0.1325 0.9001 0.3386
C4 C 0.08086(18) 0.87234(13) 0.44580(15)
H3 H 0.0776 0.9068 0.5153
C5 C 0.21052(18) 0.82762(13) 0.45181(14)
H4 H 0.2974 0.8312 0.5232
C6 C 0.20606(17) 0.77720(12) 0.34737(14)
C7 C 0.24659(17) 0.69289(13) 0.20075(14)
C8 C 0.45741(17) 0.69804(13) 0.37787(14)
H5 H 0.5155 0.7145 0.4601
C9 C 0.50709(17) 0.64491(13) 0.30351(14)
C10 C 0.65903(18) 0.61350(13) 0.32988(15)
C11 C 0.75968(17) 0.59878(13) 0.45885(15)
C12 C 0.71233(18) 0.55825(14) 0.54532(16)
H6 H 0.6121 0.5412 0.5228
C13 C 0.80917(19) 0.54248(14) 0.66360(16)
H7 H 0.7746 0.5139 0.7209
C14 C 0.95629(18) 0.56772(14) 0.70023(16)
C15 C 1.00331(18) 0.60861(14) 0.61329(16)
H8 H 1.1033 0.6270 0.6364
C16 C 0.90772(17) 0.62298(13) 0.49444(16)
H9 H 0.9428 0.6495 0.4365
C17 C 1.0614(2) 0.54934(17) 0.82929(17)
H10 H 1.1218 0.6128 0.8595
H11 H 1.0064 0.5347 0.8800
H12 H 1.1243 0.4885 0.8322
S1 S 1.12908(4) 0.12777(3) 0.34370(4)
O1 O 0.80010(13) 0.10151(11) 0.25355(11)
N1 N 1.39229(15) 0.21667(11) 0.35167(12)
N2 N 1.18718(14) 0.22527(11) 0.17986(11)
C1 C 1.41942(17) 0.27118(13) 0.26028(14)
C2 C 1.54811(18) 0.31843(14) 0.26440(15)
H1 H 1.6347 0.3167 0.3362
C3 C 1.54558(18) 0.36799(14) 0.16050(16)
H2 H 1.6325 0.4001 0.1614
C4 C 1.41914(18) 0.37234(13) 0.05420(15)
H3 H 1.4224 0.4068 -0.0153
C5 C 1.28948(18) 0.32762(13) 0.04819(14)
H4 H 1.2026 0.3312 -0.0232
C6 C 1.29394(17) 0.27720(12) 0.15263(14)
C7 C 1.25341(17) 0.19289(13) 0.29925(14)
C8 C 1.04259(17) 0.19804(13) 0.12213(14)
H5 H 0.9845 0.2145 0.0399
C9 C 0.99291(17) 0.14491(13) 0.19649(14)
C10 C 0.84097(18) 0.11350(13) 0.17012(15)
C11 C 0.74032(17) 0.09878(13) 0.04115(15)
C12 C 0.78767(18) 0.05825(14) -0.04532(16)
H6 H 0.8879 0.0412 -0.0228
C13 C 0.69083(19) 0.04248(14) -0.16360(16)
H7 H 0.7254 0.0139 -0.2209
C14 C 0.54371(18) 0.06772(14) -0.20023(16)
C15 C 0.49669(18) 0.10861(14) -0.11329(16)
H8 H 0.3967 0.1270 -0.1364
C16 C 0.59228(17) 0.12298(13) 0.00556(16)
H9 H 0.5572 0.1495 0.0635
C17 C 0.4386(2) 0.04934(17) -0.32929(17)
H10 H 0.3782 0.1128 -0.3595
H11 H 0.4936 0.0347 -0.3800
H12 H 0.3757 -0.0115 -0.3322

#END
