./ABESUY_from_POSCAR.cif_generated_by_CrystalShift
_symmetry_cell_setting triclinic
_symmetry_space_group_name_H-M 'P 1'
loop_
_symmetry_equiv_pos_site_id
_symmetry_equiv_pos_as_xyz
1 x,y,z
_cell_length_a 9.940000
_cell_length_b 12.584000
_cell_length_c 11.973000
_cell_angle_alpha 90.000000
_cell_angle_beta 112.959000
_cell_angle_gamma 90.000000
_cell_volume 1379.005328
loop_
_atom_site_label
_atom_site_type_symbol
_atom_site_fract_x
_atom_site_fract_y
_atom_site_fract_z
H1 H 0.375700 -0.011500 -0.332200
H2 H 0.378200 0.112800 -0.359500
H3 H 0.557200 0.149500 0.063500
H4 H 0.396700 0.127000 -0.136400
H5 H 0.725400 0.013900 -0.220900
H6 H 0.887900 0.041200 -0.022800
H7 H 1.134700 0.183300 0.836200
H8 H 0.984500 0.214500 0.039900
H9 H 1.132500 0.099900 0.661400
H10 H 1.202600 0.331200 -0.023200
H11 H 0.922400 0.093200 0.484700
H12 H 1.422400 0.406800 -0.015300
H13 H 0.702600 0.168800 0.476800
H14 H 1.632500 0.400100 0.161400
H15 H 1.634700 0.316700 0.336200
H16 H 1.124300 0.488500 0.832200
H17 H 0.484500 0.285500 0.539900
H18 H 1.006400 0.534700 0.880000
H19 H 1.121800 0.612800 0.859500
H20 H 0.942800 0.649500 0.436500
H21 H 1.103300 0.627000 0.636400
H22 H 0.387900 0.458800 0.477200
H23 H 0.774600 0.513900 0.720900
H24 H 0.225400 0.486100 0.279100
H25 H 0.612100 0.541200 0.522800
H26 H 0.515500 0.714500 0.460100
H27 H -0.103300 0.373000 0.363600
H28 H 0.297400 0.831200 0.523200
H29 H 0.057200 0.350500 0.563500
H30 H 0.077600 0.906800 0.515300
H31 H -0.121800 0.387200 0.140500
H32 H -0.006400 0.465300 0.120000
H33 H -0.124300 0.511500 0.167800
H34 H -0.132500 0.900100 0.338600
H35 H -0.134700 0.816700 0.163800
H36 H 0.624300 1.011500 1.332200
H37 H 0.506400 0.965300 1.380000
H38 H 0.621800 0.887200 1.359500
H39 H 0.442800 0.850500 0.936500
H40 H -0.634700 0.683300 0.663800
H41 H 0.603300 0.873000 1.136400
H42 H -0.632500 0.599900 0.838600
H43 H 0.274600 0.986100 1.220900
H44 H -0.422400 0.593200 1.015300
H45 H 0.112100 0.958800 1.022800
H46 H -0.202600 0.668800 1.023200
H47 H 0.015500 0.785500 0.960100
H48 H 0.493600 0.034700 -0.380000
C49 C -0.042590 0.801960 0.877870
C50 C -0.293940 0.722800 0.847370
C51 C 0.007090 0.855090 0.803510
C52 C 0.159030 0.886500 0.829880
C53 C 0.259680 0.901220 0.958850
C54 C 0.212330 0.941750 1.045320
C55 C -0.289480 0.672380 0.951810
C56 C 0.309170 0.957520 1.163600
C57 C -0.419140 0.627660 0.945800
C58 C 0.456290 0.932280 1.200230
C59 C 0.503310 0.891390 1.113290
C60 C -0.545580 0.632010 0.839500
C61 C 0.407720 0.877020 0.994440
C62 C -0.548110 0.681570 0.735600
C63 C 0.561400 0.950660 1.329290
C64 C -0.419420 0.728820 0.739720
C65 C 0.438600 0.049340 -0.329290
C66 C 0.592280 0.122980 0.005560
C67 C 0.496690 0.108610 -0.113290
C68 C 0.543710 0.067720 -0.200230
C69 C 0.919420 0.228820 0.760280
C70 C 0.690830 0.042480 -0.163600
C71 C 0.080580 0.771180 0.239720
C72 C -0.048110 0.818430 0.235600
C73 C 1.048110 0.181570 0.764400
C74 C -0.045580 0.867990 0.339500
C75 C 0.787670 0.058250 -0.045320
C76 C 0.080860 0.872340 0.445800
C77 C -0.061400 0.450660 0.170710
C78 C 0.210520 0.827620 0.451810
C79 C 0.092280 0.377020 0.505560
C80 C 0.206060 0.777200 0.347370
C81 C 0.246590 0.692890 0.200750
C82 C 0.457410 0.698040 0.377870
C83 C -0.003310 0.391390 0.386710
C84 C 0.507090 0.644910 0.303510
C85 C 0.659030 0.613500 0.329880
C86 C 0.759680 0.598780 0.458850
C87 C 0.712330 0.558250 0.545320
C88 C 0.043710 0.432280 0.299770
C89 C 0.809170 0.542480 0.663600
C90 C 0.190830 0.457520 0.336400
C91 C 0.956290 0.567720 0.700230
C92 C 1.003310 0.608610 0.613290
C93 C 0.287670 0.441750 0.454680
C94 C 0.907720 0.622980 0.494440
C95 C 0.240320 0.401220 0.541150
C96 C 1.061400 0.549340 0.829290
C97 C 0.340970 0.386500 0.670120
C98 C 0.492910 0.355090 0.696490
C99 C 0.542590 0.301960 0.622130
C100 C 0.740320 0.098780 0.041150
C101 C 0.840970 0.113500 0.170120
C102 C 0.992910 0.144910 0.196490
C103 C 1.045580 0.132010 0.660500
C104 C 1.419420 0.271180 0.260280
C105 C 1.548110 0.318430 0.264400
C106 C 0.753410 0.307110 0.799250
C107 C 1.545580 0.367990 0.160500
C108 C 0.793940 0.222800 0.652630
C109 C 1.419140 0.372340 0.054200
C110 C 0.789480 0.172380 0.548190
C111 C 1.289480 0.327620 0.048190
C112 C 0.919140 0.127660 0.554200
C113 C 1.293940 0.277200 0.152630
C114 C 1.253410 0.192890 0.299250
C115 C 1.042590 0.198040 0.122130
C116 C -0.253410 0.807110 0.700750
N117 N 1.392290 0.216670 0.351670
N118 N -0.187180 0.774730 0.820140
N119 N 0.892290 0.283330 0.851670
N120 N -0.392290 0.783330 0.648330
N121 N 0.687180 0.274730 0.679860
N122 N 0.312820 0.725270 0.320140
N123 N 0.107710 0.716670 0.148330
N124 N 1.187180 0.225270 0.179860
O125 O 0.199900 0.898490 0.746450
O126 O 0.300100 0.398490 0.753550
O127 O 0.800100 0.101510 0.253550
O128 O 0.699900 0.601510 0.246450
S129 S 1.129080 0.127770 0.343700
S130 S -0.129080 0.872230 0.656300
S131 S 0.370920 0.627770 0.156300
S132 S 0.629080 0.372230 0.843700

#END
