
#######################################################################
#
#                 Cambridge Crystallographic Data Centre
#                                CCDC 
#
#######################################################################
#
# If this CIF has been generated from an entry in the Cambridge 
# Structural Database, then it will include bibliographic, chemical, 
# crystal, experimental, refinement or atomic coordinate data resulting 
# from the CCDC's data processing and validation procedures.
#
#######################################################################

data_ABEYIS01
_symmetry_cell_setting           triclinic
_symmetry_space_group_name_H-M   'P -1'
_symmetry_Int_Tables_number      2
_space_group_name_Hall           '-P 1'
loop_
_symmetry_equiv_pos_site_id
_symmetry_equiv_pos_as_xyz
1 x,y,z
2 -x,-y,-z
_cell_length_a                   3.9177(6)
_cell_length_b                   7.7705(11)
_cell_length_c                   13.7775(20)
_cell_angle_alpha                94.0698(31)
_cell_angle_beta                 97.4081(32)
_cell_angle_gamma                100.3378(24)
_cell_volume                     407.26
loop_
_atom_site_label
_atom_site_type_symbol
_atom_site_fract_x
_atom_site_fract_y
_atom_site_fract_z
Cu1 Cu 0.000 0.000 0.000
Cl1 Cl 0.2482(12) -0.2392(6) 0.0074(4)
Cl2 Cl -0.0954(15) -0.0571(7) -0.16828(33)
Cl1A Cl -0.2482(12) 0.2392(6) -0.0074(4)
Cl2A Cl 0.0954(15) 0.0571(7) 0.16828(33)
Cu1 Cu 0.000 0.000 1.000
Cl1 Cl 0.2482(12) -0.2392(6) 1.0074(4)
Cl2 Cl -0.0954(15) -0.0571(7) 0.83172(33)
Cl1A Cl -0.2482(12) 0.2392(6) 0.9926(4)
Cl2A Cl 0.0954(15) 0.0571(7) 1.16828(33)
Cu1 Cu 0.000 1.000 0.000
Cl1 Cl 0.2482(12) 0.7608(6) 0.0074(4)
Cl2 Cl -0.0954(15) 0.9429(7) -0.16828(33)
Cl1A Cl -0.2482(12) 1.2392(6) -0.0074(4)
Cl2A Cl 0.0954(15) 1.0571(7) 0.16828(33)
Cu1 Cu 0.000 1.000 1.000
Cl1 Cl 0.2482(12) 0.7608(6) 1.0074(4)
Cl2 Cl -0.0954(15) 0.9429(7) 0.83172(33)
Cl1A Cl -0.2482(12) 1.2392(6) 0.9926(4)
Cl2A Cl 0.0954(15) 1.0571(7) 1.16828(33)
Cu1 Cu 1.000 0.000 0.000
Cl1 Cl 1.2482(12) -0.2392(6) 0.0074(4)
Cl2 Cl 0.9046(15) -0.0571(7) -0.16828(33)
Cl1A Cl 0.7518(12) 0.2392(6) -0.0074(4)
Cl2A Cl 1.0954(15) 0.0571(7) 0.16828(33)
Cu1 Cu 1.000 0.000 1.000
Cl1 Cl 1.2482(12) -0.2392(6) 1.0074(4)
Cl2 Cl 0.9046(15) -0.0571(7) 0.83172(33)
Cl1A Cl 0.7518(12) 0.2392(6) 0.9926(4)
Cl2A Cl 1.0954(15) 0.0571(7) 1.16828(33)
Cu1 Cu 1.000 1.000 0.000
Cl1 Cl 1.2482(12) 0.7608(6) 0.0074(4)
Cl2 Cl 0.9046(15) 0.9429(7) -0.16828(33)
Cl1A Cl 0.7518(12) 1.2392(6) -0.0074(4)
Cl2A Cl 1.0954(15) 1.0571(7) 0.16828(33)
Cu1 Cu 1.000 1.000 1.000
Cl1 Cl 1.2482(12) 0.7608(6) 1.0074(4)
Cl2 Cl 0.9046(15) 0.9429(7) 0.83172(33)
Cl1A Cl 0.7518(12) 1.2392(6) 0.9926(4)
Cl2A Cl 1.0954(15) 1.0571(7) 1.16828(33)
C1 C 0.810(5) 0.3810(18) 0.3045(12)
C2 C 0.749(5) 0.5172(22) 0.3690(10)
C3 C 0.663(5) 0.6660(19) 0.3328(11)
C4 C 0.648(5) 0.6844(19) 0.2343(11)
C5 C 0.694(5) 0.5410(24) 0.1708(8)
C6 C 0.585(5) 0.7958(21) 0.4073(10)
N1 N 0.763(4) 0.3939(18) 0.2110(11)
O1 O 0.6828(32) 0.7906(14) 0.4991(8)
N2 N 0.4808(34) 0.9340(17) 0.3728(8)
H1 H 0.89889 0.28659 0.32848
H2 H 0.7654 0.50609 0.43569
H3 H 0.62028 0.791 0.20977
H4 H 0.68284 0.5485 0.10335
H5 H 0.75669 0.30141 0.17199
H6 H 0.479 1.02408 0.41264
H7 H 0.41731 0.93451 0.31097
C1 C 0.190(5) 0.6190(18) 0.6955(12)
C2 C 0.251(5) 0.4828(22) 0.6310(10)
C3 C 0.337(5) 0.3340(19) 0.6672(11)
C4 C 0.352(5) 0.3156(19) 0.7657(11)
C5 C 0.306(5) 0.4590(24) 0.8292(8)
C6 C 0.415(5) 0.2042(21) 0.5927(10)
N1 N 0.237(4) 0.6061(18) 0.7890(11)
O1 O 0.3172(32) 0.2094(14) 0.5009(8)
N2 N 0.5192(34) 0.0660(17) 0.6272(8)
H1 H 0.10111 0.71341 0.67152
H2 H 0.2346 0.49391 0.56431
H3 H 0.37972 0.209 0.79023
H4 H 0.31716 0.4515 0.89665
H5 H 0.24331 0.69859 0.82801
H6 H 0.521 -0.02408 0.58736
H7 H 0.58269 0.06549 0.68903

#END
