./ABIBIX_from_POSCAR.cif_generated_by_CrystalShift
_symmetry_cell_setting triclinic
_symmetry_space_group_name_H-M 'P 1'
loop_
_symmetry_equiv_pos_site_id
_symmetry_equiv_pos_as_xyz
1 x,y,z
_cell_length_a 14.388000
_cell_length_b 5.801000
_cell_length_c 19.958000
_cell_angle_alpha 90.000000
_cell_angle_beta 110.670000
_cell_angle_gamma 90.000000
_cell_volume 1558.561625
loop_
_atom_site_label
_atom_site_type_symbol
_atom_site_fract_x
_atom_site_fract_y
_atom_site_fract_z
H1 H 0.757100 0.497600 0.981800
H2 H 0.522900 0.045700 0.928800
H3 H 0.622100 -0.221600 1.010600
H4 H 0.790900 -0.130900 1.082100
H5 H 1.102100 -0.083900 1.227200
H6 H 1.064500 0.085200 1.273400
H7 H 1.156300 0.152000 1.252600
H8 H 1.258000 0.382000 1.170700
H9 H 1.215300 0.373500 1.232800
H10 H 1.323900 0.794200 1.147300
H11 H 1.430700 1.080400 1.204700
H12 H 1.451900 1.168900 1.325500
H13 H 1.377900 0.938000 1.387700
H14 H 1.274600 0.627300 1.330900
H15 H 0.725400 0.627300 0.669100
H16 H 0.622100 0.938000 0.612300
H17 H 0.548100 1.168900 0.674500
H18 H 0.569300 1.080400 0.795300
H19 H 0.676100 0.794200 0.852700
H20 H 0.742000 0.382000 0.829300
H21 H 0.784700 0.373500 0.767200
H22 H 0.897900 -0.083900 0.772800
H23 H 0.935500 0.085200 0.726600
H24 H 0.242900 0.997600 0.518200
H25 H 0.410000 0.896200 0.587900
H26 H 0.477100 0.545700 0.571200
H27 H 0.377900 0.278400 0.489400
H28 H 0.209100 0.369100 0.417900
H29 H -0.156300 0.652000 0.247400
H30 H -0.064500 0.585200 0.226600
H31 H -0.102100 0.416100 0.272800
H32 H -0.215300 0.873500 0.267200
H33 H -0.258000 0.882000 0.329300
H34 H -0.323900 1.294200 0.352700
H35 H -0.430700 1.580400 0.295300
H36 H -0.451900 1.668900 0.174500
H37 H -0.377900 1.438000 0.112300
H38 H -0.274600 1.127300 0.169100
H39 H 0.843700 0.152000 0.747400
H40 H 1.209100 -0.130900 0.917900
H41 H 1.377900 -0.221600 0.989400
H42 H 1.477100 0.045700 1.071200
H43 H 1.410000 0.396200 1.087900
H44 H 1.242900 0.497600 1.018200
H45 H 0.757100 0.497600 -0.018200
H46 H 0.590000 0.396200 -0.087900
H47 H 0.522900 0.045700 -0.071200
H48 H 0.622100 -0.221600 0.010600
H49 H 0.790900 -0.130900 0.082100
H50 H 1.102100 -0.083900 0.227200
H51 H 1.064500 0.085200 0.273400
H52 H 1.156300 0.152000 0.252600
H53 H 1.258000 0.382000 0.170700
H54 H 0.274600 1.127300 0.830900
H55 H 0.377900 1.438000 0.887700
H56 H 0.451900 1.668900 0.825500
H57 H 0.430700 1.580400 0.704700
H58 H 0.323900 1.294200 0.647300
H59 H 0.215300 0.873500 0.732800
H60 H 0.258000 0.882000 0.670700
H61 H 1.215300 0.373500 0.232800
H62 H 0.156300 0.652000 0.752600
H63 H 0.064500 0.585200 0.773400
H64 H 0.102100 0.416100 0.727200
H65 H 1.323900 0.794200 0.147300
H66 H 1.430700 1.080400 0.204700
H67 H 1.451900 1.168900 0.325500
H68 H 1.377900 0.938000 0.387700
H69 H 1.274600 0.627300 0.330900
H70 H 0.725400 0.627300 -0.330900
H71 H -0.209100 0.369100 0.582100
H72 H -0.377900 0.278400 0.510600
H73 H -0.477100 0.545700 0.428800
H74 H -0.410000 0.896200 0.412100
H75 H -0.242900 0.997600 0.481800
H76 H 0.622100 0.938000 -0.387700
H77 H 0.548100 1.168900 -0.325500
H78 H 0.569300 1.080400 -0.204700
H79 H 0.676100 0.794200 -0.147300
H80 H 0.742000 0.382000 -0.170700
H81 H 0.784700 0.373500 -0.232800
H82 H 0.897900 -0.083900 -0.227200
H83 H 0.935500 0.085200 -0.273400
H84 H 0.843700 0.152000 -0.252600
H85 H 1.209100 -0.130900 -0.082100
H86 H 1.377900 -0.221600 -0.010600
H87 H 1.477100 0.045700 0.071200
H88 H 1.410000 0.396200 0.087900
H89 H 1.242900 0.497600 0.018200
H90 H -0.242900 0.497600 0.981800
H91 H -0.410000 0.396200 0.912100
H92 H -0.477100 0.045700 0.928800
H93 H -0.377900 -0.221600 1.010600
H94 H -0.209100 -0.130900 1.082100
H95 H 0.102100 -0.083900 1.227200
H96 H 0.064500 0.085200 1.273400
H97 H 0.156300 0.152000 1.252600
H98 H 0.258000 0.382000 1.170700
H99 H 1.242900 0.997600 0.518200
H100 H 1.410000 0.896200 0.587900
H101 H 1.477100 0.545700 0.571200
H102 H 1.377900 0.278400 0.489400
H103 H 1.209100 0.369100 0.417900
H104 H 0.843700 0.652000 0.247400
H105 H 0.935500 0.585200 0.226600
H106 H 0.897900 0.416100 0.272800
H107 H 0.784700 0.873500 0.267200
H108 H 0.742000 0.882000 0.329300
H109 H 0.676100 1.294200 0.352700
H110 H 0.569300 1.580400 0.295300
H111 H 0.548100 1.668900 0.174500
H112 H 0.622100 1.438000 0.112300
H113 H 0.725400 1.127300 0.169100
H114 H 0.215300 0.373500 1.232800
H115 H 0.323900 0.794200 1.147300
H116 H 0.430700 1.080400 1.204700
H117 H 0.451900 1.168900 1.325500
H118 H 0.377900 0.938000 1.387700
H119 H 0.274600 0.627300 1.330900
H120 H -0.274600 0.627300 0.669100
H121 H -0.377900 0.938000 0.612300
H122 H -0.451900 1.168900 0.674500
H123 H -0.430700 1.080400 0.795300
H124 H -0.323900 0.794200 0.852700
H125 H -0.258000 0.382000 0.829300
H126 H -0.215300 0.373500 0.767200
H127 H -0.102100 -0.083900 0.772800
H128 H -0.064500 0.085200 0.726600
H129 H 1.274600 1.127300 0.830900
H130 H 1.377900 1.438000 0.887700
H131 H 1.451900 1.668900 0.825500
H132 H 1.430700 1.580400 0.704700
H133 H 1.323900 1.294200 0.647300
H134 H 1.215300 0.873500 0.732800
H135 H 1.258000 0.882000 0.670700
H136 H -0.156300 0.152000 0.747400
H137 H 1.156300 0.652000 0.752600
H138 H 1.064500 0.585200 0.773400
H139 H 1.102100 0.416100 0.727200
H140 H 0.209100 -0.130900 0.917900
H141 H 0.377900 -0.221600 0.989400
H142 H 0.477100 0.045700 1.071200
H143 H 0.410000 0.396200 1.087900
H144 H 0.242900 0.497600 1.018200
H145 H -0.242900 0.497600 -0.018200
H146 H 0.790900 0.369100 0.582100
H147 H 0.622100 0.278400 0.510600
H148 H 0.522900 0.545700 0.428800
H149 H 0.590000 0.896200 0.412100
H150 H 0.757100 0.997600 0.481800
H151 H -0.410000 0.396200 -0.087900
H152 H -0.477100 0.045700 -0.071200
H153 H -0.377900 -0.221600 0.010600
H154 H -0.209100 -0.130900 0.082100
H155 H 0.102100 -0.083900 0.227200
H156 H 0.064500 0.085200 0.273400
H157 H 0.156300 0.152000 0.252600
H158 H 0.258000 0.382000 0.170700
H159 H 0.215300 0.373500 0.232800
H160 H 0.323900 0.794200 0.147300
H161 H 0.430700 1.080400 0.204700
H162 H 0.451900 1.168900 0.325500
H163 H 0.377900 0.938000 0.387700
H164 H 0.274600 0.627300 0.330900
H165 H -0.274600 0.627300 -0.330900
H166 H -0.377900 0.938000 -0.387700
H167 H -0.451900 1.168900 -0.325500
H168 H -0.430700 1.080400 -0.204700
H169 H -0.323900 0.794200 -0.147300
H170 H -0.258000 0.382000 -0.170700
H171 H -0.215300 0.373500 -0.232800
H172 H -0.102100 -0.083900 -0.227200
H173 H -0.064500 0.085200 -0.273400
H174 H 0.242900 0.497600 0.018200
H175 H 0.410000 0.396200 0.087900
H176 H 0.477100 0.045700 0.071200
H177 H 0.377900 -0.221600 -0.010600
H178 H 0.209100 -0.130900 -0.082100
H179 H -0.156300 0.152000 -0.252600
H180 H 0.590000 0.396200 0.912100
C181 C -0.367000 0.905000 -0.338300
C182 C -0.411200 1.041000 -0.301900
C183 C -0.397200 0.992000 -0.230000
C184 C -0.336200 0.820000 -0.197200
C185 C -0.289100 0.670000 -0.231900
C186 C -0.224400 0.469000 -0.196300
C187 C -0.093100 0.075000 -0.236800
C188 C 0.249800 -0.022000 -0.048000
C189 C 0.750200 -0.022000 1.048000
C190 C -0.053800 0.423000 0.076500
C191 C 0.649500 -0.075000 1.005100
C192 C 0.590900 0.082000 0.956200
C193 C 0.025400 0.187000 0.170000
C194 C 0.040400 0.391000 0.133400
C195 C 0.122100 0.536000 0.143600
C196 C 0.630500 0.290000 0.947100
C197 C 0.224400 0.469000 0.196300
C198 C 0.289100 0.670000 0.231900
C199 C 0.336200 0.820000 0.197200
C200 C 0.397200 0.992000 0.230000
C201 C 0.411200 1.041000 0.301900
C202 C 0.367000 0.905000 0.338300
C203 C 0.305400 0.720000 0.304700
C204 C 0.350500 -0.075000 -0.005100
C205 C 0.409100 0.082000 0.043800
C206 C 0.369500 0.290000 0.052900
C207 C 0.270000 0.352000 0.011700
C208 C 0.213000 0.192000 -0.038300
C209 C -0.122100 0.536000 -0.143600
C210 C 0.053800 0.423000 -0.076500
C211 C 0.093100 0.075000 0.236800
C212 C -0.040400 0.391000 -0.133400
C213 C -0.025400 0.187000 -0.170000
C214 C 0.730000 0.352000 0.988300
C215 C -0.213000 0.192000 0.038300
C216 C -0.270000 0.352000 -0.011700
C217 C -0.369500 0.290000 -0.052900
C218 C -0.409100 0.082000 -0.043800
C219 C -0.350500 -0.075000 0.005100
C220 C -0.249800 -0.022000 0.048000
C221 C 0.787000 0.192000 1.038300
C222 C -0.025400 0.687000 0.330000
C223 C -0.040400 0.891000 0.366600
C224 C 1.093100 0.075000 1.236800
C225 C 0.750200 0.478000 0.548000
C226 C 0.053800 0.923000 0.423500
C227 C -0.122100 1.036000 0.356400
C228 C 0.213000 0.692000 0.461700
C229 C 0.270000 0.852000 0.511700
C230 C 0.369500 0.790000 0.552900
C231 C -0.025400 0.187000 0.830000
C232 C -0.040400 0.391000 0.866600
C233 C 0.053800 0.423000 0.923500
C234 C -0.122100 0.536000 0.856400
C235 C 0.213000 0.192000 0.961700
C236 C 0.270000 0.352000 1.011700
C237 C 0.369500 0.290000 1.052900
C238 C 0.409100 0.082000 1.043800
C239 C 0.350500 -0.075000 0.994900
C240 C 0.249800 -0.022000 0.952000
C241 C -0.093100 0.075000 0.763200
C242 C -0.224400 0.469000 0.803700
C243 C -0.289100 0.670000 0.768100
C244 C -0.336200 0.820000 0.802800
C245 C -0.397200 0.992000 0.770000
C246 C -0.411200 1.041000 0.698100
C247 C -0.367000 0.905000 0.661700
C248 C -0.305400 0.720000 0.695300
C249 C 0.649500 0.425000 0.505100
C250 C 0.590900 0.582000 0.456200
C251 C 0.630500 0.790000 0.447100
C252 C 0.730000 0.852000 0.488300
C253 C 0.787000 0.692000 0.538300
C254 C 1.093100 0.575000 0.736800
C255 C 1.305400 1.220000 0.804700
C256 C 1.367000 1.405000 0.838300
C257 C 1.411200 1.541000 0.801900
C258 C 1.397200 1.492000 0.730000
C259 C 1.336200 1.320000 0.697200
C260 C 1.289100 1.170000 0.731900
C261 C 1.224400 0.969000 0.696300
C262 C 0.409100 0.582000 0.543800
C263 C 1.122100 1.036000 0.643600
C264 C 0.350500 0.425000 0.494900
C265 C -0.053800 0.423000 1.076500
C266 C 1.305400 0.720000 1.304700
C267 C 1.367000 0.905000 1.338300
C268 C 0.025400 0.187000 1.170000
C269 C 0.040400 0.391000 1.133400
C270 C 0.122100 0.536000 1.143600
C271 C 1.411200 1.041000 1.301900
C272 C 0.224400 0.469000 1.196300
C273 C 0.289100 0.670000 1.231900
C274 C 0.336200 0.820000 1.197200
C275 C 0.397200 0.992000 1.230000
C276 C 0.411200 1.041000 1.301900
C277 C 0.367000 0.905000 1.338300
C278 C 0.305400 0.720000 1.304700
C279 C 1.040400 0.891000 0.633400
C280 C 1.025400 0.687000 0.670000
C281 C 1.397200 0.992000 1.230000
C282 C 1.336200 0.820000 1.197200
C283 C 0.946200 0.923000 0.576500
C284 C 1.289100 0.670000 1.231900
C285 C 0.694600 1.220000 0.195300
C286 C 0.093100 0.075000 1.236800
C287 C 0.633000 1.405000 0.161700
C288 C 0.588800 1.541000 0.198100
C289 C 0.602800 1.492000 0.270000
C290 C -0.213000 0.192000 1.038300
C291 C -0.270000 0.352000 0.988300
C292 C -0.369500 0.290000 0.947100
C293 C -0.409100 0.082000 0.956200
C294 C -0.350500 -0.075000 1.005100
C295 C -0.249800 -0.022000 1.048000
C296 C 0.663800 1.320000 0.302800
C297 C 0.710900 1.170000 0.268100
C298 C 0.775600 0.969000 0.303700
C299 C 0.906900 0.575000 0.263200
C300 C 1.249800 0.478000 0.452000
C301 C 1.224400 0.469000 1.196300
C302 C 1.122100 0.536000 1.143600
C303 C 1.040400 0.391000 1.133400
C304 C 1.025400 0.187000 1.170000
C305 C 0.946200 0.423000 1.076500
C306 C 0.974600 0.187000 -0.170000
C307 C 0.959600 0.391000 -0.133400
C308 C 1.053800 0.423000 -0.076500
C309 C 0.877900 0.536000 -0.143600
C310 C 1.213000 0.192000 -0.038300
C311 C 1.270000 0.352000 0.011700
C312 C 1.369500 0.290000 0.052900
C313 C 1.409100 0.082000 0.043800
C314 C 1.350500 -0.075000 -0.005100
C315 C 1.249800 -0.022000 -0.048000
C316 C 0.906900 0.075000 -0.236800
C317 C 0.775600 0.469000 -0.196300
C318 C 0.710900 0.670000 -0.231900
C319 C 0.663800 0.820000 -0.197200
C320 C 0.602800 0.992000 -0.230000
C321 C 0.588800 1.041000 -0.301900
C322 C 0.633000 0.905000 -0.338300
C323 C 0.694600 0.720000 -0.304700
C324 C 1.350500 0.425000 0.494900
C325 C 1.409100 0.582000 0.543800
C326 C 1.369500 0.790000 0.552900
C327 C 1.270000 0.852000 0.511700
C328 C 1.213000 0.692000 0.461700
C329 C 0.877900 1.036000 0.356400
C330 C 1.053800 0.923000 0.423500
C331 C 0.959600 0.891000 0.366600
C332 C 0.974600 0.687000 0.330000
C333 C 0.249800 0.478000 0.452000
C334 C -0.093100 0.575000 0.263200
C335 C -0.224400 0.969000 0.303700
C336 C -0.289100 1.170000 0.268100
C337 C -0.336200 1.320000 0.302800
C338 C -0.249800 0.478000 0.548000
C339 C -0.397200 1.492000 0.270000
C340 C 0.946200 0.423000 0.076500
C341 C -0.411200 1.541000 0.198100
C342 C -0.367000 1.405000 0.161700
C343 C 1.025400 0.187000 0.170000
C344 C 1.040400 0.391000 0.133400
C345 C 1.122100 0.536000 0.143600
C346 C -0.305400 1.220000 0.195300
C347 C 1.224400 0.469000 0.196300
C348 C 1.289100 0.670000 0.231900
C349 C 1.336200 0.820000 0.197200
C350 C 1.397200 0.992000 0.230000
C351 C 1.411200 1.041000 0.301900
C352 C 1.367000 0.905000 0.338300
C353 C 1.305400 0.720000 0.304700
C354 C -0.350500 0.425000 0.505100
C355 C -0.409100 0.582000 0.456200
C356 C -0.369500 0.790000 0.447100
C357 C -0.270000 0.852000 0.488300
C358 C -0.213000 0.692000 0.538300
C359 C 0.093100 0.575000 0.736800
C360 C 0.305400 1.220000 0.804700
C361 C 1.093100 0.075000 0.236800
C362 C 0.367000 1.405000 0.838300
C363 C 0.411200 1.541000 0.801900
C364 C 0.397200 1.492000 0.730000
C365 C 0.787000 0.192000 0.038300
C366 C 0.730000 0.352000 -0.011700
C367 C 0.630500 0.290000 -0.052900
C368 C 0.590900 0.082000 -0.043800
C369 C 0.649500 -0.075000 0.005100
C370 C 0.750200 -0.022000 0.048000
C371 C 0.336200 1.320000 0.697200
C372 C 0.289100 1.170000 0.731900
C373 C 0.224400 0.969000 0.696300
C374 C -0.053800 0.923000 0.576500
C375 C 0.122100 1.036000 0.643600
C376 C 0.025400 0.687000 0.670000
C377 C 0.040400 0.891000 0.633400
C378 C 0.694600 0.720000 0.695300
C379 C 0.633000 0.905000 0.661700
C380 C 0.588800 1.041000 0.698100
C381 C 0.974600 0.187000 0.830000
C382 C 0.959600 0.391000 0.866600
C383 C 1.053800 0.423000 0.923500
C384 C 0.877900 0.536000 0.856400
C385 C 1.213000 0.192000 0.961700
C386 C 1.270000 0.352000 1.011700
C387 C 1.369500 0.290000 1.052900
C388 C 1.409100 0.082000 1.043800
C389 C 1.350500 -0.075000 0.994900
C390 C 1.249800 -0.022000 0.952000
C391 C 0.906900 0.075000 0.763200
C392 C 0.775600 0.469000 0.803700
C393 C 0.710900 0.670000 0.768100
C394 C 0.663800 0.820000 0.802800
C395 C 0.602800 0.992000 0.770000
C396 C -0.305400 0.720000 -0.304700
N397 N 1.113600 0.248000 0.917400
N398 N 0.113600 0.748000 0.417400
N399 N -0.113600 0.248000 0.082600
N400 N -0.064900 0.102000 0.141200
N401 N -0.064900 0.602000 0.641200
N402 N -0.113600 0.748000 0.582600
N403 N 0.064900 0.102000 -0.141200
N404 N 0.113600 0.248000 -0.082600
N405 N 0.064900 0.602000 0.358800
N406 N 0.935100 0.102000 0.141200
N407 N 0.886400 0.248000 0.082600
N408 N 0.113600 0.248000 0.917400
N409 N 0.064900 0.102000 0.858800
N410 N -0.113600 0.248000 1.082600
N411 N -0.064900 0.102000 1.141200
N412 N 1.113600 0.748000 0.417400
N413 N 1.064900 0.602000 0.358800
N414 N 0.935100 0.602000 0.641200
N415 N 1.064900 0.102000 -0.141200
N416 N 0.886400 0.248000 1.082600
N417 N 0.935100 0.102000 1.141200
N418 N 1.113600 0.248000 -0.082600
N419 N 0.886400 0.748000 0.582600
N420 N 1.064900 0.102000 0.858800
O421 O 1.116000 0.719000 1.109600
O422 O 0.083600 1.075000 0.472300
O423 O 1.083600 0.575000 -0.027700
O424 O 0.884000 0.719000 -0.109600
O425 O 0.916400 0.575000 1.027700
O426 O 0.116000 0.719000 1.109600
O427 O 0.884000 1.219000 0.390400
O428 O 1.083600 1.075000 0.472300
O429 O -0.083600 0.575000 1.027700
O430 O 1.116000 1.219000 0.609600
O431 O -0.116000 1.219000 0.390400
O432 O 0.916400 0.575000 0.027700
O433 O -0.116000 0.719000 0.890400
O434 O 0.083600 0.575000 0.972300
O435 O 0.916400 1.075000 0.527700
O436 O 0.884000 0.719000 0.890400
O437 O 0.083600 0.575000 -0.027700
O438 O -0.116000 0.719000 -0.109600
O439 O 1.116000 0.719000 0.109600
O440 O -0.083600 1.075000 0.527700
O441 O 0.116000 1.219000 0.609600
O442 O 0.116000 0.719000 0.109600
O443 O -0.083600 0.575000 0.027700
O444 O 1.083600 0.575000 0.972300
Sn445 Sn 0.000000 0.835900 0.000000
Sn446 Sn 1.000000 1.335900 0.500000
Sn447 Sn 1.000000 0.835900 0.000000
Sn448 Sn 0.000000 0.835900 1.000000
Sn449 Sn 1.000000 0.835900 1.000000
Sn450 Sn 0.000000 1.335900 0.500000

#END
