
#######################################################################
#
#                 Cambridge Crystallographic Data Centre
#                                CCDC 
#
#######################################################################
#
# If this CIF has been generated from an entry in the Cambridge 
# Structural Database, then it will include bibliographic, chemical, 
# crystal, experimental, refinement or atomic coordinate data resulting 
# from the CCDC's data processing and validation procedures.
#
#######################################################################

data_ABICIZ
_symmetry_cell_setting           triclinic
_symmetry_space_group_name_H-M   'P -1'
_symmetry_Int_Tables_number      2
_space_group_name_Hall           '-P 1'
loop_
_symmetry_equiv_pos_site_id
_symmetry_equiv_pos_as_xyz
1 x,y,z
2 -x,-y,-z
_cell_length_a                   6.5165(13)
_cell_length_b                   8.5144(17)
_cell_length_c                   11.313(2)
_cell_angle_alpha                94.15(3)
_cell_angle_beta                 91.73(3)
_cell_angle_gamma                96.63(3)
_cell_volume                     621.388
loop_
_atom_site_label
_atom_site_type_symbol
_atom_site_fract_x
_atom_site_fract_y
_atom_site_fract_z
O1 O 0.3727(3) 0.7582(2) 1.03469(15)
O2 O 0.2132(3) 0.5456(2) 0.91212(15)
O3 O 0.7970(3) 1.2403(2) 0.69522(16)
N1 N 1.0066(3) 0.8345(2) 0.64293(16)
C1 C 0.2137(4) 0.6265(3) 1.0277(2)
H1 H 0.0804 0.6635 1.0410
H2 H 0.2398 0.5550 1.0880
C2 C 0.3934(4) 0.6073(3) 0.8635(2)
C3 C 0.4743(4) 0.5631(3) 0.7572(2)
H3 H 0.4094 0.4785 0.7080
C4 C 0.6583(4) 0.6498(3) 0.7251(2)
C5 C 0.7464(4) 0.6052(3) 0.6075(2)
H4 H 0.6726 0.6502 0.5448
H5 H 0.7274 0.4908 0.5923
C6 C 0.9741(4) 0.6649(3) 0.6062(2)
H6 H 1.0514 0.6074 0.6597
H7 H 1.0237 0.6466 0.5269
C7 C 1.2173(4) 0.9033(3) 0.6200(2)
H8 H 1.2493 0.8733 0.5388
H9 H 1.3151 0.8618 0.6723
C8 C 1.2384(4) 1.0824(3) 0.6399(2)
H10 H 1.1482 1.1246 0.5835
H11 H 1.3796 1.1257 0.6270
C9 C 1.1818(4) 1.1319(3) 0.7656(2)
H12 H 1.1774 1.2456 0.7741
H13 H 1.2859 1.1059 0.8217
C10 C 0.9704(4) 1.0460(3) 0.7922(2)
H14 H 0.9480 1.0683 0.8768
C11 C 0.9615(4) 0.8659(3) 0.7682(2)
H15 H 1.0722 0.8303 0.8165
C12 C 0.7569(4) 0.7745(3) 0.7996(2)
C13 C 0.6709(4) 0.8183(3) 0.9087(2)
H16 H 0.7347 0.9016 0.9595
C14 C 0.4904(4) 0.7335(3) 0.9364(2)
C15 C 0.7967(4) 1.1054(3) 0.7230(2)
H17 H 0.6817 1.0334 0.7000
O1 O 0.6273(3) 0.2418(2) -0.03469(15)
O2 O 0.7868(3) 0.4544(2) 0.08788(15)
O3 O 0.2030(3) -0.2403(2) 0.30478(16)
N1 N -0.0066(3) 0.1655(2) 0.35707(16)
C1 C 0.7863(4) 0.3735(3) -0.0277(2)
H1 H 0.9196 0.3365 -0.0410
H2 H 0.7602 0.4450 -0.0880
C2 C 0.6066(4) 0.3927(3) 0.1365(2)
C3 C 0.5257(4) 0.4369(3) 0.2428(2)
H3 H 0.5906 0.5215 0.2920
C4 C 0.3417(4) 0.3502(3) 0.2749(2)
C5 C 0.2536(4) 0.3948(3) 0.3925(2)
H4 H 0.3274 0.3498 0.4552
H5 H 0.2726 0.5092 0.4077
C6 C 0.0259(4) 0.3351(3) 0.3938(2)
H6 H -0.0514 0.3926 0.3403
H7 H -0.0237 0.3534 0.4731
C7 C -0.2173(4) 0.0967(3) 0.3800(2)
H8 H -0.2493 0.1267 0.4612
H9 H -0.3151 0.1382 0.3277
C8 C -0.2384(4) -0.0824(3) 0.3601(2)
H10 H -0.1482 -0.1246 0.4165
H11 H -0.3796 -0.1257 0.3730
C9 C -0.1818(4) -0.1319(3) 0.2344(2)
H12 H -0.1774 -0.2456 0.2259
H13 H -0.2859 -0.1059 0.1783
C10 C 0.0296(4) -0.0460(3) 0.2078(2)
H14 H 0.0520 -0.0683 0.1232
C11 C 0.0385(4) 0.1341(3) 0.2318(2)
H15 H -0.0722 0.1697 0.1835
C12 C 0.2431(4) 0.2255(3) 0.2004(2)
C13 C 0.3291(4) 0.1817(3) 0.0913(2)
H16 H 0.2653 0.0984 0.0405
C14 C 0.5096(4) 0.2665(3) 0.0636(2)
C15 C 0.2033(4) -0.1054(3) 0.2770(2)
H17 H 0.3183 -0.0334 0.3000

#END
