
#######################################################################
#
#                 Cambridge Crystallographic Data Centre
#                                CCDC 
#
#######################################################################
#
# If this CIF has been generated from an entry in the Cambridge 
# Structural Database, then it will include bibliographic, chemical, 
# crystal, experimental, refinement or atomic coordinate data resulting 
# from the CCDC's data processing and validation procedures.
#
#######################################################################

data_ABICUK
_symmetry_cell_setting           monoclinic
_symmetry_space_group_name_H-M   'P 21/c'
_symmetry_Int_Tables_number      14
_space_group_name_Hall           '-P 2ybc'
loop_
_symmetry_equiv_pos_site_id
_symmetry_equiv_pos_as_xyz
1 x,y,z
2 x,1/2-y,1/2+z
3 -x,-y,-z
4 -x,1/2+y,1/2-z
_cell_length_a                   10.6735(3)
_cell_length_b                   11.6164(3)
_cell_length_c                   16.3699(4)
_cell_angle_alpha                90
_cell_angle_beta                 103.738(5)
_cell_angle_gamma                90
_cell_volume                     1971.6
loop_
_atom_site_label
_atom_site_type_symbol
_atom_site_fract_x
_atom_site_fract_y
_atom_site_fract_z
Rh1 Rh 0.79961(3) 0.19781(2) 0.68745(2)
Br1 Br 0.60036(4) 0.30788(3) 0.61876(2)
C1 C 0.8701(4) 0.2321(3) 0.6004(2)
O1 O 0.9091(3) 0.2562(2) 0.5428(2)
C2 C 0.9516(3) 0.1196(3) 0.7539(2)
N1 N 1.0730(3) 0.0893(2) 0.7518(2)
C3 C 1.1365(4) 0.0333(3) 0.8264(2)
C4 C 1.0548(4) 0.0289(3) 0.8766(2)
N2 N 0.9424(3) 0.0817(2) 0.8327(2)
C5 C 0.8220(3) 0.0940(3) 0.8487(2)
O2 O 0.7997(2) 0.0494(2) 0.9183(1)
C6 C 0.6613(4) 0.0735(3) 0.9113(2)
C7 C 0.6159(4) 0.1444(3) 0.8296(2)
C8 C 0.5821(5) 0.2674(4) 0.8490(3)
C9 C 0.5077(4) 0.0850(4) 0.7679(3)
N3 N 0.7339(3) 0.1459(2) 0.7958(2)
C10 C 1.1301(3) 0.1041(3) 0.6807(2)
C11 C 1.1921(4) 0.2084(3) 0.6722(2)
C12 C 1.2480(4) 0.2169(3) 0.6038(2)
C13 C 1.2443(4) 0.1295(3) 0.5473(2)
C14 C 1.1802(4) 0.0281(3) 0.5575(2)
C15 C 1.1208(3) 0.0139(3) 0.6244(2)
C16 C 1.1981(4) 0.3042(3) 0.7341(3)
C17 C 1.3097(5) 0.1431(5) 0.4756(3)
C18 C 1.0519(4) -0.0953(3) 0.6349(2)
H1 H 1.2220 0.0040 0.8388
H2 H 1.0705 -0.0038 0.9313
H3 H 0.6504 0.1165 0.9585
H4 H 0.6140 0.0036 0.9078
H5 H 0.5069 0.2668 0.8705
H6 H 0.6518 0.2999 0.8895
H7 H 0.5665 0.3120 0.7990
H8 H 0.4327 0.0842 0.7897
H9 H 0.4898 0.1252 0.7159
H10 H 0.5323 0.0082 0.7594
H11 H 1.2905 0.2865 0.5961
H12 H 1.1767 -0.0327 0.5182
H13 H 1.2435 0.3675 0.7182
H14 H 1.1130 0.3276 0.7348
H15 H 1.2415 0.2785 0.7885
H16 H 1.3483 0.2172 0.4784
H17 H 1.3743 0.0857 0.4797
H18 H 1.2477 0.1351 0.4236
H19 H 1.0556 -0.1467 0.5904
H20 H 1.0920 -0.1298 0.6872
H21 H 0.9644 -0.0787 0.6338
Rh1 Rh 0.79961(3) 0.30219(2) 0.18745(2)
Br1 Br 0.60036(4) 0.19212(3) 0.11876(2)
C1 C 0.8701(4) 0.2679(3) 0.1004(2)
O1 O 0.9091(3) 0.2438(2) 0.0428(2)
C2 C 0.9516(3) 0.3804(3) 0.2539(2)
N1 N 1.0730(3) 0.4107(2) 0.2518(2)
C3 C 1.1365(4) 0.4667(3) 0.3264(2)
C4 C 1.0548(4) 0.4711(3) 0.3766(2)
N2 N 0.9424(3) 0.4183(2) 0.3327(2)
C5 C 0.8220(3) 0.4060(3) 0.3487(2)
O2 O 0.7997(2) 0.4506(2) 0.4183(1)
C6 C 0.6613(4) 0.4265(3) 0.4113(2)
C7 C 0.6159(4) 0.3556(3) 0.3296(2)
C8 C 0.5821(5) 0.2326(4) 0.3490(3)
C9 C 0.5077(4) 0.4150(4) 0.2679(3)
N3 N 0.7339(3) 0.3541(2) 0.2958(2)
C10 C 1.1301(3) 0.3959(3) 0.1807(2)
C11 C 1.1921(4) 0.2916(3) 0.1722(2)
C12 C 1.2480(4) 0.2831(3) 0.1038(2)
C13 C 1.2443(4) 0.3705(3) 0.0473(2)
C14 C 1.1802(4) 0.4719(3) 0.0575(2)
C15 C 1.1208(3) 0.4861(3) 0.1244(2)
C16 C 1.1981(4) 0.1958(3) 0.2341(3)
C17 C 1.3097(5) 0.3569(5) -0.0244(3)
C18 C 1.0519(4) 0.5953(3) 0.1349(2)
H1 H 1.2220 0.4960 0.3388
H2 H 1.0705 0.5038 0.4313
H3 H 0.6504 0.3835 0.4585
H4 H 0.6140 0.4964 0.4078
H5 H 0.5069 0.2332 0.3705
H6 H 0.6518 0.2001 0.3895
H7 H 0.5665 0.1880 0.2990
H8 H 0.4327 0.4158 0.2897
H9 H 0.4898 0.3748 0.2159
H10 H 0.5323 0.4918 0.2594
H11 H 1.2905 0.2135 0.0961
H12 H 1.1767 0.5327 0.0182
H13 H 1.2435 0.1325 0.2182
H14 H 1.1130 0.1724 0.2348
H15 H 1.2415 0.2215 0.2885
H16 H 1.3483 0.2828 -0.0216
H17 H 1.3743 0.4143 -0.0203
H18 H 1.2477 0.3649 -0.0764
H19 H 1.0556 0.6467 0.0904
H20 H 1.0920 0.6298 0.1872
H21 H 0.9644 0.5787 0.1338
Rh1 Rh 0.20039(3) 0.80219(2) 0.31255(2)
Br1 Br 0.39964(4) 0.69212(3) 0.38124(2)
C1 C 0.1299(4) 0.7679(3) 0.3996(2)
O1 O 0.0909(3) 0.7438(2) 0.4572(2)
C2 C 0.0484(3) 0.8804(3) 0.2461(2)
N1 N -0.0730(3) 0.9107(2) 0.2482(2)
C3 C -0.1365(4) 0.9667(3) 0.1736(2)
C4 C -0.0548(4) 0.9711(3) 0.1234(2)
N2 N 0.0576(3) 0.9183(2) 0.1673(2)
C5 C 0.1780(3) 0.9060(3) 0.1513(2)
O2 O 0.2003(2) 0.9506(2) 0.0817(1)
C6 C 0.3387(4) 0.9265(3) 0.0887(2)
C7 C 0.3841(4) 0.8556(3) 0.1704(2)
C8 C 0.4179(5) 0.7326(4) 0.1510(3)
C9 C 0.4923(4) 0.9150(4) 0.2321(3)
N3 N 0.2661(3) 0.8541(2) 0.2042(2)
C10 C -0.1301(3) 0.8959(3) 0.3193(2)
C11 C -0.1921(4) 0.7916(3) 0.3278(2)
C12 C -0.2480(4) 0.7831(3) 0.3962(2)
C13 C -0.2443(4) 0.8705(3) 0.4527(2)
C14 C -0.1802(4) 0.9719(3) 0.4425(2)
C15 C -0.1208(3) 0.9861(3) 0.3756(2)
C16 C -0.1981(4) 0.6958(3) 0.2659(3)
C17 C -0.3097(5) 0.8569(5) 0.5244(3)
C18 C -0.0519(4) 1.0953(3) 0.3651(2)
H1 H -0.2220 0.9960 0.1612
H2 H -0.0705 1.0038 0.0687
H3 H 0.3496 0.8835 0.0415
H4 H 0.3860 0.9964 0.0922
H5 H 0.4931 0.7332 0.1295
H6 H 0.3482 0.7001 0.1105
H7 H 0.4335 0.6880 0.2010
H8 H 0.5673 0.9158 0.2103
H9 H 0.5102 0.8748 0.2841
H10 H 0.4677 0.9918 0.2406
H11 H -0.2905 0.7135 0.4039
H12 H -0.1767 1.0327 0.4818
H13 H -0.2435 0.6325 0.2818
H14 H -0.1130 0.6724 0.2652
H15 H -0.2415 0.7215 0.2115
H16 H -0.3483 0.7828 0.5216
H17 H -0.3743 0.9143 0.5203
H18 H -0.2477 0.8649 0.5764
H19 H -0.0556 1.1467 0.4096
H20 H -0.0920 1.1298 0.3128
H21 H 0.0356 1.0787 0.3662
Rh1 Rh 0.20039(3) 0.69781(2) 0.81255(2)
Br1 Br 0.39964(4) 0.80788(3) 0.88124(2)
C1 C 0.1299(4) 0.7321(3) 0.8996(2)
O1 O 0.0909(3) 0.7562(2) 0.9572(2)
C2 C 0.0484(3) 0.6196(3) 0.7461(2)
N1 N -0.0730(3) 0.5893(2) 0.7482(2)
C3 C -0.1365(4) 0.5333(3) 0.6736(2)
C4 C -0.0548(4) 0.5289(3) 0.6234(2)
N2 N 0.0576(3) 0.5817(2) 0.6673(2)
C5 C 0.1780(3) 0.5940(3) 0.6513(2)
O2 O 0.2003(2) 0.5494(2) 0.5817(1)
C6 C 0.3387(4) 0.5735(3) 0.5887(2)
C7 C 0.3841(4) 0.6444(3) 0.6704(2)
C8 C 0.4179(5) 0.7674(4) 0.6510(3)
C9 C 0.4923(4) 0.5850(4) 0.7321(3)
N3 N 0.2661(3) 0.6459(2) 0.7042(2)
C10 C -0.1301(3) 0.6041(3) 0.8193(2)
C11 C -0.1921(4) 0.7084(3) 0.8278(2)
C12 C -0.2480(4) 0.7169(3) 0.8962(2)
C13 C -0.2443(4) 0.6295(3) 0.9527(2)
C14 C -0.1802(4) 0.5281(3) 0.9425(2)
C15 C -0.1208(3) 0.5139(3) 0.8756(2)
C16 C -0.1981(4) 0.8042(3) 0.7659(3)
C17 C -0.3097(5) 0.6431(5) 1.0244(3)
C18 C -0.0519(4) 0.4047(3) 0.8651(2)
H1 H -0.2220 0.5040 0.6612
H2 H -0.0705 0.4962 0.5687
H3 H 0.3496 0.6165 0.5415
H4 H 0.3860 0.5036 0.5922
H5 H 0.4931 0.7668 0.6295
H6 H 0.3482 0.7999 0.6105
H7 H 0.4335 0.8120 0.7010
H8 H 0.5673 0.5842 0.7103
H9 H 0.5102 0.6252 0.7841
H10 H 0.4677 0.5082 0.7406
H11 H -0.2905 0.7865 0.9039
H12 H -0.1767 0.4673 0.9818
H13 H -0.2435 0.8675 0.7818
H14 H -0.1130 0.8276 0.7652
H15 H -0.2415 0.7785 0.7115
H16 H -0.3483 0.7172 1.0216
H17 H -0.3743 0.5857 1.0203
H18 H -0.2477 0.6351 1.0764
H19 H -0.0556 0.3533 0.9096
H20 H -0.0920 0.3702 0.8128
H21 H 0.0356 0.4213 0.8662

#END
