./ABICIZ_from_POSCAR.cif_generated_by_CrystalShift
_symmetry_cell_setting triclinic
_symmetry_space_group_name_H-M 'P 1'
loop_
_symmetry_equiv_pos_site_id
_symmetry_equiv_pos_as_xyz
1 x,y,z
_cell_length_a 6.516500
_cell_length_b 8.514400
_cell_length_c 11.313000
_cell_angle_alpha 94.150000
_cell_angle_beta 91.730000
_cell_angle_gamma 96.630000
_cell_volume 621.388132
loop_
_atom_site_label
_atom_site_type_symbol
_atom_site_fract_x
_atom_site_fract_y
_atom_site_fract_z
H1 H 0.318300 -0.033400 0.300000
H2 H 0.265300 0.098400 0.040500
H3 H -0.072200 0.169700 0.183500
H4 H 0.052000 -0.068300 0.123200
H5 H -0.285900 -0.105900 0.178300
H6 H 0.080400 0.663500 1.041000
H7 H 0.239800 0.555000 1.088000
H8 H -0.177400 -0.245600 0.225900
H9 H -0.379600 -0.125700 0.373000
H10 H 0.409400 0.478500 0.708000
H11 H -0.148200 -0.124600 0.416500
H12 H -0.315100 0.138200 0.327700
H13 H 0.672600 0.650200 0.544800
H14 H 0.727400 0.490800 0.592300
H15 H -0.249300 0.126700 0.461200
H16 H 1.051400 0.607400 0.659700
H17 H 1.023700 0.646600 0.526900
H18 H -0.023700 0.353400 0.473100
H19 H 1.249300 0.873300 0.538800
H20 H 1.315100 0.861800 0.672300
H21 H -0.051400 0.392600 0.340300
H22 H 1.148200 1.124600 0.583500
H23 H 1.379600 1.125700 0.627000
H24 H 0.272600 0.509200 0.407700
H25 H 1.177400 1.245600 0.774100
H26 H 1.285900 1.105900 0.821700
H27 H 0.327400 0.349800 0.455200
H28 H 0.948000 1.068300 0.876800
H29 H 0.590600 0.521500 0.292000
H30 H 1.072200 0.830300 0.816500
H31 H 0.760200 0.445000 -0.088000
H32 H 0.919600 0.336500 -0.041000
H33 H 0.734700 0.901600 0.959500
H34 H 0.681700 1.033400 0.700000
C35 C 0.796700 1.105400 0.723000
C36 C 0.490400 0.733500 0.936400
C37 C 0.509600 0.266500 0.063600
C38 C 0.329100 0.181700 0.091300
C39 C 0.243100 0.225500 0.200400
C40 C 0.038500 0.134100 0.231800
C41 C 0.786300 0.373500 -0.027700
C42 C 0.670900 0.818300 0.908700
C43 C 0.756900 0.774500 0.799600
C44 C 0.606600 0.392700 0.136500
C45 C 0.525700 0.436900 0.242800
C46 C 0.961500 0.865900 0.768200
C47 C 0.341700 0.350200 0.274900
C48 C 0.253600 0.394800 0.392500
C49 C 0.970400 1.046000 0.792200
C50 C 1.181800 1.131900 0.765600
C51 C 0.025900 0.335100 0.393800
C52 C 1.238400 1.082400 0.639900
C53 C 1.217300 0.903300 0.620000
C54 C -0.217300 0.096700 0.380000
C55 C 0.974100 0.664900 0.606200
C56 C 0.746400 0.605200 0.607500
C57 C -0.238400 -0.082400 0.360100
C58 C 0.658300 0.649800 0.725100
C59 C 0.474300 0.563100 0.757200
C60 C -0.181800 -0.131900 0.234400
C61 C 0.393400 0.607300 0.863500
C62 C 0.213700 0.626500 1.027700
C63 C 0.029600 -0.046000 0.207800
C64 C 0.203300 -0.105400 0.277000
N65 N -0.006600 0.165500 0.357070
N66 N 1.006600 0.834500 0.642930
O67 O 0.786800 0.454400 0.087880
O68 O 0.213200 0.545600 0.912120
O69 O 0.627300 0.241800 -0.034690
O70 O 0.203000 -0.240300 0.304780
O71 O 0.797000 1.240300 0.695220
O72 O 0.372700 0.758200 1.034690

#END
