./ABIDAS_from_POSCAR.cif_generated_by_CrystalShift
_symmetry_cell_setting triclinic
_symmetry_space_group_name_H-M 'P 1'
loop_
_symmetry_equiv_pos_site_id
_symmetry_equiv_pos_as_xyz
1 x,y,z
_cell_length_a 6.995000
_cell_length_b 11.749400
_cell_length_c 12.535500
_cell_angle_alpha 90.000000
_cell_angle_beta 90.000000
_cell_angle_gamma 90.000000
_cell_volume 1030.255803
loop_
_atom_site_label
_atom_site_type_symbol
_atom_site_fract_x
_atom_site_fract_y
_atom_site_fract_z
H1 H 0.286000 0.219900 0.107300
H2 H 1.027700 0.919400 0.639300
H3 H 0.932600 0.176700 0.407800
H4 H 0.948700 -0.011600 0.465700
H5 H 0.542300 0.785300 0.645800
H6 H 0.892900 -0.059000 0.350200
H7 H 0.631400 -0.081400 0.456200
H8 H 0.968100 0.800600 0.832900
H9 H 0.396700 0.020000 0.356100
H10 H 0.944600 1.038900 0.782500
H11 H 1.103300 0.980000 0.856100
H12 H 0.555400 -0.038900 0.282500
H13 H 0.868600 1.081400 0.956200
H14 H 0.531900 0.199400 0.332900
H15 H 0.607100 1.059000 0.850200
H16 H 0.551300 1.011600 0.965700
H17 H 0.957700 0.214700 0.145800
H18 H 0.567400 0.823300 0.907800
H19 H 0.442100 0.890000 0.820900
H20 H 0.472300 0.080600 0.139300
H21 H -0.214000 0.280100 0.892700
H22 H 0.812700 0.833500 1.153900
H23 H 0.639500 0.871600 1.072700
H24 H 0.687300 0.166500 0.653900
H25 H 1.121300 0.898800 1.132800
H26 H 1.152300 1.008500 1.059100
H27 H 1.177700 0.883700 1.009900
H28 H 0.322300 0.116300 0.509900
H29 H 0.347700 -0.008500 0.559100
H30 H 1.214000 0.780100 0.607300
H31 H 0.860500 0.128400 0.572700
H32 H 0.527700 0.580600 0.360700
H33 H -0.177700 0.383700 0.490100
H34 H -0.152300 0.508500 0.440900
H35 H 0.042300 0.714700 0.354200
H36 H -0.121300 0.398800 0.367200
H37 H 0.360500 0.371600 0.427300
H38 H 0.468100 0.699400 0.167100
H39 H 0.187300 0.333500 0.346100
H40 H 0.444600 0.461100 0.217500
H41 H 0.603300 0.520000 0.143900
H42 H 0.557900 0.390000 0.679100
H43 H 0.368600 0.418600 0.043800
H44 H 0.432600 0.323300 0.592200
H45 H 0.107100 0.441000 0.149800
H46 H 0.051300 0.488400 0.034300
H47 H 0.448700 0.511600 0.534300
H48 H 0.067400 0.676700 0.092200
H49 H -0.057900 0.610000 0.179100
H50 H 0.392900 0.559000 0.649800
H51 H 0.131400 0.581400 0.543800
H52 H 0.312700 0.666500 -0.153900
H53 H 0.139500 0.628400 -0.072700
H54 H -0.103300 0.480000 0.643900
H55 H 0.621300 0.601200 -0.132800
H56 H 0.652300 0.491500 -0.059100
H57 H 0.677700 0.616300 -0.009900
H58 H 0.378700 0.101200 0.632800
H59 H 0.055400 0.538900 0.717500
H60 H 0.714000 0.719900 0.392700
H61 H 0.031900 0.300600 0.667100
H62 H -0.027700 0.419400 0.860700
H63 H 0.457700 0.285300 0.854200
H64 H 1.057900 0.110000 0.320900
C65 C 0.157880 0.285160 0.888930
C66 C 0.291140 0.347780 0.733350
C67 C 0.078260 0.362500 0.715320
C68 C -0.003760 0.343360 0.827460
C69 C 0.033300 0.477860 0.664450
C70 C 0.394800 0.070070 0.560840
C71 C 0.605200 0.570070 -0.060840
C72 C 0.157700 0.500790 0.564870
C73 C 0.270900 0.627620 -0.091750
C74 C 0.368360 0.497150 0.597890
C75 C 0.396600 0.571840 -0.031260
C76 C 0.071800 0.617280 0.148190
C77 C 0.428200 0.382720 0.648190
C78 C 0.131640 0.502850 0.097890
C79 C 0.342300 0.499210 0.064870
C80 C 0.103400 0.428160 0.468740
C81 C 0.229100 0.372380 0.408250
C82 C 0.466700 0.522140 0.164450
C83 C 0.421740 0.637500 0.215320
C84 C -0.105200 0.429930 0.439160
C85 C 0.208860 0.652220 0.233350
C86 C 0.167220 0.697220 0.329390
C87 C 0.342120 0.714840 0.388930
C88 C 0.503760 0.656640 0.327460
C89 C 1.105200 0.929930 1.060840
C90 C 0.770900 0.872380 1.091750
C91 C 0.496240 0.156640 0.172540
C92 C 0.896600 0.928160 1.031260
C93 C 0.657880 0.214840 0.111070
C94 C 0.832780 0.197220 0.170610
C95 C 0.571800 0.882720 0.851810
C96 C 0.791140 0.152220 0.266650
C97 C 0.578260 0.137500 0.284680
C98 C 0.631640 0.997150 0.902110
C99 C 0.533300 0.022140 0.335550
C100 C 0.842300 1.000790 0.935130
C101 C 0.966700 0.977860 0.835550
C102 C 0.657700 -0.000790 0.435130
C103 C 0.921740 0.862500 0.784680
C104 C 0.868360 0.002850 0.402110
C105 C 0.708860 0.847780 0.766650
C106 C 0.667220 0.802780 0.670610
C107 C 0.928200 0.117280 0.351810
C108 C 0.842120 0.785160 0.611070
C109 C 0.332780 0.302780 0.829390
C110 C 0.603400 0.071840 0.531260
C111 C 0.729100 0.127620 0.591750
C112 C 1.003760 0.843360 0.672540
O113 O -0.176520 0.281850 0.827800
O114 O 0.365580 0.763750 0.474360
O115 O 0.676520 0.718150 0.327800
O116 O 0.865580 0.736250 0.525640
O117 O 1.176520 0.781850 0.672200
O118 O 0.323480 0.218150 0.172200
O119 O 0.634420 0.263750 0.025640
O120 O 0.134420 0.236250 0.974360

#END
