
#######################################################################
#
#                 Cambridge Crystallographic Data Centre
#                                CCDC 
#
#######################################################################
#
# If this CIF has been generated from an entry in the Cambridge 
# Structural Database, then it will include bibliographic, chemical, 
# crystal, experimental, refinement or atomic coordinate data resulting 
# from the CCDC's data processing and validation procedures.
#
#######################################################################

data_ABIJUT
_symmetry_cell_setting           monoclinic
_symmetry_space_group_name_H-M   'P 21/c'
_symmetry_Int_Tables_number      14
_space_group_name_Hall           '-P 2ybc'
loop_
_symmetry_equiv_pos_site_id
_symmetry_equiv_pos_as_xyz
1 x,y,z
2 -x,1/2+y,1/2-z
3 -x,-y,-z
4 x,1/2-y,1/2+z
_cell_length_a                   19.901(11)
_cell_length_b                   9.308(5)
_cell_length_c                   10.561(6)
_cell_angle_alpha                90
_cell_angle_beta                 102.818(15)
_cell_angle_gamma                90
_cell_volume                     1907.55
loop_
_atom_site_label
_atom_site_type_symbol
_atom_site_fract_x
_atom_site_fract_y
_atom_site_fract_z
C1 C 0.8612(3) 0.1584(6) 0.9765(6)
C2 C 0.8055(2) 0.1795(5) 1.0467(5)
C3 C 0.8012(3) 0.0534(6) 1.1360(6)
C4 C 0.8560(3) -0.0599(5) 1.1669(6)
H1 H 0.8751 -0.0759 1.0880
C5 C 0.8279(3) -0.2007(6) 1.2037(6)
H2 H 0.7934 -0.2383 1.1288
H3 H 0.8047 -0.1848 1.2762
C6 C 0.8858(3) -0.3109(6) 1.2444(7)
H4 H 0.8664 -0.4005 1.2723
H5 H 0.9057 -0.3341 1.1690
C7 C 0.9417(3) -0.2555(6) 1.3538(6)
H6 H 0.9791 -0.3275 1.3752
H7 H 0.9228 -0.2406 1.4319
C8 C 0.9707(3) -0.1149(6) 1.3163(6)
H8 H 0.9933 -0.1319 1.2431
H9 H 1.0060 -0.0786 1.3907
C9 C 0.9145(3) -0.0025(6) 1.2770(6)
H10 H 0.9344 0.0853 1.2472
H11 H 0.8956 0.0231 1.3531
C10 C 0.8160(3) 0.3241(5) 1.1194(6)
H12 H 0.8055 0.3139 1.2064
H13 H 0.8644 0.3563 1.1307
C11 C 0.7675(3) 0.4331(5) 1.0387(6)
H14 H 0.7444 0.4927 1.0942
H15 H 0.7924 0.4966 0.9895
C12 C 0.7171(3) 0.3406(5) 0.9501(5)
H16 H 0.6747 0.3753 0.8992
C13 C 0.7371(2) 0.2046(5) 0.9490(5)
C14 C 0.6997(3) 0.0841(6) 0.8755(5)
C15 C 0.6321(3) 0.1094(5) 0.7828(5)
C16 C 0.5780(3) 0.0186(6) 0.7877(6)
H17 H 0.5846 -0.0574 0.8492
C17 C 0.5136(3) 0.0370(6) 0.7035(6)
H18 H 0.4766 -0.0257 0.7083
C18 C 0.5043(2) 0.1466(5) 0.6134(5)
C19 C 0.5587(3) 0.2362(5) 0.6060(5)
H19 H 0.5526 0.3104 0.5427
C20 C 0.6224(3) 0.2181(5) 0.6911(5)
H20 H 0.6594 0.2807 0.6862
C21 C 0.4345(3) 0.1651(6) 0.5265(6)
C22 C 0.3652(3) 0.3015(6) 0.3597(6)
H21 H 0.3360 0.3349 0.4127
H22 H 0.3725 0.3816 0.3033
H23 H 0.3402 0.2113 0.3189
N1 N 0.9051(3) 0.1479(6) 0.9227(5)
O1 O 0.7528(2) 0.0550(4) 1.1906(4)
O2 O 0.72387(19) -0.0371(4) 0.8946(4)
O3 O 0.38546(19) 0.0934(4) 0.5342(4)
O4 O 0.43255(16) 0.2727(4) 0.4425(4)
C1 C 0.1388(3) 0.6584(6) 0.5235(6)
C2 C 0.1945(2) 0.6795(5) 0.4533(5)
C3 C 0.1988(3) 0.5534(6) 0.3640(6)
C4 C 0.1440(3) 0.4401(5) 0.3331(6)
H1 H 0.1249 0.4241 0.4120
C5 C 0.1721(3) 0.2993(6) 0.2963(6)
H2 H 0.2066 0.2617 0.3712
H3 H 0.1953 0.3152 0.2238
C6 C 0.1142(3) 0.1891(6) 0.2556(7)
H4 H 0.1336 0.0995 0.2277
H5 H 0.0943 0.1659 0.3310
C7 C 0.0583(3) 0.2445(6) 0.1462(6)
H6 H 0.0209 0.1725 0.1248
H7 H 0.0772 0.2594 0.0681
C8 C 0.0293(3) 0.3851(6) 0.1837(6)
H8 H 0.0067 0.3681 0.2569
H9 H -0.0060 0.4214 0.1093
C9 C 0.0855(3) 0.4975(6) 0.2230(6)
H10 H 0.0656 0.5853 0.2528
H11 H 0.1044 0.5231 0.1469
C10 C 0.1840(3) 0.8241(5) 0.3806(6)
H12 H 0.1945 0.8139 0.2936
H13 H 0.1356 0.8563 0.3693
C11 C 0.2325(3) 0.9331(5) 0.4613(6)
H14 H 0.2556 0.9927 0.4058
H15 H 0.2076 0.9966 0.5105
C12 C 0.2829(3) 0.8406(5) 0.5499(5)
H16 H 0.3253 0.8753 0.6008
C13 C 0.2629(2) 0.7046(5) 0.5510(5)
C14 C 0.3003(3) 0.5841(6) 0.6245(5)
C15 C 0.3679(3) 0.6094(5) 0.7172(5)
C16 C 0.4220(3) 0.5186(6) 0.7123(6)
H17 H 0.4154 0.4426 0.6508
C17 C 0.4864(3) 0.5370(6) 0.7965(6)
H18 H 0.5234 0.4743 0.7917
C18 C 0.4957(2) 0.6466(5) 0.8866(5)
C19 C 0.4413(3) 0.7362(5) 0.8940(5)
H19 H 0.4474 0.8104 0.9573
C20 C 0.3776(3) 0.7181(5) 0.8089(5)
H20 H 0.3406 0.7807 0.8138
C21 C 0.5655(3) 0.6651(6) 0.9735(6)
C22 C 0.6348(3) 0.8015(6) 1.1403(6)
H21 H 0.6640 0.8349 1.0873
H22 H 0.6275 0.8816 1.1967
H23 H 0.6598 0.7113 1.1811
N1 N 0.0949(3) 0.6479(6) 0.5773(5)
O1 O 0.2472(2) 0.5550(4) 0.3094(4)
O2 O 0.27613(19) 0.4629(4) 0.6054(4)
O3 O 0.61454(19) 0.5934(4) 0.9658(4)
O4 O 0.56745(16) 0.7727(4) 1.0575(4)
C1 C 0.1388(3) 0.8416(6) 0.0235(6)
C2 C 0.1945(2) 0.8205(5) -0.0467(5)
C3 C 0.1988(3) 0.9466(6) -0.1360(6)
C4 C 0.1440(3) 1.0599(5) -0.1669(6)
H1 H 0.1249 1.0759 -0.0880
C5 C 0.1721(3) 1.2007(6) -0.2037(6)
H2 H 0.2066 1.2383 -0.1288
H3 H 0.1953 1.1848 -0.2762
C6 C 0.1142(3) 1.3109(6) -0.2444(7)
H4 H 0.1336 1.4005 -0.2723
H5 H 0.0943 1.3341 -0.1690
C7 C 0.0583(3) 1.2555(6) -0.3538(6)
H6 H 0.0209 1.3275 -0.3752
H7 H 0.0772 1.2406 -0.4319
C8 C 0.0293(3) 1.1149(6) -0.3163(6)
H8 H 0.0067 1.1319 -0.2431
H9 H -0.0060 1.0786 -0.3907
C9 C 0.0855(3) 1.0025(6) -0.2770(6)
H10 H 0.0656 0.9147 -0.2472
H11 H 0.1044 0.9769 -0.3531
C10 C 0.1840(3) 0.6759(5) -0.1194(6)
H12 H 0.1945 0.6861 -0.2064
H13 H 0.1356 0.6437 -0.1307
C11 C 0.2325(3) 0.5669(5) -0.0387(6)
H14 H 0.2556 0.5073 -0.0942
H15 H 0.2076 0.5034 0.0105
C12 C 0.2829(3) 0.6594(5) 0.0499(5)
H16 H 0.3253 0.6247 0.1008
C13 C 0.2629(2) 0.7954(5) 0.0510(5)
C14 C 0.3003(3) 0.9159(6) 0.1245(5)
C15 C 0.3679(3) 0.8906(5) 0.2172(5)
C16 C 0.4220(3) 0.9814(6) 0.2123(6)
H17 H 0.4154 1.0574 0.1508
C17 C 0.4864(3) 0.9630(6) 0.2965(6)
H18 H 0.5234 1.0257 0.2917
C18 C 0.4957(2) 0.8534(5) 0.3866(5)
C19 C 0.4413(3) 0.7638(5) 0.3940(5)
H19 H 0.4474 0.6896 0.4573
C20 C 0.3776(3) 0.7819(5) 0.3089(5)
H20 H 0.3406 0.7193 0.3138
C21 C 0.5655(3) 0.8349(6) 0.4735(6)
C22 C 0.6348(3) 0.6985(6) 0.6403(6)
H21 H 0.6640 0.6651 0.5873
H22 H 0.6275 0.6184 0.6967
H23 H 0.6598 0.7887 0.6811
N1 N 0.0949(3) 0.8521(6) 0.0773(5)
O1 O 0.2472(2) 0.9450(4) -0.1906(4)
O2 O 0.27613(19) 1.0371(4) 0.1054(4)
O3 O 0.61454(19) 0.9066(4) 0.4658(4)
O4 O 0.56745(16) 0.7273(4) 0.5575(4)
C1 C 0.8612(3) 0.3416(6) 0.4765(6)
C2 C 0.8055(2) 0.3205(5) 0.5467(5)
C3 C 0.8012(3) 0.4466(6) 0.6360(6)
C4 C 0.8560(3) 0.5599(5) 0.6669(6)
H1 H 0.8751 0.5759 0.5880
C5 C 0.8279(3) 0.7007(6) 0.7037(6)
H2 H 0.7934 0.7383 0.6288
H3 H 0.8047 0.6848 0.7762
C6 C 0.8858(3) 0.8109(6) 0.7444(7)
H4 H 0.8664 0.9005 0.7723
H5 H 0.9057 0.8341 0.6690
C7 C 0.9417(3) 0.7555(6) 0.8538(6)
H6 H 0.9791 0.8275 0.8752
H7 H 0.9228 0.7406 0.9319
C8 C 0.9707(3) 0.6149(6) 0.8163(6)
H8 H 0.9933 0.6319 0.7431
H9 H 1.0060 0.5786 0.8907
C9 C 0.9145(3) 0.5025(6) 0.7770(6)
H10 H 0.9344 0.4147 0.7472
H11 H 0.8956 0.4769 0.8531
C10 C 0.8160(3) 0.1759(5) 0.6194(6)
H12 H 0.8055 0.1861 0.7064
H13 H 0.8644 0.1437 0.6307
C11 C 0.7675(3) 0.0669(5) 0.5387(6)
H14 H 0.7444 0.0073 0.5942
H15 H 0.7924 0.0034 0.4895
C12 C 0.7171(3) 0.1594(5) 0.4501(5)
H16 H 0.6747 0.1247 0.3992
C13 C 0.7371(2) 0.2954(5) 0.4490(5)
C14 C 0.6997(3) 0.4159(6) 0.3755(5)
C15 C 0.6321(3) 0.3906(5) 0.2828(5)
C16 C 0.5780(3) 0.4814(6) 0.2877(6)
H17 H 0.5846 0.5574 0.3492
C17 C 0.5136(3) 0.4630(6) 0.2035(6)
H18 H 0.4766 0.5257 0.2083
C18 C 0.5043(2) 0.3534(5) 0.1134(5)
C19 C 0.5587(3) 0.2638(5) 0.1060(5)
H19 H 0.5526 0.1896 0.0427
C20 C 0.6224(3) 0.2819(5) 0.1911(5)
H20 H 0.6594 0.2193 0.1862
C21 C 0.4345(3) 0.3349(6) 0.0265(6)
C22 C 0.3652(3) 0.1985(6) -0.1403(6)
H21 H 0.3360 0.1651 -0.0873
H22 H 0.3725 0.1184 -0.1967
H23 H 0.3402 0.2887 -0.1811
N1 N 0.9051(3) 0.3521(6) 0.4227(5)
O1 O 0.7528(2) 0.4450(4) 0.6906(4)
O2 O 0.72387(19) 0.5371(4) 0.3946(4)
O3 O 0.38546(19) 0.4066(4) 0.0342(4)
O4 O 0.43255(16) 0.2273(4) -0.0575(4)

#END
