./ABIJAY_from_POSCAR.cif_generated_by_CrystalShift
_symmetry_cell_setting triclinic
_symmetry_space_group_name_H-M 'P 1'
loop_
_symmetry_equiv_pos_site_id
_symmetry_equiv_pos_as_xyz
1 x,y,z
_cell_length_a 9.388000
_cell_length_b 11.595000
_cell_length_c 15.005000
_cell_angle_alpha 90.000000
_cell_angle_beta 94.983000
_cell_angle_gamma 90.000000
_cell_volume 1627.178937
loop_
_atom_site_label
_atom_site_type_symbol
_atom_site_fract_x
_atom_site_fract_y
_atom_site_fract_z
H1 H 0.625900 1.142100 0.702900
H2 H 0.355500 0.894000 0.842600
H3 H 0.364800 0.595000 0.193100
H4 H 0.291300 0.718800 0.900600
H5 H 0.588900 0.680500 0.215200
H6 H 0.334500 0.548700 0.829600
H7 H 0.632700 0.857700 0.153600
H8 H 0.437100 0.551700 0.693000
H9 H 0.444600 0.961300 0.082000
H10 H 0.434700 0.780700 0.557600
H11 H 0.944600 0.538700 0.582000
H12 H 1.132700 0.642300 0.653600
H13 H -0.065300 0.719300 0.057600
H14 H 1.088900 0.819500 0.715200
H15 H 0.864800 0.905000 0.693100
H16 H -0.062900 0.948300 0.193000
H17 H 0.742000 1.300800 0.651200
H18 H -0.165500 0.951300 0.329600
H19 H 1.025500 0.102500 0.980900
H20 H -0.208700 0.781200 0.400600
H21 H 0.752300 0.455600 1.001700
H22 H -0.144500 0.606000 0.342600
H23 H 0.626600 0.612200 1.048600
H24 H 0.628200 0.785200 0.972200
H25 H -0.042600 0.495400 0.210900
H26 H 0.758000 0.800800 0.848800
H27 H 0.874100 0.642100 0.797100
H28 H 1.042600 0.504600 0.789100
H29 H 0.125900 0.357900 0.202900
H30 H 1.144500 0.394000 0.657400
H31 H 0.242000 0.199200 0.151200
H32 H 1.208700 0.218800 0.599400
H33 H 0.371800 0.214800 0.027800
H34 H 1.165500 0.048700 0.670400
H35 H 0.373400 0.387800 -0.048600
H36 H 1.062900 0.051700 0.807000
H37 H 0.247700 0.544400 -0.001700
H38 H 0.474500 0.602500 0.519100
H39 H -0.025500 0.897500 0.019100
H40 H 0.747700 0.955600 0.498300
H41 H 1.065300 0.280700 0.942400
H42 H 0.555400 0.038700 0.918000
H43 H 0.367300 0.142300 0.846400
H44 H 0.135200 0.095000 0.306900
H45 H 0.411100 0.319500 0.784800
H46 H -0.088900 0.180500 0.284800
H47 H 0.635200 0.405000 0.806900
H48 H -0.132700 0.357700 0.346400
H49 H 0.871800 1.285200 0.527800
H50 H 0.055400 0.461300 0.418000
H51 H 0.525500 0.397500 0.480900
H52 H 0.873400 1.112200 0.451400
H53 H 0.252300 0.044400 0.501700
H54 H 0.565300 0.219300 0.442400
H55 H 0.126600 -0.112200 0.548600
H56 H 0.457400 1.004600 0.710900
H57 H 0.562900 0.448300 0.307000
H58 H 0.128200 -0.285200 0.472200
H59 H 0.665500 0.451300 0.170400
H60 H 0.258000 -0.300800 0.348800
H61 H 0.708700 0.281200 0.099400
H62 H 0.374100 -0.142100 0.297100
H63 H 0.644500 0.106000 0.157400
H64 H 0.542600 -0.004600 0.289100
C65 C 0.506600 0.066400 0.305100
C66 C 0.563600 0.172000 0.267700
C67 C 0.404000 0.069400 0.361900
C68 C 0.327900 -0.031900 0.394600
C69 C 0.326400 -0.136000 0.348700
C70 C 0.627500 0.174200 0.187400
C71 C 0.254700 -0.230800 0.378800
C72 C 0.665600 0.279500 0.152900
C73 C 0.178500 -0.222100 0.453000
C74 C 0.641300 0.381500 0.195600
C75 C 0.579800 0.379800 0.277400
C76 C 0.544500 0.275200 0.313700
C77 C 0.252600 -0.024500 0.470000
C78 C 0.488800 0.258100 0.405100
C79 C 0.325000 0.406800 0.453800
C80 C 0.206500 0.338600 0.408600
C81 C 0.822300 1.118700 0.501500
C82 C 0.071000 0.387500 0.396400
C83 C 0.731400 0.272100 0.876900
C84 C 0.619900 0.331900 0.829800
C85 C -0.041000 0.326600 0.352400
C86 C 0.485000 0.280600 0.817400
C87 C -0.015000 0.219400 0.317400
C88 C 0.459000 0.173400 0.852400
C89 C 0.119900 0.168100 0.329800
C90 C 0.571000 0.112500 0.896400
C91 C 0.231400 0.227900 0.376900
C92 C 0.706500 0.161400 0.908600
C93 C 0.825000 0.093200 0.953800
C94 C 0.988800 0.241900 0.905100
C95 C 0.747400 1.024500 0.530000
C96 C 1.044500 0.224800 0.813700
C97 C 1.079800 0.120200 0.777400
C98 C 0.247400 0.475500 0.030000
C99 C 1.141300 0.118500 0.695600
C100 C 0.322300 0.381300 0.001500
C101 C 1.165600 0.220500 0.652900
C102 C 0.321500 0.277900 0.047000
C103 C 1.127500 0.325800 0.687400
C104 C 0.245300 0.269200 0.121200
C105 C 1.063600 0.328000 0.767700
C106 C 1.006600 0.433600 0.805100
C107 C 0.173600 0.364000 0.151300
C108 C 0.904000 0.430600 0.861900
C109 C 0.827900 0.531900 0.894600
C110 C 0.826400 0.636000 0.848700
C111 C 0.172100 0.468100 0.105400
C112 C 0.754700 0.730800 0.878800
C113 C 0.096000 0.569400 0.138100
C114 C 0.678500 0.722100 0.953000
C115 C -0.006600 0.566400 0.194900
C116 C 0.677700 0.618700 0.998500
C117 C -0.063600 0.672000 0.232300
C118 C 0.752600 0.524500 0.970000
C119 C -0.127500 0.674200 0.312600
C120 C 0.821500 1.222100 0.547000
C121 C -0.165600 0.779500 0.347100
C122 C -0.141300 0.881500 0.304400
C123 C 0.745300 1.230800 0.621200
C124 C 0.768600 0.772100 0.623100
C125 C 0.880100 0.831900 0.670200
C126 C -0.079800 0.879800 0.222600
C127 C 1.015000 0.780600 0.682600
C128 C -0.044500 0.775200 0.186300
C129 C 1.041000 0.673400 0.647600
C130 C 0.011200 0.758100 0.094900
C131 C 0.929000 0.612500 0.603600
C132 C 0.175000 0.906800 0.046200
C133 C 0.793500 0.661400 0.591400
C134 C 0.675000 0.593200 0.546200
C135 C 0.511200 0.741900 0.594900
C136 C 0.293500 0.838600 0.091400
C137 C 0.455500 0.724800 0.686300
C138 C 0.420200 0.620200 0.722600
C139 C 0.429000 0.887500 0.103600
C140 C 0.358700 0.618500 0.804400
C141 C 0.541000 0.826600 0.147600
C142 C 0.334400 0.720500 0.847100
C143 C 0.515000 0.719400 0.182600
C144 C 0.372500 0.825800 0.812600
C145 C 0.380100 0.668100 0.170200
C146 C 0.436400 0.828000 0.732300
C147 C 0.493400 0.933600 0.694900
C148 C 0.177700 -0.118700 0.498500
C149 C 0.596000 0.930600 0.638100
C150 C 0.672100 1.031900 0.605400
C151 C 0.673600 1.136000 0.651300
C152 C 0.268600 0.727900 0.123100
N153 N 0.455800 0.361800 0.451900
N154 N 0.868300 0.321200 0.897300
N155 N 0.955800 0.138200 0.951900
N156 N 0.044200 0.861800 0.048100
N157 N 0.368300 0.178800 0.397300
N158 N 0.631700 0.821200 0.602700
N159 N 0.544200 0.638200 0.548100
N160 N 0.131700 0.678800 0.102700
O161 O 0.304600 0.499200 0.492400
O162 O 0.804600 0.000800 0.992400
O163 O 0.195400 0.999200 0.007600
O164 O 0.695400 0.500800 0.507600

#END
