
#######################################################################
#
#                 Cambridge Crystallographic Data Centre
#                                CCDC 
#
#######################################################################
#
# If this CIF has been generated from an entry in the Cambridge 
# Structural Database, then it will include bibliographic, chemical, 
# crystal, experimental, refinement or atomic coordinate data resulting 
# from the CCDC's data processing and validation procedures.
#
#######################################################################

data_ABIKIF
_symmetry_cell_setting           monoclinic
_symmetry_space_group_name_H-M   'P 21/n'
_symmetry_Int_Tables_number      14
_space_group_name_Hall           '-P 2yn'
loop_
_symmetry_equiv_pos_site_id
_symmetry_equiv_pos_as_xyz
1 x,y,z
2 1/2-x,1/2+y,1/2-z
3 -x,-y,-z
4 1/2+x,1/2-y,1/2+z
_cell_length_a                   11.585(2)
_cell_length_b                   9.033(1)
_cell_length_c                   13.235(2)
_cell_angle_alpha                90
_cell_angle_beta                 111.134(9)
_cell_angle_gamma                90
_cell_volume                     1291.85
loop_
_atom_site_label
_atom_site_type_symbol
_atom_site_fract_x
_atom_site_fract_y
_atom_site_fract_z
O1 O 0.2603(1) 0.0581(1) 0.83615(10)
O2 O 0.0470(1) 0.2608(2) 0.6309(1)
O3 O 0.3800(1) -0.0949(2) 1.0317(1)
O4 O 0.4393(1) 0.3712(2) 0.9063(1)
O5 O 0.3394(1) 0.5094(2) 0.9914(1)
O6 O -0.0175(1) 0.3906(2) 1.2487(1)
C1 C 0.2001(2) 0.0431(2) 0.9138(1)
C2 C 0.0623(2) 0.0340(2) 0.8533(1)
C3 C 0.0111(2) 0.0994(2) 0.7579(1)
C4 C 0.0882(2) 0.1924(2) 0.7160(1)
C5 C 0.2229(2) 0.2019(2) 0.7909(1)
C6 C 0.2323(1) 0.3027(2) 0.8884(1)
C7 C 0.2375(2) 0.1897(2) 0.9797(1)
C8 C 0.2498(2) -0.0960(2) 0.9794(1)
C9 C 0.3475(2) 0.3965(2) 0.9276(1)
C10 C 0.1652(2) 0.2321(2) 1.0506(1)
C11 C 0.2162(2) 0.2094(2) 1.1619(1)
C12 C 0.1567(2) 0.2585(2) 1.2308(1)
C13 C 0.0449(2) 0.3320(2) 1.1881(2)
C14 C -0.0105(2) 0.3492(2) 1.0767(2)
C15 C 0.0494(2) 0.2999(2) 1.0093(1)
O1 O 0.2397(1) 0.5581(1) 0.66385(10)
O2 O 0.4530(1) 0.7608(2) 0.8691(1)
O3 O 0.1200(1) 0.4051(2) 0.4683(1)
O4 O 0.0607(1) 0.8712(2) 0.5937(1)
O5 O 0.1606(1) 1.0094(2) 0.5086(1)
O6 O 0.5175(1) 0.8906(2) 0.2513(1)
C1 C 0.2999(2) 0.5431(2) 0.5862(1)
C2 C 0.4377(2) 0.5340(2) 0.6467(1)
C3 C 0.4889(2) 0.5994(2) 0.7421(1)
C4 C 0.4118(2) 0.6924(2) 0.7840(1)
C5 C 0.2771(2) 0.7019(2) 0.7091(1)
C6 C 0.2677(1) 0.8027(2) 0.6116(1)
C7 C 0.2625(2) 0.6897(2) 0.5203(1)
C8 C 0.2502(2) 0.4040(2) 0.5206(1)
C9 C 0.1525(2) 0.8965(2) 0.5724(1)
C10 C 0.3348(2) 0.7321(2) 0.4494(1)
C11 C 0.2838(2) 0.7094(2) 0.3381(1)
C12 C 0.3433(2) 0.7585(2) 0.2692(1)
C13 C 0.4551(2) 0.8320(2) 0.3119(2)
C14 C 0.5105(2) 0.8492(2) 0.4233(2)
C15 C 0.4506(2) 0.7999(2) 0.4907(1)
O1 O 0.7397(1) 0.9419(1) 0.16385(10)
O2 O 0.9530(1) 0.7392(2) 0.3691(1)
O3 O 0.6200(1) 1.0949(2) -0.0317(1)
O4 O 0.5607(1) 0.6288(2) 0.0937(1)
O5 O 0.6606(1) 0.4906(2) 0.0086(1)
O6 O 1.0175(1) 0.6094(2) -0.2487(1)
C1 C 0.7999(2) 0.9569(2) 0.0862(1)
C2 C 0.9377(2) 0.9660(2) 0.1467(1)
C3 C 0.9889(2) 0.9006(2) 0.2421(1)
C4 C 0.9118(2) 0.8076(2) 0.2840(1)
C5 C 0.7771(2) 0.7981(2) 0.2091(1)
C6 C 0.7677(1) 0.6973(2) 0.1116(1)
C7 C 0.7625(2) 0.8103(2) 0.0203(1)
C8 C 0.7502(2) 1.0960(2) 0.0206(1)
C9 C 0.6525(2) 0.6035(2) 0.0724(1)
C10 C 0.8348(2) 0.7679(2) -0.0506(1)
C11 C 0.7838(2) 0.7906(2) -0.1619(1)
C12 C 0.8433(2) 0.7415(2) -0.2308(1)
C13 C 0.9551(2) 0.6680(2) -0.1881(2)
C14 C 1.0105(2) 0.6508(2) -0.0767(2)
C15 C 0.9506(2) 0.7001(2) -0.0093(1)
O1 O 0.7603(1) 0.4419(1) 0.33615(10)
O2 O 0.5470(1) 0.2392(2) 0.1309(1)
O3 O 0.8800(1) 0.5949(2) 0.5317(1)
O4 O 0.9393(1) 0.1288(2) 0.4063(1)
O5 O 0.8394(1) -0.0094(2) 0.4914(1)
O6 O 0.4825(1) 0.1094(2) 0.7487(1)
C1 C 0.7001(2) 0.4569(2) 0.4138(1)
C2 C 0.5623(2) 0.4660(2) 0.3533(1)
C3 C 0.5111(2) 0.4006(2) 0.2579(1)
C4 C 0.5882(2) 0.3076(2) 0.2160(1)
C5 C 0.7229(2) 0.2981(2) 0.2909(1)
C6 C 0.7323(1) 0.1973(2) 0.3884(1)
C7 C 0.7375(2) 0.3103(2) 0.4797(1)
C8 C 0.7498(2) 0.5960(2) 0.4794(1)
C9 C 0.8475(2) 0.1035(2) 0.4276(1)
C10 C 0.6652(2) 0.2679(2) 0.5506(1)
C11 C 0.7162(2) 0.2906(2) 0.6619(1)
C12 C 0.6567(2) 0.2415(2) 0.7308(1)
C13 C 0.5449(2) 0.1680(2) 0.6881(2)
C14 C 0.4895(2) 0.1508(2) 0.5767(2)
C15 C 0.5494(2) 0.2001(2) 0.5093(1)

#END
