
#######################################################################
#
#                 Cambridge Crystallographic Data Centre
#                                CCDC 
#
#######################################################################
#
# If this CIF has been generated from an entry in the Cambridge 
# Structural Database, then it will include bibliographic, chemical, 
# crystal, experimental, refinement or atomic coordinate data resulting 
# from the CCDC's data processing and validation procedures.
#
#######################################################################

data_ABILOO
_symmetry_cell_setting           triclinic
_symmetry_space_group_name_H-M   'P -1'
_symmetry_Int_Tables_number      2
_space_group_name_Hall           '-P 1'
loop_
_symmetry_equiv_pos_site_id
_symmetry_equiv_pos_as_xyz
1 x,y,z
2 -x,-y,-z
_cell_length_a                   10.1751(5)
_cell_length_b                   10.6783(4)
_cell_length_c                   11.6493(7)
_cell_angle_alpha                96.462(2)
_cell_angle_beta                 107.570(4)
_cell_angle_gamma                109.165(4)
_cell_volume                     1107.88
loop_
_atom_site_label
_atom_site_type_symbol
_atom_site_fract_x
_atom_site_fract_y
_atom_site_fract_z
P1 P 0.31544(5) 0.63889(5) 0.17816(4)
C1 C 0.4790(2) 0.66526(19) 0.30368(17)
C2 C 0.5900(2) 0.6579(2) 0.37232(17)
C3 C 0.7278(2) 0.65474(18) 0.44971(16)
C4 C 0.8574(2) 0.7122(2) 0.42527(18)
H1 H 0.8549 0.7554 0.3591
C5 C 0.9896(2) 0.7064(2) 0.49711(18)
H2 H 1.0759 0.7454 0.4787
C6 C 0.9981(2) 0.64450(19) 0.59583(17)
C7 C 0.8691(2) 0.5866(2) 0.61995(17)
H3 H 0.8725 0.5436 0.6863
C8 C 0.7353(2) 0.5907(2) 0.54844(17)
H4 H 0.6489 0.5503 0.5663
C9 C 1.1442(2) 0.6413(2) 0.6742(2)
H5 H 1.2061 0.7298 0.7306
H6 H 1.1950 0.6197 0.6212
H7 H 1.1257 0.5724 0.7213
C10 C 0.40683(19) 0.68960(18) 0.06647(15)
C11 C 0.5136(2) 0.82120(18) 0.08397(17)
C12 C 0.5785(2) 0.8470(2) -0.00457(18)
H8 H 0.6479 0.9351 0.0061
C13 C 0.5447(2) 0.7474(2) -0.10800(18)
C14 C 0.4422(2) 0.6191(2) -0.12232(17)
H9 H 0.4192 0.5503 -0.1915
C15 C 0.3716(2) 0.58753(18) -0.03790(16)
C16 C 0.5624(2) 0.9353(2) 0.19563(19)
H10 H 0.6305 1.0182 0.1862
H11 H 0.6123 0.9110 0.2696
H12 H 0.4758 0.9500 0.2028
C17 C 0.6188(3) 0.7766(3) -0.2020(2)
H13 H 0.7007 0.7455 -0.1850
H14 H 0.6566 0.8739 -0.1967
H15 H 0.5466 0.7290 -0.2845
C18 C 0.2585(2) 0.44436(19) -0.06568(18)
H16 H 0.2626 0.4162 0.0112
H17 H 0.2807 0.3829 -0.1178
H18 H 0.1594 0.4419 -0.1083
C19 C 0.24189(19) 0.76990(18) 0.21331(16)
C20 C 0.1342(2) 0.78320(19) 0.11065(17)
C21 C 0.0610(2) 0.8683(2) 0.12914(19)
H19 H -0.0101 0.8764 0.0601
C22 C 0.0887(2) 0.9415(2) 0.2452(2)
C23 C 0.1925(2) 0.9258(2) 0.34480(19)
H20 H 0.2130 0.9751 0.4245
C24 C 0.2684(2) 0.84070(19) 0.33302(17)
C25 C 0.0923(2) 0.7069(2) -0.02001(18)
H21 H -0.0011 0.7094 -0.0718
H22 H 0.0809 0.6129 -0.0211
H23 H 0.1700 0.7492 -0.0514
C26 C 0.0076(3) 1.0335(3) 0.2623(3)
H24 H -0.0061 1.0341 0.3412
H25 H -0.0889 1.0003 0.1958
H26 H 0.0658 1.1254 0.2610
C27 C 0.3707(2) 0.8255(2) 0.45036(17)
H27 H 0.3664 0.8784 0.5216
H28 H 0.4721 0.8583 0.4516
H29 H 0.3392 0.7302 0.4533
P1 P 0.68456(5) 0.36111(5) 0.82184(4)
C1 C 0.5210(2) 0.33474(19) 0.69632(17)
C2 C 0.4100(2) 0.3421(2) 0.62768(17)
C3 C 0.2722(2) 0.34526(18) 0.55029(16)
C4 C 0.1426(2) 0.2878(2) 0.57473(18)
H1 H 0.1451 0.2446 0.6409
C5 C 0.0104(2) 0.2936(2) 0.50289(18)
H2 H -0.0759 0.2546 0.5213
C6 C 0.0019(2) 0.35550(19) 0.40417(17)
C7 C 0.1309(2) 0.4134(2) 0.38005(17)
H3 H 0.1275 0.4564 0.3137
C8 C 0.2647(2) 0.4093(2) 0.45156(17)
H4 H 0.3511 0.4497 0.4337
C9 C -0.1442(2) 0.3587(2) 0.3258(2)
H5 H -0.2061 0.2702 0.2694
H6 H -0.1950 0.3803 0.3788
H7 H -0.1257 0.4276 0.2787
C10 C 0.59317(19) 0.31040(18) 0.93353(15)
C11 C 0.4864(2) 0.17880(18) 0.91603(17)
C12 C 0.4215(2) 0.1530(2) 1.00457(18)
H8 H 0.3521 0.0649 0.9939
C13 C 0.4553(2) 0.2526(2) 1.10800(18)
C14 C 0.5578(2) 0.3809(2) 1.12232(17)
H9 H 0.5808 0.4497 1.1915
C15 C 0.6284(2) 0.41247(18) 1.03790(16)
C16 C 0.4376(2) 0.0647(2) 0.80437(19)
H10 H 0.3695 -0.0182 0.8138
H11 H 0.3877 0.0890 0.7304
H12 H 0.5242 0.0500 0.7972
C17 C 0.3812(3) 0.2234(3) 1.2020(2)
H13 H 0.2993 0.2545 1.1850
H14 H 0.3434 0.1261 1.1967
H15 H 0.4534 0.2710 1.2845
C18 C 0.7415(2) 0.55564(19) 1.06568(18)
H16 H 0.7374 0.5838 0.9888
H17 H 0.7193 0.6171 1.1178
H18 H 0.8406 0.5581 1.1083
C19 C 0.75811(19) 0.23010(18) 0.78669(16)
C20 C 0.8658(2) 0.21680(19) 0.88935(17)
C21 C 0.9390(2) 0.1317(2) 0.87086(19)
H19 H 1.0101 0.1236 0.9399
C22 C 0.9113(2) 0.0585(2) 0.7548(2)
C23 C 0.8075(2) 0.0742(2) 0.65520(19)
H20 H 0.7870 0.0249 0.5755
C24 C 0.7316(2) 0.15930(19) 0.66698(17)
C25 C 0.9077(2) 0.2931(2) 1.02001(18)
H21 H 1.0011 0.2906 1.0718
H22 H 0.9191 0.3871 1.0211
H23 H 0.8300 0.2508 1.0514
C26 C 0.9924(3) -0.0335(3) 0.7377(3)
H24 H 1.0061 -0.0341 0.6588
H25 H 1.0889 -0.0003 0.8042
H26 H 0.9342 -0.1254 0.7390
C27 C 0.6293(2) 0.1745(2) 0.54964(17)
H27 H 0.6336 0.1216 0.4784
H28 H 0.5279 0.1417 0.5484
H29 H 0.6608 0.2698 0.5467

#END
