./ABILOM_from_POSCAR.cif_generated_by_CrystalShift
_symmetry_cell_setting triclinic
_symmetry_space_group_name_H-M 'P 1'
loop_
_symmetry_equiv_pos_site_id
_symmetry_equiv_pos_as_xyz
1 x,y,z
_cell_length_a 12.297000
_cell_length_b 18.927000
_cell_length_c 11.627000
_cell_angle_alpha 90.000000
_cell_angle_beta 112.493000
_cell_angle_gamma 90.000000
_cell_volume 2500.264459
loop_
_atom_site_label
_atom_site_type_symbol
_atom_site_fract_x
_atom_site_fract_y
_atom_site_fract_z
H1 H 0.383100 0.549200 0.806200
H2 H 0.157800 0.693900 0.233500
H3 H 0.016400 0.640200 0.305400
H4 H -0.025300 0.674900 0.464700
H5 H 0.023700 0.627200 0.646400
H6 H 0.138500 0.535900 0.724100
H7 H 0.290200 0.389800 0.859700
H8 H 0.176400 0.435600 0.803000
H9 H 0.518600 0.061100 1.470800
H10 H 0.529000 0.110800 1.367800
H11 H 0.269400 0.454900 1.047900
H12 H 0.358500 0.541600 1.192500
H13 H 0.448100 0.113100 1.610200
H14 H 0.456600 0.633800 1.142900
H15 H 0.345600 0.201100 1.664400
H16 H 0.525300 0.692200 1.007500
H17 H 0.241100 0.284300 1.520600
H18 H 0.555300 0.643100 0.915100
H19 H 0.516300 0.603100 0.744600
H20 H 0.225400 0.347900 1.323200
H21 H 0.123700 0.293000 1.268700
H22 H 0.559300 0.560000 0.591900
H23 H 0.509300 0.599600 0.403600
H24 H 0.096600 0.192800 1.182500
H25 H 0.403400 0.692800 0.317500
H26 H -0.009300 0.099600 1.096400
H27 H 0.376300 0.793000 0.231300
H28 H -0.059300 0.060000 0.908100
H29 H 0.274600 0.847900 0.176800
H30 H -0.016300 0.103100 0.755400
H31 H 0.258900 0.784300 -0.020600
H32 H 0.154400 0.701100 -0.164400
H33 H -0.055300 0.143100 0.584900
H34 H -0.025300 0.192200 0.492500
H35 H 0.051900 0.613100 -0.110200
H36 H -0.029000 0.610800 0.132200
H37 H 0.043400 0.133800 0.357100
H38 H -0.018600 0.561100 0.029200
H39 H 0.141500 0.041600 0.307500
H40 H 0.883100 0.950800 0.306200
H41 H 0.230600 -0.045100 0.452100
H42 H 0.657800 0.806100 -0.266500
H43 H 0.516400 0.859800 -0.194600
H44 H 0.323600 -0.064400 0.697000
H45 H 0.209800 -0.110200 0.640300
H46 H 0.474700 0.825100 -0.035300
H47 H 0.523700 0.872800 0.146400
H48 H 0.361500 0.035900 0.775900
H49 H 0.638500 0.964100 0.224100
H50 H 0.476300 0.127200 0.853600
H51 H 0.790200 1.110200 0.359700
H52 H 0.525300 0.174900 1.035300
H53 H 0.676400 1.064400 0.303000
H54 H 0.483600 0.140200 1.194600
H55 H 0.769400 1.045100 0.547900
H56 H 0.858500 0.958400 0.692500
H57 H 0.342200 0.193900 1.266500
H58 H 0.956600 0.866200 0.642900
H59 H 1.025300 0.807800 0.507500
H60 H 0.116900 0.049200 0.693800
H61 H 1.055300 0.856900 0.415100
H62 H 1.016300 0.896900 0.244600
H63 H 1.059300 0.940000 0.091900
H64 H 1.009300 0.900400 -0.096400
H65 H 0.903400 0.807200 -0.182500
H66 H 0.876300 0.707000 -0.268700
H67 H 0.774600 0.652100 -0.323200
H68 H 0.758900 0.715700 -0.520600
H69 H 1.018600 0.438900 0.970800
H70 H 1.029000 0.389200 0.867800
H71 H 0.654400 0.798900 -0.664400
H72 H 0.551900 0.886900 -0.610200
H73 H 0.948100 0.386900 1.110200
H74 H 0.471000 0.889200 -0.367800
H75 H 0.845600 0.298900 1.164400
H76 H 0.481400 0.938900 -0.470800
H77 H 0.741100 0.215700 1.020600
H78 H 0.616900 0.450800 0.193800
H79 H 0.842200 0.306100 0.766500
H80 H 0.725400 0.152100 0.823200
H81 H 0.623700 0.207000 0.768700
H82 H 0.983600 0.359800 0.694600
H83 H 1.025300 0.325100 0.535300
H84 H 0.596600 0.307200 0.682500
H85 H 0.976300 0.372800 0.353600
H86 H 0.490700 0.400400 0.596400
H87 H 0.861500 0.464100 0.275900
H88 H 0.440700 0.440000 0.408100
H89 H 0.709800 0.610200 0.140300
H90 H 0.483700 0.396900 0.255400
H91 H 0.823600 0.564400 0.197000
H92 H 0.730600 0.545100 -0.047900
H93 H 0.444700 0.356900 0.084900
H94 H 0.474700 0.307800 -0.007500
H95 H 0.641500 0.458400 -0.192500
H96 H 0.543400 0.366200 -0.142900
C97 C 0.578060 0.401480 -0.084810
C98 C 0.637300 0.456640 -0.114400
C99 C 0.570550 0.398950 0.031080
C100 C 0.689780 0.508770 -0.028200
C101 C 0.508700 0.338310 0.064470
C102 C 0.681940 0.507360 0.088830
C103 C 0.740100 0.565470 0.180700
C104 C 0.581480 0.314300 0.327150
C105 C 0.515020 0.372040 0.329890
C106 C 0.816060 0.495520 0.411130
C107 C 0.873090 0.452760 0.357590
C108 C 0.486890 0.399470 0.426800
C109 C 0.946210 0.394580 0.406830
C110 C 0.518400 0.374550 0.545200
C111 C 0.979160 0.365570 0.521900
C112 C 0.586650 0.315310 0.600210
C113 C 0.953230 0.388130 0.624050
C114 C 0.640980 0.267510 0.551770
C115 C 0.819630 0.494990 0.538290
C116 C 0.842150 0.304950 0.846380
C117 C 0.705800 0.198270 0.784390
C118 C 0.644570 0.265510 0.428190
C119 C 0.622390 0.452210 0.116230
C120 C 0.778660 0.252670 0.876970
C121 C 0.355430 0.734490 0.571810
C122 C 0.157850 0.695050 0.153620
C123 C 0.180370 0.505010 0.461710
C124 C 0.046770 0.611870 0.375950
C125 C 0.020840 0.634430 0.478100
C126 C 0.053790 0.605420 0.593170
C127 C 0.609860 0.945430 -0.135280
C128 C 0.526390 0.911760 -0.397100
C129 C 0.781820 0.250880 0.997860
C130 C 0.844500 0.300590 1.084050
C131 C 0.594550 0.855500 -0.432300
C132 C 0.593770 0.853190 -0.551710
C133 C 0.906230 0.353190 1.051710
C134 C 0.655500 0.800590 -0.584050
C135 C 0.905450 0.355500 0.932300
C136 C 0.718180 0.750880 -0.497860
C137 C 0.973610 0.411760 0.897100
C138 C 0.721340 0.752670 -0.376970
C139 C 0.794200 0.698270 -0.284390
C140 C 0.890140 0.445430 0.635280
C141 C 0.126910 0.547240 0.642410
C142 C 0.859020 0.767510 -0.051770
C143 C 0.913350 0.815310 -0.100210
C144 C 0.183940 0.504480 0.588870
C145 C 0.981600 0.874550 -0.045200
C146 C 0.390140 0.054570 1.135280
C147 C 1.013110 0.899470 0.073200
C148 C 0.473610 0.088240 1.397100
C149 C 0.984980 0.872040 0.170110
C150 C 0.259900 0.434530 0.819300
C151 C 0.918520 0.814300 0.172850
C152 C 0.991300 0.838310 0.435530
C153 C 0.318060 0.492640 0.911170
C154 C 0.122390 0.047790 0.616230
C155 C 0.929450 0.898950 0.468920
C156 C 0.921940 0.901480 0.584810
C157 C 0.144570 0.234490 0.928190
C158 C 0.862700 0.956640 0.614400
C159 C 0.342150 0.195050 1.346380
C160 C 0.810220 1.008770 0.528200
C161 C 0.319630 0.005010 1.038290
C162 C 0.818060 1.007360 0.411170
C163 C 0.759900 1.065470 0.319300
C164 C 0.453230 0.111870 1.124050
C165 C 0.479160 0.134430 1.021900
C166 C 0.683940 0.995520 0.088870
C167 C 0.626910 0.952760 0.142410
C168 C 0.446210 0.105420 0.906830
C169 C 0.553790 0.894580 0.093170
C170 C 0.373090 0.047240 0.857590
C171 C 0.520840 0.865570 -0.021900
C172 C 0.316060 0.004480 0.911130
C173 C 0.546770 0.888130 -0.124050
C174 C 0.240100 -0.065470 0.680700
C175 C 0.680370 0.994990 -0.038290
C176 C 0.657850 0.804950 -0.346380
C177 C 0.181940 -0.007360 0.588830
C178 C 0.855430 0.765510 0.071810
C179 C 0.877610 0.952210 0.383770
C180 C 0.189780 -0.008770 0.471800
C181 C 0.405450 0.144500 1.432300
C182 C 0.310220 0.491230 1.028200
C183 C 0.406230 0.146810 1.551710
C184 C 0.362700 0.543360 1.114400
C185 C 0.344500 0.199410 1.584050
C186 C 0.421940 0.598520 1.084810
C187 C 0.109860 0.554570 0.364720
C188 C 0.026390 0.588240 0.102900
C189 C 0.137300 0.043360 0.385600
C190 C 0.078060 0.098520 0.415190
C191 C 0.094550 0.644500 0.067700
C192 C 0.093770 0.646810 -0.051710
C193 C 0.070550 0.101050 0.531080
C194 C 0.155500 0.699410 -0.084050
C195 C 0.008700 0.161690 0.564470
C196 C 0.218180 0.749120 0.002140
C197 C 0.081480 0.185700 0.827150
C198 C 0.221340 0.747330 0.123030
C199 C 0.294200 0.801730 0.215610
C200 C 0.015020 0.127960 0.829890
C201 C -0.013110 0.100530 0.926800
C202 C 0.359020 0.732490 0.448230
C203 C 0.413350 0.684690 0.399790
C204 C 0.018400 0.125450 1.045200
C205 C 0.481600 0.625450 0.454800
C206 C 0.086650 0.184690 1.100210
C207 C 0.513110 0.600530 0.573200
C208 C 0.140980 0.232490 1.051770
C209 C 0.484980 0.627960 0.670110
C210 C 0.205800 0.301730 1.284390
C211 C 0.418520 0.685700 0.672850
C212 C 0.491300 0.661690 0.935530
C213 C 0.278660 0.247330 1.376970
C214 C 0.281820 0.249120 1.497860
C215 C 0.429450 0.601050 0.968920
C216 C 0.377610 0.547790 0.883770
O217 O 0.239260 0.460100 0.433390
O218 O 0.739260 1.039900 -0.066610
O219 O 0.260740 -0.039900 1.066610
O220 O 0.796200 0.717920 0.093920
O221 O 0.203800 0.282080 0.906080
O222 O 0.703800 0.217920 0.406080
O223 O 0.760740 0.539900 0.566610
O224 O 0.296200 0.782080 0.593920
S225 S 0.724730 0.565290 0.328990
S226 S 0.721050 0.194310 0.636370
S227 S 0.880850 0.472060 0.776830
S228 S 0.119150 0.527940 0.223170
S229 S 0.278950 0.805690 0.363630
S230 S 0.394960 0.714020 0.805100
S231 S 0.275270 0.434710 0.671010
S232 S 0.224730 -0.065290 0.828990
S233 S 0.775270 1.065290 0.171010
S234 S 0.105040 0.214020 0.694900
S235 S 0.894960 0.785980 0.305100
S236 S 0.778950 0.694310 -0.136370
S237 S 0.221050 0.305690 1.136370
S238 S 0.619150 0.972060 -0.276830
S239 S 0.605040 0.285980 0.194900
S240 S 0.380850 0.027940 1.276830

#END
