./ABILAC10_from_POSCAR.cif_generated_by_CrystalShift
_symmetry_cell_setting triclinic
_symmetry_space_group_name_H-M 'P 1'
loop_
_symmetry_equiv_pos_site_id
_symmetry_equiv_pos_as_xyz
1 x,y,z
_cell_length_a 6.633000
_cell_length_b 11.761000
_cell_length_c 35.009000
_cell_angle_alpha 90.000000
_cell_angle_beta 90.000000
_cell_angle_gamma 90.000000
_cell_volume 2731.077051
loop_
_atom_site_label
_atom_site_type_symbol
_atom_site_fract_x
_atom_site_fract_y
_atom_site_fract_z
C1 C 0.967500 0.679400 0.852500
C2 C 1.037700 0.801500 0.854500
C3 C 0.815000 0.804800 0.917800
C4 C 0.822200 0.844300 0.961600
C5 C 0.939900 0.956500 0.967400
C6 C 0.904200 1.035000 0.932100
C7 C 1.008400 1.145700 0.945300
C8 C 0.951200 1.151900 0.989100
C9 C 0.870300 1.034000 1.000600
C10 C 1.170100 0.934100 0.973000
C11 C 1.272000 0.805700 0.850600
C12 C 0.990600 0.628600 0.811100
C13 C 0.931100 0.998900 1.041500
C14 C 0.856200 0.878500 1.052600
C15 C 0.845100 1.089800 1.069700
C16 C 0.906600 1.070000 1.111500
C17 C 0.839700 1.163500 1.137100
C18 C 1.001000 1.211900 1.153500
C19 C 1.013100 1.311000 1.180800
C20 C 1.178000 1.154500 1.139700
C21 C 0.678900 1.062300 0.927100
C22 C 0.570900 0.576100 0.788300
C23 C 0.863000 0.696600 0.783800
C24 C 1.117100 0.831000 0.758400
C25 C 0.756000 0.888400 0.759600
C26 C 0.918900 0.821600 0.782500
C27 C 0.929400 0.873200 0.823900
C28 C 1.015300 0.993000 0.824400
C29 C 0.998800 1.045900 0.863600
C30 C 0.978900 0.982100 0.894700
C31 C 0.992200 0.852800 0.895100
C32 C 0.507800 0.147200 0.395100
C33 C 0.521100 0.017900 0.394700
C34 C 0.501200 -0.045900 0.363600
C35 C 0.467500 0.820600 0.147500
C36 C 0.537700 0.698500 0.145500
C37 C 0.315000 0.695200 0.082200
C38 C 0.322200 0.655700 0.038400
C39 C 0.439900 0.543500 0.032600
C40 C 0.404200 0.465000 0.067900
C41 C 0.508400 0.354300 0.054700
C42 C 0.451200 0.348100 0.010900
C43 C 0.370300 0.466000 -0.000600
C44 C 0.670100 0.565900 0.027000
C45 C 0.772000 0.694300 0.149400
C46 C 0.490600 0.871400 0.188900
C47 C 0.431100 0.501100 -0.041500
C48 C 0.356200 0.621500 -0.052600
C49 C 0.345100 0.410200 -0.069700
C50 C 0.406600 0.430000 -0.111500
C51 C 0.339700 0.336500 -0.137100
C52 C 0.501000 0.288100 -0.153500
C53 C 0.513100 0.189000 -0.180800
C54 C 0.678000 0.345500 -0.139700
C55 C 0.178900 0.437700 0.072900
C56 C 0.070900 0.923900 0.211700
C57 C 0.363000 0.803400 0.216200
C58 C 0.617100 0.669000 0.241600
C59 C 0.256000 0.611600 0.240400
C60 C 0.418900 0.678400 0.217500
C61 C 0.429400 0.626800 0.176100
C62 C 0.515300 0.507000 0.175600
C63 C 0.498800 0.454100 0.136400
C64 C 0.478900 0.517900 0.105300
C65 C 0.492200 0.647200 0.104900
C66 C 0.484700 0.007000 0.324400
C67 C 0.570600 0.126800 0.323900
C68 C 0.581100 0.178400 0.282500
C69 C 0.032500 0.179400 0.647500
C70 C -0.037700 0.301500 0.645500
C71 C 0.185000 0.304800 0.582200
C72 C 0.177800 0.344300 0.538400
C73 C 0.060100 0.456500 0.532600
C74 C 0.095800 0.535000 0.567900
C75 C -0.008400 0.645700 0.554700
C76 C 0.048800 0.651900 0.510900
C77 C 0.129700 0.534000 0.499400
C78 C -0.170100 0.434100 0.527000
C79 C -0.272000 0.305700 0.649400
C80 C 0.009400 0.128600 0.688900
C81 C 0.068900 0.498900 0.458500
C82 C 0.143800 0.378500 0.447400
C83 C 0.154900 0.589800 0.430300
C84 C 0.093400 0.570000 0.388500
C85 C 0.160300 0.663500 0.362900
C86 C -0.001000 0.711900 0.346500
C87 C -0.013100 0.811000 0.319200
C88 C -0.178000 0.654500 0.360300
C89 C 0.321100 0.562300 0.572900
C90 C 0.429100 0.076100 0.711700
C91 C 0.137000 0.196600 0.716200
C92 C -0.117100 0.331000 0.741600
C93 C 0.244000 0.388400 0.740400
C94 C 0.081100 0.321600 0.717500
C95 C 0.070600 0.373200 0.676100
C96 C -0.015300 0.493000 0.675600
C97 C 0.001200 0.545900 0.636400
C98 C 0.021100 0.482100 0.605300
C99 C 0.007800 0.352800 0.604900
C100 C 0.744000 0.111600 0.259600
C101 C 0.382900 0.169000 0.258400
C102 C 0.637000 0.303400 0.283800
C103 C 0.532500 0.320600 0.352500
C104 C 0.462300 0.198500 0.354500
C105 C 0.685000 0.195200 0.417800
C106 C 0.677800 0.155700 0.461600
C107 C 0.560100 0.043500 0.467400
C108 C 0.595800 -0.035000 0.432100
C109 C 0.491600 -0.145700 0.445300
C110 C 0.548800 -0.151900 0.489100
C111 C 0.629700 -0.034000 0.500600
C112 C 0.329900 0.065900 0.473000
C113 C 0.228000 0.194300 0.350600
C114 C 0.509400 0.371400 0.311100
C115 C 0.568900 0.001100 0.541500
C116 C 0.643800 0.121500 0.552600
C117 C 0.654900 -0.089800 0.569700
C118 C 0.593400 -0.070000 0.611500
C119 C 0.660300 -0.163500 0.637100
C120 C 0.499000 -0.211900 0.653500
C121 C 0.486900 -0.311000 0.680800
C122 C 0.322000 -0.154500 0.639700
C123 C 0.821100 -0.062300 0.427100
C124 C 0.929100 0.423900 0.288300
O125 O -0.351500 0.670100 0.352000
O126 O -0.122700 0.571300 0.385800
O127 O 0.347400 0.186500 0.705200
O128 O 0.851500 0.329900 -0.148000
O129 O 0.622700 0.428700 -0.114200
O130 O 0.152600 0.813500 0.205200
O131 O 1.351500 1.170100 1.148000
O132 O 1.122700 1.071300 1.114200
O133 O 0.652600 0.686500 0.794800
O134 O 0.847400 0.313500 0.294800
O135 O 0.377300 -0.071300 0.614200
O136 O 0.148500 -0.170100 0.648000

#END
