
#######################################################################
#
#                 Cambridge Crystallographic Data Centre
#                                CCDC 
#
#######################################################################
#
# If this CIF has been generated from an entry in the Cambridge 
# Structural Database, then it will include bibliographic, chemical, 
# crystal, experimental, refinement or atomic coordinate data resulting 
# from the CCDC's data processing and validation procedures.
#
#######################################################################

data_ABILOM
_symmetry_cell_setting           monoclinic
_symmetry_space_group_name_H-M   'P 21/n'
_symmetry_Int_Tables_number      14
_space_group_name_Hall           '-P 2yn'
loop_
_symmetry_equiv_pos_site_id
_symmetry_equiv_pos_as_xyz
1 x,y,z
2 1/2+x,1/2-y,1/2+z
3 -x,-y,-z
4 1/2-x,1/2+y,1/2-z
_cell_length_a                   12.297(2)
_cell_length_b                   18.927(5)
_cell_length_c                   11.6270(10)
_cell_angle_alpha                90
_cell_angle_beta                 112.493(12)
_cell_angle_gamma                90
_cell_volume                     2500.26
loop_
_atom_site_label
_atom_site_type_symbol
_atom_site_fract_x
_atom_site_fract_y
_atom_site_fract_z
S1 S 0.38085(5) 0.02794(3) 1.27683(5)
S2 S 0.22105(5) 0.30569(3) 1.13637(4)
S3 S 0.10504(5) 0.21402(3) 0.69490(5)
S4 S 0.22473(4) -0.06529(3) 0.82899(5)
O1 O 0.26074(15) -0.03990(9) 1.06661(15)
O2 O 0.20380(17) 0.28208(9) 0.90608(15)
C1 C 0.39014(17) 0.05457(10) 1.13528(18)
C2 C 0.47361(19) 0.08824(12) 1.39710(18)
H1 H 0.5186 0.0611 1.4708
H2 H 0.5290 0.1108 1.3678
C3 C 0.40545(17) 0.14450(10) 1.43230(17)
C4 C 0.40623(18) 0.14681(12) 1.55171(18)
H3 H 0.4481 0.1131 1.6102
C5 C 0.3445(2) 0.19941(13) 1.58405(19)
H4 H 0.3456 0.2011 1.6644
C6 C 0.28182(19) 0.24912(13) 1.49786(19)
H5 H 0.2411 0.2843 1.5206
C7 C 0.27866(17) 0.24733(10) 1.37697(18)
C8 C 0.2058(2) 0.30173(11) 1.28439(19)
H6 H 0.2254 0.3479 1.3232
H7 H 0.1237 0.2930 1.2687
C9 C 0.14098(16) 0.23249(10) 1.05177(17)
C10 C 0.08665(18) 0.18469(11) 1.10021(19)
H8 H 0.0966 0.1928 1.1825
C11 C 0.0184(2) 0.12545(12) 1.0452(2)
H9 H -0.0093 0.0996 1.0964
C12 C -0.01311(19) 0.10053(11) 0.9268(2)
H10 H -0.0593 0.0600 0.9081
C13 C 0.01502(18) 0.12796(10) 0.82989(19)
H11 H -0.0163 0.1031 0.7554
C14 C 0.08148(17) 0.18570(10) 0.82715(17)
C15 C 0.0087(2) 0.16169(11) 0.56447(18)
H12 H -0.0553 0.1431 0.5849
H13 H -0.0253 0.1922 0.4925
C16 C 0.07055(17) 0.10105(11) 0.53108(18)
C17 C 0.07806(19) 0.09852(12) 0.41519(19)
H14 H 0.0434 0.1338 0.3571
C18 C 0.1373(2) 0.04336(14) 0.3856(2)
H15 H 0.1415 0.0416 0.3075
C19 C 0.18978(19) -0.00877(13) 0.4718(2)
H16 H 0.2306 -0.0451 0.4521
C20 C 0.18194(17) -0.00736(11) 0.58883(18)
C21 C 0.2401(2) -0.06547(11) 0.6807(2)
H17 H 0.3236 -0.0644 0.6970
H18 H 0.2098 -0.1102 0.6403
C22 C 0.31606(16) 0.00448(10) 0.91113(18)
C23 C 0.37309(17) 0.04724(11) 0.85759(18)
H19 H 0.3615 0.0359 0.7759
C24 C 0.44621(19) 0.10542(12) 0.90683(19)
H20 H 0.4763 0.1272 0.8536
C25 C 0.47916(19) 0.13443(11) 1.0219(2)
H21 H 0.5253 0.1749 1.0353
C26 C 0.45323(18) 0.11187(10) 1.12405(18)
H22 H 0.4836 0.1402 1.1946
C27 C 0.31963(17) 0.00501(10) 1.03829(18)
C28 C 0.34215(17) 0.19505(11) 1.34638(17)
H23 H 0.3422 0.1939 1.2665
C29 C 0.14457(18) 0.23449(10) 0.92819(18)
C30 C 0.12239(17) 0.04779(11) 0.61623(18)
H24 H 0.1169 0.0492 0.6938
S1 S 0.88085(5) 0.47206(3) 0.77683(5)
S2 S 0.72105(5) 0.19431(3) 0.63637(4)
S3 S 0.60504(5) 0.28598(3) 0.19490(5)
S4 S 0.72473(4) 0.56529(3) 0.32899(5)
O1 O 0.76074(15) 0.53990(9) 0.56661(15)
O2 O 0.70380(17) 0.21792(9) 0.40608(15)
C1 C 0.89014(17) 0.44543(10) 0.63528(18)
C2 C 0.97361(19) 0.41176(12) 0.89710(18)
H1 H 1.0186 0.4389 0.9708
H2 H 1.0290 0.3892 0.8678
C3 C 0.90545(17) 0.35550(10) 0.93230(17)
C4 C 0.90623(18) 0.35319(12) 1.05171(18)
H3 H 0.9481 0.3869 1.1102
C5 C 0.8445(2) 0.30059(13) 1.08405(19)
H4 H 0.8456 0.2989 1.1644
C6 C 0.78182(19) 0.25088(13) 0.99786(19)
H5 H 0.7411 0.2157 1.0206
C7 C 0.77866(17) 0.25267(10) 0.87697(18)
C8 C 0.7058(2) 0.19827(11) 0.78439(19)
H6 H 0.7254 0.1521 0.8232
H7 H 0.6237 0.2070 0.7687
C9 C 0.64098(16) 0.26751(10) 0.55177(17)
C10 C 0.58665(18) 0.31531(11) 0.60021(19)
H8 H 0.5966 0.3072 0.6825
C11 C 0.5184(2) 0.37455(12) 0.5452(2)
H9 H 0.4907 0.4004 0.5964
C12 C 0.48689(19) 0.39947(11) 0.4268(2)
H10 H 0.4407 0.4400 0.4081
C13 C 0.51502(18) 0.37204(10) 0.32989(19)
H11 H 0.4837 0.3969 0.2554
C14 C 0.58148(17) 0.31430(10) 0.32715(17)
C15 C 0.5087(2) 0.33831(11) 0.06447(18)
H12 H 0.4447 0.3569 0.0849
H13 H 0.4747 0.3078 -0.0075
C16 C 0.57055(17) 0.39895(11) 0.03108(18)
C17 C 0.57806(19) 0.40148(12) -0.08481(19)
H14 H 0.5434 0.3662 -0.1429
C18 C 0.6373(2) 0.45664(14) -0.1144(2)
H15 H 0.6415 0.4584 -0.1925
C19 C 0.68978(19) 0.50877(13) -0.0282(2)
H16 H 0.7306 0.5451 -0.0479
C20 C 0.68194(17) 0.50736(11) 0.08883(18)
C21 C 0.7401(2) 0.56547(11) 0.1807(2)
H17 H 0.8236 0.5644 0.1970
H18 H 0.7098 0.6102 0.1403
C22 C 0.81606(16) 0.49552(10) 0.41113(18)
C23 C 0.87309(17) 0.45276(11) 0.35759(18)
H19 H 0.8615 0.4641 0.2759
C24 C 0.94621(19) 0.39458(12) 0.40683(19)
H20 H 0.9763 0.3728 0.3536
C25 C 0.97916(19) 0.36557(11) 0.5219(2)
H21 H 1.0253 0.3251 0.5353
C26 C 0.95323(18) 0.38813(10) 0.62405(18)
H22 H 0.9836 0.3598 0.6946
C27 C 0.81963(17) 0.49499(10) 0.53829(18)
C28 C 0.84215(17) 0.30495(11) 0.84638(17)
H23 H 0.8422 0.3061 0.7665
C29 C 0.64457(18) 0.26551(10) 0.42819(18)
C30 C 0.62239(17) 0.45221(11) 0.11623(18)
H24 H 0.6169 0.4508 0.1938
S1 S 0.61915(5) 0.97206(3) -0.27683(5)
S2 S 0.77895(5) 0.69431(3) -0.13637(4)
S3 S 0.89496(5) 0.78598(3) 0.30510(5)
S4 S 0.77527(4) 1.06529(3) 0.17101(5)
O1 O 0.73926(15) 1.03990(9) -0.06661(15)
O2 O 0.79620(17) 0.71792(9) 0.09392(15)
C1 C 0.60986(17) 0.94543(10) -0.13528(18)
C2 C 0.52639(19) 0.91176(12) -0.39710(18)
H1 H 0.4814 0.9389 -0.4708
H2 H 0.4710 0.8892 -0.3678
C3 C 0.59455(17) 0.85550(10) -0.43230(17)
C4 C 0.59377(18) 0.85319(12) -0.55171(18)
H3 H 0.5519 0.8869 -0.6102
C5 C 0.6555(2) 0.80059(13) -0.58405(19)
H4 H 0.6544 0.7989 -0.6644
C6 C 0.71818(19) 0.75088(13) -0.49786(19)
H5 H 0.7589 0.7157 -0.5206
C7 C 0.72134(17) 0.75267(10) -0.37697(18)
C8 C 0.7942(2) 0.69827(11) -0.28439(19)
H6 H 0.7746 0.6521 -0.3232
H7 H 0.8763 0.7070 -0.2687
C9 C 0.85902(16) 0.76751(10) -0.05177(17)
C10 C 0.91335(18) 0.81531(11) -0.10021(19)
H8 H 0.9034 0.8072 -0.1825
C11 C 0.9816(2) 0.87455(12) -0.0452(2)
H9 H 1.0093 0.9004 -0.0964
C12 C 1.01311(19) 0.89947(11) 0.0732(2)
H10 H 1.0593 0.9400 0.0919
C13 C 0.98498(18) 0.87204(10) 0.17011(19)
H11 H 1.0163 0.8969 0.2446
C14 C 0.91852(17) 0.81430(10) 0.17285(17)
C15 C 0.9913(2) 0.83831(11) 0.43553(18)
H12 H 1.0553 0.8569 0.4151
H13 H 1.0253 0.8078 0.5075
C16 C 0.92945(17) 0.89895(11) 0.46892(18)
C17 C 0.92194(19) 0.90148(12) 0.58481(19)
H14 H 0.9566 0.8662 0.6429
C18 C 0.8627(2) 0.95664(14) 0.6144(2)
H15 H 0.8585 0.9584 0.6925
C19 C 0.81022(19) 1.00877(13) 0.5282(2)
H16 H 0.7694 1.0451 0.5479
C20 C 0.81806(17) 1.00736(11) 0.41117(18)
C21 C 0.7599(2) 1.06547(11) 0.3193(2)
H17 H 0.6764 1.0644 0.3030
H18 H 0.7902 1.1102 0.3597
C22 C 0.68394(16) 0.99552(10) 0.08887(18)
C23 C 0.62691(17) 0.95276(11) 0.14241(18)
H19 H 0.6385 0.9641 0.2241
C24 C 0.55379(19) 0.89458(12) 0.09317(19)
H20 H 0.5237 0.8728 0.1464
C25 C 0.52084(19) 0.86557(11) -0.0219(2)
H21 H 0.4747 0.8251 -0.0353
C26 C 0.54677(18) 0.88813(10) -0.12405(18)
H22 H 0.5164 0.8598 -0.1946
C27 C 0.68037(17) 0.99499(10) -0.03829(18)
C28 C 0.65785(17) 0.80495(11) -0.34638(17)
H23 H 0.6578 0.8061 -0.2665
C29 C 0.85543(18) 0.76551(10) 0.07181(18)
C30 C 0.87761(17) 0.95221(11) 0.38377(18)
H24 H 0.8831 0.9508 0.3062
S1 S 0.11915(5) 0.52794(3) 0.22317(5)
S2 S 0.27895(5) 0.80569(3) 0.36363(4)
S3 S 0.39496(5) 0.71402(3) 0.80510(5)
S4 S 0.27527(4) 0.43471(3) 0.67101(5)
O1 O 0.23926(15) 0.46010(9) 0.43339(15)
O2 O 0.29620(17) 0.78208(9) 0.59392(15)
C1 C 0.10986(17) 0.55457(10) 0.36472(18)
C2 C 0.02639(19) 0.58824(12) 0.10290(18)
H1 H -0.0186 0.5611 0.0292
H2 H -0.0290 0.6108 0.1322
C3 C 0.09455(17) 0.64450(10) 0.06770(17)
C4 C 0.09377(18) 0.64681(12) -0.05171(18)
H3 H 0.0519 0.6131 -0.1102
C5 C 0.1555(2) 0.69941(13) -0.08405(19)
H4 H 0.1544 0.7011 -0.1644
C6 C 0.21818(19) 0.74912(13) 0.00214(19)
H5 H 0.2589 0.7843 -0.0206
C7 C 0.22134(17) 0.74733(10) 0.12303(18)
C8 C 0.2942(2) 0.80173(11) 0.21561(19)
H6 H 0.2746 0.8479 0.1768
H7 H 0.3763 0.7930 0.2313
C9 C 0.35902(16) 0.73249(10) 0.44823(17)
C10 C 0.41335(18) 0.68469(11) 0.39979(19)
H8 H 0.4034 0.6928 0.3175
C11 C 0.4816(2) 0.62545(12) 0.4548(2)
H9 H 0.5093 0.5996 0.4036
C12 C 0.51311(19) 0.60053(11) 0.5732(2)
H10 H 0.5593 0.5600 0.5919
C13 C 0.48498(18) 0.62796(10) 0.67011(19)
H11 H 0.5163 0.6031 0.7446
C14 C 0.41852(17) 0.68570(10) 0.67285(17)
C15 C 0.4913(2) 0.66169(11) 0.93553(18)
H12 H 0.5553 0.6431 0.9151
H13 H 0.5253 0.6922 1.0075
C16 C 0.42945(17) 0.60105(11) 0.96892(18)
C17 C 0.42194(19) 0.59852(12) 1.08481(19)
H14 H 0.4566 0.6338 1.1429
C18 C 0.3627(2) 0.54336(14) 1.1144(2)
H15 H 0.3585 0.5416 1.1925
C19 C 0.31022(19) 0.49123(13) 1.0282(2)
H16 H 0.2694 0.4549 1.0479
C20 C 0.31806(17) 0.49264(11) 0.91117(18)
C21 C 0.2599(2) 0.43453(11) 0.8193(2)
H17 H 0.1764 0.4356 0.8030
H18 H 0.2902 0.3898 0.8597
C22 C 0.18394(16) 0.50448(10) 0.58887(18)
C23 C 0.12691(17) 0.54724(11) 0.64241(18)
H19 H 0.1385 0.5359 0.7241
C24 C 0.05379(19) 0.60542(12) 0.59317(19)
H20 H 0.0237 0.6272 0.6464
C25 C 0.02084(19) 0.63443(11) 0.4781(2)
H21 H -0.0253 0.6749 0.4647
C26 C 0.04677(18) 0.61187(10) 0.37595(18)
H22 H 0.0164 0.6402 0.3054
C27 C 0.18037(17) 0.50501(10) 0.46171(18)
C28 C 0.15785(17) 0.69505(11) 0.15362(17)
H23 H 0.1578 0.6939 0.2335
C29 C 0.35543(18) 0.73449(10) 0.57181(18)
C30 C 0.37761(17) 0.54779(11) 0.88377(18)
H24 H 0.3831 0.5492 0.8062

#END
