
#######################################################################
#
#                 Cambridge Crystallographic Data Centre
#                                CCDC 
#
#######################################################################
#
# If this CIF has been generated from an entry in the Cambridge 
# Structural Database, then it will include bibliographic, chemical, 
# crystal, experimental, refinement or atomic coordinate data resulting 
# from the CCDC's data processing and validation procedures.
#
#######################################################################

data_ABIMAZ
_symmetry_cell_setting           orthorhombic
_symmetry_space_group_name_H-M   'P 21 21 21'
_symmetry_Int_Tables_number      19
_space_group_name_Hall           'P 2ac 2ab'
loop_
_symmetry_equiv_pos_site_id
_symmetry_equiv_pos_as_xyz
1 x,y,z
2 1/2+x,1/2-y,-z
3 -x,1/2+y,1/2-z
4 1/2-x,-y,1/2+z
_cell_length_a                   9.465(3)
_cell_length_b                   13.310(4)
_cell_length_c                   9.111(2)
_cell_angle_alpha                90
_cell_angle_beta                 90
_cell_angle_gamma                90
_cell_volume                     1147.8
loop_
_atom_site_label
_atom_site_type_symbol
_atom_site_fract_x
_atom_site_fract_y
_atom_site_fract_z
Br1 Br 0.59050 0.31560 -0.05450
C1 C 0.41700 0.51100 0.42300
C2 C 0.27100 0.52900 0.46300
C3 C 0.52800 0.51800 0.53100
C4 C 0.50800 0.34300 0.12700
C5 C 0.40000 0.32530 0.32500
C6 C 0.43900 0.42420 0.31700
C7 C 0.57500 0.52080 0.12500
C8 C 0.39700 0.23650 0.55800
C9 C 0.30500 0.19000 0.67900
N1 N 0.50940 0.43320 0.18900
N2 N 0.44220 0.27020 0.20850
N3 N 0.32720 0.27480 0.44500
O1 O 0.52450 0.24010 0.56880
Br1 Br 1.09050 0.18440 1.05450
C1 C 0.91700 -0.01100 0.57700
C2 C 0.77100 -0.02900 0.53700
C3 C 1.02800 -0.01800 0.46900
C4 C 1.00800 0.15700 0.87300
C5 C 0.90000 0.17470 0.67500
C6 C 0.93900 0.07580 0.68300
C7 C 1.07500 -0.02080 0.87500
C8 C 0.89700 0.26350 0.44200
C9 C 0.80500 0.31000 0.32100
N1 N 1.00940 0.06680 0.81100
N2 N 0.94220 0.22980 0.79150
N3 N 0.82720 0.22520 0.55500
O1 O 1.02450 0.25990 0.43120
Br1 Br 0.40950 0.81560 0.55450
C1 C 0.58300 1.01100 0.07700
C2 C 0.72900 1.02900 0.03700
C3 C 0.47200 1.01800 -0.03100
C4 C 0.49200 0.84300 0.37300
C5 C 0.60000 0.82530 0.17500
C6 C 0.56100 0.92420 0.18300
C7 C 0.42500 1.02080 0.37500
C8 C 0.60300 0.73650 -0.05800
C9 C 0.69500 0.69000 -0.17900
N1 N 0.49060 0.93320 0.31100
N2 N 0.55780 0.77020 0.29150
N3 N 0.67280 0.77480 0.05500
O1 O 0.47550 0.74010 -0.06880
Br1 Br -0.09050 0.68440 0.44550
C1 C 0.08300 0.48900 0.92300
C2 C 0.22900 0.47100 0.96300
C3 C -0.02800 0.48200 1.03100
C4 C -0.00800 0.65700 0.62700
C5 C 0.10000 0.67470 0.82500
C6 C 0.06100 0.57580 0.81700
C7 C -0.07500 0.47920 0.62500
C8 C 0.10300 0.76350 1.05800
C9 C 0.19500 0.81000 1.17900
N1 N -0.00940 0.56680 0.68900
N2 N 0.05780 0.72980 0.70850
N3 N 0.17280 0.72520 0.94500
O1 O -0.02450 0.75990 1.06880

#END
