./ABIMIH_from_POSCAR.cif_generated_by_CrystalShift
_symmetry_cell_setting triclinic
_symmetry_space_group_name_H-M 'P 1'
loop_
_symmetry_equiv_pos_site_id
_symmetry_equiv_pos_as_xyz
1 x,y,z
_cell_length_a 23.503000
_cell_length_b 6.710600
_cell_length_c 17.435000
_cell_angle_alpha 90.000000
_cell_angle_beta 117.677000
_cell_angle_gamma 90.000000
_cell_volume 2435.199131
loop_
_atom_site_label
_atom_site_type_symbol
_atom_site_fract_x
_atom_site_fract_y
_atom_site_fract_z
H1 H 0.610100 0.553100 0.931400
H2 H 0.621400 0.680800 1.027200
H3 H 0.610100 0.446900 0.431400
H4 H 0.621400 0.319200 0.527200
H5 H 0.110100 0.053100 0.931400
H6 H 0.973500 0.809500 0.805600
H7 H 0.121400 0.180800 1.027200
H8 H 0.754400 0.587400 0.465300
H9 H 0.931500 0.852300 0.464300
H10 H 0.719300 0.838200 0.885500
H11 H 0.939900 0.617200 0.481200
H12 H 0.608400 0.841000 0.813700
H13 H 0.880100 0.730300 0.481700
H14 H 0.991400 0.571800 0.392100
H15 H 0.989700 0.809600 0.384300
H16 H 0.988800 0.675300 0.307900
H17 H 0.891600 0.659000 0.186300
H18 H 0.780700 0.661800 0.114500
H19 H 0.823200 0.678400 0.486600
H20 H 0.526500 0.690500 0.194400
H21 H 0.511200 0.824700 0.692100
H22 H 0.510300 0.690400 0.615700
H23 H 0.508600 0.928200 0.607900
H24 H 0.526500 0.309500 0.694400
H25 H 0.619900 0.769700 0.518300
H26 H 0.560100 0.882800 0.518800
H27 H 0.568500 0.647700 0.535700
H28 H 0.780700 0.338200 0.614500
H29 H 0.745600 0.912600 0.534700
H30 H 0.693500 1.047600 0.545300
H31 H 0.676800 0.821600 0.513400
H32 H 0.110100 0.946900 0.431400
H33 H 0.121400 0.819200 0.527200
H34 H 0.389900 0.446900 0.068600
H35 H 0.378600 0.319200 -0.027200
H36 H 0.389900 0.553100 0.568600
H37 H 0.973500 0.190500 0.305600
H38 H 0.378600 0.680800 0.472800
H39 H 0.323200 0.821600 0.986600
H40 H 0.306500 1.047600 0.954700
H41 H 0.719300 0.161800 0.385500
H42 H 0.254400 0.912600 0.965300
H43 H 0.608400 0.159000 0.313700
H44 H 0.431500 0.647700 0.964300
H45 H 0.439900 0.882800 0.981200
H46 H 0.380100 0.769700 0.981700
H47 H 0.491400 0.928200 0.892100
H48 H 0.489700 0.690400 0.884300
H49 H 0.488800 0.824700 0.807900
H50 H 0.391600 0.841000 0.686300
H51 H 0.280700 0.838200 0.614500
H52 H 0.511200 0.175300 0.192100
H53 H 0.510300 0.309600 0.115700
H54 H 0.508600 0.071800 0.107900
H55 H 0.891600 0.341000 0.686300
H56 H 0.619900 0.230300 0.018300
H57 H 0.560100 0.117200 0.018800
H58 H 0.568500 0.352300 0.035700
H59 H 0.026500 0.809500 0.694400
H60 H 0.745600 0.087400 0.034700
H61 H 0.693500 -0.047600 0.045300
H62 H 0.676800 0.178400 0.013400
H63 H 0.889900 0.946900 0.068600
H64 H 0.878600 0.819200 -0.027200
H65 H 0.889900 0.053100 0.568600
H66 H 0.878600 0.180800 0.472800
H67 H 0.823200 0.321600 0.986600
H68 H 0.473500 0.309500 0.805600
H69 H 0.806500 0.547600 0.954700
H70 H 0.323200 0.178400 0.486600
H71 H 0.306500 -0.047600 0.454700
H72 H 0.219300 0.338200 0.885500
H73 H 0.254400 0.087400 0.465300
H74 H 0.108400 0.341000 0.813700
H75 H 0.431500 0.352300 0.464300
H76 H 0.439900 0.117200 0.481200
H77 H 0.380100 0.230300 0.481700
H78 H 0.491400 0.071800 0.392100
H79 H 0.489700 0.309600 0.384300
H80 H 0.488800 0.175300 0.307900
H81 H 0.391600 0.159000 0.186300
H82 H 0.280700 0.161800 0.114500
H83 H 0.011200 0.324700 0.692100
H84 H 0.010300 0.190400 0.615700
H85 H 0.008600 0.428200 0.607900
H86 H 0.026500 0.190500 0.194400
H87 H 0.119900 0.269700 0.518300
H88 H 0.060100 0.382800 0.518800
H89 H 0.068500 0.147700 0.535700
H90 H 0.988800 0.324700 0.807900
H91 H 0.245600 0.412600 0.534700
H92 H 0.193500 0.547600 0.545300
H93 H 0.176800 0.321600 0.513400
H94 H 0.754400 0.412600 0.965300
H95 H 0.989700 0.190400 0.884300
H96 H 0.931500 0.147700 0.964300
H97 H 0.939900 0.382800 0.981200
H98 H 0.880100 0.269700 0.981700
H99 H 0.473500 0.690500 0.305600
H100 H 0.991400 0.428200 0.892100
H101 H 0.176800 0.678400 0.013400
H102 H 0.193500 0.452400 0.045300
H103 H 0.219300 0.661800 0.385500
H104 H 0.245600 0.587400 0.034700
H105 H 0.108400 0.659000 0.313700
H106 H 0.068500 0.852300 0.035700
H107 H 0.060100 0.617200 0.018800
H108 H 0.119900 0.730300 0.018300
H109 H 0.806500 0.452400 0.454700
H110 H 0.008600 0.571800 0.107900
H111 H 0.010300 0.809600 0.115700
H112 H 0.011200 0.675300 0.192100
C113 C 0.025700 0.684600 0.147900
C114 C 0.330080 0.684300 0.279620
C115 C 0.401320 0.692600 0.329900
C116 C 0.400680 0.666700 0.189300
C117 C 0.091330 0.725200 0.045100
C118 C 0.198800 0.671600 0.184510
C119 C 0.130300 0.688000 0.140600
C120 C 0.098200 0.680100 0.190900
C121 C 0.210980 0.587400 0.051200
C122 C 0.131720 0.667100 0.281500
C123 C 0.197160 0.665900 0.324000
C124 C 0.231570 0.670900 0.276600
C125 C 0.908670 0.274800 0.954900
C126 C 0.789020 0.412600 0.948800
C127 C 0.210980 0.412600 0.551200
C128 C 0.974300 0.315400 0.852100
C129 C 0.669920 0.315700 0.720380
C130 C 0.091330 0.274800 0.545100
C131 C 0.598680 0.307400 0.670100
C132 C 0.268430 0.170900 0.223400
C133 C 0.302840 0.165900 0.176000
C134 C 0.025700 0.315400 0.647900
C135 C 0.368280 0.167100 0.218500
C136 C 0.330080 0.315700 0.779620
C137 C 0.401800 0.180100 0.309100
C138 C 0.369700 0.188000 0.359400
C139 C 0.301200 0.171600 0.315490
C140 C 0.197820 0.170000 0.312500
C141 C 0.099320 0.166700 0.310700
C142 C 0.098680 0.192600 0.170100
C143 C 0.169920 0.184300 0.220380
C144 C 0.474300 0.184600 0.352100
C145 C 0.401320 0.307400 0.829900
C146 C 0.400680 0.333300 0.689300
C147 C 0.302180 0.330000 0.687500
C148 C 0.408670 0.225200 0.454900
C149 C 0.198800 0.328400 0.684510
C150 C 0.130300 0.312000 0.640600
C151 C 0.098200 0.319900 0.690900
C152 C 0.289020 0.087400 0.448800
C153 C 0.131720 0.332900 0.781500
C154 C 0.197160 0.334100 0.824000
C155 C 0.231570 0.329100 0.776600
C156 C 0.599320 0.333300 0.810700
C157 C 0.697820 0.330000 0.812500
C158 C 0.801200 0.328400 0.815490
C159 C 0.869700 0.312000 0.859400
C160 C 0.901800 0.319900 0.809100
C161 C 0.710980 0.087400 0.051200
C162 C 0.591330 0.225200 0.045100
C163 C 0.268430 0.829100 0.723400
C164 C 0.302840 0.834100 0.676000
C165 C 0.525700 0.184600 0.147900
C166 C 0.368280 0.832900 0.718500
C167 C 0.830080 0.184300 0.279620
C168 C 0.401800 0.819900 0.809100
C169 C 0.369700 0.812000 0.859400
C170 C 0.301200 0.828400 0.815490
C171 C 0.197820 0.830000 0.812500
C172 C 0.099320 0.833300 0.810700
C173 C 0.098680 0.807400 0.670100
C174 C 0.169920 0.815700 0.720380
C175 C 0.474300 0.815400 0.852100
C176 C 0.901320 0.192600 0.329900
C177 C 0.900680 0.166700 0.189300
C178 C 0.802180 0.170000 0.187500
C179 C 0.408670 0.774800 0.954900
C180 C 0.698800 0.171600 0.184510
C181 C 0.630300 0.188000 0.140600
C182 C 0.598200 0.180100 0.190900
C183 C 0.289020 0.912600 0.948800
C184 C 0.631720 0.167100 0.281500
C185 C 0.697160 0.165900 0.324000
C186 C 0.731570 0.170900 0.276600
C187 C 0.868280 0.332900 0.718500
C188 C 0.710980 0.912600 0.551200
C189 C 0.802840 0.334100 0.676000
C190 C 0.768430 0.329100 0.723400
C191 C 0.591330 0.774800 0.545100
C192 C 0.525700 0.815400 0.647900
C193 C 0.830080 0.815700 0.779620
C194 C 0.768430 0.670900 0.223400
C195 C 0.802840 0.665900 0.176000
C196 C 0.901320 0.807400 0.829900
C197 C 0.868280 0.667100 0.218500
C198 C 0.900680 0.833300 0.689300
C199 C 0.901800 0.680100 0.309100
C200 C 0.869700 0.688000 0.359400
C201 C 0.801200 0.671600 0.315490
C202 C 0.697820 0.670000 0.312500
C203 C 0.599320 0.666700 0.310700
C204 C 0.598680 0.692600 0.170100
C205 C 0.669920 0.684300 0.220380
C206 C 0.974300 0.684600 0.352100
C207 C 0.802180 0.830000 0.687500
C208 C 0.698800 0.828400 0.684510
C209 C 0.630300 0.812000 0.640600
C210 C 0.908670 0.725200 0.454900
C211 C 0.598200 0.819900 0.690900
C212 C 0.631720 0.832900 0.781500
C213 C 0.697160 0.834100 0.824000
C214 C 0.789020 0.587400 0.448800
C215 C 0.731570 0.829100 0.776600
C216 C 0.302180 0.670000 0.187500
N217 N 0.702650 0.678100 0.176770
N218 N 0.835520 0.835600 0.644030
N219 N 0.931230 0.815700 0.779320
N220 N 0.763230 0.346200 0.857490
N221 N 0.664480 0.335600 0.855970
N222 N 0.568770 0.315700 0.720680
N223 N 0.568770 0.684300 0.220680
N224 N 0.702650 0.321900 0.676770
N225 N 0.664480 0.664400 0.355970
N226 N 0.763230 0.653800 0.357490
N227 N 0.797350 0.821900 0.823230
N228 N 0.736770 0.153800 0.142510
N229 N 0.202650 0.821900 0.676770
N230 N 0.068770 0.815700 0.720680
N231 N 0.164480 0.835600 0.855970
N232 N 0.263230 0.846200 0.857490
N233 N 0.835520 0.164400 0.144030
N234 N 0.931230 0.184300 0.279320
N235 N 0.202650 0.178100 0.176770
N236 N 0.068770 0.184300 0.220680
N237 N 0.164480 0.164400 0.355970
N238 N 0.263230 0.153800 0.357490
N239 N 0.797350 0.178100 0.323230
N240 N 0.236770 0.346200 0.642510
N241 N 0.297350 0.678100 0.323230
N242 N 0.431230 0.684300 0.279320
N243 N 0.335520 0.664400 0.144030
N244 N 0.236770 0.653800 0.142510
N245 N 0.335520 0.335600 0.644030
N246 N 0.431230 0.315700 0.779320
N247 N 0.297350 0.321900 0.823230
N248 N 0.736770 0.846200 0.642510
O249 O 0.856810 0.170500 0.525400
O250 O 0.430100 0.705700 0.408460
O251 O 0.066250 0.153200 0.348210
O252 O 0.856810 0.829500 0.025400
O253 O 0.430100 0.294300 0.908460
O254 O 0.433750 0.346800 0.651790
O255 O 0.356810 0.670500 0.525400
O256 O 0.069900 0.205700 0.091540
O257 O 0.066250 0.846800 0.848210
O258 O 0.356810 0.329500 0.025400
O259 O 0.069900 0.794300 0.591540
O260 O 0.566250 0.653200 0.348210
O261 O 0.143190 0.829500 0.474600
O262 O 0.930100 0.205700 0.408460
O263 O 0.933750 0.153200 0.151790
O264 O 0.143190 0.170500 0.974600
O265 O 0.569900 0.705700 0.091540
O266 O 0.569900 0.294300 0.591540
O267 O 0.643190 0.329500 0.474600
O268 O 0.566250 0.346800 0.848210
O269 O 0.433750 0.653200 0.151790
O270 O 0.643190 0.670500 0.974600
O271 O 0.930100 0.794300 0.908460
O272 O 0.933750 0.846800 0.651790

#END
