./ABIMON_from_POSCAR.cif_generated_by_CrystalShift
_symmetry_cell_setting triclinic
_symmetry_space_group_name_H-M 'P 1'
loop_
_symmetry_equiv_pos_site_id
_symmetry_equiv_pos_as_xyz
1 x,y,z
_cell_length_a 5.037800
_cell_length_b 9.462300
_cell_length_c 14.219600
_cell_angle_alpha 105.792000
_cell_angle_beta 98.797000
_cell_angle_gamma 92.324000
_cell_volume 642.168531
loop_
_atom_site_label
_atom_site_type_symbol
_atom_site_fract_x
_atom_site_fract_y
_atom_site_fract_z
H1 H 0.692100 0.357800 0.512400
H2 H 0.906800 0.578700 0.256400
H3 H 0.639600 0.726200 0.625900
H4 H 0.627200 0.715700 0.239200
H5 H 0.093500 0.622900 0.553500
H6 H 0.307900 0.642200 0.487600
H7 H 0.093200 0.421300 0.743600
H8 H 0.336500 0.897700 0.552700
H9 H 0.372800 0.284300 0.760800
H10 H 0.032600 0.841200 0.510200
H11 H -0.143000 1.046200 0.626400
H12 H -0.266100 1.140700 0.780100
H13 H -0.084900 1.057500 0.912200
H14 H 0.822000 0.591700 1.017600
H15 H 0.493500 0.425500 0.371800
H16 H 0.360400 0.273800 0.374100
H17 H 0.178000 0.408300 -0.017600
H18 H 0.906500 0.377100 0.446500
H19 H 0.506500 0.574500 0.628200
H20 H 1.084900 -0.057500 0.087800
H21 H 0.663500 0.102300 0.447300
H22 H 1.266100 -0.140700 0.219900
H23 H 0.967400 0.158800 0.489800
H24 H 1.143000 -0.046200 0.373600
C25 C 0.888600 0.094390 0.338140
C26 C 0.777000 0.145140 0.257260
C27 C 0.475200 0.293240 0.188600
C28 C 0.172200 0.427410 0.120940
C29 C 0.455700 0.286210 0.010670
C30 C 0.567800 0.231370 0.095970
C31 C 0.816700 0.160200 0.438730
C32 C 1.068100 -0.011400 0.321150
C33 C 1.143500 -0.069300 0.228220
C34 C 0.747800 0.317400 0.448780
C35 C 1.035400 -0.019930 0.149640
C36 C 0.850500 0.087130 0.162790
C37 C 0.525200 0.323500 0.366940
C38 C 0.684600 0.691500 0.305650
C39 C 0.474800 0.676500 0.633060
C40 C 0.252200 0.682600 0.551220
C41 C 0.315400 0.308500 0.694350
C42 C 0.183300 0.839800 0.561270
C43 C 0.432200 0.768630 0.904030
C44 C 0.544300 0.713790 0.989330
C45 C 0.827800 0.572590 0.879060
C46 C 0.524800 0.706760 0.811400
C47 C 0.149500 0.912870 0.837210
C48 C -0.035400 1.019930 0.850360
C49 C 0.223000 0.854860 0.742740
C50 C -0.143500 1.069300 0.771780
C51 C 0.111400 0.905610 0.661860
C52 C -0.068100 1.011400 0.678850
N53 N 0.254400 0.865320 0.916830
N54 N 0.286500 0.385840 0.200430
N55 N 0.745600 0.134680 0.083170
N56 N 0.595500 0.251930 0.267880
N57 N 0.742700 0.621800 0.969590
N58 N 0.713500 0.614160 0.799570
N59 N 0.404500 0.748070 0.732120
N60 N 0.257300 0.378200 0.030410
O61 O 0.469000 0.746550 1.068760
O62 O 1.012800 0.489050 0.872930
O63 O 0.127400 0.396160 0.684900
O64 O 0.577400 0.753560 0.372780
O65 O 0.531000 0.253450 -0.068760
O66 O -0.012800 0.510950 0.127070
O67 O 0.422600 0.246440 0.627220
O68 O 0.872600 0.603840 0.315100

#END
