
#######################################################################
#
#                 Cambridge Crystallographic Data Centre
#                                CCDC 
#
#######################################################################
#
# If this CIF has been generated from an entry in the Cambridge 
# Structural Database, then it will include bibliographic, chemical, 
# crystal, experimental, refinement or atomic coordinate data resulting 
# from the CCDC's data processing and validation procedures.
#
#######################################################################

data_ABIMIH
_symmetry_cell_setting           monoclinic
_symmetry_space_group_name_H-M   'C 2/c'
_symmetry_Int_Tables_number      15
_space_group_name_Hall           '-C 2yn'
loop_
_symmetry_equiv_pos_site_id
_symmetry_equiv_pos_as_xyz
1 x,y,z
2 x,-y,1/2+z
3 1/2+x,1/2+y,z
4 1/2+x,1/2-y,1/2+z
5 -x,-y,-z
6 -x,y,1/2-z
7 1/2-x,1/2-y,-z
8 1/2-x,1/2+y,1/2-z
_cell_length_a                   23.503(5)
_cell_length_b                   6.7106(10)
_cell_length_c                   17.435(3)
_cell_angle_alpha                90
_cell_angle_beta                 117.677(3)
_cell_angle_gamma                90
_cell_volume                     2435.2
loop_
_atom_site_label
_atom_site_type_symbol
_atom_site_fract_x
_atom_site_fract_y
_atom_site_fract_z
O1 O 0.93375(11) 0.8468(4) 0.65179(15)
O2 O 0.93010(11) 0.7943(4) 0.90846(14)
N1 N 0.73677(12) 0.8462(4) 0.64251(15)
N2 N 0.83552(12) 0.8356(4) 0.64403(16)
N3 N 0.93123(12) 0.8157(4) 0.77932(16)
H1 H 0.9735 0.8095 0.8056
N4 N 0.79735(12) 0.8219(4) 0.82323(16)
C1 C 0.73157(15) 0.8291(5) 0.7766(2)
C2 C 0.69716(16) 0.8341(5) 0.8240(2)
H2 H 0.7193 0.8382 0.8855
C3 C 0.63172(16) 0.8329(5) 0.7815(2)
H3 H 0.6084 0.8410 0.8137
C4 C 0.59820(16) 0.8199(5) 0.6909(2)
C5 C 0.63030(15) 0.8120(5) 0.6406(2)
C6 C 0.69880(15) 0.8284(5) 0.68451(19)
C7 C 0.80218(15) 0.8300(5) 0.6875(2)
C8 C 0.90068(16) 0.8333(5) 0.6893(2)
C9 C 0.90132(15) 0.8074(5) 0.8299(2)
C10 C 0.83008(15) 0.8157(5) 0.77962(19)
C11 C 0.52570(16) 0.8154(6) 0.6479(2)
H4 H 0.5112 0.8247 0.6921
H5 H 0.5103 0.6904 0.6157
H6 H 0.5086 0.9282 0.6079
C12 C 0.59133(17) 0.7748(6) 0.5451(2)
H7 H 0.6199 0.7697 0.5183
H8 H 0.5601 0.8828 0.5188
H9 H 0.5685 0.6477 0.5357
C13 C 0.71098(17) 0.9126(6) 0.5512(2)
H10 H 0.7456 0.9126 0.5347
H11 H 0.6935 1.0476 0.5453
H12 H 0.6768 0.8216 0.5134
O1 O 0.93375(11) 0.1532(4) 0.15179(15)
O2 O 0.93010(11) 0.2057(4) 0.40846(14)
N1 N 0.73677(12) 0.1538(4) 0.14251(15)
N2 N 0.83552(12) 0.1644(4) 0.14403(16)
N3 N 0.93123(12) 0.1843(4) 0.27932(16)
H1 H 0.9735 0.1905 0.3056
N4 N 0.79735(12) 0.1781(4) 0.32323(16)
C1 C 0.73157(15) 0.1709(5) 0.2766(2)
C2 C 0.69716(16) 0.1659(5) 0.3240(2)
H2 H 0.7193 0.1618 0.3855
C3 C 0.63172(16) 0.1671(5) 0.2815(2)
H3 H 0.6084 0.1590 0.3137
C4 C 0.59820(16) 0.1801(5) 0.1909(2)
C5 C 0.63030(15) 0.1880(5) 0.1406(2)
C6 C 0.69880(15) 0.1716(5) 0.18451(19)
C7 C 0.80218(15) 0.1700(5) 0.1875(2)
C8 C 0.90068(16) 0.1667(5) 0.1893(2)
C9 C 0.90132(15) 0.1926(5) 0.3299(2)
C10 C 0.83008(15) 0.1843(5) 0.27962(19)
C11 C 0.52570(16) 0.1846(6) 0.1479(2)
H4 H 0.5112 0.1753 0.1921
H5 H 0.5103 0.3096 0.1157
H6 H 0.5086 0.0718 0.1079
C12 C 0.59133(17) 0.2252(6) 0.0451(2)
H7 H 0.6199 0.2303 0.0183
H8 H 0.5601 0.1172 0.0188
H9 H 0.5685 0.3523 0.0357
C13 C 0.71098(17) 0.0874(6) 0.0512(2)
H10 H 0.7456 0.0874 0.0347
H11 H 0.6935 -0.0476 0.0453
H12 H 0.6768 0.1784 0.0134
O1 O 0.43375(11) 0.3468(4) 0.65179(15)
O2 O 0.43010(11) 0.2943(4) 0.90846(14)
N1 N 0.23677(12) 0.3462(4) 0.64251(15)
N2 N 0.33552(12) 0.3356(4) 0.64403(16)
N3 N 0.43123(12) 0.3157(4) 0.77932(16)
H1 H 0.4735 0.3095 0.8056
N4 N 0.29735(12) 0.3219(4) 0.82323(16)
C1 C 0.23157(15) 0.3291(5) 0.7766(2)
C2 C 0.19716(16) 0.3341(5) 0.8240(2)
H2 H 0.2193 0.3382 0.8855
C3 C 0.13172(16) 0.3329(5) 0.7815(2)
H3 H 0.1084 0.3410 0.8137
C4 C 0.09820(16) 0.3199(5) 0.6909(2)
C5 C 0.13030(15) 0.3120(5) 0.6406(2)
C6 C 0.19880(15) 0.3284(5) 0.68451(19)
C7 C 0.30218(15) 0.3300(5) 0.6875(2)
C8 C 0.40068(16) 0.3333(5) 0.6893(2)
C9 C 0.40132(15) 0.3074(5) 0.8299(2)
C10 C 0.33008(15) 0.3157(5) 0.77962(19)
C11 C 0.02570(16) 0.3154(6) 0.6479(2)
H4 H 0.0112 0.3247 0.6921
H5 H 0.0103 0.1904 0.6157
H6 H 0.0086 0.4282 0.6079
C12 C 0.09133(17) 0.2748(6) 0.5451(2)
H7 H 0.1199 0.2697 0.5183
H8 H 0.0601 0.3828 0.5188
H9 H 0.0685 0.1477 0.5357
C13 C 0.21098(17) 0.4126(6) 0.5512(2)
H10 H 0.2456 0.4126 0.5347
H11 H 0.1935 0.5476 0.5453
H12 H 0.1768 0.3216 0.5134
O1 O 0.43375(11) 0.6532(4) 0.15179(15)
O2 O 0.43010(11) 0.7057(4) 0.40846(14)
N1 N 0.23677(12) 0.6538(4) 0.14251(15)
N2 N 0.33552(12) 0.6644(4) 0.14403(16)
N3 N 0.43123(12) 0.6843(4) 0.27932(16)
H1 H 0.4735 0.6905 0.3056
N4 N 0.29735(12) 0.6781(4) 0.32323(16)
C1 C 0.23157(15) 0.6709(5) 0.2766(2)
C2 C 0.19716(16) 0.6659(5) 0.3240(2)
H2 H 0.2193 0.6618 0.3855
C3 C 0.13172(16) 0.6671(5) 0.2815(2)
H3 H 0.1084 0.6590 0.3137
C4 C 0.09820(16) 0.6801(5) 0.1909(2)
C5 C 0.13030(15) 0.6880(5) 0.1406(2)
C6 C 0.19880(15) 0.6716(5) 0.18451(19)
C7 C 0.30218(15) 0.6700(5) 0.1875(2)
C8 C 0.40068(16) 0.6667(5) 0.1893(2)
C9 C 0.40132(15) 0.6926(5) 0.3299(2)
C10 C 0.33008(15) 0.6843(5) 0.27962(19)
C11 C 0.02570(16) 0.6846(6) 0.1479(2)
H4 H 0.0112 0.6753 0.1921
H5 H 0.0103 0.8096 0.1157
H6 H 0.0086 0.5718 0.1079
C12 C 0.09133(17) 0.7252(6) 0.0451(2)
H7 H 0.1199 0.7303 0.0183
H8 H 0.0601 0.6172 0.0188
H9 H 0.0685 0.8523 0.0357
C13 C 0.21098(17) 0.5874(6) 0.0512(2)
H10 H 0.2456 0.5874 0.0347
H11 H 0.1935 0.4524 0.0453
H12 H 0.1768 0.6784 0.0134
O1 O 0.06625(11) 0.1532(4) 0.34821(15)
O2 O 0.06990(11) 0.2057(4) 0.09154(14)
N1 N 0.26323(12) 0.1538(4) 0.35749(15)
N2 N 0.16448(12) 0.1644(4) 0.35597(16)
N3 N 0.06877(12) 0.1843(4) 0.22068(16)
H1 H 0.0265 0.1905 0.1944
N4 N 0.20265(12) 0.1781(4) 0.17677(16)
C1 C 0.26843(15) 0.1709(5) 0.2234(2)
C2 C 0.30284(16) 0.1659(5) 0.1760(2)
H2 H 0.2807 0.1618 0.1145
C3 C 0.36828(16) 0.1671(5) 0.2185(2)
H3 H 0.3916 0.1590 0.1863
C4 C 0.40180(16) 0.1801(5) 0.3091(2)
C5 C 0.36970(15) 0.1880(5) 0.3594(2)
C6 C 0.30120(15) 0.1716(5) 0.31549(19)
C7 C 0.19782(15) 0.1700(5) 0.3125(2)
C8 C 0.09932(16) 0.1667(5) 0.3107(2)
C9 C 0.09868(15) 0.1926(5) 0.1701(2)
C10 C 0.16992(15) 0.1843(5) 0.22038(19)
C11 C 0.47430(16) 0.1846(6) 0.3521(2)
H4 H 0.4888 0.1753 0.3079
H5 H 0.4897 0.3096 0.3843
H6 H 0.4914 0.0718 0.3921
C12 C 0.40867(17) 0.2252(6) 0.4549(2)
H7 H 0.3801 0.2303 0.4817
H8 H 0.4399 0.1172 0.4812
H9 H 0.4315 0.3523 0.4643
C13 C 0.28902(17) 0.0874(6) 0.4488(2)
H10 H 0.2544 0.0874 0.4653
H11 H 0.3065 -0.0476 0.4547
H12 H 0.3232 0.1784 0.4866
O1 O 0.06625(11) 0.8468(4) 0.84821(15)
O2 O 0.06990(11) 0.7943(4) 0.59154(14)
N1 N 0.26323(12) 0.8462(4) 0.85749(15)
N2 N 0.16448(12) 0.8356(4) 0.85597(16)
N3 N 0.06877(12) 0.8157(4) 0.72068(16)
H1 H 0.0265 0.8095 0.6944
N4 N 0.20265(12) 0.8219(4) 0.67677(16)
C1 C 0.26843(15) 0.8291(5) 0.7234(2)
C2 C 0.30284(16) 0.8341(5) 0.6760(2)
H2 H 0.2807 0.8382 0.6145
C3 C 0.36828(16) 0.8329(5) 0.7185(2)
H3 H 0.3916 0.8410 0.6863
C4 C 0.40180(16) 0.8199(5) 0.8091(2)
C5 C 0.36970(15) 0.8120(5) 0.8594(2)
C6 C 0.30120(15) 0.8284(5) 0.81549(19)
C7 C 0.19782(15) 0.8300(5) 0.8125(2)
C8 C 0.09932(16) 0.8333(5) 0.8107(2)
C9 C 0.09868(15) 0.8074(5) 0.6701(2)
C10 C 0.16992(15) 0.8157(5) 0.72038(19)
C11 C 0.47430(16) 0.8154(6) 0.8521(2)
H4 H 0.4888 0.8247 0.8079
H5 H 0.4897 0.6904 0.8843
H6 H 0.4914 0.9282 0.8921
C12 C 0.40867(17) 0.7748(6) 0.9549(2)
H7 H 0.3801 0.7697 0.9817
H8 H 0.4399 0.8828 0.9812
H9 H 0.4315 0.6477 0.9643
C13 C 0.28902(17) 0.9126(6) 0.9488(2)
H10 H 0.2544 0.9126 0.9653
H11 H 0.3065 1.0476 0.9547
H12 H 0.3232 0.8216 0.9866
O1 O 0.56625(11) 0.6532(4) 0.34821(15)
O2 O 0.56990(11) 0.7057(4) 0.09154(14)
N1 N 0.76323(12) 0.6538(4) 0.35749(15)
N2 N 0.66448(12) 0.6644(4) 0.35597(16)
N3 N 0.56877(12) 0.6843(4) 0.22068(16)
H1 H 0.5265 0.6905 0.1944
N4 N 0.70265(12) 0.6781(4) 0.17677(16)
C1 C 0.76843(15) 0.6709(5) 0.2234(2)
C2 C 0.80284(16) 0.6659(5) 0.1760(2)
H2 H 0.7807 0.6618 0.1145
C3 C 0.86828(16) 0.6671(5) 0.2185(2)
H3 H 0.8916 0.6590 0.1863
C4 C 0.90180(16) 0.6801(5) 0.3091(2)
C5 C 0.86970(15) 0.6880(5) 0.3594(2)
C6 C 0.80120(15) 0.6716(5) 0.31549(19)
C7 C 0.69782(15) 0.6700(5) 0.3125(2)
C8 C 0.59932(16) 0.6667(5) 0.3107(2)
C9 C 0.59868(15) 0.6926(5) 0.1701(2)
C10 C 0.66992(15) 0.6843(5) 0.22038(19)
C11 C 0.97430(16) 0.6846(6) 0.3521(2)
H4 H 0.9888 0.6753 0.3079
H5 H 0.9897 0.8096 0.3843
H6 H 0.9914 0.5718 0.3921
C12 C 0.90867(17) 0.7252(6) 0.4549(2)
H7 H 0.8801 0.7303 0.4817
H8 H 0.9399 0.6172 0.4812
H9 H 0.9315 0.8523 0.4643
C13 C 0.78902(17) 0.5874(6) 0.4488(2)
H10 H 0.7544 0.5874 0.4653
H11 H 0.8065 0.4524 0.4547
H12 H 0.8232 0.6784 0.4866
O1 O 0.56625(11) 0.3468(4) 0.84821(15)
O2 O 0.56990(11) 0.2943(4) 0.59154(14)
N1 N 0.76323(12) 0.3462(4) 0.85749(15)
N2 N 0.66448(12) 0.3356(4) 0.85597(16)
N3 N 0.56877(12) 0.3157(4) 0.72068(16)
H1 H 0.5265 0.3095 0.6944
N4 N 0.70265(12) 0.3219(4) 0.67677(16)
C1 C 0.76843(15) 0.3291(5) 0.7234(2)
C2 C 0.80284(16) 0.3341(5) 0.6760(2)
H2 H 0.7807 0.3382 0.6145
C3 C 0.86828(16) 0.3329(5) 0.7185(2)
H3 H 0.8916 0.3410 0.6863
C4 C 0.90180(16) 0.3199(5) 0.8091(2)
C5 C 0.86970(15) 0.3120(5) 0.8594(2)
C6 C 0.80120(15) 0.3284(5) 0.81549(19)
C7 C 0.69782(15) 0.3300(5) 0.8125(2)
C8 C 0.59932(16) 0.3333(5) 0.8107(2)
C9 C 0.59868(15) 0.3074(5) 0.6701(2)
C10 C 0.66992(15) 0.3157(5) 0.72038(19)
C11 C 0.97430(16) 0.3154(6) 0.8521(2)
H4 H 0.9888 0.3247 0.8079
H5 H 0.9897 0.1904 0.8843
H6 H 0.9914 0.4282 0.8921
C12 C 0.90867(17) 0.2748(6) 0.9549(2)
H7 H 0.8801 0.2697 0.9817
H8 H 0.9399 0.3828 0.9812
H9 H 0.9315 0.1477 0.9643
C13 C 0.78902(17) 0.4126(6) 0.9488(2)
H10 H 0.7544 0.4126 0.9653
H11 H 0.8065 0.5476 0.9547
H12 H 0.8232 0.3216 0.9866
O3 O 0.85681(16) 0.1705(4) 0.52540(18)
H13 H 0.8786 0.1808 0.4728
H14 H 0.8899 0.0531 0.5686
O3 O 0.85681(16) 0.8295(4) 0.02540(18)
H13 H 0.8786 0.8192 -0.0272
H14 H 0.8899 0.9469 0.0686
O3 O 0.35681(16) 0.6705(4) 0.52540(18)
H13 H 0.3786 0.6808 0.4728
H14 H 0.3899 0.5531 0.5686
O3 O 0.35681(16) 0.3295(4) 0.02540(18)
H13 H 0.3786 0.3192 -0.0272
H14 H 0.3899 0.4469 0.0686
O3 O 0.14319(16) 0.8295(4) 0.47460(18)
H13 H 0.1214 0.8192 0.5272
H14 H 0.1101 0.9469 0.4314
O3 O 0.14319(16) 0.1705(4) 0.97460(18)
H13 H 0.1214 0.1808 1.0272
H14 H 0.1101 0.0531 0.9314
O3 O 0.64319(16) 0.3295(4) 0.47460(18)
H13 H 0.6214 0.3192 0.5272
H14 H 0.6101 0.4469 0.4314
O3 O 0.64319(16) 0.6705(4) 0.97460(18)
H13 H 0.6214 0.6808 1.0272
H14 H 0.6101 0.5531 0.9314

#END
