./ABINUV_from_POSCAR.cif_generated_by_CrystalShift
_symmetry_cell_setting triclinic
_symmetry_space_group_name_H-M 'P 1'
loop_
_symmetry_equiv_pos_site_id
_symmetry_equiv_pos_as_xyz
1 x,y,z
_cell_length_a 18.920000
_cell_length_b 8.712000
_cell_length_c 15.439000
_cell_angle_alpha 90.000000
_cell_angle_beta 126.909000
_cell_angle_gamma 90.000000
_cell_volume 2034.818615
loop_
_atom_site_label
_atom_site_type_symbol
_atom_site_fract_x
_atom_site_fract_y
_atom_site_fract_z
H1 H 0.214700 0.164600 0.937100
H2 H 0.247900 0.006600 1.003200
H3 H 0.449700 0.203100 1.130400
H4 H 0.358600 0.284000 1.089700
H5 H 0.130000 1.010400 0.070200
H6 H 0.384100 0.120800 1.148900
H7 H 0.000000 1.147400 0.000000
H8 H 0.357200 -0.096400 0.936300
H9 H 0.449100 -0.018400 1.030200
H10 H 0.391500 -0.105600 1.059500
H11 H 0.108500 0.394400 -0.059500
H12 H 0.050900 0.481600 -0.030200
H13 H 0.142800 0.403600 0.063700
H14 H 0.116700 0.393200 0.639900
H15 H 0.115900 0.620800 -0.148900
H16 H 0.141400 0.784000 -0.089700
H17 H 0.050300 0.703100 -0.130400
H18 H 0.166100 0.462100 0.759200
H19 H 0.252100 0.506600 -0.003200
H20 H 0.283400 0.511600 0.118800
H21 H 0.285300 0.664600 0.062900
H22 H 0.082200 0.549000 0.657700
H23 H 0.260000 0.673200 0.819900
H24 H 0.270500 0.773400 0.741300
H25 H 0.190600 1.168300 0.360400
H26 H 0.179500 0.776800 0.727300
H27 H 0.175200 0.702500 0.540500
H28 H 0.058800 0.788000 0.325600
H29 H 0.115000 0.551800 0.502200
H30 H 0.090300 0.700500 0.539800
H31 H 0.548600 0.436400 0.713300
H32 H 0.409700 1.200500 0.460200
H33 H 0.385000 1.051800 0.497800
H34 H 0.324800 1.202500 0.459500
H35 H 0.483600 0.423000 0.584100
H36 H 0.320500 1.276800 0.272700
H37 H 0.229500 1.273400 0.258700
H38 H 0.240000 1.173200 0.180100
H39 H 0.552800 0.561700 0.640700
H40 H 0.417800 1.049000 0.342300
H41 H 0.333900 0.962100 0.240800
H42 H 0.383300 0.893200 0.360100
H43 H 0.452500 0.776000 0.728700
H44 H 0.527900 0.651600 0.803000
H45 H 0.072300 1.230200 0.476900
H46 H 0.152700 1.237200 0.468800
H47 H 0.142200 1.092500 0.524000
H48 H 0.536100 0.763500 0.727300
H49 H -0.036100 1.263500 0.272700
H50 H -0.027900 1.151600 0.197000
H51 H 0.047500 1.276000 0.271300
H52 H 0.357800 0.592500 0.476000
H53 H -0.052800 1.061700 0.359300
H54 H 0.016400 0.923000 0.415900
H55 H -0.048600 0.936400 0.286700
H56 H 0.347300 0.737200 0.531200
H57 H 0.102000 0.552700 0.305800
H58 H 0.186300 0.535400 0.306000
H59 H 0.090900 0.568400 0.195000
H60 H 0.427700 0.730200 0.523100
H61 H 0.409100 0.068400 0.805000
H62 H -0.130000 1.010400 -0.070200
H63 H 0.313700 0.035400 0.694000
H64 H 0.398000 0.052700 0.694200
H65 H 0.441200 0.288000 0.674400
H66 H 0.309400 0.668300 0.639600
H67 H 0.370000 0.510400 0.929800
H68 H -0.190600 1.168300 -0.360400
H69 H 0.590900 0.068400 1.195000
H70 H 0.686300 0.035400 1.306000
H71 H -0.058800 0.788000 -0.325600
H72 H 0.602000 0.052700 1.305800
H73 H 0.451400 0.436400 1.286700
H74 H -0.102000 0.552700 -0.305800
H75 H -0.186300 0.535400 -0.306000
H76 H -0.090900 0.568400 -0.195000
H77 H 0.516400 0.423000 1.415900
H78 H 0.447200 0.561700 1.359300
H79 H -0.072300 1.230200 -0.476900
H80 H -0.152700 1.237200 -0.468800
H81 H -0.142200 1.092500 -0.524000
H82 H 0.547500 0.776000 1.271300
H83 H 0.036100 1.263500 -0.272700
H84 H 0.027900 1.151600 -0.197000
H85 H -0.047500 1.276000 -0.271300
H86 H 0.472100 0.651600 1.197000
H87 H 0.052800 1.061700 -0.359300
H88 H -0.016400 0.923000 -0.415900
H89 H 0.048600 0.936400 -0.286700
H90 H 0.463900 0.763500 1.272700
H91 H 0.642200 0.592500 1.524000
H92 H -0.409700 1.200500 -0.460200
H93 H -0.385000 1.051800 -0.497800
H94 H -0.324800 1.202500 -0.459500
H95 H 0.652700 0.737200 1.468800
H96 H -0.320500 1.276800 -0.272700
H97 H -0.229500 1.273400 -0.258700
H98 H -0.240000 1.173200 -0.180100
H99 H 0.572300 0.730200 1.476900
H100 H -0.417800 1.049000 -0.342300
H101 H -0.333900 0.962100 -0.240800
H102 H -0.383300 0.893200 -0.360100
H103 H 0.883300 0.393200 1.360100
H104 H 0.833900 0.462100 1.240800
H105 H -0.108500 0.394400 0.059500
H106 H -0.050900 0.481600 0.030200
H107 H -0.142800 0.403600 -0.063700
H108 H 0.917800 0.549000 1.342300
H109 H -0.115900 0.620800 0.148900
H110 H -0.141400 0.784000 0.089700
H111 H -0.050300 0.703100 0.130400
H112 H 0.740000 0.673200 1.180100
H113 H -0.252100 0.506600 0.003200
H114 H -0.283400 0.511600 -0.118800
H115 H -0.285300 0.664600 -0.062900
H116 H 0.729500 0.773400 1.258700
H117 H 0.820500 0.776800 1.272700
H118 H 0.824800 0.702500 1.459500
H119 H 0.885000 0.551800 1.497800
H120 H 0.130000 1.010400 1.070200
H121 H 0.909700 0.700500 1.460200
H122 H 0.000000 1.147400 1.000000
H123 H 0.558800 0.288000 1.325600
H124 H 0.690600 0.668300 1.360400
H125 H 0.785300 0.164600 1.062900
H126 H 0.108500 0.394400 0.940500
H127 H 0.050900 0.481600 0.969800
H128 H 0.142800 0.403600 1.063700
H129 H 0.783400 0.011600 1.118800
H130 H 0.115900 0.620800 0.851100
H131 H 0.141400 0.784000 0.910300
H132 H 0.050300 0.703100 0.869600
H133 H 0.752100 0.006600 0.996800
H134 H 0.252100 0.506600 0.996800
H135 H 0.283400 0.511600 1.118800
H136 H 0.285300 0.664600 1.062900
H137 H 0.550300 0.203100 0.869600
H138 H 0.641400 0.284000 0.910300
H139 H 0.615900 0.120800 0.851100
H140 H 0.190600 1.168300 1.360400
H141 H 0.642800 -0.096400 1.063700
H142 H 0.550900 -0.018400 0.969800
H143 H 0.058800 0.788000 1.325600
H144 H 0.608500 -0.105600 0.940500
H145 H 0.500000 0.647400 1.000000
H146 H 0.630000 0.510400 1.070200
H147 H 0.409700 1.200500 1.460200
H148 H 0.385000 1.051800 1.497800
H149 H 0.324800 1.202500 1.459500
H150 H 0.214700 0.164600 -0.062900
H151 H 0.320500 1.276800 1.272700
H152 H 0.229500 1.273400 1.258700
H153 H 0.240000 1.173200 1.180100
H154 H 0.216600 0.011600 -0.118800
H155 H 0.417800 1.049000 1.342300
H156 H 0.333900 0.962100 1.240800
H157 H 0.383300 0.893200 1.360100
H158 H 0.247900 0.006600 0.003200
H159 H 0.449700 0.203100 0.130400
H160 H 0.072300 1.230200 1.476900
H161 H 0.152700 1.237200 1.468800
H162 H 0.142200 1.092500 1.524000
H163 H 0.358600 0.284000 0.089700
H164 H -0.036100 1.263500 1.272700
H165 H -0.027900 1.151600 1.197000
H166 H 0.047500 1.276000 1.271300
H167 H 0.384100 0.120800 0.148900
H168 H -0.052800 1.061700 1.359300
H169 H 0.016400 0.923000 1.415900
H170 H -0.048600 0.936400 1.286700
H171 H 0.357200 -0.096400 -0.063700
H172 H 0.102000 0.552700 1.305800
H173 H 0.186300 0.535400 1.306000
H174 H 0.090900 0.568400 1.195000
H175 H 0.449100 -0.018400 0.030200
H176 H 0.391500 -0.105600 0.059500
H177 H -0.130000 1.010400 0.929800
H178 H 0.116700 0.393200 -0.360100
H179 H 0.166100 0.462100 -0.240800
H180 H 0.082200 0.549000 -0.342300
H181 H 0.260000 0.673200 -0.180100
H182 H 0.270500 0.773400 -0.258700
H183 H -0.190600 1.168300 0.639600
H184 H 0.179500 0.776800 -0.272700
H185 H 0.175200 0.702500 -0.459500
H186 H -0.058800 0.788000 0.674400
H187 H 0.115000 0.551800 -0.497800
H188 H 0.090300 0.700500 -0.460200
H189 H -0.102000 0.552700 0.694200
H190 H -0.186300 0.535400 0.694000
H191 H -0.090900 0.568400 0.805000
H192 H 0.548600 0.436400 -0.286700
H193 H 0.483600 0.423000 -0.415900
H194 H -0.072300 1.230200 0.523100
H195 H -0.152700 1.237200 0.531200
H196 H -0.142200 1.092500 0.476000
H197 H 0.552800 0.561700 -0.359300
H198 H 0.036100 1.263500 0.727300
H199 H 0.027900 1.151600 0.803000
H200 H -0.047500 1.276000 0.728700
H201 H 0.452500 0.776000 -0.271300
H202 H 0.052800 1.061700 0.640700
H203 H -0.016400 0.923000 0.584100
H204 H 0.048600 0.936400 0.713300
H205 H 0.527900 0.651600 -0.197000
H206 H 0.536100 0.763500 -0.272700
H207 H -0.409700 1.200500 0.539800
H208 H -0.385000 1.051800 0.502200
H209 H -0.324800 1.202500 0.540500
H210 H 0.357800 0.592500 -0.524000
H211 H -0.320500 1.276800 0.727300
H212 H -0.229500 1.273400 0.741300
H213 H -0.240000 1.173200 0.819900
H214 H 0.347300 0.737200 -0.468800
H215 H -0.417800 1.049000 0.657700
H216 H -0.333900 0.962100 0.759200
H217 H -0.383300 0.893200 0.639900
H218 H 0.427700 0.730200 -0.476900
H219 H 0.409100 0.068400 -0.195000
H220 H -0.108500 0.394400 1.059500
H221 H -0.050900 0.481600 1.030200
H222 H -0.142800 0.403600 0.936300
H223 H 0.313700 0.035400 -0.306000
H224 H -0.115900 0.620800 1.148900
H225 H -0.141400 0.784000 1.089700
H226 H -0.050300 0.703100 1.130400
H227 H 0.398000 0.052700 -0.305800
H228 H -0.252100 0.506600 1.003200
H229 H -0.283400 0.511600 0.881200
H230 H -0.285300 0.664600 0.937100
H231 H 0.441200 0.288000 -0.325600
H232 H 0.309400 0.668300 -0.360400
H233 H 0.370000 0.510400 -0.070200
H234 H 0.590900 0.068400 0.195000
H235 H 1.130000 1.010400 0.070200
H236 H 0.686300 0.035400 0.306000
H237 H 1.000000 1.147400 0.000000
H238 H 0.602000 0.052700 0.305800
H239 H 0.451400 0.436400 0.286700
H240 H 0.516400 0.423000 0.415900
H241 H 1.108500 0.394400 -0.059500
H242 H 1.050900 0.481600 -0.030200
H243 H 1.142800 0.403600 0.063700
H244 H 0.447200 0.561700 0.359300
H245 H 1.115900 0.620800 -0.148900
H246 H 1.141400 0.784000 -0.089700
H247 H 1.050300 0.703100 -0.130400
H248 H 0.547500 0.776000 0.271300
H249 H 1.252100 0.506600 -0.003200
H250 H 1.283400 0.511600 0.118800
H251 H 1.285300 0.664600 0.062900
H252 H 0.472100 0.651600 0.197000
H253 H 0.463900 0.763500 0.272700
H254 H 0.642200 0.592500 0.524000
H255 H 1.190600 1.168300 0.360400
H256 H 0.652700 0.737200 0.468800
H257 H 0.572300 0.730200 0.476900
H258 H 1.058800 0.788000 0.325600
H259 H 0.883300 0.393200 0.360100
H260 H 0.833900 0.462100 0.240800
H261 H 0.917800 0.549000 0.342300
H262 H 1.409700 1.200500 0.460200
H263 H 1.385000 1.051800 0.497800
H264 H 1.324800 1.202500 0.459500
H265 H 0.740000 0.673200 0.180100
H266 H 1.320500 1.276800 0.272700
H267 H 1.229500 1.273400 0.258700
H268 H 1.240000 1.173200 0.180100
H269 H 0.729500 0.773400 0.258700
H270 H 1.417800 1.049000 0.342300
H271 H 1.333900 0.962100 0.240800
H272 H 1.383300 0.893200 0.360100
H273 H 0.820500 0.776800 0.272700
H274 H 0.824800 0.702500 0.459500
H275 H 1.072300 1.230200 0.476900
H276 H 1.152700 1.237200 0.468800
H277 H 1.142200 1.092500 0.524000
H278 H 0.885000 0.551800 0.497800
H279 H 0.963900 1.263500 0.272700
H280 H 0.972100 1.151600 0.197000
H281 H 1.047500 1.276000 0.271300
H282 H 0.909700 0.700500 0.460200
H283 H 0.947200 1.061700 0.359300
H284 H 1.016400 0.923000 0.415900
H285 H 0.951400 0.936400 0.286700
H286 H 0.558800 0.288000 0.325600
H287 H 1.102000 0.552700 0.305800
H288 H 1.186300 0.535400 0.306000
H289 H 1.090900 0.568400 0.195000
H290 H 0.690600 0.668300 0.360400
H291 H 0.785300 0.164600 0.062900
H292 H 0.870000 1.010400 -0.070200
H293 H 0.783400 0.011600 0.118800
H294 H 0.752100 0.006600 -0.003200
H295 H 0.550300 0.203100 -0.130400
H296 H 0.641400 0.284000 -0.089700
H297 H 0.615900 0.120800 -0.148900
H298 H 0.809400 1.168300 -0.360400
H299 H 0.642800 -0.096400 0.063700
H300 H 0.550900 -0.018400 -0.030200
H301 H 0.941200 0.788000 -0.325600
H302 H 0.608500 -0.105600 -0.059500
H303 H 0.500000 0.647400 0.000000
H304 H 0.898000 0.552700 -0.305800
H305 H 0.813700 0.535400 -0.306000
H306 H 0.909100 0.568400 -0.195000
H307 H 0.630000 0.510400 0.070200
H308 H 0.714700 0.664600 0.937100
H309 H 0.927700 1.230200 -0.476900
H310 H 0.847300 1.237200 -0.468800
H311 H 0.857800 1.092500 -0.524000
H312 H 0.716600 0.511600 0.881200
H313 H 1.036100 1.263500 -0.272700
H314 H 1.027900 1.151600 -0.197000
H315 H 0.952500 1.276000 -0.271300
H316 H 0.747900 0.506600 1.003200
H317 H 1.052800 1.061700 -0.359300
H318 H 0.983600 0.923000 -0.415900
H319 H 1.048600 0.936400 -0.286700
H320 H 0.949700 0.703100 1.130400
H321 H 0.858600 0.784000 1.089700
H322 H 0.590300 1.200500 -0.460200
H323 H 0.615000 1.051800 -0.497800
H324 H 0.675200 1.202500 -0.459500
H325 H 0.884100 0.620800 1.148900
H326 H 0.679500 1.276800 -0.272700
H327 H 0.770500 1.273400 -0.258700
H328 H 0.760000 1.173200 -0.180100
H329 H 0.857200 0.403600 0.936300
H330 H 0.582200 1.049000 -0.342300
H331 H 0.666100 0.962100 -0.240800
H332 H 0.616700 0.893200 -0.360100
H333 H 0.949100 0.481600 1.030200
H334 H 0.891500 0.394400 1.059500
H335 H 0.891500 0.394400 0.059500
H336 H 0.949100 0.481600 0.030200
H337 H 0.857200 0.403600 -0.063700
H338 H 0.616700 0.893200 0.639900
H339 H 0.884100 0.620800 0.148900
H340 H 0.858600 0.784000 0.089700
H341 H 0.949700 0.703100 0.130400
H342 H 0.666100 0.962100 0.759200
H343 H 0.747900 0.506600 0.003200
H344 H 0.716600 0.511600 -0.118800
H345 H 0.714700 0.664600 -0.062900
H346 H 0.582200 1.049000 0.657700
H347 H 0.760000 1.173200 0.819900
H348 H 0.770500 1.273400 0.741300
H349 H 0.679500 1.276800 0.727300
H350 H 1.130000 1.010400 1.070200
H351 H 0.675200 1.202500 0.540500
H352 H 1.000000 1.147400 1.000000
H353 H 0.615000 1.051800 0.502200
H354 H 0.590300 1.200500 0.539800
H355 H 1.048600 0.936400 0.713300
H356 H 1.108500 0.394400 0.940500
H357 H 1.050900 0.481600 0.969800
H358 H 1.142800 0.403600 1.063700
H359 H 0.983600 0.923000 0.584100
H360 H 1.115900 0.620800 0.851100
H361 H 1.141400 0.784000 0.910300
H362 H 1.050300 0.703100 0.869600
H363 H 1.052800 1.061700 0.640700
H364 H 1.252100 0.506600 0.996800
H365 H 1.283400 0.511600 1.118800
H366 H 1.285300 0.664600 1.062900
H367 H 0.952500 1.276000 0.728700
H368 H 1.027900 1.151600 0.803000
H369 H 1.036100 1.263500 0.727300
H370 H 1.190600 1.168300 1.360400
H371 H 0.857800 1.092500 0.476000
H372 H 0.847300 1.237200 0.531200
H373 H 1.058800 0.788000 1.325600
H374 H 0.927700 1.230200 0.523100
H375 H 0.909100 0.568400 0.805000
H376 H 0.813700 0.535400 0.694000
H377 H 1.409700 1.200500 1.460200
H378 H 1.385000 1.051800 1.497800
H379 H 1.324800 1.202500 1.459500
H380 H 0.898000 0.552700 0.694200
H381 H 1.320500 1.276800 1.272700
H382 H 1.229500 1.273400 1.258700
H383 H 1.240000 1.173200 1.180100
H384 H 0.941200 0.788000 0.674400
H385 H 1.417800 1.049000 1.342300
H386 H 1.333900 0.962100 1.240800
H387 H 1.383300 0.893200 1.360100
H388 H 0.809400 1.168300 0.639600
H389 H 0.870000 1.010400 0.929800
H390 H 1.072300 1.230200 1.476900
H391 H 1.152700 1.237200 1.468800
H392 H 1.142200 1.092500 1.524000
H393 H 1.090900 0.568400 1.195000
H394 H 0.963900 1.263500 1.272700
H395 H 0.972100 1.151600 1.197000
H396 H 1.047500 1.276000 1.271300
H397 H 1.186300 0.535400 1.306000
H398 H 0.947200 1.061700 1.359300
H399 H 1.016400 0.923000 1.415900
H400 H 0.951400 0.936400 1.286700
H401 H 1.102000 0.552700 1.305800
H402 H 0.216600 0.011600 0.881200
C403 C 0.986400 0.994400 1.354600
C404 C 1.005100 1.205400 1.266700
C405 C 0.925200 0.799900 0.957900
C406 C 0.923800 0.957600 0.958300
C407 C 1.110300 1.169400 1.466400
C408 C 0.842700 0.712100 0.911700
C409 C 0.246600 0.068800 0.949400
C410 C 0.793300 0.833900 0.718200
C411 C 0.772200 0.987700 0.684800
C412 C 0.821800 1.063000 0.659200
C413 C 1.053900 1.089900 1.357600
C414 C 0.888000 0.995100 0.660500
C415 C 0.900200 0.840400 0.680100
C416 C 1.365300 0.987800 1.317500
C417 C 0.853500 0.758400 0.708300
C418 C 0.870000 0.589100 0.727000
C419 C 1.270700 1.212400 1.254100
C420 C 1.361000 1.138900 1.447600
C421 C 1.304300 1.080000 1.331700
C422 C 0.946100 1.089900 0.642400
C423 C 0.889700 1.169400 0.533600
C424 C 1.146500 0.758400 1.291700
C425 C 1.099800 0.840400 1.319900
C426 C 1.112000 0.995100 1.339500
C427 C 0.994900 1.205400 0.733300
C428 C 1.178200 1.063000 1.340800
C429 C 1.227800 0.987700 1.315200
C430 C 1.206700 0.833900 1.281800
C431 C 1.013600 0.994400 0.645400
C432 C 1.253400 0.568800 1.050600
C433 C 1.112500 0.685500 0.900400
C434 C 1.111000 0.458500 0.994500
C435 C 0.695700 1.080000 0.668300
C436 C 0.639000 1.138900 0.552400
C437 C 1.158500 0.605600 1.009100
C438 C 1.157300 0.712100 1.088300
C439 C 1.000000 1.038300 1.000000
C440 C 0.729300 1.212400 0.745900
C441 C 1.076200 0.957600 1.041700
C442 C 1.074800 0.799900 1.042100
C443 C 0.074800 0.799900 0.042100
C444 C 0.634700 0.987800 0.682500
C445 C 0.076200 0.957600 0.041700
C446 C 0.746600 0.568800 -0.050600
C447 C 0.887500 0.685500 0.099600
C448 C 0.841500 0.605600 0.990900
C449 C 0.889000 0.458500 1.005500
C450 C 0.889000 0.458500 0.005500
C451 C 0.841500 0.605600 -0.009100
C452 C 0.634700 0.987800 -0.317500
C453 C 0.887500 0.685500 1.099600
C454 C 0.729300 1.212400 -0.254100
C455 C 0.639000 1.138900 -0.447600
C456 C 0.695700 1.080000 -0.331700
C457 C 0.746600 0.568800 0.949400
C458 C 1.013600 0.994400 -0.354600
C459 C 0.994900 1.205400 -0.266700
C460 C 0.889700 1.169400 -0.466400
C461 C 0.000000 1.038300 0.000000
C462 C 0.387500 0.185500 1.099600
C463 C 0.574800 0.299900 0.042100
C464 C 0.576200 0.457600 0.041700
C465 C 0.946100 1.089900 -0.357600
C466 C 0.500000 0.538300 0.000000
C467 C 0.870000 0.589100 -0.273000
C468 C 0.657300 0.212100 0.088300
C469 C 0.658500 0.105600 0.009100
C470 C 0.611000 -0.041500 -0.005500
C471 C 0.853500 0.758400 -0.291700
C472 C 0.900200 0.840400 -0.319900
C473 C 0.888000 0.995100 -0.339500
C474 C 0.612500 0.185500 -0.099600
C475 C 0.821800 1.063000 -0.340800
C476 C 0.772200 0.987700 -0.315200
C477 C 0.793300 0.833900 -0.281800
C478 C 0.753400 0.068800 0.050600
C479 C 0.157300 0.712100 0.088300
C480 C 0.842700 0.712100 -0.088300
C481 C 0.923800 0.957600 -0.041700
C482 C 0.706700 0.333900 0.281800
C483 C 0.727800 0.487700 0.315200
C484 C 0.678200 0.563000 0.340800
C485 C 0.925200 0.799900 -0.042100
C486 C 0.612000 0.495100 0.339500
C487 C 0.599800 0.340400 0.319900
C488 C 1.130000 0.589100 0.273000
C489 C 0.646500 0.258400 0.291700
C490 C 0.804300 0.580000 0.331700
C491 C 0.861000 0.638900 0.447600
C492 C 0.986400 0.994400 0.354600
C493 C 1.005100 1.205400 0.266700
C494 C 1.110300 1.169400 0.466400
C495 C 0.770700 0.712400 0.254100
C496 C 1.053900 1.089900 0.357600
C497 C 1.365300 0.987800 0.317500
C498 C 1.270700 1.212400 0.254100
C499 C 0.865300 0.487800 0.317500
C500 C 1.361000 1.138900 0.447600
C501 C 1.304300 1.080000 0.331700
C502 C 1.146500 0.758400 0.291700
C503 C 0.553900 0.589900 0.357600
C504 C 0.610300 0.669400 0.466400
C505 C 1.099800 0.840400 0.319900
C506 C 1.112000 0.995100 0.339500
C507 C 1.178200 1.063000 0.340800
C508 C 0.505100 0.705400 0.266700
C509 C 1.227800 0.987700 0.315200
C510 C 1.206700 0.833900 0.281800
C511 C 1.253400 0.568800 0.050600
C512 C 0.486400 0.494400 0.354600
C513 C 1.112500 0.685500 -0.099600
C514 C 1.111000 0.458500 -0.005500
C515 C 1.158500 0.605600 0.009100
C516 C 0.630000 0.089100 0.273000
C517 C 1.157300 0.712100 0.088300
C518 C 1.000000 1.038300 0.000000
C519 C 1.076200 0.957600 0.041700
C520 C 0.425200 0.299900 -0.042100
C521 C 0.423800 0.457600 -0.041700
C522 C 1.074800 0.799900 0.042100
C523 C 0.342700 0.212100 -0.088300
C524 C 0.158500 0.605600 0.009100
C525 C 0.293300 0.333900 -0.281800
C526 C 0.272200 0.487700 -0.315200
C527 C 0.321800 0.563000 -0.340800
C528 C 0.111000 0.458500 -0.005500
C529 C 0.388000 0.495100 -0.339500
C530 C 0.400200 0.340400 -0.319900
C531 C 0.389000 -0.041500 1.005500
C532 C 0.353500 0.258400 -0.291700
C533 C 0.370000 0.089100 -0.273000
C534 C -0.253400 0.568800 0.949400
C535 C -0.112500 0.685500 1.099600
C536 C -0.111000 0.458500 1.005500
C537 C 0.446100 0.589900 -0.357600
C538 C 0.389700 0.669400 -0.466400
C539 C -0.158500 0.605600 0.990900
C540 C -0.365300 0.987800 0.682500
C541 C -0.270700 1.212400 0.745900
C542 C 0.494900 0.705400 -0.266700
C543 C -0.361000 1.138900 0.552400
C544 C -0.304300 1.080000 0.668300
C545 C 0.013600 0.994400 0.645400
C546 C 0.513600 0.494400 -0.354600
C547 C -0.005100 1.205400 0.733300
C548 C -0.110300 1.169400 0.533600
C549 C -0.053900 1.089900 0.642400
C550 C 0.195700 0.580000 -0.331700
C551 C 0.139000 0.638900 -0.447600
C552 C -0.130000 0.589100 0.727000
C553 C -0.146500 0.758400 0.708300
C554 C -0.099800 0.840400 0.680100
C555 C 0.229300 0.712400 -0.254100
C556 C -0.112000 0.995100 0.660500
C557 C -0.178200 1.063000 0.659200
C558 C -0.227800 0.987700 0.684800
C559 C 0.134700 0.487800 -0.317500
C560 C -0.206700 0.833900 0.718200
C561 C 0.341500 0.105600 0.990900
C562 C -0.157300 0.712100 0.911700
C563 C 0.341500 0.105600 -0.009100
C564 C 0.389000 -0.041500 0.005500
C565 C -0.076200 0.957600 0.958300
C566 C -0.074800 0.799900 0.957900
C567 C 0.130000 0.589100 1.273000
C568 C 0.387500 0.185500 0.099600
C569 C -0.013600 0.994400 1.354600
C570 C 0.005100 1.205400 1.266700
C571 C 0.110300 1.169400 1.466400
C572 C 0.246600 0.068800 -0.050600
C573 C 0.053900 1.089900 1.357600
C574 C 0.365300 0.987800 1.317500
C575 C 0.270700 1.212400 1.254100
C576 C 0.112500 0.685500 -0.099600
C577 C 0.253400 0.568800 0.050600
C578 C 0.574800 0.299900 1.042100
C579 C 0.576200 0.457600 1.041700
C580 C 0.361000 1.138900 1.447600
C581 C 0.500000 0.538300 1.000000
C582 C 0.304300 1.080000 1.331700
C583 C 0.657300 0.212100 1.088300
C584 C 0.658500 0.105600 1.009100
C585 C 0.611000 -0.041500 0.994500
C586 C 0.146500 0.758400 1.291700
C587 C 0.099800 0.840400 1.319900
C588 C 0.112000 0.995100 1.339500
C589 C 0.612500 0.185500 0.900400
C590 C 0.178200 1.063000 1.340800
C591 C 0.227800 0.987700 1.315200
C592 C 0.206700 0.833900 1.281800
C593 C 0.753400 0.068800 1.050600
C594 C 0.253400 0.568800 1.050600
C595 C 0.112500 0.685500 0.900400
C596 C 0.111000 0.458500 0.994500
C597 C 0.706700 0.333900 1.281800
C598 C 0.727800 0.487700 1.315200
C599 C 0.678200 0.563000 1.340800
C600 C 0.158500 0.605600 1.009100
C601 C 0.612000 0.495100 1.339500
C602 C 0.599800 0.340400 1.319900
C603 C 0.157300 0.712100 1.088300
C604 C 0.646500 0.258400 1.291700
C605 C 0.804300 0.580000 1.331700
C606 C 0.861000 0.638900 1.447600
C607 C 0.000000 1.038300 1.000000
C608 C 0.076200 0.957600 1.041700
C609 C 0.074800 0.799900 1.042100
C610 C 0.770700 0.712400 1.254100
C611 C 0.206700 0.833900 0.281800
C612 C 0.134700 0.487800 0.682500
C613 C -0.253400 0.568800 -0.050600
C614 C 0.865300 0.487800 1.317500
C615 C -0.112500 0.685500 0.099600
C616 C -0.111000 0.458500 0.005500
C617 C -0.158500 0.605600 -0.009100
C618 C 0.553900 0.589900 1.357600
C619 C 0.610300 0.669400 1.466400
C620 C -0.365300 0.987800 -0.317500
C621 C -0.270700 1.212400 -0.254100
C622 C -0.361000 1.138900 -0.447600
C623 C 0.505100 0.705400 1.266700
C624 C -0.304300 1.080000 -0.331700
C625 C 0.013600 0.994400 -0.354600
C626 C -0.005100 1.205400 -0.266700
C627 C 0.486400 0.494400 1.354600
C628 C -0.110300 1.169400 -0.466400
C629 C -0.053900 1.089900 -0.357600
C630 C -0.130000 0.589100 -0.273000
C631 C 0.630000 0.089100 1.273000
C632 C -0.146500 0.758400 -0.291700
C633 C -0.099800 0.840400 -0.319900
C634 C -0.112000 0.995100 -0.339500
C635 C 0.425200 0.299900 0.957900
C636 C 0.423800 0.457600 0.958300
C637 C -0.178200 1.063000 -0.340800
C638 C 0.342700 0.212100 0.911700
C639 C 0.227800 0.987700 0.315200
C640 C 0.293300 0.333900 0.718200
C641 C 0.272200 0.487700 0.684800
C642 C 0.321800 0.563000 0.659200
C643 C -0.227800 0.987700 -0.315200
C644 C 0.388000 0.495100 0.660500
C645 C 0.400200 0.340400 0.680100
C646 C -0.206700 0.833900 -0.281800
C647 C 0.353500 0.258400 0.708300
C648 C 0.370000 0.089100 0.727000
C649 C 0.178200 1.063000 0.340800
C650 C -0.157300 0.712100 -0.088300
C651 C -0.076200 0.957600 -0.041700
C652 C 0.446100 0.589900 0.642400
C653 C 0.389700 0.669400 0.533600
C654 C -0.074800 0.799900 -0.042100
C655 C 0.130000 0.589100 0.273000
C656 C -0.013600 0.994400 0.354600
C657 C 0.494900 0.705400 0.733300
C658 C 0.005100 1.205400 0.266700
C659 C 0.110300 1.169400 0.466400
C660 C 0.053900 1.089900 0.357600
C661 C 0.513600 0.494400 0.645400
C662 C 0.365300 0.987800 0.317500
C663 C 0.270700 1.212400 0.254100
C664 C 0.361000 1.138900 0.447600
C665 C 0.195700 0.580000 0.668300
C666 C 0.139000 0.638900 0.552400
C667 C 0.304300 1.080000 0.331700
C668 C 0.146500 0.758400 0.291700
C669 C 0.099800 0.840400 0.319900
C670 C 0.229300 0.712400 0.745900
C671 C 0.112000 0.995100 0.339500
C672 C 1.130000 0.589100 1.273000
N673 N 1.000000 0.721600 1.000000
N674 N 0.500000 0.221600 0.000000
N675 N 0.000000 0.721600 1.000000
N676 N 0.500000 0.221600 1.000000
N677 N 1.000000 0.721600 0.000000
N678 N 0.000000 0.721600 0.000000
P679 P 1.245610 0.718010 0.218490
P680 P 0.745610 0.218010 1.218490
P681 P 0.254390 0.218010 -0.218490
P682 P 0.754390 0.718010 -0.218490
P683 P 0.245610 0.718010 1.218490
P684 P 0.745610 0.218010 0.218490
P685 P 1.245610 0.718010 1.218490
P686 P 0.254390 0.218010 0.781510
P687 P 0.754390 0.718010 0.781510
P688 P -0.245610 0.718010 0.781510
P689 P -0.245610 0.718010 -0.218490
P690 P 0.245610 0.718010 0.218490

#END
