
#######################################################################
#
#                 Cambridge Crystallographic Data Centre
#                                CCDC 
#
#######################################################################
#
# If this CIF has been generated from an entry in the Cambridge 
# Structural Database, then it will include bibliographic, chemical, 
# crystal, experimental, refinement or atomic coordinate data resulting 
# from the CCDC's data processing and validation procedures.
#
#######################################################################

data_ABIPIK
_symmetry_cell_setting           monoclinic
_symmetry_space_group_name_H-M   'P 21/n'
_symmetry_Int_Tables_number      14
_space_group_name_Hall           '-P 2yn'
loop_
_symmetry_equiv_pos_site_id
_symmetry_equiv_pos_as_xyz
1 x,y,z
2 1/2+x,1/2-y,1/2+z
3 -x,-y,-z
4 1/2-x,1/2+y,1/2-z
_cell_length_a                   14.9471(7)
_cell_length_b                   18.5337(10)
_cell_length_c                   15.0197(7)
_cell_angle_alpha                90
_cell_angle_beta                 112.8400(10)
_cell_angle_gamma                90
_cell_volume                     3834.59
loop_
_atom_site_label
_atom_site_type_symbol
_atom_site_fract_x
_atom_site_fract_y
_atom_site_fract_z
Ni1 Ni 0.01474(2) 0.426713(16) 0.31054(2)
N1 N -0.08664(13) 0.38590(11) 0.20166(13)
N2 N -0.00438(14) 0.35398(11) 0.38991(13)
N3 N 0.11151(14) 0.46913(11) 0.41949(13)
N4 N 0.02800(14) 0.50348(11) 0.23307(13)
C1 C -0.15215(16) 0.42520(13) 0.12465(15)
C2 C -0.22805(17) 0.37836(13) 0.06653(16)
C3 C -0.20625(17) 0.31000(13) 0.10693(16)
C4 C -0.11800(16) 0.31746(13) 0.19078(15)
C5 C -0.06281(17) 0.26124(13) 0.26259(15)
H1 H -0.1034 0.2166 0.2508
C6 C -0.04308(16) 0.28817(13) 0.36273(15)
C7 C -0.05662(17) 0.25138(13) 0.43957(16)
C8 C -0.02742(16) 0.29936(13) 0.51685(16)
C9 C 0.00742(16) 0.36227(13) 0.48646(16)
C10 C 0.06219(17) 0.41763(13) 0.54351(16)
H2 H 0.0630 0.4226 0.6068
C11 C 0.11621(16) 0.46660(13) 0.51463(16)
C12 C 0.19140(17) 0.51269(13) 0.57384(16)
C13 C 0.23540(17) 0.54143(14) 0.51581(17)
C14 C 0.18301(17) 0.51428(13) 0.42126(16)
C15 C 0.20049(17) 0.52890(13) 0.33108(17)
H3 H 0.2428 0.5726 0.3426
C16 C 0.10654(17) 0.54505(13) 0.24909(16)
C17 C 0.08633(18) 0.60090(13) 0.17889(17)
C18 C -0.01082(18) 0.59379(13) 0.11874(17)
C19 C -0.04623(17) 0.53156(13) 0.15157(16)
C20 C -0.13256(17) 0.49480(13) 0.10340(16)
H4 H -0.1819 0.5192 0.0520
C21 C -0.31483(18) 0.39970(15) -0.02204(17)
H5 H -0.3500 0.3555 -0.0537
H6 H -0.2918 0.4238 -0.0680
C22 C -0.3856(2) 0.45005(17) -0.0013(2)
H7 H -0.4076 0.4272 0.0454
H8 H -0.4416 0.4596 -0.0614
H9 H -0.3529 0.4956 0.0253
C23 C -0.26157(17) 0.24140(14) 0.06891(16)
H10 H -0.3318 0.2513 0.0485
H11 H -0.2431 0.2055 0.1219
C24 C -0.24380(19) 0.20861(15) -0.01650(18)
H12 H -0.2662 0.2423 -0.0711
H13 H -0.2796 0.1631 -0.0356
H14 H -0.1743 0.1995 0.0025
C25 C 0.03523(17) 0.24199(13) 0.25481(16)
H15 H 0.0714 0.2873 0.2577
H16 H 0.0742 0.2125 0.3117
C26 C 0.02640(18) 0.20098(13) 0.16356(17)
H17 H 0.0918 0.1959 0.1621
H18 H -0.0139 0.2296 0.1063
C27 C -0.0185(2) 0.12628(14) 0.15679(18)
H19 H 0.0151 0.1006 0.2186
H20 H -0.0875 0.1317 0.1473
C28 C -0.0125(2) 0.08079(17) 0.0748(2)
H21 H -0.0398 0.1079 0.0141
H22 H -0.0493 0.0360 0.0690
H23 H 0.0556 0.0692 0.0886
C29 C -0.09338(18) 0.17534(13) 0.43623(17)
H24 H -0.0615 0.1534 0.5011
H25 H -0.0741 0.1469 0.3908
C30 C -0.2026(2) 0.16973(16) 0.4055(3)
H26 H -0.2217 0.1932 0.4539
H27 H -0.2216 0.1188 0.4000
H28 H -0.2350 0.1935 0.3429
C31 C -0.02831(19) 0.28748(15) 0.61596(17)
H29 H -0.0791 0.2516 0.6109
H30 H -0.0460 0.3333 0.6388
C32 C 0.0684(2) 0.2613(2) 0.69077(19)
H31 H 0.0860 0.2153 0.6695
H32 H 0.0626 0.2545 0.7530
H33 H 0.1189 0.2972 0.6979
C33 C 0.22149(18) 0.52273(15) 0.68065(17)
H34 H 0.1652 0.5130 0.6981
H35 H 0.2415 0.5735 0.6976
C34 C 0.3052(2) 0.47289(18) 0.73908(19)
H36 H 0.2841 0.4225 0.7264
H37 H 0.3251 0.4832 0.8081
H38 H 0.3603 0.4810 0.7202
C35 C 0.32104(19) 0.59153(15) 0.54619(19)
H39 H 0.3611 0.5837 0.6155
H40 H 0.3614 0.5797 0.5092
C36 C 0.2922(3) 0.66993(17) 0.5305(3)
H41 H 0.2563 0.6788 0.4613
H42 H 0.3506 0.7001 0.5542
H43 H 0.2509 0.6818 0.5656
C37 C 0.25448(18) 0.46463(14) 0.30701(18)
H44 H 0.3146 0.4541 0.3640
H45 H 0.2127 0.4212 0.2934
C38 C 0.2808(2) 0.48043(15) 0.2197(2)
H46 H 0.3255 0.5222 0.2356
H47 H 0.2209 0.4946 0.1646
C39 C 0.3281(2) 0.41787(16) 0.1875(2)
H48 H 0.2913 0.3730 0.1853
H49 H 0.3246 0.4276 0.1214
C40 C 0.4315(2) 0.40678(19) 0.2531(3)
H50 H 0.4687 0.4505 0.2542
H51 H 0.4583 0.3661 0.2298
H52 H 0.4354 0.3964 0.3185
C41 C 0.15751(19) 0.65549(13) 0.17020(18)
H53 H 0.1419 0.6646 0.1008
H54 H 0.2235 0.6345 0.1981
C42 C 0.1584(3) 0.72701(16) 0.2196(3)
H55 H 0.0933 0.7483 0.1929
H56 H 0.2046 0.7598 0.2087
H57 H 0.1778 0.7191 0.2891
C43 C -0.06731(19) 0.63751(14) 0.03088(18)
H58 H -0.0483 0.6888 0.0438
H59 H -0.1373 0.6338 0.0180
C44 C -0.0508(2) 0.61278(16) -0.05912(18)
H60 H 0.0173 0.6206 -0.0491
H61 H -0.0927 0.6406 -0.1153
H62 H -0.0664 0.5614 -0.0704
Ni1 Ni 0.51474(2) 0.073287(16) 0.81054(2)
N1 N 0.41336(13) 0.11410(11) 0.70166(13)
N2 N 0.49562(14) 0.14602(11) 0.88991(13)
N3 N 0.61151(14) 0.03087(11) 0.91949(13)
N4 N 0.52800(14) -0.00348(11) 0.73307(13)
C1 C 0.34785(16) 0.07480(13) 0.62465(15)
C2 C 0.27195(17) 0.12164(13) 0.56653(16)
C3 C 0.29375(17) 0.19000(13) 0.60693(16)
C4 C 0.38200(16) 0.18254(13) 0.69078(15)
C5 C 0.43719(17) 0.23876(13) 0.76259(15)
H1 H 0.3966 0.2834 0.7508
C6 C 0.45692(16) 0.21183(13) 0.86273(15)
C7 C 0.44338(17) 0.24862(13) 0.93957(16)
C8 C 0.47258(16) 0.20064(13) 1.01685(16)
C9 C 0.50742(16) 0.13773(13) 0.98646(16)
C10 C 0.56219(17) 0.08237(13) 1.04351(16)
H2 H 0.5630 0.0774 1.1068
C11 C 0.61621(16) 0.03340(13) 1.01463(16)
C12 C 0.69140(17) -0.01269(13) 1.07384(16)
C13 C 0.73540(17) -0.04143(14) 1.01581(17)
C14 C 0.68301(17) -0.01428(13) 0.92126(16)
C15 C 0.70049(17) -0.02890(13) 0.83108(17)
H3 H 0.7428 -0.0726 0.8426
C16 C 0.60654(17) -0.04505(13) 0.74909(16)
C17 C 0.58633(18) -0.10090(13) 0.67889(17)
C18 C 0.48918(18) -0.09379(13) 0.61874(17)
C19 C 0.45377(17) -0.03156(13) 0.65157(16)
C20 C 0.36744(17) 0.00520(13) 0.60340(16)
H4 H 0.3181 -0.0192 0.5520
C21 C 0.18517(18) 0.10030(15) 0.47796(17)
H5 H 0.1500 0.1445 0.4463
H6 H 0.2082 0.0762 0.4320
C22 C 0.1144(2) 0.04995(17) 0.4987(2)
H7 H 0.0924 0.0728 0.5454
H8 H 0.0584 0.0404 0.4386
H9 H 0.1471 0.0044 0.5253
C23 C 0.23843(17) 0.25860(14) 0.56891(16)
H10 H 0.1682 0.2487 0.5485
H11 H 0.2569 0.2945 0.6219
C24 C 0.25620(19) 0.29139(15) 0.48350(18)
H12 H 0.2338 0.2577 0.4289
H13 H 0.2204 0.3369 0.4644
H14 H 0.3257 0.3005 0.5025
C25 C 0.53523(17) 0.25801(13) 0.75481(16)
H15 H 0.5714 0.2127 0.7577
H16 H 0.5742 0.2875 0.8117
C26 C 0.52640(18) 0.29902(13) 0.66356(17)
H17 H 0.5918 0.3041 0.6621
H18 H 0.4861 0.2704 0.6063
C27 C 0.4815(2) 0.37372(14) 0.65679(18)
H19 H 0.5151 0.3994 0.7186
H20 H 0.4125 0.3683 0.6473
C28 C 0.4875(2) 0.41921(17) 0.5748(2)
H21 H 0.4602 0.3921 0.5141
H22 H 0.4507 0.4640 0.5690
H23 H 0.5556 0.4308 0.5886
C29 C 0.40662(18) 0.32466(13) 0.93623(17)
H24 H 0.4385 0.3466 1.0011
H25 H 0.4259 0.3531 0.8908
C30 C 0.2974(2) 0.33027(16) 0.9055(3)
H26 H 0.2783 0.3068 0.9539
H27 H 0.2784 0.3812 0.9000
H28 H 0.2650 0.3065 0.8429
C31 C 0.47169(19) 0.21252(15) 1.11596(17)
H29 H 0.4209 0.2484 1.1109
H30 H 0.4540 0.1667 1.1388
C32 C 0.5684(2) 0.2387(2) 1.19077(19)
H31 H 0.5860 0.2847 1.1695
H32 H 0.5626 0.2455 1.2530
H33 H 0.6189 0.2028 1.1979
C33 C 0.72149(18) -0.02273(15) 1.18065(17)
H34 H 0.6652 -0.0130 1.1981
H35 H 0.7415 -0.0735 1.1976
C34 C 0.8052(2) 0.02711(18) 1.23908(19)
H36 H 0.7841 0.0775 1.2264
H37 H 0.8251 0.0168 1.3081
H38 H 0.8603 0.0190 1.2202
C35 C 0.82104(19) -0.09153(15) 1.04619(19)
H39 H 0.8611 -0.0837 1.1155
H40 H 0.8614 -0.0797 1.0092
C36 C 0.7922(3) -0.16993(17) 1.0305(3)
H41 H 0.7563 -0.1788 0.9613
H42 H 0.8506 -0.2001 1.0542
H43 H 0.7509 -0.1818 1.0656
C37 C 0.75448(18) 0.03537(14) 0.80701(18)
H44 H 0.8146 0.0459 0.8640
H45 H 0.7127 0.0788 0.7934
C38 C 0.7808(2) 0.01957(15) 0.7197(2)
H46 H 0.8255 -0.0222 0.7356
H47 H 0.7209 0.0054 0.6646
C39 C 0.8281(2) 0.08213(16) 0.6875(2)
H48 H 0.7913 0.1270 0.6853
H49 H 0.8246 0.0724 0.6214
C40 C 0.9315(2) 0.09322(19) 0.7531(3)
H50 H 0.9687 0.0495 0.7542
H51 H 0.9583 0.1339 0.7298
H52 H 0.9354 0.1036 0.8185
C41 C 0.65751(19) -0.15549(13) 0.67020(18)
H53 H 0.6419 -0.1646 0.6008
H54 H 0.7235 -0.1345 0.6981
C42 C 0.6584(3) -0.22701(16) 0.7196(3)
H55 H 0.5933 -0.2483 0.6929
H56 H 0.7046 -0.2598 0.7087
H57 H 0.6778 -0.2191 0.7891
C43 C 0.43269(19) -0.13751(14) 0.53088(18)
H58 H 0.4517 -0.1888 0.5438
H59 H 0.3627 -0.1338 0.5180
C44 C 0.4492(2) -0.11278(16) 0.44088(18)
H60 H 0.5173 -0.1206 0.4509
H61 H 0.4073 -0.1406 0.3847
H62 H 0.4336 -0.0614 0.4296
Ni1 Ni 0.98526(2) 0.573287(16) 0.68946(2)
N1 N 1.08664(13) 0.61410(11) 0.79834(13)
N2 N 1.00438(14) 0.64602(11) 0.61009(13)
N3 N 0.88849(14) 0.53087(11) 0.58051(13)
N4 N 0.97200(14) 0.49652(11) 0.76693(13)
C1 C 1.15215(16) 0.57480(13) 0.87535(15)
C2 C 1.22805(17) 0.62164(13) 0.93347(16)
C3 C 1.20625(17) 0.69000(13) 0.89307(16)
C4 C 1.11800(16) 0.68254(13) 0.80922(15)
C5 C 1.06281(17) 0.73876(13) 0.73741(15)
H1 H 1.1034 0.7834 0.7492
C6 C 1.04308(16) 0.71183(13) 0.63727(15)
C7 C 1.05662(17) 0.74862(13) 0.56043(16)
C8 C 1.02742(16) 0.70064(13) 0.48315(16)
C9 C 0.99258(16) 0.63773(13) 0.51354(16)
C10 C 0.93781(17) 0.58237(13) 0.45649(16)
H2 H 0.9370 0.5774 0.3932
C11 C 0.88379(16) 0.53340(13) 0.48537(16)
C12 C 0.80860(17) 0.48731(13) 0.42616(16)
C13 C 0.76460(17) 0.45857(14) 0.48419(17)
C14 C 0.81699(17) 0.48572(13) 0.57874(16)
C15 C 0.79951(17) 0.47110(13) 0.66892(17)
H3 H 0.7572 0.4274 0.6574
C16 C 0.89346(17) 0.45495(13) 0.75091(16)
C17 C 0.91367(18) 0.39910(13) 0.82111(17)
C18 C 1.01082(18) 0.40621(13) 0.88126(17)
C19 C 1.04623(17) 0.46844(13) 0.84843(16)
C20 C 1.13256(17) 0.50520(13) 0.89660(16)
H4 H 1.1819 0.4808 0.9480
C21 C 1.31483(18) 0.60030(15) 1.02204(17)
H5 H 1.3500 0.6445 1.0537
H6 H 1.2918 0.5762 1.0680
C22 C 1.3856(2) 0.54995(17) 1.0013(2)
H7 H 1.4076 0.5728 0.9546
H8 H 1.4416 0.5404 1.0614
H9 H 1.3529 0.5044 0.9747
C23 C 1.26157(17) 0.75860(14) 0.93109(16)
H10 H 1.3318 0.7487 0.9515
H11 H 1.2431 0.7945 0.8781
C24 C 1.24380(19) 0.79139(15) 1.01650(18)
H12 H 1.2662 0.7577 1.0711
H13 H 1.2796 0.8369 1.0356
H14 H 1.1743 0.8005 0.9975
C25 C 0.96477(17) 0.75801(13) 0.74519(16)
H15 H 0.9286 0.7127 0.7423
H16 H 0.9258 0.7875 0.6883
C26 C 0.97360(18) 0.79902(13) 0.83644(17)
H17 H 0.9082 0.8041 0.8379
H18 H 1.0139 0.7704 0.8937
C27 C 1.0185(2) 0.87372(14) 0.84321(18)
H19 H 0.9849 0.8994 0.7814
H20 H 1.0875 0.8683 0.8527
C28 C 1.0125(2) 0.91921(17) 0.9252(2)
H21 H 1.0398 0.8921 0.9859
H22 H 1.0493 0.9640 0.9310
H23 H 0.9444 0.9308 0.9114
C29 C 1.09338(18) 0.82466(13) 0.56377(17)
H24 H 1.0615 0.8466 0.4989
H25 H 1.0741 0.8531 0.6092
C30 C 1.2026(2) 0.83027(16) 0.5945(3)
H26 H 1.2217 0.8068 0.5461
H27 H 1.2216 0.8812 0.6000
H28 H 1.2350 0.8065 0.6571
C31 C 1.02831(19) 0.71252(15) 0.38404(17)
H29 H 1.0791 0.7484 0.3891
H30 H 1.0460 0.6667 0.3612
C32 C 0.9316(2) 0.7387(2) 0.30923(19)
H31 H 0.9140 0.7847 0.3305
H32 H 0.9374 0.7455 0.2470
H33 H 0.8811 0.7028 0.3021
C33 C 0.77851(18) 0.47727(15) 0.31935(17)
H34 H 0.8348 0.4870 0.3019
H35 H 0.7585 0.4265 0.3024
C34 C 0.6948(2) 0.52711(18) 0.26092(19)
H36 H 0.7159 0.5775 0.2736
H37 H 0.6749 0.5168 0.1919
H38 H 0.6397 0.5190 0.2798
C35 C 0.67896(19) 0.40847(15) 0.45381(19)
H39 H 0.6389 0.4163 0.3845
H40 H 0.6386 0.4203 0.4908
C36 C 0.7078(3) 0.33007(17) 0.4695(3)
H41 H 0.7437 0.3212 0.5387
H42 H 0.6494 0.2999 0.4458
H43 H 0.7491 0.3182 0.4344
C37 C 0.74552(18) 0.53537(14) 0.69299(18)
H44 H 0.6854 0.5459 0.6360
H45 H 0.7873 0.5788 0.7066
C38 C 0.7192(2) 0.51957(15) 0.7803(2)
H46 H 0.6745 0.4778 0.7644
H47 H 0.7791 0.5054 0.8354
C39 C 0.6719(2) 0.58213(16) 0.8125(2)
H48 H 0.7087 0.6270 0.8147
H49 H 0.6754 0.5724 0.8786
C40 C 0.5685(2) 0.59322(19) 0.7469(3)
H50 H 0.5313 0.5495 0.7458
H51 H 0.5417 0.6339 0.7702
H52 H 0.5646 0.6036 0.6815
C41 C 0.84249(19) 0.34451(13) 0.82980(18)
H53 H 0.8581 0.3354 0.8992
H54 H 0.7765 0.3655 0.8019
C42 C 0.8416(3) 0.27299(16) 0.7804(3)
H55 H 0.9067 0.2517 0.8071
H56 H 0.7954 0.2402 0.7913
H57 H 0.8222 0.2809 0.7109
C43 C 1.06731(19) 0.36249(14) 0.96912(18)
H58 H 1.0483 0.3112 0.9562
H59 H 1.1373 0.3662 0.9820
C44 C 1.0508(2) 0.38722(16) 1.05912(18)
H60 H 0.9827 0.3794 1.0491
H61 H 1.0927 0.3594 1.1153
H62 H 1.0664 0.4386 1.0704
Ni1 Ni 0.48526(2) 0.926713(16) 0.18946(2)
N1 N 0.58664(13) 0.88590(11) 0.29834(13)
N2 N 0.50438(14) 0.85398(11) 0.11009(13)
N3 N 0.38849(14) 0.96913(11) 0.08051(13)
N4 N 0.47200(14) 1.00348(11) 0.26693(13)
C1 C 0.65215(16) 0.92520(13) 0.37535(15)
C2 C 0.72805(17) 0.87836(13) 0.43347(16)
C3 C 0.70625(17) 0.81000(13) 0.39307(16)
C4 C 0.61800(16) 0.81746(13) 0.30922(15)
C5 C 0.56281(17) 0.76124(13) 0.23741(15)
H1 H 0.6034 0.7166 0.2492
C6 C 0.54308(16) 0.78817(13) 0.13727(15)
C7 C 0.55662(17) 0.75138(13) 0.06043(16)
C8 C 0.52742(16) 0.79936(13) -0.01685(16)
C9 C 0.49258(16) 0.86227(13) 0.01354(16)
C10 C 0.43781(17) 0.91763(13) -0.04351(16)
H2 H 0.4370 0.9226 -0.1068
C11 C 0.38379(16) 0.96660(13) -0.01463(16)
C12 C 0.30860(17) 1.01269(13) -0.07384(16)
C13 C 0.26460(17) 1.04143(14) -0.01581(17)
C14 C 0.31699(17) 1.01428(13) 0.07874(16)
C15 C 0.29951(17) 1.02890(13) 0.16892(17)
H3 H 0.2572 1.0726 0.1574
C16 C 0.39346(17) 1.04505(13) 0.25091(16)
C17 C 0.41367(18) 1.10090(13) 0.32111(17)
C18 C 0.51082(18) 1.09379(13) 0.38126(17)
C19 C 0.54623(17) 1.03156(13) 0.34843(16)
C20 C 0.63256(17) 0.99480(13) 0.39660(16)
H4 H 0.6819 1.0192 0.4480
C21 C 0.81483(18) 0.89970(15) 0.52204(17)
H5 H 0.8500 0.8555 0.5537
H6 H 0.7918 0.9238 0.5680
C22 C 0.8856(2) 0.95005(17) 0.5013(2)
H7 H 0.9076 0.9272 0.4546
H8 H 0.9416 0.9596 0.5614
H9 H 0.8529 0.9956 0.4747
C23 C 0.76157(17) 0.74140(14) 0.43109(16)
H10 H 0.8318 0.7513 0.4515
H11 H 0.7431 0.7055 0.3781
C24 C 0.74380(19) 0.70861(15) 0.51650(18)
H12 H 0.7662 0.7423 0.5711
H13 H 0.7796 0.6631 0.5356
H14 H 0.6743 0.6995 0.4975
C25 C 0.46477(17) 0.74199(13) 0.24519(16)
H15 H 0.4286 0.7873 0.2423
H16 H 0.4258 0.7125 0.1883
C26 C 0.47360(18) 0.70098(13) 0.33644(17)
H17 H 0.4082 0.6959 0.3379
H18 H 0.5139 0.7296 0.3937
C27 C 0.5185(2) 0.62628(14) 0.34321(18)
H19 H 0.4849 0.6006 0.2814
H20 H 0.5875 0.6317 0.3527
C28 C 0.5125(2) 0.58079(17) 0.4252(2)
H21 H 0.5398 0.6079 0.4859
H22 H 0.5493 0.5360 0.4310
H23 H 0.4444 0.5692 0.4114
C29 C 0.59338(18) 0.67534(13) 0.06377(17)
H24 H 0.5615 0.6534 -0.0011
H25 H 0.5741 0.6469 0.1092
C30 C 0.7026(2) 0.66973(16) 0.0945(3)
H26 H 0.7217 0.6932 0.0461
H27 H 0.7216 0.6188 0.1000
H28 H 0.7350 0.6935 0.1571
C31 C 0.52831(19) 0.78748(15) -0.11596(17)
H29 H 0.5791 0.7516 -0.1109
H30 H 0.5460 0.8333 -0.1388
C32 C 0.4316(2) 0.7613(2) -0.19077(19)
H31 H 0.4140 0.7153 -0.1695
H32 H 0.4374 0.7545 -0.2530
H33 H 0.3811 0.7972 -0.1979
C33 C 0.27851(18) 1.02273(15) -0.18065(17)
H34 H 0.3348 1.0130 -0.1981
H35 H 0.2585 1.0735 -0.1976
C34 C 0.1948(2) 0.97289(18) -0.23908(19)
H36 H 0.2159 0.9225 -0.2264
H37 H 0.1749 0.9832 -0.3081
H38 H 0.1397 0.9810 -0.2202
C35 C 0.17896(19) 1.09153(15) -0.04619(19)
H39 H 0.1389 1.0837 -0.1155
H40 H 0.1386 1.0797 -0.0092
C36 C 0.2078(3) 1.16993(17) -0.0305(3)
H41 H 0.2437 1.1788 0.0387
H42 H 0.1494 1.2001 -0.0542
H43 H 0.2491 1.1818 -0.0656
C37 C 0.24552(18) 0.96463(14) 0.19299(18)
H44 H 0.1854 0.9541 0.1360
H45 H 0.2873 0.9212 0.2066
C38 C 0.2192(2) 0.98043(15) 0.2803(2)
H46 H 0.1745 1.0222 0.2644
H47 H 0.2791 0.9946 0.3354
C39 C 0.1719(2) 0.91787(16) 0.3125(2)
H48 H 0.2087 0.8730 0.3147
H49 H 0.1754 0.9276 0.3786
C40 C 0.0685(2) 0.90678(19) 0.2469(3)
H50 H 0.0313 0.9505 0.2458
H51 H 0.0417 0.8661 0.2702
H52 H 0.0646 0.8964 0.1815
C41 C 0.34249(19) 1.15549(13) 0.32980(18)
H53 H 0.3581 1.1646 0.3992
H54 H 0.2765 1.1345 0.3019
C42 C 0.3416(3) 1.22701(16) 0.2804(3)
H55 H 0.4067 1.2483 0.3071
H56 H 0.2954 1.2598 0.2913
H57 H 0.3222 1.2191 0.2109
C43 C 0.56731(19) 1.13751(14) 0.46912(18)
H58 H 0.5483 1.1888 0.4562
H59 H 0.6373 1.1338 0.4820
C44 C 0.5508(2) 1.11278(16) 0.55912(18)
H60 H 0.4827 1.1206 0.5491
H61 H 0.5927 1.1406 0.6153
H62 H 0.5664 1.0614 0.5704

#END
