./ABIPIL_from_POSCAR.cif_generated_by_CrystalShift
_symmetry_cell_setting triclinic
_symmetry_space_group_name_H-M 'P 1'
loop_
_symmetry_equiv_pos_site_id
_symmetry_equiv_pos_as_xyz
1 x,y,z
_cell_length_a 7.650200
_cell_length_b 8.200000
_cell_length_c 21.326300
_cell_angle_alpha 90.000000
_cell_angle_beta 90.000000
_cell_angle_gamma 90.000000
_cell_volume 1337.833774
loop_
_atom_site_label
_atom_site_type_symbol
_atom_site_fract_x
_atom_site_fract_y
_atom_site_fract_z
H1 H 0.642000 0.597000 0.077000
H2 H 1.013000 0.572000 -0.017100
H3 H 1.296000 0.637000 0.017500
H4 H 0.001000 0.810000 0.710700
H5 H 1.368000 0.669000 0.124400
H6 H 0.093000 0.760900 0.583000
H7 H 1.156000 0.638000 0.201700
H8 H 0.472000 0.843000 0.518900
H9 H 1.214000 0.368000 0.360800
H10 H 0.849000 1.071000 0.729000
H11 H 1.321000 0.526000 0.390300
H12 H 0.259000 1.199000 0.948100
H13 H 1.129000 0.706000 0.333500
H14 H 0.426000 0.769000 0.745400
H15 H 0.919000 0.471000 0.403400
H16 H 0.175000 0.966000 0.682800
H17 H 0.841000 0.807000 0.373200
H18 H 0.341000 0.693000 0.626800
H19 H 0.675000 0.534000 0.317200
H20 H 0.419000 1.029000 0.596600
H21 H 0.926000 0.731000 0.254600
H22 H 0.629000 0.794000 0.666500
H23 H 0.759000 0.301000 0.051900
H24 H 0.821000 0.974000 0.609700
H25 H 0.714000 1.132000 0.639200
H26 H 1.349000 0.429000 0.271000
H27 H 0.972000 0.657000 0.481100
H28 H 0.656000 0.862000 0.798300
H29 H 0.593000 0.739100 0.417000
H30 H 0.868000 0.831000 0.875600
H31 H 0.501000 0.690000 0.289300
H32 H 0.796000 0.863000 0.982500
H33 H 0.858000 0.403000 0.577000
H34 H 0.513000 0.928000 1.017100
H35 H 0.781000 0.448000 0.508000
H36 H 0.487000 0.428000 0.482900
H37 H 0.219000 0.948000 0.992000
H38 H 0.142000 0.903000 0.923000
H39 H 0.204000 0.363000 0.517500
H40 H 0.132000 0.331000 0.624400
H41 H 0.344000 0.362000 0.701700
H42 H 0.499000 0.190000 0.210700
H43 H 0.286000 0.632000 0.860800
H44 H 0.407000 0.239100 0.083000
H45 H 0.179000 0.474000 0.890300
H46 H 0.028000 0.157000 0.018900
H47 H 0.371000 0.294000 0.833500
H48 H -0.349000 -0.071000 0.229000
H49 H 0.581000 0.529000 0.903400
H50 H 0.241000 -0.199000 0.448100
H51 H 0.659000 0.193000 0.873200
H52 H 0.074000 0.231000 0.245400
H53 H 0.825000 0.466000 0.817200
H54 H 0.325000 0.034000 0.182800
H55 H 0.574000 0.269000 0.754600
H56 H 0.159000 0.307000 0.126800
H57 H 0.741000 0.699000 0.551900
H58 H 0.081000 -0.029000 0.096600
H59 H 0.151000 0.571000 0.771000
H60 H -0.129000 0.206000 0.166500
H61 H 0.528000 0.343000 0.981100
H62 H -0.321000 0.026000 0.109700
H63 H -0.214000 -0.132000 0.139200
H64 H 0.907000 0.260900 0.917000
H65 H 0.999000 0.310000 0.789300
H66 H -0.156000 0.138000 0.298300
H67 H 0.358000 0.097000 0.423000
H68 H -0.368000 0.169000 0.375600
H69 H 0.281000 0.052000 0.492000
H70 H -0.296000 0.137000 0.482500
H71 H -0.013000 0.072000 0.517100
H72 H 0.719000 0.552000 0.008000
C73 C 0.090400 0.060800 0.425690
C74 C 0.274300 0.026000 0.447290
C75 C -0.211400 0.117600 0.453110
C76 C -0.251600 0.141000 0.390320
C77 C 0.725700 0.526000 0.052710
C78 C 0.909600 0.560800 0.074310
C79 C 1.042000 0.579500 0.029750
C80 C -0.123900 0.119400 0.344580
C81 C 1.211400 0.617600 0.046890
C82 C 0.047700 0.078100 0.361710
C83 C 1.251600 0.641000 0.109680
C84 C -0.254000 -0.018100 0.147460
C85 C 1.123900 0.619400 0.155420
C86 C -0.092900 0.084500 0.158290
C87 C 0.952300 0.578100 0.138290
C88 C 0.038500 0.084000 0.104710
C89 C 0.624600 0.376500 0.764500
C90 C 0.195700 0.187700 0.123370
C91 C 0.769400 0.365300 0.813690
C92 C 0.269400 0.134700 0.186310
C93 C 0.695700 0.312300 0.876630
C94 C 0.124600 0.123500 0.235500
C95 C 0.538500 0.416000 0.895290
C96 C 1.254000 0.481900 0.352540
C97 C 0.407100 0.415500 0.841710
C98 C 0.375400 0.876500 0.735500
C99 C 0.246000 0.518100 0.852540
C100 C 1.092900 0.584500 0.341710
C101 C 0.230600 0.865300 0.686310
C102 C 0.547700 0.421900 0.638290
C103 C 0.376100 0.380600 0.655420
C104 C 0.961500 0.584000 0.395290
C105 C 0.248400 0.359000 0.609680
C106 C 0.304300 0.812300 0.623370
C107 C 0.288600 0.382400 0.546890
C108 C 0.804300 0.687700 0.376630
C109 C 0.458000 0.420500 0.529750
C110 C 0.225700 0.974000 0.947290
C111 C 0.590400 0.439200 0.574310
C112 C 0.774300 0.474000 0.552710
C113 C 0.409600 0.939200 0.925690
C114 C 0.542000 0.920500 0.970250
C115 C 0.461500 0.916000 0.604710
C116 C 0.730600 0.634700 0.313690
C117 C 0.592900 0.915500 0.658290
C118 C 0.711400 0.882400 0.953110
C119 C 0.875400 0.623500 0.264500
C120 C 0.751600 0.859000 0.890320
C121 C 0.754000 1.018100 0.647460
C122 C 0.623900 0.880600 0.844580
C123 C 0.452300 0.921900 0.861710
C124 C -0.042000 0.079500 0.470250
O125 O 0.670800 0.359800 0.060930
O126 O 1.047100 0.647400 0.449910
O127 O 0.674800 0.673600 0.424370
O128 O 0.600400 0.747910 0.294380
O129 O 1.008480 0.516970 0.287240
O130 O 0.491520 0.483030 0.787240
O131 O 0.508480 0.983030 0.712760
O132 O -0.008480 0.016970 0.212760
O133 O 0.399600 0.247910 0.205620
O134 O 0.325200 0.173600 0.075630
O135 O -0.047100 0.147400 0.050090
O136 O -0.369200 -0.004900 0.199550
O137 O 0.329200 -0.140200 0.439070
O138 O 0.170800 1.140200 0.939070
O139 O 0.869200 1.004900 0.699550
O140 O 0.829200 0.640200 0.560930
O141 O 0.130800 0.504900 0.800450
O142 O 0.547100 0.852600 0.550090
O143 O 0.452900 0.352600 0.949910
O144 O 0.174800 0.826400 0.575630
O145 O 0.825200 0.326400 0.924370
O146 O 0.100400 0.752090 0.705620
O147 O 0.899600 0.252090 0.794380
O148 O 1.369200 0.495100 0.300450
S149 S 0.714930 0.460570 0.693660
S150 S 0.785070 0.539430 0.193660
S151 S 0.214930 0.039430 0.306340
S152 S 0.285070 0.960570 0.806340

#END
