./ABIPUZ_from_POSCAR.cif_generated_by_CrystalShift
_symmetry_cell_setting triclinic
_symmetry_space_group_name_H-M 'P 1'
loop_
_symmetry_equiv_pos_site_id
_symmetry_equiv_pos_as_xyz
1 x,y,z
_cell_length_a 26.829600
_cell_length_b 9.692500
_cell_length_c 10.510600
_cell_angle_alpha 90.000000
_cell_angle_beta 101.232600
_cell_angle_gamma 90.000000
_cell_volume 2680.881817
loop_
_atom_site_label
_atom_site_type_symbol
_atom_site_fract_x
_atom_site_fract_y
_atom_site_fract_z
H1 H 0.242800 0.923100 -0.101400
H2 H 0.838300 0.090200 0.622500
H3 H 0.442400 0.265500 0.282700
H4 H 0.777600 0.031100 0.239600
H5 H 0.380100 0.295300 0.094000
H6 H 0.743800 0.093400 0.335500
H7 H 0.787700 0.184900 0.294000
H8 H 0.386700 0.708600 0.142300
H9 H 0.954800 -0.095000 0.356800
H10 H 0.448600 0.681200 0.331900
H11 H 0.943700 0.060700 0.307400
H12 H 1.061500 0.244700 0.366000
H13 H 0.556200 0.460100 0.361600
H14 H 0.542600 0.608700 0.412800
H15 H 1.122200 0.229400 0.230200
H16 H 1.107700 -0.190100 0.231700
H17 H 1.048800 -0.171400 0.371000
H18 H 0.663500 0.710600 0.697600
H19 H 0.713100 0.640300 0.781800
H20 H 0.658200 0.577400 0.784000
H21 H 0.836000 0.219500 0.526900
H22 H 0.728800 0.375700 0.714700
H23 H 0.695700 0.324400 0.579700
H24 H 0.669400 0.345800 0.702600
H25 H 0.170300 0.357600 0.463100
H26 H 0.711900 0.684400 0.511300
H27 H 0.724200 0.532400 0.466400
H28 H 0.756000 0.595200 0.598300
H29 H 0.229600 0.383200 0.516400
H30 H 0.194300 0.329300 0.612500
H31 H 0.164000 0.719500 0.473100
H32 H 0.215400 0.655800 0.442200
H33 H 0.161700 0.590200 0.377500
H34 H 0.222400 0.531100 0.760400
H35 H 0.557600 -0.234500 0.717300
H36 H 0.256200 0.593400 0.664500
H37 H 0.619900 -0.204700 0.906000
H38 H 0.212300 0.684900 0.706000
H39 H 0.045200 0.405000 0.643200
H40 H 0.613300 0.208600 0.857700
H41 H 0.056300 0.560700 0.692600
H42 H 0.551400 0.181200 0.668100
H43 H -0.061500 0.744700 0.634000
H44 H -0.122200 0.729400 0.769800
H45 H 0.443800 -0.039900 0.638400
H46 H 0.457400 0.108700 0.587200
H47 H -0.107700 0.309900 0.768300
H48 H -0.048800 0.328600 0.629000
H49 H 0.783600 -0.135900 1.064300
H50 H 0.336500 0.210600 0.302400
H51 H 0.286900 0.140300 0.218200
H52 H 0.341800 0.077400 0.216000
H53 H 0.830900 -0.214700 1.025700
H54 H 0.271200 -0.124300 0.285300
H55 H 0.304300 -0.175600 0.420300
H56 H 0.330600 -0.154200 0.297400
H57 H 0.840300 -0.084800 1.121400
H58 H 0.288100 0.184400 0.488700
H59 H 0.275800 0.032400 0.533600
H60 H 0.244000 0.095200 0.401700
H61 H 0.831800 0.155200 1.025000
H62 H 0.801900 0.174100 0.878700
H63 H 0.772100 0.124200 0.988400
H64 H 0.743100 -0.072800 0.833500
H65 H 0.779800 -0.025500 0.738500
H66 H 0.784700 -0.177500 0.799000
H67 H 0.443000 0.264700 0.801700
H68 H 0.957300 -0.109700 0.868900
H69 H 0.381500 0.279600 0.611300
H70 H 0.943000 0.038400 0.803300
H71 H 1.056700 0.240700 0.845500
H72 H 0.392100 0.698000 0.623600
H73 H 1.117900 0.216500 0.710000
H74 H 0.449800 0.683100 0.819600
H75 H 1.113400 -0.200200 0.750500
H76 H 1.053500 -0.176100 0.887500
H77 H 0.558100 0.455700 0.864100
H78 H 0.545400 0.612000 0.898300
H79 H 0.805700 -0.170700 0.387500
H80 H 0.216400 0.364100 -0.064300
H81 H 0.169100 0.285300 -0.025700
H82 H 0.713800 0.370000 1.282300
H83 H 0.666300 0.294200 1.194100
H84 H 0.657400 0.425200 1.279700
H85 H 0.159700 0.415200 -0.121400
H86 H 0.700600 0.682800 1.083200
H87 H 0.729600 0.627400 1.221400
H88 H 0.670300 0.663600 1.199000
H89 H 0.168200 0.655200 -0.025000
H90 H 0.725000 0.481100 0.967800
H91 H 0.714900 0.328400 1.014800
H92 H 0.757200 0.423100 1.101400
H93 H 0.198100 0.674100 0.121300
H94 H 0.227900 0.624200 0.011600
H95 H 0.256900 0.427200 0.166500
H96 H 0.220200 0.474500 0.261500
H97 H 0.829700 -0.142400 0.536900
H98 H 0.215300 0.322500 0.201000
H99 H 0.557000 0.764700 0.198300
H100 H 0.042700 0.390300 0.131100
H101 H 0.618500 0.779600 0.388700
H102 H 0.057000 0.538400 0.196700
H103 H -0.056700 0.740700 0.154500
H104 H 0.607900 1.198000 0.376400
H105 H -0.117900 0.716500 0.290000
H106 H 0.550200 1.183100 0.180400
H107 H -0.113400 0.299800 0.249500
H108 H -0.053500 0.323900 0.112500
H109 H 0.441900 0.955700 0.135900
H110 H 0.454600 1.112000 0.101700
H111 H 0.770400 -0.116800 0.483600
H112 H 0.784600 0.155800 0.557800
H113 H 0.285100 0.828400 -0.014800
H114 H 0.286200 0.870000 -0.282300
H115 H 0.333700 0.794200 -0.194100
H116 H 0.342600 0.925200 -0.279700
H117 H 0.275000 0.981100 0.032200
H118 H 0.299400 1.182800 -0.083200
H119 H 0.270400 1.127400 -0.221400
H120 H 0.329700 1.163600 -0.199000
C121 C 0.276100 0.922900 -0.043400
C122 C 0.302600 1.126200 -0.158500
C123 C 0.319900 0.883500 -0.227800
C124 C 0.315500 0.978700 -0.114900
C125 C 0.434600 0.602900 0.283400
C126 C 0.450400 0.468600 0.325600
C127 C 0.950700 0.001000 0.385200
C128 C 0.431100 0.355400 0.255000
C129 C 0.407800 1.011900 -0.052900
C130 C -0.066200 0.403200 0.148700
C131 C 0.450000 1.016800 0.067300
C132 C -0.102300 0.388500 0.228600
C133 C 0.548500 0.973300 0.172700
C134 C -0.121100 0.506800 0.275800
C135 C -0.104900 0.638000 0.253300
C136 C 0.563700 1.101500 0.224200
C137 C -0.068300 0.651800 0.173500
C138 C 0.598300 1.110400 0.338900
C139 C -0.049200 0.533500 0.122900
C140 C 0.048700 0.488600 0.113000
C141 C 0.619300 0.990800 0.399800
C142 C 0.604100 0.861200 0.346800
C143 C 0.090600 0.500900 0.043200
C144 C 0.184600 0.471300 0.070500
C145 C 0.222600 0.419400 0.184800
C146 C 0.568200 0.852100 0.233800
C147 C 0.818900 0.134200 0.544400
C148 C 1.050200 0.039800 0.376400
C149 C 0.195700 0.619100 0.042100
C150 C 0.548100 0.510400 0.436900
C151 C 1.071300 0.157300 0.338400
C152 C 0.723900 0.422900 1.043400
C153 C 0.182200 0.375400 -0.045600
C154 C 0.697400 0.626200 1.158500
C155 C 0.680100 0.383500 1.227800
C156 C 0.684500 0.478700 1.114900
C157 C 0.590800 0.497200 0.550000
C158 C 1.107400 0.149000 0.258800
C159 C 1.120600 0.018300 0.223700
C160 C 0.394700 0.373100 0.142600
C161 C 0.592200 0.511900 1.052900
C162 C 1.066200 -0.096800 0.851300
C163 C 0.550000 0.516800 0.932700
C164 C 1.102300 -0.111500 0.771400
C165 C 0.451500 0.473300 0.827300
C166 C 1.121100 0.006800 0.724200
C167 C 1.104900 0.138000 0.746700
C168 C 0.436300 0.601500 0.775800
C169 C 1.068300 0.151800 0.826500
C170 C 0.401700 0.610400 0.661100
C171 C 1.049200 0.033500 0.877100
C172 C 0.951300 -0.011400 0.887000
C173 C 0.380700 0.490800 0.600200
C174 C 0.395900 0.361200 0.653200
C175 C 0.909400 0.000900 0.956800
C176 C 0.815400 -0.028700 0.929500
C177 C 0.777400 -0.080600 0.815200
C178 C 0.431800 0.352100 0.766200
C179 C 0.683600 0.530800 0.616700
C180 C 0.379900 0.505700 0.102000
C181 C 0.804300 0.119100 0.957900
C182 C 1.098700 -0.102500 0.260800
C183 C 0.679200 0.622900 0.730000
C184 C 1.063400 -0.091500 0.341100
C185 C 0.817800 -0.124600 1.045600
C186 C 0.277500 0.091200 0.458700
C187 C 0.304600 -0.119300 0.343000
C188 C 0.320800 0.122900 0.270000
C189 C 0.695400 0.380700 0.657000
C190 C 0.815400 0.036800 0.429700
C191 C 0.722500 0.591200 0.541300
C192 C 0.398400 0.619200 0.170800
C193 C 0.804300 -0.111400 0.462300
C194 C -0.063400 0.408500 0.658900
C195 C 0.316400 0.030800 0.383300
C196 C -0.098700 0.397500 0.739200
C197 C 0.409200 -0.002800 0.450000
C198 C -0.120600 0.518300 0.776300
C199 C -0.107400 0.649000 0.741200
C200 C 0.451900 0.010400 0.563100
C201 C -0.071300 0.657300 0.661600
C202 C 0.549600 -0.031400 0.674400
C203 C -0.050200 0.539800 0.623600
C204 C 0.049300 0.501000 0.614800
C205 C 0.565400 0.102900 0.716600
C206 C 0.601600 0.119200 0.829200
C207 C 0.094000 0.509400 0.540800
C208 C 0.184600 0.536800 0.570300
C209 C 0.222200 0.591300 0.685400
C210 C 0.620100 0.005700 0.898000
C211 C 0.605300 -0.126900 0.857400
C212 C 0.568900 -0.144600 0.745000
C213 C 0.181100 0.634200 0.455600
C214 C 0.195700 0.388600 0.537700
C215 C 0.777800 0.091300 0.314600
C216 C 0.906000 0.009400 0.459200
O217 O 0.913200 -0.015100 0.573600
O218 O 0.586600 0.455900 0.655900
O219 O 0.498700 0.286100 0.487300
O220 O 0.864500 -0.035400 0.880300
O221 O -0.001900 0.708800 0.490800
O222 O 0.086800 0.484900 0.426400
O223 O 0.136400 0.539700 0.620100
O224 O 0.913100 0.037300 1.069000
O225 O 0.999100 0.215100 0.987600
O226 O 0.501300 -0.213900 0.512700
O227 O 0.413400 -0.044100 0.344100
O228 O 0.364300 0.034900 0.481500
O229 O 1.001900 0.208800 0.509200
O230 O 0.135500 0.464600 0.119700
O231 O 0.086900 0.537300 -0.069000
O232 O 0.000900 0.715100 0.012400
O233 O 0.499600 0.307100 1.009400
O234 O 0.586300 0.535300 1.159500
O235 O 0.636700 0.479700 1.017600
O236 O 0.363300 0.979700 -0.017600
O237 O 0.413700 1.035300 -0.159500
O238 O 0.500400 0.807100 -0.009400
O239 O 0.635700 0.534900 0.518500
O240 O 0.863600 0.039700 0.379900
S241 S 1.007760 0.062500 0.988000
S242 S 0.508420 -0.060300 0.520500
S243 S -0.007760 0.562500 0.012000
S244 S 0.492520 0.458000 0.984500
S245 S 0.507480 0.958000 0.015500
S246 S 0.491580 0.439700 0.479500
S247 S -0.008080 0.557200 0.507800
S248 S 1.008080 0.057200 0.492200
Br249 Br 1.170820 -0.008800 0.618170
Br250 Br -0.170820 0.491200 0.381830
Br251 Br 0.669930 1.001050 0.552400
Br252 Br 0.330070 0.501050 0.447600
Br253 Br 0.670500 0.023750 1.053240
Br254 Br -0.170600 0.503260 0.881600
Br255 Br 1.170600 0.003260 0.118400
Br256 Br 0.329500 0.523750 -0.053240

#END
