./ABIPEG_from_POSCAR.cif_generated_by_CrystalShift
_symmetry_cell_setting triclinic
_symmetry_space_group_name_H-M 'P 1'
loop_
_symmetry_equiv_pos_site_id
_symmetry_equiv_pos_as_xyz
1 x,y,z
_cell_length_a 8.912000
_cell_length_b 8.905000
_cell_length_c 46.308000
_cell_angle_alpha 90.000000
_cell_angle_beta 90.000000
_cell_angle_gamma 90.000000
_cell_volume 3675.065859
loop_
_atom_site_label
_atom_site_type_symbol
_atom_site_fract_x
_atom_site_fract_y
_atom_site_fract_z
H1 H 0.500300 0.705500 0.203000
H2 H -0.014300 0.520200 0.609300
H3 H 0.671400 0.529800 0.121100
H4 H 0.514300 0.479800 0.109300
H5 H 0.612400 0.593400 0.091600
H6 H -0.112400 0.406600 0.591600
H7 H -0.600600 0.413500 0.022300
H8 H -0.589200 0.293900 0.047000
H9 H -0.529700 0.457500 0.052100
H10 H 1.100600 0.586500 0.522300
H11 H 0.343600 1.349600 0.227900
H12 H 0.457500 1.338600 0.202200
H13 H 0.293100 1.278900 0.198500
H14 H 1.089200 0.706100 0.547000
H15 H -0.331000 0.559500 -0.070600
H16 H -0.166500 0.594300 -0.080500
H17 H 1.029700 0.542500 0.552100
H18 H -0.199700 0.452200 -0.061600
H19 H 0.156400 -0.349600 0.727900
H20 H 0.499700 0.205500 0.297000
H21 H 0.042500 -0.338600 0.702200
H22 H 0.631400 0.360100 0.344500
H23 H 0.206900 -0.278900 0.698500
H24 H 0.763000 0.099600 0.319500
H25 H 0.831000 0.440500 0.429400
H26 H 0.666500 0.405700 0.419500
H27 H 0.699700 0.547800 0.438400
H28 H 0.757500 0.194900 0.272000
H29 H 0.827100 1.083200 0.538400
H30 H 0.731500 1.156000 0.563100
H31 H 0.580500 0.374200 0.263700
H32 H 0.830400 1.014300 0.569600
H33 H 1.114900 -0.121400 0.406800
H34 H 0.276300 0.766000 0.653900
H35 H 1.125500 -0.170100 0.486000
H36 H -0.327100 -0.083200 0.038400
H37 H 0.337800 0.926300 0.646400
H38 H 0.958000 -0.254700 0.453000
H39 H 0.232300 0.842900 0.624600
H40 H 0.848500 0.013400 0.431800
H41 H -0.324800 -0.089900 0.708800
H42 H -0.408500 0.021100 0.688100
H43 H 0.940900 0.014700 0.476700
H44 H -0.231500 -0.156000 0.063100
H45 H -0.330400 -0.014300 0.069600
H46 H -0.269200 -0.069500 0.677000
H47 H 1.214300 0.175800 0.482700
H48 H 1.055600 0.230700 0.493400
H49 H 0.301000 -0.082400 0.819000
H50 H 0.924300 0.463500 0.266500
H51 H 0.975700 0.303100 0.256100
H52 H 0.343800 0.075100 0.831700
H53 H 0.202400 0.058500 0.811800
H54 H 0.475700 0.196900 0.743900
H55 H 0.702400 0.441500 0.188200
H56 H 0.843800 0.424900 0.168300
H57 H 0.801000 0.582400 0.181000
H58 H 0.424300 0.036500 0.733500
H59 H 0.555600 0.269300 0.506600
H60 H 0.230800 0.569500 0.323000
H61 H 0.091500 0.478900 0.311900
H62 H 0.175200 0.589900 0.291200
H63 H 0.714300 0.324200 0.517300
H64 H 0.732300 -0.342900 0.375400
H65 H 0.837800 -0.426300 0.353600
H66 H 0.776300 -0.266000 0.346100
H67 H 0.368600 0.860100 0.155500
H68 H 1.330400 -0.514300 0.430400
H69 H 1.231500 -0.656000 0.436900
H70 H 1.327100 -0.583200 0.461600
H71 H 0.440900 0.485300 0.523300
H72 H 1.199700 -0.047800 0.561600
H73 H 1.166500 0.094300 0.580500
H74 H 1.331000 0.059500 0.570600
H75 H 0.348500 0.486600 0.568200
H76 H 0.706900 0.778900 0.301500
H77 H 0.542500 0.838600 0.297800
H78 H 0.656400 0.849600 0.272100
H79 H 0.458000 0.754700 0.547000
H80 H 1.529700 -0.042500 0.447900
H81 H 1.589200 -0.206100 0.453000
H82 H 1.600600 -0.086500 0.477700
H83 H 0.237000 0.599600 0.180500
H84 H 0.387600 0.093400 0.408400
H85 H 0.485700 -0.020200 0.390700
H86 H 0.328600 0.029800 0.378900
H87 H 0.625500 0.670100 0.514000
H88 H 0.614900 0.621400 0.593200
H89 H 0.080500 0.125800 0.736300
H90 H 0.257500 0.305100 0.728000
H91 H 0.223700 0.234000 0.153900
H92 H 0.162200 0.073700 0.146400
H93 H 0.267700 0.157100 0.124600
H94 H 0.263000 0.400400 0.680500
H95 H 0.824800 1.089900 0.208800
H96 H 0.908500 0.978900 0.188100
H97 H 0.769200 1.069500 0.177000
H98 H 0.131400 0.139900 0.655500
H99 H -0.000300 0.294500 0.703000
H100 H 0.199000 1.082400 0.319000
H101 H 0.156200 0.924900 0.331700
H102 H 0.297600 0.941500 0.311800
H103 H 0.242500 0.694900 0.228000
H104 H 0.419500 0.874200 0.236300
H105 H -0.114900 0.378600 0.093200
H106 H -0.125500 0.329900 0.014000
H107 H 0.024300 0.803100 0.243900
H108 H 0.042000 0.245300 0.047000
H109 H 1.000300 0.794500 0.797000
H110 H 0.151500 0.513400 0.068200
H111 H 0.868600 0.639900 0.844500
H112 H 0.059100 0.514700 0.023300
H113 H 0.737000 0.900400 0.819500
H114 H 0.075700 0.963500 0.233500
H115 H 1.171400 0.970200 0.878900
H116 H 1.014300 1.020200 0.890700
H117 H 0.742500 0.805100 0.772000
H118 H 1.112400 0.906600 0.908400
H119 H -0.100600 1.086500 0.977700
H120 H 0.919500 0.625800 0.763700
H121 H -0.089200 1.206100 0.953000
H122 H 0.385100 1.121400 0.906800
H123 H -0.029700 1.042500 0.947900
H124 H 0.374500 1.170100 0.986000
H125 H 0.843600 0.150400 0.772100
H126 H 0.957500 0.161400 0.797800
H127 H 0.542000 1.254700 0.953000
H128 H 0.793100 0.221100 0.801500
H129 H 0.651500 0.986600 0.931800
H130 H 0.169000 0.940500 1.070600
H131 H 0.333500 0.905700 1.080500
H132 H 0.559100 0.985300 0.976700
H133 H -0.055600 0.730700 0.006600
H134 H -0.214300 0.675800 0.017300
H135 H 0.300300 1.047800 1.061600
H136 H 0.285700 0.824200 0.982700
H137 H 0.444400 0.769300 0.993400
H138 H 0.172900 1.583200 0.961600
H139 H 0.575700 0.536500 0.766500
H140 H 0.524300 0.696900 0.756100
H141 H 0.268500 1.656000 0.936900
H142 H 0.169600 1.514300 0.930400
H143 H 0.723700 1.266000 0.846100
H144 H 0.797600 0.558500 0.688200
H145 H 0.656200 0.575100 0.668300
H146 H 0.699000 0.417600 0.681000
H147 H 0.662200 1.426300 0.853600
H148 H 0.767700 1.342900 0.875400
H149 H 1.269200 0.430500 0.823000
H150 H 1.408500 0.521100 0.811900
H151 H 1.324800 0.410100 0.791200
H152 H -0.171400 0.470200 0.621100
C153 C 1.312500 0.480500 0.806700
C154 C 0.297000 0.854000 1.038100
C155 C 0.697000 0.523600 0.684700
C156 C 0.231300 1.563200 0.944600
C157 C 0.109200 1.167100 0.972600
C158 C 0.600900 0.554600 0.711100
C159 C 0.610200 0.631500 0.758700
C160 C 0.272800 0.945000 1.065200
C161 C 0.381400 0.856900 0.990500
C162 C 0.456400 0.966800 0.970000
C163 C 0.922400 0.357900 0.778200
C164 C 0.875000 0.210100 0.788300
C165 C 0.550700 0.973200 0.923800
C166 C 0.447900 1.214300 0.945200
C167 C 0.110200 0.868500 0.241300
C168 C -0.040800 1.122000 0.961900
C169 C 0.374100 1.118500 0.967300
C170 C 0.477800 1.132200 0.918000
C171 C 0.865700 0.624600 0.782200
C172 C 1.084000 0.938000 0.889300
C173 C 0.560600 0.884600 0.896500
C174 C 0.722300 0.702800 0.778800
C175 C 0.625100 0.802300 0.854300
C176 C 1.011000 0.809000 0.873600
C177 C 1.210600 0.605700 0.797100
C178 C 0.552000 1.259000 0.875900
C179 C -0.118600 0.643100 0.009500
C180 C 0.724700 0.798000 0.826800
C181 C -0.043600 0.533200 0.030000
C182 C 0.422400 1.142100 0.221800
C183 C 0.878200 0.732200 0.833200
C184 C 0.050700 0.526800 0.076200
C185 C 0.959800 0.700600 0.804700
C186 C -0.052100 0.285700 0.054800
C187 C 0.356400 1.466600 0.952000
C188 C -0.125900 0.381500 0.032700
C189 C 0.100900 0.945400 0.288900
C190 C -0.022200 0.367800 0.082000
C191 C -0.390800 0.332900 0.027400
C192 C 0.365700 0.875400 0.217800
C193 C 0.060600 0.615400 0.103500
C194 C 0.197000 0.976400 0.315300
C195 C 0.643600 0.966600 0.548000
C196 C 0.222300 0.797200 0.221200
C197 C 0.040200 0.200600 0.695300
C198 C -0.203000 0.646000 -0.038100
C199 C 0.121800 0.232200 0.666800
C200 C 0.812500 1.019500 0.193300
C201 C 0.275300 0.298000 0.673200
C202 C 0.189000 0.170000 0.138600
C203 C 0.125100 0.697700 0.145700
C204 C 0.374900 0.302300 0.645700
C205 C 0.277700 0.202800 0.721200
C206 C -0.268700 -0.063200 0.055400
C207 C 0.439400 0.384600 0.603500
C208 C 0.134300 0.124600 0.717800
C209 C 0.948000 -0.259000 0.375900
C210 C 0.522200 0.632200 0.582000
C211 C 0.289400 0.394300 0.297100
C212 C 0.625900 0.618500 0.532700
C213 C 0.489000 0.191000 0.373600
C214 C 0.416000 0.062000 0.389300
C215 C 0.552100 0.714300 0.554800
C216 C 1.540800 -0.122000 0.461900
C217 C 0.449300 0.473200 0.576200
C218 C 0.625000 0.789900 0.288300
C219 C 0.077600 -0.142100 0.721800
C220 C 0.543600 0.466800 0.530000
C221 C 1.227200 0.055000 0.565200
C222 C 0.224700 0.702000 0.173200
C223 C 1.268700 -0.563200 0.444600
C224 C 0.618600 0.356900 0.509500
C225 C 0.811000 -0.330000 0.361400
C226 C 0.187500 0.519500 0.306700
C227 C 0.389800 0.131500 0.741300
C228 C 1.203000 0.146000 0.538100
C229 C 0.803000 0.476400 0.184700
C230 C 0.399100 0.054600 0.788900
C231 C 0.890800 0.667100 0.527400
C232 C 0.303000 0.023600 0.815300
C233 C 1.390800 -0.167100 0.472600
C234 C 0.899100 0.445400 0.211100
C235 C 0.889800 0.368500 0.258700
C236 C 0.703000 0.354000 0.461900
C237 C -0.312500 -0.019500 0.693300
C238 C 1.118600 0.143100 0.490500
C239 C 1.043600 0.033200 0.470000
C240 C 0.577600 0.642100 0.278200
C241 C 0.311000 0.830000 0.638600
C242 C 0.949300 0.026800 0.423800
C243 C 1.052100 -0.214300 0.445200
C244 C 1.125900 -0.118500 0.467300
C245 C 0.768700 1.063200 0.555400
C246 C 1.022200 -0.132200 0.418000
C247 C 0.634300 0.375400 0.282200
C248 C 0.939400 0.115400 0.396500
C249 C 0.727200 0.445000 0.434800
C250 C 0.777700 0.297200 0.278800
C251 C 0.874900 0.197700 0.354300
C252 C -0.227200 0.555000 -0.065200
C253 C 0.125000 -0.289900 0.711700
C254 C 0.775300 0.202000 0.326800
C255 C 0.621800 0.267800 0.333200
C256 C 0.540200 0.299400 0.304700
C257 C 1.040800 0.622000 0.538100
C258 C 1.143600 -0.466600 0.452000
C259 C 0.375000 1.289900 0.211700
C260 C -0.540800 0.378000 0.038100
C261 C -0.084000 0.438000 0.610700
C262 C 0.584000 0.562000 0.110700
C263 C 0.511000 0.691000 0.126400
C264 C 0.689000 1.330000 0.861400
C265 C -0.011000 0.309000 0.626400
C266 C -0.210600 0.105700 0.702900
C267 C 0.448000 0.759000 0.624100
C268 C 0.378200 0.767800 0.166800
C269 C 0.052000 0.241000 0.124100
C270 C 0.459800 0.799400 0.195300
C271 C -0.143600 0.033400 0.048000
C272 C 0.710600 0.894300 0.202900
N273 N 0.494700 0.700600 0.859000
N274 N 0.657700 0.907400 0.875100
N275 N 0.505300 0.200600 0.641000
N276 N 0.842300 0.092600 0.375100
N277 N 0.342300 0.407400 0.624900
N278 N 1.005300 0.299400 0.359000
N279 N -0.005300 0.799400 0.141000
N280 N 0.157700 0.592600 0.124900
O281 O -0.139900 0.565500 -0.017100
O282 O 0.733700 0.806200 0.221000
O283 O 0.184900 0.890900 0.267700
O284 O 0.144900 0.787700 0.193600
O285 O -0.055400 0.013600 0.029600
O286 O -0.279600 0.415900 0.041100
O287 O 0.516600 1.114600 0.239300
O288 O -0.361500 0.234600 0.010500
O289 O 0.554000 0.738000 0.636500
O290 O 0.002400 0.183000 0.615600
O291 O 0.525500 0.025400 0.786500
O292 O -0.222400 0.777800 -0.036400
O293 O 0.722400 0.222200 0.463600
O294 O 0.555400 0.986400 0.529600
O295 O 0.583000 0.897700 0.186800
O296 O -0.233700 0.193800 0.721000
O297 O 0.639900 0.434500 0.482900
O298 O 0.315100 0.109100 0.767700
O299 O -0.016600 -0.114600 0.739300
O300 O 0.861500 0.765400 0.510500
O301 O -0.083000 0.102300 0.686800
O302 O 0.034200 0.339100 0.651800
O303 O -0.025500 0.974600 0.286500
O304 O 0.409200 0.715000 0.598700
O305 O 0.537700 0.395800 0.556600
O306 O 0.465800 0.660900 0.151800
O307 O 0.649300 0.835100 0.562900
O308 O 0.355100 0.212300 0.693600
O309 O 0.779600 0.584100 0.541100
O310 O 0.090800 0.285000 0.098700
O311 O 0.497600 0.817000 0.115600
O312 O -0.054000 0.262000 0.136500
O313 O 1.279600 -0.084100 0.458900
O314 O 0.446000 1.238000 0.863500
O315 O 0.997600 0.683000 0.884400
O316 O 0.474500 0.525400 0.713500
O317 O 0.277600 0.722200 1.036400
O318 O 0.444600 1.486400 0.970400
O319 O -0.037700 0.604200 0.056600
O320 O 1.233700 0.693800 0.779000
O321 O 0.360100 0.934500 1.017100
O322 O 0.684900 0.609100 0.732300
O323 O 1.016600 0.385400 0.760700
O324 O 0.138500 1.265400 0.989500
O325 O 1.083000 0.602300 0.813200
O326 O 0.965800 0.839100 0.848200
O327 O 0.590800 1.215000 0.901300
O328 O 0.462300 0.895800 0.943400
O329 O 0.837200 0.468900 0.790600
O330 O 0.350700 1.335100 0.937100
O331 O 0.644900 0.712300 0.806400
O332 O 0.220400 1.084100 0.958900
O333 O 0.337200 1.031100 0.209400
O334 O 0.855100 0.287700 0.306400
O335 O 1.054000 -0.238000 0.363500
O336 O 0.502400 0.317000 0.384400
O337 O 1.025500 0.474600 0.213500
O338 O 1.222400 0.277800 0.536400
O339 O 1.055400 -0.486400 0.470400
O340 O 0.162800 -0.031100 0.709400
O341 O 0.266300 0.306200 0.279000
O342 O 1.139900 0.065500 0.517100
O343 O 0.815100 0.390900 0.232300
O344 O 0.483400 0.614600 0.260700
O345 O 1.361500 -0.265400 0.489500
O346 O 0.417000 0.397700 0.313200
O347 O 0.534200 0.160900 0.348200
O348 O 0.909200 -0.215000 0.401300
O349 O 1.037700 0.104200 0.443400
O350 O 0.662800 0.531100 0.290600
O351 O 1.149300 -0.335100 0.437100
O352 O -0.149300 0.164900 0.062900
S353 S -0.048300 0.753000 0.110020
S354 S 0.548300 0.247000 0.610020
S355 S 0.451700 0.747000 0.889980
S356 S 1.048300 0.253000 0.389980

#END
