./ABIPOQ_from_POSCAR.cif_generated_by_CrystalShift
_symmetry_cell_setting triclinic
_symmetry_space_group_name_H-M 'P 1'
loop_
_symmetry_equiv_pos_site_id
_symmetry_equiv_pos_as_xyz
1 x,y,z
_cell_length_a 8.114000
_cell_length_b 10.473000
_cell_length_c 26.740000
_cell_angle_alpha 90.000000
_cell_angle_beta 90.000000
_cell_angle_gamma 90.000000
_cell_volume 2272.309634
loop_
_atom_site_label
_atom_site_type_symbol
_atom_site_fract_x
_atom_site_fract_y
_atom_site_fract_z
H1 H 0.848400 0.246300 0.092500
H2 H 0.581700 0.536200 0.107700
H3 H 0.045500 0.745000 0.358500
H4 H 0.456300 0.595600 0.034300
H5 H 0.586300 0.859700 0.745800
H6 H 0.680600 0.967300 0.774900
H7 H 0.024500 0.636100 0.398200
H8 H 0.322800 0.447200 -0.014400
H9 H 0.151600 0.746300 0.407500
H10 H 0.316600 0.237600 0.010300
H11 H 0.741500 0.722000 0.899900
H12 H 0.912900 0.683200 0.877500
H13 H 0.753600 0.608400 0.861900
H14 H 0.446000 0.173600 0.083700
H15 H 0.486800 0.672500 0.847300
H16 H 0.954500 0.245000 0.141500
H17 H 0.342100 0.742700 0.778000
H18 H 0.224900 0.751600 0.824500
H19 H 0.712900 0.358600 0.155800
H20 H 0.492700 0.025000 0.170500
H21 H 0.292500 0.674500 0.917600
H22 H 0.544200 0.090300 0.220900
H23 H 0.236900 0.751400 0.997000
H24 H 0.486700 0.452900 0.194900
H25 H 0.342800 0.943200 1.022500
H26 H 0.554200 0.341400 0.228400
H27 H 0.509500 1.061100 0.969700
H28 H 0.545500 0.755000 0.641500
H29 H 0.571800 0.980600 0.890500
H30 H 0.524500 0.863900 0.601800
H31 H 0.651600 0.753700 0.592500
H32 H 0.418300 1.036200 0.392300
H33 H 0.445800 0.841400 0.271600
H34 H 0.413700 0.359700 0.754200
H35 H 0.319400 0.467300 0.725100
H36 H 0.918300 0.463800 0.607700
H37 H 1.043700 0.404400 0.534300
H38 H 0.543700 1.095600 0.465700
H39 H 1.177200 0.552800 0.485600
H40 H 0.258500 0.222000 0.600100
H41 H 0.087100 0.183200 0.622500
H42 H 0.246400 0.108400 0.638100
H43 H 1.183400 0.762400 0.510300
H44 H 0.513200 0.172500 0.652700
H45 H 1.054000 0.826400 0.583700
H46 H 0.657900 0.242700 0.722000
H47 H 0.775100 0.251600 0.675500
H48 H 0.513300 0.952900 0.305100
H49 H 0.787100 0.641400 0.655800
H50 H 0.707500 0.174500 0.582400
H51 H 1.007300 0.975000 0.670500
H52 H 0.763100 0.251400 0.503000
H53 H 0.955800 0.909700 0.720900
H54 H 0.657200 0.443200 0.477500
H55 H 1.013300 0.547100 0.694900
H56 H 0.490500 0.561100 0.530300
H57 H 0.945800 0.658600 0.728400
H58 H 0.428200 0.480600 0.609500
H59 H 0.454500 0.255000 0.858500
H60 H 0.475500 0.363900 0.898200
H61 H 0.677200 0.947200 0.514400
H62 H 0.348400 0.253700 0.907500
H63 H 0.086300 0.640300 0.254200
H64 H 0.180600 0.532700 0.225100
H65 H 0.455800 0.590300 0.279100
H66 H 0.081700 -0.036200 0.892300
H67 H 0.683400 0.737600 0.489700
H68 H -0.043700 -0.095600 0.965700
H69 H 0.241500 0.778000 0.100100
H70 H 0.412900 0.816800 0.122500
H71 H 0.253600 0.891600 0.138100
H72 H -0.177200 0.052800 1.014400
H73 H -0.013200 0.827500 0.152700
H74 H -0.183400 0.262400 0.989700
H75 H -0.157900 0.757300 0.222000
H76 H -0.275100 0.748400 0.175500
H77 H -0.054000 0.326400 0.916300
H78 H 0.507300 0.525000 0.329500
H79 H -0.207500 0.825500 0.082400
H80 H 0.212900 0.141400 0.844200
H81 H -0.263100 0.748600 0.003000
H82 H 0.287100 0.858600 0.344200
H83 H -0.157200 0.556800 -0.022500
H84 H -0.007300 0.475000 0.829500
H85 H 0.009500 0.438900 0.030300
H86 H 0.044200 0.409700 0.779100
H87 H 0.071800 0.519400 0.109500
H88 H -0.013300 0.047100 0.805100
H89 H 0.054200 0.158600 0.771600
H90 H 0.554000 0.673600 0.416300
H91 H 0.928200 0.019400 0.390500
H92 H 0.913700 0.140300 0.245800
H93 H 0.819400 0.032700 0.274900
H94 H 0.990500 -0.061100 0.469700
H95 H 1.157200 0.056800 0.522500
H96 H 1.263100 0.248600 0.497000
H97 H 1.207500 0.325500 0.417600
H98 H 0.758500 0.278000 0.399900
H99 H 0.587100 0.316800 0.377500
H100 H 0.746400 0.391600 0.361900
H101 H 1.275100 0.248400 0.324500
H102 H 1.013200 0.327500 0.347300
H103 H 1.157900 0.257300 0.278000
H104 H 0.975500 0.136100 0.101800
C105 C 1.030400 0.235300 0.343870
C106 C 1.060500 0.179300 0.395650
C107 C 1.162400 0.248300 0.427940
C108 C 0.702900 0.309400 0.370700
C109 C 1.196500 0.201700 0.475420
C110 C 0.474900 0.849800 0.395900
C111 C 1.132900 0.087300 0.490720
C112 C 0.728400 0.219700 0.328760
C113 C 1.033100 0.017000 0.459460
C114 C 0.552900 0.759000 0.425730
C115 C 0.996900 0.065700 0.411680
C116 C 0.911200 0.091800 0.276680
C117 C 0.232100 0.616800 0.356960
C118 C 1.067400 0.018300 0.281590
C119 C 0.629500 0.797700 0.470010
C120 C -0.157900 0.325500 0.810920
C121 C 0.006900 0.393200 0.812970
C122 C 0.003100 0.565700 0.088320
C123 C -0.033100 0.517000 0.040540
C124 C -0.132900 0.587300 0.009280
C125 C 0.106200 0.185000 0.846100
C126 C -0.196500 0.701700 0.024580
C127 C 0.393800 0.815000 0.346100
C128 C -0.162400 0.748300 0.072060
C129 C 0.025100 0.150200 0.895900
C130 C -0.052900 0.241000 0.925730
C131 C -0.060500 0.679300 0.104350
C132 C -0.129500 0.202300 0.970010
C133 C -0.176400 0.713300 0.190620
C134 C -0.126100 0.077600 0.984780
C135 C -0.030400 0.735300 0.156130
C136 C -0.046900 -0.010700 0.955600
C137 C 0.297100 0.809400 0.129300
C138 C 0.028300 0.024900 0.911620
C139 C 0.271600 0.719700 0.171240
C140 C 0.626100 0.922400 0.484780
C141 C 0.398200 0.307200 0.882610
C142 C 0.088800 0.591800 0.223320
C143 C -0.067400 0.518300 0.218410
C144 C 0.546900 1.010700 0.455600
C145 C 0.267900 0.383200 0.856960
C146 C 0.999600 0.638900 0.696950
C147 C 0.496900 0.434300 0.588320
C148 C 0.533100 0.483000 0.540540
C149 C 1.157900 0.825500 0.689080
C150 C 0.993100 0.893200 0.687030
C151 C 0.632900 0.412700 0.509280
C152 C 0.696500 0.298300 0.524580
C153 C 0.493100 0.606800 0.312970
C154 C 0.893800 0.685000 0.653900
C155 C 0.662400 0.251700 0.572060
C156 C 0.657900 0.674500 0.310920
C157 C 0.560500 0.320700 0.604350
C158 C 0.974900 0.650200 0.604100
C159 C 1.052900 0.741000 0.574270
C160 C 0.676400 0.286700 0.690620
C161 C 1.129500 0.702300 0.529990
C162 C 0.530400 0.264700 0.656130
C163 C 1.126100 0.577600 0.515220
C164 C 0.202900 0.190600 0.629300
C165 C 1.046900 0.489300 0.544400
C166 C 0.228400 0.280300 0.671240
C167 C 0.971700 0.524900 0.588380
C168 C 0.471700 0.975100 0.411620
C169 C 0.411200 0.408200 0.723320
C170 C 0.601800 0.807200 0.617390
C171 C 0.567400 0.481700 0.718410
C172 C 0.101800 0.692800 0.382610
C173 C 0.503100 0.934300 0.911680
C174 C 0.732100 0.883200 0.643040
C175 C 0.500400 0.361100 0.196950
C176 C 0.466900 0.983000 0.959460
C177 C 0.367100 0.912700 0.990720
C178 C 0.342100 0.174500 0.189080
C179 C 0.506900 0.106800 0.187030
C180 C 0.303500 0.798300 0.975420
C181 C 0.337600 0.751700 0.927940
C182 C 0.499600 0.861100 0.303050
C183 C 0.606200 0.315000 0.153900
C184 C 0.439500 0.820700 0.895650
C185 C 0.767900 0.116800 0.143040
C186 C 0.323600 0.786700 0.809380
C187 C 0.525100 0.349800 0.104100
C188 C 0.447100 0.259000 0.074270
C189 C 0.469600 0.764700 0.843870
C190 C 0.370500 0.297700 0.029990
C191 C 0.797100 0.690600 0.870700
C192 C 0.373900 0.422400 0.015220
C193 C 0.771600 0.780300 0.828760
C194 C 0.453100 0.510700 0.044400
C195 C 0.588800 0.908200 0.776680
C196 C 0.528300 0.475100 0.088380
C197 C 0.432600 0.981700 0.781590
C198 C 1.176400 0.213300 0.309380
C199 C 0.898200 0.192800 0.117390
C200 C 0.000400 0.138900 0.803050
N201 N 0.885400 0.179800 0.318920
N202 N 0.385400 0.320200 0.681080
N203 N 0.114600 0.679800 0.181080
N204 N 0.633700 0.179900 0.160550
N205 N 0.614600 0.820200 0.818920
N206 N 0.133700 0.320100 0.839450
N207 N 0.366300 0.679900 0.339450
N208 N 0.866300 0.820100 0.660550
O209 O 0.279900 0.499200 0.850520
O210 O -0.284900 0.385900 0.813100
O211 O 1.158200 0.699900 0.695250
O212 O -0.158200 0.199900 0.804750
O213 O 1.284900 0.885900 0.686900
O214 O 0.658200 0.800100 0.304750
O215 O 0.784900 0.614100 0.313100
O216 O 0.720100 0.999200 0.649480
O217 O 0.779900 0.000800 0.149480
O218 O 1.079300 -0.093900 0.270190
O219 O 1.199800 0.079600 0.300010
O220 O 0.389400 0.678500 0.196200
O221 O 0.341800 0.300100 0.195250
O222 O -0.079300 0.406100 0.229810
O223 O -0.199800 0.579600 0.199990
O224 O 0.110600 0.321500 0.696200
O225 O 0.215100 0.114100 0.186900
O226 O 0.579300 0.593900 0.729810
O227 O 0.220100 0.500800 0.350520
O228 O 0.699800 0.420400 0.699990
O229 O 0.889400 0.821500 0.803800
O230 O 0.610600 0.178500 0.303800
O231 O 0.420700 1.093900 0.770190
O232 O 0.300200 0.920400 0.800010

#END
