./ABIPIK_from_POSCAR.cif_generated_by_CrystalShift
_symmetry_cell_setting triclinic
_symmetry_space_group_name_H-M 'P 1'
loop_
_symmetry_equiv_pos_site_id
_symmetry_equiv_pos_as_xyz
1 x,y,z
_cell_length_a 14.947100
_cell_length_b 18.533700
_cell_length_c 15.019700
_cell_angle_alpha 90.000000
_cell_angle_beta 112.840000
_cell_angle_gamma 90.000000
_cell_volume 3834.592400
loop_
_atom_site_label
_atom_site_type_symbol
_atom_site_fract_x
_atom_site_fract_y
_atom_site_fract_z
H1 H 0.566400 1.061400 0.570400
H2 H 0.482700 1.120600 0.549100
H3 H 0.637300 1.133800 0.482000
H4 H 0.548300 1.188800 0.456200
H5 H 0.322200 1.219100 0.210900
H6 H 0.295400 1.259800 0.291300
H7 H 0.406700 1.248300 0.307100
H8 H 0.276500 1.134500 0.301900
H9 H 0.358100 1.164600 0.399200
H10 H 0.064600 0.896400 0.181500
H11 H -0.103400 0.216600 0.250800
H12 H 0.041700 0.866100 0.270200
H13 H 0.031300 0.950500 0.245800
H14 H 0.175400 0.927600 0.378600
H15 H 0.208700 0.873000 0.314700
H16 H 0.279100 0.994600 0.335400
H17 H 0.063000 0.422600 0.606800
H18 H 0.174500 1.022200 0.264400
H19 H 0.287300 0.921200 0.206600
H20 H 0.185400 0.954100 0.136000
H21 H 0.249100 1.181800 -0.065600
H22 H 0.149400 1.200100 -0.054200
H23 H 0.242800 0.572600 0.342600
H24 H 0.243700 1.178800 0.038700
H25 H 0.138600 1.079700 -0.009200
H26 H 0.138900 1.083700 -0.115500
H27 H 0.139700 0.981000 -0.220200
H28 H 0.174900 0.983200 -0.308100
H29 H -0.181900 0.519200 0.052000
H30 H 0.215900 0.922500 -0.226400
H31 H -0.350000 0.355500 -0.053700
H32 H -0.291800 0.423800 -0.068000
H33 H 0.258500 1.073500 -0.197600
H34 H -0.407600 0.427200 0.045400
H35 H -0.441600 0.459600 -0.061400
H36 H -0.352900 0.495600 0.025300
H37 H 0.334800 1.013000 -0.198100
H38 H -0.331800 0.251300 0.048500
H39 H -0.243100 0.205500 0.121900
H40 H 0.381100 0.797200 -0.197900
H41 H -0.266200 0.242300 -0.071100
H42 H -0.279600 0.163100 -0.035600
H43 H -0.174300 0.199500 0.002500
H44 H 0.437400 0.754500 -0.253000
H45 H 0.071400 0.287300 0.257700
H46 H 0.074200 0.212500 0.311700
H47 H 0.414000 0.715300 -0.169500
H48 H 0.091800 0.195900 0.162100
H49 H -0.013900 0.229600 0.106300
H50 H 0.546000 0.833300 -0.138800
H51 H 0.015100 0.100600 0.218600
H52 H -0.087500 0.131700 0.147300
H53 H 0.579100 0.751600 -0.110900
H54 H -0.039800 0.107900 0.014100
H55 H -0.049300 0.036000 0.069000
H56 H 0.055600 0.069200 0.088600
H57 H 0.735000 0.693500 0.157100
H58 H -0.061500 0.153400 0.501100
H59 H -0.074100 0.146900 0.390800
H60 H 0.721600 0.618800 0.100000
H61 H -0.221700 0.193200 0.453900
H62 H -0.221600 0.118800 0.400000
H63 H -0.235000 0.193500 0.342900
H64 H 0.721700 0.693200 0.046100
H65 H -0.079100 0.251600 0.610900
H66 H -0.046000 0.333300 0.638800
H67 H 0.574100 0.646900 0.109200
H68 H 0.086000 0.215300 0.669500
H69 H 0.062600 0.254500 0.753000
H70 H 0.118900 0.297200 0.697900
H71 H 0.561500 0.653400 -0.001100
H72 H 0.165200 0.513000 0.698100
H73 H 0.241500 0.573500 0.697600
H74 H 0.444400 0.569200 0.411400
H75 H 0.284100 0.422500 0.726400
H76 H 0.325100 0.483200 0.808100
H77 H 0.360300 0.481000 0.720200
H78 H 0.549300 0.536000 0.431000
H79 H 0.361100 0.583700 0.615500
H80 H 0.361400 0.579700 0.509200
H81 H 0.539800 0.607900 0.485900
H82 H 0.256300 0.678800 0.461300
H83 H 0.350600 0.700100 0.554200
H84 H 0.250900 0.681800 0.565600
H85 H 0.587500 0.631700 0.352700
H86 H 0.314600 0.454100 0.364000
H87 H 0.212700 0.421200 0.293400
H88 H 0.484900 0.600600 0.281400
H89 H 0.325500 0.522200 0.235600
H90 H 0.220900 0.494600 0.164600
H91 H 0.513900 0.729600 0.393700
H92 H 0.291300 0.373000 0.185300
H93 H 0.324600 0.427600 0.121400
H94 H 0.408200 0.695900 0.337900
H95 H 0.468700 0.450500 0.254200
H96 H 0.458300 0.366100 0.229800
H97 H 0.435400 0.396400 0.318500
H98 H 0.425800 0.712500 0.188300
H99 H 0.141900 0.664600 0.100800
H100 H 0.223500 0.634500 0.198100
H101 H 0.428600 0.787300 0.242300
H102 H 0.093300 0.748300 0.192900
H103 H 0.204600 0.759800 0.208700
H104 H 0.177800 0.719100 0.289100
H105 H 0.674300 0.699500 0.497500
H106 H -0.048300 0.688800 0.043800
H107 H -0.137300 0.633800 0.018000
H108 H 0.779600 0.663100 0.535600
H109 H 0.017300 0.620600 -0.049100
H110 H -0.092700 0.640600 -0.115300
H111 H -0.066400 0.561400 -0.070400
H112 H 0.766200 0.742300 0.571100
H113 H 0.743100 0.705500 0.378100
H114 H 0.831800 0.751300 0.451500
H115 H 0.852900 0.995600 0.474700
H116 H 0.941600 0.959600 0.561400
H117 H 0.907600 0.927200 0.454600
H118 H 0.791800 0.923800 0.568000
H119 H 0.850000 0.855500 0.553700
H120 H 0.681900 1.019200 0.448000
H121 H 0.257200 1.072600 0.157400
H122 H 0.396600 0.283400 0.750800
H123 H 0.437000 0.922600 -0.106800
H124 H 0.603400 0.716600 0.249200
H125 H 1.066400 0.438600 1.070400
H126 H 1.092700 0.359400 1.115300
H127 H 0.982700 0.379400 1.049100
H128 H 0.563000 0.077400 1.106800
H129 H 1.137300 0.366200 0.982000
H130 H 1.048300 0.311200 0.956200
H131 H 0.822200 0.280900 0.710900
H132 H 0.795400 0.240200 0.791300
H133 H 0.906700 0.251700 0.807100
H134 H 0.742800 -0.072600 0.842600
H135 H 0.776500 0.365500 0.801900
H136 H 0.858100 0.335400 0.899200
H137 H 0.564600 0.603600 0.681500
H138 H 0.541700 0.633900 0.770200
H139 H 0.531300 0.549500 0.745800
H140 H 0.318100 -0.019200 0.552000
H141 H 0.675400 0.572400 0.878600
H142 H 0.150000 0.144500 0.446300
H143 H 0.208200 0.076200 0.432000
H144 H 0.708700 0.627000 0.814700
H145 H 0.092400 0.072800 0.545400
H146 H 0.058400 0.040400 0.438600
H147 H 0.147100 0.004400 0.525300
H148 H 0.779100 0.505400 0.835400
H149 H 0.168200 0.248700 0.548500
H150 H 0.256900 0.294500 0.621900
H151 H 0.674500 0.477800 0.764400
H152 H 0.233800 0.257700 0.428900
H153 H 0.220400 0.336900 0.464400
H154 H 0.325700 0.300500 0.502500
H155 H 0.787300 0.578800 0.706600
H156 H 0.571400 0.212700 0.757700
H157 H 0.574200 0.287500 0.811700
H158 H 0.685400 0.545900 0.636000
H159 H 0.591800 0.304100 0.662100
H160 H 0.486100 0.270400 0.606300
H161 H 0.749100 0.318200 0.434400
H162 H 0.515100 0.399400 0.718600
H163 H 0.412500 0.368300 0.647300
H164 H 0.649400 0.299900 0.445800
H165 H 0.460200 0.392100 0.514100
H166 H 0.450700 0.464000 0.569000
H167 H 0.555600 0.430800 0.588600
H168 H 0.743700 0.321200 0.538700
H169 H 0.438500 0.346600 1.001100
H170 H 0.425900 0.353100 0.890800
H171 H 0.638600 0.420300 0.490800
H172 H 0.278300 0.306800 0.953900
H173 H 0.278400 0.381200 0.900000
H174 H 0.265000 0.306500 0.842900
H175 H 0.638900 0.416300 0.384500
H176 H 0.420900 0.248400 1.110900
H177 H 0.454000 0.166700 1.138800
H178 H 0.639700 0.519000 0.279800
H179 H 0.586000 0.284700 1.169500
H180 H 0.562600 0.245500 1.253000
H181 H 0.618900 0.202800 1.197900
H182 H 0.674900 0.516800 0.191900
H183 H 0.665200 -0.013000 1.198100
H184 H 0.741500 -0.073500 1.197600
H185 H 0.715900 0.577500 0.273600
H186 H 0.784100 0.077500 1.226400
H187 H 0.825100 0.016800 1.308100
H188 H 0.860300 0.019000 1.220200
H189 H 0.758500 0.426500 0.302400
H190 H 0.861100 -0.083700 1.115500
H191 H 0.861400 -0.079700 1.009200
H192 H 0.834800 0.487000 0.301900
H193 H 0.756300 -0.178800 0.961300
H194 H 0.850600 -0.200100 1.054200
H195 H 0.750900 -0.181800 1.065600
H196 H 0.881100 0.702800 0.302100
H197 H 0.814600 0.045900 0.864000
H198 H 0.712700 0.078800 0.793400
H199 H 0.937400 0.745500 0.247000
H200 H 0.825500 -0.022200 0.735600
H201 H 0.720900 0.005400 0.664600
H202 H 0.914000 0.784700 0.330500
H203 H 0.791300 0.127000 0.685300
H204 H 0.824600 0.072400 0.621400
H205 H 1.046000 0.666700 0.361200
H206 H 0.968700 0.049500 0.754200
H207 H 0.958300 0.133900 0.729800
H208 H 0.935400 0.103600 0.818500
H209 H 1.079100 0.748400 0.389100
H210 H 0.641900 -0.164600 0.600800
H211 H 0.723500 -0.134500 0.698100
H212 H 1.235000 0.806500 0.657100
H213 H 0.593300 -0.248300 0.692900
H214 H 0.704600 -0.259800 0.708700
H215 H 0.677800 -0.219100 0.789100
H216 H 1.221600 0.881200 0.600000
H217 H 0.451700 -0.188800 0.543800
H218 H 0.362700 -0.133800 0.518000
H219 H 1.221700 0.806800 0.546100
H220 H 0.517300 -0.120600 0.450900
H221 H 0.407300 -0.140600 0.384700
H222 H 0.433600 -0.061400 0.429600
H223 H 1.074100 0.853100 0.609200
H224 H 1.061500 0.846600 0.498900
H225 H 0.944400 0.930800 0.911400
H226 H 1.049300 0.964000 0.931000
H227 H 1.039800 0.892100 0.985900
H228 H 1.087500 0.868300 0.852700
H229 H 0.984900 0.899400 0.781400
H230 H 1.013900 0.770400 0.893700
H231 H 0.908200 0.804100 0.837900
H232 H 0.925800 0.787500 0.688300
H233 H 1.103400 0.783400 0.749200
H234 H 0.928600 0.712700 0.742300
H235 H 1.174300 0.800500 0.997500
H236 H 1.279600 0.836900 1.035600
H237 H 1.266200 0.757700 1.071100
H238 H 1.243100 0.794500 0.878100
H239 H 0.937000 0.577400 0.393200
H240 H 1.331800 0.748700 0.951500
H241 H 1.352900 0.504400 0.974700
H242 H 1.441600 0.540400 1.061400
H243 H 1.407600 0.572800 0.954600
H244 H 1.291800 0.576200 1.068000
H245 H 0.757200 0.427400 0.657400
H246 H 1.350000 0.644500 1.053700
H247 H 1.181900 0.480800 0.948000
H248 H 0.592700 1.140600 0.615300
C249 C 1.046230 0.468440 0.848430
C250 C 1.132560 0.505200 0.896600
C251 C 0.913670 0.399100 0.821110
C252 C 1.314830 0.600300 1.022040
C253 C 0.893460 0.454950 0.750910
C254 C 0.799510 0.471100 0.668920
C255 C 1.385600 0.549950 1.001300
C256 C 0.816990 0.485720 0.578740
C257 C 0.764600 0.458570 0.484190
C258 C 0.808600 0.487310 0.426160
C259 C 1.261570 0.758600 0.931090
C260 C 0.883790 0.533400 0.485370
C261 C 0.937810 0.582370 0.456490
C262 C 1.243800 0.791390 1.016500
C263 C 0.992580 0.637730 0.513540
C264 C 1.027420 0.700640 0.483150
C265 C 1.056620 0.748620 0.560430
C266 C 0.964770 0.758010 0.745190
C267 C 1.043080 0.711830 0.637270
C268 C 1.062810 0.738760 0.737410
C269 C 0.973600 0.799020 0.836440
C270 C 1.118000 0.682540 0.809220
C271 C 1.206250 0.690000 0.893070
C272 C 1.018500 0.873720 0.843210
C273 C 1.228050 0.621640 0.933470
C274 C 1.152150 0.574800 0.875350
C275 C 1.012500 0.919210 0.925200
C276 C 0.550800 1.112780 0.559120
C277 C 0.567310 1.137510 0.469120
C278 C -0.152150 0.425200 0.124650
C279 C 1.093380 0.824660 0.563770
C280 C -0.228050 0.378360 0.066530
C281 C 0.341600 1.227010 0.280400
C282 C 1.202600 0.830270 0.594500
C283 C 0.449200 -0.112780 0.440880
C284 C 0.432690 -0.137510 0.530880
C285 C 0.658400 -0.227010 0.719600
C286 C 1.028310 0.712520 0.384040
C287 C 0.657510 -0.155490 0.670200
C288 C 0.931500 0.093220 0.753100
C289 C 0.931600 0.738700 0.309230
C290 C 0.828100 0.082130 0.687500
C291 C 0.780800 0.019570 0.719700
C292 C 0.754480 0.035370 0.807010
C293 C 0.778510 0.477270 0.319350
C294 C 0.792200 -0.169930 1.030500
C295 C 0.821040 -0.091530 1.046190
C296 C 0.694800 0.527110 0.260920
C297 C 0.805200 0.027110 1.239080
C298 C 0.721490 -0.022730 1.180650
C299 C 0.568400 0.238700 1.190770
C300 C 0.678960 0.408470 0.453810
C301 C 0.471690 0.212520 1.115960
C302 C 0.297400 0.330270 0.905500
C303 C 0.707800 0.330070 0.469500
C304 C 0.406620 0.324660 0.936230
C305 C 0.487500 0.419210 0.574800
C306 C 0.481500 0.373720 0.656790
C307 C 0.745520 0.535370 0.692990
C308 C 0.526400 0.299020 0.663560
C309 C 0.535230 0.258010 0.754810
C310 C 0.719200 0.519570 0.780300
C311 C 0.256200 0.291390 0.483500
C312 C 0.238430 0.258600 0.568910
C313 C 0.671900 0.582130 0.812500
C314 C 0.114400 0.049950 0.498700
C315 C 0.185170 0.100300 0.477960
C316 C 0.568500 0.593220 0.746900
C317 C 0.367440 0.005200 0.603400
C318 C 0.453770 -0.031560 0.651570
C319 C 0.489180 -0.093790 0.618740
C320 C 0.842490 0.344510 0.829800
C321 C 0.586330 -0.100900 0.678890
C322 C 0.606540 -0.045050 0.749090
C323 C 0.841600 0.272990 0.780400
C324 C 0.700490 -0.028900 0.831080
C325 C 0.683010 -0.014280 0.921260
C326 C 0.735400 -0.041430 1.015810
C327 C 1.067310 0.362490 0.969120
C328 C 0.691400 -0.012690 1.073840
C329 C 0.616210 0.033400 1.014630
C330 C 1.050800 0.387220 1.059120
C331 C 0.562190 0.082370 1.043510
C332 C 0.507420 0.137730 0.986460
C333 C 0.472580 0.200640 1.016850
C334 C -0.206250 0.310000 0.106930
C335 C -0.118000 0.317460 0.190780
C336 C 0.342490 1.155490 0.329800
C337 C -0.062810 0.261240 0.262590
C338 C -0.043080 0.288170 0.362730
C339 C 0.652150 0.925200 0.375350
C340 C 0.728050 0.878360 0.433470
C341 C 0.706250 0.810000 0.393070
C342 C 0.618000 0.817460 0.309220
C343 C 0.562810 0.761240 0.237410
C344 C 0.443380 0.248620 0.939570
C345 C 0.543080 0.788170 0.137270
C346 C 0.556620 0.751380 0.060430
C347 C 0.527420 0.799360 -0.016850
C348 C 0.492580 0.862270 0.013540
C349 C 0.437810 0.917630 -0.043510
C350 C 0.456920 0.211830 0.862730
C351 C 0.383790 0.966600 -0.014630
C352 C 0.308600 1.012690 -0.073840
C353 C 0.264600 1.041430 -0.015810
C354 C 0.316990 1.014280 0.078740
C355 C 0.299510 1.028900 0.168920
C356 C 0.437190 0.238760 0.762590
C357 C 0.393460 1.045050 0.250910
C358 C 0.413670 1.100900 0.321110
C359 C 0.510820 1.093790 0.381260
C360 C 0.546230 1.031560 0.348430
C361 C 0.632560 0.994800 0.396600
C362 C 0.382000 0.182540 0.690780
C363 C 0.814830 0.899700 0.522040
C364 C 0.293750 0.190000 0.606930
C365 C 0.271950 0.121640 0.566530
C366 C 0.885600 0.950050 0.501300
C367 C 0.347850 0.074800 0.624650
C368 C -0.056620 0.251380 0.439570
C369 C 0.068500 0.906780 0.246900
C370 C 0.761570 0.741400 0.431090
C371 C -0.027420 0.299360 0.516850
C372 C 0.007420 0.362270 0.486460
C373 C 0.743800 0.708610 0.516500
C374 C 0.171900 0.917870 0.312500
C375 C -0.050800 0.612780 -0.059120
C376 C -0.067310 0.637510 0.030880
C377 C 0.464770 0.741990 0.245190
C378 C 0.158400 0.727010 0.219600
C379 C 0.157510 0.655490 0.170200
C380 C 0.473600 0.700980 0.336440
C381 C 0.431500 0.406780 0.253100
C382 C 0.328100 0.417870 0.187500
C383 C 0.518500 0.626280 0.343210
C384 C 0.280800 0.480430 0.219700
C385 C 0.254480 0.464630 0.307010
C386 C 0.512500 0.580790 0.425200
C387 C 0.292200 0.669930 0.530500
C388 C 0.321040 0.591530 0.546190
C389 C 0.305200 0.472890 0.739080
C390 C 0.593380 0.675340 0.063770
C391 C 0.221490 0.522730 0.680650
C392 C 0.068400 0.261300 0.690770
C393 C 0.702600 0.669730 0.094500
C394 C -0.028310 0.287480 0.615960
C395 C -0.202600 0.169730 0.405500
C396 C -0.093380 0.175340 0.436230
C397 C 0.528310 0.787480 -0.115960
C398 C -0.012500 0.080790 0.074800
C399 C -0.018500 0.126280 0.156790
C400 C 0.431600 0.761300 -0.190770
C401 C 0.026400 0.200980 0.163560
C402 C 0.035230 0.241990 0.254810
C403 C -0.243800 0.208610 -0.016500
C404 C 0.278510 1.022730 -0.180650
C405 C -0.261570 0.241400 0.068910
C406 C -0.385600 0.450050 -0.001300
C407 C 0.194800 0.972890 -0.239080
C408 C -0.314830 0.399700 -0.022040
C409 C -0.132560 0.494800 0.103400
C410 C -0.046230 0.531560 0.151570
C411 C 0.178960 1.091530 -0.046190
C412 C -0.010820 0.593790 0.118740
C413 C 0.086330 0.600900 0.178890
C414 C 0.207800 1.169930 -0.030500
C415 C 0.106540 0.545050 0.249090
C416 C 0.200490 0.528900 0.331080
C417 C 0.183010 0.514280 0.421260
C418 C 0.245520 0.964630 0.192990
C419 C 0.235400 0.541430 0.515810
C420 C 0.191400 0.512690 0.573840
C421 C 0.219200 0.980430 0.280300
C422 C 0.116210 0.466600 0.514630
C423 C 0.062190 0.417630 0.543510
C424 C 1.010820 0.406210 0.881260
N425 N 0.413360 0.114100 0.701660
N426 N 0.495620 0.146020 0.889910
N427 N 0.611510 0.030870 0.919490
N428 N 0.528000 -0.003480 0.733070
N429 N 0.472000 1.003480 0.266930
N430 N 0.388490 0.969130 0.080510
N431 N 0.504380 0.853980 0.110090
N432 N 0.586640 0.885900 0.298340
N433 N -0.086640 0.385900 0.201660
N434 N 0.972000 0.496520 0.766930
N435 N 1.086640 0.614100 0.798340
N436 N 1.004380 0.646020 0.610090
N437 N 0.028000 0.503480 0.233070
N438 N 0.888490 0.530870 0.580510
N439 N 0.111510 0.469130 0.419490
N440 N -0.004380 0.353980 0.389910
Ni441 Ni 0.485260 0.926713 0.189460
Ni442 Ni 0.985260 0.573287 0.689460
Ni443 Ni 0.514740 0.073287 0.810540
Ni444 Ni 0.014740 0.426713 0.310540

#END
