./ABIPIM_from_POSCAR.cif_generated_by_CrystalShift
_symmetry_cell_setting triclinic
_symmetry_space_group_name_H-M 'P 1'
loop_
_symmetry_equiv_pos_site_id
_symmetry_equiv_pos_as_xyz
1 x,y,z
_cell_length_a 7.290000
_cell_length_b 13.880000
_cell_length_c 11.270000
_cell_angle_alpha 90.000000
_cell_angle_beta 106.600000
_cell_angle_gamma 90.000000
_cell_volume 1092.830052
loop_
_atom_site_label
_atom_site_type_symbol
_atom_site_fract_x
_atom_site_fract_y
_atom_site_fract_z
H1 H 0.538000 0.682000 0.083000
H2 H 0.222000 0.752000 0.283000
H3 H 0.531000 0.624000 0.264000
H4 H 0.816000 0.602000 0.424000
H5 H 0.263000 0.962000 -0.248000
H6 H 0.239000 0.844000 -0.247000
H7 H 0.859000 0.798000 0.468000
H8 H 0.854000 0.817000 0.260000
H9 H 0.828000 0.701000 0.235000
H10 H 1.017000 0.723000 0.441000
H11 H 0.223000 0.616000 0.088000
H12 H 0.210000 0.635000 0.294000
H13 H 0.042000 0.814000 -0.046000
H14 H 0.709000 0.832000 0.083000
H15 H 0.050000 0.692000 0.086000
H16 H 0.462000 0.182000 0.917000
H17 H 0.950000 0.192000 0.914000
H18 H 0.778000 0.252000 0.717000
H19 H 0.469000 0.124000 0.736000
H20 H 0.184000 0.102000 0.576000
H21 H 0.737000 0.462000 1.248000
H22 H 0.761000 0.344000 1.247000
H23 H 0.141000 0.298000 0.532000
H24 H 0.291000 0.332000 0.917000
H25 H 0.958000 0.314000 1.046000
H26 H 0.790000 0.135000 0.706000
H27 H 0.777000 0.116000 0.912000
H28 H -0.017000 0.223000 0.559000
H29 H 0.172000 0.201000 0.765000
H30 H 0.146000 0.317000 0.740000
C31 C 0.501700 0.248700 0.903100
C32 C 0.716200 0.254000 0.944700
C33 C 0.808100 0.181700 0.886800
C34 C 0.735900 0.189400 0.744000
C35 C 0.512400 0.183700 0.701800
C36 C 0.431800 0.169100 0.556500
C37 C 0.209900 0.160000 0.530800
C38 C -0.072200 0.086800 0.214200
C39 C 0.204900 0.256700 0.719000
C40 C 0.004400 0.080300 0.357500
C41 C 0.422500 0.268900 0.758600
C42 C 0.413900 0.314900 0.980200
C43 C 0.795100 0.756700 0.281000
C44 C 0.577500 0.768900 0.241400
C45 C 0.586100 0.814900 0.019800
C46 C 0.483100 0.907500 -0.030200
C47 C 0.264700 0.907400 -0.073400
C48 C 0.184600 0.821000 -0.020800
C49 C 0.198700 0.907000 -0.217900
C50 C -0.013000 0.917300 -0.273900
C51 C 0.193900 1.001800 -0.022000
C52 C 0.493300 0.569200 0.476400
C53 C 0.515000 0.749300 0.522000
C54 C 0.877500 0.737700 0.423400
C55 C 0.525800 0.871100 0.271100
C56 C 0.995600 0.580300 0.642500
C57 C 1.072200 0.586800 0.785800
C58 C 0.790100 0.660000 0.469200
C59 C 0.568200 0.669100 0.443500
C60 C 0.487600 0.683700 0.298200
C61 C 0.264100 0.689400 0.256000
C62 C 0.191900 0.681700 0.113200
C63 C 0.283800 0.754000 0.055300
C64 C 0.498300 0.748700 0.096900
C65 C 0.474200 0.371100 0.728900
C66 C 0.122500 0.237700 0.576600
C67 C 0.485000 0.249300 0.478000
C68 C 0.506700 0.069200 0.523600
C69 C 0.806100 0.501800 1.022000
C70 C 1.013000 0.417300 1.273900
C71 C 0.801300 0.407000 1.217900
C72 C 0.815400 0.321000 1.020800
C73 C 0.735300 0.407400 1.073400
C74 C 0.516900 0.407500 1.030200
O75 O -0.048300 0.027500 0.419900
O76 O 0.129700 0.152000 0.398700
O77 O 0.428100 0.481000 1.036600
O78 O 0.870300 0.652000 0.601300
O79 O 1.048300 0.527500 0.580100
O80 O 0.571900 0.981000 -0.036600
Br81 Br 0.607700 0.750000 -0.128400
Br82 Br 0.392300 0.250000 1.128400

#END
