./ABIQUX_from_POSCAR.cif_generated_by_CrystalShift
_symmetry_cell_setting triclinic
_symmetry_space_group_name_H-M 'P 1'
loop_
_symmetry_equiv_pos_site_id
_symmetry_equiv_pos_as_xyz
1 x,y,z
_cell_length_a 16.804000
_cell_length_b 11.226000
_cell_length_c 13.603000
_cell_angle_alpha 90.000000
_cell_angle_beta 103.910000
_cell_angle_gamma 90.000000
_cell_volume 2490.841237
loop_
_atom_site_label
_atom_site_type_symbol
_atom_site_fract_x
_atom_site_fract_y
_atom_site_fract_z
H1 H 0.673300 0.805900 0.264200
H2 H 0.777000 1.037700 0.101800
H3 H 0.901100 0.930600 0.148800
H4 H 0.911200 0.762200 0.251500
H5 H 0.876400 0.454700 0.478100
H6 H 1.008000 0.376300 0.536400
H7 H 1.039100 0.183600 0.491000
H8 H 0.938000 0.071600 0.383000
H9 H 0.803800 0.146400 0.326700
H10 H 0.943000 0.363100 0.266600
H11 H 0.958900 0.393200 0.160400
H12 H 0.959200 0.495100 0.239300
H13 H 0.656500 0.677200 0.012400
H14 H 0.722800 0.653600 -0.049000
H15 H 0.744700 0.730800 0.049900
H16 H 0.675300 0.202200 0.150400
H17 H 0.670100 0.213400 0.034100
H18 H 0.606000 0.279300 0.081600
H19 H 0.542700 0.729500 0.155600
H20 H 0.514300 0.628100 0.075600
H21 H 0.453800 0.677500 0.137300
H22 H 0.508300 0.391800 0.244800
H23 H 0.493900 0.423800 0.129700
H24 H 0.432800 0.469900 0.191900
H25 H 0.554400 0.552400 0.376100
H26 H 0.567900 0.682300 0.341300
H27 H 0.478900 0.631000 0.324100
H28 H 0.859500 0.603900 0.120600
H29 H 0.842300 0.507800 0.034500
H30 H 0.272000 -0.089000 0.093000
H31 H 0.298000 -0.191000 0.165000
H32 H 0.230000 0.154000 0.123000
H33 H 0.146000 0.120000 0.153000
H34 H 0.182000 -0.192100 0.431500
H35 H 0.182200 -0.234400 0.321700
H36 H 0.362800 -0.035800 0.485200
H37 H 0.287500 -0.075300 0.526700
H38 H 0.157700 0.007800 0.465500
H39 H 0.140500 0.103900 0.379400
H40 H 0.521100 0.131000 0.175900
H41 H 0.432100 0.182300 0.158700
H42 H 0.445600 0.052400 0.123900
H43 H 0.567200 -0.030100 0.308100
H44 H 0.506100 -0.076200 0.370300
H45 H 0.491700 -0.108200 0.255200
H46 H 0.546200 0.177500 0.362700
H47 H 0.485700 0.128100 0.424400
H48 H 0.457300 0.229500 0.344400
H49 H 0.394000 -0.220700 0.418400
H50 H 0.329900 -0.286600 0.465900
H51 H 0.324700 -0.297800 0.349600
H52 H 0.255300 0.230800 0.450100
H53 H 0.277200 0.153600 0.549000
H54 H 0.343500 0.177200 0.487600
H55 H 0.040800 -0.004900 0.260700
H56 H 0.041100 -0.106800 0.339600
H57 H 0.057000 -0.136900 0.233400
H58 H 0.196200 -0.353600 0.173300
H59 H 0.062000 -0.428400 0.117000
H60 H -0.039100 -0.316400 0.009000
H61 H -0.008000 -0.123700 -0.036400
H62 H 0.123600 -0.045300 0.021900
H63 H 0.088800 0.262200 0.248500
H64 H 0.098900 0.430600 0.351200
H65 H 0.223000 0.537700 0.398200
H66 H 0.335300 0.474600 0.337300
H67 H 0.326700 0.305900 0.235800
H68 H 0.712500 0.424700 -0.026700
H69 H 0.637200 0.464200 0.014800
H70 H 0.817800 0.265600 0.178300
H71 H 0.818000 0.307900 0.068500
H72 H 0.854000 0.620000 0.347000
H73 H 0.770000 0.654000 0.377000
H74 H 0.702000 0.309000 0.335000
H75 H 0.728000 0.411000 0.407000
H76 H 0.673300 0.694100 0.764200
H77 H 0.664700 0.525400 0.662700
H78 H 0.777000 0.462300 0.601800
H79 H 0.901100 0.569400 0.648800
H80 H 0.911200 0.737800 0.751500
H81 H 0.876400 1.045300 0.978100
H82 H 1.008000 1.123700 1.036400
H83 H 1.039100 1.316400 0.991000
H84 H 0.938000 1.428400 0.883000
H85 H 0.803800 1.353600 0.826700
H86 H 0.943000 1.136900 0.766600
H87 H 0.958900 1.106800 0.660400
H88 H 0.959200 1.004900 0.739300
H89 H 0.656500 0.822800 0.512400
H90 H 0.722800 0.846400 0.451000
H91 H 0.744700 0.769200 0.549900
H92 H 0.675300 1.297800 0.650400
H93 H 0.670100 1.286600 0.534100
H94 H 0.606000 1.220700 0.581600
H95 H 0.542700 0.770500 0.655600
H96 H 0.514300 0.871900 0.575600
H97 H 0.272000 0.589000 0.593000
H98 H 0.298000 0.691000 0.665000
H99 H 0.230000 0.346000 0.623000
H100 H 0.146000 0.380000 0.653000
H101 H 0.182000 0.692100 0.931500
H102 H 0.182200 0.734400 0.821700
H103 H 0.362800 0.535800 0.985200
H104 H 0.287500 0.575300 1.026700
H105 H 0.157700 0.492200 0.965500
H106 H 0.140500 0.396100 0.879400
H107 H 0.521100 0.369000 0.675900
H108 H 0.432100 0.317700 0.658700
H109 H 0.445600 0.447600 0.623900
H110 H 0.567200 0.530100 0.808100
H111 H 0.506100 0.576200 0.870300
H112 H 0.491700 0.608200 0.755200
H113 H 0.546200 0.322500 0.862700
H114 H 0.485700 0.371900 0.924400
H115 H 0.457300 0.270500 0.844400
H116 H 0.394000 0.720700 0.918400
H117 H 0.329900 0.786600 0.965900
H118 H 0.324700 0.797800 0.849600
H119 H 0.255300 0.269200 0.950100
H120 H 0.277200 0.346400 1.049000
H121 H 0.343500 0.322800 0.987600
H122 H 0.040800 0.504900 0.760700
H123 H 0.041100 0.606800 0.839600
H124 H 0.057000 0.636900 0.733400
H125 H 0.196200 0.853600 0.673300
H126 H 0.062000 0.928400 0.617000
H127 H -0.039100 0.816400 0.509000
H128 H -0.008000 0.623700 0.463600
H129 H 0.123600 0.545300 0.521900
H130 H 0.088800 0.237800 0.748500
H131 H 0.098900 0.069400 0.851200
H132 H 0.223000 -0.037700 0.898200
H133 H 0.335300 0.025400 0.837300
H134 H 0.326700 0.194100 0.735800
H135 H 0.453800 0.822500 0.637300
H136 H 0.508300 1.108200 0.744800
H137 H 0.493900 1.076200 0.629700
H138 H 0.432800 1.030100 0.691900
H139 H 0.554400 0.947600 0.876100
H140 H 0.567900 0.817700 0.841300
H141 H 0.478900 0.869000 0.824100
H142 H 0.859500 0.896100 0.620600
H143 H 0.842300 0.992200 0.534500
H144 H 0.712500 1.075300 0.473300
H145 H 0.637200 1.035800 0.514800
H146 H 0.817800 1.234400 0.678300
H147 H 0.818000 1.192100 0.568500
H148 H 0.854000 0.880000 0.847000
H149 H 0.770000 0.846000 0.877000
H150 H 0.702000 1.191000 0.835000
H151 H 0.728000 1.089000 0.907000
H152 H 0.664700 0.974600 0.162700
C153 C 0.925200 1.350300 0.903400
C154 C 0.985100 1.284100 0.966100
C155 C 0.966200 1.170800 0.993100
C156 C 0.888300 1.124000 0.958000
C157 C 0.796600 0.851400 0.823400
C158 C 0.792500 0.738000 0.767600
C159 C 0.860100 0.695800 0.732600
C160 C 0.854300 0.595200 0.672100
C161 C 0.781400 0.531200 0.644600
C162 C 0.715100 0.569400 0.680200
C163 C 0.720200 0.670100 0.740300
C164 C 0.825700 1.190000 0.894200
C165 C 0.743600 1.137500 0.856200
C166 C 0.934500 1.079000 0.713100
C167 C 0.713800 0.836300 0.517500
C168 C 0.662100 1.245500 0.592900
C169 C 0.510000 0.841200 0.640000
C170 C 0.489100 1.047900 0.694600
C171 C 0.534800 0.888000 0.825500
C172 C 0.540900 0.935100 0.721900
C173 C 0.828800 0.966700 0.595800
C174 C 0.695200 1.050700 0.532500
C175 C 0.804000 1.170300 0.630500
C176 C 0.196000 -0.170300 0.369500
C177 C 0.304800 -0.050700 0.467500
C178 C 0.171200 0.033300 0.404200
C179 C 0.459100 0.064900 0.278100
C180 C 0.465200 0.112000 0.174500
C181 C 0.279800 0.170100 0.759700
C182 C 0.284900 0.069400 0.819800
C183 C 0.218600 0.031200 0.855400
C184 C 0.145700 0.095200 0.827900
C185 C 0.139900 0.195800 0.767400
C186 C 0.207500 0.238000 0.732400
C187 C 0.203400 0.351400 0.676600
C188 C 0.111700 0.624000 0.542000
C189 C 0.033800 0.670800 0.506900
C190 C 0.014900 0.784100 0.533900
C191 C 0.074800 0.850300 0.596600
C192 C 0.154500 0.805000 0.631400
C193 C 0.174300 0.690000 0.605800
C194 C 0.256400 0.637500 0.643800
C195 C 0.065500 0.579000 0.786900
C196 C 0.286200 0.336300 0.982500
C197 C 0.337900 0.745500 0.907100
C198 C 0.490000 0.341200 0.860000
C199 C 0.510900 0.547900 0.805400
C200 C 0.465200 0.388000 0.674500
C201 C 0.459100 0.435100 0.778100
C202 C 0.510900 -0.047900 0.305400
C203 C 0.490000 0.158800 0.360000
C204 C 0.337900 -0.245500 0.407100
C205 C 0.286200 0.163700 0.482500
C206 C 0.065500 -0.079000 0.286900
C207 C 0.804000 0.329700 0.130500
C208 C 0.695200 0.449300 0.032500
C209 C 0.828800 0.533300 0.095800
C210 C 0.540900 0.564900 0.221900
C211 C 0.534800 0.612000 0.325500
C212 C 0.489100 0.452100 0.194600
C213 C 0.510000 0.658800 0.140000
C214 C 0.662100 0.254500 0.092900
C215 C 0.713800 0.663700 0.017500
C216 C 0.934500 0.421000 0.213100
C217 C 0.743600 0.362500 0.356200
C218 C 0.825700 0.310000 0.394200
C219 C 0.845500 0.195000 0.368600
C220 C 0.925200 0.149700 0.403400
C221 C 0.985100 0.215900 0.466100
C222 C 0.966200 0.329200 0.493100
C223 C 0.888300 0.376000 0.458000
C224 C 0.796600 0.648600 0.323400
C225 C 0.792500 0.762000 0.267600
C226 C 0.860100 0.804200 0.232600
C227 C 0.854300 0.904800 0.172100
C228 C 0.781400 0.968800 0.144600
C229 C 0.715100 0.930600 0.180200
C230 C 0.720200 0.829900 0.240300
C231 C 0.171200 0.466700 0.904200
C232 C 0.304800 0.550700 0.967500
C233 C 0.196000 0.670300 0.869500
C234 C 0.256400 -0.137500 0.143800
C235 C 0.174300 -0.190000 0.105800
C236 C 0.154500 -0.305000 0.131400
C237 C 0.074800 -0.350300 0.096600
C238 C 0.014900 -0.284100 0.033900
C239 C 0.279800 0.329900 0.259700
C240 C 0.284900 0.430600 0.319800
C241 C 0.218600 0.468800 0.355400
C242 C 0.145700 0.404800 0.327900
C243 C 0.139900 0.304200 0.267400
C244 C 0.207500 0.262000 0.232400
C245 C 0.203400 0.148600 0.176600
C246 C 0.111700 -0.124000 0.042000
C247 C 0.033800 -0.170800 0.006900
C248 C 0.845500 1.305000 0.868600
N249 N 0.374500 0.462900 0.774400
N250 N 0.284200 0.640700 0.887800
N251 N 0.259700 0.444600 0.921700
N252 N 0.154100 0.561200 0.828100
N253 N 0.845900 0.438800 0.171900
N254 N 0.740300 0.555400 0.078300
N255 N 0.715800 0.359300 0.112200
N256 N 0.625500 0.537100 0.225600
N257 N 0.374500 0.037100 0.274400
N258 N 0.284200 -0.140700 0.387800
N259 N 0.625500 0.962900 0.725600
N260 N 0.715800 1.140700 0.612200
N261 N 0.740300 0.944600 0.578300
N262 N 0.845900 1.061200 0.671900
N263 N 0.154100 -0.061200 0.328100
N264 N 0.259700 0.055400 0.421700
Ti265 Ti 0.726110 0.500190 0.236430
Ti266 Ti 0.726110 0.999810 0.736430
Ti267 Ti 0.273890 0.499810 0.763570
Ti268 Ti 0.273890 0.000190 0.263570

#END
