
#######################################################################
#
#                 Cambridge Crystallographic Data Centre
#                                CCDC 
#
#######################################################################
#
# If this CIF has been generated from an entry in the Cambridge 
# Structural Database, then it will include bibliographic, chemical, 
# crystal, experimental, refinement or atomic coordinate data resulting 
# from the CCDC's data processing and validation procedures.
#
#######################################################################

data_ABIROV
_symmetry_cell_setting           monoclinic
_symmetry_space_group_name_H-M   'P 21/c'
_symmetry_Int_Tables_number      14
_space_group_name_Hall           '-P 2ybc'
loop_
_symmetry_equiv_pos_site_id
_symmetry_equiv_pos_as_xyz
1 x,y,z
2 -x,1/2+y,1/2-z
3 -x,-y,-z
4 x,1/2-y,1/2+z
_cell_length_a                   8.497(2)
_cell_length_b                   23.827(6)
_cell_length_c                   14.555(4)
_cell_angle_alpha                90
_cell_angle_beta                 94.664(4)
_cell_angle_gamma                90
_cell_volume                     2937.02
loop_
_atom_site_label
_atom_site_type_symbol
_atom_site_fract_x
_atom_site_fract_y
_atom_site_fract_z
N1 N 0.4522(3) 0.50463(12) 0.8723(2)
C1 C -0.2494(5) 0.29885(18) 1.1518(3)
H1 H -0.2911 0.2858 1.2065
C2 C -0.1114(5) 0.32977(16) 1.1592(3)
H2 H -0.0601 0.3367 1.2186
C3 C -0.0460(4) 0.35094(13) 1.0823(2)
C4 C -0.1279(3) 0.33931(11) 0.9912(2)
C5 C -0.0735(3) 0.35966(12) 0.9064(2)
C6 C 0.0663(3) 0.39663(12) 0.8994(2)
C7 C 0.2174(4) 0.37615(13) 0.8931(2)
H3 H 0.2339 0.3367 0.8942
C8 C 0.3455(4) 0.41135(14) 0.8853(2)
H4 H 0.4478 0.3957 0.8825
C9 C 0.3267(3) 0.46908(13) 0.8814(2)
C10 C 0.6066(4) 0.48281(16) 0.8627(3)
H5 H 0.6415 0.461 0.9178
H6 H 0.6801 0.5139 0.8556
H7 H 0.604 0.4585 0.8083
C11 C 0.4281(4) 0.56428(15) 0.8671(3)
H8 H 0.3576 0.5733 0.8124
H9 H 0.5298 0.5831 0.8629
H10 H 0.3805 0.5772 0.9225
C12 C 0.0492(4) 0.45413(13) 0.8959(3)
H11 H -0.0529 0.4697 0.9
C13 C 0.1739(4) 0.48979(14) 0.8868(2)
H12 H 0.156 0.5291 0.8842
C14 C -0.3272(5) 0.28646(16) 1.0695(4)
H13 H -0.4205 0.2643 1.0662
C15 C -0.2673(4) 0.30690(12) 0.9901(3)
C16 C -0.3518(4) 0.29444(14) 0.9027(3)
H14 H -0.4456 0.2726 0.9009
C17 C -0.3001(4) 0.31310(15) 0.8243(3)
H15 H -0.3577 0.3047 0.7672
C18 C -0.1579(4) 0.34587(14) 0.8251(3)
H16 H -0.1217 0.3582 0.7685
C19 C 0.1039(4) 0.38275(17) 1.0991(2)
H17 H 0.1285 0.3876 1.1656
H18 H 0.0926 0.4196 1.0695
H19 H 0.1896 0.362 1.0733
N1 N 0.5478(3) 1.00463(12) 0.6277(2)
C1 C 1.2494(5) 0.79885(18) 0.3482(3)
H1 H 1.2911 0.7858 0.2935
C2 C 1.1114(5) 0.82977(16) 0.3408(3)
H2 H 1.0601 0.8367 0.2814
C3 C 1.0460(4) 0.85094(13) 0.4177(2)
C4 C 1.1279(3) 0.83931(11) 0.5088(2)
C5 C 1.0735(3) 0.85966(12) 0.5936(2)
C6 C 0.9337(3) 0.89663(12) 0.6006(2)
C7 C 0.7826(4) 0.87615(13) 0.6069(2)
H3 H 0.7661 0.8367 0.6058
C8 C 0.6545(4) 0.91135(14) 0.6147(2)
H4 H 0.5522 0.8957 0.6175
C9 C 0.6733(3) 0.96908(13) 0.6186(2)
C10 C 0.3934(4) 0.98281(16) 0.6373(3)
H5 H 0.3585 0.961 0.5822
H6 H 0.3199 1.0139 0.6444
H7 H 0.396 0.9585 0.6917
C11 C 0.5719(4) 1.06428(15) 0.6329(3)
H8 H 0.6424 1.0733 0.6876
H9 H 0.4702 1.0831 0.6371
H10 H 0.6195 1.0772 0.5775
C12 C 0.9508(4) 0.95413(13) 0.6041(3)
H11 H 1.0529 0.9697 0.6
C13 C 0.8261(4) 0.98979(14) 0.6132(2)
H12 H 0.844 1.0291 0.6158
C14 C 1.3272(5) 0.78646(16) 0.4305(4)
H13 H 1.4205 0.7643 0.4338
C15 C 1.2673(4) 0.80690(12) 0.5099(3)
C16 C 1.3518(4) 0.79444(14) 0.5973(3)
H14 H 1.4456 0.7726 0.5991
C17 C 1.3001(4) 0.81310(15) 0.6757(3)
H15 H 1.3577 0.8047 0.7328
C18 C 1.1579(4) 0.84587(14) 0.6749(3)
H16 H 1.1217 0.8582 0.7315
C19 C 0.8961(4) 0.88275(17) 0.4009(2)
H17 H 0.8715 0.8876 0.3344
H18 H 0.9074 0.9196 0.4305
H19 H 0.8104 0.862 0.4267
N1 N 0.5478(3) 0.49537(12) 0.1277(2)
C1 C 1.2494(5) 0.70115(18) -0.1518(3)
H1 H 1.2911 0.7142 -0.2065
C2 C 1.1114(5) 0.67023(16) -0.1592(3)
H2 H 1.0601 0.6633 -0.2186
C3 C 1.0460(4) 0.64906(13) -0.0823(2)
C4 C 1.1279(3) 0.66069(11) 0.0088(2)
C5 C 1.0735(3) 0.64034(12) 0.0936(2)
C6 C 0.9337(3) 0.60337(12) 0.1006(2)
C7 C 0.7826(4) 0.62385(13) 0.1069(2)
H3 H 0.7661 0.6633 0.1058
C8 C 0.6545(4) 0.58865(14) 0.1147(2)
H4 H 0.5522 0.6043 0.1175
C9 C 0.6733(3) 0.53092(13) 0.1186(2)
C10 C 0.3934(4) 0.51719(16) 0.1373(3)
H5 H 0.3585 0.539 0.0822
H6 H 0.3199 0.4861 0.1444
H7 H 0.396 0.5415 0.1917
C11 C 0.5719(4) 0.43572(15) 0.1329(3)
H8 H 0.6424 0.4267 0.1876
H9 H 0.4702 0.4169 0.1371
H10 H 0.6195 0.4228 0.0775
C12 C 0.9508(4) 0.54587(13) 0.1041(3)
H11 H 1.0529 0.5303 0.1
C13 C 0.8261(4) 0.51021(14) 0.1132(2)
H12 H 0.844 0.4709 0.1158
C14 C 1.3272(5) 0.71354(16) -0.0695(4)
H13 H 1.4205 0.7357 -0.0662
C15 C 1.2673(4) 0.69310(12) 0.0099(3)
C16 C 1.3518(4) 0.70556(14) 0.0973(3)
H14 H 1.4456 0.7274 0.0991
C17 C 1.3001(4) 0.68690(15) 0.1757(3)
H15 H 1.3577 0.6953 0.2328
C18 C 1.1579(4) 0.65413(14) 0.1749(3)
H16 H 1.1217 0.6418 0.2315
C19 C 0.8961(4) 0.61725(17) -0.0991(2)
H17 H 0.8715 0.6124 -0.1656
H18 H 0.9074 0.5804 -0.0695
H19 H 0.8104 0.638 -0.0733
N1 N 0.4522(3) -0.00463(12) 0.3723(2)
C1 C -0.2494(5) 0.20115(18) 0.6518(3)
H1 H -0.2911 0.2142 0.7065
C2 C -0.1114(5) 0.17023(16) 0.6592(3)
H2 H -0.0601 0.1633 0.7186
C3 C -0.0460(4) 0.14906(13) 0.5823(2)
C4 C -0.1279(3) 0.16069(11) 0.4912(2)
C5 C -0.0735(3) 0.14034(12) 0.4064(2)
C6 C 0.0663(3) 0.10337(12) 0.3994(2)
C7 C 0.2174(4) 0.12385(13) 0.3931(2)
H3 H 0.2339 0.1633 0.3942
C8 C 0.3455(4) 0.08865(14) 0.3853(2)
H4 H 0.4478 0.1043 0.3825
C9 C 0.3267(3) 0.03092(13) 0.3814(2)
C10 C 0.6066(4) 0.01719(16) 0.3627(3)
H5 H 0.6415 0.039 0.4178
H6 H 0.6801 -0.0139 0.3556
H7 H 0.604 0.0415 0.3083
C11 C 0.4281(4) -0.06428(15) 0.3671(3)
H8 H 0.3576 -0.0733 0.3124
H9 H 0.5298 -0.0831 0.3629
H10 H 0.3805 -0.0772 0.4225
C12 C 0.0492(4) 0.04587(13) 0.3959(3)
H11 H -0.0529 0.0303 0.4
C13 C 0.1739(4) 0.01021(14) 0.3868(2)
H12 H 0.156 -0.0291 0.3842
C14 C -0.3272(5) 0.21354(16) 0.5695(4)
H13 H -0.4205 0.2357 0.5662
C15 C -0.2673(4) 0.19310(12) 0.4901(3)
C16 C -0.3518(4) 0.20556(14) 0.4027(3)
H14 H -0.4456 0.2274 0.4009
C17 C -0.3001(4) 0.18690(15) 0.3243(3)
H15 H -0.3577 0.1953 0.2672
C18 C -0.1579(4) 0.15413(14) 0.3251(3)
H16 H -0.1217 0.1418 0.2685
C19 C 0.1039(4) 0.11725(17) 0.5991(2)
H17 H 0.1285 0.1124 0.6656
H18 H 0.0926 0.0804 0.5695
H19 H 0.1896 0.138 0.5733
C20 C -0.1410(4) 0.53245(18) 0.6347(3)
H20 H -0.1324 0.5592 0.6859
H21 H -0.215 0.5025 0.6479
H22 H -0.1796 0.5519 0.5779
C21 C 0.0292(4) 0.44915(15) 0.6323(3)
H23 H 0.0815 0.4347 0.5796
H24 H -0.0746 0.4314 0.6339
H25 H 0.0938 0.4406 0.6895
N2 N 0.0100(3) 0.50879(13) 0.6234(2)
C22 C 0.1396(3) 0.54305(13) 0.6151(2)
C23 C 0.2910(4) 0.52031(13) 0.6143(3)
H26 H 0.3054 0.4808 0.619
C24 C 0.4191(4) 0.55468(13) 0.6068(3)
H27 H 0.5208 0.5382 0.6061
C25 C 0.4056(4) 0.61252(13) 0.6001(2)
C26 C 0.5479(4) 0.64927(13) 0.5991(2)
C27 C 0.6313(3) 0.66187(11) 0.5199(2)
C28 C 0.5795(4) 0.64248(14) 0.4264(3)
C29 C 0.6731(5) 0.65611(16) 0.3558(3)
H28 H 0.6418 0.6439 0.2949
C30 C 0.8111(5) 0.68705(18) 0.3713(3)
H29 H 0.8729 0.6947 0.3213
C31 C 0.1255(4) 0.60072(14) 0.6063(2)
H30 H 0.0237 0.6174 0.6046
C32 C 0.2555(4) 0.63430(14) 0.5999(2)
H31 H 0.2414 0.6738 0.5952
C33 C 0.6028(4) 0.67067(14) 0.6830(3)
H32 H 0.5477 0.6627 0.7358
C34 C 0.7423(5) 0.70492(15) 0.6925(3)
H33 H 0.7774 0.7197 0.7512
C35 C 0.8232(5) 0.71621(14) 0.6198(3)
H34 H 0.916 0.7385 0.6273
C36 C 0.7703(4) 0.69476(13) 0.5302(3)
C37 C 0.8597(5) 0.70669(16) 0.4570(4)
H35 H 0.9536 0.7283 0.4664
C38 C 0.4330(4) 0.61065(17) 0.4009(3)
H36 H 0.4236 0.6038 0.3343
H37 H 0.3418 0.6324 0.4178
H38 H 0.4367 0.5747 0.4337
C20 C 1.1410(4) 0.03245(18) 0.8653(3)
H20 H 1.1324 0.0592 0.8141
H21 H 1.215 0.0025 0.8521
H22 H 1.1796 0.0519 0.9221
C21 C 0.9708(4) -0.05085(15) 0.8677(3)
H23 H 0.9185 -0.0653 0.9204
H24 H 1.0746 -0.0686 0.8661
H25 H 0.9062 -0.0594 0.8105
N2 N 0.9900(3) 0.00879(13) 0.8766(2)
C22 C 0.8604(3) 0.04305(13) 0.8849(2)
C23 C 0.7090(4) 0.02031(13) 0.8857(3)
H26 H 0.6946 -0.0192 0.881
C24 C 0.5809(4) 0.05468(13) 0.8932(3)
H27 H 0.4792 0.0382 0.8939
C25 C 0.5944(4) 0.11252(13) 0.8999(2)
C26 C 0.4521(4) 0.14927(13) 0.9009(2)
C27 C 0.3687(3) 0.16187(11) 0.9801(2)
C28 C 0.4205(4) 0.14248(14) 1.0736(3)
C29 C 0.3269(5) 0.15611(16) 1.1442(3)
H28 H 0.3582 0.1439 1.2051
C30 C 0.1889(5) 0.18705(18) 1.1287(3)
H29 H 0.1271 0.1947 1.1787
C31 C 0.8745(4) 0.10072(14) 0.8937(2)
H30 H 0.9763 0.1174 0.8954
C32 C 0.7445(4) 0.13430(14) 0.9001(2)
H31 H 0.7586 0.1738 0.9048
C33 C 0.3972(4) 0.17067(14) 0.8170(3)
H32 H 0.4523 0.1627 0.7642
C34 C 0.2577(5) 0.20492(15) 0.8075(3)
H33 H 0.2226 0.2197 0.7488
C35 C 0.1768(5) 0.21621(14) 0.8802(3)
H34 H 0.084 0.2385 0.8727
C36 C 0.2297(4) 0.19476(13) 0.9698(3)
C37 C 0.1403(5) 0.20669(16) 1.0430(4)
H35 H 0.0464 0.2283 1.0336
C38 C 0.5670(4) 0.11065(17) 1.0991(3)
H36 H 0.5764 0.1038 1.1657
H37 H 0.6582 0.1324 1.0822
H38 H 0.5633 0.0747 1.0663
C20 C 1.1410(4) 0.46755(18) 0.3653(3)
H20 H 1.1324 0.4408 0.3141
H21 H 1.215 0.4975 0.3521
H22 H 1.1796 0.4481 0.4221
C21 C 0.9708(4) 0.55085(15) 0.3677(3)
H23 H 0.9185 0.5653 0.4204
H24 H 1.0746 0.5686 0.3661
H25 H 0.9062 0.5594 0.3105
N2 N 0.9900(3) 0.49121(13) 0.3766(2)
C22 C 0.8604(3) 0.45695(13) 0.3849(2)
C23 C 0.7090(4) 0.47969(13) 0.3857(3)
H26 H 0.6946 0.5192 0.381
C24 C 0.5809(4) 0.44532(13) 0.3932(3)
H27 H 0.4792 0.4618 0.3939
C25 C 0.5944(4) 0.38748(13) 0.3999(2)
C26 C 0.4521(4) 0.35073(13) 0.4009(2)
C27 C 0.3687(3) 0.33813(11) 0.4801(2)
C28 C 0.4205(4) 0.35752(14) 0.5736(3)
C29 C 0.3269(5) 0.34389(16) 0.6442(3)
H28 H 0.3582 0.3561 0.7051
C30 C 0.1889(5) 0.31295(18) 0.6287(3)
H29 H 0.1271 0.3053 0.6787
C31 C 0.8745(4) 0.39928(14) 0.3937(2)
H30 H 0.9763 0.3826 0.3954
C32 C 0.7445(4) 0.36570(14) 0.4001(2)
H31 H 0.7586 0.3262 0.4048
C33 C 0.3972(4) 0.32933(14) 0.3170(3)
H32 H 0.4523 0.3373 0.2642
C34 C 0.2577(5) 0.29508(15) 0.3075(3)
H33 H 0.2226 0.2803 0.2488
C35 C 0.1768(5) 0.28379(14) 0.3802(3)
H34 H 0.084 0.2615 0.3727
C36 C 0.2297(4) 0.30524(13) 0.4698(3)
C37 C 0.1403(5) 0.29331(16) 0.5430(4)
H35 H 0.0464 0.2717 0.5336
C38 C 0.5670(4) 0.38935(17) 0.5991(3)
H36 H 0.5764 0.3962 0.6657
H37 H 0.6582 0.3676 0.5822
H38 H 0.5633 0.4253 0.5663
C20 C -0.1410(4) 0.96755(18) 0.1347(3)
H20 H -0.1324 0.9408 0.1859
H21 H -0.215 0.9975 0.1479
H22 H -0.1796 0.9481 0.0779
C21 C 0.0292(4) 1.05085(15) 0.1323(3)
H23 H 0.0815 1.0653 0.0796
H24 H -0.0746 1.0686 0.1339
H25 H 0.0938 1.0594 0.1895
N2 N 0.0100(3) 0.99121(13) 0.1234(2)
C22 C 0.1396(3) 0.95695(13) 0.1151(2)
C23 C 0.2910(4) 0.97969(13) 0.1143(3)
H26 H 0.3054 1.0192 0.119
C24 C 0.4191(4) 0.94532(13) 0.1068(3)
H27 H 0.5208 0.9618 0.1061
C25 C 0.4056(4) 0.88748(13) 0.1001(2)
C26 C 0.5479(4) 0.85073(13) 0.0991(2)
C27 C 0.6313(3) 0.83813(11) 0.0199(2)
C28 C 0.5795(4) 0.85752(14) -0.0736(3)
C29 C 0.6731(5) 0.84389(16) -0.1442(3)
H28 H 0.6418 0.8561 -0.2051
C30 C 0.8111(5) 0.81295(18) -0.1287(3)
H29 H 0.8729 0.8053 -0.1787
C31 C 0.1255(4) 0.89928(14) 0.1063(2)
H30 H 0.0237 0.8826 0.1046
C32 C 0.2555(4) 0.86570(14) 0.0999(2)
H31 H 0.2414 0.8262 0.0952
C33 C 0.6028(4) 0.82933(14) 0.1830(3)
H32 H 0.5477 0.8373 0.2358
C34 C 0.7423(5) 0.79508(15) 0.1925(3)
H33 H 0.7774 0.7803 0.2512
C35 C 0.8232(5) 0.78379(14) 0.1198(3)
H34 H 0.916 0.7615 0.1273
C36 C 0.7703(4) 0.80524(13) 0.0302(3)
C37 C 0.8597(5) 0.79331(16) -0.0430(4)
H35 H 0.9536 0.7717 -0.0336
C38 C 0.4330(4) 0.88935(17) -0.0991(3)
H36 H 0.4236 0.8962 -0.1657
H37 H 0.3418 0.8676 -0.0822
H38 H 0.4367 0.9253 -0.0663

#END
