
#######################################################################
#
#                 Cambridge Crystallographic Data Centre
#                                CCDC 
#
#######################################################################
#
# If this CIF has been generated from an entry in the Cambridge 
# Structural Database, then it will include bibliographic, chemical, 
# crystal, experimental, refinement or atomic coordinate data resulting 
# from the CCDC's data processing and validation procedures.
#
#######################################################################

data_ABIRUZ
_symmetry_cell_setting           orthorhombic
_symmetry_space_group_name_H-M   'P n a 21'
_symmetry_Int_Tables_number      33
_space_group_name_Hall           'P 2c -2n'
loop_
_symmetry_equiv_pos_site_id
_symmetry_equiv_pos_as_xyz
1 x,y,z
2 1/2-x,1/2+y,1/2+z
3 1/2+x,1/2-y,z
4 -x,-y,1/2+z
_cell_length_a                   7.0441(9)
_cell_length_b                   9.738(2)
_cell_length_c                   17.841(3)
_cell_angle_alpha                90
_cell_angle_beta                 90
_cell_angle_gamma                90
_cell_volume                     1223.81
loop_
_atom_site_label
_atom_site_type_symbol
_atom_site_fract_x
_atom_site_fract_y
_atom_site_fract_z
O1 O 0.3298(6) 0.1806(4) 0.6001(2)
O2 O 0.1714(5) 0.1849(3) 0.3378(2)
N1 N 0.2462(8) 0.0372(3) 0.4707(3)
C1 C 0.1467(6) -0.1600(4) 0.5466(3)
C2 C 0.1172(7) -0.2149(5) 0.6148(3)
C3 C 0.1578(8) -0.1340(6) 0.6795(3)
C4 C 0.2232(6) -0.0034(5) 0.6736(2)
C5 C 0.2598(6) 0.0462(5) 0.6045(3)
C6 C 0.2235(6) -0.0263(4) 0.5363(3)
C7 C 0.2535(9) 0.1815(3) 0.4696(4)
C8 C 0.2967(6) 0.2540(5) 0.5357(2)
C9 C 0.2823(7) 0.3997(5) 0.5333(3)
C10 C 0.2562(9) 0.4663(3) 0.4647(4)
C11 C 0.2127(6) 0.3910(5) 0.4009(3)
C12 C 0.2215(6) 0.2539(5) 0.4051(3)
C13 C 0.3476(7) -0.1555(6) 0.3896(3)
C14 C 0.3816(5) -0.2093(4) 0.3163(2)
C15 C 0.3431(7) -0.1399(5) 0.2549(3)
C16 C 0.2661(8) -0.0056(6) 0.2641(3)
C17 C 0.2388(6) 0.0537(6) 0.3346(2)
C18 C 0.2760(6) -0.0282(5) 0.3972(3)
H1 H 0.1117(6) -0.2081(4) 0.5050(3)
H2 H 0.0772(7) -0.3044(5) 0.6173(3)
H3 H 0.1427(8) -0.1715(5) 0.7283(3)
H4 H 0.2646(6) 0.0449(5) 0.7148(2)
H5 H 0.3157(7) 0.4444(5) 0.5833(3)
H6 H 0.2566(9) 0.5662(3) 0.4698(4)
H7 H 0.1946(6) 0.4406(5) 0.3572(3)
H8 H 0.3694(7) -0.2175(6) 0.4367(3)
H9 H 0.4379(5) -0.3055(4) 0.3084(2)
H10 H 0.3730(7) -0.1800(5) 0.2041(3)
H11 H 0.2572(8) 0.0545(6) 0.2180(3)
O1 O 0.1702(6) 0.6806(4) 1.1001(2)
O2 O 0.3286(5) 0.6849(3) 0.8378(2)
N1 N 0.2538(8) 0.5372(3) 0.9707(3)
C1 C 0.3533(6) 0.3400(4) 1.0466(3)
C2 C 0.3828(7) 0.2851(5) 1.1148(3)
C3 C 0.3422(8) 0.3660(6) 1.1795(3)
C4 C 0.2768(6) 0.4966(5) 1.1736(2)
C5 C 0.2402(6) 0.5462(5) 1.1045(3)
C6 C 0.2765(6) 0.4737(4) 1.0363(3)
C7 C 0.2465(9) 0.6815(3) 0.9696(4)
C8 C 0.2033(6) 0.7540(5) 1.0357(2)
C9 C 0.2177(7) 0.8997(5) 1.0333(3)
C10 C 0.2438(9) 0.9663(3) 0.9647(4)
C11 C 0.2873(6) 0.8910(5) 0.9009(3)
C12 C 0.2785(6) 0.7539(5) 0.9051(3)
C13 C 0.1524(7) 0.3445(6) 0.8896(3)
C14 C 0.1184(5) 0.2907(4) 0.8163(2)
C15 C 0.1569(7) 0.3601(5) 0.7549(3)
C16 C 0.2339(8) 0.4944(6) 0.7641(3)
C17 C 0.2612(6) 0.5537(6) 0.8346(2)
C18 C 0.2240(6) 0.4718(5) 0.8972(3)
H1 H 0.3883(6) 0.2919(4) 1.0050(3)
H2 H 0.4228(7) 0.1956(5) 1.1173(3)
H3 H 0.3573(8) 0.3285(5) 1.2283(3)
H4 H 0.2354(6) 0.5449(5) 1.2148(2)
H5 H 0.1843(7) 0.9444(5) 1.0833(3)
H6 H 0.2434(9) 1.0662(3) 0.9698(4)
H7 H 0.3054(6) 0.9406(5) 0.8572(3)
H8 H 0.1306(7) 0.2825(6) 0.9367(3)
H9 H 0.0621(5) 0.1945(4) 0.8084(2)
H10 H 0.1270(7) 0.3200(5) 0.7041(3)
H11 H 0.2428(8) 0.5545(6) 0.7180(3)
O1 O 0.8298(6) 0.3194(4) 0.6001(2)
O2 O 0.6714(5) 0.3151(3) 0.3378(2)
N1 N 0.7462(8) 0.4628(3) 0.4707(3)
C1 C 0.6467(6) 0.6600(4) 0.5466(3)
C2 C 0.6172(7) 0.7149(5) 0.6148(3)
C3 C 0.6578(8) 0.6340(6) 0.6795(3)
C4 C 0.7232(6) 0.5034(5) 0.6736(2)
C5 C 0.7598(6) 0.4538(5) 0.6045(3)
C6 C 0.7235(6) 0.5263(4) 0.5363(3)
C7 C 0.7535(9) 0.3185(3) 0.4696(4)
C8 C 0.7967(6) 0.2460(5) 0.5357(2)
C9 C 0.7823(7) 0.1003(5) 0.5333(3)
C10 C 0.7562(9) 0.0337(3) 0.4647(4)
C11 C 0.7127(6) 0.1090(5) 0.4009(3)
C12 C 0.7215(6) 0.2461(5) 0.4051(3)
C13 C 0.8476(7) 0.6555(6) 0.3896(3)
C14 C 0.8816(5) 0.7093(4) 0.3163(2)
C15 C 0.8431(7) 0.6399(5) 0.2549(3)
C16 C 0.7661(8) 0.5056(6) 0.2641(3)
C17 C 0.7388(6) 0.4463(6) 0.3346(2)
C18 C 0.7760(6) 0.5282(5) 0.3972(3)
H1 H 0.6117(6) 0.7081(4) 0.5050(3)
H2 H 0.5772(7) 0.8044(5) 0.6173(3)
H3 H 0.6427(8) 0.6715(5) 0.7283(3)
H4 H 0.7646(6) 0.4551(5) 0.7148(2)
H5 H 0.8157(7) 0.0556(5) 0.5833(3)
H6 H 0.7566(9) -0.0662(3) 0.4698(4)
H7 H 0.6946(6) 0.0594(5) 0.3572(3)
H8 H 0.8694(7) 0.7175(6) 0.4367(3)
H9 H 0.9379(5) 0.8055(4) 0.3084(2)
H10 H 0.8730(7) 0.6800(5) 0.2041(3)
H11 H 0.7572(8) 0.4455(6) 0.2180(3)
O1 O 0.6702(6) 0.8194(4) 1.1001(2)
O2 O 0.8286(5) 0.8151(3) 0.8378(2)
N1 N 0.7538(8) 0.9628(3) 0.9707(3)
C1 C 0.8533(6) 1.1600(4) 1.0466(3)
C2 C 0.8828(7) 1.2149(5) 1.1148(3)
C3 C 0.8422(8) 1.1340(6) 1.1795(3)
C4 C 0.7768(6) 1.0034(5) 1.1736(2)
C5 C 0.7402(6) 0.9538(5) 1.1045(3)
C6 C 0.7765(6) 1.0263(4) 1.0363(3)
C7 C 0.7465(9) 0.8185(3) 0.9696(4)
C8 C 0.7033(6) 0.7460(5) 1.0357(2)
C9 C 0.7177(7) 0.6003(5) 1.0333(3)
C10 C 0.7438(9) 0.5337(3) 0.9647(4)
C11 C 0.7873(6) 0.6090(5) 0.9009(3)
C12 C 0.7785(6) 0.7461(5) 0.9051(3)
C13 C 0.6524(7) 1.1555(6) 0.8896(3)
C14 C 0.6184(5) 1.2093(4) 0.8163(2)
C15 C 0.6569(7) 1.1399(5) 0.7549(3)
C16 C 0.7339(8) 1.0056(6) 0.7641(3)
C17 C 0.7612(6) 0.9463(6) 0.8346(2)
C18 C 0.7240(6) 1.0282(5) 0.8972(3)
H1 H 0.8883(6) 1.2081(4) 1.0050(3)
H2 H 0.9228(7) 1.3044(5) 1.1173(3)
H3 H 0.8573(8) 1.1715(5) 1.2283(3)
H4 H 0.7354(6) 0.9551(5) 1.2148(2)
H5 H 0.6843(7) 0.5556(5) 1.0833(3)
H6 H 0.7434(9) 0.4338(3) 0.9698(4)
H7 H 0.8054(6) 0.5594(5) 0.8572(3)
H8 H 0.6306(7) 1.2175(6) 0.9367(3)
H9 H 0.5621(5) 1.3055(4) 0.8084(2)
H10 H 0.6270(7) 1.1800(5) 0.7041(3)
H11 H 0.7428(8) 0.9455(6) 0.7180(3)

#END
