./ABIVIR_from_POSCAR.cif_generated_by_CrystalShift
_symmetry_cell_setting triclinic
_symmetry_space_group_name_H-M 'P 1'
loop_
_symmetry_equiv_pos_site_id
_symmetry_equiv_pos_as_xyz
1 x,y,z
_cell_length_a 11.270100
_cell_length_b 13.493300
_cell_length_c 9.103500
_cell_angle_alpha 90.000000
_cell_angle_beta 95.296000
_cell_angle_gamma 90.000000
_cell_volume 1378.467190
loop_
_atom_site_label
_atom_site_type_symbol
_atom_site_fract_x
_atom_site_fract_y
_atom_site_fract_z
H1 H 0.505100 0.927900 0.807700
H2 H 0.445000 0.403400 0.438600
H3 H 0.256300 0.344500 0.354100
H4 H 0.119500 0.302400 0.521000
H5 H 0.168800 0.324500 0.774700
H6 H 0.618600 0.243200 1.128800
H7 H 0.675000 0.352000 1.114900
H8 H 0.861300 0.040500 0.882700
H9 H 0.712900 0.105300 1.018600
H10 H 0.800500 0.382700 0.902800
H11 H 0.947000 0.319600 0.766000
H12 H 1.047000 0.011100 0.806700
H13 H 1.088400 0.030500 0.645700
H14 H 0.950700 0.011500 0.665900
H15 H 0.049300 0.511500 0.834100
H16 H 0.555000 0.903400 1.061400
H17 H 0.743700 0.844500 1.145900
H18 H 0.880500 0.802400 0.979000
H19 H 0.831200 0.824500 0.725300
H20 H 0.381400 0.743200 0.371200
H21 H 0.325000 0.852000 0.385100
H22 H 0.049300 0.988500 0.334100
H23 H -0.088400 0.969500 0.354300
H24 H -0.047000 0.988900 0.193300
H25 H 0.053000 0.680400 0.234000
H26 H 0.199500 0.617300 0.097200
H27 H 0.287100 0.894700 -0.018600
H28 H 0.138700 0.959500 0.117300
H29 H 0.325000 0.648000 -0.114900
H30 H 0.381400 0.756800 -0.128800
H31 H 0.831200 0.675500 0.225300
H32 H 0.880500 0.697600 0.479000
H33 H 0.743700 0.655500 0.645900
H34 H 0.555000 0.596600 0.561400
H35 H 0.505100 0.572100 0.307700
H36 H 0.494900 0.072100 0.192300
H37 H 0.445000 0.096600 -0.061400
H38 H 0.256300 0.155500 -0.145900
H39 H 0.119500 0.197600 0.021000
H40 H 0.168800 0.175500 0.274700
H41 H 0.618600 0.256800 0.628800
H42 H 0.675000 0.148000 0.614900
H43 H 0.861300 0.459500 0.382700
H44 H 0.712900 0.394700 0.518600
H45 H 0.800500 0.117300 0.402800
H46 H 0.947000 0.180400 0.266000
H47 H 1.047000 0.488900 0.306700
H48 H 1.088400 0.469500 0.145700
H49 H 0.950700 0.488500 0.165900
H50 H -0.088400 0.530500 0.854300
H51 H 0.138700 0.540500 0.617300
H52 H 0.287100 0.605300 0.481400
H53 H 0.199500 0.882700 0.597200
H54 H 0.053000 0.819600 0.734000
H55 H -0.047000 0.511100 0.693300
H56 H 0.494900 0.427900 0.692300
C57 C 0.388800 0.111600 0.007000
C58 C 0.277000 0.147500 -0.043100
C59 C 0.195400 0.171900 0.056000
C60 C 0.224200 0.158800 0.206100
C61 C 0.335300 0.120900 0.254300
C62 C 0.459700 0.131100 0.498700
C63 C 0.645700 0.207400 0.558800
C64 C 0.848900 0.390000 0.386400
C65 C 0.760800 0.350900 0.467500
C66 C 0.741700 0.249800 0.475100
C67 C 0.812500 0.186900 0.398800
C68 C 0.899600 0.224200 0.317600
C69 C 0.918300 0.326000 0.311300
C70 C 1.024700 0.458500 0.210200
C71 C 1.024700 0.041500 0.710200
C72 C 0.918300 0.174000 0.811300
C73 C 0.899600 0.275800 0.817600
C74 C 0.812500 0.313100 0.898800
C75 C 0.741700 0.250200 0.975100
C76 C 0.760800 0.149100 0.967500
C77 C 0.848900 0.110000 0.886400
C78 C 0.645700 0.292600 1.058800
C79 C 0.459700 0.368900 0.998700
C80 C 0.335300 0.379100 0.754300
C81 C 0.224200 0.341200 0.706100
C82 C 0.195400 0.328100 0.556000
C83 C 0.277000 0.352500 0.456900
C84 C 0.388800 0.388400 0.507000
C85 C 0.418800 0.402600 0.657100
C86 C 0.581200 0.597400 0.342900
C87 C 0.581200 0.902600 0.842900
C88 C 0.611200 0.888400 0.993000
C89 C 0.723000 0.852500 1.043100
C90 C 0.804600 0.828100 0.944000
C91 C 0.775800 0.841200 0.793900
C92 C 0.611200 0.611600 0.493000
C93 C 0.723000 0.647500 0.543100
C94 C 0.804600 0.671900 0.444000
C95 C 0.775800 0.658800 0.293900
C96 C 0.664700 0.620900 0.245700
C97 C 0.540300 0.631100 0.001300
C98 C 0.354300 0.707400 -0.058800
C99 C 0.151100 0.890000 0.113600
C100 C 0.239200 0.850900 0.032500
C101 C 0.258300 0.749800 0.024900
C102 C 0.187500 0.686900 0.101200
C103 C 0.100400 0.724200 0.182400
C104 C 0.081700 0.826000 0.188700
C105 C 0.418800 0.097400 0.157100
C106 C -0.024700 0.541500 0.789800
C107 C 0.081700 0.674000 0.688700
C108 C 0.100400 0.775800 0.682400
C109 C 0.187500 0.813100 0.601200
C110 C 0.258300 0.750200 0.524900
C111 C 0.239200 0.649100 0.532500
C112 C 0.151100 0.610000 0.613600
C113 C 0.354300 0.792600 0.441200
C114 C 0.540300 0.868900 0.501300
C115 C 0.664700 0.879100 0.745700
C116 C -0.024700 0.958500 0.289800
N117 N 0.659800 0.553600 -0.124700
N118 N 0.363500 0.395000 0.908700
N119 N 0.288300 0.444400 0.992400
N120 N 0.340200 0.446400 1.124700
N121 N 0.552000 0.899400 0.366100
N122 N 0.659800 0.946400 0.375300
N123 N 0.711700 0.944400 0.507600
N124 N 0.636500 0.895000 0.591300
N125 N 0.711700 0.555600 0.007600
N126 N 0.636500 0.605000 0.091300
N127 N 0.448000 0.399400 1.133900
N128 N 0.552000 0.600600 -0.133900
N129 N 0.448000 0.100600 0.633900
N130 N 0.363500 0.105000 0.408700
N131 N 0.288300 0.055600 0.492400
N132 N 0.340200 0.053600 0.624700
O133 O 0.452100 0.680800 0.052300
O134 O -0.007400 0.854700 0.271700
O135 O 0.452100 0.819200 0.552300
O136 O -0.007400 0.645300 0.771700
O137 O 1.007400 0.145300 0.728300
O138 O 0.547900 0.180800 0.447700
O139 O 1.007400 0.354700 0.228300
O140 O 0.547900 0.319200 0.947700

#END
