./ABIVUC_from_POSCAR.cif_generated_by_CrystalShift
_symmetry_cell_setting triclinic
_symmetry_space_group_name_H-M 'P 1'
loop_
_symmetry_equiv_pos_site_id
_symmetry_equiv_pos_as_xyz
1 x,y,z
_cell_length_a 10.129000
_cell_length_b 9.265000
_cell_length_c 15.696000
_cell_angle_alpha 90.000000
_cell_angle_beta 91.970000
_cell_angle_gamma 90.000000
_cell_volume 1472.123430
loop_
_atom_site_label
_atom_site_type_symbol
_atom_site_fract_x
_atom_site_fract_y
_atom_site_fract_z
H1 H 1.171700 0.447000 1.175000
H2 H -0.080900 0.128900 0.757400
H3 H 0.798500 0.944600 1.445500
H4 H 0.811800 0.920100 1.592500
H5 H 0.419100 0.371100 0.257400
H6 H 0.671700 1.053000 1.675000
H7 H 0.259900 0.501800 0.325000
H8 H 0.484100 1.238000 1.681400
H9 H 0.251500 0.493800 0.471700
H10 H 0.341300 1.389600 1.612700
H11 H 0.251500 1.493800 1.471700
H12 H 0.341300 0.389600 0.612700
H13 H 0.259900 1.501800 1.325000
H14 H 0.484100 0.238000 0.681400
H15 H 0.419100 1.371100 1.257400
H16 H -0.158700 0.110400 1.112700
H17 H 0.671700 0.053000 0.675000
H18 H 0.201500 0.055400 0.554500
H19 H 0.811800 -0.079900 0.592500
H20 H 0.188200 0.079900 0.407500
H21 H 0.798500 -0.055400 0.445500
H22 H 0.328300 -0.053000 0.325000
H23 H 0.515900 -0.238000 0.318600
H24 H 0.658700 -0.389600 0.387300
H25 H 0.748500 -0.493800 0.528300
H26 H 0.740100 -0.501800 0.675000
H27 H 0.512500 -0.242600 -0.032020
H28 H 0.580900 -0.371100 0.742600
H29 H 0.487500 1.242600 1.032020
H30 H -0.015900 0.262000 1.181400
H31 H 0.012500 0.742600 0.467980
H32 H 0.487500 0.242600 1.032020
H33 H 0.580900 0.628900 0.742600
H34 H 0.740100 0.498200 0.675000
H35 H 0.748500 0.506200 0.528300
H36 H 0.512500 -0.242600 0.967980
H37 H 0.798500 -0.055400 1.445500
H38 H 0.811800 -0.079900 1.592500
H39 H 0.671700 0.053000 1.675000
H40 H 0.484100 0.238000 1.681400
H41 H 0.487500 0.242600 0.032020
H42 H 0.341300 0.389600 1.612700
H43 H 0.251500 0.493800 1.471700
H44 H -0.012500 0.257400 0.532020
H45 H 0.259900 0.501800 1.325000
H46 H 0.419100 0.371100 1.257400
H47 H 0.658700 0.610400 0.387300
H48 H 0.515900 0.762000 0.318600
H49 H 0.580900 -0.371100 -0.257400
H50 H 1.298500 0.555400 0.945500
H51 H 0.740100 -0.501800 -0.325000
H52 H 1.311800 0.579900 1.092500
H53 H 0.748500 -0.493800 -0.471700
H54 H 0.984100 0.262000 1.181400
H55 H 0.841300 0.110400 1.112700
H56 H 0.658700 -0.389600 -0.612700
H57 H 0.751500 0.006200 0.971700
H58 H 0.515900 -0.238000 -0.681400
H59 H 0.759900 -0.001800 0.825000
H60 H 0.919100 0.128900 0.757400
H61 H 0.328300 -0.053000 -0.675000
H62 H 0.328300 0.947000 0.325000
H63 H 0.188200 0.079900 -0.592500
H64 H 0.171700 0.447000 1.175000
H65 H 0.201500 0.055400 -0.445500
H66 H 0.188200 1.079900 0.407500
H67 H 1.012500 0.742600 0.467980
H68 H 0.201500 1.055400 0.554500
H69 H -0.248500 0.006200 0.971700
H70 H 0.987500 0.257400 0.532020
H71 H 0.701500 0.444600 0.054500
H72 H -0.298500 0.444600 0.054500
H73 H 0.298500 0.555400 0.945500
H74 H 0.688200 0.420100 -0.092500
H75 H -0.311800 0.420100 -0.092500
H76 H 0.828300 0.553000 -0.175000
H77 H 0.419100 1.371100 0.257400
H78 H 1.015900 0.738000 -0.181400
H79 H 0.259900 1.501800 0.325000
H80 H 0.512500 0.757400 0.967980
H81 H 0.251500 1.493800 0.471700
H82 H 1.158700 0.889600 -0.112700
H83 H 1.248500 0.993800 0.028300
H84 H 0.341300 1.389600 0.612700
H85 H 1.240100 1.001800 0.175000
H86 H 0.484100 1.238000 0.681400
H87 H 1.080900 0.871100 0.242600
H88 H -0.240100 -0.001800 0.825000
H89 H 0.671700 1.053000 0.675000
H90 H 0.080900 0.871100 0.242600
H91 H 0.811800 0.920100 0.592500
H92 H 0.311800 0.579900 1.092500
H93 H 0.798500 0.944600 0.445500
H94 H 0.240100 1.001800 0.175000
H95 H 0.201500 1.055400 -0.445500
H96 H 0.188200 1.079900 -0.592500
H97 H 0.328300 0.947000 -0.675000
H98 H 0.515900 0.762000 -0.681400
H99 H 0.512500 0.757400 -0.032020
H100 H 0.658700 0.610400 -0.612700
H101 H 0.748500 0.506200 -0.471700
H102 H 0.740100 0.498200 -0.325000
H103 H -0.171700 0.553000 -0.175000
H104 H 0.580900 0.628900 -0.257400
H105 H 0.248500 0.993800 0.028300
H106 H 0.015900 0.738000 -0.181400
H107 H 0.487500 1.242600 0.032020
H108 H 0.158700 0.889600 -0.112700
C109 C 0.406500 1.210500 -0.125600
C110 C 0.014400 0.745500 -0.122400
C111 C 0.461600 1.099500 -0.063450
C112 C 0.492100 1.144800 0.019100
C113 C 0.470700 0.952200 -0.082970
C114 C 0.441800 0.899100 -0.171620
C115 C 0.099400 0.836200 -0.081600
C116 C 0.099100 0.851000 0.009500
C117 C 0.243600 0.499700 0.978400
C118 C -0.078400 0.660400 -0.076900
C119 C 0.186300 0.939000 0.056200
C120 C 0.585200 0.634900 -0.316300
C121 C -0.168400 0.563300 -0.116100
C122 C 0.680700 0.555000 -0.356700
C123 C -0.251400 0.483800 -0.067100
C124 C 0.686300 0.561000 -0.443800
C125 C 0.558200 1.100900 0.171620
C126 C 0.599100 0.649000 -0.490500
C127 C 0.599400 0.663800 -0.581600
C128 C 0.529300 1.047800 0.082970
C129 C 0.514400 0.754500 -0.622400
C130 C 0.507900 0.855200 -0.019100
C131 C 0.421600 0.839600 -0.576900
C132 C 0.331600 0.936700 -0.616100
C133 C 0.538400 0.900500 0.063450
C134 C 0.248600 1.016200 -0.567100
C135 C 0.593500 0.789500 0.125600
C136 C 0.256400 0.999700 -0.478400
C137 C 0.492100 1.270700 0.444700
C138 C 0.419400 0.827700 -0.487800
C139 C 0.507900 0.729300 -0.444700
C140 C 0.580600 1.172300 0.487800
C141 C 0.180700 0.945000 0.143300
C142 C 0.743600 1.000300 0.478400
C143 C 0.251400 0.516200 1.067100
C144 C 0.751400 0.983800 0.567100
C145 C 0.085200 0.865100 0.183700
C146 C 0.668400 1.063300 0.616100
C147 C 1.085200 0.865100 0.183700
C148 C 0.578400 1.160400 0.576900
C149 C 1.180700 0.945000 0.143300
C150 C 0.485600 1.245500 0.622400
C151 C 1.186300 0.939000 0.056200
C152 C 0.400600 1.336200 0.581600
C153 C 1.099100 0.851000 0.009500
C154 C 1.099400 0.836200 -0.081600
C155 C 0.400900 1.351000 0.490500
C156 C 0.313700 1.439000 0.443800
C157 C 0.319300 1.445000 0.356700
C158 C 0.921600 0.660400 -0.076900
C159 C 0.831600 0.563300 -0.116100
C160 C 0.414800 1.365100 0.316300
C161 C 0.748600 0.483800 -0.067100
C162 C -0.243600 0.500300 0.021600
C163 C 0.756400 0.500300 0.021600
C164 C 0.080600 0.327700 0.987800
C165 C 0.919400 0.672300 0.012200
C166 C 1.007900 0.770700 0.055300
C167 C 0.906500 0.289500 0.374400
C168 C 0.961600 0.400500 0.436550
C169 C 0.992100 0.355200 0.519100
C170 C -0.007900 0.229300 0.944700
C171 C 0.970700 0.547800 0.417030
C172 C 0.941800 0.600900 0.328380
C173 C -0.186300 0.061000 0.943800
C174 C -0.080600 0.672300 0.012200
C175 C 0.507900 0.729300 0.555300
C176 C 0.419400 0.827700 0.512200
C177 C 1.029300 0.452200 0.582970
C178 C 1.038400 0.599500 0.563450
C179 C 1.093500 0.710500 0.625600
C180 C 0.007900 0.770700 0.055300
C181 C 0.256400 0.999700 0.521600
C182 C 1.007900 0.644800 0.480900
C183 C 0.507900 -0.270700 -0.444700
C184 C 1.058200 0.399100 0.671620
C185 C 0.419400 -0.172300 -0.487800
C186 C 0.248600 1.016200 0.432900
C187 C 0.256400 -0.000300 -0.478400
C188 C 0.248600 0.016200 -0.567100
C189 C 0.331600 0.936700 0.383900
C190 C 0.914800 0.134900 0.816300
C191 C 0.331600 -0.063300 -0.616100
C192 C 0.819300 0.055000 0.856700
C193 C 0.421600 -0.160400 -0.576900
C194 C 0.813700 0.061000 0.943800
C195 C 0.514400 -0.245500 -0.622400
C196 C 0.900900 0.149000 0.990500
C197 C 0.900600 0.163800 1.081600
C198 C 0.599400 -0.336200 -0.581600
C199 C 0.985600 0.254500 1.122400
C200 C 0.599100 -0.351000 -0.490500
C201 C 1.078400 0.339600 1.076900
C202 C 1.168400 0.436700 1.116100
C203 C -0.180700 0.055000 0.856700
C204 C 1.251400 0.516200 1.067100
C205 C 0.686300 -0.439000 -0.443800
C206 C 1.243600 0.499700 0.978400
C207 C 0.680700 -0.445000 -0.356700
C208 C 1.080600 0.327700 0.987800
C209 C 0.992100 0.229300 0.944700
C210 C 0.421600 0.839600 0.423100
C211 C 0.168400 0.436700 1.116100
C212 C 0.585200 -0.365100 -0.316300
C213 C 0.078400 0.339600 1.076900
C214 C 0.514400 0.754500 0.377600
C215 C -0.093500 0.289500 0.374400
C216 C 0.414800 0.365100 1.316300
C217 C -0.038400 0.400500 0.436550
C218 C 0.319300 0.445000 1.356700
C219 C -0.007900 0.355200 0.519100
C220 C 0.313700 0.439000 1.443800
C221 C -0.029300 0.547800 0.417030
C222 C 0.400900 0.351000 1.490500
C223 C 0.400600 0.336200 1.581600
C224 C 0.441800 -0.100900 -0.171620
C225 C 0.485600 0.245500 1.622400
C226 C 0.492100 0.144800 0.019100
C227 C 0.578400 0.160400 1.576900
C228 C 0.668400 0.063300 1.616100
C229 C -0.058200 0.600900 0.328380
C230 C 0.751400 -0.016200 1.567100
C231 C 0.029300 0.452200 0.582970
C232 C 0.743600 0.000300 1.478400
C233 C 0.406500 0.210500 -0.125600
C234 C 0.580600 0.172300 1.487800
C235 C 0.492100 0.270700 1.444700
C236 C 0.593500 -0.210500 1.125600
C237 C 0.538400 -0.099500 1.063450
C238 C 0.507900 -0.144800 0.980900
C239 C 0.461600 0.099500 -0.063450
C240 C 0.529300 0.047800 1.082970
C241 C 0.558200 0.100900 1.171620
C242 C 0.599400 0.663800 0.418400
C243 C 0.599100 0.649000 0.509500
C244 C 0.470700 -0.047800 -0.082970
C245 C 0.686300 0.561000 0.556200
C246 C 0.038400 0.599500 0.563450
C247 C 0.470700 -0.047800 0.917030
C248 C 0.461600 0.099500 0.936550
C249 C 0.406500 0.210500 0.874400
C250 C 0.680700 0.555000 0.643300
C251 C 0.093500 0.710500 0.625600
C252 C 0.492100 0.144800 1.019100
C253 C 0.007900 0.644800 0.480900
C254 C 0.441800 -0.100900 0.828380
C255 C 0.585200 0.634900 0.683700
C256 C -0.099100 0.149000 0.990500
C257 C 0.058200 0.399100 0.671620
C258 C 0.441800 0.899100 0.828380
C259 C 0.558200 0.100900 0.171620
C260 C 0.585200 -0.365100 0.683700
C261 C 0.529300 0.047800 0.082970
C262 C 0.680700 -0.445000 0.643300
C263 C 0.507900 -0.144800 -0.019100
C264 C 0.686300 -0.439000 0.556200
C265 C 0.538400 -0.099500 0.063450
C266 C 0.599100 -0.351000 0.509500
C267 C 0.599400 -0.336200 0.418400
C268 C 0.593500 -0.210500 0.125600
C269 C 0.514400 -0.245500 0.377600
C270 C 0.492100 0.270700 0.444700
C271 C 0.421600 -0.160400 0.423100
C272 C 0.331600 -0.063300 0.383900
C273 C 0.580600 0.172300 0.487800
C274 C 0.248600 0.016200 0.432900
C275 C 0.743600 0.000300 0.478400
C276 C 0.256400 -0.000300 0.521600
C277 C 0.751400 -0.016200 0.567100
C278 C 0.419400 -0.172300 0.512200
C279 C 0.507900 -0.270700 0.555300
C280 C 0.492100 1.144800 1.019100
C281 C 0.406500 1.210500 0.874400
C282 C -0.014400 0.254500 1.122400
C283 C 0.668400 0.063300 0.616100
C284 C 0.461600 1.099500 0.936550
C285 C -0.099400 0.163800 1.081600
C286 C 0.470700 0.952200 0.917030
C287 C 0.558200 1.100900 1.171620
C288 C 0.414800 1.365100 1.316300
C289 C 0.578400 0.160400 0.576900
C290 C 0.319300 1.445000 1.356700
C291 C 0.485600 0.245500 0.622400
C292 C 0.313700 1.439000 1.443800
C293 C 0.400600 0.336200 0.581600
C294 C 0.400900 1.351000 1.490500
C295 C 0.400600 1.336200 1.581600
C296 C 0.400900 0.351000 0.490500
C297 C 0.485600 1.245500 1.622400
C298 C 0.313700 0.439000 0.443800
C299 C 0.578400 1.160400 1.576900
C300 C 0.668400 1.063300 1.616100
C301 C 0.319300 0.445000 0.356700
C302 C 0.751400 0.983800 1.567100
C303 C 0.414800 0.365100 0.316300
C304 C 0.743600 1.000300 1.478400
C305 C -0.085200 0.134900 0.816300
C306 C 0.580600 1.172300 1.487800
C307 C 0.492100 1.270700 1.444700
C308 C 0.593500 0.789500 1.125600
C309 C 0.538400 0.900500 1.063450
C310 C 0.507900 0.855200 0.980900
C311 C 1.014400 0.745500 -0.122400
C312 C 0.529300 1.047800 1.082970
N313 N 0.661100 1.092100 1.439440
N314 N 0.500600 0.280100 0.358580
N315 N 0.661100 0.092100 0.439440
N316 N 0.161100 0.407900 0.939440
N317 N 0.000600 0.219900 0.858580
N318 N 0.499400 -0.280100 -0.358580
N319 N 0.500600 1.280100 1.358580
N320 N 0.338900 -0.092100 -0.439440
N321 N 0.500600 1.280100 0.358580
N322 N 0.661100 1.092100 0.439440
N323 N 0.499400 0.719900 -0.358580
N324 N 0.338900 0.907900 -0.439440
N325 N 0.338900 -0.092100 0.560560
N326 N 0.499400 -0.280100 0.641420
N327 N 0.999400 0.780100 0.141420
N328 N -0.161100 0.592100 0.060560
N329 N -0.000600 0.780100 0.141420
N330 N 0.499400 0.719900 0.641420
N331 N 0.338900 0.907900 0.560560
N332 N 0.838900 0.592100 0.060560
N333 N 1.000600 0.219900 0.858580
N334 N 1.161100 0.407900 0.939440
N335 N 0.500600 0.280100 1.358580
N336 N 0.661100 0.092100 1.439440
O337 O 0.524500 -0.318200 1.140240
O338 O 0.527400 0.023800 1.234330
O339 O 0.617000 0.220200 1.182580
O340 O 0.711200 -0.187100 1.152590
O341 O 0.803200 0.027500 1.275260
O342 O -0.288800 0.812900 0.152590
O343 O 1.303200 0.472500 0.775260
O344 O 0.475500 0.318200 0.859760
O345 O 0.288800 0.187100 0.847410
O346 O 1.027400 0.476200 0.734330
O347 O 1.117000 0.279800 0.682580
O348 O 1.211200 0.687100 0.652590
O349 O 1.024500 0.818200 0.640240
O350 O 0.696800 0.527500 0.224740
O351 O 0.975500 0.181800 0.359760
O352 O 0.196800 0.972500 0.724740
O353 O 0.788800 1.312900 1.347410
O354 O 0.972600 0.523800 0.265670
O355 O 0.883000 0.720200 0.317420
O356 O 0.211200 0.687100 0.652590
O357 O 0.383000 -0.220200 0.817420
O358 O 0.472600 -0.023800 0.765670
O359 O 0.472600 0.976200 0.765670
O360 O 0.383000 0.779800 0.817420
O361 O 0.211200 0.687100 -0.347410
O362 O 0.788800 1.312900 0.347410
O363 O 0.196800 0.972500 -0.275260
O364 O 0.196800 -0.027500 0.724740
O365 O 0.288800 1.187100 0.847410
O366 O 0.472600 0.976200 -0.234330
O367 O 0.383000 0.779800 -0.182580
O368 O 0.288800 1.187100 -0.152590
O369 O 0.475500 1.318200 -0.140240
O370 O 0.803200 1.027500 0.275260
O371 O 0.711200 0.812900 0.152590
O372 O 0.524500 0.681800 0.140240
O373 O 0.527400 1.023800 0.234330
O374 O 0.617000 1.220200 0.182580
O375 O 0.475500 1.318200 0.859760
O376 O 0.788800 0.312900 1.347410
O377 O 0.211200 -0.312900 -0.347410
O378 O 0.788800 0.312900 0.347410
O379 O 0.196800 -0.027500 -0.275260
O380 O 0.211200 -0.312900 0.652590
O381 O 0.803200 1.027500 1.275260
O382 O 0.303200 0.472500 0.775260
O383 O 0.472600 -0.023800 -0.234330
O384 O 0.383000 -0.220200 -0.182580
O385 O 0.288800 0.187100 -0.152590
O386 O -0.117000 0.720200 0.317420
O387 O -0.027400 0.523800 0.265670
O388 O -0.024500 0.181800 0.359760
O389 O -0.211200 0.312900 0.347410
O390 O -0.303200 0.527500 0.224740
O391 O 0.475500 0.318200 -0.140240
O392 O 0.803200 0.027500 0.275260
O393 O 0.711200 -0.187100 0.152590
O394 O 0.024500 0.818200 0.640240
O395 O 0.524500 -0.318200 0.140240
O396 O 0.527400 0.023800 0.234330
O397 O 0.617000 0.220200 0.182580
O398 O 0.117000 0.279800 0.682580
O399 O 0.027400 0.476200 0.734330
O400 O 0.711200 0.812900 1.152590
O401 O 0.524500 0.681800 1.140240
O402 O 0.527400 1.023800 1.234330
O403 O 0.617000 1.220200 1.182580
O404 O 1.288800 0.187100 0.847410
Fe405 Fe -0.153590 0.658550 0.187210
Fe406 Fe 0.153590 1.341450 0.812790
Fe407 Fe 0.846410 0.658550 1.187210
Fe408 Fe 0.346410 0.841450 0.687210
Fe409 Fe 0.653590 1.158550 1.312790
Fe410 Fe 0.153590 0.341450 0.812790
Fe411 Fe 0.846410 -0.341450 1.187210
Fe412 Fe 0.346410 -0.158550 0.687210
Fe413 Fe 0.653590 0.158550 1.312790
Fe414 Fe 1.346410 0.841450 0.687210
Fe415 Fe 1.153590 0.341450 0.812790
Fe416 Fe 0.153590 1.341450 -0.187210
Fe417 Fe 0.846410 0.658550 0.187210
Fe418 Fe 0.346410 0.841450 -0.312790
Fe419 Fe 0.653590 1.158550 0.312790
Fe420 Fe 0.153590 0.341450 -0.187210
Fe421 Fe 0.846410 -0.341450 0.187210
Fe422 Fe 0.346410 -0.158550 -0.312790
Fe423 Fe 0.653590 0.158550 0.312790
Fe424 Fe -0.346410 0.158550 0.312790

#END
