./ABIWAL_from_POSCAR.cif_generated_by_CrystalShift
_symmetry_cell_setting triclinic
_symmetry_space_group_name_H-M 'P 1'
loop_
_symmetry_equiv_pos_site_id
_symmetry_equiv_pos_as_xyz
1 x,y,z
_cell_length_a 8.260300
_cell_length_b 11.816200
_cell_length_c 14.413800
_cell_angle_alpha 90.000000
_cell_angle_beta 105.309000
_cell_angle_gamma 90.000000
_cell_volume 1356.942867
loop_
_atom_site_label
_atom_site_type_symbol
_atom_site_fract_x
_atom_site_fract_y
_atom_site_fract_z
H1 H -0.437200 0.496300 0.409000
H2 H -0.149800 0.341300 0.935000
H3 H 0.497800 0.966700 0.342200
H4 H 0.780300 1.175500 0.274400
H5 H 0.378400 0.128400 0.382700
H6 H 0.621600 0.871600 0.617300
H7 H 0.428600 0.290500 1.191100
H8 H 0.189500 0.265100 0.425200
H9 H 0.810500 0.734900 0.574800
H10 H 0.252700 0.368700 0.688500
H11 H 0.747300 0.631300 0.311500
H12 H 1.437200 0.996300 1.091000
H13 H 0.850200 0.341300 -0.065000
H14 H 1.566200 0.931300 1.173000
H15 H 0.912700 0.373300 0.098000
H16 H 1.517600 0.883100 1.068000
H17 H 0.768200 1.166300 0.108600
H18 H 1.045900 0.915800 0.238400
H19 H 0.954100 0.415800 0.261600
H20 H 1.087300 0.873300 0.402000
H21 H 1.231800 0.666300 0.391400
H22 H 1.149800 0.841300 0.565000
H23 H 0.252700 0.131300 1.188500
H24 H 0.482400 0.383100 0.432000
H25 H 0.433800 0.431300 0.327000
H26 H 0.562800 0.496300 0.409000
H27 H 0.810500 -0.265100 0.574800
H28 H 0.189500 0.234900 0.925200
H29 H 0.571400 0.790500 0.308900
H30 H 0.378400 0.371600 0.882700
H31 H 0.621600 -0.128400 0.617300
H32 H 1.219700 0.675500 0.225600
H33 H -0.566200 0.431300 0.327000
H34 H -0.517600 0.383100 0.432000
H35 H 0.502200 0.466700 1.157800
H36 H 0.219700 0.675500 1.225600
H37 H -0.087300 0.373300 1.098000
H38 H 0.502200 1.033300 0.657800
H39 H 1.219700 0.824500 0.725600
H40 H 0.149800 0.658700 1.065000
H41 H 0.378400 1.128400 0.382700
H42 H 0.571400 0.709500 0.808900
H43 H 0.087300 0.626700 0.902000
H44 H 0.189500 1.265100 0.425200
H45 H 0.562800 1.003700 0.909000
H46 H 0.252700 1.368700 0.688500
H47 H 0.433800 1.068700 0.827000
H48 H 1.149800 0.658700 0.065000
H49 H 0.482400 1.116900 0.932000
H50 H 1.087300 0.626700 -0.098000
H51 H 1.231800 0.833700 0.891400
H52 H 0.954100 1.084200 0.761600
H53 H 0.912700 1.126700 0.598000
H54 H 1.045900 0.584200 -0.261600
H55 H 0.850200 1.158700 0.435000
H56 H 0.768200 0.333700 -0.391400
H57 H 0.747300 0.868700 0.811500
H58 H 0.810500 0.765100 1.074800
H59 H 1.517600 0.616900 0.568000
H60 H 1.566200 0.568700 0.673000
H61 H 1.437200 0.503700 0.591000
H62 H 0.621600 0.628400 1.117300
H63 H 0.497800 0.533300 0.842200
H64 H 0.497800 -0.033300 0.342200
H65 H 0.428600 1.209500 0.691100
H66 H 0.571400 -0.209500 0.308900
H67 H 0.747300 -0.368700 0.311500
H68 H 0.219700 -0.175500 0.725600
H69 H 0.780300 0.324500 -0.225600
H70 H 0.571400 0.709500 -0.191100
H71 H 0.231800 0.666300 1.391400
H72 H -0.219700 0.324500 0.774400
H73 H 0.045900 0.584200 0.738400
H74 H 0.502200 0.466700 0.157800
H75 H -0.231800 0.333700 0.608600
H76 H -0.437200 0.003700 -0.091000
H77 H 0.378400 0.371600 -0.117300
H78 H -0.566200 0.068700 -0.173000
H79 H -0.517600 0.116900 -0.068000
H80 H 0.189500 0.234900 -0.074800
H81 H 0.231800 -0.166300 0.891400
H82 H 0.252700 0.131300 0.188500
H83 H -0.045900 0.084200 0.761600
H84 H 0.149800 -0.158700 0.565000
H85 H -0.087300 0.126700 0.598000
H86 H 0.087300 -0.126700 0.402000
H87 H -0.149800 0.158700 0.435000
H88 H 0.747300 0.868700 -0.188500
H89 H 0.810500 0.765100 0.074800
H90 H 0.045900 -0.084200 0.238400
H91 H 0.621600 0.628400 0.117300
H92 H -0.231800 0.166300 0.108600
H93 H 0.497800 0.533300 -0.157800
H94 H 0.502200 0.033300 0.657800
H95 H 0.517600 -0.116900 0.068000
H96 H 0.566200 -0.068700 0.173000
H97 H 0.437200 -0.003700 0.091000
H98 H 0.428600 0.209500 0.691100
H99 H 0.437200 0.503700 0.591000
H100 H 0.428600 0.290500 0.191100
H101 H 0.566200 0.568700 0.673000
H102 H 0.517600 0.616900 0.568000
H103 H -0.219700 0.175500 0.274400
H104 H -0.045900 0.415800 1.261600
C105 C 0.173800 0.616600 1.344200
C106 C 0.476900 0.577100 0.615400
C107 C 0.335800 0.642500 0.637200
C108 C 0.476900 -0.077100 0.115400
C109 C 0.335800 -0.142500 0.137200
C110 C 0.572900 0.598600 -0.024900
C111 C 0.572500 0.576600 0.069500
C112 C -0.173800 0.116600 0.155800
C113 C 0.655600 0.700300 -0.048400
C114 C 0.771800 0.770300 0.008200
C115 C -0.022000 -0.020200 0.227700
C116 C 0.738400 0.827200 -0.135300
C117 C -0.073000 0.037500 0.297200
C118 C -0.089300 0.094600 0.460700
C119 C -0.037900 0.019800 0.400600
C120 C -0.051800 0.075200 0.558700
C121 C 0.051800 -0.075200 0.441300
C122 C 0.037900 -0.019800 0.599400
C123 C 0.073000 -0.037500 0.702800
C124 C 0.022000 0.020200 0.772300
C125 C 0.089300 -0.094600 0.539300
C126 C 0.173800 -0.116600 0.844200
C127 C 0.261600 0.172800 0.135300
C128 C -0.335800 0.142500 -0.137200
C129 C -0.476900 0.077100 -0.115400
C130 C 0.228200 0.229700 -0.008200
C131 C 0.344400 0.299700 0.048400
C132 C 0.427500 0.423400 -0.069500
C133 C 0.427100 0.401400 0.024900
C134 C -0.173800 0.383400 0.655800
C135 C 0.500800 0.479500 0.093900
C136 C -0.335800 0.357500 0.362800
C137 C -0.022000 0.520200 0.727700
C138 C -0.073000 0.462500 0.797200
C139 C -0.037900 0.480200 0.900600
C140 C -0.089300 0.405400 0.960700
C141 C 0.022000 0.479800 1.272300
C142 C 0.073000 0.537500 1.202800
C143 C 0.499200 -0.020500 0.406100
C144 C 0.499200 0.520500 0.906100
C145 C 0.572900 -0.098600 0.475100
C146 C 0.572900 0.598600 0.975100
C147 C 0.572500 0.576600 1.069500
C148 C 0.572500 -0.076600 0.569500
C149 C 0.655600 0.700300 0.951600
C150 C 0.771800 0.770300 1.008200
C151 C 1.476900 0.577100 0.615400
C152 C 0.738400 0.827200 0.864700
C153 C 1.335800 0.642500 0.637200
C154 C 0.910700 1.094600 0.460700
C155 C 0.826200 0.383400 -0.344200
C156 C 0.948200 1.075200 0.558700
C157 C 0.978000 0.520200 -0.272300
C158 C 1.037900 0.980200 0.599400
C159 C 1.073000 0.962500 0.702800
C160 C 1.022000 1.020200 0.772300
C161 C 0.927000 0.462500 -0.202800
C162 C 1.173800 0.883400 0.844200
C163 C 0.962100 0.480200 -0.099400
C164 C 0.664200 1.142500 0.862800
C165 C 0.523100 1.077100 0.884600
C166 C 1.051800 0.575200 -0.058700
C167 C 1.089300 0.594600 0.039300
C168 C 0.261600 1.327200 0.635300
C169 C 0.228200 1.270300 0.491800
C170 C 0.051800 0.575200 0.941300
C171 C 0.344400 1.200300 0.548400
C172 C 0.427500 1.076600 0.430500
C173 C 0.089300 0.594600 1.039300
C174 C 0.427100 1.098600 0.524900
C175 C 0.037900 0.519800 1.099400
C176 C 0.500800 1.020500 0.593900
C177 C 0.500800 0.479500 1.093900
C178 C -0.476900 0.422900 0.384600
C179 C 0.427100 0.401400 1.024900
C180 C 0.427500 0.423400 0.930500
C181 C 0.655600 -0.200300 0.451600
C182 C 0.344400 0.299700 1.048400
C183 C 0.228200 0.229700 0.991800
C184 C 0.771800 -0.270300 0.508200
C185 C 0.261600 0.172800 1.135300
C186 C 0.523100 0.422900 0.384600
C187 C 1.089300 0.905400 0.539300
C188 C 0.664200 0.357500 0.362800
C189 C 1.051800 0.924800 0.441300
C190 C 1.173800 0.616600 0.344200
C191 C 0.962100 1.019800 0.400600
C192 C 0.927000 1.037500 0.297200
C193 C 0.978000 0.979800 0.227700
C194 C 1.022000 0.479800 0.272300
C195 C 0.826200 1.116600 0.155800
C196 C 1.073000 0.537500 0.202800
C197 C 1.335800 0.857500 1.137200
C198 C 1.476900 0.922900 1.115400
C199 C 1.037900 0.519800 0.099400
C200 C 0.948200 0.424800 0.058700
C201 C 0.910700 0.405400 -0.039300
C202 C 0.738400 0.672800 0.364700
C203 C 0.261600 0.327200 0.635300
C204 C 0.771800 0.729700 0.508200
C205 C 0.655600 0.799700 0.451600
C206 C 0.228200 0.270300 0.491800
C207 C 0.344400 0.200300 0.548400
C208 C 0.572500 0.923400 0.569500
C209 C 0.572900 0.901400 0.475100
C210 C -0.051800 0.424800 1.058700
C211 C 0.499200 0.979500 0.406100
C212 C 0.427500 0.076600 0.430500
C213 C 0.500800 0.020500 0.593900
C214 C 0.499200 0.520500 -0.093900
C215 C 0.427100 0.098600 0.524900
C216 C 0.738400 -0.327200 0.364700
N217 N 0.829900 1.124700 0.249100
N218 N 0.913700 1.030600 1.139100
N219 N 0.913700 1.030600 0.139100
N220 N 0.363300 0.262200 1.139700
N221 N 1.176700 1.150900 1.047300
N222 N 0.176700 0.150900 1.047300
N223 N 1.170100 0.875300 0.750900
N224 N 1.086300 0.969400 0.860900
N225 N 0.636700 0.737800 0.860300
N226 N 0.823300 0.849100 0.952700
N227 N 0.170100 -0.124700 0.750900
N228 N 0.086300 -0.030600 -0.139100
N229 N 0.086300 -0.030600 0.860900
N230 N 0.636700 0.737800 -0.139700
N231 N -0.176700 -0.150900 -0.047300
N232 N 0.823300 0.849100 -0.047300
N233 N 0.086300 0.530600 1.360900
N234 N 0.086300 0.530600 0.360900
N235 N -0.170100 0.124700 0.249100
N236 N -0.086300 0.030600 0.139100
N237 N 0.363300 0.262200 0.139700
N238 N 0.176700 0.349100 0.547300
N239 N 0.363300 0.237800 0.639700
N240 N 0.176700 0.150900 0.047300
N241 N -0.086300 0.469400 0.639100
N242 N -0.170100 0.375300 0.749100
N243 N 0.170100 0.624700 1.250900
N244 N 0.829900 0.375300 -0.250900
N245 N 0.913700 0.469400 0.639100
N246 N -0.176700 0.650900 0.452700
N247 N 0.823300 -0.349100 0.452700
N248 N 0.913700 0.469400 -0.360900
N249 N 0.363300 1.237800 0.639700
N250 N 1.176700 0.349100 0.547300
N251 N 0.176700 1.349100 0.547300
N252 N 1.170100 0.624700 0.250900
N253 N 1.086300 0.530600 0.360900
N254 N 0.636700 0.762200 0.360300
N255 N 0.823300 0.650900 0.452700
N256 N 0.636700 -0.237800 0.360300
O257 O 0.373500 0.710600 0.705900
O258 O 0.191500 0.630500 0.587000
O259 O 1.373500 0.789400 1.205900
O260 O 1.191500 0.869500 1.087000
O261 O 0.626500 1.210600 0.794100
O262 O 0.808500 1.130500 0.913000
O263 O -0.373500 0.289400 0.294100
O264 O -0.191500 0.130500 -0.087000
O265 O 0.373500 -0.210600 0.205900
O266 O 0.191500 -0.130500 0.087000
O267 O 1.373500 0.710600 0.705900
O268 O 1.191500 0.630500 0.587000
O269 O -0.191500 0.369500 0.413000
O270 O 0.626500 0.289400 0.294100
O271 O 0.808500 0.369500 0.413000
O272 O -0.373500 0.210600 -0.205900
Cd273 Cd 0.000000 0.500000 1.500000
Cd274 Cd 1.000000 -0.500000 0.500000
Cd275 Cd 0.000000 0.500000 0.500000
Cd276 Cd 1.000000 1.000000 1.000000
Cd277 Cd 0.000000 0.000000 1.000000
Cd278 Cd 1.000000 1.000000 0.000000
Cd279 Cd 0.000000 0.000000 0.000000
Cd280 Cd 1.000000 0.500000 -0.500000
Cd281 Cd 0.000000 1.500000 0.500000
Cd282 Cd 1.000000 0.500000 0.500000

#END
