
#######################################################################
#
#                 Cambridge Crystallographic Data Centre
#                                CCDC 
#
#######################################################################
#
# If this CIF has been generated from an entry in the Cambridge 
# Structural Database, then it will include bibliographic, chemical, 
# crystal, experimental, refinement or atomic coordinate data resulting 
# from the CCDC's data processing and validation procedures.
#
#######################################################################

data_ABIWAJ
_symmetry_cell_setting           monoclinic
_symmetry_space_group_name_H-M   'P 21/c'
_symmetry_Int_Tables_number      14
_space_group_name_Hall           '-P 2ybc'
loop_
_symmetry_equiv_pos_site_id
_symmetry_equiv_pos_as_xyz
1 x,y,z
2 x,1/2-y,1/2+z
3 -x,-y,-z
4 -x,1/2+y,1/2-z
_cell_length_a                   11.495(2)
_cell_length_b                   11.909(4)
_cell_length_c                   16.353(1)
_cell_angle_alpha                90
_cell_angle_beta                 90.50(1)
_cell_angle_gamma                90
_cell_volume                     2238.54
loop_
_atom_site_label
_atom_site_type_symbol
_atom_site_fract_x
_atom_site_fract_y
_atom_site_fract_z
Se1 Se 0.67785(2) 0.14860(2) 0.541750(14)
F1 F 0.18246(13) 0.56184(16) 0.31694(11)
F2 F 1.03242(16) -0.30013(18) 0.49477(18)
C1 C 0.59094(18) 0.23735(18) 0.46460(12)
C2 C 0.64095(17) 0.22548(17) 0.37859(11)
C3 C 0.71139(19) 0.11761(18) 0.37984(14)
C4 C 0.74096(19) 0.07025(19) 0.45061(13)
C5 C 0.4969(2) 0.29223(19) 0.48962(13)
C6 C 0.41722(18) 0.36463(18) 0.44197(13)
C7 C 0.2997(2) 0.3375(2) 0.43969(19)
C8 C 0.2208(2) 0.4023(3) 0.3976(2)
C9 C 0.2600(2) 0.4968(2) 0.35896(15)
C10 C 0.3738(2) 0.5278(2) 0.36059(14)
C11 C 0.45224(19) 0.46120(19) 0.40203(13)
C12 C 0.72904(17) 0.31832(18) 0.35783(13)
C13 C 0.7575(2) 0.4030(2) 0.41257(15)
C14 C 0.8433(2) 0.4814(2) 0.39397(19)
C15 C 0.8998(2) 0.4763(3) 0.3210(2)
C16 C 0.8723(2) 0.3933(3) 0.2657(2)
C17 C 0.7877(2) 0.3141(2) 0.28360(16)
C18 C 0.54048(18) 0.21504(17) 0.31637(12)
C19 C 0.51633(19) 0.29521(19) 0.25767(13)
C20 C 0.4209(2) 0.2833(2) 0.20511(14)
C21 C 0.3504(2) 0.1912(2) 0.21029(16)
C22 C 0.3738(2) 0.1099(2) 0.26850(18)
C23 C 0.4678(2) 0.1217(2) 0.32135(15)
C24 C 0.81639(18) -0.0281(2) 0.46294(14)
C25 C 0.8452(2) -0.0973(2) 0.39819(19)
C26 C 0.9182(2) -0.1886(3) 0.4087(2)
C27 C 0.9623(2) -0.2091(3) 0.4853(3)
C28 C 0.9375(3) -0.1443(3) 0.5506(3)
C29 C 0.8628(2) -0.0539(3) 0.54014(19)
H1 H 0.738(2) 0.088(2) 0.3304(17)
H2 H 0.476(2) 0.285(2) 0.5472(18)
H3 H 0.276(3) 0.267(3) 0.4689(18)
H4 H 0.140(3) 0.385(3) 0.394(2)
H5 H 0.397(2) 0.590(2) 0.3354(15)
H6 H 0.531(2) 0.485(2) 0.4039(14)
H7 H 0.719(2) 0.412(2) 0.4623(18)
H8 H 0.863(2) 0.537(3) 0.4372(18)
H9 H 0.960(3) 0.533(3) 0.312(2)
H10 H 0.903(3) 0.387(3) 0.217(2)
H11 H 0.774(2) 0.253(2) 0.2473(17)
H12 H 0.569(2) 0.359(2) 0.2532(17)
H13 H 0.405(3) 0.343(2) 0.1668(19)
H14 H 0.281(3) 0.183(3) 0.171(2)
H15 H 0.327(2) 0.047(3) 0.2739(16)
H16 H 0.483(2) 0.072(3) 0.3615(17)
H17 H 0.813(3) -0.083(3) 0.3420(18)
H18 H 0.938(3) -0.238(3) 0.361(2)
H19 H 0.969(3) -0.158(3) 0.600(2)
H20 H 0.841(3) -0.011(3) 0.582(2)
Se1 Se 0.67785(2) 0.35140(2) 1.041750(14)
F1 F 0.18246(13) -0.06184(16) 0.81694(11)
F2 F 1.03242(16) 0.80013(18) 0.99477(18)
C1 C 0.59094(18) 0.26265(18) 0.96460(12)
C2 C 0.64095(17) 0.27452(17) 0.87859(11)
C3 C 0.71139(19) 0.38239(18) 0.87984(14)
C4 C 0.74096(19) 0.42975(19) 0.95061(13)
C5 C 0.4969(2) 0.20777(19) 0.98962(13)
C6 C 0.41722(18) 0.13537(18) 0.94197(13)
C7 C 0.2997(2) 0.1625(2) 0.93969(19)
C8 C 0.2208(2) 0.0977(3) 0.8976(2)
C9 C 0.2600(2) 0.0032(2) 0.85896(15)
C10 C 0.3738(2) -0.0278(2) 0.86059(14)
C11 C 0.45224(19) 0.03880(19) 0.90203(13)
C12 C 0.72904(17) 0.18168(18) 0.85783(13)
C13 C 0.7575(2) 0.0970(2) 0.91257(15)
C14 C 0.8433(2) 0.0186(2) 0.89397(19)
C15 C 0.8998(2) 0.0237(3) 0.8210(2)
C16 C 0.8723(2) 0.1067(3) 0.7657(2)
C17 C 0.7877(2) 0.1859(2) 0.78360(16)
C18 C 0.54048(18) 0.28496(17) 0.81637(12)
C19 C 0.51633(19) 0.20479(19) 0.75767(13)
C20 C 0.4209(2) 0.2167(2) 0.70511(14)
C21 C 0.3504(2) 0.3088(2) 0.71029(16)
C22 C 0.3738(2) 0.3901(2) 0.76850(18)
C23 C 0.4678(2) 0.3783(2) 0.82135(15)
C24 C 0.81639(18) 0.5281(2) 0.96294(14)
C25 C 0.8452(2) 0.5973(2) 0.89819(19)
C26 C 0.9182(2) 0.6886(3) 0.9087(2)
C27 C 0.9623(2) 0.7091(3) 0.9853(3)
C28 C 0.9375(3) 0.6443(3) 1.0506(3)
C29 C 0.8628(2) 0.5539(3) 1.04014(19)
H1 H 0.738(2) 0.412(2) 0.8304(17)
H2 H 0.476(2) 0.215(2) 1.0472(18)
H3 H 0.276(3) 0.233(3) 0.9689(18)
H4 H 0.140(3) 0.115(3) 0.894(2)
H5 H 0.397(2) -0.090(2) 0.8354(15)
H6 H 0.531(2) 0.015(2) 0.9039(14)
H7 H 0.719(2) 0.088(2) 0.9623(18)
H8 H 0.863(2) -0.037(3) 0.9372(18)
H9 H 0.960(3) -0.033(3) 0.812(2)
H10 H 0.903(3) 0.113(3) 0.717(2)
H11 H 0.774(2) 0.247(2) 0.7473(17)
H12 H 0.569(2) 0.141(2) 0.7532(17)
H13 H 0.405(3) 0.157(2) 0.6668(19)
H14 H 0.281(3) 0.317(3) 0.671(2)
H15 H 0.327(2) 0.453(3) 0.7739(16)
H16 H 0.483(2) 0.428(3) 0.8615(17)
H17 H 0.813(3) 0.583(3) 0.8420(18)
H18 H 0.938(3) 0.738(3) 0.861(2)
H19 H 0.969(3) 0.658(3) 1.100(2)
H20 H 0.841(3) 0.511(3) 1.082(2)
Se1 Se 0.32215(2) 0.85140(2) 0.458250(14)
F1 F 0.81754(13) 0.43816(16) 0.68306(11)
F2 F -0.03242(16) 1.30013(18) 0.50523(18)
C1 C 0.40906(18) 0.76265(18) 0.53540(12)
C2 C 0.35905(17) 0.77452(17) 0.62141(11)
C3 C 0.28861(19) 0.88239(18) 0.62016(14)
C4 C 0.25904(19) 0.92975(19) 0.54939(13)
C5 C 0.5031(2) 0.70777(19) 0.51038(13)
C6 C 0.58278(18) 0.63537(18) 0.55803(13)
C7 C 0.7003(2) 0.6625(2) 0.56031(19)
C8 C 0.7792(2) 0.5977(3) 0.6024(2)
C9 C 0.7400(2) 0.5032(2) 0.64104(15)
C10 C 0.6262(2) 0.4722(2) 0.63941(14)
C11 C 0.54776(19) 0.53880(19) 0.59797(13)
C12 C 0.27096(17) 0.68168(18) 0.64217(13)
C13 C 0.2425(2) 0.5970(2) 0.58743(15)
C14 C 0.1567(2) 0.5186(2) 0.60603(19)
C15 C 0.1002(2) 0.5237(3) 0.6790(2)
C16 C 0.1277(2) 0.6067(3) 0.7343(2)
C17 C 0.2123(2) 0.6859(2) 0.71640(16)
C18 C 0.45952(18) 0.78496(17) 0.68363(12)
C19 C 0.48367(19) 0.70479(19) 0.74233(13)
C20 C 0.5791(2) 0.7167(2) 0.79489(14)
C21 C 0.6496(2) 0.8088(2) 0.78971(16)
C22 C 0.6262(2) 0.8901(2) 0.73150(18)
C23 C 0.5322(2) 0.8783(2) 0.67865(15)
C24 C 0.18361(18) 1.0281(2) 0.53706(14)
C25 C 0.1548(2) 1.0973(2) 0.60181(19)
C26 C 0.0818(2) 1.1886(3) 0.5913(2)
C27 C 0.0377(2) 1.2091(3) 0.5147(3)
C28 C 0.0625(3) 1.1443(3) 0.4494(3)
C29 C 0.1372(2) 1.0539(3) 0.45986(19)
H1 H 0.262(2) 0.912(2) 0.6696(17)
H2 H 0.524(2) 0.715(2) 0.4528(18)
H3 H 0.724(3) 0.733(3) 0.5311(18)
H4 H 0.860(3) 0.615(3) 0.606(2)
H5 H 0.603(2) 0.410(2) 0.6646(15)
H6 H 0.469(2) 0.515(2) 0.5961(14)
H7 H 0.281(2) 0.588(2) 0.5377(18)
H8 H 0.137(2) 0.463(3) 0.5628(18)
H9 H 0.040(3) 0.467(3) 0.688(2)
H10 H 0.097(3) 0.613(3) 0.783(2)
H11 H 0.226(2) 0.747(2) 0.7527(17)
H12 H 0.431(2) 0.641(2) 0.7468(17)
H13 H 0.595(3) 0.657(2) 0.8332(19)
H14 H 0.719(3) 0.817(3) 0.829(2)
H15 H 0.673(2) 0.953(3) 0.7261(16)
H16 H 0.517(2) 0.928(3) 0.6385(17)
H17 H 0.187(3) 1.083(3) 0.6580(18)
H18 H 0.062(3) 1.238(3) 0.639(2)
H19 H 0.031(3) 1.158(3) 0.400(2)
H20 H 0.159(3) 1.011(3) 0.418(2)
Se1 Se 0.32215(2) 0.64860(2) -0.041750(14)
F1 F 0.81754(13) 1.06184(16) 0.18306(11)
F2 F -0.03242(16) 0.19987(18) 0.00523(18)
C1 C 0.40906(18) 0.73735(18) 0.03540(12)
C2 C 0.35905(17) 0.72548(17) 0.12141(11)
C3 C 0.28861(19) 0.61761(18) 0.12016(14)
C4 C 0.25904(19) 0.57025(19) 0.04939(13)
C5 C 0.5031(2) 0.79223(19) 0.01038(13)
C6 C 0.58278(18) 0.86463(18) 0.05803(13)
C7 C 0.7003(2) 0.8375(2) 0.06031(19)
C8 C 0.7792(2) 0.9023(3) 0.1024(2)
C9 C 0.7400(2) 0.9968(2) 0.14104(15)
C10 C 0.6262(2) 1.0278(2) 0.13941(14)
C11 C 0.54776(19) 0.96120(19) 0.09797(13)
C12 C 0.27096(17) 0.81832(18) 0.14217(13)
C13 C 0.2425(2) 0.9030(2) 0.08743(15)
C14 C 0.1567(2) 0.9814(2) 0.10603(19)
C15 C 0.1002(2) 0.9763(3) 0.1790(2)
C16 C 0.1277(2) 0.8933(3) 0.2343(2)
C17 C 0.2123(2) 0.8141(2) 0.21640(16)
C18 C 0.45952(18) 0.71504(17) 0.18363(12)
C19 C 0.48367(19) 0.79521(19) 0.24233(13)
C20 C 0.5791(2) 0.7833(2) 0.29489(14)
C21 C 0.6496(2) 0.6912(2) 0.28971(16)
C22 C 0.6262(2) 0.6099(2) 0.23150(18)
C23 C 0.5322(2) 0.6217(2) 0.17865(15)
C24 C 0.18361(18) 0.4719(2) 0.03706(14)
C25 C 0.1548(2) 0.4027(2) 0.10181(19)
C26 C 0.0818(2) 0.3114(3) 0.0913(2)
C27 C 0.0377(2) 0.2909(3) 0.0147(3)
C28 C 0.0625(3) 0.3557(3) -0.0506(3)
C29 C 0.1372(2) 0.4461(3) -0.04014(19)
H1 H 0.262(2) 0.588(2) 0.1696(17)
H2 H 0.524(2) 0.785(2) -0.0472(18)
H3 H 0.724(3) 0.767(3) 0.0311(18)
H4 H 0.860(3) 0.885(3) 0.106(2)
H5 H 0.603(2) 1.090(2) 0.1646(15)
H6 H 0.469(2) 0.985(2) 0.0961(14)
H7 H 0.281(2) 0.912(2) 0.0377(18)
H8 H 0.137(2) 1.037(3) 0.0628(18)
H9 H 0.040(3) 1.033(3) 0.188(2)
H10 H 0.097(3) 0.887(3) 0.283(2)
H11 H 0.226(2) 0.753(2) 0.2527(17)
H12 H 0.431(2) 0.859(2) 0.2468(17)
H13 H 0.595(3) 0.843(2) 0.3332(19)
H14 H 0.719(3) 0.683(3) 0.329(2)
H15 H 0.673(2) 0.547(3) 0.2261(16)
H16 H 0.517(2) 0.572(3) 0.1385(17)
H17 H 0.187(3) 0.417(3) 0.1580(18)
H18 H 0.062(3) 0.262(3) 0.139(2)
H19 H 0.031(3) 0.342(3) -0.100(2)
H20 H 0.159(3) 0.489(3) -0.082(2)

#END
