./ABIXUH_from_POSCAR.cif_generated_by_CrystalShift
_symmetry_cell_setting triclinic
_symmetry_space_group_name_H-M 'P 1'
loop_
_symmetry_equiv_pos_site_id
_symmetry_equiv_pos_as_xyz
1 x,y,z
_cell_length_a 6.409500
_cell_length_b 13.267000
_cell_length_c 7.620300
_cell_angle_alpha 90.000000
_cell_angle_beta 110.130000
_cell_angle_gamma 90.000000
_cell_volume 608.407907
loop_
_atom_site_label
_atom_site_type_symbol
_atom_site_fract_x
_atom_site_fract_y
_atom_site_fract_z
H1 H 1.046400 0.071800 0.250900
H2 H 0.458400 -0.067800 -0.132900
H3 H 0.593500 -0.163000 -0.022800
H4 H 0.806400 -0.061300 0.216900
H5 H 0.201200 0.106000 -0.361300
H6 H 0.214900 0.220200 -0.293800
H7 H 0.038400 0.146100 -0.261200
H8 H 0.347200 -0.036500 0.144300
H9 H 0.521200 -0.094100 0.317700
H10 H 0.488600 0.076100 0.441300
H11 H 0.538200 0.315900 0.420300
H12 H -0.046400 0.571800 0.749100
H13 H 0.010600 0.577200 0.970700
H14 H -0.164000 0.728900 0.797500
H15 H 0.989400 0.077200 0.029300
H16 H 1.164000 0.228900 0.202500
H17 H 0.942000 0.252100 0.032200
H18 H 0.721500 0.260400 0.593500
H19 H 0.961600 0.646100 1.261200
H20 H 0.785100 0.720200 1.293800
H21 H 0.798800 0.606000 1.361300
H22 H 0.193600 0.438700 0.783100
H23 H 0.406500 0.337000 1.022800
H24 H 0.541600 0.432200 1.132900
H25 H 0.286000 0.419600 1.108700
H26 H 0.652800 0.463500 0.855700
H27 H 0.478800 0.405900 0.682300
H28 H 0.511400 0.576100 0.558700
H29 H 0.461800 0.815900 0.579700
H30 H 0.278500 0.760400 0.406500
H31 H 0.058000 0.752100 0.967800
H32 H 0.714000 -0.080400 -0.108700
C33 C -0.004700 0.719100 0.845100
C34 C 0.094800 0.765600 0.713900
C35 C 0.711300 0.082500 0.113300
C36 C 0.557400 0.122700 -0.074700
C37 C 0.186100 0.150900 -0.264900
C38 C 0.666900 -0.032100 0.131500
C39 C 0.602800 -0.091700 -0.049200
C40 C 0.496600 -0.035500 0.233800
C41 C 0.537600 0.062100 0.340400
C42 C 0.653300 0.126300 0.275400
C43 C 0.747800 0.223700 0.341800
C44 C 0.692300 0.293400 0.473000
C45 C 0.963100 0.363600 0.376900
C46 C 0.905200 0.265600 0.286100
C47 C 1.004700 0.219100 0.154900
C48 C 0.953800 0.105200 0.135600
C49 C 0.036900 0.863600 0.623100
C50 C 0.307700 0.793400 0.527000
C51 C 0.252200 0.723700 0.658200
C52 C 0.346700 0.626300 0.724600
C53 C 0.462400 0.562100 0.659600
C54 C 0.503400 0.464500 0.766200
C55 C 0.397200 0.408300 1.049200
C56 C 0.333100 0.467900 0.868500
C57 C 0.813900 0.650900 1.264900
C58 C 0.442600 0.622700 1.074700
C59 C 0.046200 0.605200 0.864400
C60 C 0.288700 0.582500 0.886700
O61 O 0.837500 0.379230 0.488700
O62 O 0.617100 0.149100 -0.201100
O63 O 0.344300 0.122320 -0.086400
O64 O -0.097100 0.924800 0.632200
O65 O 0.162500 0.879230 0.511300
O66 O 0.382900 0.649100 1.201100
O67 O 0.655700 0.622320 1.086400
O68 O 1.097100 0.424800 0.367800

#END
