./ABIYUI_from_POSCAR.cif_generated_by_CrystalShift
_symmetry_cell_setting triclinic
_symmetry_space_group_name_H-M 'P 1'
loop_
_symmetry_equiv_pos_site_id
_symmetry_equiv_pos_as_xyz
1 x,y,z
_cell_length_a 10.831400
_cell_length_b 12.082800
_cell_length_c 15.526900
_cell_angle_alpha 90.000000
_cell_angle_beta 90.132000
_cell_angle_gamma 90.000000
_cell_volume 2032.056527
loop_
_atom_site_label
_atom_site_type_symbol
_atom_site_fract_x
_atom_site_fract_y
_atom_site_fract_z
H1 H 0.163100 1.143100 0.104300
H2 H 0.161300 0.929300 0.518900
H3 H -0.129300 0.787400 0.632700
H4 H 0.226500 0.499300 0.223000
H5 H -0.010600 0.941200 0.603600
H6 H -0.074300 0.619400 0.572100
H7 H 0.309700 0.359100 0.305500
H8 H 0.357900 0.571700 0.499600
H9 H 0.372800 1.156200 0.124000
H10 H 0.517400 0.669800 0.826000
H11 H 0.521700 0.547500 0.860100
H12 H 0.375200 0.395700 0.443300
H13 H 0.046600 1.024600 0.187100
H14 H 0.473600 1.051500 0.227800
H15 H 0.013500 0.760700 0.321100
H16 H 0.097000 0.893300 0.985700
H17 H -0.030100 0.866900 0.271600
H18 H 0.208800 0.823900 0.779000
H19 H -0.024600 0.867000 0.372500
H20 H 0.208800 0.676100 0.279000
H21 H -0.024600 0.633000 0.872500
H22 H -0.030100 0.633100 0.771600
H23 H 0.013500 0.739300 0.821100
H24 H 0.097000 0.606700 0.485700
H25 H 0.473600 0.448500 0.727800
H26 H 0.521700 0.952500 0.360100
H27 H 0.046600 0.475400 0.687100
H28 H 0.517400 0.830200 0.326000
H29 H 0.375200 1.104300 0.943300
H30 H 0.836900 0.643100 0.395700
H31 H 0.372800 0.343800 0.624000
H32 H 0.838700 0.429300 -0.018900
H33 H 0.357900 0.928300 0.999600
H34 H 1.129300 0.287400 -0.132700
H35 H 0.309700 1.140900 0.805500
H36 H 0.773500 -0.000700 0.277000
H37 H -0.074300 0.880600 1.072100
H38 H 1.010600 0.441200 -0.103600
H39 H -0.010600 0.558800 1.103600
H40 H 1.074300 0.119400 -0.072100
H41 H 0.226500 1.000700 0.723000
H42 H 0.690300 -0.140900 0.194500
H43 H -0.129300 0.712600 1.132700
H44 H 0.642100 0.071700 0.000400
H45 H 0.161300 0.570700 1.018900
H46 H 0.627200 0.656200 0.376000
H47 H 0.163100 0.356900 0.604300
H48 H 0.624800 -0.104300 0.056700
H49 H 0.953400 0.524600 0.312900
H50 H 0.526400 0.551500 0.272200
H51 H 0.986500 0.260700 0.178900
H52 H 1.030100 0.366900 0.228400
H53 H 1.024600 0.367000 0.127500
H54 H 0.791200 0.176100 0.221000
H55 H 0.903000 0.106700 0.014300
H56 H 0.478300 0.452500 0.139900
H57 H 0.482600 0.169800 0.674000
H58 H 0.478300 0.047500 0.639900
H59 H 0.482600 0.330200 0.174000
H60 H 0.836900 -0.143100 0.895700
H61 H 0.838700 0.070700 0.481100
H62 H 1.129300 0.212600 0.367300
H63 H 0.903000 0.393300 0.514300
H64 H 0.773500 0.500700 0.777000
H65 H 0.791200 0.323900 0.721000
H66 H 1.010600 0.058800 0.396400
H67 H 1.074300 0.380600 0.427900
H68 H 1.024600 0.133000 0.627500
H69 H 1.030100 0.133100 0.728400
H70 H 0.986500 0.239300 0.678900
H71 H 0.690300 0.640900 0.694500
H72 H 0.526400 -0.051500 0.772200
H73 H 0.642100 0.428300 0.500400
H74 H 0.953400 -0.024600 0.812900
H75 H 0.627200 -0.156200 0.876000
H76 H 0.624800 0.604300 0.556700
C77 C 0.672200 -0.107700 0.841800
C78 C 0.658400 0.547900 0.590100
C79 C 0.668700 0.441800 0.556500
C80 C 0.868400 -0.028900 0.804700
C81 C 0.697300 0.569800 0.672100
C82 C 0.611200 -0.045500 0.780500
C83 C 1.027100 0.317900 0.438600
C84 C 0.985900 0.159900 0.678900
C85 C 0.988700 0.126800 0.419900
C86 C 0.810500 0.036900 0.742300
C87 C 0.746800 0.486200 0.721100
C88 C 0.757200 0.379900 0.687400
C89 C 1.060200 0.218100 0.402500
C90 C 0.924100 0.325300 0.490500
C91 C 0.886000 0.133500 0.470900
C92 C 0.853400 0.118900 0.682200
C93 C 0.798700 -0.099900 0.853900
C94 C 0.114000 0.866500 0.529100
C95 C 0.474900 0.658100 0.953200
C96 C -0.060200 0.781900 0.597500
C97 C 0.525100 0.341900 0.046800
C98 C 0.736500 0.261400 0.064900
C99 C 0.717400 0.143900 0.104200
C100 C 0.682900 0.473300 0.231700
C101 C 0.619600 0.292200 0.011000
C102 C 0.751200 0.346700 0.136800
C103 C 0.523800 0.383500 0.137300
C104 C 0.852200 0.234600 0.507700
C105 C 0.523800 0.116500 0.637300
C106 C 0.852200 0.265400 0.007700
C107 C 0.263500 0.738600 0.935100
C108 C 0.853400 0.381100 0.182200
C109 C 0.924100 0.174700 -0.009500
C110 C 0.751200 0.153300 0.636800
C111 C 0.757200 0.120100 0.187400
C112 C 0.619600 0.207800 0.511000
C113 C 0.810500 0.463100 0.242300
C114 C 0.985900 0.340100 0.178900
C115 C 0.682900 0.026700 0.731700
C116 C 0.717400 0.356100 0.604200
C117 C 0.736500 0.238600 0.564900
C118 C 0.611200 0.545500 0.280500
C119 C 0.525100 0.158100 0.546800
C120 C 0.868400 0.528900 0.304700
C121 C 0.253200 0.513800 0.278900
C122 C 0.658400 -0.047900 0.090100
C123 C 0.282600 0.856100 0.895800
C124 C 0.672200 0.607700 0.341800
C125 C 0.201300 0.400100 0.646100
C126 C 0.668700 0.058200 0.056500
C127 C 0.114000 0.633500 1.029100
C128 C 0.697300 -0.069800 0.172100
C129 C -0.060200 0.718100 1.097500
C130 C 1.027100 0.182100 -0.061400
C131 C 0.253200 0.986200 0.778900
C132 C 0.988700 0.373200 -0.080100
C133 C 0.011300 0.626800 1.080100
C134 C 0.746800 0.013800 0.221100
C135 C -0.027100 0.817900 1.061400
C136 C 1.060200 0.281900 -0.097500
C137 C 0.302700 1.069800 0.827900
C138 C 0.886000 0.366500 -0.029100
C139 C 0.331300 0.941800 0.943500
C140 C 0.798700 0.599900 0.353900
C141 C 0.327800 0.392300 0.658200
C142 C 0.011300 0.873200 0.580100
C143 C 0.317100 0.526700 0.768300
C144 C 0.474900 0.841900 0.453200
C145 C 0.263500 0.761400 0.435100
C146 C 0.282600 0.643900 0.395800
C147 C 0.317100 0.973300 0.268300
C148 C 0.380400 0.792200 0.489000
C149 C 0.248800 0.846700 0.363200
C150 C 0.476200 0.883500 0.362700
C151 C 0.341600 1.047900 0.909900
C152 C 0.131600 0.471100 0.695300
C153 C 0.147800 0.765400 0.492300
C154 C -0.027100 0.682100 0.561400
C155 C 0.146600 0.881100 0.317800
C156 C 0.075900 0.674700 0.509500
C157 C 0.388800 0.454500 0.719500
C158 C 0.242800 0.620100 0.312600
C159 C 0.014100 0.659900 0.821100
C160 C 0.189500 0.963100 0.257700
C161 C 0.014100 0.840100 0.321100
C162 C 0.189500 0.536900 0.757700
C163 C 0.242800 0.879900 0.812600
C164 C 0.075900 0.825300 1.009500
C165 C 0.388800 1.045500 0.219500
C166 C 0.146600 0.618900 0.817800
C167 C 0.131600 1.028900 0.195300
C168 C 0.380400 0.707800 0.989000
C169 C 0.341600 0.452100 0.409900
C170 C 0.147800 0.734600 0.992300
C171 C 0.327800 1.107700 0.158200
C172 C 0.476200 0.616500 0.862700
C173 C 0.331300 0.558200 0.443500
C174 C 0.248800 0.653300 0.863200
C175 C 0.302700 0.430200 0.327900
C176 C 0.201300 1.099900 0.146100
N177 N 0.352700 0.900800 0.332500
N178 N 0.647300 0.099200 0.667500
N179 N 0.647300 0.400800 0.167500
N180 N 0.352700 0.599200 0.832500
Br181 Br 0.629230 0.632090 1.009590
Br182 Br 0.370770 0.367910 -0.009590
Br183 Br 0.629230 0.867910 0.509590
Br184 Br 0.370770 0.132090 0.490410
I185 I 0.619090 0.253170 -0.120280
I186 I 0.380910 0.753170 0.620280
I187 I 0.619090 0.246830 0.379720
I188 I 0.380910 0.746830 1.120280

#END
