./ABIYOC_from_POSCAR.cif_generated_by_CrystalShift
_symmetry_cell_setting triclinic
_symmetry_space_group_name_H-M 'P 1'
loop_
_symmetry_equiv_pos_site_id
_symmetry_equiv_pos_as_xyz
1 x,y,z
_cell_length_a 10.871200
_cell_length_b 12.257700
_cell_length_c 15.545600
_cell_angle_alpha 90.000000
_cell_angle_beta 90.458800
_cell_angle_gamma 90.000000
_cell_volume 2071.476633
loop_
_atom_site_label
_atom_site_type_symbol
_atom_site_fract_x
_atom_site_fract_y
_atom_site_fract_z
H1 H 0.860200 0.573800 0.004000
H2 H 0.875200 0.401100 0.059400
H3 H 0.808900 0.365700 0.197400
H4 H 0.724100 0.503500 0.277400
H5 H 0.706700 0.677900 0.220900
H6 H 0.970000 0.453800 0.773600
H7 H 0.594800 0.606000 0.014300
H8 H 0.870200 0.349900 0.875800
H9 H 0.425400 0.618000 -0.076300
H10 H 0.659800 0.360800 0.892100
H11 H 0.373000 0.782000 -0.138500
H12 H 0.545200 0.477100 0.809500
H13 H 0.489500 0.935700 -0.109500
H14 H 0.657000 0.924800 -0.017500
H15 H 0.466600 0.870000 0.224600
H16 H 0.508500 0.764300 0.176200
H17 H 0.472300 0.868900 0.123900
H18 H 1.010600 0.823100 0.177800
H19 H 1.020100 0.944200 0.145700
H20 H 1.020100 0.555800 0.645700
H21 H 1.010600 0.676900 0.677800
H22 H 0.545200 1.022900 0.309500
H23 H 0.472300 0.631100 0.623900
H24 H 0.508500 0.735700 0.676200
H25 H 0.466600 0.630000 0.724600
H26 H 0.659800 1.139200 0.392100
H27 H 0.870200 1.150100 0.375800
H28 H 0.657000 0.575200 0.482500
H29 H 0.970000 1.046200 0.273600
H30 H 0.489500 0.564300 0.390500
H31 H 0.139800 0.073800 0.496000
H32 H 0.373000 0.718000 0.361500
H33 H 0.124800 -0.098900 0.440600
H34 H 0.425400 0.882000 0.423700
H35 H 0.191100 -0.134300 0.302600
H36 H 0.594800 0.894000 0.514300
H37 H 0.275900 0.003500 0.222600
H38 H 0.293300 0.177900 0.279100
H39 H 0.706700 0.822100 0.720900
H40 H 0.405200 0.106000 0.485700
H41 H 0.724100 0.996500 0.777400
H42 H 0.574600 0.118000 0.576300
H43 H 0.808900 1.134300 0.697400
H44 H 0.627000 0.282000 0.638500
H45 H 0.875200 1.098900 0.559400
H46 H 0.510500 0.435700 0.609500
H47 H 0.860200 0.926200 0.504000
H48 H 0.343000 0.424800 0.517500
H49 H 0.533400 0.370000 0.275400
H50 H 0.491500 0.264300 0.323800
H51 H 0.527700 0.368900 0.376100
H52 H -0.010600 0.323100 0.322200
H53 H 0.030000 -0.046200 0.726400
H54 H -0.020100 0.444200 0.354300
H55 H 0.129800 -0.150100 0.624200
H56 H 0.454800 0.522900 0.190500
H57 H 0.340200 -0.139200 0.607900
H58 H 0.340200 0.639200 0.107900
H59 H 0.454800 -0.022900 0.690500
H60 H 0.129800 0.650100 0.124200
H61 H 0.030000 0.546200 0.226400
H62 H 0.139800 0.426200 0.996000
H63 H 0.124800 0.598900 0.940600
H64 H 0.191100 0.634300 0.802600
H65 H 0.275900 0.496500 0.722600
H66 H 0.293300 0.322100 0.779100
H67 H -0.020100 0.055800 0.854300
H68 H -0.010600 0.176900 0.822200
H69 H 0.405200 0.394000 0.985700
H70 H 0.527700 0.131100 0.876100
H71 H 0.491500 0.235700 0.823800
H72 H 0.533400 0.130000 0.775400
H73 H 0.574600 0.382000 1.076300
H74 H 0.627000 0.218000 1.138500
H75 H 0.343000 0.075200 1.017500
H76 H 0.510500 0.064300 1.109500
C77 C 0.489600 0.130700 1.084500
C78 C 0.559200 0.222400 1.101900
C79 C 0.388800 0.137500 1.029700
C80 C 0.527700 0.320200 1.064900
C81 C 0.355400 0.236400 0.992800
C82 C 0.425900 0.327300 1.010400
C83 C 0.489600 0.157400 0.824200
C84 C 0.220800 0.354700 0.894800
C85 C 0.259500 0.377500 0.812300
C86 C 0.027500 0.122500 0.859000
C87 C 0.248700 0.482400 0.778100
C88 C 0.026900 0.161400 0.949900
C89 C 0.198400 0.564500 0.825500
C90 C 0.123300 0.208100 0.987100
C91 C 0.158600 0.543200 0.907600
C92 C 0.239900 0.239400 0.934400
C93 C 0.168800 0.439700 0.940900
C94 C 0.255300 0.154900 0.863600
C95 C 0.841400 0.456800 0.092400
C96 C 0.801600 0.435500 0.174500
C97 C 0.814200 0.531600 0.731600
C98 C 0.185800 0.468400 0.268400
C99 C 0.114500 0.540600 0.218900
C100 C 0.357200 0.118600 0.820100
C101 C 0.174800 0.602600 0.158800
C102 C 0.313600 0.038600 0.759200
C103 C 0.301800 0.595800 0.148800
C104 C 0.370100 -0.026700 0.697900
C105 C 0.370100 0.526700 0.197900
C106 C 0.301800 -0.095800 0.648800
C107 C 0.313600 0.461400 0.259200
C108 C 0.357200 0.381400 0.320100
C109 C 0.255300 0.345100 0.363600
C110 C 0.239900 0.260600 0.434400
C111 C 0.123300 0.291900 0.487100
C112 C 0.026900 0.338600 0.449900
C113 C 0.027500 0.377500 0.359000
C114 C 0.174800 -0.102600 0.658800
C115 C 0.114500 -0.040600 0.718900
C116 C 0.489600 0.342600 0.324200
C117 C 0.185800 0.031600 0.768400
C118 C 0.751300 0.517600 0.221900
C119 C 0.885500 0.459400 0.781100
C120 C 0.355400 0.263600 0.492800
C121 C 0.388800 0.362500 0.529700
C122 C 0.740500 0.622500 0.187700
C123 C 0.489600 0.369300 0.584500
C124 C 0.831200 0.939700 0.559100
C125 C 0.559200 0.277600 0.601900
C126 C 0.841400 1.043200 0.592400
C127 C 0.527700 0.179800 0.564900
C128 C 0.801600 1.064500 0.674500
C129 C 0.425900 0.172700 0.510400
C130 C 0.751300 0.982400 0.721900
C131 C 0.220800 0.145300 0.394800
C132 C 0.259500 0.122500 0.312300
C133 C 0.740500 0.877500 0.687700
C134 C 0.248700 0.017600 0.278100
C135 C 0.779200 0.854700 0.605200
C136 C 0.198400 -0.064500 0.325500
C137 C 0.574100 0.827300 0.489600
C138 C 0.158600 -0.043200 0.407600
C139 C 0.472300 0.820200 0.435100
C140 C 0.168800 0.060300 0.440900
C141 C 0.440800 0.722400 0.398100
C142 C 0.779200 0.645300 0.105200
C143 C 0.825200 0.397400 0.841200
C144 C 0.574100 0.672700 -0.010400
C145 C 0.814200 0.968400 0.231600
C146 C 0.885500 1.040600 0.281100
C147 C 0.510400 0.630700 0.415500
C148 C 0.825200 1.102600 0.341200
C149 C 0.611200 0.637500 0.470300
C150 C 0.698200 1.095800 0.351200
C151 C 0.644600 0.736400 0.507200
C152 C 0.629900 1.026700 0.302100
C153 C 0.510400 0.657400 0.675800
C154 C 0.686400 0.961400 0.240800
C155 C 0.642800 0.881400 0.179900
C156 C 0.744700 0.845100 0.136400
C157 C 0.760100 0.760600 0.065600
C158 C 0.876700 0.791900 0.012900
C159 C 0.973100 0.838600 0.050100
C160 C 0.972500 0.877500 0.141000
C161 C 0.972500 0.622500 0.641000
C162 C 0.973100 0.661400 0.550100
C163 C 0.510400 0.842600 0.175800
C164 C 0.876700 0.708100 0.512900
C165 C 0.760100 0.739400 0.565600
C166 C 0.744700 0.654900 0.636400
C167 C 0.644600 0.763600 0.007200
C168 C 0.611200 0.862500 -0.029700
C169 C 0.642800 0.618600 0.679900
C170 C 0.510400 0.869300 -0.084500
C171 C 0.686400 0.538600 0.740800
C172 C 0.440800 0.777600 -0.101900
C173 C 0.629900 0.473300 0.802100
C174 C 0.472300 0.679800 -0.064900
C175 C 0.698200 0.404200 0.851200
C176 C 0.831200 0.560300 0.059100
N177 N 0.849000 0.602600 0.669020
N178 N 0.151000 0.397400 0.330980
N179 N 0.151000 0.102600 0.830980
N180 N 0.849000 0.897400 0.169020
I181 I 0.877680 0.752300 -0.118755
I182 I -0.144230 0.365620 0.508892
I183 I 1.144230 0.865620 -0.008892
I184 I 0.122320 0.252300 0.618755
I185 I 1.144230 0.634380 0.491108
I186 I 0.122320 0.247700 1.118755
I187 I -0.144230 0.134380 1.008892
I188 I 0.877680 0.747700 0.381245

#END
