./ABIZAP_from_POSCAR.cif_generated_by_CrystalShift
_symmetry_cell_setting triclinic
_symmetry_space_group_name_H-M 'P 1'
loop_
_symmetry_equiv_pos_site_id
_symmetry_equiv_pos_as_xyz
1 x,y,z
_cell_length_a 7.331000
_cell_length_b 10.106800
_cell_length_c 14.572000
_cell_angle_alpha 84.948000
_cell_angle_beta 83.200000
_cell_angle_gamma 79.942000
_cell_volume 1053.101175
loop_
_atom_site_label
_atom_site_type_symbol
_atom_site_fract_x
_atom_site_fract_y
_atom_site_fract_z
H1 H 0.218500 1.214600 0.681200
H2 H 0.157400 0.997300 0.692100
H3 H 0.609000 0.216500 0.650200
H4 H 0.819300 0.169800 0.666400
H5 H 0.828900 0.089500 1.044900
H6 H 0.899000 0.492900 0.410300
H7 H 0.692600 0.179700 1.182700
H8 H 0.802400 0.428800 0.567000
H9 H 0.619700 0.408200 1.193800
H10 H 0.842600 0.002700 0.307900
H11 H 0.781500 -0.214600 0.318800
H12 H 0.684100 -0.317000 0.460600
H13 H 0.197600 0.571200 0.433000
H14 H 0.078900 0.340300 0.132100
H15 H 0.702600 0.894500 0.944600
H16 H 0.280400 0.337600 0.159500
H17 H 0.571500 0.941200 1.097900
H18 H 0.428500 0.058800 -0.097900
H19 H 0.719600 0.662400 0.840500
H20 H 0.921100 0.659700 0.867900
H21 H 0.391000 0.783500 0.349800
H22 H 0.180700 0.830200 0.333600
H23 H 0.297400 0.105500 0.055400
H24 H 0.101000 0.507100 0.589700
H25 H 0.380300 0.591800 -0.193800
H26 H 0.307400 0.820300 -0.182700
H27 H 0.171100 0.910500 -0.044900
H28 H 0.315900 1.317000 0.539400
C29 C 0.167100 0.729700 0.027450
C30 C 0.282100 0.763000 -0.130940
C31 C 0.089500 0.748200 0.123510
C32 C 0.325900 0.625200 -0.137700
C33 C 0.095200 0.601600 0.170180
C34 C 0.290000 0.535100 -0.062340
C35 C 0.211400 0.592420 0.019100
C36 C 0.322400 0.389200 -0.057050
C37 C 0.278600 0.312000 0.022210
C38 C 0.319500 0.171900 0.009010
C39 C 0.272700 0.831800 0.375950
C40 C 0.393400 0.145300 -0.077730
C41 C 0.802800 0.630000 0.887640
C42 C 0.197200 0.370000 0.112360
C43 C 0.606600 0.854700 1.077730
C44 C 0.680500 0.828100 0.990990
C45 C 0.128300 0.592100 0.569600
C46 C 0.721400 0.688000 0.977790
C47 C 0.182700 0.628500 0.480820
C48 C 0.214700 0.763700 0.468080
C49 C 0.653900 -0.061100 0.681720
C50 C 0.640700 -0.190100 0.633930
C51 C 0.693300 -0.158980 0.534770
C52 C 0.710400 -0.229800 0.456600
C53 C 0.677600 0.610800 1.057050
C54 C 0.767600 -0.167800 0.372010
C55 C 0.788600 0.407580 0.980900
C56 C 0.804700 -0.036600 0.365500
C57 C 0.710000 0.464900 1.062340
C58 C 0.786200 0.036990 0.443650
C59 C 0.731600 -0.028660 0.527200
C60 C 0.815200 0.174380 0.450060
C61 C 0.785300 0.236300 0.531920
C62 C 0.817300 0.371500 0.519180
C63 C 0.674100 0.374800 1.137700
C64 C 0.871700 0.407900 0.430400
C65 C 0.717900 0.237000 1.130940
C66 C 0.727300 0.168200 0.624050
C67 C 0.798700 0.182300 1.048760
C68 C 0.832900 0.270300 0.972550
C69 C 0.184800 0.825620 0.549940
C70 C 0.268400 1.028660 0.472800
C71 C 0.213800 0.963010 0.556350
C72 C 0.910500 0.251800 0.876490
C73 C 0.346100 1.061100 0.318280
C74 C 0.359300 1.190100 0.366070
C75 C 0.306700 1.158980 0.465230
C76 C 0.289600 1.229800 0.543400
C77 C 0.201300 0.817700 -0.048760
C78 C 0.232400 1.167800 0.627990
C79 C 0.904800 0.398400 0.829820
C80 C 0.195300 1.036600 0.634500
N81 N 0.169200 0.517320 0.102470
N82 N 0.290700 0.971590 0.386910
N83 N 0.830800 0.482680 0.897530
N84 N 0.709300 0.028410 0.613090
O85 O 0.031500 0.848910 0.163850
O86 O 0.619800 -0.042600 0.763470
O87 O 0.406000 1.290360 0.325650
O88 O 0.594000 -0.290360 0.674350
O89 O 0.968500 0.151090 0.836150
O90 O 0.957000 0.429810 0.750370
O91 O 0.043000 0.570190 0.249630
O92 O 0.380200 1.042600 0.236530
S93 S 0.415670 0.288960 -0.146860
S94 S 0.885160 0.280520 0.358730
S95 S 0.584330 0.711040 1.146860
S96 S 0.114840 0.719480 0.641270

#END
