./ABMQZD_from_POSCAR.cif_generated_by_CrystalShift
_symmetry_cell_setting triclinic
_symmetry_space_group_name_H-M 'P 1'
loop_
_symmetry_equiv_pos_site_id
_symmetry_equiv_pos_as_xyz
1 x,y,z
_cell_length_a 6.826000
_cell_length_b 8.091000
_cell_length_c 9.538000
_cell_angle_alpha 93.880000
_cell_angle_beta 109.600000
_cell_angle_gamma 104.020000
_cell_volume 475.035257
loop_
_atom_site_label
_atom_site_type_symbol
_atom_site_fract_x
_atom_site_fract_y
_atom_site_fract_z
H1 H 0.474000 -0.467000 0.345000
H2 H 0.565000 0.097000 0.126000
H3 H 0.778000 0.261000 0.240000
H4 H 0.550000 0.240000 0.237000
H5 H 0.804000 0.359000 0.474000
H6 H 0.979000 0.469000 0.732000
H7 H 0.924000 -0.043000 0.802000
H8 H 0.526000 1.467000 0.655000
H9 H 0.491000 1.421000 0.783000
H10 H 0.435000 0.903000 0.874000
H11 H 0.222000 0.739000 0.760000
H12 H 0.450000 0.760000 0.763000
H13 H 0.196000 0.641000 0.526000
H14 H 0.021000 0.531000 0.268000
H15 H 0.076000 1.043000 0.198000
H16 H 0.509000 -0.421000 0.217000
C17 C 0.404100 1.128100 0.730200
C18 C 0.270700 1.197600 0.472400
C19 C 0.366700 0.834800 0.780600
C20 C 0.201000 1.011400 0.417200
C21 C 0.237000 0.894500 0.518200
C22 C 0.172700 0.717500 0.460100
C23 C 0.074600 0.661700 0.306800
C24 C 0.100900 0.953700 0.262500
C25 C 0.037100 0.780000 0.209200
C26 C 0.595900 -0.128100 0.269800
C27 C 0.633300 0.165200 0.219400
C28 C 0.729300 -0.197600 0.527600
C29 C 0.899100 0.046300 0.737500
C30 C 0.962900 0.220000 0.790800
C31 C 0.925400 0.338300 0.693200
C32 C 0.827300 0.282500 0.539900
C33 C 0.763000 0.105500 0.481800
C34 C 0.799000 -0.011400 0.582800
N35 N 0.633300 -0.240700 0.374200
N36 N 0.428200 1.418700 0.686700
N37 N 0.571800 -0.418700 0.313300
N38 N 0.366700 1.240700 0.625800
N39 N 0.666300 0.045200 0.328400
N40 N 0.333700 0.954800 0.671600
O41 O 0.749600 -0.307500 0.608900
O42 O 0.508300 -0.184200 0.136200
O43 O 0.250400 1.307500 0.391100
O44 O 0.491700 1.184200 0.863800
Br45 Br 1.099900 0.297200 1.002000
Br46 Br -0.099900 0.702800 -0.002000

#END
