
#######################################################################
#
#                 Cambridge Crystallographic Data Centre
#                                CCDC 
#
#######################################################################
#
# If this CIF has been generated from an entry in the Cambridge 
# Structural Database, then it will include bibliographic, chemical, 
# crystal, experimental, refinement or atomic coordinate data resulting 
# from the CCDC's data processing and validation procedures.
#
#######################################################################

data_ABOBOL
_symmetry_cell_setting           triclinic
_symmetry_space_group_name_H-M   'P -1'
_symmetry_Int_Tables_number      2
_space_group_name_Hall           '-P 1'
loop_
_symmetry_equiv_pos_site_id
_symmetry_equiv_pos_as_xyz
1 x,y,z
2 -x,-y,-z
_cell_length_a                   9.196(2)
_cell_length_b                   12.205(3)
_cell_length_c                   17.211(3)
_cell_angle_alpha                109.982(10)
_cell_angle_beta                 94.427(9)
_cell_angle_gamma                99.724(10)
_cell_volume                     1770.26
loop_
_atom_site_label
_atom_site_type_symbol
_atom_site_fract_x
_atom_site_fract_y
_atom_site_fract_z
O1 O 0.79407(11) 0.27692(11) 0.26179(6)
C1 C 0.90588(19) 0.36994(17) 0.27697(11)
O2 O 0.97226(13) 0.38341(12) 0.22192(7)
C2 C 0.9313(2) 0.44823(16) 0.36699(10)
H1 H 0.8897 0.5186 0.3752
H2 H 1.0369 0.4727 0.3887
C3 C 0.85014(18) 0.36929(16) 0.40887(10)
H3 H 0.8071 0.4189 0.4553
C4 C 0.94513(19) 0.30032(16) 0.44115(10)
C5 C 0.9027(2) 0.26349(17) 0.50594(10)
O3 O 0.78143(14) 0.29950(12) 0.53860(7)
H4 H 0.7662 0.2753 0.5768
C6 C 0.9810(2) 0.1953(2) 0.53467(12)
H5 H 0.9502 0.1704 0.5773
C7 C 1.1042(3) 0.1639(2) 0.50070(15)
H6 H 1.1573 0.1178 0.5202
C8 C 1.1495(3) 0.2003(2) 0.43798(15)
H7 H 1.2335 0.1792 0.4150
C9 C 1.0704(2) 0.2684(2) 0.40884(12)
H8 H 1.1025 0.2933 0.3665
C10 C 0.72150(17) 0.28851(16) 0.33777(10)
C11 C 0.67060(18) 0.16346(17) 0.33688(10)
C12 C 0.7397(2) 0.07192(19) 0.29785(12)
H9 H 0.8169 0.0854 0.2682
C13 C 0.6964(3) -0.0391(2) 0.30210(14)
H10 H 0.7444 -0.0998 0.2753
C14 C 0.5841(3) -0.0611(2) 0.34507(16)
H11 H 0.5557 -0.1363 0.3479
C15 C 0.5128(2) 0.0284(2) 0.38422(15)
H12 H 0.4356 0.0140 0.4136
C16 C 0.5561(2) 0.1404(2) 0.37984(12)
H13 H 0.5072 0.2007 0.4063
C17 C 0.59010(19) 0.34742(19) 0.32838(13)
C18 C 0.5638(2) 0.4473(2) 0.38835(14)
H14 H 0.6292 0.4832 0.4382
C19 C 0.4424(3) 0.4955(3) 0.37620(19)
H15 H 0.4272 0.5633 0.4177
C20 C 0.3451(3) 0.4444(3) 0.3039(2)
H16 H 0.2629 0.4766 0.2959
C21 C 0.3688(3) 0.3455(3) 0.2431(2)
H17 H 0.3030 0.3110 0.1934
C22 C 0.4908(2) 0.2954(2) 0.25480(14)
H18 H 0.5052 0.2274 0.2132
O1 O 0.20593(11) 0.72308(11) 0.73821(6)
C1 C 0.09412(19) 0.63006(17) 0.72303(11)
O2 O 0.02774(13) 0.61659(12) 0.77808(7)
C2 C 0.0687(2) 0.55177(16) 0.63301(10)
H1 H 0.1103 0.4814 0.6248
H2 H -0.0369 0.5273 0.6113
C3 C 0.14986(18) 0.63071(16) 0.59113(10)
H3 H 0.1929 0.5811 0.5447
C4 C 0.05487(19) 0.69968(16) 0.55885(10)
C5 C 0.0973(2) 0.73651(17) 0.49406(10)
O3 O 0.21857(14) 0.70050(12) 0.46140(7)
H4 H 0.2338 0.7247 0.4232
C6 C 0.0190(2) 0.8047(2) 0.46533(12)
H5 H 0.0498 0.8296 0.4227
C7 C -0.1042(3) 0.8361(2) 0.49930(15)
H6 H -0.1573 0.8822 0.4798
C8 C -0.1495(3) 0.7997(2) 0.56202(15)
H7 H -0.2335 0.8208 0.5850
C9 C -0.0704(2) 0.7316(2) 0.59116(12)
H8 H -0.1025 0.7067 0.6335
C10 C 0.27850(17) 0.71149(16) 0.66223(10)
C11 C 0.32940(18) 0.83654(17) 0.66312(10)
C12 C 0.2603(2) 0.92808(19) 0.70215(12)
H9 H 0.1831 0.9146 0.7318
C13 C 0.3036(3) 1.0391(2) 0.69790(14)
H10 H 0.2556 1.0998 0.7247
C14 C 0.4159(3) 1.0611(2) 0.65493(16)
H11 H 0.4443 1.1363 0.6521
C15 C 0.4872(2) 0.9716(2) 0.61578(15)
H12 H 0.5644 0.9860 0.5864
C16 C 0.4439(2) 0.8596(2) 0.62016(12)
H13 H 0.4928 0.7993 0.5937
C17 C 0.40990(19) 0.65258(19) 0.67162(13)
C18 C 0.4362(2) 0.5527(2) 0.61165(14)
H14 H 0.3708 0.5168 0.5618
C19 C 0.5576(3) 0.5045(3) 0.62380(19)
H15 H 0.5728 0.4367 0.5823
C20 C 0.6549(3) 0.5556(3) 0.6961(2)
H16 H 0.7371 0.5234 0.7041
C21 C 0.6312(3) 0.6545(3) 0.7569(2)
H17 H 0.6970 0.6890 0.8066
C22 C 0.5092(2) 0.7046(2) 0.74520(14)
H18 H 0.4948 0.7726 0.7868
O4 O 0.10726(14) 0.77109(12) 0.24642(7)
C23 C 0.1990(2) 0.69749(19) 0.24746(12)
O5 O 0.27361(14) 0.70856(14) 0.31197(8)
C24 C 0.1925(2) 0.60957(17) 0.16244(11)
H19 H 0.1305 0.5335 0.1560
H20 H 0.2915 0.5979 0.1509
C25 C 0.12479(17) 0.66412(15) 0.10481(10)
H21 H 0.0602 0.6003 0.0574
C26 C 0.23942(18) 0.73477(15) 0.07191(10)
C27 C 0.20614(19) 0.73541(16) -0.00815(10)
O6 O 0.06917(12) 0.67512(12) -0.05167(7)
H22 H 0.0691 0.6657 -0.1012
C28 C 0.3111(2) 0.79317(17) -0.04218(11)
H23 H 0.2886 0.7925 -0.0960
C29 C 0.4476(2) 0.8511(2) 0.00333(14)
H24 H 0.5180 0.8893 -0.0201
C30 C 0.4830(2) 0.8540(2) 0.08331(13)
H25 H 0.5758 0.8945 0.1144
C31 C 0.3775(2) 0.79532(19) 0.11628(12)
H26 H 0.4006 0.7968 0.1702
C32 C 0.02522(17) 0.73883(15) 0.16213(10)
C33 C 0.01289(19) 0.85513(16) 0.15110(11)
C34 C -0.0932(2) 0.85950(19) 0.09179(12)
H27 H -0.1624 0.7906 0.0597
C35 C -0.0984(3) 0.9648(2) 0.07921(15)
H28 H -0.1704 0.9662 0.0387
C36 C 0.0017(3) 1.0665(2) 0.12605(19)
H29 H -0.0008 1.1373 0.1173
C37 C 0.1058(3) 1.0637(2) 0.18595(17)
H30 H 0.1734 1.1332 0.2186
C38 C 0.1119(2) 0.9594(2) 0.19854(14)
H31 H 0.1836 0.9590 0.2396
C39 C -0.12594(19) 0.66139(17) 0.15836(12)
C40 C -0.1858(2) 0.6671(2) 0.23017(13)
H32 H -0.1336 0.7182 0.2819
C41 C -0.3254(3) 0.5962(3) 0.2256(2)
H33 H -0.3659 0.5999 0.2741
C42 C -0.4016(3) 0.5213(3) 0.1492(3)
H34 H -0.4941 0.4741 0.1463
C43 C -0.3453(2) 0.5148(2) 0.0781(2)
H35 H -0.3981 0.4635 0.0267
C44 C -0.2082(2) 0.58496(18) 0.08257(14)
H36 H -0.1700 0.5809 0.0334
O4 O 0.89274(14) 0.22891(12) 0.75358(7)
C23 C 0.8010(2) 0.30251(19) 0.75254(12)
O5 O 0.72639(14) 0.29144(14) 0.68803(8)
C24 C 0.8075(2) 0.39043(17) 0.83756(11)
H19 H 0.8695 0.4665 0.8440
H20 H 0.7085 0.4021 0.8491
C25 C 0.87521(17) 0.33588(15) 0.89519(10)
H21 H 0.9398 0.3997 0.9426
C26 C 0.76058(18) 0.26523(15) 0.92809(10)
C27 C 0.79386(19) 0.26459(16) 1.00815(10)
O6 O 0.93083(12) 0.32488(12) 1.05167(7)
H22 H 0.9309 0.3343 1.1012
C28 C 0.6889(2) 0.20683(17) 1.04218(11)
H23 H 0.7114 0.2075 1.0960
C29 C 0.5524(2) 0.1489(2) 0.99667(14)
H24 H 0.4820 0.1107 1.0201
C30 C 0.5170(2) 0.1460(2) 0.91669(13)
H25 H 0.4242 0.1055 0.8856
C31 C 0.6225(2) 0.20468(19) 0.88372(12)
H26 H 0.5994 0.2032 0.8298
C32 C 0.97478(17) 0.26117(15) 0.83787(10)
C33 C 0.98711(19) 0.14487(16) 0.84890(11)
C34 C 1.0932(2) 0.14050(19) 0.90821(12)
H27 H 1.1624 0.2094 0.9403
C35 C 1.0984(3) 0.0352(2) 0.92079(15)
H28 H 1.1704 0.0338 0.9613
C36 C 0.9983(3) -0.0665(2) 0.87395(19)
H29 H 1.0008 -0.1373 0.8827
C37 C 0.8942(3) -0.0637(2) 0.81405(17)
H30 H 0.8266 -0.1332 0.7814
C38 C 0.8881(2) 0.0406(2) 0.80146(14)
H31 H 0.8164 0.0410 0.7604
C39 C 1.12594(19) 0.33861(17) 0.84164(12)
C40 C 1.1858(2) 0.3329(2) 0.76983(13)
H32 H 1.1336 0.2818 0.7181
C41 C 1.3254(3) 0.4038(3) 0.7744(2)
H33 H 1.3659 0.4001 0.7259
C42 C 1.4016(3) 0.4787(3) 0.8508(3)
H34 H 1.4941 0.5259 0.8537
C43 C 1.3453(2) 0.4852(2) 0.9219(2)
H35 H 1.3981 0.5365 0.9733
C44 C 1.2082(2) 0.41504(18) 0.91743(14)
H36 H 1.1700 0.4191 0.9666

#END
