
#######################################################################
#
#                 Cambridge Crystallographic Data Centre
#                                CCDC 
#
#######################################################################
#
# If this CIF has been generated from an entry in the Cambridge 
# Structural Database, then it will include bibliographic, chemical, 
# crystal, experimental, refinement or atomic coordinate data resulting 
# from the CCDC's data processing and validation procedures.
#
#######################################################################

data_ABOCEC
_symmetry_cell_setting           monoclinic
_symmetry_space_group_name_H-M   'P c'
_symmetry_Int_Tables_number      7
_space_group_name_Hall           'P -2yc'
loop_
_symmetry_equiv_pos_site_id
_symmetry_equiv_pos_as_xyz
1 x,y,z
2 x,-y,1/2+z
_cell_length_a                   9.5474(8)
_cell_length_b                   13.3245(12)
_cell_length_c                   15.2278(17)
_cell_angle_alpha                90
_cell_angle_beta                 94.942(4)
_cell_angle_gamma                90
_cell_volume                     1929.99
loop_
_atom_site_label
_atom_site_type_symbol
_atom_site_fract_x
_atom_site_fract_y
_atom_site_fract_z
O1 O 0.64774(10) 0.15458(8) 0.57361(8)
C1 C 0.63865(18) 0.14206(13) 0.65988(13)
O2 O 0.57361(13) 0.20168(9) 0.70112(8)
C2 C 0.71363(17) 0.04992(12) 0.69422(11)
H1 H 0.7841 0.0694 0.7418
C3 C 0.61495(18) -0.02697(13) 0.73020(12)
H2 H 0.5639 0.0038 0.7747
H3 H 0.6688 -0.0823 0.7554
H4 H 0.5501 -0.0508 0.6832
C4 C 0.79074(17) 0.01288(12) 0.61490(11)
H5 H 0.7722 -0.0592 0.6082
C5 C 0.94890(18) 0.02635(15) 0.62878(11)
C6 C 1.01050(19) 0.11983(16) 0.64295(12)
O3 O 0.92313(12) 0.20100(9) 0.64072(9)
H6 H 0.9699 0.2526 0.6409
C7 C 1.1542(2) 0.13045(17) 0.66132(13)
H7 H 1.1940 0.1939 0.6692
C8 C 1.2372(2) 0.0463(2) 0.66777(15)
H8 H 1.3335 0.0528 0.6817
C9 C 1.1805(2) -0.0462(2) 0.65407(15)
H9 H 1.2383 -0.1025 0.6578
C10 C 1.0356(2) -0.05744(16) 0.63429(13)
H10 H 0.9973 -0.1211 0.6248
C11 C 0.71024(17) 0.06718(12) 0.53439(11)
C12 C 0.80041(18) 0.10268(14) 0.46410(11)
C13 C 0.8049(2) 0.20363(14) 0.44008(13)
H11 H 0.7487 0.2500 0.4662
C14 C 0.8923(2) 0.23518(17) 0.37774(14)
H12 H 0.8935 0.3026 0.3619
C15 C 0.9768(2) 0.1688(2) 0.33916(14)
H13 H 1.0374 0.1911 0.2986
C16 C 0.9718(2) 0.06907(18) 0.36060(13)
H14 H 1.0301 0.0240 0.3346
C17 C 0.88037(18) 0.03347(15) 0.42102(12)
C18 C 0.8692(2) -0.07482(15) 0.43162(12)
H15 H 0.9509 -0.1119 0.4276
C19 C 0.7547(2) -0.12588(14) 0.44639(13)
H16 H 0.7657 -0.1951 0.4512
C20 C 0.6139(2) -0.08798(13) 0.45603(12)
C21 C 0.4976(2) -0.14574(15) 0.42283(13)
H17 H 0.5128 -0.2090 0.3997
C22 C 0.3630(3) -0.11104(18) 0.42382(16)
H18 H 0.2876 -0.1508 0.4023
C23 C 0.3399(2) -0.01811(18) 0.45647(14)
H19 H 0.2488 0.0068 0.4557
C24 C 0.4519(2) 0.03934(14) 0.49085(12)
H20 H 0.4349 0.1026 0.5133
C25 C 0.58879(18) 0.00504(13) 0.49263(11)
O1 O 0.64774(10) 0.84542(8) 0.07361(8)
C1 C 0.63865(18) 0.85794(13) 0.15988(13)
O2 O 0.57361(13) 0.79832(9) 0.20112(8)
C2 C 0.71363(17) 0.95008(12) 0.19422(11)
H1 H 0.7841 0.9306 0.2418
C3 C 0.61495(18) 1.02697(13) 0.23020(12)
H2 H 0.5639 0.9962 0.2747
H3 H 0.6688 1.0823 0.2554
H4 H 0.5501 1.0508 0.1832
C4 C 0.79074(17) 0.98712(12) 0.11490(11)
H5 H 0.7722 1.0592 0.1082
C5 C 0.94890(18) 0.97365(15) 0.12878(11)
C6 C 1.01050(19) 0.88017(16) 0.14295(12)
O3 O 0.92313(12) 0.79900(9) 0.14072(9)
H6 H 0.9699 0.7474 0.1409
C7 C 1.1542(2) 0.86955(17) 0.16132(13)
H7 H 1.1940 0.8061 0.1692
C8 C 1.2372(2) 0.9537(2) 0.16777(15)
H8 H 1.3335 0.9472 0.1817
C9 C 1.1805(2) 1.0462(2) 0.15407(15)
H9 H 1.2383 1.1025 0.1578
C10 C 1.0356(2) 1.05744(16) 0.13429(13)
H10 H 0.9973 1.1211 0.1248
C11 C 0.71024(17) 0.93282(12) 0.03439(11)
C12 C 0.80041(18) 0.89732(14) -0.03590(11)
C13 C 0.8049(2) 0.79637(14) -0.05992(13)
H11 H 0.7487 0.7500 -0.0338
C14 C 0.8923(2) 0.76482(17) -0.12226(14)
H12 H 0.8935 0.6974 -0.1381
C15 C 0.9768(2) 0.8312(2) -0.16084(14)
H13 H 1.0374 0.8089 -0.2014
C16 C 0.9718(2) 0.93093(18) -0.13940(13)
H14 H 1.0301 0.9760 -0.1654
C17 C 0.88037(18) 0.96653(15) -0.07898(12)
C18 C 0.8692(2) 1.07482(15) -0.06838(12)
H15 H 0.9509 1.1119 -0.0724
C19 C 0.7547(2) 1.12588(14) -0.05361(13)
H16 H 0.7657 1.1951 -0.0488
C20 C 0.6139(2) 1.08798(13) -0.04397(12)
C21 C 0.4976(2) 1.14574(15) -0.07717(13)
H17 H 0.5128 1.2090 -0.1003
C22 C 0.3630(3) 1.11104(18) -0.07618(16)
H18 H 0.2876 1.1508 -0.0977
C23 C 0.3399(2) 1.01811(18) -0.04353(14)
H19 H 0.2488 0.9932 -0.0443
C24 C 0.4519(2) 0.96066(14) -0.00915(12)
H20 H 0.4349 0.8974 0.0133
C25 C 0.58879(18) 0.99496(13) -0.00737(11)
O4 O 0.15607(11) 0.39326(8) 0.51563(8)
C26 C 0.14158(19) 0.42430(14) 0.59716(13)
O5 O 0.06869(14) 0.37785(10) 0.64435(9)
C27 C 0.22344(17) 0.51697(12) 0.62000(12)
H21 H 0.2910 0.5022 0.6705
C28 C 0.1295(2) 0.60333(13) 0.64533(15)
H22 H 0.0630 0.6192 0.5964
H23 H 0.1864 0.6612 0.6606
H24 H 0.0801 0.5838 0.6949
C29 C 0.30560(16) 0.53628(12) 0.53936(11)
H25 H 0.2902 0.6065 0.5219
C30 C 0.46203(17) 0.52178(14) 0.56032(11)
C31 C 0.52029(19) 0.43329(14) 0.59435(11)
O6 O 0.43073(12) 0.35457(9) 0.60468(9)
H26 H 0.4738 0.3088 0.6309
C32 C 0.6629(2) 0.42586(16) 0.61949(13)
H27 H 0.7006 0.3651 0.6402
C33 C 0.7480(2) 0.50703(19) 0.61395(16)
H28 H 0.8434 0.5021 0.6317
C34 C 0.6930(2) 0.59614(17) 0.58220(15)
H29 H 0.7509 0.6519 0.5788
C35 C 0.5517(2) 0.60296(15) 0.55521(13)
H30 H 0.5157 0.6636 0.5330
C36 C 0.22664(18) 0.46899(12) 0.46629(12)
C37 C 0.31889(18) 0.41386(13) 0.40445(12)
C38 C 0.3194(2) 0.30916(13) 0.40245(13)
H31 H 0.2606 0.2731 0.4365
C39 C 0.4073(2) 0.25921(16) 0.34975(15)
H32 H 0.4060 0.1895 0.3477
C40 C 0.4964(2) 0.31133(19) 0.30043(15)
H33 H 0.5575 0.2774 0.2664
C41 C 0.4942(2) 0.41404(18) 0.30191(13)
H34 H 0.5552 0.4493 0.2688
C42 C 0.40356(19) 0.46713(14) 0.35141(11)
C43 C 0.3981(2) 0.57539(15) 0.33976(12)
H35 H 0.4819 0.6059 0.3274
C44 C 0.2897(2) 0.63596(14) 0.34444(12)
H36 H 0.3069 0.7032 0.3329
C45 C 0.1466(2) 0.61293(13) 0.36509(11)
C46 C 0.0384(2) 0.67516(15) 0.33028(12)
H37 H 0.0610 0.7335 0.3011
C47 C -0.0997(3) 0.65315(18) 0.33771(14)
H38 H -0.1697 0.6957 0.3131
C48 C -0.1352(2) 0.56838(18) 0.38137(15)
H39 H -0.2292 0.5515 0.3840
C49 C -0.0300(2) 0.50750(14) 0.42180(13)
H40 H -0.0542 0.4518 0.4540
C50 C 0.11121(18) 0.52936(13) 0.41436(11)
O4 O 0.15607(11) 0.60674(8) 1.01563(8)
C26 C 0.14158(19) 0.57570(14) 1.09716(13)
O5 O 0.06869(14) 0.62215(10) 1.14435(9)
C27 C 0.22344(17) 0.48303(12) 1.12000(12)
H21 H 0.2910 0.4978 1.1705
C28 C 0.1295(2) 0.39667(13) 1.14533(15)
H22 H 0.0630 0.3808 1.0964
H23 H 0.1864 0.3388 1.1606
H24 H 0.0801 0.4162 1.1949
C29 C 0.30560(16) 0.46372(12) 1.03936(11)
H25 H 0.2902 0.3935 1.0219
C30 C 0.46203(17) 0.47822(14) 1.06032(11)
C31 C 0.52029(19) 0.56671(14) 1.09435(11)
O6 O 0.43073(12) 0.64543(9) 1.10468(9)
H26 H 0.4738 0.6912 1.1309
C32 C 0.6629(2) 0.57414(16) 1.11949(13)
H27 H 0.7006 0.6349 1.1402
C33 C 0.7480(2) 0.49297(19) 1.11395(16)
H28 H 0.8434 0.4979 1.1317
C34 C 0.6930(2) 0.40386(17) 1.08220(15)
H29 H 0.7509 0.3481 1.0788
C35 C 0.5517(2) 0.39704(15) 1.05521(13)
H30 H 0.5157 0.3364 1.0330
C36 C 0.22664(18) 0.53101(12) 0.96629(12)
C37 C 0.31889(18) 0.58614(13) 0.90445(12)
C38 C 0.3194(2) 0.69084(13) 0.90245(13)
H31 H 0.2606 0.7269 0.9365
C39 C 0.4073(2) 0.74079(16) 0.84975(15)
H32 H 0.4060 0.8105 0.8477
C40 C 0.4964(2) 0.68867(19) 0.80043(15)
H33 H 0.5575 0.7226 0.7664
C41 C 0.4942(2) 0.58596(18) 0.80191(13)
H34 H 0.5552 0.5507 0.7688
C42 C 0.40356(19) 0.53287(14) 0.85141(11)
C43 C 0.3981(2) 0.42461(15) 0.83976(12)
H35 H 0.4819 0.3941 0.8274
C44 C 0.2897(2) 0.36404(14) 0.84444(12)
H36 H 0.3069 0.2968 0.8329
C45 C 0.1466(2) 0.38707(13) 0.86509(11)
C46 C 0.0384(2) 0.32484(15) 0.83028(12)
H37 H 0.0610 0.2665 0.8011
C47 C -0.0997(3) 0.34685(18) 0.83771(14)
H38 H -0.1697 0.3043 0.8131
C48 C -0.1352(2) 0.43162(18) 0.88137(15)
H39 H -0.2292 0.4485 0.8840
C49 C -0.0300(2) 0.49250(14) 0.92180(13)
H40 H -0.0542 0.5482 0.9540
C50 C 0.11121(18) 0.47064(13) 0.91436(11)

#END
