
#######################################################################
#
#                 Cambridge Crystallographic Data Centre
#                                CCDC 
#
#######################################################################
#
# If this CIF has been generated from an entry in the Cambridge 
# Structural Database, then it will include bibliographic, chemical, 
# crystal, experimental, refinement or atomic coordinate data resulting 
# from the CCDC's data processing and validation procedures.
#
#######################################################################

data_ABOCOM
_symmetry_cell_setting           monoclinic
_symmetry_space_group_name_H-M   'C 2/c'
_symmetry_Int_Tables_number      15
_space_group_name_Hall           '-C 2yn'
loop_
_symmetry_equiv_pos_site_id
_symmetry_equiv_pos_as_xyz
1 x,y,z
2 -x,y,1/2-z
3 1/2+x,1/2+y,z
4 1/2-x,1/2+y,1/2-z
5 -x,-y,-z
6 x,-y,1/2+z
7 1/2-x,1/2-y,-z
8 1/2+x,1/2-y,1/2+z
_cell_length_a                   16.630(7)
_cell_length_b                   6.464(3)
_cell_length_c                   34.227(13)
_cell_angle_alpha                90
_cell_angle_beta                 94.57(4)
_cell_angle_gamma                90
_cell_volume                     3667.58
loop_
_atom_site_label
_atom_site_type_symbol
_atom_site_fract_x
_atom_site_fract_y
_atom_site_fract_z
O1 O 0.19449(6) 0.02188(14) 0.62150(3)
C1 C 0.23452(8) 0.21362(19) 0.63491(4)
C2 C 0.32442(8) 0.1618(2) 0.64216(4)
C3 C 0.35256(10) -0.0102(2) 0.62238(4)
H1 H 0.3164 -0.0863 0.6060
C4 C 0.43304(11) -0.0702(3) 0.62657(5)
H2 H 0.4500 -0.1861 0.6134
C5 C 0.48720(11) 0.0418(3) 0.65017(6)
H3 H 0.5411 0.0021 0.6533
C6 C 0.46125(10) 0.2118(3) 0.66895(5)
H4 H 0.4988 0.2872 0.6847
C7 C 0.38100(8) 0.2790(2) 0.66578(4)
C8 C 0.36587(10) 0.4738(3) 0.68871(5)
H5 H 0.3692 0.4372 0.7163
H6 H 0.4098 0.5688 0.6851
C9 C 0.28778(9) 0.5903(2) 0.67964(4)
H7 H 0.2899 0.7206 0.6937
H8 H 0.2810 0.6205 0.6518
C10 C 0.21751(9) 0.4662(2) 0.69113(4)
C11 C 0.17785(11) 0.5245(3) 0.72399(4)
H9 H 0.1926 0.6468 0.7370
C12 C 0.11742(10) 0.4049(3) 0.73754(5)
H10 H 0.0912 0.4474 0.7592
C13 C 0.09623(9) 0.2232(3) 0.71898(4)
H11 H 0.0558 0.1415 0.7282
C14 C 0.13478(8) 0.1603(2) 0.68653(4)
H12 H 0.1204 0.0355 0.6744
C15 C 0.19469(8) 0.2813(2) 0.67195(3)
C16 C 0.21325(8) 0.3687(2) 0.59976(4)
H13 H 0.2017 0.5065 0.6099
C17 C 0.27993(9) 0.3818(2) 0.57125(4)
H14 H 0.3307 0.4131 0.5860
H15 H 0.2854 0.2477 0.5590
C18 C 0.26443(9) 0.5415(2) 0.53986(4)
O2 O 0.22498(8) 0.69654(18) 0.54410(3)
O3 O 0.30001(8) 0.50277(19) 0.50818(3)
C19 C 0.13749(8) 0.2731(2) 0.58091(4)
C20 C 0.07863(10) 0.3455(3) 0.55297(4)
H16 H 0.0812 0.4794 0.5432
C21 C 0.01654(11) 0.2148(4) 0.53999(5)
H17 H -0.0229 0.2613 0.5213
C22 C 0.01222(11) 0.0168(4) 0.55436(5)
H18 H -0.0304 -0.0680 0.5452
C23 C 0.07004(10) -0.0597(3) 0.58227(5)
H19 H 0.0672 -0.1934 0.5921
C24 C 0.13189(8) 0.0738(2) 0.59455(4)
H20 H 0.2847(15) 0.613(4) 0.4886(8)
O1 O 0.80551(6) 0.02188(14) 0.87850(3)
C1 C 0.76548(8) 0.21362(19) 0.86509(4)
C2 C 0.67558(8) 0.1618(2) 0.85784(4)
C3 C 0.64744(10) -0.0102(2) 0.87762(4)
H1 H 0.6836 -0.0863 0.8940
C4 C 0.56696(11) -0.0702(3) 0.87343(5)
H2 H 0.5500 -0.1861 0.8866
C5 C 0.51280(11) 0.0418(3) 0.84983(6)
H3 H 0.4589 0.0021 0.8467
C6 C 0.53875(10) 0.2118(3) 0.83105(5)
H4 H 0.5012 0.2872 0.8153
C7 C 0.61900(8) 0.2790(2) 0.83422(4)
C8 C 0.63413(10) 0.4738(3) 0.81129(5)
H5 H 0.6308 0.4372 0.7837
H6 H 0.5902 0.5688 0.8149
C9 C 0.71222(9) 0.5903(2) 0.82036(4)
H7 H 0.7101 0.7206 0.8063
H8 H 0.7190 0.6205 0.8482
C10 C 0.78249(9) 0.4662(2) 0.80887(4)
C11 C 0.82215(11) 0.5245(3) 0.77601(4)
H9 H 0.8074 0.6468 0.7630
C12 C 0.88258(10) 0.4049(3) 0.76246(5)
H10 H 0.9088 0.4474 0.7408
C13 C 0.90377(9) 0.2232(3) 0.78102(4)
H11 H 0.9442 0.1415 0.7718
C14 C 0.86522(8) 0.1603(2) 0.81347(4)
H12 H 0.8796 0.0355 0.8256
C15 C 0.80531(8) 0.2813(2) 0.82805(3)
C16 C 0.78675(8) 0.3687(2) 0.90024(4)
H13 H 0.7983 0.5065 0.8901
C17 C 0.72007(9) 0.3818(2) 0.92875(4)
H14 H 0.6693 0.4131 0.9140
H15 H 0.7146 0.2477 0.9410
C18 C 0.73557(9) 0.5415(2) 0.96014(4)
O2 O 0.77502(8) 0.69654(18) 0.95590(3)
O3 O 0.69999(8) 0.50277(19) 0.99182(3)
C19 C 0.86251(8) 0.2731(2) 0.91909(4)
C20 C 0.92137(10) 0.3455(3) 0.94703(4)
H16 H 0.9188 0.4794 0.9568
C21 C 0.98346(11) 0.2148(4) 0.96001(5)
H17 H 1.0229 0.2613 0.9787
C22 C 0.98778(11) 0.0168(4) 0.94564(5)
H18 H 1.0304 -0.0680 0.9548
C23 C 0.92996(10) -0.0597(3) 0.91773(5)
H19 H 0.9328 -0.1934 0.9079
C24 C 0.86811(8) 0.0738(2) 0.90545(4)
H20 H 0.7153(15) 0.613(4) 1.0114(8)
O1 O 0.69449(6) 0.52188(14) 0.62150(3)
C1 C 0.73452(8) 0.71362(19) 0.63491(4)
C2 C 0.82442(8) 0.6618(2) 0.64216(4)
C3 C 0.85256(10) 0.4898(2) 0.62238(4)
H1 H 0.8164 0.4137 0.6060
C4 C 0.93304(11) 0.4298(3) 0.62657(5)
H2 H 0.9500 0.3139 0.6134
C5 C 0.98720(11) 0.5418(3) 0.65017(6)
H3 H 1.0411 0.5021 0.6533
C6 C 0.96125(10) 0.7118(3) 0.66895(5)
H4 H 0.9988 0.7872 0.6847
C7 C 0.88100(8) 0.7790(2) 0.66578(4)
C8 C 0.86587(10) 0.9738(3) 0.68871(5)
H5 H 0.8692 0.9372 0.7163
H6 H 0.9098 1.0688 0.6851
C9 C 0.78778(9) 1.0903(2) 0.67964(4)
H7 H 0.7899 1.2206 0.6937
H8 H 0.7810 1.1205 0.6518
C10 C 0.71751(9) 0.9662(2) 0.69113(4)
C11 C 0.67785(11) 1.0245(3) 0.72399(4)
H9 H 0.6926 1.1468 0.7370
C12 C 0.61742(10) 0.9049(3) 0.73754(5)
H10 H 0.5912 0.9474 0.7592
C13 C 0.59623(9) 0.7232(3) 0.71898(4)
H11 H 0.5558 0.6415 0.7282
C14 C 0.63478(8) 0.6603(2) 0.68653(4)
H12 H 0.6204 0.5355 0.6744
C15 C 0.69469(8) 0.7813(2) 0.67195(3)
C16 C 0.71325(8) 0.8687(2) 0.59976(4)
H13 H 0.7017 1.0065 0.6099
C17 C 0.77993(9) 0.8818(2) 0.57125(4)
H14 H 0.8307 0.9131 0.5860
H15 H 0.7854 0.7477 0.5590
C18 C 0.76443(9) 1.0415(2) 0.53986(4)
O2 O 0.72498(8) 1.19654(18) 0.54410(3)
O3 O 0.80001(8) 1.00277(19) 0.50818(3)
C19 C 0.63749(8) 0.7731(2) 0.58091(4)
C20 C 0.57863(10) 0.8455(3) 0.55297(4)
H16 H 0.5812 0.9794 0.5432
C21 C 0.51654(11) 0.7148(4) 0.53999(5)
H17 H 0.4771 0.7613 0.5213
C22 C 0.51222(11) 0.5168(4) 0.55436(5)
H18 H 0.4696 0.4320 0.5452
C23 C 0.57004(10) 0.4403(3) 0.58227(5)
H19 H 0.5672 0.3066 0.5921
C24 C 0.63189(8) 0.5738(2) 0.59455(4)
H20 H 0.7847(15) 1.113(4) 0.4886(8)
O1 O 0.30551(6) 0.52188(14) 0.87850(3)
C1 C 0.26548(8) 0.71362(19) 0.86509(4)
C2 C 0.17558(8) 0.6618(2) 0.85784(4)
C3 C 0.14744(10) 0.4898(2) 0.87762(4)
H1 H 0.1836 0.4137 0.8940
C4 C 0.06696(11) 0.4298(3) 0.87343(5)
H2 H 0.0500 0.3139 0.8866
C5 C 0.01280(11) 0.5418(3) 0.84983(6)
H3 H -0.0411 0.5021 0.8467
C6 C 0.03875(10) 0.7118(3) 0.83105(5)
H4 H 0.0012 0.7872 0.8153
C7 C 0.11900(8) 0.7790(2) 0.83422(4)
C8 C 0.13413(10) 0.9738(3) 0.81129(5)
H5 H 0.1308 0.9372 0.7837
H6 H 0.0902 1.0688 0.8149
C9 C 0.21222(9) 1.0903(2) 0.82036(4)
H7 H 0.2101 1.2206 0.8063
H8 H 0.2190 1.1205 0.8482
C10 C 0.28249(9) 0.9662(2) 0.80887(4)
C11 C 0.32215(11) 1.0245(3) 0.77601(4)
H9 H 0.3074 1.1468 0.7630
C12 C 0.38258(10) 0.9049(3) 0.76246(5)
H10 H 0.4088 0.9474 0.7408
C13 C 0.40377(9) 0.7232(3) 0.78102(4)
H11 H 0.4442 0.6415 0.7718
C14 C 0.36522(8) 0.6603(2) 0.81347(4)
H12 H 0.3796 0.5355 0.8256
C15 C 0.30531(8) 0.7813(2) 0.82805(3)
C16 C 0.28675(8) 0.8687(2) 0.90024(4)
H13 H 0.2983 1.0065 0.8901
C17 C 0.22007(9) 0.8818(2) 0.92875(4)
H14 H 0.1693 0.9131 0.9140
H15 H 0.2146 0.7477 0.9410
C18 C 0.23557(9) 1.0415(2) 0.96014(4)
O2 O 0.27502(8) 1.19654(18) 0.95590(3)
O3 O 0.19999(8) 1.00277(19) 0.99182(3)
C19 C 0.36251(8) 0.7731(2) 0.91909(4)
C20 C 0.42137(10) 0.8455(3) 0.94703(4)
H16 H 0.4188 0.9794 0.9568
C21 C 0.48346(11) 0.7148(4) 0.96001(5)
H17 H 0.5229 0.7613 0.9787
C22 C 0.48778(11) 0.5168(4) 0.94564(5)
H18 H 0.5304 0.4320 0.9548
C23 C 0.42996(10) 0.4403(3) 0.91773(5)
H19 H 0.4328 0.3066 0.9079
C24 C 0.36811(8) 0.5738(2) 0.90545(4)
H20 H 0.2153(15) 1.113(4) 1.0114(8)
O1 O 0.80551(6) 0.97812(14) 0.37850(3)
C1 C 0.76548(8) 0.78638(19) 0.36509(4)
C2 C 0.67558(8) 0.8382(2) 0.35784(4)
C3 C 0.64744(10) 1.0102(2) 0.37762(4)
H1 H 0.6836 1.0863 0.3940
C4 C 0.56696(11) 1.0702(3) 0.37343(5)
H2 H 0.5500 1.1861 0.3866
C5 C 0.51280(11) 0.9582(3) 0.34983(6)
H3 H 0.4589 0.9979 0.3467
C6 C 0.53875(10) 0.7882(3) 0.33105(5)
H4 H 0.5012 0.7128 0.3153
C7 C 0.61900(8) 0.7210(2) 0.33422(4)
C8 C 0.63413(10) 0.5262(3) 0.31129(5)
H5 H 0.6308 0.5628 0.2837
H6 H 0.5902 0.4312 0.3149
C9 C 0.71222(9) 0.4097(2) 0.32036(4)
H7 H 0.7101 0.2794 0.3063
H8 H 0.7190 0.3795 0.3482
C10 C 0.78249(9) 0.5338(2) 0.30887(4)
C11 C 0.82215(11) 0.4755(3) 0.27601(4)
H9 H 0.8074 0.3532 0.2630
C12 C 0.88258(10) 0.5951(3) 0.26246(5)
H10 H 0.9088 0.5526 0.2408
C13 C 0.90377(9) 0.7768(3) 0.28102(4)
H11 H 0.9442 0.8585 0.2718
C14 C 0.86522(8) 0.8397(2) 0.31347(4)
H12 H 0.8796 0.9645 0.3256
C15 C 0.80531(8) 0.7187(2) 0.32805(3)
C16 C 0.78675(8) 0.6313(2) 0.40024(4)
H13 H 0.7983 0.4935 0.3901
C17 C 0.72007(9) 0.6182(2) 0.42875(4)
H14 H 0.6693 0.5869 0.4140
H15 H 0.7146 0.7523 0.4410
C18 C 0.73557(9) 0.4585(2) 0.46014(4)
O2 O 0.77502(8) 0.30346(18) 0.45590(3)
O3 O 0.69999(8) 0.49723(19) 0.49182(3)
C19 C 0.86251(8) 0.7269(2) 0.41909(4)
C20 C 0.92137(10) 0.6545(3) 0.44703(4)
H16 H 0.9188 0.5206 0.4568
C21 C 0.98346(11) 0.7852(4) 0.46001(5)
H17 H 1.0229 0.7387 0.4787
C22 C 0.98778(11) 0.9832(4) 0.44564(5)
H18 H 1.0304 1.0680 0.4548
C23 C 0.92996(10) 1.0597(3) 0.41773(5)
H19 H 0.9328 1.1934 0.4079
C24 C 0.86811(8) 0.9262(2) 0.40545(4)
H20 H 0.7153(15) 0.387(4) 0.5114(8)
O1 O 0.19449(6) 0.97812(14) 0.12150(3)
C1 C 0.23452(8) 0.78638(19) 0.13491(4)
C2 C 0.32442(8) 0.8382(2) 0.14216(4)
C3 C 0.35256(10) 1.0102(2) 0.12238(4)
H1 H 0.3164 1.0863 0.1060
C4 C 0.43304(11) 1.0702(3) 0.12657(5)
H2 H 0.4500 1.1861 0.1134
C5 C 0.48720(11) 0.9582(3) 0.15017(6)
H3 H 0.5411 0.9979 0.1533
C6 C 0.46125(10) 0.7882(3) 0.16895(5)
H4 H 0.4988 0.7128 0.1847
C7 C 0.38100(8) 0.7210(2) 0.16578(4)
C8 C 0.36587(10) 0.5262(3) 0.18871(5)
H5 H 0.3692 0.5628 0.2163
H6 H 0.4098 0.4312 0.1851
C9 C 0.28778(9) 0.4097(2) 0.17964(4)
H7 H 0.2899 0.2794 0.1937
H8 H 0.2810 0.3795 0.1518
C10 C 0.21751(9) 0.5338(2) 0.19113(4)
C11 C 0.17785(11) 0.4755(3) 0.22399(4)
H9 H 0.1926 0.3532 0.2370
C12 C 0.11742(10) 0.5951(3) 0.23754(5)
H10 H 0.0912 0.5526 0.2592
C13 C 0.09623(9) 0.7768(3) 0.21898(4)
H11 H 0.0558 0.8585 0.2282
C14 C 0.13478(8) 0.8397(2) 0.18653(4)
H12 H 0.1204 0.9645 0.1744
C15 C 0.19469(8) 0.7187(2) 0.17195(3)
C16 C 0.21325(8) 0.6313(2) 0.09976(4)
H13 H 0.2017 0.4935 0.1099
C17 C 0.27993(9) 0.6182(2) 0.07125(4)
H14 H 0.3307 0.5869 0.0860
H15 H 0.2854 0.7523 0.0590
C18 C 0.26443(9) 0.4585(2) 0.03986(4)
O2 O 0.22498(8) 0.30346(18) 0.04410(3)
O3 O 0.30001(8) 0.49723(19) 0.00818(3)
C19 C 0.13749(8) 0.7269(2) 0.08091(4)
C20 C 0.07863(10) 0.6545(3) 0.05297(4)
H16 H 0.0812 0.5206 0.0432
C21 C 0.01654(11) 0.7852(4) 0.03999(5)
H17 H -0.0229 0.7387 0.0213
C22 C 0.01222(11) 0.9832(4) 0.05436(5)
H18 H -0.0304 1.0680 0.0452
C23 C 0.07004(10) 1.0597(3) 0.08227(5)
H19 H 0.0672 1.1934 0.0921
C24 C 0.13189(8) 0.9262(2) 0.09455(4)
H20 H 0.2847(15) 0.387(4) -0.0114(8)
O1 O 0.30551(6) 0.47812(14) 0.37850(3)
C1 C 0.26548(8) 0.28638(19) 0.36509(4)
C2 C 0.17558(8) 0.3382(2) 0.35784(4)
C3 C 0.14744(10) 0.5102(2) 0.37762(4)
H1 H 0.1836 0.5863 0.3940
C4 C 0.06696(11) 0.5702(3) 0.37343(5)
H2 H 0.0500 0.6861 0.3866
C5 C 0.01280(11) 0.4582(3) 0.34983(6)
H3 H -0.0411 0.4979 0.3467
C6 C 0.03875(10) 0.2882(3) 0.33105(5)
H4 H 0.0012 0.2128 0.3153
C7 C 0.11900(8) 0.2210(2) 0.33422(4)
C8 C 0.13413(10) 0.0262(3) 0.31129(5)
H5 H 0.1308 0.0628 0.2837
H6 H 0.0902 -0.0688 0.3149
C9 C 0.21222(9) -0.0903(2) 0.32036(4)
H7 H 0.2101 -0.2206 0.3063
H8 H 0.2190 -0.1205 0.3482
C10 C 0.28249(9) 0.0338(2) 0.30887(4)
C11 C 0.32215(11) -0.0245(3) 0.27601(4)
H9 H 0.3074 -0.1468 0.2630
C12 C 0.38258(10) 0.0951(3) 0.26246(5)
H10 H 0.4088 0.0526 0.2408
C13 C 0.40377(9) 0.2768(3) 0.28102(4)
H11 H 0.4442 0.3585 0.2718
C14 C 0.36522(8) 0.3397(2) 0.31347(4)
H12 H 0.3796 0.4645 0.3256
C15 C 0.30531(8) 0.2187(2) 0.32805(3)
C16 C 0.28675(8) 0.1313(2) 0.40024(4)
H13 H 0.2983 -0.0065 0.3901
C17 C 0.22007(9) 0.1182(2) 0.42875(4)
H14 H 0.1693 0.0869 0.4140
H15 H 0.2146 0.2523 0.4410
C18 C 0.23557(9) -0.0415(2) 0.46014(4)
O2 O 0.27502(8) -0.19654(18) 0.45590(3)
O3 O 0.19999(8) -0.00277(19) 0.49182(3)
C19 C 0.36251(8) 0.2269(2) 0.41909(4)
C20 C 0.42137(10) 0.1545(3) 0.44703(4)
H16 H 0.4188 0.0206 0.4568
C21 C 0.48346(11) 0.2852(4) 0.46001(5)
H17 H 0.5229 0.2387 0.4787
C22 C 0.48778(11) 0.4832(4) 0.44564(5)
H18 H 0.5304 0.5680 0.4548
C23 C 0.42996(10) 0.5597(3) 0.41773(5)
H19 H 0.4328 0.6934 0.4079
C24 C 0.36811(8) 0.4262(2) 0.40545(4)
H20 H 0.2153(15) -0.113(4) 0.5114(8)
O1 O 0.69449(6) 0.47812(14) 0.12150(3)
C1 C 0.73452(8) 0.28638(19) 0.13491(4)
C2 C 0.82442(8) 0.3382(2) 0.14216(4)
C3 C 0.85256(10) 0.5102(2) 0.12238(4)
H1 H 0.8164 0.5863 0.1060
C4 C 0.93304(11) 0.5702(3) 0.12657(5)
H2 H 0.9500 0.6861 0.1134
C5 C 0.98720(11) 0.4582(3) 0.15017(6)
H3 H 1.0411 0.4979 0.1533
C6 C 0.96125(10) 0.2882(3) 0.16895(5)
H4 H 0.9988 0.2128 0.1847
C7 C 0.88100(8) 0.2210(2) 0.16578(4)
C8 C 0.86587(10) 0.0262(3) 0.18871(5)
H5 H 0.8692 0.0628 0.2163
H6 H 0.9098 -0.0688 0.1851
C9 C 0.78778(9) -0.0903(2) 0.17964(4)
H7 H 0.7899 -0.2206 0.1937
H8 H 0.7810 -0.1205 0.1518
C10 C 0.71751(9) 0.0338(2) 0.19113(4)
C11 C 0.67785(11) -0.0245(3) 0.22399(4)
H9 H 0.6926 -0.1468 0.2370
C12 C 0.61742(10) 0.0951(3) 0.23754(5)
H10 H 0.5912 0.0526 0.2592
C13 C 0.59623(9) 0.2768(3) 0.21898(4)
H11 H 0.5558 0.3585 0.2282
C14 C 0.63478(8) 0.3397(2) 0.18653(4)
H12 H 0.6204 0.4645 0.1744
C15 C 0.69469(8) 0.2187(2) 0.17195(3)
C16 C 0.71325(8) 0.1313(2) 0.09976(4)
H13 H 0.7017 -0.0065 0.1099
C17 C 0.77993(9) 0.1182(2) 0.07125(4)
H14 H 0.8307 0.0869 0.0860
H15 H 0.7854 0.2523 0.0590
C18 C 0.76443(9) -0.0415(2) 0.03986(4)
O2 O 0.72498(8) -0.19654(18) 0.04410(3)
O3 O 0.80001(8) -0.00277(19) 0.00818(3)
C19 C 0.63749(8) 0.2269(2) 0.08091(4)
C20 C 0.57863(10) 0.1545(3) 0.05297(4)
H16 H 0.5812 0.0206 0.0432
C21 C 0.51654(11) 0.2852(4) 0.03999(5)
H17 H 0.4771 0.2387 0.0213
C22 C 0.51222(11) 0.4832(4) 0.05436(5)
H18 H 0.4696 0.5680 0.0452
C23 C 0.57004(10) 0.5597(3) 0.08227(5)
H19 H 0.5672 0.6934 0.0921
C24 C 0.63189(8) 0.4262(2) 0.09455(4)
H20 H 0.7847(15) -0.113(4) -0.0114(8)

#END
