./ABOCOM_from_POSCAR.cif_generated_by_CrystalShift
_symmetry_cell_setting triclinic
_symmetry_space_group_name_H-M 'P 1'
loop_
_symmetry_equiv_pos_site_id
_symmetry_equiv_pos_as_xyz
1 x,y,z
_cell_length_a 16.630000
_cell_length_b 6.464000
_cell_length_c 34.227000
_cell_angle_alpha 90.000000
_cell_angle_beta 94.570000
_cell_angle_gamma 90.000000
_cell_volume 3667.579145
loop_
_atom_site_label
_atom_site_type_symbol
_atom_site_fract_x
_atom_site_fract_y
_atom_site_fract_z
H1 H 0.784700 -0.113000 -0.011400
H2 H 0.567200 0.693400 0.092100
H3 H 0.469600 0.568000 0.045200
H4 H 0.477100 0.238700 0.021300
H5 H 0.316400 -0.086300 0.606000
H6 H 0.581200 0.020600 0.043200
H7 H 0.450000 -0.186100 0.613400
H8 H 0.785400 0.252300 0.059000
H9 H 0.541100 0.002100 0.653300
H10 H 0.830700 0.086900 0.086000
H11 H 0.498800 0.287200 0.684700
H12 H 0.701700 -0.006500 0.109900
H13 H 0.620400 0.464500 0.174400
H14 H 0.369200 0.437200 0.716300
H15 H 0.409800 0.568800 0.685100
H16 H 0.555800 0.358500 0.228200
H17 H 0.289900 0.720600 0.693700
H18 H 0.281000 0.620500 0.651800
H19 H 0.591200 0.052600 0.259200
H20 H 0.692600 -0.146800 0.237000
H21 H 0.192600 0.646800 0.737000
H22 H 0.781000 -0.120500 0.151800
H23 H 0.091200 0.447400 0.759200
H24 H 0.789900 -0.220600 0.193700
H25 H 0.055800 0.141500 0.728200
H26 H 0.909800 -0.068800 0.185100
H27 H 0.120400 0.035500 0.674400
H28 H 0.869200 0.062800 0.216300
H29 H 0.998800 0.212800 0.184700
H30 H 0.201700 0.506500 0.609900
H31 H 1.041100 0.497900 0.153300
H32 H 0.330700 0.413100 0.586000
H33 H 0.285400 0.247700 0.559000
H34 H 0.950000 0.686100 0.113400
H35 H 0.816400 0.586300 0.106000
H36 H 0.215300 -0.113000 0.511400
H37 H 0.432800 0.693400 0.407900
H38 H 0.530400 0.568000 0.454800
H39 H 0.081200 0.479400 0.543200
H40 H 0.522900 0.238700 0.478700
H41 H -0.022900 0.261300 0.521300
H42 H 0.418800 0.020600 0.456800
H43 H -0.030400 -0.068000 0.545200
H44 H 0.214600 0.252300 0.441000
H45 H 0.067200 -0.193400 0.592100
H46 H 0.169300 0.086900 0.414000
H47 H 0.284700 0.613000 0.488600
H48 H 0.298300 -0.006500 0.390100
H49 H 0.379600 0.464500 0.325600
H50 H 0.444200 0.358500 0.271800
H51 H 0.408800 0.052600 0.240800
H52 H 0.683600 -0.086300 0.894000
H53 H 0.307400 -0.146800 0.263000
H54 H 0.550000 -0.186100 0.886600
H55 H 0.219000 -0.120500 0.348200
H56 H 0.458900 0.002100 0.846700
H57 H 0.210100 -0.220600 0.306300
H58 H 0.501200 0.287200 0.815300
H59 H 0.090200 -0.068800 0.314900
H60 H 0.130800 0.062800 0.283700
H61 H 0.630800 0.437200 0.783700
H62 H 0.590200 0.568800 0.814900
H63 H 0.001200 0.212800 0.315300
H64 H 0.710100 0.720600 0.806300
H65 H 0.719000 0.620500 0.848200
H66 H -0.041100 0.497900 0.346700
H67 H 0.050000 0.686100 0.386600
H68 H 0.807400 0.646800 0.763000
H69 H 0.183600 0.586300 0.394000
H70 H 0.908800 0.447400 0.740800
H71 H 0.284700 0.387000 -0.011400
H72 H 0.944200 0.141500 0.771800
H73 H 0.067200 1.193400 0.092100
H74 H 0.879600 0.035500 0.825600
H75 H -0.030400 1.068000 0.045200
H76 H -0.022900 0.738700 0.021300
H77 H 0.798300 0.506500 0.890100
H78 H 0.081200 0.520600 0.043200
H79 H 0.669300 0.413100 0.914000
H80 H 0.714600 0.247700 0.941000
H81 H 0.285400 0.752300 0.059000
H82 H 0.330700 0.586900 0.086000
H83 H 0.201700 0.493500 0.109900
H84 H 0.120400 0.964500 0.174400
H85 H 0.055800 0.858500 0.228200
H86 H 0.918800 0.479400 0.956800
H87 H 0.091200 0.552600 0.259200
H88 H 1.022900 0.261300 0.978700
H89 H 0.192600 0.353200 0.237000
H90 H 1.030400 -0.068000 0.954800
H91 H 0.281000 0.379500 0.151800
H92 H 0.932800 -0.193400 0.907900
H93 H 0.289900 0.279400 0.193700
H94 H 0.715300 0.613000 1.011400
H95 H 0.409800 0.431200 0.185100
H96 H 0.369200 0.562800 0.216300
H97 H 0.498800 0.712800 0.184700
H98 H 0.541100 0.997900 0.153300
H99 H 0.816400 0.413700 0.606000
H100 H 0.450000 1.186100 0.113400
H101 H 0.950000 0.313900 0.613400
H102 H 0.316400 1.086300 0.106000
H103 H 1.041100 0.502100 0.653300
H104 H 0.715300 0.387000 0.511400
H105 H 0.998800 0.787200 0.684700
H106 H 0.932800 1.193400 0.407900
H107 H 1.030400 1.068000 0.454800
H108 H 0.869200 0.937200 0.716300
H109 H 0.909800 1.068800 0.685100
H110 H 1.022900 0.738700 0.478700
H111 H 0.789900 1.220600 0.693700
H112 H 0.781000 1.120500 0.651800
H113 H 0.918800 0.520600 0.456800
H114 H 0.714600 0.752300 0.441000
H115 H 0.692600 1.146800 0.737000
H116 H 0.669300 0.586900 0.414000
H117 H 0.591200 0.947400 0.759200
H118 H 0.798300 0.493500 0.390100
H119 H 0.555800 0.641500 0.728200
H120 H 0.879600 0.964500 0.325600
H121 H 0.620400 0.535500 0.674400
H122 H 0.944200 0.858500 0.271800
H123 H 0.908800 0.552600 0.240800
H124 H 0.701700 1.006500 0.609900
H125 H 0.807400 0.353200 0.263000
H126 H 0.830700 0.913100 0.586000
H127 H 0.785400 0.747700 0.559000
H128 H 0.719000 0.379500 0.348200
H129 H 0.710100 0.279400 0.306300
H130 H 0.590200 0.431200 0.314900
H131 H 0.630800 0.562800 0.283700
H132 H 0.501200 0.712800 0.315300
H133 H 0.581200 0.979400 0.543200
H134 H 0.458900 0.997900 0.346700
H135 H 0.477100 0.761300 0.521300
H136 H 0.550000 1.186100 0.386600
H137 H 0.469600 0.432000 0.545200
H138 H 0.683600 1.086300 0.394000
H139 H 0.567200 0.306600 0.592100
H140 H 0.215300 1.113000 1.011400
H141 H 0.784700 1.113000 0.488600
H142 H 0.432800 0.306600 0.907900
H143 H 0.530400 0.432000 0.954800
H144 H 0.522900 0.761300 0.978700
H145 H 0.418800 0.979400 0.956800
H146 H 0.183600 0.413700 0.894000
H147 H 0.214600 0.747700 0.941000
H148 H 0.050000 0.313900 0.886600
H149 H 0.169300 0.913100 0.914000
H150 H -0.041100 0.502100 0.846700
H151 H 0.298300 1.006500 0.890100
H152 H 0.001200 0.787200 0.815300
H153 H 0.379600 0.535500 0.825600
H154 H 0.444200 0.641500 0.771800
H155 H 0.130800 0.937200 0.783700
H156 H 0.090200 1.068800 0.814900
H157 H 0.408800 0.947400 0.740800
H158 H 0.210100 1.220600 0.806300
H159 H 0.219000 1.120500 0.848200
H160 H 0.307400 1.146800 0.763000
C161 C 0.322150 1.024500 0.776010
C162 C 0.282490 0.966200 0.808870
C163 C 0.382580 0.904900 0.762460
C164 C 0.212220 1.090300 0.820360
C165 C 0.403770 0.723200 0.781020
C166 C 0.134130 0.973800 0.811290
C167 C 0.365220 0.660300 0.813470
C168 C 0.119000 0.779000 0.834220
C169 C 0.305310 0.781300 0.828050
C170 C 0.286750 0.868700 0.900240
C171 C 0.038750 0.711800 0.831050
C172 C 0.220070 0.881800 0.928750
C173 C 0.012800 0.541800 0.849830
C174 C 0.066960 0.429800 0.873430
C175 C 0.235570 1.041500 0.960140
C176 C 0.234520 0.213620 0.634910
C177 C 0.570040 0.559700 0.082270
C178 C 0.362510 0.773100 0.919090
C179 C 0.421370 0.845500 0.947030
C180 C 0.147440 0.489800 0.877620
C181 C 0.483460 0.714800 0.960010
C182 C 0.175580 0.661800 0.857840
C183 C 0.487780 0.516800 0.945640
C184 C 0.265480 0.713620 0.865090
C185 C 0.429960 0.440300 0.917730
C186 C 0.324420 0.161800 0.642160
C187 C 0.368110 0.573800 0.905450
C188 C 0.631890 0.573800 0.594550
C189 C 0.512220 0.483200 0.054360
C190 C 0.765480 0.786380 0.365090
C191 C 0.675580 0.838200 0.357840
C192 C 0.647440 1.010200 0.377620
C193 C 0.570040 0.440300 0.582270
C194 C 0.566960 1.070200 0.373430
C195 C 0.512220 0.516800 0.554360
C196 C 0.512800 0.958200 0.349830
C197 C 0.516540 0.714800 0.539990
C198 C 0.538750 0.788200 0.331050
C199 C 0.578630 0.845500 0.552970
C200 C 0.619000 0.721000 0.334220
C201 C 0.634130 0.526200 0.311290
C202 C 0.637490 0.773100 0.580910
C203 C 0.352560 -0.010200 0.622380
C204 C 0.712220 0.409700 0.320360
C205 C 0.516540 0.285200 0.039990
C206 C 0.764430 1.041500 0.539860
C207 C 0.782490 0.533800 0.308870
C208 C 0.822150 0.475500 0.276010
C209 C 0.779930 0.881800 0.571250
C210 C 0.882580 0.595100 0.262460
C211 C 0.713250 0.868700 0.599760
C212 C 0.903770 0.776800 0.281020
C213 C 0.694690 0.781300 0.671950
C214 C 0.865220 0.839700 0.313470
C215 C 0.634780 0.660300 0.686530
C216 C 0.805310 0.718700 0.328050
C217 C 0.786750 0.631300 0.400240
C218 C 0.596230 0.723200 0.718980
C219 C 0.720070 0.618200 0.428750
C220 C 0.617420 0.904900 0.737540
C221 C 0.677850 1.024500 0.723990
C222 C 0.735570 0.458500 0.460140
C223 C 0.433040 -0.070200 0.626570
C224 C 0.578630 0.154500 0.052970
C225 C 0.862510 0.726900 0.419090
C226 C 0.921370 0.654500 0.447030
C227 C 0.717510 0.966200 0.691130
C228 C 0.983460 0.785200 0.460010
C229 C 0.787780 1.090300 0.679640
C230 C 0.987780 0.983200 0.445640
C231 C 0.865870 0.973800 0.688710
C232 C 0.929960 1.059700 0.417730
C233 C 0.881000 0.779000 0.665780
C234 C 0.868110 0.926200 0.405450
C235 C 0.961250 0.711800 0.668950
C236 C 0.637490 0.226900 0.080910
C237 C 0.234520 0.786380 0.134910
C238 C 0.324420 0.838200 0.142160
C239 C 0.352560 1.010200 0.122380
C240 C 0.987200 0.541800 0.650170
C241 C 0.433040 1.070200 0.126570
C242 C 0.933040 0.429800 0.626570
C243 C 0.487200 0.958200 0.150170
C244 C 0.852560 0.489800 0.622380
C245 C 0.461250 0.788200 0.168950
C246 C 0.824420 0.661800 0.642160
C247 C 0.381000 0.721000 0.165780
C248 C 0.365870 0.526200 0.188710
C249 C 0.734520 0.713620 0.634910
C250 C 0.764430 -0.041500 0.039860
C251 C 0.287780 0.409700 0.179640
C252 C 0.868110 0.073800 0.905450
C253 C 0.929960 -0.059700 0.917730
C254 C 0.217510 0.533800 0.191130
C255 C 0.177850 0.475500 0.223990
C256 C 0.987780 0.016800 0.945640
C257 C 0.117420 0.595100 0.237540
C258 C 0.983460 0.214800 0.960010
C259 C 0.096230 0.776800 0.218980
C260 C 0.921370 0.345500 0.947030
C261 C 0.134780 0.839700 0.186530
C262 C 0.862510 0.273100 0.919090
C263 C 0.194690 0.718700 0.171950
C264 C 0.213250 0.631300 0.099760
C265 C 0.487200 0.041800 0.650170
C266 C 0.279930 0.618200 0.071250
C267 C 0.461250 0.211800 0.668950
C268 C 0.735570 0.541500 0.960140
C269 C 0.264430 0.458500 0.039860
C270 C 0.779930 0.118200 0.071250
C271 C 0.381000 0.279000 0.665780
C272 C 0.137490 0.726900 0.080910
C273 C 0.078630 0.654500 0.052970
C274 C 0.720070 0.381800 0.928750
C275 C 0.016540 0.785200 0.039990
C276 C 0.786750 0.368700 0.900240
C277 C 0.012220 0.983200 0.054360
C278 C 0.805310 0.281300 0.828050
C279 C 0.070040 1.059700 0.082270
C280 C 0.865220 0.160300 0.813470
C281 C 0.131890 0.926200 0.094550
C282 C 0.903770 0.223200 0.781020
C283 C 0.713250 0.131300 0.099760
C284 C 0.265480 0.286380 0.365090
C285 C 0.175580 0.338200 0.357840
C286 C 0.147440 0.510200 0.377620
C287 C 0.882580 0.404900 0.762460
C288 C 0.066960 0.570200 0.373430
C289 C 0.822150 0.524500 0.776010
C290 C 0.012800 0.458200 0.349830
C291 C 0.782490 0.466200 0.808870
C292 C 0.038750 0.288200 0.331050
C293 C 0.712220 0.590300 0.820360
C294 C 0.119000 0.221000 0.334220
C295 C 0.134130 0.026200 0.311290
C296 C 0.634130 0.473800 0.811290
C297 C 0.619000 0.279000 0.834220
C298 C 0.212220 -0.090300 0.320360
C299 C 0.538750 0.211800 0.831050
C300 C 0.512800 0.041800 0.849830
C301 C 0.282490 0.033800 0.308870
C302 C 0.322150 -0.024500 0.276010
C303 C 0.566960 -0.070200 0.873430
C304 C 0.382580 0.095100 0.262460
C305 C 0.647440 -0.010200 0.877620
C306 C 0.403770 0.276800 0.281020
C307 C 0.675580 0.161800 0.857840
C308 C 0.365220 0.339700 0.313470
C309 C 0.765480 0.213620 0.865090
C310 C 0.305310 0.218700 0.328050
C311 C 0.286750 0.131300 0.400240
C312 C 0.694690 0.218700 0.171950
C313 C 0.220070 0.118200 0.428750
C314 C 0.131890 0.073800 0.594550
C315 C 0.070040 -0.059700 0.582270
C316 C 0.235570 -0.041500 0.460140
C317 C 0.365870 0.473800 0.688710
C318 C 0.634780 0.339700 0.186530
C319 C 0.362510 0.226900 0.419090
C320 C 0.421370 0.154500 0.447030
C321 C 0.012220 0.016800 0.554360
C322 C 0.483460 0.285200 0.460010
C323 C 0.016540 0.214800 0.539990
C324 C 0.487780 0.483200 0.445640
C325 C 0.078630 0.345500 0.552970
C326 C 0.429960 0.559700 0.417730
C327 C 0.137490 0.273100 0.580910
C328 C 0.368110 0.426200 0.405450
C329 C 0.287780 0.590300 0.679640
C330 C 0.596230 0.276800 0.218980
C331 C 0.734520 0.286380 0.134910
C332 C 0.824420 0.338200 0.142160
C333 C 0.852560 0.510200 0.122380
C334 C 0.217510 0.466200 0.691130
C335 C 0.933040 0.570200 0.126570
C336 C 0.264430 0.541500 0.539860
C337 C 0.987200 0.458200 0.150170
C338 C 0.279930 0.381800 0.571250
C339 C 0.961250 0.288200 0.168950
C340 C 0.213250 0.368700 0.599760
C341 C 0.881000 0.221000 0.165780
C342 C 0.865870 0.026200 0.188710
C343 C 0.194690 0.281300 0.671950
C344 C 0.134780 0.160300 0.686530
C345 C 0.787780 -0.090300 0.179640
C346 C 0.096230 0.223200 0.718980
C347 C 0.117420 0.404900 0.737540
C348 C 0.717510 0.033800 0.191130
C349 C 0.677850 -0.024500 0.223990
C350 C 0.177850 0.524500 0.723990
C351 C 0.617420 0.095100 0.237540
C352 C 0.631890 0.426200 0.094550
O353 O 0.694490 0.478120 0.121500
O354 O 0.300010 0.502770 0.508180
O355 O 0.199990 -0.002770 0.491820
O356 O 0.275020 -0.196540 0.455900
O357 O 0.805510 0.021880 0.878500
O358 O 0.305510 0.478120 0.378500
O359 O 0.300010 0.497230 0.008180
O360 O 0.224980 0.303460 0.044100
O361 O 0.775020 0.696540 0.955900
O362 O 0.699990 0.502770 0.991820
O363 O 0.694490 0.521880 0.621500
O364 O 0.724980 -0.196540 0.044100
O365 O 0.800010 -0.002770 0.008180
O366 O 0.194490 0.978120 0.121500
O367 O 0.699990 0.497230 0.491820
O368 O 0.775020 0.303460 0.455900
O369 O 0.724980 1.196540 0.544100
O370 O 0.800010 1.002770 0.508180
O371 O 0.805510 0.978120 0.378500
O372 O 0.305510 0.521880 0.878500
O373 O 0.199990 1.002770 0.991820
O374 O 0.275020 1.196540 0.955900
O375 O 0.224980 0.696540 0.544100
O376 O 0.194490 0.021880 0.621500

#END
