./ABOGUU_from_POSCAR.cif_generated_by_CrystalShift
_symmetry_cell_setting triclinic
_symmetry_space_group_name_H-M 'P 1'
loop_
_symmetry_equiv_pos_site_id
_symmetry_equiv_pos_as_xyz
1 x,y,z
_cell_length_a 7.335000
_cell_length_b 18.293000
_cell_length_c 19.405000
_cell_angle_alpha 90.000000
_cell_angle_beta 90.000000
_cell_angle_gamma 90.000000
_cell_volume 2603.746503
loop_
_atom_site_label
_atom_site_type_symbol
_atom_site_fract_x
_atom_site_fract_y
_atom_site_fract_z
H1 H 0.332000 0.825000 1.160000
H2 H 0.228000 0.616000 1.228000
H3 H 0.116000 0.582000 1.109000
H4 H 0.130000 0.669000 1.023000
H5 H 0.204000 0.714000 0.788000
H6 H 0.374000 0.719000 0.834000
H7 H 0.192000 0.695000 0.866000
H8 H 0.070000 1.036000 0.925000
H9 H -0.047000 0.848000 1.037000
H10 H 0.084000 0.895000 1.095000
H11 H 0.353000 0.841000 1.034000
H12 H 0.719000 1.081000 0.738000
H13 H 0.746000 1.087000 0.822000
H14 H 0.757000 1.006000 0.784000
H15 H 0.451000 1.154000 0.850000
H16 H 0.439000 1.160000 0.757000
H17 H 0.264000 1.127000 0.807000
H18 H 0.453000 1.022000 0.840000
H19 H 0.479000 0.965000 0.725000
H20 H 0.417000 1.042000 0.689000
H21 H 0.117000 1.033000 0.748000
H22 H 0.080000 0.994000 0.476000
H23 H -0.102000 0.950000 0.461000
H24 H -0.121000 1.027000 0.508000
H25 H -0.277000 0.885000 0.556000
H26 H -0.290000 0.959000 0.593000
H27 H -0.203000 0.883000 0.640000
H28 H 0.042000 0.727000 0.573000
H29 H 0.109000 0.728000 0.660000
H30 H -0.084000 0.767000 0.633000
H31 H 0.417000 0.774000 0.627000
H32 H 0.364000 0.774000 0.548000
H33 H 0.447000 0.845000 0.575000
H34 H 0.832000 0.675000 -0.160000
H35 H 0.822000 0.762000 -0.253000
H36 H 0.728000 0.884000 -0.228000
H37 H 0.616000 0.918000 -0.109000
H38 H 0.053000 0.155000 0.075000
H39 H 0.136000 0.226000 0.048000
H40 H 0.083000 0.226000 0.127000
H41 H 0.584000 0.233000 0.133000
H42 H 0.391000 0.272000 0.160000
H43 H 0.458000 0.273000 0.073000
H44 H 0.703000 0.117000 0.140000
H45 H 0.790000 0.041000 0.093000
H46 H 0.777000 0.115000 0.056000
H47 H 0.621000 -0.027000 0.008000
H48 H 0.602000 0.050000 -0.039000
H49 H 0.420000 0.006000 -0.024000
H50 H 0.383000 -0.033000 0.248000
H51 H 0.083000 -0.042000 0.189000
H52 H 0.021000 0.035000 0.225000
H53 H 0.047000 -0.022000 0.340000
H54 H 0.236000 -0.127000 0.307000
H55 H 0.061000 -0.160000 0.257000
H56 H 0.049000 -0.154000 0.350000
H57 H -0.257000 -0.006000 0.284000
H58 H -0.246000 -0.087000 0.322000
H59 H -0.219000 -0.081000 0.238000
H60 H 0.147000 0.159000 0.534000
H61 H 0.416000 0.105000 0.595000
H62 H 0.547000 0.152000 0.537000
H63 H 0.430000 -0.036000 0.425000
H64 H 0.308000 0.305000 0.366000
H65 H 0.126000 0.281000 0.334000
H66 H 0.296000 0.286000 0.288000
H67 H 0.370000 0.331000 0.523000
H68 H 0.384000 0.418000 0.609000
H69 H 0.272000 0.384000 0.728000
H70 H 0.178000 0.262000 0.753000
H71 H 0.168000 0.175000 0.660000
H72 H 0.630000 0.831000 -0.023000
H73 H 0.704000 0.786000 0.212000
H74 H 0.874000 0.781000 0.166000
H75 H 0.692000 0.805000 0.134000
H76 H 0.570000 0.464000 0.075000
H77 H 0.453000 0.652000 -0.037000
H78 H 0.584000 0.605000 -0.095000
H79 H 0.853000 0.659000 -0.034000
H80 H 1.219000 0.419000 0.262000
H81 H 1.246000 0.413000 0.178000
H82 H 1.257000 0.494000 0.216000
H83 H 0.951000 0.346000 0.150000
H84 H 0.939000 0.340000 0.243000
H85 H 0.764000 0.373000 0.193000
H86 H 0.953000 0.478000 0.160000
H87 H 0.979000 0.535000 0.275000
H88 H 0.917000 0.458000 0.311000
H89 H 0.617000 0.467000 0.252000
H90 H 0.580000 0.506000 0.524000
H91 H 0.398000 0.550000 0.539000
H92 H 0.379000 0.473000 0.492000
H93 H 0.223000 0.615000 0.444000
H94 H 0.210000 0.541000 0.407000
H95 H 0.297000 0.617000 0.360000
H96 H 0.542000 0.773000 0.427000
H97 H 0.609000 0.772000 0.340000
H98 H 0.416000 0.733000 0.367000
H99 H 0.917000 0.726000 0.373000
H100 H 0.864000 0.726000 0.452000
H101 H 0.947000 0.655000 0.425000
H102 H 0.668000 0.325000 0.340000
H103 H 0.678000 0.238000 0.247000
H104 H 0.772000 0.116000 0.272000
H105 H 0.884000 0.082000 0.391000
H106 H 0.870000 0.169000 0.477000
H107 H 0.796000 0.214000 0.712000
H108 H 0.626000 0.219000 0.666000
H109 H 0.553000 0.345000 0.925000
H110 H 0.636000 0.274000 0.952000
H111 H 0.583000 0.274000 0.873000
H112 H 1.084000 0.267000 0.867000
H113 H 0.891000 0.228000 0.840000
H114 H 0.958000 0.227000 0.927000
H115 H 1.203000 0.383000 0.860000
H116 H 1.290000 0.459000 0.907000
H117 H 1.277000 0.385000 0.944000
H118 H 1.121000 0.527000 0.992000
H119 H 1.102000 0.450000 1.039000
H120 H 0.920000 0.494000 1.024000
H121 H 0.883000 0.533000 0.752000
H122 H 0.583000 0.542000 0.811000
H123 H 0.521000 0.465000 0.775000
H124 H 0.547000 0.522000 0.660000
H125 H 0.736000 0.627000 0.693000
H126 H 0.561000 0.660000 0.743000
H127 H 0.549000 0.654000 0.650000
H128 H 0.243000 0.506000 0.716000
H129 H 0.254000 0.587000 0.678000
H130 H 0.281000 0.581000 0.762000
H131 H 0.647000 0.341000 0.466000
H132 H 0.916000 0.395000 0.405000
H133 H 1.047000 0.348000 0.463000
H134 H 0.930000 0.536000 0.575000
H135 H 0.808000 0.195000 0.634000
H136 H 0.322000 0.738000 1.253000
C137 C 0.719000 0.221900 0.297100
C138 C 0.776400 0.152000 0.310600
C139 C 0.830900 0.132200 0.376100
C140 C 0.831800 0.184500 0.428800
C141 C 0.775600 0.255200 0.415600
C142 C 0.746000 0.228400 0.668300
C143 C 0.324100 0.128400 0.172200
C144 C 0.334600 0.175300 0.108400
C145 C 0.415700 0.131700 0.048200
C146 C 0.524400 0.061800 0.061900
C147 C 0.433100 0.017100 0.118700
C148 C 0.355300 0.056700 0.177200
C149 C 0.675900 0.628400 0.327800
C150 C 0.665400 0.675300 0.391600
C151 C 0.584300 0.631700 0.451800
C152 C 0.475600 0.561800 0.438100
C153 C 0.566900 0.517100 0.381300
C154 C 0.644700 0.556700 0.322800
C155 C 0.701700 0.515100 0.258000
C156 C 0.903100 0.490900 0.266800
C157 C 0.985000 0.447800 0.206500
C158 C 0.901000 0.372100 0.197700
C159 C 1.191000 0.441500 0.214900
C160 C 0.859000 0.696200 0.410800
C161 C 0.550000 0.744700 0.381300
C162 C 0.288000 0.585800 0.409900
C163 C 0.452000 0.517100 0.503700
C164 C 0.720700 0.684500 -0.031800
C165 C 0.571400 0.628600 -0.045400
C166 C 0.582900 0.569500 0.007900
C167 C 0.639300 0.592900 0.076100
C168 C 0.640300 0.543700 0.132200
C169 C 0.680700 0.566800 0.198500
C170 C 0.710000 0.640800 0.206500
C171 C 0.715000 0.693300 0.154300
C172 C 0.682900 0.666600 0.089100
C173 C 0.754000 0.771600 0.168300
C174 C 0.724400 0.744800 -0.084400
C175 C 0.668200 0.815500 -0.071200
C176 C 0.669100 0.867800 -0.123900
C177 C 0.723600 0.848000 -0.189400
C178 C 0.781000 0.778100 -0.202900
C179 C 0.781900 0.725900 -0.150900
C180 C 0.817100 0.333400 0.589100
C181 C 0.785000 0.306700 0.654300
C182 C 0.790000 0.359200 0.706500
C183 C 0.819300 0.433200 0.698500
C184 C 0.859700 0.456300 0.632200
C185 C 0.860700 0.407100 0.576100
C186 C 0.917100 0.430500 0.507900
C187 C 0.928600 0.371400 0.454600
C188 C 0.779300 0.315500 0.468200
C189 C 1.048000 0.482900 1.003700
C190 C 1.212000 0.414200 0.909900
C191 C 0.950000 0.255300 0.881300
C192 C 0.641000 0.303800 0.910800
C193 C 0.309000 0.558500 0.714900
C194 C 0.599000 0.627900 0.697700
C195 C 0.515000 0.552200 0.706500
C196 C 0.596900 0.509100 0.766800
C197 C 0.798300 0.484900 0.758000
C198 C 0.855300 0.443300 0.822800
C199 C 0.933100 0.482900 0.881300
C200 C 1.024400 0.438200 0.938100
C201 C 0.915700 0.368300 0.951800
C202 C 0.834600 0.324700 0.891600
C203 C 0.824100 0.371600 0.827800
C204 C 0.298300 0.015100 0.242000
C205 C 0.096900 -0.009100 0.233200
C206 C 0.015000 -0.052200 0.293500
C207 C 0.099000 -0.127900 0.302300
C208 C -0.191000 -0.058500 0.285100
C209 C 0.141000 0.196200 0.089200
C210 C 0.218100 0.225900 0.650900
C211 C 0.219000 0.278100 0.702900
C212 C 0.276400 0.348000 0.689400
C213 C 0.330900 0.367800 0.623900
C214 C 0.450000 0.244700 0.118700
C215 C 0.712000 0.085800 0.090100
C216 C 0.548000 0.017100 -0.003700
C217 C 0.279300 0.184500 0.531800
C218 C 0.428600 0.128600 0.545400
C219 C 0.417100 0.069500 0.492100
C220 C 0.175900 0.871600 0.672200
C221 C 0.165400 0.824700 0.608400
C222 C 0.084300 0.868300 0.548200
C223 C -0.024400 0.938200 0.561900
C224 C 0.066900 0.982900 0.618700
C225 C 0.144700 0.943300 0.677200
C226 C 0.201700 0.984900 0.742000
C227 C 0.403100 1.009100 0.733200
C228 C 0.485000 1.052200 0.793500
C229 C 0.401000 1.127900 0.802300
C230 C 0.691000 1.058500 0.785100
C231 C 0.359000 0.803800 0.589200
C232 C 0.050000 0.755300 0.618700
C233 C -0.212000 0.914200 0.590100
C234 C -0.048000 0.982900 0.496300
C235 C 0.220700 0.815500 1.031800
C236 C 0.071400 0.871400 1.045400
C237 C 0.082900 0.930500 0.992100
C238 C 0.139300 0.907100 0.923900
C239 C 0.140300 0.956300 0.867800
C240 C 0.180700 0.933200 0.801500
C241 C 0.210000 0.859200 0.793500
C242 C 0.215000 0.806700 0.845700
C243 C 0.182900 0.833400 0.910900
C244 C 0.254000 0.728400 0.831700
C245 C 0.224400 0.755200 1.084400
C246 C 0.168200 0.684500 1.071200
C247 C 0.169100 0.632200 1.123900
C248 C 0.223600 0.652000 1.189400
C249 C 0.281000 0.721900 1.202900
C250 C 0.281900 0.774100 1.150900
C251 C 0.331800 0.315500 0.571200
C252 C 0.275600 0.244800 0.584400
C253 C 0.246000 0.271600 0.331700
C254 C 0.317100 0.166600 0.410900
C255 C 0.285000 0.193300 0.345700
C256 C 0.290000 0.140800 0.293500
C257 C 0.319300 0.066800 0.301500
C258 C 0.359700 0.043700 0.367800
C259 C 0.360700 0.092900 0.423900
C260 C 0.718100 0.274100 0.349100
O261 O 0.193300 0.783700 0.964200
O262 O 0.043600 0.994700 1.005900
O263 O 0.097000 1.027900 0.878000
O264 O 0.064200 1.050100 0.617400
O265 O 0.098700 0.844200 0.490000
O266 O 0.901300 0.344200 1.010000
O267 O 0.935800 0.550100 0.882600
O268 O 0.903000 0.527900 0.622000
O269 O 0.956400 0.494700 0.494100
O270 O 0.806700 0.283700 0.535800
O271 O 0.761600 0.330800 0.772700
O272 O 0.738400 0.669200 0.272700
O273 O 0.693300 0.716300 0.035800
O274 O 0.543600 0.505300 -0.005900
O275 O 0.597000 0.472100 0.122000
O276 O 0.564200 0.449900 0.382600
O277 O 0.598700 0.655800 0.510000
O278 O 0.261600 0.169200 0.227300
O279 O 0.306700 0.216300 0.464200
O280 O 0.456400 0.005300 0.505900
O281 O 0.403000 -0.027900 0.378000
O282 O 0.435800 -0.050100 0.117400
O283 O 0.238400 0.830800 0.727300
O284 O 0.401300 0.155800 -0.010000

#END
