./ABOGUW_from_POSCAR.cif_generated_by_CrystalShift
_symmetry_cell_setting triclinic
_symmetry_space_group_name_H-M 'P 1'
loop_
_symmetry_equiv_pos_site_id
_symmetry_equiv_pos_as_xyz
1 x,y,z
_cell_length_a 13.862000
_cell_length_b 15.342000
_cell_length_c 6.089400
_cell_angle_alpha 90.000000
_cell_angle_beta 91.046000
_cell_angle_gamma 90.000000
_cell_volume 1294.821790
loop_
_atom_site_label
_atom_site_type_symbol
_atom_site_fract_x
_atom_site_fract_y
_atom_site_fract_z
C1 C 0.645100 0.833700 -0.071000
C2 C 1.080900 0.659500 0.276300
C3 C 0.997100 0.605500 0.605100
C4 C 0.578700 0.899700 0.257300
C5 C 0.670900 0.917800 0.336300
C6 C 1.084800 0.619600 0.483100
C7 C 0.833000 0.665600 0.400300
C8 C 1.162200 0.673400 0.158200
C9 C 1.257200 0.606800 0.448100
C10 C 0.851500 0.592700 0.742600
C11 C 1.249600 0.646000 0.243000
C12 C 1.175000 0.593000 0.566200
C13 C 0.748600 0.605800 0.711700
C14 C 0.901500 0.625300 0.563900
C15 C 0.737100 0.647800 0.508900
C16 C 0.670900 0.582200 0.836300
C17 C 0.578700 0.600300 0.757300
C18 C 0.568000 0.641900 0.549000
C19 C 0.645100 0.666300 0.429000
C20 C 0.737100 0.852200 0.008900
C21 C -0.080900 0.159500 1.223700
C22 C 0.002900 0.105500 0.894900
C23 C 0.901500 0.874700 0.063900
C24 C 0.748600 0.894200 0.211700
C25 C -0.084800 0.119600 1.016900
C26 C 0.167000 0.165600 1.099700
C27 C -0.162200 0.173400 1.341800
C28 C -0.257200 0.106800 1.051900
C29 C 0.148500 0.092700 0.757400
C30 C -0.249600 0.146000 1.257000
C31 C -0.175000 0.093000 0.933800
C32 C 0.251400 0.105800 0.788300
C33 C 0.098500 0.125300 0.936100
C34 C 0.262900 0.147800 0.991100
C35 C 0.329100 0.082200 0.663700
C36 C 0.421300 0.100300 0.742700
C37 C 0.432000 0.141900 0.951000
C38 C 0.354900 0.166300 1.071000
C39 C 1.175000 0.907000 0.066200
C40 C -0.080900 0.340500 0.723700
C41 C 0.002900 0.394500 0.394900
C42 C 1.249600 0.854000 -0.257000
C43 C 0.851500 0.907300 0.242600
C44 C -0.084800 0.380400 0.516900
C45 C 0.167000 0.334400 0.599700
C46 C -0.162200 0.326600 0.841800
C47 C -0.257200 0.393200 0.551900
C48 C 0.148500 0.407300 0.257400
C49 C -0.249600 0.354000 0.757000
C50 C -0.175000 0.407000 0.433800
C51 C 0.251400 0.394200 0.288300
C52 C 0.098500 0.374700 0.436100
C53 C 0.262900 0.352200 0.491100
C54 C 0.329100 0.417800 0.163700
C55 C 0.421300 0.399700 0.242700
C56 C 0.432000 0.358100 0.451000
C57 C 0.354900 0.333700 0.571000
C58 C 1.257200 0.893200 -0.051900
C59 C 1.080900 0.840500 -0.223700
C60 C 0.997100 0.894500 0.105100
C61 C 1.162200 0.826600 -0.341800
C62 C 0.833000 0.834400 -0.099700
C63 C 1.084800 0.880400 -0.016900
C64 C 0.568000 0.858100 0.049000
N65 N 0.998200 0.937000 0.305700
N66 N 0.998200 0.563000 0.805700
N67 N 0.090500 0.445900 0.107700
N68 N 0.001800 0.437000 0.194300
N69 N 0.909500 0.554100 0.892300
N70 N 0.090500 0.054100 0.607700
N71 N 0.001800 0.063000 0.694300
N72 N 0.909500 0.945900 0.392300
Br73 Br 1.361700 0.835550 -0.423710
Br74 Br -0.361700 0.335550 0.923710
Br75 Br -0.361700 0.164450 1.423710
Br76 Br 1.361700 0.664450 0.076290

#END
