
#######################################################################
#
#                 Cambridge Crystallographic Data Centre
#                                CCDC 
#
#######################################################################
#
# If this CIF has been generated from an entry in the Cambridge 
# Structural Database, then it will include bibliographic, chemical, 
# crystal, experimental, refinement or atomic coordinate data resulting 
# from the CCDC's data processing and validation procedures.
#
#######################################################################

data_ABOGUW
_symmetry_cell_setting           monoclinic
_symmetry_space_group_name_H-M   'P 21/c'
_symmetry_Int_Tables_number      14
_space_group_name_Hall           '-P 2ybc'
loop_
_symmetry_equiv_pos_site_id
_symmetry_equiv_pos_as_xyz
1 x,y,z
2 -x,1/2+y,1/2-z
3 -x,-y,-z
4 x,1/2-y,1/2+z
_cell_length_a                   13.862(3)
_cell_length_b                   15.342(3)
_cell_length_c                   6.0894(12)
_cell_angle_alpha                90
_cell_angle_beta                 91.046(18)
_cell_angle_gamma                90
_cell_volume                     1294.82
loop_
_atom_site_label
_atom_site_type_symbol
_atom_site_fract_x
_atom_site_fract_y
_atom_site_fract_z
Br1 Br 1.36170(4) 0.66445(3) 0.07629(8)
C1 C 1.0809(3) 0.6595(2) 0.2763(6)
C2 C 0.9971(3) 0.6055(2) 0.6051(6)
N1 N 0.9982(2) 0.5630(2) 0.8057(5)
N2 N 0.9095(2) 0.5541(2) 0.8923(5)
C3 C 1.0848(3) 0.6196(2) 0.4831(6)
C4 C 0.8330(3) 0.6656(3) 0.4003(7)
C5 C 1.1622(3) 0.6734(2) 0.1582(6)
C6 C 1.2572(3) 0.6068(3) 0.4481(7)
C7 C 0.8515(3) 0.5927(2) 0.7426(6)
C8 C 1.2496(3) 0.6460(3) 0.2430(7)
C9 C 1.1750(3) 0.5930(3) 0.5662(6)
C10 C 0.7486(3) 0.6058(3) 0.7117(6)
C11 C 0.9015(3) 0.6253(2) 0.5639(6)
C12 C 0.7371(3) 0.6478(3) 0.5089(7)
C13 C 0.6709(3) 0.5822(3) 0.8363(8)
C14 C 0.5787(4) 0.6003(4) 0.7573(9)
C15 C 0.5680(4) 0.6419(4) 0.5490(10)
C16 C 0.6451(4) 0.6663(3) 0.4290(8)
Br1 Br -0.36170(4) 0.16445(3) 1.42371(8)
C1 C -0.0809(3) 0.1595(2) 1.2237(6)
C2 C 0.0029(3) 0.1055(2) 0.8949(6)
N1 N 0.0018(2) 0.0630(2) 0.6943(5)
N2 N 0.0905(2) 0.0541(2) 0.6077(5)
C3 C -0.0848(3) 0.1196(2) 1.0169(6)
C4 C 0.1670(3) 0.1656(3) 1.0997(7)
C5 C -0.1622(3) 0.1734(2) 1.3418(6)
C6 C -0.2572(3) 0.1068(3) 1.0519(7)
C7 C 0.1485(3) 0.0927(2) 0.7574(6)
C8 C -0.2496(3) 0.1460(3) 1.2570(7)
C9 C -0.1750(3) 0.0930(3) 0.9338(6)
C10 C 0.2514(3) 0.1058(3) 0.7883(6)
C11 C 0.0985(3) 0.1253(2) 0.9361(6)
C12 C 0.2629(3) 0.1478(3) 0.9911(7)
C13 C 0.3291(3) 0.0822(3) 0.6637(8)
C14 C 0.4213(4) 0.1003(4) 0.7427(9)
C15 C 0.4320(4) 0.1419(4) 0.9510(10)
C16 C 0.3549(4) 0.1663(3) 1.0710(8)
Br1 Br -0.36170(4) 0.33555(3) 0.92371(8)
C1 C -0.0809(3) 0.3405(2) 0.7237(6)
C2 C 0.0029(3) 0.3945(2) 0.3949(6)
N1 N 0.0018(2) 0.4370(2) 0.1943(5)
N2 N 0.0905(2) 0.4459(2) 0.1077(5)
C3 C -0.0848(3) 0.3804(2) 0.5169(6)
C4 C 0.1670(3) 0.3344(3) 0.5997(7)
C5 C -0.1622(3) 0.3266(2) 0.8418(6)
C6 C -0.2572(3) 0.3932(3) 0.5519(7)
C7 C 0.1485(3) 0.4073(2) 0.2574(6)
C8 C -0.2496(3) 0.3540(3) 0.7570(7)
C9 C -0.1750(3) 0.4070(3) 0.4338(6)
C10 C 0.2514(3) 0.3942(3) 0.2883(6)
C11 C 0.0985(3) 0.3747(2) 0.4361(6)
C12 C 0.2629(3) 0.3522(3) 0.4911(7)
C13 C 0.3291(3) 0.4178(3) 0.1637(8)
C14 C 0.4213(4) 0.3997(4) 0.2427(9)
C15 C 0.4320(4) 0.3581(4) 0.4510(10)
C16 C 0.3549(4) 0.3337(3) 0.5710(8)
Br1 Br 1.36170(4) 0.83555(3) -0.42371(8)
C1 C 1.0809(3) 0.8405(2) -0.2237(6)
C2 C 0.9971(3) 0.8945(2) 0.1051(6)
N1 N 0.9982(2) 0.9370(2) 0.3057(5)
N2 N 0.9095(2) 0.9459(2) 0.3923(5)
C3 C 1.0848(3) 0.8804(2) -0.0169(6)
C4 C 0.8330(3) 0.8344(3) -0.0997(7)
C5 C 1.1622(3) 0.8266(2) -0.3418(6)
C6 C 1.2572(3) 0.8932(3) -0.0519(7)
C7 C 0.8515(3) 0.9073(2) 0.2426(6)
C8 C 1.2496(3) 0.8540(3) -0.2570(7)
C9 C 1.1750(3) 0.9070(3) 0.0662(6)
C10 C 0.7486(3) 0.8942(3) 0.2117(6)
C11 C 0.9015(3) 0.8747(2) 0.0639(6)
C12 C 0.7371(3) 0.8522(3) 0.0089(7)
C13 C 0.6709(3) 0.9178(3) 0.3363(8)
C14 C 0.5787(4) 0.8997(4) 0.2573(9)
C15 C 0.5680(4) 0.8581(4) 0.0490(10)
C16 C 0.6451(4) 0.8337(3) -0.0710(8)

#END
