
#######################################################################
#
#                 Cambridge Crystallographic Data Centre
#                                CCDC 
#
#######################################################################
#
# If this CIF has been generated from an entry in the Cambridge 
# Structural Database, then it will include bibliographic, chemical, 
# crystal, experimental, refinement or atomic coordinate data resulting 
# from the CCDC's data processing and validation procedures.
#
#######################################################################

data_ABOHEF
_symmetry_cell_setting           monoclinic
_symmetry_space_group_name_H-M   'C 2/c'
_symmetry_Int_Tables_number      15
_space_group_name_Hall           '-C 2yn'
loop_
_symmetry_equiv_pos_site_id
_symmetry_equiv_pos_as_xyz
1 x,y,z
2 1/2+x,1/2+y,z
3 x,-y,1/2+z
4 1/2+x,1/2-y,1/2+z
5 -x,-y,-z
6 1/2-x,1/2-y,-z
7 -x,y,1/2-z
8 1/2-x,1/2+y,1/2-z
_cell_length_a                   14.526(3)
_cell_length_b                   6.5167(13)
_cell_length_c                   23.570(5)
_cell_angle_alpha                90
_cell_angle_beta                 104.77(3)
_cell_angle_gamma                90
_cell_volume                     2157.45
loop_
_atom_site_label
_atom_site_type_symbol
_atom_site_fract_x
_atom_site_fract_y
_atom_site_fract_z
C1 C 0.36479(16) 0.4908(3) 0.49367(10)
C2 C 0.40630(17) 0.6702(4) 0.52195(10)
H1 H 0.3982 0.7960 0.5027
C3 C 0.45877(17) 0.6539(4) 0.57856(11)
C4 C 0.5464(2) 0.7161(5) 0.66937(11)
H2 H 0.5176 0.7738 0.6987
H3 H 0.6144 0.7416 0.6814
C5 C 0.47175(16) 0.4716(4) 0.60832(10)
C6 C 0.43366(19) 0.2948(4) 0.58286(11)
H4 H 0.4428 0.1708 0.6030
C7 C 0.38033(17) 0.3077(4) 0.52515(11)
H5 H 0.3536 0.1880 0.5065
C8 C 0.30664(16) 0.4789(4) 0.43313(10)
H6 H 0.2894 0.3457 0.4207
C9 C 0.27323(16) 0.6211(4) 0.39204(10)
C10 C 0.2897(2) 0.8470(4) 0.39812(12)
H7 H 0.2581 0.9138 0.3621
H8 H 0.3568 0.8744 0.4067
H9 H 0.2649 0.8981 0.4294
C11 C 0.21231(18) 0.5548(5) 0.33489(11)
C12 C 0.1468(2) 0.2734(6) 0.27310(12)
H10 H 0.1511 0.1265 0.2726
H11 H 0.1654 0.3290 0.2400
H12 H 0.0824 0.3130 0.2711
O1 O 0.50661(15) 0.8078(3) 0.61403(8)
O2 O 0.52848(13) 0.5004(3) 0.66393(7)
O3 O 0.16775(15) 0.6703(4) 0.29828(8)
O4 O 0.20935(13) 0.3519(3) 0.32683(7)
C1 C 0.86479(16) -0.0092(3) 0.49367(10)
C2 C 0.90630(17) 0.1702(4) 0.52195(10)
H1 H 0.8982 0.2960 0.5027
C3 C 0.95877(17) 0.1539(4) 0.57856(11)
C4 C 1.0464(2) 0.2161(5) 0.66937(11)
H2 H 1.0176 0.2738 0.6987
H3 H 1.1144 0.2416 0.6814
C5 C 0.97175(16) -0.0284(4) 0.60832(10)
C6 C 0.93366(19) -0.2052(4) 0.58286(11)
H4 H 0.9428 -0.3292 0.6030
C7 C 0.88033(17) -0.1923(4) 0.52515(11)
H5 H 0.8536 -0.3120 0.5065
C8 C 0.80664(16) -0.0211(4) 0.43313(10)
H6 H 0.7894 -0.1543 0.4207
C9 C 0.77323(16) 0.1211(4) 0.39204(10)
C10 C 0.7897(2) 0.3470(4) 0.39812(12)
H7 H 0.7581 0.4138 0.3621
H8 H 0.8568 0.3744 0.4067
H9 H 0.7649 0.3981 0.4294
C11 C 0.71231(18) 0.0548(5) 0.33489(11)
C12 C 0.6468(2) -0.2266(6) 0.27310(12)
H10 H 0.6511 -0.3735 0.2726
H11 H 0.6654 -0.1710 0.2400
H12 H 0.5824 -0.1870 0.2711
O1 O 1.00661(15) 0.3078(3) 0.61403(8)
O2 O 1.02848(13) 0.0004(3) 0.66393(7)
O3 O 0.66775(15) 0.1703(4) 0.29828(8)
O4 O 0.70935(13) -0.1481(3) 0.32683(7)
C1 C 0.36479(16) 0.5092(3) 0.99367(10)
C2 C 0.40630(17) 0.3298(4) 1.02195(10)
H1 H 0.3982 0.2040 1.0027
C3 C 0.45877(17) 0.3461(4) 1.07856(11)
C4 C 0.5464(2) 0.2839(5) 1.16937(11)
H2 H 0.5176 0.2262 1.1987
H3 H 0.6144 0.2584 1.1814
C5 C 0.47175(16) 0.5284(4) 1.10832(10)
C6 C 0.43366(19) 0.7052(4) 1.08286(11)
H4 H 0.4428 0.8292 1.1030
C7 C 0.38033(17) 0.6923(4) 1.02515(11)
H5 H 0.3536 0.8120 1.0065
C8 C 0.30664(16) 0.5211(4) 0.93313(10)
H6 H 0.2894 0.6543 0.9207
C9 C 0.27323(16) 0.3789(4) 0.89204(10)
C10 C 0.2897(2) 0.1530(4) 0.89812(12)
H7 H 0.2581 0.0862 0.8621
H8 H 0.3568 0.1256 0.9067
H9 H 0.2649 0.1019 0.9294
C11 C 0.21231(18) 0.4452(5) 0.83489(11)
C12 C 0.1468(2) 0.7266(6) 0.77310(12)
H10 H 0.1511 0.8735 0.7726
H11 H 0.1654 0.6710 0.7400
H12 H 0.0824 0.6870 0.7711
O1 O 0.50661(15) 0.1922(3) 1.11403(8)
O2 O 0.52848(13) 0.4996(3) 1.16393(7)
O3 O 0.16775(15) 0.3297(4) 0.79828(8)
O4 O 0.20935(13) 0.6481(3) 0.82683(7)
C1 C 0.86479(16) 1.0092(3) 0.99367(10)
C2 C 0.90630(17) 0.8298(4) 1.02195(10)
H1 H 0.8982 0.7040 1.0027
C3 C 0.95877(17) 0.8461(4) 1.07856(11)
C4 C 1.0464(2) 0.7839(5) 1.16937(11)
H2 H 1.0176 0.7262 1.1987
H3 H 1.1144 0.7584 1.1814
C5 C 0.97175(16) 1.0284(4) 1.10832(10)
C6 C 0.93366(19) 1.2052(4) 1.08286(11)
H4 H 0.9428 1.3292 1.1030
C7 C 0.88033(17) 1.1923(4) 1.02515(11)
H5 H 0.8536 1.3120 1.0065
C8 C 0.80664(16) 1.0211(4) 0.93313(10)
H6 H 0.7894 1.1543 0.9207
C9 C 0.77323(16) 0.8789(4) 0.89204(10)
C10 C 0.7897(2) 0.6530(4) 0.89812(12)
H7 H 0.7581 0.5862 0.8621
H8 H 0.8568 0.6256 0.9067
H9 H 0.7649 0.6019 0.9294
C11 C 0.71231(18) 0.9452(5) 0.83489(11)
C12 C 0.6468(2) 1.2266(6) 0.77310(12)
H10 H 0.6511 1.3735 0.7726
H11 H 0.6654 1.1710 0.7400
H12 H 0.5824 1.1870 0.7711
O1 O 1.00661(15) 0.6922(3) 1.11403(8)
O2 O 1.02848(13) 0.9996(3) 1.16393(7)
O3 O 0.66775(15) 0.8297(4) 0.79828(8)
O4 O 0.70935(13) 1.1481(3) 0.82683(7)
C1 C 0.63521(16) 0.5092(3) 0.50633(10)
C2 C 0.59370(17) 0.3298(4) 0.47805(10)
H1 H 0.6018 0.2040 0.4973
C3 C 0.54123(17) 0.3461(4) 0.42144(11)
C4 C 0.4536(2) 0.2839(5) 0.33063(11)
H2 H 0.4824 0.2262 0.3013
H3 H 0.3856 0.2584 0.3186
C5 C 0.52825(16) 0.5284(4) 0.39168(10)
C6 C 0.56634(19) 0.7052(4) 0.41714(11)
H4 H 0.5572 0.8292 0.3970
C7 C 0.61967(17) 0.6923(4) 0.47485(11)
H5 H 0.6464 0.8120 0.4935
C8 C 0.69336(16) 0.5211(4) 0.56687(10)
H6 H 0.7106 0.6543 0.5793
C9 C 0.72677(16) 0.3789(4) 0.60796(10)
C10 C 0.7103(2) 0.1530(4) 0.60188(12)
H7 H 0.7419 0.0862 0.6379
H8 H 0.6432 0.1256 0.5933
H9 H 0.7351 0.1019 0.5706
C11 C 0.78769(18) 0.4452(5) 0.66511(11)
C12 C 0.8532(2) 0.7266(6) 0.72690(12)
H10 H 0.8489 0.8735 0.7274
H11 H 0.8346 0.6710 0.7600
H12 H 0.9176 0.6870 0.7289
O1 O 0.49339(15) 0.1922(3) 0.38597(8)
O2 O 0.47152(13) 0.4996(3) 0.33607(7)
O3 O 0.83225(15) 0.3297(4) 0.70172(8)
O4 O 0.79065(13) 0.6481(3) 0.67317(7)
C1 C 0.13521(16) 1.0092(3) 0.50633(10)
C2 C 0.09370(17) 0.8298(4) 0.47805(10)
H1 H 0.1018 0.7040 0.4973
C3 C 0.04123(17) 0.8461(4) 0.42144(11)
C4 C -0.0464(2) 0.7839(5) 0.33063(11)
H2 H -0.0176 0.7262 0.3013
H3 H -0.1144 0.7584 0.3186
C5 C 0.02825(16) 1.0284(4) 0.39168(10)
C6 C 0.06634(19) 1.2052(4) 0.41714(11)
H4 H 0.0572 1.3292 0.3970
C7 C 0.11967(17) 1.1923(4) 0.47485(11)
H5 H 0.1464 1.3120 0.4935
C8 C 0.19336(16) 1.0211(4) 0.56687(10)
H6 H 0.2106 1.1543 0.5793
C9 C 0.22677(16) 0.8789(4) 0.60796(10)
C10 C 0.2103(2) 0.6530(4) 0.60188(12)
H7 H 0.2419 0.5862 0.6379
H8 H 0.1432 0.6256 0.5933
H9 H 0.2351 0.6019 0.5706
C11 C 0.28769(18) 0.9452(5) 0.66511(11)
C12 C 0.3532(2) 1.2266(6) 0.72690(12)
H10 H 0.3489 1.3735 0.7274
H11 H 0.3346 1.1710 0.7600
H12 H 0.4176 1.1870 0.7289
O1 O -0.00661(15) 0.6922(3) 0.38597(8)
O2 O -0.02848(13) 0.9996(3) 0.33607(7)
O3 O 0.33225(15) 0.8297(4) 0.70172(8)
O4 O 0.29065(13) 1.1481(3) 0.67317(7)
C1 C 0.63521(16) 0.4908(3) 0.00633(10)
C2 C 0.59370(17) 0.6702(4) -0.02195(10)
H1 H 0.6018 0.7960 -0.0027
C3 C 0.54123(17) 0.6539(4) -0.07856(11)
C4 C 0.4536(2) 0.7161(5) -0.16937(11)
H2 H 0.4824 0.7738 -0.1987
H3 H 0.3856 0.7416 -0.1814
C5 C 0.52825(16) 0.4716(4) -0.10832(10)
C6 C 0.56634(19) 0.2948(4) -0.08286(11)
H4 H 0.5572 0.1708 -0.1030
C7 C 0.61967(17) 0.3077(4) -0.02515(11)
H5 H 0.6464 0.1880 -0.0065
C8 C 0.69336(16) 0.4789(4) 0.06687(10)
H6 H 0.7106 0.3457 0.0793
C9 C 0.72677(16) 0.6211(4) 0.10796(10)
C10 C 0.7103(2) 0.8470(4) 0.10188(12)
H7 H 0.7419 0.9138 0.1379
H8 H 0.6432 0.8744 0.0933
H9 H 0.7351 0.8981 0.0706
C11 C 0.78769(18) 0.5548(5) 0.16511(11)
C12 C 0.8532(2) 0.2734(6) 0.22690(12)
H10 H 0.8489 0.1265 0.2274
H11 H 0.8346 0.3290 0.2600
H12 H 0.9176 0.3130 0.2289
O1 O 0.49339(15) 0.8078(3) -0.11403(8)
O2 O 0.47152(13) 0.5004(3) -0.16393(7)
O3 O 0.83225(15) 0.6703(4) 0.20172(8)
O4 O 0.79065(13) 0.3519(3) 0.17317(7)
C1 C 0.13521(16) -0.0092(3) 0.00633(10)
C2 C 0.09370(17) 0.1702(4) -0.02195(10)
H1 H 0.1018 0.2960 -0.0027
C3 C 0.04123(17) 0.1539(4) -0.07856(11)
C4 C -0.0464(2) 0.2161(5) -0.16937(11)
H2 H -0.0176 0.2738 -0.1987
H3 H -0.1144 0.2416 -0.1814
C5 C 0.02825(16) -0.0284(4) -0.10832(10)
C6 C 0.06634(19) -0.2052(4) -0.08286(11)
H4 H 0.0572 -0.3292 -0.1030
C7 C 0.11967(17) -0.1923(4) -0.02515(11)
H5 H 0.1464 -0.3120 -0.0065
C8 C 0.19336(16) -0.0211(4) 0.06687(10)
H6 H 0.2106 -0.1543 0.0793
C9 C 0.22677(16) 0.1211(4) 0.10796(10)
C10 C 0.2103(2) 0.3470(4) 0.10188(12)
H7 H 0.2419 0.4138 0.1379
H8 H 0.1432 0.3744 0.0933
H9 H 0.2351 0.3981 0.0706
C11 C 0.28769(18) 0.0548(5) 0.16511(11)
C12 C 0.3532(2) -0.2266(6) 0.22690(12)
H10 H 0.3489 -0.3735 0.2274
H11 H 0.3346 -0.1710 0.2600
H12 H 0.4176 -0.1870 0.2289
O1 O -0.00661(15) 0.3078(3) -0.11403(8)
O2 O -0.02848(13) 0.0004(3) -0.16393(7)
O3 O 0.33225(15) 0.1703(4) 0.20172(8)
O4 O 0.29065(13) -0.1481(3) 0.17317(7)

#END
