
#######################################################################
#
#                 Cambridge Crystallographic Data Centre
#                                CCDC 
#
#######################################################################
#
# If this CIF has been generated from an entry in the Cambridge 
# Structural Database, then it will include bibliographic, chemical, 
# crystal, experimental, refinement or atomic coordinate data resulting 
# from the CCDC's data processing and validation procedures.
#
#######################################################################

data_ABOKUY
_symmetry_cell_setting           monoclinic
_symmetry_space_group_name_H-M   'P 21/n'
_symmetry_Int_Tables_number      14
_space_group_name_Hall           '-P 2yn'
loop_
_symmetry_equiv_pos_site_id
_symmetry_equiv_pos_as_xyz
1 x,y,z
2 1/2+x,1/2-y,1/2+z
3 -x,-y,-z
4 1/2-x,1/2+y,1/2-z
_cell_length_a                   4.5671(17)
_cell_length_b                   13.695(5)
_cell_length_c                   9.376(4)
_cell_angle_alpha                90
_cell_angle_beta                 94.221(7)
_cell_angle_gamma                90
_cell_volume                     584.845
loop_
_atom_site_label
_atom_site_type_symbol
_atom_site_fract_x
_atom_site_fract_y
_atom_site_fract_z
N1 N 0.3095(3) 0.25110(8) 0.52652(12)
N2 N 0.1255(3) 0.29278(9) 0.61636(13)
N3 N 0.1847(3) 0.39051(10) 0.42719(14)
C1 C 0.0586(4) 0.37584(11) 0.55124(17)
H1 H -0.0669 0.4213 0.5881
C2 C 0.3401(2) 0.30980(7) 0.41617(12)
H2 H 0.4555 0.2960 0.3410
C3 C 0.4328(2) 0.15392(7) 0.55423(12)
H3 H 0.5118 0.1502 0.6530
H4 H 0.5933 0.1435 0.4937
C4 C 0.1149(3) 0.01858(10) 0.63812(15)
H5 H 0.1914 0.0307 0.7311
C5 C 0.2070(3) 0.07423(10) 0.52643(15)
C6 C 0.0901(3) 0.05493(10) 0.38781(15)
H6 H 0.1504 0.0918 0.3120
C6B C -0.0901(3) -0.05493(10) 0.61219(15)
C5B C -0.2070(3) -0.07423(10) 0.47357(15)
C3B C -0.4328(2) -0.15392(7) 0.44577(12)
N1B N -0.3095(3) -0.25110(8) 0.47348(12)
N2B N -0.1255(3) -0.29278(9) 0.38364(13)
C1B C -0.0586(4) -0.37584(11) 0.44876(17)
N3B N -0.1847(3) -0.39051(10) 0.57281(14)
C2B C -0.3401(2) -0.30980(7) 0.58383(12)
H2B H -0.4555 -0.2960 0.6590
H1B H 0.0669 -0.4213 0.4119
H3B H -0.5118 -0.1502 0.3470
H4B H -0.5933 -0.1435 0.5063
C4B C -0.1149(3) -0.01858(10) 0.36188(15)
H5B H -0.1914 -0.0307 0.2689
H6B H -0.1504 -0.0918 0.6880
N1 N 0.3095(3) 1.25110(8) 0.52652(12)
N2 N 0.1255(3) 1.29278(9) 0.61636(13)
N3 N 0.1847(3) 1.39051(10) 0.42719(14)
C1 C 0.0586(4) 1.37584(11) 0.55124(17)
H1 H -0.0669 1.4213 0.5881
C2 C 0.3401(2) 1.30980(7) 0.41617(12)
H2 H 0.4555 1.2960 0.3410
C3 C 0.4328(2) 1.15392(7) 0.55423(12)
H3 H 0.5118 1.1502 0.6530
H4 H 0.5933 1.1435 0.4937
C4 C 0.1149(3) 1.01858(10) 0.63812(15)
H5 H 0.1914 1.0307 0.7311
C5 C 0.2070(3) 1.07423(10) 0.52643(15)
C6 C 0.0901(3) 1.05493(10) 0.38781(15)
H6 H 0.1504 1.0918 0.3120
C6B C -0.0901(3) 0.94507(10) 0.61219(15)
C5B C -0.2070(3) 0.92577(10) 0.47357(15)
C3B C -0.4328(2) 0.84608(7) 0.44577(12)
N1B N -0.3095(3) 0.74890(8) 0.47348(12)
N2B N -0.1255(3) 0.70722(9) 0.38364(13)
C1B C -0.0586(4) 0.62416(11) 0.44876(17)
N3B N -0.1847(3) 0.60949(10) 0.57281(14)
C2B C -0.3401(2) 0.69020(7) 0.58383(12)
H2B H -0.4555 0.7040 0.6590
H1B H 0.0669 0.5787 0.4119
H3B H -0.5118 0.8498 0.3470
H4B H -0.5933 0.8565 0.5063
C4B C -0.1149(3) 0.98142(10) 0.36188(15)
H5B H -0.1914 0.9693 0.2689
H6B H -0.1504 0.9082 0.6880
N1 N 1.3095(3) 0.25110(8) 0.52652(12)
N2 N 1.1255(3) 0.29278(9) 0.61636(13)
N3 N 1.1847(3) 0.39051(10) 0.42719(14)
C1 C 1.0586(4) 0.37584(11) 0.55124(17)
H1 H 0.9331 0.4213 0.5881
C2 C 1.3401(2) 0.30980(7) 0.41617(12)
H2 H 1.4555 0.2960 0.3410
C3 C 1.4328(2) 0.15392(7) 0.55423(12)
H3 H 1.5118 0.1502 0.6530
H4 H 1.5933 0.1435 0.4937
C4 C 1.1149(3) 0.01858(10) 0.63812(15)
H5 H 1.1914 0.0307 0.7311
C5 C 1.2070(3) 0.07423(10) 0.52643(15)
C6 C 1.0901(3) 0.05493(10) 0.38781(15)
H6 H 1.1504 0.0918 0.3120
C6B C 0.9099(3) -0.05493(10) 0.61219(15)
C5B C 0.7930(3) -0.07423(10) 0.47357(15)
C3B C 0.5672(2) -0.15392(7) 0.44577(12)
N1B N 0.6905(3) -0.25110(8) 0.47348(12)
N2B N 0.8745(3) -0.29278(9) 0.38364(13)
C1B C 0.9414(4) -0.37584(11) 0.44876(17)
N3B N 0.8153(3) -0.39051(10) 0.57281(14)
C2B C 0.6599(2) -0.30980(7) 0.58383(12)
H2B H 0.5445 -0.2960 0.6590
H1B H 1.0669 -0.4213 0.4119
H3B H 0.4882 -0.1502 0.3470
H4B H 0.4067 -0.1435 0.5063
C4B C 0.8851(3) -0.01858(10) 0.36188(15)
H5B H 0.8086 -0.0307 0.2689
H6B H 0.8496 -0.0918 0.6880
N1 N 1.3095(3) 1.25110(8) 0.52652(12)
N2 N 1.1255(3) 1.29278(9) 0.61636(13)
N3 N 1.1847(3) 1.39051(10) 0.42719(14)
C1 C 1.0586(4) 1.37584(11) 0.55124(17)
H1 H 0.9331 1.4213 0.5881
C2 C 1.3401(2) 1.30980(7) 0.41617(12)
H2 H 1.4555 1.2960 0.3410
C3 C 1.4328(2) 1.15392(7) 0.55423(12)
H3 H 1.5118 1.1502 0.6530
H4 H 1.5933 1.1435 0.4937
C4 C 1.1149(3) 1.01858(10) 0.63812(15)
H5 H 1.1914 1.0307 0.7311
C5 C 1.2070(3) 1.07423(10) 0.52643(15)
C6 C 1.0901(3) 1.05493(10) 0.38781(15)
H6 H 1.1504 1.0918 0.3120
C6B C 0.9099(3) 0.94507(10) 0.61219(15)
C5B C 0.7930(3) 0.92577(10) 0.47357(15)
C3B C 0.5672(2) 0.84608(7) 0.44577(12)
N1B N 0.6905(3) 0.74890(8) 0.47348(12)
N2B N 0.8745(3) 0.70722(9) 0.38364(13)
C1B C 0.9414(4) 0.62416(11) 0.44876(17)
N3B N 0.8153(3) 0.60949(10) 0.57281(14)
C2B C 0.6599(2) 0.69020(7) 0.58383(12)
H2B H 0.5445 0.7040 0.6590
H1B H 1.0669 0.5787 0.4119
H3B H 0.4882 0.8498 0.3470
H4B H 0.4067 0.8565 0.5063
C4B C 0.8851(3) 0.98142(10) 0.36188(15)
H5B H 0.8086 0.9693 0.2689
H6B H 0.8496 0.9082 0.6880
N1 N 0.8095(3) 0.24890(8) 0.02652(12)
N2 N 0.6255(3) 0.20722(9) 0.11636(13)
N3 N 0.6847(3) 0.10949(10) -0.07281(14)
C1 C 0.5586(4) 0.12416(11) 0.05124(17)
H1 H 0.4331 0.0787 0.0881
C2 C 0.8401(2) 0.19020(7) -0.08383(12)
H2 H 0.9555 0.2040 -0.1590
C3 C 0.9328(2) 0.34608(7) 0.05423(12)
H3 H 1.0118 0.3498 0.1530
H4 H 1.0933 0.3565 -0.0063
C4 C 0.6149(3) 0.48142(10) 0.13812(15)
H5 H 0.6914 0.4693 0.2311
C5 C 0.7070(3) 0.42577(10) 0.02643(15)
C6 C 0.5901(3) 0.44507(10) -0.11219(15)
H6 H 0.6504 0.4082 -0.1880
C6B C 0.4099(3) 0.55493(10) 0.11219(15)
C5B C 0.2930(3) 0.57423(10) -0.02643(15)
C3B C 0.0672(2) 0.65392(7) -0.05423(12)
N1B N 0.1905(3) 0.75110(8) -0.02652(12)
N2B N 0.3745(3) 0.79278(9) -0.11636(13)
C1B C 0.4414(4) 0.87584(11) -0.05124(17)
N3B N 0.3153(3) 0.89051(10) 0.07281(14)
C2B C 0.1599(2) 0.80980(7) 0.08383(12)
H2B H 0.0445 0.7960 0.1590
H1B H 0.5669 0.9213 -0.0881
H3B H -0.0118 0.6502 -0.1530
H4B H -0.0933 0.6435 0.0063
C4B C 0.3851(3) 0.51858(10) -0.13812(15)
H5B H 0.3086 0.5307 -0.2311
H6B H 0.3496 0.5918 0.1880
N1 N 0.8095(3) 0.24890(8) 1.02652(12)
N2 N 0.6255(3) 0.20722(9) 1.11636(13)
N3 N 0.6847(3) 0.10949(10) 0.92719(14)
C1 C 0.5586(4) 0.12416(11) 1.05124(17)
H1 H 0.4331 0.0787 1.0881
C2 C 0.8401(2) 0.19020(7) 0.91617(12)
H2 H 0.9555 0.2040 0.8410
C3 C 0.9328(2) 0.34608(7) 1.05423(12)
H3 H 1.0118 0.3498 1.1530
H4 H 1.0933 0.3565 0.9937
C4 C 0.6149(3) 0.48142(10) 1.13812(15)
H5 H 0.6914 0.4693 1.2311
C5 C 0.7070(3) 0.42577(10) 1.02643(15)
C6 C 0.5901(3) 0.44507(10) 0.88781(15)
H6 H 0.6504 0.4082 0.8120
C6B C 0.4099(3) 0.55493(10) 1.11219(15)
C5B C 0.2930(3) 0.57423(10) 0.97357(15)
C3B C 0.0672(2) 0.65392(7) 0.94577(12)
N1B N 0.1905(3) 0.75110(8) 0.97348(12)
N2B N 0.3745(3) 0.79278(9) 0.88364(13)
C1B C 0.4414(4) 0.87584(11) 0.94876(17)
N3B N 0.3153(3) 0.89051(10) 1.07281(14)
C2B C 0.1599(2) 0.80980(7) 1.08383(12)
H2B H 0.0445 0.7960 1.1590
H1B H 0.5669 0.9213 0.9119
H3B H -0.0118 0.6502 0.8470
H4B H -0.0933 0.6435 1.0063
C4B C 0.3851(3) 0.51858(10) 0.86188(15)
H5B H 0.3086 0.5307 0.7689
H6B H 0.3496 0.5918 1.1880

#END
