
#######################################################################
#
#                 Cambridge Crystallographic Data Centre
#                                CCDC 
#
#######################################################################
#
# If this CIF has been generated from an entry in the Cambridge 
# Structural Database, then it will include bibliographic, chemical, 
# crystal, experimental, refinement or atomic coordinate data resulting 
# from the CCDC's data processing and validation procedures.
#
#######################################################################

data_ABOKOT
_symmetry_cell_setting           triclinic
_symmetry_space_group_name_H-M   'P -1'
_symmetry_Int_Tables_number      2
_space_group_name_Hall           '-P 1'
loop_
_symmetry_equiv_pos_site_id
_symmetry_equiv_pos_as_xyz
1 x,y,z
2 -x,-y,-z
_cell_length_a                   11.092(5)
_cell_length_b                   12.371(5)
_cell_length_c                   15.530(5)
_cell_angle_alpha                100.918(5)
_cell_angle_beta                 105.277(5)
_cell_angle_gamma                95.784(5)
_cell_volume                     1992.8
loop_
_atom_site_label
_atom_site_type_symbol
_atom_site_fract_x
_atom_site_fract_y
_atom_site_fract_z
Zn1 Zn 0.24634(4) 0.01379(4) -0.24179(3)
S1 S 0.37105(10) 0.46881(9) 0.11463(9)
N1 N 0.1238(3) 0.5001(2) 0.1653(2)
O1 O 0.5887(2) 0.8783(2) 0.21912(18)
O2 O 0.6953(3) 1.0915(2) 0.33775(18)
O3 O 0.0762(2) -0.0850(2) -0.25924(18)
C1 C 0.5806(4) 1.1674(3) 0.4358(3)
O4 O 0.2034(2) 0.1214(2) -0.14076(18)
N2 N 0.1437(3) 0.0950(3) -0.3505(2)
C2 C 0.2140(4) 0.2915(3) -0.0018(3)
H1 H 0.2829 0.2828 -0.0246
C3 C 0.0048(4) 0.0252(3) -0.1450(3)
H2 H -0.0598 0.0275 -0.1171
C4 C 0.3959(4) 0.7925(3) 0.2292(3)
C5 C 0.4153(4) 0.6905(3) 0.1842(3)
H3 H 0.4907 0.6864 0.1690
C6 C -0.1219(4) -0.1559(3) -0.2471(3)
C7 C 0.4999(4) 0.9824(3) 0.3247(3)
H4 H 0.4294 0.9818 0.3465
N3 N 0.3405(3) -0.0796(3) -0.1380(2)
C8 C 0.1179(4) 0.4038(3) 0.0984(3)
C9 C 0.1062(4) 0.2109(3) -0.0370(3)
C10 C 0.2109(4) 0.5968(3) 0.1815(3)
C11 C 0.2781(4) 0.7955(3) 0.2455(3)
H5 H 0.2599 0.8627 0.2736
C12 C -0.0061(4) -0.0671(3) -0.2166(3)
C13 C 0.3268(4) 0.5946(3) 0.1610(3)
C14 C 0.1067(4) 0.1144(3) -0.1123(3)
C15 C 0.5948(4) 1.0765(3) 0.3619(3)
C16 C 0.0092(4) 0.3232(3) 0.0619(3)
H6 H -0.0617 0.3334 0.0820
C17 C 0.0047(4) 0.2288(3) -0.0035(3)
H7 H -0.0686 0.1761 -0.0254
C18 C 0.0206(4) 0.5052(3) 0.2089(3)
H8 H 0.0530 0.5547 0.2691
H9 H -0.0048 0.4315 0.2173
C19 C 0.2217(4) 0.3842(3) 0.0661(3)
C20 C 0.1882(4) 0.7009(3) 0.2209(3)
H10 H 0.1099 0.7068 0.2310
C21 C 0.2827(4) -0.1243(4) -0.0854(3)
H11 H 0.1973 -0.1198 -0.0937
C22 C 0.5017(4) 0.8896(3) 0.2579(3)
C23 C 0.4635(4) -0.0860(3) -0.1233(3)
H12 H 0.5062 -0.0550 -0.1590
C24 C 0.4686(5) -0.1819(4) -0.0047(3)
H13 H 0.5118 -0.2156 0.0402
C25 C 0.5301(4) -0.1359(4) -0.0583(3)
H14 H 0.6157 -0.1384 -0.0507
C26 C -0.1208(4) -0.2533(3) -0.3066(3)
H15 H -0.0489 -0.2633 -0.3254
C27 C -0.3329(5) -0.3241(4) -0.3131(3)
H16 H -0.4033 -0.3799 -0.3353
C28 C 0.1078(5) 0.1300(4) -0.4998(3)
H17 H 0.1348 0.1266 -0.5520
C29 C 0.6670(5) 1.2640(3) 0.4632(3)
H18 H 0.7323 1.2706 0.4364
C30 C -0.0954(4) 0.5448(4) 0.1559(3)
H19 H -0.0713 0.6168 0.1454
H20 H -0.1555 0.5498 0.1904
H21 H -0.1329 0.4928 0.0981
C31 C -0.3343(4) -0.2284(4) -0.2543(4)
H22 H -0.4065 -0.2190 -0.2358
C32 C 0.4797(5) 1.2485(4) 0.5464(4)
H23 H 0.4155 1.2422 0.5743
C33 C 0.1763(4) 0.0932(4) -0.4267(3)
H24 H 0.2498 0.0653 -0.4311
C34 C 0.3419(4) -0.1771(4) -0.0190(3)
H25 H 0.2970 -0.2087 0.0154
C35 C 0.0002(5) 0.1716(4) -0.4954(4)
H26 H -0.0481 0.1966 -0.5441
C36 C -0.2308(4) -0.1449(4) -0.2216(3)
H27 H -0.2345 -0.0800 -0.1815
C37 C 0.4880(5) 1.1607(4) 0.4795(3)
H28 H 0.4296 1.0955 0.4637
C38 C -0.0347(5) 0.1754(4) -0.4168(4)
H29 H -0.1075 0.2036 -0.4110
C39 C -0.2257(5) -0.3369(4) -0.3389(4)
H30 H -0.2229 -0.4025 -0.3786
C40 C 0.6580(6) 1.3513(4) 0.5301(4)
H31 H 0.7167 1.4164 0.5470
C41 C 0.0393(5) 0.1371(4) -0.3464(3)
H32 H 0.0149 0.1409 -0.2932
C42 C 0.5648(6) 1.3438(4) 0.5715(3)
H33 H 0.5594 1.4031 0.6165
Zn1A Zn 0.75366(4) 0.98621(4) 0.24179(3)
S1A S 0.62895(10) 0.53119(9) -0.11463(9)
N1A N 0.8762(3) 0.4999(2) -0.1653(2)
O1A O 0.4113(2) 0.1217(2) -0.21912(18)
O2A O 0.3047(3) -0.0915(2) -0.33775(18)
O3A O 0.9238(2) 1.0850(2) 0.25924(18)
C1A C 0.4194(4) -0.1674(3) -0.4358(3)
O4A O 0.7966(2) 0.8786(2) 0.14076(18)
N2A N 0.8563(3) 0.9050(3) 0.3505(2)
C2A C 0.7860(4) 0.7085(3) 0.0018(3)
H1A H 0.7171 0.7172 0.0246
C3A C 0.9952(4) 0.9748(3) 0.1450(3)
H2A H 1.0598 0.9725 0.1171
C4A C 0.6041(4) 0.2075(3) -0.2292(3)
C5A C 0.5847(4) 0.3095(3) -0.1842(3)
H3A H 0.5093 0.3136 -0.1690
C6A C 1.1219(4) 1.1559(3) 0.2471(3)
C7A C 0.5001(4) 0.0176(3) -0.3247(3)
H4A H 0.5706 0.0182 -0.3465
N3A N 0.6595(3) 1.0796(3) 0.1380(2)
C8A C 0.8821(4) 0.5962(3) -0.0984(3)
C9A C 0.8938(4) 0.7891(3) 0.0370(3)
C10A C 0.7891(4) 0.4032(3) -0.1815(3)
C11A C 0.7219(4) 0.2045(3) -0.2455(3)
H5A H 0.7401 0.1373 -0.2736
C12A C 1.0061(4) 1.0671(3) 0.2166(3)
C13A C 0.6732(4) 0.4054(3) -0.1610(3)
C14A C 0.8933(4) 0.8856(3) 0.1123(3)
C15A C 0.4052(4) -0.0765(3) -0.3619(3)
C16A C 0.9908(4) 0.6768(3) -0.0619(3)
H6A H 1.0617 0.6666 -0.0820
C17A C 0.9953(4) 0.7712(3) 0.0035(3)
H7A H 1.0686 0.8239 0.0254
C18A C 0.9794(4) 0.4948(3) -0.2089(3)
H8A H 0.9470 0.4453 -0.2691
H9A H 1.0048 0.5685 -0.2173
C19A C 0.7783(4) 0.6158(3) -0.0661(3)
C20A C 0.8118(4) 0.2991(3) -0.2209(3)
H10A H 0.8901 0.2932 -0.2310
C21A C 0.7173(4) 1.1243(4) 0.0854(3)
H11A H 0.8027 1.1198 0.0937
C22A C 0.4983(4) 0.1104(3) -0.2579(3)
C23A C 0.5365(4) 1.0860(3) 0.1233(3)
H12A H 0.4938 1.0550 0.1590
C24A C 0.5314(5) 1.1819(4) 0.0047(3)
H13A H 0.4882 1.2156 -0.0402
C25A C 0.4699(4) 1.1359(4) 0.0583(3)
H14A H 0.3843 1.1384 0.0507
C26A C 1.1208(4) 1.2533(3) 0.3066(3)
H15A H 1.0489 1.2633 0.3254
C27A C 1.3329(5) 1.3241(4) 0.3131(3)
H16A H 1.4033 1.3799 0.3353
C28A C 0.8922(5) 0.8700(4) 0.4998(3)
H17A H 0.8652 0.8734 0.5520
C29A C 0.3330(5) -0.2640(3) -0.4632(3)
H18A H 0.2677 -0.2706 -0.4364
C30A C 1.0954(4) 0.4552(4) -0.1559(3)
H19A H 1.0713 0.3832 -0.1454
H20A H 1.1555 0.4502 -0.1904
H21A H 1.1329 0.5072 -0.0981
C31A C 1.3343(4) 1.2284(4) 0.2543(4)
H22A H 1.4065 1.2190 0.2358
C32A C 0.5203(5) -0.2485(4) -0.5464(4)
H23A H 0.5845 -0.2422 -0.5743
C33A C 0.8237(4) 0.9068(4) 0.4267(3)
H24A H 0.7502 0.9347 0.4311
C34A C 0.6581(4) 1.1771(4) 0.0190(3)
H25A H 0.7030 1.2087 -0.0154
C35A C 0.9998(5) 0.8284(4) 0.4954(4)
H26A H 1.0481 0.8034 0.5441
C36A C 1.2308(4) 1.1449(4) 0.2216(3)
H27A H 1.2345 1.0800 0.1815
C37A C 0.5120(5) -0.1607(4) -0.4795(3)
H28A H 0.5704 -0.0955 -0.4637
C38A C 1.0347(5) 0.8246(4) 0.4168(4)
H29A H 1.1075 0.7964 0.4110
C39A C 1.2257(5) 1.3369(4) 0.3389(4)
H30A H 1.2229 1.4025 0.3786
C40A C 0.3420(6) -0.3513(4) -0.5301(4)
H31A H 0.2833 -0.4164 -0.5470
C41A C 0.9607(5) 0.8629(4) 0.3464(3)
H32A H 0.9851 0.8591 0.2932
C42A C 0.4352(6) -0.3438(4) -0.5715(3)
H33A H 0.4406 -0.4031 -0.6165
Zn1 Zn 0.24634(4) 0.01379(4) 0.75821(3)
S1 S 0.37105(10) 0.46881(9) 1.11463(9)
N1 N 0.1238(3) 0.5001(2) 1.1653(2)
O1 O 0.5887(2) 0.8783(2) 1.21912(18)
O2 O 0.6953(3) 1.0915(2) 1.33775(18)
O3 O 0.0762(2) -0.0850(2) 0.74076(18)
C1 C 0.5806(4) 1.1674(3) 1.4358(3)
O4 O 0.2034(2) 0.1214(2) 0.85924(18)
N2 N 0.1437(3) 0.0950(3) 0.6495(2)
C2 C 0.2140(4) 0.2915(3) 0.9982(3)
H1 H 0.2829 0.2828 0.9754
C3 C 0.0048(4) 0.0252(3) 0.8550(3)
H2 H -0.0598 0.0275 0.8829
C4 C 0.3959(4) 0.7925(3) 1.2292(3)
C5 C 0.4153(4) 0.6905(3) 1.1842(3)
H3 H 0.4907 0.6864 1.1690
C6 C -0.1219(4) -0.1559(3) 0.7529(3)
C7 C 0.4999(4) 0.9824(3) 1.3247(3)
H4 H 0.4294 0.9818 1.3465
N3 N 0.3405(3) -0.0796(3) 0.8620(2)
C8 C 0.1179(4) 0.4038(3) 1.0984(3)
C9 C 0.1062(4) 0.2109(3) 0.9630(3)
C10 C 0.2109(4) 0.5968(3) 1.1815(3)
C11 C 0.2781(4) 0.7955(3) 1.2455(3)
H5 H 0.2599 0.8627 1.2736
C12 C -0.0061(4) -0.0671(3) 0.7834(3)
C13 C 0.3268(4) 0.5946(3) 1.1610(3)
C14 C 0.1067(4) 0.1144(3) 0.8877(3)
C15 C 0.5948(4) 1.0765(3) 1.3619(3)
C16 C 0.0092(4) 0.3232(3) 1.0619(3)
H6 H -0.0617 0.3334 1.0820
C17 C 0.0047(4) 0.2288(3) 0.9965(3)
H7 H -0.0686 0.1761 0.9746
C18 C 0.0206(4) 0.5052(3) 1.2089(3)
H8 H 0.0530 0.5547 1.2691
H9 H -0.0048 0.4315 1.2173
C19 C 0.2217(4) 0.3842(3) 1.0661(3)
C20 C 0.1882(4) 0.7009(3) 1.2209(3)
H10 H 0.1099 0.7068 1.2310
C21 C 0.2827(4) -0.1243(4) 0.9146(3)
H11 H 0.1973 -0.1198 0.9063
C22 C 0.5017(4) 0.8896(3) 1.2579(3)
C23 C 0.4635(4) -0.0860(3) 0.8767(3)
H12 H 0.5062 -0.0550 0.8410
C24 C 0.4686(5) -0.1819(4) 0.9953(3)
H13 H 0.5118 -0.2156 1.0402
C25 C 0.5301(4) -0.1359(4) 0.9417(3)
H14 H 0.6157 -0.1384 0.9493
C26 C -0.1208(4) -0.2533(3) 0.6934(3)
H15 H -0.0489 -0.2633 0.6746
C27 C -0.3329(5) -0.3241(4) 0.6869(3)
H16 H -0.4033 -0.3799 0.6647
C28 C 0.1078(5) 0.1300(4) 0.5002(3)
H17 H 0.1348 0.1266 0.4480
C29 C 0.6670(5) 1.2640(3) 1.4632(3)
H18 H 0.7323 1.2706 1.4364
C30 C -0.0954(4) 0.5448(4) 1.1559(3)
H19 H -0.0713 0.6168 1.1454
H20 H -0.1555 0.5498 1.1904
H21 H -0.1329 0.4928 1.0981
C31 C -0.3343(4) -0.2284(4) 0.7457(4)
H22 H -0.4065 -0.2190 0.7642
C32 C 0.4797(5) 1.2485(4) 1.5464(4)
H23 H 0.4155 1.2422 1.5743
C33 C 0.1763(4) 0.0932(4) 0.5733(3)
H24 H 0.2498 0.0653 0.5689
C34 C 0.3419(4) -0.1771(4) 0.9810(3)
H25 H 0.2970 -0.2087 1.0154
C35 C 0.0002(5) 0.1716(4) 0.5046(4)
H26 H -0.0481 0.1966 0.4559
C36 C -0.2308(4) -0.1449(4) 0.7784(3)
H27 H -0.2345 -0.0800 0.8185
C37 C 0.4880(5) 1.1607(4) 1.4795(3)
H28 H 0.4296 1.0955 1.4637
C38 C -0.0347(5) 0.1754(4) 0.5832(4)
H29 H -0.1075 0.2036 0.5890
C39 C -0.2257(5) -0.3369(4) 0.6611(4)
H30 H -0.2229 -0.4025 0.6214
C40 C 0.6580(6) 1.3513(4) 1.5301(4)
H31 H 0.7167 1.4164 1.5470
C41 C 0.0393(5) 0.1371(4) 0.6536(3)
H32 H 0.0149 0.1409 0.7068
C42 C 0.5648(6) 1.3438(4) 1.5715(3)
H33 H 0.5594 1.4031 1.6165
Zn1A Zn 0.75366(4) 0.98621(4) 1.24179(3)
S1A S 0.62895(10) 0.53119(9) 0.88537(9)
N1A N 0.8762(3) 0.4999(2) 0.8347(2)
O1A O 0.4113(2) 0.1217(2) 0.78088(18)
O2A O 0.3047(3) -0.0915(2) 0.66225(18)
O3A O 0.9238(2) 1.0850(2) 1.25924(18)
C1A C 0.4194(4) -0.1674(3) 0.5642(3)
O4A O 0.7966(2) 0.8786(2) 1.14076(18)
N2A N 0.8563(3) 0.9050(3) 1.3505(2)
C2A C 0.7860(4) 0.7085(3) 1.0018(3)
H1A H 0.7171 0.7172 1.0246
C3A C 0.9952(4) 0.9748(3) 1.1450(3)
H2A H 1.0598 0.9725 1.1171
C4A C 0.6041(4) 0.2075(3) 0.7708(3)
C5A C 0.5847(4) 0.3095(3) 0.8158(3)
H3A H 0.5093 0.3136 0.8310
C6A C 1.1219(4) 1.1559(3) 1.2471(3)
C7A C 0.5001(4) 0.0176(3) 0.6753(3)
H4A H 0.5706 0.0182 0.6535
N3A N 0.6595(3) 1.0796(3) 1.1380(2)
C8A C 0.8821(4) 0.5962(3) 0.9016(3)
C9A C 0.8938(4) 0.7891(3) 1.0370(3)
C10A C 0.7891(4) 0.4032(3) 0.8185(3)
C11A C 0.7219(4) 0.2045(3) 0.7545(3)
H5A H 0.7401 0.1373 0.7264
C12A C 1.0061(4) 1.0671(3) 1.2166(3)
C13A C 0.6732(4) 0.4054(3) 0.8390(3)
C14A C 0.8933(4) 0.8856(3) 1.1123(3)
C15A C 0.4052(4) -0.0765(3) 0.6381(3)
C16A C 0.9908(4) 0.6768(3) 0.9381(3)
H6A H 1.0617 0.6666 0.9180
C17A C 0.9953(4) 0.7712(3) 1.0035(3)
H7A H 1.0686 0.8239 1.0254
C18A C 0.9794(4) 0.4948(3) 0.7911(3)
H8A H 0.9470 0.4453 0.7309
H9A H 1.0048 0.5685 0.7827
C19A C 0.7783(4) 0.6158(3) 0.9339(3)
C20A C 0.8118(4) 0.2991(3) 0.7791(3)
H10A H 0.8901 0.2932 0.7690
C21A C 0.7173(4) 1.1243(4) 1.0854(3)
H11A H 0.8027 1.1198 1.0937
C22A C 0.4983(4) 0.1104(3) 0.7421(3)
C23A C 0.5365(4) 1.0860(3) 1.1233(3)
H12A H 0.4938 1.0550 1.1590
C24A C 0.5314(5) 1.1819(4) 1.0047(3)
H13A H 0.4882 1.2156 0.9598
C25A C 0.4699(4) 1.1359(4) 1.0583(3)
H14A H 0.3843 1.1384 1.0507
C26A C 1.1208(4) 1.2533(3) 1.3066(3)
H15A H 1.0489 1.2633 1.3254
C27A C 1.3329(5) 1.3241(4) 1.3131(3)
H16A H 1.4033 1.3799 1.3353
C28A C 0.8922(5) 0.8700(4) 1.4998(3)
H17A H 0.8652 0.8734 1.5520
C29A C 0.3330(5) -0.2640(3) 0.5368(3)
H18A H 0.2677 -0.2706 0.5636
C30A C 1.0954(4) 0.4552(4) 0.8441(3)
H19A H 1.0713 0.3832 0.8546
H20A H 1.1555 0.4502 0.8096
H21A H 1.1329 0.5072 0.9019
C31A C 1.3343(4) 1.2284(4) 1.2543(4)
H22A H 1.4065 1.2190 1.2358
C32A C 0.5203(5) -0.2485(4) 0.4536(4)
H23A H 0.5845 -0.2422 0.4257
C33A C 0.8237(4) 0.9068(4) 1.4267(3)
H24A H 0.7502 0.9347 1.4311
C34A C 0.6581(4) 1.1771(4) 1.0190(3)
H25A H 0.7030 1.2087 0.9846
C35A C 0.9998(5) 0.8284(4) 1.4954(4)
H26A H 1.0481 0.8034 1.5441
C36A C 1.2308(4) 1.1449(4) 1.2216(3)
H27A H 1.2345 1.0800 1.1815
C37A C 0.5120(5) -0.1607(4) 0.5205(3)
H28A H 0.5704 -0.0955 0.5363
C38A C 1.0347(5) 0.8246(4) 1.4168(4)
H29A H 1.1075 0.7964 1.4110
C39A C 1.2257(5) 1.3369(4) 1.3389(4)
H30A H 1.2229 1.4025 1.3786
C40A C 0.3420(6) -0.3513(4) 0.4699(4)
H31A H 0.2833 -0.4164 0.4530
C41A C 0.9607(5) 0.8629(4) 1.3464(3)
H32A H 0.9851 0.8591 1.2932
C42A C 0.4352(6) -0.3438(4) 0.4285(3)
H33A H 0.4406 -0.4031 0.3835
N4 N 0.1120(4) 0.5826(4) 0.6266(3)
C43 C 0.2042(6) 0.6427(4) 0.6987(4)
H34 H 0.1938 0.7141 0.7243
C44 C 0.3127(6) 0.6052(5) 0.7369(4)
H35 H 0.3738 0.6501 0.7876
C45 C 0.1323(6) 0.4809(5) 0.5912(4)
H36 H 0.0706 0.4366 0.5405
C46 C 0.2380(6) 0.4399(5) 0.6259(5)
H37 H 0.2477 0.3689 0.5987
C47 C 0.3307(6) 0.5009(6) 0.7000(5)
H38 H 0.4036 0.4729 0.7246
N4 N 0.8880(4) 0.4174(4) 0.3734(3)
C43 C 0.7958(6) 0.3573(4) 0.3013(4)
H34 H 0.8062 0.2859 0.2757
C44 C 0.6873(6) 0.3948(5) 0.2631(4)
H35 H 0.6262 0.3499 0.2124
C45 C 0.8677(6) 0.5191(5) 0.4088(4)
H36 H 0.9294 0.5634 0.4595
C46 C 0.7620(6) 0.5601(5) 0.3741(5)
H37 H 0.7523 0.6311 0.4013
C47 C 0.6693(6) 0.4991(6) 0.3000(5)
H38 H 0.5964 0.5271 0.2754

#END
