./ABOLIN_from_POSCAR.cif_generated_by_CrystalShift
_symmetry_cell_setting triclinic
_symmetry_space_group_name_H-M 'P 1'
loop_
_symmetry_equiv_pos_site_id
_symmetry_equiv_pos_as_xyz
1 x,y,z
_cell_length_a 9.837800
_cell_length_b 16.072000
_cell_length_c 11.365500
_cell_angle_alpha 90.000000
_cell_angle_beta 109.951000
_cell_angle_gamma 90.000000
_cell_volume 1689.185246
loop_
_atom_site_label
_atom_site_type_symbol
_atom_site_fract_x
_atom_site_fract_y
_atom_site_fract_z
H1 H 0.271700 0.380400 -0.096900
H2 H 0.329800 0.294700 -0.120900
H3 H 0.326000 0.203600 0.100300
H4 H 0.458900 0.202100 0.056300
H5 H 0.477700 0.227600 0.192600
H6 H 0.574300 0.334900 0.028200
H7 H 0.591800 0.362600 0.163300
H8 H 0.512000 0.419600 0.050800
H9 H 0.031000 0.592100 0.215800
H10 H -0.116800 0.540700 0.323200
H11 H -0.134200 0.397800 0.350200
H12 H -0.001500 0.305700 0.272300
H13 H 0.190400 0.282700 0.189000
H14 H 0.118300 0.321800 0.057500
H15 H 0.355100 0.368700 0.334000
H16 H 0.482300 0.331800 0.299500
H17 H 0.654500 0.409300 0.470200
H18 H 0.773800 0.534000 0.539400
H19 H 0.686500 0.657300 0.433100
H20 H 0.477500 0.654500 0.251100
H21 H 0.771700 0.119600 0.403100
H22 H 0.022500 1.154500 0.248900
H23 H -0.186500 1.157300 0.066900
H24 H -0.273800 1.034000 -0.039400
H25 H -0.154500 0.909300 0.029800
H26 H 0.017700 0.831800 0.200500
H27 H 0.144900 0.868700 0.166000
H28 H 0.381700 0.821800 0.442500
H29 H 0.309600 0.782700 0.311000
H30 H 0.501500 0.805700 0.227700
H31 H 0.634200 0.897800 0.149800
H32 H 0.616800 1.040700 0.176800
H33 H 0.469000 1.092100 0.284200
H34 H -0.012000 0.919600 0.449200
H35 H -0.091800 0.862600 0.336700
H36 H -0.074300 0.834900 0.471800
H37 H 0.022300 0.727600 0.307400
H38 H 0.041100 0.702100 0.443700
H39 H 0.174000 0.703600 0.399700
H40 H 0.170200 0.794700 0.620900
H41 H 0.303700 0.799200 0.578000
H42 H 0.228300 0.880400 0.596900
H43 H 0.696300 0.200800 0.422000
H44 H 0.829800 0.205300 0.379100
H45 H 0.826000 0.296400 0.600300
H46 H 0.958900 0.297900 0.556300
H47 H 0.977700 0.272400 0.692600
H48 H 1.074300 0.165100 0.528200
H49 H 1.091800 0.137400 0.663300
H50 H 1.012000 0.080400 0.550800
H51 H 0.531000 -0.092100 0.715800
H52 H 0.383200 -0.040700 0.823200
H53 H 0.365800 0.102200 0.850200
H54 H 0.498500 0.194300 0.772300
H55 H 0.690400 0.217300 0.689000
H56 H 0.618300 0.178200 0.557500
H57 H 0.855100 0.131300 0.834000
H58 H 0.982300 0.168200 0.799500
H59 H 1.154500 0.090700 0.970200
H60 H 1.273800 -0.034000 1.039400
H61 H 1.186500 -0.157300 0.933100
H62 H 0.977500 -0.154500 0.751100
H63 H 0.728300 0.619600 1.096900
H64 H 0.522500 0.345500 0.748900
H65 H 0.313500 0.342700 0.566900
H66 H 0.226200 0.466000 0.460600
H67 H 0.345500 0.590700 0.529800
H68 H 0.517700 0.668200 0.700500
H69 H 0.644900 0.631300 0.666000
H70 H 0.881700 0.678200 0.942500
H71 H 0.809600 0.717300 0.811000
H72 H 1.001500 0.694300 0.727700
H73 H 1.134200 0.602200 0.649800
H74 H 1.116800 0.459300 0.676800
H75 H 0.969000 0.407900 0.784200
H76 H 0.488000 0.580400 0.949200
H77 H 0.408200 0.637400 0.836700
H78 H 0.425700 0.665100 0.971800
H79 H 0.522300 0.772400 0.807400
H80 H 0.541100 0.797900 0.943700
H81 H 0.674000 0.796400 0.899700
H82 H 0.670200 0.705300 1.120900
H83 H 0.803700 0.700800 1.078000
H84 H 0.196300 0.299200 -0.078000
C85 C 0.057100 1.030300 0.246900
C86 C -0.014400 1.104800 0.204300
C87 C -0.138100 1.106300 0.096700
C88 C 0.942900 -0.030300 0.753100
C89 C 1.014400 -0.104800 0.795700
C90 C 1.138100 -0.106300 0.903300
C91 C 1.189400 -0.033100 0.966900
C92 C 1.118500 0.041000 0.925300
C93 C 0.994400 0.043700 0.817500
C94 C 0.913200 0.124500 0.782900
C95 C 0.674500 0.167000 0.642300
C96 C 0.593400 0.106600 0.697000
C97 C 0.504700 0.136100 0.760900
C98 C 0.426400 0.081700 0.807100
C99 C 0.436300 -0.003400 0.790500
C100 C 0.524400 -0.033900 0.727700
C101 C 0.601900 0.020700 0.680800
C102 C 0.886900 0.178700 0.567400
C103 C 1.029700 0.136400 0.578400
C104 C 0.915100 0.270100 0.607900
C105 C 0.786600 0.175900 0.429700
C106 C 0.584900 0.770100 0.892100
C107 C 0.470300 0.636400 0.921600
C108 C 0.613100 0.678700 0.932600
C109 C 0.898100 0.520700 0.819200
C110 C 0.975600 0.466100 0.772300
C111 C 1.063700 0.496600 0.709500
C112 C 1.073600 0.581700 0.692900
C113 C 0.995300 0.636100 0.739100
C114 C 0.906600 0.606600 0.803000
C115 C 0.825500 0.667000 0.857700
C116 C 0.586800 0.624500 0.717100
C117 C 0.505600 0.543700 0.682500
C118 C 0.381500 0.541000 0.574700
C119 C 0.310600 0.466900 0.533100
C120 C 0.361900 0.393700 0.596700
C121 C 0.485600 0.395200 0.704300
C122 C 0.557100 0.469700 0.746900
C123 C -0.189400 1.033100 0.033100
C124 C -0.118500 0.959000 0.074700
C125 C 0.005600 0.956300 0.182500
C126 C 0.213400 0.824100 0.570300
C127 C 0.086800 0.875500 0.217100
C128 C 0.325500 0.833000 0.357700
C129 C 0.406600 0.893400 0.303000
C130 C 0.442900 0.530300 0.253100
C131 C 0.514400 0.604800 0.295700
C132 C 0.638100 0.606300 0.403300
C133 C 0.689400 0.533100 0.466900
C134 C 0.618500 0.459000 0.425300
C135 C 0.494400 0.456300 0.317500
C136 C 0.413200 0.375500 0.282900
C137 C 0.174500 0.333000 0.142300
C138 C 0.093400 0.393400 0.197000
C139 C 0.004700 0.363900 0.260900
C140 C -0.073600 0.418300 0.307100
C141 C -0.063700 0.503400 0.290500
C142 C 0.024400 0.533900 0.227700
C143 C 0.101900 0.479300 0.180800
C144 C 0.386900 0.321300 0.067400
C145 C 0.529700 0.363600 0.078400
C146 C 0.415100 0.229900 0.107900
C147 C 0.286600 0.324100 -0.070300
C148 C 0.084900 0.729900 0.392100
C149 C -0.029700 0.863600 0.421600
C150 C 0.113100 0.821300 0.432600
C151 C 0.398100 0.979300 0.319200
C152 C 0.475600 1.033900 0.272300
C153 C 0.563700 1.003400 0.209500
C154 C 0.573600 0.918300 0.192900
C155 C 0.495300 0.863900 0.239100
C156 C 0.713400 0.675900 1.070300
N157 N 0.183000 0.869100 0.351900
N158 N 0.817000 0.130900 0.648100
N159 N 0.683000 0.630900 0.851900
N160 N 0.317000 0.369100 0.148100
Cl161 Cl 0.312500 1.179990 0.406300
Cl162 Cl 0.687500 -0.179990 0.593700
Cl163 Cl 0.187500 0.679990 0.093700
Cl164 Cl 0.812500 0.320010 0.906300
Bi165 Bi 0.749670 -0.020000 0.578010
Bi166 Bi 0.249670 0.520000 0.078010
Bi167 Bi 0.750330 0.480000 0.921990
Bi168 Bi 0.250330 1.020000 0.421990

#END
