
#######################################################################
#
#                 Cambridge Crystallographic Data Centre
#                                CCDC 
#
#######################################################################
#
# If this CIF has been generated from an entry in the Cambridge 
# Structural Database, then it will include bibliographic, chemical, 
# crystal, experimental, refinement or atomic coordinate data resulting 
# from the CCDC's data processing and validation procedures.
#
#######################################################################

data_ABONIQ
_symmetry_cell_setting           triclinic
_symmetry_space_group_name_H-M   'P -1'
_symmetry_Int_Tables_number      2
_space_group_name_Hall           '-P 1'
loop_
_symmetry_equiv_pos_site_id
_symmetry_equiv_pos_as_xyz
1 x,y,z
2 -x,-y,-z
_cell_length_a                   9.2839(8)
_cell_length_b                   10.4980(7)
_cell_length_c                   13.7598(8)
_cell_angle_alpha                96.5300(10)
_cell_angle_beta                 101.0590(10)
_cell_angle_gamma                100.4420(10)
_cell_volume                     1278.95
loop_
_atom_site_label
_atom_site_type_symbol
_atom_site_fract_x
_atom_site_fract_y
_atom_site_fract_z
P1 P 1.07473(4) 0.84215(4) 0.28585(3)
O1 O 1.15639(10) 0.57312(9) 0.17790(7)
N1 N 0.92016(12) 0.86332(11) 0.30355(9)
C1 C 1.10053(16) 0.83592(15) 0.15935(11)
H1 H 1.0250 0.7644 0.1159
H2 H 1.2010 0.8208 0.1571
H3 H 1.0897 0.9192 0.1361
C2 C 1.12738(14) 0.69807(14) 0.33223(10)
C3 C 1.13115(16) 0.69128(14) 0.43399(11)
H4 H 1.1114 0.7630 0.4744
C4 C 1.16259(17) 0.58390(15) 0.47782(11)
H5 H 1.1645 0.5840 0.5471
C5 C 1.19123(16) 0.47689(15) 0.42223(11)
H6 H 1.2130 0.4037 0.4526
C6 C 1.18747(15) 0.47852(14) 0.32098(11)
C7 C 1.15610(14) 0.58849(14) 0.27921(10)
C8 C 1.20969(15) 0.38863(14) 0.23995(11)
C9 C 1.24975(16) 0.26697(15) 0.23097(13)
H7 H 1.2632 0.2214 0.2868
C10 C 1.26944(18) 0.21429(16) 0.13924(13)
H8 H 1.2974 0.1316 0.1322
C11 C 1.24934(18) 0.27944(17) 0.05683(13)
H9 H 1.2639 0.2405 -0.0054
C12 C 1.20846(17) 0.40014(16) 0.06368(12)
H10 H 1.1938 0.4452 0.0077
C13 C 1.19032(15) 0.45110(14) 0.15604(11)
C14 C 1.21992(15) 0.97283(13) 0.36207(10)
C15 C 1.36688(15) 0.99324(15) 0.34744(11)
H11 H 1.3925 0.9380 0.2967
C16 C 1.47495(17) 1.09501(16) 0.40775(13)
H12 H 1.5741 1.1108 0.3966
C17 C 1.44054(17) 1.17323(16) 0.48342(13)
H13 H 1.5157 1.2422 0.5244
C18 C 1.29591(17) 1.15135(15) 0.49998(12)
H14 H 1.2723 1.2038 0.5533
C19 C 1.18614(16) 1.05265(14) 0.43843(11)
H15 H 1.0865 1.0394 0.4486
C20 C 0.78098(14) 0.84296(14) 0.23536(10)
C21 C 0.67693(15) 0.72251(14) 0.22057(11)
C22 C 0.53689(16) 0.70918(16) 0.15718(12)
H16 H 0.4666 0.6283 0.1465
C23 C 0.49819(16) 0.81064(17) 0.10971(12)
H17 H 0.4020 0.7995 0.0669
C24 C 0.59968(16) 0.92864(16) 0.12460(11)
H18 H 0.5720 0.9984 0.0920
C25 C 0.74180(15) 0.94730(14) 0.18640(10)
C26 C 0.71750(16) 0.60801(15) 0.26927(11)
H19 H 0.8024 0.6436 0.3284
C27 C 0.58848(18) 0.53067(18) 0.30695(13)
H20 H 0.5486 0.5910 0.3492
H21 H 0.6254 0.4663 0.3461
H22 H 0.5088 0.4852 0.2496
C28 C 0.77148(19) 0.51508(16) 0.19723(13)
H23 H 0.6885 0.4748 0.1404
H24 H 0.8066 0.4465 0.2323
H25 H 0.8540 0.5643 0.1729
C29 C 0.85100(16) 1.07814(14) 0.20321(11)
H26 H 0.9544 1.0598 0.2168
C30 C 0.8368(2) 1.16438(16) 0.29600(13)
H27 H 0.7394 1.1901 0.2836
H28 H 0.9174 1.2430 0.3114
H29 H 0.8446 1.1156 0.3528
C31 C 0.8373(2) 1.15053(18) 0.11289(13)
H30 H 0.8432 1.0922 0.0535
H31 H 0.9191 1.2279 0.1258
H32 H 0.7407 1.1779 0.1013
P1 P -0.07473(4) 0.15785(4) 0.71415(3)
O1 O -0.15639(10) 0.42688(9) 0.82210(7)
N1 N 0.07984(12) 0.13668(11) 0.69645(9)
C1 C -0.10053(16) 0.16408(15) 0.84065(11)
H1 H -0.0250 0.2356 0.8841
H2 H -0.2010 0.1792 0.8429
H3 H -0.0897 0.0808 0.8639
C2 C -0.12738(14) 0.30193(14) 0.66777(10)
C3 C -0.13115(16) 0.30872(14) 0.56601(11)
H4 H -0.1114 0.2370 0.5256
C4 C -0.16259(17) 0.41610(15) 0.52218(11)
H5 H -0.1645 0.4160 0.4529
C5 C -0.19123(16) 0.52311(15) 0.57777(11)
H6 H -0.2130 0.5963 0.5474
C6 C -0.18747(15) 0.52148(14) 0.67902(11)
C7 C -0.15610(14) 0.41151(14) 0.72079(10)
C8 C -0.20969(15) 0.61137(14) 0.76005(11)
C9 C -0.24975(16) 0.73303(15) 0.76903(13)
H7 H -0.2632 0.7786 0.7132
C10 C -0.26944(18) 0.78571(16) 0.86076(13)
H8 H -0.2974 0.8684 0.8678
C11 C -0.24934(18) 0.72056(17) 0.94317(13)
H9 H -0.2639 0.7595 1.0054
C12 C -0.20846(17) 0.59986(16) 0.93632(12)
H10 H -0.1938 0.5548 0.9923
C13 C -0.19032(15) 0.54890(14) 0.84396(11)
C14 C -0.21992(15) 0.02717(13) 0.63793(10)
C15 C -0.36688(15) 0.00676(15) 0.65256(11)
H11 H -0.3925 0.0620 0.7033
C16 C -0.47495(17) -0.09501(16) 0.59225(13)
H12 H -0.5741 -0.1108 0.6034
C17 C -0.44054(17) -0.17323(16) 0.51658(13)
H13 H -0.5157 -0.2422 0.4756
C18 C -0.29591(17) -0.15135(15) 0.50002(12)
H14 H -0.2723 -0.2038 0.4467
C19 C -0.18614(16) -0.05265(14) 0.56157(11)
H15 H -0.0865 -0.0394 0.5514
C20 C 0.21902(14) 0.15704(14) 0.76464(10)
C21 C 0.32307(15) 0.27749(14) 0.77943(11)
C22 C 0.46311(16) 0.29082(16) 0.84282(12)
H16 H 0.5334 0.3717 0.8535
C23 C 0.50181(16) 0.18936(17) 0.89029(12)
H17 H 0.5980 0.2005 0.9331
C24 C 0.40032(16) 0.07136(16) 0.87540(11)
H18 H 0.4280 0.0016 0.9080
C25 C 0.25820(15) 0.05270(14) 0.81360(10)
C26 C 0.28250(16) 0.39199(15) 0.73073(11)
H19 H 0.1976 0.3564 0.6716
C27 C 0.41152(18) 0.46933(18) 0.69305(13)
H20 H 0.4514 0.4090 0.6508
H21 H 0.3746 0.5337 0.6539
H22 H 0.4912 0.5148 0.7504
C28 C 0.22852(19) 0.48492(16) 0.80277(13)
H23 H 0.3115 0.5252 0.8596
H24 H 0.1934 0.5535 0.7677
H25 H 0.1460 0.4357 0.8271
C29 C 0.14900(16) -0.07814(14) 0.79679(11)
H26 H 0.0456 -0.0598 0.7832
C30 C 0.1632(2) -0.16438(16) 0.70400(13)
H27 H 0.2606 -0.1901 0.7164
H28 H 0.0826 -0.2430 0.6886
H29 H 0.1554 -0.1156 0.6472
C31 C 0.1627(2) -0.15053(18) 0.88711(13)
H30 H 0.1568 -0.0922 0.9465
H31 H 0.0809 -0.2279 0.8742
H32 H 0.2593 -0.1779 0.8987

#END
