./LADBUP_from_xyz.cif_generated_by_CrystalShift
_symmetry_cell_setting triclinic
_symmetry_space_group_name_H-M 'P 1'
loop_
_symmetry_equiv_pos_site_id
_symmetry_equiv_pos_as_xyz
1 x,y,z
_cell_length_a 7.972700
_cell_length_b 6.295600
_cell_length_c 24.628600
_cell_angle_alpha 90.000000
_cell_angle_beta 90.580000
_cell_angle_gamma 90.000000
_cell_volume 1236.118255
loop_
_atom_site_label
_atom_site_type_symbol
_atom_site_fract_x
_atom_site_fract_y
_atom_site_fract_z
Br1 Br 0.701930 0.346610 0.032679
N2 N 0.456100 0.145100 0.168620
H3 H 0.405000 0.232000 0.199500
C4 C 0.415900 -0.060500 0.160000
N5 N 0.330900 -0.161300 0.198940
H6 H 0.322000 -0.112000 0.230400
H7 H 0.311000 -0.308000 0.198200
C8 C 0.462800 -0.154400 0.110270
H9 H 0.434200 -0.298100 0.102800
C10 C 0.549900 -0.037700 0.072730
H11 H 0.582400 -0.100400 0.039400
C12 C 0.590700 0.175800 0.084140
C13 C 0.543400 0.262600 0.132170
H14 H 0.571400 0.405900 0.140300
Br15 Br 0.298070 0.846610 0.467321
N16 N 0.543900 0.645100 0.331380
H17 H 0.595000 0.732000 0.300500
C18 C 0.584100 0.439500 0.340000
N19 N 0.669100 0.338700 0.301060
H20 H 0.678000 0.388000 0.269600
H21 H 0.689000 0.192000 0.301800
C22 C 0.537200 0.345600 0.389730
H23 H 0.565800 0.201900 0.397200
C24 C 0.450100 0.462300 0.427270
H25 H 0.417600 0.399600 0.460600
C26 C 0.409300 0.675800 0.415860
C27 C 0.456600 0.762600 0.367830
H28 H 0.428600 0.905900 0.359700
Br29 Br 0.298070 0.653390 0.967321
N30 N 0.543900 0.854900 0.831380
H31 H 0.595000 0.768000 0.800500
C32 C 0.584100 1.060500 0.840000
N33 N 0.669100 1.161300 0.801060
H34 H 0.678000 1.112000 0.769600
H35 H 0.689000 1.308000 0.801800
C36 C 0.537200 1.154400 0.889730
H37 H 0.565800 1.298100 0.897200
C38 C 0.450100 1.037700 0.927270
H39 H 0.417600 1.100400 0.960600
C40 C 0.409300 0.824200 0.915860
C41 C 0.456600 0.737400 0.867830
H42 H 0.428600 0.594100 0.859700
Br43 Br 0.701930 0.153390 0.532679
N44 N 0.456100 0.354900 0.668620
H45 H 0.405000 0.268000 0.699500
C46 C 0.415900 0.560500 0.660000
N47 N 0.330900 0.661300 0.698940
H48 H 0.322000 0.612000 0.730400
H49 H 0.311000 0.808000 0.698200
C50 C 0.462800 0.654400 0.610270
H51 H 0.434200 0.798100 0.602800
C52 C 0.549900 0.537700 0.572730
H53 H 0.582400 0.600400 0.539400
C54 C 0.590700 0.324200 0.584140
C55 C 0.543400 0.237400 0.632170
H56 H 0.571400 0.094100 0.640300
C57 C 0.134900 0.406900 0.318930
C58 C 0.244500 0.282700 0.280420
O59 O 0.300200 0.380800 0.239440
O60 O 0.274000 0.092400 0.291780
C61 C 0.088300 0.317700 0.368410
H62 H 0.121300 0.176500 0.377000
C63 C -0.005700 0.433200 0.405220
H64 H -0.037600 0.373200 0.439000
C65 C -0.051900 0.639400 0.391280
N66 N -0.146200 0.766300 0.430600
O67 O -0.177200 0.688100 0.474940
O68 O -0.189100 0.947600 0.417230
C69 C -0.009800 0.731600 0.342130
H70 H -0.043900 0.872400 0.333600
C71 C 0.083400 0.612700 0.305780
H72 H 0.112400 0.671900 0.271700
C73 C 0.865100 -0.093100 0.181070
C74 C 0.755500 -0.217300 0.219580
O75 O 0.699800 -0.119200 0.260560
O76 O 0.726000 -0.407600 0.208220
C77 C 0.911700 -0.182300 0.131590
H78 H 0.878700 -0.323500 0.123000
C79 C 1.005700 -0.066800 0.094780
H80 H 1.037600 -0.126800 0.061000
C81 C 1.051900 0.139400 0.108720
N82 N 1.146200 0.266300 0.069400
O83 O 1.177200 0.188100 0.025060
O84 O 1.189100 0.447600 0.082770
C85 C 1.009800 0.231600 0.157870
H86 H 1.043900 0.372400 0.166400
C87 C 0.916600 0.112700 0.194220
H88 H 0.887600 0.171900 0.228300
C89 C 0.865100 0.593100 0.681070
C90 C 0.755500 0.717300 0.719580
O91 O 0.699800 0.619200 0.760560
O92 O 0.726000 0.907600 0.708220
C93 C 0.911700 0.682300 0.631590
H94 H 0.878700 0.823500 0.623000
C95 C 1.005700 0.566800 0.594780
H96 H 1.037600 0.626800 0.561000
C97 C 1.051900 0.360600 0.608720
N98 N 1.146200 0.233700 0.569400
O99 O 1.177200 0.311900 0.525060
O100 O 1.189100 0.052400 0.582770
C101 C 1.009800 0.268400 0.657870
H102 H 1.043900 0.127600 0.666400
C103 C 0.916600 0.387300 0.694220
H104 H 0.887600 0.328100 0.728300
C105 C 0.134900 1.093100 0.818930
C106 C 0.244500 1.217300 0.780420
O107 O 0.300200 1.119200 0.739440
O108 O 0.274000 1.407600 0.791780
C109 C 0.088300 1.182300 0.868410
H110 H 0.121300 1.323500 0.877000
C111 C -0.005700 1.066800 0.905220
H112 H -0.037600 1.126800 0.939000
C113 C -0.051900 0.860600 0.891280
N114 N -0.146200 0.733700 0.930600
O115 O -0.177200 0.811900 0.974940
O116 O -0.189100 0.552400 0.917230
C117 C -0.009800 0.768400 0.842130
H118 H -0.043900 0.627600 0.833600
C119 C 0.083400 0.887300 0.805780
H120 H 0.112400 0.828100 0.771700

#END
