./LADBEZ01_from_xyz.cif_generated_by_CrystalShift
_symmetry_cell_setting triclinic
_symmetry_space_group_name_H-M 'P 1'
loop_
_symmetry_equiv_pos_site_id
_symmetry_equiv_pos_as_xyz
1 x,y,z
_cell_length_a 6.604500
_cell_length_b 7.960100
_cell_length_c 11.100400
_cell_angle_alpha 90.000000
_cell_angle_beta 99.625000
_cell_angle_gamma 90.000000
_cell_volume 575.360691
loop_
_atom_site_label
_atom_site_type_symbol
_atom_site_fract_x
_atom_site_fract_y
_atom_site_fract_z
C1 C 0.834000 0.709900 0.519920
C2 C 0.762700 0.650500 0.402940
H3 H 0.841500 0.669500 0.340000
C4 C 0.578600 0.564000 0.376400
H5 H 0.532300 0.522000 0.296400
C6 C 0.463000 0.539800 0.468100
C7 C 0.528200 0.599100 0.585200
H8 H 0.446400 0.582800 0.647000
C9 C 0.715200 0.683100 0.611500
H10 H 0.762600 0.722500 0.692000
C11 C 1.034400 0.802500 0.552400
O12 O 1.117100 0.860400 0.466390
O13 O 1.107500 0.814900 0.663600
Cl14 Cl 0.232980 0.429300 0.436690
C15 C 0.334000 0.290100 0.019920
C16 C 0.262700 0.349500 -0.097060
H17 H 0.341500 0.330500 -0.160000
C18 C 0.078600 0.436000 -0.123600
H19 H 0.032300 0.478000 -0.203600
C20 C -0.037000 0.460200 -0.031900
C21 C 0.028200 0.400900 0.085200
H22 H -0.053600 0.417200 0.147000
C23 C 0.215200 0.316900 0.111500
H24 H 0.262600 0.277500 0.192000
C25 C 0.534400 0.197500 0.052400
O26 O 0.617100 0.139600 -0.033610
O27 O 0.607500 0.185100 0.163600
Cl28 Cl -0.267020 0.570700 -0.063310
C29 C 0.543000 0.077500 0.646000
C30 C 0.724100 0.174500 0.672100
H31 H 0.776000 0.206400 0.753900
C32 C 0.823600 0.222000 0.580400
H33 H 0.947300 0.284900 0.598400
C34 C 0.744900 0.178800 0.458600
H35 H 0.812900 0.213400 0.393800
C36 C 0.569800 0.086500 0.435500
H37 H 0.514900 0.056500 0.353700
N38 N 0.472300 0.036700 0.527690
N39 N 0.439300 0.023700 0.731160
H40 H 0.342000 -0.026000 0.510000
H41 H 0.313000 -0.044000 0.706000
H42 H 0.494000 0.053000 0.812000
C43 C 0.043000 0.922500 0.146000
C44 C 0.224100 0.825500 0.172100
H45 H 0.276000 0.793600 0.253900
C46 C 0.323600 0.778000 0.080400
H47 H 0.447300 0.715100 0.098400
C48 C 0.244900 0.821200 -0.041400
H49 H 0.312900 0.786600 -0.106200
C50 C 0.069800 0.913500 -0.064500
H51 H 0.014900 0.943500 -0.146300
N52 N -0.027700 0.963300 0.027690
N53 N -0.060700 0.976300 0.231160
H54 H -0.158000 1.026000 0.010000
H55 H -0.187000 1.044000 0.206000
H56 H -0.006000 0.947000 0.312000

#END
