./LADBIE_from_xyz.cif_generated_by_CrystalShift
_symmetry_cell_setting triclinic
_symmetry_space_group_name_H-M 'P 1'
loop_
_symmetry_equiv_pos_site_id
_symmetry_equiv_pos_as_xyz
1 x,y,z
_cell_length_a 9.725500
_cell_length_b 16.372000
_cell_length_c 18.148000
_cell_angle_alpha 90.000000
_cell_angle_beta 90.000000
_cell_angle_gamma 90.000000
_cell_volume 2889.631379
loop_
_atom_site_label
_atom_site_type_symbol
_atom_site_fract_x
_atom_site_fract_y
_atom_site_fract_z
N1 N 0.304200 0.719640 0.772730
H2 H 0.388000 0.693000 0.778000
C3 C 0.342100 0.796500 0.735400
H4 H 0.390600 0.784100 0.688800
H5 H 0.405100 0.828300 0.767200
C6 C 0.214800 0.846200 0.719300
H7 H 0.240700 0.896800 0.692800
H8 H 0.169800 0.861900 0.766100
C9 C 0.116100 0.797000 0.672760
H10 H 0.157600 0.786600 0.623900
H11 H 0.030400 0.828600 0.665300
C12 C 0.082100 0.715800 0.709900
H13 H 0.031300 0.725800 0.756200
H14 H 0.023000 0.682600 0.677000
C15 C 0.213600 0.670100 0.726200
H16 H 0.191800 0.618200 0.751600
H17 H 0.261000 0.656800 0.679400
N18 N 0.195800 0.280360 0.272730
H19 H 0.112000 0.307000 0.278000
C20 C 0.157900 0.203500 0.235400
H21 H 0.109400 0.215900 0.188800
H22 H 0.094900 0.171700 0.267200
C23 C 0.285200 0.153800 0.219300
H24 H 0.259300 0.103200 0.192800
H25 H 0.330200 0.138100 0.266100
C26 C 0.383900 0.203000 0.172760
H27 H 0.342400 0.213400 0.123900
H28 H 0.469600 0.171400 0.165300
C29 C 0.417900 0.284200 0.209900
H30 H 0.468700 0.274200 0.256200
H31 H 0.477000 0.317400 0.177000
C32 C 0.286400 0.329900 0.226200
H33 H 0.308200 0.381800 0.251600
H34 H 0.239000 0.343200 0.179400
N35 N 0.804200 0.780360 0.227270
H36 H 0.888000 0.807000 0.222000
C37 C 0.842100 0.703500 0.264600
H38 H 0.890600 0.715900 0.311200
H39 H 0.905100 0.671700 0.232800
C40 C 0.714800 0.653800 0.280700
H41 H 0.740700 0.603200 0.307200
H42 H 0.669800 0.638100 0.233900
C43 C 0.616100 0.703000 0.327240
H44 H 0.657600 0.713400 0.376100
H45 H 0.530400 0.671400 0.334700
C46 C 0.582100 0.784200 0.290100
H47 H 0.531300 0.774200 0.243800
H48 H 0.523000 0.817400 0.323000
C49 C 0.713600 0.829900 0.273800
H50 H 0.691800 0.881800 0.248400
H51 H 0.761000 0.843200 0.320600
N52 N 0.695800 0.219640 0.727270
H53 H 0.612000 0.193000 0.722000
C54 C 0.657900 0.296500 0.764600
H55 H 0.609400 0.284100 0.811200
H56 H 0.594900 0.328300 0.732800
C57 C 0.785200 0.346200 0.780700
H58 H 0.759300 0.396800 0.807200
H59 H 0.830200 0.361900 0.733900
C60 C 0.883900 0.297000 0.827240
H61 H 0.842400 0.286600 0.876100
H62 H 0.969600 0.328600 0.834700
C63 C 0.917900 0.215800 0.790100
H64 H 0.968700 0.225800 0.743800
H65 H 0.977000 0.182600 0.823000
C66 C 0.786400 0.170100 0.773800
H67 H 0.808200 0.118200 0.748400
H68 H 0.739000 0.156800 0.820600
C69 C 0.960100 0.934450 0.970050
C70 C 1.001500 0.877190 1.019480
C71 C 0.896100 0.914050 0.898040
C72 C 0.789400 0.857590 0.891950
H73 H 0.754800 0.831900 0.935100
C74 C 0.732900 0.838320 0.823940
H75 H 0.660400 0.799600 0.820400
Br76 Br 0.711960 0.846700 0.667691
C77 C 0.782800 0.875910 0.761580
C78 C 0.883900 0.934410 0.765500
H79 H 0.914900 0.961300 0.722200
C80 C 0.940400 0.953780 0.834460
H81 H 1.009700 0.994500 0.837800
C82 C 0.974500 1.023940 0.984410
C83 C 0.862900 1.074840 0.974610
H84 H 0.778200 1.052800 0.957600
C85 C 0.872800 1.158520 0.989370
H86 H 0.795200 1.193100 0.983300
Br87 Br 1.002900 1.302997 1.035698
C88 C 0.995600 1.189710 1.012590
C89 C 1.111300 1.141100 1.020880
H90 H 1.196500 1.164100 1.036000
C91 C 1.099700 1.057810 1.006550
H92 H 1.178000 1.023600 1.011900
C93 C 1.045300 0.898670 1.095850
C94 C 1.166700 0.867010 1.124600
H95 H 1.222600 0.833000 1.094600
C96 C 1.208000 0.884120 1.196360
H97 H 1.291300 0.862300 1.215300
Br98 Br 1.179540 0.954990 1.338375
C99 C 1.126100 0.933230 1.239310
C100 C 1.004900 0.965280 1.212880
H101 H 0.949400 0.998900 1.243400
C102 C 0.964800 0.948030 1.141470
H103 H 0.881200 0.970100 1.123100
C104 C 1.003700 0.787790 1.001370
C105 C 1.071900 0.757950 0.939800
H106 H 1.117100 0.795100 0.907800
C107 C 1.075400 0.676090 0.924110
H108 H 1.123700 0.656700 0.882100
Br109 Br 1.009470 0.508463 0.948028
C110 C 1.008000 0.622100 0.969990
C111 C 0.940200 0.648970 1.031800
H112 H 0.894500 0.611200 1.063100
C113 C 0.939100 0.731980 1.047970
H114 H 0.893900 0.750900 1.091100
C115 C 0.539900 0.065550 0.470050
C116 C 0.498500 0.122810 0.519480
C117 C 0.603900 0.085950 0.398040
C118 C 0.710600 0.142410 0.391950
H119 H 0.745200 0.168100 0.435100
C120 C 0.767100 0.161680 0.323940
H121 H 0.839600 0.200400 0.320400
Br122 Br 0.788040 0.153300 0.167691
C123 C 0.717200 0.124090 0.261580
C124 C 0.616100 0.065590 0.265500
H125 H 0.585100 0.038700 0.222200
C126 C 0.559600 0.046220 0.334460
H127 H 0.490300 0.005500 0.337800
C128 C 0.525500 -0.023940 0.484410
C129 C 0.637100 -0.074840 0.474610
H130 H 0.721800 -0.052800 0.457600
C131 C 0.627200 -0.158520 0.489370
H132 H 0.704800 -0.193100 0.483300
Br133 Br 0.497100 -0.302997 0.535698
C134 C 0.504400 -0.189710 0.512590
C135 C 0.388700 -0.141100 0.520880
H136 H 0.303500 -0.164100 0.536000
C137 C 0.400300 -0.057810 0.506550
H138 H 0.322000 -0.023600 0.511900
C139 C 0.454700 0.101330 0.595850
C140 C 0.333300 0.132990 0.624600
H141 H 0.277400 0.167000 0.594600
C142 C 0.292000 0.115880 0.696360
H143 H 0.208700 0.137700 0.715300
Br144 Br 0.320460 0.045010 0.838375
C145 C 0.373900 0.066770 0.739310
C146 C 0.495100 0.034720 0.712880
H147 H 0.550600 0.001100 0.743400
C148 C 0.535200 0.051970 0.641470
H149 H 0.618800 0.029900 0.623100
C150 C 0.496300 0.212210 0.501370
C151 C 0.428100 0.242050 0.439800
H152 H 0.382900 0.204900 0.407800
C153 C 0.424600 0.323910 0.424110
H154 H 0.376300 0.343300 0.382100
Br155 Br 0.490530 0.491537 0.448028
C156 C 0.492000 0.377900 0.469990
C157 C 0.559800 0.351030 0.531800
H158 H 0.605500 0.388800 0.563100
C159 C 0.560900 0.268020 0.547970
H160 H 0.606100 0.249100 0.591100
C161 C 0.460100 0.565550 0.029950
C162 C 0.501500 0.622810 -0.019480
C163 C 0.396100 0.585950 0.101960
C164 C 0.289400 0.642410 0.108050
H165 H 0.254800 0.668100 0.064900
C166 C 0.232900 0.661680 0.176060
H167 H 0.160400 0.700400 0.179600
Br168 Br 0.211960 0.653300 0.332309
C169 C 0.282800 0.624090 0.238420
C170 C 0.383900 0.565590 0.234500
H171 H 0.414900 0.538700 0.277800
C172 C 0.440400 0.546220 0.165540
H173 H 0.509700 0.505500 0.162200
C174 C 0.474500 0.476060 0.015590
C175 C 0.362900 0.425160 0.025390
H176 H 0.278200 0.447200 0.042400
C177 C 0.372800 0.341480 0.010630
H178 H 0.295200 0.306900 0.016700
Br179 Br 0.502900 0.197003 -0.035698
C180 C 0.495600 0.310290 -0.012590
C181 C 0.611300 0.358900 -0.020880
H182 H 0.696500 0.335900 -0.036000
C183 C 0.599700 0.442190 -0.006550
H184 H 0.678000 0.476400 -0.011900
C185 C 0.545300 0.601330 -0.095850
C186 C 0.666700 0.632990 -0.124600
H187 H 0.722600 0.667000 -0.094600
C188 C 0.708000 0.615880 -0.196360
H189 H 0.791300 0.637700 -0.215300
Br190 Br 0.679540 0.545010 -0.338375
C191 C 0.626100 0.566770 -0.239310
C192 C 0.504900 0.534720 -0.212880
H193 H 0.449400 0.501100 -0.243400
C194 C 0.464800 0.551970 -0.141470
H195 H 0.381200 0.529900 -0.123100
C196 C 0.503700 0.712210 -0.001370
C197 C 0.571900 0.742050 0.060200
H198 H 0.617100 0.704900 0.092200
C199 C 0.575400 0.823910 0.075890
H200 H 0.623700 0.843300 0.117900
Br201 Br 0.509470 0.991537 0.051972
C202 C 0.508000 0.877900 0.030010
C203 C 0.440200 0.851030 -0.031800
H204 H 0.394500 0.888800 -0.063100
C205 C 0.439100 0.768020 -0.047970
H206 H 0.393900 0.749100 -0.091100
C207 C 0.039900 0.434450 0.529950
C208 C -0.001500 0.377190 0.480520
C209 C 0.103900 0.414050 0.601960
C210 C 0.210600 0.357590 0.608050
H211 H 0.245200 0.331900 0.564900
C212 C 0.267100 0.338320 0.676060
H213 H 0.339600 0.299600 0.679600
Br214 Br 0.288040 0.346700 0.832309
C215 C 0.217200 0.375910 0.738420
C216 C 0.116100 0.434410 0.734500
H217 H 0.085100 0.461300 0.777800
C218 C 0.059600 0.453780 0.665540
H219 H -0.009700 0.494500 0.662200
C220 C 0.025500 0.523940 0.515590
C221 C 0.137100 0.574840 0.525390
H222 H 0.221800 0.552800 0.542400
C223 C 0.127200 0.658520 0.510630
H224 H 0.204800 0.693100 0.516700
Br225 Br -0.002900 0.802997 0.464302
C226 C 0.004400 0.689710 0.487410
C227 C -0.111300 0.641100 0.479120
H228 H -0.196500 0.664100 0.464000
C229 C -0.099700 0.557810 0.493450
H230 H -0.178000 0.523600 0.488100
C231 C -0.045300 0.398670 0.404150
C232 C -0.166700 0.367010 0.375400
H233 H -0.222600 0.333000 0.405400
C234 C -0.208000 0.384120 0.303640
H235 H -0.291300 0.362300 0.284700
Br236 Br -0.179540 0.454990 0.161625
C237 C -0.126100 0.433230 0.260690
C238 C -0.004900 0.465280 0.287120
H239 H 0.050600 0.498900 0.256600
C240 C 0.035200 0.448030 0.358530
H241 H 0.118800 0.470100 0.376900
C242 C -0.003700 0.287790 0.498630
C243 C -0.071900 0.257950 0.560200
H244 H -0.117100 0.295100 0.592200
C245 C -0.075400 0.176090 0.575890
H246 H -0.123700 0.156700 0.617900
Br247 Br -0.009470 0.008463 0.551972
C248 C -0.008000 0.122100 0.530010
C249 C 0.059800 0.148970 0.468200
H250 H 0.105500 0.111200 0.436900
C251 C 0.060900 0.231980 0.452030
H252 H 0.106100 0.250900 0.408900

#END
