./LADBOJ_from_xyz.cif_generated_by_CrystalShift
_symmetry_cell_setting triclinic
_symmetry_space_group_name_H-M 'P 1'
loop_
_symmetry_equiv_pos_site_id
_symmetry_equiv_pos_as_xyz
1 x,y,z
_cell_length_a 12.390300
_cell_length_b 5.687100
_cell_length_c 18.029000
_cell_angle_alpha 90.000000
_cell_angle_beta 90.000000
_cell_angle_gamma 90.000000
_cell_volume 1270.411234
loop_
_atom_site_label
_atom_site_type_symbol
_atom_site_fract_x
_atom_site_fract_y
_atom_site_fract_z
Br1 Br 0.271620 1.140650 0.830808
N2 N 0.178770 0.599600 0.694880
H3 H 0.213000 0.497000 0.670500
C4 C 0.072130 0.633100 0.681980
N5 N 0.020090 0.483900 0.637640
H6 H 0.049000 0.385000 0.623900
H7 H -0.052000 0.503000 0.627800
C8 C 0.021280 0.825600 0.716640
H9 H -0.053600 0.852000 0.708900
C10 C 0.077990 0.973600 0.760990
H11 H 0.043300 1.103500 0.784000
C12 C 0.188830 0.932400 0.772580
C13 C 0.236910 0.743900 0.739620
H14 H 0.311300 0.713400 0.748000
Br15 Br 0.728380 -0.140650 0.330808
N16 N 0.821230 0.400400 0.194880
H17 H 0.787000 0.503000 0.170500
C18 C 0.927870 0.366900 0.181980
N19 N 0.979910 0.516100 0.137640
H20 H 0.951000 0.615000 0.123900
H21 H 1.052000 0.497000 0.127800
C22 C 0.978720 0.174400 0.216640
H23 H 1.053600 0.148000 0.208900
C24 C 0.922010 0.026400 0.260990
H25 H 0.956700 -0.103500 0.284000
C26 C 0.811170 0.067600 0.272580
C27 C 0.763090 0.256100 0.239620
H28 H 0.688700 0.286600 0.248000
Br29 Br 0.771620 -0.140650 0.830808
N30 N 0.678770 0.400400 0.694880
H31 H 0.713000 0.503000 0.670500
C32 C 0.572130 0.366900 0.681980
N33 N 0.520090 0.516100 0.637640
H34 H 0.549000 0.615000 0.623900
H35 H 0.448000 0.497000 0.627800
C36 C 0.521280 0.174400 0.716640
H37 H 0.446400 0.148000 0.708900
C38 C 0.577990 0.026400 0.760990
H39 H 0.543300 -0.103500 0.784000
C40 C 0.688830 0.067600 0.772580
C41 C 0.736910 0.256100 0.739620
H42 H 0.811300 0.286600 0.748000
Br43 Br 0.228380 1.140650 0.330808
N44 N 0.321230 0.599600 0.194880
H45 H 0.287000 0.497000 0.170500
C46 C 0.427870 0.633100 0.181980
N47 N 0.479910 0.483900 0.137640
H48 H 0.451000 0.385000 0.123900
H49 H 0.552000 0.503000 0.127800
C50 C 0.478720 0.825600 0.216640
H51 H 0.553600 0.852000 0.208900
C52 C 0.422010 0.973600 0.260990
H53 H 0.456700 1.103500 0.284000
C54 C 0.311170 0.932400 0.272580
C55 C 0.263090 0.743900 0.239620
H56 H 0.188700 0.713400 0.248000
C57 C 0.317050 0.983200 0.537870
C58 C 0.251700 1.143900 0.588230
O59 O 0.303500 1.304000 0.622860
O60 O 0.153470 1.110900 0.591070
C61 C 0.269700 0.779100 0.509850
H62 H 0.197500 0.741300 0.523000
C63 C 0.326700 0.630800 0.463090
H64 H 0.294400 0.491300 0.444500
C65 C 0.432700 0.689800 0.443590
C66 C 0.480540 0.893700 0.469890
H67 H 0.551800 0.934400 0.455300
C68 C 0.422950 1.038300 0.518010
H69 H 0.456000 1.175700 0.537500
C70 C 0.493960 0.536300 0.395590
N71 N 0.545240 0.418500 0.357740
C72 C 0.682950 0.016800 1.037870
C73 C 0.748300 -0.143900 1.088230
O74 O 0.696500 -0.304000 1.122860
O75 O 0.846530 -0.110900 1.091070
C76 C 0.730300 0.220900 1.009850
H77 H 0.802500 0.258700 1.023000
C78 C 0.673300 0.369200 0.963090
H79 H 0.705600 0.508700 0.944500
C80 C 0.567300 0.310200 0.943590
C81 C 0.519460 0.106300 0.969890
H82 H 0.448200 0.065600 0.955300
C83 C 0.577050 -0.038300 1.018010
H84 H 0.544000 -0.175700 1.037500
C85 C 0.506040 0.463700 0.895590
N86 N 0.454760 0.581500 0.857740
C87 C 0.817050 0.016800 0.537870
C88 C 0.751700 -0.143900 0.588230
O89 O 0.803500 -0.304000 0.622860
O90 O 0.653470 -0.110900 0.591070
C91 C 0.769700 0.220900 0.509850
H92 H 0.697500 0.258700 0.523000
C93 C 0.826700 0.369200 0.463090
H94 H 0.794400 0.508700 0.444500
C95 C 0.932700 0.310200 0.443590
C96 C 0.980540 0.106300 0.469890
H97 H 1.051800 0.065600 0.455300
C98 C 0.922950 -0.038300 0.518010
H99 H 0.956000 -0.175700 0.537500
C100 C 0.993960 0.463700 0.395590
N101 N 1.045240 0.581500 0.357740
C102 C 0.182950 0.983200 1.037870
C103 C 0.248300 1.143900 1.088230
O104 O 0.196500 1.304000 1.122860
O105 O 0.346530 1.110900 1.091070
C106 C 0.230300 0.779100 1.009850
H107 H 0.302500 0.741300 1.023000
C108 C 0.173300 0.630800 0.963090
H109 H 0.205600 0.491300 0.944500
C110 C 0.067300 0.689800 0.943590
C111 C 0.019460 0.893700 0.969890
H112 H -0.051800 0.934400 0.955300
C113 C 0.077050 1.038300 1.018010
H114 H 0.044000 1.175700 1.037500
C115 C 0.006040 0.536300 0.895590
N116 N -0.045240 0.418500 0.857740

#END
