
#######################################################################
#
#                 Cambridge Crystallographic Data Centre
#                                CCDC 
#
#######################################################################
#
# If this CIF has been generated from an entry in the Cambridge 
# Structural Database, then it will include bibliographic, chemical, 
# crystal, experimental, refinement or atomic coordinate data resulting 
# from the CCDC's data processing and validation procedures.
#
#######################################################################

data_LADBAW
_symmetry_cell_setting           orthorhombic
_symmetry_space_group_name_H-M   'P 21 21 21'
_symmetry_Int_Tables_number      19
_space_group_name_Hall           'P 2ac 2ab'
loop_
_symmetry_equiv_pos_site_id
_symmetry_equiv_pos_as_xyz
1 x,y,z
2 1/2-x,-y,1/2+z
3 1/2+x,1/2-y,-z
4 -x,1/2+y,1/2-z
_cell_length_a                   9.846(2)
_cell_length_b                   16.366(3)
_cell_length_c                   17.646(4)
_cell_angle_alpha                90
_cell_angle_beta                 90
_cell_angle_gamma                90
_cell_volume                     2843.47
loop_
_atom_site_label
_atom_site_type_symbol
_atom_site_fract_x
_atom_site_fract_y
_atom_site_fract_z
C1 C 0.4586(3) 0.43782(18) 0.97235(16)
C2 C 0.5001(3) 0.37841(16) 1.02100(15)
C3 C 0.5506(3) 0.39694(18) 1.09942(16)
C4 C 0.4773(3) 0.44649(17) 1.14865(16)
H1 H 0.3941 0.4700 1.1323
C5 C 0.5247(4) 0.46204(19) 1.22175(17)
H2 H 0.4741 0.4957 1.2553
Br1 Br 0.70865(4) 0.44667(3) 1.344916(18)
C6 C 0.6458(3) 0.4279(2) 1.24459(17)
C7 C 0.7196(4) 0.3788(2) 1.19698(17)
H3 H 0.8031 0.3558 1.2136
C8 C 0.6719(3) 0.36278(19) 1.12435(17)
H4 H 0.7225 0.3283 1.0915
C9 C 0.4993(3) 0.28997(16) 1.00089(15)
C10 C 0.4392(3) 0.23328(18) 1.04957(17)
H5 H 0.3974 0.2517 1.0950
C11 C 0.4394(3) 0.15036(19) 1.03278(17)
H6 H 0.3971 0.1124 1.0660
Br2 Br 0.50644(5) 0.01026(2) 0.94595(2)
C12 C 0.5014(3) 0.12397(17) 0.96757(17)
C13 C 0.5631(3) 0.1785(2) 0.91835(17)
H7 H 0.6062 0.1594 0.8736
C14 C 0.5613(3) 0.26080(19) 0.93512(17)
H8 H 0.6030 0.2983 0.9013
C15 C 0.3887(3) 0.41843(18) 0.89930(16)
C16 C 0.4291(3) 0.45606(18) 0.83273(17)
H9 H 0.5000 0.4954 0.8343
C17 C 0.3688(3) 0.4377(2) 0.76384(17)
H10 H 0.3976 0.4640 0.7186
Br3 Br 0.19047(4) 0.34885(2) 0.667406(18)
C18 C 0.2654(3) 0.3802(2) 0.76239(17)
C19 C 0.2184(3) 0.34456(19) 0.82755(17)
H11 H 0.1444 0.3073 0.8260
C20 C 0.2806(3) 0.36375(19) 0.89621(16)
H12 H 0.2488 0.3391 0.9416
C21 C 0.4777(3) 0.52705(17) 0.98713(15)
C22 C 0.5992(3) 0.55900(19) 1.01379(16)
H13 H 0.6730 0.5232 1.0239
C23 C 0.6149(3) 0.64207(19) 1.02592(17)
H14 H 0.6985 0.6633 1.0443
Br4 Br 0.51918(4) 0.80794(2) 1.02846(2)
C24 C 0.5067(3) 0.69352(17) 1.01085(16)
C25 C 0.3864(3) 0.66438(19) 0.98376(17)
H15 H 0.3136 0.7007 0.9732
C26 C 0.3714(3) 0.58085(19) 0.97176(17)
H16 H 0.2878 0.5603 0.9529
C1 C 0.0414(3) 0.56218(18) 0.47235(16)
C2 C -0.0001(3) 0.62159(16) 0.52100(15)
C3 C -0.0506(3) 0.60306(18) 0.59942(16)
C4 C 0.0227(3) 0.55351(17) 0.64865(16)
H1 H 0.1059 0.5300 0.6323
C5 C -0.0247(4) 0.53796(19) 0.72175(17)
H2 H 0.0259 0.5043 0.7553
Br1 Br -0.20865(4) 0.55333(3) 0.844916(18)
C6 C -0.1458(3) 0.5721(2) 0.74459(17)
C7 C -0.2196(4) 0.6212(2) 0.69698(17)
H3 H -0.3031 0.6442 0.7136
C8 C -0.1719(3) 0.63722(19) 0.62435(17)
H4 H -0.2225 0.6717 0.5915
C9 C 0.0007(3) 0.71003(16) 0.50089(15)
C10 C 0.0608(3) 0.76672(18) 0.54957(17)
H5 H 0.1026 0.7483 0.5950
C11 C 0.0606(3) 0.84964(19) 0.53278(17)
H6 H 0.1029 0.8876 0.5660
Br2 Br -0.00644(5) 0.98974(2) 0.44595(2)
C12 C -0.0014(3) 0.87603(17) 0.46757(17)
C13 C -0.0631(3) 0.8215(2) 0.41835(17)
H7 H -0.1062 0.8406 0.3736
C14 C -0.0613(3) 0.73920(19) 0.43512(17)
H8 H -0.1030 0.7017 0.4013
C15 C 0.1113(3) 0.58157(18) 0.39930(16)
C16 C 0.0709(3) 0.54394(18) 0.33273(17)
H9 H 0.0000 0.5046 0.3343
C17 C 0.1312(3) 0.5623(2) 0.26384(17)
H10 H 0.1024 0.5360 0.2186
Br3 Br 0.30953(4) 0.65115(2) 0.167406(18)
C18 C 0.2346(3) 0.6198(2) 0.26239(17)
C19 C 0.2816(3) 0.65544(19) 0.32755(17)
H11 H 0.3556 0.6927 0.3260
C20 C 0.2194(3) 0.63625(19) 0.39621(16)
H12 H 0.2512 0.6609 0.4416
C21 C 0.0223(3) 0.47295(17) 0.48713(15)
C22 C -0.0992(3) 0.44100(19) 0.51379(16)
H13 H -0.1730 0.4768 0.5239
C23 C -0.1149(3) 0.35793(19) 0.52592(17)
H14 H -0.1985 0.3367 0.5443
Br4 Br -0.01918(4) 0.19206(2) 0.52846(2)
C24 C -0.0067(3) 0.30648(17) 0.51085(16)
C25 C 0.1136(3) 0.33562(19) 0.48376(17)
H15 H 0.1864 0.2993 0.4732
C26 C 0.1286(3) 0.41915(19) 0.47176(17)
H16 H 0.2122 0.4397 0.4529
C1 C 0.9586(3) 0.06218(18) 0.02765(16)
C2 C 1.0001(3) 0.12159(16) -0.02100(15)
C3 C 1.0506(3) 0.10306(18) -0.09942(16)
C4 C 0.9773(3) 0.05351(17) -0.14865(16)
H1 H 0.8941 0.0300 -0.1323
C5 C 1.0247(4) 0.03796(19) -0.22175(17)
H2 H 0.9741 0.0043 -0.2553
Br1 Br 1.20865(4) 0.05333(3) -0.344916(18)
C6 C 1.1458(3) 0.0721(2) -0.24459(17)
C7 C 1.2196(4) 0.1212(2) -0.19698(17)
H3 H 1.3031 0.1442 -0.2136
C8 C 1.1719(3) 0.13722(19) -0.12435(17)
H4 H 1.2225 0.1717 -0.0915
C9 C 0.9993(3) 0.21003(16) -0.00089(15)
C10 C 0.9392(3) 0.26672(18) -0.04957(17)
H5 H 0.8974 0.2483 -0.0950
C11 C 0.9394(3) 0.34964(19) -0.03278(17)
H6 H 0.8971 0.3876 -0.0660
Br2 Br 1.00644(5) 0.48974(2) 0.05405(2)
C12 C 1.0014(3) 0.37603(17) 0.03243(17)
C13 C 1.0631(3) 0.3215(2) 0.08165(17)
H7 H 1.1062 0.3406 0.1264
C14 C 1.0613(3) 0.23920(19) 0.06488(17)
H8 H 1.1030 0.2017 0.0987
C15 C 0.8887(3) 0.08157(18) 0.10070(16)
C16 C 0.9291(3) 0.04394(18) 0.16727(17)
H9 H 1.0000 0.0046 0.1657
C17 C 0.8688(3) 0.0623(2) 0.23616(17)
H10 H 0.8976 0.0360 0.2814
Br3 Br 0.69047(4) 0.15115(2) 0.332594(18)
C18 C 0.7654(3) 0.1198(2) 0.23761(17)
C19 C 0.7184(3) 0.15544(19) 0.17245(17)
H11 H 0.6444 0.1927 0.1740
C20 C 0.7806(3) 0.13625(19) 0.10379(16)
H12 H 0.7488 0.1609 0.0584
C21 C 0.9777(3) -0.02705(17) 0.01287(15)
C22 C 1.0992(3) -0.05900(19) -0.01379(16)
H13 H 1.1730 -0.0232 -0.0239
C23 C 1.1149(3) -0.14207(19) -0.02592(17)
H14 H 1.1985 -0.1633 -0.0443
Br4 Br 1.01918(4) -0.30794(2) -0.02846(2)
C24 C 1.0067(3) -0.19352(17) -0.01085(16)
C25 C 0.8864(3) -0.16438(19) 0.01624(17)
H15 H 0.8136 -0.2007 0.0268
C26 C 0.8714(3) -0.08085(19) 0.02824(17)
H16 H 0.7878 -0.0603 0.0471
C1 C 0.5414(3) 0.93782(18) 0.52765(16)
C2 C 0.4999(3) 0.87841(16) 0.47900(15)
C3 C 0.4494(3) 0.89694(18) 0.40058(16)
C4 C 0.5227(3) 0.94649(17) 0.35135(16)
H1 H 0.6059 0.9700 0.3677
C5 C 0.4753(4) 0.96204(19) 0.27825(17)
H2 H 0.5259 0.9957 0.2447
Br1 Br 0.29135(4) 0.94667(3) 0.155084(18)
C6 C 0.3542(3) 0.9279(2) 0.25541(17)
C7 C 0.2804(4) 0.8788(2) 0.30302(17)
H3 H 0.1969 0.8558 0.2864
C8 C 0.3281(3) 0.86278(19) 0.37565(17)
H4 H 0.2775 0.8283 0.4085
C9 C 0.5007(3) 0.78997(16) 0.49911(15)
C10 C 0.5608(3) 0.73328(18) 0.45043(17)
H5 H 0.6026 0.7517 0.4050
C11 C 0.5606(3) 0.65036(19) 0.46722(17)
H6 H 0.6029 0.6124 0.4340
Br2 Br 0.49356(5) 0.51026(2) 0.55405(2)
C12 C 0.4986(3) 0.62397(17) 0.53243(17)
C13 C 0.4369(3) 0.6785(2) 0.58165(17)
H7 H 0.3938 0.6594 0.6264
C14 C 0.4387(3) 0.76080(19) 0.56488(17)
H8 H 0.3970 0.7983 0.5987
C15 C 0.6113(3) 0.91843(18) 0.60070(16)
C16 C 0.5709(3) 0.95606(18) 0.66727(17)
H9 H 0.5000 0.9954 0.6657
C17 C 0.6312(3) 0.9377(2) 0.73616(17)
H10 H 0.6024 0.9640 0.7814
Br3 Br 0.80953(4) 0.84885(2) 0.832594(18)
C18 C 0.7346(3) 0.8802(2) 0.73761(17)
C19 C 0.7816(3) 0.84456(19) 0.67245(17)
H11 H 0.8556 0.8073 0.6740
C20 C 0.7194(3) 0.86375(19) 0.60379(16)
H12 H 0.7512 0.8391 0.5584
C21 C 0.5223(3) 1.02705(17) 0.51287(15)
C22 C 0.4008(3) 1.05900(19) 0.48621(16)
H13 H 0.3270 1.0232 0.4761
C23 C 0.3851(3) 1.14207(19) 0.47408(17)
H14 H 0.3015 1.1633 0.4557
Br4 Br 0.48082(4) 1.30794(2) 0.47154(2)
C24 C 0.4933(3) 1.19352(17) 0.48915(16)
C25 C 0.6136(3) 1.16438(19) 0.51624(17)
H15 H 0.6864 1.2007 0.5268
C26 C 0.6286(3) 1.08085(19) 0.52824(17)
H16 H 0.7122 1.0603 0.5471
C27 C 0.3169(4) 0.1878(3) 0.2655(2)
H17 H 0.3860 0.1490 0.2546
C28 C 0.1880(5) 0.1617(3) 0.2826(3)
H18 H 0.1674 0.1050 0.2836
C29 C 0.0880(5) 0.2192(4) 0.2985(3)
H19 H -0.0011 0.2018 0.3113
C30 C 0.1174(4) 0.3004(3) 0.2957(2)
H20 H 0.0483 0.3396 0.3055
C31 C 0.2454(5) 0.3256(3) 0.2789(2)
H21 H 0.2656 0.3823 0.2775
C32 C 0.3460(5) 0.2695(3) 0.2640(2)
H22 H 0.4355 0.2875 0.2527
C27 C 0.1831(4) 0.8122(3) 0.7655(2)
H17 H 0.1140 0.8510 0.7546
C28 C 0.3120(5) 0.8383(3) 0.7826(3)
H18 H 0.3326 0.8950 0.7836
C29 C 0.4120(5) 0.7808(4) 0.7985(3)
H19 H 0.5011 0.7982 0.8113
C30 C 0.3826(4) 0.6996(3) 0.7957(2)
H20 H 0.4517 0.6604 0.8055
C31 C 0.2546(5) 0.6744(3) 0.7789(2)
H21 H 0.2344 0.6177 0.7775
C32 C 0.1540(5) 0.7305(3) 0.7640(2)
H22 H 0.0645 0.7125 0.7527
C27 C 0.8169(4) 0.3122(3) 0.7345(2)
H17 H 0.8860 0.3510 0.7454
C28 C 0.6880(5) 0.3383(3) 0.7174(3)
H18 H 0.6674 0.3950 0.7164
C29 C 0.5880(5) 0.2808(4) 0.7015(3)
H19 H 0.4989 0.2982 0.6887
C30 C 0.6174(4) 0.1996(3) 0.7043(2)
H20 H 0.5483 0.1604 0.6945
C31 C 0.7454(5) 0.1744(3) 0.7211(2)
H21 H 0.7656 0.1177 0.7225
C32 C 0.8460(5) 0.2305(3) 0.7360(2)
H22 H 0.9355 0.2125 0.7473
C27 C 0.6831(4) 0.6878(3) 0.2345(2)
H17 H 0.6140 0.6490 0.2454
C28 C 0.8120(5) 0.6617(3) 0.2174(3)
H18 H 0.8326 0.6050 0.2164
C29 C 0.9120(5) 0.7192(4) 0.2015(3)
H19 H 1.0011 0.7018 0.1887
C30 C 0.8826(4) 0.8004(3) 0.2043(2)
H20 H 0.9517 0.8396 0.1945
C31 C 0.7546(5) 0.8256(3) 0.2211(2)
H21 H 0.7344 0.8823 0.2225
C32 C 0.6540(5) 0.7695(3) 0.2360(2)
H22 H 0.5645 0.7875 0.2473

#END
