./LADBEX01_from_xyz.cif_generated_by_CrystalShift
_symmetry_cell_setting triclinic
_symmetry_space_group_name_H-M 'P 1'
loop_
_symmetry_equiv_pos_site_id
_symmetry_equiv_pos_as_xyz
1 x,y,z
_cell_length_a 9.771800
_cell_length_b 9.820800
_cell_length_c 13.302200
_cell_angle_alpha 88.134000
_cell_angle_beta 78.308000
_cell_angle_gamma 86.384000
_cell_volume 1247.339080
loop_
_atom_site_label
_atom_site_type_symbol
_atom_site_fract_x
_atom_site_fract_y
_atom_site_fract_z
Br1 Br 0.929080 -0.122970 0.415100
C2 C 0.717800 0.082800 0.372200
C3 C 0.773300 0.002000 0.444100
C4 C 0.693800 0.035400 0.541000
N5 N 0.594800 0.131800 0.527200
N6 N 0.609700 0.158400 0.425050
H7 H 0.553000 0.222000 0.406000
C8 C 0.757100 0.098400 0.259500
C9 C 0.652700 0.128900 0.203200
H10 H 0.557200 0.134800 0.237200
C11 C 0.687700 0.150700 0.098000
H12 H 0.616100 0.172300 0.060200
C13 C 0.826400 0.141000 0.047400
H14 H 0.850000 0.154400 -0.024900
C15 C 0.930700 0.111700 0.102900
H16 H 1.026000 0.106000 0.068400
C17 C 0.896700 0.090600 0.208600
H18 H 0.968700 0.070800 0.246200
C19 C 0.701400 -0.012400 0.646200
C20 C 0.658400 0.078200 0.727000
H21 H 0.629800 0.169900 0.713200
C22 C 0.657500 0.034400 0.827600
H23 H 0.626900 0.095800 0.882500
C24 C 0.701400 -0.099600 0.847900
H25 H 0.700300 -0.129900 0.916600
C26 C 0.746500 -0.187900 0.768300
H27 H 0.777800 -0.278800 0.782200
C28 C 0.746600 -0.145300 0.667600
H29 H 0.777600 -0.207200 0.613100
Br30 Br 0.070920 1.122970 0.584900
C31 C 0.282200 0.917200 0.627800
C32 C 0.226700 0.998000 0.555900
C33 C 0.306200 0.964600 0.459000
N34 N 0.405200 0.868200 0.472800
N35 N 0.390300 0.841600 0.574950
H36 H 0.447000 0.778000 0.594000
C37 C 0.242900 0.901600 0.740500
C38 C 0.347300 0.871100 0.796800
H39 H 0.442800 0.865200 0.762800
C40 C 0.312300 0.849300 0.902000
H41 H 0.383900 0.827700 0.939800
C42 C 0.173600 0.859000 0.952600
H43 H 0.150000 0.845600 1.024900
C44 C 0.069300 0.888300 0.897100
H45 H -0.026000 0.894000 0.931600
C46 C 0.103300 0.909400 0.791400
H47 H 0.031300 0.929200 0.753800
C48 C 0.298600 1.012400 0.353800
C49 C 0.341600 0.921800 0.273000
H50 H 0.370200 0.830100 0.286800
C51 C 0.342500 0.965600 0.172400
H52 H 0.373100 0.904200 0.117500
C53 C 0.298600 1.099600 0.152100
H54 H 0.299700 1.129900 0.083400
C55 C 0.253500 1.187900 0.231700
H56 H 0.222200 1.278800 0.217800
C57 C 0.253400 1.145300 0.332400
H58 H 0.222400 1.207200 0.386900
Br59 Br 0.088560 0.650890 0.572470
C60 C 0.278300 0.424000 0.616300
C61 C 0.229800 0.510800 0.544200
C62 C 0.307800 0.475200 0.447400
N63 N 0.401000 0.371900 0.461450
N64 N 0.380800 0.342300 0.563600
H65 H 0.433000 0.275000 0.583000
C66 C 0.236100 0.405400 0.729300
C67 C 0.188700 0.514700 0.793500
H68 H 0.178200 0.604000 0.765400
C69 C 0.156700 0.491900 0.899700
H70 H 0.123700 0.566300 0.943700
C71 C 0.172300 0.362600 0.941700
H72 H 0.150100 0.348000 1.013900
C73 C 0.220700 0.254700 0.877200
H74 H 0.232400 0.165700 0.905600
C75 C 0.252200 0.275100 0.771700
H76 H 0.284900 0.200100 0.728200
C77 C 0.304100 0.522800 0.342100
C78 C 0.181000 0.578400 0.313900
H79 H 0.097900 0.592200 0.364600
C80 C 0.180600 0.613100 0.211600
H81 H 0.097000 0.650100 0.192700
C82 C 0.301200 0.594100 0.137100
H83 H 0.299800 0.617500 0.067400
C84 C 0.423400 0.541200 0.163700
H85 H 0.506400 0.529300 0.112600
C86 C 0.424800 0.505200 0.265600
H87 H 0.509100 0.468100 0.283400
Br88 Br 0.911440 0.349110 0.427530
C89 C 0.721700 0.576000 0.383700
C90 C 0.770200 0.489200 0.455800
C91 C 0.692200 0.524800 0.552600
N92 N 0.599000 0.628100 0.538550
N93 N 0.619200 0.657700 0.436400
H94 H 0.567000 0.725000 0.417000
C95 C 0.763900 0.594600 0.270700
C96 C 0.811300 0.485300 0.206500
H97 H 0.821800 0.396000 0.234600
C98 C 0.843300 0.508100 0.100300
H99 H 0.876300 0.433700 0.056300
C100 C 0.827700 0.637400 0.058300
H101 H 0.849900 0.652000 -0.013900
C102 C 0.779300 0.745300 0.122800
H103 H 0.767600 0.834300 0.094400
C104 C 0.747800 0.724900 0.228300
H105 H 0.715100 0.799900 0.271800
C106 C 0.695900 0.477200 0.657900
C107 C 0.819000 0.421600 0.686100
H108 H 0.902100 0.407800 0.635400
C109 C 0.819400 0.386900 0.788400
H110 H 0.903000 0.349900 0.807300
C111 C 0.698800 0.405900 0.862900
H112 H 0.700200 0.382500 0.932600
C113 C 0.576600 0.458800 0.836300
H114 H 0.493600 0.470700 0.887400
C115 C 0.575200 0.494800 0.734400
H116 H 0.490900 0.531900 0.716600

#END
