
#######################################################################
#
#                 Cambridge Crystallographic Data Centre
#                                CCDC 
#
#######################################################################
#
# If this CIF has been generated from an entry in the Cambridge 
# Structural Database, then it will include bibliographic, chemical, 
# crystal, experimental, refinement or atomic coordinate data resulting 
# from the CCDC's data processing and validation procedures.
#
#######################################################################

data_LADBEX01
_symmetry_cell_setting           triclinic
_symmetry_space_group_name_H-M   'P -1'
_symmetry_Int_Tables_number      2
_space_group_name_Hall           '-P 1'
loop_
_symmetry_equiv_pos_site_id
_symmetry_equiv_pos_as_xyz
1 x,y,z
2 -x,-y,-z
_cell_length_a                   9.7718(7)
_cell_length_b                   9.8208(8)
_cell_length_c                   13.3022(10)
_cell_angle_alpha                88.134(6)
_cell_angle_beta                 78.308(6)
_cell_angle_gamma                86.384(6)
_cell_volume                     1247.34
loop_
_atom_site_label
_atom_site_type_symbol
_atom_site_fract_x
_atom_site_fract_y
_atom_site_fract_z
Br1 Br 0.92908(3) -0.12297(3) 0.41510(2)
C1 C 0.7178(3) 0.0828(3) 0.3722(2)
C2 C 0.7733(3) 0.0020(3) 0.4441(2)
C3 C 0.6938(3) 0.0354(3) 0.5410(2)
N1 N 0.5948(3) 0.1318(3) 0.5272(2)
N2 N 0.6097(3) 0.1584(3) 0.42505(19)
H1 H 0.553(3) 0.222(3) 0.406(3)
C4 C 0.7571(3) 0.0984(3) 0.2595(2)
C5 C 0.6527(3) 0.1289(3) 0.2032(2)
H2 H 0.5572 0.1348 0.2372
C6 C 0.6877(4) 0.1507(4) 0.0980(2)
H3 H 0.6161 0.1723 0.0602
C7 C 0.8264(4) 0.1410(4) 0.0474(2)
H4 H 0.8500 0.1544 -0.0249
C8 C 0.9307(3) 0.1117(3) 0.1029(2)
H5 H 1.0260 0.1060 0.0684
C9 C 0.8967(3) 0.0906(3) 0.2086(2)
H6 H 0.9687 0.0708 0.2462
C10 C 0.7014(3) -0.0124(3) 0.6462(2)
C11 C 0.6584(3) 0.0782(3) 0.7270(2)
H7 H 0.6298 0.1699 0.7132
C12 C 0.6575(4) 0.0344(4) 0.8276(2)
H8 H 0.6269 0.0958 0.8825
C13 C 0.7014(4) -0.0996(4) 0.8479(3)
H9 H 0.7003 -0.1299 0.9166
C14 C 0.7465(3) -0.1879(3) 0.7683(2)
H10 H 0.7778 -0.2788 0.7822
C15 C 0.7466(3) -0.1453(3) 0.6676(2)
H11 H 0.7776 -0.2072 0.6131
Br1 Br 0.07092(3) 1.12297(3) 0.58490(2)
C1 C 0.2822(3) 0.9172(3) 0.6278(2)
C2 C 0.2267(3) 0.9980(3) 0.5559(2)
C3 C 0.3062(3) 0.9646(3) 0.4590(2)
N1 N 0.4052(3) 0.8682(3) 0.4728(2)
N2 N 0.3903(3) 0.8416(3) 0.57495(19)
H1 H 0.447(3) 0.778(3) 0.594(3)
C4 C 0.2429(3) 0.9016(3) 0.7405(2)
C5 C 0.3473(3) 0.8711(3) 0.7968(2)
H2 H 0.4428 0.8652 0.7628
C6 C 0.3123(4) 0.8493(4) 0.9020(2)
H3 H 0.3839 0.8277 0.9398
C7 C 0.1736(4) 0.8590(4) 0.9526(2)
H4 H 0.1500 0.8456 1.0249
C8 C 0.0693(3) 0.8883(3) 0.8971(2)
H5 H -0.0260 0.8940 0.9316
C9 C 0.1033(3) 0.9094(3) 0.7914(2)
H6 H 0.0313 0.9292 0.7538
C10 C 0.2986(3) 1.0124(3) 0.3538(2)
C11 C 0.3416(3) 0.9218(3) 0.2730(2)
H7 H 0.3702 0.8301 0.2868
C12 C 0.3425(4) 0.9656(4) 0.1724(2)
H8 H 0.3731 0.9042 0.1175
C13 C 0.2986(4) 1.0996(4) 0.1521(3)
H9 H 0.2997 1.1299 0.0834
C14 C 0.2535(3) 1.1879(3) 0.2317(2)
H10 H 0.2222 1.2788 0.2178
C15 C 0.2534(3) 1.1453(3) 0.3324(2)
H11 H 0.2224 1.2072 0.3869
Br2 Br 0.08856(3) 0.65089(3) 0.57247(2)
C16 C 0.2783(3) 0.4240(3) 0.6163(2)
C17 C 0.2298(3) 0.5108(3) 0.5442(2)
C18 C 0.3078(3) 0.4752(3) 0.4474(2)
N3 N 0.4010(3) 0.3719(3) 0.46145(19)
N4 N 0.3808(3) 0.3423(3) 0.5636(2)
H12 H 0.433(3) 0.275(3) 0.583(3)
C19 C 0.2361(3) 0.4054(3) 0.7293(2)
C20 C 0.1887(3) 0.5147(3) 0.7935(2)
H13 H 0.1782 0.6040 0.7654
C21 C 0.1567(3) 0.4919(3) 0.8997(2)
H14 H 0.1237 0.5663 0.9437
C22 C 0.1723(4) 0.3626(4) 0.9417(2)
H15 H 0.1501 0.3480 1.0139
C23 C 0.2207(4) 0.2547(3) 0.8772(2)
H16 H 0.2324 0.1657 0.9056
C24 C 0.2522(3) 0.2751(3) 0.7717(2)
H17 H 0.2849 0.2001 0.7282
C25 C 0.3041(3) 0.5228(3) 0.3421(2)
C26 C 0.1810(3) 0.5784(3) 0.3139(2)
H18 H 0.0979 0.5922 0.3646
C27 C 0.1806(4) 0.6131(4) 0.2116(3)
H19 H 0.0970 0.6501 0.1927
C28 C 0.3012(4) 0.5941(4) 0.1371(3)
H20 H 0.2998 0.6175 0.0674
C29 C 0.4234(4) 0.5412(4) 0.1637(2)
H21 H 0.5064 0.5293 0.1126
C30 C 0.4248(3) 0.5052(4) 0.2656(2)
H22 H 0.5091 0.4681 0.2834
Br2 Br 0.91144(3) 0.34911(3) 0.42753(2)
C16 C 0.7217(3) 0.5760(3) 0.3837(2)
C17 C 0.7702(3) 0.4892(3) 0.4558(2)
C18 C 0.6922(3) 0.5248(3) 0.5526(2)
N3 N 0.5990(3) 0.6281(3) 0.53855(19)
N4 N 0.6192(3) 0.6577(3) 0.4364(2)
H12 H 0.567(3) 0.725(3) 0.417(3)
C19 C 0.7639(3) 0.5946(3) 0.2707(2)
C20 C 0.8113(3) 0.4853(3) 0.2065(2)
H13 H 0.8218 0.3960 0.2346
C21 C 0.8433(3) 0.5081(3) 0.1003(2)
H14 H 0.8763 0.4337 0.0563
C22 C 0.8277(4) 0.6374(4) 0.0583(2)
H15 H 0.8499 0.6520 -0.0139
C23 C 0.7793(4) 0.7453(3) 0.1228(2)
H16 H 0.7676 0.8343 0.0944
C24 C 0.7478(3) 0.7249(3) 0.2283(2)
H17 H 0.7151 0.7999 0.2718
C25 C 0.6959(3) 0.4772(3) 0.6579(2)
C26 C 0.8190(3) 0.4216(3) 0.6861(2)
H18 H 0.9021 0.4078 0.6354
C27 C 0.8194(4) 0.3869(4) 0.7884(3)
H19 H 0.9030 0.3499 0.8073
C28 C 0.6988(4) 0.4059(4) 0.8629(3)
H20 H 0.7002 0.3825 0.9326
C29 C 0.5766(4) 0.4588(4) 0.8363(2)
H21 H 0.4936 0.4707 0.8874
C30 C 0.5752(3) 0.4948(4) 0.7344(2)
H22 H 0.4909 0.5319 0.7166

#END
