
#######################################################################
#
#                 Cambridge Crystallographic Data Centre
#                                CCDC 
#
#######################################################################
#
# If this CIF has been generated from an entry in the Cambridge 
# Structural Database, then it will include bibliographic, chemical, 
# crystal, experimental, refinement or atomic coordinate data resulting 
# from the CCDC's data processing and validation procedures.
#
#######################################################################

data_LADBIE
_symmetry_cell_setting           orthorhombic
_symmetry_space_group_name_H-M   'P 21 21 21'
_symmetry_Int_Tables_number      19
_space_group_name_Hall           'P 2ac 2ab'
loop_
_symmetry_equiv_pos_site_id
_symmetry_equiv_pos_as_xyz
1 x,y,z
2 1/2-x,-y,1/2+z
3 1/2+x,1/2-y,-z
4 -x,1/2+y,1/2-z
_cell_length_a                   9.7255(19)
_cell_length_b                   16.372(3)
_cell_length_c                   18.148(4)
_cell_angle_alpha                90
_cell_angle_beta                 90
_cell_angle_gamma                90
_cell_volume                     2889.63
loop_
_atom_site_label
_atom_site_type_symbol
_atom_site_fract_x
_atom_site_fract_y
_atom_site_fract_z
N1 N 0.3042(4) 0.71964(19) 0.77273(16)
H1 H 0.388(4) 0.693(2) 0.778(2)
C1 C 0.3421(4) 0.7965(2) 0.7354(2)
H2 H 0.3906 0.7841 0.6888
H3 H 0.4051 0.8283 0.7672
C2 C 0.2148(4) 0.8462(2) 0.7193(2)
H4 H 0.2407 0.8968 0.6928
H5 H 0.1698 0.8619 0.7661
C3 C 0.1161(4) 0.7970(2) 0.67276(19)
H6 H 0.1576 0.7866 0.6239
H7 H 0.0304 0.8286 0.6653
C4 C 0.0821(4) 0.7158(2) 0.7099(2)
H8 H 0.0313 0.7258 0.7562
H9 H 0.0230 0.6826 0.6770
C5 C 0.2136(4) 0.6701(2) 0.7262(2)
H10 H 0.1918 0.6182 0.7516
H11 H 0.2610 0.6568 0.6794
N1 N 0.1958(4) 0.28036(19) 0.27273(16)
H1 H 0.112(4) 0.307(2) 0.278(2)
C1 C 0.1579(4) 0.2035(2) 0.2354(2)
H2 H 0.1094 0.2159 0.1888
H3 H 0.0949 0.1717 0.2672
C2 C 0.2852(4) 0.1538(2) 0.2193(2)
H4 H 0.2593 0.1032 0.1928
H5 H 0.3302 0.1381 0.2661
C3 C 0.3839(4) 0.2030(2) 0.17276(19)
H6 H 0.3424 0.2134 0.1239
H7 H 0.4696 0.1714 0.1653
C4 C 0.4179(4) 0.2842(2) 0.2099(2)
H8 H 0.4687 0.2742 0.2562
H9 H 0.4770 0.3174 0.1770
C5 C 0.2864(4) 0.3299(2) 0.2262(2)
H10 H 0.3082 0.3818 0.2516
H11 H 0.2390 0.3432 0.1794
N1 N 0.8042(4) 0.78036(19) 0.22727(16)
H1 H 0.888(4) 0.807(2) 0.222(2)
C1 C 0.8421(4) 0.7035(2) 0.2646(2)
H2 H 0.8906 0.7159 0.3112
H3 H 0.9051 0.6717 0.2328
C2 C 0.7148(4) 0.6538(2) 0.2807(2)
H4 H 0.7407 0.6032 0.3072
H5 H 0.6698 0.6381 0.2339
C3 C 0.6161(4) 0.7030(2) 0.32724(19)
H6 H 0.6576 0.7134 0.3761
H7 H 0.5304 0.6714 0.3347
C4 C 0.5821(4) 0.7842(2) 0.2901(2)
H8 H 0.5313 0.7742 0.2438
H9 H 0.5230 0.8174 0.3230
C5 C 0.7136(4) 0.8299(2) 0.2738(2)
H10 H 0.6918 0.8818 0.2484
H11 H 0.7610 0.8432 0.3206
N1 N 0.6958(4) 0.21964(19) 0.72727(16)
H1 H 0.612(4) 0.193(2) 0.722(2)
C1 C 0.6579(4) 0.2965(2) 0.7646(2)
H2 H 0.6094 0.2841 0.8112
H3 H 0.5949 0.3283 0.7328
C2 C 0.7852(4) 0.3462(2) 0.7807(2)
H4 H 0.7593 0.3968 0.8072
H5 H 0.8302 0.3619 0.7339
C3 C 0.8839(4) 0.2970(2) 0.82724(19)
H6 H 0.8424 0.2866 0.8761
H7 H 0.9696 0.3286 0.8347
C4 C 0.9179(4) 0.2158(2) 0.7901(2)
H8 H 0.9687 0.2258 0.7438
H9 H 0.9770 0.1826 0.8230
C5 C 0.7864(4) 0.1701(2) 0.7738(2)
H10 H 0.8082 0.1182 0.7484
H11 H 0.7390 0.1568 0.8206
C6 C 0.9601(3) 0.93445(16) 0.97005(15)
C7 C 1.0015(3) 0.87719(15) 1.01948(14)
C8 C 0.8961(3) 0.91405(15) 0.89804(15)
C9 C 0.7894(3) 0.85759(16) 0.89195(15)
H12 H 0.7548 0.8319 0.9351
C10 C 0.7329(3) 0.83832(17) 0.82394(16)
H13 H 0.6604 0.7996 0.8204
Br1 Br 0.71196(3) 0.84670(2) 0.667691(17)
C11 C 0.7828(3) 0.87591(17) 0.76158(15)
C12 C 0.8839(3) 0.93441(17) 0.76550(16)
H14 H 0.9149 0.9613 0.7222
C13 C 0.9404(3) 0.95378(16) 0.83446(15)
H15 H 1.0097 0.9945 0.8378
C14 C 0.9745(3) 1.02394(16) 0.98441(14)
C15 C 0.8629(3) 1.07484(16) 0.97461(15)
H16 H 0.7782 1.0528 0.9576
C16 C 0.8728(3) 1.15852(17) 0.98937(15)
H17 H 0.7952 1.1931 0.9833
Br2 Br 1.00290(3) 1.302997(17) 1.035698(17)
C17 C 0.9956(3) 1.18971(15) 1.01259(14)
C18 C 1.1113(3) 1.14110(17) 1.02088(16)
H18 H 1.1965 1.1641 1.0360
C19 C 1.0997(3) 1.05781(17) 1.00655(15)
H19 H 1.1780 1.0236 1.0119
C20 C 1.0453(3) 0.89867(16) 1.09585(15)
C21 C 1.1667(3) 0.86701(17) 1.12460(16)
H20 H 1.2226 0.8330 1.0946
C22 C 1.2080(3) 0.88412(18) 1.19636(16)
H21 H 1.2913 0.8623 1.2153
Br3 Br 1.17954(4) 0.95499(2) 1.338375(17)
C23 C 1.1261(3) 0.93323(18) 1.23931(16)
C24 C 1.0049(3) 0.96528(16) 1.21288(15)
H22 H 0.9494 0.9989 1.2434
C25 C 0.9648(3) 0.94803(17) 1.14147(15)
H23 H 0.8812 0.9701 1.1231
C26 C 1.0037(3) 0.78779(15) 1.00137(14)
C27 C 1.0719(3) 0.75795(17) 0.93980(16)
H24 H 1.1171 0.7951 0.9078
C28 C 1.0754(3) 0.67609(17) 0.92411(16)
H25 H 1.1237 0.6567 0.8821
Br4 Br 1.00947(4) 0.508463(18) 0.948028(19)
C29 C 1.0080(3) 0.62210(15) 0.96999(15)
C30 C 0.9402(3) 0.64897(18) 1.03180(16)
H26 H 0.8945 0.6112 1.0631
C31 C 0.9391(3) 0.73198(16) 1.04797(16)
H27 H 0.8939 0.7509 1.0911
C6 C 0.5399(3) 0.06555(16) 0.47005(15)
C7 C 0.4985(3) 0.12281(15) 0.51948(14)
C8 C 0.6039(3) 0.08595(15) 0.39804(15)
C9 C 0.7106(3) 0.14241(16) 0.39195(15)
H12 H 0.7452 0.1681 0.4351
C10 C 0.7671(3) 0.16168(17) 0.32394(16)
H13 H 0.8396 0.2004 0.3204
Br1 Br 0.78804(3) 0.15330(2) 0.167691(17)
C11 C 0.7172(3) 0.12409(17) 0.26158(15)
C12 C 0.6161(3) 0.06559(17) 0.26550(16)
H14 H 0.5851 0.0387 0.2222
C13 C 0.5596(3) 0.04622(16) 0.33446(15)
H15 H 0.4903 0.0055 0.3378
C14 C 0.5255(3) -0.02394(16) 0.48441(14)
C15 C 0.6371(3) -0.07484(16) 0.47461(15)
H16 H 0.7218 -0.0528 0.4576
C16 C 0.6272(3) -0.15852(17) 0.48937(15)
H17 H 0.7048 -0.1931 0.4833
Br2 Br 0.49710(3) -0.302997(17) 0.535698(17)
C17 C 0.5044(3) -0.18971(15) 0.51259(14)
C18 C 0.3887(3) -0.14110(17) 0.52088(16)
H18 H 0.3035 -0.1641 0.5360
C19 C 0.4003(3) -0.05781(17) 0.50655(15)
H19 H 0.3220 -0.0236 0.5119
C20 C 0.4547(3) 0.10133(16) 0.59585(15)
C21 C 0.3333(3) 0.13299(17) 0.62460(16)
H20 H 0.2774 0.1670 0.5946
C22 C 0.2920(3) 0.11588(18) 0.69636(16)
H21 H 0.2087 0.1377 0.7153
Br3 Br 0.32046(4) 0.04501(2) 0.838375(17)
C23 C 0.3739(3) 0.06677(18) 0.73931(16)
C24 C 0.4951(3) 0.03472(16) 0.71288(15)
H22 H 0.5506 0.0011 0.7434
C25 C 0.5352(3) 0.05197(17) 0.64147(15)
H23 H 0.6188 0.0299 0.6231
C26 C 0.4963(3) 0.21221(15) 0.50137(14)
C27 C 0.4281(3) 0.24205(17) 0.43980(16)
H24 H 0.3829 0.2049 0.4078
C28 C 0.4246(3) 0.32391(17) 0.42411(16)
H25 H 0.3763 0.3433 0.3821
Br4 Br 0.49053(4) 0.491537(18) 0.448028(19)
C29 C 0.4920(3) 0.37790(15) 0.46999(15)
C30 C 0.5598(3) 0.35103(18) 0.53180(16)
H26 H 0.6055 0.3888 0.5631
C31 C 0.5609(3) 0.26802(16) 0.54797(16)
H27 H 0.6061 0.2491 0.5911
C6 C 0.4601(3) 0.56555(16) 0.02995(15)
C7 C 0.5015(3) 0.62281(15) -0.01948(14)
C8 C 0.3961(3) 0.58595(15) 0.10196(15)
C9 C 0.2894(3) 0.64241(16) 0.10805(15)
H12 H 0.2548 0.6681 0.0649
C10 C 0.2329(3) 0.66168(17) 0.17606(16)
H13 H 0.1604 0.7004 0.1796
Br1 Br 0.21196(3) 0.65330(2) 0.332309(17)
C11 C 0.2828(3) 0.62409(17) 0.23842(15)
C12 C 0.3839(3) 0.56559(17) 0.23450(16)
H14 H 0.4149 0.5387 0.2778
C13 C 0.4404(3) 0.54622(16) 0.16554(15)
H15 H 0.5097 0.5055 0.1622
C14 C 0.4745(3) 0.47606(16) 0.01559(14)
C15 C 0.3629(3) 0.42516(16) 0.02539(15)
H16 H 0.2782 0.4472 0.0424
C16 C 0.3728(3) 0.34148(17) 0.01063(15)
H17 H 0.2952 0.3069 0.0167
Br2 Br 0.50290(3) 0.197003(17) -0.035698(17)
C17 C 0.4956(3) 0.31029(15) -0.01259(14)
C18 C 0.6113(3) 0.35890(17) -0.02088(16)
H18 H 0.6965 0.3359 -0.0360
C19 C 0.5997(3) 0.44219(17) -0.00655(15)
H19 H 0.6780 0.4764 -0.0119
C20 C 0.5453(3) 0.60133(16) -0.09585(15)
C21 C 0.6667(3) 0.63299(17) -0.12460(16)
H20 H 0.7226 0.6670 -0.0946
C22 C 0.7080(3) 0.61588(18) -0.19636(16)
H21 H 0.7913 0.6377 -0.2153
Br3 Br 0.67954(4) 0.54501(2) -0.338375(17)
C23 C 0.6261(3) 0.56677(18) -0.23931(16)
C24 C 0.5049(3) 0.53472(16) -0.21288(15)
H22 H 0.4494 0.5011 -0.2434
C25 C 0.4648(3) 0.55197(17) -0.14147(15)
H23 H 0.3812 0.5299 -0.1231
C26 C 0.5037(3) 0.71221(15) -0.00137(14)
C27 C 0.5719(3) 0.74205(17) 0.06020(16)
H24 H 0.6171 0.7049 0.0922
C28 C 0.5754(3) 0.82391(17) 0.07589(16)
H25 H 0.6237 0.8433 0.1179
Br4 Br 0.50947(4) 0.991537(18) 0.051972(19)
C29 C 0.5080(3) 0.87790(15) 0.03001(15)
C30 C 0.4402(3) 0.85103(18) -0.03180(16)
H26 H 0.3945 0.8888 -0.0631
C31 C 0.4391(3) 0.76802(16) -0.04797(16)
H27 H 0.3939 0.7491 -0.0911
C6 C 0.0399(3) 0.43445(16) 0.52995(15)
C7 C -0.0015(3) 0.37719(15) 0.48052(14)
C8 C 0.1039(3) 0.41405(15) 0.60196(15)
C9 C 0.2106(3) 0.35759(16) 0.60805(15)
H12 H 0.2452 0.3319 0.5649
C10 C 0.2671(3) 0.33832(17) 0.67606(16)
H13 H 0.3396 0.2996 0.6796
Br1 Br 0.28804(3) 0.34670(2) 0.832309(17)
C11 C 0.2172(3) 0.37591(17) 0.73842(15)
C12 C 0.1161(3) 0.43441(17) 0.73450(16)
H14 H 0.0851 0.4613 0.7778
C13 C 0.0596(3) 0.45378(16) 0.66554(15)
H15 H -0.0097 0.4945 0.6622
C14 C 0.0255(3) 0.52394(16) 0.51559(14)
C15 C 0.1371(3) 0.57484(16) 0.52539(15)
H16 H 0.2218 0.5528 0.5424
C16 C 0.1272(3) 0.65852(17) 0.51063(15)
H17 H 0.2048 0.6931 0.5167
Br2 Br -0.00290(3) 0.802997(17) 0.464302(17)
C17 C 0.0044(3) 0.68971(15) 0.48741(14)
C18 C -0.1113(3) 0.64110(17) 0.47912(16)
H18 H -0.1965 0.6641 0.4640
C19 C -0.0997(3) 0.55781(17) 0.49345(15)
H19 H -0.1780 0.5236 0.4881
C20 C -0.0453(3) 0.39867(16) 0.40415(15)
C21 C -0.1667(3) 0.36701(17) 0.37540(16)
H20 H -0.2226 0.3330 0.4054
C22 C -0.2080(3) 0.38412(18) 0.30364(16)
H21 H -0.2913 0.3623 0.2847
Br3 Br -0.17954(4) 0.45499(2) 0.161625(17)
C23 C -0.1261(3) 0.43323(18) 0.26069(16)
C24 C -0.0049(3) 0.46528(16) 0.28712(15)
H22 H 0.0506 0.4989 0.2566
C25 C 0.0352(3) 0.44803(17) 0.35853(15)
H23 H 0.1188 0.4701 0.3769
C26 C -0.0037(3) 0.28779(15) 0.49863(14)
C27 C -0.0719(3) 0.25795(17) 0.56020(16)
H24 H -0.1171 0.2951 0.5922
C28 C -0.0754(3) 0.17609(17) 0.57589(16)
H25 H -0.1237 0.1567 0.6179
Br4 Br -0.00947(4) 0.008463(18) 0.551972(19)
C29 C -0.0080(3) 0.12210(15) 0.53001(15)
C30 C 0.0598(3) 0.14897(18) 0.46820(16)
H26 H 0.1055 0.1112 0.4369
C31 C 0.0609(3) 0.23198(16) 0.45203(16)
H27 H 0.1061 0.2509 0.4089

#END
