./LADBAW_from_xyz.cif_generated_by_CrystalShift
_symmetry_cell_setting triclinic
_symmetry_space_group_name_H-M 'P 1'
loop_
_symmetry_equiv_pos_site_id
_symmetry_equiv_pos_as_xyz
1 x,y,z
_cell_length_a 9.846000
_cell_length_b 16.366000
_cell_length_c 17.646000
_cell_angle_alpha 90.000000
_cell_angle_beta 90.000000
_cell_angle_gamma 90.000000
_cell_volume 2843.470017
loop_
_atom_site_label
_atom_site_type_symbol
_atom_site_fract_x
_atom_site_fract_y
_atom_site_fract_z
C1 C 0.458600 0.437820 0.972350
C2 C 0.500100 0.378410 1.021000
C3 C 0.550600 0.396940 1.099420
C4 C 0.477300 0.446490 1.148650
H5 H 0.394100 0.470000 1.132300
C6 C 0.524700 0.462040 1.221750
H7 H 0.474100 0.495700 1.255300
Br8 Br 0.708650 0.446670 1.344916
C9 C 0.645800 0.427900 1.244590
C10 C 0.719600 0.378800 1.196980
H11 H 0.803100 0.355800 1.213600
C12 C 0.671900 0.362780 1.124350
H13 H 0.722500 0.328300 1.091500
C14 C 0.499300 0.289970 1.000890
C15 C 0.439200 0.233280 1.049570
H16 H 0.397400 0.251700 1.095000
C17 C 0.439400 0.150360 1.032780
H18 H 0.397100 0.112400 1.066000
Br19 Br 0.506440 0.010260 0.945950
C20 C 0.501400 0.123970 0.967570
C21 C 0.563100 0.178500 0.918350
H22 H 0.606200 0.159400 0.873600
C23 C 0.561300 0.260800 0.935120
H24 H 0.603000 0.298300 0.901300
C25 C 0.388700 0.418430 0.899300
C26 C 0.429100 0.456060 0.832730
H27 H 0.500000 0.495400 0.834300
C28 C 0.368800 0.437700 0.763840
H29 H 0.397600 0.464000 0.718600
Br30 Br 0.190470 0.348850 0.667406
C31 C 0.265400 0.380200 0.762390
C32 C 0.218400 0.344560 0.827550
H33 H 0.144400 0.307300 0.826000
C34 C 0.280600 0.363750 0.896210
H35 H 0.248800 0.339100 0.941600
C36 C 0.477700 0.527050 0.987130
C37 C 0.599200 0.559000 1.013790
H38 H 0.673000 0.523200 1.023900
C39 C 0.614900 0.642070 1.025920
H40 H 0.698500 0.663300 1.044300
Br41 Br 0.519180 0.807940 1.028460
C42 C 0.506700 0.693520 1.010850
C43 C 0.386400 0.664380 0.983760
H44 H 0.313600 0.700700 0.973200
C45 C 0.371400 0.580850 0.971760
H46 H 0.287800 0.560300 0.952900
C47 C 0.041400 0.562180 0.472350
C48 C -0.000100 0.621590 0.521000
C49 C -0.050600 0.603060 0.599420
C50 C 0.022700 0.553510 0.648650
H51 H 0.105900 0.530000 0.632300
C52 C -0.024700 0.537960 0.721750
H53 H 0.025900 0.504300 0.755300
Br54 Br -0.208650 0.553330 0.844916
C55 C -0.145800 0.572100 0.744590
C56 C -0.219600 0.621200 0.696980
H57 H -0.303100 0.644200 0.713600
C58 C -0.171900 0.637220 0.624350
H59 H -0.222500 0.671700 0.591500
C60 C 0.000700 0.710030 0.500890
C61 C 0.060800 0.766720 0.549570
H62 H 0.102600 0.748300 0.595000
C63 C 0.060600 0.849640 0.532780
H64 H 0.102900 0.887600 0.566000
Br65 Br -0.006440 0.989740 0.445950
C66 C -0.001400 0.876030 0.467570
C67 C -0.063100 0.821500 0.418350
H68 H -0.106200 0.840600 0.373600
C69 C -0.061300 0.739200 0.435120
H70 H -0.103000 0.701700 0.401300
C71 C 0.111300 0.581570 0.399300
C72 C 0.070900 0.543940 0.332730
H73 H 0.000000 0.504600 0.334300
C74 C 0.131200 0.562300 0.263840
H75 H 0.102400 0.536000 0.218600
Br76 Br 0.309530 0.651150 0.167406
C77 C 0.234600 0.619800 0.262390
C78 C 0.281600 0.655440 0.327550
H79 H 0.355600 0.692700 0.326000
C80 C 0.219400 0.636250 0.396210
H81 H 0.251200 0.660900 0.441600
C82 C 0.022300 0.472950 0.487130
C83 C -0.099200 0.441000 0.513790
H84 H -0.173000 0.476800 0.523900
C85 C -0.114900 0.357930 0.525920
H86 H -0.198500 0.336700 0.544300
Br87 Br -0.019180 0.192060 0.528460
C88 C -0.006700 0.306480 0.510850
C89 C 0.113600 0.335620 0.483760
H90 H 0.186400 0.299300 0.473200
C91 C 0.128600 0.419150 0.471760
H92 H 0.212200 0.439700 0.452900
C93 C 0.958600 0.062180 0.027650
C94 C 1.000100 0.121590 -0.021000
C95 C 1.050600 0.103060 -0.099420
C96 C 0.977300 0.053510 -0.148650
H97 H 0.894100 0.030000 -0.132300
C98 C 1.024700 0.037960 -0.221750
H99 H 0.974100 0.004300 -0.255300
Br100 Br 1.208650 0.053330 -0.344916
C101 C 1.145800 0.072100 -0.244590
C102 C 1.219600 0.121200 -0.196980
H103 H 1.303100 0.144200 -0.213600
C104 C 1.171900 0.137220 -0.124350
H105 H 1.222500 0.171700 -0.091500
C106 C 0.999300 0.210030 -0.000890
C107 C 0.939200 0.266720 -0.049570
H108 H 0.897400 0.248300 -0.095000
C109 C 0.939400 0.349640 -0.032780
H110 H 0.897100 0.387600 -0.066000
Br111 Br 1.006440 0.489740 0.054050
C112 C 1.001400 0.376030 0.032430
C113 C 1.063100 0.321500 0.081650
H114 H 1.106200 0.340600 0.126400
C115 C 1.061300 0.239200 0.064880
H116 H 1.103000 0.201700 0.098700
C117 C 0.888700 0.081570 0.100700
C118 C 0.929100 0.043940 0.167270
H119 H 1.000000 0.004600 0.165700
C120 C 0.868800 0.062300 0.236160
H121 H 0.897600 0.036000 0.281400
Br122 Br 0.690470 0.151150 0.332594
C123 C 0.765400 0.119800 0.237610
C124 C 0.718400 0.155440 0.172450
H125 H 0.644400 0.192700 0.174000
C126 C 0.780600 0.136250 0.103790
H127 H 0.748800 0.160900 0.058400
C128 C 0.977700 -0.027050 0.012870
C129 C 1.099200 -0.059000 -0.013790
H130 H 1.173000 -0.023200 -0.023900
C131 C 1.114900 -0.142070 -0.025920
H132 H 1.198500 -0.163300 -0.044300
Br133 Br 1.019180 -0.307940 -0.028460
C134 C 1.006700 -0.193520 -0.010850
C135 C 0.886400 -0.164380 0.016240
H136 H 0.813600 -0.200700 0.026800
C137 C 0.871400 -0.080850 0.028240
H138 H 0.787800 -0.060300 0.047100
C139 C 0.541400 0.937820 0.527650
C140 C 0.499900 0.878410 0.479000
C141 C 0.449400 0.896940 0.400580
C142 C 0.522700 0.946490 0.351350
H143 H 0.605900 0.970000 0.367700
C144 C 0.475300 0.962040 0.278250
H145 H 0.525900 0.995700 0.244700
Br146 Br 0.291350 0.946670 0.155084
C147 C 0.354200 0.927900 0.255410
C148 C 0.280400 0.878800 0.303020
H149 H 0.196900 0.855800 0.286400
C150 C 0.328100 0.862780 0.375650
H151 H 0.277500 0.828300 0.408500
C152 C 0.500700 0.789970 0.499110
C153 C 0.560800 0.733280 0.450430
H154 H 0.602600 0.751700 0.405000
C155 C 0.560600 0.650360 0.467220
H156 H 0.602900 0.612400 0.434000
Br157 Br 0.493560 0.510260 0.554050
C158 C 0.498600 0.623970 0.532430
C159 C 0.436900 0.678500 0.581650
H160 H 0.393800 0.659400 0.626400
C161 C 0.438700 0.760800 0.564880
H162 H 0.397000 0.798300 0.598700
C163 C 0.611300 0.918430 0.600700
C164 C 0.570900 0.956060 0.667270
H165 H 0.500000 0.995400 0.665700
C166 C 0.631200 0.937700 0.736160
H167 H 0.602400 0.964000 0.781400
Br168 Br 0.809530 0.848850 0.832594
C169 C 0.734600 0.880200 0.737610
C170 C 0.781600 0.844560 0.672450
H171 H 0.855600 0.807300 0.674000
C172 C 0.719400 0.863750 0.603790
H173 H 0.751200 0.839100 0.558400
C174 C 0.522300 1.027050 0.512870
C175 C 0.400800 1.059000 0.486210
H176 H 0.327000 1.023200 0.476100
C177 C 0.385100 1.142070 0.474080
H178 H 0.301500 1.163300 0.455700
Br179 Br 0.480820 1.307940 0.471540
C180 C 0.493300 1.193520 0.489150
C181 C 0.613600 1.164380 0.516240
H182 H 0.686400 1.200700 0.526800
C183 C 0.628600 1.080850 0.528240
H184 H 0.712200 1.060300 0.547100
C185 C 0.316900 0.187800 0.265500
H186 H 0.386000 0.149000 0.254600
C187 C 0.188000 0.161700 0.282600
H188 H 0.167400 0.105000 0.283600
C189 C 0.088000 0.219200 0.298500
H190 H -0.001100 0.201800 0.311300
C191 C 0.117400 0.300400 0.295700
H192 H 0.048300 0.339600 0.305500
C193 C 0.245400 0.325600 0.278900
H194 H 0.265600 0.382300 0.277500
C195 C 0.346000 0.269500 0.264000
H196 H 0.435500 0.287500 0.252700
C197 C 0.183100 0.812200 0.765500
H198 H 0.114000 0.851000 0.754600
C199 C 0.312000 0.838300 0.782600
H200 H 0.332600 0.895000 0.783600
C201 C 0.412000 0.780800 0.798500
H202 H 0.501100 0.798200 0.811300
C203 C 0.382600 0.699600 0.795700
H204 H 0.451700 0.660400 0.805500
C205 C 0.254600 0.674400 0.778900
H206 H 0.234400 0.617700 0.777500
C207 C 0.154000 0.730500 0.764000
H208 H 0.064500 0.712500 0.752700
C209 C 0.816900 0.312200 0.734500
H210 H 0.886000 0.351000 0.745400
C211 C 0.688000 0.338300 0.717400
H212 H 0.667400 0.395000 0.716400
C213 C 0.588000 0.280800 0.701500
H214 H 0.498900 0.298200 0.688700
C215 C 0.617400 0.199600 0.704300
H216 H 0.548300 0.160400 0.694500
C217 C 0.745400 0.174400 0.721100
H218 H 0.765600 0.117700 0.722500
C219 C 0.846000 0.230500 0.736000
H220 H 0.935500 0.212500 0.747300
C221 C 0.683100 0.687800 0.234500
H222 H 0.614000 0.649000 0.245400
C223 C 0.812000 0.661700 0.217400
H224 H 0.832600 0.605000 0.216400
C225 C 0.912000 0.719200 0.201500
H226 H 1.001100 0.701800 0.188700
C227 C 0.882600 0.800400 0.204300
H228 H 0.951700 0.839600 0.194500
C229 C 0.754600 0.825600 0.221100
H230 H 0.734400 0.882300 0.222500
C231 C 0.654000 0.769500 0.236000
H232 H 0.564500 0.787500 0.247300

#END
