
#######################################################################
#
#                 Cambridge Crystallographic Data Centre
#                                CCDC 
#
#######################################################################
#
# If this CIF has been generated from an entry in the Cambridge 
# Structural Database, then it will include bibliographic, chemical, 
# crystal, experimental, refinement or atomic coordinate data resulting 
# from the CCDC's data processing and validation procedures.
#
#######################################################################

data_LADCAX
_symmetry_cell_setting           orthorhombic
_symmetry_space_group_name_H-M   'P 21 21 21'
_symmetry_Int_Tables_number      19
_space_group_name_Hall           'P 2ac 2ab'
loop_
_symmetry_equiv_pos_site_id
_symmetry_equiv_pos_as_xyz
1 x,y,z
2 1/2-x,-y,1/2+z
3 1/2+x,1/2-y,-z
4 -x,1/2+y,1/2-z
_cell_length_a                   9.9574(5)
_cell_length_b                   16.9715(9)
_cell_length_c                   18.0787(9)
_cell_angle_alpha                90
_cell_angle_beta                 90
_cell_angle_gamma                90
_cell_volume                     3055.16
loop_
_atom_site_label
_atom_site_type_symbol
_atom_site_fract_x
_atom_site_fract_y
_atom_site_fract_z
I1 I -0.02098(3) 1.302556(16) -0.016014(18)
I2 I 0.32471(3) 0.837539(19) 0.334536(15)
I3 I -0.20822(4) 0.94684(2) -0.343480(16)
I4 I -0.00876(4) 0.510828(16) 0.056946(17)
C1 C 0.0055(4) 0.8770(2) -0.01835(19)
C2 C 0.2395(4) 0.8723(2) 0.2339(2)
C3 C 0.0053(4) 0.79203(19) 0.00087(18)
C4 C 0.0257(4) 1.0190(2) 0.01875(19)
C5 C 0.2247(4) 0.8619(2) 0.1025(2)
H1 H 0.2581 0.8410 0.0574
C6 C -0.1609(4) 0.8609(2) -0.1199(2)
H2 H -0.2084 0.8253 -0.0889
C7 C -0.0927(4) 1.0501(2) -0.0096(2)
H3 H -0.1635 1.0153 -0.0227
C8 C -0.0210(5) 0.9619(2) -0.2114(2)
H4 H 0.0274 0.9965 -0.2431
C9 C -0.0572(4) 0.7640(2) 0.0646(2)
H5 H -0.0988 0.8002 0.0974
C10 C 0.1150(4) 0.9122(2) 0.1011(2)
C11 C -0.0075(4) 1.18090(19) 0.0014(2)
C12 C 0.0461(4) 0.9330(2) 0.03052(19)
C13 C 0.0657(4) 0.7365(2) -0.0464(2)
H6 H 0.1082 0.7539 -0.0906
C14 C 0.0641(4) 0.6569(2) -0.0296(2)
H7 H 0.1066 0.6201 -0.0615
C15 C 0.1256(4) 1.0717(2) 0.0403(2)
H8 H 0.2064 1.0520 0.0612
C16 C -0.0440(4) 0.8960(2) -0.0939(2)
C17 C -0.1393(5) 0.9265(2) -0.2355(2)
C18 C 0.0251(5) 0.9461(2) -0.1408(2)
H9 H 0.1058 0.9702 -0.1241
C19 C 0.2871(4) 0.8415(2) 0.1686(2)
H10 H 0.3617 0.8067 0.1686
C20 C 0.0006(4) 0.6316(2) 0.0336(2)
C21 C 0.1340(4) 0.9254(2) 0.2338(2)
H11 H 0.1036 0.9482 0.2788
C22 C 0.0733(4) 0.9451(2) 0.1674(2)
H12 H 0.0016 0.9821 0.1672
C23 C -0.1104(4) 1.1302(2) -0.0194(2)
H13 H -0.1913 1.1502 -0.0398
C24 C -0.2097(5) 0.8766(3) -0.1904(2)
H14 H -0.2908 0.8531 -0.2070
C25 C -0.0600(4) 0.6846(2) 0.0810(2)
H15 H -0.1033 0.6665 0.1246
C26 C 0.1095(4) 1.1523(2) 0.0317(2)
H16 H 0.1786 1.1875 0.0466
I1 I 0.52098(3) -0.302556(16) 0.483986(18)
I2 I 0.17529(3) 0.162461(19) 0.834536(15)
I3 I 0.70822(4) 0.05316(2) 0.156520(16)
I4 I 0.50876(4) 0.489172(16) 0.556946(17)
C1 C 0.4945(4) 0.1230(2) 0.48165(19)
C2 C 0.2605(4) 0.1277(2) 0.7339(2)
C3 C 0.4947(4) 0.20797(19) 0.50087(18)
C4 C 0.4743(4) -0.0190(2) 0.51875(19)
C5 C 0.2753(4) 0.1381(2) 0.6025(2)
H1 H 0.2419 0.1590 0.5574
C6 C 0.6609(4) 0.1391(2) 0.3801(2)
H2 H 0.7084 0.1747 0.4111
C7 C 0.5927(4) -0.0501(2) 0.4904(2)
H3 H 0.6635 -0.0153 0.4773
C8 C 0.5210(5) 0.0381(2) 0.2886(2)
H4 H 0.4726 0.0035 0.2569
C9 C 0.5572(4) 0.2360(2) 0.5646(2)
H5 H 0.5988 0.1998 0.5974
C10 C 0.3850(4) 0.0878(2) 0.6011(2)
C11 C 0.5075(4) -0.18090(19) 0.5014(2)
C12 C 0.4539(4) 0.0670(2) 0.53052(19)
C13 C 0.4343(4) 0.2635(2) 0.4536(2)
H6 H 0.3918 0.2461 0.4094
C14 C 0.4359(4) 0.3431(2) 0.4704(2)
H7 H 0.3934 0.3799 0.4385
C15 C 0.3744(4) -0.0717(2) 0.5403(2)
H8 H 0.2936 -0.0520 0.5612
C16 C 0.5440(4) 0.1040(2) 0.4061(2)
C17 C 0.6393(5) 0.0735(2) 0.2645(2)
C18 C 0.4749(5) 0.0539(2) 0.3592(2)
H9 H 0.3942 0.0298 0.3759
C19 C 0.2129(4) 0.1585(2) 0.6686(2)
H10 H 0.1383 0.1933 0.6686
C20 C 0.4994(4) 0.3684(2) 0.5336(2)
C21 C 0.3660(4) 0.0746(2) 0.7338(2)
H11 H 0.3964 0.0518 0.7788
C22 C 0.4267(4) 0.0549(2) 0.6674(2)
H12 H 0.4984 0.0179 0.6672
C23 C 0.6104(4) -0.1302(2) 0.4806(2)
H13 H 0.6913 -0.1502 0.4602
C24 C 0.7097(5) 0.1234(3) 0.3096(2)
H14 H 0.7908 0.1469 0.2930
C25 C 0.5600(4) 0.3154(2) 0.5810(2)
H15 H 0.6033 0.3335 0.6246
C26 C 0.3905(4) -0.1523(2) 0.5317(2)
H16 H 0.3214 -0.1875 0.5466
I1 I 0.47902(3) 0.197444(16) 1.016014(18)
I2 I 0.82471(3) 0.662461(19) 0.665464(15)
I3 I 0.29178(4) 0.55316(2) 1.343480(16)
I4 I 0.49124(4) 0.989172(16) 0.943054(17)
C1 C 0.5055(4) 0.6230(2) 1.01835(19)
C2 C 0.7395(4) 0.6277(2) 0.7661(2)
C3 C 0.5053(4) 0.70797(19) 0.99913(18)
C4 C 0.5257(4) 0.4810(2) 0.98125(19)
C5 C 0.7247(4) 0.6381(2) 0.8975(2)
H1 H 0.7581 0.6590 0.9426
C6 C 0.3391(4) 0.6391(2) 1.1199(2)
H2 H 0.2916 0.6747 1.0889
C7 C 0.4073(4) 0.4499(2) 1.0096(2)
H3 H 0.3365 0.4847 1.0227
C8 C 0.4790(5) 0.5381(2) 1.2114(2)
H4 H 0.5274 0.5035 1.2431
C9 C 0.4428(4) 0.7360(2) 0.9354(2)
H5 H 0.4012 0.6998 0.9026
C10 C 0.6150(4) 0.5878(2) 0.8989(2)
C11 C 0.4925(4) 0.31910(19) 0.9986(2)
C12 C 0.5461(4) 0.5670(2) 0.96948(19)
C13 C 0.5657(4) 0.7635(2) 1.0464(2)
H6 H 0.6082 0.7461 1.0906
C14 C 0.5641(4) 0.8431(2) 1.0296(2)
H7 H 0.6066 0.8799 1.0615
C15 C 0.6256(4) 0.4283(2) 0.9597(2)
H8 H 0.7064 0.4480 0.9388
C16 C 0.4560(4) 0.6040(2) 1.0939(2)
C17 C 0.3607(5) 0.5735(2) 1.2355(2)
C18 C 0.5251(5) 0.5539(2) 1.1408(2)
H9 H 0.6058 0.5298 1.1241
C19 C 0.7871(4) 0.6585(2) 0.8314(2)
H10 H 0.8617 0.6933 0.8314
C20 C 0.5006(4) 0.8684(2) 0.9664(2)
C21 C 0.6340(4) 0.5746(2) 0.7662(2)
H11 H 0.6036 0.5518 0.7212
C22 C 0.5733(4) 0.5549(2) 0.8326(2)
H12 H 0.5016 0.5179 0.8328
C23 C 0.3896(4) 0.3698(2) 1.0194(2)
H13 H 0.3087 0.3498 1.0398
C24 C 0.2903(5) 0.6234(3) 1.1904(2)
H14 H 0.2092 0.6469 1.2070
C25 C 0.4400(4) 0.8154(2) 0.9190(2)
H15 H 0.3967 0.8335 0.8754
C26 C 0.6095(4) 0.3477(2) 0.9683(2)
H16 H 0.6786 0.3125 0.9534
I1 I 1.02098(3) 0.802556(16) 0.516014(18)
I2 I 0.67529(3) 0.337539(19) 0.165464(15)
I3 I 1.20822(4) 0.44684(2) 0.843480(16)
I4 I 1.00876(4) 0.010828(16) 0.443054(17)
C1 C 0.9945(4) 0.3770(2) 0.51835(19)
C2 C 0.7605(4) 0.3723(2) 0.2661(2)
C3 C 0.9947(4) 0.29203(19) 0.49913(18)
C4 C 0.9743(4) 0.5190(2) 0.48125(19)
C5 C 0.7753(4) 0.3619(2) 0.3975(2)
H1 H 0.7419 0.3410 0.4426
C6 C 1.1609(4) 0.3609(2) 0.6199(2)
H2 H 1.2084 0.3253 0.5889
C7 C 1.0927(4) 0.5501(2) 0.5096(2)
H3 H 1.1635 0.5153 0.5227
C8 C 1.0210(5) 0.4619(2) 0.7114(2)
H4 H 0.9726 0.4965 0.7431
C9 C 1.0572(4) 0.2640(2) 0.4354(2)
H5 H 1.0988 0.3002 0.4026
C10 C 0.8850(4) 0.4122(2) 0.3989(2)
C11 C 1.0075(4) 0.68090(19) 0.4986(2)
C12 C 0.9539(4) 0.4330(2) 0.46948(19)
C13 C 0.9343(4) 0.2365(2) 0.5464(2)
H6 H 0.8918 0.2539 0.5906
C14 C 0.9359(4) 0.1569(2) 0.5296(2)
H7 H 0.8934 0.1201 0.5615
C15 C 0.8744(4) 0.5717(2) 0.4597(2)
H8 H 0.7936 0.5520 0.4388
C16 C 1.0440(4) 0.3960(2) 0.5939(2)
C17 C 1.1393(5) 0.4265(2) 0.7355(2)
C18 C 0.9749(5) 0.4461(2) 0.6408(2)
H9 H 0.8942 0.4702 0.6241
C19 C 0.7129(4) 0.3415(2) 0.3314(2)
H10 H 0.6383 0.3067 0.3314
C20 C 0.9994(4) 0.1316(2) 0.4664(2)
C21 C 0.8660(4) 0.4254(2) 0.2662(2)
H11 H 0.8964 0.4482 0.2212
C22 C 0.9267(4) 0.4451(2) 0.3326(2)
H12 H 0.9984 0.4821 0.3328
C23 C 1.1104(4) 0.6302(2) 0.5194(2)
H13 H 1.1913 0.6502 0.5398
C24 C 1.2097(5) 0.3766(3) 0.6904(2)
H14 H 1.2908 0.3531 0.7070
C25 C 1.0600(4) 0.1846(2) 0.4190(2)
H15 H 1.1033 0.1665 0.3754
C26 C 0.8905(4) 0.6523(2) 0.4683(2)
H16 H 0.8214 0.6875 0.4534
C27 C 0.9294(8) 0.7566(6) 0.2893(4)
H17 H 1.0198 0.7709 0.2996
C28 C 0.8333(9) 0.8139(5) 0.2790(4)
H18 H 0.8584 0.8678 0.2822
C29 C 0.7012(7) 0.7948(5) 0.2642(4)
H19 H 0.6357 0.8346 0.2562
C30 C 0.6679(7) 0.7172(4) 0.2614(3)
H20 H 0.5771 0.7026 0.2527
C31 C 0.7628(7) 0.6596(4) 0.2710(3)
H21 H 0.7372 0.6058 0.2680
C32 C 0.8936(6) 0.6785(5) 0.2847(3)
H22 H 0.9590 0.6383 0.2910
C27 C 0.5706(8) 0.2434(6) 0.7893(4)
H17 H 0.4802 0.2291 0.7996
C28 C 0.6667(9) 0.1861(5) 0.7790(4)
H18 H 0.6416 0.1322 0.7822
C29 C 0.7988(7) 0.2052(5) 0.7642(4)
H19 H 0.8643 0.1654 0.7562
C30 C 0.8321(7) 0.2828(4) 0.7614(3)
H20 H 0.9229 0.2974 0.7527
C31 C 0.7372(7) 0.3404(4) 0.7710(3)
H21 H 0.7628 0.3942 0.7680
C32 C 0.6064(6) 0.3215(5) 0.7847(3)
H22 H 0.5410 0.3617 0.7910
C27 C 0.4294(8) 0.7434(6) 0.7107(4)
H17 H 0.5198 0.7291 0.7004
C28 C 0.3333(9) 0.6861(5) 0.7210(4)
H18 H 0.3584 0.6322 0.7178
C29 C 0.2012(7) 0.7052(5) 0.7358(4)
H19 H 0.1357 0.6654 0.7438
C30 C 0.1679(7) 0.7828(4) 0.7386(3)
H20 H 0.0771 0.7974 0.7473
C31 C 0.2628(7) 0.8404(4) 0.7290(3)
H21 H 0.2372 0.8942 0.7320
C32 C 0.3936(6) 0.8215(5) 0.7153(3)
H22 H 0.4590 0.8617 0.7090
C27 C 0.0706(8) 0.2566(6) 0.2107(4)
H17 H -0.0198 0.2709 0.2004
C28 C 0.1667(9) 0.3139(5) 0.2210(4)
H18 H 0.1416 0.3678 0.2178
C29 C 0.2988(7) 0.2948(5) 0.2358(4)
H19 H 0.3643 0.3346 0.2438
C30 C 0.3321(7) 0.2172(4) 0.2386(3)
H20 H 0.4229 0.2026 0.2473
C31 C 0.2372(7) 0.1596(4) 0.2290(3)
H21 H 0.2628 0.1058 0.2320
C32 C 0.1064(6) 0.1785(5) 0.2153(3)
H22 H 0.0410 0.1383 0.2090

#END
