
#######################################################################
#
#                 Cambridge Crystallographic Data Centre
#                                CCDC 
#
#######################################################################
#
# If this CIF has been generated from an entry in the Cambridge 
# Structural Database, then it will include bibliographic, chemical, 
# crystal, experimental, refinement or atomic coordinate data resulting 
# from the CCDC's data processing and validation procedures.
#
#######################################################################

data_LADCEB
_symmetry_cell_setting           orthorhombic
_symmetry_space_group_name_H-M   'P 21 21 21'
_symmetry_Int_Tables_number      19
_space_group_name_Hall           'P 2ac 2ab'
loop_
_symmetry_equiv_pos_site_id
_symmetry_equiv_pos_as_xyz
1 x,y,z
2 1/2-x,-y,1/2+z
3 1/2+x,1/2-y,-z
4 -x,1/2+y,1/2-z
_cell_length_a                   5.4408(2)
_cell_length_b                   12.0924(4)
_cell_length_c                   13.1635(5)
_cell_angle_alpha                90
_cell_angle_beta                 90
_cell_angle_gamma                90
_cell_volume                     866.057
loop_
_atom_site_label
_atom_site_type_symbol
_atom_site_fract_x
_atom_site_fract_y
_atom_site_fract_z
C1 C 0.8454(5) 0.96072(19) 0.23284(19)
O1 O 1.0544(3) 0.82799(15) 0.32561(15)
C2 C 0.6969(5) 0.85137(19) 0.23239(18)
H1 H 0.5194 0.8640 0.2372
C3 C 1.0023(5) 0.9453(2) 0.3296(2)
H2 H 1.1504 0.9914 0.3305
C4 C 1.0119(5) 0.9487(2) 0.14117(19)
O2 O 1.1701(4) 1.01201(16) 0.11355(16)
O3 O 0.6811(5) 0.70862(16) 0.10164(16)
C5 C 0.8006(5) 0.7922(2) 0.3269(2)
H3 H 0.7800 0.7117 0.3258
N1 N 0.9524(4) 0.85242(17) 0.09071(17)
H4 H 1.0249 0.8313 0.0360
C6 C 0.8474(6) 0.9559(3) 0.4255(2)
H5 H 0.7408 1.0201 0.4227
H6 H 0.9494 0.9601 0.4858
C7 C 0.7683(5) 0.7939(2) 0.1355(2)
C8 C 0.6987(6) 0.8475(3) 0.4225(2)
H7 H 0.7284 0.8028 0.4825
H8 H 0.5239 0.8618 0.4164
C9 C 0.7029(6) 1.0689(2) 0.2260(2)
H9 H 0.5804 1.0710 0.2784
H10 H 0.6247 1.0739 0.1608
H11 H 0.8139 1.1299 0.2344
C1 C 0.6546(5) 0.03928(19) 0.73284(19)
O1 O 0.4456(3) 0.17201(15) 0.82561(15)
C2 C 0.8031(5) 0.14863(19) 0.73239(18)
H1 H 0.9806 0.1360 0.7372
C3 C 0.4977(5) 0.0547(2) 0.8296(2)
H2 H 0.3496 0.0086 0.8305
C4 C 0.4881(5) 0.0513(2) 0.64117(19)
O2 O 0.3299(4) -0.01201(16) 0.61355(16)
O3 O 0.8189(5) 0.29138(16) 0.60164(16)
C5 C 0.6994(5) 0.2078(2) 0.8269(2)
H3 H 0.7200 0.2883 0.8258
N1 N 0.5476(4) 0.14758(17) 0.59071(17)
H4 H 0.4751 0.1687 0.5360
C6 C 0.6526(6) 0.0441(3) 0.9255(2)
H5 H 0.7592 -0.0201 0.9227
H6 H 0.5506 0.0399 0.9858
C7 C 0.7317(5) 0.2061(2) 0.6355(2)
C8 C 0.8013(6) 0.1525(3) 0.9225(2)
H7 H 0.7716 0.1972 0.9825
H8 H 0.9761 0.1382 0.9164
C9 C 0.7971(6) -0.0689(2) 0.7260(2)
H9 H 0.9196 -0.0710 0.7784
H10 H 0.8753 -0.0739 0.6608
H11 H 0.6861 -0.1299 0.7344
C1 C 0.3454(5) 0.53928(19) 0.76716(19)
O1 O 0.5544(3) 0.67201(15) 0.67439(15)
C2 C 0.1969(5) 0.64863(19) 0.76761(18)
H1 H 0.0194 0.6360 0.7628
C3 C 0.5023(5) 0.5547(2) 0.6704(2)
H2 H 0.6504 0.5086 0.6695
C4 C 0.5119(5) 0.5513(2) 0.85883(19)
O2 O 0.6701(4) 0.48799(16) 0.88645(16)
O3 O 0.1811(5) 0.79138(16) 0.89836(16)
C5 C 0.3006(5) 0.7078(2) 0.6731(2)
H3 H 0.2800 0.7883 0.6742
N1 N 0.4524(4) 0.64758(17) 0.90929(17)
H4 H 0.5249 0.6687 0.9640
C6 C 0.3474(6) 0.5441(3) 0.5745(2)
H5 H 0.2408 0.4799 0.5773
H6 H 0.4494 0.5399 0.5142
C7 C 0.2683(5) 0.7061(2) 0.8645(2)
C8 C 0.1987(6) 0.6525(3) 0.5775(2)
H7 H 0.2284 0.6972 0.5175
H8 H 0.0239 0.6382 0.5836
C9 C 0.2029(6) 0.4311(2) 0.7740(2)
H9 H 0.0804 0.4290 0.7216
H10 H 0.1247 0.4261 0.8392
H11 H 0.3139 0.3701 0.7656
C1 C 0.1546(5) 0.46072(19) 0.26716(19)
O1 O -0.0544(3) 0.32799(15) 0.17439(15)
C2 C 0.3031(5) 0.35137(19) 0.26761(18)
H1 H 0.4806 0.3640 0.2628
C3 C -0.0023(5) 0.4453(2) 0.1704(2)
H2 H -0.1504 0.4914 0.1695
C4 C -0.0119(5) 0.4487(2) 0.35883(19)
O2 O -0.1701(4) 0.51201(16) 0.38645(16)
O3 O 0.3189(5) 0.20862(16) 0.39836(16)
C5 C 0.1994(5) 0.2922(2) 0.1731(2)
H3 H 0.2200 0.2117 0.1742
N1 N 0.0476(4) 0.35242(17) 0.40929(17)
H4 H -0.0249 0.3313 0.4640
C6 C 0.1526(6) 0.4559(3) 0.0745(2)
H5 H 0.2592 0.5201 0.0773
H6 H 0.0506 0.4601 0.0142
C7 C 0.2317(5) 0.2939(2) 0.3645(2)
C8 C 0.3013(6) 0.3475(3) 0.0775(2)
H7 H 0.2716 0.3028 0.0175
H8 H 0.4761 0.3618 0.0836
C9 C 0.2971(6) 0.5689(2) 0.2740(2)
H9 H 0.4196 0.5710 0.2216
H10 H 0.3753 0.5739 0.3392
H11 H 0.1861 0.6299 0.2656

#END
