./LADDEB_from_xyz.cif_generated_by_CrystalShift
_symmetry_cell_setting triclinic
_symmetry_space_group_name_H-M 'P 1'
loop_
_symmetry_equiv_pos_site_id
_symmetry_equiv_pos_as_xyz
1 x,y,z
_cell_length_a 14.029800
_cell_length_b 3.852700
_cell_length_c 17.591800
_cell_angle_alpha 90.000000
_cell_angle_beta 102.337000
_cell_angle_gamma 90.000000
_cell_volume 928.924759
loop_
_atom_site_label
_atom_site_type_symbol
_atom_site_fract_x
_atom_site_fract_y
_atom_site_fract_z
Br1 Br -0.043775 0.934940 0.601847
Br2 Br 0.268061 0.907030 0.865653
N3 N 0.240180 0.584200 0.638630
C4 C 0.277990 0.652600 0.714220
N5 N 0.370930 0.561100 0.743080
H6 H 0.401200 0.472000 0.713500
H7 H 0.397600 0.613000 0.787300
C8 C 0.217860 0.810800 0.759640
C9 C 0.122930 0.896100 0.727030
H10 H 0.082800 1.004200 0.757300
C11 C 0.086370 0.820700 0.648300
C12 C 0.146760 0.664600 0.606460
H13 H 0.121900 0.611700 0.553200
Br14 Br 1.043775 0.434940 0.898153
Br15 Br 0.731939 0.407030 0.634347
N16 N 0.759820 0.084200 0.861370
C17 C 0.722010 0.152600 0.785780
N18 N 0.629070 0.061100 0.756920
H19 H 0.598800 -0.028000 0.786500
H20 H 0.602400 0.113000 0.712700
C21 C 0.782140 0.310800 0.740360
C22 C 0.877070 0.396100 0.772970
H23 H 0.917200 0.504200 0.742700
C24 C 0.913630 0.320700 0.851700
C25 C 0.853240 0.164600 0.893540
H26 H 0.878100 0.111700 0.946800
Br27 Br 1.043775 0.065060 0.398153
Br28 Br 0.731939 0.092970 0.134347
N29 N 0.759820 0.415800 0.361370
C30 C 0.722010 0.347400 0.285780
N31 N 0.629070 0.438900 0.256920
H32 H 0.598800 0.528000 0.286500
H33 H 0.602400 0.387000 0.212700
C34 C 0.782140 0.189200 0.240360
C35 C 0.877070 0.103900 0.272970
H36 H 0.917200 -0.004200 0.242700
C37 C 0.913630 0.179300 0.351700
C38 C 0.853240 0.335400 0.393540
H39 H 0.878100 0.388300 0.446800
Br40 Br -0.043775 0.565060 0.101847
Br41 Br 0.268061 0.592970 0.365653
N42 N 0.240180 0.915800 0.138630
C43 C 0.277990 0.847400 0.214220
N44 N 0.370930 0.938900 0.243080
H45 H 0.401200 1.028000 0.213500
H46 H 0.397600 0.887000 0.287300
C47 C 0.217860 0.689200 0.259640
C48 C 0.122930 0.603900 0.227030
H49 H 0.082800 0.495800 0.257300
C50 C 0.086370 0.679300 0.148300
C51 C 0.146760 0.835400 0.106460
H52 H 0.121900 0.888300 0.053200
C53 C 0.415750 0.217600 0.558590
O54 O 0.328800 0.349400 0.534620
H55 H 0.307300 0.421000 0.572800
O56 O 0.458660 0.200200 0.626810
C57 C 0.458510 0.087300 0.493510
H58 H 0.425400 0.130700 0.441400
C59 C 0.584250 -0.217600 0.441410
O60 O 0.671200 -0.349400 0.465380
H61 H 0.692700 -0.421000 0.427200
O62 O 0.541340 -0.200200 0.373190
C63 C 0.541490 -0.087300 0.506490
H64 H 0.574600 -0.130700 0.558600
C65 C 0.415750 1.217600 0.558590
O66 O 0.328800 1.349400 0.534620
H67 H 0.307300 1.421000 0.572800
O68 O 0.458660 1.200200 0.626810
C69 C 0.458510 1.087300 0.493510
H70 H 0.425400 1.130700 0.441400
C71 C 0.584250 0.782400 0.441410
O72 O 0.671200 0.650600 0.465380
H73 H 0.692700 0.579000 0.427200
O74 O 0.541340 0.799800 0.373190
C75 C 0.541490 0.912700 0.506490
H76 H 0.574600 0.869300 0.558600
C77 C 0.584250 0.717600 -0.058590
O78 O 0.671200 0.849400 -0.034620
H79 H 0.692700 0.921000 -0.072800
O80 O 0.541340 0.700200 -0.126810
C81 C 0.541490 0.587300 0.006490
H82 H 0.574600 0.630700 0.058600
C83 C 0.415750 0.282400 0.058590
O84 O 0.328800 0.150600 0.034620
H85 H 0.307300 0.079000 0.072800
O86 O 0.458660 0.299800 0.126810
C87 C 0.458510 0.412700 -0.006490
H88 H 0.425400 0.369300 -0.058600
C89 C 0.584250 0.717600 0.941410
O90 O 0.671200 0.849400 0.965380
H91 H 0.692700 0.921000 0.927200
O92 O 0.541340 0.700200 0.873190
C93 C 0.541490 0.587300 1.006490
H94 H 0.574600 0.630700 1.058600
C95 C 0.415750 0.282400 1.058590
O96 O 0.328800 0.150600 1.034620
H97 H 0.307300 0.079000 1.072800
O98 O 0.458660 0.299800 1.126810
C99 C 0.458510 0.412700 0.993510
H100 H 0.425400 0.369300 0.941400

#END
