
#######################################################################
#
#                 Cambridge Crystallographic Data Centre
#                                CCDC 
#
#######################################################################
#
# If this CIF has been generated from an entry in the Cambridge 
# Structural Database, then it will include bibliographic, chemical, 
# crystal, experimental, refinement or atomic coordinate data resulting 
# from the CCDC's data processing and validation procedures.
#
#######################################################################

data_LADDAX
_symmetry_cell_setting           monoclinic
_symmetry_space_group_name_H-M   'P 21/c'
_symmetry_Int_Tables_number      14
_space_group_name_Hall           '-P 2ybc'
loop_
_symmetry_equiv_pos_site_id
_symmetry_equiv_pos_as_xyz
1 x,y,z
2 -x,1/2+y,1/2-z
3 -x,-y,-z
4 x,1/2-y,1/2+z
_cell_length_a                   7.3849(5)
_cell_length_b                   31.340(2)
_cell_length_c                   13.3082(9)
_cell_angle_alpha                90
_cell_angle_beta                 90.344(3)
_cell_angle_gamma                90
_cell_volume                     3080.03
loop_
_atom_site_label
_atom_site_type_symbol
_atom_site_fract_x
_atom_site_fract_y
_atom_site_fract_z
Br1 Br 0.72193(4) 0.146960(8) 0.41330(2)
Br2 Br 0.77435(4) 0.326372(9) 0.43436(2)
N1 N 0.5774(3) 0.24385(6) 0.21877(15)
C1 C 0.6048(3) 0.20467(8) 0.25715(17)
N2 N 0.5543(3) 0.17100(7) 0.20137(18)
H1 H 0.503(5) 0.1739(11) 0.144(3)
H2 H 0.572(5) 0.1444(11) 0.222(3)
C2 C 0.6831(3) 0.20108(8) 0.35441(18)
C3 C 0.7314(3) 0.23665(8) 0.40732(19)
H3 H 0.7837 0.2342 0.4724
C4 C 0.7025(3) 0.27652(8) 0.36426(18)
C5 C 0.6243(3) 0.27919(8) 0.27082(18)
H4 H 0.6026 0.3065 0.2421
Br1 Br 0.27807(4) 0.646960(8) 0.08670(2)
Br2 Br 0.22565(4) 0.826372(9) 0.06564(2)
N1 N 0.4226(3) 0.74385(6) 0.28123(15)
C1 C 0.3952(3) 0.70467(8) 0.24285(17)
N2 N 0.4457(3) 0.67100(7) 0.29863(18)
H1 H 0.497(5) 0.6739(11) 0.356(3)
H2 H 0.428(5) 0.6444(11) 0.278(3)
C2 C 0.3169(3) 0.70108(8) 0.14559(18)
C3 C 0.2686(3) 0.73665(8) 0.09268(19)
H3 H 0.2163 0.7342 0.0276
C4 C 0.2975(3) 0.77652(8) 0.13574(18)
C5 C 0.3757(3) 0.77919(8) 0.22918(18)
H4 H 0.3974 0.8065 0.2579
Br1 Br 0.27807(4) 0.853040(8) 0.58670(2)
Br2 Br 0.22565(4) 0.673628(9) 0.56564(2)
N1 N 0.4226(3) 0.75615(6) 0.78123(15)
C1 C 0.3952(3) 0.79533(8) 0.74285(17)
N2 N 0.4457(3) 0.82900(7) 0.79863(18)
H1 H 0.497(5) 0.8261(11) 0.856(3)
H2 H 0.428(5) 0.8556(11) 0.778(3)
C2 C 0.3169(3) 0.79892(8) 0.64559(18)
C3 C 0.2686(3) 0.76335(8) 0.59268(19)
H3 H 0.2163 0.7658 0.5276
C4 C 0.2975(3) 0.72348(8) 0.63574(18)
C5 C 0.3757(3) 0.72081(8) 0.72918(18)
H4 H 0.3974 0.6935 0.7579
Br1 Br 0.72193(4) 0.353040(8) 0.91330(2)
Br2 Br 0.77435(4) 0.173628(9) 0.93436(2)
N1 N 0.5774(3) 0.25615(6) 0.71877(15)
C1 C 0.6048(3) 0.29533(8) 0.75715(17)
N2 N 0.5543(3) 0.32900(7) 0.70137(18)
H1 H 0.503(5) 0.3261(11) 0.644(3)
H2 H 0.572(5) 0.3556(11) 0.722(3)
C2 C 0.6831(3) 0.29892(8) 0.85441(18)
C3 C 0.7314(3) 0.26335(8) 0.90732(19)
H3 H 0.7837 0.2658 0.9724
C4 C 0.7025(3) 0.22348(8) 0.86426(18)
C5 C 0.6243(3) 0.22081(8) 0.77082(18)
H4 H 0.6026 0.1935 0.7421
C6 C 0.2437(3) 0.25598(8) 0.91011(17)
C7 C 0.3308(3) 0.23834(8) 1.00396(17)
O1 O 0.4035(3) 0.26820(6) 1.06015(14)
H5 H 0.460(5) 0.2576(11) 1.108(3)
O2 O 0.3330(3) 0.20042(6) 1.02188(13)
C8 C 0.1808(3) 0.22715(8) 0.83867(17)
H6 H 0.1892 0.1973 0.8498
C9 C 0.1056(3) 0.24313(8) 0.75085(18)
N3 N 0.0377(3) 0.21280(7) 0.67534(15)
O3 O 0.0340(3) 0.17484(6) 0.69702(16)
O4 O -0.0141(3) 0.22713(7) 0.59459(14)
C10 C 0.0885(3) 0.28636(8) 0.73110(18)
H7 H 0.0361 0.2966 0.6703
C11 C 0.1519(4) 0.31387(8) 0.80473(18)
N4 N 0.1336(3) 0.36019(7) 0.78725(18)
O5 O 0.0543(4) 0.37149(7) 0.71081(17)
O6 O 0.1982(3) 0.38429(6) 0.84960(17)
C12 C 0.2293(3) 0.29985(8) 0.89395(18)
H8 H 0.2716 0.3196 0.9429
C6 C 0.7563(3) 0.75598(8) 0.58989(17)
C7 C 0.6692(3) 0.73834(8) 0.49604(17)
O1 O 0.5965(3) 0.76820(6) 0.43985(14)
H5 H 0.540(5) 0.7576(11) 0.392(3)
O2 O 0.6670(3) 0.70042(6) 0.47812(13)
C8 C 0.8192(3) 0.72715(8) 0.66133(17)
H6 H 0.8108 0.6973 0.6502
C9 C 0.8944(3) 0.74313(8) 0.74915(18)
N3 N 0.9623(3) 0.71280(7) 0.82466(15)
O3 O 0.9660(3) 0.67484(6) 0.80298(16)
O4 O 1.0141(3) 0.72713(7) 0.90541(14)
C10 C 0.9115(3) 0.78636(8) 0.76890(18)
H7 H 0.9639 0.7966 0.8297
C11 C 0.8481(4) 0.81387(8) 0.69527(18)
N4 N 0.8664(3) 0.86019(7) 0.71275(18)
O5 O 0.9457(4) 0.87149(7) 0.78919(17)
O6 O 0.8018(3) 0.88429(6) 0.65040(17)
C12 C 0.7707(3) 0.79985(8) 0.60605(18)
H8 H 0.7284 0.8196 0.5571
C6 C 0.7563(3) 0.74402(8) 0.08989(17)
C7 C 0.6692(3) 0.76166(8) -0.00396(17)
O1 O 0.5965(3) 0.73180(6) -0.06015(14)
H5 H 0.540(5) 0.7424(11) -0.108(3)
O2 O 0.6670(3) 0.79958(6) -0.02188(13)
C8 C 0.8192(3) 0.77285(8) 0.16133(17)
H6 H 0.8108 0.8027 0.1502
C9 C 0.8944(3) 0.75687(8) 0.24915(18)
N3 N 0.9623(3) 0.78720(7) 0.32466(15)
O3 O 0.9660(3) 0.82516(6) 0.30298(16)
O4 O 1.0141(3) 0.77287(7) 0.40541(14)
C10 C 0.9115(3) 0.71364(8) 0.26890(18)
H7 H 0.9639 0.7034 0.3297
C11 C 0.8481(4) 0.68613(8) 0.19527(18)
N4 N 0.8664(3) 0.63981(7) 0.21275(18)
O5 O 0.9457(4) 0.62851(7) 0.28919(17)
O6 O 0.8018(3) 0.61571(6) 0.15040(17)
C12 C 0.7707(3) 0.70015(8) 0.10605(18)
H8 H 0.7284 0.6804 0.0571
C6 C 0.2437(3) 0.24402(8) 0.41011(17)
C7 C 0.3308(3) 0.26166(8) 0.50396(17)
O1 O 0.4035(3) 0.23180(6) 0.56015(14)
H5 H 0.460(5) 0.2424(11) 0.608(3)
O2 O 0.3330(3) 0.29958(6) 0.52188(13)
C8 C 0.1808(3) 0.27285(8) 0.33867(17)
H6 H 0.1892 0.3027 0.3498
C9 C 0.1056(3) 0.25687(8) 0.25085(18)
N3 N 0.0377(3) 0.28720(7) 0.17534(15)
O3 O 0.0340(3) 0.32516(6) 0.19702(16)
O4 O -0.0141(3) 0.27287(7) 0.09459(14)
C10 C 0.0885(3) 0.21364(8) 0.23110(18)
H7 H 0.0361 0.2034 0.1703
C11 C 0.1519(4) 0.18613(8) 0.30473(18)
N4 N 0.1336(3) 0.13981(7) 0.28725(18)
O5 O 0.0543(4) 0.12851(7) 0.21081(17)
O6 O 0.1982(3) 0.11571(6) 0.34960(17)
C12 C 0.2293(3) 0.20015(8) 0.39395(18)
H8 H 0.2716 0.1804 0.4429
Br3 Br 0.23158(4) 0.112305(8) 0.94001(2)
Br4 Br 0.27338(4) -0.066815(8) 0.98756(2)
N5 N 0.0274(3) 0.01094(6) 0.77751(15)
C13 C 0.0663(3) 0.05094(8) 0.80742(18)
N6 N 0.0047(3) 0.08360(7) 0.75133(17)
H9 H -0.062(5) 0.0774(11) 0.694(3)
H10 H 0.024(5) 0.1118(11) 0.773(3)
C14 C 0.1733(3) 0.05683(7) 0.89586(18)
C15 C 0.2348(3) 0.02233(8) 0.94921(18)
H11 H 0.3067 0.0261 1.0079
C16 C 0.1894(3) -0.01864(8) 0.91536(18)
C17 C 0.0858(3) -0.02332(8) 0.83025(18)
H12 H 0.0545 -0.0512 0.8079
Br3 Br 0.76842(4) 0.612305(8) 0.55999(2)
Br4 Br 0.72662(4) 0.433185(8) 0.51244(2)
N5 N 0.9726(3) 0.51094(6) 0.72249(15)
C13 C 0.9337(3) 0.55094(8) 0.69258(18)
N6 N 0.9953(3) 0.58360(7) 0.74867(17)
H9 H 1.062(5) 0.5774(11) 0.806(3)
H10 H 0.976(5) 0.6118(11) 0.727(3)
C14 C 0.8267(3) 0.55683(7) 0.60414(18)
C15 C 0.7652(3) 0.52233(8) 0.55079(18)
H11 H 0.6933 0.5261 0.4921
C16 C 0.8106(3) 0.48136(8) 0.58464(18)
C17 C 0.9142(3) 0.47668(8) 0.66975(18)
H12 H 0.9455 0.4488 0.6921
Br3 Br 0.76842(4) 0.887695(8) 0.05999(2)
Br4 Br 0.72662(4) 1.066815(8) 0.01244(2)
N5 N 0.9726(3) 0.98906(6) 0.22249(15)
C13 C 0.9337(3) 0.94906(8) 0.19258(18)
N6 N 0.9953(3) 0.91640(7) 0.24867(17)
H9 H 1.062(5) 0.9226(11) 0.306(3)
H10 H 0.976(5) 0.8882(11) 0.227(3)
C14 C 0.8267(3) 0.94317(7) 0.10414(18)
C15 C 0.7652(3) 0.97767(8) 0.05079(18)
H11 H 0.6933 0.9739 -0.0079
C16 C 0.8106(3) 1.01864(8) 0.08464(18)
C17 C 0.9142(3) 1.02332(8) 0.16975(18)
H12 H 0.9455 1.0512 0.1921
Br3 Br 0.23158(4) 0.387695(8) 0.44001(2)
Br4 Br 0.27338(4) 0.566815(8) 0.48756(2)
N5 N 0.0274(3) 0.48906(6) 0.27751(15)
C13 C 0.0663(3) 0.44906(8) 0.30742(18)
N6 N 0.0047(3) 0.41640(7) 0.25133(17)
H9 H -0.062(5) 0.4226(11) 0.194(3)
H10 H 0.024(5) 0.3882(11) 0.273(3)
C14 C 0.1733(3) 0.44317(7) 0.39586(18)
C15 C 0.2348(3) 0.47767(8) 0.44921(18)
H11 H 0.3067 0.4739 0.5079
C16 C 0.1894(3) 0.51864(8) 0.41536(18)
C17 C 0.0858(3) 0.52332(8) 0.33025(18)
H12 H 0.0545 0.5512 0.3079
C18 C 0.7215(3) 0.99864(8) 0.46147(17)
C19 C 0.8138(3) 1.01719(8) 0.55298(18)
O7 O 0.8708(3) 0.98860(6) 0.61556(14)
H13 H 0.942(4) 1.0015(10) 0.690(3)
O8 O 0.8265(3) 1.05612(6) 0.56353(14)
C20 C 0.6457(3) 1.02655(8) 0.39112(17)
H14 H 0.6597 1.0565 0.3980
C21 C 0.5494(3) 1.00943(8) 0.31085(18)
N7 N 0.4660(3) 1.03854(7) 0.23825(16)
O9 O 0.5092(3) 1.07638(6) 0.24236(16)
O10 O 0.3596(3) 1.02374(7) 0.17708(15)
C22 C 0.5259(3) 0.96604(8) 0.29727(18)
H15 H 0.4585 0.9549 0.2422
C23 C 0.6055(4) 0.93971(8) 0.36789(18)
N8 N 0.5809(4) 0.89319(7) 0.35580(18)
O11 O 0.4902(4) 0.88085(7) 0.28522(19)
O12 O 0.6547(4) 0.86983(7) 0.41709(18)
C24 C 0.7025(3) 0.95476(8) 0.45012(18)
H16 H 0.7546 0.9356 0.4974
C18 C 0.2785(3) 0.49864(8) 0.03853(17)
C19 C 0.1862(3) 0.51719(8) -0.05298(18)
O7 O 0.1292(3) 0.48860(6) -0.11556(14)
H13 H 0.058(4) 0.5015(10) -0.190(3)
O8 O 0.1735(3) 0.55612(6) -0.06353(14)
C20 C 0.3543(3) 0.52655(8) 0.10888(17)
H14 H 0.3403 0.5565 0.1020
C21 C 0.4506(3) 0.50943(8) 0.18915(18)
N7 N 0.5340(3) 0.53854(7) 0.26175(16)
O9 O 0.4908(3) 0.57638(6) 0.25764(16)
O10 O 0.6404(3) 0.52374(7) 0.32292(15)
C22 C 0.4741(3) 0.46604(8) 0.20273(18)
H15 H 0.5415 0.4549 0.2578
C23 C 0.3945(4) 0.43971(8) 0.13211(18)
N8 N 0.4191(4) 0.39319(7) 0.14420(18)
O11 O 0.5098(4) 0.38085(7) 0.21478(19)
O12 O 0.3453(4) 0.36983(7) 0.08291(18)
C24 C 0.2975(3) 0.45476(8) 0.04988(18)
H16 H 0.2454 0.4356 0.0026
C18 C 0.2785(3) 0.00136(8) 0.53853(17)
C19 C 0.1862(3) -0.01719(8) 0.44702(18)
O7 O 0.1292(3) 0.01140(6) 0.38444(14)
H13 H 0.058(4) -0.0015(10) 0.310(3)
O8 O 0.1735(3) -0.05612(6) 0.43647(14)
C20 C 0.3543(3) -0.02655(8) 0.60888(17)
H14 H 0.3403 -0.0565 0.6020
C21 C 0.4506(3) -0.00943(8) 0.68915(18)
N7 N 0.5340(3) -0.03854(7) 0.76175(16)
O9 O 0.4908(3) -0.07638(6) 0.75764(16)
O10 O 0.6404(3) -0.02374(7) 0.82292(15)
C22 C 0.4741(3) 0.03396(8) 0.70273(18)
H15 H 0.5415 0.0451 0.7578
C23 C 0.3945(4) 0.06029(8) 0.63211(18)
N8 N 0.4191(4) 0.10681(7) 0.64420(18)
O11 O 0.5098(4) 0.11915(7) 0.71478(19)
O12 O 0.3453(4) 0.13017(7) 0.58291(18)
C24 C 0.2975(3) 0.04524(8) 0.54988(18)
H16 H 0.2454 0.0644 0.5026
C18 C 0.7215(3) 0.50136(8) 0.96147(17)
C19 C 0.8138(3) 0.48281(8) 1.05298(18)
O7 O 0.8708(3) 0.51140(6) 1.11556(14)
H13 H 0.942(4) 0.4985(10) 1.190(3)
O8 O 0.8265(3) 0.44388(6) 1.06353(14)
C20 C 0.6457(3) 0.47345(8) 0.89112(17)
H14 H 0.6597 0.4435 0.8980
C21 C 0.5494(3) 0.49057(8) 0.81085(18)
N7 N 0.4660(3) 0.46146(7) 0.73825(16)
O9 O 0.5092(3) 0.42362(6) 0.74236(16)
O10 O 0.3596(3) 0.47626(7) 0.67708(15)
C22 C 0.5259(3) 0.53396(8) 0.79727(18)
H15 H 0.4585 0.5451 0.7422
C23 C 0.6055(4) 0.56029(8) 0.86789(18)
N8 N 0.5809(4) 0.60681(7) 0.85580(18)
O11 O 0.4902(4) 0.61915(7) 0.78522(19)
O12 O 0.6547(4) 0.63017(7) 0.91709(18)
C24 C 0.7025(3) 0.54524(8) 0.95012(18)
H16 H 0.7546 0.5644 0.9974

#END
