
#######################################################################
#
#                 Cambridge Crystallographic Data Centre
#                                CCDC 
#
#######################################################################
#
# If this CIF has been generated from an entry in the Cambridge 
# Structural Database, then it will include bibliographic, chemical, 
# crystal, experimental, refinement or atomic coordinate data resulting 
# from the CCDC's data processing and validation procedures.
#
#######################################################################

data_LADFIG
_symmetry_cell_setting           monoclinic
_symmetry_space_group_name_H-M   'P 21/c'
_symmetry_Int_Tables_number      14
_space_group_name_Hall           '-P 2ybc'
loop_
_symmetry_equiv_pos_site_id
_symmetry_equiv_pos_as_xyz
1 x,y,z
2 -x,1/2+y,1/2-z
3 -x,-y,-z
4 x,1/2-y,1/2+z
_cell_length_a                   13.8260(4)
_cell_length_b                   6.9220(3)
_cell_length_c                   11.6390(5)
_cell_angle_alpha                90
_cell_angle_beta                 107.3070(16)
_cell_angle_gamma                90
_cell_volume                     1063.46
loop_
_atom_site_label
_atom_site_type_symbol
_atom_site_fract_x
_atom_site_fract_y
_atom_site_fract_z
B1 B 0.7918(3) 0.0396(5) 0.3164(3)
N1 N 0.8113(2) 0.2627(4) 0.3538(2)
Br1 Br 0.79494(3) -0.11747(5) 0.46388(3)
Br2 Br 0.90243(3) -0.05601(5) 0.24802(3)
O1 O 0.63941(19) 0.1308(3) 0.1396(2)
O2 O 0.65147(18) -0.1759(3) 0.2045(2)
C1 C 0.9102(3) 0.2919(5) 0.4528(3)
H1 H 0.9184 0.4291 0.4743
H2 H 0.9667 0.2493 0.4245
H3 H 0.9093 0.2162 0.5236
C2 C 0.7277(3) 0.3379(5) 0.3995(3)
H4 H 0.7401 0.4744 0.4213
H5 H 0.7258 0.2636 0.4704
H6 H 0.6628 0.3247 0.3365
C3 C 0.8164(3) 0.3902(5) 0.2509(3)
H7 H 0.7539 0.3764 0.1842
H8 H 0.8744 0.3521 0.2240
H9 H 0.8243 0.5251 0.2776
C4 C 0.6857(3) 0.0083(5) 0.2103(3)
C5 C 0.5581(3) -0.2194(5) 0.1092(3)
H10 H 0.5722 -0.2347 0.0311
H11 H 0.5084 -0.1135 0.1016
C6 C 0.5172(3) -0.4041(5) 0.1438(3)
H12 H 0.5666 -0.5079 0.1498
H13 H 0.4537 -0.4376 0.0825
H14 H 0.5045 -0.3874 0.2217
B1 B 0.2082(3) 0.5396(5) 0.1836(3)
N1 N 0.1887(2) 0.7627(4) 0.1462(2)
Br1 Br 0.20506(3) 0.38253(5) 0.03612(3)
Br2 Br 0.09757(3) 0.44399(5) 0.25198(3)
O1 O 0.36059(19) 0.6308(3) 0.3604(2)
O2 O 0.34853(18) 0.3241(3) 0.2955(2)
C1 C 0.0898(3) 0.7919(5) 0.0472(3)
H1 H 0.0816 0.9291 0.0257
H2 H 0.0333 0.7493 0.0755
H3 H 0.0907 0.7162 -0.0236
C2 C 0.2723(3) 0.8379(5) 0.1005(3)
H4 H 0.2599 0.9744 0.0787
H5 H 0.2742 0.7636 0.0296
H6 H 0.3372 0.8247 0.1635
C3 C 0.1836(3) 0.8902(5) 0.2491(3)
H7 H 0.2461 0.8764 0.3158
H8 H 0.1256 0.8521 0.2760
H9 H 0.1757 1.0251 0.2224
C4 C 0.3143(3) 0.5083(5) 0.2897(3)
C5 C 0.4419(3) 0.2806(5) 0.3908(3)
H10 H 0.4278 0.2653 0.4689
H11 H 0.4916 0.3865 0.3984
C6 C 0.4828(3) 0.0959(5) 0.3562(3)
H12 H 0.4334 -0.0079 0.3502
H13 H 0.5463 0.0624 0.4175
H14 H 0.4955 0.1126 0.2783
B1 B 0.2082(3) 0.9604(5) 0.6836(3)
N1 N 0.1887(2) 0.7373(4) 0.6462(2)
Br1 Br 0.20506(3) 1.11747(5) 0.53612(3)
Br2 Br 0.09757(3) 1.05601(5) 0.75198(3)
O1 O 0.36059(19) 0.8692(3) 0.8604(2)
O2 O 0.34853(18) 1.1759(3) 0.7955(2)
C1 C 0.0898(3) 0.7081(5) 0.5472(3)
H1 H 0.0816 0.5709 0.5257
H2 H 0.0333 0.7507 0.5755
H3 H 0.0907 0.7838 0.4764
C2 C 0.2723(3) 0.6621(5) 0.6005(3)
H4 H 0.2599 0.5256 0.5787
H5 H 0.2742 0.7364 0.5296
H6 H 0.3372 0.6753 0.6635
C3 C 0.1836(3) 0.6098(5) 0.7491(3)
H7 H 0.2461 0.6236 0.8158
H8 H 0.1256 0.6479 0.7760
H9 H 0.1757 0.4749 0.7224
C4 C 0.3143(3) 0.9917(5) 0.7897(3)
C5 C 0.4419(3) 1.2194(5) 0.8908(3)
H10 H 0.4278 1.2347 0.9689
H11 H 0.4916 1.1135 0.8984
C6 C 0.4828(3) 1.4041(5) 0.8562(3)
H12 H 0.4334 1.5079 0.8502
H13 H 0.5463 1.4376 0.9175
H14 H 0.4955 1.3874 0.7783
B1 B 0.7918(3) 0.4604(5) 0.8164(3)
N1 N 0.8113(2) 0.2373(4) 0.8538(2)
Br1 Br 0.79494(3) 0.61747(5) 0.96388(3)
Br2 Br 0.90243(3) 0.55601(5) 0.74802(3)
O1 O 0.63941(19) 0.3692(3) 0.6396(2)
O2 O 0.65147(18) 0.6759(3) 0.7045(2)
C1 C 0.9102(3) 0.2081(5) 0.9528(3)
H1 H 0.9184 0.0709 0.9743
H2 H 0.9667 0.2507 0.9245
H3 H 0.9093 0.2838 1.0236
C2 C 0.7277(3) 0.1621(5) 0.8995(3)
H4 H 0.7401 0.0256 0.9213
H5 H 0.7258 0.2364 0.9704
H6 H 0.6628 0.1753 0.8365
C3 C 0.8164(3) 0.1098(5) 0.7509(3)
H7 H 0.7539 0.1236 0.6842
H8 H 0.8744 0.1479 0.7240
H9 H 0.8243 -0.0251 0.7776
C4 C 0.6857(3) 0.4917(5) 0.7103(3)
C5 C 0.5581(3) 0.7194(5) 0.6092(3)
H10 H 0.5722 0.7347 0.5311
H11 H 0.5084 0.6135 0.6016
C6 C 0.5172(3) 0.9041(5) 0.6438(3)
H12 H 0.5666 1.0079 0.6498
H13 H 0.4537 0.9376 0.5825
H14 H 0.5045 0.8874 0.7217

#END
