./LADFIG_from_xyz.cif_generated_by_CrystalShift
_symmetry_cell_setting triclinic
_symmetry_space_group_name_H-M 'P 1'
loop_
_symmetry_equiv_pos_site_id
_symmetry_equiv_pos_as_xyz
1 x,y,z
_cell_length_a 13.826000
_cell_length_b 6.922000
_cell_length_c 11.639000
_cell_angle_alpha 90.000000
_cell_angle_beta 107.307000
_cell_angle_gamma 90.000000
_cell_volume 1063.461729
loop_
_atom_site_label
_atom_site_type_symbol
_atom_site_fract_x
_atom_site_fract_y
_atom_site_fract_z
B1 B 0.791800 0.039600 0.316400
N2 N 0.811300 0.262700 0.353800
Br3 Br 0.794940 -0.117470 0.463880
Br4 Br 0.902430 -0.056010 0.248020
O5 O 0.639410 0.130800 0.139600
O6 O 0.651470 -0.175900 0.204500
C7 C 0.910200 0.291900 0.452800
H8 H 0.918400 0.429100 0.474300
H9 H 0.966700 0.249300 0.424500
H10 H 0.909300 0.216200 0.523600
C11 C 0.727700 0.337900 0.399500
H12 H 0.740100 0.474400 0.421300
H13 H 0.725800 0.263600 0.470400
H14 H 0.662800 0.324700 0.336500
C15 C 0.816400 0.390200 0.250900
H16 H 0.753900 0.376400 0.184200
H17 H 0.874400 0.352100 0.224000
H18 H 0.824300 0.525100 0.277600
C19 C 0.685700 0.008300 0.210300
C20 C 0.558100 -0.219400 0.109200
H21 H 0.572200 -0.234700 0.031100
H22 H 0.508400 -0.113500 0.101600
C23 C 0.517200 -0.404100 0.143800
H24 H 0.566600 -0.507900 0.149800
H25 H 0.453700 -0.437600 0.082500
H26 H 0.504500 -0.387400 0.221700
B27 B 0.208200 0.539600 0.183600
N28 N 0.188700 0.762700 0.146200
Br29 Br 0.205060 0.382530 0.036120
Br30 Br 0.097570 0.443990 0.251980
O31 O 0.360590 0.630800 0.360400
O32 O 0.348530 0.324100 0.295500
C33 C 0.089800 0.791900 0.047200
H34 H 0.081600 0.929100 0.025700
H35 H 0.033300 0.749300 0.075500
H36 H 0.090700 0.716200 -0.023600
C37 C 0.272300 0.837900 0.100500
H38 H 0.259900 0.974400 0.078700
H39 H 0.274200 0.763600 0.029600
H40 H 0.337200 0.824700 0.163500
C41 C 0.183600 0.890200 0.249100
H42 H 0.246100 0.876400 0.315800
H43 H 0.125600 0.852100 0.276000
H44 H 0.175700 1.025100 0.222400
C45 C 0.314300 0.508300 0.289700
C46 C 0.441900 0.280600 0.390800
H47 H 0.427800 0.265300 0.468900
H48 H 0.491600 0.386500 0.398400
C49 C 0.482800 0.095900 0.356200
H50 H 0.433400 -0.007900 0.350200
H51 H 0.546300 0.062400 0.417500
H52 H 0.495500 0.112600 0.278300
B53 B 0.208200 0.960400 0.683600
N54 N 0.188700 0.737300 0.646200
Br55 Br 0.205060 1.117470 0.536120
Br56 Br 0.097570 1.056010 0.751980
O57 O 0.360590 0.869200 0.860400
O58 O 0.348530 1.175900 0.795500
C59 C 0.089800 0.708100 0.547200
H60 H 0.081600 0.570900 0.525700
H61 H 0.033300 0.750700 0.575500
H62 H 0.090700 0.783800 0.476400
C63 C 0.272300 0.662100 0.600500
H64 H 0.259900 0.525600 0.578700
H65 H 0.274200 0.736400 0.529600
H66 H 0.337200 0.675300 0.663500
C67 C 0.183600 0.609800 0.749100
H68 H 0.246100 0.623600 0.815800
H69 H 0.125600 0.647900 0.776000
H70 H 0.175700 0.474900 0.722400
C71 C 0.314300 0.991700 0.789700
C72 C 0.441900 1.219400 0.890800
H73 H 0.427800 1.234700 0.968900
H74 H 0.491600 1.113500 0.898400
C75 C 0.482800 1.404100 0.856200
H76 H 0.433400 1.507900 0.850200
H77 H 0.546300 1.437600 0.917500
H78 H 0.495500 1.387400 0.778300
B79 B 0.791800 0.460400 0.816400
N80 N 0.811300 0.237300 0.853800
Br81 Br 0.794940 0.617470 0.963880
Br82 Br 0.902430 0.556010 0.748020
O83 O 0.639410 0.369200 0.639600
O84 O 0.651470 0.675900 0.704500
C85 C 0.910200 0.208100 0.952800
H86 H 0.918400 0.070900 0.974300
H87 H 0.966700 0.250700 0.924500
H88 H 0.909300 0.283800 1.023600
C89 C 0.727700 0.162100 0.899500
H90 H 0.740100 0.025600 0.921300
H91 H 0.725800 0.236400 0.970400
H92 H 0.662800 0.175300 0.836500
C93 C 0.816400 0.109800 0.750900
H94 H 0.753900 0.123600 0.684200
H95 H 0.874400 0.147900 0.724000
H96 H 0.824300 -0.025100 0.777600
C97 C 0.685700 0.491700 0.710300
C98 C 0.558100 0.719400 0.609200
H99 H 0.572200 0.734700 0.531100
H100 H 0.508400 0.613500 0.601600
C101 C 0.517200 0.904100 0.643800
H102 H 0.566600 1.007900 0.649800
H103 H 0.453700 0.937600 0.582500
H104 H 0.504500 0.887400 0.721700

#END
