./LADHON_from_xyz.cif_generated_by_CrystalShift
_symmetry_cell_setting triclinic
_symmetry_space_group_name_H-M 'P 1'
loop_
_symmetry_equiv_pos_site_id
_symmetry_equiv_pos_as_xyz
1 x,y,z
_cell_length_a 8.497000
_cell_length_b 7.153000
_cell_length_c 12.599000
_cell_angle_alpha 90.000000
_cell_angle_beta 102.130000
_cell_angle_gamma 90.000000
_cell_volume 748.658358
loop_
_atom_site_label
_atom_site_type_symbol
_atom_site_fract_x
_atom_site_fract_y
_atom_site_fract_z
S1 S 0.357600 0.465000 0.140000
S2 S 0.142600 0.227800 -0.076000
P3 P 0.262100 0.211900 0.071440
O4 O 0.431800 0.096600 0.091000
N5 N 0.159100 0.110800 0.151900
C6 C 0.565600 0.370000 0.177600
C7 C 0.572800 0.213000 0.098600
C8 C 0.218100 0.082400 0.267200
C9 C 0.159900 -0.106900 0.298900
C10 C 0.169700 0.238300 0.337500
C11 C 0.035900 0.348700 0.296700
C12 C -0.016100 0.484000 0.363900
C13 C 0.063600 0.508400 0.467900
C14 C 0.200900 0.398100 0.513700
C15 C 0.279100 0.417100 0.622200
C16 C 0.405400 0.307000 0.666300
C17 C 0.463200 0.173800 0.600900
C18 C 0.389900 0.151500 0.495300
C19 C 0.253600 0.260600 0.446500
H20 H 0.070000 0.066000 0.115000
H21 H 0.587000 0.324000 0.250000
H22 H 0.642000 0.464000 0.171000
H23 H 0.576000 0.262000 0.029000
H24 H 0.667000 0.140000 0.124000
H25 H 0.332000 0.084000 0.280000
H26 H 0.198000 -0.127000 0.374000
H27 H 0.046000 -0.107000 0.283000
H28 H 0.198000 -0.204000 0.259000
H29 H -0.021000 0.333000 0.224000
H30 H -0.107000 0.559000 0.336000
H31 H -0.027000 0.601000 0.511000
H32 H 0.242000 0.509000 0.666000
H33 H 0.456000 0.320000 0.741000
H34 H 0.554000 0.099000 0.631000
H35 H 0.430000 0.060000 0.453000
S36 S 0.642400 0.965000 0.860000
S37 S 0.857400 0.727800 1.076000
P38 P 0.737900 0.711900 0.928560
O39 O 0.568200 0.596600 0.909000
N40 N 0.840900 0.610800 0.848100
C41 C 0.434400 0.870000 0.822400
C42 C 0.427200 0.713000 0.901400
C43 C 0.781900 0.582400 0.732800
C44 C 0.840100 0.393100 0.701100
C45 C 0.830300 0.738300 0.662500
C46 C 0.964100 0.848700 0.703300
C47 C 1.016100 0.984000 0.636100
C48 C 0.936400 1.008400 0.532100
C49 C 0.799100 0.898100 0.486300
C50 C 0.720900 0.917100 0.377800
C51 C 0.594600 0.807000 0.333700
C52 C 0.536800 0.673800 0.399100
C53 C 0.610100 0.651500 0.504700
C54 C 0.746400 0.760600 0.553500
H55 H 0.930000 0.566000 0.885000
H56 H 0.413000 0.824000 0.750000
H57 H 0.358000 0.964000 0.829000
H58 H 0.424000 0.762000 0.971000
H59 H 0.333000 0.640000 0.876000
H60 H 0.668000 0.584000 0.720000
H61 H 0.802000 0.373000 0.626000
H62 H 0.954000 0.393000 0.717000
H63 H 0.802000 0.296000 0.741000
H64 H 1.021000 0.833000 0.776000
H65 H 1.107000 1.059000 0.664000
H66 H 1.027000 1.101000 0.489000
H67 H 0.758000 1.009000 0.334000
H68 H 0.544000 0.820000 0.259000
H69 H 0.446000 0.599000 0.369000
H70 H 0.570000 0.560000 0.547000

#END
