
#######################################################################
#
#                 Cambridge Crystallographic Data Centre
#                                CCDC 
#
#######################################################################
#
# If this CIF has been generated from an entry in the Cambridge 
# Structural Database, then it will include bibliographic, chemical, 
# crystal, experimental, refinement or atomic coordinate data resulting 
# from the CCDC's data processing and validation procedures.
#
#######################################################################

data_LADJIJ
_symmetry_cell_setting           monoclinic
_symmetry_space_group_name_H-M   'P 21/n'
_symmetry_Int_Tables_number      14
_space_group_name_Hall           '-P 2yn'
loop_
_symmetry_equiv_pos_site_id
_symmetry_equiv_pos_as_xyz
1 x,y,z
2 1/2-x,1/2+y,1/2-z
3 -x,-y,-z
4 1/2+x,1/2-y,1/2+z
_cell_length_a                   8.678(2)
_cell_length_b                   16.198(3)
_cell_length_c                   10.845(2)
_cell_angle_alpha                90
_cell_angle_beta                 90.22(3)
_cell_angle_gamma                90
_cell_volume                     1524.43
loop_
_atom_site_label
_atom_site_type_symbol
_atom_site_fract_x
_atom_site_fract_y
_atom_site_fract_z
Re1 Re 0.2259(1) 0.1927(1) 0.4346(1)
C1 C 0.2966(10) 0.3164(5) 0.3618(9)
C2 C 0.3994(9) 0.2888(6) 0.4551(8)
C3 C 0.4773(8) 0.2161(6) 0.4247(8)
C4 C 0.5717(9) 0.1683(5) 0.5189(7)
O1 O 0.7099(6) 0.1588(4) 0.5092(5)
C5 C 0.4762(9) 0.1382(5) 0.6184(7)
C6 C 0.3211(8) 0.1387(5) 0.6013(7)
C7 C 0.2094(8) 0.1012(6) 0.6939(8)
C8 C 0.2625(9) 0.0524(5) 0.8069(7)
C9 C 0.1160(8) 0.0199(5) 0.8719(7)
C10 C 0.3572(10) -0.0223(6) 0.7708(12)
C11 C 0.3470(11) 0.1072(7) 0.8997(8)
C12 C 0.1075(9) 0.2542(5) 0.5514(7)
O2 O 0.0306(7) 0.2897(4) 0.6178(5)
C13 C 0.0385(8) 0.1006(6) 0.4022(7)
C14 C 0.1804(8) 0.0605(5) 0.3759(7)
C15 C 0.2462(8) 0.0982(6) 0.2718(7)
C16 C 0.1476(9) 0.1645(6) 0.2346(7)
C17 C 0.0195(9) 0.1659(5) 0.3160(7)
H1 H 0.2315 0.3624 0.3818
H2 H 0.3355 0.3178 0.2791
H3 H 0.4180 0.3184 0.5304
H4 H 0.5184 0.2146 0.3427
H5 H 0.5213 0.1179 0.6935
H6 H 0.1433 0.0652 0.6474
H7 H 0.1459 0.1453 0.7241
H8 H 0.1430 -0.0114 0.9440
H9 H 0.0546 0.0666 0.8955
H10 H 0.0582 -0.0142 0.8161
H11 H 0.4498 -0.0042 0.7308
H12 H 0.3835 -0.0537 0.8429
H13 H 0.2984 -0.0561 0.7151
H14 H 0.4400 0.1270 0.8622
H15 H 0.2832 0.1532 0.9220
H16 H 0.3723 0.0760 0.9723
H17 H -0.0360 0.0831 0.4619
H18 H 0.2195 0.0121 0.4164
H19 H 0.3401 0.0825 0.2316
H20 H 0.1620 0.1999 0.1645
H21 H -0.0701 0.2003 0.3076
Re1 Re 0.2741(1) 0.6927(1) 1.0654(1)
C1 C 0.2034(10) 0.8164(5) 1.1382(9)
C2 C 0.1006(9) 0.7888(6) 1.0449(8)
C3 C 0.0227(8) 0.7161(6) 1.0753(8)
C4 C -0.0717(9) 0.6683(5) 0.9811(7)
O1 O -0.2099(6) 0.6588(4) 0.9908(5)
C5 C 0.0238(9) 0.6382(5) 0.8816(7)
C6 C 0.1789(8) 0.6387(5) 0.8987(7)
C7 C 0.2906(8) 0.6012(6) 0.8061(8)
C8 C 0.2375(9) 0.5524(5) 0.6931(7)
C9 C 0.3840(8) 0.5199(5) 0.6281(7)
C10 C 0.1428(10) 0.4777(6) 0.7292(12)
C11 C 0.1530(11) 0.6072(7) 0.6003(8)
C12 C 0.3925(9) 0.7542(5) 0.9486(7)
O2 O 0.4694(7) 0.7897(4) 0.8822(5)
C13 C 0.4615(8) 0.6006(6) 1.0978(7)
C14 C 0.3196(8) 0.5605(5) 1.1241(7)
C15 C 0.2538(8) 0.5982(6) 1.2282(7)
C16 C 0.3524(9) 0.6645(6) 1.2654(7)
C17 C 0.4805(9) 0.6659(5) 1.1840(7)
H1 H 0.2685 0.8624 1.1182
H2 H 0.1645 0.8178 1.2209
H3 H 0.0820 0.8184 0.9696
H4 H -0.0184 0.7146 1.1573
H5 H -0.0213 0.6179 0.8065
H6 H 0.3567 0.5652 0.8526
H7 H 0.3541 0.6453 0.7759
H8 H 0.3570 0.4886 0.5560
H9 H 0.4454 0.5666 0.6045
H10 H 0.4418 0.4858 0.6839
H11 H 0.0502 0.4958 0.7692
H12 H 0.1165 0.4463 0.6571
H13 H 0.2016 0.4439 0.7849
H14 H 0.0600 0.6270 0.6378
H15 H 0.2168 0.6532 0.5780
H16 H 0.1277 0.5760 0.5277
H17 H 0.5360 0.5831 1.0381
H18 H 0.2805 0.5121 1.0836
H19 H 0.1599 0.5825 1.2684
H20 H 0.3380 0.6999 1.3355
H21 H 0.5701 0.7003 1.1924
Re1 Re 0.7741(1) 0.8073(1) 0.5654(1)
C1 C 0.7034(10) 0.6836(5) 0.6382(9)
C2 C 0.6006(9) 0.7112(6) 0.5449(8)
C3 C 0.5227(8) 0.7839(6) 0.5753(8)
C4 C 0.4283(9) 0.8317(5) 0.4811(7)
O1 O 0.2901(6) 0.8412(4) 0.4908(5)
C5 C 0.5238(9) 0.8618(5) 0.3816(7)
C6 C 0.6789(8) 0.8613(5) 0.3987(7)
C7 C 0.7906(8) 0.8988(6) 0.3061(8)
C8 C 0.7375(9) 0.9476(5) 0.1931(7)
C9 C 0.8840(8) 0.9801(5) 0.1281(7)
C10 C 0.6428(10) 1.0223(6) 0.2292(12)
C11 C 0.6530(11) 0.8928(7) 0.1003(8)
C12 C 0.8925(9) 0.7458(5) 0.4486(7)
O2 O 0.9694(7) 0.7103(4) 0.3822(5)
C13 C 0.9615(8) 0.8994(6) 0.5978(7)
C14 C 0.8196(8) 0.9395(5) 0.6241(7)
C15 C 0.7538(8) 0.9018(6) 0.7282(7)
C16 C 0.8524(9) 0.8355(6) 0.7654(7)
C17 C 0.9805(9) 0.8341(5) 0.6840(7)
H1 H 0.7685 0.6376 0.6182
H2 H 0.6645 0.6822 0.7209
H3 H 0.5820 0.6816 0.4696
H4 H 0.4816 0.7854 0.6573
H5 H 0.4787 0.8821 0.3065
H6 H 0.8567 0.9348 0.3526
H7 H 0.8541 0.8547 0.2759
H8 H 0.8570 1.0114 0.0560
H9 H 0.9454 0.9334 0.1045
H10 H 0.9418 1.0142 0.1839
H11 H 0.5502 1.0042 0.2692
H12 H 0.6165 1.0537 0.1571
H13 H 0.7016 1.0561 0.2849
H14 H 0.5600 0.8730 0.1378
H15 H 0.7168 0.8468 0.0780
H16 H 0.6277 0.9240 0.0277
H17 H 1.0360 0.9169 0.5381
H18 H 0.7805 0.9879 0.5836
H19 H 0.6599 0.9175 0.7684
H20 H 0.8380 0.8001 0.8355
H21 H 1.0701 0.7997 0.6924
Re1 Re 0.7259(1) 0.3073(1) -0.0654(1)
C1 C 0.7966(10) 0.1836(5) -0.1382(9)
C2 C 0.8994(9) 0.2112(6) -0.0449(8)
C3 C 0.9773(8) 0.2839(6) -0.0753(8)
C4 C 1.0717(9) 0.3317(5) 0.0189(7)
O1 O 1.2099(6) 0.3412(4) 0.0092(5)
C5 C 0.9762(9) 0.3618(5) 0.1184(7)
C6 C 0.8211(8) 0.3613(5) 0.1013(7)
C7 C 0.7094(8) 0.3988(6) 0.1939(8)
C8 C 0.7625(9) 0.4476(5) 0.3069(7)
C9 C 0.6160(8) 0.4801(5) 0.3719(7)
C10 C 0.8572(10) 0.5223(6) 0.2708(12)
C11 C 0.8470(11) 0.3928(7) 0.3997(8)
C12 C 0.6075(9) 0.2458(5) 0.0514(7)
O2 O 0.5306(7) 0.2103(4) 0.1178(5)
C13 C 0.5385(8) 0.3994(6) -0.0978(7)
C14 C 0.6804(8) 0.4395(5) -0.1241(7)
C15 C 0.7462(8) 0.4018(6) -0.2282(7)
C16 C 0.6476(9) 0.3355(6) -0.2654(7)
C17 C 0.5195(9) 0.3341(5) -0.1840(7)
H1 H 0.7315 0.1376 -0.1182
H2 H 0.8355 0.1822 -0.2209
H3 H 0.9180 0.1816 0.0304
H4 H 1.0184 0.2854 -0.1573
H5 H 1.0213 0.3821 0.1935
H6 H 0.6433 0.4348 0.1474
H7 H 0.6459 0.3547 0.2241
H8 H 0.6430 0.5114 0.4440
H9 H 0.5546 0.4334 0.3955
H10 H 0.5582 0.5142 0.3161
H11 H 0.9498 0.5042 0.2308
H12 H 0.8835 0.5537 0.3429
H13 H 0.7984 0.5561 0.2151
H14 H 0.9400 0.3730 0.3622
H15 H 0.7832 0.3468 0.4220
H16 H 0.8723 0.4240 0.4723
H17 H 0.4640 0.4169 -0.0381
H18 H 0.7195 0.4879 -0.0836
H19 H 0.8401 0.4175 -0.2684
H20 H 0.6620 0.3001 -0.3355
H21 H 0.4299 0.2997 -0.1924

#END
