./LADKOR_from_xyz.cif_generated_by_CrystalShift
_symmetry_cell_setting triclinic
_symmetry_space_group_name_H-M 'P 1'
loop_
_symmetry_equiv_pos_site_id
_symmetry_equiv_pos_as_xyz
1 x,y,z
_cell_length_a 6.562900
_cell_length_b 8.793700
_cell_length_c 34.480000
_cell_angle_alpha 90.000000
_cell_angle_beta 90.000000
_cell_angle_gamma 90.000000
_cell_volume 1989.915750
loop_
_atom_site_label
_atom_site_type_symbol
_atom_site_fract_x
_atom_site_fract_y
_atom_site_fract_z
O1 O 0.373500 1.314500 0.120190
H2 H 0.407000 1.418000 0.124000
O3 O 0.551000 0.596300 0.127460
O4 O 0.844300 0.473700 0.120340
H5 H 0.752000 0.394000 0.112200
O6 O 0.626800 0.571900 0.209980
O7 O 0.729900 0.768800 0.244820
N8 N 0.555300 1.260600 0.103070
C9 C 0.927600 1.004700 0.147710
H10 H 1.055500 0.992400 0.134000
H11 H 0.874600 1.104800 0.141600
C12 C 0.967400 0.995400 0.190810
H13 H 0.840900 1.011000 0.204800
H14 H 1.061700 1.075000 0.198300
C15 C 1.055900 0.841800 0.201400
H16 H 1.074300 0.837800 0.229300
H17 H 1.189400 0.832700 0.189600
C18 C 0.926600 0.705500 0.188990
C19 C 0.865200 0.724500 0.145100
H20 H 0.993400 0.716000 0.130700
C21 C 0.736100 0.594400 0.130750
C22 C 0.531600 1.131000 0.088150
H23 H 0.403900 1.085700 0.089700
C24 C 0.697500 1.047000 0.068170
C25 C 0.737400 0.887300 0.087990
H26 H 0.609000 0.832100 0.084500
C27 C 0.775000 0.883200 0.133120
C28 C 0.890900 0.801200 0.061400
H29 H 0.942900 0.714100 0.075500
H30 H 0.817600 0.763000 0.039000
C31 C 1.071400 0.895000 0.047120
H32 H 1.146200 0.837900 0.027700
H33 H 1.162800 0.915700 0.068600
C34 C 0.997700 1.044900 0.029630
H35 H 1.109200 1.100900 0.017300
C36 C 0.894100 1.139200 0.061040
H37 H 0.863900 1.241200 0.052000
H38 H 0.977100 1.145200 0.084300
C39 C 0.628400 1.020800 0.025140
H40 H 0.555000 0.925500 0.022700
H41 H 0.540800 1.102900 0.016500
C42 C 0.823100 1.016900 0.001650
C43 C 0.838700 0.996600 -0.036050
H44 H 0.722200 0.982900 -0.051000
H45 H 0.966400 0.996100 -0.047800
C46 C 1.060900 0.561200 0.193490
H47 H 1.100200 0.549900 0.220200
H48 H 1.180600 0.571200 0.177700
H49 H 0.985000 0.473500 0.185400
C50 C 0.744500 0.675000 0.214880
C51 C 0.569000 0.912000 0.153950
H52 H 0.587800 0.903900 0.181500
H53 H 0.471000 0.838000 0.145600
H54 H 0.520700 1.012100 0.147700
C55 C 0.564400 0.740600 0.271830
H56 H 0.436600 0.746700 0.258400
H57 H 0.567600 0.815400 0.292100
H58 H 0.579400 0.641000 0.282900
O59 O 1.126500 -0.314500 0.620190
H60 H 1.093000 -0.418000 0.624000
O61 O 0.949000 0.403700 0.627460
O62 O 0.655700 0.526300 0.620340
H63 H 0.748000 0.606000 0.612200
O64 O 0.873200 0.428100 0.709980
O65 O 0.770100 0.231200 0.744820
N66 N 0.944700 -0.260600 0.603070
C67 C 0.572400 -0.004700 0.647710
H68 H 0.444500 0.007600 0.634000
H69 H 0.625400 -0.104800 0.641600
C70 C 0.532600 0.004600 0.690810
H71 H 0.659100 -0.011000 0.704800
H72 H 0.438300 -0.075000 0.698300
C73 C 0.444100 0.158200 0.701400
H74 H 0.425700 0.162200 0.729300
H75 H 0.310600 0.167300 0.689600
C76 C 0.573400 0.294500 0.688990
C77 C 0.634800 0.275500 0.645100
H78 H 0.506600 0.284000 0.630700
C79 C 0.763900 0.405600 0.630750
C80 C 0.968400 -0.131000 0.588150
H81 H 1.096100 -0.085700 0.589700
C82 C 0.802500 -0.047000 0.568170
C83 C 0.762600 0.112700 0.587990
H84 H 0.891000 0.167900 0.584500
C85 C 0.725000 0.116800 0.633120
C86 C 0.609100 0.198800 0.561400
H87 H 0.557100 0.285900 0.575500
H88 H 0.682400 0.237000 0.539000
C89 C 0.428600 0.105000 0.547120
H90 H 0.353800 0.162100 0.527700
H91 H 0.337200 0.084300 0.568600
C92 C 0.502300 -0.044900 0.529630
H93 H 0.390800 -0.100900 0.517300
C94 C 0.605900 -0.139200 0.561040
H95 H 0.636100 -0.241200 0.552000
H96 H 0.522900 -0.145200 0.584300
C97 C 0.871600 -0.020800 0.525140
H98 H 0.945000 0.074500 0.522700
H99 H 0.959200 -0.102900 0.516500
C100 C 0.676900 -0.016900 0.501650
C101 C 0.661300 0.003400 0.463950
H102 H 0.777800 0.017100 0.449000
H103 H 0.533600 0.003900 0.452200
C104 C 0.439100 0.438800 0.693490
H105 H 0.399800 0.450100 0.720200
H106 H 0.319400 0.428800 0.677700
H107 H 0.515000 0.526500 0.685400
C108 C 0.755500 0.325000 0.714880
C109 C 0.931000 0.088000 0.653950
H110 H 0.912200 0.096100 0.681500
H111 H 1.029000 0.162000 0.645600
H112 H 0.979300 -0.012100 0.647700
C113 C 0.935600 0.259400 0.771830
H114 H 1.063400 0.253300 0.758400
H115 H 0.932400 0.184600 0.792100
H116 H 0.920600 0.359000 0.782900
O117 O -0.126500 0.185500 0.879810
H118 H -0.093000 0.082000 0.876000
O119 O 0.051000 0.903700 0.872540
O120 O 0.344300 1.026300 0.879660
H121 H 0.252000 1.106000 0.887800
O122 O 0.126800 0.928100 0.790020
O123 O 0.229900 0.731200 0.755180
N124 N 0.055300 0.239400 0.896930
C125 C 0.427600 0.495300 0.852290
H126 H 0.555500 0.507600 0.866000
H127 H 0.374600 0.395200 0.858400
C128 C 0.467400 0.504600 0.809190
H129 H 0.340900 0.489000 0.795200
H130 H 0.561700 0.425000 0.801700
C131 C 0.555900 0.658200 0.798600
H132 H 0.574300 0.662200 0.770700
H133 H 0.689400 0.667300 0.810400
C134 C 0.426600 0.794500 0.811010
C135 C 0.365200 0.775500 0.854900
H136 H 0.493400 0.784000 0.869300
C137 C 0.236100 0.905600 0.869250
C138 C 0.031600 0.369000 0.911850
H139 H -0.096100 0.414300 0.910300
C140 C 0.197500 0.453000 0.931830
C141 C 0.237400 0.612700 0.912010
H142 H 0.109000 0.667900 0.915500
C143 C 0.275000 0.616800 0.866880
C144 C 0.390900 0.698800 0.938600
H145 H 0.442900 0.785900 0.924500
H146 H 0.317600 0.737000 0.961000
C147 C 0.571400 0.605000 0.952880
H148 H 0.646200 0.662100 0.972300
H149 H 0.662800 0.584300 0.931400
C150 C 0.497700 0.455100 0.970370
H151 H 0.609200 0.399100 0.982700
C152 C 0.394100 0.360800 0.938960
H153 H 0.363900 0.258800 0.948000
H154 H 0.477100 0.354800 0.915700
C155 C 0.128400 0.479200 0.974860
H156 H 0.055000 0.574500 0.977300
H157 H 0.040800 0.397100 0.983500
C158 C 0.323100 0.483100 0.998350
C159 C 0.338700 0.503400 1.036050
H160 H 0.222200 0.517100 1.051000
H161 H 0.466400 0.503900 1.047800
C162 C 0.560900 0.938800 0.806510
H163 H 0.600200 0.950100 0.779800
H164 H 0.680600 0.928800 0.822300
H165 H 0.485000 1.026500 0.814600
C166 C 0.244500 0.825000 0.785120
C167 C 0.069000 0.588000 0.846050
H168 H 0.087800 0.596100 0.818500
H169 H -0.029000 0.662000 0.854400
H170 H 0.020700 0.487900 0.852300
C171 C 0.064400 0.759400 0.728170
H172 H -0.063400 0.753300 0.741600
H173 H 0.067600 0.684600 0.707900
H174 H 0.079400 0.859000 0.717100
O175 O 0.626500 0.814500 0.379810
H176 H 0.593000 0.918000 0.376000
O177 O 0.449000 0.096300 0.372540
O178 O 0.155700 -0.026300 0.379660
H179 H 0.248000 -0.106000 0.387800
O180 O 0.373200 0.071900 0.290020
O181 O 0.270100 0.268800 0.255180
N182 N 0.444700 0.760600 0.396930
C183 C 0.072400 0.504700 0.352290
H184 H -0.055500 0.492400 0.366000
H185 H 0.125400 0.604800 0.358400
C186 C 0.032600 0.495400 0.309190
H187 H 0.159100 0.511000 0.295200
H188 H -0.061700 0.575000 0.301700
C189 C -0.055900 0.341800 0.298600
H190 H -0.074300 0.337800 0.270700
H191 H -0.189400 0.332700 0.310400
C192 C 0.073400 0.205500 0.311010
C193 C 0.134800 0.224500 0.354900
H194 H 0.006600 0.216000 0.369300
C195 C 0.263900 0.094400 0.369250
C196 C 0.468400 0.631000 0.411850
H197 H 0.596100 0.585700 0.410300
C198 C 0.302500 0.547000 0.431830
C199 C 0.262600 0.387300 0.412010
H200 H 0.391000 0.332100 0.415500
C201 C 0.225000 0.383200 0.366880
C202 C 0.109100 0.301200 0.438600
H203 H 0.057100 0.214100 0.424500
H204 H 0.182400 0.263000 0.461000
C205 C -0.071400 0.395000 0.452880
H206 H -0.146200 0.337900 0.472300
H207 H -0.162800 0.415700 0.431400
C208 C 0.002300 0.544900 0.470370
H209 H -0.109200 0.600900 0.482700
C210 C 0.105900 0.639200 0.438960
H211 H 0.136100 0.741200 0.448000
H212 H 0.022900 0.645200 0.415700
C213 C 0.371600 0.520800 0.474860
H214 H 0.445000 0.425500 0.477300
H215 H 0.459200 0.602900 0.483500
C216 C 0.176900 0.516900 0.498350
C217 C 0.161300 0.496600 0.536050
H218 H 0.277800 0.482900 0.551000
H219 H 0.033600 0.496100 0.547800
C220 C -0.060900 0.061200 0.306510
H221 H -0.100200 0.049900 0.279800
H222 H -0.180600 0.071200 0.322300
H223 H 0.015000 -0.026500 0.314600
C224 C 0.255500 0.175000 0.285120
C225 C 0.431000 0.412000 0.346050
H226 H 0.412200 0.403900 0.318500
H227 H 0.529000 0.338000 0.354400
H228 H 0.479300 0.512100 0.352300
C229 C 0.435600 0.240600 0.228170
H230 H 0.563400 0.246700 0.241600
H231 H 0.432400 0.315400 0.207900
H232 H 0.420600 0.141000 0.217100

#END
