./LADLAE_from_xyz.cif_generated_by_CrystalShift
_symmetry_cell_setting triclinic
_symmetry_space_group_name_H-M 'P 1'
loop_
_symmetry_equiv_pos_site_id
_symmetry_equiv_pos_as_xyz
1 x,y,z
_cell_length_a 9.152000
_cell_length_b 11.461000
_cell_length_c 12.454000
_cell_angle_alpha 76.390000
_cell_angle_beta 77.170000
_cell_angle_gamma 76.070000
_cell_volume 1213.200605
loop_
_atom_site_label
_atom_site_type_symbol
_atom_site_fract_x
_atom_site_fract_y
_atom_site_fract_z
Sn1 Sn 0.662490 0.582070 0.718840
O2 O 0.570900 0.800300 0.575300
C3 C 0.773500 0.405600 0.800900
C4 C 0.821300 0.388700 0.902300
H5 H 0.801900 0.454400 0.938800
C6 C 0.898100 0.274600 0.950700
H7 H 0.923200 0.264400 1.021100
C8 C 0.936600 0.179300 0.898200
H9 H 0.999400 0.107400 0.927500
C10 C 0.879500 0.187900 0.794100
H11 H 0.891100 0.120500 0.761200
C12 C 0.807900 0.303400 0.749700
H13 H 0.779900 0.314600 0.680000
C14 C 0.442400 0.553500 0.719300
C15 C 0.362900 0.493400 0.814400
H16 H 0.408100 0.466000 0.878000
C17 C 0.222400 0.471900 0.820300
H18 H 0.173300 0.431100 0.887100
C19 C 0.152100 0.509800 0.729000
H20 H 0.054900 0.495700 0.733000
C21 C 0.225300 0.567800 0.633200
H22 H 0.178100 0.594200 0.570400
C23 C 0.369300 0.589000 0.626400
H24 H 0.418600 0.627600 0.558600
C25 C 0.661100 0.708700 0.821000
C26 C 0.546400 0.726300 0.914500
H27 H 0.466600 0.684000 0.932800
C28 C 0.552900 0.806700 0.979100
H29 H 0.477700 0.817200 1.041900
C30 C 0.670000 0.872600 0.952300
H31 H 0.672800 0.927000 0.996300
C32 C 0.780600 0.855800 0.860500
H33 H 0.859900 0.898600 0.841800
C34 C 0.774700 0.775300 0.795300
H35 H 0.849700 0.766000 0.732200
C36 C 0.812200 0.608800 0.560600
H37 H 0.902900 0.551200 0.552900
C38 C 0.791500 0.696000 0.473600
H39 H 0.866700 0.691100 0.410000
C40 C 0.659300 0.804300 0.464300
C41 C 0.715400 0.921500 0.415900
C42 C 0.784800 0.982400 0.472400
H43 H 0.798000 0.951800 0.546400
C44 C 0.831700 1.088800 0.412800
H45 H 0.874400 1.132900 0.447200
C46 C 0.814800 1.129800 0.300900
H47 H 0.847700 1.201100 0.261500
C48 C 0.752000 1.069000 0.247700
H49 H 0.742900 1.097000 0.172700
C50 C 0.702200 0.965200 0.307600
C51 C 0.631700 0.881800 0.264200
H52 H 0.708600 0.831800 0.217700
H53 H 0.552900 0.928800 0.221400
C54 C 0.562800 0.802300 0.374100
H55 H 0.572200 0.719200 0.364100
H56 H 0.455600 0.836600 0.396900
Sn57 Sn 0.337510 0.417930 0.281160
O58 O 0.429100 0.199700 0.424700
C59 C 0.226500 0.594400 0.199100
C60 C 0.178700 0.611300 0.097700
H61 H 0.198100 0.545600 0.061200
C62 C 0.101900 0.725400 0.049300
H63 H 0.076800 0.735600 -0.021100
C64 C 0.063400 0.820700 0.101800
H65 H 0.000600 0.892600 0.072500
C66 C 0.120500 0.812100 0.205900
H67 H 0.108900 0.879500 0.238800
C68 C 0.192100 0.696600 0.250300
H69 H 0.220100 0.685400 0.320000
C70 C 0.557600 0.446500 0.280700
C71 C 0.637100 0.506600 0.185600
H72 H 0.591900 0.534000 0.122000
C73 C 0.777600 0.528100 0.179700
H74 H 0.826700 0.568900 0.112900
C75 C 0.847900 0.490200 0.271000
H76 H 0.945100 0.504300 0.267000
C77 C 0.774700 0.432200 0.366800
H78 H 0.821900 0.405800 0.429600
C79 C 0.630700 0.411000 0.373600
H80 H 0.581400 0.372400 0.441400
C81 C 0.338900 0.291300 0.179000
C82 C 0.453600 0.273700 0.085500
H83 H 0.533400 0.316000 0.067200
C84 C 0.447100 0.193300 0.020900
H85 H 0.522300 0.182800 -0.041900
C86 C 0.330000 0.127400 0.047700
H87 H 0.327200 0.073000 0.003700
C88 C 0.219400 0.144200 0.139500
H89 H 0.140100 0.101400 0.158200
C90 C 0.225300 0.224700 0.204700
H91 H 0.150300 0.234000 0.267800
C92 C 0.187800 0.391200 0.439400
H93 H 0.097100 0.448800 0.447100
C94 C 0.208500 0.304000 0.526400
H95 H 0.133300 0.308900 0.590000
C96 C 0.340700 0.195700 0.535700
C97 C 0.284600 0.078500 0.584100
C98 C 0.215200 0.017600 0.527600
H99 H 0.202000 0.048200 0.453600
C100 C 0.168300 -0.088800 0.587200
H101 H 0.125600 -0.132900 0.552800
C102 C 0.185200 -0.129800 0.699100
H103 H 0.152300 -0.201100 0.738500
C104 C 0.248000 -0.069000 0.752300
H105 H 0.257100 -0.097000 0.827300
C106 C 0.297800 0.034800 0.692400
C107 C 0.368300 0.118200 0.735800
H108 H 0.291400 0.168200 0.782300
H109 H 0.447100 0.071200 0.778600
C110 C 0.437200 0.197700 0.625900
H111 H 0.427800 0.280800 0.635900
H112 H 0.544400 0.163400 0.603100

#END
