./LADMEK_from_xyz.cif_generated_by_CrystalShift
_symmetry_cell_setting triclinic
_symmetry_space_group_name_H-M 'P 1'
loop_
_symmetry_equiv_pos_site_id
_symmetry_equiv_pos_as_xyz
1 x,y,z
_cell_length_a 7.445200
_cell_length_b 18.268600
_cell_length_c 16.170500
_cell_angle_alpha 90.000000
_cell_angle_beta 97.746000
_cell_angle_gamma 90.000000
_cell_volume 2179.335463
loop_
_atom_site_label
_atom_site_type_symbol
_atom_site_fract_x
_atom_site_fract_y
_atom_site_fract_z
C1 C 0.127600 0.175710 0.354960
C2 C 0.214400 0.243390 0.361630
H3 H 0.292200 0.255500 0.411200
C4 C 0.163700 0.119660 0.421940
C5 C 0.161900 0.137030 0.507680
C6 C 0.188300 0.293300 0.296450
H7 H 0.247900 0.339400 0.301700
C8 C 0.198500 0.082820 0.567610
C9 C 0.076400 0.276300 0.224250
H10 H 0.059400 0.310500 0.179600
C11 C 0.245200 0.011390 0.541410
C12 C 0.299500 -0.047530 0.596330
H13 H 0.307000 -0.040300 0.654900
C14 C -0.011400 0.209280 0.216710
H15 H -0.089600 0.197600 0.167100
C16 C 0.014800 0.159680 0.281330
H17 H -0.045100 0.113700 0.275600
C18 C 0.341000 -0.114410 0.566410
H19 H 0.376100 -0.153200 0.604300
C20 C 0.332500 -0.126500 0.480790
H21 H 0.359500 -0.173600 0.460700
C22 C 0.285500 -0.070980 0.425960
H23 H 0.281600 -0.079400 0.367800
C24 C 0.242600 -0.001060 0.454610
C25 C 0.112300 0.208530 0.534090
C26 C 0.075000 0.266240 0.562740
C27 C 0.040800 0.335910 0.599020
C28 C -0.041900 0.340400 0.671000
H29 H -0.079500 0.297000 0.696100
C30 C -0.069500 0.407690 0.706330
H31 H -0.128200 0.410500 0.754900
C32 C -0.011700 0.470980 0.670780
H33 H -0.029200 0.517300 0.695200
C34 C 0.071100 0.466450 0.600160
H35 H 0.111900 0.509800 0.576200
C36 C 0.095500 0.399910 0.563790
H37 H 0.150300 0.397700 0.514100
C38 C 0.191900 0.102550 0.655750
H39 H 0.247400 0.147400 0.674800
C40 C 0.117700 0.064470 0.709110
H41 H 0.069200 0.018100 0.691200
C42 C 0.101300 0.086770 0.796520
C43 C -0.012000 0.045850 0.839330
H44 H -0.076100 0.005700 0.812200
C45 C -0.033500 0.061860 0.919140
H46 H -0.114700 0.033500 0.946500
C47 C 0.060100 0.118450 0.961270
H48 H 0.046000 0.128400 1.017700
C49 C 0.175400 0.160880 0.920510
H50 H 0.240400 0.200400 0.948600
C51 C 0.195100 0.144960 0.837680
H52 H 0.273100 0.174100 0.809300
N53 N 0.199450 0.052910 0.396210
C54 C 0.372400 0.675710 1.145040
C55 C 0.285600 0.743390 1.138370
H56 H 0.207800 0.755500 1.088800
C57 C 0.336300 0.619660 1.078060
C58 C 0.338100 0.637030 0.992320
C59 C 0.311700 0.793300 1.203550
H60 H 0.252100 0.839400 1.198300
C61 C 0.301500 0.582820 0.932390
C62 C 0.423600 0.776300 1.275750
H63 H 0.440600 0.810500 1.320400
C64 C 0.254800 0.511390 0.958590
C65 C 0.200500 0.452470 0.903670
H66 H 0.193000 0.459700 0.845100
C67 C 0.511400 0.709280 1.283290
H68 H 0.589600 0.697600 1.332900
C69 C 0.485200 0.659680 1.218670
H70 H 0.545100 0.613700 1.224400
C71 C 0.159000 0.385590 0.933590
H72 H 0.123900 0.346800 0.895700
C73 C 0.167500 0.373500 1.019210
H74 H 0.140500 0.326400 1.039300
C75 C 0.214500 0.429020 1.074040
H76 H 0.218400 0.420600 1.132200
C77 C 0.257400 0.498940 1.045390
C78 C 0.387700 0.708530 0.965910
C79 C 0.425000 0.766240 0.937260
C80 C 0.459200 0.835910 0.900980
C81 C 0.541900 0.840400 0.829000
H82 H 0.579500 0.797000 0.803900
C83 C 0.569500 0.907690 0.793670
H84 H 0.628200 0.910500 0.745100
C85 C 0.511700 0.970980 0.829220
H86 H 0.529200 1.017300 0.804800
C87 C 0.428900 0.966450 0.899840
H88 H 0.388100 1.009800 0.923800
C89 C 0.404500 0.899910 0.936210
H90 H 0.349700 0.897700 0.985900
C91 C 0.308100 0.602550 0.844250
H92 H 0.252600 0.647400 0.825200
C93 C 0.382300 0.564470 0.790890
H94 H 0.430800 0.518100 0.808800
C95 C 0.398700 0.586770 0.703480
C96 C 0.512000 0.545850 0.660670
H97 H 0.576100 0.505700 0.687800
C98 C 0.533500 0.561860 0.580860
H99 H 0.614700 0.533500 0.553500
C100 C 0.439900 0.618450 0.538730
H101 H 0.454000 0.628400 0.482300
C102 C 0.324600 0.660880 0.579490
H103 H 0.259600 0.700400 0.551400
C104 C 0.304900 0.644960 0.662320
H105 H 0.226900 0.674100 0.690700
N106 N 0.300550 0.552910 1.103790
C107 C 0.872400 0.824290 0.645040
C108 C 0.785600 0.756610 0.638370
H109 H 0.707800 0.744500 0.588800
C110 C 0.836300 0.880340 0.578060
C111 C 0.838100 0.862970 0.492320
C112 C 0.811700 0.706700 0.703550
H113 H 0.752100 0.660600 0.698300
C114 C 0.801500 0.917180 0.432390
C115 C 0.923600 0.723700 0.775750
H116 H 0.940600 0.689500 0.820400
C117 C 0.754800 0.988610 0.458590
C118 C 0.700500 1.047530 0.403670
H119 H 0.693000 1.040300 0.345100
C120 C 1.011400 0.790720 0.783290
H121 H 1.089600 0.802400 0.832900
C122 C 0.985200 0.840320 0.718670
H123 H 1.045100 0.886300 0.724400
C124 C 0.659000 1.114410 0.433590
H125 H 0.623900 1.153200 0.395700
C126 C 0.667500 1.126500 0.519210
H127 H 0.640500 1.173600 0.539300
C128 C 0.714500 1.070980 0.574040
H129 H 0.718400 1.079400 0.632200
C130 C 0.757400 1.001060 0.545390
C131 C 0.887700 0.791470 0.465910
C132 C 0.925000 0.733760 0.437260
C133 C 0.959200 0.664090 0.400980
C134 C 1.041900 0.659600 0.329000
H135 H 1.079500 0.703000 0.303900
C136 C 1.069500 0.592310 0.293670
H137 H 1.128200 0.589500 0.245100
C138 C 1.011700 0.529020 0.329220
H139 H 1.029200 0.482700 0.304800
C140 C 0.928900 0.533550 0.399840
H141 H 0.888100 0.490200 0.423800
C142 C 0.904500 0.600090 0.436210
H143 H 0.849700 0.602300 0.485900
C144 C 0.808100 0.897450 0.344250
H145 H 0.752600 0.852600 0.325200
C146 C 0.882300 0.935530 0.290890
H147 H 0.930800 0.981900 0.308800
C148 C 0.898700 0.913230 0.203480
C149 C 1.012000 0.954150 0.160670
H150 H 1.076100 0.994300 0.187800
C151 C 1.033500 0.938140 0.080860
H152 H 1.114700 0.966500 0.053500
C153 C 0.939900 0.881550 0.038730
H154 H 0.954000 0.871600 -0.017700
C155 C 0.824600 0.839120 0.079490
H156 H 0.759600 0.799600 0.051400
C157 C 0.804900 0.855040 0.162320
H158 H 0.726900 0.825900 0.190700
N159 N 0.800550 0.947090 0.603790
C160 C 0.627600 0.324290 -0.145040
C161 C 0.714400 0.256610 -0.138370
H162 H 0.792200 0.244500 -0.088800
C163 C 0.663700 0.380340 -0.078060
C164 C 0.661900 0.362970 0.007680
C165 C 0.688300 0.206700 -0.203550
H166 H 0.747900 0.160600 -0.198300
C167 C 0.698500 0.417180 0.067610
C168 C 0.576400 0.223700 -0.275750
H169 H 0.559400 0.189500 -0.320400
C170 C 0.745200 0.488610 0.041410
C171 C 0.799500 0.547530 0.096330
H172 H 0.807000 0.540300 0.154900
C173 C 0.488600 0.290720 -0.283290
H174 H 0.410400 0.302400 -0.332900
C175 C 0.514800 0.340320 -0.218670
H176 H 0.454900 0.386300 -0.224400
C177 C 0.841000 0.614410 0.066410
H178 H 0.876100 0.653200 0.104300
C179 C 0.832500 0.626500 -0.019210
H180 H 0.859500 0.673600 -0.039300
C181 C 0.785500 0.570980 -0.074040
H182 H 0.781600 0.579400 -0.132200
C183 C 0.742600 0.501060 -0.045390
C184 C 0.612300 0.291470 0.034090
C185 C 0.575000 0.233760 0.062740
C186 C 0.540800 0.164090 0.099020
C187 C 0.458100 0.159600 0.171000
H188 H 0.420500 0.203000 0.196100
C189 C 0.430500 0.092310 0.206330
H190 H 0.371800 0.089500 0.254900
C191 C 0.488300 0.029020 0.170780
H192 H 0.470800 -0.017300 0.195200
C193 C 0.571100 0.033550 0.100160
H194 H 0.611900 -0.009800 0.076200
C195 C 0.595500 0.100090 0.063790
H196 H 0.650300 0.102300 0.014100
C197 C 0.691900 0.397450 0.155750
H198 H 0.747400 0.352600 0.174800
C199 C 0.617700 0.435530 0.209110
H200 H 0.569200 0.481900 0.191200
C201 C 0.601300 0.413230 0.296520
C202 C 0.488000 0.454150 0.339330
H203 H 0.423900 0.494300 0.312200
C204 C 0.466500 0.438140 0.419140
H205 H 0.385300 0.466500 0.446500
C206 C 0.560100 0.381550 0.461270
H207 H 0.546000 0.371600 0.517700
C208 C 0.675400 0.339120 0.420510
H209 H 0.740400 0.299600 0.448600
C210 C 0.695100 0.355040 0.337680
H211 H 0.773100 0.325900 0.309300
N212 N 0.699450 0.447090 -0.103790

#END
