./LADNEL_from_xyz.cif_generated_by_CrystalShift
_symmetry_cell_setting triclinic
_symmetry_space_group_name_H-M 'P 1'
loop_
_symmetry_equiv_pos_site_id
_symmetry_equiv_pos_as_xyz
1 x,y,z
_cell_length_a 7.601500
_cell_length_b 7.746800
_cell_length_c 21.368000
_cell_angle_alpha 90.000000
_cell_angle_beta 90.000000
_cell_angle_gamma 90.000000
_cell_volume 1258.303831
loop_
_atom_site_label
_atom_site_type_symbol
_atom_site_fract_x
_atom_site_fract_y
_atom_site_fract_z
O1 O 0.667200 0.284500 -0.003580
N2 N 0.690800 -0.061800 0.025430
H3 H 0.588800 -0.106000 0.032100
C4 C 0.769200 0.064800 0.066820
H5 H 0.896300 0.044000 0.065700
C6 C 0.742500 0.249400 0.045290
C7 C 0.805300 0.388200 0.089330
H8 H 0.754600 0.498100 0.077200
H9 H 0.932300 0.398000 0.086600
C10 C 0.751900 0.345700 0.157340
H11 H 0.788000 0.437800 0.186000
C12 C 0.552500 0.315600 0.160410
H13 H 0.492000 0.387000 0.129900
H14 H 0.507600 0.342700 0.201800
C15 C 0.526000 0.119100 0.145230
H16 H 0.465200 0.061500 0.179200
H17 H 0.457900 0.104800 0.107200
C18 C 0.712200 0.044900 0.137000
C19 C 0.827600 0.168700 0.178090
C20 C 0.789100 0.144000 0.248820
H21 H 0.861800 0.220900 0.272700
H22 H 0.814100 0.026900 0.260500
H23 H 0.667500 0.168800 0.256900
C24 C 1.028000 0.150500 0.168850
H25 H 1.088000 0.231100 0.195500
H26 H 1.057200 0.173900 0.126000
H27 H 1.063600 0.035200 0.179300
C28 C 0.723800 -0.145000 0.156620
H29 H 0.688400 -0.156400 0.199500
H30 H 0.842700 -0.184700 0.152000
H31 H 0.647500 -0.212900 0.130600
C32 C 0.797700 -0.108000 -0.028130
H33 H 0.908300 -0.155400 -0.013400
H34 H 0.824000 -0.004300 -0.051800
C35 C 0.712600 -0.235700 -0.070470
H36 H 0.790100 -0.261200 -0.104700
H37 H 0.604700 -0.188500 -0.086400
H38 H 0.688000 -0.339700 -0.047600
O39 O 0.832800 0.715500 0.496420
N40 N 0.809200 1.061800 0.525430
H41 H 0.911200 1.106000 0.532100
C42 C 0.730800 0.935200 0.566820
H43 H 0.603700 0.956000 0.565700
C44 C 0.757500 0.750600 0.545290
C45 C 0.694700 0.611800 0.589330
H46 H 0.745400 0.501900 0.577200
H47 H 0.567700 0.602000 0.586600
C48 C 0.748100 0.654300 0.657340
H49 H 0.712000 0.562200 0.686000
C50 C 0.947500 0.684400 0.660410
H51 H 1.008000 0.613000 0.629900
H52 H 0.992400 0.657300 0.701800
C53 C 0.974000 0.880900 0.645230
H54 H 1.034800 0.938500 0.679200
H55 H 1.042100 0.895200 0.607200
C56 C 0.787800 0.955100 0.637000
C57 C 0.672400 0.831300 0.678090
C58 C 0.710900 0.856000 0.748820
H59 H 0.638200 0.779100 0.772700
H60 H 0.685900 0.973100 0.760500
H61 H 0.832500 0.831200 0.756900
C62 C 0.472000 0.849500 0.668850
H63 H 0.412000 0.768900 0.695500
H64 H 0.442800 0.826100 0.626000
H65 H 0.436400 0.964800 0.679300
C66 C 0.776200 1.145000 0.656620
H67 H 0.811600 1.156400 0.699500
H68 H 0.657300 1.184700 0.652000
H69 H 0.852500 1.212900 0.630600
C70 C 0.702300 1.108000 0.471870
H71 H 0.591700 1.155400 0.486600
H72 H 0.676000 1.004300 0.448200
C73 C 0.787400 1.235700 0.429530
H74 H 0.709900 1.261200 0.395300
H75 H 0.895300 1.188500 0.413600
H76 H 0.812000 1.339700 0.452400
O77 O 0.332800 0.784500 0.503580
N78 N 0.309200 0.438200 0.474570
H79 H 0.411200 0.394000 0.467900
C80 C 0.230800 0.564800 0.433180
H81 H 0.103700 0.544000 0.434300
C82 C 0.257500 0.749400 0.454710
C83 C 0.194700 0.888200 0.410670
H84 H 0.245400 0.998100 0.422800
H85 H 0.067700 0.898000 0.413400
C86 C 0.248100 0.845700 0.342660
H87 H 0.212000 0.937800 0.314000
C88 C 0.447500 0.815600 0.339590
H89 H 0.508000 0.887000 0.370100
H90 H 0.492400 0.842700 0.298200
C91 C 0.474000 0.619100 0.354770
H92 H 0.534800 0.561500 0.320800
H93 H 0.542100 0.604800 0.392800
C94 C 0.287800 0.544900 0.363000
C95 C 0.172400 0.668700 0.321910
C96 C 0.210900 0.644000 0.251180
H97 H 0.138200 0.720900 0.227300
H98 H 0.185900 0.526900 0.239500
H99 H 0.332500 0.668800 0.243100
C100 C -0.028000 0.650500 0.331150
H101 H -0.088000 0.731100 0.304500
H102 H -0.057200 0.673900 0.374000
H103 H -0.063600 0.535200 0.320700
C104 C 0.276200 0.355000 0.343380
H105 H 0.311600 0.343600 0.300500
H106 H 0.157300 0.315300 0.348000
H107 H 0.352500 0.287100 0.369400
C108 C 0.202300 0.392000 0.528130
H109 H 0.091700 0.344600 0.513400
H110 H 0.176000 0.495700 0.551800
C111 C 0.287400 0.264300 0.570470
H112 H 0.209900 0.238800 0.604700
H113 H 0.395300 0.311500 0.586400
H114 H 0.312000 0.160300 0.547600
O115 O 0.167200 0.215500 1.003580
N116 N 0.190800 0.561800 0.974570
H117 H 0.088800 0.606000 0.967900
C118 C 0.269200 0.435200 0.933180
H119 H 0.396300 0.456000 0.934300
C120 C 0.242500 0.250600 0.954710
C121 C 0.305300 0.111800 0.910670
H122 H 0.254600 0.001900 0.922800
H123 H 0.432300 0.102000 0.913400
C124 C 0.251900 0.154300 0.842660
H125 H 0.288000 0.062200 0.814000
C126 C 0.052500 0.184400 0.839590
H127 H -0.008000 0.113000 0.870100
H128 H 0.007600 0.157300 0.798200
C129 C 0.026000 0.380900 0.854770
H130 H -0.034800 0.438500 0.820800
H131 H -0.042100 0.395200 0.892800
C132 C 0.212200 0.455100 0.863000
C133 C 0.327600 0.331300 0.821910
C134 C 0.289100 0.356000 0.751180
H135 H 0.361800 0.279100 0.727300
H136 H 0.314100 0.473100 0.739500
H137 H 0.167500 0.331200 0.743100
C138 C 0.528000 0.349500 0.831150
H139 H 0.588000 0.268900 0.804500
H140 H 0.557200 0.326100 0.874000
H141 H 0.563600 0.464800 0.820700
C142 C 0.223800 0.645000 0.843380
H143 H 0.188400 0.656400 0.800500
H144 H 0.342700 0.684700 0.848000
H145 H 0.147500 0.712900 0.869400
C146 C 0.297700 0.608000 1.028130
H147 H 0.408300 0.655400 1.013400
H148 H 0.324000 0.504300 1.051800
C149 C 0.212600 0.735700 1.070470
H150 H 0.290100 0.761200 1.104700
H151 H 0.104700 0.688500 1.086400
H152 H 0.188000 0.839700 1.047600

#END
