
#######################################################################
#
#                 Cambridge Crystallographic Data Centre
#                                CCDC 
#
#######################################################################
#
# If this CIF has been generated from an entry in the Cambridge 
# Structural Database, then it will include bibliographic, chemical, 
# crystal, experimental, refinement or atomic coordinate data resulting 
# from the CCDC's data processing and validation procedures.
#
#######################################################################

data_LADNEL
_symmetry_cell_setting           orthorhombic
_symmetry_space_group_name_H-M   'P 21 21 21'
_symmetry_Int_Tables_number      19
_space_group_name_Hall           'P 2ac 2ab'
loop_
_symmetry_equiv_pos_site_id
_symmetry_equiv_pos_as_xyz
1 x,y,z
2 1/2-x,-y,1/2+z
3 -x,1/2+y,1/2-z
4 1/2+x,1/2-y,-z
_cell_length_a                   7.6015(14)
_cell_length_b                   7.7468(15)
_cell_length_c                   21.368(4)
_cell_angle_alpha                90
_cell_angle_beta                 90
_cell_angle_gamma                90
_cell_volume                     1258.3
loop_
_atom_site_label
_atom_site_type_symbol
_atom_site_fract_x
_atom_site_fract_y
_atom_site_fract_z
O1 O 0.6672(4) 0.2845(3) -0.00358(11)
N1 N 0.6908(4) -0.0618(3) 0.02543(12)
H1 H 0.5888 -0.1060 0.0321
C1 C 0.7692(3) 0.0648(3) 0.06682(11)
H2 H 0.8963 0.0440 0.0657
C2 C 0.7425(4) 0.2494(3) 0.04529(12)
C3 C 0.8053(5) 0.3882(3) 0.08933(12)
H3 H 0.7546 0.4981 0.0772
H4 H 0.9323 0.3980 0.0866
C4 C 0.7519(4) 0.3457(4) 0.15734(12)
H5 H 0.7880 0.4378 0.1860
C5 C 0.5525(4) 0.3156(5) 0.16041(15)
H6 H 0.4920 0.3870 0.1299
H7 H 0.5076 0.3427 0.2018
C6 C 0.5260(4) 0.1191(5) 0.14523(15)
H8 H 0.4652 0.0615 0.1792
H9 H 0.4579 0.1048 0.1072
C7 C 0.7122(3) 0.0449(3) 0.13700(11)
C8 C 0.8276(3) 0.1687(3) 0.17809(11)
C9 C 0.7891(5) 0.1440(4) 0.24882(13)
H10 H 0.8618 0.2209 0.2727
H11 H 0.8141 0.0269 0.2605
H12 H 0.6675 0.1688 0.2569
C10 C 1.0280(4) 0.1505(5) 0.16885(15)
H13 H 1.0880 0.2311 0.1955
H14 H 1.0572 0.1739 0.1260
H15 H 1.0636 0.0352 0.1793
C11 C 0.7238(5) -0.1450(4) 0.15662(13)
H16 H 0.6884 -0.1564 0.1995
H17 H 0.8427 -0.1847 0.1520
H18 H 0.6475 -0.2129 0.1306
C12 C 0.7977(5) -0.1080(5) -0.02813(15)
H19 H 0.9083 -0.1554 -0.0134
H20 H 0.8240 -0.0043 -0.0518
C13 C 0.7126(5) -0.2357(5) -0.07047(16)
H21 H 0.7901 -0.2612 -0.1047
H22 H 0.6047 -0.1885 -0.0864
H23 H 0.6880 -0.3397 -0.0476
O1 O 0.8328(4) 0.7155(3) 0.49642(11)
N1 N 0.8092(4) 1.0618(3) 0.52543(12)
H1 H 0.9112 1.1060 0.5321
C1 C 0.7308(3) 0.9352(3) 0.56682(11)
H2 H 0.6037 0.9560 0.5657
C2 C 0.7575(4) 0.7506(3) 0.54529(12)
C3 C 0.6947(5) 0.6118(3) 0.58933(12)
H3 H 0.7454 0.5019 0.5772
H4 H 0.5677 0.6020 0.5866
C4 C 0.7481(4) 0.6543(4) 0.65734(12)
H5 H 0.7120 0.5622 0.6860
C5 C 0.9475(4) 0.6844(5) 0.66041(15)
H6 H 1.0080 0.6130 0.6299
H7 H 0.9924 0.6573 0.7018
C6 C 0.9740(4) 0.8809(5) 0.64523(15)
H8 H 1.0348 0.9385 0.6792
H9 H 1.0421 0.8952 0.6072
C7 C 0.7878(3) 0.9551(3) 0.63700(11)
C8 C 0.6724(3) 0.8313(3) 0.67809(11)
C9 C 0.7109(5) 0.8560(4) 0.74882(13)
H10 H 0.6382 0.7791 0.7727
H11 H 0.6859 0.9731 0.7605
H12 H 0.8325 0.8312 0.7569
C10 C 0.4720(4) 0.8495(5) 0.66885(15)
H13 H 0.4120 0.7689 0.6955
H14 H 0.4428 0.8261 0.6260
H15 H 0.4364 0.9648 0.6793
C11 C 0.7762(5) 1.1450(4) 0.65662(13)
H16 H 0.8116 1.1564 0.6995
H17 H 0.6573 1.1847 0.6520
H18 H 0.8525 1.2129 0.6306
C12 C 0.7023(5) 1.1080(5) 0.47187(15)
H19 H 0.5917 1.1554 0.4866
H20 H 0.6760 1.0043 0.4482
C13 C 0.7874(5) 1.2357(5) 0.42953(16)
H21 H 0.7099 1.2612 0.3953
H22 H 0.8953 1.1885 0.4136
H23 H 0.8120 1.3397 0.4524
O1 O 0.3328(4) 0.7845(3) 0.50358(11)
N1 N 0.3092(4) 0.4382(3) 0.47457(12)
H1 H 0.4112 0.3940 0.4679
C1 C 0.2308(3) 0.5648(3) 0.43318(11)
H2 H 0.1037 0.5440 0.4343
C2 C 0.2575(4) 0.7494(3) 0.45471(12)
C3 C 0.1947(5) 0.8882(3) 0.41067(12)
H3 H 0.2454 0.9981 0.4228
H4 H 0.0677 0.8980 0.4134
C4 C 0.2481(4) 0.8457(4) 0.34266(12)
H5 H 0.2120 0.9378 0.3140
C5 C 0.4475(4) 0.8156(5) 0.33959(15)
H6 H 0.5080 0.8870 0.3701
H7 H 0.4924 0.8427 0.2982
C6 C 0.4740(4) 0.6191(5) 0.35477(15)
H8 H 0.5348 0.5615 0.3208
H9 H 0.5421 0.6048 0.3928
C7 C 0.2878(3) 0.5449(3) 0.36300(11)
C8 C 0.1724(3) 0.6687(3) 0.32191(11)
C9 C 0.2109(5) 0.6440(4) 0.25118(13)
H10 H 0.1382 0.7209 0.2273
H11 H 0.1859 0.5269 0.2395
H12 H 0.3325 0.6688 0.2431
C10 C -0.0280(4) 0.6505(5) 0.33115(15)
H13 H -0.0880 0.7311 0.3045
H14 H -0.0572 0.6739 0.3740
H15 H -0.0636 0.5352 0.3207
C11 C 0.2762(5) 0.3550(4) 0.34338(13)
H16 H 0.3116 0.3436 0.3005
H17 H 0.1573 0.3153 0.3480
H18 H 0.3525 0.2871 0.3694
C12 C 0.2023(5) 0.3920(5) 0.52813(15)
H19 H 0.0917 0.3446 0.5134
H20 H 0.1760 0.4957 0.5518
C13 C 0.2874(5) 0.2643(5) 0.57047(16)
H21 H 0.2099 0.2388 0.6047
H22 H 0.3953 0.3115 0.5864
H23 H 0.3120 0.1603 0.5476
O1 O 0.1672(4) 0.2155(3) 1.00358(11)
N1 N 0.1908(4) 0.5618(3) 0.97457(12)
H1 H 0.0888 0.6060 0.9679
C1 C 0.2692(3) 0.4352(3) 0.93318(11)
H2 H 0.3963 0.4560 0.9343
C2 C 0.2425(4) 0.2506(3) 0.95471(12)
C3 C 0.3053(5) 0.1118(3) 0.91067(12)
H3 H 0.2546 0.0019 0.9228
H4 H 0.4323 0.1020 0.9134
C4 C 0.2519(4) 0.1543(4) 0.84266(12)
H5 H 0.2880 0.0622 0.8140
C5 C 0.0525(4) 0.1844(5) 0.83959(15)
H6 H -0.0080 0.1130 0.8701
H7 H 0.0076 0.1573 0.7982
C6 C 0.0260(4) 0.3809(5) 0.85477(15)
H8 H -0.0348 0.4385 0.8208
H9 H -0.0421 0.3952 0.8928
C7 C 0.2122(3) 0.4551(3) 0.86300(11)
C8 C 0.3276(3) 0.3313(3) 0.82191(11)
C9 C 0.2891(5) 0.3560(4) 0.75118(13)
H10 H 0.3618 0.2791 0.7273
H11 H 0.3141 0.4731 0.7395
H12 H 0.1675 0.3312 0.7431
C10 C 0.5280(4) 0.3495(5) 0.83115(15)
H13 H 0.5880 0.2689 0.8045
H14 H 0.5572 0.3261 0.8740
H15 H 0.5636 0.4648 0.8207
C11 C 0.2238(5) 0.6450(4) 0.84338(13)
H16 H 0.1884 0.6564 0.8005
H17 H 0.3427 0.6847 0.8480
H18 H 0.1475 0.7129 0.8694
C12 C 0.2977(5) 0.6080(5) 1.02813(15)
H19 H 0.4083 0.6554 1.0134
H20 H 0.3240 0.5043 1.0518
C13 C 0.2126(5) 0.7357(5) 1.07047(16)
H21 H 0.2901 0.7612 1.1047
H22 H 0.1047 0.6885 1.0864
H23 H 0.1880 0.8397 1.0476

#END
