./LADVAN01_from_xyz.cif_generated_by_CrystalShift
_symmetry_cell_setting triclinic
_symmetry_space_group_name_H-M 'P 1'
loop_
_symmetry_equiv_pos_site_id
_symmetry_equiv_pos_as_xyz
1 x,y,z
_cell_length_a 12.080000
_cell_length_b 3.954000
_cell_length_c 31.596000
_cell_angle_alpha 90.000000
_cell_angle_beta 92.050000
_cell_angle_gamma 90.000000
_cell_volume 1508.195565
loop_
_atom_site_label
_atom_site_type_symbol
_atom_site_fract_x
_atom_site_fract_y
_atom_site_fract_z
S1 S 0.889860 0.046700 0.539420
S2 S 0.653790 0.070700 0.553280
N3 N 0.850200 -0.110300 0.585310
C4 C 0.758800 0.174700 0.518780
C5 C 0.746300 -0.101500 0.592180
C6 C 0.701000 -0.235800 0.631340
C7 C 0.773600 -0.372600 0.662150
C8 C 0.733700 -0.498600 0.699380
C9 C 0.622300 -0.492800 0.706310
C10 C 0.549700 -0.358200 0.676290
C11 C 0.588600 -0.228800 0.638990
H12 H 0.853000 -0.387000 0.655200
H13 H 0.784000 -0.594000 0.719100
H14 H 0.594000 -0.578000 0.732100
H15 H 0.469000 -0.350000 0.681700
H16 H 0.540000 -0.143000 0.619600
C17 C 0.741200 0.325300 0.481220
S18 S 0.610140 0.453300 0.460580
S19 S 0.846210 0.429300 0.446720
N20 N 0.649800 0.610300 0.414690
C21 C 0.753700 0.601500 0.407820
C22 C 0.799000 0.735800 0.368660
C23 C 0.726400 0.872600 0.337850
C24 C 0.911400 0.728800 0.361010
C25 C 0.766300 0.998600 0.300620
H26 H 0.647000 0.887000 0.344800
C27 C 0.950300 0.858200 0.323710
H28 H 0.960000 0.643000 0.380400
C29 C 0.877700 0.992800 0.293690
H30 H 0.716000 1.094000 0.280900
H31 H 1.031000 0.850000 0.318300
H32 H 0.906000 1.078000 0.267900
S33 S 0.389860 0.546700 0.539420
S34 S 0.153790 0.570700 0.553280
N35 N 0.350200 0.389700 0.585310
C36 C 0.258800 0.674700 0.518780
C37 C 0.246300 0.398500 0.592180
C38 C 0.201000 0.264200 0.631340
C39 C 0.273600 0.127400 0.662150
C40 C 0.233700 0.001400 0.699380
C41 C 0.122300 0.007200 0.706310
C42 C 0.049700 0.141800 0.676290
C43 C 0.088600 0.271200 0.638990
H44 H 0.353000 0.113000 0.655200
H45 H 0.284000 -0.094000 0.719100
H46 H 0.094000 -0.078000 0.732100
H47 H -0.031000 0.150000 0.681700
H48 H 0.040000 0.357000 0.619600
C49 C 0.241200 0.825300 0.481220
S50 S 0.110140 0.953300 0.460580
S51 S 0.346210 0.929300 0.446720
N52 N 0.149800 1.110300 0.414690
C53 C 0.253700 1.101500 0.407820
C54 C 0.299000 1.235800 0.368660
C55 C 0.226400 1.372600 0.337850
C56 C 0.411400 1.228800 0.361010
C57 C 0.266300 1.498600 0.300620
H58 H 0.147000 1.387000 0.344800
C59 C 0.450300 1.358200 0.323710
H60 H 0.460000 1.143000 0.380400
C61 C 0.377700 1.492800 0.293690
H62 H 0.216000 1.594000 0.280900
H63 H 0.531000 1.350000 0.318300
H64 H 0.406000 1.578000 0.267900
S65 S 0.110140 0.046700 -0.039420
S66 S 0.346210 0.070700 -0.053280
N67 N 0.149800 -0.110300 -0.085310
C68 C 0.241200 0.174700 -0.018780
C69 C 0.253700 -0.101500 -0.092180
C70 C 0.299000 -0.235800 -0.131340
C71 C 0.226400 -0.372600 -0.162150
C72 C 0.266300 -0.498600 -0.199380
C73 C 0.377700 -0.492800 -0.206310
C74 C 0.450300 -0.358200 -0.176290
C75 C 0.411400 -0.228800 -0.138990
H76 H 0.147000 -0.387000 -0.155200
H77 H 0.216000 -0.594000 -0.219100
H78 H 0.406000 -0.578000 -0.232100
H79 H 0.531000 -0.350000 -0.181700
H80 H 0.460000 -0.143000 -0.119600
C81 C 0.258800 0.325300 0.018780
S82 S 0.389860 0.453300 0.039420
S83 S 0.153790 0.429300 0.053280
N84 N 0.350200 0.610300 0.085310
C85 C 0.246300 0.601500 0.092180
C86 C 0.201000 0.735800 0.131340
C87 C 0.273600 0.872600 0.162150
C88 C 0.088600 0.728800 0.138990
C89 C 0.233700 0.998600 0.199380
H90 H 0.353000 0.887000 0.155200
C91 C 0.049700 0.858200 0.176290
H92 H 0.040000 0.643000 0.119600
C93 C 0.122300 0.992800 0.206310
H94 H 0.284000 1.094000 0.219100
H95 H -0.031000 0.850000 0.181700
H96 H 0.094000 1.078000 0.232100
S97 S 0.110140 0.046700 0.960580
S98 S 0.346210 0.070700 0.946720
N99 N 0.149800 -0.110300 0.914690
C100 C 0.241200 0.174700 0.981220
C101 C 0.253700 -0.101500 0.907820
C102 C 0.299000 -0.235800 0.868660
C103 C 0.226400 -0.372600 0.837850
C104 C 0.266300 -0.498600 0.800620
C105 C 0.377700 -0.492800 0.793690
C106 C 0.450300 -0.358200 0.823710
C107 C 0.411400 -0.228800 0.861010
H108 H 0.147000 -0.387000 0.844800
H109 H 0.216000 -0.594000 0.780900
H110 H 0.406000 -0.578000 0.767900
H111 H 0.531000 -0.350000 0.818300
H112 H 0.460000 -0.143000 0.880400
C113 C 0.258800 0.325300 1.018780
S114 S 0.389860 0.453300 1.039420
S115 S 0.153790 0.429300 1.053280
N116 N 0.350200 0.610300 1.085310
C117 C 0.246300 0.601500 1.092180
C118 C 0.201000 0.735800 1.131340
C119 C 0.273600 0.872600 1.162150
C120 C 0.088600 0.728800 1.138990
C121 C 0.233700 0.998600 1.199380
H122 H 0.353000 0.887000 1.155200
C123 C 0.049700 0.858200 1.176290
H124 H 0.040000 0.643000 1.119600
C125 C 0.122300 0.992800 1.206310
H126 H 0.284000 1.094000 1.219100
H127 H -0.031000 0.850000 1.181700
H128 H 0.094000 1.078000 1.232100
S129 S 0.610140 0.546700 -0.039420
S130 S 0.846210 0.570700 -0.053280
N131 N 0.649800 0.389700 -0.085310
C132 C 0.741200 0.674700 -0.018780
C133 C 0.753700 0.398500 -0.092180
C134 C 0.799000 0.264200 -0.131340
C135 C 0.726400 0.127400 -0.162150
C136 C 0.766300 0.001400 -0.199380
C137 C 0.877700 0.007200 -0.206310
C138 C 0.950300 0.141800 -0.176290
C139 C 0.911400 0.271200 -0.138990
H140 H 0.647000 0.113000 -0.155200
H141 H 0.716000 -0.094000 -0.219100
H142 H 0.906000 -0.078000 -0.232100
H143 H 1.031000 0.150000 -0.181700
H144 H 0.960000 0.357000 -0.119600
C145 C 0.758800 0.825300 0.018780
S146 S 0.889860 0.953300 0.039420
S147 S 0.653790 0.929300 0.053280
N148 N 0.850200 1.110300 0.085310
C149 C 0.746300 1.101500 0.092180
C150 C 0.701000 1.235800 0.131340
C151 C 0.773600 1.372600 0.162150
C152 C 0.588600 1.228800 0.138990
C153 C 0.733700 1.498600 0.199380
H154 H 0.853000 1.387000 0.155200
C155 C 0.549700 1.358200 0.176290
H156 H 0.540000 1.143000 0.119600
C157 C 0.622300 1.492800 0.206310
H158 H 0.784000 1.594000 0.219100
H159 H 0.469000 1.350000 0.181700
H160 H 0.594000 1.578000 0.232100
S161 S 0.610140 0.546700 0.960580
S162 S 0.846210 0.570700 0.946720
N163 N 0.649800 0.389700 0.914690
C164 C 0.741200 0.674700 0.981220
C165 C 0.753700 0.398500 0.907820
C166 C 0.799000 0.264200 0.868660
C167 C 0.726400 0.127400 0.837850
C168 C 0.766300 0.001400 0.800620
C169 C 0.877700 0.007200 0.793690
C170 C 0.950300 0.141800 0.823710
C171 C 0.911400 0.271200 0.861010
H172 H 0.647000 0.113000 0.844800
H173 H 0.716000 -0.094000 0.780900
H174 H 0.906000 -0.078000 0.767900
H175 H 1.031000 0.150000 0.818300
H176 H 0.960000 0.357000 0.880400
C177 C 0.758800 0.825300 1.018780
S178 S 0.889860 0.953300 1.039420
S179 S 0.653790 0.929300 1.053280
N180 N 0.850200 1.110300 1.085310
C181 C 0.746300 1.101500 1.092180
C182 C 0.701000 1.235800 1.131340
C183 C 0.773600 1.372600 1.162150
C184 C 0.588600 1.228800 1.138990
C185 C 0.733700 1.498600 1.199380
H186 H 0.853000 1.387000 1.155200
C187 C 0.549700 1.358200 1.176290
H188 H 0.540000 1.143000 1.119600
C189 C 0.622300 1.492800 1.206310
H190 H 0.784000 1.594000 1.219100
H191 H 0.469000 1.350000 1.181700
H192 H 0.594000 1.578000 1.232100

#END
