
#######################################################################
#
#                 Cambridge Crystallographic Data Centre
#                                CCDC 
#
#######################################################################
#
# If this CIF has been generated from an entry in the Cambridge 
# Structural Database, then it will include bibliographic, chemical, 
# crystal, experimental, refinement or atomic coordinate data resulting 
# from the CCDC's data processing and validation procedures.
#
#######################################################################

data_LAFCAW01
_symmetry_cell_setting           monoclinic
_symmetry_space_group_name_H-M   'P 21'
_symmetry_Int_Tables_number      4
_space_group_name_Hall           'P 2yb'
loop_
_symmetry_equiv_pos_site_id
_symmetry_equiv_pos_as_xyz
1 x,y,z
2 -x,1/2+y,-z
_cell_length_a                   13.801(3)
_cell_length_b                   8.066(3)
_cell_length_c                   14.094(3)
_cell_angle_alpha                90
_cell_angle_beta                 116.01(1)
_cell_angle_gamma                90
_cell_volume                     1410.02
loop_
_atom_site_label
_atom_site_type_symbol
_atom_site_fract_x
_atom_site_fract_y
_atom_site_fract_z
O1 O -0.1572(5) 0.3173 0.3479(5)
O2 O -0.2015(4) 0.0544(8) 0.3075(4)
O3 O 0.5905(4) 0.3735 1.1216(3)
O4 O 0.4133(3) 0.6080(7) 0.7664(3)
O5 O 0.3229(3) 0.0587(7) 0.6867(3)
C1 C 0.6830(5) 0.183(1) 0.9322(5)
C2 C 0.6305(5) 0.1958(10) 1.0075(5)
C3 C 0.6473(6) 0.363(1) 1.0569(5)
C4 C 0.6032(5) 0.4946(10) 0.9705(5)
C5 C 0.6512(5) 0.484(1) 0.8909(5)
C6 C 0.6041(5) 0.6207(10) 0.8078(5)
C7 C 0.4900(5) 0.5887(10) 0.7238(5)
C8 C 0.4770(5) 0.4150(9) 0.6767(5)
C9 C 0.5219(5) 0.2786(9) 0.7611(5)
C10 C 0.6403(5) 0.310(1) 0.8416(5)
C11 C 0.5026(5) 0.107(1) 0.7089(5)
C12 C 0.3859(5) 0.0722(9) 0.6295(5)
C13 C 0.3434(5) 0.2079(9) 0.5449(5)
C14 C 0.3617(5) 0.3754(9) 0.6012(5)
C15 C 0.3005(5) 0.4996(10) 0.5134(5)
C16 C 0.2004(6) 0.400(1) 0.4385(5)
C17 C 0.2188(5) 0.2169(9) 0.4765(5)
C18 C 0.7170(5) 0.300(1) 0.7874(5)
C19 C 0.4015(5) 0.195(1) 0.4731(5)
C20 C 0.1607(5) 0.0958(10) 0.3850(5)
C21 C 0.1821(6) -0.088(1) 0.4162(5)
C22 C 0.0385(5) 0.1332(10) 0.3302(5)
C23 C -0.0176(5) 0.115(1) 0.4008(5)
C24 C -0.1320(6) 0.178(1) 0.3507(6)
H1 H 0.7588 0.1999 0.9716
H2 H 0.6707 0.0747 0.9024
H3 H 0.5551 0.1762 0.9694
H4 H 0.6609 0.1144 1.0617
H5 H 0.7226 0.3810 1.0997
H6 H 0.6197 0.6007 1.0027
H7 H 0.5278 0.4808 0.9335
H8 H 0.7260 0.5061 0.9291
H9 H 0.6037 0.7218 0.8433
H10 H 0.6494 0.6339 0.7737
H11 H 0.4732 0.6672 0.6691
H12 H 0.5170 0.4099 0.6367
H13 H 0.4805 0.2814 0.7998
H14 H 0.5230 0.0245 0.7631
H15 H 0.5468 0.0957 0.6732
H16 H 0.3831 -0.0311 0.5962
H17 H 0.3427 0.5311 0.4791
H18 H 0.2806 0.5932 0.5412
H19 H 0.1912 0.4086 0.3678
H20 H 0.1369 0.4429 0.4417
H21 H 0.1873 0.2029 0.5236
H22 H 0.7173 0.1905 0.7609
H23 H 0.6950 0.3758 0.7293
H24 H 0.7896 0.3269 0.8363
H25 H 0.3858 0.0862 0.4389
H26 H 0.3735 0.2758 0.4188
H27 H 0.4756 0.2057 0.5120
H28 H 0.1880 0.1141 0.3345
H29 H 0.1553 -0.1133 0.4653
H30 H 0.1443 -0.1541 0.3535
H31 H 0.2562 -0.1102 0.4437
H32 H 0.0296 0.2430 0.3052
H33 H 0.0059 0.0584 0.2722
H34 H -0.0183 -0.0008 0.4169
H35 H 0.0220 0.1736 0.4641
H36 H -0.2861 0.0622 0.2850
H37 H 0.6237 0.4894 1.1665
H38 H 0.4218 0.7004 0.8153
H39 H 0.2782 0.0395 0.7168
H40 H 0.3229 0.3695 0.6428
O1 O 1.1572(5) 0.8173 0.6521(5)
O2 O 1.2015(4) 0.5544(8) 0.6925(4)
O3 O 0.4095(4) 0.8735 -0.1216(3)
O4 O 0.5867(3) 1.1080(7) 0.2336(3)
O5 O 0.6771(3) 0.5587(7) 0.3133(3)
C1 C 0.3170(5) 0.683(1) 0.0678(5)
C2 C 0.3695(5) 0.6958(10) -0.0075(5)
C3 C 0.3527(6) 0.863(1) -0.0569(5)
C4 C 0.3968(5) 0.9946(10) 0.0295(5)
C5 C 0.3488(5) 0.984(1) 0.1091(5)
C6 C 0.3959(5) 1.1207(10) 0.1922(5)
C7 C 0.5100(5) 1.0887(10) 0.2762(5)
C8 C 0.5230(5) 0.9150(9) 0.3233(5)
C9 C 0.4781(5) 0.7786(9) 0.2389(5)
C10 C 0.3597(5) 0.810(1) 0.1584(5)
C11 C 0.4974(5) 0.607(1) 0.2911(5)
C12 C 0.6141(5) 0.5722(9) 0.3705(5)
C13 C 0.6566(5) 0.7079(9) 0.4551(5)
C14 C 0.6383(5) 0.8754(9) 0.3988(5)
C15 C 0.6995(5) 0.9996(10) 0.4866(5)
C16 C 0.7996(6) 0.900(1) 0.5615(5)
C17 C 0.7812(5) 0.7169(9) 0.5235(5)
C18 C 0.2830(5) 0.800(1) 0.2126(5)
C19 C 0.5985(5) 0.695(1) 0.5269(5)
C20 C 0.8393(5) 0.5958(10) 0.6150(5)
C21 C 0.8179(6) 0.412(1) 0.5838(5)
C22 C 0.9615(5) 0.6332(10) 0.6698(5)
C23 C 1.0176(5) 0.615(1) 0.5992(5)
C24 C 1.1320(6) 0.678(1) 0.6493(6)
H1 H 0.2412 0.6999 0.0284
H2 H 0.3293 0.5747 0.0976
H3 H 0.4449 0.6762 0.0306
H4 H 0.3391 0.6144 -0.0617
H5 H 0.2774 0.8810 -0.0997
H6 H 0.3803 1.1007 -0.0027
H7 H 0.4722 0.9808 0.0665
H8 H 0.2740 1.0061 0.0709
H9 H 0.3963 1.2218 0.1567
H10 H 0.3506 1.1339 0.2263
H11 H 0.5268 1.1672 0.3309
H12 H 0.4830 0.9099 0.3633
H13 H 0.5195 0.7814 0.2002
H14 H 0.4770 0.5245 0.2369
H15 H 0.4532 0.5957 0.3268
H16 H 0.6169 0.4689 0.4038
H17 H 0.6573 1.0311 0.5209
H18 H 0.7194 1.0932 0.4588
H19 H 0.8088 0.9086 0.6322
H20 H 0.8631 0.9429 0.5583
H21 H 0.8127 0.7029 0.4764
H22 H 0.2827 0.6905 0.2391
H23 H 0.3050 0.8758 0.2707
H24 H 0.2104 0.8269 0.1637
H25 H 0.6142 0.5862 0.5611
H26 H 0.6265 0.7758 0.5812
H27 H 0.5244 0.7057 0.4880
H28 H 0.8120 0.6141 0.6655
H29 H 0.8447 0.3867 0.5347
H30 H 0.8557 0.3459 0.6465
H31 H 0.7438 0.3898 0.5563
H32 H 0.9704 0.7430 0.6948
H33 H 0.9941 0.5584 0.7278
H34 H 1.0183 0.4992 0.5831
H35 H 0.9780 0.6736 0.5359
H36 H 1.2861 0.5622 0.7150
H37 H 0.3763 0.9894 -0.1665
H38 H 0.5782 1.2004 0.1847
H39 H 0.7218 0.5395 0.2832
H40 H 0.6771 0.8695 0.3572
N1 N 0.139(1) 0.191(2) 0.749(1)
C25 C 0.112(1) 0.194(2) 0.823(1)
C26 C 0.158(1) 0.310(2) 0.904(1)
C27 C 0.126(1) 0.307(2) 0.981(1)
C28 C 0.059(2) 0.195(2) 0.987(2)
C29 C 0.022(1) 0.079(3) 0.915(2)
C30 C 0.043(1) 0.080(2) 0.831(1)
H41 H 0.2081 0.3905 0.9053
H42 H 0.1545 0.3856 1.0362
H43 H 0.0355 0.2020 1.0403
H44 H -0.0198 -0.0014 0.9273
H45 H 0.0083 -0.0028 0.7789
H46 H 0.1122 0.1080 0.6978
H47 H 0.1881 0.2723 0.7484
N1 N 0.861(1) 0.691(2) 0.251(1)
C25 C 0.888(1) 0.694(2) 0.177(1)
C26 C 0.842(1) 0.810(2) 0.096(1)
C27 C 0.874(1) 0.807(2) 0.019(1)
C28 C 0.941(2) 0.695(2) 0.013(2)
C29 C 0.978(1) 0.579(3) 0.085(2)
C30 C 0.957(1) 0.580(2) 0.169(1)
H41 H 0.7919 0.8905 0.0947
H42 H 0.8455 0.8856 -0.0362
H43 H 0.9645 0.7020 -0.0403
H44 H 1.0198 0.4986 0.0727
H45 H 0.9917 0.4972 0.2211
H46 H 0.8878 0.6080 0.3022
H47 H 0.8119 0.7723 0.2516

#END
