./LAFCOK_from_xyz.cif_generated_by_CrystalShift
_symmetry_cell_setting triclinic
_symmetry_space_group_name_H-M 'P 1'
loop_
_symmetry_equiv_pos_site_id
_symmetry_equiv_pos_as_xyz
1 x,y,z
_cell_length_a 5.721000
_cell_length_b 9.107000
_cell_length_c 25.170000
_cell_angle_alpha 88.520000
_cell_angle_beta 86.140000
_cell_angle_gamma 79.450000
_cell_volume 1286.171152
loop_
_atom_site_label
_atom_site_type_symbol
_atom_site_fract_x
_atom_site_fract_y
_atom_site_fract_z
O1 O 0.040800 0.512600 0.333980
N2 N 0.146300 0.688700 0.240930
C3 C 0.378800 0.336640 0.362280
C4 C 0.599100 0.257900 0.344680
C5 C 0.675300 0.112000 0.360610
C6 C 0.530900 0.040100 0.393340
C7 C 0.309100 0.116200 0.410950
C8 C 0.235600 0.262100 0.395560
C9 C 0.280600 0.597100 0.395600
C10 C 0.483000 0.586400 0.423940
C11 C 0.479500 0.670100 0.468820
C12 C 0.276900 0.765100 0.486250
C13 C 0.077300 0.778300 0.458070
C14 C 0.078900 0.694100 0.413260
C15 C 0.283000 0.498200 0.347410
C16 C 0.431800 0.554200 0.299520
C17 C 0.308600 0.697300 0.276350
C18 C 0.347600 0.836200 0.288560
C19 C 0.217700 0.960700 0.264380
C20 C 0.055100 0.946700 0.228150
C21 C 0.018200 0.806000 0.215230
C22 C -0.138600 0.763100 0.177430
C23 C -0.246000 0.845100 0.138000
C24 C -0.219700 1.001700 0.126190
C25 C -0.397700 1.117100 0.143930
C26 C -0.374200 1.262300 0.134900
C27 C -0.175100 1.296800 0.107110
C28 C -0.000300 1.182500 0.089120
C29 C -0.020700 1.034800 0.098490
C30 C -0.396400 0.778600 0.102510
C31 C -0.412300 0.826600 0.049860
C32 C -0.550600 0.765900 0.016580
C33 C -0.677700 0.658800 0.035500
C34 C -0.665100 0.611900 0.087560
C35 C -0.523900 0.670100 0.120440
H36 H 0.123000 0.595000 0.232800
H37 H 0.034000 0.455000 0.308000
H38 H 0.702700 0.306800 0.320320
H39 H 0.834100 0.059700 0.348280
H40 H 0.584000 -0.064100 0.404240
H41 H 0.203900 0.066400 0.434620
H42 H 0.077300 0.314500 0.408260
H43 H 0.629200 0.518300 0.411990
H44 H 0.623800 0.661800 0.488400
H45 H 0.274200 0.822800 0.518680
H46 H -0.066900 0.848700 0.469640
H47 H -0.066200 0.703300 0.393920
H48 H 0.460900 0.478100 0.271850
H49 H 0.584200 0.569400 0.311950
H50 H 0.463800 0.847500 0.314340
H51 H 0.244180 1.060300 0.273230
H52 H -0.034700 1.036100 0.211530
H53 H -0.169600 0.660900 0.181340
H54 H -0.541300 1.094300 0.163390
H55 H -0.501000 1.342800 0.148140
H56 H -0.158800 1.401100 0.100510
H57 H 0.141900 1.205800 0.069210
H58 H 0.106000 0.954200 0.085260
H59 H -0.323700 0.903600 0.036250
H60 H -0.559000 0.799600 -0.020640
H61 H -0.776500 0.616100 0.011900
H62 H -0.757200 0.536800 0.101300
H63 H -0.513000 0.633700 0.157340
O64 O 0.959200 0.487400 0.666020
N65 N 0.853700 0.311300 0.759070
C66 C 0.621200 0.663360 0.637720
C67 C 0.400900 0.742100 0.655320
C68 C 0.324700 0.888000 0.639390
C69 C 0.469100 0.959900 0.606660
C70 C 0.690900 0.883800 0.589050
C71 C 0.764400 0.737900 0.604440
C72 C 0.719400 0.402900 0.604400
C73 C 0.517000 0.413600 0.576060
C74 C 0.520500 0.329900 0.531180
C75 C 0.723100 0.234900 0.513750
C76 C 0.922700 0.221700 0.541930
C77 C 0.921100 0.305900 0.586740
C78 C 0.717000 0.501800 0.652590
C79 C 0.568200 0.445800 0.700480
C80 C 0.691400 0.302700 0.723650
C81 C 0.652400 0.163800 0.711440
C82 C 0.782300 0.039300 0.735620
C83 C 0.944900 0.053300 0.771850
C84 C 0.981800 0.194000 0.784770
C85 C 1.138600 0.236900 0.822570
C86 C 1.246000 0.154900 0.862000
C87 C 1.219700 -0.001700 0.873810
C88 C 1.397700 -0.117100 0.856070
C89 C 1.374200 -0.262300 0.865100
C90 C 1.175100 -0.296800 0.892890
C91 C 1.000300 -0.182500 0.910880
C92 C 1.020700 -0.034800 0.901510
C93 C 1.396400 0.221400 0.897490
C94 C 1.412300 0.173400 0.950140
C95 C 1.550600 0.234100 0.983420
C96 C 1.677700 0.341200 0.964500
C97 C 1.665100 0.388100 0.912440
C98 C 1.523900 0.329900 0.879560
H99 H 0.877000 0.405000 0.767200
H100 H 0.966000 0.545000 0.692000
H101 H 0.297300 0.693200 0.679680
H102 H 0.165900 0.940300 0.651720
H103 H 0.416000 1.064100 0.595760
H104 H 0.796100 0.933600 0.565380
H105 H 0.922700 0.685500 0.591740
H106 H 0.370800 0.481700 0.588010
H107 H 0.376200 0.338200 0.511600
H108 H 0.725800 0.177200 0.481320
H109 H 1.066900 0.151300 0.530360
H110 H 1.066200 0.296700 0.606080
H111 H 0.539100 0.521900 0.728150
H112 H 0.415800 0.430600 0.688050
H113 H 0.536200 0.152500 0.685660
H114 H 0.755820 -0.060300 0.726770
H115 H 1.034700 -0.036100 0.788470
H116 H 1.169600 0.339100 0.818660
H117 H 1.541300 -0.094300 0.836610
H118 H 1.501000 -0.342800 0.851860
H119 H 1.158800 -0.401100 0.899490
H120 H 0.858100 -0.205800 0.930790
H121 H 0.894000 0.045800 0.914740
H122 H 1.323700 0.096400 0.963750
H123 H 1.559000 0.200400 1.020640
H124 H 1.776500 0.383900 0.988100
H125 H 1.757200 0.463200 0.898700
H126 H 1.513000 0.366300 0.842660

#END
