./LAFHAD_from_xyz.cif_generated_by_CrystalShift
_symmetry_cell_setting triclinic
_symmetry_space_group_name_H-M 'P 1'
loop_
_symmetry_equiv_pos_site_id
_symmetry_equiv_pos_as_xyz
1 x,y,z
_cell_length_a 18.000500
_cell_length_b 5.999900
_cell_length_c 7.548000
_cell_angle_alpha 90.000000
_cell_angle_beta 93.505000
_cell_angle_gamma 90.000000
_cell_volume 813.668188
loop_
_atom_site_label
_atom_site_type_symbol
_atom_site_fract_x
_atom_site_fract_y
_atom_site_fract_z
Cl1 Cl 0.176850 -0.395450 -0.046930
N2 N 0.151090 0.044100 -0.065100
C3 C 0.075060 0.012300 -0.033300
C4 C 0.046910 0.140400 0.100700
C5 C 0.027820 -0.126800 -0.136300
C6 C 0.198170 -0.109200 -0.076400
C7 C 0.276660 -0.064200 -0.113600
C8 C 0.293490 0.136300 -0.197600
C9 C 0.366240 0.185900 -0.233000
C10 C 0.423170 0.038300 -0.182200
C11 C 0.407030 -0.158800 -0.098700
C12 C 0.334020 -0.212400 -0.065200
H13 H 0.255600 0.231000 -0.230000
H14 H 0.376900 0.321000 -0.289000
H15 H 0.446500 -0.256000 -0.067000
H16 H 0.324900 -0.350000 -0.014000
H17 H 0.473200 0.069000 -0.208000
H18 H 0.078900 0.228000 0.167000
H19 H 0.046900 -0.209000 -0.228000
Cl20 Cl -0.176850 0.395450 0.046930
N21 N -0.151090 -0.044100 0.065100
C22 C -0.075060 -0.012300 0.033300
C23 C -0.046910 -0.140400 -0.100700
C24 C -0.027820 0.126800 0.136300
C25 C -0.198170 0.109200 0.076400
C26 C -0.276660 0.064200 0.113600
C27 C -0.293490 -0.136300 0.197600
C28 C -0.366240 -0.185900 0.233000
C29 C -0.423170 -0.038300 0.182200
C30 C -0.407030 0.158800 0.098700
C31 C -0.334020 0.212400 0.065200
H32 H -0.255600 -0.231000 0.230000
H33 H -0.376900 -0.321000 0.289000
H34 H -0.446500 0.256000 0.067000
H35 H -0.324900 0.350000 0.014000
H36 H -0.473200 -0.069000 0.208000
H37 H -0.078900 -0.228000 -0.167000
H38 H -0.046900 0.209000 0.228000
Cl39 Cl 0.176850 -0.395450 0.953070
N40 N 0.151090 0.044100 0.934900
C41 C 0.075060 0.012300 0.966700
C42 C 0.046910 0.140400 1.100700
C43 C 0.027820 -0.126800 0.863700
C44 C 0.198170 -0.109200 0.923600
C45 C 0.276660 -0.064200 0.886400
C46 C 0.293490 0.136300 0.802400
C47 C 0.366240 0.185900 0.767000
C48 C 0.423170 0.038300 0.817800
C49 C 0.407030 -0.158800 0.901300
C50 C 0.334020 -0.212400 0.934800
H51 H 0.255600 0.231000 0.770000
H52 H 0.376900 0.321000 0.711000
H53 H 0.446500 -0.256000 0.933000
H54 H 0.324900 -0.350000 0.986000
H55 H 0.473200 0.069000 0.792000
H56 H 0.078900 0.228000 1.167000
H57 H 0.046900 -0.209000 0.772000
Cl58 Cl -0.176850 0.395450 1.046930
N59 N -0.151090 -0.044100 1.065100
C60 C -0.075060 -0.012300 1.033300
C61 C -0.046910 -0.140400 0.899300
C62 C -0.027820 0.126800 1.136300
C63 C -0.198170 0.109200 1.076400
C64 C -0.276660 0.064200 1.113600
C65 C -0.293490 -0.136300 1.197600
C66 C -0.366240 -0.185900 1.233000
C67 C -0.423170 -0.038300 1.182200
C68 C -0.407030 0.158800 1.098700
C69 C -0.334020 0.212400 1.065200
H70 H -0.255600 -0.231000 1.230000
H71 H -0.376900 -0.321000 1.289000
H72 H -0.446500 0.256000 1.067000
H73 H -0.324900 0.350000 1.014000
H74 H -0.473200 -0.069000 1.208000
H75 H -0.078900 -0.228000 0.833000
H76 H -0.046900 0.209000 1.228000
Cl77 Cl 0.176850 0.604550 -0.046930
N78 N 0.151090 1.044100 -0.065100
C79 C 0.075060 1.012300 -0.033300
C80 C 0.046910 1.140400 0.100700
C81 C 0.027820 0.873200 -0.136300
C82 C 0.198170 0.890800 -0.076400
C83 C 0.276660 0.935800 -0.113600
C84 C 0.293490 1.136300 -0.197600
C85 C 0.366240 1.185900 -0.233000
C86 C 0.423170 1.038300 -0.182200
C87 C 0.407030 0.841200 -0.098700
C88 C 0.334020 0.787600 -0.065200
H89 H 0.255600 1.231000 -0.230000
H90 H 0.376900 1.321000 -0.289000
H91 H 0.446500 0.744000 -0.067000
H92 H 0.324900 0.650000 -0.014000
H93 H 0.473200 1.069000 -0.208000
H94 H 0.078900 1.228000 0.167000
H95 H 0.046900 0.791000 -0.228000
Cl96 Cl -0.176850 1.395450 0.046930
N97 N -0.151090 0.955900 0.065100
C98 C -0.075060 0.987700 0.033300
C99 C -0.046910 0.859600 -0.100700
C100 C -0.027820 1.126800 0.136300
C101 C -0.198170 1.109200 0.076400
C102 C -0.276660 1.064200 0.113600
C103 C -0.293490 0.863700 0.197600
C104 C -0.366240 0.814100 0.233000
C105 C -0.423170 0.961700 0.182200
C106 C -0.407030 1.158800 0.098700
C107 C -0.334020 1.212400 0.065200
H108 H -0.255600 0.769000 0.230000
H109 H -0.376900 0.679000 0.289000
H110 H -0.446500 1.256000 0.067000
H111 H -0.324900 1.350000 0.014000
H112 H -0.473200 0.931000 0.208000
H113 H -0.078900 0.772000 -0.167000
H114 H -0.046900 1.209000 0.228000
Cl115 Cl 0.176850 0.604550 0.953070
N116 N 0.151090 1.044100 0.934900
C117 C 0.075060 1.012300 0.966700
C118 C 0.046910 1.140400 1.100700
C119 C 0.027820 0.873200 0.863700
C120 C 0.198170 0.890800 0.923600
C121 C 0.276660 0.935800 0.886400
C122 C 0.293490 1.136300 0.802400
C123 C 0.366240 1.185900 0.767000
C124 C 0.423170 1.038300 0.817800
C125 C 0.407030 0.841200 0.901300
C126 C 0.334020 0.787600 0.934800
H127 H 0.255600 1.231000 0.770000
H128 H 0.376900 1.321000 0.711000
H129 H 0.446500 0.744000 0.933000
H130 H 0.324900 0.650000 0.986000
H131 H 0.473200 1.069000 0.792000
H132 H 0.078900 1.228000 1.167000
H133 H 0.046900 0.791000 0.772000
Cl134 Cl -0.176850 1.395450 1.046930
N135 N -0.151090 0.955900 1.065100
C136 C -0.075060 0.987700 1.033300
C137 C -0.046910 0.859600 0.899300
C138 C -0.027820 1.126800 1.136300
C139 C -0.198170 1.109200 1.076400
C140 C -0.276660 1.064200 1.113600
C141 C -0.293490 0.863700 1.197600
C142 C -0.366240 0.814100 1.233000
C143 C -0.423170 0.961700 1.182200
C144 C -0.407030 1.158800 1.098700
C145 C -0.334020 1.212400 1.065200
H146 H -0.255600 0.769000 1.230000
H147 H -0.376900 0.679000 1.289000
H148 H -0.446500 1.256000 1.067000
H149 H -0.324900 1.350000 1.014000
H150 H -0.473200 0.931000 1.208000
H151 H -0.078900 0.772000 0.833000
H152 H -0.046900 1.209000 1.228000
Cl153 Cl 1.176850 -0.395450 -0.046930
N154 N 1.151090 0.044100 -0.065100
C155 C 1.075060 0.012300 -0.033300
C156 C 1.046910 0.140400 0.100700
C157 C 1.027820 -0.126800 -0.136300
C158 C 1.198170 -0.109200 -0.076400
C159 C 1.276660 -0.064200 -0.113600
C160 C 1.293490 0.136300 -0.197600
C161 C 1.366240 0.185900 -0.233000
C162 C 1.423170 0.038300 -0.182200
C163 C 1.407030 -0.158800 -0.098700
C164 C 1.334020 -0.212400 -0.065200
H165 H 1.255600 0.231000 -0.230000
H166 H 1.376900 0.321000 -0.289000
H167 H 1.446500 -0.256000 -0.067000
H168 H 1.324900 -0.350000 -0.014000
H169 H 1.473200 0.069000 -0.208000
H170 H 1.078900 0.228000 0.167000
H171 H 1.046900 -0.209000 -0.228000
Cl172 Cl 0.823150 0.395450 0.046930
N173 N 0.848910 -0.044100 0.065100
C174 C 0.924940 -0.012300 0.033300
C175 C 0.953090 -0.140400 -0.100700
C176 C 0.972180 0.126800 0.136300
C177 C 0.801830 0.109200 0.076400
C178 C 0.723340 0.064200 0.113600
C179 C 0.706510 -0.136300 0.197600
C180 C 0.633760 -0.185900 0.233000
C181 C 0.576830 -0.038300 0.182200
C182 C 0.592970 0.158800 0.098700
C183 C 0.665980 0.212400 0.065200
H184 H 0.744400 -0.231000 0.230000
H185 H 0.623100 -0.321000 0.289000
H186 H 0.553500 0.256000 0.067000
H187 H 0.675100 0.350000 0.014000
H188 H 0.526800 -0.069000 0.208000
H189 H 0.921100 -0.228000 -0.167000
H190 H 0.953100 0.209000 0.228000
Cl191 Cl 1.176850 -0.395450 0.953070
N192 N 1.151090 0.044100 0.934900
C193 C 1.075060 0.012300 0.966700
C194 C 1.046910 0.140400 1.100700
C195 C 1.027820 -0.126800 0.863700
C196 C 1.198170 -0.109200 0.923600
C197 C 1.276660 -0.064200 0.886400
C198 C 1.293490 0.136300 0.802400
C199 C 1.366240 0.185900 0.767000
C200 C 1.423170 0.038300 0.817800
C201 C 1.407030 -0.158800 0.901300
C202 C 1.334020 -0.212400 0.934800
H203 H 1.255600 0.231000 0.770000
H204 H 1.376900 0.321000 0.711000
H205 H 1.446500 -0.256000 0.933000
H206 H 1.324900 -0.350000 0.986000
H207 H 1.473200 0.069000 0.792000
H208 H 1.078900 0.228000 1.167000
H209 H 1.046900 -0.209000 0.772000
Cl210 Cl 0.823150 0.395450 1.046930
N211 N 0.848910 -0.044100 1.065100
C212 C 0.924940 -0.012300 1.033300
C213 C 0.953090 -0.140400 0.899300
C214 C 0.972180 0.126800 1.136300
C215 C 0.801830 0.109200 1.076400
C216 C 0.723340 0.064200 1.113600
C217 C 0.706510 -0.136300 1.197600
C218 C 0.633760 -0.185900 1.233000
C219 C 0.576830 -0.038300 1.182200
C220 C 0.592970 0.158800 1.098700
C221 C 0.665980 0.212400 1.065200
H222 H 0.744400 -0.231000 1.230000
H223 H 0.623100 -0.321000 1.289000
H224 H 0.553500 0.256000 1.067000
H225 H 0.675100 0.350000 1.014000
H226 H 0.526800 -0.069000 1.208000
H227 H 0.921100 -0.228000 0.833000
H228 H 0.953100 0.209000 1.228000
Cl229 Cl 1.176850 0.604550 -0.046930
N230 N 1.151090 1.044100 -0.065100
C231 C 1.075060 1.012300 -0.033300
C232 C 1.046910 1.140400 0.100700
C233 C 1.027820 0.873200 -0.136300
C234 C 1.198170 0.890800 -0.076400
C235 C 1.276660 0.935800 -0.113600
C236 C 1.293490 1.136300 -0.197600
C237 C 1.366240 1.185900 -0.233000
C238 C 1.423170 1.038300 -0.182200
C239 C 1.407030 0.841200 -0.098700
C240 C 1.334020 0.787600 -0.065200
H241 H 1.255600 1.231000 -0.230000
H242 H 1.376900 1.321000 -0.289000
H243 H 1.446500 0.744000 -0.067000
H244 H 1.324900 0.650000 -0.014000
H245 H 1.473200 1.069000 -0.208000
H246 H 1.078900 1.228000 0.167000
H247 H 1.046900 0.791000 -0.228000
Cl248 Cl 0.823150 1.395450 0.046930
N249 N 0.848910 0.955900 0.065100
C250 C 0.924940 0.987700 0.033300
C251 C 0.953090 0.859600 -0.100700
C252 C 0.972180 1.126800 0.136300
C253 C 0.801830 1.109200 0.076400
C254 C 0.723340 1.064200 0.113600
C255 C 0.706510 0.863700 0.197600
C256 C 0.633760 0.814100 0.233000
C257 C 0.576830 0.961700 0.182200
C258 C 0.592970 1.158800 0.098700
C259 C 0.665980 1.212400 0.065200
H260 H 0.744400 0.769000 0.230000
H261 H 0.623100 0.679000 0.289000
H262 H 0.553500 1.256000 0.067000
H263 H 0.675100 1.350000 0.014000
H264 H 0.526800 0.931000 0.208000
H265 H 0.921100 0.772000 -0.167000
H266 H 0.953100 1.209000 0.228000
Cl267 Cl 1.176850 0.604550 0.953070
N268 N 1.151090 1.044100 0.934900
C269 C 1.075060 1.012300 0.966700
C270 C 1.046910 1.140400 1.100700
C271 C 1.027820 0.873200 0.863700
C272 C 1.198170 0.890800 0.923600
C273 C 1.276660 0.935800 0.886400
C274 C 1.293490 1.136300 0.802400
C275 C 1.366240 1.185900 0.767000
C276 C 1.423170 1.038300 0.817800
C277 C 1.407030 0.841200 0.901300
C278 C 1.334020 0.787600 0.934800
H279 H 1.255600 1.231000 0.770000
H280 H 1.376900 1.321000 0.711000
H281 H 1.446500 0.744000 0.933000
H282 H 1.324900 0.650000 0.986000
H283 H 1.473200 1.069000 0.792000
H284 H 1.078900 1.228000 1.167000
H285 H 1.046900 0.791000 0.772000
Cl286 Cl 0.823150 1.395450 1.046930
N287 N 0.848910 0.955900 1.065100
C288 C 0.924940 0.987700 1.033300
C289 C 0.953090 0.859600 0.899300
C290 C 0.972180 1.126800 1.136300
C291 C 0.801830 1.109200 1.076400
C292 C 0.723340 1.064200 1.113600
C293 C 0.706510 0.863700 1.197600
C294 C 0.633760 0.814100 1.233000
C295 C 0.576830 0.961700 1.182200
C296 C 0.592970 1.158800 1.098700
C297 C 0.665980 1.212400 1.065200
H298 H 0.744400 0.769000 1.230000
H299 H 0.623100 0.679000 1.289000
H300 H 0.553500 1.256000 1.067000
H301 H 0.675100 1.350000 1.014000
H302 H 0.526800 0.931000 1.208000
H303 H 0.921100 0.772000 0.833000
H304 H 0.953100 1.209000 1.228000
Cl305 Cl -0.176850 0.104550 0.546930
N306 N -0.151090 0.544100 0.565100
C307 C -0.075060 0.512300 0.533300
C308 C -0.046910 0.640400 0.399300
C309 C -0.027820 0.373200 0.636300
C310 C -0.198170 0.390800 0.576400
C311 C -0.276660 0.435800 0.613600
C312 C -0.293490 0.636300 0.697600
C313 C -0.366240 0.685900 0.733000
C314 C -0.423170 0.538300 0.682200
C315 C -0.407030 0.341200 0.598700
C316 C -0.334020 0.287600 0.565200
H317 H -0.255600 0.731000 0.730000
H318 H -0.376900 0.821000 0.789000
H319 H -0.446500 0.244000 0.567000
H320 H -0.324900 0.150000 0.514000
H321 H -0.473200 0.569000 0.708000
H322 H -0.078900 0.728000 0.333000
H323 H -0.046900 0.291000 0.728000
Cl324 Cl 0.176850 0.895450 0.453070
N325 N 0.151090 0.455900 0.434900
C326 C 0.075060 0.487700 0.466700
C327 C 0.046910 0.359600 0.600700
C328 C 0.027820 0.626800 0.363700
C329 C 0.198170 0.609200 0.423600
C330 C 0.276660 0.564200 0.386400
C331 C 0.293490 0.363700 0.302400
C332 C 0.366240 0.314100 0.267000
C333 C 0.423170 0.461700 0.317800
C334 C 0.407030 0.658800 0.401300
C335 C 0.334020 0.712400 0.434800
H336 H 0.255600 0.269000 0.270000
H337 H 0.376900 0.179000 0.211000
H338 H 0.446500 0.756000 0.433000
H339 H 0.324900 0.850000 0.486000
H340 H 0.473200 0.431000 0.292000
H341 H 0.078900 0.272000 0.667000
H342 H 0.046900 0.709000 0.272000
Cl343 Cl 0.823150 0.104550 0.546930
N344 N 0.848910 0.544100 0.565100
C345 C 0.924940 0.512300 0.533300
C346 C 0.953090 0.640400 0.399300
C347 C 0.972180 0.373200 0.636300
C348 C 0.801830 0.390800 0.576400
C349 C 0.723340 0.435800 0.613600
C350 C 0.706510 0.636300 0.697600
C351 C 0.633760 0.685900 0.733000
C352 C 0.576830 0.538300 0.682200
C353 C 0.592970 0.341200 0.598700
C354 C 0.665980 0.287600 0.565200
H355 H 0.744400 0.731000 0.730000
H356 H 0.623100 0.821000 0.789000
H357 H 0.553500 0.244000 0.567000
H358 H 0.675100 0.150000 0.514000
H359 H 0.526800 0.569000 0.708000
H360 H 0.921100 0.728000 0.333000
H361 H 0.953100 0.291000 0.728000
Cl362 Cl 1.176850 0.895450 0.453070
N363 N 1.151090 0.455900 0.434900
C364 C 1.075060 0.487700 0.466700
C365 C 1.046910 0.359600 0.600700
C366 C 1.027820 0.626800 0.363700
C367 C 1.198170 0.609200 0.423600
C368 C 1.276660 0.564200 0.386400
C369 C 1.293490 0.363700 0.302400
C370 C 1.366240 0.314100 0.267000
C371 C 1.423170 0.461700 0.317800
C372 C 1.407030 0.658800 0.401300
C373 C 1.334020 0.712400 0.434800
H374 H 1.255600 0.269000 0.270000
H375 H 1.376900 0.179000 0.211000
H376 H 1.446500 0.756000 0.433000
H377 H 1.324900 0.850000 0.486000
H378 H 1.473200 0.431000 0.292000
H379 H 1.078900 0.272000 0.667000
H380 H 1.046900 0.709000 0.272000

#END
