
#######################################################################
#
#                 Cambridge Crystallographic Data Centre
#                                CCDC 
#
#######################################################################
#
# If this CIF has been generated from an entry in the Cambridge 
# Structural Database, then it will include bibliographic, chemical, 
# crystal, experimental, refinement or atomic coordinate data resulting 
# from the CCDC's data processing and validation procedures.
#
#######################################################################

data_LAFHAD
_symmetry_cell_setting           monoclinic
_symmetry_space_group_name_H-M   'P 21/c'
_symmetry_Int_Tables_number      14
_space_group_name_Hall           '-P 2ybc'
loop_
_symmetry_equiv_pos_site_id
_symmetry_equiv_pos_as_xyz
1 x,y,z
2 -x,1/2+y,1/2-z
3 -x,-y,-z
4 x,1/2-y,1/2+z
_cell_length_a                   18.0005(13)
_cell_length_b                   5.9999(4)
_cell_length_c                   7.5480(5)
_cell_angle_alpha                90
_cell_angle_beta                 93.505(2)
_cell_angle_gamma                90
_cell_volume                     813.668
loop_
_atom_site_label
_atom_site_type_symbol
_atom_site_fract_x
_atom_site_fract_y
_atom_site_fract_z
Cl1 Cl 0.17685(2) -0.39545(8) -0.04693(7)
N1 N 0.15109(8) 0.0441(3) -0.0651(2)
C1 C 0.07506(9) 0.0123(3) -0.0333(2)
C2 C 0.04691(10) 0.1404(3) 0.1007(2)
C3 C 0.02782(10) -0.1268(3) -0.1363(2)
C4 C 0.19817(9) -0.1092(3) -0.0764(2)
C5 C 0.27666(9) -0.0642(3) -0.1136(2)
C6 C 0.29349(11) 0.1363(3) -0.1976(3)
C7 C 0.36624(11) 0.1859(4) -0.2330(3)
C8 C 0.42317(11) 0.0383(4) -0.1822(3)
C9 C 0.40703(11) -0.1588(4) -0.0987(3)
C10 C 0.33402(10) -0.2124(3) -0.0652(3)
H1 H 0.2556(11) 0.231(4) -0.230(3)
H2 H 0.3769(12) 0.321(4) -0.289(3)
H3 H 0.4465(14) -0.256(4) -0.067(3)
H4 H 0.3249(12) -0.350(4) -0.014(3)
H5 H 0.4732(14) 0.069(4) -0.208(3)
H6 H 0.0789(11) 0.228(4) 0.167(3)
H7 H 0.0469(12) -0.209(4) -0.228(3)
Cl1B Cl -0.17685(2) 0.39545(8) 0.04693(7)
N1B N -0.15109(8) -0.0441(3) 0.0651(2)
C1B C -0.07506(9) -0.0123(3) 0.0333(2)
C2B C -0.04691(10) -0.1404(3) -0.1007(2)
C3B C -0.02782(10) 0.1268(3) 0.1363(2)
C4B C -0.19817(9) 0.1092(3) 0.0764(2)
C5B C -0.27666(9) 0.0642(3) 0.1136(2)
C6B C -0.29349(11) -0.1363(3) 0.1976(3)
C7B C -0.36624(11) -0.1859(4) 0.2330(3)
C8B C -0.42317(11) -0.0383(4) 0.1822(3)
C9B C -0.40703(11) 0.1588(4) 0.0987(3)
C10B C -0.33402(10) 0.2124(3) 0.0652(3)
H1B H -0.2556(11) -0.231(4) 0.230(3)
H2B H -0.3769(12) -0.321(4) 0.289(3)
H3B H -0.4465(14) 0.256(4) 0.067(3)
H4B H -0.3249(12) 0.350(4) 0.014(3)
H5B H -0.4732(14) -0.069(4) 0.208(3)
H6B H -0.0789(11) -0.228(4) -0.167(3)
H7B H -0.0469(12) 0.209(4) 0.228(3)
Cl1 Cl 0.17685(2) -0.39545(8) 0.95307(7)
N1 N 0.15109(8) 0.0441(3) 0.9349(2)
C1 C 0.07506(9) 0.0123(3) 0.9667(2)
C2 C 0.04691(10) 0.1404(3) 1.1007(2)
C3 C 0.02782(10) -0.1268(3) 0.8637(2)
C4 C 0.19817(9) -0.1092(3) 0.9236(2)
C5 C 0.27666(9) -0.0642(3) 0.8864(2)
C6 C 0.29349(11) 0.1363(3) 0.8024(3)
C7 C 0.36624(11) 0.1859(4) 0.7670(3)
C8 C 0.42317(11) 0.0383(4) 0.8178(3)
C9 C 0.40703(11) -0.1588(4) 0.9013(3)
C10 C 0.33402(10) -0.2124(3) 0.9348(3)
H1 H 0.2556(11) 0.231(4) 0.770(3)
H2 H 0.3769(12) 0.321(4) 0.711(3)
H3 H 0.4465(14) -0.256(4) 0.933(3)
H4 H 0.3249(12) -0.350(4) 0.986(3)
H5 H 0.4732(14) 0.069(4) 0.792(3)
H6 H 0.0789(11) 0.228(4) 1.167(3)
H7 H 0.0469(12) -0.209(4) 0.772(3)
Cl1B Cl -0.17685(2) 0.39545(8) 1.04693(7)
N1B N -0.15109(8) -0.0441(3) 1.0651(2)
C1B C -0.07506(9) -0.0123(3) 1.0333(2)
C2B C -0.04691(10) -0.1404(3) 0.8993(2)
C3B C -0.02782(10) 0.1268(3) 1.1363(2)
C4B C -0.19817(9) 0.1092(3) 1.0764(2)
C5B C -0.27666(9) 0.0642(3) 1.1136(2)
C6B C -0.29349(11) -0.1363(3) 1.1976(3)
C7B C -0.36624(11) -0.1859(4) 1.2330(3)
C8B C -0.42317(11) -0.0383(4) 1.1822(3)
C9B C -0.40703(11) 0.1588(4) 1.0987(3)
C10B C -0.33402(10) 0.2124(3) 1.0652(3)
H1B H -0.2556(11) -0.231(4) 1.230(3)
H2B H -0.3769(12) -0.321(4) 1.289(3)
H3B H -0.4465(14) 0.256(4) 1.067(3)
H4B H -0.3249(12) 0.350(4) 1.014(3)
H5B H -0.4732(14) -0.069(4) 1.208(3)
H6B H -0.0789(11) -0.228(4) 0.833(3)
H7B H -0.0469(12) 0.209(4) 1.228(3)
Cl1 Cl 0.17685(2) 0.60455(8) -0.04693(7)
N1 N 0.15109(8) 1.0441(3) -0.0651(2)
C1 C 0.07506(9) 1.0123(3) -0.0333(2)
C2 C 0.04691(10) 1.1404(3) 0.1007(2)
C3 C 0.02782(10) 0.8732(3) -0.1363(2)
C4 C 0.19817(9) 0.8908(3) -0.0764(2)
C5 C 0.27666(9) 0.9358(3) -0.1136(2)
C6 C 0.29349(11) 1.1363(3) -0.1976(3)
C7 C 0.36624(11) 1.1859(4) -0.2330(3)
C8 C 0.42317(11) 1.0383(4) -0.1822(3)
C9 C 0.40703(11) 0.8412(4) -0.0987(3)
C10 C 0.33402(10) 0.7876(3) -0.0652(3)
H1 H 0.2556(11) 1.231(4) -0.230(3)
H2 H 0.3769(12) 1.321(4) -0.289(3)
H3 H 0.4465(14) 0.744(4) -0.067(3)
H4 H 0.3249(12) 0.650(4) -0.014(3)
H5 H 0.4732(14) 1.069(4) -0.208(3)
H6 H 0.0789(11) 1.228(4) 0.167(3)
H7 H 0.0469(12) 0.791(4) -0.228(3)
Cl1B Cl -0.17685(2) 1.39545(8) 0.04693(7)
N1B N -0.15109(8) 0.9559(3) 0.0651(2)
C1B C -0.07506(9) 0.9877(3) 0.0333(2)
C2B C -0.04691(10) 0.8596(3) -0.1007(2)
C3B C -0.02782(10) 1.1268(3) 0.1363(2)
C4B C -0.19817(9) 1.1092(3) 0.0764(2)
C5B C -0.27666(9) 1.0642(3) 0.1136(2)
C6B C -0.29349(11) 0.8637(3) 0.1976(3)
C7B C -0.36624(11) 0.8141(4) 0.2330(3)
C8B C -0.42317(11) 0.9617(4) 0.1822(3)
C9B C -0.40703(11) 1.1588(4) 0.0987(3)
C10B C -0.33402(10) 1.2124(3) 0.0652(3)
H1B H -0.2556(11) 0.769(4) 0.230(3)
H2B H -0.3769(12) 0.679(4) 0.289(3)
H3B H -0.4465(14) 1.256(4) 0.067(3)
H4B H -0.3249(12) 1.350(4) 0.014(3)
H5B H -0.4732(14) 0.931(4) 0.208(3)
H6B H -0.0789(11) 0.772(4) -0.167(3)
H7B H -0.0469(12) 1.209(4) 0.228(3)
Cl1 Cl 0.17685(2) 0.60455(8) 0.95307(7)
N1 N 0.15109(8) 1.0441(3) 0.9349(2)
C1 C 0.07506(9) 1.0123(3) 0.9667(2)
C2 C 0.04691(10) 1.1404(3) 1.1007(2)
C3 C 0.02782(10) 0.8732(3) 0.8637(2)
C4 C 0.19817(9) 0.8908(3) 0.9236(2)
C5 C 0.27666(9) 0.9358(3) 0.8864(2)
C6 C 0.29349(11) 1.1363(3) 0.8024(3)
C7 C 0.36624(11) 1.1859(4) 0.7670(3)
C8 C 0.42317(11) 1.0383(4) 0.8178(3)
C9 C 0.40703(11) 0.8412(4) 0.9013(3)
C10 C 0.33402(10) 0.7876(3) 0.9348(3)
H1 H 0.2556(11) 1.231(4) 0.770(3)
H2 H 0.3769(12) 1.321(4) 0.711(3)
H3 H 0.4465(14) 0.744(4) 0.933(3)
H4 H 0.3249(12) 0.650(4) 0.986(3)
H5 H 0.4732(14) 1.069(4) 0.792(3)
H6 H 0.0789(11) 1.228(4) 1.167(3)
H7 H 0.0469(12) 0.791(4) 0.772(3)
Cl1B Cl -0.17685(2) 1.39545(8) 1.04693(7)
N1B N -0.15109(8) 0.9559(3) 1.0651(2)
C1B C -0.07506(9) 0.9877(3) 1.0333(2)
C2B C -0.04691(10) 0.8596(3) 0.8993(2)
C3B C -0.02782(10) 1.1268(3) 1.1363(2)
C4B C -0.19817(9) 1.1092(3) 1.0764(2)
C5B C -0.27666(9) 1.0642(3) 1.1136(2)
C6B C -0.29349(11) 0.8637(3) 1.1976(3)
C7B C -0.36624(11) 0.8141(4) 1.2330(3)
C8B C -0.42317(11) 0.9617(4) 1.1822(3)
C9B C -0.40703(11) 1.1588(4) 1.0987(3)
C10B C -0.33402(10) 1.2124(3) 1.0652(3)
H1B H -0.2556(11) 0.769(4) 1.230(3)
H2B H -0.3769(12) 0.679(4) 1.289(3)
H3B H -0.4465(14) 1.256(4) 1.067(3)
H4B H -0.3249(12) 1.350(4) 1.014(3)
H5B H -0.4732(14) 0.931(4) 1.208(3)
H6B H -0.0789(11) 0.772(4) 0.833(3)
H7B H -0.0469(12) 1.209(4) 1.228(3)
Cl1 Cl 1.17685(2) -0.39545(8) -0.04693(7)
N1 N 1.15109(8) 0.0441(3) -0.0651(2)
C1 C 1.07506(9) 0.0123(3) -0.0333(2)
C2 C 1.04691(10) 0.1404(3) 0.1007(2)
C3 C 1.02782(10) -0.1268(3) -0.1363(2)
C4 C 1.19817(9) -0.1092(3) -0.0764(2)
C5 C 1.27666(9) -0.0642(3) -0.1136(2)
C6 C 1.29349(11) 0.1363(3) -0.1976(3)
C7 C 1.36624(11) 0.1859(4) -0.2330(3)
C8 C 1.42317(11) 0.0383(4) -0.1822(3)
C9 C 1.40703(11) -0.1588(4) -0.0987(3)
C10 C 1.33402(10) -0.2124(3) -0.0652(3)
H1 H 1.2556(11) 0.231(4) -0.230(3)
H2 H 1.3769(12) 0.321(4) -0.289(3)
H3 H 1.4465(14) -0.256(4) -0.067(3)
H4 H 1.3249(12) -0.350(4) -0.014(3)
H5 H 1.4732(14) 0.069(4) -0.208(3)
H6 H 1.0789(11) 0.228(4) 0.167(3)
H7 H 1.0469(12) -0.209(4) -0.228(3)
Cl1B Cl 0.82315(2) 0.39545(8) 0.04693(7)
N1B N 0.84891(8) -0.0441(3) 0.0651(2)
C1B C 0.92494(9) -0.0123(3) 0.0333(2)
C2B C 0.95309(10) -0.1404(3) -0.1007(2)
C3B C 0.97218(10) 0.1268(3) 0.1363(2)
C4B C 0.80183(9) 0.1092(3) 0.0764(2)
C5B C 0.72334(9) 0.0642(3) 0.1136(2)
C6B C 0.70651(11) -0.1363(3) 0.1976(3)
C7B C 0.63376(11) -0.1859(4) 0.2330(3)
C8B C 0.57683(11) -0.0383(4) 0.1822(3)
C9B C 0.59297(11) 0.1588(4) 0.0987(3)
C10B C 0.66598(10) 0.2124(3) 0.0652(3)
H1B H 0.7444(11) -0.231(4) 0.230(3)
H2B H 0.6231(12) -0.321(4) 0.289(3)
H3B H 0.5535(14) 0.256(4) 0.067(3)
H4B H 0.6751(12) 0.350(4) 0.014(3)
H5B H 0.5268(14) -0.069(4) 0.208(3)
H6B H 0.9211(11) -0.228(4) -0.167(3)
H7B H 0.9531(12) 0.209(4) 0.228(3)
Cl1 Cl 1.17685(2) -0.39545(8) 0.95307(7)
N1 N 1.15109(8) 0.0441(3) 0.9349(2)
C1 C 1.07506(9) 0.0123(3) 0.9667(2)
C2 C 1.04691(10) 0.1404(3) 1.1007(2)
C3 C 1.02782(10) -0.1268(3) 0.8637(2)
C4 C 1.19817(9) -0.1092(3) 0.9236(2)
C5 C 1.27666(9) -0.0642(3) 0.8864(2)
C6 C 1.29349(11) 0.1363(3) 0.8024(3)
C7 C 1.36624(11) 0.1859(4) 0.7670(3)
C8 C 1.42317(11) 0.0383(4) 0.8178(3)
C9 C 1.40703(11) -0.1588(4) 0.9013(3)
C10 C 1.33402(10) -0.2124(3) 0.9348(3)
H1 H 1.2556(11) 0.231(4) 0.770(3)
H2 H 1.3769(12) 0.321(4) 0.711(3)
H3 H 1.4465(14) -0.256(4) 0.933(3)
H4 H 1.3249(12) -0.350(4) 0.986(3)
H5 H 1.4732(14) 0.069(4) 0.792(3)
H6 H 1.0789(11) 0.228(4) 1.167(3)
H7 H 1.0469(12) -0.209(4) 0.772(3)
Cl1B Cl 0.82315(2) 0.39545(8) 1.04693(7)
N1B N 0.84891(8) -0.0441(3) 1.0651(2)
C1B C 0.92494(9) -0.0123(3) 1.0333(2)
C2B C 0.95309(10) -0.1404(3) 0.8993(2)
C3B C 0.97218(10) 0.1268(3) 1.1363(2)
C4B C 0.80183(9) 0.1092(3) 1.0764(2)
C5B C 0.72334(9) 0.0642(3) 1.1136(2)
C6B C 0.70651(11) -0.1363(3) 1.1976(3)
C7B C 0.63376(11) -0.1859(4) 1.2330(3)
C8B C 0.57683(11) -0.0383(4) 1.1822(3)
C9B C 0.59297(11) 0.1588(4) 1.0987(3)
C10B C 0.66598(10) 0.2124(3) 1.0652(3)
H1B H 0.7444(11) -0.231(4) 1.230(3)
H2B H 0.6231(12) -0.321(4) 1.289(3)
H3B H 0.5535(14) 0.256(4) 1.067(3)
H4B H 0.6751(12) 0.350(4) 1.014(3)
H5B H 0.5268(14) -0.069(4) 1.208(3)
H6B H 0.9211(11) -0.228(4) 0.833(3)
H7B H 0.9531(12) 0.209(4) 1.228(3)
Cl1 Cl 1.17685(2) 0.60455(8) -0.04693(7)
N1 N 1.15109(8) 1.0441(3) -0.0651(2)
C1 C 1.07506(9) 1.0123(3) -0.0333(2)
C2 C 1.04691(10) 1.1404(3) 0.1007(2)
C3 C 1.02782(10) 0.8732(3) -0.1363(2)
C4 C 1.19817(9) 0.8908(3) -0.0764(2)
C5 C 1.27666(9) 0.9358(3) -0.1136(2)
C6 C 1.29349(11) 1.1363(3) -0.1976(3)
C7 C 1.36624(11) 1.1859(4) -0.2330(3)
C8 C 1.42317(11) 1.0383(4) -0.1822(3)
C9 C 1.40703(11) 0.8412(4) -0.0987(3)
C10 C 1.33402(10) 0.7876(3) -0.0652(3)
H1 H 1.2556(11) 1.231(4) -0.230(3)
H2 H 1.3769(12) 1.321(4) -0.289(3)
H3 H 1.4465(14) 0.744(4) -0.067(3)
H4 H 1.3249(12) 0.650(4) -0.014(3)
H5 H 1.4732(14) 1.069(4) -0.208(3)
H6 H 1.0789(11) 1.228(4) 0.167(3)
H7 H 1.0469(12) 0.791(4) -0.228(3)
Cl1B Cl 0.82315(2) 1.39545(8) 0.04693(7)
N1B N 0.84891(8) 0.9559(3) 0.0651(2)
C1B C 0.92494(9) 0.9877(3) 0.0333(2)
C2B C 0.95309(10) 0.8596(3) -0.1007(2)
C3B C 0.97218(10) 1.1268(3) 0.1363(2)
C4B C 0.80183(9) 1.1092(3) 0.0764(2)
C5B C 0.72334(9) 1.0642(3) 0.1136(2)
C6B C 0.70651(11) 0.8637(3) 0.1976(3)
C7B C 0.63376(11) 0.8141(4) 0.2330(3)
C8B C 0.57683(11) 0.9617(4) 0.1822(3)
C9B C 0.59297(11) 1.1588(4) 0.0987(3)
C10B C 0.66598(10) 1.2124(3) 0.0652(3)
H1B H 0.7444(11) 0.769(4) 0.230(3)
H2B H 0.6231(12) 0.679(4) 0.289(3)
H3B H 0.5535(14) 1.256(4) 0.067(3)
H4B H 0.6751(12) 1.350(4) 0.014(3)
H5B H 0.5268(14) 0.931(4) 0.208(3)
H6B H 0.9211(11) 0.772(4) -0.167(3)
H7B H 0.9531(12) 1.209(4) 0.228(3)
Cl1 Cl 1.17685(2) 0.60455(8) 0.95307(7)
N1 N 1.15109(8) 1.0441(3) 0.9349(2)
C1 C 1.07506(9) 1.0123(3) 0.9667(2)
C2 C 1.04691(10) 1.1404(3) 1.1007(2)
C3 C 1.02782(10) 0.8732(3) 0.8637(2)
C4 C 1.19817(9) 0.8908(3) 0.9236(2)
C5 C 1.27666(9) 0.9358(3) 0.8864(2)
C6 C 1.29349(11) 1.1363(3) 0.8024(3)
C7 C 1.36624(11) 1.1859(4) 0.7670(3)
C8 C 1.42317(11) 1.0383(4) 0.8178(3)
C9 C 1.40703(11) 0.8412(4) 0.9013(3)
C10 C 1.33402(10) 0.7876(3) 0.9348(3)
H1 H 1.2556(11) 1.231(4) 0.770(3)
H2 H 1.3769(12) 1.321(4) 0.711(3)
H3 H 1.4465(14) 0.744(4) 0.933(3)
H4 H 1.3249(12) 0.650(4) 0.986(3)
H5 H 1.4732(14) 1.069(4) 0.792(3)
H6 H 1.0789(11) 1.228(4) 1.167(3)
H7 H 1.0469(12) 0.791(4) 0.772(3)
Cl1B Cl 0.82315(2) 1.39545(8) 1.04693(7)
N1B N 0.84891(8) 0.9559(3) 1.0651(2)
C1B C 0.92494(9) 0.9877(3) 1.0333(2)
C2B C 0.95309(10) 0.8596(3) 0.8993(2)
C3B C 0.97218(10) 1.1268(3) 1.1363(2)
C4B C 0.80183(9) 1.1092(3) 1.0764(2)
C5B C 0.72334(9) 1.0642(3) 1.1136(2)
C6B C 0.70651(11) 0.8637(3) 1.1976(3)
C7B C 0.63376(11) 0.8141(4) 1.2330(3)
C8B C 0.57683(11) 0.9617(4) 1.1822(3)
C9B C 0.59297(11) 1.1588(4) 1.0987(3)
C10B C 0.66598(10) 1.2124(3) 1.0652(3)
H1B H 0.7444(11) 0.769(4) 1.230(3)
H2B H 0.6231(12) 0.679(4) 1.289(3)
H3B H 0.5535(14) 1.256(4) 1.067(3)
H4B H 0.6751(12) 1.350(4) 1.014(3)
H5B H 0.5268(14) 0.931(4) 1.208(3)
H6B H 0.9211(11) 0.772(4) 0.833(3)
H7B H 0.9531(12) 1.209(4) 1.228(3)
Cl1 Cl -0.17685(2) 0.10455(8) 0.54693(7)
N1 N -0.15109(8) 0.5441(3) 0.5651(2)
C1 C -0.07506(9) 0.5123(3) 0.5333(2)
C2 C -0.04691(10) 0.6404(3) 0.3993(2)
C3 C -0.02782(10) 0.3732(3) 0.6363(2)
C4 C -0.19817(9) 0.3908(3) 0.5764(2)
C5 C -0.27666(9) 0.4358(3) 0.6136(2)
C6 C -0.29349(11) 0.6363(3) 0.6976(3)
C7 C -0.36624(11) 0.6859(4) 0.7330(3)
C8 C -0.42317(11) 0.5383(4) 0.6822(3)
C9 C -0.40703(11) 0.3412(4) 0.5987(3)
C10 C -0.33402(10) 0.2876(3) 0.5652(3)
H1 H -0.2556(11) 0.731(4) 0.730(3)
H2 H -0.3769(12) 0.821(4) 0.789(3)
H3 H -0.4465(14) 0.244(4) 0.567(3)
H4 H -0.3249(12) 0.150(4) 0.514(3)
H5 H -0.4732(14) 0.569(4) 0.708(3)
H6 H -0.0789(11) 0.728(4) 0.333(3)
H7 H -0.0469(12) 0.291(4) 0.728(3)
Cl1B Cl 0.17685(2) 0.89545(8) 0.45307(7)
N1B N 0.15109(8) 0.4559(3) 0.4349(2)
C1B C 0.07506(9) 0.4877(3) 0.4667(2)
C2B C 0.04691(10) 0.3596(3) 0.6007(2)
C3B C 0.02782(10) 0.6268(3) 0.3637(2)
C4B C 0.19817(9) 0.6092(3) 0.4236(2)
C5B C 0.27666(9) 0.5642(3) 0.3864(2)
C6B C 0.29349(11) 0.3637(3) 0.3024(3)
C7B C 0.36624(11) 0.3141(4) 0.2670(3)
C8B C 0.42317(11) 0.4617(4) 0.3178(3)
C9B C 0.40703(11) 0.6588(4) 0.4013(3)
C10B C 0.33402(10) 0.7124(3) 0.4348(3)
H1B H 0.2556(11) 0.269(4) 0.270(3)
H2B H 0.3769(12) 0.179(4) 0.211(3)
H3B H 0.4465(14) 0.756(4) 0.433(3)
H4B H 0.3249(12) 0.850(4) 0.486(3)
H5B H 0.4732(14) 0.431(4) 0.292(3)
H6B H 0.0789(11) 0.272(4) 0.667(3)
H7B H 0.0469(12) 0.709(4) 0.272(3)
Cl1 Cl 0.82315(2) 0.10455(8) 0.54693(7)
N1 N 0.84891(8) 0.5441(3) 0.5651(2)
C1 C 0.92494(9) 0.5123(3) 0.5333(2)
C2 C 0.95309(10) 0.6404(3) 0.3993(2)
C3 C 0.97218(10) 0.3732(3) 0.6363(2)
C4 C 0.80183(9) 0.3908(3) 0.5764(2)
C5 C 0.72334(9) 0.4358(3) 0.6136(2)
C6 C 0.70651(11) 0.6363(3) 0.6976(3)
C7 C 0.63376(11) 0.6859(4) 0.7330(3)
C8 C 0.57683(11) 0.5383(4) 0.6822(3)
C9 C 0.59297(11) 0.3412(4) 0.5987(3)
C10 C 0.66598(10) 0.2876(3) 0.5652(3)
H1 H 0.7444(11) 0.731(4) 0.730(3)
H2 H 0.6231(12) 0.821(4) 0.789(3)
H3 H 0.5535(14) 0.244(4) 0.567(3)
H4 H 0.6751(12) 0.150(4) 0.514(3)
H5 H 0.5268(14) 0.569(4) 0.708(3)
H6 H 0.9211(11) 0.728(4) 0.333(3)
H7 H 0.9531(12) 0.291(4) 0.728(3)
Cl1B Cl 1.17685(2) 0.89545(8) 0.45307(7)
N1B N 1.15109(8) 0.4559(3) 0.4349(2)
C1B C 1.07506(9) 0.4877(3) 0.4667(2)
C2B C 1.04691(10) 0.3596(3) 0.6007(2)
C3B C 1.02782(10) 0.6268(3) 0.3637(2)
C4B C 1.19817(9) 0.6092(3) 0.4236(2)
C5B C 1.27666(9) 0.5642(3) 0.3864(2)
C6B C 1.29349(11) 0.3637(3) 0.3024(3)
C7B C 1.36624(11) 0.3141(4) 0.2670(3)
C8B C 1.42317(11) 0.4617(4) 0.3178(3)
C9B C 1.40703(11) 0.6588(4) 0.4013(3)
C10B C 1.33402(10) 0.7124(3) 0.4348(3)
H1B H 1.2556(11) 0.269(4) 0.270(3)
H2B H 1.3769(12) 0.179(4) 0.211(3)
H3B H 1.4465(14) 0.756(4) 0.433(3)
H4B H 1.3249(12) 0.850(4) 0.486(3)
H5B H 1.4732(14) 0.431(4) 0.292(3)
H6B H 1.0789(11) 0.272(4) 0.667(3)
H7B H 1.0469(12) 0.709(4) 0.272(3)

#END
