
#######################################################################
#
#                 Cambridge Crystallographic Data Centre
#                                CCDC 
#
#######################################################################
#
# If this CIF has been generated from an entry in the Cambridge 
# Structural Database, then it will include bibliographic, chemical, 
# crystal, experimental, refinement or atomic coordinate data resulting 
# from the CCDC's data processing and validation procedures.
#
#######################################################################

data_LAFHUV
_symmetry_cell_setting           triclinic
_symmetry_space_group_name_H-M   'P -1'
_symmetry_Int_Tables_number      2
_space_group_name_Hall           '-P 1'
loop_
_symmetry_equiv_pos_site_id
_symmetry_equiv_pos_as_xyz
1 x,y,z
2 -x,-y,-z
_cell_length_a                   7.849(2)
_cell_length_b                   9.375(2)
_cell_length_c                   12.251(3)
_cell_angle_alpha                85.46(2)
_cell_angle_beta                 79.00(2)
_cell_angle_gamma                75.08(2)
_cell_volume                     854.657
loop_
_atom_site_label
_atom_site_type_symbol
_atom_site_fract_x
_atom_site_fract_y
_atom_site_fract_z
O1 O 0.3737(2) 0.8313(1) 0.2122(1)
C1 C 0.3111(3) 0.9490(2) 0.1488(2)
O2 O 0.2597(2) 1.0712(1) 0.1863(1)
C2 C 0.3127(2) 0.9015(2) 0.0372(1)
C3 C 0.3880(3) 0.7379(2) 0.0304(2)
C4 C 0.2551(3) 0.6500(2) 0.0125(2)
C5 C 0.2176(2) 0.5699(2) 0.1222(1)
C6 C 0.0849(3) 0.4765(2) 0.1434(2)
O3 O 0.1492(2) 0.3489(2) 0.0745(1)
C7 C 0.0465(3) 0.4356(3) 0.2665(2)
C8 C 0.2173(3) 0.3891(2) 0.3150(2)
C9 C 0.3160(3) 0.5116(2) 0.3095(2)
C10 C 0.5094(4) 0.4413(3) 0.3244(2)
C11 C 0.2260(4) 0.6206(3) 0.4033(2)
C12 C 0.3139(2) 0.5898(2) 0.1959(1)
C13 C 0.4281(3) 0.6937(2) 0.1491(2)
C14 C 0.2473(3) 0.9969(2) -0.0390(2)
O4 O 0.2479(2) 0.9502(1) -0.1417(1)
O5 O 0.2332(2) 1.1695(1) -0.2461(1)
C15 C 0.1480(3) 1.0539(2) -0.2101(2)
C16 C 0.1453(3) 0.9825(3) -0.3137(2)
C17 C 0.2183(3) 1.0496(2) -0.4008(2)
C18 C 0.2462(5) 1.0230(3) -0.5224(2)
C19 C 0.2753(3) 1.1702(2) -0.3604(2)
O6 O 0.3435(2) 1.2609(2) -0.4112(1)
H1 H 0.4955(24) 0.7150(19) -0.0245(15)
H2 H 0.1427(25) 0.7169(20) -0.0110(15)
H3 H 0.3054(25) 0.5795(21) -0.0448(16)
H4 H -0.0279(24) 0.5335(19) 0.1202(14)
H5 H 0.1888(33) 0.2706(27) 0.1146(20)
H6 H -0.0378(25) 0.5212(22) 0.3063(15)
H7 H -0.0176(27) 0.3587(22) 0.2760(16)
H8 H 0.1900(25) 0.3581(21) 0.3908(17)
H9 H 0.3019(25) 0.3040(21) 0.2743(15)
H10 H 0.5827(31) 0.5107(26) 0.3212(19)
H11 H 0.5114(30) 0.3827(26) 0.3926(20)
H12 H 0.5709(28) 0.3740(20) 0.2662(13)
H13 H 0.2305(29) 0.5664(26) 0.4762(20)
H14 H 0.1035(10) 0.6664(22) 0.3979(19)
H15 H 0.2877(29) 0.6978(25) 0.4004(18)
H16 H 0.5589(25) 0.6540(20) 0.1519(14)
H17 H 0.2011(23) 1.1014(21) -0.0258(14)
H18 H 0.0283(28) 1.0989(21) -0.1660(16)
H19 H 0.0942(29) 0.9006(25) -0.3085(18)
H20 H 0.3572(40) 1.0393(33) -0.5612(26)
H21 H 0.1605(27) 1.0971(22) -0.5558(21)
H22 H 0.2303(39) 0.9289(15) -0.5379(24)
O1 O 0.6263(2) 0.1687(1) 0.7878(1)
C1 C 0.6889(3) 0.0510(2) 0.8512(2)
O2 O 0.7403(2) -0.0712(1) 0.8137(1)
C2 C 0.6873(2) 0.0985(2) 0.9628(1)
C3 C 0.6120(3) 0.2621(2) 0.9696(2)
C4 C 0.7449(3) 0.3500(2) 0.9875(2)
C5 C 0.7824(2) 0.4301(2) 0.8778(1)
C6 C 0.9151(3) 0.5235(2) 0.8566(2)
O3 O 0.8508(2) 0.6511(2) 0.9255(1)
C7 C 0.9535(3) 0.5644(3) 0.7335(2)
C8 C 0.7827(3) 0.6109(2) 0.6850(2)
C9 C 0.6840(3) 0.4884(2) 0.6905(2)
C10 C 0.4906(4) 0.5587(3) 0.6756(2)
C11 C 0.7740(4) 0.3794(3) 0.5967(2)
C12 C 0.6861(2) 0.4102(2) 0.8041(1)
C13 C 0.5719(3) 0.3063(2) 0.8509(2)
C14 C 0.7527(3) 0.0031(2) 1.0390(2)
O4 O 0.7521(2) 0.0498(1) 1.1417(1)
O5 O 0.7668(2) -0.1695(1) 1.2461(1)
C15 C 0.8520(3) -0.0539(2) 1.2101(2)
C16 C 0.8547(3) 0.0175(3) 1.3137(2)
C17 C 0.7817(3) -0.0496(2) 1.4008(2)
C18 C 0.7538(5) -0.0230(3) 1.5224(2)
C19 C 0.7247(3) -0.1702(2) 1.3604(2)
O6 O 0.6565(2) -0.2609(2) 1.4112(1)
H1 H 0.5045(24) 0.2850(19) 1.0245(15)
H2 H 0.8573(25) 0.2831(20) 1.0110(15)
H3 H 0.6946(25) 0.4205(21) 1.0448(16)
H4 H 1.0279(24) 0.4665(19) 0.8798(14)
H5 H 0.8112(33) 0.7294(27) 0.8854(20)
H6 H 1.0378(25) 0.4788(22) 0.6937(15)
H7 H 1.0176(27) 0.6413(22) 0.7240(16)
H8 H 0.8100(25) 0.6419(21) 0.6092(17)
H9 H 0.6981(25) 0.6960(21) 0.7257(15)
H10 H 0.4173(31) 0.4893(26) 0.6788(19)
H11 H 0.4886(30) 0.6173(26) 0.6074(20)
H12 H 0.4291(28) 0.6260(20) 0.7338(13)
H13 H 0.7695(29) 0.4336(26) 0.5238(20)
H14 H 0.8965(10) 0.3336(22) 0.6021(19)
H15 H 0.7123(29) 0.3022(25) 0.5996(18)
H16 H 0.4411(25) 0.3460(20) 0.8481(14)
H17 H 0.7989(23) -0.1014(21) 1.0258(14)
H18 H 0.9717(28) -0.0989(21) 1.1660(16)
H19 H 0.9058(29) 0.0994(25) 1.3085(18)
H20 H 0.6428(40) -0.0393(33) 1.5612(26)
H21 H 0.8395(27) -0.0971(22) 1.5558(21)
H22 H 0.7697(39) 0.0711(15) 1.5379(24)

#END
