
#######################################################################
#
#                 Cambridge Crystallographic Data Centre
#                                CCDC 
#
#######################################################################
#
# If this CIF has been generated from an entry in the Cambridge 
# Structural Database, then it will include bibliographic, chemical, 
# crystal, experimental, refinement or atomic coordinate data resulting 
# from the CCDC's data processing and validation procedures.
#
#######################################################################

data_LAFKIM
_symmetry_cell_setting           monoclinic
_symmetry_space_group_name_H-M   'P 21/n'
_symmetry_Int_Tables_number      14
_space_group_name_Hall           '-P 2yn'
loop_
_symmetry_equiv_pos_site_id
_symmetry_equiv_pos_as_xyz
1 x,y,z
2 1/2-x,1/2+y,1/2-z
3 -x,-y,-z
4 1/2+x,1/2-y,1/2+z
_cell_length_a                   15.679(4)
_cell_length_b                   8.567(2)
_cell_length_c                   23.884(17)
_cell_angle_alpha                90
_cell_angle_beta                 92.60(6)
_cell_angle_gamma                90
_cell_volume                     3204.84
loop_
_atom_site_label
_atom_site_type_symbol
_atom_site_fract_x
_atom_site_fract_y
_atom_site_fract_z
C1 C 0.3686(2) -0.0632(3) 0.3064(1)
C2 C 0.3963(2) -0.1874(3) 0.2752(1)
C3 C 0.4310(2) -0.3177(3) 0.3027(1)
C4 C 0.4369(2) -0.3227(3) 0.3604(1)
C5 C 0.4097(2) -0.1977(3) 0.3924(1)
C6 C 0.3757(2) -0.0680(3) 0.3648(1)
C7 C 0.3405(2) 0.0777(3) 0.3866(1)
C8 C 0.3333(2) 0.1290(3) 0.4412(1)
C9 C 0.2952(2) 0.2735(3) 0.4501(1)
C10 C 0.2659(2) 0.3645(3) 0.4055(1)
C11 C 0.2744(2) 0.3139(3) 0.3505(1)
C12 C 0.3109(2) 0.1699(3) 0.3418(1)
C13 C 0.3192(2) 0.0825(3) 0.2866(1)
O1 O 0.2351(1) 0.0358(2) 0.2665(1)
H1 H 0.217 -0.040 0.298
C14 C 0.3568(2) 0.1748(3) 0.2389(1)
C15 C 0.3112(2) 0.1864(3) 0.1887(1)
C16 C 0.3423(2) 0.2723(3) 0.1435(1)
C17 C 0.4173(2) 0.3496(3) 0.1488(1)
C18 C 0.4675(2) 0.3424(3) 0.1995(1)
C19 C 0.5456(2) 0.4230(3) 0.2057(1)
C20 C 0.5948(2) 0.4152(3) 0.2542(1)
C21 C 0.5670(2) 0.3237(3) 0.2988(1)
C22 C 0.4914(2) 0.2454(3) 0.2948(1)
C23 C 0.4376(2) 0.2526(3) 0.2452(1)
H3 H 0.3876 -0.1849 0.2366
H4 H 0.4436 -0.4212 0.2793
H5 H 0.4565 -0.4226 0.3803
H6 H 0.4129 -0.2045 0.4368
H7 H 0.3583 0.0620 0.4747
H8 H 0.2991 0.3065 0.4974
H9 H 0.2423 0.4720 0.4147
H10 H 0.2489 0.3718 0.3186
H11 H 0.2594 0.1453 0.1840
H12 H 0.3023 0.2804 0.1178
H13 H 0.4444 0.4234 0.1148
H14 H 0.5657 0.5068 0.1720
H15 H 0.6571 0.4699 0.2597
H16 H 0.6017 0.3213 0.3330
H17 H 0.4749 0.1871 0.3341
C1 C 0.1314(2) 0.4368(3) 0.1936(1)
C2 C 0.1037(2) 0.3126(3) 0.2248(1)
C3 C 0.0690(2) 0.1823(3) 0.1973(1)
C4 C 0.0631(2) 0.1773(3) 0.1396(1)
C5 C 0.0903(2) 0.3023(3) 0.1076(1)
C6 C 0.1243(2) 0.4320(3) 0.1352(1)
C7 C 0.1595(2) 0.5777(3) 0.1134(1)
C8 C 0.1667(2) 0.6290(3) 0.0588(1)
C9 C 0.2048(2) 0.7735(3) 0.0499(1)
C10 C 0.2341(2) 0.8645(3) 0.0945(1)
C11 C 0.2256(2) 0.8139(3) 0.1495(1)
C12 C 0.1891(2) 0.6699(3) 0.1582(1)
C13 C 0.1808(2) 0.5825(3) 0.2134(1)
O1 O 0.2649(1) 0.5358(2) 0.2335(1)
H1 H 0.283 0.460 0.202
C14 C 0.1432(2) 0.6748(3) 0.2611(1)
C15 C 0.1888(2) 0.6864(3) 0.3113(1)
C16 C 0.1577(2) 0.7723(3) 0.3565(1)
C17 C 0.0827(2) 0.8496(3) 0.3512(1)
C18 C 0.0325(2) 0.8424(3) 0.3005(1)
C19 C -0.0456(2) 0.9230(3) 0.2943(1)
C20 C -0.0948(2) 0.9152(3) 0.2458(1)
C21 C -0.0670(2) 0.8237(3) 0.2012(1)
C22 C 0.0086(2) 0.7454(3) 0.2052(1)
C23 C 0.0624(2) 0.7526(3) 0.2548(1)
H3 H 0.1124 0.3151 0.2634
H4 H 0.0564 0.0788 0.2207
H5 H 0.0435 0.0774 0.1197
H6 H 0.0871 0.2955 0.0632
H7 H 0.1417 0.5620 0.0253
H8 H 0.2009 0.8065 0.0026
H9 H 0.2577 0.9720 0.0853
H10 H 0.2511 0.8718 0.1814
H11 H 0.2406 0.6453 0.3160
H12 H 0.1977 0.7804 0.3822
H13 H 0.0556 0.9234 0.3852
H14 H -0.0657 1.0068 0.3280
H15 H -0.1571 0.9699 0.2403
H16 H -0.1017 0.8213 0.1670
H17 H 0.0251 0.6871 0.1659
C1 C 0.6314(2) 1.0632(3) 0.6936(1)
C2 C 0.6037(2) 1.1874(3) 0.7248(1)
C3 C 0.5690(2) 1.3177(3) 0.6973(1)
C4 C 0.5631(2) 1.3227(3) 0.6396(1)
C5 C 0.5903(2) 1.1977(3) 0.6076(1)
C6 C 0.6243(2) 1.0680(3) 0.6352(1)
C7 C 0.6595(2) 0.9223(3) 0.6134(1)
C8 C 0.6667(2) 0.8710(3) 0.5588(1)
C9 C 0.7048(2) 0.7265(3) 0.5499(1)
C10 C 0.7341(2) 0.6355(3) 0.5945(1)
C11 C 0.7256(2) 0.6861(3) 0.6495(1)
C12 C 0.6891(2) 0.8301(3) 0.6582(1)
C13 C 0.6808(2) 0.9175(3) 0.7134(1)
O1 O 0.7649(1) 0.9642(2) 0.7335(1)
H1 H 0.783 1.040 0.702
C14 C 0.6432(2) 0.8252(3) 0.7611(1)
C15 C 0.6888(2) 0.8136(3) 0.8113(1)
C16 C 0.6577(2) 0.7277(3) 0.8565(1)
C17 C 0.5827(2) 0.6504(3) 0.8512(1)
C18 C 0.5325(2) 0.6576(3) 0.8005(1)
C19 C 0.4544(2) 0.5770(3) 0.7943(1)
C20 C 0.4052(2) 0.5848(3) 0.7458(1)
C21 C 0.4330(2) 0.6763(3) 0.7012(1)
C22 C 0.5086(2) 0.7546(3) 0.7052(1)
C23 C 0.5624(2) 0.7474(3) 0.7548(1)
H3 H 0.6124 1.1849 0.7634
H4 H 0.5564 1.4212 0.7207
H5 H 0.5435 1.4226 0.6197
H6 H 0.5871 1.2045 0.5632
H7 H 0.6417 0.9380 0.5253
H8 H 0.7009 0.6935 0.5026
H9 H 0.7577 0.5280 0.5853
H10 H 0.7511 0.6282 0.6814
H11 H 0.7406 0.8547 0.8160
H12 H 0.6977 0.7196 0.8822
H13 H 0.5556 0.5766 0.8852
H14 H 0.4343 0.4932 0.8280
H15 H 0.3429 0.5301 0.7403
H16 H 0.3983 0.6787 0.6670
H17 H 0.5251 0.8129 0.6659
C1 C 0.8686(2) 0.5632(3) 0.8064(1)
C2 C 0.8963(2) 0.6874(3) 0.7752(1)
C3 C 0.9310(2) 0.8177(3) 0.8027(1)
C4 C 0.9369(2) 0.8227(3) 0.8604(1)
C5 C 0.9097(2) 0.6977(3) 0.8924(1)
C6 C 0.8757(2) 0.5680(3) 0.8648(1)
C7 C 0.8405(2) 0.4223(3) 0.8866(1)
C8 C 0.8333(2) 0.3710(3) 0.9412(1)
C9 C 0.7952(2) 0.2265(3) 0.9501(1)
C10 C 0.7659(2) 0.1355(3) 0.9055(1)
C11 C 0.7744(2) 0.1861(3) 0.8505(1)
C12 C 0.8109(2) 0.3301(3) 0.8418(1)
C13 C 0.8192(2) 0.4175(3) 0.7866(1)
O1 O 0.7351(1) 0.4642(2) 0.7665(1)
H1 H 0.717 0.540 0.798
C14 C 0.8568(2) 0.3252(3) 0.7389(1)
C15 C 0.8112(2) 0.3136(3) 0.6887(1)
C16 C 0.8423(2) 0.2277(3) 0.6435(1)
C17 C 0.9173(2) 0.1504(3) 0.6488(1)
C18 C 0.9675(2) 0.1576(3) 0.6995(1)
C19 C 1.0456(2) 0.0770(3) 0.7057(1)
C20 C 1.0948(2) 0.0848(3) 0.7542(1)
C21 C 1.0670(2) 0.1763(3) 0.7988(1)
C22 C 0.9914(2) 0.2546(3) 0.7948(1)
C23 C 0.9376(2) 0.2474(3) 0.7452(1)
H3 H 0.8876 0.6849 0.7366
H4 H 0.9436 0.9212 0.7793
H5 H 0.9565 0.9226 0.8803
H6 H 0.9129 0.7045 0.9368
H7 H 0.8583 0.4380 0.9747
H8 H 0.7991 0.1935 0.9974
H9 H 0.7423 0.0280 0.9147
H10 H 0.7489 0.1282 0.8186
H11 H 0.7594 0.3547 0.6840
H12 H 0.8023 0.2196 0.6178
H13 H 0.9444 0.0766 0.6148
H14 H 1.0657 -0.0068 0.6720
H15 H 1.1571 0.0301 0.7597
H16 H 1.1017 0.1787 0.8330
H17 H 0.9749 0.3129 0.8341
C24 C 0.7789(2) 0.6886(3) 0.0452(1)
C25 C 0.8002(2) 0.8369(3) 0.0278(1)
C26 C 0.8857(2) 0.8821(3) 0.0314(1)
C27 C 0.9478(2) 0.7814(3) 0.0510(1)
C28 C 0.9270(2) 0.6311(3) 0.0691(1)
C29 C 0.8420(2) 0.5870(3) 0.0668(1)
C30 C 0.8003(2) 0.4411(3) 0.0834(1)
C31 C 0.8338(2) 0.3049(3) 0.1074(1)
C32 C 0.7792(3) 0.1846(4) 0.1190(1)
C33 C 0.6930(3) 0.1960(4) 0.1060(1)
C34 C 0.6585(2) 0.3322(3) 0.0819(1)
C35 C 0.7131(2) 0.4539(3) 0.0713(1)
C36 C 0.6920(2) 0.6094(3) 0.0427(1)
O2 O 0.6655(1) 0.5803(2) -0.0150(1)
H2 H 0.702 0.506 -0.025
C37 C 0.6207(2) 0.7054(3) 0.0676(1)
C38 C 0.5503(2) 0.7438(4) 0.0346(2)
C39 C 0.4840(2) 0.8387(5) 0.0556(2)
C40 C 0.4905(2) 0.8946(4) 0.1080(2)
C41 C 0.5613(2) 0.8582(3) 0.1438(2)
C42 C 0.5687(3) 0.9178(4) 0.1989(2)
C43 C 0.6354(3) 0.8803(4) 0.2344(2)
C44 C 0.6996(2) 0.7793(4) 0.2161(1)
C45 C 0.6960(2) 0.7231(3) 0.1624(1)
C46 C 0.6278(2) 0.7605(3) 0.1243(1)
H18 H 0.7568 0.9088 0.0148
H19 H 0.8989 0.9970 0.0195
H20 H 1.0031 0.7988 0.0600
H21 H 0.9756 0.5703 0.0806
H22 H 0.8818 0.3145 0.1176
H23 H 0.8049 0.0766 0.1329
H24 H 0.6469 0.1135 0.1157
H25 H 0.6047 0.3381 0.0756
H26 H 0.5538 0.6920 -0.0050
H27 H 0.4520 0.8646 0.0181
H28 H 0.4464 0.9606 0.1318
H29 H 0.5198 0.9854 0.2156
H30 H 0.6459 0.9164 0.2811
H31 H 0.7415 0.7492 0.2389
H32 H 0.7429 0.6578 0.1547
C24 C 0.7211(2) 0.1886(3) 0.4548(1)
C25 C 0.6998(2) 0.3369(3) 0.4722(1)
C26 C 0.6143(2) 0.3821(3) 0.4686(1)
C27 C 0.5522(2) 0.2814(3) 0.4490(1)
C28 C 0.5730(2) 0.1311(3) 0.4309(1)
C29 C 0.6580(2) 0.0870(3) 0.4332(1)
C30 C 0.6997(2) -0.0589(3) 0.4166(1)
C31 C 0.6662(2) -0.1951(3) 0.3926(1)
C32 C 0.7208(3) -0.3154(4) 0.3810(1)
C33 C 0.8070(3) -0.3040(4) 0.3940(1)
C34 C 0.8415(2) -0.1678(3) 0.4181(1)
C35 C 0.7869(2) -0.0461(3) 0.4287(1)
C36 C 0.8080(2) 0.1094(3) 0.4573(1)
O2 O 0.8345(1) 0.0803(2) 0.5150(1)
H2 H 0.798 0.006 0.525
C37 C 0.8793(2) 0.2054(3) 0.4324(1)
C38 C 0.9497(2) 0.2438(4) 0.4654(2)
C39 C 1.0160(2) 0.3387(5) 0.4444(2)
C40 C 1.0095(2) 0.3946(4) 0.3920(2)
C41 C 0.9387(2) 0.3582(3) 0.3562(2)
C42 C 0.9313(3) 0.4178(4) 0.3011(2)
C43 C 0.8646(3) 0.3803(4) 0.2656(2)
C44 C 0.8004(2) 0.2793(4) 0.2839(1)
C45 C 0.8040(2) 0.2231(3) 0.3376(1)
C46 C 0.8722(2) 0.2605(3) 0.3757(1)
H18 H 0.7432 0.4088 0.4852
H19 H 0.6011 0.4970 0.4805
H20 H 0.4969 0.2988 0.4400
H21 H 0.5244 0.0703 0.4194
H22 H 0.6182 -0.1855 0.3824
H23 H 0.6951 -0.4234 0.3671
H24 H 0.8531 -0.3865 0.3843
H25 H 0.8953 -0.1619 0.4244
H26 H 0.9462 0.1920 0.5050
H27 H 1.0480 0.3646 0.4819
H28 H 1.0536 0.4606 0.3682
H29 H 0.9802 0.4854 0.2844
H30 H 0.8541 0.4164 0.2189
H31 H 0.7585 0.2492 0.2611
H32 H 0.7571 0.1578 0.3453
C24 C 0.2211(2) 0.3114(3) 0.9548(1)
C25 C 0.1998(2) 0.1631(3) 0.9722(1)
C26 C 0.1143(2) 0.1179(3) 0.9686(1)
C27 C 0.0522(2) 0.2186(3) 0.9490(1)
C28 C 0.0730(2) 0.3689(3) 0.9309(1)
C29 C 0.1580(2) 0.4130(3) 0.9332(1)
C30 C 0.1997(2) 0.5589(3) 0.9166(1)
C31 C 0.1662(2) 0.6951(3) 0.8926(1)
C32 C 0.2208(3) 0.8154(4) 0.8810(1)
C33 C 0.3070(3) 0.8040(4) 0.8940(1)
C34 C 0.3415(2) 0.6678(3) 0.9181(1)
C35 C 0.2869(2) 0.5461(3) 0.9287(1)
C36 C 0.3080(2) 0.3906(3) 0.9573(1)
O2 O 0.3345(1) 0.4197(2) 1.0150(1)
H2 H 0.298 0.494 1.025
C37 C 0.3793(2) 0.2946(3) 0.9324(1)
C38 C 0.4497(2) 0.2562(4) 0.9654(2)
C39 C 0.5160(2) 0.1613(5) 0.9444(2)
C40 C 0.5095(2) 0.1054(4) 0.8920(2)
C41 C 0.4387(2) 0.1418(3) 0.8562(2)
C42 C 0.4313(3) 0.0822(4) 0.8011(2)
C43 C 0.3646(3) 0.1197(4) 0.7656(2)
C44 C 0.3004(2) 0.2207(4) 0.7839(1)
C45 C 0.3040(2) 0.2769(3) 0.8376(1)
C46 C 0.3722(2) 0.2395(3) 0.8757(1)
H18 H 0.2432 0.0912 0.9852
H19 H 0.1011 0.0030 0.9805
H20 H -0.0031 0.2012 0.9400
H21 H 0.0244 0.4297 0.9194
H22 H 0.1182 0.6855 0.8824
H23 H 0.1951 0.9234 0.8671
H24 H 0.3531 0.8865 0.8843
H25 H 0.3953 0.6619 0.9244
H26 H 0.4462 0.3080 1.0050
H27 H 0.5480 0.1354 0.9819
H28 H 0.5536 0.0394 0.8682
H29 H 0.4802 0.0146 0.7844
H30 H 0.3541 0.0836 0.7189
H31 H 0.2585 0.2508 0.7611
H32 H 0.2571 0.3422 0.8453
C24 C 0.2789(2) 0.8114(3) 0.5452(1)
C25 C 0.3002(2) 0.6631(3) 0.5278(1)
C26 C 0.3857(2) 0.6179(3) 0.5314(1)
C27 C 0.4478(2) 0.7186(3) 0.5510(1)
C28 C 0.4270(2) 0.8689(3) 0.5691(1)
C29 C 0.3420(2) 0.9130(3) 0.5668(1)
C30 C 0.3003(2) 1.0589(3) 0.5834(1)
C31 C 0.3338(2) 1.1951(3) 0.6074(1)
C32 C 0.2792(3) 1.3154(4) 0.6190(1)
C33 C 0.1930(3) 1.3040(4) 0.6060(1)
C34 C 0.1585(2) 1.1678(3) 0.5819(1)
C35 C 0.2131(2) 1.0461(3) 0.5713(1)
C36 C 0.1920(2) 0.8906(3) 0.5427(1)
O2 O 0.1655(1) 0.9197(2) 0.4850(1)
H2 H 0.202 0.994 0.475
C37 C 0.1207(2) 0.7946(3) 0.5676(1)
C38 C 0.0503(2) 0.7562(4) 0.5346(2)
C39 C -0.0160(2) 0.6613(5) 0.5556(2)
C40 C -0.0095(2) 0.6054(4) 0.6080(2)
C41 C 0.0613(2) 0.6418(3) 0.6438(2)
C42 C 0.0687(3) 0.5822(4) 0.6989(2)
C43 C 0.1354(3) 0.6197(4) 0.7344(2)
C44 C 0.1996(2) 0.7207(4) 0.7161(1)
C45 C 0.1960(2) 0.7769(3) 0.6624(1)
C46 C 0.1278(2) 0.7395(3) 0.6243(1)
H18 H 0.2568 0.5912 0.5148
H19 H 0.3989 0.5030 0.5195
H20 H 0.5031 0.7012 0.5600
H21 H 0.4756 0.9297 0.5806
H22 H 0.3818 1.1855 0.6176
H23 H 0.3049 1.4234 0.6329
H24 H 0.1469 1.3865 0.6157
H25 H 0.1047 1.1619 0.5756
H26 H 0.0538 0.8080 0.4950
H27 H -0.0480 0.6354 0.5181
H28 H -0.0536 0.5394 0.6318
H29 H 0.0198 0.5146 0.7156
H30 H 0.1459 0.5836 0.7811
H31 H 0.2415 0.7508 0.7389
H32 H 0.2429 0.8422 0.6547

#END
