
#######################################################################
#
#                 Cambridge Crystallographic Data Centre
#                                CCDC 
#
#######################################################################
#
# If this CIF has been generated from an entry in the Cambridge 
# Structural Database, then it will include bibliographic, chemical, 
# crystal, experimental, refinement or atomic coordinate data resulting 
# from the CCDC's data processing and validation procedures.
#
#######################################################################

data_LAFKIP
_symmetry_cell_setting           triclinic
_symmetry_space_group_name_H-M   'P -1'
_symmetry_Int_Tables_number      2
_space_group_name_Hall           '-P 1'
loop_
_symmetry_equiv_pos_site_id
_symmetry_equiv_pos_as_xyz
1 x,y,z
2 -x,-y,-z
_cell_length_a                   6.2142(5)
_cell_length_b                   7.8709(6)
_cell_length_c                   20.0780(15)
_cell_angle_alpha                92.439(6)
_cell_angle_beta                 95.360(6)
_cell_angle_gamma                112.027(8)
_cell_volume                     903.171
loop_
_atom_site_label
_atom_site_type_symbol
_atom_site_fract_x
_atom_site_fract_y
_atom_site_fract_z
O1 O -0.2979(2) 0.6231(2) 0.21259(8)
O2 O 0.3379(2) 0.69609(19) 0.48750(7)
N1 N 0.0422(3) 0.7651(2) 0.17564(8)
C1 C 0.0133(3) 0.6187(3) 0.40762(10)
H1 H -0.0787(3) 0.5623(3) 0.44049(10)
C2 C -0.0625(3) 0.7005(2) 0.22729(10)
C3 C -0.0891(3) 0.6180(3) 0.34453(10)
H2 H -0.2506(3) 0.5605(3) 0.33495(10)
C4 C -0.1343(4) 0.7279(3) 0.12304(11)
C5 C 0.0422(3) 0.7012(2) 0.29428(10)
C6 C 0.2844(3) 0.7836(3) 0.31024(10)
H3 H 0.3765(3) 0.8377(3) 0.27709(10)
C7 C 0.2556(3) 0.7038(2) 0.42324(10)
C8 C 0.3896(3) 0.7865(3) 0.37361(10)
H4 H 0.5511(3) 0.8441(3) 0.38326(10)
C9 C -0.3402(4) 0.6428(3) 0.14494(11)
C10 C 0.8639(3) 0.8224(3) 0.61478(10)
H5 H 0.9592(3) 0.7729(3) 0.59099(10)
H6 H 0.9259(3) 0.9546(3) 0.61245(10)
C11 C 1.1220(4) 0.8508(3) 0.72531(11)
H7 H 1.1921(4) 0.9832(3) 0.72368(11)
H8 H 1.2165(4) 0.7978(3) 0.70279(11)
C12 C 0.5829(3) 0.7788(3) 0.50941(10)
H9 H 0.6679(3) 0.7261(3) 0.48252(10)
H10 H 0.6404(3) 0.9102(3) 0.50522(10)
C13 C 0.6147(4) 0.7414(3) 0.58095(11)
H11 H 0.5550(4) 0.6092(3) 0.58352(11)
H12 H 0.5204(4) 0.7891(3) 0.60599(11)
C14 C 1.1273(4) 0.8070(3) 0.79778(11)
H13 H 1.0389(4) 0.8653(3) 0.82062(11)
H14 H 1.0491(4) 0.6752(3) 0.79926(11)
C15 C 0.8789(4) 0.7800(3) 0.68767(11)
H15 H 0.7847(4) 0.8318(3) 0.71094(11)
H16 H 0.8103(4) 0.6477(3) 0.68935(11)
C16 C -0.5866(5) 0.5687(4) 0.11356(15)
H17 H -0.6577(14) 0.4403(9) 0.1202(11)
H18 H -0.6706(12) 0.634(2) 0.1339(9)
H19 H -0.5911(5) 0.584(3) 0.0664(3)
C17 C 1.3683(5) 0.8673(4) 0.83572(13)
H20 H 1.4544(5) 0.8036(4) 0.81465(13)
H21 H 1.4502(5) 0.9980(4) 0.83250(13)
C18 C -0.0776(6) 0.7820(5) 0.05439(14)
H22 H 0.027(3) 0.9087(11) 0.0572(2)
H23 H -0.004(4) 0.706(2) 0.0355(5)
H24 H -0.2189(7) 0.766(3) 0.0263(4)
C19 C 1.3665(6) 0.8302(5) 0.90945(14)
H25 H 1.286(4) 0.7010(7) 0.91313(15)
H26 H 1.5243(6) 0.869(3) 0.9305(3)
H27 H 1.288(4) 0.898(3) 0.9312(3)
O1 O 1.2979(2) 0.3769(2) 0.78741(8)
O2 O 0.6621(2) 0.30391(19) 0.51250(7)
N1 N 0.9578(3) 0.2349(2) 0.82436(8)
C1 C 0.9867(3) 0.3813(3) 0.59238(10)
H1 H 1.0787(3) 0.4377(3) 0.55951(10)
C2 C 1.0625(3) 0.2995(2) 0.77271(10)
C3 C 1.0891(3) 0.3820(3) 0.65547(10)
H2 H 1.2506(3) 0.4395(3) 0.66505(10)
C4 C 1.1343(4) 0.2721(3) 0.87696(11)
C5 C 0.9578(3) 0.2988(2) 0.70572(10)
C6 C 0.7156(3) 0.2164(3) 0.68976(10)
H3 H 0.6235(3) 0.1623(3) 0.72291(10)
C7 C 0.7444(3) 0.2962(2) 0.57676(10)
C8 C 0.6104(3) 0.2135(3) 0.62639(10)
H4 H 0.4489(3) 0.1559(3) 0.61674(10)
C9 C 1.3402(4) 0.3572(3) 0.85506(11)
C10 C 0.1361(3) 0.1776(3) 0.38522(10)
H5 H 0.0408(3) 0.2271(3) 0.40901(10)
H6 H 0.0741(3) 0.0454(3) 0.38755(10)
C11 C -0.1220(4) 0.1492(3) 0.27469(11)
H7 H -0.1921(4) 0.0168(3) 0.27632(11)
H8 H -0.2165(4) 0.2022(3) 0.29721(11)
C12 C 0.4171(3) 0.2212(3) 0.49059(10)
H9 H 0.3321(3) 0.2739(3) 0.51748(10)
H10 H 0.3596(3) 0.0898(3) 0.49478(10)
C13 C 0.3853(4) 0.2586(3) 0.41905(11)
H11 H 0.4450(4) 0.3908(3) 0.41648(11)
H12 H 0.4796(4) 0.2109(3) 0.39401(11)
C14 C -0.1273(4) 0.1930(3) 0.20222(11)
H13 H -0.0389(4) 0.1347(3) 0.17938(11)
H14 H -0.0491(4) 0.3248(3) 0.20074(11)
C15 C 0.1211(4) 0.2200(3) 0.31233(11)
H15 H 0.2153(4) 0.1682(3) 0.28906(11)
H16 H 0.1897(4) 0.3523(3) 0.31065(11)
C16 C 1.5866(5) 0.4313(4) 0.88644(15)
H17 H 1.6577(14) 0.5597(9) 0.8798(11)
H18 H 1.6706(12) 0.366(2) 0.8661(9)
H19 H 1.5911(5) 0.416(3) 0.9336(3)
C17 C -0.3683(5) 0.1327(4) 0.16428(13)
H20 H -0.4544(5) 0.1964(4) 0.18535(13)
H21 H -0.4502(5) 0.0020(4) 0.16750(13)
C18 C 1.0776(6) 0.2180(5) 0.94561(14)
H22 H 0.973(3) 0.0913(11) 0.9428(2)
H23 H 1.004(4) 0.294(2) 0.9645(5)
H24 H 1.2189(7) 0.234(3) 0.9737(4)
C19 C -0.3665(6) 0.1698(5) 0.09055(14)
H25 H -0.286(4) 0.2990(7) 0.08687(15)
H26 H -0.5243(6) 0.131(3) 0.0695(3)
H27 H -0.288(4) 0.102(3) 0.0688(3)

#END
