
#######################################################################
#
#                 Cambridge Crystallographic Data Centre
#                                CCDC 
#
#######################################################################
#
# If this CIF has been generated from an entry in the Cambridge 
# Structural Database, then it will include bibliographic, chemical, 
# crystal, experimental, refinement or atomic coordinate data resulting 
# from the CCDC's data processing and validation procedures.
#
#######################################################################

data_LAFKUA
_symmetry_cell_setting           triclinic
_symmetry_space_group_name_H-M   'P -1'
_symmetry_Int_Tables_number      2
_space_group_name_Hall           '-P 1'
loop_
_symmetry_equiv_pos_site_id
_symmetry_equiv_pos_as_xyz
1 x,y,z
2 -x,-y,-z
_cell_length_a                   8.6952(17)
_cell_length_b                   9.906(2)
_cell_length_c                   11.282(2)
_cell_angle_alpha                72.05(3)
_cell_angle_beta                 67.62(3)
_cell_angle_gamma                80.99(3)
_cell_volume                     853.987
loop_
_atom_site_label
_atom_site_type_symbol
_atom_site_fract_x
_atom_site_fract_y
_atom_site_fract_z
O1 O 0.5465(3) 0.4157(2) 0.3861(2)
O2 O 0.5920(3) 0.3064(2) 0.6833(2)
H1 H 0.5471 0.3920 0.6562
N1 N 0.7549(3) 0.2540(2) 0.3358(2)
N2 N 0.8629(3) 0.1872(3) 0.2372(2)
C1 C 0.8010(4) 0.0405(3) 0.2845(3)
H2 H 0.8930 -0.0256 0.2528
C2 C 0.7425(5) 0.0061(3) 0.4376(3)
H3 H 0.8299 -0.0460 0.4693
H4 H 0.6449 -0.0508 0.4792
C3 C 0.7008(4) 0.1510(3) 0.4703(3)
H5 H 0.5806 0.1632 0.5157
C4 C 0.6600(4) 0.3708(3) 0.2996(3)
C5 C 0.7031(5) 0.4430(3) 0.1530(3)
H6 H 0.6330 0.5273 0.1410
H7 H 0.6863 0.3797 0.1099
H8 H 0.8175 0.4680 0.1146
C6 C 1.0343(4) 0.2076(3) 0.1974(3)
C7 C 1.1506(4) 0.1314(3) 0.1135(3)
H9 H 1.1155 0.0624 0.0904
C8 C 1.3174(5) 0.1586(4) 0.0653(3)
H10 H 1.3937 0.1070 0.0101
C9 C 1.3731(5) 0.2608(4) 0.0971(3)
H11 H 1.4859 0.2778 0.0642
C10 C 1.2587(4) 0.3376(4) 0.1788(3)
H12 H 1.2950 0.4069 0.2009
C11 C 1.0905(4) 0.3123(3) 0.2281(3)
H13 H 1.0147 0.3654 0.2820
C12 C 0.6638(5) 0.0364(4) 0.2342(3)
H14 H 0.7067 0.0622 0.1386
H15 H 0.5743 0.1021 0.2645
H16 H 0.6233 -0.0578 0.2676
C13 C 0.7943(4) 0.1620(3) 0.5570(3)
H17 H 0.9127 0.1505 0.5094
H18 H 0.7644 0.0837 0.6373
C14 C 0.7627(4) 0.3006(3) 0.5979(3)
H19 H 0.7813 0.3811 0.5179
C15 C 0.8817(4) 0.3054(3) 0.6646(3)
C16 C 0.8344(4) 0.2736(3) 0.8025(3)
H20 H 0.7242 0.2539 0.8558
C17 C 0.9481(5) 0.2707(3) 0.8612(3)
H21 H 0.9131 0.2499 0.9535
C18 C 1.1148(5) 0.2984(3) 0.7851(3)
H22 H 1.1912 0.2951 0.8255
C19 C 1.1642(5) 0.3313(3) 0.6466(3)
H23 H 1.2745 0.3506 0.5935
C20 C 1.0478(4) 0.3352(3) 0.5883(3)
H24 H 1.0818 0.3582 0.4960
O1 O 0.4535(3) 0.5843(2) 0.6139(2)
O2 O 0.4080(3) 0.6936(2) 0.3167(2)
H1 H 0.4529 0.6080 0.3438
N1 N 0.2451(3) 0.7460(2) 0.6642(2)
N2 N 0.1371(3) 0.8128(3) 0.7628(2)
C1 C 0.1990(4) 0.9595(3) 0.7155(3)
H2 H 0.1070 1.0256 0.7472
C2 C 0.2575(5) 0.9939(3) 0.5624(3)
H3 H 0.1701 1.0460 0.5307
H4 H 0.3551 1.0508 0.5208
C3 C 0.2992(4) 0.8490(3) 0.5297(3)
H5 H 0.4194 0.8368 0.4843
C4 C 0.3400(4) 0.6292(3) 0.7004(3)
C5 C 0.2969(5) 0.5570(3) 0.8470(3)
H6 H 0.3670 0.4727 0.8590
H7 H 0.3137 0.6203 0.8901
H8 H 0.1825 0.5320 0.8854
C6 C -0.0343(4) 0.7924(3) 0.8026(3)
C7 C -0.1506(4) 0.8686(3) 0.8865(3)
H9 H -0.1155 0.9376 0.9096
C8 C -0.3174(5) 0.8414(4) 0.9347(3)
H10 H -0.3937 0.8930 0.9899
C9 C -0.3731(5) 0.7392(4) 0.9029(3)
H11 H -0.4859 0.7222 0.9358
C10 C -0.2587(4) 0.6624(4) 0.8212(3)
H12 H -0.2950 0.5931 0.7991
C11 C -0.0905(4) 0.6877(3) 0.7719(3)
H13 H -0.0147 0.6346 0.7180
C12 C 0.3362(5) 0.9636(4) 0.7658(3)
H14 H 0.2933 0.9378 0.8614
H15 H 0.4257 0.8979 0.7355
H16 H 0.3767 1.0578 0.7324
C13 C 0.2057(4) 0.8380(3) 0.4430(3)
H17 H 0.0873 0.8495 0.4906
H18 H 0.2356 0.9163 0.3627
C14 C 0.2373(4) 0.6994(3) 0.4021(3)
H19 H 0.2187 0.6189 0.4821
C15 C 0.1183(4) 0.6946(3) 0.3354(3)
C16 C 0.1656(4) 0.7264(3) 0.1975(3)
H20 H 0.2758 0.7461 0.1442
C17 C 0.0519(5) 0.7293(3) 0.1388(3)
H21 H 0.0869 0.7501 0.0465
C18 C -0.1148(5) 0.7016(3) 0.2149(3)
H22 H -0.1912 0.7049 0.1745
C19 C -0.1642(5) 0.6687(3) 0.3534(3)
H23 H -0.2745 0.6494 0.4065
C20 C -0.0478(4) 0.6648(3) 0.4117(3)
H24 H -0.0818 0.6418 0.5040

#END
