
#######################################################################
#
#                 Cambridge Crystallographic Data Centre
#                                CCDC 
#
#######################################################################
#
# If this CIF has been generated from an entry in the Cambridge 
# Structural Database, then it will include bibliographic, chemical, 
# crystal, experimental, refinement or atomic coordinate data resulting 
# from the CCDC's data processing and validation procedures.
#
#######################################################################

data_LAFKEI
_symmetry_cell_setting           monoclinic
_symmetry_space_group_name_H-M   'P 21/n'
_symmetry_Int_Tables_number      14
_space_group_name_Hall           '-P 2yn'
loop_
_symmetry_equiv_pos_site_id
_symmetry_equiv_pos_as_xyz
1 x,y,z
2 1/2-x,1/2+y,1/2-z
3 -x,-y,-z
4 1/2+x,1/2-y,1/2+z
_cell_length_a                   8.425(1)
_cell_length_b                   13.819(1)
_cell_length_c                   23.902(2)
_cell_angle_alpha                90
_cell_angle_beta                 95.87(1)
_cell_angle_gamma                90
_cell_volume                     2768.2
loop_
_atom_site_label
_atom_site_type_symbol
_atom_site_fract_x
_atom_site_fract_y
_atom_site_fract_z
C1 C 0.8526(3) 0.7521(2) 0.4296(1)
C2 C 0.8994(3) 0.6602(2) 0.4160(1)
C3 C 0.9995(4) 0.6092(2) 0.4559(1)
C4 C 1.0505(4) 0.6498(2) 0.5074(1)
C5 C 1.0010(4) 0.7418(2) 0.5213(1)
C6 C 0.9007(3) 0.7922(2) 0.4818(1)
C7 C 0.8310(3) 0.8900(2) 0.4841(1)
C8 C 0.8376(4) 0.9572(2) 0.5277(1)
C9 C 0.7598(4) 1.0443(3) 0.5180(2)
C10 C 0.6799(4) 1.0650(2) 0.4659(2)
C11 C 0.6712(4) 0.9979(2) 0.4223(2)
C12 C 0.7472(3) 0.9105(2) 0.4326(1)
C13 C 0.7522(3) 0.8241(2) 0.3927(1)
O1 O 0.8319(2) 0.8487(2) 0.3440(1)
H1 H 0.921 0.893 0.358
C14 C 0.5857(3) 0.7884(2) 0.3732(1)
C15 C 0.5267(4) 0.7850(2) 0.3172(1)
C16 C 0.3693(4) 0.7558(2) 0.3020(2)
C17 C 0.2715(4) 0.7309(2) 0.3425(2)
C18 C 0.3299(4) 0.7336(2) 0.3982(2)
C19 C 0.4864(3) 0.7607(2) 0.4138(1)
H3 H 0.8677 0.6246 0.3766
H4 H 1.0367 0.5383 0.4428
H5 H 1.1350 0.6131 0.5391
H6 H 1.0514 0.7643 0.5638
H7 H 0.9197 0.9433 0.5661
H8 H 0.7623 1.0978 0.5508
H9 H 0.6025 1.1284 0.4670
H10 H 0.5991 1.0153 0.3776
H11 H 0.5956 0.7977 0.2841
H12 H 0.3226 0.7608 0.2562
H13 H 0.1497 0.7139 0.3261
H14 H 0.2583 0.7010 0.4361
H15 H 0.5307 0.7624 0.4627
C1 C 0.6474(3) 0.2521(2) 0.0704(1)
C2 C 0.6006(3) 0.1602(2) 0.0840(1)
C3 C 0.5005(4) 0.1092(2) 0.0441(1)
C4 C 0.4495(4) 0.1498(2) -0.0074(1)
C5 C 0.4990(4) 0.2418(2) -0.0213(1)
C6 C 0.5993(3) 0.2922(2) 0.0182(1)
C7 C 0.6690(3) 0.3900(2) 0.0159(1)
C8 C 0.6624(4) 0.4572(2) -0.0277(1)
C9 C 0.7402(4) 0.5443(3) -0.0180(2)
C10 C 0.8201(4) 0.5650(2) 0.0341(2)
C11 C 0.8288(4) 0.4979(2) 0.0777(2)
C12 C 0.7528(3) 0.4105(2) 0.0674(1)
C13 C 0.7478(3) 0.3241(2) 0.1073(1)
O1 O 0.6681(2) 0.3487(2) 0.1560(1)
H1 H 0.579 0.393 0.142
C14 C 0.9143(3) 0.2884(2) 0.1268(1)
C15 C 0.9733(4) 0.2850(2) 0.1828(1)
C16 C 1.1307(4) 0.2558(2) 0.1980(2)
C17 C 1.2285(4) 0.2309(2) 0.1575(2)
C18 C 1.1701(4) 0.2336(2) 0.1018(2)
C19 C 1.0136(3) 0.2607(2) 0.0862(1)
H3 H 0.6323 0.1246 0.1234
H4 H 0.4633 0.0383 0.0572
H5 H 0.3650 0.1131 -0.0391
H6 H 0.4486 0.2643 -0.0638
H7 H 0.5803 0.4433 -0.0661
H8 H 0.7377 0.5978 -0.0508
H9 H 0.8975 0.6284 0.0330
H10 H 0.9009 0.5153 0.1224
H11 H 0.9044 0.2977 0.2159
H12 H 1.1774 0.2608 0.2438
H13 H 1.3503 0.2139 0.1739
H14 H 1.2417 0.2010 0.0639
H15 H 0.9693 0.2624 0.0373
C1 C 0.1474(3) 0.2479(2) 0.5704(1)
C2 C 0.1006(3) 0.3398(2) 0.5840(1)
C3 C 0.0005(4) 0.3908(2) 0.5441(1)
C4 C -0.0505(4) 0.3502(2) 0.4926(1)
C5 C -0.0010(4) 0.2582(2) 0.4787(1)
C6 C 0.0993(3) 0.2078(2) 0.5182(1)
C7 C 0.1690(3) 0.1100(2) 0.5159(1)
C8 C 0.1624(4) 0.0428(2) 0.4723(1)
C9 C 0.2402(4) -0.0443(3) 0.4820(2)
C10 C 0.3201(4) -0.0650(2) 0.5341(2)
C11 C 0.3288(4) 0.0021(2) 0.5777(2)
C12 C 0.2528(3) 0.0895(2) 0.5674(1)
C13 C 0.2478(3) 0.1759(2) 0.6073(1)
O1 O 0.1681(2) 0.1513(2) 0.6560(1)
H1 H 0.079 0.107 0.642
C14 C 0.4143(3) 0.2116(2) 0.6268(1)
C15 C 0.4733(4) 0.2150(2) 0.6828(1)
C16 C 0.6307(4) 0.2442(2) 0.6980(2)
C17 C 0.7285(4) 0.2691(2) 0.6575(2)
C18 C 0.6701(4) 0.2664(2) 0.6018(2)
C19 C 0.5136(3) 0.2393(2) 0.5862(1)
H3 H 0.1323 0.3754 0.6234
H4 H -0.0367 0.4617 0.5572
H5 H -0.1350 0.3869 0.4609
H6 H -0.0514 0.2357 0.4362
H7 H 0.0803 0.0567 0.4339
H8 H 0.2377 -0.0978 0.4492
H9 H 0.3975 -0.1284 0.5330
H10 H 0.4009 -0.0153 0.6224
H11 H 0.4044 0.2023 0.7159
H12 H 0.6774 0.2392 0.7438
H13 H 0.8503 0.2861 0.6739
H14 H 0.7417 0.2990 0.5639
H15 H 0.4693 0.2376 0.5373
C1 C 0.3526(3) 0.7479(2) 0.9296(1)
C2 C 0.3994(3) 0.8398(2) 0.9160(1)
C3 C 0.4995(4) 0.8908(2) 0.9559(1)
C4 C 0.5505(4) 0.8502(2) 1.0074(1)
C5 C 0.5010(4) 0.7582(2) 1.0213(1)
C6 C 0.4007(3) 0.7078(2) 0.9818(1)
C7 C 0.3310(3) 0.6100(2) 0.9841(1)
C8 C 0.3376(4) 0.5428(2) 1.0277(1)
C9 C 0.2598(4) 0.4557(3) 1.0180(2)
C10 C 0.1799(4) 0.4350(2) 0.9659(2)
C11 C 0.1712(4) 0.5021(2) 0.9223(2)
C12 C 0.2472(3) 0.5895(2) 0.9326(1)
C13 C 0.2522(3) 0.6759(2) 0.8927(1)
O1 O 0.3319(2) 0.6513(2) 0.8440(1)
H1 H 0.421 0.607 0.858
C14 C 0.0857(3) 0.7116(2) 0.8732(1)
C15 C 0.0267(4) 0.7150(2) 0.8172(1)
C16 C -0.1307(4) 0.7442(2) 0.8020(2)
C17 C -0.2285(4) 0.7691(2) 0.8425(2)
C18 C -0.1701(4) 0.7664(2) 0.8982(2)
C19 C -0.0136(3) 0.7393(2) 0.9138(1)
H3 H 0.3677 0.8754 0.8766
H4 H 0.5367 0.9617 0.9428
H5 H 0.6350 0.8869 1.0391
H6 H 0.5514 0.7357 1.0638
H7 H 0.4197 0.5567 1.0661
H8 H 0.2623 0.4022 1.0508
H9 H 0.1025 0.3716 0.9670
H10 H 0.0991 0.4847 0.8776
H11 H 0.0956 0.7023 0.7841
H12 H -0.1774 0.7392 0.7562
H13 H -0.3503 0.7861 0.8261
H14 H -0.2417 0.7990 0.9361
H15 H 0.0307 0.7376 0.9627
C20 C 0.7416(3) 0.9253(2) 0.2010(1)
C21 C 0.6187(3) 0.8814(2) 0.1677(1)
C22 C 0.4674(3) 0.9231(2) 0.1646(1)
C23 C 0.4413(3) 1.0063(2) 0.1941(1)
C24 C 0.5640(3) 1.0511(2) 0.2274(1)
C25 C 0.7158(3) 1.0098(2) 0.2306(1)
C26 C 0.8670(3) 1.0387(2) 0.2622(1)
C27 C 0.9027(3) 1.1165(2) 0.2978(1)
C28 C 1.0569(4) 1.1244(2) 0.3238(1)
C29 C 1.1710(4) 1.0574(2) 0.3150(1)
C30 C 1.1367(3) 0.9785(2) 0.2787(1)
C31 C 0.9839(3) 0.9711(2) 0.2520(1)
C32 C 0.9147(3) 0.8922(2) 0.2118(1)
O2 O 0.9270(2) 0.7982(1) 0.2370(1)
H2 H 0.898 0.808 0.275
C33 C 0.9919(3) 0.8872(2) 0.1570(1)
C34 C 1.0396(3) 0.8000(2) 0.1356(1)
C35 C 1.1036(3) 0.7975(2) 0.0840(2)
C36 C 1.1196(3) 0.8805(2) 0.0541(1)
C37 C 1.0737(3) 0.9679(2) 0.0754(1)
C38 C 1.0108(3) 0.9711(2) 0.1264(1)
H16 H 0.6393 0.8179 0.1425
H17 H 0.3649 0.8916 0.1396
H18 H 0.3283 1.0394 0.1940
H19 H 0.5382 1.1148 0.2466
H20 H 0.8243 1.1715 0.3053
H21 H 1.0845 1.1909 0.3453
H22 H 1.2837 1.0602 0.3354
H23 H 1.2167 0.9252 0.2738
H24 H 1.0236 0.7384 0.1598
H25 H 1.1380 0.7341 0.0668
H26 H 1.1717 0.8804 0.0171
H27 H 1.1044 1.0374 0.0568
H28 H 0.9813 1.0387 0.1413
C20 C 0.7584(3) 0.4253(2) 0.2990(1)
C21 C 0.8813(3) 0.3814(2) 0.3323(1)
C22 C 1.0326(3) 0.4231(2) 0.3354(1)
C23 C 1.0587(3) 0.5063(2) 0.3059(1)
C24 C 0.9360(3) 0.5511(2) 0.2726(1)
C25 C 0.7842(3) 0.5098(2) 0.2694(1)
C26 C 0.6330(3) 0.5387(2) 0.2378(1)
C27 C 0.5973(3) 0.6165(2) 0.2022(1)
C28 C 0.4431(4) 0.6244(2) 0.1762(1)
C29 C 0.3290(4) 0.5574(2) 0.1850(1)
C30 C 0.3633(3) 0.4785(2) 0.2213(1)
C31 C 0.5161(3) 0.4711(2) 0.2480(1)
C32 C 0.5853(3) 0.3922(2) 0.2882(1)
O2 O 0.5730(2) 0.2982(1) 0.2630(1)
H2 H 0.602 0.308 0.225
C33 C 0.5081(3) 0.3872(2) 0.3430(1)
C34 C 0.4604(3) 0.3000(2) 0.3644(1)
C35 C 0.3964(3) 0.2975(2) 0.4160(2)
C36 C 0.3804(3) 0.3805(2) 0.4459(1)
C37 C 0.4263(3) 0.4679(2) 0.4246(1)
C38 C 0.4892(3) 0.4711(2) 0.3736(1)
H16 H 0.8607 0.3179 0.3575
H17 H 1.1351 0.3916 0.3604
H18 H 1.1717 0.5394 0.3060
H19 H 0.9618 0.6148 0.2534
H20 H 0.6757 0.6715 0.1947
H21 H 0.4155 0.6909 0.1547
H22 H 0.2163 0.5602 0.1646
H23 H 0.2833 0.4252 0.2262
H24 H 0.4764 0.2384 0.3402
H25 H 0.3620 0.2341 0.4332
H26 H 0.3283 0.3804 0.4829
H27 H 0.3956 0.5374 0.4432
H28 H 0.5187 0.5387 0.3587
C20 C 0.2584(3) 0.0747(2) 0.7990(1)
C21 C 0.3813(3) 0.1186(2) 0.8323(1)
C22 C 0.5326(3) 0.0769(2) 0.8354(1)
C23 C 0.5587(3) -0.0063(2) 0.8059(1)
C24 C 0.4360(3) -0.0511(2) 0.7726(1)
C25 C 0.2842(3) -0.0098(2) 0.7694(1)
C26 C 0.1330(3) -0.0387(2) 0.7378(1)
C27 C 0.0973(3) -0.1165(2) 0.7022(1)
C28 C -0.0569(4) -0.1244(2) 0.6762(1)
C29 C -0.1710(4) -0.0574(2) 0.6850(1)
C30 C -0.1367(3) 0.0215(2) 0.7213(1)
C31 C 0.0161(3) 0.0289(2) 0.7480(1)
C32 C 0.0853(3) 0.1078(2) 0.7882(1)
O2 O 0.0730(2) 0.2018(1) 0.7630(1)
H2 H 0.102 0.192 0.725
C33 C 0.0081(3) 0.1128(2) 0.8430(1)
C34 C -0.0396(3) 0.2000(2) 0.8644(1)
C35 C -0.1036(3) 0.2025(2) 0.9160(2)
C36 C -0.1196(3) 0.1195(2) 0.9459(1)
C37 C -0.0737(3) 0.0321(2) 0.9246(1)
C38 C -0.0108(3) 0.0289(2) 0.8736(1)
H16 H 0.3607 0.1821 0.8575
H17 H 0.6351 0.1084 0.8604
H18 H 0.6717 -0.0394 0.8060
H19 H 0.4618 -0.1148 0.7534
H20 H 0.1757 -0.1715 0.6947
H21 H -0.0845 -0.1909 0.6547
H22 H -0.2837 -0.0602 0.6646
H23 H -0.2167 0.0748 0.7262
H24 H -0.0236 0.2616 0.8402
H25 H -0.1380 0.2659 0.9332
H26 H -0.1717 0.1196 0.9829
H27 H -0.1044 -0.0374 0.9432
H28 H 0.0187 -0.0387 0.8587
C20 C 0.2416(3) 0.5747(2) 0.7010(1)
C21 C 0.1187(3) 0.6186(2) 0.6677(1)
C22 C -0.0326(3) 0.5769(2) 0.6646(1)
C23 C -0.0587(3) 0.4937(2) 0.6941(1)
C24 C 0.0640(3) 0.4489(2) 0.7274(1)
C25 C 0.2158(3) 0.4902(2) 0.7306(1)
C26 C 0.3670(3) 0.4613(2) 0.7622(1)
C27 C 0.4027(3) 0.3835(2) 0.7978(1)
C28 C 0.5569(4) 0.3756(2) 0.8238(1)
C29 C 0.6710(4) 0.4426(2) 0.8150(1)
C30 C 0.6367(3) 0.5215(2) 0.7787(1)
C31 C 0.4839(3) 0.5289(2) 0.7520(1)
C32 C 0.4147(3) 0.6078(2) 0.7118(1)
O2 O 0.4270(2) 0.7018(1) 0.7370(1)
H2 H 0.398 0.692 0.775
C33 C 0.4919(3) 0.6128(2) 0.6570(1)
C34 C 0.5396(3) 0.7000(2) 0.6356(1)
C35 C 0.6036(3) 0.7025(2) 0.5840(2)
C36 C 0.6196(3) 0.6195(2) 0.5541(1)
C37 C 0.5737(3) 0.5321(2) 0.5754(1)
C38 C 0.5108(3) 0.5289(2) 0.6264(1)
H16 H 0.1393 0.6821 0.6425
H17 H -0.1351 0.6084 0.6396
H18 H -0.1717 0.4606 0.6940
H19 H 0.0382 0.3852 0.7466
H20 H 0.3243 0.3285 0.8053
H21 H 0.5845 0.3091 0.8453
H22 H 0.7837 0.4398 0.8354
H23 H 0.7167 0.5748 0.7738
H24 H 0.5236 0.7616 0.6598
H25 H 0.6380 0.7659 0.5668
H26 H 0.6717 0.6196 0.5171
H27 H 0.6044 0.4626 0.5568
H28 H 0.4813 0.4613 0.6413

#END
