
#######################################################################
#
#                 Cambridge Crystallographic Data Centre
#                                CCDC 
#
#######################################################################
#
# If this CIF has been generated from an entry in the Cambridge 
# Structural Database, then it will include bibliographic, chemical, 
# crystal, experimental, refinement or atomic coordinate data resulting 
# from the CCDC's data processing and validation procedures.
#
#######################################################################

data_LAFLUA
_symmetry_cell_setting           monoclinic
_symmetry_space_group_name_H-M   'P 21'
_symmetry_Int_Tables_number      4
_space_group_name_Hall           'P 2yb'
loop_
_symmetry_equiv_pos_site_id
_symmetry_equiv_pos_as_xyz
1 x,y,z
2 -x,1/2+y,-z
_cell_length_a                   10.0279(2)
_cell_length_b                   11.1076(3)
_cell_length_c                   17.0856(4)
_cell_angle_alpha                90
_cell_angle_beta                 105.5220(10)
_cell_angle_gamma                90
_cell_volume                     1833.68
loop_
_atom_site_label
_atom_site_type_symbol
_atom_site_fract_x
_atom_site_fract_y
_atom_site_fract_z
C1 C 0.2836(3) 0.5658(3) 0.35039(15)
H1 H 0.2194 0.5763 0.2972
H2 H 0.2673 0.6296 0.3855
C2 C 0.4306(3) 0.5730(3) 0.34362(16)
H3 H 0.4354 0.5342 0.2936
H4 H 0.4553 0.6569 0.3405
C3 C 0.5324(3) 0.5160(3) 0.41234(14)
H5 H 0.6256 0.5236 0.4142
C4 C 0.5009(2) 0.4545(2) 0.47191(12)
C5 C 0.3516(2) 0.4322(2) 0.47463(12)
C6 C 0.3369(2) 0.3037(3) 0.50357(15)
H6 H 0.3834 0.2490 0.4753
H7 H 0.3831 0.2984 0.5611
C7 C 0.1872(3) 0.2635(3) 0.48967(16)
H8 H 0.1434 0.3123 0.5228
H9 H 0.1857 0.1805 0.5071
C8 C 0.1037(2) 0.2737(3) 0.40041(16)
H10 H 0.1502 0.2230 0.3688
C9 C 0.1048(2) 0.4041(2) 0.36820(14)
C10 C 0.2594(2) 0.4434(2) 0.38532(12)
H11 H 0.2996 0.3854 0.3549
C11 C 0.0358(2) 0.4090(3) 0.27476(14)
H12 H -0.0568 0.3762 0.2651
H13 H 0.0260 0.4930 0.2589
C12 C 0.1060(3) 0.3449(3) 0.21807(16)
H14 H 0.1997 0.3753 0.2276
H15 H 0.1119 0.2597 0.2309
C13 C 0.0323(3) 0.3604(4) 0.12953(17)
C14 C 0.0482(4) 0.2872(5) 0.0648(2)
H16 H 0.1060 0.2207 0.0689
C15 C -0.0355(6) 0.3318(6) -0.0033(2)
H17 H -0.0459 0.2991 -0.0547
C16 C -0.0595(4) 0.4433(6) 0.0941(2)
H18 H -0.0905 0.5037 0.1226
C17 C -0.0421(3) 0.2200(4) 0.3902(2)
H19 H -0.0943 0.2259 0.3344
H20 H -0.0886 0.2637 0.4236
H21 H -0.0339 0.1369 0.4064
C18 C 0.6184(2) 0.4146(3) 0.54109(15)
C19 C 0.3175(3) 0.5248(3) 0.53406(15)
H22 H 0.3273 0.6048 0.5151
H23 H 0.3800 0.5141 0.5870
H24 H 0.2242 0.5130 0.5370
C20 C 0.0173(3) 0.4896(3) 0.40526(17)
H25 H 0.0202 0.5693 0.3839
H26 H 0.0538 0.4911 0.4632
H27 H -0.0768 0.4618 0.3917
O1 O 0.73528(19) 0.3955(3) 0.52239(12)
O2 O 0.60801(17) 0.4008(2) 0.61025(10)
O3 O -0.1036(3) 0.4313(5) 0.01210(18)
H28 H 0.804(4) 0.378(4) 0.570(3)
C1 C 0.7164(3) 1.0658(3) 0.64961(15)
H1 H 0.7806 1.0763 0.7028
H2 H 0.7327 1.1296 0.6145
C2 C 0.5694(3) 1.0730(3) 0.65638(16)
H3 H 0.5646 1.0342 0.7064
H4 H 0.5447 1.1569 0.6595
C3 C 0.4676(3) 1.0160(3) 0.58766(14)
H5 H 0.3744 1.0236 0.5858
C4 C 0.4991(2) 0.9545(2) 0.52809(12)
C5 C 0.6484(2) 0.9322(2) 0.52537(12)
C6 C 0.6631(2) 0.8037(3) 0.49643(15)
H6 H 0.6166 0.7490 0.5247
H7 H 0.6169 0.7984 0.4389
C7 C 0.8128(3) 0.7635(3) 0.51033(16)
H8 H 0.8566 0.8123 0.4772
H9 H 0.8143 0.6805 0.4929
C8 C 0.8963(2) 0.7737(3) 0.59959(16)
H10 H 0.8498 0.7230 0.6312
C9 C 0.8952(2) 0.9041(2) 0.63180(14)
C10 C 0.7406(2) 0.9434(2) 0.61468(12)
H11 H 0.7004 0.8854 0.6451
C11 C 0.9642(2) 0.9090(3) 0.72524(14)
H12 H 1.0568 0.8762 0.7349
H13 H 0.9740 0.9930 0.7411
C12 C 0.8940(3) 0.8449(3) 0.78193(16)
H14 H 0.8003 0.8753 0.7724
H15 H 0.8881 0.7597 0.7691
C13 C 0.9677(3) 0.8604(4) 0.87047(17)
C14 C 0.9518(4) 0.7872(5) 0.9352(2)
H16 H 0.8940 0.7207 0.9311
C15 C 1.0355(6) 0.8318(6) 1.0033(2)
H17 H 1.0459 0.7991 1.0547
C16 C 1.0595(4) 0.9433(6) 0.9059(2)
H18 H 1.0905 1.0037 0.8774
C17 C 1.0421(3) 0.7200(4) 0.6098(2)
H19 H 1.0943 0.7259 0.6656
H20 H 1.0886 0.7637 0.5764
H21 H 1.0339 0.6369 0.5936
C18 C 0.3816(2) 0.9146(3) 0.45891(15)
C19 C 0.6825(3) 1.0248(3) 0.46594(15)
H22 H 0.6727 1.1048 0.4849
H23 H 0.6200 1.0141 0.4130
H24 H 0.7758 1.0130 0.4630
C20 C 0.9827(3) 0.9896(3) 0.59474(17)
H25 H 0.9798 1.0693 0.6161
H26 H 0.9462 0.9911 0.5368
H27 H 1.0768 0.9618 0.6083
O1 O 0.26472(19) 0.8955(3) 0.47761(12)
O2 O 0.39199(17) 0.9008(2) 0.38975(10)
O3 O 1.1036(3) 0.9313(5) 0.98790(18)
H28 H 0.196(4) 0.878(4) 0.430(3)
C21 C 0.3069(3) 0.5074(2) 0.90683(16)
H29 H 0.3734 0.5142 0.9596
H30 H 0.3370 0.5594 0.8693
C22 C 0.1678(3) 0.5474(3) 0.91320(19)
H31 H 0.1557 0.5215 0.9651
H32 H 0.1640 0.6346 0.9118
C23 C 0.0519(3) 0.4988(3) 0.84678(16)
H33 H -0.0371 0.5256 0.8441
C24 C 0.0664(2) 0.4192(2) 0.79073(13)
C25 C 0.2067(2) 0.3672(2) 0.78926(12)
C26 C 0.1950(3) 0.2329(2) 0.76745(15)
H34 H 0.1460 0.1919 0.8015
H35 H 0.1414 0.2236 0.7114
C27 C 0.3364(3) 0.1743(3) 0.77859(15)
H36 H 0.3819 0.2115 0.7413
H37 H 0.3232 0.0898 0.7643
C28 C 0.4314(3) 0.1847(2) 0.86532(14)
H38 H 0.3861 0.1409 0.9009
C29 C 0.4486(2) 0.3166(2) 0.89574(13)
C30 C 0.3027(2) 0.3769(2) 0.87729(12)
H39 H 0.2539 0.3328 0.9109
C31 C 0.5156(2) 0.3184(2) 0.98963(13)
H40 H 0.6005 0.2720 1.0006
H41 H 0.5413 0.4009 1.0053
C32 C 0.4307(3) 0.2715(3) 1.04442(13)
H42 H 0.3464 0.3185 1.0351
H43 H 0.4046 0.1888 1.0297
C33 C 0.5056(3) 0.2764(2) 1.13378(14)
C34 C 0.4557(4) 0.2336(3) 1.19888(17)
H44 H 0.3717 0.1952 1.1951
C35 C 0.5547(5) 0.2598(4) 1.26724(18)
H45 H 0.5491 0.2408 1.3193
C36 C 0.6301(4) 0.3242(4) 1.16836(17)
H46 H 0.6872 0.3581 1.1395
C37 C 0.5688(3) 0.1205(3) 0.87062(16)
H47 H 0.6276 0.1268 0.9249
H48 H 0.6134 0.1573 0.8335
H49 H 0.5514 0.0371 0.8567
C38 C -0.0585(2) 0.3911(3) 0.72362(15)
C39 C 0.2573(3) 0.4376(3) 0.72426(15)
H50 H 0.3457 0.4071 0.7220
H51 H 0.2657 0.5215 0.7384
H52 H 0.1917 0.4280 0.6722
C40 C 0.5497(2) 0.3861(3) 0.85815(16)
H53 H 0.5585 0.4674 0.8779
H54 H 0.5148 0.3864 0.8001
H55 H 0.6387 0.3476 0.8731
O4 O -0.17715(19) 0.4053(3) 0.74210(12)
O5 O -0.05479(18) 0.3616(2) 0.65542(11)
O6 O 0.6629(3) 0.3170(3) 1.25104(14)
H56 H -0.241(5) 0.386(5) 0.701(3)
C21 C 0.6931(3) 1.0074(2) 0.09317(16)
H29 H 0.6266 1.0142 0.0404
H30 H 0.6630 1.0594 0.1307
C22 C 0.8322(3) 1.0474(3) 0.08680(19)
H31 H 0.8443 1.0215 0.0349
H32 H 0.8360 1.1346 0.0882
C23 C 0.9481(3) 0.9988(3) 0.15322(16)
H33 H 1.0371 1.0256 0.1559
C24 C 0.9336(2) 0.9192(2) 0.20927(13)
C25 C 0.7933(2) 0.8672(2) 0.21074(12)
C26 C 0.8050(3) 0.7329(2) 0.23255(15)
H34 H 0.8540 0.6919 0.1985
H35 H 0.8586 0.7236 0.2886
C27 C 0.6636(3) 0.6743(3) 0.22141(15)
H36 H 0.6181 0.7115 0.2587
H37 H 0.6768 0.5898 0.2357
C28 C 0.5686(3) 0.6847(2) 0.13468(14)
H38 H 0.6139 0.6409 0.0991
C29 C 0.5514(2) 0.8166(2) 0.10426(13)
C30 C 0.6973(2) 0.8769(2) 0.12271(12)
H39 H 0.7461 0.8328 0.0891
C31 C 0.4844(2) 0.8184(2) 0.01037(13)
H40 H 0.3995 0.7720 -0.0006
H41 H 0.4587 0.9009 -0.0053
C32 C 0.5693(3) 0.7715(3) -0.04442(13)
H42 H 0.6536 0.8185 -0.0351
H43 H 0.5954 0.6888 -0.0297
C33 C 0.4944(3) 0.7764(2) -0.13378(14)
C34 C 0.5443(4) 0.7336(3) -0.19888(17)
H44 H 0.6283 0.6952 -0.1951
C35 C 0.4453(5) 0.7598(4) -0.26724(18)
H45 H 0.4509 0.7408 -0.3193
C36 C 0.3699(4) 0.8242(4) -0.16836(17)
H46 H 0.3128 0.8581 -0.1395
C37 C 0.4312(3) 0.6205(3) 0.12938(16)
H47 H 0.3724 0.6268 0.0751
H48 H 0.3866 0.6573 0.1665
H49 H 0.4486 0.5371 0.1433
C38 C 1.0585(2) 0.8911(3) 0.27638(15)
C39 C 0.7427(3) 0.9376(3) 0.27574(15)
H50 H 0.6543 0.9071 0.2780
H51 H 0.7343 1.0215 0.2616
H52 H 0.8083 0.9280 0.3278
C40 C 0.4503(2) 0.8861(3) 0.14185(16)
H53 H 0.4415 0.9674 0.1221
H54 H 0.4852 0.8864 0.1999
H55 H 0.3613 0.8476 0.1269
O4 O 1.17715(19) 0.9053(3) 0.25790(12)
O5 O 1.05479(18) 0.8616(2) 0.34458(11)
O6 O 0.3371(3) 0.8170(3) -0.25104(14)
H56 H 1.241(5) 0.886(5) 0.299(3)

#END
