./LAFSUI_from_POSCAR.cif_generated_by_CrystalShift
_symmetry_cell_setting triclinic
_symmetry_space_group_name_H-M 'P 1'
loop_
_symmetry_equiv_pos_site_id
_symmetry_equiv_pos_as_xyz
1 x,y,z
_cell_length_a 10.245900
_cell_length_b 20.387000
_cell_length_c 8.121200
_cell_angle_alpha 90.000000
_cell_angle_beta 102.949000
_cell_angle_gamma 90.000000
_cell_volume 1653.242803
loop_
_atom_site_label
_atom_site_type_symbol
_atom_site_fract_x
_atom_site_fract_y
_atom_site_fract_z
H1 H 0.436700 0.217200 0.257900
H2 H 0.124500 0.289800 0.430200
H3 H 0.238300 0.389000 0.497100
H4 H 0.452400 0.402900 0.444300
H5 H 0.916000 0.295200 0.889200
H6 H 0.972500 0.067300 1.051400
H7 H 1.067200 0.350200 1.102700
H8 H 1.125900 0.013300 1.265100
H9 H 1.169500 0.446600 1.041300
H10 H 1.169500 0.053400 1.541300
H11 H 1.125900 0.486700 0.765100
H12 H 1.067200 0.149800 1.602700
H13 H 0.972500 0.432700 0.551400
H14 H 0.916000 0.204800 1.389200
H15 H 0.794000 0.370800 0.112400
H16 H 0.767400 0.436100 -0.129800
H17 H 0.452400 0.097100 0.944300
H18 H 0.608000 0.876100 0.425300
H19 H 0.238300 0.111000 0.997100
H20 H 0.632900 0.940100 0.670100
H21 H 0.124500 0.210200 0.930200
H22 H 0.446000 0.970400 0.770800
H23 H 0.222000 0.295700 0.809600
H24 H 0.232600 0.936100 0.629800
H25 H 0.436700 0.282800 0.757900
H26 H 0.206000 0.870800 0.387600
H27 H 0.563300 0.717200 0.242100
H28 H 0.794000 0.129200 0.612400
H29 H 0.778000 0.704300 0.190400
H30 H 0.767400 0.063900 0.370200
H31 H 0.875500 0.789800 0.069800
H32 H 0.554000 0.029600 0.229200
H33 H 0.761700 0.889000 0.002900
H34 H 0.367100 0.059900 0.329900
H35 H 0.547600 0.902900 0.055700
H36 H 0.392000 0.123900 0.574700
H37 H 0.392000 0.376100 0.074700
H38 H 0.084000 0.795200 -0.389200
H39 H 0.367100 0.440100 -0.170100
H40 H -0.067200 0.850200 -0.602700
H41 H -0.169500 0.946600 -0.541300
H42 H -0.125900 0.986700 -0.265100
H43 H 0.027500 0.932700 -0.051400
H44 H 0.554000 0.470400 -0.270800
H45 H 0.027500 0.567300 0.448600
H46 H 0.608000 0.623900 0.925300
H47 H -0.125900 0.513300 0.234900
H48 H 0.632900 0.559900 1.170100
H49 H -0.169500 0.553400 -0.041300
H50 H 0.446000 0.529600 1.270800
H51 H -0.067200 0.649800 -0.102700
H52 H 0.232600 0.563900 1.129800
H53 H 0.084000 0.704800 0.110800
H54 H 0.206000 0.629200 0.887600
H55 H 0.563300 0.782800 0.742100
H56 H 0.547600 0.597100 0.555700
H57 H 0.778000 0.795700 0.690400
H58 H 0.761700 0.611000 0.502900
H59 H 0.875500 0.710200 0.569800
H60 H 0.222000 0.204300 0.309600
C61 C 0.730870 0.755590 0.662770
C62 C 0.721090 0.645670 0.551540
C63 C 0.603900 0.748030 0.693890
C64 C 0.594440 0.637340 0.582540
C65 C 0.404940 0.631300 0.884050
C66 C 0.292430 0.614550 0.944280
C67 C 0.537220 0.688920 0.653570
C68 C 0.308630 0.576260 1.088160
C69 C 0.042900 0.665440 0.135850
C70 C 0.435450 0.555850 1.172000
C71 C -0.047480 0.632900 0.009200
C72 C 0.546280 0.573710 1.111830
C73 C -0.108850 0.575950 0.045900
C74 C 0.531920 0.611630 0.966880
C75 C -0.081990 0.551810 0.209500
C76 C 0.453720 0.426290 -0.111830
C77 C 0.009020 0.583880 0.336500
C78 C 0.564550 0.444150 -0.172000
C79 C 0.269290 0.862010 0.049560
C80 C 0.178020 0.823870 -0.072860
C81 C 0.289890 0.930410 0.044110
C82 C 0.073300 0.859570 -0.200870
C83 C 0.009020 0.916120 -0.163500
C84 C 0.073300 0.640430 0.299130
C85 C -0.081990 0.948190 -0.290500
C86 C 0.289890 0.569590 0.544110
C87 C -0.108850 0.924050 -0.454100
C88 C 0.178020 0.676130 0.427140
C89 C -0.047480 0.867100 -0.490800
C90 C 0.269290 0.637990 0.549560
C91 C 0.042900 0.834560 -0.364150
C92 C 0.468080 0.388370 0.033120
C93 C 0.537220 0.811080 0.153570
C94 C 0.594440 0.862660 0.082540
C95 C 0.468080 0.111630 0.533120
C96 C 0.721090 0.854330 0.051540
C97 C 0.453720 0.073710 0.388170
C98 C 0.788820 0.795250 0.091560
C99 C 0.564550 0.055850 0.328000
C100 C 0.730870 0.744410 0.162770
C101 C 0.691370 0.076260 0.411840
C102 C 0.603900 0.751970 0.193890
C103 C 0.707570 0.114550 0.555720
C104 C 0.404940 0.868700 0.384050
C105 C 0.292430 0.885450 0.444280
C106 C 0.595060 0.131300 0.615950
C107 C 0.308630 0.923740 0.588160
C108 C 0.396100 0.248030 0.806110
C109 C 0.435450 0.944150 0.672000
C110 C 0.269130 0.255590 0.837230
C111 C 0.546280 0.926290 0.611830
C112 C 0.211180 0.204750 0.908440
C113 C 0.531920 0.888370 0.466880
C114 C 0.278910 0.145670 0.948460
C115 C 0.405560 0.137340 0.917460
C116 C 0.691370 0.423740 -0.088160
C117 C 0.462780 0.188920 0.846430
C118 C 0.730710 0.362010 0.450440
C119 C 0.821980 0.323870 0.572860
C120 C 0.710110 0.430410 0.455890
C121 C 0.926700 0.359570 0.700870
C122 C 0.990980 0.416120 0.663500
C123 C 0.957100 0.165440 1.364150
C124 C 1.081990 0.448190 0.790500
C125 C 1.047480 0.132900 1.490800
C126 C 1.108850 0.424050 0.954100
C127 C 1.108850 0.075950 1.454100
C128 C 1.047480 0.367100 0.990800
C129 C 1.081990 0.051810 1.290500
C130 C 0.957100 0.334560 0.864150
C131 C 0.990980 0.083880 1.163500
C132 C 0.462780 0.311080 0.346430
C133 C 0.405560 0.362660 0.417460
C134 C 0.926700 0.140430 1.200870
C135 C 0.278910 0.354330 0.448460
C136 C 0.710110 0.069590 0.955890
C137 C 0.211180 0.295250 0.408440
C138 C 0.821980 0.176130 1.072860
C139 C 0.269130 0.244410 0.337230
C140 C 0.788820 0.704750 0.591560
C141 C 0.396100 0.251970 0.306110
C142 C 0.730710 0.137990 0.950440
C143 C 0.595060 0.368700 0.115950
C144 C 0.707570 0.385450 0.055720
N145 N 0.691310 0.013820 0.958440
N146 N 0.308690 0.986180 0.041560
N147 N 0.691310 0.486180 0.458440
N148 N 0.308690 0.513820 0.541560
O149 O 0.814770 0.263330 0.578320
O150 O 0.185230 0.736670 0.421680
O151 O 0.185230 0.763330 -0.078320
O152 O 0.814770 0.236670 1.078320
S153 S 0.375510 0.684086 0.702540
S154 S 0.375510 0.815914 0.202540
S155 S 0.624490 0.184086 0.797460
S156 S 0.624490 0.315914 0.297460

#END
