./LAFTOE_from_POSCAR.cif_generated_by_CrystalShift
_symmetry_cell_setting triclinic
_symmetry_space_group_name_H-M 'P 1'
loop_
_symmetry_equiv_pos_site_id
_symmetry_equiv_pos_as_xyz
1 x,y,z
_cell_length_a 11.146000
_cell_length_b 6.089600
_cell_length_c 22.939000
_cell_angle_alpha 90.000000
_cell_angle_beta 101.950000
_cell_angle_gamma 90.000000
_cell_volume 1523.235545
loop_
_atom_site_label
_atom_site_type_symbol
_atom_site_fract_x
_atom_site_fract_y
_atom_site_fract_z
H1 H 0.942500 1.300900 0.224900
H2 H 0.891200 1.032200 0.285500
H3 H 0.939000 1.140700 0.426000
H4 H 1.148500 1.100900 0.455200
H5 H 0.418500 1.443100 0.929300
H6 H 0.400900 1.316200 0.986600
H7 H 1.240600 0.771100 0.442700
H8 H 1.122300 0.480600 0.399900
H9 H 0.379500 0.765600 0.846800
H10 H 0.913300 0.517300 0.371400
H11 H 0.763400 0.467200 0.452000
H12 H 0.824000 1.611500 0.204300
H13 H 0.646800 1.644300 0.240600
H14 H 0.590100 0.129600 0.798600
H15 H 0.590100 1.370400 0.298600
H16 H 0.646800 -0.144300 0.740600
H17 H 0.379500 0.734400 0.346800
H18 H 0.824000 -0.111500 0.704300
H19 H 0.400900 0.183800 0.486600
H20 H 0.418500 0.056900 0.429300
H21 H 0.057500 0.800900 0.275100
H22 H 0.763400 1.032800 0.952000
H23 H 0.108800 0.532200 0.214500
H24 H 0.061000 0.640700 0.074000
H25 H -0.148500 0.600900 0.044800
H26 H 0.913300 0.982700 0.871400
H27 H -0.240600 0.271100 0.057300
H28 H 1.122300 1.019400 0.899900
H29 H -0.122300 -0.019400 0.100100
H30 H 1.240600 0.728900 0.942700
H31 H 0.086700 0.017300 0.128600
H32 H 1.148500 0.399100 0.955200
H33 H 0.236600 -0.032800 0.048000
H34 H 0.939000 0.359300 0.926000
H35 H 0.176000 1.111500 0.295700
H36 H 0.891200 0.467800 0.785500
H37 H 0.353200 1.144300 0.259400
H38 H 0.942500 0.199100 0.724900
H39 H 0.409900 0.870400 0.201400
H40 H 0.620500 0.234400 0.153200
H41 H 0.599100 -0.316200 0.013400
H42 H 0.581500 -0.443100 0.070700
H43 H 0.581500 0.943100 0.570700
H44 H 0.599100 0.816200 0.513400
H45 H 0.057500 -0.300900 0.775100
H46 H 0.108800 -0.032200 0.714500
H47 H 0.620500 0.265600 0.653200
H48 H 0.061000 -0.140700 0.574000
H49 H -0.148500 -0.100900 0.544800
H50 H -0.240600 0.228900 0.557300
H51 H -0.122300 0.519400 0.600100
H52 H 0.409900 -0.370400 0.701400
H53 H 0.086700 0.482700 0.628600
H54 H 0.353200 -0.644300 0.759400
H55 H 0.236600 0.532800 0.548000
H56 H 0.176000 -0.611500 0.795700
C57 C 0.231480 0.148200 0.623620
C58 C 0.320070 0.292000 0.605430
C59 C 0.311370 0.479500 0.568970
C60 C 0.198700 -0.500700 0.772310
C61 C 0.420340 0.577700 0.566560
C62 C 0.097130 0.167200 0.604680
C63 C 0.039800 0.363500 0.611830
C64 C 0.304150 -0.520300 0.750380
C65 C -0.085470 0.386100 0.594560
C66 C 0.337400 -0.357300 0.715170
C67 C -0.156110 0.213300 0.569290
C68 C 0.263710 -0.173400 0.700080
C69 C -0.101010 0.017200 0.561810
C70 C 0.296790 0.001000 0.662170
C71 C 0.024770 -0.006600 0.579330
C72 C 0.434060 0.218600 0.634820
C73 C 0.158690 -0.155200 0.723390
C74 C 0.545150 0.317900 0.632610
C75 C 0.127520 -0.316700 0.759360
C76 C 0.532730 0.500100 0.597090
C77 C 0.841310 1.155200 0.276610
C78 C 0.975230 1.006600 0.420670
C79 C 0.433410 1.305000 0.950620
C80 C 0.566590 -0.305000 0.049380
C81 C 0.566590 0.805000 0.549380
C82 C 1.101010 0.982800 0.438190
C83 C 0.532730 -0.000100 0.097090
C84 C 0.545150 0.182100 0.132610
C85 C 0.467270 1.000100 0.902910
C86 C 0.434060 0.281400 0.134820
C87 C 0.296790 0.499000 0.162170
C88 C 0.263710 0.673400 0.200080
C89 C 0.337400 0.857300 0.215170
C90 C 1.156110 0.786700 0.430710
C91 C 0.304150 1.020300 0.250380
C92 C 0.872480 0.183300 0.740640
C93 C 0.198700 1.000700 0.272310
C94 C 0.841310 0.344800 0.776610
C95 C 0.231480 0.351800 0.123620
C96 C 0.320070 0.208000 0.105430
C97 C 0.311370 0.020500 0.068970
C98 C 0.975230 0.493400 0.920670
C99 C 0.420340 -0.077700 0.066560
C100 C 0.097130 0.332800 0.104680
C101 C 0.039800 0.136500 0.111830
C102 C 1.101010 0.517200 0.938190
C103 C -0.085470 0.113900 0.094560
C104 C 1.156110 0.713300 0.930710
C105 C -0.156110 0.286700 0.069290
C106 C 1.085470 0.886100 0.905440
C107 C -0.101010 0.482800 0.061810
C108 C 0.960200 0.863500 0.888170
C109 C 0.024770 0.506600 0.079330
C110 C 0.902870 0.667200 0.895320
C111 C 0.158690 0.655200 0.223390
C112 C 0.579660 1.077700 0.933440
C113 C 0.127520 0.816700 0.259360
C114 C 0.688630 0.979500 0.931030
C115 C 0.454850 0.817900 0.867390
C116 C 1.085470 0.613900 0.405440
C117 C 0.565940 0.718600 0.865180
C118 C 0.433410 0.195000 0.450620
C119 C 0.679930 0.792000 0.894570
C120 C 0.768520 0.648200 0.876380
C121 C 0.467270 0.499900 0.402910
C122 C 0.454850 0.682100 0.367390
C123 C 0.801300 -0.000700 0.727690
C124 C 0.565940 0.781400 0.365180
C125 C 0.703210 0.999000 0.337830
C126 C 0.736290 1.173400 0.299920
C127 C 0.662600 1.357300 0.284830
C128 C 0.695850 -0.020300 0.749620
C129 C 0.695850 1.520300 0.249620
C130 C 0.662600 0.142700 0.784830
C131 C 0.801300 1.500700 0.227690
C132 C 0.736290 0.326600 0.799920
C133 C 0.768520 0.851800 0.376380
C134 C 0.679930 0.708000 0.394570
C135 C 0.688630 0.520500 0.431030
C136 C 0.703210 0.501000 0.837830
C137 C 0.579660 0.422300 0.433440
C138 C 0.902870 0.832800 0.395320
C139 C 0.960200 0.636500 0.388170
C140 C 0.872480 1.316700 0.240640
O141 O 0.578080 0.962520 0.330800
O142 O 0.374190 0.369300 0.414280
O143 O 0.625810 0.630700 0.585720
O144 O 0.421920 0.037480 0.669200
O145 O 0.439220 0.762100 0.534450
O146 O 0.439220 -0.262100 0.034450
O147 O 0.421920 0.462520 0.169200
O148 O 0.560780 1.262100 0.965550
O149 O 0.625810 -0.130700 0.085720
O150 O 0.578080 0.537480 0.830800
O151 O 0.560780 0.237900 0.465550
O152 O 0.374190 1.130700 0.914280

#END
