./LAFVOG_from_POSCAR.cif_generated_by_CrystalShift
_symmetry_cell_setting triclinic
_symmetry_space_group_name_H-M 'P 1'
loop_
_symmetry_equiv_pos_site_id
_symmetry_equiv_pos_as_xyz
1 x,y,z
_cell_length_a 10.908000
_cell_length_b 13.050000
_cell_length_c 13.425000
_cell_angle_alpha 90.000000
_cell_angle_beta 93.055000
_cell_angle_gamma 90.000000
_cell_volume 1908.324792
loop_
_atom_site_label
_atom_site_type_symbol
_atom_site_fract_x
_atom_site_fract_y
_atom_site_fract_z
H1 H 0.034000 0.146900 0.393400
H2 H 0.800600 1.137300 1.161000
H3 H 0.520600 1.116700 1.133700
H4 H 0.411500 1.148600 1.274200
H5 H 0.399800 1.029600 1.396000
H6 H 0.495700 0.874700 1.384000
H7 H 0.607900 0.840800 1.246800
H8 H 0.745400 0.808600 0.465000
H9 H 0.745400 0.691400 0.965000
H10 H 0.690500 1.326200 0.878700
H11 H 0.650000 1.152700 0.883500
H12 H 0.607900 0.659200 0.746800
H13 H 1.046900 1.049100 0.876700
H14 H 0.495700 0.625300 0.884000
H15 H 0.082600 0.084700 0.579200
H16 H 0.399800 0.470400 0.896000
H17 H 0.075100 0.035600 0.685300
H18 H 0.411500 0.351400 0.774200
H19 H 0.202900 0.065600 0.645700
H20 H 0.520600 0.383300 0.633700
H21 H 0.149800 0.302800 0.849200
H22 H 0.034000 0.353100 0.893400
H23 H 0.800600 0.362700 0.661000
H24 H 0.141500 0.422200 0.859100
H25 H 0.838100 0.188300 0.658200
H26 H 0.040300 0.597900 0.547300
H27 H 0.011400 0.657100 0.644900
H28 H 0.690500 0.173800 0.378700
H29 H -0.046900 0.549100 0.623300
H30 H 0.650000 0.347300 0.383500
H31 H 0.350000 0.652700 0.616500
H32 H 1.046900 0.450900 0.376700
H33 H 0.988600 0.342900 0.355100
H34 H 0.959700 0.402100 0.452700
H35 H 0.309500 0.826200 0.621300
H36 H 0.858500 0.577800 0.140900
H37 H 0.966000 0.646900 0.106600
H38 H 0.850200 0.697200 0.150800
H39 H 0.161900 0.811700 0.341800
H40 H 0.797100 0.934400 0.354300
H41 H 0.924900 0.964400 0.314700
H42 H 0.917400 0.915300 0.420800
H43 H 0.917400 0.584700 0.920800
H44 H 0.924900 0.535600 0.814700
H45 H 0.797100 0.565600 0.854300
H46 H 0.199400 0.637300 0.339000
H47 H 0.850200 0.802800 0.650800
H48 H 0.479400 0.616700 0.366300
H49 H 0.588500 0.648600 0.225800
H50 H 0.600200 0.529600 0.104000
H51 H 0.504300 0.374700 0.116000
H52 H 0.392100 0.340800 0.253200
H53 H 0.254600 0.191400 0.535000
H54 H 0.988600 1.157100 0.855100
H55 H 0.254600 0.308600 0.035000
H56 H 0.959700 1.097900 0.952700
H57 H 0.858500 0.922200 0.640900
H58 H 0.966000 0.853100 0.606600
H59 H 0.392100 0.159200 -0.246800
H60 H 0.082600 0.415300 0.079200
H61 H 0.504300 0.125300 -0.384000
H62 H 0.075100 0.464400 0.185300
H63 H 0.600200 -0.029600 -0.396000
H64 H 0.202900 0.434400 0.145700
H65 H 0.588500 -0.148600 -0.274200
H66 H 0.149800 0.197200 0.349200
H67 H 0.479400 -0.116700 -0.133700
H68 H 0.838100 1.311700 1.158200
H69 H 0.141500 0.077800 0.359100
H70 H 0.199400 -0.137300 -0.161000
H71 H 0.040300 -0.097900 0.047300
H72 H 0.161900 -0.311700 -0.158200
H73 H 0.011400 -0.157100 0.144900
H74 H -0.046900 -0.049100 0.123300
H75 H 0.309500 -0.326200 0.121300
H76 H 0.350000 -0.152700 0.116500
C77 C 0.310800 -0.184600 0.061600
C78 C 0.024700 -0.090700 0.116600
C79 C 0.288800 -0.287600 0.064600
C80 C 0.234800 -0.331600 -0.019600
C81 C 0.199600 -0.278900 -0.103200
C82 C 0.095500 0.139300 0.345300
C83 C 0.221500 -0.175100 -0.104200
C84 C 0.275700 -0.126400 -0.021800
C85 C 0.482500 -0.067600 -0.183700
C86 C 0.117800 0.415700 0.146300
C87 C 0.548600 -0.086200 -0.268000
C88 C 0.555500 -0.015300 -0.340500
C89 C 0.498500 0.076600 -0.333900
C90 C 0.431700 0.096500 -0.251800
C91 C 0.422400 0.023800 -0.175500
C92 C 0.904500 0.860700 0.654700
C93 C 0.265300 0.155900 0.013300
C94 C 0.229300 0.245100 0.057600
C95 C 0.351000 0.453900 0.409800
C96 C 0.291000 0.511900 0.477500
C97 C 0.235000 0.442600 0.547900
C98 C 0.159300 0.449300 0.628200
C99 C 0.118900 0.361100 0.672300
C100 C 0.153400 0.263200 0.637800
C101 C 0.229300 0.254900 0.557600
C102 C 0.153400 0.236800 0.137800
C103 C 0.265300 0.344100 0.513300
C104 C 0.422400 0.476200 0.324500
C105 C 0.431700 0.403500 0.248200
C106 C 0.118900 0.138900 0.172300
C107 C 0.498500 0.423400 0.166100
C108 C 0.159300 0.050700 0.128200
C109 C 0.555500 0.515300 0.159500
C110 C 0.235000 0.057400 0.047900
C111 C 0.548600 0.586200 0.232000
C112 C 0.291000 -0.011900 -0.022500
C113 C 0.482500 0.567600 0.316300
C114 C 0.351000 0.046100 -0.090200
C115 C 0.275700 0.626400 0.478200
C116 C 0.221500 0.675100 0.395800
C117 C 0.882200 0.584300 0.853700
C118 C 0.199600 0.778900 0.396800
C119 C 0.882200 0.915700 0.353700
C120 C 0.234800 0.831600 0.480400
C121 C 0.288800 0.787600 0.564600
C122 C 0.904500 0.639300 0.154700
C123 C 0.310800 0.684600 0.561600
C124 C 0.975300 0.409300 0.383400
C125 C 0.024700 0.590700 0.616600
C126 C 0.689200 0.315400 0.438400
C127 C 0.711200 0.212400 0.435400
C128 C 0.765200 0.168400 0.519600
C129 C 0.095500 0.360700 0.845300
C130 C 0.800400 0.221100 0.603200
C131 C 0.778500 0.324900 0.604200
C132 C 0.724300 0.373600 0.521800
C133 C 0.117800 0.084300 0.646300
C134 C 0.517500 0.432400 0.683700
C135 C 0.451400 0.413800 0.768000
C136 C 0.444500 0.484700 0.840500
C137 C 0.501500 0.576600 0.833900
C138 C 0.975300 1.090700 0.883400
C139 C 0.568300 0.596500 0.751800
C140 C 0.689200 1.184600 0.938400
C141 C 0.577600 0.523800 0.675500
C142 C 0.649000 0.953900 1.090200
C143 C 0.709000 1.011900 1.022500
C144 C 0.765000 0.942600 0.952100
C145 C 0.840700 0.949300 0.871800
C146 C 0.881100 0.861100 0.827700
C147 C 0.846600 0.763200 0.862200
C148 C 0.770700 0.754900 0.942400
C149 C 0.734700 0.655900 0.486700
C150 C 0.734700 0.844100 0.986700
C151 C 0.577600 0.976200 1.175500
C152 C 0.568300 0.903500 1.251800
C153 C 0.770700 0.745100 0.442400
C154 C 0.501500 0.923400 1.333900
C155 C 0.846600 0.736800 0.362200
C156 C 0.444500 1.015300 1.340500
C157 C 0.881100 0.638900 0.327700
C158 C 0.451400 1.086200 1.268000
C159 C 0.840700 0.550700 0.371800
C160 C 0.517500 1.067600 1.183700
C161 C 0.765000 0.557400 0.452100
C162 C 0.724300 1.126400 1.021800
C163 C 0.778500 1.175100 1.104200
C164 C 0.709000 0.488100 0.522500
C165 C 0.800400 1.278900 1.103200
C166 C 0.649000 0.546100 0.590200
C167 C 0.765200 1.331600 1.019600
C168 C 0.711200 1.287600 0.935400
O169 O 0.107300 0.183500 0.688600
O170 O 0.037900 0.366500 0.747700
O171 O 0.128600 0.542900 0.668200
O172 O 0.336000 0.350300 0.432700
O173 O 0.962100 0.866500 0.752300
O174 O 0.107300 0.316500 0.188600
O175 O 0.037900 0.133500 0.247700
O176 O 0.128600 -0.042900 0.168200
O177 O 0.336000 0.149700 -0.067300
O178 O 0.871400 1.042900 0.831800
O179 O 0.892700 0.816500 0.311400
O180 O 0.962100 0.633500 0.252300
O181 O 0.871400 0.457100 0.331800
O182 O 0.664000 0.649700 0.567300
O183 O 0.664000 0.850300 1.067300
O184 O 0.892700 0.683500 0.811400
F185 F 0.211900 -0.434600 -0.017300
F186 F 0.211900 0.934600 0.482700
F187 F 0.788100 0.065400 0.517300
F188 F 0.788100 1.434600 1.017300

#END
