
#######################################################################
#
#                 Cambridge Crystallographic Data Centre
#                                CCDC 
#
#######################################################################
#
# If this CIF has been generated from an entry in the Cambridge 
# Structural Database, then it will include bibliographic, chemical, 
# crystal, experimental, refinement or atomic coordinate data resulting 
# from the CCDC's data processing and validation procedures.
#
#######################################################################

data_LAFWAR
_symmetry_cell_setting           monoclinic
_symmetry_space_group_name_H-M   'P 21/c'
_symmetry_Int_Tables_number      14
_space_group_name_Hall           '-P 2ybc'
loop_
_symmetry_equiv_pos_site_id
_symmetry_equiv_pos_as_xyz
1 x,y,z
2 x,1/2-y,1/2+z
3 -x,-y,-z
4 -x,1/2+y,1/2-z
_cell_length_a                   7.634(1)
_cell_length_b                   8.931(2)
_cell_length_c                   14.274(3)
_cell_angle_alpha                90
_cell_angle_beta                 91.82(1)
_cell_angle_gamma                90
_cell_volume                     972.7
loop_
_atom_site_label
_atom_site_type_symbol
_atom_site_fract_x
_atom_site_fract_y
_atom_site_fract_z
O1 O 0.6155(3) 0.2356(3) 1.1214(2)
O2 O 0.5921(3) 0.4745(3) 1.1658(2)
O3 O 0.7051(3) 0.6810(3) 1.0606(2)
O4 O 0.9747(3) 0.5544(2) 0.7781(2)
O5 O 0.7494(3) 0.1679(3) 0.9683(2)
C1 C 0.7210(4) 0.4227(4) 1.0194(2)
C2 C 0.7565(4) 0.5762(4) 0.9978(2)
C3 C 0.8399(4) 0.6148(3) 0.9171(2)
C4 C 0.8917(4) 0.5025(4) 0.8547(2)
C5 C 0.8586(4) 0.3554(4) 0.8730(2)
C6 C 0.7738(4) 0.3159(4) 0.9550(2)
C7 C 0.6401(4) 0.3710(4) 1.1053(2)
C8 C 0.5129(5) 0.4195(4) 1.2514(2)
C9 C 0.7382(5) 0.8353(4) 1.0383(3)
C10 C 1.0343(5) 0.4416(4) 0.7142(3)
H1 H 0.702(5) 0.143(4) 1.031(3)
H2 H 0.8634 0.7197 0.9031
H3 H 0.8951 0.2775 0.8291
H4 H 0.5994 0.3598 1.2873
H5 H 0.4111 0.3575 1.2346
H6 H 0.4762 0.5047 1.2893
H7 H 0.6913 0.8999 1.0870
H8 H 0.6826 0.8602 0.9776
H9 H 0.8655 0.8515 1.0353
H10 H 1.1161 0.3740 0.7477
H11 H 1.0945 0.4900 0.6626
H12 H 0.9340 0.3845 0.6893
O1 O 0.6155(3) 0.2644(3) 0.6214(2)
O2 O 0.5921(3) 0.0255(3) 0.6658(2)
O3 O 0.7051(3) -0.1810(3) 0.5606(2)
O4 O 0.9747(3) -0.0544(2) 0.2781(2)
O5 O 0.7494(3) 0.3321(3) 0.4683(2)
C1 C 0.7210(4) 0.0773(4) 0.5194(2)
C2 C 0.7565(4) -0.0762(4) 0.4978(2)
C3 C 0.8399(4) -0.1148(3) 0.4171(2)
C4 C 0.8917(4) -0.0025(4) 0.3547(2)
C5 C 0.8586(4) 0.1446(4) 0.3730(2)
C6 C 0.7738(4) 0.1841(4) 0.4550(2)
C7 C 0.6401(4) 0.1290(4) 0.6053(2)
C8 C 0.5129(5) 0.0805(4) 0.7514(2)
C9 C 0.7382(5) -0.3353(4) 0.5383(3)
C10 C 1.0343(5) 0.0584(4) 0.2142(3)
H1 H 0.702(5) 0.357(4) 0.531(3)
H2 H 0.8634 -0.2197 0.4031
H3 H 0.8951 0.2225 0.3291
H4 H 0.5994 0.1402 0.7873
H5 H 0.4111 0.1425 0.7346
H6 H 0.4762 -0.0047 0.7893
H7 H 0.6913 -0.3999 0.5870
H8 H 0.6826 -0.3602 0.4776
H9 H 0.8655 -0.3515 0.5353
H10 H 1.1161 0.1260 0.2477
H11 H 1.0945 0.0100 0.1626
H12 H 0.9340 0.1155 0.1893
O1 O 0.3845(3) 0.7644(3) -0.1214(2)
O2 O 0.4079(3) 0.5255(3) -0.1658(2)
O3 O 0.2949(3) 0.3190(3) -0.0606(2)
O4 O 0.0253(3) 0.4456(2) 0.2219(2)
O5 O 0.2506(3) 0.8321(3) 0.0317(2)
C1 C 0.2790(4) 0.5773(4) -0.0194(2)
C2 C 0.2435(4) 0.4238(4) 0.0022(2)
C3 C 0.1601(4) 0.3852(3) 0.0829(2)
C4 C 0.1083(4) 0.4975(4) 0.1453(2)
C5 C 0.1414(4) 0.6446(4) 0.1270(2)
C6 C 0.2262(4) 0.6841(4) 0.0450(2)
C7 C 0.3599(4) 0.6290(4) -0.1053(2)
C8 C 0.4871(5) 0.5805(4) -0.2514(2)
C9 C 0.2618(5) 0.1647(4) -0.0383(3)
C10 C -0.0343(5) 0.5584(4) 0.2858(3)
H1 H 0.298(5) 0.857(4) -0.031(3)
H2 H 0.1366 0.2803 0.0969
H3 H 0.1049 0.7225 0.1709
H4 H 0.4006 0.6402 -0.2873
H5 H 0.5889 0.6425 -0.2346
H6 H 0.5238 0.4953 -0.2893
H7 H 0.3087 0.1001 -0.0870
H8 H 0.3174 0.1398 0.0224
H9 H 0.1345 0.1485 -0.0353
H10 H -0.1161 0.6260 0.2523
H11 H -0.0945 0.5100 0.3374
H12 H 0.0660 0.6155 0.3107
O1 O 0.3845(3) 0.7356(3) 0.3786(2)
O2 O 0.4079(3) 0.9745(3) 0.3342(2)
O3 O 0.2949(3) 1.1810(3) 0.4394(2)
O4 O 0.0253(3) 1.0544(2) 0.7219(2)
O5 O 0.2506(3) 0.6679(3) 0.5317(2)
C1 C 0.2790(4) 0.9227(4) 0.4806(2)
C2 C 0.2435(4) 1.0762(4) 0.5022(2)
C3 C 0.1601(4) 1.1148(3) 0.5829(2)
C4 C 0.1083(4) 1.0025(4) 0.6453(2)
C5 C 0.1414(4) 0.8554(4) 0.6270(2)
C6 C 0.2262(4) 0.8159(4) 0.5450(2)
C7 C 0.3599(4) 0.8710(4) 0.3947(2)
C8 C 0.4871(5) 0.9195(4) 0.2486(2)
C9 C 0.2618(5) 1.3353(4) 0.4617(3)
C10 C -0.0343(5) 0.9416(4) 0.7858(3)
H1 H 0.298(5) 0.643(4) 0.469(3)
H2 H 0.1366 1.2197 0.5969
H3 H 0.1049 0.7775 0.6709
H4 H 0.4006 0.8598 0.2127
H5 H 0.5889 0.8575 0.2654
H6 H 0.5238 1.0047 0.2107
H7 H 0.3087 1.3999 0.4130
H8 H 0.3174 1.3602 0.5224
H9 H 0.1345 1.3515 0.4647
H10 H -0.1161 0.8740 0.7523
H11 H -0.0945 0.9900 0.8374
H12 H 0.0660 0.8845 0.8107

#END
