./LAFXAR_from_POSCAR.cif_generated_by_CrystalShift
_symmetry_cell_setting triclinic
_symmetry_space_group_name_H-M 'P 1'
loop_
_symmetry_equiv_pos_site_id
_symmetry_equiv_pos_as_xyz
1 x,y,z
_cell_length_a 17.040000
_cell_length_b 11.495000
_cell_length_c 9.018000
_cell_angle_alpha 90.000000
_cell_angle_beta 90.000000
_cell_angle_gamma 90.000000
_cell_volume 1766.398946
loop_
_atom_site_label
_atom_site_type_symbol
_atom_site_fract_x
_atom_site_fract_y
_atom_site_fract_z
H1 H 1.155300 0.474500 -0.403700
H2 H 1.119000 0.233600 -0.080600
H3 H 1.248100 0.318400 -0.040500
H4 H 1.267700 0.483800 -0.221400
H5 H 1.162100 0.621100 -0.185900
H6 H 1.170000 0.560500 -0.032900
H7 H 1.056500 0.332400 -0.292100
H8 H 0.964800 0.249700 0.083300
H9 H 0.870700 0.171200 0.250900
H10 H 0.836600 0.270300 0.471400
H11 H 0.900400 0.447800 0.531300
H12 H 0.997400 0.524500 0.366600
H13 H 0.805800 0.406500 0.024100
H14 H 0.721700 0.491800 0.201200
H15 H 0.743800 0.686900 0.267500
H16 H 0.859200 0.785000 0.197500
H17 H 0.949700 0.690700 0.043300
H18 H 0.922400 0.395800 -0.090800
H19 H 0.655300 0.025500 1.403700
H20 H 0.694200 0.147100 1.390300
H21 H 0.619000 0.266400 1.080600
H22 H 0.748100 0.181600 1.040500
H23 H 0.767700 0.016200 1.221400
H24 H 0.662100 -0.121100 1.185900
H25 H 0.670000 -0.060500 1.032900
H26 H 0.556500 0.167600 1.292100
H27 H 0.577600 0.604200 0.409200
H28 H 0.550300 0.309300 0.543300
H29 H 0.640800 0.215000 0.697500
H30 H 0.756200 0.313100 0.767500
H31 H 0.778300 0.508200 0.701200
H32 H 0.694200 0.593500 0.524100
H33 H 0.502600 0.475500 0.866600
H34 H 0.599600 0.552200 1.031300
H35 H 0.663400 0.729700 0.971400
H36 H 0.629300 0.828800 0.750900
H37 H 0.535200 0.750300 0.583300
H38 H 0.443500 0.667600 0.207900
H39 H 0.330000 0.439500 0.467100
H40 H 0.337900 0.378900 0.314100
H41 H 0.232300 0.516200 0.278600
H42 H 0.251900 0.681600 0.459500
H43 H 0.381000 0.766400 0.419400
H44 H 0.305800 0.647100 0.109700
H45 H 0.344700 0.525500 0.096300
H46 H 0.464800 0.250300 0.916700
H47 H 0.370700 0.328800 0.749100
H48 H 0.336600 0.229700 0.528600
H49 H 0.400400 0.052200 0.468700
H50 H 0.497400 -0.024500 0.633400
H51 H 0.305800 0.093500 0.975900
H52 H 0.221700 0.008200 0.798800
H53 H 0.243800 -0.186900 0.732500
H54 H 0.359200 -0.285000 0.802500
H55 H 0.449700 -0.190700 0.956700
H56 H 0.422400 0.104200 1.090800
H57 H -0.155300 0.974500 0.903700
H58 H -0.194200 0.852900 0.890300
H59 H -0.119000 0.733600 0.580600
H60 H -0.248100 0.818400 0.540500
H61 H -0.267700 0.983800 0.721400
H62 H -0.162100 1.121100 0.685900
H63 H -0.170000 1.060500 0.532900
H64 H -0.056500 0.832400 0.792100
H65 H 0.035200 0.749700 0.416700
H66 H 0.129300 0.671200 0.249100
H67 H 0.163400 0.770300 0.028600
H68 H 0.099600 0.947800 -0.031300
H69 H 0.002600 1.024500 0.133400
H70 H 0.194200 0.906500 0.475900
H71 H 0.278300 0.991800 0.298800
H72 H 0.077600 0.895800 0.590800
H73 H 0.050300 1.190700 0.456700
H74 H 0.140800 1.285000 0.302500
H75 H 0.256200 1.186900 0.232500
H76 H 1.194200 0.352900 -0.390300
C77 C -0.139700 0.800100 0.628800
C78 C -0.208700 0.847300 0.606000
C79 C -0.215300 0.953000 0.701500
C80 C -0.157800 1.046000 0.636600
C81 C -0.098000 0.872500 0.742100
C82 C 0.557200 0.522400 0.418300
C83 C -0.024000 1.060700 0.757100
C84 C -0.076900 0.989000 0.658700
C85 C 0.050000 0.791900 0.323800
C86 C 0.104200 0.746000 0.226800
C87 C 0.123600 0.803400 0.097400
C88 C 0.086300 0.906600 0.063300
C89 C 0.030500 0.951600 0.157600
C90 C 0.013900 0.896000 0.289100
C91 C 0.613700 0.463200 0.521300
C92 C 0.442800 0.022400 1.081700
C93 C 0.386300 -0.036800 0.978700
C94 C 0.400300 -0.149500 0.929500
C95 C 0.348000 -0.204700 0.836300
C96 C 0.282000 -0.146000 0.792100
C97 C 0.266800 -0.033900 0.839100
C98 C 0.318600 0.018300 0.934000
C99 C 0.599700 0.350500 0.570500
C100 C 0.547300 0.053800 0.887900
C101 C 0.652000 0.295300 0.663700
C102 C 0.486100 0.104000 0.789100
C103 C 0.469500 0.048400 0.657600
C104 C 0.413700 0.093400 0.563300
C105 C 0.376400 0.196600 0.597400
C106 C 0.395800 0.254000 0.726800
C107 C 0.450000 0.208100 0.823800
C108 C 0.576900 0.011000 1.158700
C109 C 0.524000 -0.060700 1.257100
C110 C 0.718000 0.354000 0.707900
C111 C 0.598000 0.127500 1.242100
C112 C 0.657800 -0.046000 1.136600
C113 C 0.715300 0.047000 1.201500
C114 C 0.708700 0.152700 1.106000
C115 C 0.639700 0.199900 1.128800
C116 C 0.667800 0.085700 1.335200
C117 C 0.733200 0.466100 0.660900
C118 C -0.047300 0.946200 0.387900
C119 C 0.681400 0.518300 0.566000
C120 C 0.181400 0.981700 0.434000
C121 C 0.233200 1.033900 0.339100
C122 C 0.218000 1.146000 0.292100
C123 C 0.152000 1.204700 0.336300
C124 C 0.099700 1.149500 0.429500
C125 C 0.113700 1.036800 0.478700
C126 C 0.057200 0.977600 0.581700
C127 C 0.452700 0.553800 0.612100
C128 C 0.332200 0.585700 0.164800
C129 C 0.360300 0.699900 0.371200
C130 C 0.291300 0.652700 0.394000
C131 C 0.284700 0.547000 0.298500
C132 C 0.342200 0.454000 0.363400
C133 C 0.402000 0.627500 0.257900
C134 C 0.513900 0.604000 0.710900
C135 C 0.476000 0.439300 0.242900
C136 C 0.530500 0.548400 0.842400
C137 C 0.942800 0.477600 -0.081700
C138 C 0.886300 0.536800 0.021300
C139 C 0.900300 0.649500 0.070500
C140 C 0.848000 0.704700 0.163700
C141 C 0.782000 0.646000 0.207900
C142 C 0.766800 0.533900 0.160900
C143 C 0.818600 0.481700 0.066000
C144 C 0.586300 0.593400 0.936700
C145 C 1.047300 0.446200 0.112100
C146 C 0.623600 0.696600 0.902600
C147 C 0.986100 0.396000 0.210900
C148 C 0.969500 0.451600 0.342400
C149 C 0.913700 0.406600 0.436700
C150 C 0.876400 0.303400 0.402600
C151 C 0.895800 0.246000 0.273200
C152 C 0.950000 0.291900 0.176200
C153 C 1.076900 0.489000 -0.158700
C154 C 1.024000 0.560700 -0.257100
C155 C 0.604200 0.754000 0.773200
C156 C 1.098000 0.372500 -0.242100
C157 C 1.157800 0.546000 -0.136600
C158 C 1.215300 0.453000 -0.201500
C159 C 1.208700 0.347300 -0.106000
C160 C 1.139700 0.300100 -0.128800
C161 C 1.167800 0.414300 -0.335200
C162 C 0.423100 0.511000 0.341300
C163 C 0.550000 0.708100 0.676200
C164 C -0.167800 0.914300 0.835200
N165 N 0.525400 0.029400 1.031700
N166 N 1.025400 0.470600 -0.031700
N167 N -0.025400 0.970600 0.531700
N168 N 0.474600 0.529400 0.468300
O169 O 0.386200 0.538100 0.658600
O170 O 0.051300 1.046200 0.714400
O171 O 0.459700 0.380000 0.138200
O172 O 0.948700 0.546200 -0.214400
O173 O -0.113800 0.961900 0.341400
O174 O 0.540300 -0.120000 1.361800
O175 O 0.613800 0.038100 0.841400
O176 O 1.113800 0.461900 0.158600
O177 O 0.448700 -0.046200 1.214400
O178 O -0.040300 1.120000 0.861800
O179 O 1.040300 0.620000 -0.361800
O180 O 0.551300 0.453800 0.285600

#END
