
#######################################################################
#
#                 Cambridge Crystallographic Data Centre
#                                CCDC 
#
#######################################################################
#
# If this CIF has been generated from an entry in the Cambridge 
# Structural Database, then it will include bibliographic, chemical, 
# crystal, experimental, refinement or atomic coordinate data resulting 
# from the CCDC's data processing and validation procedures.
#
#######################################################################

data_LAFZAT
_symmetry_cell_setting           monoclinic
_symmetry_space_group_name_H-M   'P 21/n'
_symmetry_Int_Tables_number      14
_space_group_name_Hall           '-P 2yn'
loop_
_symmetry_equiv_pos_site_id
_symmetry_equiv_pos_as_xyz
1 x,y,z
2 1/2-x,1/2+y,1/2-z
3 -x,-y,-z
4 1/2+x,1/2-y,1/2+z
_cell_length_a                   13.786(5)
_cell_length_b                   9.349(19)
_cell_length_c                   7.146(14)
_cell_angle_alpha                90
_cell_angle_beta                 91.25(9)
_cell_angle_gamma                90
_cell_volume                     920.795
loop_
_atom_site_label
_atom_site_type_symbol
_atom_site_fract_x
_atom_site_fract_y
_atom_site_fract_z
O1 O 0.1389(4) 0.0106(6) 0.8751(8)
H1 H 0.116(7) 0.010(11) 0.737(15)
O2 O 0.0283(3) 0.1296(6) 1.1476(7)
N1 N 0.2997(4) 0.2823(6) 1.0571(8)
C1 C 0.3087(10) 0.1443(14) 0.6298(21)
H2 H 0.3517(10) 0.1150(14) 0.5351(21)
H3 H 0.3322(10) 0.2297(14) 0.6866(21)
H4 H 0.2462(10) 0.1611(14) 0.5757(21)
C2 C 0.3273(7) 0.0939(18) 0.8072(20)
H5 H 0.3042(7) -0.0014(18) 0.8169(20)
H6 H 0.3937(7) 0.0974(18) 0.8458(20)
C3 C 0.2636(5) 0.1707(8) 0.9500(10)
C4 C 0.1726(5) 0.1232(7) 0.9825(9)
C5 C 0.1097(4) 0.1783(7) 1.1223(9)
C6 C 0.1535(6) 0.2930(9) 1.2266(11)
H7 H 0.104(5) 0.335(7) 1.344(10)
C7 C 0.2431(7) 0.3387(9) 1.1913(11)
H8 H 0.288(6) 0.420(10) 1.286(13)
C8 C 0.4685(7) 0.2485(15) 1.1703(15)
H9 H 0.5362(7) 0.2657(15) 1.1624(15)
H10 H 0.4550(7) 0.1522(15) 1.1366(15)
H11 H 0.4485(7) 0.2652(15) 1.2948(15)
C9 C 0.4021(6) 0.3317(10) 1.0458(11)
H12 H 0.4195(6) 0.3258(10) 0.9181(11)
H13 H 0.4170(6) 0.4244(10) 1.0925(11)
O1 O 0.3611(4) 0.5106(6) 0.6249(8)
H1 H 0.384(7) 0.510(11) 0.763(15)
O2 O 0.4717(3) 0.6296(6) 0.3524(7)
N1 N 0.2003(4) 0.7823(6) 0.4429(8)
C1 C 0.1913(10) 0.6443(14) 0.8702(21)
H2 H 0.1483(10) 0.6150(14) 0.9649(21)
H3 H 0.1678(10) 0.7297(14) 0.8134(21)
H4 H 0.2538(10) 0.6611(14) 0.9243(21)
C2 C 0.1727(7) 0.5939(18) 0.6928(20)
H5 H 0.1958(7) 0.4986(18) 0.6831(20)
H6 H 0.1063(7) 0.5974(18) 0.6542(20)
C3 C 0.2364(5) 0.6707(8) 0.5500(10)
C4 C 0.3274(5) 0.6232(7) 0.5175(9)
C5 C 0.3903(4) 0.6783(7) 0.3777(9)
C6 C 0.3465(6) 0.7930(9) 0.2734(11)
H7 H 0.396(5) 0.835(7) 0.156(10)
C7 C 0.2569(7) 0.8387(9) 0.3087(11)
H8 H 0.212(6) 0.920(10) 0.214(13)
C8 C 0.0315(7) 0.7485(15) 0.3297(15)
H9 H -0.0362(7) 0.7657(15) 0.3376(15)
H10 H 0.0450(7) 0.6522(15) 0.3634(15)
H11 H 0.0515(7) 0.7652(15) 0.2052(15)
C9 C 0.0979(6) 0.8317(10) 0.4542(11)
H12 H 0.0805(6) 0.8258(10) 0.5819(11)
H13 H 0.0830(6) 0.9244(10) 0.4075(11)
O1 O 0.8611(4) 0.9894(6) 0.1249(8)
H1 H 0.884(7) 0.990(11) 0.263(15)
O2 O 0.9717(3) 0.8704(6) -0.1476(7)
N1 N 0.7003(4) 0.7177(6) -0.0571(8)
C1 C 0.6913(10) 0.8557(14) 0.3702(21)
H2 H 0.6483(10) 0.8850(14) 0.4649(21)
H3 H 0.6678(10) 0.7703(14) 0.3134(21)
H4 H 0.7538(10) 0.8389(14) 0.4243(21)
C2 C 0.6727(7) 0.9061(18) 0.1928(20)
H5 H 0.6958(7) 1.0014(18) 0.1831(20)
H6 H 0.6063(7) 0.9026(18) 0.1542(20)
C3 C 0.7364(5) 0.8293(8) 0.0500(10)
C4 C 0.8274(5) 0.8768(7) 0.0175(9)
C5 C 0.8903(4) 0.8217(7) -0.1223(9)
C6 C 0.8465(6) 0.7070(9) -0.2266(11)
H7 H 0.896(5) 0.665(7) -0.344(10)
C7 C 0.7569(7) 0.6613(9) -0.1913(11)
H8 H 0.712(6) 0.580(10) -0.286(13)
C8 C 0.5315(7) 0.7515(15) -0.1703(15)
H9 H 0.4638(7) 0.7343(15) -0.1624(15)
H10 H 0.5450(7) 0.8478(15) -0.1366(15)
H11 H 0.5515(7) 0.7348(15) -0.2948(15)
C9 C 0.5979(6) 0.6683(10) -0.0458(11)
H12 H 0.5805(6) 0.6742(10) 0.0819(11)
H13 H 0.5830(6) 0.5756(10) -0.0925(11)
O1 O 0.6389(4) 0.4894(6) 0.3751(8)
H1 H 0.616(7) 0.490(11) 0.237(15)
O2 O 0.5283(3) 0.3704(6) 0.6476(7)
N1 N 0.7997(4) 0.2177(6) 0.5571(8)
C1 C 0.8087(10) 0.3557(14) 0.1298(21)
H2 H 0.8517(10) 0.3850(14) 0.0351(21)
H3 H 0.8322(10) 0.2703(14) 0.1866(21)
H4 H 0.7462(10) 0.3389(14) 0.0757(21)
C2 C 0.8273(7) 0.4061(18) 0.3072(20)
H5 H 0.8042(7) 0.5014(18) 0.3169(20)
H6 H 0.8937(7) 0.4026(18) 0.3458(20)
C3 C 0.7636(5) 0.3293(8) 0.4500(10)
C4 C 0.6726(5) 0.3768(7) 0.4825(9)
C5 C 0.6097(4) 0.3217(7) 0.6223(9)
C6 C 0.6535(6) 0.2070(9) 0.7266(11)
H7 H 0.604(5) 0.165(7) 0.844(10)
C7 C 0.7431(7) 0.1613(9) 0.6913(11)
H8 H 0.788(6) 0.080(10) 0.786(13)
C8 C 0.9685(7) 0.2515(15) 0.6703(15)
H9 H 1.0362(7) 0.2343(15) 0.6624(15)
H10 H 0.9550(7) 0.3478(15) 0.6366(15)
H11 H 0.9485(7) 0.2348(15) 0.7948(15)
C9 C 0.9021(6) 0.1683(10) 0.5458(11)
H12 H 0.9195(6) 0.1742(10) 0.4181(11)
H13 H 0.9170(6) 0.0756(10) 0.5925(11)

#END
