./LAGDAZ_from_POSCAR.cif_generated_by_CrystalShift
_symmetry_cell_setting triclinic
_symmetry_space_group_name_H-M 'P 1'
loop_
_symmetry_equiv_pos_site_id
_symmetry_equiv_pos_as_xyz
1 x,y,z
_cell_length_a 9.539000
_cell_length_b 21.892000
_cell_length_c 9.441000
_cell_angle_alpha 90.000000
_cell_angle_beta 93.846000
_cell_angle_gamma 90.000000
_cell_volume 1967.103110
loop_
_atom_site_label
_atom_site_type_symbol
_atom_site_fract_x
_atom_site_fract_y
_atom_site_fract_z
H1 H 0.522000 -0.005000 0.679000
H2 H 0.689000 -0.150000 0.542000
H3 H 0.889000 -0.129000 0.676000
H4 H 0.910000 -0.044000 0.800000
H5 H 0.744000 0.171200 0.642000
H6 H 0.899000 0.240000 0.555000
H7 H 1.131000 0.247000 0.663000
H8 H 1.187000 0.190000 0.865000
H9 H 1.028000 0.116000 0.936000
H10 H 0.763000 -0.033000 1.086000
H11 H 0.823000 -0.044000 1.323000
H12 H 0.842000 0.039000 1.474000
H13 H 0.831000 0.136000 1.362000
H14 H 0.795000 0.144000 1.129000
H15 H 0.467000 0.134000 1.153000
H16 H 0.501000 0.240000 1.215000
H17 H 0.522000 0.505000 0.179000
H18 H 0.502000 0.591000 0.047000
H19 H 0.689000 0.650000 0.042000
H20 H 0.889000 0.629000 0.176000
H21 H 0.910000 0.544000 0.300000
H22 H 0.744000 0.328800 0.142000
H23 H 0.899000 0.260000 0.055000
H24 H 1.131000 0.253000 0.163000
H25 H 1.187000 0.310000 0.365000
H26 H 0.499000 0.740000 0.285000
H27 H 0.533000 0.634000 0.347000
H28 H 0.205000 0.644000 0.371000
H29 H 0.169000 0.636000 0.138000
H30 H 0.158000 0.539000 0.026000
H31 H 0.177000 0.456000 0.177000
H32 H 0.237000 0.467000 0.414000
H33 H -0.028000 0.616000 0.564000
H34 H -0.187000 0.690000 0.635000
H35 H -0.131000 0.747000 0.837000
H36 H 0.101000 0.740000 0.945000
H37 H 0.256000 0.671200 0.858000
H38 H 0.090000 0.456000 0.700000
H39 H 0.111000 0.371000 0.824000
H40 H 0.311000 0.350000 0.958000
H41 H 0.498000 0.409000 0.953000
H42 H 0.478000 0.495000 0.821000
H43 H 1.028000 0.384000 0.436000
H44 H 0.763000 0.533000 0.586000
H45 H 0.823000 0.544000 0.823000
H46 H 0.842000 0.461000 0.974000
H47 H 0.831000 0.364000 0.862000
H48 H 0.795000 0.356000 0.629000
H49 H 0.467000 0.366000 0.653000
H50 H 0.501000 0.260000 0.715000
H51 H 0.478000 1.005000 0.321000
H52 H 0.498000 1.091000 0.453000
H53 H 0.311000 1.150000 0.458000
H54 H 0.111000 1.129000 0.324000
H55 H 0.090000 1.044000 0.200000
H56 H 0.256000 0.828800 0.358000
H57 H 0.101000 0.760000 0.445000
H58 H -0.131000 0.753000 0.337000
H59 H -0.187000 0.810000 0.135000
H60 H -0.028000 0.884000 0.064000
H61 H 0.237000 1.033000 -0.086000
H62 H 0.177000 1.044000 -0.323000
H63 H 0.158000 0.961000 -0.474000
H64 H 0.169000 0.864000 -0.362000
H65 H 0.205000 0.856000 -0.129000
H66 H 0.533000 0.866000 -0.153000
H67 H 0.499000 0.760000 -0.215000
H68 H 0.502000 -0.091000 0.547000
C69 C 0.416600 1.082300 0.405700
C70 C 0.306200 1.120100 0.407000
C71 C 0.185100 1.107000 0.329400
C72 C 0.173900 1.053800 0.250600
C73 C 0.285300 1.013900 0.248600
C74 C 0.164100 0.826300 0.319200
C75 C 0.070000 0.784300 0.367600
C76 C -0.059300 0.779000 0.300900
C77 C -0.096200 0.814000 0.184000
C78 C -0.000800 0.856400 0.136500
C79 C 0.129900 0.863600 0.205900
C80 C 0.226000 0.942500 -0.088400
C81 C 0.219600 0.999300 -0.148600
C82 C 0.194500 1.005800 -0.293800
C83 C 0.177400 0.955500 -0.379200
C84 C 0.181500 0.900200 -0.321400
C85 C 0.513900 0.668200 0.411300
C86 C 0.500400 0.669200 0.553700
C87 C 0.204900 0.608400 0.323100
C88 C 0.181500 0.599800 0.178600
C89 C 0.177400 0.544500 0.120800
C90 C 0.486100 0.331800 0.588700
C91 C 0.499600 0.330800 0.446300
C92 C 0.795100 0.391600 0.676900
C93 C 0.818500 0.400200 0.821400
C94 C 0.822600 0.455500 0.879200
C95 C 0.805500 0.505800 0.793800
C96 C 0.780400 0.499300 0.648600
C97 C 0.774000 0.442500 0.588400
C98 C 0.870100 0.363600 0.294100
C99 C 1.000800 0.356400 0.363500
C100 C 1.096200 0.314000 0.316000
C101 C 1.059300 0.279000 0.199100
C102 C 0.930000 0.284300 0.132400
C103 C 0.835900 0.326300 0.180800
C104 C 0.714700 0.513900 0.251400
C105 C 0.826100 0.553800 0.249400
C106 C 0.814900 0.607000 0.170600
C107 C 0.693800 0.620100 0.093000
C108 C 0.583400 0.582300 0.094300
C109 C 0.591800 0.529300 0.172800
C110 C 0.204900 0.891600 -0.176900
C111 C 0.500400 0.830800 0.053700
C112 C 0.513900 0.831800 -0.088700
C113 C 0.194500 0.494200 0.206200
C114 C 0.219600 0.500700 0.351400
C115 C 0.226000 0.557500 0.411600
C116 C 0.129900 0.636400 0.705900
C117 C -0.000800 0.643600 0.636500
C118 C 0.408200 0.470700 0.827200
C119 C 0.416600 0.417700 0.905700
C120 C 0.306200 0.379900 0.907000
C121 C 0.185100 0.393000 0.829400
C122 C 0.173900 0.446200 0.750600
C123 C 0.285300 0.486100 0.748600
C124 C 0.164100 0.673700 0.819200
C125 C 0.070000 0.715700 0.867600
C126 C -0.059300 0.721000 0.800900
C127 C -0.096200 0.686000 0.684000
C128 C 0.591800 -0.029300 0.672800
C129 C 0.583400 -0.082300 0.594300
C130 C 0.693800 -0.120100 0.593000
C131 C 0.814900 -0.107000 0.670600
C132 C 0.486100 0.168200 1.088700
C133 C 0.499600 0.169200 0.946300
C134 C 0.795100 0.108400 1.176900
C135 C 0.818500 0.099800 1.321400
C136 C 0.822600 0.044500 1.379200
C137 C 0.805500 -0.005800 1.293800
C138 C 0.780400 0.000700 1.148600
C139 C 0.774000 0.057500 1.088400
C140 C 0.870100 0.136400 0.794100
C141 C 1.000800 0.143600 0.863500
C142 C 1.096200 0.186000 0.816000
C143 C 1.059300 0.221000 0.699100
C144 C 0.930000 0.215700 0.632400
C145 C 0.835900 0.173700 0.680800
C146 C 0.714700 -0.013900 0.751400
C147 C 0.826100 -0.053800 0.749400
C148 C 0.408200 1.029300 0.327200
N149 N 0.523100 0.262670 1.023400
N150 N 0.521100 0.227830 0.909700
N151 N 0.478900 0.727830 0.590300
N152 N 0.476900 0.762670 0.476600
N153 N 0.498200 0.725300 0.369200
N154 N 0.521100 0.272170 0.409700
N155 N 0.478900 0.772170 0.090300
N156 N 0.476900 0.737330 -0.023400
N157 N 0.498200 0.774700 -0.130800
N158 N 0.501800 0.274700 0.630800
N159 N 0.523100 0.237330 0.523400
N160 N 0.501800 0.225300 1.130800
S161 S 0.491830 0.389910 0.321850
S162 S 0.508170 0.610090 0.678150
S163 S 0.491830 0.110090 0.821850
S164 S 0.508170 0.889910 0.178150
Sn165 Sn 0.728520 0.069755 0.867250
Sn166 Sn 0.271480 0.930245 0.132750
Sn167 Sn 0.728520 0.430245 0.367250
Sn168 Sn 0.271480 0.569755 0.632750

#END
