
#######################################################################
#
#                 Cambridge Crystallographic Data Centre
#                                CCDC 
#
#######################################################################
#
# If this CIF has been generated from an entry in the Cambridge 
# Structural Database, then it will include bibliographic, chemical, 
# crystal, experimental, refinement or atomic coordinate data resulting 
# from the CCDC's data processing and validation procedures.
#
#######################################################################

data_ACIGID
_symmetry_cell_setting           monoclinic
_symmetry_space_group_name_H-M   'P 21/c'
_symmetry_Int_Tables_number      14
_space_group_name_Hall           '-P 2ybc'
loop_
_symmetry_equiv_pos_site_id
_symmetry_equiv_pos_as_xyz
1 x,y,z
2 -x,1/2+y,1/2-z
3 -x,-y,-z
4 x,1/2-y,1/2+z
_cell_length_a                   9.934(3)
_cell_length_b                   13.082(9)
_cell_length_c                   12.666(9)
_cell_angle_alpha                90
_cell_angle_beta                 97.81(3)
_cell_angle_gamma                90
_cell_volume                     1630.76
loop_
_atom_site_label
_atom_site_type_symbol
_atom_site_fract_x
_atom_site_fract_y
_atom_site_fract_z
S1 S 0.71557(8) 0.52962(6) 0.07625(6)
C1 C 0.6291(3) 0.4274(2) 0.1221(2)
N1 N 0.5712(2) 0.44032(16) 0.20417(19)
N2 N 0.5879(2) 0.54308(16) 0.23951(19)
C2 C 0.7044(3) 0.5979(2) 0.2017(2)
C3 C 0.6871(3) 0.7145(2) 0.1785(3)
H1 H 0.6883 0.7289 0.1035
H2 H 0.6026 0.7397 0.1992
C4 C 0.8096(3) 0.7627(2) 0.2466(3)
H3 H 0.8320 0.8312 0.2230
C5 C 0.7839(4) 0.7588(3) 0.3604(4)
H4 H 0.6931 0.7825 0.3677
H5 H 0.8498 0.7995 0.4059
C6 C 0.8007(4) 0.6424(3) 0.3868(3)
H6 H 0.8726 0.6312 0.4456
H7 H 0.7168 0.6138 0.4052
C7 C 0.8374(3) 0.5944(2) 0.2831(3)
C8 C 0.9227(3) 0.6856(2) 0.2435(3)
N3 N 0.6254(2) 0.33242(17) 0.07478(19)
H8 H 0.593(3) 0.282(2) 0.110(3)
C9 C 0.6662(3) 0.3136(2) -0.0220(2)
O1 O 0.7043(3) 0.38250(19) -0.07485(18)
C10 C 0.6604(3) 0.2048(3) -0.0562(3)
H9 H 0.6274 0.1637 -0.0024
H10 H 0.7497 0.1822 -0.0663
H11 H 0.6003 0.1982 -0.1219
C11 C 0.4882(3) 0.5803(2) 0.2906(3)
O2 O 0.4897(2) 0.66845(17) 0.3242(2)
C12 C 0.3746(3) 0.5089(3) 0.3067(3)
H12 H 0.3896 0.4439 0.2751
H13 H 0.2899 0.5370 0.2737
H14 H 0.3716 0.5002 0.3816
C13 C 0.9057(3) 0.4919(3) 0.2982(3)
H15 H 0.9858 0.4977 0.3496
H16 H 0.9305 0.4688 0.2316
H17 H 0.8444 0.4436 0.3232
C14 C 1.0532(4) 0.7091(3) 0.3205(4)
H18 H 1.1195 0.6569 0.3142
H19 H 1.0324 0.7108 0.3923
H20 H 1.0887 0.7742 0.3028
C15 C 0.9674(4) 0.6738(3) 0.1326(3)
H21 H 0.8895 0.6592 0.0812
H22 H 1.0315 0.6187 0.1338
H23 H 1.0091 0.7361 0.1134
S1 S 0.28443(8) 0.02962(6) 0.42375(6)
C1 C 0.3709(3) -0.0726(2) 0.3779(2)
N1 N 0.4288(2) -0.05968(16) 0.29583(19)
N2 N 0.4121(2) 0.04308(16) 0.26049(19)
C2 C 0.2956(3) 0.0979(2) 0.2983(2)
C3 C 0.3129(3) 0.2145(2) 0.3215(3)
H1 H 0.3117 0.2289 0.3965
H2 H 0.3974 0.2397 0.3008
C4 C 0.1904(3) 0.2627(2) 0.2534(3)
H3 H 0.1680 0.3312 0.2770
C5 C 0.2161(4) 0.2588(3) 0.1396(4)
H4 H 0.3069 0.2825 0.1323
H5 H 0.1502 0.2995 0.0941
C6 C 0.1993(4) 0.1424(3) 0.1132(3)
H6 H 0.1274 0.1312 0.0544
H7 H 0.2832 0.1138 0.0948
C7 C 0.1626(3) 0.0944(2) 0.2169(3)
C8 C 0.0773(3) 0.1856(2) 0.2565(3)
N3 N 0.3746(2) -0.16758(17) 0.42522(19)
H8 H 0.407(3) -0.218(2) 0.390(3)
C9 C 0.3338(3) -0.1864(2) 0.5220(2)
O1 O 0.2957(3) -0.11750(19) 0.57485(18)
C10 C 0.3396(3) -0.2952(3) 0.5562(3)
H9 H 0.3726 -0.3363 0.5024
H10 H 0.2503 -0.3178 0.5663
H11 H 0.3997 -0.3018 0.6219
C11 C 0.5118(3) 0.0803(2) 0.2094(3)
O2 O 0.5103(2) 0.16845(17) 0.1758(2)
C12 C 0.6254(3) 0.0089(3) 0.1933(3)
H12 H 0.6104 -0.0561 0.2249
H13 H 0.7101 0.0370 0.2263
H14 H 0.6284 0.0002 0.1184
C13 C 0.0943(3) -0.0081(3) 0.2018(3)
H15 H 0.0142 -0.0023 0.1504
H16 H 0.0695 -0.0312 0.2684
H17 H 0.1556 -0.0564 0.1768
C14 C -0.0532(4) 0.2091(3) 0.1795(4)
H18 H -0.1195 0.1569 0.1858
H19 H -0.0324 0.2108 0.1077
H20 H -0.0887 0.2742 0.1972
C15 C 0.0326(4) 0.1738(3) 0.3674(3)
H21 H 0.1105 0.1592 0.4188
H22 H -0.0315 0.1187 0.3662
H23 H -0.0091 0.2361 0.3866
S1 S 0.28443(8) 0.47038(6) 0.92375(6)
C1 C 0.3709(3) 0.5726(2) 0.8779(2)
N1 N 0.4288(2) 0.55968(16) 0.79583(19)
N2 N 0.4121(2) 0.45692(16) 0.76049(19)
C2 C 0.2956(3) 0.4021(2) 0.7983(2)
C3 C 0.3129(3) 0.2855(2) 0.8215(3)
H1 H 0.3117 0.2711 0.8965
H2 H 0.3974 0.2603 0.8008
C4 C 0.1904(3) 0.2373(2) 0.7534(3)
H3 H 0.1680 0.1688 0.7770
C5 C 0.2161(4) 0.2412(3) 0.6396(4)
H4 H 0.3069 0.2175 0.6323
H5 H 0.1502 0.2005 0.5941
C6 C 0.1993(4) 0.3576(3) 0.6132(3)
H6 H 0.1274 0.3688 0.5544
H7 H 0.2832 0.3862 0.5948
C7 C 0.1626(3) 0.4056(2) 0.7169(3)
C8 C 0.0773(3) 0.3144(2) 0.7565(3)
N3 N 0.3746(2) 0.66758(17) 0.92522(19)
H8 H 0.407(3) 0.718(2) 0.890(3)
C9 C 0.3338(3) 0.6864(2) 1.0220(2)
O1 O 0.2957(3) 0.61750(19) 1.07485(18)
C10 C 0.3396(3) 0.7952(3) 1.0562(3)
H9 H 0.3726 0.8363 1.0024
H10 H 0.2503 0.8178 1.0663
H11 H 0.3997 0.8018 1.1219
C11 C 0.5118(3) 0.4197(2) 0.7094(3)
O2 O 0.5103(2) 0.33155(17) 0.6758(2)
C12 C 0.6254(3) 0.4911(3) 0.6933(3)
H12 H 0.6104 0.5561 0.7249
H13 H 0.7101 0.4630 0.7263
H14 H 0.6284 0.4998 0.6184
C13 C 0.0943(3) 0.5081(3) 0.7018(3)
H15 H 0.0142 0.5023 0.6504
H16 H 0.0695 0.5312 0.7684
H17 H 0.1556 0.5564 0.6768
C14 C -0.0532(4) 0.2909(3) 0.6795(4)
H18 H -0.1195 0.3431 0.6858
H19 H -0.0324 0.2892 0.6077
H20 H -0.0887 0.2258 0.6972
C15 C 0.0326(4) 0.3262(3) 0.8674(3)
H21 H 0.1105 0.3408 0.9188
H22 H -0.0315 0.3813 0.8662
H23 H -0.0091 0.2639 0.8866
S1 S 0.71557(8) 0.97038(6) 0.57625(6)
C1 C 0.6291(3) 1.0726(2) 0.6221(2)
N1 N 0.5712(2) 1.05968(16) 0.70417(19)
N2 N 0.5879(2) 0.95692(16) 0.73951(19)
C2 C 0.7044(3) 0.9021(2) 0.7017(2)
C3 C 0.6871(3) 0.7855(2) 0.6785(3)
H1 H 0.6883 0.7711 0.6035
H2 H 0.6026 0.7603 0.6992
C4 C 0.8096(3) 0.7373(2) 0.7466(3)
H3 H 0.8320 0.6688 0.7230
C5 C 0.7839(4) 0.7412(3) 0.8604(4)
H4 H 0.6931 0.7175 0.8677
H5 H 0.8498 0.7005 0.9059
C6 C 0.8007(4) 0.8576(3) 0.8868(3)
H6 H 0.8726 0.8688 0.9456
H7 H 0.7168 0.8862 0.9052
C7 C 0.8374(3) 0.9056(2) 0.7831(3)
C8 C 0.9227(3) 0.8144(2) 0.7435(3)
N3 N 0.6254(2) 1.16758(17) 0.57478(19)
H8 H 0.593(3) 1.218(2) 0.610(3)
C9 C 0.6662(3) 1.1864(2) 0.4780(2)
O1 O 0.7043(3) 1.11750(19) 0.42515(18)
C10 C 0.6604(3) 1.2952(3) 0.4438(3)
H9 H 0.6274 1.3363 0.4976
H10 H 0.7497 1.3178 0.4337
H11 H 0.6003 1.3018 0.3781
C11 C 0.4882(3) 0.9197(2) 0.7906(3)
O2 O 0.4897(2) 0.83155(17) 0.8242(2)
C12 C 0.3746(3) 0.9911(3) 0.8067(3)
H12 H 0.3896 1.0561 0.7751
H13 H 0.2899 0.9630 0.7737
H14 H 0.3716 0.9998 0.8816
C13 C 0.9057(3) 1.0081(3) 0.7982(3)
H15 H 0.9858 1.0023 0.8496
H16 H 0.9305 1.0312 0.7316
H17 H 0.8444 1.0564 0.8232
C14 C 1.0532(4) 0.7909(3) 0.8205(4)
H18 H 1.1195 0.8431 0.8142
H19 H 1.0324 0.7892 0.8923
H20 H 1.0887 0.7258 0.8028
C15 C 0.9674(4) 0.8262(3) 0.6326(3)
H21 H 0.8895 0.8408 0.5812
H22 H 1.0315 0.8813 0.6338
H23 H 1.0091 0.7639 0.6134

#END
