
#######################################################################
#
#                 Cambridge Crystallographic Data Centre
#                                CCDC 
#
#######################################################################
#
# If this CIF has been generated from an entry in the Cambridge 
# Structural Database, then it will include bibliographic, chemical, 
# crystal, experimental, refinement or atomic coordinate data resulting 
# from the CCDC's data processing and validation procedures.
#
#######################################################################

data_ACIHIF
_symmetry_cell_setting           orthorhombic
_symmetry_space_group_name_H-M   'P 21 21 21'
_symmetry_Int_Tables_number      19
_space_group_name_Hall           'P 2ac 2ab'
loop_
_symmetry_equiv_pos_site_id
_symmetry_equiv_pos_as_xyz
1 x,y,z
2 1/2+x,1/2-y,-z
3 -x,1/2+y,1/2-z
4 1/2-x,-y,1/2+z
_cell_length_a                   9.7971(8)
_cell_length_b                   20.4870(18)
_cell_length_c                   25.634(2)
_cell_angle_alpha                90
_cell_angle_beta                 90
_cell_angle_gamma                90
_cell_volume                     5145.08
loop_
_atom_site_label
_atom_site_type_symbol
_atom_site_fract_x
_atom_site_fract_y
_atom_site_fract_z
Sm1 Sm 0.30771(3) 0.486394(13) 0.882064(11)
O1 O 0.1862(5) 0.56625(17) 0.83851(16)
O2 O 0.0801(4) 0.45195(17) 0.87272(16)
O3 O 0.4690(4) 0.53530(19) 0.82678(16)
O4 O 0.3075(5) 0.42660(17) 0.80140(14)
O5 O 0.3578(4) 0.58018(18) 0.93246(17)
O6 O 0.2279(4) 0.47215(17) 0.96968(15)
N1 N 0.3349(5) 0.3640(2) 0.91079(18)
N2 N 0.6213(5) 0.3880(2) 0.9978(2)
N3 N 0.9187(5) 0.4888(3) 0.9913(2)
H2 H 1.0058 0.4783 0.9920
N4 N 0.7012(5) 0.4407(2) 0.99198(18)
N5 N 0.5417(5) 0.4538(2) 0.93346(18)
C1 C 0.2377(6) 0.3203(3) 0.8981(2)
H3 H 0.1782 0.3301 0.8699
C2 C 0.2206(7) 0.2619(3) 0.9243(3)
H4 H 0.1508 0.2322 0.9143
C3 C 0.3073(8) 0.2477(3) 0.9652(2)
H5 H 0.2970 0.2080 0.9840
C4 C 0.4086(7) 0.2912(3) 0.9788(3)
H6 H 0.4690 0.2821 1.0068
C5 C 0.4202(6) 0.3494(2) 0.9500(2)
C6 C 0.5264(6) 0.3975(2) 0.9612(2)
C7 C 0.6562(5) 0.4804(3) 0.9539(2)
C8 C 0.8239(6) 0.4553(3) 1.0240(2)
H7 H 0.8657 0.4132 1.0355
C9 C 0.8726(6) 0.5380(3) 0.9584(2)
C10 C 0.9599(6) 0.5881(3) 0.9432(3)
H8 H 1.0518 0.5888 0.9550
C11 C 0.9126(7) 0.6361(3) 0.9111(3)
H9 H 0.9725 0.6704 0.9011
C12 C 0.7796(6) 0.6363(3) 0.8928(2)
H10 H 0.7484 0.6705 0.8708
C13 C 0.6930(7) 0.5862(2) 0.9067(2)
H11 H 0.6024 0.5852 0.8935
C14 C 0.7371(6) 0.5374(3) 0.9397(2)
C15 C 0.7792(6) 0.4941(3) 1.0729(2)
C16 C 0.8445(8) 0.5512(4) 1.0867(3)
H12 H 0.9174 0.5668 1.0657
C17 C 0.8063(10) 0.5859(4) 1.1301(3)
H13 H 0.8519 0.6255 1.1386
C18 C 0.7016(10) 0.5635(4) 1.1613(3)
H14 H 0.6745 0.5875 1.1913
C19 C 0.6375(8) 0.5067(5) 1.1486(3)
H15 H 0.5668 0.4906 1.1705
C20 C 0.6741(8) 0.4721(4) 1.1044(3)
H16 H 0.6269 0.4331 1.0956
C21 C 0.1698(7) 0.6781(3) 0.7854(3)
H17 H 0.2405 0.6707 0.8100
C22 C 0.1727(9) 0.7340(4) 0.7553(3)
H18 H 0.2446 0.7646 0.7595
C23 C 0.0720(9) 0.7451(4) 0.7196(3)
H19 H 0.0749 0.7829 0.6982
C24 C -0.0334(9) 0.7016(4) 0.7148(3)
H20 H -0.1044 0.7097 0.6905
C25 C -0.0370(7) 0.6455(4) 0.7455(3)
H21 H -0.1115 0.6161 0.7422
C26 C 0.0657(7) 0.6321(3) 0.7804(3)
C27 C 0.0768(6) 0.5709(3) 0.8124(2)
C28 C -0.0255(6) 0.5239(3) 0.8129(2)
H22 H -0.1027 0.5302 0.7911
C29 C -0.0206(6) 0.4678(2) 0.8440(2)
C30 C -0.1391(6) 0.4214(3) 0.8453(2)
C31 C -0.1400(6) 0.3726(3) 0.8831(3)
H23 H -0.0683 0.3706 0.9080
C32 C -0.2443(6) 0.3268(3) 0.8849(3)
H24 H -0.2434 0.2939 0.9110
C33 C -0.3488(6) 0.3287(3) 0.8493(3)
H25 H -0.4189 0.2967 0.8503
C34 C -0.3518(6) 0.3773(3) 0.8120(3)
H26 H -0.4244 0.3794 0.7875
C35 C -0.2482(6) 0.4229(3) 0.8107(3)
H27 H -0.2516 0.4566 0.7853
C36 C 0.5288(7) 0.6604(3) 0.7918(3)
H28 H 0.4984 0.6555 0.8267
C37 C 0.5732(7) 0.7208(3) 0.7744(3)
H29 H 0.5737 0.7569 0.7976
C38 C 0.6158(9) 0.7287(5) 0.7247(4)
H30 H 0.6423 0.7705 0.7124
C39 C 0.6202(8) 0.6749(5) 0.6920(4)
H31 H 0.6537 0.6801 0.6575
C40 C 0.5769(8) 0.6135(4) 0.7082(3)
H32 H 0.5808 0.5770 0.6853
C41 C 0.5284(6) 0.6070(3) 0.7583(3)
C42 C 0.4669(6) 0.5432(3) 0.7779(2)
C43 C 0.4069(6) 0.5015(3) 0.7423(2)
H33 H 0.4157 0.5122 0.7064
C44 C 0.3339(6) 0.4444(3) 0.7547(2)
C45 C 0.2797(7) 0.4018(3) 0.7119(2)
C46 C 0.3351(8) 0.4033(3) 0.6616(3)
H34 H 0.4095 0.4314 0.6539
C47 C 0.2814(10) 0.3638(3) 0.6230(3)
H35 H 0.3178 0.3667 0.5888
C48 C 0.1810(10) 0.3220(4) 0.6321(3)
H36 H 0.1485 0.2941 0.6052
C49 C 0.1254(9) 0.3198(4) 0.6806(4)
H37 H 0.0517 0.2909 0.6872
C50 C 0.1743(9) 0.3594(3) 0.7208(3)
H38 H 0.1343 0.3568 0.7545
C51 C 0.4571(7) 0.7017(3) 0.9576(3)
H39 H 0.3977 0.6986 0.9284
C52 C 0.5287(9) 0.7584(3) 0.9667(4)
H40 H 0.5142 0.7951 0.9448
C53 C 0.6197(9) 0.7625(4) 1.0066(4)
H41 H 0.6709 0.8014 1.0116
C54 C 0.6376(8) 0.7108(4) 1.0394(4)
H42 H 0.7016 0.7136 1.0672
C55 C 0.5623(7) 0.6540(3) 1.0323(3)
H43 H 0.5727 0.6184 1.0557
C56 C 0.4720(6) 0.6494(3) 0.9908(3)
C57 C 0.3938(6) 0.5879(3) 0.9797(3)
C58 C 0.3629(6) 0.5444(3) 1.0199(2)
H44 H 0.3993 0.5529 1.0535
C59 C 0.2811(5) 0.4888(3) 1.0134(2)
C60 C 0.2512(6) 0.4440(3) 1.0580(2)
C61 C 0.1745(7) 0.3884(3) 1.0485(2)
H45 H 0.1401 0.3804 1.0145
C62 C 0.1478(7) 0.3446(3) 1.0882(3)
H46 H 0.0925 0.3075 1.0811
C63 C 0.1990(9) 0.3532(3) 1.1374(3)
H47 H 0.1826 0.3218 1.1640
C64 C 0.2751(8) 0.4086(3) 1.1475(3)
H48 H 0.3104 0.4159 1.1815
C65 C 0.3004(7) 0.4542(3) 1.1079(2)
H49 H 0.3517 0.4924 1.1154
Sm1 Sm 0.80771(3) 1.013606(13) 0.117936(11)
O1 O 0.6862(5) 0.93375(17) 0.16149(16)
O2 O 0.5801(4) 1.04805(17) 0.12728(16)
O3 O 0.9690(4) 0.96470(19) 0.17322(16)
O4 O 0.8075(5) 1.07340(17) 0.19860(14)
O5 O 0.8578(4) 0.91982(18) 0.06754(17)
O6 O 0.7279(4) 1.02785(17) 0.03032(15)
N1 N 0.8349(5) 1.1360(2) 0.08921(18)
N2 N 1.1213(5) 1.1120(2) 0.0022(2)
N3 N 1.4187(5) 1.0112(3) 0.0087(2)
H2 H 1.5058 1.0217 0.0080
N4 N 1.2012(5) 1.0593(2) 0.00802(18)
N5 N 1.0417(5) 1.0462(2) 0.06654(18)
C1 C 0.7377(6) 1.1797(3) 0.1019(2)
H3 H 0.6782 1.1699 0.1301
C2 C 0.7206(7) 1.2381(3) 0.0757(3)
H4 H 0.6508 1.2678 0.0857
C3 C 0.8073(8) 1.2523(3) 0.0348(2)
H5 H 0.7970 1.2920 0.0160
C4 C 0.9086(7) 1.2088(3) 0.0212(3)
H6 H 0.9690 1.2179 -0.0068
C5 C 0.9202(6) 1.1506(2) 0.0500(2)
C6 C 1.0264(6) 1.1025(2) 0.0388(2)
C7 C 1.1562(5) 1.0196(3) 0.0461(2)
C8 C 1.3239(6) 1.0447(3) -0.0240(2)
H7 H 1.3657 1.0868 -0.0355
C9 C 1.3726(6) 0.9620(3) 0.0416(2)
C10 C 1.4599(6) 0.9119(3) 0.0568(3)
H8 H 1.5518 0.9112 0.0450
C11 C 1.4126(7) 0.8639(3) 0.0889(3)
H9 H 1.4725 0.8296 0.0989
C12 C 1.2796(6) 0.8637(3) 0.1072(2)
H10 H 1.2484 0.8295 0.1292
C13 C 1.1930(7) 0.9138(2) 0.0933(2)
H11 H 1.1024 0.9148 0.1065
C14 C 1.2371(6) 0.9626(3) 0.0603(2)
C15 C 1.2792(6) 1.0059(3) -0.0729(2)
C16 C 1.3445(8) 0.9488(4) -0.0867(3)
H12 H 1.4174 0.9332 -0.0657
C17 C 1.3063(10) 0.9141(4) -0.1301(3)
H13 H 1.3519 0.8745 -0.1386
C18 C 1.2016(10) 0.9365(4) -0.1613(3)
H14 H 1.1745 0.9125 -0.1913
C19 C 1.1375(8) 0.9933(5) -0.1486(3)
H15 H 1.0668 1.0094 -0.1705
C20 C 1.1741(8) 1.0279(4) -0.1044(3)
H16 H 1.1269 1.0669 -0.0956
C21 C 0.6698(7) 0.8219(3) 0.2146(3)
H17 H 0.7405 0.8293 0.1900
C22 C 0.6727(9) 0.7660(4) 0.2447(3)
H18 H 0.7446 0.7354 0.2405
C23 C 0.5720(9) 0.7549(4) 0.2804(3)
H19 H 0.5749 0.7171 0.3018
C24 C 0.4666(9) 0.7984(4) 0.2852(3)
H20 H 0.3956 0.7903 0.3095
C25 C 0.4630(7) 0.8545(4) 0.2545(3)
H21 H 0.3885 0.8839 0.2578
C26 C 0.5657(7) 0.8679(3) 0.2196(3)
C27 C 0.5768(6) 0.9291(3) 0.1876(2)
C28 C 0.4745(6) 0.9761(3) 0.1871(2)
H22 H 0.3973 0.9698 0.2089
C29 C 0.4794(6) 1.0322(2) 0.1560(2)
C30 C 0.3609(6) 1.0786(3) 0.1547(2)
C31 C 0.3600(6) 1.1274(3) 0.1169(3)
H23 H 0.4317 1.1294 0.0920
C32 C 0.2557(6) 1.1732(3) 0.1151(3)
H24 H 0.2566 1.2061 0.0890
C33 C 0.1512(6) 1.1713(3) 0.1507(3)
H25 H 0.0811 1.2033 0.1497
C34 C 0.1482(6) 1.1227(3) 0.1880(3)
H26 H 0.0756 1.1206 0.2125
C35 C 0.2518(6) 1.0771(3) 0.1893(3)
H27 H 0.2484 1.0434 0.2147
C36 C 1.0288(7) 0.8396(3) 0.2082(3)
H28 H 0.9984 0.8445 0.1733
C37 C 1.0732(7) 0.7792(3) 0.2256(3)
H29 H 1.0737 0.7431 0.2024
C38 C 1.1158(9) 0.7713(5) 0.2753(4)
H30 H 1.1423 0.7295 0.2876
C39 C 1.1202(8) 0.8251(5) 0.3080(4)
H31 H 1.1537 0.8199 0.3425
C40 C 1.0769(8) 0.8865(4) 0.2918(3)
H32 H 1.0808 0.9230 0.3147
C41 C 1.0284(6) 0.8930(3) 0.2417(3)
C42 C 0.9669(6) 0.9568(3) 0.2221(2)
C43 C 0.9069(6) 0.9985(3) 0.2577(2)
H33 H 0.9157 0.9878 0.2936
C44 C 0.8339(6) 1.0556(3) 0.2453(2)
C45 C 0.7797(7) 1.0982(3) 0.2881(2)
C46 C 0.8351(8) 1.0967(3) 0.3384(3)
H34 H 0.9095 1.0686 0.3461
C47 C 0.7814(10) 1.1362(3) 0.3770(3)
H35 H 0.8178 1.1333 0.4112
C48 C 0.6810(10) 1.1780(4) 0.3679(3)
H36 H 0.6485 1.2059 0.3948
C49 C 0.6254(9) 1.1802(4) 0.3194(4)
H37 H 0.5517 1.2091 0.3128
C50 C 0.6743(9) 1.1406(3) 0.2792(3)
H38 H 0.6343 1.1432 0.2455
C51 C 0.9571(7) 0.7983(3) 0.0424(3)
H39 H 0.8977 0.8014 0.0716
C52 C 1.0287(9) 0.7416(3) 0.0333(4)
H40 H 1.0142 0.7049 0.0552
C53 C 1.1197(9) 0.7375(4) -0.0066(4)
H41 H 1.1709 0.6986 -0.0116
C54 C 1.1376(8) 0.7892(4) -0.0394(4)
H42 H 1.2016 0.7864 -0.0672
C55 C 1.0623(7) 0.8460(3) -0.0323(3)
H43 H 1.0727 0.8816 -0.0557
C56 C 0.9720(6) 0.8506(3) 0.0092(3)
C57 C 0.8938(6) 0.9121(3) 0.0203(3)
C58 C 0.8629(6) 0.9556(3) -0.0199(2)
H44 H 0.8993 0.9471 -0.0535
C59 C 0.7811(5) 1.0112(3) -0.0134(2)
C60 C 0.7512(6) 1.0560(3) -0.0580(2)
C61 C 0.6745(7) 1.1116(3) -0.0485(2)
H45 H 0.6401 1.1196 -0.0145
C62 C 0.6478(7) 1.1554(3) -0.0882(3)
H46 H 0.5925 1.1925 -0.0811
C63 C 0.6990(9) 1.1468(3) -0.1374(3)
H47 H 0.6826 1.1782 -0.1640
C64 C 0.7751(8) 1.0914(3) -0.1475(3)
H48 H 0.8104 1.0841 -0.1815
C65 C 0.8004(7) 1.0458(3) -0.1079(2)
H49 H 0.8517 1.0076 -0.1154
Sm1 Sm 0.69229(3) -0.013606(13) 0.617936(11)
O1 O 0.8138(5) 0.06625(17) 0.66149(16)
O2 O 0.9199(4) -0.04805(17) 0.62728(16)
O3 O 0.5310(4) 0.03530(19) 0.67322(16)
O4 O 0.6925(5) -0.07340(17) 0.69860(14)
O5 O 0.6422(4) 0.08018(18) 0.56754(17)
O6 O 0.7721(4) -0.02785(17) 0.53032(15)
N1 N 0.6651(5) -0.1360(2) 0.58921(18)
N2 N 0.3787(5) -0.1120(2) 0.5022(2)
N3 N 0.0813(5) -0.0112(3) 0.5087(2)
H2 H -0.0058 -0.0217 0.5080
N4 N 0.2988(5) -0.0593(2) 0.50802(18)
N5 N 0.4583(5) -0.0462(2) 0.56654(18)
C1 C 0.7623(6) -0.1797(3) 0.6019(2)
H3 H 0.8218 -0.1699 0.6301
C2 C 0.7794(7) -0.2381(3) 0.5757(3)
H4 H 0.8492 -0.2678 0.5857
C3 C 0.6927(8) -0.2523(3) 0.5348(2)
H5 H 0.7030 -0.2920 0.5160
C4 C 0.5914(7) -0.2088(3) 0.5212(3)
H6 H 0.5310 -0.2179 0.4932
C5 C 0.5798(6) -0.1506(2) 0.5500(2)
C6 C 0.4736(6) -0.1025(2) 0.5388(2)
C7 C 0.3438(5) -0.0196(3) 0.5461(2)
C8 C 0.1761(6) -0.0447(3) 0.4760(2)
H7 H 0.1343 -0.0868 0.4645
C9 C 0.1274(6) 0.0380(3) 0.5416(2)
C10 C 0.0401(6) 0.0881(3) 0.5568(3)
H8 H -0.0518 0.0888 0.5450
C11 C 0.0874(7) 0.1361(3) 0.5889(3)
H9 H 0.0275 0.1704 0.5989
C12 C 0.2204(6) 0.1363(3) 0.6072(2)
H10 H 0.2516 0.1705 0.6292
C13 C 0.3070(7) 0.0862(2) 0.5933(2)
H11 H 0.3976 0.0852 0.6065
C14 C 0.2629(6) 0.0374(3) 0.5603(2)
C15 C 0.2208(6) -0.0059(3) 0.4271(2)
C16 C 0.1555(8) 0.0512(4) 0.4133(3)
H12 H 0.0826 0.0668 0.4343
C17 C 0.1937(10) 0.0859(4) 0.3699(3)
H13 H 0.1481 0.1255 0.3614
C18 C 0.2984(10) 0.0635(4) 0.3387(3)
H14 H 0.3255 0.0875 0.3087
C19 C 0.3625(8) 0.0067(5) 0.3514(3)
H15 H 0.4332 -0.0094 0.3295
C20 C 0.3259(8) -0.0279(4) 0.3956(3)
H16 H 0.3731 -0.0669 0.4044
C21 C 0.8302(7) 0.1781(3) 0.7146(3)
H17 H 0.7595 0.1707 0.6900
C22 C 0.8273(9) 0.2340(4) 0.7447(3)
H18 H 0.7554 0.2646 0.7405
C23 C 0.9280(9) 0.2451(4) 0.7804(3)
H19 H 0.9251 0.2829 0.8018
C24 C 1.0334(9) 0.2016(4) 0.7852(3)
H20 H 1.1044 0.2097 0.8095
C25 C 1.0370(7) 0.1455(4) 0.7545(3)
H21 H 1.1115 0.1161 0.7578
C26 C 0.9343(7) 0.1321(3) 0.7196(3)
C27 C 0.9232(6) 0.0709(3) 0.6876(2)
C28 C 1.0255(6) 0.0239(3) 0.6871(2)
H22 H 1.1027 0.0302 0.7089
C29 C 1.0206(6) -0.0322(2) 0.6560(2)
C30 C 1.1391(6) -0.0786(3) 0.6547(2)
C31 C 1.1400(6) -0.1274(3) 0.6169(3)
H23 H 1.0683 -0.1294 0.5920
C32 C 1.2443(6) -0.1732(3) 0.6151(3)
H24 H 1.2434 -0.2061 0.5890
C33 C 1.3488(6) -0.1713(3) 0.6507(3)
H25 H 1.4189 -0.2033 0.6497
C34 C 1.3518(6) -0.1227(3) 0.6880(3)
H26 H 1.4244 -0.1206 0.7125
C35 C 1.2482(6) -0.0771(3) 0.6893(3)
H27 H 1.2516 -0.0434 0.7147
C36 C 0.4712(7) 0.1604(3) 0.7082(3)
H28 H 0.5016 0.1555 0.6733
C37 C 0.4268(7) 0.2208(3) 0.7256(3)
H29 H 0.4263 0.2569 0.7024
C38 C 0.3842(9) 0.2287(5) 0.7753(4)
H30 H 0.3577 0.2705 0.7876
C39 C 0.3798(8) 0.1749(5) 0.8080(4)
H31 H 0.3463 0.1801 0.8425
C40 C 0.4231(8) 0.1135(4) 0.7918(3)
H32 H 0.4192 0.0770 0.8147
C41 C 0.4716(6) 0.1070(3) 0.7417(3)
C42 C 0.5331(6) 0.0432(3) 0.7221(2)
C43 C 0.5931(6) 0.0015(3) 0.7577(2)
H33 H 0.5843 0.0122 0.7936
C44 C 0.6661(6) -0.0556(3) 0.7453(2)
C45 C 0.7203(7) -0.0982(3) 0.7881(2)
C46 C 0.6649(8) -0.0967(3) 0.8384(3)
H34 H 0.5905 -0.0686 0.8461
C47 C 0.7186(10) -0.1362(3) 0.8770(3)
H35 H 0.6822 -0.1333 0.9112
C48 C 0.8190(10) -0.1780(4) 0.8679(3)
H36 H 0.8515 -0.2059 0.8948
C49 C 0.8746(9) -0.1802(4) 0.8194(4)
H37 H 0.9483 -0.2091 0.8128
C50 C 0.8257(9) -0.1406(3) 0.7792(3)
H38 H 0.8657 -0.1432 0.7455
C51 C 0.5429(7) 0.2017(3) 0.5424(3)
H39 H 0.6023 0.1986 0.5716
C52 C 0.4713(9) 0.2584(3) 0.5333(4)
H40 H 0.4858 0.2951 0.5552
C53 C 0.3803(9) 0.2625(4) 0.4934(4)
H41 H 0.3291 0.3014 0.4884
C54 C 0.3624(8) 0.2108(4) 0.4606(4)
H42 H 0.2984 0.2136 0.4328
C55 C 0.4377(7) 0.1540(3) 0.4677(3)
H43 H 0.4273 0.1184 0.4443
C56 C 0.5280(6) 0.1494(3) 0.5092(3)
C57 C 0.6062(6) 0.0879(3) 0.5203(3)
C58 C 0.6371(6) 0.0444(3) 0.4801(2)
H44 H 0.6007 0.0529 0.4465
C59 C 0.7189(5) -0.0112(3) 0.4866(2)
C60 C 0.7488(6) -0.0560(3) 0.4420(2)
C61 C 0.8255(7) -0.1116(3) 0.4515(2)
H45 H 0.8599 -0.1196 0.4855
C62 C 0.8522(7) -0.1554(3) 0.4118(3)
H46 H 0.9075 -0.1925 0.4189
C63 C 0.8010(9) -0.1468(3) 0.3626(3)
H47 H 0.8174 -0.1782 0.3360
C64 C 0.7249(8) -0.0914(3) 0.3525(3)
H48 H 0.6896 -0.0841 0.3185
C65 C 0.6996(7) -0.0458(3) 0.3921(2)
H49 H 0.6483 -0.0076 0.3846
Sm1 Sm 0.19229(3) 0.513606(13) 0.382064(11)
O1 O 0.3138(5) 0.43375(17) 0.33851(16)
O2 O 0.4199(4) 0.54805(17) 0.37272(16)
O3 O 0.0310(4) 0.46470(19) 0.32678(16)
O4 O 0.1925(5) 0.57340(17) 0.30140(14)
O5 O 0.1422(4) 0.41982(18) 0.43246(17)
O6 O 0.2721(4) 0.52785(17) 0.46968(15)
N1 N 0.1651(5) 0.6360(2) 0.41079(18)
N2 N -0.1213(5) 0.6120(2) 0.4978(2)
N3 N -0.4187(5) 0.5112(3) 0.4913(2)
H2 H -0.5058 0.5217 0.4920
N4 N -0.2012(5) 0.5593(2) 0.49198(18)
N5 N -0.0417(5) 0.5462(2) 0.43346(18)
C1 C 0.2623(6) 0.6797(3) 0.3981(2)
H3 H 0.3218 0.6699 0.3699
C2 C 0.2794(7) 0.7381(3) 0.4243(3)
H4 H 0.3492 0.7678 0.4143
C3 C 0.1927(8) 0.7523(3) 0.4652(2)
H5 H 0.2030 0.7920 0.4840
C4 C 0.0914(7) 0.7088(3) 0.4788(3)
H6 H 0.0310 0.7179 0.5068
C5 C 0.0798(6) 0.6506(2) 0.4500(2)
C6 C -0.0264(6) 0.6025(2) 0.4612(2)
C7 C -0.1562(5) 0.5196(3) 0.4539(2)
C8 C -0.3239(6) 0.5447(3) 0.5240(2)
H7 H -0.3657 0.5868 0.5355
C9 C -0.3726(6) 0.4620(3) 0.4584(2)
C10 C -0.4599(6) 0.4119(3) 0.4432(3)
H8 H -0.5518 0.4112 0.4550
C11 C -0.4126(7) 0.3639(3) 0.4111(3)
H9 H -0.4725 0.3296 0.4011
C12 C -0.2796(6) 0.3637(3) 0.3928(2)
H10 H -0.2484 0.3295 0.3708
C13 C -0.1930(7) 0.4138(2) 0.4067(2)
H11 H -0.1024 0.4148 0.3935
C14 C -0.2371(6) 0.4626(3) 0.4397(2)
C15 C -0.2792(6) 0.5059(3) 0.5729(2)
C16 C -0.3445(8) 0.4488(4) 0.5867(3)
H12 H -0.4174 0.4332 0.5657
C17 C -0.3063(10) 0.4141(4) 0.6301(3)
H13 H -0.3519 0.3745 0.6386
C18 C -0.2016(10) 0.4365(4) 0.6613(3)
H14 H -0.1745 0.4125 0.6913
C19 C -0.1375(8) 0.4933(5) 0.6486(3)
H15 H -0.0668 0.5094 0.6705
C20 C -0.1741(8) 0.5279(4) 0.6044(3)
H16 H -0.1269 0.5669 0.5956
C21 C 0.3302(7) 0.3219(3) 0.2854(3)
H17 H 0.2595 0.3293 0.3100
C22 C 0.3273(9) 0.2660(4) 0.2553(3)
H18 H 0.2554 0.2354 0.2595
C23 C 0.4280(9) 0.2549(4) 0.2196(3)
H19 H 0.4251 0.2171 0.1982
C24 C 0.5334(9) 0.2984(4) 0.2148(3)
H20 H 0.6044 0.2903 0.1905
C25 C 0.5370(7) 0.3545(4) 0.2455(3)
H21 H 0.6115 0.3839 0.2422
C26 C 0.4343(7) 0.3679(3) 0.2804(3)
C27 C 0.4232(6) 0.4291(3) 0.3124(2)
C28 C 0.5255(6) 0.4761(3) 0.3129(2)
H22 H 0.6027 0.4698 0.2911
C29 C 0.5206(6) 0.5322(2) 0.3440(2)
C30 C 0.6391(6) 0.5786(3) 0.3453(2)
C31 C 0.6400(6) 0.6274(3) 0.3831(3)
H23 H 0.5683 0.6294 0.4080
C32 C 0.7443(6) 0.6732(3) 0.3849(3)
H24 H 0.7434 0.7061 0.4110
C33 C 0.8488(6) 0.6713(3) 0.3493(3)
H25 H 0.9189 0.7033 0.3503
C34 C 0.8518(6) 0.6227(3) 0.3120(3)
H26 H 0.9244 0.6206 0.2875
C35 C 0.7482(6) 0.5771(3) 0.3107(3)
H27 H 0.7516 0.5434 0.2853
C36 C -0.0288(7) 0.3396(3) 0.2918(3)
H28 H 0.0016 0.3445 0.3267
C37 C -0.0732(7) 0.2792(3) 0.2744(3)
H29 H -0.0737 0.2431 0.2976
C38 C -0.1158(9) 0.2713(5) 0.2247(4)
H30 H -0.1423 0.2295 0.2124
C39 C -0.1202(8) 0.3251(5) 0.1920(4)
H31 H -0.1537 0.3199 0.1575
C40 C -0.0769(8) 0.3865(4) 0.2082(3)
H32 H -0.0808 0.4230 0.1853
C41 C -0.0284(6) 0.3930(3) 0.2583(3)
C42 C 0.0331(6) 0.4568(3) 0.2779(2)
C43 C 0.0931(6) 0.4985(3) 0.2423(2)
H33 H 0.0843 0.4878 0.2064
C44 C 0.1661(6) 0.5556(3) 0.2547(2)
C45 C 0.2203(7) 0.5982(3) 0.2119(2)
C46 C 0.1649(8) 0.5967(3) 0.1616(3)
H34 H 0.0905 0.5686 0.1539
C47 C 0.2186(10) 0.6362(3) 0.1230(3)
H35 H 0.1822 0.6333 0.0888
C48 C 0.3190(10) 0.6780(4) 0.1321(3)
H36 H 0.3515 0.7059 0.1052
C49 C 0.3746(9) 0.6802(4) 0.1806(4)
H37 H 0.4483 0.7091 0.1872
C50 C 0.3257(9) 0.6406(3) 0.2208(3)
H38 H 0.3657 0.6432 0.2545
C51 C 0.0429(7) 0.2983(3) 0.4576(3)
H39 H 0.1023 0.3014 0.4284
C52 C -0.0287(9) 0.2416(3) 0.4667(4)
H40 H -0.0142 0.2049 0.4448
C53 C -0.1197(9) 0.2375(4) 0.5066(4)
H41 H -0.1709 0.1986 0.5116
C54 C -0.1376(8) 0.2892(4) 0.5394(4)
H42 H -0.2016 0.2864 0.5672
C55 C -0.0623(7) 0.3460(3) 0.5323(3)
H43 H -0.0727 0.3816 0.5557
C56 C 0.0280(6) 0.3506(3) 0.4908(3)
C57 C 0.1062(6) 0.4121(3) 0.4797(3)
C58 C 0.1371(6) 0.4556(3) 0.5199(2)
H44 H 0.1007 0.4471 0.5535
C59 C 0.2189(5) 0.5112(3) 0.5134(2)
C60 C 0.2488(6) 0.5560(3) 0.5580(2)
C61 C 0.3255(7) 0.6116(3) 0.5485(2)
H45 H 0.3599 0.6196 0.5145
C62 C 0.3522(7) 0.6554(3) 0.5882(3)
H46 H 0.4075 0.6925 0.5811
C63 C 0.3010(9) 0.6468(3) 0.6374(3)
H47 H 0.3174 0.6782 0.6640
C64 C 0.2249(8) 0.5914(3) 0.6475(3)
H48 H 0.1896 0.5841 0.6815
C65 C 0.1996(7) 0.5458(3) 0.6079(2)
H49 H 0.1483 0.5076 0.6154
H1? H 0.6293 0.3555 0.0201
H1? H 0.1293 0.1445 0.9799
H1? H 0.3707 0.8555 0.4799
H1? H 0.8707 0.6445 0.5201

#END
