./ACIWUE_from_POSCAR.cif_generated_by_CrystalShift
_symmetry_cell_setting triclinic
_symmetry_space_group_name_H-M 'P 1'
loop_
_symmetry_equiv_pos_site_id
_symmetry_equiv_pos_as_xyz
1 x,y,z
_cell_length_a 26.105600
_cell_length_b 8.504700
_cell_length_c 19.141200
_cell_angle_alpha 90.000000
_cell_angle_beta 131.457000
_cell_angle_gamma 90.000000
_cell_volume 3184.975720
loop_
_atom_site_label
_atom_site_type_symbol
_atom_site_fract_x
_atom_site_fract_y
_atom_site_fract_z
H1 H 0.406900 0.531900 0.405500
H2 H 0.352900 0.528800 0.249200
H3 H 0.268200 0.707700 0.148600
H4 H 0.236300 0.889200 0.201300
H5 H 0.286000 0.090000 0.992000
H6 H 0.289400 0.894300 0.357800
H7 H 0.504700 0.777600 0.705500
H8 H 0.006300 -0.025000 0.896900
H9 H 0.618100 0.837800 0.798900
H10 H -0.001900 -0.280100 0.850100
H11 H 0.664800 0.886000 0.734500
H12 H 0.085800 -0.388400 0.864900
H13 H 0.599300 0.858800 0.576500
H14 H 0.180700 -0.240100 0.923700
H15 H 0.484700 0.795900 0.482000
H16 H 0.319300 0.259900 0.576300
H17 H 0.414200 0.111600 0.635100
H18 H 0.501900 0.219900 0.649900
H19 H 0.015300 0.295900 1.018000
H20 H 0.493700 0.475000 0.603100
H21 H -0.099300 0.358800 0.923500
H22 H 0.214000 0.590000 0.508000
H23 H -0.164800 0.386000 0.765500
H24 H 0.906900 0.031900 0.405500
H25 H -0.118100 0.337800 0.701100
H26 H 0.852900 0.028800 0.249200
H27 H -0.004700 0.277600 0.794500
H28 H 0.768200 0.207700 0.148600
H29 H 0.736300 0.389200 0.201300
H30 H 0.210600 0.394300 1.142200
H31 H 0.789400 0.394300 0.357800
H32 H 0.263700 0.389200 1.298700
H33 H 1.004700 0.277600 0.705500
H34 H 0.231800 0.207700 1.351400
H35 H 1.118100 0.337800 0.798900
H36 H 0.147100 0.028800 1.250800
H37 H 1.164800 0.386000 0.734500
H38 H 0.093100 0.031900 1.094500
H39 H 1.099300 0.358800 0.576500
H40 H 0.984700 0.295900 0.482000
H41 H 0.819300 -0.240100 0.576300
H42 H 0.914200 -0.388400 0.635100
H43 H 0.786000 0.590000 0.992000
H44 H 1.001900 -0.280100 0.649900
H45 H 0.993700 -0.025000 0.603100
H46 H 0.506300 0.475000 0.896900
H47 H 0.714000 0.090000 0.508000
H48 H 0.498100 0.219900 0.850100
H49 H 0.406900 0.468100 -0.094500
H50 H 0.585800 0.111600 0.864900
H51 H 0.352900 0.471200 -0.250800
H52 H 0.680700 0.259900 0.923700
H53 H 0.268200 0.292300 -0.351400
H54 H 0.236300 0.110800 -0.298700
H55 H 0.289400 0.105700 -0.142200
H56 H 0.504700 0.222400 0.205500
H57 H 0.515300 0.795900 1.018000
H58 H 0.618100 0.162200 0.298900
H59 H 0.400700 0.858800 0.923500
H60 H 0.664800 0.114000 0.234500
H61 H 0.335200 0.886000 0.765500
H62 H 0.599300 0.141200 0.076500
H63 H 0.381900 0.837800 0.701100
H64 H 0.484700 0.204100 -0.018000
H65 H 0.495300 0.777600 0.794500
H66 H 0.319300 0.740100 0.076300
H67 H 0.414200 0.888400 0.135100
H68 H 0.710600 0.894300 1.142200
H69 H 0.501900 0.780100 0.149900
H70 H 0.763700 0.889200 1.298700
H71 H 0.493700 0.525000 0.103100
H72 H 0.731800 0.707700 1.351400
H73 H 0.214000 0.410000 0.008000
H74 H 0.647100 0.528800 1.250800
H75 H 0.906900 0.968100 -0.094500
H76 H 0.593100 0.531900 1.094500
H77 H 0.852900 0.971200 -0.250800
H78 H 0.768200 0.792300 -0.351400
H79 H 0.736300 0.610800 -0.298700
H80 H 0.789400 0.605700 -0.142200
H81 H 0.286000 0.910000 0.492000
H82 H 1.004700 0.722400 0.205500
H83 H 1.118100 0.662200 0.298900
H84 H 0.006300 1.025000 0.396900
H85 H 1.164800 0.614000 0.234500
H86 H -0.001900 1.280100 0.350100
H87 H 1.099300 0.641200 0.076500
H88 H 0.085800 1.388400 0.364900
H89 H 0.984700 0.704100 -0.018000
H90 H 0.180700 1.240100 0.423700
H91 H 0.819300 1.240100 0.076300
H92 H 0.914200 1.388400 0.135100
H93 H 1.001900 1.280100 0.149900
H94 H 0.993700 1.025000 0.103100
H95 H 0.015300 0.704100 0.518000
H96 H 0.714000 0.910000 0.008000
H97 H -0.099300 0.641200 0.423500
H98 H 0.593100 0.468100 0.594500
H99 H -0.164800 0.614000 0.265500
H100 H 0.647100 0.471200 0.750800
H101 H -0.118100 0.662200 0.201100
H102 H 0.731800 0.292300 0.851400
H103 H -0.004700 0.722400 0.294500
H104 H 0.763700 0.110800 0.798700
H105 H 0.710600 0.105700 0.642200
H106 H 0.210600 0.605700 0.642200
H107 H 0.495300 0.222400 0.294500
H108 H 0.263700 0.610800 0.798700
H109 H 0.381900 0.162200 0.201100
H110 H 0.231800 0.792300 0.851400
H111 H 0.335200 0.114000 0.265500
H112 H 0.147100 0.971200 0.750800
H113 H 0.400700 0.141200 0.423500
H114 H 0.093100 0.968100 0.594500
H115 H 0.515300 0.204100 0.518000
H116 H 0.680700 0.740100 0.423700
H117 H 0.585800 0.888400 0.364900
H118 H 0.498100 0.780100 0.350100
H119 H 0.786000 0.410000 0.492000
H120 H 0.506300 0.525000 0.396900
C121 C 0.542280 0.568500 0.404210
C122 C 0.600830 0.478000 0.444380
C123 C 0.536920 0.721000 0.375300
C124 C 0.340260 0.602400 0.271320
C125 C 0.589120 0.785400 0.383800
C126 C 0.289690 0.709200 0.211340
C127 C 0.646380 0.697300 0.420490
C128 C 0.270670 0.817200 0.242620
C129 C 0.653560 0.545500 0.452740
C130 C 0.720440 0.462400 0.502600
C131 C 0.517260 0.222700 0.416350
C132 C 0.488760 0.196200 0.453870
C133 C 0.100830 0.022000 0.944380
C134 C 0.420080 0.157300 0.397300
C135 C 0.127460 0.895800 0.635200
C136 C 0.380900 0.142500 0.303200
C137 C 0.159740 0.897600 0.728680
C138 C 0.408640 0.169300 0.265200
C139 C 0.210310 0.790800 0.788660
C140 C 0.476280 0.206900 0.321400
C141 C 0.229330 0.682800 0.757380
C142 C 0.646370 0.286100 0.602140
C143 C 0.697470 0.179600 0.663490
C144 C 0.197470 0.679600 0.663490
C145 C 0.729330 0.182800 0.757380
C146 C 0.146370 0.786100 0.602140
C147 C 0.710310 0.290800 0.788660
C148 C -0.023720 0.706900 0.321400
C149 C 0.659740 0.397600 0.728680
C150 C -0.091360 0.669300 0.265200
C151 C 0.627460 0.395800 0.635200
C152 C -0.119100 0.642500 0.303200
C153 C 0.302530 0.820400 0.336510
C154 C 0.353630 0.713900 0.397860
C155 C 0.042280 -0.068500 0.904210
C156 C 0.523720 0.793100 0.678600
C157 C -0.079920 0.657300 0.397300
C158 C 0.899170 0.978000 0.055620
C159 C 0.957720 1.068500 0.095790
C160 C -0.011240 0.696200 0.453870
C161 C 0.963080 1.221000 0.124700
C162 C 0.017260 0.722700 0.416350
C163 C 0.910880 1.285400 0.116200
C164 C 0.220440 0.962400 0.502600
C165 C 0.853620 1.197300 0.079510
C166 C 0.153560 1.045500 0.452740
C167 C 0.846440 1.045500 0.047260
C168 C 0.779560 0.962400 -0.002600
C169 C 0.982740 0.722700 0.083650
C170 C 1.011240 0.696200 0.046130
C171 C 0.146380 1.197300 0.420490
C172 C 1.079920 0.657300 0.102700
C173 C 0.089120 1.285400 0.383800
C174 C 1.119100 0.642500 0.196800
C175 C 0.036920 1.221000 0.375300
C176 C 1.091360 0.669300 0.234800
C177 C 0.042280 1.068500 0.404210
C178 C 1.023720 0.706900 0.178600
C179 C 0.100830 0.978000 0.444380
C180 C 0.853630 0.786100 -0.102140
C181 C 0.802530 0.679600 -0.163490
C182 C 0.036920 -0.221000 0.875300
C183 C 0.770670 0.682800 -0.257380
C184 C 0.591360 0.830700 0.734800
C185 C 0.789690 0.790800 -0.288660
C186 C 0.089120 -0.285400 0.883800
C187 C 0.840260 0.897600 -0.228680
C188 C 0.619100 0.857500 0.696800
C189 C 0.872540 0.895800 -0.135200
C190 C 0.627460 0.604200 1.135200
C191 C 0.146380 -0.197300 0.920490
C192 C 0.579920 0.842700 0.602700
C193 C 0.153560 -0.045500 0.952740
C194 C 0.511240 0.803800 0.546130
C195 C 0.659740 0.602400 1.228680
C196 C 0.399170 0.478000 0.055620
C197 C 0.457720 0.568500 0.095790
C198 C 0.710310 0.709200 1.288660
C199 C 0.463080 0.721000 0.124700
C200 C 0.729330 0.817200 1.257380
C201 C 0.410880 0.785400 0.116200
C202 C 0.697470 0.820400 1.163490
C203 C 0.353620 0.697300 0.079510
C204 C 0.646370 0.713900 1.102140
C205 C 0.346440 0.545500 0.047260
C206 C 0.279560 0.462400 -0.002600
C207 C 0.482740 0.222700 0.083650
C208 C 0.511240 0.196200 0.046130
C209 C 0.476280 0.793100 0.821400
C210 C 0.579920 0.157300 0.102700
C211 C 0.408640 0.830700 0.765200
C212 C 0.619100 0.142500 0.196800
C213 C 0.380900 0.857500 0.803200
C214 C 0.591360 0.169300 0.234800
C215 C 0.420080 0.842700 0.897300
C216 C 0.523720 0.206900 0.178600
C217 C 0.488760 0.803800 0.953870
C218 C 0.353630 0.286100 -0.102140
C219 C 0.302530 0.179600 -0.163490
C220 C 0.517260 0.777300 0.916350
C221 C 0.270670 0.182800 -0.257380
C222 C 0.720440 0.537600 1.002600
C223 C 0.289690 0.290800 -0.288660
C224 C 0.653560 0.454500 0.952740
C225 C 0.340260 0.397600 -0.228680
C226 C 0.646380 0.302700 0.920490
C227 C 0.372540 0.395800 -0.135200
C228 C 0.589120 0.214600 0.883800
C229 C 0.482740 0.777300 0.583650
C230 C 0.279560 0.537600 0.497400
C231 C 0.346440 0.454500 0.547260
C232 C 0.220440 0.037600 1.002600
C233 C 0.536920 0.279000 0.875300
C234 C 0.899170 0.022000 0.555620
C235 C 0.957720 -0.068500 0.595790
C236 C 0.542280 0.431500 0.904210
C237 C 0.963080 -0.221000 0.624700
C238 C 0.600830 0.522000 0.944380
C239 C 0.910880 -0.285400 0.616200
C240 C 0.353620 0.302700 0.579510
C241 C 0.853620 -0.197300 0.579510
C242 C 0.017260 0.277300 0.916350
C243 C 0.846440 -0.045500 0.547260
C244 C 0.779560 0.037600 0.497400
C245 C 0.982740 0.277300 0.583650
C246 C 1.011240 0.303800 0.546130
C247 C 0.410880 0.214600 0.616200
C248 C 1.079920 0.342700 0.602700
C249 C -0.011240 0.303800 0.953870
C250 C 1.119100 0.357500 0.696800
C251 C 0.127460 0.104200 1.135200
C252 C 1.091360 0.330700 0.734800
C253 C 0.159740 0.102400 1.228680
C254 C 1.023720 0.293100 0.678600
C255 C 0.210310 0.209200 1.288660
C256 C 0.853630 0.213900 0.397860
C257 C 0.802530 0.320400 0.336510
C258 C 0.229330 0.317200 1.257380
C259 C 0.770670 0.317200 0.242620
C260 C 0.197470 0.320400 1.163490
C261 C 0.789690 0.209200 0.211340
C262 C 0.146370 0.213900 1.102140
C263 C 0.840260 0.102400 0.271320
C264 C -0.023720 0.293100 0.821400
C265 C 0.872540 0.104200 0.364800
C266 C -0.091360 0.330700 0.765200
C267 C 0.463080 0.279000 0.624700
C268 C -0.079920 0.342700 0.897300
C269 C 0.457720 0.431500 0.595790
C270 C 0.399170 0.522000 0.555620
C271 C -0.119100 0.357500 0.803200
C272 C 0.372540 0.604200 0.364800
O273 O 0.250370 0.602500 0.424650
O274 O 0.361490 0.832100 0.539300
O275 O 0.138510 0.332100 0.960700
O276 O 0.744100 0.473300 0.460220
O277 O 0.638510 0.832100 0.960700
O278 O 0.749630 0.602500 1.075350
O279 O 0.744100 0.526700 0.960220
O280 O 0.755900 0.026700 0.539780
O281 O 0.750370 0.102500 0.424650
O282 O 0.861490 0.332100 0.539300
O283 O 0.249630 0.102500 1.075350
O284 O 0.255900 0.473300 0.039780
O285 O 0.250370 0.397500 -0.075350
O286 O 0.361490 0.167900 0.039300
O287 O 0.749630 0.397500 0.575350
O288 O 0.255900 0.526700 0.539780
O289 O 0.138510 0.667900 0.460700
O290 O 0.249630 0.897500 0.575350
O291 O 0.244100 0.973300 0.460220
O292 O 0.755900 0.973300 0.039780
O293 O 0.750370 0.897500 -0.075350
O294 O 0.861490 0.667900 0.039300
O295 O 0.244100 0.026700 0.960220
O296 O 0.638510 0.167900 0.460700
P297 P 0.894480 0.777860 0.018930
P298 P 0.394480 0.277860 0.018930
P299 P 0.894480 0.222140 0.518930
P300 P 0.605520 0.722140 0.981070
P301 P 0.394480 0.722140 0.518930
P302 P 0.105520 0.777860 0.481070
P303 P 0.605520 0.277860 0.481070
P304 P 0.105520 0.222140 0.981070

#END
