
#######################################################################
#
#                 Cambridge Crystallographic Data Centre
#                                CCDC 
#
#######################################################################
#
# If this CIF has been generated from an entry in the Cambridge 
# Structural Database, then it will include bibliographic, chemical, 
# crystal, experimental, refinement or atomic coordinate data resulting 
# from the CCDC's data processing and validation procedures.
#
#######################################################################

data_ACOBEZ
_symmetry_cell_setting           monoclinic
_symmetry_space_group_name_H-M   'P 21/c'
_symmetry_Int_Tables_number      14
_space_group_name_Hall           '-P 2ybc'
loop_
_symmetry_equiv_pos_site_id
_symmetry_equiv_pos_as_xyz
1 x,y,z
2 x,1/2-y,1/2+z
3 -x,-y,-z
4 -x,1/2+y,1/2-z
_cell_length_a                   17.1490(1)
_cell_length_b                   13.1240(1)
_cell_length_c                   13.7770(1)
_cell_angle_alpha                90
_cell_angle_beta                 108.798(1)
_cell_angle_gamma                90
_cell_volume                     2935.31
loop_
_atom_site_label
_atom_site_type_symbol
_atom_site_fract_x
_atom_site_fract_y
_atom_site_fract_z
Ga1 Ga 0.787957(10) 0.114043(13) 1.025475(13)
Cl1 Cl 0.87635(3) 0.01953(4) 1.13805(4)
Cl2 Cl 0.71279(3) 0.19542(4) 1.09831(4)
N1 N 0.84654(8) 0.20016(10) 0.95926(10)
N2 N 0.72350(8) 0.03537(10) 0.91156(10)
C1 C 0.85375(10) 0.16926(12) 0.87073(13)
C2 C 0.81535(10) 0.08141(13) 0.81808(13)
H1 H 0.83544(10) 0.05868(13) 0.76510(13)
C3 C 0.75220(10) 0.02304(12) 0.83241(13)
C4 C 0.90422(12) 0.23026(15) 0.82030(14)
H2 H 0.8713(3) 0.2445(8) 0.7490(3)
H3 H 0.9534(4) 0.1914(4) 0.8217(9)
H4 H 0.9209(7) 0.2946(5) 0.8573(6)
C5 C 0.71390(12) -0.05833(14) 0.75375(14)
H5 H 0.7428(5) -0.0609(7) 0.7029(6)
H6 H 0.6557(2) -0.0422(5) 0.7194(7)
H7 H 0.7184(7) -0.1246(2) 0.7879(2)
C6 C 0.88541(10) 0.29303(12) 1.00952(12)
C7 C 0.83858(11) 0.38239(13) 0.99925(13)
C8 C 0.87763(13) 0.46953(14) 1.0501(2)
H8 H 0.84694(13) 0.53079(14) 1.0442(2)
C9 C 0.95937(13) 0.46896(15) 1.1085(2)
H9 H 0.98464(13) 0.52936(15) 1.1423(2)
C10 C 1.00455(12) 0.38085(15) 1.11812(15)
H10 H 1.06108(12) 0.38130(15) 1.15860(15)
C11 C 0.96940(10) 0.29089(13) 1.06988(13)
C12 C 0.74935(11) 0.39012(14) 0.9309(2)
H11 H 0.72861(11) 0.31973(14) 0.9094(2)
C13 C 0.7445(2) 0.4513(2) 0.8347(2)
H12 H 0.6874(2) 0.4526(11) 0.7887(6)
H13 H 0.7796(8) 0.4193(8) 0.7995(7)
H14 H 0.7634(10) 0.5211(4) 0.8541(2)
C14 C 0.69328(13) 0.4392(2) 0.9851(2)
H15 H 0.6360(2) 0.4368(11) 0.9398(5)
H16 H 0.7098(6) 0.5103(4) 1.0016(11)
H17 H 0.6983(7) 0.4018(7) 1.0484(6)
C15 C 1.02312(10) 0.19656(15) 1.08484(15)
H18 H 0.98858(10) 0.13900(15) 1.04638(15)
C16 C 1.05689(12) 0.1670(2) 1.1988(2)
H19 H 1.0940(7) 0.2206(6) 1.2370(2)
H20 H 1.0872(8) 0.1026(6) 1.2059(2)
H21 H 1.01104(14) 0.1590(11) 1.2260(3)
C17 C 1.09550(13) 0.2118(2) 1.0437(2)
H22 H 1.1277(6) 0.1488(5) 1.0527(12)
H23 H 1.1307(6) 0.2672(9) 1.0816(9)
H24 H 1.07435(13) 0.2293(13) 0.9707(4)
C18 C 0.64245(10) -0.00280(13) 0.90510(13)
C19 C 0.57358(10) 0.05363(14) 0.84730(14)
C20 C 0.49580(11) 0.0173(2) 0.8419(2)
H25 H 0.44816(11) 0.0533(2) 0.8022(2)
C21 C 0.48674(11) -0.06971(15) 0.89312(15)
H26 H 0.43328(11) -0.09282(15) 0.88907(15)
C22 C 0.55493(11) -0.12289(14) 0.94991(15)
H27 H 0.54793(11) -0.18250(14) 0.98533(15)
C23 C 0.63443(10) -0.09173(13) 0.95705(13)
C24 C 0.57984(12) 0.1515(2) 0.7911(2)
H28 H 0.63961(12) 0.1684(2) 0.8081(2)
C25 C 0.5385(2) 0.2402(2) 0.8263(2)
H29 H 0.5479(9) 0.3030(3) 0.7932(10)
H30 H 0.5618(8) 0.2474(8) 0.9009(2)
H31 H 0.4792(2) 0.2272(6) 0.8073(12)
C26 C 0.5442(2) 0.1379(2) 0.6748(2)
H32 H 0.5543(10) 0.1997(6) 0.6407(2)
H33 H 0.4848(3) 0.1257(14) 0.6554(2)
H34 H 0.5708(8) 0.0797(9) 0.6538(3)
C27 C 0.70762(11) -0.15484(14) 1.0195(2)
H35 H 0.75870(11) -0.12237(14) 1.0137(2)
C28 C 0.71369(14) -0.1549(2) 1.1331(2)
H36 H 0.7649(5) -0.1885(11) 1.1735(2)
H37 H 0.6666(5) -0.1918(11) 1.1415(2)
H38 H 0.7134(10) -0.0846(2) 1.1568(4)
C29 C 0.70337(14) -0.2634(2) 0.9786(2)
H39 H 0.7530(5) -0.3007(4) 1.0179(8)
H40 H 0.6997(10) -0.2617(2) 0.9062(4)
H41 H 0.6547(6) -0.2977(4) 0.9856(12)
Ga1 Ga 0.787957(10) 0.385957(13) 0.525475(13)
Cl1 Cl 0.87635(3) 0.48047(4) 0.63805(4)
Cl2 Cl 0.71279(3) 0.30458(4) 0.59831(4)
N1 N 0.84654(8) 0.29984(10) 0.45926(10)
N2 N 0.72350(8) 0.46463(10) 0.41156(10)
C1 C 0.85375(10) 0.33074(12) 0.37073(13)
C2 C 0.81535(10) 0.41859(13) 0.31808(13)
H1 H 0.83544(10) 0.44132(13) 0.26510(13)
C3 C 0.75220(10) 0.47696(12) 0.33241(13)
C4 C 0.90422(12) 0.26974(15) 0.32030(14)
H2 H 0.8713(3) 0.2555(8) 0.2490(3)
H3 H 0.9534(4) 0.3086(4) 0.3217(9)
H4 H 0.9209(7) 0.2054(5) 0.3573(6)
C5 C 0.71390(12) 0.55833(14) 0.25375(14)
H5 H 0.7428(5) 0.5609(7) 0.2029(6)
H6 H 0.6557(2) 0.5422(5) 0.2194(7)
H7 H 0.7184(7) 0.6246(2) 0.2879(2)
C6 C 0.88541(10) 0.20697(12) 0.50952(12)
C7 C 0.83858(11) 0.11761(13) 0.49925(13)
C8 C 0.87763(13) 0.03047(14) 0.5501(2)
H8 H 0.84694(13) -0.03079(14) 0.5442(2)
C9 C 0.95937(13) 0.03104(15) 0.6085(2)
H9 H 0.98464(13) -0.02936(15) 0.6423(2)
C10 C 1.00455(12) 0.11915(15) 0.61812(15)
H10 H 1.06108(12) 0.11870(15) 0.65860(15)
C11 C 0.96940(10) 0.20911(13) 0.56988(13)
C12 C 0.74935(11) 0.10988(14) 0.4309(2)
H11 H 0.72861(11) 0.18027(14) 0.4094(2)
C13 C 0.7445(2) 0.0487(2) 0.3347(2)
H12 H 0.6874(2) 0.0474(11) 0.2887(6)
H13 H 0.7796(8) 0.0807(8) 0.2995(7)
H14 H 0.7634(10) -0.0211(4) 0.3541(2)
C14 C 0.69328(13) 0.0608(2) 0.4851(2)
H15 H 0.6360(2) 0.0632(11) 0.4398(5)
H16 H 0.7098(6) -0.0103(4) 0.5016(11)
H17 H 0.6983(7) 0.0982(7) 0.5484(6)
C15 C 1.02312(10) 0.30344(15) 0.58484(15)
H18 H 0.98858(10) 0.36100(15) 0.54638(15)
C16 C 1.05689(12) 0.3330(2) 0.6988(2)
H19 H 1.0940(7) 0.2794(6) 0.7370(2)
H20 H 1.0872(8) 0.3974(6) 0.7059(2)
H21 H 1.01104(14) 0.3410(11) 0.7260(3)
C17 C 1.09550(13) 0.2882(2) 0.5437(2)
H22 H 1.1277(6) 0.3512(5) 0.5527(12)
H23 H 1.1307(6) 0.2328(9) 0.5816(9)
H24 H 1.07435(13) 0.2707(13) 0.4707(4)
C18 C 0.64245(10) 0.50280(13) 0.40510(13)
C19 C 0.57358(10) 0.44637(14) 0.34730(14)
C20 C 0.49580(11) 0.4827(2) 0.3419(2)
H25 H 0.44816(11) 0.4467(2) 0.3022(2)
C21 C 0.48674(11) 0.56971(15) 0.39312(15)
H26 H 0.43328(11) 0.59282(15) 0.38907(15)
C22 C 0.55493(11) 0.62289(14) 0.44991(15)
H27 H 0.54793(11) 0.68250(14) 0.48533(15)
C23 C 0.63443(10) 0.59173(13) 0.45705(13)
C24 C 0.57984(12) 0.3485(2) 0.2911(2)
H28 H 0.63961(12) 0.3316(2) 0.3081(2)
C25 C 0.5385(2) 0.2598(2) 0.3263(2)
H29 H 0.5479(9) 0.1970(3) 0.2932(10)
H30 H 0.5618(8) 0.2526(8) 0.4009(2)
H31 H 0.4792(2) 0.2728(6) 0.3073(12)
C26 C 0.5442(2) 0.3621(2) 0.1748(2)
H32 H 0.5543(10) 0.3003(6) 0.1407(2)
H33 H 0.4848(3) 0.3743(14) 0.1554(2)
H34 H 0.5708(8) 0.4203(9) 0.1538(3)
C27 C 0.70762(11) 0.65484(14) 0.5195(2)
H35 H 0.75870(11) 0.62237(14) 0.5137(2)
C28 C 0.71369(14) 0.6549(2) 0.6331(2)
H36 H 0.7649(5) 0.6885(11) 0.6735(2)
H37 H 0.6666(5) 0.6918(11) 0.6415(2)
H38 H 0.7134(10) 0.5846(2) 0.6568(4)
C29 C 0.70337(14) 0.7634(2) 0.4786(2)
H39 H 0.7530(5) 0.8007(4) 0.5179(8)
H40 H 0.6997(10) 0.7617(2) 0.4062(4)
H41 H 0.6547(6) 0.7977(4) 0.4856(12)
Ga1 Ga 0.212043(10) 0.885957(13) -0.025475(13)
Cl1 Cl 0.12365(3) 0.98047(4) -0.13805(4)
Cl2 Cl 0.28721(3) 0.80458(4) -0.09831(4)
N1 N 0.15346(8) 0.79984(10) 0.04074(10)
N2 N 0.27650(8) 0.96463(10) 0.08844(10)
C1 C 0.14625(10) 0.83074(12) 0.12927(13)
C2 C 0.18465(10) 0.91859(13) 0.18192(13)
H1 H 0.16456(10) 0.94132(13) 0.23490(13)
C3 C 0.24780(10) 0.97696(12) 0.16759(13)
C4 C 0.09578(12) 0.76974(15) 0.17970(14)
H2 H 0.1287(3) 0.7555(8) 0.2510(3)
H3 H 0.0466(4) 0.8086(4) 0.1783(9)
H4 H 0.0791(7) 0.7054(5) 0.1427(6)
C5 C 0.28610(12) 1.05833(14) 0.24625(14)
H5 H 0.2572(5) 1.0609(7) 0.2971(6)
H6 H 0.3443(2) 1.0422(5) 0.2806(7)
H7 H 0.2816(7) 1.1246(2) 0.2121(2)
C6 C 0.11459(10) 0.70697(12) -0.00952(12)
C7 C 0.16142(11) 0.61761(13) 0.00075(13)
C8 C 0.12237(13) 0.53047(14) -0.0501(2)
H8 H 0.15306(13) 0.46921(14) -0.0442(2)
C9 C 0.04063(13) 0.53104(15) -0.1085(2)
H9 H 0.01536(13) 0.47064(15) -0.1423(2)
C10 C -0.00455(12) 0.61915(15) -0.11812(15)
H10 H -0.06108(12) 0.61870(15) -0.15860(15)
C11 C 0.03060(10) 0.70911(13) -0.06988(13)
C12 C 0.25065(11) 0.60988(14) 0.0691(2)
H11 H 0.27139(11) 0.68027(14) 0.0906(2)
C13 C 0.2555(2) 0.5487(2) 0.1653(2)
H12 H 0.3126(2) 0.5474(11) 0.2113(6)
H13 H 0.2204(8) 0.5807(8) 0.2005(7)
H14 H 0.2366(10) 0.4789(4) 0.1459(2)
C14 C 0.30672(13) 0.5608(2) 0.0149(2)
H15 H 0.3640(2) 0.5632(11) 0.0602(5)
H16 H 0.2902(6) 0.4897(4) -0.0016(11)
H17 H 0.3017(7) 0.5982(7) -0.0484(6)
C15 C -0.02312(10) 0.80344(15) -0.08484(15)
H18 H 0.01142(10) 0.86100(15) -0.04638(15)
C16 C -0.05689(12) 0.8330(2) -0.1988(2)
H19 H -0.0940(7) 0.7794(6) -0.2370(2)
H20 H -0.0872(8) 0.8974(6) -0.2059(2)
H21 H -0.01104(14) 0.8410(11) -0.2260(3)
C17 C -0.09550(13) 0.7882(2) -0.0437(2)
H22 H -0.1277(6) 0.8512(5) -0.0527(12)
H23 H -0.1307(6) 0.7328(9) -0.0816(9)
H24 H -0.07435(13) 0.7707(13) 0.0293(4)
C18 C 0.35755(10) 1.00280(13) 0.09490(13)
C19 C 0.42642(10) 0.94637(14) 0.15270(14)
C20 C 0.50420(11) 0.9827(2) 0.1581(2)
H25 H 0.55184(11) 0.9467(2) 0.1978(2)
C21 C 0.51326(11) 1.06971(15) 0.10688(15)
H26 H 0.56672(11) 1.09282(15) 0.11093(15)
C22 C 0.44507(11) 1.12289(14) 0.05009(15)
H27 H 0.45207(11) 1.18250(14) 0.01467(15)
C23 C 0.36557(10) 1.09173(13) 0.04295(13)
C24 C 0.42016(12) 0.8485(2) 0.2089(2)
H28 H 0.36039(12) 0.8316(2) 0.1919(2)
C25 C 0.4615(2) 0.7598(2) 0.1737(2)
H29 H 0.4521(9) 0.6970(3) 0.2068(10)
H30 H 0.4382(8) 0.7526(8) 0.0991(2)
H31 H 0.5208(2) 0.7728(6) 0.1927(12)
C26 C 0.4558(2) 0.8621(2) 0.3252(2)
H32 H 0.4457(10) 0.8003(6) 0.3593(2)
H33 H 0.5152(3) 0.8743(14) 0.3446(2)
H34 H 0.4292(8) 0.9203(9) 0.3462(3)
C27 C 0.29238(11) 1.15484(14) -0.0195(2)
H35 H 0.24130(11) 1.12237(14) -0.0137(2)
C28 C 0.28631(14) 1.1549(2) -0.1331(2)
H36 H 0.2351(5) 1.1885(11) -0.1735(2)
H37 H 0.3334(5) 1.1918(11) -0.1415(2)
H38 H 0.2866(10) 1.0846(2) -0.1568(4)
C29 C 0.29663(14) 1.2634(2) 0.0214(2)
H39 H 0.2470(5) 1.3007(4) -0.0179(8)
H40 H 0.3003(10) 1.2617(2) 0.0938(4)
H41 H 0.3453(6) 1.2977(4) 0.0144(12)
Ga1 Ga 0.212043(10) 0.614043(13) 0.474525(13)
Cl1 Cl 0.12365(3) 0.51953(4) 0.36195(4)
Cl2 Cl 0.28721(3) 0.69542(4) 0.40169(4)
N1 N 0.15346(8) 0.70016(10) 0.54074(10)
N2 N 0.27650(8) 0.53537(10) 0.58844(10)
C1 C 0.14625(10) 0.66926(12) 0.62927(13)
C2 C 0.18465(10) 0.58141(13) 0.68192(13)
H1 H 0.16456(10) 0.55868(13) 0.73490(13)
C3 C 0.24780(10) 0.52304(12) 0.66759(13)
C4 C 0.09578(12) 0.73026(15) 0.67970(14)
H2 H 0.1287(3) 0.7445(8) 0.7510(3)
H3 H 0.0466(4) 0.6914(4) 0.6783(9)
H4 H 0.0791(7) 0.7946(5) 0.6427(6)
C5 C 0.28610(12) 0.44167(14) 0.74625(14)
H5 H 0.2572(5) 0.4391(7) 0.7971(6)
H6 H 0.3443(2) 0.4578(5) 0.7806(7)
H7 H 0.2816(7) 0.3754(2) 0.7121(2)
C6 C 0.11459(10) 0.79303(12) 0.49048(12)
C7 C 0.16142(11) 0.88239(13) 0.50075(13)
C8 C 0.12237(13) 0.96953(14) 0.4499(2)
H8 H 0.15306(13) 1.03079(14) 0.4558(2)
C9 C 0.04063(13) 0.96896(15) 0.3915(2)
H9 H 0.01536(13) 1.02936(15) 0.3577(2)
C10 C -0.00455(12) 0.88085(15) 0.38188(15)
H10 H -0.06108(12) 0.88130(15) 0.34140(15)
C11 C 0.03060(10) 0.79089(13) 0.43012(13)
C12 C 0.25065(11) 0.89012(14) 0.5691(2)
H11 H 0.27139(11) 0.81973(14) 0.5906(2)
C13 C 0.2555(2) 0.9513(2) 0.6653(2)
H12 H 0.3126(2) 0.9526(11) 0.7113(6)
H13 H 0.2204(8) 0.9193(8) 0.7005(7)
H14 H 0.2366(10) 1.0211(4) 0.6459(2)
C14 C 0.30672(13) 0.9392(2) 0.5149(2)
H15 H 0.3640(2) 0.9368(11) 0.5602(5)
H16 H 0.2902(6) 1.0103(4) 0.4984(11)
H17 H 0.3017(7) 0.9018(7) 0.4516(6)
C15 C -0.02312(10) 0.69656(15) 0.41516(15)
H18 H 0.01142(10) 0.63900(15) 0.45362(15)
C16 C -0.05689(12) 0.6670(2) 0.3012(2)
H19 H -0.0940(7) 0.7206(6) 0.2630(2)
H20 H -0.0872(8) 0.6026(6) 0.2941(2)
H21 H -0.01104(14) 0.6590(11) 0.2740(3)
C17 C -0.09550(13) 0.7118(2) 0.4563(2)
H22 H -0.1277(6) 0.6488(5) 0.4473(12)
H23 H -0.1307(6) 0.7672(9) 0.4184(9)
H24 H -0.07435(13) 0.7293(13) 0.5293(4)
C18 C 0.35755(10) 0.49720(13) 0.59490(13)
C19 C 0.42642(10) 0.55363(14) 0.65270(14)
C20 C 0.50420(11) 0.5173(2) 0.6581(2)
H25 H 0.55184(11) 0.5533(2) 0.6978(2)
C21 C 0.51326(11) 0.43029(15) 0.60688(15)
H26 H 0.56672(11) 0.40718(15) 0.61093(15)
C22 C 0.44507(11) 0.37711(14) 0.55009(15)
H27 H 0.45207(11) 0.31750(14) 0.51467(15)
C23 C 0.36557(10) 0.40827(13) 0.54295(13)
C24 C 0.42016(12) 0.6515(2) 0.7089(2)
H28 H 0.36039(12) 0.6684(2) 0.6919(2)
C25 C 0.4615(2) 0.7402(2) 0.6737(2)
H29 H 0.4521(9) 0.8030(3) 0.7068(10)
H30 H 0.4382(8) 0.7474(8) 0.5991(2)
H31 H 0.5208(2) 0.7272(6) 0.6927(12)
C26 C 0.4558(2) 0.6379(2) 0.8252(2)
H32 H 0.4457(10) 0.6997(6) 0.8593(2)
H33 H 0.5152(3) 0.6257(14) 0.8446(2)
H34 H 0.4292(8) 0.5797(9) 0.8462(3)
C27 C 0.29238(11) 0.34516(14) 0.4805(2)
H35 H 0.24130(11) 0.37763(14) 0.4863(2)
C28 C 0.28631(14) 0.3451(2) 0.3669(2)
H36 H 0.2351(5) 0.3115(11) 0.3265(2)
H37 H 0.3334(5) 0.3082(11) 0.3585(2)
H38 H 0.2866(10) 0.4154(2) 0.3432(4)
C29 C 0.29663(14) 0.2366(2) 0.5214(2)
H39 H 0.2470(5) 0.1993(4) 0.4821(8)
H40 H 0.3003(10) 0.2383(2) 0.5938(4)
H41 H 0.3453(6) 0.2023(4) 0.5144(12)

#END
