./ACOGIJ01_from_POSCAR.cif_generated_by_CrystalShift
_symmetry_cell_setting triclinic
_symmetry_space_group_name_H-M 'P 1'
loop_
_symmetry_equiv_pos_site_id
_symmetry_equiv_pos_as_xyz
1 x,y,z
_cell_length_a 8.837900
_cell_length_b 19.203300
_cell_length_c 13.093900
_cell_angle_alpha 90.000000
_cell_angle_beta 123.169000
_cell_angle_gamma 90.000000
_cell_volume 1860.162106
loop_
_atom_site_label
_atom_site_type_symbol
_atom_site_fract_x
_atom_site_fract_y
_atom_site_fract_z
H1 H 0.634800 0.371500 0.918700
H2 H 0.475300 0.405800 0.920700
H3 H 1.420500 0.503500 1.738000
H4 H 0.413100 0.248300 1.165400
H5 H 1.525400 0.416700 1.676900
H6 H 0.694400 0.200200 1.288100
H7 H -0.134000 0.067100 0.411000
H8 H -0.018000 0.121000 0.428000
H9 H 1.507700 0.348500 1.501900
H10 H 0.922100 0.229600 1.261500
H11 H 1.376200 0.336200 1.296200
H12 H -0.157100 -0.086700 0.336900
H13 H 1.157100 0.413300 1.163100
H14 H -0.376200 -0.163800 0.203800
H15 H 0.989200 0.678300 1.533300
H16 H -0.507700 -0.151500 -0.001900
H17 H 1.018000 0.621000 1.072000
H18 H 1.134000 0.567100 1.089000
H19 H -0.525400 -0.083300 -0.176900
H20 H 0.878400 0.655400 1.330900
H21 H -0.420500 0.003500 -0.238000
H22 H 0.634800 0.371500 -0.081300
H23 H 0.475300 0.405800 -0.079300
H24 H -0.208300 0.107700 -0.182500
H25 H 0.413100 0.248300 0.165400
H26 H 0.010800 0.178300 -0.033300
H27 H 0.694400 0.200200 0.288100
H28 H 0.121600 0.155400 0.169100
H29 H 0.922100 0.229600 0.261500
H30 H 0.872000 0.311600 0.118300
H31 H 0.121600 0.344600 -0.330900
H32 H 0.010800 0.321700 -0.533300
H33 H -0.208300 0.392300 -0.682500
H34 H -0.420500 0.496500 -0.738000
H35 H 0.872000 0.188400 0.618300
H36 H -0.525400 0.583300 -0.676900
H37 H 0.922100 0.270400 0.761500
H38 H -0.507700 0.651500 -0.501900
H39 H 0.694400 0.299800 0.788100
H40 H -0.376200 0.663800 -0.296200
H41 H 0.413100 0.251700 0.665400
H42 H -0.157100 0.586700 -0.163100
H43 H 0.475300 0.094200 0.420700
H44 H 0.634800 0.128500 0.418700
H45 H 0.128000 0.688400 0.881700
H46 H -0.018000 0.379000 -0.072000
H47 H 0.872000 0.311600 1.118300
H48 H -0.134000 0.432900 -0.089000
H49 H 0.077900 0.770400 0.738500
H50 H 0.305600 0.799800 0.711900
H51 H 0.586900 0.751700 0.834600
H52 H 1.134000 -0.067100 0.589000
H53 H 1.018000 -0.121000 0.572000
H54 H 0.365200 0.628500 0.081300
H55 H 0.524700 0.594200 0.079300
H56 H 0.586900 0.751700 -0.165400
H57 H 1.157100 0.086700 0.663100
H58 H 0.305600 0.799800 -0.288100
H59 H 1.376200 0.163800 0.796200
H60 H 0.077900 0.770400 -0.261500
H61 H 1.507700 0.151500 1.001900
H62 H 0.128000 0.688400 -0.118300
H63 H 0.878400 0.655400 0.330900
H64 H 1.525400 0.083300 1.176900
H65 H 0.989200 0.678300 0.533300
H66 H 1.420500 -0.003500 1.238000
H67 H 1.208300 0.607700 0.682500
H68 H 1.420500 0.503500 0.738000
H69 H 1.208300 -0.107700 1.182500
H70 H 1.525400 0.416700 0.676900
H71 H 0.989200 -0.178300 1.033300
H72 H 1.507700 0.348500 0.501900
H73 H 0.878400 -0.155400 0.830900
H74 H 1.376200 0.336200 0.296200
H75 H 1.157100 0.413300 0.163100
H76 H 0.524700 0.594200 1.079300
H77 H 1.018000 0.621000 0.072000
H78 H 1.134000 0.567100 0.089000
H79 H 0.365200 0.628500 1.081300
H80 H 0.128000 -0.188400 0.381700
H81 H -0.134000 0.432900 0.911000
H82 H 0.077900 -0.270400 0.238500
H83 H -0.018000 0.379000 0.928000
H84 H 0.305600 -0.299800 0.211900
H85 H -0.157100 0.586700 0.836900
H86 H 0.586900 -0.251700 0.334600
H87 H 0.365200 0.871500 0.581300
H88 H 0.524700 -0.094200 0.579300
H89 H 0.365200 -0.128500 0.581300
H90 H 0.524700 0.905800 0.579300
H91 H 0.121600 0.344600 0.669100
H92 H 0.586900 0.748300 0.334600
H93 H 0.010800 0.321700 0.466700
H94 H 0.305600 0.700200 0.211900
H95 H -0.208300 0.392300 0.317500
H96 H 0.077900 0.729600 0.238500
H97 H -0.134000 1.067100 0.411000
H98 H -0.018000 1.121000 0.428000
H99 H 0.128000 0.811600 0.381700
H100 H -0.420500 0.496500 0.262000
H101 H 0.878400 0.844600 0.830900
H102 H -0.157100 0.913300 0.336900
H103 H 0.989200 0.821700 1.033300
H104 H -0.376200 0.836200 0.203800
H105 H 1.208300 0.892300 1.182500
H106 H -0.507700 0.848500 -0.001900
H107 H 1.420500 0.996500 1.238000
H108 H 1.525400 1.083300 1.176900
H109 H -0.525400 0.916700 -0.176900
H110 H 1.507700 1.151500 1.001900
H111 H -0.420500 1.003500 -0.238000
H112 H 1.376200 1.163800 0.796200
H113 H 1.208300 0.607700 1.682500
H114 H -0.208300 1.107700 -0.182500
H115 H 1.157100 1.086700 0.663100
H116 H 0.010800 1.178300 -0.033300
H117 H -0.376200 0.663800 0.703800
H118 H 0.121600 1.155400 0.169100
H119 H 1.018000 0.879000 0.572000
H120 H 1.134000 0.932900 0.589000
H121 H -0.507700 0.651500 0.498100
H122 H -0.525400 0.583300 0.323100
H123 H 0.634800 1.128500 0.418700
H124 H 0.475300 1.094200 0.420700
H125 H 0.872000 1.188400 0.618300
H126 H 0.413100 1.251700 0.665400
H127 H 0.922100 1.270400 0.761500
H128 H 0.694400 1.299800 0.788100
C129 C 0.673400 1.267620 0.728600
C130 C 0.505500 1.238290 0.655600
C131 C 0.809100 1.249560 0.713800
C132 C 0.599400 1.110120 0.471700
C133 C 0.778400 1.200280 0.627800
C134 C 0.610400 1.167660 0.554500
C135 C 0.281000 0.950750 0.457700
C136 C -0.371400 0.502820 0.344900
C137 C 0.469400 1.188650 0.566700
C138 C -0.433200 0.554780 0.381300
C139 C -0.359900 0.567070 0.507800
C140 C 0.278300 1.161500 0.490300
C141 C -0.417300 0.620930 0.552100
C142 C -0.223100 0.976780 0.095200
C143 C -0.158500 1.033050 0.056100
C144 C 0.031700 1.126800 0.109300
C145 C -0.340100 0.628010 0.673900
C146 C 1.207100 1.081600 0.746300
C147 C -0.033900 1.140840 -0.012700
C148 C -0.164000 1.099050 -0.100900
C149 C -0.231400 1.042980 -0.068900
C150 C 1.417300 1.120930 0.947900
C151 C -0.371400 0.997180 -0.155100
C152 C 1.359900 1.067070 0.992200
C153 C 1.433200 1.054780 1.118700
C154 C -0.433200 0.945220 -0.118700
C155 C 1.371400 1.002820 1.155100
C156 C -0.359900 0.932930 0.007800
C157 C 1.231400 0.957020 1.068900
C158 C 1.164000 0.900950 1.100900
C159 C -0.417300 0.879070 0.052100
C160 C 1.033900 0.859160 1.012700
C161 C -0.340100 0.871990 0.173900
C162 C 0.968300 0.873200 0.890700
C163 C -0.207100 0.918400 0.253700
C164 C 1.158500 0.966950 0.943900
C165 C 1.223100 1.023220 0.904800
C166 C 0.721700 0.838500 0.509700
C167 C 0.530600 0.811350 0.433300
C168 C 0.389600 0.832340 0.445500
C169 C 0.221600 0.799720 0.372200
C170 C -0.231400 0.457020 0.431100
C171 C 0.190900 0.750440 0.286200
C172 C -0.164000 0.400950 0.399100
C173 C 0.326600 0.732380 0.271400
C174 C -0.033900 0.359160 0.487300
C175 C 0.494500 0.761710 0.344400
C176 C 0.031700 0.373200 0.609300
C177 C 0.400600 0.889880 0.528300
C178 C 0.719000 0.049250 0.542300
C179 C 0.400600 -0.110120 0.528300
C180 C 0.719000 1.049250 0.542300
C181 C 0.494500 -0.238290 0.344400
C182 C -0.207100 0.581600 0.753700
C183 C 0.326600 -0.267620 0.271400
C184 C 0.190900 -0.249560 0.286200
C185 C 0.719000 0.450750 1.042300
C186 C 0.221600 -0.200280 0.372200
C187 C 0.389600 -0.167660 0.445500
C188 C 0.530600 -0.188650 0.433300
C189 C 0.721700 -0.161500 0.509700
C190 C 0.400600 0.610120 1.028300
C191 C 1.207100 0.418400 0.246300
C192 C 1.223100 0.023220 0.904800
C193 C 1.340100 0.371990 0.326100
C194 C 1.158500 -0.033050 0.943900
C195 C 1.417300 0.379070 0.447900
C196 C 0.968300 -0.126800 0.890700
C197 C 1.359900 0.432930 0.492200
C198 C 1.433200 0.445220 0.618700
C199 C 1.033900 -0.140840 1.012700
C200 C 1.371400 0.497180 0.655100
C201 C 1.164000 -0.099050 1.100900
C202 C 1.231400 0.542980 0.568900
C203 C 1.164000 0.599050 0.600900
C204 C 1.231400 -0.042980 1.068900
C205 C 1.033900 0.640840 0.512700
C206 C 1.371400 0.002820 1.155100
C207 C 0.968300 0.626800 0.390700
C208 C 1.433200 0.054780 1.118700
C209 C 1.158500 0.533050 0.443900
C210 C 1.223100 0.476780 0.404800
C211 C 0.721700 0.661500 0.009700
C212 C 0.530600 0.688650 -0.066700
C213 C 0.389600 0.667660 -0.054500
C214 C 0.221600 0.700280 -0.127800
C215 C 1.359900 0.067070 0.992200
C216 C 0.190900 0.749560 -0.213800
C217 C 1.417300 0.120930 0.947900
C218 C 0.326600 0.767620 -0.228600
C219 C 1.340100 0.128010 0.826100
C220 C 0.494500 0.738290 -0.155600
C221 C 1.207100 0.081600 0.746300
C222 C 0.400600 0.610120 0.028300
C223 C -0.158500 0.466950 0.556100
C224 C -0.223100 0.523220 0.595200
C225 C 0.719000 0.450750 0.042300
C226 C 0.278300 0.338500 0.990300
C227 C 0.494500 0.738290 0.844400
C228 C 0.469400 0.311350 1.066700
C229 C 0.326600 0.767620 0.771400
C230 C 0.610400 0.332340 1.054500
C231 C 0.190900 0.749560 0.786200
C232 C 0.778400 0.299720 1.127800
C233 C 0.809100 0.250440 1.213800
C234 C 0.281000 -0.049250 0.457700
C235 C 0.221600 0.700280 0.872200
C236 C -0.207100 0.581600 -0.246300
C237 C 0.599400 0.110120 0.471700
C238 C -0.340100 0.628010 -0.326100
C239 C 0.505500 0.238290 0.655600
C240 C -0.417300 0.620930 -0.447900
C241 C 0.673400 0.267620 0.728600
C242 C -0.359900 0.567070 -0.492200
C243 C -0.433200 0.554780 -0.618700
C244 C 0.809100 0.249560 0.713800
C245 C -0.371400 0.502820 -0.655100
C246 C 0.778400 0.200280 0.627800
C247 C -0.231400 0.457020 -0.568900
C248 C -0.164000 0.400950 -0.600900
C249 C 0.610400 0.167660 0.554500
C250 C -0.033900 0.359160 -0.512700
C251 C 0.469400 0.188650 0.566700
C252 C 0.031700 0.373200 -0.390700
C253 C 0.278300 0.161500 0.490300
C254 C -0.158500 0.466950 -0.443900
C255 C -0.223100 0.523220 -0.404800
C256 C 0.278300 0.338500 -0.009700
C257 C 0.469400 0.311350 0.066700
C258 C 0.610400 0.332340 0.054500
C259 C 0.778400 0.299720 0.127800
C260 C -0.223100 -0.023220 0.095200
C261 C 0.809100 0.250440 0.213800
C262 C -0.158500 0.033050 0.056100
C263 C 0.673400 0.232380 0.228600
C264 C 0.031700 0.126800 0.109300
C265 C 0.505500 0.261710 0.155600
C266 C -0.033900 0.140840 -0.012700
C267 C 0.599400 0.389880 -0.028300
C268 C -0.164000 0.099050 -0.100900
C269 C -0.231400 0.042980 -0.068900
C270 C 0.281000 0.549250 -0.042300
C271 C 0.389600 0.667660 0.945500
C272 C 0.530600 0.688650 0.933300
C273 C 0.721700 0.661500 1.009700
C274 C 1.223100 0.476780 1.404800
C275 C 1.158500 0.533050 1.443900
C276 C -0.371400 -0.002820 -0.155100
C277 C -0.433200 -0.054780 -0.118700
C278 C -0.359900 -0.067070 0.007800
C279 C 0.968300 0.626800 1.390700
C280 C -0.417300 -0.120930 0.052100
C281 C 1.207100 0.418400 1.246300
C282 C -0.340100 -0.128010 0.173900
C283 C 1.340100 0.371990 1.326100
C284 C -0.207100 -0.081600 0.253700
C285 C 1.417300 0.379070 1.447900
C286 C 0.673400 0.232380 1.228600
C287 C 1.359900 0.432930 1.492200
C288 C 1.433200 0.445220 1.618700
C289 C 0.505500 0.261710 1.155600
C290 C 1.371400 0.497180 1.655100
C291 C 0.599400 0.389880 0.971700
C292 C 1.231400 0.542980 1.568900
C293 C 1.164000 0.599050 1.600900
C294 C 1.340100 1.128010 0.826100
C295 C 1.033900 0.640840 1.512700
C296 C 0.281000 0.549250 0.957700
N297 N 1.148200 0.469680 1.283300
N298 N -0.148200 -0.030320 0.216700
N299 N -0.028100 0.074560 0.143800
N300 N 1.148200 0.030320 0.783300
N301 N 1.028100 -0.074560 0.856200
N302 N -0.148200 0.969680 0.216700
N303 N -0.028100 1.074560 0.143800
N304 N -0.028100 0.425440 -0.356200
N305 N -0.148200 0.530320 -0.283300
N306 N 1.148200 1.030320 0.783300
N307 N 1.028100 0.925440 0.856200
N308 N -0.028100 0.425440 0.643800
N309 N -0.148200 0.530320 0.716700
N310 N 1.148200 0.469680 0.283300
N311 N 1.028100 0.574560 0.356200
N312 N 1.028100 0.574560 1.356200
O313 O 0.231700 0.371040 -0.106580
O314 O 1.100900 0.593380 0.126520
O315 O 0.730600 0.471650 0.136190
O316 O 0.175500 0.174240 0.525600
O317 O 0.231700 0.371040 0.893420
O318 O 0.175500 0.325760 1.025600
O319 O 0.191500 0.519280 0.994700
O320 O 0.269400 0.528350 0.863810
O321 O -0.100900 0.406620 0.873480
O322 O 0.808500 0.480720 0.005300
O323 O 0.824500 0.674240 -0.025600
O324 O 0.175500 0.325760 0.025600
O325 O 0.191500 0.519280 -0.005300
O326 O 0.768300 0.628960 0.106580
O327 O 0.191500 -0.019280 0.494700
O328 O 0.269400 0.528350 -0.136190
O329 O -0.100900 0.406620 -0.126520
O330 O 1.100900 0.906620 0.626520
O331 O 0.730600 1.028350 0.636190
O332 O 0.808500 1.019280 0.505300
O333 O 0.824500 0.825760 0.474400
O334 O 0.768300 0.871040 0.606580
O335 O 0.231700 0.128960 0.393420
O336 O 0.269400 -0.028350 0.363810
O337 O 0.768300 0.628960 1.106580
O338 O -0.100900 1.093380 0.373480
O339 O 0.269400 0.971650 0.363810
O340 O 0.191500 0.980720 0.494700
O341 O 0.175500 1.174240 0.525600
O342 O 0.231700 1.128960 0.393420
O343 O -0.100900 0.093380 0.373480
O344 O 0.824500 0.674240 0.974400
O345 O 0.808500 0.480720 1.005300
O346 O 1.100900 -0.093380 0.626520
O347 O 0.730600 0.028350 0.636190
O348 O 0.808500 0.019280 0.505300
O349 O 0.824500 -0.174240 0.474400
O350 O 0.768300 -0.128960 0.606580
O351 O 1.100900 0.593380 1.126520
O352 O 0.730600 0.471650 1.136190
Zn353 Zn 0.058500 1.046134 0.323820
Zn354 Zn 0.941500 0.546134 1.176180
Zn355 Zn 0.941500 0.546134 0.176180
Zn356 Zn 0.058500 0.453866 0.823820
Zn357 Zn 0.941500 0.953866 0.676180
Zn358 Zn 0.941500 -0.046134 0.676180
Zn359 Zn 0.058500 0.453866 -0.176180
Zn360 Zn 0.058500 0.046134 0.323820

#END
