
#######################################################################
#
#                 Cambridge Crystallographic Data Centre
#                                CCDC 
#
#######################################################################
#
# If this CIF has been generated from an entry in the Cambridge 
# Structural Database, then it will include bibliographic, chemical, 
# crystal, experimental, refinement or atomic coordinate data resulting 
# from the CCDC's data processing and validation procedures.
#
#######################################################################

data_ACOGIJ
_symmetry_cell_setting           monoclinic
_symmetry_space_group_name_H-M   'P 21/n'
_symmetry_Int_Tables_number      14
_space_group_name_Hall           '-P 2yn'
loop_
_symmetry_equiv_pos_site_id
_symmetry_equiv_pos_as_xyz
1 x,y,z
2 1/2-x,1/2+y,1/2-z
3 -x,-y,-z
4 1/2+x,1/2-y,1/2+z
_cell_length_a                   8.8476(11)
_cell_length_b                   19.2065(19)
_cell_length_c                   11.0979(11)
_cell_angle_alpha                90
_cell_angle_beta                 98.881(5)
_cell_angle_gamma                90
_cell_volume                     1863.27
loop_
_atom_site_label
_atom_site_type_symbol
_atom_site_fract_x
_atom_site_fract_y
_atom_site_fract_z
Zn1 Zn 0.23458(3) -0.046187(12) 0.176201(19)
N1 N 0.1353(2) 0.03058(10) 0.28358(15)
O1 O 0.15004(18) -0.17413(10) -0.02559(16)
C1 C 0.3231(2) 0.04911(10) 0.04268(18)
O2 O 0.33813(16) -0.12906(8) 0.10682(12)
O3 O 0.02542(17) -0.09353(8) 0.12638(14)
O4 O 0.19702(17) 0.01929(8) 0.00559(14)
O5 O 0.40565(18) 0.02838(8) 0.13669(13)
C2 C 0.4033(2) -0.18861(10) -0.06701(16)
N2 N 0.32795(19) -0.07471(9) 0.35624(14)
C3 C 0.5565(2) -0.16752(11) -0.05425(17)
C4 C 0.3501(3) -0.23836(11) -0.15568(19)
H1 H 0.2458 -0.2521 -0.1655
C5 C 0.1817(2) 0.02322(11) 0.40501(17)
C6 C 0.2885(2) -0.16145(10) 0.00962(17)
C7 C 0.3722(2) 0.10987(12) -0.02842(18)
C8 C 0.1320(3) 0.06720(12) 0.49248(19)
C9 C 0.4445(3) -0.26780(12) -0.2289(2)
H2 H 0.4048 -0.3006 -0.2898
C10 C 0.0304(3) 0.12086(13) 0.4483(2)
H3 H -0.0063 0.1521 0.5035
C11 C 0.6510(3) -0.20035(13) -0.1278(2)
H4 H 0.7562 -0.1881 -0.1180
C12 C 0.2859(2) -0.03343(10) 0.44466(17)
C13 C 0.3374(3) -0.04294(12) 0.56891(19)
C14 C 0.4225(3) -0.12703(12) 0.3903(2)
H5 H 0.4529 -0.1563 0.3294
C15 C 0.0392(3) 0.08155(13) 0.2460(2)
H6 H 0.0058 0.0868 0.1610
C16 C 0.1861(3) 0.05456(13) 0.6191(2)
H7 H 0.1516 0.0835 0.6787
C17 C -0.0152(3) 0.12800(14) 0.3259(2)
H8 H -0.0834 0.1643 0.2952
C18 C 0.4793(3) -0.14075(13) 0.5126(2)
H9 H 0.5467 -0.1788 0.5339
C19 C 0.2841(3) 0.00294(13) 0.65527(19)
H10 H 0.3191 -0.0035 0.7399
C20 C 0.4371(3) -0.09908(14) 0.6012(2)
H11 H 0.4751 -0.1080 0.6845
C21 C 0.5966(3) -0.24968(13) -0.2137(2)
H12 H 0.6635 -0.2710 -0.2619
H13 H 0.4402 0.0919 -0.0819
H14 H 0.2852 0.1286 -0.0796
H15 H 0.0450 -0.1208 0.0686
H16 H -0.051(4) -0.0638(16) 0.088(3)
Zn1B Zn 0.76542(3) 0.046187(12) -0.176201(19)
N1B N 0.8647(2) -0.03058(10) -0.28358(15)
O1B O 0.84996(18) 0.17413(10) 0.02559(16)
C1B C 0.6769(2) -0.04911(10) -0.04268(18)
O2B O 0.66187(16) 0.12906(8) -0.10682(12)
O3B O 0.97458(17) 0.09353(8) -0.12638(14)
O4B O 0.80298(17) -0.01929(8) -0.00559(14)
O5B O 0.59435(18) -0.02838(8) -0.13669(13)
C2B C 0.5967(2) 0.18861(10) 0.06701(16)
N2B N 0.67205(19) 0.07471(9) -0.35624(14)
C3B C 0.4435(2) 0.16752(11) 0.05425(17)
C4B C 0.6499(3) 0.23836(11) 0.15568(19)
H1B H 0.7542 0.2521 0.1655
C5B C 0.8183(2) -0.02322(11) -0.40501(17)
C6B C 0.7115(2) 0.16145(10) -0.00962(17)
C7B C 0.6278(2) -0.10987(12) 0.02842(18)
C8B C 0.8680(3) -0.06720(12) -0.49248(19)
C9B C 0.5555(3) 0.26780(12) 0.2289(2)
H2B H 0.5952 0.3006 0.2898
C10B C 0.9696(3) -0.12086(13) -0.4483(2)
H3B H 1.0063 -0.1521 -0.5035
C11B C 0.3490(3) 0.20035(13) 0.1278(2)
H4B H 0.2438 0.1881 0.1180
C12B C 0.7141(2) 0.03343(10) -0.44466(17)
C13B C 0.6626(3) 0.04294(12) -0.56891(19)
C14B C 0.5775(3) 0.12703(12) -0.3903(2)
H5B H 0.5471 0.1563 -0.3294
C15B C 0.9608(3) -0.08155(13) -0.2460(2)
H6B H 0.9942 -0.0868 -0.1610
C16B C 0.8139(3) -0.05456(13) -0.6191(2)
H7B H 0.8484 -0.0835 -0.6787
C17B C 1.0152(3) -0.12800(14) -0.3259(2)
H8B H 1.0834 -0.1643 -0.2952
C18B C 0.5207(3) 0.14075(13) -0.5126(2)
H9B H 0.4533 0.1788 -0.5339
C19B C 0.7159(3) -0.00294(13) -0.65527(19)
H10B H 0.6809 0.0035 -0.7399
C20B C 0.5629(3) 0.09908(14) -0.6012(2)
H11B H 0.5249 0.1080 -0.6845
C21B C 0.4034(3) 0.24968(13) 0.2137(2)
H12B H 0.3365 0.2710 0.2619
H13B H 0.5598 -0.0919 0.0819
H14B H 0.7148 -0.1286 0.0796
H15B H 0.9550 0.1208 -0.0686
H16B H 1.051(4) 0.0638(16) -0.088(3)
Zn1 Zn 0.23458(3) -0.046187(12) 1.176201(19)
N1 N 0.1353(2) 0.03058(10) 1.28358(15)
O1 O 0.15004(18) -0.17413(10) 0.97441(16)
C1 C 0.3231(2) 0.04911(10) 1.04268(18)
O2 O 0.33813(16) -0.12906(8) 1.10682(12)
O3 O 0.02542(17) -0.09353(8) 1.12638(14)
O4 O 0.19702(17) 0.01929(8) 1.00559(14)
O5 O 0.40565(18) 0.02838(8) 1.13669(13)
C2 C 0.4033(2) -0.18861(10) 0.93299(16)
N2 N 0.32795(19) -0.07471(9) 1.35624(14)
C3 C 0.5565(2) -0.16752(11) 0.94575(17)
C4 C 0.3501(3) -0.23836(11) 0.84432(19)
H1 H 0.2458 -0.2521 0.8345
C5 C 0.1817(2) 0.02322(11) 1.40501(17)
C6 C 0.2885(2) -0.16145(10) 1.00962(17)
C7 C 0.3722(2) 0.10987(12) 0.97158(18)
C8 C 0.1320(3) 0.06720(12) 1.49248(19)
C9 C 0.4445(3) -0.26780(12) 0.7711(2)
H2 H 0.4048 -0.3006 0.7102
C10 C 0.0304(3) 0.12086(13) 1.4483(2)
H3 H -0.0063 0.1521 1.5035
C11 C 0.6510(3) -0.20035(13) 0.8722(2)
H4 H 0.7562 -0.1881 0.8820
C12 C 0.2859(2) -0.03343(10) 1.44466(17)
C13 C 0.3374(3) -0.04294(12) 1.56891(19)
C14 C 0.4225(3) -0.12703(12) 1.3903(2)
H5 H 0.4529 -0.1563 1.3294
C15 C 0.0392(3) 0.08155(13) 1.2460(2)
H6 H 0.0058 0.0868 1.1610
C16 C 0.1861(3) 0.05456(13) 1.6191(2)
H7 H 0.1516 0.0835 1.6787
C17 C -0.0152(3) 0.12800(14) 1.3259(2)
H8 H -0.0834 0.1643 1.2952
C18 C 0.4793(3) -0.14075(13) 1.5126(2)
H9 H 0.5467 -0.1788 1.5339
C19 C 0.2841(3) 0.00294(13) 1.65527(19)
H10 H 0.3191 -0.0035 1.7399
C20 C 0.4371(3) -0.09908(14) 1.6012(2)
H11 H 0.4751 -0.1080 1.6845
C21 C 0.5966(3) -0.24968(13) 0.7863(2)
H12 H 0.6635 -0.2710 0.7381
H13 H 0.4402 0.0919 0.9181
H14 H 0.2852 0.1286 0.9204
H15 H 0.0450 -0.1208 1.0686
H16 H -0.051(4) -0.0638(16) 1.088(3)
Zn1B Zn 0.76542(3) 0.046187(12) 0.823799(19)
N1B N 0.8647(2) -0.03058(10) 0.71642(15)
O1B O 0.84996(18) 0.17413(10) 1.02559(16)
C1B C 0.6769(2) -0.04911(10) 0.95732(18)
O2B O 0.66187(16) 0.12906(8) 0.89318(12)
O3B O 0.97458(17) 0.09353(8) 0.87362(14)
O4B O 0.80298(17) -0.01929(8) 0.99441(14)
O5B O 0.59435(18) -0.02838(8) 0.86331(13)
C2B C 0.5967(2) 0.18861(10) 1.06701(16)
N2B N 0.67205(19) 0.07471(9) 0.64376(14)
C3B C 0.4435(2) 0.16752(11) 1.05425(17)
C4B C 0.6499(3) 0.23836(11) 1.15568(19)
H1B H 0.7542 0.2521 1.1655
C5B C 0.8183(2) -0.02322(11) 0.59499(17)
C6B C 0.7115(2) 0.16145(10) 0.99038(17)
C7B C 0.6278(2) -0.10987(12) 1.02842(18)
C8B C 0.8680(3) -0.06720(12) 0.50752(19)
C9B C 0.5555(3) 0.26780(12) 1.2289(2)
H2B H 0.5952 0.3006 1.2898
C10B C 0.9696(3) -0.12086(13) 0.5517(2)
H3B H 1.0063 -0.1521 0.4965
C11B C 0.3490(3) 0.20035(13) 1.1278(2)
H4B H 0.2438 0.1881 1.1180
C12B C 0.7141(2) 0.03343(10) 0.55534(17)
C13B C 0.6626(3) 0.04294(12) 0.43109(19)
C14B C 0.5775(3) 0.12703(12) 0.6097(2)
H5B H 0.5471 0.1563 0.6706
C15B C 0.9608(3) -0.08155(13) 0.7540(2)
H6B H 0.9942 -0.0868 0.8390
C16B C 0.8139(3) -0.05456(13) 0.3809(2)
H7B H 0.8484 -0.0835 0.3213
C17B C 1.0152(3) -0.12800(14) 0.6741(2)
H8B H 1.0834 -0.1643 0.7048
C18B C 0.5207(3) 0.14075(13) 0.4874(2)
H9B H 0.4533 0.1788 0.4661
C19B C 0.7159(3) -0.00294(13) 0.34473(19)
H10B H 0.6809 0.0035 0.2601
C20B C 0.5629(3) 0.09908(14) 0.3988(2)
H11B H 0.5249 0.1080 0.3155
C21B C 0.4034(3) 0.24968(13) 1.2137(2)
H12B H 0.3365 0.2710 1.2619
H13B H 0.5598 -0.0919 1.0819
H14B H 0.7148 -0.1286 1.0796
H15B H 0.9550 0.1208 0.9314
H16B H 1.051(4) 0.0638(16) 0.912(3)
Zn1 Zn 0.23458(3) 0.953813(12) 0.176201(19)
N1 N 0.1353(2) 1.03058(10) 0.28358(15)
O1 O 0.15004(18) 0.82587(10) -0.02559(16)
C1 C 0.3231(2) 1.04911(10) 0.04268(18)
O2 O 0.33813(16) 0.87094(8) 0.10682(12)
O3 O 0.02542(17) 0.90647(8) 0.12638(14)
O4 O 0.19702(17) 1.01929(8) 0.00559(14)
O5 O 0.40565(18) 1.02838(8) 0.13669(13)
C2 C 0.4033(2) 0.81139(10) -0.06701(16)
N2 N 0.32795(19) 0.92529(9) 0.35624(14)
C3 C 0.5565(2) 0.83248(11) -0.05425(17)
C4 C 0.3501(3) 0.76164(11) -0.15568(19)
H1 H 0.2458 0.7479 -0.1655
C5 C 0.1817(2) 1.02322(11) 0.40501(17)
C6 C 0.2885(2) 0.83855(10) 0.00962(17)
C7 C 0.3722(2) 1.10987(12) -0.02842(18)
C8 C 0.1320(3) 1.06720(12) 0.49248(19)
C9 C 0.4445(3) 0.73220(12) -0.2289(2)
H2 H 0.4048 0.6994 -0.2898
C10 C 0.0304(3) 1.12086(13) 0.4483(2)
H3 H -0.0063 1.1521 0.5035
C11 C 0.6510(3) 0.79965(13) -0.1278(2)
H4 H 0.7562 0.8119 -0.1180
C12 C 0.2859(2) 0.96657(10) 0.44466(17)
C13 C 0.3374(3) 0.95706(12) 0.56891(19)
C14 C 0.4225(3) 0.87297(12) 0.3903(2)
H5 H 0.4529 0.8437 0.3294
C15 C 0.0392(3) 1.08155(13) 0.2460(2)
H6 H 0.0058 1.0868 0.1610
C16 C 0.1861(3) 1.05456(13) 0.6191(2)
H7 H 0.1516 1.0835 0.6787
C17 C -0.0152(3) 1.12800(14) 0.3259(2)
H8 H -0.0834 1.1643 0.2952
C18 C 0.4793(3) 0.85925(13) 0.5126(2)
H9 H 0.5467 0.8212 0.5339
C19 C 0.2841(3) 1.00294(13) 0.65527(19)
H10 H 0.3191 0.9965 0.7399
C20 C 0.4371(3) 0.90092(14) 0.6012(2)
H11 H 0.4751 0.8920 0.6845
C21 C 0.5966(3) 0.75032(13) -0.2137(2)
H12 H 0.6635 0.7290 -0.2619
H13 H 0.4402 1.0919 -0.0819
H14 H 0.2852 1.1286 -0.0796
H15 H 0.0450 0.8792 0.0686
H16 H -0.051(4) 0.9362(16) 0.088(3)
Zn1B Zn 0.76542(3) 1.046187(12) -0.176201(19)
N1B N 0.8647(2) 0.96942(10) -0.28358(15)
O1B O 0.84996(18) 1.17413(10) 0.02559(16)
C1B C 0.6769(2) 0.95089(10) -0.04268(18)
O2B O 0.66187(16) 1.12906(8) -0.10682(12)
O3B O 0.97458(17) 1.09353(8) -0.12638(14)
O4B O 0.80298(17) 0.98071(8) -0.00559(14)
O5B O 0.59435(18) 0.97162(8) -0.13669(13)
C2B C 0.5967(2) 1.18861(10) 0.06701(16)
N2B N 0.67205(19) 1.07471(9) -0.35624(14)
C3B C 0.4435(2) 1.16752(11) 0.05425(17)
C4B C 0.6499(3) 1.23836(11) 0.15568(19)
H1B H 0.7542 1.2521 0.1655
C5B C 0.8183(2) 0.97678(11) -0.40501(17)
C6B C 0.7115(2) 1.16145(10) -0.00962(17)
C7B C 0.6278(2) 0.89013(12) 0.02842(18)
C8B C 0.8680(3) 0.93280(12) -0.49248(19)
C9B C 0.5555(3) 1.26780(12) 0.2289(2)
H2B H 0.5952 1.3006 0.2898
C10B C 0.9696(3) 0.87914(13) -0.4483(2)
H3B H 1.0063 0.8479 -0.5035
C11B C 0.3490(3) 1.20035(13) 0.1278(2)
H4B H 0.2438 1.1881 0.1180
C12B C 0.7141(2) 1.03343(10) -0.44466(17)
C13B C 0.6626(3) 1.04294(12) -0.56891(19)
C14B C 0.5775(3) 1.12703(12) -0.3903(2)
H5B H 0.5471 1.1563 -0.3294
C15B C 0.9608(3) 0.91845(13) -0.2460(2)
H6B H 0.9942 0.9132 -0.1610
C16B C 0.8139(3) 0.94544(13) -0.6191(2)
H7B H 0.8484 0.9165 -0.6787
C17B C 1.0152(3) 0.87200(14) -0.3259(2)
H8B H 1.0834 0.8357 -0.2952
C18B C 0.5207(3) 1.14075(13) -0.5126(2)
H9B H 0.4533 1.1788 -0.5339
C19B C 0.7159(3) 0.99706(13) -0.65527(19)
H10B H 0.6809 1.0035 -0.7399
C20B C 0.5629(3) 1.09908(14) -0.6012(2)
H11B H 0.5249 1.1080 -0.6845
C21B C 0.4034(3) 1.24968(13) 0.2137(2)
H12B H 0.3365 1.2710 0.2619
H13B H 0.5598 0.9081 0.0819
H14B H 0.7148 0.8714 0.0796
H15B H 0.9550 1.1208 -0.0686
H16B H 1.051(4) 1.0638(16) -0.088(3)
Zn1 Zn 0.23458(3) 0.953813(12) 1.176201(19)
N1 N 0.1353(2) 1.03058(10) 1.28358(15)
O1 O 0.15004(18) 0.82587(10) 0.97441(16)
C1 C 0.3231(2) 1.04911(10) 1.04268(18)
O2 O 0.33813(16) 0.87094(8) 1.10682(12)
O3 O 0.02542(17) 0.90647(8) 1.12638(14)
O4 O 0.19702(17) 1.01929(8) 1.00559(14)
O5 O 0.40565(18) 1.02838(8) 1.13669(13)
C2 C 0.4033(2) 0.81139(10) 0.93299(16)
N2 N 0.32795(19) 0.92529(9) 1.35624(14)
C3 C 0.5565(2) 0.83248(11) 0.94575(17)
C4 C 0.3501(3) 0.76164(11) 0.84432(19)
H1 H 0.2458 0.7479 0.8345
C5 C 0.1817(2) 1.02322(11) 1.40501(17)
C6 C 0.2885(2) 0.83855(10) 1.00962(17)
C7 C 0.3722(2) 1.10987(12) 0.97158(18)
C8 C 0.1320(3) 1.06720(12) 1.49248(19)
C9 C 0.4445(3) 0.73220(12) 0.7711(2)
H2 H 0.4048 0.6994 0.7102
C10 C 0.0304(3) 1.12086(13) 1.4483(2)
H3 H -0.0063 1.1521 1.5035
C11 C 0.6510(3) 0.79965(13) 0.8722(2)
H4 H 0.7562 0.8119 0.8820
C12 C 0.2859(2) 0.96657(10) 1.44466(17)
C13 C 0.3374(3) 0.95706(12) 1.56891(19)
C14 C 0.4225(3) 0.87297(12) 1.3903(2)
H5 H 0.4529 0.8437 1.3294
C15 C 0.0392(3) 1.08155(13) 1.2460(2)
H6 H 0.0058 1.0868 1.1610
C16 C 0.1861(3) 1.05456(13) 1.6191(2)
H7 H 0.1516 1.0835 1.6787
C17 C -0.0152(3) 1.12800(14) 1.3259(2)
H8 H -0.0834 1.1643 1.2952
C18 C 0.4793(3) 0.85925(13) 1.5126(2)
H9 H 0.5467 0.8212 1.5339
C19 C 0.2841(3) 1.00294(13) 1.65527(19)
H10 H 0.3191 0.9965 1.7399
C20 C 0.4371(3) 0.90092(14) 1.6012(2)
H11 H 0.4751 0.8920 1.6845
C21 C 0.5966(3) 0.75032(13) 0.7863(2)
H12 H 0.6635 0.7290 0.7381
H13 H 0.4402 1.0919 0.9181
H14 H 0.2852 1.1286 0.9204
H15 H 0.0450 0.8792 1.0686
H16 H -0.051(4) 0.9362(16) 1.088(3)
Zn1B Zn 0.76542(3) 1.046187(12) 0.823799(19)
N1B N 0.8647(2) 0.96942(10) 0.71642(15)
O1B O 0.84996(18) 1.17413(10) 1.02559(16)
C1B C 0.6769(2) 0.95089(10) 0.95732(18)
O2B O 0.66187(16) 1.12906(8) 0.89318(12)
O3B O 0.97458(17) 1.09353(8) 0.87362(14)
O4B O 0.80298(17) 0.98071(8) 0.99441(14)
O5B O 0.59435(18) 0.97162(8) 0.86331(13)
C2B C 0.5967(2) 1.18861(10) 1.06701(16)
N2B N 0.67205(19) 1.07471(9) 0.64376(14)
C3B C 0.4435(2) 1.16752(11) 1.05425(17)
C4B C 0.6499(3) 1.23836(11) 1.15568(19)
H1B H 0.7542 1.2521 1.1655
C5B C 0.8183(2) 0.97678(11) 0.59499(17)
C6B C 0.7115(2) 1.16145(10) 0.99038(17)
C7B C 0.6278(2) 0.89013(12) 1.02842(18)
C8B C 0.8680(3) 0.93280(12) 0.50752(19)
C9B C 0.5555(3) 1.26780(12) 1.2289(2)
H2B H 0.5952 1.3006 1.2898
C10B C 0.9696(3) 0.87914(13) 0.5517(2)
H3B H 1.0063 0.8479 0.4965
C11B C 0.3490(3) 1.20035(13) 1.1278(2)
H4B H 0.2438 1.1881 1.1180
C12B C 0.7141(2) 1.03343(10) 0.55534(17)
C13B C 0.6626(3) 1.04294(12) 0.43109(19)
C14B C 0.5775(3) 1.12703(12) 0.6097(2)
H5B H 0.5471 1.1563 0.6706
C15B C 0.9608(3) 0.91845(13) 0.7540(2)
H6B H 0.9942 0.9132 0.8390
C16B C 0.8139(3) 0.94544(13) 0.3809(2)
H7B H 0.8484 0.9165 0.3213
C17B C 1.0152(3) 0.87200(14) 0.6741(2)
H8B H 1.0834 0.8357 0.7048
C18B C 0.5207(3) 1.14075(13) 0.4874(2)
H9B H 0.4533 1.1788 0.4661
C19B C 0.7159(3) 0.99706(13) 0.34473(19)
H10B H 0.6809 1.0035 0.2601
C20B C 0.5629(3) 1.09908(14) 0.3988(2)
H11B H 0.5249 1.1080 0.3155
C21B C 0.4034(3) 1.24968(13) 1.2137(2)
H12B H 0.3365 1.2710 1.2619
H13B H 0.5598 0.9081 1.0819
H14B H 0.7148 0.8714 1.0796
H15B H 0.9550 1.1208 0.9314
H16B H 1.051(4) 1.0638(16) 0.912(3)
Zn1 Zn 0.26542(3) 0.453813(12) 0.323799(19)
N1 N 0.3647(2) 0.53058(10) 0.21642(15)
O1 O 0.34996(18) 0.32587(10) 0.52559(16)
C1 C 0.1769(2) 0.54911(10) 0.45732(18)
O2 O 0.16187(16) 0.37094(8) 0.39318(12)
O3 O 0.47458(17) 0.40647(8) 0.37362(14)
O4 O 0.30298(17) 0.51929(8) 0.49441(14)
O5 O 0.09435(18) 0.52838(8) 0.36331(13)
C2 C 0.0967(2) 0.31139(10) 0.56701(16)
N2 N 0.17205(19) 0.42529(9) 0.14376(14)
C3 C -0.0565(2) 0.33248(11) 0.55425(17)
C4 C 0.1499(3) 0.26164(11) 0.65568(19)
H1 H 0.2542 0.2479 0.6655
C5 C 0.3183(2) 0.52322(11) 0.09499(17)
C6 C 0.2115(2) 0.33855(10) 0.49038(17)
C7 C 0.1278(2) 0.60987(12) 0.52842(18)
C8 C 0.3680(3) 0.56720(12) 0.00752(19)
C9 C 0.0555(3) 0.23220(12) 0.7289(2)
H2 H 0.0952 0.1994 0.7898
C10 C 0.4696(3) 0.62086(13) 0.0517(2)
H3 H 0.5063 0.6521 -0.0035
C11 C -0.1510(3) 0.29965(13) 0.6278(2)
H4 H -0.2562 0.3119 0.6180
C12 C 0.2141(2) 0.46657(10) 0.05534(17)
C13 C 0.1626(3) 0.45706(12) -0.06891(19)
C14 C 0.0775(3) 0.37297(12) 0.1097(2)
H5 H 0.0471 0.3437 0.1706
C15 C 0.4608(3) 0.58155(13) 0.2540(2)
H6 H 0.4942 0.5868 0.3390
C16 C 0.3139(3) 0.55456(13) -0.1191(2)
H7 H 0.3484 0.5835 -0.1787
C17 C 0.5152(3) 0.62800(14) 0.1741(2)
H8 H 0.5834 0.6643 0.2048
C18 C 0.0207(3) 0.35925(13) -0.0126(2)
H9 H -0.0467 0.3212 -0.0339
C19 C 0.2159(3) 0.50294(13) -0.15527(19)
H10 H 0.1809 0.4965 -0.2399
C20 C 0.0629(3) 0.40092(14) -0.1012(2)
H11 H 0.0249 0.3920 -0.1845
C21 C -0.0966(3) 0.25032(13) 0.7137(2)
H12 H -0.1635 0.2290 0.7619
H13 H 0.0598 0.5919 0.5819
H14 H 0.2148 0.6286 0.5796
H15 H 0.4550 0.3792 0.4314
H16 H 0.551(4) 0.4362(16) 0.412(3)
Zn1B Zn -0.26542(3) 0.546187(12) 0.676201(19)
N1B N -0.3647(2) 0.46942(10) 0.78358(15)
O1B O -0.34996(18) 0.67413(10) 0.47441(16)
C1B C -0.1769(2) 0.45089(10) 0.54268(18)
O2B O -0.16187(16) 0.62906(8) 0.60682(12)
O3B O -0.47458(17) 0.59353(8) 0.62638(14)
O4B O -0.30298(17) 0.48071(8) 0.50559(14)
O5B O -0.09435(18) 0.47162(8) 0.63669(13)
C2B C -0.0967(2) 0.68861(10) 0.43299(16)
N2B N -0.17205(19) 0.57471(9) 0.85624(14)
C3B C 0.0565(2) 0.66752(11) 0.44575(17)
C4B C -0.1499(3) 0.73836(11) 0.34432(19)
H1B H -0.2542 0.7521 0.3345
C5B C -0.3183(2) 0.47678(11) 0.90501(17)
C6B C -0.2115(2) 0.66145(10) 0.50962(17)
C7B C -0.1278(2) 0.39013(12) 0.47158(18)
C8B C -0.3680(3) 0.43280(12) 0.99248(19)
C9B C -0.0555(3) 0.76780(12) 0.2711(2)
H2B H -0.0952 0.8006 0.2102
C10B C -0.4696(3) 0.37914(13) 0.9483(2)
H3B H -0.5063 0.3479 1.0035
C11B C 0.1510(3) 0.70035(13) 0.3722(2)
H4B H 0.2562 0.6881 0.3820
C12B C -0.2141(2) 0.53343(10) 0.94466(17)
C13B C -0.1626(3) 0.54294(12) 1.06891(19)
C14B C -0.0775(3) 0.62703(12) 0.8903(2)
H5B H -0.0471 0.6563 0.8294
C15B C -0.4608(3) 0.41845(13) 0.7460(2)
H6B H -0.4942 0.4132 0.6610
C16B C -0.3139(3) 0.44544(13) 1.1191(2)
H7B H -0.3484 0.4165 1.1787
C17B C -0.5152(3) 0.37200(14) 0.8259(2)
H8B H -0.5834 0.3357 0.7952
C18B C -0.0207(3) 0.64075(13) 1.0126(2)
H9B H 0.0467 0.6788 1.0339
C19B C -0.2159(3) 0.49706(13) 1.15527(19)
H10B H -0.1809 0.5035 1.2399
C20B C -0.0629(3) 0.59908(14) 1.1012(2)
H11B H -0.0249 0.6080 1.1845
C21B C 0.0966(3) 0.74968(13) 0.2863(2)
H12B H 0.1635 0.7710 0.2381
H13B H -0.0598 0.4081 0.4181
H14B H -0.2148 0.3714 0.4204
H15B H -0.4550 0.6208 0.5686
H16B H -0.551(4) 0.5638(16) 0.588(3)
Zn1 Zn 1.26542(3) 0.453813(12) 0.323799(19)
N1 N 1.3647(2) 0.53058(10) 0.21642(15)
O1 O 1.34996(18) 0.32587(10) 0.52559(16)
C1 C 1.1769(2) 0.54911(10) 0.45732(18)
O2 O 1.16187(16) 0.37094(8) 0.39318(12)
O3 O 1.47458(17) 0.40647(8) 0.37362(14)
O4 O 1.30298(17) 0.51929(8) 0.49441(14)
O5 O 1.09435(18) 0.52838(8) 0.36331(13)
C2 C 1.0967(2) 0.31139(10) 0.56701(16)
N2 N 1.17205(19) 0.42529(9) 0.14376(14)
C3 C 0.9435(2) 0.33248(11) 0.55425(17)
C4 C 1.1499(3) 0.26164(11) 0.65568(19)
H1 H 1.2542 0.2479 0.6655
C5 C 1.3183(2) 0.52322(11) 0.09499(17)
C6 C 1.2115(2) 0.33855(10) 0.49038(17)
C7 C 1.1278(2) 0.60987(12) 0.52842(18)
C8 C 1.3680(3) 0.56720(12) 0.00752(19)
C9 C 1.0555(3) 0.23220(12) 0.7289(2)
H2 H 1.0952 0.1994 0.7898
C10 C 1.4696(3) 0.62086(13) 0.0517(2)
H3 H 1.5063 0.6521 -0.0035
C11 C 0.8490(3) 0.29965(13) 0.6278(2)
H4 H 0.7438 0.3119 0.6180
C12 C 1.2141(2) 0.46657(10) 0.05534(17)
C13 C 1.1626(3) 0.45706(12) -0.06891(19)
C14 C 1.0775(3) 0.37297(12) 0.1097(2)
H5 H 1.0471 0.3437 0.1706
C15 C 1.4608(3) 0.58155(13) 0.2540(2)
H6 H 1.4942 0.5868 0.3390
C16 C 1.3139(3) 0.55456(13) -0.1191(2)
H7 H 1.3484 0.5835 -0.1787
C17 C 1.5152(3) 0.62800(14) 0.1741(2)
H8 H 1.5834 0.6643 0.2048
C18 C 1.0207(3) 0.35925(13) -0.0126(2)
H9 H 0.9533 0.3212 -0.0339
C19 C 1.2159(3) 0.50294(13) -0.15527(19)
H10 H 1.1809 0.4965 -0.2399
C20 C 1.0629(3) 0.40092(14) -0.1012(2)
H11 H 1.0249 0.3920 -0.1845
C21 C 0.9034(3) 0.25032(13) 0.7137(2)
H12 H 0.8365 0.2290 0.7619
H13 H 1.0598 0.5919 0.5819
H14 H 1.2148 0.6286 0.5796
H15 H 1.4550 0.3792 0.4314
H16 H 1.551(4) 0.4362(16) 0.412(3)
Zn1B Zn 0.73458(3) 0.546187(12) 0.676201(19)
N1B N 0.6353(2) 0.46942(10) 0.78358(15)
O1B O 0.65004(18) 0.67413(10) 0.47441(16)
C1B C 0.8231(2) 0.45089(10) 0.54268(18)
O2B O 0.83813(16) 0.62906(8) 0.60682(12)
O3B O 0.52542(17) 0.59353(8) 0.62638(14)
O4B O 0.69702(17) 0.48071(8) 0.50559(14)
O5B O 0.90565(18) 0.47162(8) 0.63669(13)
C2B C 0.9033(2) 0.68861(10) 0.43299(16)
N2B N 0.82795(19) 0.57471(9) 0.85624(14)
C3B C 1.0565(2) 0.66752(11) 0.44575(17)
C4B C 0.8501(3) 0.73836(11) 0.34432(19)
H1B H 0.7458 0.7521 0.3345
C5B C 0.6817(2) 0.47678(11) 0.90501(17)
C6B C 0.7885(2) 0.66145(10) 0.50962(17)
C7B C 0.8722(2) 0.39013(12) 0.47158(18)
C8B C 0.6320(3) 0.43280(12) 0.99248(19)
C9B C 0.9445(3) 0.76780(12) 0.2711(2)
H2B H 0.9048 0.8006 0.2102
C10B C 0.5304(3) 0.37914(13) 0.9483(2)
H3B H 0.4937 0.3479 1.0035
C11B C 1.1510(3) 0.70035(13) 0.3722(2)
H4B H 1.2562 0.6881 0.3820
C12B C 0.7859(2) 0.53343(10) 0.94466(17)
C13B C 0.8374(3) 0.54294(12) 1.06891(19)
C14B C 0.9225(3) 0.62703(12) 0.8903(2)
H5B H 0.9529 0.6563 0.8294
C15B C 0.5392(3) 0.41845(13) 0.7460(2)
H6B H 0.5058 0.4132 0.6610
C16B C 0.6861(3) 0.44544(13) 1.1191(2)
H7B H 0.6516 0.4165 1.1787
C17B C 0.4848(3) 0.37200(14) 0.8259(2)
H8B H 0.4166 0.3357 0.7952
C18B C 0.9793(3) 0.64075(13) 1.0126(2)
H9B H 1.0467 0.6788 1.0339
C19B C 0.7841(3) 0.49706(13) 1.15527(19)
H10B H 0.8191 0.5035 1.2399
C20B C 0.9371(3) 0.59908(14) 1.1012(2)
H11B H 0.9751 0.6080 1.1845
C21B C 1.0966(3) 0.74968(13) 0.2863(2)
H12B H 1.1635 0.7710 0.2381
H13B H 0.9402 0.4081 0.4181
H14B H 0.7852 0.3714 0.4204
H15B H 0.5450 0.6208 0.5686
H16B H 0.449(4) 0.5638(16) 0.588(3)

#END
