
#######################################################################
#
#                 Cambridge Crystallographic Data Centre
#                                CCDC 
#
#######################################################################
#
# If this CIF has been generated from an entry in the Cambridge 
# Structural Database, then it will include bibliographic, chemical, 
# crystal, experimental, refinement or atomic coordinate data resulting 
# from the CCDC's data processing and validation procedures.
#
#######################################################################

data_ACOJOT
_symmetry_cell_setting           monoclinic
_symmetry_space_group_name_H-M   'C 2/c'
_symmetry_Int_Tables_number      15
_space_group_name_Hall           '-C 2yn'
loop_
_symmetry_equiv_pos_site_id
_symmetry_equiv_pos_as_xyz
1 x,y,z
2 -x,y,1/2-z
3 1/2+x,1/2+y,z
4 1/2-x,1/2+y,1/2-z
5 -x,-y,-z
6 x,-y,1/2+z
7 1/2-x,1/2-y,-z
8 1/2+x,1/2-y,1/2+z
_cell_length_a                   19.14(3)
_cell_length_b                   6.288(9)
_cell_length_c                   19.81(3)
_cell_angle_alpha                90
_cell_angle_beta                 91.934(15)
_cell_angle_gamma                90
_cell_volume                     2382.82
loop_
_atom_site_label
_atom_site_type_symbol
_atom_site_fract_x
_atom_site_fract_y
_atom_site_fract_z
F1 F 0.34874(8) 0.7538(3) 0.29725(9)
F2 F 0.27588(8) 0.5059(3) 0.26379(7)
O1 O 0.23711(10) 0.9016(3) 0.44016(10)
O2 O 0.01259(9) 0.6688(4) 0.42459(10)
O3 O 0.40876(9) 0.3862(3) 0.48207(9)
O4 O 0.42935(15) 0.3215(4) 0.22743(13)
N1 N 0.21703(10) 0.5718(4) 0.39328(10)
N2 N 0.12592(11) 0.7730(4) 0.43557(11)
C1 C 0.19637(13) 0.7597(4) 0.42385(12)
C2 C 0.07456(13) 0.6318(5) 0.41424(12)
C3 C 0.09873(13) 0.4428(5) 0.37986(12)
C4 C 0.16799(13) 0.4225(4) 0.37134(12)
C5 C 0.04595(14) 0.2812(5) 0.35571(14)
C6 C 0.29149(12) 0.5398(4) 0.38455(13)
C7 C 0.32266(13) 0.5605(4) 0.31480(13)
C8 C 0.37480(13) 0.3831(4) 0.33220(13)
C9 C 0.32447(13) 0.3141(4) 0.38923(13)
C10 C 0.39103(14) 0.2233(5) 0.27829(14)
C11 C 0.35572(14) 0.2442(5) 0.45709(13)
H1 H 0.1123 0.8832 0.4591
H2 H 0.4478 0.3459 0.4688
H3 H 0.1841 0.2990 0.3491
H4 H 0.4561 0.2319 0.2103
H5 H 0.0701 0.1585 0.3369
H6 H 0.0150 0.3447 0.3208
H7 H 0.0182 0.2348 0.3937
H8 H 0.3179 0.6358 0.4166
H9 H 0.4190 0.4440 0.3524
H10 H 0.2904 0.2053 0.3715
H11 H 0.4185 0.1045 0.2984
H12 H 0.3470 0.1646 0.2585
H13 H 0.3181 0.2358 0.4901
H14 H 0.3759 0.1002 0.4525
F1 F 0.65126(8) 0.7538(3) 0.20275(9)
F2 F 0.72412(8) 0.5059(3) 0.23621(7)
O1 O 0.76289(10) 0.9016(3) 0.05984(10)
O2 O 0.98741(9) 0.6688(4) 0.07541(10)
O3 O 0.59124(9) 0.3862(3) 0.01793(9)
O4 O 0.57065(15) 0.3215(4) 0.27257(13)
N1 N 0.78297(10) 0.5718(4) 0.10672(10)
N2 N 0.87408(11) 0.7730(4) 0.06443(11)
C1 C 0.80363(13) 0.7597(4) 0.07615(12)
C2 C 0.92544(13) 0.6318(5) 0.08576(12)
C3 C 0.90127(13) 0.4428(5) 0.12014(12)
C4 C 0.83201(13) 0.4225(4) 0.12866(12)
C5 C 0.95405(14) 0.2812(5) 0.14429(14)
C6 C 0.70851(12) 0.5398(4) 0.11545(13)
C7 C 0.67734(13) 0.5605(4) 0.18520(13)
C8 C 0.62520(13) 0.3831(4) 0.16780(13)
C9 C 0.67553(13) 0.3141(4) 0.11077(13)
C10 C 0.60897(14) 0.2233(5) 0.22171(14)
C11 C 0.64428(14) 0.2442(5) 0.04291(13)
H1 H 0.8877 0.8832 0.0409
H2 H 0.5522 0.3459 0.0312
H3 H 0.8159 0.2990 0.1509
H4 H 0.5439 0.2319 0.2897
H5 H 0.9299 0.1585 0.1631
H6 H 0.9850 0.3447 0.1792
H7 H 0.9818 0.2348 0.1063
H8 H 0.6821 0.6358 0.0834
H9 H 0.5810 0.4440 0.1476
H10 H 0.7096 0.2053 0.1285
H11 H 0.5815 0.1045 0.2016
H12 H 0.6530 0.1646 0.2415
H13 H 0.6819 0.2358 0.0099
H14 H 0.6241 0.1002 0.0475
F1 F 0.84874(8) 1.2538(3) 0.29725(9)
F2 F 0.77588(8) 1.0059(3) 0.26379(7)
O1 O 0.73711(10) 1.4016(3) 0.44016(10)
O2 O 0.51259(9) 1.1688(4) 0.42459(10)
O3 O 0.90876(9) 0.8862(3) 0.48207(9)
O4 O 0.92935(15) 0.8215(4) 0.22743(13)
N1 N 0.71703(10) 1.0718(4) 0.39328(10)
N2 N 0.62592(11) 1.2730(4) 0.43557(11)
C1 C 0.69637(13) 1.2597(4) 0.42385(12)
C2 C 0.57456(13) 1.1318(5) 0.41424(12)
C3 C 0.59873(13) 0.9428(5) 0.37986(12)
C4 C 0.66799(13) 0.9225(4) 0.37134(12)
C5 C 0.54595(14) 0.7812(5) 0.35571(14)
C6 C 0.79149(12) 1.0398(4) 0.38455(13)
C7 C 0.82266(13) 1.0605(4) 0.31480(13)
C8 C 0.87480(13) 0.8831(4) 0.33220(13)
C9 C 0.82447(13) 0.8141(4) 0.38923(13)
C10 C 0.89103(14) 0.7233(5) 0.27829(14)
C11 C 0.85572(14) 0.7442(5) 0.45709(13)
H1 H 0.6123 1.3832 0.4591
H2 H 0.9478 0.8459 0.4688
H3 H 0.6841 0.7990 0.3491
H4 H 0.9561 0.7319 0.2103
H5 H 0.5701 0.6585 0.3369
H6 H 0.5150 0.8447 0.3208
H7 H 0.5182 0.7348 0.3937
H8 H 0.8179 1.1358 0.4166
H9 H 0.9190 0.9440 0.3524
H10 H 0.7904 0.7053 0.3715
H11 H 0.9185 0.6045 0.2984
H12 H 0.8470 0.6646 0.2585
H13 H 0.8181 0.7358 0.4901
H14 H 0.8759 0.6002 0.4525
F1 F 0.15126(8) 1.2538(3) 0.20275(9)
F2 F 0.22412(8) 1.0059(3) 0.23621(7)
O1 O 0.26289(10) 1.4016(3) 0.05984(10)
O2 O 0.48741(9) 1.1688(4) 0.07541(10)
O3 O 0.09124(9) 0.8862(3) 0.01793(9)
O4 O 0.07065(15) 0.8215(4) 0.27257(13)
N1 N 0.28297(10) 1.0718(4) 0.10672(10)
N2 N 0.37408(11) 1.2730(4) 0.06443(11)
C1 C 0.30363(13) 1.2597(4) 0.07615(12)
C2 C 0.42544(13) 1.1318(5) 0.08576(12)
C3 C 0.40127(13) 0.9428(5) 0.12014(12)
C4 C 0.33201(13) 0.9225(4) 0.12866(12)
C5 C 0.45405(14) 0.7812(5) 0.14429(14)
C6 C 0.20851(12) 1.0398(4) 0.11545(13)
C7 C 0.17734(13) 1.0605(4) 0.18520(13)
C8 C 0.12520(13) 0.8831(4) 0.16780(13)
C9 C 0.17553(13) 0.8141(4) 0.11077(13)
C10 C 0.10897(14) 0.7233(5) 0.22171(14)
C11 C 0.14428(14) 0.7442(5) 0.04291(13)
H1 H 0.3877 1.3832 0.0409
H2 H 0.0522 0.8459 0.0312
H3 H 0.3159 0.7990 0.1509
H4 H 0.0439 0.7319 0.2897
H5 H 0.4299 0.6585 0.1631
H6 H 0.4850 0.8447 0.1792
H7 H 0.4818 0.7348 0.1063
H8 H 0.1821 1.1358 0.0834
H9 H 0.0810 0.9440 0.1476
H10 H 0.2096 0.7053 0.1285
H11 H 0.0815 0.6045 0.2016
H12 H 0.1530 0.6646 0.2415
H13 H 0.1819 0.7358 0.0099
H14 H 0.1241 0.6002 0.0475
F1 F 0.65126(8) 0.2462(3) 0.70275(9)
F2 F 0.72412(8) 0.4941(3) 0.73621(7)
O1 O 0.76289(10) 0.0984(3) 0.55984(10)
O2 O 0.98741(9) 0.3312(4) 0.57541(10)
O3 O 0.59124(9) 0.6138(3) 0.51793(9)
O4 O 0.57065(15) 0.6785(4) 0.77257(13)
N1 N 0.78297(10) 0.4282(4) 0.60672(10)
N2 N 0.87408(11) 0.2270(4) 0.56443(11)
C1 C 0.80363(13) 0.2403(4) 0.57615(12)
C2 C 0.92544(13) 0.3682(5) 0.58576(12)
C3 C 0.90127(13) 0.5572(5) 0.62014(12)
C4 C 0.83201(13) 0.5775(4) 0.62866(12)
C5 C 0.95405(14) 0.7188(5) 0.64429(14)
C6 C 0.70851(12) 0.4602(4) 0.61545(13)
C7 C 0.67734(13) 0.4395(4) 0.68520(13)
C8 C 0.62520(13) 0.6169(4) 0.66780(13)
C9 C 0.67553(13) 0.6859(4) 0.61077(13)
C10 C 0.60897(14) 0.7767(5) 0.72171(14)
C11 C 0.64428(14) 0.7558(5) 0.54291(13)
H1 H 0.8877 0.1168 0.5409
H2 H 0.5522 0.6541 0.5312
H3 H 0.8159 0.7010 0.6509
H4 H 0.5439 0.7681 0.7897
H5 H 0.9299 0.8415 0.6631
H6 H 0.9850 0.6553 0.6792
H7 H 0.9818 0.7652 0.6063
H8 H 0.6821 0.3642 0.5834
H9 H 0.5810 0.5560 0.6476
H10 H 0.7096 0.7947 0.6285
H11 H 0.5815 0.8955 0.7016
H12 H 0.6530 0.8354 0.7415
H13 H 0.6819 0.7642 0.5099
H14 H 0.6241 0.8998 0.5475
F1 F 0.34874(8) 0.2462(3) 0.79725(9)
F2 F 0.27588(8) 0.4941(3) 0.76379(7)
O1 O 0.23711(10) 0.0984(3) 0.94016(10)
O2 O 0.01259(9) 0.3312(4) 0.92459(10)
O3 O 0.40876(9) 0.6138(3) 0.98207(9)
O4 O 0.42935(15) 0.6785(4) 0.72743(13)
N1 N 0.21703(10) 0.4282(4) 0.89328(10)
N2 N 0.12592(11) 0.2270(4) 0.93557(11)
C1 C 0.19637(13) 0.2403(4) 0.92385(12)
C2 C 0.07456(13) 0.3682(5) 0.91424(12)
C3 C 0.09873(13) 0.5572(5) 0.87986(12)
C4 C 0.16799(13) 0.5775(4) 0.87134(12)
C5 C 0.04595(14) 0.7188(5) 0.85571(14)
C6 C 0.29149(12) 0.4602(4) 0.88455(13)
C7 C 0.32266(13) 0.4395(4) 0.81480(13)
C8 C 0.37480(13) 0.6169(4) 0.83220(13)
C9 C 0.32447(13) 0.6859(4) 0.88923(13)
C10 C 0.39103(14) 0.7767(5) 0.77829(14)
C11 C 0.35572(14) 0.7558(5) 0.95709(13)
H1 H 0.1123 0.1168 0.9591
H2 H 0.4478 0.6541 0.9688
H3 H 0.1841 0.7010 0.8491
H4 H 0.4561 0.7681 0.7103
H5 H 0.0701 0.8415 0.8369
H6 H 0.0150 0.6553 0.8208
H7 H 0.0182 0.7652 0.8937
H8 H 0.3179 0.3642 0.9166
H9 H 0.4190 0.5560 0.8524
H10 H 0.2904 0.7947 0.8715
H11 H 0.4185 0.8955 0.7984
H12 H 0.3470 0.8354 0.7585
H13 H 0.3181 0.7642 0.9901
H14 H 0.3759 0.8998 0.9525
F1 F 0.15126(8) -0.2538(3) 0.70275(9)
F2 F 0.22412(8) -0.0059(3) 0.73621(7)
O1 O 0.26289(10) -0.4016(3) 0.55984(10)
O2 O 0.48741(9) -0.1688(4) 0.57541(10)
O3 O 0.09124(9) 0.1138(3) 0.51793(9)
O4 O 0.07065(15) 0.1785(4) 0.77257(13)
N1 N 0.28297(10) -0.0718(4) 0.60672(10)
N2 N 0.37408(11) -0.2730(4) 0.56443(11)
C1 C 0.30363(13) -0.2597(4) 0.57615(12)
C2 C 0.42544(13) -0.1318(5) 0.58576(12)
C3 C 0.40127(13) 0.0572(5) 0.62014(12)
C4 C 0.33201(13) 0.0775(4) 0.62866(12)
C5 C 0.45405(14) 0.2188(5) 0.64429(14)
C6 C 0.20851(12) -0.0398(4) 0.61545(13)
C7 C 0.17734(13) -0.0605(4) 0.68520(13)
C8 C 0.12520(13) 0.1169(4) 0.66780(13)
C9 C 0.17553(13) 0.1859(4) 0.61077(13)
C10 C 0.10897(14) 0.2767(5) 0.72171(14)
C11 C 0.14428(14) 0.2558(5) 0.54291(13)
H1 H 0.3877 -0.3832 0.5409
H2 H 0.0522 0.1541 0.5312
H3 H 0.3159 0.2010 0.6509
H4 H 0.0439 0.2681 0.7897
H5 H 0.4299 0.3415 0.6631
H6 H 0.4850 0.1553 0.6792
H7 H 0.4818 0.2652 0.6063
H8 H 0.1821 -0.1358 0.5834
H9 H 0.0810 0.0560 0.6476
H10 H 0.2096 0.2947 0.6285
H11 H 0.0815 0.3955 0.7016
H12 H 0.1530 0.3354 0.7415
H13 H 0.1819 0.2642 0.5099
H14 H 0.1241 0.3998 0.5475
F1 F 0.84874(8) -0.2538(3) 0.79725(9)
F2 F 0.77588(8) -0.0059(3) 0.76379(7)
O1 O 0.73711(10) -0.4016(3) 0.94016(10)
O2 O 0.51259(9) -0.1688(4) 0.92459(10)
O3 O 0.90876(9) 0.1138(3) 0.98207(9)
O4 O 0.92935(15) 0.1785(4) 0.72743(13)
N1 N 0.71703(10) -0.0718(4) 0.89328(10)
N2 N 0.62592(11) -0.2730(4) 0.93557(11)
C1 C 0.69637(13) -0.2597(4) 0.92385(12)
C2 C 0.57456(13) -0.1318(5) 0.91424(12)
C3 C 0.59873(13) 0.0572(5) 0.87986(12)
C4 C 0.66799(13) 0.0775(4) 0.87134(12)
C5 C 0.54595(14) 0.2188(5) 0.85571(14)
C6 C 0.79149(12) -0.0398(4) 0.88455(13)
C7 C 0.82266(13) -0.0605(4) 0.81480(13)
C8 C 0.87480(13) 0.1169(4) 0.83220(13)
C9 C 0.82447(13) 0.1859(4) 0.88923(13)
C10 C 0.89103(14) 0.2767(5) 0.77829(14)
C11 C 0.85572(14) 0.2558(5) 0.95709(13)
H1 H 0.6123 -0.3832 0.9591
H2 H 0.9478 0.1541 0.9688
H3 H 0.6841 0.2010 0.8491
H4 H 0.9561 0.2681 0.7103
H5 H 0.5701 0.3415 0.8369
H6 H 0.5150 0.1553 0.8208
H7 H 0.5182 0.2652 0.8937
H8 H 0.8179 -0.1358 0.9166
H9 H 0.9190 0.0560 0.8524
H10 H 0.7904 0.2947 0.8715
H11 H 0.9185 0.3955 0.7984
H12 H 0.8470 0.3354 0.7585
H13 H 0.8181 0.2642 0.9901
H14 H 0.8759 0.3998 0.9525

#END
