
#######################################################################
#
#                 Cambridge Crystallographic Data Centre
#                                CCDC 
#
#######################################################################
#
# If this CIF has been generated from an entry in the Cambridge 
# Structural Database, then it will include bibliographic, chemical, 
# crystal, experimental, refinement or atomic coordinate data resulting 
# from the CCDC's data processing and validation procedures.
#
#######################################################################

data_ACOKUA
_symmetry_cell_setting           orthorhombic
_symmetry_space_group_name_H-M   'P 21 21 21'
_symmetry_Int_Tables_number      19
_space_group_name_Hall           'P 2ac 2ab'
loop_
_symmetry_equiv_pos_site_id
_symmetry_equiv_pos_as_xyz
1 x,y,z
2 1/2-x,-y,1/2+z
3 1/2+x,1/2-y,-z
4 -x,1/2+y,1/2-z
_cell_length_a                   5.6950(3)
_cell_length_b                   7.5345(5)
_cell_length_c                   28.7029(17)
_cell_angle_alpha                90
_cell_angle_beta                 90
_cell_angle_gamma                90
_cell_volume                     1231.61
loop_
_atom_site_label
_atom_site_type_symbol
_atom_site_fract_x
_atom_site_fract_y
_atom_site_fract_z
C1 C 0.8770(3) 0.9162(2) 0.00314(6)
H1 H 0.7446 0.8612 0.0172
C2 C 0.8981(3) 0.9172(2) -0.04496(6)
H2 H 0.7806 0.8629 -0.0636
C3 C 1.0905(3) 0.9972(2) -0.06599(6)
H3 H 1.1049 0.9976 -0.099
C4 C 1.2610(3) 1.0764(2) -0.03870(6)
H4 H 1.3925 1.1315 -0.053
C5 C 1.2413(3) 1.0758(2) 0.00948(6)
H5 H 1.3597 1.1303 0.0279
C6 C 1.0484(3) 0.9954(2) 0.03128(5)
C7 C 1.0367(3) 0.9969(2) 0.08229(6)
H6 H 1.1705 1.0429 0.0979
C8 C 0.8600(3) 0.9413(2) 0.10963(6)
H7 H 0.7205 0.8977 0.0956
C9 C 0.8762(3) 0.9460(2) 0.15991(6)
H8 H 1.0143 0.9987 0.1723
C10 C 0.7207(3) 0.8853(2) 0.19126(5)
C11 C 0.7517(3) 0.8841(2) 0.24247(5)
C12 C 0.9535(3) 0.9602(2) 0.26242(6)
H9 H 1.067 1.0151 0.2429
C13 C 0.9891(3) 0.9563(2) 0.31020(6)
H10 H 1.1265 1.0081 0.3231
C14 C 0.8255(3) 0.8773(2) 0.33919(6)
H11 H 0.8504 0.8751 0.3719
C15 C 0.6252(3) 0.8014(2) 0.32034(5)
H12 H 0.5128 0.7468 0.3402
C16 C 0.5887(3) 0.8051(2) 0.27242(6)
H13 H 0.4506 0.753 0.2598
Cl1 Cl 0.45909(7) 0.79104(6) 0.171002(14)
C1 C 0.6230(3) 0.0838(2) 0.50314(6)
H1 H 0.7554 0.1388 0.5172
C2 C 0.6019(3) 0.0828(2) 0.45504(6)
H2 H 0.7194 0.1371 0.4364
C3 C 0.4095(3) 0.0028(2) 0.43401(6)
H3 H 0.3951 0.0024 0.401
C4 C 0.2390(3) -0.0764(2) 0.46130(6)
H4 H 0.1075 -0.1315 0.447
C5 C 0.2587(3) -0.0758(2) 0.50948(6)
H5 H 0.1403 -0.1303 0.5279
C6 C 0.4516(3) 0.0046(2) 0.53128(5)
C7 C 0.4633(3) 0.0031(2) 0.58229(6)
H6 H 0.3295 -0.0429 0.5979
C8 C 0.6400(3) 0.0587(2) 0.60963(6)
H7 H 0.7795 0.1023 0.5956
C9 C 0.6238(3) 0.0540(2) 0.65991(6)
H8 H 0.4857 0.0013 0.6723
C10 C 0.7793(3) 0.1147(2) 0.69126(5)
C11 C 0.7483(3) 0.1159(2) 0.74247(5)
C12 C 0.5465(3) 0.0398(2) 0.76242(6)
H9 H 0.433 -0.0151 0.7429
C13 C 0.5109(3) 0.0437(2) 0.81020(6)
H10 H 0.3735 -0.0081 0.8231
C14 C 0.6745(3) 0.1227(2) 0.83919(6)
H11 H 0.6496 0.1249 0.8719
C15 C 0.8748(3) 0.1986(2) 0.82034(5)
H12 H 0.9872 0.2532 0.8402
C16 C 0.9113(3) 0.1949(2) 0.77242(6)
H13 H 1.0494 0.247 0.7598
Cl1 Cl 1.04091(7) 0.20896(6) 0.671002(14)
C1 C 0.3770(3) 0.5838(2) 0.99686(6)
H1 H 0.2446 0.6388 0.9828
C2 C 0.3981(3) 0.5828(2) 1.04496(6)
H2 H 0.2806 0.6371 1.0636
C3 C 0.5905(3) 0.5028(2) 1.06599(6)
H3 H 0.6049 0.5024 1.099
C4 C 0.7610(3) 0.4236(2) 1.03870(6)
H4 H 0.8925 0.3685 1.053
C5 C 0.7413(3) 0.4242(2) 0.99052(6)
H5 H 0.8597 0.3697 0.9721
C6 C 0.5484(3) 0.5046(2) 0.96872(5)
C7 C 0.5367(3) 0.5031(2) 0.91771(6)
H6 H 0.6705 0.4571 0.9021
C8 C 0.3600(3) 0.5587(2) 0.89037(6)
H7 H 0.2205 0.6023 0.9044
C9 C 0.3762(3) 0.5540(2) 0.84009(6)
H8 H 0.5143 0.5013 0.8277
C10 C 0.2207(3) 0.6147(2) 0.80874(5)
C11 C 0.2517(3) 0.6159(2) 0.75753(5)
C12 C 0.4535(3) 0.5398(2) 0.73758(6)
H9 H 0.567 0.4849 0.7571
C13 C 0.4891(3) 0.5437(2) 0.68980(6)
H10 H 0.6265 0.4919 0.6769
C14 C 0.3255(3) 0.6227(2) 0.66081(6)
H11 H 0.3504 0.6249 0.6281
C15 C 0.1252(3) 0.6986(2) 0.67966(5)
H12 H 0.0128 0.7532 0.6598
C16 C 0.0887(3) 0.6949(2) 0.72758(6)
H13 H -0.0494 0.747 0.7402
Cl1 Cl -0.04091(7) 0.70896(6) 0.828998(14)
C1 C 0.1230(3) 0.4162(2) 0.49686(6)
H1 H 0.2554 0.3612 0.4828
C2 C 0.1019(3) 0.4172(2) 0.54496(6)
H2 H 0.2194 0.3629 0.5636
C3 C -0.0905(3) 0.4972(2) 0.56599(6)
H3 H -0.1049 0.4976 0.599
C4 C -0.2610(3) 0.5764(2) 0.53870(6)
H4 H -0.3925 0.6315 0.553
C5 C -0.2413(3) 0.5758(2) 0.49052(6)
H5 H -0.3597 0.6303 0.4721
C6 C -0.0484(3) 0.4954(2) 0.46872(5)
C7 C -0.0367(3) 0.4969(2) 0.41771(6)
H6 H -0.1705 0.5429 0.4021
C8 C 0.1400(3) 0.4413(2) 0.39037(6)
H7 H 0.2795 0.3977 0.4044
C9 C 0.1238(3) 0.4460(2) 0.34009(6)
H8 H -0.0143 0.4987 0.3277
C10 C 0.2793(3) 0.3853(2) 0.30874(5)
C11 C 0.2483(3) 0.3841(2) 0.25753(5)
C12 C 0.0465(3) 0.4602(2) 0.23758(6)
H9 H -0.067 0.5151 0.2571
C13 C 0.0109(3) 0.4563(2) 0.18980(6)
H10 H -0.1265 0.5081 0.1769
C14 C 0.1745(3) 0.3773(2) 0.16081(6)
H11 H 0.1496 0.3751 0.1281
C15 C 0.3748(3) 0.3014(2) 0.17966(5)
H12 H 0.4872 0.2468 0.1598
C16 C 0.4113(3) 0.3051(2) 0.22758(6)
H13 H 0.5494 0.253 0.2402
Cl1 Cl 0.54091(7) 0.29104(6) 0.328998(14)

#END
