./ACOQIU_from_POSCAR.cif_generated_by_CrystalShift
_symmetry_cell_setting triclinic
_symmetry_space_group_name_H-M 'P 1'
loop_
_symmetry_equiv_pos_site_id
_symmetry_equiv_pos_as_xyz
1 x,y,z
_cell_length_a 8.043300
_cell_length_b 9.076900
_cell_length_c 12.427300
_cell_angle_alpha 103.780000
_cell_angle_beta 92.678000
_cell_angle_gamma 92.933000
_cell_volume 878.401972
loop_
_atom_site_label
_atom_site_type_symbol
_atom_site_fract_x
_atom_site_fract_y
_atom_site_fract_z
H1 H 0.641800 0.730700 0.478100
H2 H 0.766600 0.338000 0.606600
H3 H 0.983700 0.214900 0.593700
H4 H 0.597000 0.853500 0.335100
H5 H 0.521000 1.012600 0.368600
H6 H 1.056300 0.071500 0.623600
H7 H 0.384400 0.966300 0.189100
H8 H 0.578700 0.971600 0.183800
H9 H 1.125700 0.296400 0.765200
H10 H 0.383900 0.695400 0.145300
H11 H 0.574400 0.711000 0.126300
H12 H 0.935600 0.313300 0.783800
H13 H 0.509000 0.826800 -0.021700
H14 H 0.438300 0.657400 -0.045300
H15 H 0.929000 0.074600 0.835500
H16 H 0.244900 0.822400 -0.096100
H17 H 0.240300 0.904900 0.029600
H18 H 1.123500 0.080200 0.831700
H19 H 0.085300 0.624400 -0.080000
H20 H 0.151200 0.636600 0.042600
H21 H 1.077600 0.164300 1.013100
H22 H -0.134700 0.689200 0.024600
H23 H -0.077600 0.835700 -0.013100
H24 H 1.134700 0.310800 0.975400
H25 H -0.123500 0.919800 0.168300
H26 H 0.071000 0.925400 0.164500
H27 H 0.848800 0.363400 0.957400
H28 H 0.064400 0.686700 0.216200
H29 H -0.125700 0.703600 0.234800
H30 H 0.914700 0.375600 1.080000
H31 H -0.056300 0.928500 0.376400
H32 H 0.016300 0.785100 0.406300
H33 H 0.759700 0.095100 0.970400
H34 H 0.233400 0.662000 0.393400
H35 H 0.755100 0.177600 1.096100
H36 H 0.561700 0.342600 1.045300
H37 H 0.491000 0.173200 1.021700
H38 H 0.553800 0.242200 0.258400
H39 H 0.425600 0.289000 0.873700
H40 H 0.616100 0.304600 0.854700
H41 H 0.848900 0.563200 0.469800
H42 H 0.421300 0.028400 0.816200
H43 H 0.446200 0.757800 0.741600
H44 H 0.358200 0.269300 0.521900
H45 H 0.615600 0.033700 0.810900
H46 H 0.151100 0.436800 0.530200
H47 H 0.479000 -0.012600 0.631400
H48 H 0.403000 0.146500 0.664900
C49 C 0.498800 0.090330 0.676700
C50 C 0.651900 0.163400 0.640960
C51 C 0.803000 0.071010 0.630160
C52 C 0.516900 0.086350 0.799090
C53 C 0.376300 0.367050 0.567070
C54 C 0.623700 0.632950 0.432930
C55 C 0.530500 0.242100 0.878410
C56 C 0.748200 0.533030 0.428600
C57 C 0.721400 0.387980 0.362330
C58 C 0.572100 0.241200 0.999400
C59 C 0.572000 0.340830 0.302080
C60 C 0.449860 0.443510 0.308200
C61 C 0.745900 0.192300 1.021260
C62 C 0.471700 0.592200 0.371830
C63 C 0.337330 0.696860 0.376470
C64 C 0.887800 0.305100 1.008570
C65 C 0.024200 0.852100 0.356170
C66 C -0.019200 0.759900 0.237290
C67 C 1.045600 0.232000 0.966970
C68 C -0.028800 0.857500 0.153580
C69 C -0.045600 0.768000 0.033030
C70 C 1.028800 0.142500 0.846420
C71 C 0.112200 0.694900 -0.008570
C72 C 0.254100 0.807700 -0.021260
C73 C 1.019200 0.240100 0.762710
C74 C 0.427900 0.758800 0.000600
C75 C 0.469500 0.757900 0.121590
C76 C 0.975800 0.147900 0.643830
C77 C 0.483100 0.913650 0.200910
C78 C 0.501200 0.909670 0.323300
C79 C 0.662670 0.303140 0.623530
C80 C 0.348100 0.836600 0.359040
C81 C 0.528300 0.407800 0.628170
C82 C 0.550140 0.556490 0.691800
C83 C 0.428000 0.659170 0.697920
C84 C 0.197000 0.928990 0.369840
C85 C 0.278600 0.612020 0.637670
C86 C 0.251800 0.466970 0.571400
O87 O 0.784130 -0.066290 0.613880
O88 O 0.215870 1.066290 0.386120
Cl89 Cl 0.737780 0.617920 0.767950
Cl90 Cl 0.122580 0.739280 0.644390
Cl91 Cl 0.262220 0.382080 0.232050
Cl92 Cl 0.877420 0.260720 0.355610

#END
