./ACOQIS_from_POSCAR.cif_generated_by_CrystalShift
_symmetry_cell_setting triclinic
_symmetry_space_group_name_H-M 'P 1'
loop_
_symmetry_equiv_pos_site_id
_symmetry_equiv_pos_as_xyz
1 x,y,z
_cell_length_a 6.933000
_cell_length_b 8.123000
_cell_length_c 19.479000
_cell_angle_alpha 90.000000
_cell_angle_beta 91.860000
_cell_angle_gamma 90.000000
_cell_volume 1096.416163
loop_
_atom_site_label
_atom_site_type_symbol
_atom_site_fract_x
_atom_site_fract_y
_atom_site_fract_z
H1 H 0.424200 1.100900 0.045100
H2 H 0.964200 1.250900 0.537100
H3 H 0.430300 0.539500 0.785300
H4 H 0.784300 0.771000 0.317600
H5 H 0.849300 1.255300 -0.024600
H6 H 0.081100 0.669000 0.809300
H7 H 1.390800 0.648300 0.214200
H8 H -0.398600 -0.102000 0.533200
H9 H 1.379000 0.497500 0.164200
H10 H 0.152900 1.013000 0.651200
H11 H 1.044100 0.530100 0.153800
H12 H 1.126500 0.833700 0.205400
H13 H -0.028500 0.508900 0.896900
H14 H 1.302900 -0.045400 0.315800
H15 H -0.397200 -0.376800 0.492500
H16 H 1.353700 -0.088300 0.432500
H17 H 0.829400 0.739100 0.111500
H18 H 0.170600 0.239100 0.888500
H19 H 1.397200 0.123200 0.507500
H20 H -0.353700 -0.588300 0.567500
H21 H 1.028500 1.008900 0.103100
H22 H 0.847100 1.513000 0.348800
H23 H -0.302900 -0.545400 0.684200
H24 H 1.398600 0.398000 0.466800
H25 H -0.126500 0.333700 0.794600
H26 H 0.918900 1.169000 0.190700
H27 H 0.569700 1.039500 0.214700
H28 H 0.575800 0.600900 0.954900
H29 H -0.044100 0.030100 0.846200
H30 H 0.548100 0.788400 0.971000
H31 H 0.484400 0.655200 1.023900
H32 H 0.190100 0.896400 0.971900
H33 H -0.379000 -0.002500 0.835800
H34 H -0.390800 0.148300 0.785800
H35 H 0.451900 1.288400 0.029000
H36 H 0.028900 0.765600 0.955500
H37 H 0.150700 0.755300 1.024600
H38 H 0.215700 0.271000 0.682400
H39 H 0.971100 1.265600 0.044500
H40 H 0.809900 1.396400 0.028100
H41 H 0.515600 1.155200 -0.023900
H42 H 0.058500 0.572100 0.478000
H43 H 0.035800 0.750900 0.462900
H44 H 0.941500 1.072100 0.522000
C45 C 0.505900 1.180400 0.024000
C46 C -0.352900 -0.011200 0.673600
C47 C 0.295300 0.503500 0.784400
C48 C 0.300000 0.675300 0.942400
C49 C 0.154200 0.783000 0.976700
C50 C 0.197600 0.379800 0.668800
C51 C 0.700000 1.175300 0.057600
C52 C -0.314500 0.052400 0.798700
C53 C 0.494100 0.680400 0.976000
C54 C -0.293800 -0.231000 0.746200
C55 C 0.845800 1.283000 0.023300
C56 C -0.123000 0.108400 0.824700
C57 C 1.352900 0.488800 0.326400
C58 C 0.704700 1.003500 0.215600
C59 C 0.103500 0.707200 0.556000
C60 C 1.352300 0.332600 0.368600
C61 C 0.815300 1.107100 0.167000
C62 C -0.321200 -0.295400 0.677400
C63 C 1.379900 0.309700 0.436900
C64 C -0.053800 0.258000 0.820300
C65 C 0.850100 1.401200 0.359000
C66 C -0.321800 -0.457400 0.654200
C67 C -0.352300 -0.167400 0.631400
C68 C 0.894000 0.985900 0.113900
C69 C 0.144200 0.590200 0.607400
C70 C 1.379200 0.145100 0.460800
C71 C -0.351900 -0.481100 0.584400
C72 C 0.812500 1.145000 0.326500
C73 C 0.869300 0.817600 0.147500
C74 C 0.130700 0.317600 0.852500
C75 C 1.351900 0.018900 0.415600
C76 C 0.187500 0.645000 0.673500
C77 C 0.855800 1.090200 0.392600
C78 C 1.321800 0.042600 0.345800
C79 C -0.379200 -0.354900 0.539200
C80 C 1.053800 0.758000 0.179700
C81 C 0.106000 0.485900 0.886100
C82 C 1.321200 0.204600 0.322600
C83 C 0.896500 1.207200 0.444000
C84 C 1.123000 0.608400 0.175300
C85 C 0.802400 0.879800 0.331200
C86 C 0.184700 0.607100 0.833000
C87 C 1.293800 0.269000 0.253800
C88 C 1.314500 0.552400 0.201300
C89 C 0.149900 0.901200 0.641000
C90 C -0.379900 -0.190300 0.563100
N91 N 0.849800 0.919500 0.394700
N92 N 1.310900 0.442300 0.259400
N93 N 0.190300 0.803900 0.694700
N94 N 0.809700 1.303900 0.305300
N95 N 0.781300 1.007200 0.286200
N96 N 0.893900 1.367800 0.424400
N97 N 0.150200 0.419500 0.605300
N98 N -0.310900 -0.057700 0.740600
N99 N 0.938900 1.172800 0.508400
N100 N 0.218700 0.507200 0.713800
N101 N 0.061100 0.672800 0.491600
N102 N 0.106100 0.867800 0.575600
O103 O 1.262100 0.200900 0.199200
O104 O 0.766800 1.005900 0.056200
O105 O 0.690400 1.211500 0.127200
O106 O 0.714000 0.836100 0.192600
O107 O -0.262100 -0.299100 0.800800
O108 O -0.379600 0.126200 0.654200
O109 O 0.233200 0.505900 0.943800
O110 O 0.309600 0.711500 0.872800
O111 O 0.286000 0.336100 0.807400
O112 O 1.379600 0.626200 0.345800

#END
