
#######################################################################
#
#                 Cambridge Crystallographic Data Centre
#                                CCDC 
#
#######################################################################
#
# If this CIF has been generated from an entry in the Cambridge 
# Structural Database, then it will include bibliographic, chemical, 
# crystal, experimental, refinement or atomic coordinate data resulting 
# from the CCDC's data processing and validation procedures.
#
#######################################################################

data_ACOWEU
_symmetry_cell_setting           monoclinic
_symmetry_space_group_name_H-M   'P 21/n'
_symmetry_Int_Tables_number      14
_space_group_name_Hall           '-P 2yn'
loop_
_symmetry_equiv_pos_site_id
_symmetry_equiv_pos_as_xyz
1 x,y,z
2 1/2-x,1/2+y,1/2-z
3 -x,-y,-z
4 1/2+x,1/2-y,1/2+z
_cell_length_a                   20.4373(6)
_cell_length_b                   6.0037(2)
_cell_length_c                   11.7476(4)
_cell_angle_alpha                90
_cell_angle_beta                 125.927(1)
_cell_angle_gamma                90
_cell_volume                     1167.21
loop_
_atom_site_label
_atom_site_type_symbol
_atom_site_fract_x
_atom_site_fract_y
_atom_site_fract_z
C1 C 0.8536(9) 0.7743(19) 0.1987(10)
C2 C 0.8822(10) 0.9716(15) 0.3011(11)
C3 C 0.8924(7) 0.8681(13) 0.4257(8)
N1 N 0.8636(4) 0.6558(11) 0.4018(5)
C4 C 0.8377(5) 0.5990(14) 0.2694(7)
O1 O 0.7920(6) 0.4420(16) 0.2072(8)
O2 O 0.9118(7) 0.9720(14) 0.5306(10)
O3 O 0.8329(3) 0.5595(14) 0.4670(7)
C5 C 0.8957(4) 0.4674(20) 0.5936(9)
O4 O 0.9641(4) 0.4752(18) 0.6238(9)
O5 O 0.8789(1) 0.3316(15) 0.6718(6)
C6 C 0.9445(4) 0.2937(14) 0.8137(7)
C7 C 0.9125(6) 0.2030(11) 0.8931(6)
S1 S 0.8525(2) -0.0487(7) 0.8064(4)
O6 O 0.9116(4) -0.2475(11) 0.8598(10)
O7 O 0.8092(5) -0.1081(12) 0.8748(9)
C8 C 0.7788(6) -0.0843(16) 0.6169(4)
H1 H 0.8000 0.8216 0.0974
H2 H 0.9008 0.7220 0.1891
H3 H 0.9381 1.0362 0.3239
H4 H 0.8366 1.1001 0.2571
H5 H 0.9855 0.1745 0.8178
H6 H 0.9761 0.4484 0.8609
H7 H 0.9626 0.1625 0.9995
H8 H 0.8751 0.3274 0.8952
H9 H 0.7595 0.0771 0.5671
H10 H 0.8062 -0.1754 0.5755
H11 H 0.7273 -0.1754 0.5960
C1 C 0.6464(9) 1.2743(19) 1.3013(10)
C2 C 0.6178(10) 1.4716(15) 1.1989(11)
C3 C 0.6076(7) 1.3681(13) 1.0743(8)
N1 N 0.6364(4) 1.1558(11) 1.0982(5)
C4 C 0.6623(5) 1.0990(14) 1.2306(7)
O1 O 0.7080(6) 0.9420(16) 1.2928(8)
O2 O 0.5882(7) 1.4720(14) 0.9694(10)
O3 O 0.6671(3) 1.0595(14) 1.0330(7)
C5 C 0.6043(4) 0.9674(20) 0.9064(9)
O4 O 0.5359(4) 0.9752(18) 0.8762(9)
O5 O 0.6211(1) 0.8316(15) 0.8282(6)
C6 C 0.5555(4) 0.7937(14) 0.6863(7)
C7 C 0.5875(6) 0.7030(11) 0.6069(6)
S1 S 0.6475(2) 0.4513(7) 0.6936(4)
O6 O 0.5884(4) 0.2525(11) 0.6402(10)
O7 O 0.6908(5) 0.3919(12) 0.6252(9)
C8 C 0.7212(6) 0.4157(16) 0.8831(4)
H1 H 0.7000 1.3216 1.4026
H2 H 0.5992 1.2220 1.3109
H3 H 0.5619 1.5362 1.1761
H4 H 0.6634 1.6001 1.2429
H5 H 0.5145 0.6745 0.6822
H6 H 0.5239 0.9484 0.6391
H7 H 0.5374 0.6625 0.5005
H8 H 0.6249 0.8274 0.6048
H9 H 0.7405 0.5771 0.9329
H10 H 0.6938 0.3246 0.9245
H11 H 0.7727 0.3246 0.9040
C1 C 0.1464(9) 0.2257(19) 0.8013(10)
C2 C 0.1178(10) 0.0284(15) 0.6989(11)
C3 C 0.1076(7) 0.1319(13) 0.5743(8)
N1 N 0.1364(4) 0.3442(11) 0.5982(5)
C4 C 0.1623(5) 0.4010(14) 0.7306(7)
O1 O 0.2080(6) 0.5580(16) 0.7928(8)
O2 O 0.0882(7) 0.0280(14) 0.4694(10)
O3 O 0.1671(3) 0.4405(14) 0.5330(7)
C5 C 0.1043(4) 0.5326(20) 0.4064(9)
O4 O 0.0359(4) 0.5248(18) 0.3762(9)
O5 O 0.1211(1) 0.6684(15) 0.3282(6)
C6 C 0.0555(4) 0.7063(14) 0.1863(7)
C7 C 0.0875(6) 0.7970(11) 0.1069(6)
S1 S 0.1475(2) 1.0487(7) 0.1936(4)
O6 O 0.0884(4) 1.2475(11) 0.1402(10)
O7 O 0.1908(5) 1.1081(12) 0.1252(9)
C8 C 0.2212(6) 1.0843(16) 0.3831(4)
H1 H 0.2000 0.1784 0.9026
H2 H 0.0992 0.2780 0.8109
H3 H 0.0619 -0.0362 0.6761
H4 H 0.1634 -0.1001 0.7429
H5 H 0.0145 0.8255 0.1822
H6 H 0.0239 0.5516 0.1391
H7 H 0.0374 0.8375 0.0005
H8 H 0.1249 0.6726 0.1048
H9 H 0.2405 0.9229 0.4329
H10 H 0.1938 1.1754 0.4245
H11 H 0.2727 1.1754 0.4040
C1 C 0.3536(9) -0.2743(19) -0.3013(10)
C2 C 0.3822(10) -0.4716(15) -0.1989(11)
C3 C 0.3924(7) -0.3681(13) -0.0743(8)
N1 N 0.3636(4) -0.1558(11) -0.0982(5)
C4 C 0.3377(5) -0.0990(14) -0.2306(7)
O1 O 0.2920(6) 0.0580(16) -0.2928(8)
O2 O 0.4118(7) -0.4720(14) 0.0306(10)
O3 O 0.3329(3) -0.0595(14) -0.0330(7)
C5 C 0.3957(4) 0.0326(20) 0.0936(9)
O4 O 0.4641(4) 0.0248(18) 0.1238(9)
O5 O 0.3789(1) 0.1684(15) 0.1718(6)
C6 C 0.4445(4) 0.2063(14) 0.3137(7)
C7 C 0.4125(6) 0.2970(11) 0.3931(6)
S1 S 0.3525(2) 0.5487(7) 0.3064(4)
O6 O 0.4116(4) 0.7475(11) 0.3598(10)
O7 O 0.3092(5) 0.6081(12) 0.3748(9)
C8 C 0.2788(6) 0.5843(16) 0.1169(4)
H1 H 0.3000 -0.3216 -0.4026
H2 H 0.4008 -0.2220 -0.3109
H3 H 0.4381 -0.5362 -0.1761
H4 H 0.3366 -0.6001 -0.2429
H5 H 0.4855 0.3255 0.3178
H6 H 0.4761 0.0516 0.3609
H7 H 0.4626 0.3375 0.4995
H8 H 0.3751 0.1726 0.3952
H9 H 0.2595 0.4229 0.0671
H10 H 0.3062 0.6754 0.0755
H11 H 0.2273 0.6754 0.0960

#END
