
#######################################################################
#
#                 Cambridge Crystallographic Data Centre
#                                CCDC 
#
#######################################################################
#
# If this CIF has been generated from an entry in the Cambridge 
# Structural Database, then it will include bibliographic, chemical, 
# crystal, experimental, refinement or atomic coordinate data resulting 
# from the CCDC's data processing and validation procedures.
#
#######################################################################

data_ACOXUM
_symmetry_cell_setting           monoclinic
_symmetry_space_group_name_H-M   'P 21/c'
_symmetry_Int_Tables_number      14
_space_group_name_Hall           '-P 2ybc'
loop_
_symmetry_equiv_pos_site_id
_symmetry_equiv_pos_as_xyz
1 x,y,z
2 -x,1/2+y,1/2-z
3 -x,-y,-z
4 x,1/2-y,1/2+z
_cell_length_a                   7.8310(16)
_cell_length_b                   17.277(4)
_cell_length_c                   8.4309(17)
_cell_angle_alpha                90
_cell_angle_beta                 103.18(3)
_cell_angle_gamma                90
_cell_volume                     1110.62
loop_
_atom_site_label
_atom_site_type_symbol
_atom_site_fract_x
_atom_site_fract_y
_atom_site_fract_z
O1 O 0.12583(10) 0.47494(4) 0.79573(10)
O2 O 0.31442(11) 0.58694(5) 0.44629(10)
O3 O 0.29051(11) 0.45993(5) 0.29215(10)
C1 C 0.16989(13) 0.55135(6) 0.81640(13)
C2 C 0.12421(15) 0.59053(7) 0.94501(14)
C3 C 0.16367(15) 0.66835(7) 0.96736(14)
C4 C 0.24854(15) 0.70835(7) 0.86352(14)
C5 C 0.29188(15) 0.66931(6) 0.73536(14)
C6 C 0.25239(13) 0.59069(6) 0.70914(13)
C7 C 0.28196(13) 0.54989(6) 0.56483(13)
C8 C 0.26127(13) 0.46746(6) 0.56359(12)
C9 C 0.26356(14) 0.42624(7) 0.42529(13)
C10 C 0.23188(16) 0.34098(7) 0.41024(14)
C11 C 0.23781(16) 0.30164(7) 0.57344(15)
C12 C 0.14735(15) 0.35066(6) 0.68076(14)
C13 C 0.24042(14) 0.42825(6) 0.71844(13)
C14 C 0.41593(16) 0.41967(7) 0.84178(15)
H1 H 0.0669(19) 0.5629(8) 1.0161(18)
H2 H 0.1330(19) 0.6946(9) 1.0641(18)
H3 H 0.2786(19) 0.7647(9) 0.8818(18)
H4 H 0.3504(17) 0.6952(8) 0.6606(16)
H5 H 0.322(2) 0.3189(10) 0.352(2)
H6 H 0.115(2) 0.3344(9) 0.3367(19)
H7 H 0.180(2) 0.2501(10) 0.5566(19)
H8 H 0.364(2) 0.2930(9) 0.6303(19)
H9 H 0.1483(18) 0.3240(8) 0.7869(18)
H10 H 0.0245(19) 0.3611(8) 0.6235(17)
H11 H 0.4743(18) 0.4706(8) 0.8655(17)
H12 H 0.494(2) 0.3834(9) 0.7956(18)
H13 H 0.400(2) 0.3980(9) 0.942(2)
H14 H 0.304(3) 0.5167(13) 0.324(2)
O1 O 0.87417(10) 0.97494(4) 0.70427(10)
O2 O 0.68558(11) 1.08694(5) 1.05371(10)
O3 O 0.70949(11) 0.95993(5) 1.20785(10)
C1 C 0.83011(13) 1.05135(6) 0.68360(13)
C2 C 0.87579(15) 1.09053(7) 0.55499(14)
C3 C 0.83633(15) 1.16835(7) 0.53264(14)
C4 C 0.75146(15) 1.20835(7) 0.63648(14)
C5 C 0.70812(15) 1.16931(6) 0.76464(14)
C6 C 0.74761(13) 1.09069(6) 0.79086(13)
C7 C 0.71804(13) 1.04989(6) 0.93517(13)
C8 C 0.73873(13) 0.96746(6) 0.93641(12)
C9 C 0.73644(14) 0.92624(7) 1.07471(13)
C10 C 0.76812(16) 0.84098(7) 1.08976(14)
C11 C 0.76219(16) 0.80164(7) 0.92656(15)
C12 C 0.85265(15) 0.85066(6) 0.81924(14)
C13 C 0.75958(14) 0.92825(6) 0.78156(13)
C14 C 0.58407(16) 0.91967(7) 0.65822(15)
H1 H 0.9331(19) 1.0629(8) 0.4839(18)
H2 H 0.8670(19) 1.1946(9) 0.4359(18)
H3 H 0.7214(19) 1.2647(9) 0.6182(18)
H4 H 0.6496(17) 1.1952(8) 0.8394(16)
H5 H 0.678(2) 0.8189(10) 1.148(2)
H6 H 0.885(2) 0.8344(9) 1.1633(19)
H7 H 0.820(2) 0.7501(10) 0.9434(19)
H8 H 0.636(2) 0.7930(9) 0.8697(19)
H9 H 0.8517(18) 0.8240(8) 0.7131(18)
H10 H 0.9755(19) 0.8611(8) 0.8765(17)
H11 H 0.5257(18) 0.9706(8) 0.6345(17)
H12 H 0.506(2) 0.8834(9) 0.7044(18)
H13 H 0.600(2) 0.8980(9) 0.558(2)
H14 H 0.696(3) 1.0167(13) 1.176(2)
O1 O 0.87417(10) 0.52506(4) 0.20427(10)
O2 O 0.68558(11) 0.41306(5) 0.55371(10)
O3 O 0.70949(11) 0.54007(5) 0.70785(10)
C1 C 0.83011(13) 0.44865(6) 0.18360(13)
C2 C 0.87579(15) 0.40947(7) 0.05499(14)
C3 C 0.83633(15) 0.33165(7) 0.03264(14)
C4 C 0.75146(15) 0.29165(7) 0.13648(14)
C5 C 0.70812(15) 0.33069(6) 0.26464(14)
C6 C 0.74761(13) 0.40931(6) 0.29086(13)
C7 C 0.71804(13) 0.45011(6) 0.43517(13)
C8 C 0.73873(13) 0.53254(6) 0.43641(12)
C9 C 0.73644(14) 0.57376(7) 0.57471(13)
C10 C 0.76812(16) 0.65902(7) 0.58976(14)
C11 C 0.76219(16) 0.69836(7) 0.42656(15)
C12 C 0.85265(15) 0.64934(6) 0.31924(14)
C13 C 0.75958(14) 0.57175(6) 0.28156(13)
C14 C 0.58407(16) 0.58033(7) 0.15822(15)
H1 H 0.9331(19) 0.4371(8) -0.0161(18)
H2 H 0.8670(19) 0.3054(9) -0.0641(18)
H3 H 0.7214(19) 0.2353(9) 0.1182(18)
H4 H 0.6496(17) 0.3048(8) 0.3394(16)
H5 H 0.678(2) 0.6811(10) 0.648(2)
H6 H 0.885(2) 0.6656(9) 0.6633(19)
H7 H 0.820(2) 0.7499(10) 0.4434(19)
H8 H 0.636(2) 0.7070(9) 0.3697(19)
H9 H 0.8517(18) 0.6760(8) 0.2131(18)
H10 H 0.9755(19) 0.6389(8) 0.3765(17)
H11 H 0.5257(18) 0.5294(8) 0.1345(17)
H12 H 0.506(2) 0.6166(9) 0.2044(18)
H13 H 0.600(2) 0.6020(9) 0.058(2)
H14 H 0.696(3) 0.4833(13) 0.676(2)
O1 O 0.12583(10) 0.02506(4) 0.29573(10)
O2 O 0.31442(11) -0.08694(5) -0.05371(10)
O3 O 0.29051(11) 0.04007(5) -0.20785(10)
C1 C 0.16989(13) -0.05135(6) 0.31640(13)
C2 C 0.12421(15) -0.09053(7) 0.44501(14)
C3 C 0.16367(15) -0.16835(7) 0.46736(14)
C4 C 0.24854(15) -0.20835(7) 0.36352(14)
C5 C 0.29188(15) -0.16931(6) 0.23536(14)
C6 C 0.25239(13) -0.09069(6) 0.20914(13)
C7 C 0.28196(13) -0.04989(6) 0.06483(13)
C8 C 0.26127(13) 0.03254(6) 0.06359(12)
C9 C 0.26356(14) 0.07376(7) -0.07471(13)
C10 C 0.23188(16) 0.15902(7) -0.08976(14)
C11 C 0.23781(16) 0.19836(7) 0.07344(15)
C12 C 0.14735(15) 0.14934(6) 0.18076(14)
C13 C 0.24042(14) 0.07175(6) 0.21844(13)
C14 C 0.41593(16) 0.08033(7) 0.34178(15)
H1 H 0.0669(19) -0.0629(8) 0.5161(18)
H2 H 0.1330(19) -0.1946(9) 0.5641(18)
H3 H 0.2786(19) -0.2647(9) 0.3818(18)
H4 H 0.3504(17) -0.1952(8) 0.1606(16)
H5 H 0.322(2) 0.1811(10) -0.148(2)
H6 H 0.115(2) 0.1656(9) -0.1633(19)
H7 H 0.180(2) 0.2499(10) 0.0566(19)
H8 H 0.364(2) 0.2070(9) 0.1303(19)
H9 H 0.1483(18) 0.1760(8) 0.2869(18)
H10 H 0.0245(19) 0.1389(8) 0.1235(17)
H11 H 0.4743(18) 0.0294(8) 0.3655(17)
H12 H 0.494(2) 0.1166(9) 0.2956(18)
H13 H 0.400(2) 0.1020(9) 0.442(2)
H14 H 0.304(3) -0.0167(13) -0.176(2)

#END
