
#######################################################################
#
#                 Cambridge Crystallographic Data Centre
#                                CCDC 
#
#######################################################################
#
# If this CIF has been generated from an entry in the Cambridge 
# Structural Database, then it will include bibliographic, chemical, 
# crystal, experimental, refinement or atomic coordinate data resulting 
# from the CCDC's data processing and validation procedures.
#
#######################################################################

data_ACPLCU20
_symmetry_cell_setting           monoclinic
_symmetry_space_group_name_H-M   'P 21/c'
_symmetry_Int_Tables_number      14
_space_group_name_Hall           '-P 2ybc'
loop_
_symmetry_equiv_pos_site_id
_symmetry_equiv_pos_as_xyz
1 x,y,z
2 -x,1/2+y,1/2-z
3 -x,-y,-z
4 x,1/2-y,1/2+z
_cell_length_a                   8.258(3)
_cell_length_b                   19.070(9)
_cell_length_c                   16.755(3)
_cell_angle_alpha                90
_cell_angle_beta                 111.79(2)
_cell_angle_gamma                90
_cell_volume                     2450.05
loop_
_atom_site_label
_atom_site_type_symbol
_atom_site_fract_x
_atom_site_fract_y
_atom_site_fract_z
Cu1 Cu 0.3788(1) 0.33356(3) 0.32675(3)
N1 N 0.1697(5) 0.2776(2) 0.2387(2)
C1 C 0.0931(8) 0.2185(3) 0.2463(3)
C2 C -0.0365(8) 0.1863(3) 0.1782(4)
C3 C -0.0876(7) 0.2156(3) 0.0990(4)
C4 C -0.0106(7) 0.2782(3) 0.0865(3)
C5 C -0.0532(8) 0.3133(3) 0.0058(3)
C6 C 0.0257(8) 0.3720(3) -0.0013(3)
C7 C 0.1567(7) 0.4042(3) 0.0721(3)
C8 C 0.2456(7) 0.4660(3) 0.0692(3)
C9 C 0.3703(8) 0.4901(3) 0.1421(4)
C10 C 0.4088(7) 0.4532(3) 0.2186(3)
N2 N 0.3267(5) 0.3953(2) 0.2243(2)
C11 C 0.2010(6) 0.3706(3) 0.1520(3)
C12 C 0.1177(6) 0.3071(2) 0.1594(3)
N3 N 0.3054(5) 0.4030(2) 0.4071(2)
C13 C 0.2448(7) 0.4671(3) 0.3954(3)
C14 C 0.2178(8) 0.5059(3) 0.4597(4)
C15 C 0.2556(8) 0.4780(3) 0.5383(4)
C16 C 0.3217(7) 0.4096(3) 0.5544(3)
C17 C 0.3701(8) 0.3756(3) 0.6353(3)
C18 C 0.4338(8) 0.3105(3) 0.6475(3)
C19 C 0.4549(6) 0.2715(3) 0.5784(3)
C20 C 0.5179(7) 0.2024(3) 0.5851(4)
C21 C 0.5281(7) 0.1698(3) 0.5153(4)
C22 C 0.4793(7) 0.2059(3) 0.4376(3)
N4 N 0.4218(5) 0.2707(2) 0.4285(2)
C23 C 0.4070(6) 0.3039(3) 0.4973(3)
C24 C 0.3440(6) 0.3744(3) 0.4861(3)
O1 O 0.6547(6) 0.3679(2) 0.3859(3)
O2 O 0.6315(7) 0.2822(2) 0.3092(2)
C25 C 0.7143(6) 0.3277(2) 0.3512(3)
C26 C 0.8969(10) 0.3373(5) 0.3600(7)
H1 H 0.126 0.198 0.298
H2 H -0.086 0.147 0.186
H3 H -0.170 0.195 0.055
H4 H -0.135 0.295 -0.041
H5 H -0.003 0.392 -0.053
H6 H 0.220 0.489 0.020
H7 H 0.428 0.529 0.141
H8 H 0.492 0.469 0.266
H9 H 0.220 0.487 0.344
H10 H 0.175 0.549 0.449
H11 H 0.239 0.503 0.580
H12 H 0.358 0.398 0.679
H13 H 0.464 0.291 0.699
H14 H 0.551 0.180 0.635
H15 H 0.566 0.126 0.519
H16 H 0.488 0.184 0.392
Cu1 Cu 0.6212(1) 0.83356(3) 0.17325(3)
N1 N 0.8303(5) 0.7776(2) 0.2613(2)
C1 C 0.9069(8) 0.7185(3) 0.2537(3)
C2 C 1.0365(8) 0.6863(3) 0.3218(4)
C3 C 1.0876(7) 0.7156(3) 0.4010(4)
C4 C 1.0106(7) 0.7782(3) 0.4135(3)
C5 C 1.0532(8) 0.8133(3) 0.4942(3)
C6 C 0.9743(8) 0.8720(3) 0.5013(3)
C7 C 0.8433(7) 0.9042(3) 0.4279(3)
C8 C 0.7544(7) 0.9660(3) 0.4308(3)
C9 C 0.6297(8) 0.9901(3) 0.3579(4)
C10 C 0.5912(7) 0.9532(3) 0.2814(3)
N2 N 0.6733(5) 0.8953(2) 0.2757(2)
C11 C 0.7990(6) 0.8706(3) 0.3480(3)
C12 C 0.8823(6) 0.8071(2) 0.3406(3)
N3 N 0.6946(5) 0.9030(2) 0.0929(2)
C13 C 0.7552(7) 0.9671(3) 0.1046(3)
C14 C 0.7822(8) 1.0059(3) 0.0403(4)
C15 C 0.7444(8) 0.9780(3) -0.0383(4)
C16 C 0.6783(7) 0.9096(3) -0.0544(3)
C17 C 0.6299(8) 0.8756(3) -0.1353(3)
C18 C 0.5662(8) 0.8105(3) -0.1475(3)
C19 C 0.5451(6) 0.7715(3) -0.0784(3)
C20 C 0.4821(7) 0.7024(3) -0.0851(4)
C21 C 0.4719(7) 0.6698(3) -0.0153(4)
C22 C 0.5207(7) 0.7059(3) 0.0624(3)
N4 N 0.5782(5) 0.7707(2) 0.0715(2)
C23 C 0.5930(6) 0.8039(3) 0.0027(3)
C24 C 0.6560(6) 0.8744(3) 0.0139(3)
O1 O 0.3453(6) 0.8679(2) 0.1141(3)
O2 O 0.3685(7) 0.7822(2) 0.1908(2)
C25 C 0.2857(6) 0.8277(2) 0.1488(3)
C26 C 0.1031(10) 0.8373(5) 0.1400(7)
H1 H 0.874 0.698 0.202
H2 H 1.086 0.647 0.314
H3 H 1.170 0.695 0.445
H4 H 1.135 0.795 0.541
H5 H 1.003 0.892 0.553
H6 H 0.780 0.989 0.480
H7 H 0.572 1.029 0.359
H8 H 0.508 0.969 0.234
H9 H 0.780 0.987 0.156
H10 H 0.825 1.049 0.051
H11 H 0.761 1.003 -0.080
H12 H 0.642 0.898 -0.179
H13 H 0.536 0.791 -0.199
H14 H 0.449 0.680 -0.135
H15 H 0.434 0.626 -0.019
H16 H 0.512 0.684 0.108
Cu1 Cu 0.6212(1) 0.66644(3) 0.67325(3)
N1 N 0.8303(5) 0.7224(2) 0.7613(2)
C1 C 0.9069(8) 0.7815(3) 0.7537(3)
C2 C 1.0365(8) 0.8137(3) 0.8218(4)
C3 C 1.0876(7) 0.7844(3) 0.9010(4)
C4 C 1.0106(7) 0.7218(3) 0.9135(3)
C5 C 1.0532(8) 0.6867(3) 0.9942(3)
C6 C 0.9743(8) 0.6280(3) 1.0013(3)
C7 C 0.8433(7) 0.5958(3) 0.9279(3)
C8 C 0.7544(7) 0.5340(3) 0.9308(3)
C9 C 0.6297(8) 0.5099(3) 0.8579(4)
C10 C 0.5912(7) 0.5468(3) 0.7814(3)
N2 N 0.6733(5) 0.6047(2) 0.7757(2)
C11 C 0.7990(6) 0.6294(3) 0.8480(3)
C12 C 0.8823(6) 0.6929(2) 0.8406(3)
N3 N 0.6946(5) 0.5970(2) 0.5929(2)
C13 C 0.7552(7) 0.5329(3) 0.6046(3)
C14 C 0.7822(8) 0.4941(3) 0.5403(4)
C15 C 0.7444(8) 0.5220(3) 0.4617(4)
C16 C 0.6783(7) 0.5904(3) 0.4456(3)
C17 C 0.6299(8) 0.6244(3) 0.3647(3)
C18 C 0.5662(8) 0.6895(3) 0.3525(3)
C19 C 0.5451(6) 0.7285(3) 0.4216(3)
C20 C 0.4821(7) 0.7976(3) 0.4149(4)
C21 C 0.4719(7) 0.8302(3) 0.4847(4)
C22 C 0.5207(7) 0.7941(3) 0.5624(3)
N4 N 0.5782(5) 0.7293(2) 0.5715(2)
C23 C 0.5930(6) 0.6961(3) 0.5027(3)
C24 C 0.6560(6) 0.6256(3) 0.5139(3)
O1 O 0.3453(6) 0.6321(2) 0.6141(3)
O2 O 0.3685(7) 0.7178(2) 0.6908(2)
C25 C 0.2857(6) 0.6723(2) 0.6488(3)
C26 C 0.1031(10) 0.6627(5) 0.6400(7)
H1 H 0.874 0.802 0.702
H2 H 1.086 0.853 0.814
H3 H 1.170 0.805 0.945
H4 H 1.135 0.705 1.041
H5 H 1.003 0.608 1.053
H6 H 0.780 0.511 0.980
H7 H 0.572 0.471 0.859
H8 H 0.508 0.531 0.734
H9 H 0.780 0.513 0.656
H10 H 0.825 0.451 0.551
H11 H 0.761 0.497 0.420
H12 H 0.642 0.602 0.321
H13 H 0.536 0.709 0.301
H14 H 0.449 0.820 0.365
H15 H 0.434 0.874 0.481
H16 H 0.512 0.816 0.608
Cu1 Cu 0.3788(1) 0.16644(3) 0.82675(3)
N1 N 0.1697(5) 0.2224(2) 0.7387(2)
C1 C 0.0931(8) 0.2815(3) 0.7463(3)
C2 C -0.0365(8) 0.3137(3) 0.6782(4)
C3 C -0.0876(7) 0.2844(3) 0.5990(4)
C4 C -0.0106(7) 0.2218(3) 0.5865(3)
C5 C -0.0532(8) 0.1867(3) 0.5058(3)
C6 C 0.0257(8) 0.1280(3) 0.4987(3)
C7 C 0.1567(7) 0.0958(3) 0.5721(3)
C8 C 0.2456(7) 0.0340(3) 0.5692(3)
C9 C 0.3703(8) 0.0099(3) 0.6421(4)
C10 C 0.4088(7) 0.0468(3) 0.7186(3)
N2 N 0.3267(5) 0.1047(2) 0.7243(2)
C11 C 0.2010(6) 0.1294(3) 0.6520(3)
C12 C 0.1177(6) 0.1929(2) 0.6594(3)
N3 N 0.3054(5) 0.0970(2) 0.9071(2)
C13 C 0.2448(7) 0.0329(3) 0.8954(3)
C14 C 0.2178(8) -0.0059(3) 0.9597(4)
C15 C 0.2556(8) 0.0220(3) 1.0383(4)
C16 C 0.3217(7) 0.0904(3) 1.0544(3)
C17 C 0.3701(8) 0.1244(3) 1.1353(3)
C18 C 0.4338(8) 0.1895(3) 1.1475(3)
C19 C 0.4549(6) 0.2285(3) 1.0784(3)
C20 C 0.5179(7) 0.2976(3) 1.0851(4)
C21 C 0.5281(7) 0.3302(3) 1.0153(4)
C22 C 0.4793(7) 0.2941(3) 0.9376(3)
N4 N 0.4218(5) 0.2293(2) 0.9285(2)
C23 C 0.4070(6) 0.1961(3) 0.9973(3)
C24 C 0.3440(6) 0.1256(3) 0.9861(3)
O1 O 0.6547(6) 0.1321(2) 0.8859(3)
O2 O 0.6315(7) 0.2178(2) 0.8092(2)
C25 C 0.7143(6) 0.1723(2) 0.8512(3)
C26 C 0.8969(10) 0.1627(5) 0.8600(7)
H1 H 0.126 0.302 0.798
H2 H -0.086 0.353 0.686
H3 H -0.170 0.305 0.555
H4 H -0.135 0.205 0.459
H5 H -0.003 0.108 0.447
H6 H 0.220 0.011 0.520
H7 H 0.428 -0.029 0.641
H8 H 0.492 0.031 0.766
H9 H 0.220 0.013 0.844
H10 H 0.175 -0.049 0.949
H11 H 0.239 -0.003 1.080
H12 H 0.358 0.102 1.179
H13 H 0.464 0.209 1.199
H14 H 0.551 0.320 1.135
H15 H 0.566 0.374 1.019
H16 H 0.488 0.316 0.892
Cl1 Cl 0.1528(2) 0.0147(1) 0.3138(1)
O3 O 0.1695(6) 0.0101(2) 0.2332(3)
O4 O 0.2672(6) 0.0683(2) 0.3614(3)
O5 O -0.0211(5) 0.0351(2) 0.3027(2)
O6 O 0.1942(7) -0.0484(2) 0.3564(3)
Cl1 Cl 0.8472(2) 0.5147(1) 0.1862(1)
O3 O 0.8305(6) 0.5101(2) 0.2668(3)
O4 O 0.7328(6) 0.5683(2) 0.1386(3)
O5 O 1.0211(5) 0.5351(2) 0.1973(2)
O6 O 0.8058(7) 0.4516(2) 0.1436(3)
Cl1 Cl 0.8472(2) 0.9853(1) 0.6862(1)
O3 O 0.8305(6) 0.9899(2) 0.7668(3)
O4 O 0.7328(6) 0.9317(2) 0.6386(3)
O5 O 1.0211(5) 0.9649(2) 0.6973(2)
O6 O 0.8058(7) 1.0484(2) 0.6436(3)
Cl1 Cl 0.1528(2) 0.4853(1) 0.8138(1)
O3 O 0.1695(6) 0.4899(2) 0.7332(3)
O4 O 0.2672(6) 0.4317(2) 0.8614(3)
O5 O -0.0211(5) 0.4649(2) 0.8027(2)
O6 O 0.1942(7) 0.5484(2) 0.8564(3)

#END
