./ACRDIN05_from_POSCAR.cif_generated_by_CrystalShift
_symmetry_cell_setting triclinic
_symmetry_space_group_name_H-M 'P 1'
loop_
_symmetry_equiv_pos_site_id
_symmetry_equiv_pos_as_xyz
1 x,y,z
_cell_length_a 6.174000
_cell_length_b 23.497000
_cell_length_c 12.868000
_cell_angle_alpha 90.000000
_cell_angle_beta 96.483000
_cell_angle_gamma 90.000000
_cell_volume 1854.829683
loop_
_atom_site_label
_atom_site_type_symbol
_atom_site_fract_x
_atom_site_fract_y
_atom_site_fract_z
H1 H 0.389700 0.308600 0.893900
H2 H 0.256800 0.576600 0.598600
H3 H 1.016300 0.112300 0.283700
H4 H 0.471500 0.421200 0.401900
H5 H 0.942200 0.049000 0.147200
H6 H 0.712900 0.378300 0.303200
H7 H 0.600600 0.051500 0.044600
H8 H 1.022500 0.427500 0.260900
H9 H 0.338200 0.115300 0.078500
H10 H 1.098100 0.518100 0.319500
H11 H 0.085500 0.265300 0.281400
H12 H 0.625300 0.718600 0.639300
H13 H 0.130400 0.324500 0.423500
H14 H 0.991900 0.399100 0.929500
H15 H 0.456000 0.325900 0.535900
H16 H 0.879700 0.318800 1.041500
H17 H 0.743700 0.268300 0.503100
H18 H 0.625300 0.281400 1.139300
H19 H 0.889700 0.191400 0.393900
H20 H 0.307200 0.332400 1.163800
H21 H 0.256800 0.423400 1.098600
H22 H 0.471500 0.578800 0.901900
H23 H 0.712900 0.621700 0.803200
H24 H 1.022500 0.572500 0.760900
H25 H 1.098100 0.481900 0.819500
H26 H 1.016300 0.887700 0.783700
H27 H 0.491900 0.100900 0.429500
H28 H 0.942200 0.951000 0.647200
H29 H 0.379700 0.181200 0.541500
H30 H 0.600600 0.948500 0.544600
H31 H 0.125300 0.218600 0.639300
H32 H 0.338200 0.884700 0.578500
H33 H -0.192800 0.167600 0.663800
H34 H 0.085500 0.734700 0.781400
H35 H -0.243200 0.076600 0.598600
H36 H 0.130400 0.675500 0.923500
H37 H -0.028500 -0.078800 0.401900
H38 H 0.456000 0.674100 1.035900
H39 H 0.212900 -0.121700 0.303200
H40 H 0.743700 0.731700 1.003100
H41 H 0.522500 -0.072500 0.260900
H42 H 0.889700 0.808600 0.893900
H43 H 0.598100 0.018100 0.319500
H44 H 0.879700 0.681200 0.541500
H45 H 0.491900 0.899100 0.929500
H46 H 0.379700 0.818800 1.041500
H47 H 0.125300 0.781400 1.139300
H48 H -0.192800 0.832400 1.163800
H49 H 0.516300 0.612300 0.283700
H50 H -0.243200 0.923400 1.098600
H51 H 0.442200 0.549000 0.147200
H52 H -0.028500 1.078800 0.901900
H53 H 0.100600 0.551500 0.044600
H54 H 0.212900 1.121700 0.803200
H55 H -0.161800 0.615300 0.078500
H56 H 0.522500 1.072500 0.760900
H57 H -0.414500 0.765300 0.281400
H58 H 0.598100 0.981900 0.819500
H59 H -0.369600 0.824500 0.423500
H60 H 0.307200 0.667600 0.663800
H61 H -0.044000 0.825900 0.535900
H62 H 0.243700 0.231700 1.003100
H63 H 0.243700 0.768300 0.503100
H64 H -0.044000 0.174100 1.035900
H65 H 0.389700 0.691400 0.393900
H66 H -0.369600 0.175500 0.923500
H67 H -0.414500 0.234700 0.781400
H68 H -0.161800 0.384700 0.578500
H69 H 0.100600 0.448500 0.544600
H70 H 0.991900 0.600900 0.429500
H71 H 0.442200 0.451000 0.647200
H72 H 0.516300 0.387700 0.783700
C73 C 0.335100 0.424090 0.662300
C74 C 0.378000 0.386830 0.743070
C75 C 0.129700 0.422550 0.601000
C76 C 0.087800 0.728070 0.372000
C77 C -0.025600 0.384860 0.621000
C78 C -0.112400 0.726860 0.304500
C79 C -0.281100 0.235270 0.826200
C80 C 0.012200 0.654430 0.204800
C81 C -0.253700 0.200030 0.910000
C82 C 0.219700 0.653160 0.267400
C83 C -0.058500 0.198860 0.977300
C84 C 0.253800 0.690910 0.351200
C85 C 0.110300 0.233300 0.958500
C86 C 0.110300 0.766700 0.458500
C87 C 0.253800 0.309090 0.851200
C88 C -0.058500 0.801140 0.477300
C89 C 0.219700 0.346840 0.767400
C90 C 0.012200 0.345570 0.704800
C91 C -0.112400 0.273140 0.804500
C92 C 0.087800 0.271930 0.872000
C93 C 0.866200 0.580360 0.443830
C94 C 0.472000 1.001000 0.837500
C95 C -0.253700 0.799970 0.410000
C96 C 0.426400 1.054300 0.803000
C97 C -0.281100 0.764730 0.326200
C98 C 0.239300 1.083960 0.827800
C99 C -0.025600 0.615140 0.121000
C100 C 0.097600 1.058770 0.886500
C101 C 0.129700 0.577450 0.101000
C102 C -0.117700 0.902420 1.085300
C103 C 0.335100 0.575910 0.162300
C104 C -0.086600 0.848990 1.125200
C105 C 0.378000 0.613170 0.243070
C106 C 0.103000 0.818130 1.109200
C107 C 0.828300 0.526390 0.401520
C108 C 0.253400 0.840150 1.051800
C109 C 0.587800 0.771930 0.872000
C110 C 0.366200 0.919640 0.943830
C111 C 0.387600 0.773140 0.804500
C112 C 0.328300 0.973610 0.901520
C113 C 0.135900 1.002380 0.925500
C114 C 0.033700 0.926920 1.024720
C115 C 0.222600 0.895200 1.006930
C116 C 0.512200 0.845570 0.704800
C117 C 0.472000 -0.001000 0.337500
C118 C 0.719700 0.846840 0.767400
C119 C 0.426400 -0.054300 0.303000
C120 C 0.753800 0.809090 0.851200
C121 C 0.239300 -0.083960 0.327800
C122 C 0.610300 0.733300 0.958500
C123 C 0.097600 -0.058770 0.386500
C124 C 0.441500 0.698860 0.977300
C125 C -0.117700 0.097580 0.585300
C126 C 0.246300 0.700030 0.910000
C127 C -0.086600 0.151010 0.625200
C128 C 0.218900 0.735270 0.826200
C129 C 0.103000 0.181870 0.609200
C130 C 0.474400 0.884860 0.621000
C131 C 0.253400 0.159850 0.551800
C132 C 0.629700 0.922550 0.601000
C133 C 0.366200 0.080360 0.443830
C134 C 0.835100 0.924090 0.662300
C135 C 0.328300 0.026390 0.401520
C136 C 0.135900 -0.002380 0.425500
C137 C 0.033700 0.073080 0.524720
C138 C 0.222600 0.104800 0.506930
C139 C 0.753400 0.659850 0.551800
C140 C 0.972000 0.501000 0.837500
C141 C 0.878000 0.886830 0.743070
C142 C 0.926400 0.554300 0.803000
C143 C 0.635900 0.497620 0.425500
C144 C 0.739300 0.583960 0.827800
C145 C 0.587800 0.228070 0.372000
C146 C 0.597600 0.558770 0.886500
C147 C 0.387600 0.226860 0.304500
C148 C 0.382300 0.402420 1.085300
C149 C 0.512200 0.154430 0.204800
C150 C 0.413400 0.348990 1.125200
C151 C 0.719700 0.153160 0.267400
C152 C 0.603000 0.318130 1.109200
C153 C 0.753800 0.190910 0.351200
C154 C 0.753400 0.340150 1.051800
C155 C 0.610300 0.266700 0.458500
C156 C 0.866200 0.419640 0.943830
C157 C 0.441500 0.301140 0.477300
C158 C 0.828300 0.473610 0.901520
C159 C 0.635900 0.502380 0.925500
C160 C 0.533700 0.426920 1.024720
C161 C 0.722600 0.395200 1.006930
C162 C 0.246300 0.299970 0.410000
C163 C 0.972000 0.499000 0.337500
C164 C 0.218900 0.264730 0.326200
C165 C 0.926400 0.445700 0.303000
C166 C 0.474400 0.115140 0.121000
C167 C 0.739300 0.416040 0.327800
C168 C 0.629700 0.077450 0.101000
C169 C 0.597600 0.441230 0.386500
C170 C 0.835100 0.075910 0.162300
C171 C 0.382300 0.597580 0.585300
C172 C 0.878000 0.113170 0.243070
C173 C 0.413400 0.651010 0.625200
C174 C 0.722600 0.604800 0.506930
C175 C 0.603000 0.681870 0.609200
C176 C 0.533700 0.573080 0.524720
N177 N -0.009500 0.020480 0.484850
N178 N -0.009500 0.979520 0.984850
N179 N -0.148900 0.309030 0.722430
N180 N -0.148900 0.690970 0.222430
N181 N 0.351100 0.809030 0.722430
N182 N 0.490500 0.479520 0.984850
N183 N 0.490500 0.520480 0.484850
N184 N 0.351100 0.190970 0.222430

#END
