
#######################################################################
#
#                 Cambridge Crystallographic Data Centre
#                                CCDC 
#
#######################################################################
#
# If this CIF has been generated from an entry in the Cambridge 
# Structural Database, then it will include bibliographic, chemical, 
# crystal, experimental, refinement or atomic coordinate data resulting 
# from the CCDC's data processing and validation procedures.
#
#######################################################################

data_CITRAC12
_symmetry_cell_setting           monoclinic
_symmetry_space_group_name_H-M   'P 21/a'
_symmetry_Int_Tables_number      14
_space_group_name_Hall           '-P 2yab'
loop_
_symmetry_equiv_pos_site_id
_symmetry_equiv_pos_as_xyz
1 x,y,z
2 1/2-x,1/2+y,-z
3 -x,-y,-z
4 1/2+x,1/2-y,z
_cell_length_a                   12.8170
_cell_length_b                   5.6280
_cell_length_c                   11.4650
_cell_angle_alpha                90
_cell_angle_beta                 111.2200
_cell_angle_gamma                90
_cell_volume                     770.943
loop_
_atom_site_label
_atom_site_type_symbol
_atom_site_fract_x
_atom_site_fract_y
_atom_site_fract_z
C1 C 0.08992 0.45864 0.40154
C2 C 0.16234 0.43960 0.32342
C3 C 0.16175 0.19494 0.26125
C4 C 0.24567 0.20711 0.19292
C5 C 0.26982 -0.03496 0.15087
C6 C 0.04348 0.13544 0.16750
H1 H 0.14107 0.58371 0.25516
H2 H 0.24779 0.47454 0.38823
H3 H 0.21286 0.32198 0.11091
H4 H 0.32441 0.28297 0.25528
H5 H 0.02625 0.68542 0.48398
H6 H 0.39537 -0.23702 0.16302
H7 H -0.06385 0.22957 0.00842
H8 H 0.13646 -0.03970 0.37407
O1 O 0.07800 0.67801 0.43470
O2 O 0.04734 0.28488 0.43313
O3 O 0.37832 -0.07862 0.18905
O4 O 0.19926 -0.17734 0.08725
O5 O 0.01232 0.27179 0.06732
O6 O -0.01372 -0.02167 0.18740
O7 O 0.19884 0.01237 0.35066
C1 C 0.41008 0.95864 0.59846
C2 C 0.33766 0.93960 0.67658
C3 C 0.33825 0.69494 0.73875
C4 C 0.25433 0.70711 0.80708
C5 C 0.23018 0.46504 0.84913
C6 C 0.45652 0.63544 0.83250
H1 H 0.35893 1.08371 0.74484
H2 H 0.25221 0.97454 0.61177
H3 H 0.28714 0.82198 0.88909
H4 H 0.17559 0.78297 0.74472
H5 H 0.47375 1.18542 0.51602
H6 H 0.10463 0.26298 0.83698
H7 H 0.56385 0.72957 0.99158
H8 H 0.36354 0.46030 0.62593
O1 O 0.42200 1.17801 0.56530
O2 O 0.45266 0.78488 0.56687
O3 O 0.12168 0.42138 0.81095
O4 O 0.30074 0.32266 0.91275
O5 O 0.48768 0.77179 0.93268
O6 O 0.51372 0.47833 0.81260
O7 O 0.30116 0.51237 0.64934
C1 C 0.91008 0.54136 0.59846
C2 C 0.83766 0.56040 0.67658
C3 C 0.83825 0.80506 0.73875
C4 C 0.75433 0.79289 0.80708
C5 C 0.73018 1.03496 0.84913
C6 C 0.95652 0.86456 0.83250
H1 H 0.85893 0.41629 0.74484
H2 H 0.75221 0.52546 0.61177
H3 H 0.78714 0.67802 0.88909
H4 H 0.67559 0.71703 0.74472
H5 H 0.97375 0.31458 0.51602
H6 H 0.60463 1.23702 0.83698
H7 H 1.06385 0.77043 0.99158
H8 H 0.86354 1.03970 0.62593
O1 O 0.92200 0.32199 0.56530
O2 O 0.95266 0.71512 0.56687
O3 O 0.62168 1.07862 0.81095
O4 O 0.80074 1.17734 0.91275
O5 O 0.98768 0.72821 0.93268
O6 O 1.01372 1.02167 0.81260
O7 O 0.80116 0.98763 0.64934
C1 C 0.58992 0.04136 0.40154
C2 C 0.66234 0.06040 0.32342
C3 C 0.66175 0.30506 0.26125
C4 C 0.74567 0.29289 0.19292
C5 C 0.76982 0.53496 0.15087
C6 C 0.54348 0.36456 0.16750
H1 H 0.64107 -0.08371 0.25516
H2 H 0.74779 0.02546 0.38823
H3 H 0.71286 0.17802 0.11091
H4 H 0.82441 0.21703 0.25528
H5 H 0.52625 -0.18542 0.48398
H6 H 0.89537 0.73702 0.16302
H7 H 0.43615 0.27043 0.00842
H8 H 0.63646 0.53970 0.37407
O1 O 0.57800 -0.17801 0.43470
O2 O 0.54734 0.21512 0.43313
O3 O 0.87832 0.57862 0.18905
O4 O 0.69926 0.67734 0.08725
O5 O 0.51232 0.22821 0.06732
O6 O 0.48628 0.52167 0.18740
O7 O 0.69884 0.48763 0.35066

#END
