
#######################################################################
#
#                 Cambridge Crystallographic Data Centre
#                                CCDC 
#
#######################################################################
#
# If this CIF has been generated from an entry in the Cambridge 
# Structural Database, then it will include bibliographic, chemical, 
# crystal, experimental, refinement or atomic coordinate data resulting 
# from the CCDC's data processing and validation procedures.
#
#######################################################################

data_HIMXEG
_symmetry_cell_setting           triclinic
_symmetry_space_group_name_H-M   'P -1'
_symmetry_Int_Tables_number      2
_space_group_name_Hall           '-P 1'
loop_
_symmetry_equiv_pos_site_id
_symmetry_equiv_pos_as_xyz
1 x,y,z
2 -x,-y,-z
_cell_length_a                   10.485(2)
_cell_length_b                   11.811(1)
_cell_length_c                   9.161(1)
_cell_angle_alpha                92.667(9)
_cell_angle_beta                 105.26(1)
_cell_angle_gamma                98.78(1)
_cell_volume                     1077.18
loop_
_atom_site_label
_atom_site_type_symbol
_atom_site_fract_x
_atom_site_fract_y
_atom_site_fract_z
O1 O 0.1151(2) 0.7728(2) 0.7354(2)
O2 O 0.1278(2) 0.7085(1) 0.4547(2)
O3 O 0.2505(2) 0.4736(2) 0.1589(2)
N1 N 0.3669(2) 0.4189(2) 0.6264(2)
C1 C 0.4044(3) 0.3255(2) 0.4180(3)
C2 C 0.3514(3) 0.2033(2) 0.4456(3)
C3 C 0.4705(3) 0.2716(2) 0.5593(3)
C4 C 0.4467(3) 0.3342(2) 0.6963(3)
C5 C 0.3126(3) 0.5062(2) 0.6804(3)
C6 C 0.3103(3) 0.5387(2) 0.8260(3)
C7 C 0.2434(3) 0.6277(2) 0.8450(3)
C8 C 0.1818(3) 0.6835(2) 0.7218(3)
C9 C 0.1869(3) 0.6507(2) 0.5762(3)
C10 C 0.2507(2) 0.5608(2) 0.5526(3)
C11 C 0.2708(3) 0.5023(2) 0.4200(3)
C12 C 0.3441(3) 0.4168(2) 0.4733(3)
C13 C 0.2256(3) 0.5244(2) 0.2640(3)
C14 C 0.3683(3) 0.1038(2) 0.3515(3)
C15 C 0.4782(3) 0.1050(3) 0.2941(4)
C16 C 0.4911(4) 0.0099(4) 0.2078(4)
C17 C 0.3958(5) -0.0871(3) 0.1801(4)
C18 C 0.2879(4) -0.0897(3) 0.2370(4)
C19 C 0.2742(3) 0.0044(3) 0.3227(3)
C20 C 0.0435(4) 0.7715(3) 0.8443(4)
C21 C -0.0139(3) 0.6684(2) 0.3969(3)
C22 C -0.0753(3) 0.7519(2) 0.2942(3)
C23 C -0.0816(3) 0.8593(2) 0.3535(3)
C24 C -0.1425(3) 0.9357(3) 0.2612(4)
C25 C -0.1970(3) 0.9039(3) 0.1092(4)
C26 C -0.1915(3) 0.7975(3) 0.0484(3)
C27 C -0.1299(3) 0.7215(2) 0.1408(3)
H1 H 0.4487 0.3384 0.3406
H2 H 0.2703 0.1941 0.4750
H3 H 0.5561 0.2509 0.5681
H4 H 0.5289 0.3707 0.7652
H5 H 0.3984 0.2831 0.7478
H6 H 0.3533 0.5013 0.9102
H7 H 0.2391 0.6513 0.9439
H8 H 0.1905 0.5967 0.2364
H9 H 0.5454 0.1718 0.3138
H10 H 0.5664 0.0123 0.1681
H11 H 0.4050 -0.1523 0.1214
H12 H 0.2216 -0.1571 0.2175
H13 H 0.1988 0.0008 0.3625
H14 H 0.0384 0.6984 0.8828
H15 H 0.0887 0.8294 0.9240
H16 H -0.0439 0.7859 0.7984
H17 H -0.0291 0.5952 0.3417
H18 H -0.0532 0.6620 0.4791
H19 H -0.0434 0.8811 0.4590
H20 H -0.1471 1.0097 0.3027
H21 H -0.2390 0.9563 0.0451
H22 H -0.2301 0.7759 -0.0570
H23 H -0.1250 0.6478 0.0985
O1 O 0.8849(2) 0.2272(2) 0.2646(2)
O2 O 0.8722(2) 0.2915(1) 0.5453(2)
O3 O 0.7495(2) 0.5264(2) 0.8411(2)
N1 N 0.6331(2) 0.5811(2) 0.3736(2)
C1 C 0.5956(3) 0.6745(2) 0.5820(3)
C2 C 0.6486(3) 0.7967(2) 0.5544(3)
C3 C 0.5295(3) 0.7284(2) 0.4407(3)
C4 C 0.5533(3) 0.6658(2) 0.3037(3)
C5 C 0.6874(3) 0.4938(2) 0.3196(3)
C6 C 0.6897(3) 0.4613(2) 0.1740(3)
C7 C 0.7566(3) 0.3723(2) 0.1550(3)
C8 C 0.8182(3) 0.3165(2) 0.2782(3)
C9 C 0.8131(3) 0.3493(2) 0.4238(3)
C10 C 0.7493(2) 0.4392(2) 0.4474(3)
C11 C 0.7292(3) 0.4977(2) 0.5800(3)
C12 C 0.6559(3) 0.5832(2) 0.5267(3)
C13 C 0.7744(3) 0.4756(2) 0.7360(3)
C14 C 0.6317(3) 0.8962(2) 0.6485(3)
C15 C 0.5218(3) 0.8950(3) 0.7059(4)
C16 C 0.5089(4) 0.9901(4) 0.7922(4)
C17 C 0.6042(5) 1.0871(3) 0.8199(4)
C18 C 0.7121(4) 1.0897(3) 0.7630(4)
C19 C 0.7258(3) 0.9956(3) 0.6773(3)
C20 C 0.9565(4) 0.2285(3) 0.1557(4)
C21 C 1.0139(3) 0.3316(2) 0.6031(3)
C22 C 1.0753(3) 0.2481(2) 0.7058(3)
C23 C 1.0816(3) 0.1407(2) 0.6465(3)
C24 C 1.1425(3) 0.0643(3) 0.7388(4)
C25 C 1.1970(3) 0.0961(3) 0.8908(4)
C26 C 1.1915(3) 0.2025(3) 0.9516(3)
C27 C 1.1299(3) 0.2785(2) 0.8592(3)
H1 H 0.5513 0.6616 0.6594
H2 H 0.7297 0.8059 0.5250
H3 H 0.4439 0.7491 0.4319
H4 H 0.4711 0.6293 0.2348
H5 H 0.6016 0.7169 0.2522
H6 H 0.6467 0.4987 0.0898
H7 H 0.7609 0.3487 0.0561
H8 H 0.8095 0.4033 0.7636
H9 H 0.4546 0.8282 0.6862
H10 H 0.4336 0.9877 0.8319
H11 H 0.5950 1.1523 0.8786
H12 H 0.7784 1.1571 0.7825
H13 H 0.8012 0.9992 0.6375
H14 H 0.9616 0.3016 0.1172
H15 H 0.9113 0.1706 0.0760
H16 H 1.0439 0.2141 0.2016
H17 H 1.0291 0.4048 0.6583
H18 H 1.0532 0.3380 0.5209
H19 H 1.0434 0.1189 0.5410
H20 H 1.1471 -0.0097 0.6973
H21 H 1.2390 0.0437 0.9549
H22 H 1.2301 0.2241 1.0570
H23 H 1.1250 0.3522 0.9015

#END
