
#######################################################################
#
#                 Cambridge Crystallographic Data Centre
#                                CCDC 
#
#######################################################################
#
# If this CIF has been generated from an entry in the Cambridge 
# Structural Database, then it will include bibliographic, chemical, 
# crystal, experimental, refinement or atomic coordinate data resulting 
# from the CCDC's data processing and validation procedures.
#
#######################################################################

data_HXACAN38
_symmetry_cell_setting           orthorhombic
_symmetry_space_group_name_H-M   'P b c a'
_symmetry_Int_Tables_number      61
_space_group_name_Hall           '-P 2ac 2ab'
loop_
_symmetry_equiv_pos_site_id
_symmetry_equiv_pos_as_xyz
1 x,y,z
2 1/2-x,-y,1/2+z
3 1/2+x,1/2-y,-z
4 -x,1/2+y,1/2-z
5 -x,-y,-z
6 1/2+x,y,1/2-z
7 1/2-x,1/2+y,z
8 x,1/2-y,1/2+z
_cell_length_a                   11.7678(7)
_cell_length_b                   7.1966(5)
_cell_length_c                   17.1615(11)
_cell_angle_alpha                90
_cell_angle_beta                 90
_cell_angle_gamma                90
_cell_volume                     1453.38
loop_
_atom_site_label
_atom_site_type_symbol
_atom_site_fract_x
_atom_site_fract_y
_atom_site_fract_z
O1 O 0.89376(6) 0.22985(12) -0.00216(4)
O2 O 0.76089(6) 0.26295(11) 0.36909(4)
C1 C 0.77560(7) 0.20522(12) 0.23291(5)
H1 H 0.701992 0.151035 0.233655
C2 C 0.94504(7) 0.29212(12) 0.16216(5)
N1 N 1.01748(6) 0.29363(11) 0.09607(4)
C3 C 0.82176(7) 0.27683(12) 0.30123(5)
C4 C 0.83670(7) 0.21246(12) 0.16328(5)
H2 H 0.804777 0.163401 0.116786
C5 C 0.99142(8) 0.26329(13) 0.02060(5)
C6 C 1.09187(8) 0.27129(15) -0.03401(6)
H3 H 1.120433 0.145272 -0.043209
H4 H 1.152067 0.347124 -0.010646
H5 H 1.068317 0.326667 -0.083614
C7 C 0.98927(7) 0.36933(12) 0.23037(5)
H6 H 1.061878 0.426993 0.229498
C8 C 0.92801(7) 0.36250(12) 0.29943(5)
H7 H 0.958476 0.416204 0.345478
H8 H 0.8051(15) 0.273(2) 0.4097(11)
H9 H 1.0912(15) 0.311(2) 0.1075(9)
O1 O 0.60624(6) 0.77015(12) 0.49784(4)
O2 O 0.73911(6) 0.73705(11) 0.86909(4)
C1 C 0.72440(7) 0.79478(12) 0.73291(5)
H1 H 0.798008 0.848965 0.733655
C2 C 0.55496(7) 0.70788(12) 0.66216(5)
N1 N 0.48252(6) 0.70637(11) 0.59607(4)
C3 C 0.67824(7) 0.72317(12) 0.80123(5)
C4 C 0.66330(7) 0.78754(12) 0.66328(5)
H2 H 0.695223 0.836599 0.616786
C5 C 0.50858(8) 0.73671(13) 0.52060(5)
C6 C 0.40813(8) 0.72871(15) 0.46599(6)
H3 H 0.379567 0.854728 0.456791
H4 H 0.347933 0.652876 0.489354
H5 H 0.431683 0.673333 0.416386
C7 C 0.51073(7) 0.63067(12) 0.73037(5)
H6 H 0.438122 0.573007 0.729498
C8 C 0.57199(7) 0.63750(12) 0.79943(5)
H7 H 0.541524 0.583796 0.845478
H8 H 0.6949(15) 0.727(2) 0.9097(11)
H9 H 0.4088(15) 0.689(2) 0.6075(9)
O1 O 0.39376(6) 0.27015(12) 1.00216(4)
O2 O 0.26089(6) 0.23705(11) 0.63091(4)
C1 C 0.27560(7) 0.29478(12) 0.76709(5)
H1 H 0.201992 0.348965 0.766345
C2 C 0.44504(7) 0.20788(12) 0.83784(5)
N1 N 0.51748(6) 0.20637(11) 0.90393(4)
C3 C 0.32176(7) 0.22317(12) 0.69877(5)
C4 C 0.33670(7) 0.28754(12) 0.83672(5)
H2 H 0.304777 0.336599 0.883214
C5 C 0.49142(8) 0.23671(13) 0.97940(5)
C6 C 0.59187(8) 0.22871(15) 1.03401(6)
H3 H 0.620433 0.354728 1.043209
H4 H 0.652067 0.152876 1.010646
H5 H 0.568317 0.173333 1.083614
C7 C 0.48927(7) 0.13067(12) 0.76963(5)
H6 H 0.561878 0.073007 0.770502
C8 C 0.42801(7) 0.13750(12) 0.70057(5)
H7 H 0.458476 0.083796 0.654522
H8 H 0.3051(15) 0.227(2) 0.5903(11)
H9 H 0.5912(15) 0.189(2) 0.8925(9)
O1 O 0.10624(6) 0.72985(12) 0.50216(4)
O2 O 0.23911(6) 0.76295(11) 0.13091(4)
C1 C 0.22440(7) 0.70522(12) 0.26709(5)
H1 H 0.298008 0.651035 0.266345
C2 C 0.05496(7) 0.79212(12) 0.33784(5)
N1 N -0.01748(6) 0.79363(11) 0.40393(4)
C3 C 0.17824(7) 0.77683(12) 0.19877(5)
C4 C 0.16330(7) 0.71246(12) 0.33672(5)
H2 H 0.195223 0.663401 0.383214
C5 C 0.00858(8) 0.76329(13) 0.47940(5)
C6 C -0.09187(8) 0.77129(15) 0.53401(6)
H3 H -0.120433 0.645272 0.543209
H4 H -0.152067 0.847124 0.510646
H5 H -0.068317 0.826667 0.583614
C7 C 0.01073(7) 0.86933(12) 0.26963(5)
H6 H -0.061878 0.926993 0.270502
C8 C 0.07199(7) 0.86250(12) 0.20057(5)
H7 H 0.041524 0.916204 0.154522
H8 H 0.1949(15) 0.773(2) 0.0903(11)
H9 H -0.0912(15) 0.811(2) 0.3925(9)
O1 O 0.10624(6) 0.77015(12) 1.00216(4)
O2 O 0.23911(6) 0.73705(11) 0.63091(4)
C1 C 0.22440(7) 0.79478(12) 0.76709(5)
H1 H 0.298008 0.848965 0.766345
C2 C 0.05496(7) 0.70788(12) 0.83784(5)
N1 N -0.01748(6) 0.70637(11) 0.90393(4)
C3 C 0.17824(7) 0.72317(12) 0.69877(5)
C4 C 0.16330(7) 0.78754(12) 0.83672(5)
H2 H 0.195223 0.836599 0.883214
C5 C 0.00858(8) 0.73671(13) 0.97940(5)
C6 C -0.09187(8) 0.72871(15) 1.03401(6)
H3 H -0.120433 0.854728 1.043209
H4 H -0.152067 0.652876 1.010646
H5 H -0.068317 0.673333 1.083614
C7 C 0.01073(7) 0.63067(12) 0.76963(5)
H6 H -0.061878 0.573007 0.770502
C8 C 0.07199(7) 0.63750(12) 0.70057(5)
H7 H 0.041524 0.583796 0.654522
H8 H 0.1949(15) 0.727(2) 0.5903(11)
H9 H -0.0912(15) 0.689(2) 0.8925(9)
O1 O 0.39376(6) 0.22985(12) 0.50216(4)
O2 O 0.26089(6) 0.26295(11) 0.13091(4)
C1 C 0.27560(7) 0.20522(12) 0.26709(5)
H1 H 0.201992 0.151035 0.266345
C2 C 0.44504(7) 0.29212(12) 0.33784(5)
N1 N 0.51748(6) 0.29363(11) 0.40393(4)
C3 C 0.32176(7) 0.27683(12) 0.19877(5)
C4 C 0.33670(7) 0.21246(12) 0.33672(5)
H2 H 0.304777 0.163401 0.383214
C5 C 0.49142(8) 0.26329(13) 0.47940(5)
C6 C 0.59187(8) 0.27129(15) 0.53401(6)
H3 H 0.620433 0.145272 0.543209
H4 H 0.652067 0.347124 0.510646
H5 H 0.568317 0.326667 0.583614
C7 C 0.48927(7) 0.36933(12) 0.26963(5)
H6 H 0.561878 0.426993 0.270502
C8 C 0.42801(7) 0.36250(12) 0.20057(5)
H7 H 0.458476 0.416204 0.154522
H8 H 0.3051(15) 0.273(2) 0.0903(11)
H9 H 0.5912(15) 0.311(2) 0.3925(9)
O1 O 0.60624(6) 0.72985(12) -0.00216(4)
O2 O 0.73911(6) 0.76295(11) 0.36909(4)
C1 C 0.72440(7) 0.70522(12) 0.23291(5)
H1 H 0.798008 0.651035 0.233655
C2 C 0.55496(7) 0.79212(12) 0.16216(5)
N1 N 0.48252(6) 0.79363(11) 0.09607(4)
C3 C 0.67824(7) 0.77683(12) 0.30123(5)
C4 C 0.66330(7) 0.71246(12) 0.16328(5)
H2 H 0.695223 0.663401 0.116786
C5 C 0.50858(8) 0.76329(13) 0.02060(5)
C6 C 0.40813(8) 0.77129(15) -0.03401(6)
H3 H 0.379567 0.645272 -0.043209
H4 H 0.347933 0.847124 -0.010646
H5 H 0.431683 0.826667 -0.083614
C7 C 0.51073(7) 0.86933(12) 0.23037(5)
H6 H 0.438122 0.926993 0.229498
C8 C 0.57199(7) 0.86250(12) 0.29943(5)
H7 H 0.541524 0.916204 0.345478
H8 H 0.6949(15) 0.773(2) 0.4097(11)
H9 H 0.4088(15) 0.811(2) 0.1075(9)
O1 O 0.89376(6) 0.27015(12) 0.49784(4)
O2 O 0.76089(6) 0.23705(11) 0.86909(4)
C1 C 0.77560(7) 0.29478(12) 0.73291(5)
H1 H 0.701992 0.348965 0.733655
C2 C 0.94504(7) 0.20788(12) 0.66216(5)
N1 N 1.01748(6) 0.20637(11) 0.59607(4)
C3 C 0.82176(7) 0.22317(12) 0.80123(5)
C4 C 0.83670(7) 0.28754(12) 0.66328(5)
H2 H 0.804777 0.336599 0.616786
C5 C 0.99142(8) 0.23671(13) 0.52060(5)
C6 C 1.09187(8) 0.22871(15) 0.46599(6)
H3 H 1.120433 0.354728 0.456791
H4 H 1.152067 0.152876 0.489354
H5 H 1.068317 0.173333 0.416386
C7 C 0.98927(7) 0.13067(12) 0.73037(5)
H6 H 1.061878 0.073007 0.729498
C8 C 0.92801(7) 0.13750(12) 0.79943(5)
H7 H 0.958476 0.083796 0.845478
H8 H 0.8051(15) 0.227(2) 0.9097(11)
H9 H 1.0912(15) 0.189(2) 0.6075(9)

#END
