
#######################################################################
#
#                 Cambridge Crystallographic Data Centre
#                                CCDC 
#
#######################################################################
#
# If this CIF has been generated from an entry in the Cambridge 
# Structural Database, then it will include bibliographic, chemical, 
# crystal, experimental, refinement or atomic coordinate data resulting 
# from the CCDC's data processing and validation procedures.
#
#######################################################################

data_PUPBAD
_symmetry_cell_setting           orthorhombic
_symmetry_space_group_name_H-M   'P c c n'
_symmetry_Int_Tables_number      56
_space_group_name_Hall           '-P 2ab 2ac'
loop_
_symmetry_equiv_pos_site_id
_symmetry_equiv_pos_as_xyz
1 x,y,z
2 1/2-x,1/2-y,z
3 -x,1/2+y,1/2-z
4 1/2+x,-y,1/2-z
5 -x,-y,-z
6 1/2+x,1/2+y,-z
7 x,1/2-y,1/2+z
8 1/2-x,y,1/2+z
_cell_length_a                   4.1650(10)
_cell_length_b                   6.6540(10)
_cell_length_c                   21.293(4)
_cell_angle_alpha                90
_cell_angle_beta                 90
_cell_angle_gamma                90
_cell_volume                     590.112
loop_
_atom_site_label
_atom_site_type_symbol
_atom_site_fract_x
_atom_site_fract_y
_atom_site_fract_z
N1 N 0.2500 0.2500 -0.01326(8)
H1 H 0.1428 0.3443 -0.02929(8)
C1 C 0.2500 0.2500 0.04880(9)
N2 N 0.0926(3) 0.4034(2) 0.07839(5)
C2 C 0.0935(4) 0.3997(2) 0.14066(6)
H2 H -0.0239(4) 0.5019(2) 0.16001(6)
C3 C 0.2500 0.2500 0.17365(8)
N3 N 0.2500 0.2500 0.24155(7)
O1 O 0.0532(2) 0.3563(2) 0.26905(4)
H1A H 0.3572 0.1557 -0.02929(8)
C2A C 0.4065(4) 0.1003(2) 0.14066(6)
N2A N 0.4074(3) 0.0966(2) 0.07839(5)
H2A H 0.5239(4) -0.0019(2) 0.16001(6)
O1A O 0.4468(2) 0.1437(2) 0.26905(4)
N1 N 0.7500 0.7500 0.51326(8)
H1 H 0.8572 0.8443 0.52929(8)
C1 C 0.7500 0.7500 0.45120(9)
N2 N 0.9074(3) 0.9034(2) 0.42161(5)
C2 C 0.9065(4) 0.8997(2) 0.35934(6)
H2 H 1.0239(4) 1.0019(2) 0.33999(6)
C3 C 0.7500 0.7500 0.32635(8)
N3 N 0.7500 0.7500 0.25845(7)
O1 O 0.9468(2) 0.8563(2) 0.23095(4)
H1A H 0.6428 0.6557 0.52929(8)
C2A C 0.5935(4) 0.6003(2) 0.35934(6)
N2A N 0.5926(3) 0.5966(2) 0.42161(5)
H2A H 0.4761(4) 0.4981(2) 0.33999(6)
O1A O 0.5532(2) 0.6437(2) 0.23095(4)
N1 N 0.7500 0.7500 1.01326(8)
H1 H 0.8572 0.6557 1.02929(8)
C1 C 0.7500 0.7500 0.95120(9)
N2 N 0.9074(3) 0.5966(2) 0.92161(5)
C2 C 0.9065(4) 0.6003(2) 0.85934(6)
H2 H 1.0239(4) 0.4981(2) 0.83999(6)
C3 C 0.7500 0.7500 0.82635(8)
N3 N 0.7500 0.7500 0.75845(7)
O1 O 0.9468(2) 0.6437(2) 0.73095(4)
H1A H 0.6428 0.8443 1.02929(8)
C2A C 0.5935(4) 0.8997(2) 0.85934(6)
N2A N 0.5926(3) 0.9034(2) 0.92161(5)
H2A H 0.4761(4) 1.0019(2) 0.83999(6)
O1A O 0.5532(2) 0.8563(2) 0.73095(4)
N1 N 0.2500 0.2500 0.48674(8)
H1 H 0.1428 0.1557 0.47071(8)
C1 C 0.2500 0.2500 0.54880(9)
N2 N 0.0926(3) 0.0966(2) 0.57839(5)
C2 C 0.0935(4) 0.1003(2) 0.64066(6)
H2 H -0.0239(4) -0.0019(2) 0.66001(6)
C3 C 0.2500 0.2500 0.67365(8)
N3 N 0.2500 0.2500 0.74155(7)
O1 O 0.0532(2) 0.1437(2) 0.76905(4)
H1A H 0.3572 0.3443 0.47071(8)
C2A C 0.4065(4) 0.3997(2) 0.64066(6)
N2A N 0.4074(3) 0.4034(2) 0.57839(5)
H2A H 0.5239(4) 0.5019(2) 0.66001(6)
O1A O 0.4468(2) 0.3563(2) 0.76905(4)

#END
