
#######################################################################
#
#                 Cambridge Crystallographic Data Centre
#                                CCDC 
#
#######################################################################
#
# If this CIF has been generated from an entry in the Cambridge 
# Structural Database, then it will include bibliographic, chemical, 
# crystal, experimental, refinement or atomic coordinate data resulting 
# from the CCDC's data processing and validation procedures.
#
#######################################################################

data_PUPBAD01
_symmetry_cell_setting           monoclinic
_symmetry_space_group_name_H-M   'P 21/c'
_symmetry_Int_Tables_number      14
_space_group_name_Hall           '-P 2ybc'
loop_
_symmetry_equiv_pos_site_id
_symmetry_equiv_pos_as_xyz
1 x,y,z
2 -x,1/2+y,1/2-z
3 -x,-y,-z
4 x,1/2-y,1/2+z
_cell_length_a                   5.128
_cell_length_b                   17.500(2)
_cell_length_c                   6.8720(10)
_cell_angle_alpha                90
_cell_angle_beta                 104.37
_cell_angle_gamma                90
_cell_volume                     597.399
loop_
_atom_site_label
_atom_site_type_symbol
_atom_site_fract_x
_atom_site_fract_y
_atom_site_fract_z
N1 N 0.7494(5) 0.06879(14) 0.8611(4)
C1 C 0.5955(6) 0.0066(2) 0.7912(4)
N2 N 0.7085(6) -0.06071(14) 0.8462(4)
H1 H 0.8771(6) -0.06300(14) 0.9227(4)
H2 H 0.6277(6) -0.10513(14) 0.8302(4)
N3 N 0.3419(6) 0.0071(2) 0.6719(4)
C2 C 0.2371(7) 0.0757(2) 0.6162(5)
H3 H 0.0247(7) 0.0745(2) 0.5320(5)
C3 C 0.3818(7) 0.1412(2) 0.6795(5)
N4 N 0.2672(8) 0.2158(2) 0.6193(5)
O1 O 0.0376(7) 0.2181(2) 0.5140(6)
O2 O 0.4082(7) 0.2722(2) 0.6747(6)
C4 C 0.6387(7) 0.1363(2) 0.8025(5)
H4 H 0.7524(7) 0.1906(2) 0.8458(5)
N1 N 0.2506(5) 0.56879(14) 0.6389(4)
C1 C 0.4045(6) 0.5066(2) 0.7088(4)
N2 N 0.2915(6) 0.43929(14) 0.6538(4)
H1 H 0.1229(6) 0.43700(14) 0.5773(4)
H2 H 0.3723(6) 0.39487(14) 0.6698(4)
N3 N 0.6581(6) 0.5071(2) 0.8281(4)
C2 C 0.7629(7) 0.5757(2) 0.8838(5)
H3 H 0.9753(7) 0.5745(2) 0.9680(5)
C3 C 0.6182(7) 0.6412(2) 0.8205(5)
N4 N 0.7328(8) 0.7158(2) 0.8807(5)
O1 O 0.9624(7) 0.7181(2) 0.9860(6)
O2 O 0.5918(7) 0.7722(2) 0.8253(6)
C4 C 0.3613(7) 0.6363(2) 0.6975(5)
H4 H 0.2476(7) 0.6906(2) 0.6542(5)
N1 N 0.2506(5) 0.93121(14) 0.1389(4)
C1 C 0.4045(6) 0.9934(2) 0.2088(4)
N2 N 0.2915(6) 1.06071(14) 0.1538(4)
H1 H 0.1229(6) 1.06300(14) 0.0773(4)
H2 H 0.3723(6) 1.10513(14) 0.1698(4)
N3 N 0.6581(6) 0.9929(2) 0.3281(4)
C2 C 0.7629(7) 0.9243(2) 0.3838(5)
H3 H 0.9753(7) 0.9255(2) 0.4680(5)
C3 C 0.6182(7) 0.8588(2) 0.3205(5)
N4 N 0.7328(8) 0.7842(2) 0.3807(5)
O1 O 0.9624(7) 0.7819(2) 0.4860(6)
O2 O 0.5918(7) 0.7278(2) 0.3253(6)
C4 C 0.3613(7) 0.8637(2) 0.1975(5)
H4 H 0.2476(7) 0.8094(2) 0.1542(5)
N1 N 0.7494(5) 0.43121(14) 0.3611(4)
C1 C 0.5955(6) 0.4934(2) 0.2912(4)
N2 N 0.7085(6) 0.56071(14) 0.3462(4)
H1 H 0.8771(6) 0.56300(14) 0.4227(4)
H2 H 0.6277(6) 0.60513(14) 0.3302(4)
N3 N 0.3419(6) 0.4929(2) 0.1719(4)
C2 C 0.2371(7) 0.4243(2) 0.1162(5)
H3 H 0.0247(7) 0.4255(2) 0.0320(5)
C3 C 0.3818(7) 0.3588(2) 0.1795(5)
N4 N 0.2672(8) 0.2842(2) 0.1193(5)
O1 O 0.0376(7) 0.2819(2) 0.0140(6)
O2 O 0.4082(7) 0.2278(2) 0.1747(6)
C4 C 0.6387(7) 0.3637(2) 0.3025(5)
H4 H 0.7524(7) 0.3094(2) 0.3458(5)

#END
