
#######################################################################
#
#                 Cambridge Crystallographic Data Centre
#                                CCDC 
#
#######################################################################
#
# If this CIF has been generated from an entry in the Cambridge 
# Structural Database, then it will include bibliographic, chemical, 
# crystal, experimental, refinement or atomic coordinate data resulting 
# from the CCDC's data processing and validation procedures.
#
#######################################################################

data_PUPBAD02
_symmetry_cell_setting           monoclinic
_symmetry_space_group_name_H-M   'P 21/n'
_symmetry_Int_Tables_number      14
_space_group_name_Hall           '-P 2yn'
loop_
_symmetry_equiv_pos_site_id
_symmetry_equiv_pos_as_xyz
1 x,y,z
2 1/2-x,1/2+y,1/2-z
3 -x,-y,-z
4 1/2+x,1/2-y,1/2+z
_cell_length_a                   3.5540(10)
_cell_length_b                   16.524(6)
_cell_length_c                   9.465(4)
_cell_angle_alpha                90
_cell_angle_beta                 99.00(2)
_cell_angle_gamma                90
_cell_volume                     549.001
loop_
_atom_site_label
_atom_site_type_symbol
_atom_site_fract_x
_atom_site_fract_y
_atom_site_fract_z
N1 N 0.9510(3) 0.43003(7) 0.14412(12)
C1 C 0.8172(4) 0.49450(8) 0.21014(15)
N2 N 0.7921(4) 0.56353(8) 0.14028(13)
H1 H 0.8609(4) 0.56601(8) 0.03959(13)
H2 H 0.6834(4) 0.60571(8) 0.18089(13)
N3 N 0.7077(3) 0.49345(7) 0.34079(12)
C2 C 0.7572(4) 0.42509(8) 0.41145(15)
H3 H 0.6788(4) 0.42220(8) 0.50045(15)
C3 C 0.9037(4) 0.35744(8) 0.35386(15)
N4 N 0.9711(4) 0.28473(7) 0.43508(14)
O1 O 1.1095(3) 0.22673(6) 0.38034(13)
O2 O 0.8942(4) 0.28389(7) 0.55678(13)
C4 C 0.9908(4) 0.36195(8) 0.21664(15)
H4 H 1.0719(4) 0.31530(8) 0.16060(15)
N1 N 0.5490(3) 0.93003(7) 0.35588(12)
C1 C 0.6828(4) 0.99450(8) 0.28986(15)
N2 N 0.7079(4) 1.06353(8) 0.35972(13)
H1 H 0.6391(4) 1.06601(8) 0.46041(13)
H2 H 0.8166(4) 1.10571(8) 0.31911(13)
N3 N 0.7923(3) 0.99345(7) 0.15921(12)
C2 C 0.7428(4) 0.92509(8) 0.08855(15)
H3 H 0.8212(4) 0.92220(8) -0.00045(15)
C3 C 0.5963(4) 0.85744(8) 0.14614(15)
N4 N 0.5289(4) 0.78473(7) 0.06492(14)
O1 O 0.3905(3) 0.72673(6) 0.11966(13)
O2 O 0.6058(4) 0.78389(7) -0.05678(13)
C4 C 0.5092(4) 0.86195(8) 0.28336(15)
H4 H 0.4281(4) 0.81530(8) 0.33940(15)
N1 N 0.0490(3) 0.56997(7) 0.85588(12)
C1 C 0.1828(4) 0.50550(8) 0.78986(15)
N2 N 0.2079(4) 0.43647(8) 0.85972(13)
H1 H 0.1391(4) 0.43399(8) 0.96041(13)
H2 H 0.3166(4) 0.39429(8) 0.81911(13)
N3 N 0.2923(3) 0.50655(7) 0.65921(12)
C2 C 0.2428(4) 0.57491(8) 0.58855(15)
H3 H 0.3212(4) 0.57780(8) 0.49955(15)
C3 C 0.0963(4) 0.64256(8) 0.64614(15)
N4 N 0.0289(4) 0.71527(7) 0.56492(14)
O1 O -0.1095(3) 0.77327(6) 0.61966(13)
O2 O 0.1058(4) 0.71611(7) 0.44322(13)
C4 C 0.0092(4) 0.63805(8) 0.78336(15)
H4 H -0.0719(4) 0.68470(8) 0.83940(15)
N1 N 0.4510(3) 0.06997(7) 0.64412(12)
C1 C 0.3172(4) 0.00550(8) 0.71014(15)
N2 N 0.2921(4) -0.06353(8) 0.64028(13)
H1 H 0.3609(4) -0.06601(8) 0.53959(13)
H2 H 0.1834(4) -0.10571(8) 0.68089(13)
N3 N 0.2077(3) 0.00655(7) 0.84079(12)
C2 C 0.2572(4) 0.07491(8) 0.91145(15)
H3 H 0.1788(4) 0.07780(8) 1.00045(15)
C3 C 0.4037(4) 0.14256(8) 0.85386(15)
N4 N 0.4711(4) 0.21527(7) 0.93508(14)
O1 O 0.6095(3) 0.27327(6) 0.88034(13)
O2 O 0.3942(4) 0.21611(7) 1.05678(13)
C4 C 0.4908(4) 0.13805(8) 0.71664(15)
H4 H 0.5719(4) 0.18470(8) 0.66060(15)

#END
