
#######################################################################
#
#                 Cambridge Crystallographic Data Centre
#                                CCDC 
#
#######################################################################
#
# If this CIF has been generated from an entry in the Cambridge 
# Structural Database, then it will include bibliographic, chemical, 
# crystal, experimental, refinement or atomic coordinate data resulting 
# from the CCDC's data processing and validation procedures.
#
#######################################################################

data_PYRZIN22
_symmetry_cell_setting           monoclinic
_symmetry_space_group_name_H-M   'P 21/n'
_symmetry_Int_Tables_number      14
_space_group_name_Hall           '-P 2yn'
loop_
_symmetry_equiv_pos_site_id
_symmetry_equiv_pos_as_xyz
1 x,y,z
2 1/2-x,1/2+y,1/2-z
3 -x,-y,-z
4 1/2+x,1/2-y,1/2+z
_cell_length_a                   3.6173
_cell_length_b                   6.7413
_cell_length_c                   22.4625
_cell_angle_alpha                90
_cell_angle_beta                 92.395
_cell_angle_gamma                90
_cell_volume                     547.276
loop_
_atom_site_label
_atom_site_type_symbol
_atom_site_fract_x
_atom_site_fract_y
_atom_site_fract_z
O1 O 0.04793(15) 0.53200(7) 0.08373(2)
N1 N 0.46128(12) 1.01005(6) 0.089959(18)
N2 N 0.23007(16) 0.73021(7) 0.00873(2)
N3 N 0.43667(14) 0.93030(7) 0.212208(19)
C1 C 0.33506(11) 0.83736(5) 0.110271(17)
C2 C 0.19390(12) 0.68607(6) 0.065867(18)
C3 C 0.32544(12) 0.79671(6) 0.171033(18)
C4 C 0.55574(13) 1.10413(6) 0.191690(19)
C5 C 0.57000(12) 1.14395(6) 0.130926(19)
H1 H 0.358146 0.857514 -0.002022
H2 H 0.222536 0.655094 0.186097
H3 H 0.673524 1.285428 0.116119
H4 H 0.638611 1.215593 0.224292
H5 H 0.144508 0.630528 -0.022376
O1 O 0.45207(15) 0.03200(7) 0.41627(2)
N1 N 0.03872(12) 0.51005(6) 0.410041(18)
N2 N 0.26993(16) 0.23021(7) 0.49127(2)
N3 N 0.06333(14) 0.43030(7) 0.287792(19)
C1 C 0.16494(11) 0.33736(5) 0.389729(17)
C2 C 0.30610(12) 0.18607(6) 0.434133(18)
C3 C 0.17456(12) 0.29671(6) 0.328967(18)
C4 C -0.05574(13) 0.60413(6) 0.308310(19)
C5 C -0.07000(12) 0.64395(6) 0.369074(19)
H1 H 0.141854 0.357514 0.502022
H2 H 0.277464 0.155094 0.313903
H3 H -0.173524 0.785428 0.383881
H4 H -0.138611 0.715593 0.275708
H5 H 0.355492 0.130528 0.522376
O1 O 0.95207(15) 0.46800(7) 0.91627(2)
N1 N 0.53872(12) -0.01005(6) 0.910041(18)
N2 N 0.76993(16) 0.26979(7) 0.99127(2)
N3 N 0.56333(14) 0.06970(7) 0.787792(19)
C1 C 0.66494(11) 0.16264(5) 0.889729(17)
C2 C 0.80610(12) 0.31393(6) 0.934133(18)
C3 C 0.67456(12) 0.20329(6) 0.828967(18)
C4 C 0.44426(13) -0.10413(6) 0.808310(19)
C5 C 0.43000(12) -0.14395(6) 0.869074(19)
H1 H 0.641854 0.142486 1.002022
H2 H 0.777464 0.344906 0.813903
H3 H 0.326476 -0.285428 0.883881
H4 H 0.361389 -0.215593 0.775708
H5 H 0.855492 0.369472 1.022376
O1 O 0.54793(15) 0.96800(7) 0.58373(2)
N1 N 0.96128(12) 0.48995(6) 0.589959(18)
N2 N 0.73007(16) 0.76979(7) 0.50873(2)
N3 N 0.93667(14) 0.56970(7) 0.712208(19)
C1 C 0.83506(11) 0.66264(5) 0.610271(17)
C2 C 0.69390(12) 0.81393(6) 0.565867(18)
C3 C 0.82544(12) 0.70329(6) 0.671033(18)
C4 C 1.05574(13) 0.39587(6) 0.691690(19)
C5 C 1.07000(12) 0.35605(6) 0.630926(19)
H1 H 0.858146 0.642486 0.497978
H2 H 0.722536 0.844906 0.686097
H3 H 1.173524 0.214572 0.616119
H4 H 1.138611 0.284407 0.724292
H5 H 0.644508 0.869472 0.477624

#END
