
#######################################################################
#
#                 Cambridge Crystallographic Data Centre
#                                CCDC 
#
#######################################################################
#
# If this CIF has been generated from an entry in the Cambridge 
# Structural Database, then it will include bibliographic, chemical, 
# crystal, experimental, refinement or atomic coordinate data resulting 
# from the CCDC's data processing and validation procedures.
#
#######################################################################

data_PYRZIO
_symmetry_cell_setting           monoclinic
_symmetry_space_group_name_H-M   'C 2/c'
_symmetry_Int_Tables_number      15
_space_group_name_Hall           '-C 2yn'
loop_
_symmetry_equiv_pos_site_id
_symmetry_equiv_pos_as_xyz
1 x,y,z
2 1/2+x,1/2+y,z
3 -x,y,1/2-z
4 1/2-x,1/2+y,1/2-z
5 -x,-y,-z
6 1/2-x,1/2-y,-z
7 x,-y,1/2+z
8 1/2+x,1/2-y,1/2+z
_cell_length_a                   11.791(3)
_cell_length_b                   11.211(3)
_cell_length_c                   21.087(6)
_cell_angle_alpha                90
_cell_angle_beta                 90.67(2)
_cell_angle_gamma                90
_cell_volume                     2787.28
loop_
_atom_site_label
_atom_site_type_symbol
_atom_site_fract_x
_atom_site_fract_y
_atom_site_fract_z
N1 N 0.60080 0.83590 0.67590
C1 C 0.66510 0.81170 0.72340
C2 C 0.71430 0.68870 0.72670
C3 C 0.84410 0.68500 0.71820
N2 N 0.85490 0.69360 0.64910
C4 C 0.96880 0.67110 0.62590
C5 C 0.96550 0.68440 0.55380
C6 C 0.87890 0.59840 0.52340
C7 C 0.76170 0.61400 0.55320
C8 C 0.77300 0.60500 0.62460
C9 C 0.66710 0.63470 0.66320
C10 C 0.58550 0.52770 0.66550
C11 C 0.47590 0.56760 0.63860
C12 C 0.37370 0.50460 0.62960
C13 C 0.28170 0.57000 0.60820
C14 C 0.29100 0.69230 0.59670
C15 C 0.39120 0.75500 0.60500
C16 C 0.48460 0.68900 0.62600
N3 N 0.59650 0.73250 0.63550
O1 O 0.61280 0.42860 0.68350
H1 H 0.68700 0.87100 0.76600
H2 H 0.69000 0.64300 0.76700
H3 H 0.88200 0.59700 0.73600
H4 H 0.88300 0.76400 0.73800
H5 H 1.02400 0.73700 0.64600
H6 H 0.99400 0.58400 0.63900
H7 H 1.04800 0.66700 0.53300
H8 H 0.94500 0.77800 0.54000
H9 H 0.86900 0.61100 0.47100
H10 H 0.90100 0.51700 0.53200
H11 H 0.73000 0.70500 0.54600
H12 H 0.70700 0.54400 0.53400
H13 H 0.80200 0.50800 0.64000
H14 H 0.37700 0.39500 0.63900
H15 H 0.19800 0.52700 0.61000
H16 H 0.22000 0.74200 0.58100
H17 H 0.39200 0.84600 0.58800
N1 N 0.10080 0.33590 0.67590
C1 C 0.16510 0.31170 0.72340
C2 C 0.21430 0.18870 0.72670
C3 C 0.34410 0.18500 0.71820
N2 N 0.35490 0.19360 0.64910
C4 C 0.46880 0.17110 0.62590
C5 C 0.46550 0.18440 0.55380
C6 C 0.37890 0.09840 0.52340
C7 C 0.26170 0.11400 0.55320
C8 C 0.27300 0.10500 0.62460
C9 C 0.16710 0.13470 0.66320
C10 C 0.08550 0.02770 0.66550
C11 C -0.02410 0.06760 0.63860
C12 C -0.12630 0.00460 0.62960
C13 C -0.21830 0.07000 0.60820
C14 C -0.20900 0.19230 0.59670
C15 C -0.10880 0.25500 0.60500
C16 C -0.01540 0.18900 0.62600
N3 N 0.09650 0.23250 0.63550
O1 O 0.11280 -0.07140 0.68350
H1 H 0.18700 0.37100 0.76600
H2 H 0.19000 0.14300 0.76700
H3 H 0.38200 0.09700 0.73600
H4 H 0.38300 0.26400 0.73800
H5 H 0.52400 0.23700 0.64600
H6 H 0.49400 0.08400 0.63900
H7 H 0.54800 0.16700 0.53300
H8 H 0.44500 0.27800 0.54000
H9 H 0.36900 0.11100 0.47100
H10 H 0.40100 0.01700 0.53200
H11 H 0.23000 0.20500 0.54600
H12 H 0.20700 0.04400 0.53400
H13 H 0.30200 0.00800 0.64000
H14 H -0.12300 -0.10500 0.63900
H15 H -0.30200 0.02700 0.61000
H16 H -0.28000 0.24200 0.58100
H17 H -0.10800 0.34600 0.58800
N1 N 0.39920 0.83590 0.82410
C1 C 0.33490 0.81170 0.77660
C2 C 0.28570 0.68870 0.77330
C3 C 0.15590 0.68500 0.78180
N2 N 0.14510 0.69360 0.85090
C4 C 0.03120 0.67110 0.87410
C5 C 0.03450 0.68440 0.94620
C6 C 0.12110 0.59840 0.97660
C7 C 0.23830 0.61400 0.94680
C8 C 0.22700 0.60500 0.87540
C9 C 0.33290 0.63470 0.83680
C10 C 0.41450 0.52770 0.83450
C11 C 0.52410 0.56760 0.86140
C12 C 0.62630 0.50460 0.87040
C13 C 0.71830 0.57000 0.89180
C14 C 0.70900 0.69230 0.90330
C15 C 0.60880 0.75500 0.89500
C16 C 0.51540 0.68900 0.87400
N3 N 0.40350 0.73250 0.86450
O1 O 0.38720 0.42860 0.81650
H1 H 0.31300 0.87100 0.73400
H2 H 0.31000 0.64300 0.73300
H3 H 0.11800 0.59700 0.76400
H4 H 0.11700 0.76400 0.76200
H5 H -0.02400 0.73700 0.85400
H6 H 0.00600 0.58400 0.86100
H7 H -0.04800 0.66700 0.96700
H8 H 0.05500 0.77800 0.96000
H9 H 0.13100 0.61100 1.02900
H10 H 0.09900 0.51700 0.96800
H11 H 0.27000 0.70500 0.95400
H12 H 0.29300 0.54400 0.96600
H13 H 0.19800 0.50800 0.86000
H14 H 0.62300 0.39500 0.86100
H15 H 0.80200 0.52700 0.89000
H16 H 0.78000 0.74200 0.91900
H17 H 0.60800 0.84600 0.91200
N1 N 0.89920 0.33590 0.82410
C1 C 0.83490 0.31170 0.77660
C2 C 0.78570 0.18870 0.77330
C3 C 0.65590 0.18500 0.78180
N2 N 0.64510 0.19360 0.85090
C4 C 0.53120 0.17110 0.87410
C5 C 0.53450 0.18440 0.94620
C6 C 0.62110 0.09840 0.97660
C7 C 0.73830 0.11400 0.94680
C8 C 0.72700 0.10500 0.87540
C9 C 0.83290 0.13470 0.83680
C10 C 0.91450 0.02770 0.83450
C11 C 1.02410 0.06760 0.86140
C12 C 1.12630 0.00460 0.87040
C13 C 1.21830 0.07000 0.89180
C14 C 1.20900 0.19230 0.90330
C15 C 1.10880 0.25500 0.89500
C16 C 1.01540 0.18900 0.87400
N3 N 0.90350 0.23250 0.86450
O1 O 0.88720 -0.07140 0.81650
H1 H 0.81300 0.37100 0.73400
H2 H 0.81000 0.14300 0.73300
H3 H 0.61800 0.09700 0.76400
H4 H 0.61700 0.26400 0.76200
H5 H 0.47600 0.23700 0.85400
H6 H 0.50600 0.08400 0.86100
H7 H 0.45200 0.16700 0.96700
H8 H 0.55500 0.27800 0.96000
H9 H 0.63100 0.11100 1.02900
H10 H 0.59900 0.01700 0.96800
H11 H 0.77000 0.20500 0.95400
H12 H 0.79300 0.04400 0.96600
H13 H 0.69800 0.00800 0.86000
H14 H 1.12300 -0.10500 0.86100
H15 H 1.30200 0.02700 0.89000
H16 H 1.28000 0.24200 0.91900
H17 H 1.10800 0.34600 0.91200
N1 N 0.39920 0.16410 0.32410
C1 C 0.33490 0.18830 0.27660
C2 C 0.28570 0.31130 0.27330
C3 C 0.15590 0.31500 0.28180
N2 N 0.14510 0.30640 0.35090
C4 C 0.03120 0.32890 0.37410
C5 C 0.03450 0.31560 0.44620
C6 C 0.12110 0.40160 0.47660
C7 C 0.23830 0.38600 0.44680
C8 C 0.22700 0.39500 0.37540
C9 C 0.33290 0.36530 0.33680
C10 C 0.41450 0.47230 0.33450
C11 C 0.52410 0.43240 0.36140
C12 C 0.62630 0.49540 0.37040
C13 C 0.71830 0.43000 0.39180
C14 C 0.70900 0.30770 0.40330
C15 C 0.60880 0.24500 0.39500
C16 C 0.51540 0.31100 0.37400
N3 N 0.40350 0.26750 0.36450
O1 O 0.38720 0.57140 0.31650
H1 H 0.31300 0.12900 0.23400
H2 H 0.31000 0.35700 0.23300
H3 H 0.11800 0.40300 0.26400
H4 H 0.11700 0.23600 0.26200
H5 H -0.02400 0.26300 0.35400
H6 H 0.00600 0.41600 0.36100
H7 H -0.04800 0.33300 0.46700
H8 H 0.05500 0.22200 0.46000
H9 H 0.13100 0.38900 0.52900
H10 H 0.09900 0.48300 0.46800
H11 H 0.27000 0.29500 0.45400
H12 H 0.29300 0.45600 0.46600
H13 H 0.19800 0.49200 0.36000
H14 H 0.62300 0.60500 0.36100
H15 H 0.80200 0.47300 0.39000
H16 H 0.78000 0.25800 0.41900
H17 H 0.60800 0.15400 0.41200
N1 N 0.89920 0.66410 0.32410
C1 C 0.83490 0.68830 0.27660
C2 C 0.78570 0.81130 0.27330
C3 C 0.65590 0.81500 0.28180
N2 N 0.64510 0.80640 0.35090
C4 C 0.53120 0.82890 0.37410
C5 C 0.53450 0.81560 0.44620
C6 C 0.62110 0.90160 0.47660
C7 C 0.73830 0.88600 0.44680
C8 C 0.72700 0.89500 0.37540
C9 C 0.83290 0.86530 0.33680
C10 C 0.91450 0.97230 0.33450
C11 C 1.02410 0.93240 0.36140
C12 C 1.12630 0.99540 0.37040
C13 C 1.21830 0.93000 0.39180
C14 C 1.20900 0.80770 0.40330
C15 C 1.10880 0.74500 0.39500
C16 C 1.01540 0.81100 0.37400
N3 N 0.90350 0.76750 0.36450
O1 O 0.88720 1.07140 0.31650
H1 H 0.81300 0.62900 0.23400
H2 H 0.81000 0.85700 0.23300
H3 H 0.61800 0.90300 0.26400
H4 H 0.61700 0.73600 0.26200
H5 H 0.47600 0.76300 0.35400
H6 H 0.50600 0.91600 0.36100
H7 H 0.45200 0.83300 0.46700
H8 H 0.55500 0.72200 0.46000
H9 H 0.63100 0.88900 0.52900
H10 H 0.59900 0.98300 0.46800
H11 H 0.77000 0.79500 0.45400
H12 H 0.79300 0.95600 0.46600
H13 H 0.69800 0.99200 0.36000
H14 H 1.12300 1.10500 0.36100
H15 H 1.30200 0.97300 0.39000
H16 H 1.28000 0.75800 0.41900
H17 H 1.10800 0.65400 0.41200
N1 N 0.60080 0.16410 0.17590
C1 C 0.66510 0.18830 0.22340
C2 C 0.71430 0.31130 0.22670
C3 C 0.84410 0.31500 0.21820
N2 N 0.85490 0.30640 0.14910
C4 C 0.96880 0.32890 0.12590
C5 C 0.96550 0.31560 0.05380
C6 C 0.87890 0.40160 0.02340
C7 C 0.76170 0.38600 0.05320
C8 C 0.77300 0.39500 0.12460
C9 C 0.66710 0.36530 0.16320
C10 C 0.58550 0.47230 0.16550
C11 C 0.47590 0.43240 0.13860
C12 C 0.37370 0.49540 0.12960
C13 C 0.28170 0.43000 0.10820
C14 C 0.29100 0.30770 0.09670
C15 C 0.39120 0.24500 0.10500
C16 C 0.48460 0.31100 0.12600
N3 N 0.59650 0.26750 0.13550
O1 O 0.61280 0.57140 0.18350
H1 H 0.68700 0.12900 0.26600
H2 H 0.69000 0.35700 0.26700
H3 H 0.88200 0.40300 0.23600
H4 H 0.88300 0.23600 0.23800
H5 H 1.02400 0.26300 0.14600
H6 H 0.99400 0.41600 0.13900
H7 H 1.04800 0.33300 0.03300
H8 H 0.94500 0.22200 0.04000
H9 H 0.86900 0.38900 -0.02900
H10 H 0.90100 0.48300 0.03200
H11 H 0.73000 0.29500 0.04600
H12 H 0.70700 0.45600 0.03400
H13 H 0.80200 0.49200 0.14000
H14 H 0.37700 0.60500 0.13900
H15 H 0.19800 0.47300 0.11000
H16 H 0.22000 0.25800 0.08100
H17 H 0.39200 0.15400 0.08800
N1 N 0.10080 0.66410 0.17590
C1 C 0.16510 0.68830 0.22340
C2 C 0.21430 0.81130 0.22670
C3 C 0.34410 0.81500 0.21820
N2 N 0.35490 0.80640 0.14910
C4 C 0.46880 0.82890 0.12590
C5 C 0.46550 0.81560 0.05380
C6 C 0.37890 0.90160 0.02340
C7 C 0.26170 0.88600 0.05320
C8 C 0.27300 0.89500 0.12460
C9 C 0.16710 0.86530 0.16320
C10 C 0.08550 0.97230 0.16550
C11 C -0.02410 0.93240 0.13860
C12 C -0.12630 0.99540 0.12960
C13 C -0.21830 0.93000 0.10820
C14 C -0.20900 0.80770 0.09670
C15 C -0.10880 0.74500 0.10500
C16 C -0.01540 0.81100 0.12600
N3 N 0.09650 0.76750 0.13550
O1 O 0.11280 1.07140 0.18350
H1 H 0.18700 0.62900 0.26600
H2 H 0.19000 0.85700 0.26700
H3 H 0.38200 0.90300 0.23600
H4 H 0.38300 0.73600 0.23800
H5 H 0.52400 0.76300 0.14600
H6 H 0.49400 0.91600 0.13900
H7 H 0.54800 0.83300 0.03300
H8 H 0.44500 0.72200 0.04000
H9 H 0.36900 0.88900 -0.02900
H10 H 0.40100 0.98300 0.03200
H11 H 0.23000 0.79500 0.04600
H12 H 0.20700 0.95600 0.03400
H13 H 0.30200 0.99200 0.14000
H14 H -0.12300 1.10500 0.13900
H15 H -0.30200 0.97300 0.11000
H16 H -0.28000 0.75800 0.08100
H17 H -0.10800 0.65400 0.08800

#END
