
#######################################################################
#
#                 Cambridge Crystallographic Data Centre
#                                CCDC 
#
#######################################################################
#
# If this CIF has been generated from an entry in the Cambridge 
# Structural Database, then it will include bibliographic, chemical, 
# crystal, experimental, refinement or atomic coordinate data resulting 
# from the CCDC's data processing and validation procedures.
#
#######################################################################

data_SLFNMA02
_symmetry_cell_setting           orthorhombic
_symmetry_space_group_name_H-M   'P n 21 a'
_symmetry_Int_Tables_number      33
_space_group_name_Hall           'P -2ac -2n'
loop_
_symmetry_equiv_pos_site_id
_symmetry_equiv_pos_as_xyz
1 x,y,z
2 1/2-x,1/2+y,1/2+z
3 1/2+x,y,1/2-z
4 -x,1/2+y,-z
_cell_length_a                   14.474(2)
_cell_length_b                   21.953(2)
_cell_length_c                   8.203(1)
_cell_angle_alpha                90
_cell_angle_beta                 90
_cell_angle_gamma                90
_cell_volume                     2606.48
loop_
_atom_site_label
_atom_site_type_symbol
_atom_site_fract_x
_atom_site_fract_y
_atom_site_fract_z
C1 C 1.0189(3) 0.7347(2) 0.8145(5)
C2 C 0.9282(3) 0.7555(2) 0.8163(6)
C3 C 0.8828(3) 0.7654(2) 0.6721(6)
C4 C 0.9268(4) 0.7562(3) 0.5232(6)
C5 C 1.0179(4) 0.7352(3) 0.5223(6)
C6 C 1.0632(3) 0.7246(3) 0.6668(6)
N1 N 0.8797(4) 0.7650(3) 0.3821(6)
S1 S 1.0778(1) 0.7209 0.9946(1)
O1 O 1.0357(3) 0.7554(2) 1.1214(4)
O2 O 1.1751(2) 0.7279(2) 0.9669(5)
N2 N 1.0686(3) 0.6479(2) 1.0351(6)
C7 C 0.9869(3) 0.6172(2) 1.0630(6)
N3 N 0.9101(3) 0.6485(2) 1.0842(5)
C8 C 0.8331(4) 0.6169(3) 1.1135(8)
C9 C 0.8366(4) 0.5541(3) 1.1252(12)
C10 C 0.9193(5) 0.5260(3) 1.0970(13)
N4 N 0.9967(3) 0.5571(2) 1.0675(7)
C11 C 0.7460(4) 0.6527(4) 1.1347(11)
H1 H 0.8962(3) 0.7631(2) 0.9224(6)
H2 H 0.8169(3) 0.7792(2) 0.6740(6)
H3 H 1.0500(4) 0.7277(3) 0.4163(6)
H4 H 1.1285(3) 0.7095(3) 0.6656(6)
H5 H 0.8285(42) 0.7849(29) 0.3778(75)
H6 H 0.9202(39) 0.7690(29) 0.3072(78)
H7 H 1.1269(3) 0.6236(2) 1.0400(6)
H8 H 0.7802(4) 0.5299(3) 1.1527(12)
H9 H 0.9219(5) 0.4805(3) 1.0986(13)
H10 H 0.6894(4) 0.6274(4) 1.1511(11)
H11 H 0.7340(4) 0.6839(4) 1.0484(11)
H12 H 0.7624(4) 0.6736(4) 1.2391(11)
C1 C 0.4811(3) 0.2347(2) 0.3145(5)
C2 C 0.5718(3) 0.2555(2) 0.3163(6)
C3 C 0.6172(3) 0.2654(2) 0.1721(6)
C4 C 0.5732(4) 0.2562(3) 0.0232(6)
C5 C 0.4821(4) 0.2352(3) 0.0223(6)
C6 C 0.4368(3) 0.2246(3) 0.1668(6)
N1 N 0.6203(4) 0.2650(3) -0.1179(6)
S1 S 0.4222(1) 0.2209 0.4946(1)
O1 O 0.4643(3) 0.2554(2) 0.6214(4)
O2 O 0.3249(2) 0.2279(2) 0.4669(5)
N2 N 0.4314(3) 0.1479(2) 0.5351(6)
C7 C 0.5131(3) 0.1172(2) 0.5630(6)
N3 N 0.5899(3) 0.1485(2) 0.5842(5)
C8 C 0.6669(4) 0.1169(3) 0.6135(8)
C9 C 0.6634(4) 0.0541(3) 0.6252(12)
C10 C 0.5807(5) 0.0260(3) 0.5970(13)
N4 N 0.5033(3) 0.0571(2) 0.5675(7)
C11 C 0.7540(4) 0.1527(4) 0.6347(11)
H1 H 0.6038(3) 0.2631(2) 0.4224(6)
H2 H 0.6831(3) 0.2792(2) 0.1740(6)
H3 H 0.4500(4) 0.2277(3) -0.0837(6)
H4 H 0.3715(3) 0.2095(3) 0.1656(6)
H5 H 0.6715(42) 0.2849(29) -0.1222(75)
H6 H 0.5798(39) 0.2690(29) -0.1928(78)
H7 H 0.3731(3) 0.1236(2) 0.5400(6)
H8 H 0.7198(4) 0.0299(3) 0.6527(12)
H9 H 0.5781(5) -0.0195(3) 0.5986(13)
H10 H 0.8106(4) 0.1274(4) 0.6511(11)
H11 H 0.7660(4) 0.1839(4) 0.5484(11)
H12 H 0.7376(4) 0.1736(4) 0.7391(11)
C1 C 0.5189(3) 0.7347(2) 0.6855(5)
C2 C 0.4282(3) 0.7555(2) 0.6837(6)
C3 C 0.3828(3) 0.7654(2) 0.8279(6)
C4 C 0.4268(4) 0.7562(3) 0.9768(6)
C5 C 0.5179(4) 0.7352(3) 0.9777(6)
C6 C 0.5632(3) 0.7246(3) 0.8332(6)
N1 N 0.3797(4) 0.7650(3) 1.1179(6)
S1 S 0.5778(1) 0.7209 0.5054(1)
O1 O 0.5357(3) 0.7554(2) 0.3786(4)
O2 O 0.6751(2) 0.7279(2) 0.5331(5)
N2 N 0.5686(3) 0.6479(2) 0.4649(6)
C7 C 0.4869(3) 0.6172(2) 0.4370(6)
N3 N 0.4101(3) 0.6485(2) 0.4158(5)
C8 C 0.3331(4) 0.6169(3) 0.3865(8)
C9 C 0.3366(4) 0.5541(3) 0.3748(12)
C10 C 0.4193(5) 0.5260(3) 0.4030(13)
N4 N 0.4967(3) 0.5571(2) 0.4325(7)
C11 C 0.2460(4) 0.6527(4) 0.3653(11)
H1 H 0.3962(3) 0.7631(2) 0.5776(6)
H2 H 0.3169(3) 0.7792(2) 0.8260(6)
H3 H 0.5500(4) 0.7277(3) 1.0837(6)
H4 H 0.6285(3) 0.7095(3) 0.8344(6)
H5 H 0.3285(42) 0.7849(29) 1.1222(75)
H6 H 0.4202(39) 0.7690(29) 1.1928(78)
H7 H 0.6269(3) 0.6236(2) 0.4600(6)
H8 H 0.2802(4) 0.5299(3) 0.3473(12)
H9 H 0.4219(5) 0.4805(3) 0.4014(13)
H10 H 0.1894(4) 0.6274(4) 0.3489(11)
H11 H 0.2340(4) 0.6839(4) 0.4516(11)
H12 H 0.2624(4) 0.6736(4) 0.2609(11)
C1 C -0.0189(3) 0.2347(2) 0.1855(5)
C2 C 0.0718(3) 0.2555(2) 0.1837(6)
C3 C 0.1172(3) 0.2654(2) 0.3279(6)
C4 C 0.0732(4) 0.2562(3) 0.4768(6)
C5 C -0.0179(4) 0.2352(3) 0.4777(6)
C6 C -0.0632(3) 0.2246(3) 0.3332(6)
N1 N 0.1203(4) 0.2650(3) 0.6179(6)
S1 S -0.0778(1) 0.2209 0.0054(1)
O1 O -0.0357(3) 0.2554(2) -0.1214(4)
O2 O -0.1751(2) 0.2279(2) 0.0331(5)
N2 N -0.0686(3) 0.1479(2) -0.0351(6)
C7 C 0.0131(3) 0.1172(2) -0.0630(6)
N3 N 0.0899(3) 0.1485(2) -0.0842(5)
C8 C 0.1669(4) 0.1169(3) -0.1135(8)
C9 C 0.1634(4) 0.0541(3) -0.1252(12)
C10 C 0.0807(5) 0.0260(3) -0.0970(13)
N4 N 0.0033(3) 0.0571(2) -0.0675(7)
C11 C 0.2540(4) 0.1527(4) -0.1347(11)
H1 H 0.1038(3) 0.2631(2) 0.0776(6)
H2 H 0.1831(3) 0.2792(2) 0.3260(6)
H3 H -0.0500(4) 0.2277(3) 0.5837(6)
H4 H -0.1285(3) 0.2095(3) 0.3344(6)
H5 H 0.1715(42) 0.2849(29) 0.6222(75)
H6 H 0.0798(39) 0.2690(29) 0.6928(78)
H7 H -0.1269(3) 0.1236(2) -0.0400(6)
H8 H 0.2198(4) 0.0299(3) -0.1527(12)
H9 H 0.0781(5) -0.0195(3) -0.0986(13)
H10 H 0.3106(4) 0.1274(4) -0.1511(11)
H11 H 0.2660(4) 0.1839(4) -0.0484(11)
H12 H 0.2376(4) 0.1736(4) -0.2391(11)
C12 C 0.2065(3) 0.4035(2) 0.1779(5)
C13 C 0.2958(3) 0.3796(2) 0.1808(6)
C14 C 0.3403(3) 0.3727(3) 0.3249(6)
C15 C 0.2984(4) 0.3881(2) 0.4723(6)
C16 C 0.2081(4) 0.4118(3) 0.4673(6)
C17 C 0.1637(3) 0.4190(3) 0.3231(6)
N5 N 0.3432(3) 0.3816(3) 0.6161(6)
S2 S 0.1474(1) 0.4135(1) -0.0043(1)
O3 O 0.1899(3) 0.3784(2) -0.1279(4)
O4 O 0.0502(2) 0.4071(2) 0.0234(4)
N6 N 0.1564(3) 0.4863(2) -0.0498(6)
C18 C 0.2383(3) 0.5186(2) -0.0725(7)
N7 N 0.3154(3) 0.4871(2) -0.0888(5)
C19 C 0.3926(4) 0.5200(3) -0.1116(7)
C20 C 0.3904(4) 0.5818(3) -0.1186(10)
C21 C 0.3065(4) 0.6098(3) -0.0979(12)
N8 N 0.2278(3) 0.5783(2) -0.0713(7)
C22 C 0.4798(4) 0.4843(4) -0.1288(10)
H13 H 0.3271(3) 0.3677(2) 0.0768(6)
H14 H 0.4046(3) 0.3560(3) 0.3256(6)
H15 H 0.1762(4) 0.4233(3) 0.5710(6)
H16 H 0.0994(3) 0.4357(3) 0.3215(6)
H17 H 0.3982(45) 0.3651(30) 0.6221(78)
H18 H 0.3102(39) 0.3912(27) 0.7180(84)
H19 H 0.0974(3) 0.5096(2) -0.0622(6)
H20 H 0.4479(4) 0.6060(3) -0.1377(10)
H21 H 0.3034(4) 0.6553(3) -0.1031(12)
H22 H 0.5331(4) 0.5121(4) -0.1504(10)
H23 H 0.4709(4) 0.4565(4) -0.2240(10)
H24 H 0.4926(4) 0.4596(4) -0.0289(10)
C12 C 0.2935(3) 0.9035(2) 0.6779(5)
C13 C 0.2042(3) 0.8796(2) 0.6808(6)
C14 C 0.1597(3) 0.8727(3) 0.8249(6)
C15 C 0.2016(4) 0.8881(2) 0.9723(6)
C16 C 0.2919(4) 0.9118(3) 0.9673(6)
C17 C 0.3363(3) 0.9190(3) 0.8231(6)
N5 N 0.1568(3) 0.8816(3) 1.1161(6)
S2 S 0.3526(1) 0.9135(1) 0.4957(1)
O3 O 0.3101(3) 0.8784(2) 0.3721(4)
O4 O 0.4498(2) 0.9071(2) 0.5234(4)
N6 N 0.3436(3) 0.9863(2) 0.4502(6)
C18 C 0.2617(3) 1.0186(2) 0.4275(7)
N7 N 0.1846(3) 0.9871(2) 0.4112(5)
C19 C 0.1074(4) 1.0200(3) 0.3884(7)
C20 C 0.1096(4) 1.0818(3) 0.3814(10)
C21 C 0.1935(4) 1.1098(3) 0.4021(12)
N8 N 0.2722(3) 1.0783(2) 0.4287(7)
C22 C 0.0202(4) 0.9843(4) 0.3712(10)
H13 H 0.1729(3) 0.8677(2) 0.5768(6)
H14 H 0.0954(3) 0.8560(3) 0.8256(6)
H15 H 0.3238(4) 0.9233(3) 1.0710(6)
H16 H 0.4006(3) 0.9357(3) 0.8215(6)
H17 H 0.1018(45) 0.8651(30) 1.1221(78)
H18 H 0.1898(39) 0.8912(27) 1.2180(84)
H19 H 0.4026(3) 1.0096(2) 0.4378(6)
H20 H 0.0521(4) 1.1060(3) 0.3623(10)
H21 H 0.1966(4) 1.1553(3) 0.3969(12)
H22 H -0.0331(4) 1.0121(4) 0.3496(10)
H23 H 0.0291(4) 0.9565(4) 0.2760(10)
H24 H 0.0074(4) 0.9596(4) 0.4711(10)
C12 C 0.7065(3) 0.4035(2) 0.3221(5)
C13 C 0.7958(3) 0.3796(2) 0.3192(6)
C14 C 0.8403(3) 0.3727(3) 0.1751(6)
C15 C 0.7984(4) 0.3881(2) 0.0277(6)
C16 C 0.7081(4) 0.4118(3) 0.0327(6)
C17 C 0.6637(3) 0.4190(3) 0.1769(6)
N5 N 0.8432(3) 0.3816(3) -0.1161(6)
S2 S 0.6474(1) 0.4135(1) 0.5043(1)
O3 O 0.6899(3) 0.3784(2) 0.6279(4)
O4 O 0.5502(2) 0.4071(2) 0.4766(4)
N6 N 0.6564(3) 0.4863(2) 0.5498(6)
C18 C 0.7383(3) 0.5186(2) 0.5725(7)
N7 N 0.8154(3) 0.4871(2) 0.5888(5)
C19 C 0.8926(4) 0.5200(3) 0.6116(7)
C20 C 0.8904(4) 0.5818(3) 0.6186(10)
C21 C 0.8065(4) 0.6098(3) 0.5979(12)
N8 N 0.7278(3) 0.5783(2) 0.5713(7)
C22 C 0.9798(4) 0.4843(4) 0.6288(10)
H13 H 0.8271(3) 0.3677(2) 0.4232(6)
H14 H 0.9046(3) 0.3560(3) 0.1744(6)
H15 H 0.6762(4) 0.4233(3) -0.0710(6)
H16 H 0.5994(3) 0.4357(3) 0.1785(6)
H17 H 0.8982(45) 0.3651(30) -0.1221(78)
H18 H 0.8102(39) 0.3912(27) -0.2180(84)
H19 H 0.5974(3) 0.5096(2) 0.5622(6)
H20 H 0.9479(4) 0.6060(3) 0.6377(10)
H21 H 0.8034(4) 0.6553(3) 0.6031(12)
H22 H 1.0331(4) 0.5121(4) 0.6504(10)
H23 H 0.9709(4) 0.4565(4) 0.7240(10)
H24 H 0.9926(4) 0.4596(4) 0.5289(10)
C12 C 0.7935(3) 0.9035(2) 0.8221(5)
C13 C 0.7042(3) 0.8796(2) 0.8192(6)
C14 C 0.6597(3) 0.8727(3) 0.6751(6)
C15 C 0.7016(4) 0.8881(2) 0.5277(6)
C16 C 0.7919(4) 0.9118(3) 0.5327(6)
C17 C 0.8363(3) 0.9190(3) 0.6769(6)
N5 N 0.6568(3) 0.8816(3) 0.3839(6)
S2 S 0.8526(1) 0.9135(1) 1.0043(1)
O3 O 0.8101(3) 0.8784(2) 1.1279(4)
O4 O 0.9498(2) 0.9071(2) 0.9766(4)
N6 N 0.8436(3) 0.9863(2) 1.0498(6)
C18 C 0.7617(3) 1.0186(2) 1.0725(7)
N7 N 0.6846(3) 0.9871(2) 1.0888(5)
C19 C 0.6074(4) 1.0200(3) 1.1116(7)
C20 C 0.6096(4) 1.0818(3) 1.1186(10)
C21 C 0.6935(4) 1.1098(3) 1.0979(12)
N8 N 0.7722(3) 1.0783(2) 1.0713(7)
C22 C 0.5202(4) 0.9843(4) 1.1288(10)
H13 H 0.6729(3) 0.8677(2) 0.9232(6)
H14 H 0.5954(3) 0.8560(3) 0.6744(6)
H15 H 0.8238(4) 0.9233(3) 0.4290(6)
H16 H 0.9006(3) 0.9357(3) 0.6785(6)
H17 H 0.6018(45) 0.8651(30) 0.3779(78)
H18 H 0.6898(39) 0.8912(27) 0.2820(84)
H19 H 0.9026(3) 1.0096(2) 1.0622(6)
H20 H 0.5521(4) 1.1060(3) 1.1377(10)
H21 H 0.6966(4) 1.1553(3) 1.1031(12)
H22 H 0.4669(4) 1.0121(4) 1.1504(10)
H23 H 0.5291(4) 0.9565(4) 1.2240(10)
H24 H 0.5074(4) 0.9596(4) 1.0289(10)

#END
