
#######################################################################
#
#                 Cambridge Crystallographic Data Centre
#                                CCDC 
#
#######################################################################
#
# If this CIF has been generated from an entry in the Cambridge 
# Structural Database, then it will include bibliographic, chemical, 
# crystal, experimental, refinement or atomic coordinate data resulting 
# from the CCDC's data processing and validation procedures.
#
#######################################################################

data_UCECAG01
_symmetry_cell_setting           monoclinic
_symmetry_space_group_name_H-M   'P 21/c'
_symmetry_Int_Tables_number      14
_space_group_name_Hall           '-P 2ybc'
loop_
_symmetry_equiv_pos_site_id
_symmetry_equiv_pos_as_xyz
1 x,y,z
2 -x,1/2+y,1/2-z
3 -x,-y,-z
4 x,1/2-y,1/2+z
_cell_length_a                   11.285(3)
_cell_length_b                   18.220(3)
_cell_length_c                   7.886(8)
_cell_angle_alpha                90
_cell_angle_beta                 90.44(4)
_cell_angle_gamma                90
_cell_volume                     1621.41
loop_
_atom_site_label
_atom_site_type_symbol
_atom_site_fract_x
_atom_site_fract_y
_atom_site_fract_z
Cl1 Cl -0.21738(10) 0.87616(6) -0.01043(14)
O1 O 0.2188(2) 0.95908(14) 0.4394(4)
O2 O 0.0833(3) 1.03513(14) 0.3674(4)
O3 O 0.1753(3) 0.70477(14) 0.3781(4)
O4 O 0.0412(3) 0.66059(13) 0.2123(4)
N1 N -0.0929(3) 0.99306(17) 0.1683(4)
H1 H -0.0620 1.0316 0.2134
H2 H -0.1558 0.9968 0.1066
N2 N 0.1245(3) 0.97344(17) 0.3713(4)
N3 N 0.0913(3) 0.71212(16) 0.2822(4)
C1 C -0.0434(3) 0.92773(18) 0.1939(4)
C2 C 0.0594(3) 0.91347(18) 0.2919(4)
C3 C 0.1032(3) 0.84396(18) 0.3201(5)
H3 H 0.1705 0.8371 0.3869
C4 C 0.0467(3) 0.78554(18) 0.2490(5)
C5 C -0.0523(3) 0.79514(19) 0.1460(5)
H4 H -0.0895 0.7549 0.0964
C6 C -0.0942(3) 0.86370(19) 0.1184(5)
Cl1 Cl 1.21738(10) 0.37616(6) 0.51043(14)
O1 O 0.7812(2) 0.45908(14) 0.0606(4)
O2 O 0.9167(3) 0.53513(14) 0.1326(4)
O3 O 0.8247(3) 0.20477(14) 0.1219(4)
O4 O 0.9588(3) 0.16059(13) 0.2877(4)
N1 N 1.0929(3) 0.49306(17) 0.3317(4)
H1 H 1.0620 0.5316 0.2866
H2 H 1.1558 0.4968 0.3934
N2 N 0.8755(3) 0.47344(17) 0.1287(4)
N3 N 0.9087(3) 0.21212(16) 0.2178(4)
C1 C 1.0434(3) 0.42773(18) 0.3061(4)
C2 C 0.9406(3) 0.41347(18) 0.2081(4)
C3 C 0.8968(3) 0.34396(18) 0.1799(5)
H3 H 0.8295 0.3371 0.1131
C4 C 0.9533(3) 0.28554(18) 0.2510(5)
C5 C 1.0523(3) 0.29514(19) 0.3540(5)
H4 H 1.0895 0.2549 0.4036
C6 C 1.0942(3) 0.36370(19) 0.3816(5)
Cl1 Cl 1.21738(10) 0.12384(6) 1.01043(14)
O1 O 0.7812(2) 0.04092(14) 0.5606(4)
O2 O 0.9167(3) -0.03513(14) 0.6326(4)
O3 O 0.8247(3) 0.29523(14) 0.6219(4)
O4 O 0.9588(3) 0.33941(13) 0.7877(4)
N1 N 1.0929(3) 0.00694(17) 0.8317(4)
H1 H 1.0620 -0.0316 0.7866
H2 H 1.1558 0.0032 0.8934
N2 N 0.8755(3) 0.02656(17) 0.6287(4)
N3 N 0.9087(3) 0.28788(16) 0.7178(4)
C1 C 1.0434(3) 0.07227(18) 0.8061(4)
C2 C 0.9406(3) 0.08653(18) 0.7081(4)
C3 C 0.8968(3) 0.15604(18) 0.6799(5)
H3 H 0.8295 0.1629 0.6131
C4 C 0.9533(3) 0.21446(18) 0.7510(5)
C5 C 1.0523(3) 0.20486(19) 0.8540(5)
H4 H 1.0895 0.2451 0.9036
C6 C 1.0942(3) 0.13630(19) 0.8816(5)
Cl1 Cl -0.21738(10) 0.62384(6) 0.48957(14)
O1 O 0.2188(2) 0.54092(14) 0.9394(4)
O2 O 0.0833(3) 0.46487(14) 0.8674(4)
O3 O 0.1753(3) 0.79523(14) 0.8781(4)
O4 O 0.0412(3) 0.83941(13) 0.7123(4)
N1 N -0.0929(3) 0.50694(17) 0.6683(4)
H1 H -0.0620 0.4684 0.7134
H2 H -0.1558 0.5032 0.6066
N2 N 0.1245(3) 0.52656(17) 0.8713(4)
N3 N 0.0913(3) 0.78788(16) 0.7822(4)
C1 C -0.0434(3) 0.57227(18) 0.6939(4)
C2 C 0.0594(3) 0.58653(18) 0.7919(4)
C3 C 0.1032(3) 0.65604(18) 0.8201(5)
H3 H 0.1705 0.6629 0.8869
C4 C 0.0467(3) 0.71446(18) 0.7490(5)
C5 C -0.0523(3) 0.70486(19) 0.6460(5)
H4 H -0.0895 0.7451 0.5964
C6 C -0.0942(3) 0.63630(19) 0.6184(5)
Cl2 Cl 0.72603(9) 0.64735(5) 0.99049(14)
O5 O 0.4121(3) 0.48583(14) 0.6441(4)
O6 O 0.2894(2) 0.56281(14) 0.5408(4)
O7 O 0.3408(3) 0.81778(13) 0.5843(4)
O8 O 0.4724(3) 0.86196(13) 0.7550(4)
N4 N 0.5905(3) 0.52909(16) 0.8363(4)
H5 H 0.5564 0.4901 0.7984
H6 H 0.6525 0.5255 0.8997
N5 N 0.3789(3) 0.54837(16) 0.6219(4)
N6 N 0.4222(3) 0.81059(16) 0.6850(4)
C7 C 0.5471(3) 0.59493(18) 0.7970(4)
C8 C 0.4466(3) 0.60833(17) 0.6947(5)
C9 C 0.4052(3) 0.67790(17) 0.6581(4)
H7 H 0.3382 0.6843 0.5904
C10 C 0.4644(3) 0.73720(17) 0.7229(5)
C11 C 0.5641(3) 0.72787(19) 0.8249(5)
H8 H 0.6039 0.7686 0.8681
C12 C 0.6033(3) 0.65929(18) 0.8612(5)
Cl2 Cl 0.27397(9) 0.14735(5) 0.50951(14)
O5 O 0.5879(3) -0.01417(14) 0.8559(4)
O6 O 0.7106(2) 0.06281(14) 0.9592(4)
O7 O 0.6592(3) 0.31778(13) 0.9157(4)
O8 O 0.5276(3) 0.36196(13) 0.7450(4)
N4 N 0.4095(3) 0.02909(16) 0.6637(4)
H5 H 0.4436 -0.0099 0.7016
H6 H 0.3475 0.0255 0.6003
N5 N 0.6211(3) 0.04837(16) 0.8781(4)
N6 N 0.5778(3) 0.31059(16) 0.8150(4)
C7 C 0.4529(3) 0.09493(18) 0.7030(4)
C8 C 0.5534(3) 0.10833(17) 0.8053(5)
C9 C 0.5948(3) 0.17790(17) 0.8419(4)
H7 H 0.6618 0.1843 0.9096
C10 C 0.5356(3) 0.23720(17) 0.7771(5)
C11 C 0.4359(3) 0.22787(19) 0.6751(5)
H8 H 0.3961 0.2686 0.6319
C12 C 0.3967(3) 0.15929(18) 0.6388(5)
Cl2 Cl 0.27397(9) 0.35265(5) 0.00951(14)
O5 O 0.5879(3) 0.51417(14) 0.3559(4)
O6 O 0.7106(2) 0.43719(14) 0.4592(4)
O7 O 0.6592(3) 0.18222(13) 0.4157(4)
O8 O 0.5276(3) 0.13804(13) 0.2450(4)
N4 N 0.4095(3) 0.47091(16) 0.1637(4)
H5 H 0.4436 0.5099 0.2016
H6 H 0.3475 0.4745 0.1003
N5 N 0.6211(3) 0.45163(16) 0.3781(4)
N6 N 0.5778(3) 0.18941(16) 0.3150(4)
C7 C 0.4529(3) 0.40507(18) 0.2030(4)
C8 C 0.5534(3) 0.39167(17) 0.3053(5)
C9 C 0.5948(3) 0.32210(17) 0.3419(4)
H7 H 0.6618 0.3157 0.4096
C10 C 0.5356(3) 0.26280(17) 0.2771(5)
C11 C 0.4359(3) 0.27213(19) 0.1751(5)
H8 H 0.3961 0.2314 0.1319
C12 C 0.3967(3) 0.34071(18) 0.1388(5)
Cl2 Cl 0.72603(9) 0.85265(5) 0.49049(14)
O5 O 0.4121(3) 1.01417(14) 0.1441(4)
O6 O 0.2894(2) 0.93719(14) 0.0408(4)
O7 O 0.3408(3) 0.68222(13) 0.0843(4)
O8 O 0.4724(3) 0.63804(13) 0.2550(4)
N4 N 0.5905(3) 0.97091(16) 0.3363(4)
H5 H 0.5564 1.0099 0.2984
H6 H 0.6525 0.9745 0.3997
N5 N 0.3789(3) 0.95163(16) 0.1219(4)
N6 N 0.4222(3) 0.68941(16) 0.1850(4)
C7 C 0.5471(3) 0.90507(18) 0.2970(4)
C8 C 0.4466(3) 0.89167(17) 0.1947(5)
C9 C 0.4052(3) 0.82210(17) 0.1581(4)
H7 H 0.3382 0.8157 0.0904
C10 C 0.4644(3) 0.76280(17) 0.2229(5)
C11 C 0.5641(3) 0.77213(19) 0.3249(5)
H8 H 0.6039 0.7314 0.3681
C12 C 0.6033(3) 0.84071(18) 0.3612(5)

#END
