
#######################################################################
#
#                 Cambridge Crystallographic Data Centre
#                                CCDC 
#
#######################################################################
#
# If this CIF has been generated from an entry in the Cambridge 
# Structural Database, then it will include bibliographic, chemical, 
# crystal, experimental, refinement or atomic coordinate data resulting 
# from the CCDC's data processing and validation procedures.
#
#######################################################################

data_VEWSIC01
_symmetry_cell_setting           orthorhombic
_symmetry_space_group_name_H-M   'P n a 21'
_symmetry_Int_Tables_number      33
_space_group_name_Hall           'P 2c -2n'
loop_
_symmetry_equiv_pos_site_id
_symmetry_equiv_pos_as_xyz
1 x,y,z
2 -x,-y,1/2+z
3 1/2+x,1/2-y,z
4 1/2-x,1/2+y,1/2+z
_cell_length_a                   7.859(5)
_cell_length_b                   6.118(4)
_cell_length_c                   24.872(17)
_cell_angle_alpha                90
_cell_angle_beta                 90
_cell_angle_gamma                90
_cell_volume                     1195.88
loop_
_atom_site_label
_atom_site_type_symbol
_atom_site_fract_x
_atom_site_fract_y
_atom_site_fract_z
C1 C 0.1245(11) -0.1858(10) 0.1506(4)
H1 H 0.0779 -0.3289 0.1489
C2 C 0.0840(12) 0.3080(11) -0.0671(4)
H2 H 0.1424 0.1728 -0.0707
C3 C 0.1674(11) 0.3171(10) 0.0647(4)
C4 C 0.1845(11) 0.1610(12) 0.1103(4)
C5 C -0.0842(12) 0.7043(13) -0.0557(4)
H3 H -0.1416 0.8402 -0.0521
C6 C -0.0291(11) 0.6362(15) -0.1050(4)
C7 C 0.2081(11) -0.1151(15) 0.1975(3)
C8 C 0.0518(10) 0.4356(13) -0.1119(3)
H4 H 0.0842 0.3873 -0.1467
C9 C 0.2814(11) 0.0910(14) 0.2005(4)
H5 H 0.3399 0.1375 0.2319
C10 C 0.2667(11) 0.2258(15) 0.1564(4)
H6 H 0.3149 0.3681 0.1579
C11 C -0.0562(10) 0.5745(14) -0.0111(4)
H7 H -0.0956 0.6179 0.0234
C12 C 0.1104(9) -0.0491(12) 0.1077(3)
H8 H 0.0512 -0.0945 0.0763
C13 C 0.0314(10) 0.3779(14) -0.0180(4)
O1 O 0.0613(8) 0.2406(11) 0.0260(2)
O2 O 0.2336(7) 0.4948(10) 0.0636(3)
Br1 Br 0.22357(13) -0.31075(12) 0.25648(3)
Br2 Br -0.05574(13) 0.82289(12) -0.16593(3)
C1 C 0.8755(11) 1.1858(10) 0.6506(4)
H1 H 0.9221 1.3289 0.6489
C2 C 0.9160(12) 0.6920(11) 0.4329(4)
H2 H 0.8576 0.8272 0.4293
C3 C 0.8326(11) 0.6829(10) 0.5647(4)
C4 C 0.8155(11) 0.8390(12) 0.6103(4)
C5 C 1.0842(12) 0.2957(13) 0.4443(4)
H3 H 1.1416 0.1598 0.4479
C6 C 1.0291(11) 0.3638(15) 0.3950(4)
C7 C 0.7919(11) 1.1151(15) 0.6975(3)
C8 C 0.9482(10) 0.5644(13) 0.3881(3)
H4 H 0.9158 0.6127 0.3533
C9 C 0.7186(11) 0.9090(14) 0.7005(4)
H5 H 0.6601 0.8625 0.7319
C10 C 0.7333(11) 0.7742(15) 0.6564(4)
H6 H 0.6851 0.6319 0.6579
C11 C 1.0562(10) 0.4255(14) 0.4889(4)
H7 H 1.0956 0.3821 0.5234
C12 C 0.8896(9) 1.0491(12) 0.6077(3)
H8 H 0.9488 1.0945 0.5763
C13 C 0.9686(10) 0.6221(14) 0.4820(4)
O1 O 0.9387(8) 0.7594(11) 0.5260(2)
O2 O 0.7664(7) 0.5052(10) 0.5636(3)
Br1 Br 0.77643(13) 1.31075(12) 0.75648(3)
Br2 Br 1.05574(13) 0.17711(12) 0.33407(3)
C1 C 0.6245(11) 0.6858(10) 0.1506(4)
H1 H 0.5779 0.8289 0.1489
C2 C 0.5840(12) 0.1920(11) -0.0671(4)
H2 H 0.6424 0.3272 -0.0707
C3 C 0.6674(11) 0.1829(10) 0.0647(4)
C4 C 0.6845(11) 0.3390(12) 0.1103(4)
C5 C 0.4158(12) -0.2043(13) -0.0557(4)
H3 H 0.3584 -0.3402 -0.0521
C6 C 0.4709(11) -0.1362(15) -0.1050(4)
C7 C 0.7081(11) 0.6151(15) 0.1975(3)
C8 C 0.5518(10) 0.0644(13) -0.1119(3)
H4 H 0.5842 0.1127 -0.1467
C9 C 0.7814(11) 0.4090(14) 0.2005(4)
H5 H 0.8399 0.3625 0.2319
C10 C 0.7667(11) 0.2742(15) 0.1564(4)
H6 H 0.8149 0.1319 0.1579
C11 C 0.4438(10) -0.0745(14) -0.0111(4)
H7 H 0.4044 -0.1179 0.0234
C12 C 0.6104(9) 0.5491(12) 0.1077(3)
H8 H 0.5512 0.5945 0.0763
C13 C 0.5314(10) 0.1221(14) -0.0180(4)
O1 O 0.5613(8) 0.2594(11) 0.0260(2)
O2 O 0.7336(7) 0.0052(10) 0.0636(3)
Br1 Br 0.72357(13) 0.81075(12) 0.25648(3)
Br2 Br 0.44426(13) -0.32289(12) -0.16593(3)
C1 C 0.3755(11) 0.3142(10) 0.6506(4)
H1 H 0.4221 0.1711 0.6489
C2 C 0.4160(12) 0.8080(11) 0.4329(4)
H2 H 0.3576 0.6728 0.4293
C3 C 0.3326(11) 0.8171(10) 0.5647(4)
C4 C 0.3155(11) 0.6610(12) 0.6103(4)
C5 C 0.5842(12) 1.2043(13) 0.4443(4)
H3 H 0.6416 1.3402 0.4479
C6 C 0.5291(11) 1.1362(15) 0.3950(4)
C7 C 0.2919(11) 0.3849(15) 0.6975(3)
C8 C 0.4482(10) 0.9356(13) 0.3881(3)
H4 H 0.4158 0.8873 0.3533
C9 C 0.2186(11) 0.5910(14) 0.7005(4)
H5 H 0.1601 0.6375 0.7319
C10 C 0.2333(11) 0.7258(15) 0.6564(4)
H6 H 0.1851 0.8681 0.6579
C11 C 0.5562(10) 1.0745(14) 0.4889(4)
H7 H 0.5956 1.1179 0.5234
C12 C 0.3896(9) 0.4509(12) 0.6077(3)
H8 H 0.4488 0.4055 0.5763
C13 C 0.4686(10) 0.8779(14) 0.4820(4)
O1 O 0.4387(8) 0.7406(11) 0.5260(2)
O2 O 0.2664(7) 0.9948(10) 0.5636(3)
Br1 Br 0.27643(13) 0.18925(12) 0.75648(3)
Br2 Br 0.55574(13) 1.32289(12) 0.33407(3)

#END
