./AACANI10_from_xyz.cif_generated_by_CrystalShift
_symmetry_cell_setting triclinic
_symmetry_space_group_name_H-M 'P 1'
loop_
_symmetry_equiv_pos_site_id
_symmetry_equiv_pos_as_xyz
1 x,y,z
_cell_length_a 14.412000
_cell_length_b 7.316000
_cell_length_c 14.431000
_cell_angle_alpha 90.000000
_cell_angle_beta 112.900000
_cell_angle_gamma 90.000000
_cell_volume 1401.655996
loop_
_atom_site_label
_atom_site_type_symbol
_atom_site_fract_x
_atom_site_fract_y
_atom_site_fract_z
C1 C 0.869100 0.898100 0.264600
C2 C 0.597200 0.915300 0.340900
C3 C 0.780400 1.026300 0.216000
C4 C 0.710200 1.054400 0.272700
C5 C 0.607700 0.780000 0.187600
C6 C 0.660000 0.605400 0.176400
C7 C 0.769800 0.626800 0.181100
C8 C 0.932300 0.598700 0.322500
C9 C 0.912800 0.438000 0.380400
C10 C 0.587900 0.740900 0.396700
H11 H 0.918000 0.863000 0.230000
H12 H 0.624000 1.032000 0.393000
H13 H 0.828000 1.155000 0.218000
H14 H 0.752000 1.215000 0.307000
H15 H 0.603000 0.884000 0.131000
H16 H 0.659000 0.520000 0.216000
H17 H 0.792000 0.494000 0.191000
H18 H 0.989000 0.654000 0.377000
H19 H 0.912000 0.941000 0.336000
H20 H 0.521000 0.890000 0.280000
H21 H 0.727000 0.974000 0.132000
H22 H 0.643000 1.164000 0.236000
H23 H 0.526000 0.779000 0.153000
H24 H 0.617000 0.549000 0.087000
H25 H 0.764000 0.695000 0.121000
H26 H 0.949000 0.529000 0.268000
Ni27 Ni 0.766360 0.687900 0.373020
N28 N 0.837000 0.710000 0.276600
N29 N 0.664900 0.873800 0.286800
O30 O 0.843800 0.454800 0.413200
O31 O 0.657500 0.623200 0.418800
O32 O 0.968300 0.303300 0.394600
O33 O 0.513900 0.730000 0.418600
O34 O 0.857900 0.841600 0.487600
C35 C 0.130900 0.398100 0.235400
C36 C 0.402800 0.415300 0.159100
C37 C 0.219600 0.526300 0.284000
C38 C 0.289800 0.554400 0.227300
C39 C 0.392300 0.280000 0.312400
C40 C 0.340000 0.105400 0.323600
C41 C 0.230200 0.126800 0.318900
C42 C 0.067700 0.098700 0.177500
C43 C 0.087200 -0.062000 0.119600
C44 C 0.412100 0.240900 0.103300
H45 H 0.082000 0.363000 0.270000
H46 H 0.376000 0.532000 0.107000
H47 H 0.172000 0.655000 0.282000
H48 H 0.248000 0.715000 0.193000
H49 H 0.397000 0.384000 0.369000
H50 H 0.341000 0.020000 0.284000
H51 H 0.208000 -0.006000 0.309000
H52 H 0.011000 0.154000 0.123000
H53 H 0.088000 0.441000 0.164000
H54 H 0.479000 0.390000 0.220000
H55 H 0.273000 0.474000 0.368000
H56 H 0.357000 0.664000 0.264000
H57 H 0.474000 0.279000 0.347000
H58 H 0.383000 0.049000 0.413000
H59 H 0.236000 0.195000 0.379000
H60 H 0.051000 0.029000 0.232000
Ni61 Ni 0.233640 0.187900 0.126980
N62 N 0.163000 0.210000 0.223400
N63 N 0.335100 0.373800 0.213200
O64 O 0.156200 -0.045200 0.086800
O65 O 0.342500 0.123200 0.081200
O66 O 0.031700 -0.196700 0.105400
O67 O 0.486100 0.230000 0.081400
O68 O 0.142100 0.341600 0.012400
C69 C 0.130900 0.101900 0.735400
C70 C 0.402800 0.084700 0.659100
C71 C 0.219600 -0.026300 0.784000
C72 C 0.289800 -0.054400 0.727300
C73 C 0.392300 0.220000 0.812400
C74 C 0.340000 0.394600 0.823600
C75 C 0.230200 0.373200 0.818900
C76 C 0.067700 0.401300 0.677500
C77 C 0.087200 0.562000 0.619600
C78 C 0.412100 0.259100 0.603300
H79 H 0.082000 0.137000 0.770000
H80 H 0.376000 -0.032000 0.607000
H81 H 0.172000 -0.155000 0.782000
H82 H 0.248000 -0.215000 0.693000
H83 H 0.397000 0.116000 0.869000
H84 H 0.341000 0.480000 0.784000
H85 H 0.208000 0.506000 0.809000
H86 H 0.011000 0.346000 0.623000
H87 H 0.088000 0.059000 0.664000
H88 H 0.479000 0.110000 0.720000
H89 H 0.273000 0.026000 0.868000
H90 H 0.357000 -0.164000 0.764000
H91 H 0.474000 0.221000 0.847000
H92 H 0.383000 0.451000 0.913000
H93 H 0.236000 0.305000 0.879000
H94 H 0.051000 0.471000 0.732000
Ni95 Ni 0.233640 0.312100 0.626980
N96 N 0.163000 0.290000 0.723400
N97 N 0.335100 0.126200 0.713200
O98 O 0.156200 0.545200 0.586800
O99 O 0.342500 0.376800 0.581200
O100 O 0.031700 0.696700 0.605400
O101 O 0.486100 0.270000 0.581400
O102 O 0.142100 0.158400 0.512400
C103 C 0.869100 0.601900 0.764600
C104 C 0.597200 0.584700 0.840900
C105 C 0.780400 0.473700 0.716000
C106 C 0.710200 0.445600 0.772700
C107 C 0.607700 0.720000 0.687600
C108 C 0.660000 0.894600 0.676400
C109 C 0.769800 0.873200 0.681100
C110 C 0.932300 0.901300 0.822500
C111 C 0.912800 1.062000 0.880400
C112 C 0.587900 0.759100 0.896700
H113 H 0.918000 0.637000 0.730000
H114 H 0.624000 0.468000 0.893000
H115 H 0.828000 0.345000 0.718000
H116 H 0.752000 0.285000 0.807000
H117 H 0.603000 0.616000 0.631000
H118 H 0.659000 0.980000 0.716000
H119 H 0.792000 1.006000 0.691000
H120 H 0.989000 0.846000 0.877000
H121 H 0.912000 0.559000 0.836000
H122 H 0.521000 0.610000 0.780000
H123 H 0.727000 0.526000 0.632000
H124 H 0.643000 0.336000 0.736000
H125 H 0.526000 0.721000 0.653000
H126 H 0.617000 0.951000 0.587000
H127 H 0.764000 0.805000 0.621000
H128 H 0.949000 0.971000 0.768000
Ni129 Ni 0.766360 0.812100 0.873020
N130 N 0.837000 0.790000 0.776600
N131 N 0.664900 0.626200 0.786800
O132 O 0.843800 1.045200 0.913200
O133 O 0.657500 0.876800 0.918800
O134 O 0.968300 1.196700 0.894600
O135 O 0.513900 0.770000 0.918600
O136 O 0.857900 0.658400 0.987600
O137 O 0.626900 0.285900 0.492700
O138 O 0.373100 0.785900 0.007300
O139 O 0.373100 0.714100 0.507300
O140 O 0.626900 0.214100 0.992700
O141 O 0.825900 0.179700 0.535600
O142 O 0.174100 0.679700 0.964400
O143 O 0.174100 0.820300 0.464400
O144 O 0.825900 0.320300 0.035600

#END
