
#######################################################################
#
#                 Cambridge Crystallographic Data Centre
#                                CCDC 
#
#######################################################################
#
# If this CIF has been generated from an entry in the Cambridge 
# Structural Database, then it will include bibliographic, chemical, 
# crystal, experimental, refinement or atomic coordinate data resulting 
# from the CCDC's data processing and validation procedures.
#
#######################################################################

data_AADMPY10
_symmetry_cell_setting           triclinic
_symmetry_space_group_name_H-M   'P -1'
_symmetry_Int_Tables_number      2
_space_group_name_Hall           '-P 1'
loop_
_symmetry_equiv_pos_site_id
_symmetry_equiv_pos_as_xyz
1 x,y,z
2 -x,-y,-z
_cell_length_a                   10.309(1)
_cell_length_b                   14.536(2)
_cell_length_c                   6.486(1)
_cell_angle_alpha                91.76(2)
_cell_angle_beta                 94.98(1)
_cell_angle_gamma                109.75(1)
_cell_volume                     909.44
loop_
_atom_site_label
_atom_site_type_symbol
_atom_site_fract_x
_atom_site_fract_y
_atom_site_fract_z
N1 N 0.77490 0.51640 0.04470
C1 C 0.72690 0.47890 0.22130
N2 N 0.64300 0.51270 0.31840
C2 C 0.61720 0.59170 0.24570
C3 C 0.68870 0.64810 0.08140
C4 C 0.76140 0.60170 -0.02420
C5 C 0.68320 0.75180 0.04630
C6 C 0.78430 0.81020 -0.10510
C7 C 0.77710 0.91380 -0.12600
C8 C 0.63050 0.90620 -0.21010
C9 C 0.52990 0.85110 -0.05950
C10 C 0.56750 0.90540 0.15420
C11 C 0.71660 0.91600 0.23500
C12 C 0.72710 0.81380 0.25630
C13 C 0.53750 0.74760 -0.04510
C14 C 0.81660 0.97170 0.08430
N3 N 0.51990 0.61280 0.33970
N4 N 0.76410 0.40560 0.29140
C15 C 0.83260 0.62770 -0.21900
H1 H 0.83000 0.49430 -0.01010
H2 H 0.48180 0.57360 0.42270
H3 H 0.48170 0.65320 0.29600
H4 H 0.73240 0.37200 0.40800
H5 H 0.80450 0.38150 0.20550
H6 H 0.77340 0.64520 -0.32440
H7 H 0.86320 0.58120 -0.25430
H8 H 0.91220 0.68580 -0.19020
H9 H 0.76470 0.78130 -0.24970
H10 H 0.87930 0.81160 -0.05700
H11 H 0.83100 0.93920 -0.24140
H12 H 0.60300 0.87790 -0.34420
H13 H 0.63680 0.97000 -0.22790
H14 H 0.42950 0.84610 -0.11390
H15 H 0.56820 0.97700 0.16540
H16 H 0.51230 0.87340 0.25410
H17 H 0.74060 0.95160 0.38230
H18 H 0.66930 0.77610 0.36660
H19 H 0.82000 0.81340 0.30250
H20 H 0.52430 0.71630 -0.17310
H21 H 0.46840 0.71340 0.04620
H22 H 0.91140 0.97410 0.14690
H23 H 0.81100 1.04090 0.06780
N1 N 0.22510 0.48360 0.95530
C1 C 0.27310 0.52110 0.77870
N2 N 0.35700 0.48730 0.68160
C2 C 0.38280 0.40830 0.75430
C3 C 0.31130 0.35190 0.91860
C4 C 0.23860 0.39830 1.02420
C5 C 0.31680 0.24820 0.95370
C6 C 0.21570 0.18980 1.10510
C7 C 0.22290 0.08620 1.12600
C8 C 0.36950 0.09380 1.21010
C9 C 0.47010 0.14890 1.05950
C10 C 0.43250 0.09460 0.84580
C11 C 0.28340 0.08400 0.76500
C12 C 0.27290 0.18620 0.74370
C13 C 0.46250 0.25240 1.04510
C14 C 0.18340 0.02830 0.91570
N3 N 0.48010 0.38720 0.66030
N4 N 0.23590 0.59440 0.70860
C15 C 0.16740 0.37230 1.21900
H1 H 0.17000 0.50570 1.01010
H2 H 0.51820 0.42640 0.57730
H3 H 0.51830 0.34680 0.70400
H4 H 0.26760 0.62800 0.59200
H5 H 0.19550 0.61850 0.79450
H6 H 0.22660 0.35480 1.32440
H7 H 0.13680 0.41880 1.25430
H8 H 0.08780 0.31420 1.19020
H9 H 0.23530 0.21870 1.24970
H10 H 0.12070 0.18840 1.05700
H11 H 0.16900 0.06080 1.24140
H12 H 0.39700 0.12210 1.34420
H13 H 0.36320 0.03000 1.22790
H14 H 0.57050 0.15390 1.11390
H15 H 0.43180 0.02300 0.83460
H16 H 0.48770 0.12660 0.74590
H17 H 0.25940 0.04840 0.61770
H18 H 0.33070 0.22390 0.63340
H19 H 0.18000 0.18660 0.69750
H20 H 0.47570 0.28370 1.17310
H21 H 0.53160 0.28660 0.95380
H22 H 0.08860 0.02590 0.85310
H23 H 0.18900 -0.04090 0.93220
S1 S 0.17000 0.69050 0.21300
O1 O 0.29940 0.69800 0.33450
O2 O 0.19030 0.75090 0.04050
O3 O 0.08840 0.58950 0.15230
C16 C 0.06970 0.72950 0.38030
C17 C 0.13990 0.83360 0.46560
H24 H 0.04680 0.67990 0.49970
H25 H -0.01690 0.71860 0.28500
H26 H 0.16440 0.85610 0.30470
H27 H 0.08520 0.85210 0.53170
H28 H 0.22430 0.84010 0.52550
S1 S 0.83000 0.30950 0.78700
O1 O 0.70060 0.30200 0.66550
O2 O 0.80970 0.24910 0.95950
O3 O 0.91160 0.41050 0.84770
C16 C 0.93030 0.27050 0.61970
C17 C 0.86010 0.16640 0.53440
H24 H 0.95320 0.32010 0.50030
H25 H 1.01690 0.28140 0.71500
H26 H 0.83560 0.14390 0.69530
H27 H 0.91480 0.14790 0.46830
H28 H 0.77570 0.15990 0.47450

#END
