./AADMPY10_from_xyz.cif_generated_by_CrystalShift
_symmetry_cell_setting triclinic
_symmetry_space_group_name_H-M 'P 1'
loop_
_symmetry_equiv_pos_site_id
_symmetry_equiv_pos_as_xyz
1 x,y,z
_cell_length_a 10.309000
_cell_length_b 14.536000
_cell_length_c 6.486000
_cell_angle_alpha 91.760000
_cell_angle_beta 94.980000
_cell_angle_gamma 109.750000
_cell_volume 909.440563
loop_
_atom_site_label
_atom_site_type_symbol
_atom_site_fract_x
_atom_site_fract_y
_atom_site_fract_z
N1 N 0.774900 0.516400 0.044700
C2 C 0.726900 0.478900 0.221300
N3 N 0.643000 0.512700 0.318400
C4 C 0.617200 0.591700 0.245700
C5 C 0.688700 0.648100 0.081400
C6 C 0.761400 0.601700 -0.024200
C7 C 0.683200 0.751800 0.046300
C8 C 0.784300 0.810200 -0.105100
C9 C 0.777100 0.913800 -0.126000
C10 C 0.630500 0.906200 -0.210100
C11 C 0.529900 0.851100 -0.059500
C12 C 0.567500 0.905400 0.154200
C13 C 0.716600 0.916000 0.235000
C14 C 0.727100 0.813800 0.256300
C15 C 0.537500 0.747600 -0.045100
C16 C 0.816600 0.971700 0.084300
N17 N 0.519900 0.612800 0.339700
N18 N 0.764100 0.405600 0.291400
C19 C 0.832600 0.627700 -0.219000
H20 H 0.830000 0.494300 -0.010100
H21 H 0.481800 0.573600 0.422700
H22 H 0.481700 0.653200 0.296000
H23 H 0.732400 0.372000 0.408000
H24 H 0.804500 0.381500 0.205500
H25 H 0.773400 0.645200 -0.324400
H26 H 0.863200 0.581200 -0.254300
H27 H 0.912200 0.685800 -0.190200
H28 H 0.764700 0.781300 -0.249700
H29 H 0.879300 0.811600 -0.057000
H30 H 0.831000 0.939200 -0.241400
H31 H 0.603000 0.877900 -0.344200
H32 H 0.636800 0.970000 -0.227900
H33 H 0.429500 0.846100 -0.113900
H34 H 0.568200 0.977000 0.165400
H35 H 0.512300 0.873400 0.254100
H36 H 0.740600 0.951600 0.382300
H37 H 0.669300 0.776100 0.366600
H38 H 0.820000 0.813400 0.302500
H39 H 0.524300 0.716300 -0.173100
H40 H 0.468400 0.713400 0.046200
H41 H 0.911400 0.974100 0.146900
H42 H 0.811000 1.040900 0.067800
N43 N 0.225100 0.483600 0.955300
C44 C 0.273100 0.521100 0.778700
N45 N 0.357000 0.487300 0.681600
C46 C 0.382800 0.408300 0.754300
C47 C 0.311300 0.351900 0.918600
C48 C 0.238600 0.398300 1.024200
C49 C 0.316800 0.248200 0.953700
C50 C 0.215700 0.189800 1.105100
C51 C 0.222900 0.086200 1.126000
C52 C 0.369500 0.093800 1.210100
C53 C 0.470100 0.148900 1.059500
C54 C 0.432500 0.094600 0.845800
C55 C 0.283400 0.084000 0.765000
C56 C 0.272900 0.186200 0.743700
C57 C 0.462500 0.252400 1.045100
C58 C 0.183400 0.028300 0.915700
N59 N 0.480100 0.387200 0.660300
N60 N 0.235900 0.594400 0.708600
C61 C 0.167400 0.372300 1.219000
H62 H 0.170000 0.505700 1.010100
H63 H 0.518200 0.426400 0.577300
H64 H 0.518300 0.346800 0.704000
H65 H 0.267600 0.628000 0.592000
H66 H 0.195500 0.618500 0.794500
H67 H 0.226600 0.354800 1.324400
H68 H 0.136800 0.418800 1.254300
H69 H 0.087800 0.314200 1.190200
H70 H 0.235300 0.218700 1.249700
H71 H 0.120700 0.188400 1.057000
H72 H 0.169000 0.060800 1.241400
H73 H 0.397000 0.122100 1.344200
H74 H 0.363200 0.030000 1.227900
H75 H 0.570500 0.153900 1.113900
H76 H 0.431800 0.023000 0.834600
H77 H 0.487700 0.126600 0.745900
H78 H 0.259400 0.048400 0.617700
H79 H 0.330700 0.223900 0.633400
H80 H 0.180000 0.186600 0.697500
H81 H 0.475700 0.283700 1.173100
H82 H 0.531600 0.286600 0.953800
H83 H 0.088600 0.025900 0.853100
H84 H 0.189000 -0.040900 0.932200
S85 S 0.170000 0.690500 0.213000
O86 O 0.299400 0.698000 0.334500
O87 O 0.190300 0.750900 0.040500
O88 O 0.088400 0.589500 0.152300
C89 C 0.069700 0.729500 0.380300
C90 C 0.139900 0.833600 0.465600
H91 H 0.046800 0.679900 0.499700
H92 H -0.016900 0.718600 0.285000
H93 H 0.164400 0.856100 0.304700
H94 H 0.085200 0.852100 0.531700
H95 H 0.224300 0.840100 0.525500
S96 S 0.830000 0.309500 0.787000
O97 O 0.700600 0.302000 0.665500
O98 O 0.809700 0.249100 0.959500
O99 O 0.911600 0.410500 0.847700
C100 C 0.930300 0.270500 0.619700
C101 C 0.860100 0.166400 0.534400
H102 H 0.953200 0.320100 0.500300
H103 H 1.016900 0.281400 0.715000
H104 H 0.835600 0.143900 0.695300
H105 H 0.914800 0.147900 0.468300
H106 H 0.775700 0.159900 0.474500

#END
