
#######################################################################
#
#                 Cambridge Crystallographic Data Centre
#                                CCDC 
#
#######################################################################
#
# If this CIF has been generated from an entry in the Cambridge 
# Structural Database, then it will include bibliographic, chemical, 
# crystal, experimental, refinement or atomic coordinate data resulting 
# from the CCDC's data processing and validation procedures.
#
#######################################################################

data_ABABUD
_symmetry_cell_setting           monoclinic
_symmetry_space_group_name_H-M   'P 21/c'
_symmetry_Int_Tables_number      14
_space_group_name_Hall           '-P 2ybc'
loop_
_symmetry_equiv_pos_site_id
_symmetry_equiv_pos_as_xyz
1 x,y,z
2 -x,1/2+y,1/2-z
3 -x,-y,-z
4 x,1/2-y,1/2+z
_cell_length_a                   11.490(8)
_cell_length_b                   13.214(9)
_cell_length_c                   15.214(10)
_cell_angle_alpha                90
_cell_angle_beta                 95.243(13)
_cell_angle_gamma                90
_cell_volume                     2300.26
loop_
_atom_site_label
_atom_site_type_symbol
_atom_site_fract_x
_atom_site_fract_y
_atom_site_fract_z
N1 N 0.17006(17) 0.4541(2) 0.81242(12)
N2 N 0.34207(17) 0.4287(2) 1.01640(13)
C1 C 0.1693(2) 0.5013(2) 0.73440(16)
C2 C 0.2616(2) 0.5600(3) 0.71261(16)
H1 H 0.2579 0.5935 0.6572
C3 C 0.3600(2) 0.5698(3) 0.77185(18)
H2 H 0.4245 0.6096 0.7577
C4 C 0.3620(2) 0.5201(3) 0.85195(17)
H3 H 0.4285 0.5245 0.8938
C5 C 0.2653(2) 0.4640(2) 0.87006(15)
C6 C 0.2573(2) 0.4140(2) 0.95697(15)
C7 C 0.3398(2) 0.3860(3) 1.10182(16)
C8 C 0.3732(2) 0.2851(3) 1.11781(16)
C9 C 0.3742(2) 0.2481(3) 1.20395(17)
H4 H 0.3946 0.1796 1.2162
C10 C 0.3454(2) 0.3114(3) 1.27164(18)
H5 H 0.3467 0.2857 1.3300
C11 C 0.3154(2) 0.4097(3) 1.25535(18)
H6 H 0.2954 0.4512 1.3027
C12 C 0.3134(2) 0.4510(3) 1.17061(16)
C13 C 0.4077(2) 0.2188(3) 1.04342(18)
H7 H 0.3517 0.2338 0.9908
C14 C 0.4000(3) 0.1058(3) 1.0607(2)
H8 H 0.4589 0.0868 1.1086
H9 H 0.4143 0.0685 1.0071
H10 H 0.3220 0.0893 1.0776
C15 C 0.5301(2) 0.2470(3) 1.0184(2)
H11 H 0.5309 0.3183 1.0007
H12 H 0.5501 0.2045 0.9692
H13 H 0.5874 0.2363 1.0693
C16 C 0.2803(2) 0.5599(3) 1.15128(18)
H14 H 0.3147 0.5797 1.0957
C17 C 0.1488(3) 0.5744(3) 1.1359(2)
H15 H 0.1177 0.5320 1.0865
H16 H 0.1315 0.6456 1.1222
H17 H 0.1124 0.5551 1.1893
C18 C 0.3277(3) 0.6332(4) 1.2238(3)
H18 H 0.2865 0.6225 1.2766
H19 H 0.3154 0.7030 1.2031
H20 H 0.4114 0.6211 1.2380
C19 C 0.1500(2) 0.3529(3) 0.96785(17)
H21 H 0.1590 0.3175 1.0247
H22 H 0.1387 0.3033 0.9199
H23 H 0.0819 0.3979 0.9661
C20 C 0.0617(2) 0.4874(2) 0.67164(15)
C21 C 0.0102(2) 0.5722(3) 0.63279(16)
H24 H 0.0435 0.6369 0.6459
C22 C -0.0916(2) 0.5644(3) 0.57370(17)
H25 H -0.1259 0.6234 0.5466
C23 C -0.1403(2) 0.4721(3) 0.55576(18)
H26 H -0.2101 0.4678 0.5174
C24 C -0.0902(2) 0.3834(3) 0.59220(16)
C25 C 0.0132(2) 0.3899(3) 0.65294(15)
C26 C 0.0616(2) 0.2983(3) 0.68727(16)
H27 H 0.1311 0.3006 0.7262
C27 C 0.0123(2) 0.2074(3) 0.66643(17)
H28 H 0.0463 0.1474 0.6919
C28 C -0.0892(2) 0.2013(3) 0.60706(18)
H29 H -0.1232 0.1374 0.5920
C29 C -0.1380(2) 0.2869(3) 0.57170(19)
H30 H -0.2065 0.2820 0.5319
N1 N 0.82994(17) 0.9541(2) 0.68758(12)
N2 N 0.65793(17) 0.9287(2) 0.48360(13)
C1 C 0.8307(2) 1.0013(2) 0.76560(16)
C2 C 0.7384(2) 1.0600(3) 0.78739(16)
H1 H 0.7421 1.0935 0.8428
C3 C 0.6400(2) 1.0698(3) 0.72815(18)
H2 H 0.5755 1.1096 0.7423
C4 C 0.6380(2) 1.0201(3) 0.64805(17)
H3 H 0.5715 1.0245 0.6062
C5 C 0.7347(2) 0.9640(2) 0.62994(15)
C6 C 0.7427(2) 0.9140(2) 0.54303(15)
C7 C 0.6602(2) 0.8860(3) 0.39818(16)
C8 C 0.6268(2) 0.7851(3) 0.38219(16)
C9 C 0.6258(2) 0.7481(3) 0.29605(17)
H4 H 0.6054 0.6796 0.2838
C10 C 0.6546(2) 0.8114(3) 0.22836(18)
H5 H 0.6533 0.7857 0.1700
C11 C 0.6846(2) 0.9097(3) 0.24465(18)
H6 H 0.7046 0.9512 0.1973
C12 C 0.6866(2) 0.9510(3) 0.32939(16)
C13 C 0.5923(2) 0.7188(3) 0.45658(18)
H7 H 0.6483 0.7338 0.5092
C14 C 0.6000(3) 0.6058(3) 0.4393(2)
H8 H 0.5411 0.5868 0.3914
H9 H 0.5857 0.5685 0.4929
H10 H 0.6780 0.5893 0.4224
C15 C 0.4699(2) 0.7470(3) 0.4816(2)
H11 H 0.4691 0.8183 0.4993
H12 H 0.4499 0.7045 0.5308
H13 H 0.4126 0.7363 0.4307
C16 C 0.7197(2) 1.0599(3) 0.34872(18)
H14 H 0.6853 1.0797 0.4043
C17 C 0.8512(3) 1.0744(3) 0.3641(2)
H15 H 0.8823 1.0320 0.4135
H16 H 0.8685 1.1456 0.3778
H17 H 0.8876 1.0551 0.3107
C18 C 0.6723(3) 1.1332(4) 0.2762(3)
H18 H 0.7135 1.1225 0.2234
H19 H 0.6846 1.2030 0.2969
H20 H 0.5886 1.1211 0.2620
C19 C 0.8500(2) 0.8529(3) 0.53215(17)
H21 H 0.8410 0.8175 0.4753
H22 H 0.8613 0.8033 0.5801
H23 H 0.9181 0.8979 0.5339
C20 C 0.9383(2) 0.9874(2) 0.82836(15)
C21 C 0.9898(2) 1.0722(3) 0.86721(16)
H24 H 0.9565 1.1369 0.8541
C22 C 1.0916(2) 1.0644(3) 0.92630(17)
H25 H 1.1259 1.1234 0.9534
C23 C 1.1403(2) 0.9721(3) 0.94424(18)
H26 H 1.2101 0.9678 0.9826
C24 C 1.0902(2) 0.8834(3) 0.90780(16)
C25 C 0.9868(2) 0.8899(3) 0.84706(15)
C26 C 0.9384(2) 0.7983(3) 0.81273(16)
H27 H 0.8689 0.8006 0.7738
C27 C 0.9877(2) 0.7074(3) 0.83357(17)
H28 H 0.9537 0.6474 0.8081
C28 C 1.0892(2) 0.7013(3) 0.89294(18)
H29 H 1.1232 0.6374 0.9080
C29 C 1.1380(2) 0.7869(3) 0.92830(19)
H30 H 1.2065 0.7820 0.9681
N1 N 0.82994(17) 0.5459(2) 0.18758(12)
N2 N 0.65793(17) 0.5713(2) -0.01640(13)
C1 C 0.8307(2) 0.4987(2) 0.26560(16)
C2 C 0.7384(2) 0.4400(3) 0.28739(16)
H1 H 0.7421 0.4065 0.3428
C3 C 0.6400(2) 0.4302(3) 0.22815(18)
H2 H 0.5755 0.3904 0.2423
C4 C 0.6380(2) 0.4799(3) 0.14805(17)
H3 H 0.5715 0.4755 0.1062
C5 C 0.7347(2) 0.5360(2) 0.12994(15)
C6 C 0.7427(2) 0.5860(2) 0.04303(15)
C7 C 0.6602(2) 0.6140(3) -0.10182(16)
C8 C 0.6268(2) 0.7149(3) -0.11781(16)
C9 C 0.6258(2) 0.7519(3) -0.20395(17)
H4 H 0.6054 0.8204 -0.2162
C10 C 0.6546(2) 0.6886(3) -0.27164(18)
H5 H 0.6533 0.7143 -0.3300
C11 C 0.6846(2) 0.5903(3) -0.25535(18)
H6 H 0.7046 0.5488 -0.3027
C12 C 0.6866(2) 0.5490(3) -0.17061(16)
C13 C 0.5923(2) 0.7812(3) -0.04342(18)
H7 H 0.6483 0.7662 0.0092
C14 C 0.6000(3) 0.8942(3) -0.0607(2)
H8 H 0.5411 0.9132 -0.1086
H9 H 0.5857 0.9315 -0.0071
H10 H 0.6780 0.9107 -0.0776
C15 C 0.4699(2) 0.7530(3) -0.0184(2)
H11 H 0.4691 0.6817 -0.0007
H12 H 0.4499 0.7955 0.0308
H13 H 0.4126 0.7637 -0.0693
C16 C 0.7197(2) 0.4401(3) -0.15128(18)
H14 H 0.6853 0.4203 -0.0957
C17 C 0.8512(3) 0.4256(3) -0.1359(2)
H15 H 0.8823 0.4680 -0.0865
H16 H 0.8685 0.3544 -0.1222
H17 H 0.8876 0.4449 -0.1893
C18 C 0.6723(3) 0.3668(4) -0.2238(3)
H18 H 0.7135 0.3775 -0.2766
H19 H 0.6846 0.2970 -0.2031
H20 H 0.5886 0.3789 -0.2380
C19 C 0.8500(2) 0.6471(3) 0.03215(17)
H21 H 0.8410 0.6825 -0.0247
H22 H 0.8613 0.6967 0.0801
H23 H 0.9181 0.6021 0.0339
C20 C 0.9383(2) 0.5126(2) 0.32836(15)
C21 C 0.9898(2) 0.4278(3) 0.36721(16)
H24 H 0.9565 0.3631 0.3541
C22 C 1.0916(2) 0.4356(3) 0.42630(17)
H25 H 1.1259 0.3766 0.4534
C23 C 1.1403(2) 0.5279(3) 0.44424(18)
H26 H 1.2101 0.5322 0.4826
C24 C 1.0902(2) 0.6166(3) 0.40780(16)
C25 C 0.9868(2) 0.6101(3) 0.34706(15)
C26 C 0.9384(2) 0.7017(3) 0.31273(16)
H27 H 0.8689 0.6994 0.2738
C27 C 0.9877(2) 0.7926(3) 0.33357(17)
H28 H 0.9537 0.8526 0.3081
C28 C 1.0892(2) 0.7987(3) 0.39294(18)
H29 H 1.1232 0.8626 0.4080
C29 C 1.1380(2) 0.7131(3) 0.42830(19)
H30 H 1.2065 0.7180 0.4681
N1 N 0.17006(17) 0.0459(2) 0.31242(12)
N2 N 0.34207(17) 0.0713(2) 0.51640(13)
C1 C 0.1693(2) -0.0013(2) 0.23440(16)
C2 C 0.2616(2) -0.0600(3) 0.21261(16)
H1 H 0.2579 -0.0935 0.1572
C3 C 0.3600(2) -0.0698(3) 0.27185(18)
H2 H 0.4245 -0.1096 0.2577
C4 C 0.3620(2) -0.0201(3) 0.35195(17)
H3 H 0.4285 -0.0245 0.3938
C5 C 0.2653(2) 0.0360(2) 0.37006(15)
C6 C 0.2573(2) 0.0860(2) 0.45697(15)
C7 C 0.3398(2) 0.1140(3) 0.60182(16)
C8 C 0.3732(2) 0.2149(3) 0.61781(16)
C9 C 0.3742(2) 0.2519(3) 0.70395(17)
H4 H 0.3946 0.3204 0.7162
C10 C 0.3454(2) 0.1886(3) 0.77164(18)
H5 H 0.3467 0.2143 0.8300
C11 C 0.3154(2) 0.0903(3) 0.75535(18)
H6 H 0.2954 0.0488 0.8027
C12 C 0.3134(2) 0.0490(3) 0.67061(16)
C13 C 0.4077(2) 0.2812(3) 0.54342(18)
H7 H 0.3517 0.2662 0.4908
C14 C 0.4000(3) 0.3942(3) 0.5607(2)
H8 H 0.4589 0.4132 0.6086
H9 H 0.4143 0.4315 0.5071
H10 H 0.3220 0.4107 0.5776
C15 C 0.5301(2) 0.2530(3) 0.5184(2)
H11 H 0.5309 0.1817 0.5007
H12 H 0.5501 0.2955 0.4692
H13 H 0.5874 0.2637 0.5693
C16 C 0.2803(2) -0.0599(3) 0.65128(18)
H14 H 0.3147 -0.0797 0.5957
C17 C 0.1488(3) -0.0744(3) 0.6359(2)
H15 H 0.1177 -0.0320 0.5865
H16 H 0.1315 -0.1456 0.6222
H17 H 0.1124 -0.0551 0.6893
C18 C 0.3277(3) -0.1332(4) 0.7238(3)
H18 H 0.2865 -0.1225 0.7766
H19 H 0.3154 -0.2030 0.7031
H20 H 0.4114 -0.1211 0.7380
C19 C 0.1500(2) 0.1471(3) 0.46785(17)
H21 H 0.1590 0.1825 0.5247
H22 H 0.1387 0.1967 0.4199
H23 H 0.0819 0.1021 0.4661
C20 C 0.0617(2) 0.0126(2) 0.17164(15)
C21 C 0.0102(2) -0.0722(3) 0.13279(16)
H24 H 0.0435 -0.1369 0.1459
C22 C -0.0916(2) -0.0644(3) 0.07370(17)
H25 H -0.1259 -0.1234 0.0466
C23 C -0.1403(2) 0.0279(3) 0.05576(18)
H26 H -0.2101 0.0322 0.0174
C24 C -0.0902(2) 0.1166(3) 0.09220(16)
C25 C 0.0132(2) 0.1101(3) 0.15294(15)
C26 C 0.0616(2) 0.2017(3) 0.18727(16)
H27 H 0.1311 0.1994 0.2262
C27 C 0.0123(2) 0.2926(3) 0.16643(17)
H28 H 0.0463 0.3526 0.1919
C28 C -0.0892(2) 0.2987(3) 0.10706(18)
H29 H -0.1232 0.3626 0.0920
C29 C -0.1380(2) 0.2131(3) 0.07170(19)
H30 H -0.2065 0.2180 0.0319

#END
