./ABACAJ_from_xyz.cif_generated_by_CrystalShift
_symmetry_cell_setting triclinic
_symmetry_space_group_name_H-M 'P 1'
loop_
_symmetry_equiv_pos_site_id
_symmetry_equiv_pos_as_xyz
1 x,y,z
_cell_length_a 11.695500
_cell_length_b 7.688900
_cell_length_c 13.758800
_cell_angle_alpha 90.000000
_cell_angle_beta 111.978000
_cell_angle_gamma 90.000000
_cell_volume 1147.352193
loop_
_atom_site_label
_atom_site_type_symbol
_atom_site_fract_x
_atom_site_fract_y
_atom_site_fract_z
N1 N 0.383400 0.442420 1.085510
O2 O 0.096790 0.292740 1.044170
N3 N 0.476100 0.195900 1.227170
C4 C 0.360340 0.172900 1.160300
C5 C 0.362420 0.712400 0.990380
H6 H 0.446900 0.727300 1.036300
H7 H 0.313800 0.805800 1.000800
H8 H 0.356800 0.712800 0.919000
N9 N 0.314230 0.292470 1.084760
H10 H 0.504000 0.124000 1.279500
H11 H 0.521000 0.286000 1.221800
H12 H 0.114000 0.194000 1.086000
S13 S 0.275870 0.001370 1.173020
C14 C 0.172490 0.155900 0.919660
C15 C 0.315860 0.544600 1.013560
C16 C 0.186920 0.297700 1.000360
C17 C 0.187740 0.480400 0.955720
H18 H 0.169400 0.475600 0.880900
H19 H 0.127800 0.555100 0.968300
C20 C 0.070510 0.047000 0.886140
H21 H 0.011900 0.055700 0.916500
C22 C 0.139000 -0.086300 0.760350
H23 H 0.127700 -0.166600 0.707000
C24 C 0.257400 0.142000 0.871710
H25 H 0.326300 0.214000 0.893000
C26 C 0.055030 -0.074400 0.807930
H27 H -0.012800 -0.148400 0.787500
C28 C 0.240600 0.022300 0.792450
H29 H 0.298000 0.014900 0.760600
N30 N 0.616600 0.942420 0.414490
O31 O 0.903210 0.792740 0.455830
N32 N 0.523900 0.695900 0.272830
C33 C 0.639660 0.672900 0.339700
C34 C 0.637580 1.212400 0.509620
H35 H 0.553100 1.227300 0.463700
H36 H 0.686200 1.305800 0.499200
H37 H 0.643200 1.212800 0.581000
N38 N 0.685770 0.792470 0.415240
H39 H 0.496000 0.624000 0.220500
H40 H 0.479000 0.786000 0.278200
H41 H 0.886000 0.694000 0.414000
S42 S 0.724130 0.501370 0.326980
C43 C 0.827510 0.655900 0.580340
C44 C 0.684140 1.044600 0.486440
C45 C 0.813080 0.797700 0.499640
C46 C 0.812260 0.980400 0.544280
H47 H 0.830600 0.975600 0.619100
H48 H 0.872200 1.055100 0.531700
C49 C 0.929490 0.547000 0.613860
H50 H 0.988100 0.555700 0.583500
C51 C 0.861000 0.413700 0.739650
H52 H 0.872300 0.333400 0.793000
C53 C 0.742600 0.642000 0.628290
H54 H 0.673700 0.714000 0.607000
C55 C 0.944970 0.425600 0.692070
H56 H 1.012800 0.351600 0.712500
C57 C 0.759400 0.522300 0.707550
H58 H 0.702000 0.514900 0.739400
N59 N 0.616600 0.557580 -0.085510
O60 O 0.903210 0.707260 -0.044170
N61 N 0.523900 0.804100 -0.227170
C62 C 0.639660 0.827100 -0.160300
C63 C 0.637580 0.287600 0.009620
H64 H 0.553100 0.272700 -0.036300
H65 H 0.686200 0.194200 -0.000800
H66 H 0.643200 0.287200 0.081000
N67 N 0.685770 0.707530 -0.084760
H68 H 0.496000 0.876000 -0.279500
H69 H 0.479000 0.714000 -0.221800
H70 H 0.886000 0.806000 -0.086000
S71 S 0.724130 0.998630 -0.173020
C72 C 0.827510 0.844100 0.080340
C73 C 0.684140 0.455400 -0.013560
C74 C 0.813080 0.702300 -0.000360
C75 C 0.812260 0.519600 0.044280
H76 H 0.830600 0.524400 0.119100
H77 H 0.872200 0.444900 0.031700
C78 C 0.929490 0.953000 0.113860
H79 H 0.988100 0.944300 0.083500
C80 C 0.861000 1.086300 0.239650
H81 H 0.872300 1.166600 0.293000
C82 C 0.742600 0.858000 0.128290
H83 H 0.673700 0.786000 0.107000
C84 C 0.944970 1.074400 0.192070
H85 H 1.012800 1.148400 0.212500
C86 C 0.759400 0.977700 0.207550
H87 H 0.702000 0.985100 0.239400
N88 N 0.383400 0.057580 0.585510
O89 O 0.096790 0.207260 0.544170
N90 N 0.476100 0.304100 0.727170
C91 C 0.360340 0.327100 0.660300
C92 C 0.362420 -0.212400 0.490380
H93 H 0.446900 -0.227300 0.536300
H94 H 0.313800 -0.305800 0.500800
H95 H 0.356800 -0.212800 0.419000
N96 N 0.314230 0.207530 0.584760
H97 H 0.504000 0.376000 0.779500
H98 H 0.521000 0.214000 0.721800
H99 H 0.114000 0.306000 0.586000
S100 S 0.275870 0.498630 0.673020
C101 C 0.172490 0.344100 0.419660
C102 C 0.315860 -0.044600 0.513560
C103 C 0.186920 0.202300 0.500360
C104 C 0.187740 0.019600 0.455720
H105 H 0.169400 0.024400 0.380900
H106 H 0.127800 -0.055100 0.468300
C107 C 0.070510 0.453000 0.386140
H108 H 0.011900 0.444300 0.416500
C109 C 0.139000 0.586300 0.260350
H110 H 0.127700 0.666600 0.207000
C111 C 0.257400 0.358000 0.371710
H112 H 0.326300 0.286000 0.393000
C113 C 0.055030 0.574400 0.307930
H114 H -0.012800 0.648400 0.287500
C115 C 0.240600 0.477700 0.292450
H116 H 0.298000 0.485100 0.260600

#END
