./ABADIS02_from_xyz.cif_generated_by_CrystalShift
_symmetry_cell_setting triclinic
_symmetry_space_group_name_H-M 'P 1'
loop_
_symmetry_equiv_pos_site_id
_symmetry_equiv_pos_as_xyz
1 x,y,z
_cell_length_a 16.704000
_cell_length_b 19.860000
_cell_length_c 15.343000
_cell_angle_alpha 90.000000
_cell_angle_beta 102.007000
_cell_angle_gamma 90.000000
_cell_volume 4978.552933
loop_
_atom_site_label
_atom_site_type_symbol
_atom_site_fract_x
_atom_site_fract_y
_atom_site_fract_z
C1 C 0.956800 0.466060 0.389500
C2 C 0.932400 0.404950 0.417300
H3 H 0.884800 0.401900 0.439600
C4 C 1.074600 0.412500 0.355400
H5 H 1.123500 0.415800 0.335800
C6 C 1.028500 0.469690 0.360300
H7 H 1.046600 0.511100 0.343600
C8 C 0.904200 0.528420 0.390300
H9 H 0.856300 0.516700 0.413700
H10 H 0.935000 0.562000 0.429400
C11 C 0.902000 0.615600 0.270100
H12 H 0.935500 0.646200 0.306400
C13 C 0.826700 0.569610 0.157300
C14 C 0.828400 0.525850 0.228400
C15 C 0.786500 0.465910 0.220700
H16 H 0.788000 0.437500 0.269200
C17 C 0.742400 0.450200 0.137400
H18 H 0.713500 0.409900 0.129100
C19 C 0.739700 0.492500 0.065600
H20 H 0.708800 0.480000 0.010400
C21 C 0.781100 0.552400 0.072900
H22 H 0.779000 0.580500 0.024000
C23 C 1.048900 0.351220 0.379100
C24 C 1.097100 0.288100 0.366000
C25 C 0.979400 0.347480 0.412000
H26 H 0.963000 0.306300 0.431100
N27 N 0.878110 0.556880 0.300820
O28 O 1.063870 0.233550 0.384920
H29 H 1.092300 0.201400 0.376800
O30 O 1.161830 0.293440 0.340880
N31 N 0.873820 0.625910 0.184600
C32 C 0.043200 0.966060 0.110500
C33 C 0.067600 0.904950 0.082700
H34 H 0.115200 0.901900 0.060400
C35 C -0.074600 0.912500 0.144600
H36 H -0.123500 0.915800 0.164200
C37 C -0.028500 0.969690 0.139700
H38 H -0.046600 1.011100 0.156400
C39 C 0.095800 1.028420 0.109700
H40 H 0.143700 1.016700 0.086300
H41 H 0.065000 1.062000 0.070600
C42 C 0.098000 1.115600 0.229900
H43 H 0.064500 1.146200 0.193600
C44 C 0.173300 1.069610 0.342700
C45 C 0.171600 1.025850 0.271600
C46 C 0.213500 0.965910 0.279300
H47 H 0.212000 0.937500 0.230800
C48 C 0.257600 0.950200 0.362600
H49 H 0.286500 0.909900 0.370900
C50 C 0.260300 0.992500 0.434400
H51 H 0.291200 0.980000 0.489600
C52 C 0.218900 1.052400 0.427100
H53 H 0.221000 1.080500 0.476000
C54 C -0.048900 0.851220 0.120900
C55 C -0.097100 0.788100 0.134000
C56 C 0.020600 0.847480 0.088000
H57 H 0.037000 0.806300 0.068900
N58 N 0.121890 1.056880 0.199180
O59 O -0.063870 0.733550 0.115080
H60 H -0.092300 0.701400 0.123200
O61 O -0.161830 0.793440 0.159120
N62 N 0.126180 1.125910 0.315400
C63 C 0.043200 0.533940 0.610500
C64 C 0.067600 0.595050 0.582700
H65 H 0.115200 0.598100 0.560400
C66 C -0.074600 0.587500 0.644600
H67 H -0.123500 0.584200 0.664200
C68 C -0.028500 0.530310 0.639700
H69 H -0.046600 0.488900 0.656400
C70 C 0.095800 0.471580 0.609700
H71 H 0.143700 0.483300 0.586300
H72 H 0.065000 0.438000 0.570600
C73 C 0.098000 0.384400 0.729900
H74 H 0.064500 0.353800 0.693600
C75 C 0.173300 0.430390 0.842700
C76 C 0.171600 0.474150 0.771600
C77 C 0.213500 0.534090 0.779300
H78 H 0.212000 0.562500 0.730800
C79 C 0.257600 0.549800 0.862600
H80 H 0.286500 0.590100 0.870900
C81 C 0.260300 0.507500 0.934400
H82 H 0.291200 0.520000 0.989600
C83 C 0.218900 0.447600 0.927100
H84 H 0.221000 0.419500 0.976000
C85 C -0.048900 0.648780 0.620900
C86 C -0.097100 0.711900 0.634000
C87 C 0.020600 0.652520 0.588000
H88 H 0.037000 0.693700 0.568900
N89 N 0.121890 0.443120 0.699180
O90 O -0.063870 0.766450 0.615080
H91 H -0.092300 0.798600 0.623200
O92 O -0.161830 0.706560 0.659120
N93 N 0.126180 0.374090 0.815400
C94 C 0.956800 0.033940 0.889500
C95 C 0.932400 0.095050 0.917300
H96 H 0.884800 0.098100 0.939600
C97 C 1.074600 0.087500 0.855400
H98 H 1.123500 0.084200 0.835800
C99 C 1.028500 0.030310 0.860300
H100 H 1.046600 -0.011100 0.843600
C101 C 0.904200 -0.028420 0.890300
H102 H 0.856300 -0.016700 0.913700
H103 H 0.935000 -0.062000 0.929400
C104 C 0.902000 -0.115600 0.770100
H105 H 0.935500 -0.146200 0.806400
C106 C 0.826700 -0.069610 0.657300
C107 C 0.828400 -0.025850 0.728400
C108 C 0.786500 0.034090 0.720700
H109 H 0.788000 0.062500 0.769200
C110 C 0.742400 0.049800 0.637400
H111 H 0.713500 0.090100 0.629100
C112 C 0.739700 0.007500 0.565600
H113 H 0.708800 0.020000 0.510400
C114 C 0.781100 -0.052400 0.572900
H115 H 0.779000 -0.080500 0.524000
C116 C 1.048900 0.148780 0.879100
C117 C 1.097100 0.211900 0.866000
C118 C 0.979400 0.152520 0.912000
H119 H 0.963000 0.193700 0.931100
N120 N 0.878110 -0.056880 0.800820
O121 O 1.063870 0.266450 0.884920
H122 H 1.092300 0.298600 0.876800
O123 O 1.161830 0.206560 0.840880
N124 N 0.873820 -0.125910 0.684600
C125 C -0.055200 0.311600 0.125900
C126 C 0.100500 0.482700 0.128600
C127 C 0.134000 0.419130 0.140300
H128 H 0.190500 0.413600 0.149400
C129 C 0.083800 0.363240 0.138500
H130 H 0.107000 0.320600 0.147900
C131 C 0.000000 0.370220 0.123000
C132 C -0.033700 0.433600 0.109500
H133 H -0.090200 0.438900 0.098100
C134 C 0.016300 0.489180 0.112800
H135 H -0.007000 0.531800 0.104300
C136 C 0.154000 0.544730 0.133700
H137 H 0.209800 0.531100 0.134100
H138 H 0.135100 0.572300 0.081200
C139 C 0.097900 0.633700 0.220600
H140 H 0.057200 0.647700 0.173100
C141 C 0.174500 0.625970 0.350400
C142 C 0.203100 0.578610 0.296300
C143 C 0.270900 0.539160 0.327900
H144 H 0.289900 0.507800 0.292000
C145 C 0.309100 0.548900 0.415900
H146 H 0.354700 0.523000 0.440100
C147 C 0.281100 0.596200 0.469300
H148 H 0.308600 0.601400 0.528200
C149 C 0.214200 0.635200 0.437500
H150 H 0.196000 0.667000 0.473500
N151 N 0.107900 0.659610 0.300500
N152 N 0.152500 0.584740 0.213500
O153 O -0.017210 0.257920 0.158380
H154 H -0.050300 0.227400 0.158100
O155 O -0.128110 0.314670 0.099800
C156 C 1.055200 0.811600 0.374100
C157 C 0.899500 0.982700 0.371400
C158 C 0.866000 0.919130 0.359700
H159 H 0.809500 0.913600 0.350600
C160 C 0.916200 0.863240 0.361500
H161 H 0.893000 0.820600 0.352100
C162 C 1.000000 0.870220 0.377000
C163 C 1.033700 0.933600 0.390500
H164 H 1.090200 0.938900 0.401900
C165 C 0.983700 0.989180 0.387200
H166 H 1.007000 1.031800 0.395700
C167 C 0.846000 1.044730 0.366300
H168 H 0.790200 1.031100 0.365900
H169 H 0.864900 1.072300 0.418800
C170 C 0.902100 1.133700 0.279400
H171 H 0.942800 1.147700 0.326900
C172 C 0.825500 1.125970 0.149600
C173 C 0.796900 1.078610 0.203700
C174 C 0.729100 1.039160 0.172100
H175 H 0.710100 1.007800 0.208000
C176 C 0.690900 1.048900 0.084100
H177 H 0.645300 1.023000 0.059900
C178 C 0.718900 1.096200 0.030700
H179 H 0.691400 1.101400 -0.028200
C180 C 0.785800 1.135200 0.062500
H181 H 0.804000 1.167000 0.026500
N182 N 0.892100 1.159610 0.199500
N183 N 0.847500 1.084740 0.286500
O184 O 1.017210 0.757920 0.341620
H185 H 1.050300 0.727400 0.341900
O186 O 1.128110 0.814670 0.400200
C187 C 1.055200 0.688400 0.874100
C188 C 0.899500 0.517300 0.871400
C189 C 0.866000 0.580870 0.859700
H190 H 0.809500 0.586400 0.850600
C191 C 0.916200 0.636760 0.861500
H192 H 0.893000 0.679400 0.852100
C193 C 1.000000 0.629780 0.877000
C194 C 1.033700 0.566400 0.890500
H195 H 1.090200 0.561100 0.901900
C196 C 0.983700 0.510820 0.887200
H197 H 1.007000 0.468200 0.895700
C198 C 0.846000 0.455270 0.866300
H199 H 0.790200 0.468900 0.865900
H200 H 0.864900 0.427700 0.918800
C201 C 0.902100 0.366300 0.779400
H202 H 0.942800 0.352300 0.826900
C203 C 0.825500 0.374030 0.649600
C204 C 0.796900 0.421390 0.703700
C205 C 0.729100 0.460840 0.672100
H206 H 0.710100 0.492200 0.708000
C207 C 0.690900 0.451100 0.584100
H208 H 0.645300 0.477000 0.559900
C209 C 0.718900 0.403800 0.530700
H210 H 0.691400 0.398600 0.471800
C211 C 0.785800 0.364800 0.562500
H212 H 0.804000 0.333000 0.526500
N213 N 0.892100 0.340390 0.699500
N214 N 0.847500 0.415260 0.786500
O215 O 1.017210 0.742080 0.841620
H216 H 1.050300 0.772600 0.841900
O217 O 1.128110 0.685330 0.900200
C218 C -0.055200 0.188400 0.625900
C219 C 0.100500 0.017300 0.628600
C220 C 0.134000 0.080870 0.640300
H221 H 0.190500 0.086400 0.649400
C222 C 0.083800 0.136760 0.638500
H223 H 0.107000 0.179400 0.647900
C224 C 0.000000 0.129780 0.623000
C225 C -0.033700 0.066400 0.609500
H226 H -0.090200 0.061100 0.598100
C227 C 0.016300 0.010820 0.612800
H228 H -0.007000 -0.031800 0.604300
C229 C 0.154000 -0.044730 0.633700
H230 H 0.209800 -0.031100 0.634100
H231 H 0.135100 -0.072300 0.581200
C232 C 0.097900 -0.133700 0.720600
H233 H 0.057200 -0.147700 0.673100
C234 C 0.174500 -0.125970 0.850400
C235 C 0.203100 -0.078610 0.796300
C236 C 0.270900 -0.039160 0.827900
H237 H 0.289900 -0.007800 0.792000
C238 C 0.309100 -0.048900 0.915900
H239 H 0.354700 -0.023000 0.940100
C240 C 0.281100 -0.096200 0.969300
H241 H 0.308600 -0.101400 1.028200
C242 C 0.214200 -0.135200 0.937500
H243 H 0.196000 -0.167000 0.973500
N244 N 0.107900 -0.159610 0.800500
N245 N 0.152500 -0.084740 0.713500
O246 O -0.017210 0.242080 0.658380
H247 H -0.050300 0.272600 0.658100
O248 O -0.128110 0.185330 0.599800
O249 O 0.510530 0.492990 0.376200
C250 C 0.488900 0.375710 0.358800
C251 C 0.530700 0.441000 0.341900
C252 C 0.400000 0.259550 0.376100
C253 C 0.476700 0.255680 0.358100
H254 H 0.499700 0.213600 0.352800
C255 C 0.521400 0.313670 0.347600
H256 H 0.572600 0.310200 0.333100
C257 C 0.368100 0.321890 0.386200
H258 H 0.316200 0.325900 0.398600
C259 C 0.413300 0.378400 0.377700
H260 H 0.391000 0.420300 0.385300
C261 C 0.349600 0.198360 0.387700
H262 H 0.373300 0.176400 0.443500
H263 H 0.294600 0.212400 0.390400
C264 C 0.384300 0.090390 0.317200
H265 H 0.415900 0.072600 0.369200
C266 C 0.323500 0.102850 0.182400
C267 C 0.305300 0.160150 0.226600
C268 C 0.255100 0.211260 0.186200
H269 H 0.242900 0.248600 0.217500
C270 C 0.224400 0.203400 0.096800
H271 H 0.190600 0.236600 0.066100
C272 C 0.242400 0.146900 0.050400
H273 H 0.220100 0.143500 -0.010200
C274 C 0.292000 0.095970 0.091700
H275 H 0.304000 0.058600 0.060200
N276 N 0.373300 0.059560 0.240800
N277 N 0.345810 0.150620 0.314700
O278 O 0.588570 0.433580 0.305210
H279 H 0.609300 0.470300 0.299500
O280 O 0.489470 0.992990 0.123800
C281 C 0.511100 0.875710 0.141200
C282 C 0.469300 0.941000 0.158100
C283 C 0.600000 0.759550 0.123900
C284 C 0.523300 0.755680 0.141900
H285 H 0.500300 0.713600 0.147200
C286 C 0.478600 0.813670 0.152400
H287 H 0.427400 0.810200 0.166900
C288 C 0.631900 0.821890 0.113800
H289 H 0.683800 0.825900 0.101400
C290 C 0.586700 0.878400 0.122300
H291 H 0.609000 0.920300 0.114700
C292 C 0.650400 0.698360 0.112300
H293 H 0.626700 0.676400 0.056500
H294 H 0.705400 0.712400 0.109600
C295 C 0.615700 0.590390 0.182800
H296 H 0.584100 0.572600 0.130800
C297 C 0.676500 0.602850 0.317600
C298 C 0.694700 0.660150 0.273400
C299 C 0.744900 0.711260 0.313800
H300 H 0.757100 0.748600 0.282500
C301 C 0.775600 0.703400 0.403200
H302 H 0.809400 0.736600 0.433900
C303 C 0.757600 0.646900 0.449600
H304 H 0.779900 0.643500 0.510200
C305 C 0.708000 0.595970 0.408300
H306 H 0.696000 0.558600 0.439800
N307 N 0.626700 0.559560 0.259200
N308 N 0.654190 0.650620 0.185300
O309 O 0.411430 0.933580 0.194790
H310 H 0.390700 0.970300 0.200500
O311 O 0.489470 0.507010 0.623800
C312 C 0.511100 0.624290 0.641200
C313 C 0.469300 0.559000 0.658100
C314 C 0.600000 0.740450 0.623900
C315 C 0.523300 0.744320 0.641900
H316 H 0.500300 0.786400 0.647200
C317 C 0.478600 0.686330 0.652400
H318 H 0.427400 0.689800 0.666900
C319 C 0.631900 0.678110 0.613800
H320 H 0.683800 0.674100 0.601400
C321 C 0.586700 0.621600 0.622300
H322 H 0.609000 0.579700 0.614700
C323 C 0.650400 0.801640 0.612300
H324 H 0.626700 0.823600 0.556500
H325 H 0.705400 0.787600 0.609600
C326 C 0.615700 0.909610 0.682800
H327 H 0.584100 0.927400 0.630800
C328 C 0.676500 0.897150 0.817600
C329 C 0.694700 0.839850 0.773400
C330 C 0.744900 0.788740 0.813800
H331 H 0.757100 0.751400 0.782500
C332 C 0.775600 0.796600 0.903200
H333 H 0.809400 0.763400 0.933900
C334 C 0.757600 0.853100 0.949600
H335 H 0.779900 0.856500 1.010200
C336 C 0.708000 0.904030 0.908300
H337 H 0.696000 0.941400 0.939800
N338 N 0.626700 0.940440 0.759200
N339 N 0.654190 0.849380 0.685300
O340 O 0.411430 0.566420 0.694790
H341 H 0.390700 0.529700 0.700500
O342 O 0.510530 0.007010 0.876200
C343 C 0.488900 0.124290 0.858800
C344 C 0.530700 0.059000 0.841900
C345 C 0.400000 0.240450 0.876100
C346 C 0.476700 0.244320 0.858100
H347 H 0.499700 0.286400 0.852800
C348 C 0.521400 0.186330 0.847600
H349 H 0.572600 0.189800 0.833100
C350 C 0.368100 0.178110 0.886200
H351 H 0.316200 0.174100 0.898600
C352 C 0.413300 0.121600 0.877700
H353 H 0.391000 0.079700 0.885300
C354 C 0.349600 0.301640 0.887700
H355 H 0.373300 0.323600 0.943500
H356 H 0.294600 0.287600 0.890400
C357 C 0.384300 0.409610 0.817200
H358 H 0.415900 0.427400 0.869200
C359 C 0.323500 0.397150 0.682400
C360 C 0.305300 0.339850 0.726600
C361 C 0.255100 0.288740 0.686200
H362 H 0.242900 0.251400 0.717500
C363 C 0.224400 0.296600 0.596800
H364 H 0.190600 0.263400 0.566100
C365 C 0.242400 0.353100 0.550400
H366 H 0.220100 0.356500 0.489800
C367 C 0.292000 0.404030 0.591700
H368 H 0.304000 0.441400 0.560200
N369 N 0.373300 0.440440 0.740800
N370 N 0.345810 0.349380 0.814700
O371 O 0.588570 0.066420 0.805210
H372 H 0.609300 0.029700 0.799500
C373 C 0.516900 0.270390 0.091500
C374 C 0.444900 0.272370 0.120800
H375 H 0.421200 0.232300 0.134300
C376 C 0.406600 0.333150 0.130900
H377 H 0.357600 0.333600 0.150700
C378 C 0.441500 0.393160 0.111300
C379 C 0.512000 0.390920 0.079000
H380 H 0.535000 0.430800 0.064100
C381 C 0.549500 0.330450 0.068300
H382 H 0.596800 0.329900 0.045300
C383 C 0.561600 0.204000 0.087400
H384 H 0.524600 0.171600 0.053000
H385 H 0.607000 0.210900 0.057900
C386 C 0.560600 0.126990 0.217600
H387 H 0.516200 0.101400 0.189000
C388 C 0.659300 0.164900 0.316400
C389 C 0.657300 0.203120 0.240100
C390 C 0.713300 0.253150 0.235000
H391 H 0.711700 0.277900 0.183200
C392 C 0.771800 0.264200 0.311400
H393 H 0.810700 0.297600 0.311100
C394 C 0.774500 0.227500 0.388000
H395 H 0.815200 0.236600 0.438000
C396 C 0.718400 0.177500 0.392200
H397 H 0.720200 0.153000 0.444300
C398 C 0.401500 0.456810 0.130500
N399 N 0.592380 0.177630 0.177210
O400 O 0.443240 0.511060 0.116850
H401 H 0.419100 0.544800 0.128300
O402 O 0.338520 0.458660 0.157140
N403 N 0.597500 0.116770 0.300700
C404 C 0.483100 0.770390 0.408500
C405 C 0.555100 0.772370 0.379200
H406 H 0.578800 0.732300 0.365700
C407 C 0.593400 0.833150 0.369100
H408 H 0.642400 0.833600 0.349300
C409 C 0.558500 0.893160 0.388700
C410 C 0.488000 0.890920 0.421000
H411 H 0.465000 0.930800 0.435900
C412 C 0.450500 0.830450 0.431700
H413 H 0.403200 0.829900 0.454700
C414 C 0.438400 0.704000 0.412600
H415 H 0.475400 0.671600 0.447000
H416 H 0.393000 0.710900 0.442100
C417 C 0.439400 0.626990 0.282400
H418 H 0.483800 0.601400 0.311000
C419 C 0.340700 0.664900 0.183600
C420 C 0.342700 0.703120 0.259900
C421 C 0.286700 0.753150 0.265000
H422 H 0.288300 0.777900 0.316800
C423 C 0.228200 0.764200 0.188600
H424 H 0.189300 0.797600 0.188900
C425 C 0.225500 0.727500 0.112000
H426 H 0.184800 0.736600 0.062000
C427 C 0.281600 0.677500 0.107800
H428 H 0.279800 0.653000 0.055700
C429 C 0.598500 0.956810 0.369500
N430 N 0.407620 0.677630 0.322790
O431 O 0.556760 1.011060 0.383150
H432 H 0.580900 1.044800 0.371700
O433 O 0.661480 0.958660 0.342860
N434 N 0.402500 0.616770 0.199300
C435 C 0.483100 0.729610 0.908500
C436 C 0.555100 0.727630 0.879200
H437 H 0.578800 0.767700 0.865700
C438 C 0.593400 0.666850 0.869100
H439 H 0.642400 0.666400 0.849300
C440 C 0.558500 0.606840 0.888700
C441 C 0.488000 0.609080 0.921000
H442 H 0.465000 0.569200 0.935900
C443 C 0.450500 0.669550 0.931700
H444 H 0.403200 0.670100 0.954700
C445 C 0.438400 0.796000 0.912600
H446 H 0.475400 0.828400 0.947000
H447 H 0.393000 0.789100 0.942100
C448 C 0.439400 0.873010 0.782400
H449 H 0.483800 0.898600 0.811000
C450 C 0.340700 0.835100 0.683600
C451 C 0.342700 0.796880 0.759900
C452 C 0.286700 0.746850 0.765000
H453 H 0.288300 0.722100 0.816800
C454 C 0.228200 0.735800 0.688600
H455 H 0.189300 0.702400 0.688900
C456 C 0.225500 0.772500 0.612000
H457 H 0.184800 0.763400 0.562000
C458 C 0.281600 0.822500 0.607800
H459 H 0.279800 0.847000 0.555700
C460 C 0.598500 0.543190 0.869500
N461 N 0.407620 0.822370 0.822790
O462 O 0.556760 0.488940 0.883150
H463 H 0.580900 0.455200 0.871700
O464 O 0.661480 0.541340 0.842860
N465 N 0.402500 0.883230 0.699300
C466 C 0.516900 0.229610 0.591500
C467 C 0.444900 0.227630 0.620800
H468 H 0.421200 0.267700 0.634300
C469 C 0.406600 0.166850 0.630900
H470 H 0.357600 0.166400 0.650700
C471 C 0.441500 0.106840 0.611300
C472 C 0.512000 0.109080 0.579000
H473 H 0.535000 0.069200 0.564100
C474 C 0.549500 0.169550 0.568300
H475 H 0.596800 0.170100 0.545300
C476 C 0.561600 0.296000 0.587400
H477 H 0.524600 0.328400 0.553000
H478 H 0.607000 0.289100 0.557900
C479 C 0.560600 0.373010 0.717600
H480 H 0.516200 0.398600 0.689000
C481 C 0.659300 0.335100 0.816400
C482 C 0.657300 0.296880 0.740100
C483 C 0.713300 0.246850 0.735000
H484 H 0.711700 0.222100 0.683200
C485 C 0.771800 0.235800 0.811400
H486 H 0.810700 0.202400 0.811100
C487 C 0.774500 0.272500 0.888000
H488 H 0.815200 0.263400 0.938000
C489 C 0.718400 0.322500 0.892200
H490 H 0.720200 0.347000 0.944300
C491 C 0.401500 0.043190 0.630500
N492 N 0.592380 0.322370 0.677210
O493 O 0.443240 -0.011060 0.616850
H494 H 0.419100 -0.044800 0.628300
O495 O 0.338520 0.041340 0.657140
N496 N 0.597500 0.383230 0.800700

#END
