
#######################################################################
#
#                 Cambridge Crystallographic Data Centre
#                                CCDC 
#
#######################################################################
#
# If this CIF has been generated from an entry in the Cambridge 
# Structural Database, then it will include bibliographic, chemical, 
# crystal, experimental, refinement or atomic coordinate data resulting 
# from the CCDC's data processing and validation procedures.
#
#######################################################################

data_ABADOX
_symmetry_cell_setting           monoclinic
_symmetry_space_group_name_H-M   'P 21/a'
_symmetry_Int_Tables_number      14
_space_group_name_Hall           '-P 2yab'
loop_
_symmetry_equiv_pos_site_id
_symmetry_equiv_pos_as_xyz
1 x,y,z
2 1/2+x,1/2-y,z
3 -x,-y,-z
4 1/2-x,1/2+y,-z
_cell_length_a                   10.0469(3)
_cell_length_b                   9.5169(2)
_cell_length_c                   10.5877(4)
_cell_angle_alpha                90.00
_cell_angle_beta                 110.3170(12)
_cell_angle_gamma                90.00
_cell_volume                     949.364
loop_
_atom_site_label
_atom_site_type_symbol
_atom_site_fract_x
_atom_site_fract_y
_atom_site_fract_z
S1 S 0.92091(4) 0.09498(4) 0.18040(4)
O1 O 0.89713(16) -0.05256(14) 0.15430(13)
O2 O 1.05205(14) 0.15495(16) 0.18015(14)
C1 C 0.7794(2) 0.18744(18) 0.05561(17)
N1 N 0.64271(17) 0.12425(18) 0.02975(15)
C2 C 0.6261(2) 0.08306(18) -0.09607(17)
O3 O 0.53151(18) 0.01802(17) -0.17893(14)
C3 C 0.7660(2) 0.1470(2) -0.08918(18)
C4 C 0.89978(17) 0.13720(17) 0.33450(16)
C5 C 0.9628(2) 0.25831(19) 0.40060(18)
C6 C 0.9509(2) 0.2901(2) 0.5234(2)
C7 C 0.8764(2) 0.2019(2) 0.5780(2)
C8 C 0.8131(2) 0.0825(2) 0.5110(2)
C9 C 0.8238(2) 0.0484(2) 0.38801(19)
H1 H 0.788(2) 0.283(2) 0.078(2)
H2 H 0.592(3) 0.107(3) 0.074(3)
H3 H 0.833(3) 0.084(2) -0.095(2)
H4 H 0.753(2) 0.224(3) -0.148(2)
H5 H 1.016(3) 0.316(2) 0.361(2)
H6 H 1.003(3) 0.375(2) 0.575(2)
H7 H 0.869(3) 0.228(2) 0.657(3)
H8 H 0.763(3) 0.018(3) 0.546(3)
H9 H 0.787(2) -0.031(2) 0.341(2)
S1 S 0.42091(4) 0.40502(4) 0.18040(4)
O1 O 0.39713(16) 0.55256(14) 0.15430(13)
O2 O 0.55205(14) 0.34505(16) 0.18015(14)
C1 C 0.2794(2) 0.31256(18) 0.05561(17)
N1 N 0.14271(17) 0.37575(18) 0.02975(15)
C2 C 0.1261(2) 0.41694(18) -0.09607(17)
O3 O 0.03151(18) 0.48198(17) -0.17893(14)
C3 C 0.2660(2) 0.3530(2) -0.08918(18)
C4 C 0.39978(17) 0.36280(17) 0.33450(16)
C5 C 0.4628(2) 0.24169(19) 0.40060(18)
C6 C 0.4509(2) 0.2099(2) 0.5234(2)
C7 C 0.3764(2) 0.2981(2) 0.5780(2)
C8 C 0.3131(2) 0.4175(2) 0.5110(2)
C9 C 0.3238(2) 0.4516(2) 0.38801(19)
H1 H 0.288(2) 0.217(2) 0.078(2)
H2 H 0.092(3) 0.393(3) 0.074(3)
H3 H 0.333(3) 0.416(2) -0.095(2)
H4 H 0.253(2) 0.276(3) -0.148(2)
H5 H 0.516(3) 0.184(2) 0.361(2)
H6 H 0.503(3) 0.125(2) 0.575(2)
H7 H 0.369(3) 0.272(2) 0.657(3)
H8 H 0.263(3) 0.482(3) 0.546(3)
H9 H 0.287(2) 0.531(2) 0.341(2)
S1 S 0.07909(4) 0.90502(4) 0.81960(4)
O1 O 0.10287(16) 1.05256(14) 0.84570(13)
O2 O -0.05205(14) 0.84505(16) 0.81985(14)
C1 C 0.2206(2) 0.81256(18) 0.94439(17)
N1 N 0.35729(17) 0.87575(18) 0.97025(15)
C2 C 0.3739(2) 0.91694(18) 1.09607(17)
O3 O 0.46849(18) 0.98198(17) 1.17893(14)
C3 C 0.2340(2) 0.8530(2) 1.08918(18)
C4 C 0.10022(17) 0.86280(17) 0.66550(16)
C5 C 0.0372(2) 0.74169(19) 0.59940(18)
C6 C 0.0491(2) 0.7099(2) 0.4766(2)
C7 C 0.1236(2) 0.7981(2) 0.4220(2)
C8 C 0.1869(2) 0.9175(2) 0.4890(2)
C9 C 0.1762(2) 0.9516(2) 0.61199(19)
H1 H 0.212(2) 0.717(2) 0.922(2)
H2 H 0.408(3) 0.893(3) 0.926(3)
H3 H 0.167(3) 0.916(2) 1.095(2)
H4 H 0.247(2) 0.776(3) 1.148(2)
H5 H -0.016(3) 0.684(2) 0.639(2)
H6 H -0.003(3) 0.625(2) 0.425(2)
H7 H 0.131(3) 0.772(2) 0.343(3)
H8 H 0.237(3) 0.982(3) 0.454(3)
H9 H 0.213(2) 1.031(2) 0.659(2)
S1 S 0.57909(4) 0.59498(4) 0.81960(4)
O1 O 0.60287(16) 0.44744(14) 0.84570(13)
O2 O 0.44795(14) 0.65495(16) 0.81985(14)
C1 C 0.7206(2) 0.68744(18) 0.94439(17)
N1 N 0.85729(17) 0.62425(18) 0.97025(15)
C2 C 0.8739(2) 0.58306(18) 1.09607(17)
O3 O 0.96849(18) 0.51802(17) 1.17893(14)
C3 C 0.7340(2) 0.6470(2) 1.08918(18)
C4 C 0.60022(17) 0.63720(17) 0.66550(16)
C5 C 0.5372(2) 0.75831(19) 0.59940(18)
C6 C 0.5491(2) 0.7901(2) 0.4766(2)
C7 C 0.6236(2) 0.7019(2) 0.4220(2)
C8 C 0.6869(2) 0.5825(2) 0.4890(2)
C9 C 0.6762(2) 0.5484(2) 0.61199(19)
H1 H 0.712(2) 0.783(2) 0.922(2)
H2 H 0.908(3) 0.607(3) 0.926(3)
H3 H 0.667(3) 0.584(2) 1.095(2)
H4 H 0.747(2) 0.724(3) 1.148(2)
H5 H 0.484(3) 0.816(2) 0.639(2)
H6 H 0.497(3) 0.875(2) 0.425(2)
H7 H 0.631(3) 0.728(2) 0.343(3)
H8 H 0.737(3) 0.518(3) 0.454(3)
H9 H 0.713(2) 0.469(2) 0.659(2)

#END
