
#######################################################################
#
#                 Cambridge Crystallographic Data Centre
#                                CCDC 
#
#######################################################################
#
# If this CIF has been generated from an entry in the Cambridge 
# Structural Database, then it will include bibliographic, chemical, 
# crystal, experimental, refinement or atomic coordinate data resulting 
# from the CCDC's data processing and validation procedures.
#
#######################################################################

data_ABADIS
_symmetry_cell_setting           monoclinic
_symmetry_space_group_name_H-M   'P 21/c'
_symmetry_Int_Tables_number      14
_space_group_name_Hall           '-P 2ybc'
loop_
_symmetry_equiv_pos_site_id
_symmetry_equiv_pos_as_xyz
1 x,y,z
2 -x,1/2+y,1/2-z
3 -x,-y,-z
4 x,1/2-y,1/2+z
_cell_length_a                   10.435(2)
_cell_length_b                   14.360(3)
_cell_length_c                   8.2922(17)
_cell_angle_alpha                90
_cell_angle_beta                 96.925(3)
_cell_angle_gamma                90
_cell_volume                     1233.49
loop_
_atom_site_label
_atom_site_type_symbol
_atom_site_fract_x
_atom_site_fract_y
_atom_site_fract_z
N1 N 0.62238(13) 0.42913(9) 0.16767(19)
N2 N 0.43462(14) 0.36669(10) 0.06416(19)
O1 O 1.30575(12) 0.33153(9) 0.43647(18)
O2 O 1.19958(12) 0.20370(10) 0.49287(19)
H1 H 1.2729 0.1834 0.5165
C1 C 0.63655(16) 0.40473(11) 0.0100(2)
C2 C 1.07691(16) 0.33415(13) 0.3955(2)
C3 C 0.73758(18) 0.41493(12) -0.0828(3)
H2 H 0.8156 0.4417 -0.0406
C4 C 0.51859(17) 0.36548(12) -0.0533(2)
C5 C 0.84621(17) 0.33703(13) 0.3785(2)
H3 H 0.7693 0.3075 0.3939
C6 C 0.71733(16) 0.47882(13) 0.2797(2)
H4 H 0.6815 0.4900 0.3806
H5 H 0.7347 0.5388 0.2333
C7 C 0.84294(16) 0.42581(13) 0.3160(2)
C8 C 1.20563(18) 0.28995(15) 0.4421(2)
C9 C 0.50053(17) 0.40470(12) 0.1920(2)
H6 H 0.4671 0.4140 0.2898
C10 C 1.07310(18) 0.42162(14) 0.3297(3)
H7 H 1.1497 0.4503 0.3106
C11 C 0.49941(19) 0.33416(13) -0.2123(3)
H8 H 0.4214 0.3075 -0.2550
C12 C 0.95772(18) 0.46810(14) 0.2912(3)
H9 H 0.9573 0.5280 0.2484
C13 C 0.5994(2) 0.34376(13) -0.3053(3)
H10 H 0.5888 0.3235 -0.4126
C14 C 0.96226(17) 0.29079(13) 0.4188(2)
H11 H 0.9630 0.2309 0.4614
C15 C 0.7167(2) 0.38356(13) -0.2405(3)
H12 H 0.7827 0.3890 -0.3060
N1 N 0.37762(13) 0.92913(9) 0.33233(19)
N2 N 0.56538(14) 0.86669(10) 0.43584(19)
O1 O -0.30575(12) 0.83153(9) 0.06353(18)
O2 O -0.19958(12) 0.70370(10) 0.00713(19)
H1 H -0.2729 0.6834 -0.0165
C1 C 0.36345(16) 0.90473(11) 0.4900(2)
C2 C -0.07691(16) 0.83415(13) 0.1045(2)
C3 C 0.26242(18) 0.91493(12) 0.5828(3)
H2 H 0.1844 0.9417 0.5406
C4 C 0.48141(17) 0.86548(12) 0.5533(2)
C5 C 0.15379(17) 0.83703(13) 0.1215(2)
H3 H 0.2307 0.8075 0.1061
C6 C 0.28267(16) 0.97882(13) 0.2203(2)
H4 H 0.3185 0.9900 0.1194
H5 H 0.2653 1.0388 0.2667
C7 C 0.15706(16) 0.92581(13) 0.1840(2)
C8 C -0.20563(18) 0.78995(15) 0.0579(2)
C9 C 0.49947(17) 0.90470(12) 0.3080(2)
H6 H 0.5329 0.9140 0.2102
C10 C -0.07310(18) 0.92162(14) 0.1703(3)
H7 H -0.1497 0.9503 0.1894
C11 C 0.50059(19) 0.83416(13) 0.7123(3)
H8 H 0.5786 0.8075 0.7550
C12 C 0.04228(18) 0.96810(14) 0.2088(3)
H9 H 0.0427 1.0280 0.2516
C13 C 0.4006(2) 0.84376(13) 0.8053(3)
H10 H 0.4112 0.8235 0.9126
C14 C 0.03774(17) 0.79079(13) 0.0812(2)
H11 H 0.0370 0.7309 0.0386
C15 C 0.2833(2) 0.88356(13) 0.7405(3)
H12 H 0.2173 0.8890 0.8060
N1 N 0.37762(13) 0.57087(9) 0.83233(19)
N2 N 0.56538(14) 0.63331(10) 0.93584(19)
O1 O -0.30575(12) 0.66847(9) 0.56353(18)
O2 O -0.19958(12) 0.79630(10) 0.50713(19)
H1 H -0.2729 0.8166 0.4835
C1 C 0.36345(16) 0.59527(11) 0.9900(2)
C2 C -0.07691(16) 0.66585(13) 0.6045(2)
C3 C 0.26242(18) 0.58507(12) 1.0828(3)
H2 H 0.1844 0.5583 1.0406
C4 C 0.48141(17) 0.63452(12) 1.0533(2)
C5 C 0.15379(17) 0.66297(13) 0.6215(2)
H3 H 0.2307 0.6925 0.6061
C6 C 0.28267(16) 0.52118(13) 0.7203(2)
H4 H 0.3185 0.5100 0.6194
H5 H 0.2653 0.4612 0.7667
C7 C 0.15706(16) 0.57419(13) 0.6840(2)
C8 C -0.20563(18) 0.71005(15) 0.5579(2)
C9 C 0.49947(17) 0.59530(12) 0.8080(2)
H6 H 0.5329 0.5860 0.7102
C10 C -0.07310(18) 0.57838(14) 0.6703(3)
H7 H -0.1497 0.5497 0.6894
C11 C 0.50059(19) 0.66584(13) 1.2123(3)
H8 H 0.5786 0.6925 1.2550
C12 C 0.04228(18) 0.53190(14) 0.7088(3)
H9 H 0.0427 0.4720 0.7516
C13 C 0.4006(2) 0.65624(13) 1.3053(3)
H10 H 0.4112 0.6765 1.4126
C14 C 0.03774(17) 0.70921(13) 0.5812(2)
H11 H 0.0370 0.7691 0.5386
C15 C 0.2833(2) 0.61644(13) 1.2405(3)
H12 H 0.2173 0.6110 1.3060
N1 N 0.62238(13) 0.07087(9) 0.66767(19)
N2 N 0.43462(14) 0.13331(10) 0.56416(19)
O1 O 1.30575(12) 0.16847(9) 0.93647(18)
O2 O 1.19958(12) 0.29630(10) 0.99287(19)
H1 H 1.2729 0.3166 1.0165
C1 C 0.63655(16) 0.09527(11) 0.5100(2)
C2 C 1.07691(16) 0.16585(13) 0.8955(2)
C3 C 0.73758(18) 0.08507(12) 0.4172(3)
H2 H 0.8156 0.0583 0.4594
C4 C 0.51859(17) 0.13452(12) 0.4467(2)
C5 C 0.84621(17) 0.16297(13) 0.8785(2)
H3 H 0.7693 0.1925 0.8939
C6 C 0.71733(16) 0.02118(13) 0.7797(2)
H4 H 0.6815 0.0100 0.8806
H5 H 0.7347 -0.0388 0.7333
C7 C 0.84294(16) 0.07419(13) 0.8160(2)
C8 C 1.20563(18) 0.21005(15) 0.9421(2)
C9 C 0.50053(17) 0.09530(12) 0.6920(2)
H6 H 0.4671 0.0860 0.7898
C10 C 1.07310(18) 0.07838(14) 0.8297(3)
H7 H 1.1497 0.0497 0.8106
C11 C 0.49941(19) 0.16584(13) 0.2877(3)
H8 H 0.4214 0.1925 0.2450
C12 C 0.95772(18) 0.03190(14) 0.7912(3)
H9 H 0.9573 -0.0280 0.7484
C13 C 0.5994(2) 0.15624(13) 0.1947(3)
H10 H 0.5888 0.1765 0.0874
C14 C 0.96226(17) 0.20921(13) 0.9188(2)
H11 H 0.9630 0.2691 0.9614
C15 C 0.7167(2) 0.11644(13) 0.2595(3)
H12 H 0.7827 0.1110 0.1940

#END
