./ABAFAL_from_xyz.cif_generated_by_CrystalShift
_symmetry_cell_setting triclinic
_symmetry_space_group_name_H-M 'P 1'
loop_
_symmetry_equiv_pos_site_id
_symmetry_equiv_pos_as_xyz
1 x,y,z
_cell_length_a 5.860100
_cell_length_b 8.165600
_cell_length_c 16.715300
_cell_angle_alpha 97.332000
_cell_angle_beta 97.876000
_cell_angle_gamma 91.229000
_cell_volume 785.207009
loop_
_atom_site_label
_atom_site_type_symbol
_atom_site_fract_x
_atom_site_fract_y
_atom_site_fract_z
O1 O 0.938500 0.859900 0.461200
N2 N 0.666600 0.748800 0.533500
O3 O 0.688900 0.642600 0.279100
C4 C 0.556700 0.704200 0.407500
C5 C 0.464100 0.654300 0.485400
C6 C 0.451900 0.474900 0.494900
C7 C 0.717200 0.794900 0.617900
C8 C 0.603600 0.567700 0.343000
C9 C 0.246400 0.383300 0.466400
O10 O 1.019200 0.515700 0.298800
C11 C 0.759200 0.787100 0.466600
C12 C 0.227900 0.217300 0.473100
C13 C 0.564600 0.750600 0.668500
C14 C 0.618500 0.226900 0.537500
C15 C 0.919600 0.887100 0.651200
C16 C 0.637800 0.392900 0.530200
C17 C 0.906900 0.613700 0.265200
C18 C 0.413400 0.139500 0.509400
C19 C 0.973900 0.705800 0.202000
C20 C 0.959400 0.933400 0.735000
C21 C 0.609200 0.796700 0.751500
C22 C 0.808600 0.888500 0.784900
H23 H 0.312000 0.713000 0.497000
H24 H 0.465000 0.782000 0.382000
H25 H 0.743000 0.175000 0.562000
H26 H 0.114000 0.432000 0.434000
H27 H 0.494000 0.750000 0.787000
H28 H 0.085000 0.160000 0.450000
H29 H 0.792000 0.463000 0.547000
H30 H 0.704000 0.489000 0.366000
H31 H 0.392000 0.031000 0.513000
H32 H 0.439000 0.677000 0.647000
H33 H 0.921000 0.805000 0.194000
H34 H 0.836000 0.912000 0.843000
H35 H 0.940000 0.612000 0.145000
H36 H 0.467000 0.502000 0.318000
H37 H 1.120000 0.750000 0.217000
H38 H 1.011000 0.918000 0.605000
H39 H 1.102000 1.022000 0.760000
O40 O 0.519500 0.243400 1.195800
O41 O 0.017600 0.493700 1.017300
N42 N 0.311400 0.359800 0.954600
C43 C 0.387700 0.377300 1.082000
C44 C 0.506900 0.299600 1.008000
C45 C 0.354400 0.003900 0.960200
C46 C 0.277600 0.361600 0.870200
C47 C 0.532700 0.115700 0.997300
C48 C 0.442400 0.294500 0.823600
C49 C 0.199000 0.424400 1.017000
C50 C 0.775300 -0.114200 1.017000
C51 C 0.314500 0.269300 1.140800
C52 C 0.743800 0.053100 1.025200
C53 C 0.597400 -0.224500 0.980100
C54 C 0.503800 0.126400 1.243400
C55 C 0.386600 -0.163100 0.952400
O56 O 0.329700 0.045700 1.241800
C57 C 0.060900 0.433500 0.748700
C58 C 0.086000 0.432000 0.832300
C59 C 0.411600 0.296500 0.741500
C60 C 0.221500 0.367100 0.702800
C61 C 0.724400 0.111300 1.299200
H62 H 0.258000 -0.244000 0.916000
H63 H 0.207000 0.052000 0.938000
H64 H 0.469000 0.477000 1.112000
H65 H 0.690000 0.141000 1.355000
H66 H 0.648000 0.357000 1.003000
H67 H 0.252000 0.158000 1.109000
H68 H 0.727000 -0.024000 1.315000
H69 H 0.589000 0.247000 0.855000
H70 H 0.181000 0.323000 1.172000
H71 H 0.513000 0.262000 0.713000
H72 H 0.189000 0.357000 0.644000
H73 H -0.013000 0.482000 0.862000
H74 H -0.043000 0.493000 0.724000
H75 H 0.918000 -0.185000 1.036000
H76 H 0.610000 -0.337000 0.974000
H77 H 0.826000 0.219000 1.305000
H78 H 0.858000 0.144000 1.052000

#END
