
#######################################################################
#
#                 Cambridge Crystallographic Data Centre
#                                CCDC 
#
#######################################################################
#
# If this CIF has been generated from an entry in the Cambridge 
# Structural Database, then it will include bibliographic, chemical, 
# crystal, experimental, refinement or atomic coordinate data resulting 
# from the CCDC's data processing and validation procedures.
#
#######################################################################

data_ABAFER
_symmetry_cell_setting           triclinic
_symmetry_space_group_name_H-M   'P -1'
_symmetry_Int_Tables_number      2
_space_group_name_Hall           '-P 1'
loop_
_symmetry_equiv_pos_site_id
_symmetry_equiv_pos_as_xyz
1 x,y,z
2 -x,-y,-z
_cell_length_a                   10.3189(5)
_cell_length_b                   10.4845(5)
_cell_length_c                   10.9956(5)
_cell_angle_alpha                67.786(2)
_cell_angle_beta                 75.402(2)
_cell_angle_gamma                85.248(3)
_cell_volume                     1065.65
loop_
_atom_site_label
_atom_site_type_symbol
_atom_site_fract_x
_atom_site_fract_y
_atom_site_fract_z
Cu1 Cu 0.62376(2) 0.95056(2) 0.24332(2)
N1 N 0.48453(12) 0.79528(13) 0.31516(12)
N2 N 0.72578(12) 0.90045(13) 0.39356(12)
N3 N 0.54358(12) 1.14246(13) 0.20064(12)
N4 N 0.75691(12) 0.95570(12) 0.06975(12)
C1 C 0.44478(15) 0.72436(16) 0.44882(15)
H1 H 0.4919 0.7389 0.5065
C2 C 0.33873(17) 0.63124(18) 0.50674(18)
H2 H 0.3137 0.5836 0.6020
C3 C 0.26994(17) 0.60845(17) 0.4244(2)
H3 H 0.1956 0.5464 0.4618
C4 C 0.31124(16) 0.67761(17) 0.28668(19)
H4 H 0.2670 0.6625 0.2272
C5 C 0.41814(16) 0.76940(16) 0.23620(16)
H5 H 0.4460 0.8164 0.1410
C6 C 0.73388(16) 0.98288(16) 0.45947(15)
H6 H 0.6789 1.0619 0.4466
C7 C 0.81825(18) 0.95861(18) 0.54509(17)
H7 H 0.8222 1.0206 0.5886
C8 C 0.89707(17) 0.84244(18) 0.56663(17)
H8 H 0.9559 0.8232 0.6252
C9 C 0.88862(16) 0.75511(17) 0.50142(16)
H9 H 0.9408 0.6741 0.5149
C10 C 0.80252(15) 0.78772(15) 0.41581(15)
H10 H 0.7975 0.7275 0.3707
C11 C 0.60707(14) 1.24956(15) 0.20063(15)
H11 H 0.6943 1.2360 0.2168
C12 C 0.55098(16) 1.37823(16) 0.17810(16)
H12 H 0.5989 1.4511 0.1795
C13 C 0.42467(16) 1.40005(16) 0.15358(17)
H13 H 0.3834 1.4872 0.1397
C14 C 0.35982(16) 1.29212(17) 0.14968(18)
H14 H 0.2736 1.3043 0.1310
C15 C 0.42211(15) 1.16637(16) 0.17327(17)
H15 H 0.3768 1.0929 0.1700
C16 C 0.81225(14) 1.07617(14) -0.02205(14)
H16 H 0.7822 1.1583 -0.0070
C17 C 0.91059(14) 1.08701(15) -0.13722(15)
H17 H 0.9465 1.1745 -0.1999
C18 C 0.95576(14) 0.96787(15) -0.15945(15)
H18 H 1.0232 0.9719 -0.2377
C19 C 0.90070(15) 0.84278(15) -0.06539(15)
H19 H 0.9304 0.7592 -0.0775
C20 C 0.80212(14) 0.84127(14) 0.04611(15)
H20 H 0.7642 0.7550 0.1095
Cu1 Cu 0.37624(2) 0.04944(2) 0.75668(2)
N1 N 0.51547(12) 0.20472(13) 0.68484(12)
N2 N 0.27422(12) 0.09955(13) 0.60644(12)
N3 N 0.45642(12) -0.14246(13) 0.79936(12)
N4 N 0.24309(12) 0.04430(12) 0.93025(12)
C1 C 0.55522(15) 0.27564(16) 0.55118(15)
H1 H 0.5081 0.2611 0.4935
C2 C 0.66127(17) 0.36876(18) 0.49326(18)
H2 H 0.6863 0.4164 0.3980
C3 C 0.73006(17) 0.39155(17) 0.5756(2)
H3 H 0.8044 0.4536 0.5382
C4 C 0.68876(16) 0.32239(17) 0.71332(19)
H4 H 0.7330 0.3375 0.7728
C5 C 0.58186(16) 0.23060(16) 0.76380(16)
H5 H 0.5540 0.1836 0.8590
C6 C 0.26612(16) 0.01712(16) 0.54053(15)
H6 H 0.3211 -0.0619 0.5534
C7 C 0.18175(18) 0.04139(18) 0.45491(17)
H7 H 0.1778 -0.0206 0.4114
C8 C 0.10293(17) 0.15756(18) 0.43337(17)
H8 H 0.0441 0.1768 0.3748
C9 C 0.11138(16) 0.24489(17) 0.49858(16)
H9 H 0.0592 0.3259 0.4851
C10 C 0.19748(15) 0.21228(15) 0.58419(15)
H10 H 0.2025 0.2725 0.6293
C11 C 0.39293(14) -0.24956(15) 0.79937(15)
H11 H 0.3057 -0.2360 0.7832
C12 C 0.44902(16) -0.37823(16) 0.82190(16)
H12 H 0.4011 -0.4511 0.8205
C13 C 0.57533(16) -0.40005(16) 0.84642(17)
H13 H 0.6166 -0.4872 0.8603
C14 C 0.64018(16) -0.29212(17) 0.85032(18)
H14 H 0.7264 -0.3043 0.8690
C15 C 0.57789(15) -0.16637(16) 0.82673(17)
H15 H 0.6232 -0.0929 0.8300
C16 C 0.18775(14) -0.07617(14) 1.02205(14)
H16 H 0.2178 -0.1583 1.0070
C17 C 0.08941(14) -0.08701(15) 1.13722(15)
H17 H 0.0535 -0.1745 1.1999
C18 C 0.04424(14) 0.03213(15) 1.15945(15)
H18 H -0.0232 0.0281 1.2377
C19 C 0.09930(15) 0.15722(15) 1.06539(15)
H19 H 0.0696 0.2408 1.0775
C20 C 0.19788(14) 0.15873(14) 0.95389(15)
H20 H 0.2358 0.2450 0.8905
O1 O 0.97931(12) 0.56318(11) 0.29961(11)
O2 O 1.12516(10) 0.57427(11) 0.11013(11)
O3 O 0.90638(11) 0.32371(10) 0.23712(11)
O4 O 0.85731(10) 0.51731(10) 0.07711(10)
C21 C 1.00950(15) 0.53372(14) 0.19963(14)
C22 C 0.91620(13) 0.44818(14) 0.16953(14)
H21 H 1.135(2) 0.545(2) 0.042(2)
O1 O 0.02069(12) 0.43682(11) 0.70039(11)
O2 O -0.12516(10) 0.42573(11) 0.88987(11)
O3 O 0.09362(11) 0.67629(10) 0.76288(11)
O4 O 0.14269(10) 0.48269(10) 0.92289(10)
C21 C -0.00950(15) 0.46628(14) 0.80037(14)
C22 C 0.08380(13) 0.55182(14) 0.83047(14)
H21 H -0.135(2) 0.455(2) 0.958(2)

#END
