
#######################################################################
#
#                 Cambridge Crystallographic Data Centre
#                                CCDC 
#
#######################################################################
#
# If this CIF has been generated from an entry in the Cambridge 
# Structural Database, then it will include bibliographic, chemical, 
# crystal, experimental, refinement or atomic coordinate data resulting 
# from the CCDC's data processing and validation procedures.
#
#######################################################################

data_ABAFEP
_symmetry_cell_setting           monoclinic
_symmetry_space_group_name_H-M   'P 21'
_symmetry_Int_Tables_number      4
_space_group_name_Hall           'P 2yb'
loop_
_symmetry_equiv_pos_site_id
_symmetry_equiv_pos_as_xyz
1 x,y,z
2 -x,1/2+y,-z
_cell_length_a                   10.4690(7)
_cell_length_b                   7.1864(6)
_cell_length_c                   13.3318(11)
_cell_angle_alpha                90
_cell_angle_beta                 104.142(3)
_cell_angle_gamma                90
_cell_volume                     972.612
loop_
_atom_site_label
_atom_site_type_symbol
_atom_site_fract_x
_atom_site_fract_y
_atom_site_fract_z
O1 O 0.9929(3) 0.5829(4) 0.8966(2)
H1 H 1.060(3) 0.492(5) 0.930(3)
O2 O 0.8603(3) 0.8210(4) -0.0136(2)
H2 H 0.912(3) 0.739(5) -0.046(3)
C1 C 0.8827(4) 0.3982(5) 0.6260(3)
H3 H 0.851 0.2752 0.5968
H4 H 0.9649 0.4268 0.605
C2 C 0.9127(4) 0.3876(5) 0.7432(3)
H5 H 0.8304 0.3673 0.7657
H6 H 0.973 0.2823 0.7684
C3 C 0.9762(4) 0.5685(5) 0.7870(3)
H7 H 1.0644 0.5789 0.771
C4 C 0.8922(5) 0.7274(6) 0.7375(3)
H8 H 0.9025 0.8425 0.7736
C5 C 0.8043(4) 0.7204(5) 0.6473(3)
C6 C 0.7202(4) 0.8862(5) 0.6046(3)
H9 H 0.7496 0.9954 0.6496
H10 H 0.6275 0.86 0.6048
C7 C 0.7286(4) 0.9312(5) 0.4952(3)
H11 H 0.8184 0.9766 0.4968
H12 H 0.6658 1.0324 0.4674
C8 C 0.6980(4) 0.7635(5) 0.4234(3)
H13 H 0.6046 0.7253 0.4172
C9 C 0.7893(4) 0.6003(5) 0.4704(3)
H14 H 0.8812 0.647 0.4784
C10 C 0.7791(4) 0.5456(5) 0.5806(3)
C11 C 0.7741(4) 0.4356(5) 0.3949(3)
H15 H 0.8416 0.3408 0.4239
H16 H 0.6865 0.3781 0.3885
C12 C 0.7877(4) 0.4911(5) 0.2875(3)
H17 H 0.8786 0.5355 0.2926
H18 H 0.7728 0.3803 0.242
C13 C 0.6910(4) 0.6429(5) 0.2392(3)
C14 C 0.7152(4) 0.8080(5) 0.3166(3)
H19 H 0.8101 0.8419 0.3266
C15 C 0.6380(4) 0.9675(5) 0.2560(3)
H20 H 0.6762 1.0889 0.283
H21 H 0.5446 0.9635 0.2595
C16 C 0.6502(4) 0.9365(5) 0.1449(3)
H22 H 0.7037 1.0363 0.1242
H23 H 0.5621 0.9361 0.0961
C17 C 0.7186(4) 0.7439(5) 0.1442(3)
H24 H 0.8156 0.768 0.1603
C18 C 0.5485(4) 0.5730(6) 0.2149(3)
H25 H 0.4887 0.6746 0.1854
H26 H 0.5278 0.5292 0.2788
H27 H 0.5379 0.4703 0.1652
C19 C 0.6411(4) 0.4682(6) 0.5799(3)
H28 H 0.5742 0.562 0.5514
H29 H 0.6373 0.4378 0.6508
H30 H 0.6244 0.3557 0.5372
C20 C 0.6807(4) 0.6555(6) 0.0364(3)
H31 H 0.5825 0.6454 0.0156
C21 C 0.7374(5) 0.4595(6) 0.0311(3)
H32 H 0.7076 0.4111 -0.0394
H33 H 0.7069 0.3771 0.0791
H34 H 0.8339 0.4654 0.0504
C22 C 0.7228(4) 0.7817(6) -0.0416(3)
H35 H 0.7001 0.7213 -0.1104
H36 H 0.6732 0.9001 -0.047
O1 O 0.0071(3) 0.0829(4) 0.1034(2)
H1 H -0.060(3) -0.008(5) 0.070(3)
O2 O 0.1397(3) 0.3210(4) 1.0136(2)
H2 H 0.088(3) 0.239(5) 1.046(3)
C1 C 0.1173(4) -0.1018(5) 0.3740(3)
H3 H 0.149 -0.2248 0.4032
H4 H 0.0351 -0.0732 0.395
C2 C 0.0873(4) -0.1124(5) 0.2568(3)
H5 H 0.1696 -0.1327 0.2343
H6 H 0.027 -0.2177 0.2316
C3 C 0.0238(4) 0.0685(5) 0.2130(3)
H7 H -0.0644 0.0789 0.229
C4 C 0.1078(5) 0.2274(6) 0.2625(3)
H8 H 0.0975 0.3425 0.2264
C5 C 0.1957(4) 0.2204(5) 0.3527(3)
C6 C 0.2798(4) 0.3862(5) 0.3954(3)
H9 H 0.2504 0.4954 0.3504
H10 H 0.3725 0.36 0.3952
C7 C 0.2714(4) 0.4312(5) 0.5048(3)
H11 H 0.1816 0.4766 0.5032
H12 H 0.3342 0.5324 0.5326
C8 C 0.3020(4) 0.2635(5) 0.5766(3)
H13 H 0.3954 0.2253 0.5828
C9 C 0.2107(4) 0.1003(5) 0.5296(3)
H14 H 0.1188 0.147 0.5216
C10 C 0.2209(4) 0.0456(5) 0.4194(3)
C11 C 0.2259(4) -0.0644(5) 0.6051(3)
H15 H 0.1584 -0.1592 0.5761
H16 H 0.3135 -0.1219 0.6115
C12 C 0.2123(4) -0.0089(5) 0.7125(3)
H17 H 0.1214 0.0355 0.7074
H18 H 0.2272 -0.1197 0.758
C13 C 0.3090(4) 0.1429(5) 0.7608(3)
C14 C 0.2848(4) 0.3080(5) 0.6834(3)
H19 H 0.1899 0.3419 0.6734
C15 C 0.3620(4) 0.4675(5) 0.7440(3)
H20 H 0.3238 0.5889 0.717
H21 H 0.4554 0.4635 0.7405
C16 C 0.3498(4) 0.4365(5) 0.8551(3)
H22 H 0.2963 0.5363 0.8758
H23 H 0.4379 0.4361 0.9039
C17 C 0.2814(4) 0.2439(5) 0.8558(3)
H24 H 0.1844 0.268 0.8397
C18 C 0.4515(4) 0.0730(6) 0.7851(3)
H25 H 0.5113 0.1746 0.8146
H26 H 0.4722 0.0292 0.7212
H27 H 0.4621 -0.0297 0.8348
C19 C 0.3589(4) -0.0318(6) 0.4201(3)
H28 H 0.4258 0.062 0.4486
H29 H 0.3627 -0.0622 0.3492
H30 H 0.3756 -0.1443 0.4628
C20 C 0.3193(4) 0.1555(6) 0.9636(3)
H31 H 0.4175 0.1454 0.9844
C21 C 0.2626(5) -0.0405(6) 0.9689(3)
H32 H 0.2924 -0.0889 1.0394
H33 H 0.2931 -0.1229 0.9209
H34 H 0.1661 -0.0346 0.9496
C22 C 0.2772(4) 0.2817(6) 1.0416(3)
H35 H 0.2999 0.2213 1.1104
H36 H 0.3268 0.4001 1.047

#END
