./ABAJEV_from_xyz.cif_generated_by_CrystalShift
_symmetry_cell_setting triclinic
_symmetry_space_group_name_H-M 'P 1'
loop_
_symmetry_equiv_pos_site_id
_symmetry_equiv_pos_as_xyz
1 x,y,z
_cell_length_a 15.524000
_cell_length_b 8.811300
_cell_length_c 15.794000
_cell_angle_alpha 90.000000
_cell_angle_beta 109.072000
_cell_angle_gamma 90.000000
_cell_volume 2041.820324
loop_
_atom_site_label
_atom_site_type_symbol
_atom_site_fract_x
_atom_site_fract_y
_atom_site_fract_z
Cl1 Cl 0.712980 0.598760 0.807250
Cl2 Cl 0.787020 0.098760 0.692750
Cl3 Cl 0.287020 0.401240 0.192750
Cl4 Cl 0.212980 0.901240 0.307250
N5 N 0.492950 1.005060 0.714490
C6 C 0.416620 1.061120 0.727770
C7 C 0.413230 1.216180 0.745490
H8 H 0.361800 1.256400 0.755100
N9 N 0.347770 0.969670 0.723860
H10 H 0.345800 0.873100 0.720400
H11 H 0.299900 1.007700 0.730300
C12 C 0.483690 1.307900 0.748840
H13 H 0.481300 1.410300 0.762200
C14 C 0.560480 1.249500 0.732300
H15 H 0.608800 1.312500 0.732900
C16 C 0.562740 1.100400 0.715530
H17 H 0.613400 1.060800 0.704300
C18 C 0.502060 0.843650 0.697020
H19 H 0.472100 0.784800 0.731200
H20 H 0.566200 0.817000 0.718200
C21 C 0.462630 0.800400 0.600200
C22 C 0.425650 0.899100 0.536360
H23 H 0.401900 0.866900 0.477200
H24 H 0.423200 1.001200 0.550300
C25 C 0.469650 0.634000 0.584100
H26 H 0.443100 0.613100 0.521300
H27 H 0.437800 0.578000 0.616700
H28 H 0.532600 0.604400 0.604000
N29 N 0.007050 0.505060 0.785510
C30 C 0.083380 0.561120 0.772230
C31 C 0.086770 0.716180 0.754510
H32 H 0.138200 0.756400 0.744900
N33 N 0.152230 0.469670 0.776140
H34 H 0.154200 0.373100 0.779600
H35 H 0.200100 0.507700 0.769700
C36 C 0.016310 0.807900 0.751160
H37 H 0.018700 0.910300 0.737800
C38 C -0.060480 0.749500 0.767700
H39 H -0.108800 0.812500 0.767100
C40 C -0.062740 0.600400 0.784470
H41 H -0.113400 0.560800 0.795700
C42 C -0.002060 0.343650 0.802980
H43 H 0.027900 0.284800 0.768800
H44 H -0.066200 0.317000 0.781800
C45 C 0.037370 0.300400 0.899800
C46 C 0.074350 0.399100 0.963640
H47 H 0.098100 0.366900 1.022800
H48 H 0.076800 0.501200 0.949700
C49 C 0.030350 0.134000 0.915900
H50 H 0.056900 0.113100 0.978700
H51 H 0.062200 0.078000 0.883300
H52 H -0.032600 0.104400 0.896000
N53 N 0.507050 -0.005060 0.285510
C54 C 0.583380 -0.061120 0.272230
C55 C 0.586770 -0.216180 0.254510
H56 H 0.638200 -0.256400 0.244900
N57 N 0.652230 0.030330 0.276140
H58 H 0.654200 0.126900 0.279600
H59 H 0.700100 -0.007700 0.269700
C60 C 0.516310 -0.307900 0.251160
H61 H 0.518700 -0.410300 0.237800
C62 C 0.439520 -0.249500 0.267700
H63 H 0.391200 -0.312500 0.267100
C64 C 0.437260 -0.100400 0.284470
H65 H 0.386600 -0.060800 0.295700
C66 C 0.497940 0.156350 0.302980
H67 H 0.527900 0.215200 0.268800
H68 H 0.433800 0.183000 0.281800
C69 C 0.537370 0.199600 0.399800
C70 C 0.574350 0.100900 0.463640
H71 H 0.598100 0.133100 0.522800
H72 H 0.576800 -0.001200 0.449700
C73 C 0.530350 0.366000 0.415900
H74 H 0.556900 0.386900 0.478700
H75 H 0.562200 0.422000 0.383300
H76 H 0.467400 0.395600 0.396000
N77 N 0.992950 0.494940 0.214490
C78 C 0.916620 0.438880 0.227770
C79 C 0.913230 0.283820 0.245490
H80 H 0.861800 0.243600 0.255100
N81 N 0.847770 0.530330 0.223860
H82 H 0.845800 0.626900 0.220400
H83 H 0.799900 0.492300 0.230300
C84 C 0.983690 0.192100 0.248840
H85 H 0.981300 0.089700 0.262200
C86 C 1.060480 0.250500 0.232300
H87 H 1.108800 0.187500 0.232900
C88 C 1.062740 0.399600 0.215530
H89 H 1.113400 0.439200 0.204300
C90 C 1.002060 0.656350 0.197020
H91 H 0.972100 0.715200 0.231200
H92 H 1.066200 0.683000 0.218200
C93 C 0.962630 0.699600 0.100200
C94 C 0.925650 0.600900 0.036360
H95 H 0.901900 0.633100 -0.022800
H96 H 0.923200 0.498800 0.050300
C97 C 0.969650 0.866000 0.084100
H98 H 0.943100 0.886900 0.021300
H99 H 0.937800 0.922000 0.116700
H100 H 1.032600 0.895600 0.104000
Cl101 Cl 0.329200 0.615600 0.752470
Cl102 Cl 0.170800 0.115600 0.747530
Cl103 Cl 0.670800 0.384400 0.247530
Cl104 Cl 0.829200 0.884400 0.252470
N105 N 0.725530 0.995390 0.995110
C106 C 0.748090 1.042330 0.923660
N107 N 0.758160 0.943660 0.864170
H108 H 0.743200 0.847900 0.864100
H109 H 0.771300 0.983000 0.820500
C110 C 0.760250 1.198100 0.914180
H111 H 0.777700 1.232500 0.866500
C112 C 0.747230 1.298600 0.972620
H113 H 0.754700 1.401800 0.964700
C114 C 0.722430 1.248200 1.045470
H115 H 0.712500 1.316600 1.086200
C116 C 0.713350 1.098800 1.054930
H117 H 0.698200 1.063900 1.103800
C118 C 0.705870 0.835280 1.007670
H119 H 0.726600 0.812600 1.071300
H120 H 0.740100 0.771800 0.979800
C121 C 0.607030 0.796300 0.969130
C122 C 0.543650 0.894800 0.929180
H123 H 0.483100 0.864200 0.906400
H124 H 0.559200 0.995300 0.923600
C125 C 0.586280 0.634100 0.980040
H126 H 0.521800 0.617400 0.954300
H127 H 0.605700 0.609000 1.042600
H128 H 0.617900 0.571100 0.950200
N129 N 0.774470 0.495390 0.504890
C130 C 0.751910 0.542330 0.576340
N131 N 0.741840 0.443660 0.635830
H132 H 0.756800 0.347900 0.635900
H133 H 0.728700 0.483000 0.679500
C134 C 0.739750 0.698100 0.585820
H135 H 0.722300 0.732500 0.633500
C136 C 0.752770 0.798600 0.527380
H137 H 0.745300 0.901800 0.535300
C138 C 0.777570 0.748200 0.454530
H139 H 0.787500 0.816600 0.413800
C140 C 0.786650 0.598800 0.445070
H141 H 0.801800 0.563900 0.396200
C142 C 0.794130 0.335280 0.492330
H143 H 0.773400 0.312600 0.428700
H144 H 0.759900 0.271800 0.520200
C145 C 0.892970 0.296300 0.530870
C146 C 0.956350 0.394800 0.570820
H147 H 1.016900 0.364200 0.593600
H148 H 0.940800 0.495300 0.576400
C149 C 0.913720 0.134100 0.519960
H150 H 0.978200 0.117400 0.545700
H151 H 0.894300 0.109000 0.457400
H152 H 0.882100 0.071100 0.549800
N153 N 0.274470 0.004610 0.004890
C154 C 0.251910 -0.042330 0.076340
N155 N 0.241840 0.056340 0.135830
H156 H 0.256800 0.152100 0.135900
H157 H 0.228700 0.017000 0.179500
C158 C 0.239750 -0.198100 0.085820
H159 H 0.222300 -0.232500 0.133500
C160 C 0.252770 -0.298600 0.027380
H161 H 0.245300 -0.401800 0.035300
C162 C 0.277570 -0.248200 -0.045470
H163 H 0.287500 -0.316600 -0.086200
C164 C 0.286650 -0.098800 -0.054930
H165 H 0.301800 -0.063900 -0.103800
C166 C 0.294130 0.164720 -0.007670
H167 H 0.273400 0.187400 -0.071300
H168 H 0.259900 0.228200 0.020200
C169 C 0.392970 0.203700 0.030870
C170 C 0.456350 0.105200 0.070820
H171 H 0.516900 0.135800 0.093600
H172 H 0.440800 0.004700 0.076400
C173 C 0.413720 0.365900 0.019960
H174 H 0.478200 0.382600 0.045700
H175 H 0.394300 0.391000 -0.042600
H176 H 0.382100 0.428900 0.049800
N177 N 0.225530 0.504610 0.495110
C178 C 0.248090 0.457670 0.423660
N179 N 0.258160 0.556340 0.364170
H180 H 0.243200 0.652100 0.364100
H181 H 0.271300 0.517000 0.320500
C182 C 0.260250 0.301900 0.414180
H183 H 0.277700 0.267500 0.366500
C184 C 0.247230 0.201400 0.472620
H185 H 0.254700 0.098200 0.464700
C186 C 0.222430 0.251800 0.545470
H187 H 0.212500 0.183400 0.586200
C188 C 0.213350 0.401200 0.554930
H189 H 0.198200 0.436100 0.603800
C190 C 0.205870 0.664720 0.507670
H191 H 0.226600 0.687400 0.571300
H192 H 0.240100 0.728200 0.479800
C193 C 0.107030 0.703700 0.469130
C194 C 0.043650 0.605200 0.429180
H195 H -0.016900 0.635800 0.406400
H196 H 0.059200 0.504700 0.423600
C197 C 0.086280 0.865900 0.480040
H198 H 0.021800 0.882600 0.454300
H199 H 0.105700 0.891000 0.542600
H200 H 0.117900 0.928900 0.450200

#END
