./ABAJIZ_from_xyz.cif_generated_by_CrystalShift
_symmetry_cell_setting triclinic
_symmetry_space_group_name_H-M 'P 1'
loop_
_symmetry_equiv_pos_site_id
_symmetry_equiv_pos_as_xyz
1 x,y,z
_cell_length_a 16.699600
_cell_length_b 8.944300
_cell_length_c 25.906000
_cell_angle_alpha 90.000000
_cell_angle_beta 119.151000
_cell_angle_gamma 90.000000
_cell_volume 3379.369183
loop_
_atom_site_label
_atom_site_type_symbol
_atom_site_fract_x
_atom_site_fract_y
_atom_site_fract_z
C1 C 0.765600 0.976300 0.383200
C2 C 0.730600 1.195800 0.409000
H3 H 0.734000 1.280300 0.432200
C4 C 0.667700 1.171600 0.352200
H5 H 0.617500 1.234400 0.327700
C6 C 0.868600 1.055700 0.486500
H7 H 0.880600 0.949000 0.495700
H8 H 0.855400 1.103500 0.515500
H9 H 0.922700 1.102600 0.487900
C10 C 0.636800 0.967700 0.278300
H11 H 0.662200 0.868000 0.277900
H12 H 0.640100 1.030400 0.247900
C13 C 0.539800 0.952500 0.264400
H14 H 0.525900 0.889300 0.288400
C15 C 0.472400 1.023400 0.219900
H16 H 0.485000 1.087000 0.195400
H17 H 0.411100 1.010900 0.212300
C18 C 0.835700 0.460200 0.356000
H19 H 0.772200 0.474300 0.329400
C20 C 0.874000 0.319900 0.358400
H21 H 0.837800 0.240100 0.334000
C22 C 0.966800 0.300700 0.397600
H23 H 0.995000 0.206300 0.400800
C24 C 1.017700 0.418700 0.431800
H25 H 1.081300 0.407900 0.458800
C26 C 0.972800 0.556200 0.425500
H27 H 1.007600 0.639300 0.448200
N28 N 0.790100 1.073500 0.427400
N29 N 0.690900 1.036700 0.336700
N30 N 0.883700 0.574200 0.389100
I31 I 0.911500 0.898390 0.335910
I32 I 0.727700 0.665880 0.429650
Pt33 Pt 0.822940 0.781680 0.385050
C34 C 0.234400 0.476300 0.116800
C35 C 0.269400 0.695800 0.091000
H36 H 0.266000 0.780300 0.067800
C37 C 0.332300 0.671600 0.147800
H38 H 0.382500 0.734400 0.172300
C39 C 0.131400 0.555700 0.013500
H40 H 0.119400 0.449000 0.004300
H41 H 0.144600 0.603500 -0.015500
H42 H 0.077300 0.602600 0.012100
C43 C 0.363200 0.467700 0.221700
H44 H 0.337800 0.368000 0.222100
H45 H 0.359900 0.530400 0.252100
C46 C 0.460200 0.452500 0.235600
H47 H 0.474100 0.389300 0.211600
C48 C 0.527600 0.523400 0.280100
H49 H 0.515000 0.587000 0.304600
H50 H 0.588900 0.510900 0.287700
C51 C 0.164300 -0.039800 0.144000
H52 H 0.227800 -0.025700 0.170600
C53 C 0.126000 -0.180100 0.141600
H54 H 0.162200 -0.259900 0.166000
C55 C 0.033200 -0.199300 0.102400
H56 H 0.005000 -0.293700 0.099200
C57 C -0.017700 -0.081300 0.068200
H58 H -0.081300 -0.092100 0.041200
C59 C 0.027200 0.056200 0.074500
H60 H -0.007600 0.139300 0.051800
N61 N 0.209900 0.573500 0.072600
N62 N 0.309100 0.536700 0.163300
N63 N 0.116300 0.074200 0.110900
I64 I 0.088500 0.398390 0.164090
I65 I 0.272300 0.165880 0.070350
Pt66 Pt 0.177060 0.281680 0.114950
C67 C 0.234400 0.023700 0.616800
C68 C 0.269400 -0.195800 0.591000
H69 H 0.266000 -0.280300 0.567800
C70 C 0.332300 -0.171600 0.647800
H71 H 0.382500 -0.234400 0.672300
C72 C 0.131400 -0.055700 0.513500
H73 H 0.119400 0.051000 0.504300
H74 H 0.144600 -0.103500 0.484500
H75 H 0.077300 -0.102600 0.512100
C76 C 0.363200 0.032300 0.721700
H77 H 0.337800 0.132000 0.722100
H78 H 0.359900 -0.030400 0.752100
C79 C 0.460200 0.047500 0.735600
H80 H 0.474100 0.110700 0.711600
C81 C 0.527600 -0.023400 0.780100
H82 H 0.515000 -0.087000 0.804600
H83 H 0.588900 -0.010900 0.787700
C84 C 0.164300 0.539800 0.644000
H85 H 0.227800 0.525700 0.670600
C86 C 0.126000 0.680100 0.641600
H87 H 0.162200 0.759900 0.666000
C88 C 0.033200 0.699300 0.602400
H89 H 0.005000 0.793700 0.599200
C90 C -0.017700 0.581300 0.568200
H91 H -0.081300 0.592100 0.541200
C92 C 0.027200 0.443800 0.574500
H93 H -0.007600 0.360700 0.551800
N94 N 0.209900 -0.073500 0.572600
N95 N 0.309100 -0.036700 0.663300
N96 N 0.116300 0.425800 0.610900
I97 I 0.088500 0.101610 0.664090
I98 I 0.272300 0.334120 0.570350
Pt99 Pt 0.177060 0.218320 0.614950
C100 C 0.765600 0.523700 0.883200
C101 C 0.730600 0.304200 0.909000
H102 H 0.734000 0.219700 0.932200
C103 C 0.667700 0.328400 0.852200
H104 H 0.617500 0.265600 0.827700
C105 C 0.868600 0.444300 0.986500
H106 H 0.880600 0.551000 0.995700
H107 H 0.855400 0.396500 1.015500
H108 H 0.922700 0.397400 0.987900
C109 C 0.636800 0.532300 0.778300
H110 H 0.662200 0.632000 0.777900
H111 H 0.640100 0.469600 0.747900
C112 C 0.539800 0.547500 0.764400
H113 H 0.525900 0.610700 0.788400
C114 C 0.472400 0.476600 0.719900
H115 H 0.485000 0.413000 0.695400
H116 H 0.411100 0.489100 0.712300
C117 C 0.835700 1.039800 0.856000
H118 H 0.772200 1.025700 0.829400
C119 C 0.874000 1.180100 0.858400
H120 H 0.837800 1.259900 0.834000
C121 C 0.966800 1.199300 0.897600
H122 H 0.995000 1.293700 0.900800
C123 C 1.017700 1.081300 0.931800
H124 H 1.081300 1.092100 0.958800
C125 C 0.972800 0.943800 0.925500
H126 H 1.007600 0.860700 0.948200
N127 N 0.790100 0.426500 0.927400
N128 N 0.690900 0.463300 0.836700
N129 N 0.883700 0.925800 0.889100
I130 I 0.911500 0.601610 0.835910
I131 I 0.727700 0.834120 0.929650
Pt132 Pt 0.822940 0.718320 0.885050
C133 C 0.749500 0.432600 0.115300
C134 C 0.779600 0.646900 0.086800
H135 H 0.773200 0.733000 0.063600
C136 C 0.851400 0.615200 0.139400
H137 H 0.905500 0.673200 0.160500
C138 C 0.630300 0.524100 0.017200
H139 H 0.605700 0.422700 0.013100
H140 H 0.640100 0.546200 -0.016400
H141 H 0.586700 0.596100 0.018000
C142 C 0.895300 0.401600 0.211400
H143 H 0.942600 0.350900 0.205200
H144 H 0.861500 0.323900 0.220300
C145 C 0.940500 0.504300 0.262400
H146 H 0.903800 0.566800 0.272000
C147 C 1.028600 0.511300 0.294000
H148 H 1.066200 0.449400 0.284800
H149 H 1.055900 0.578300 0.326500
C150 C 0.683900 -0.078200 0.152100
H151 H 0.748500 -0.064700 0.173400
C152 C 0.648600 -0.216100 0.155500
H153 H 0.688000 -0.294800 0.178600
C154 C 0.556700 -0.235700 0.125300
H155 H 0.530700 -0.328700 0.127200
C156 C 0.502000 -0.122600 0.092400
H157 H 0.437500 -0.136400 0.070500
C158 C 0.540800 0.016400 0.090600
H159 H 0.502000 0.096100 0.067900
N160 N 0.717400 0.535000 0.072100
N161 N 0.831300 0.480700 0.157000
N162 N 0.631400 0.037000 0.120300
I163 I 0.751040 0.116040 0.052540
I164 I 0.634790 0.358710 0.185320
Pt165 Pt 0.690950 0.239820 0.117380
C166 C 0.250500 0.932600 0.384700
C167 C 0.220400 1.146900 0.413200
H168 H 0.226800 1.233000 0.436400
C169 C 0.148600 1.115200 0.360600
H170 H 0.094500 1.173200 0.339500
C171 C 0.369700 1.024100 0.482800
H172 H 0.394300 0.922700 0.486900
H173 H 0.359900 1.046200 0.516400
H174 H 0.413300 1.096100 0.482000
C175 C 0.104700 0.901600 0.288600
H176 H 0.057400 0.850900 0.294800
H177 H 0.138500 0.823900 0.279700
C178 C 0.059500 1.004300 0.237600
H179 H 0.096200 1.066800 0.228000
C180 C -0.028600 1.011300 0.206000
H181 H -0.066200 0.949400 0.215200
H182 H -0.055900 1.078300 0.173500
C183 C 0.316100 0.421800 0.347900
H184 H 0.251500 0.435300 0.326600
C185 C 0.351400 0.283900 0.344500
H186 H 0.312000 0.205200 0.321400
C187 C 0.443300 0.264300 0.374700
H188 H 0.469300 0.171300 0.372800
C189 C 0.498000 0.377400 0.407600
H190 H 0.562500 0.363600 0.429500
C191 C 0.459200 0.516400 0.409400
H192 H 0.498000 0.596100 0.432100
N193 N 0.282600 1.035000 0.427900
N194 N 0.168700 0.980700 0.343000
N195 N 0.368600 0.537000 0.379700
I196 I 0.248960 0.616040 0.447460
I197 I 0.365210 0.858710 0.314680
Pt198 Pt 0.309050 0.739820 0.382620
C199 C 0.250500 0.567400 0.884700
C200 C 0.220400 0.353100 0.913200
H201 H 0.226800 0.267000 0.936400
C202 C 0.148600 0.384800 0.860600
H203 H 0.094500 0.326800 0.839500
C204 C 0.369700 0.475900 0.982800
H205 H 0.394300 0.577300 0.986900
H206 H 0.359900 0.453800 1.016400
H207 H 0.413300 0.403900 0.982000
C208 C 0.104700 0.598400 0.788600
H209 H 0.057400 0.649100 0.794800
H210 H 0.138500 0.676100 0.779700
C211 C 0.059500 0.495700 0.737600
H212 H 0.096200 0.433200 0.728000
C213 C -0.028600 0.488700 0.706000
H214 H -0.066200 0.550600 0.715200
H215 H -0.055900 0.421700 0.673500
C216 C 0.316100 1.078200 0.847900
H217 H 0.251500 1.064700 0.826600
C218 C 0.351400 1.216100 0.844500
H219 H 0.312000 1.294800 0.821400
C220 C 0.443300 1.235700 0.874700
H221 H 0.469300 1.328700 0.872800
C222 C 0.498000 1.122600 0.907600
H223 H 0.562500 1.136400 0.929500
C224 C 0.459200 0.983600 0.909400
H225 H 0.498000 0.903900 0.932100
N226 N 0.282600 0.465000 0.927900
N227 N 0.168700 0.519300 0.843000
N228 N 0.368600 0.963000 0.879700
I229 I 0.248960 0.883960 0.947460
I230 I 0.365210 0.641290 0.814680
Pt231 Pt 0.309050 0.760180 0.882620
C232 C 0.749500 0.067400 0.615300
C233 C 0.779600 -0.146900 0.586800
H234 H 0.773200 -0.233000 0.563600
C235 C 0.851400 -0.115200 0.639400
H236 H 0.905500 -0.173200 0.660500
C237 C 0.630300 -0.024100 0.517200
H238 H 0.605700 0.077300 0.513100
H239 H 0.640100 -0.046200 0.483600
H240 H 0.586700 -0.096100 0.518000
C241 C 0.895300 0.098400 0.711400
H242 H 0.942600 0.149100 0.705200
H243 H 0.861500 0.176100 0.720300
C244 C 0.940500 -0.004300 0.762400
H245 H 0.903800 -0.066800 0.772000
C246 C 1.028600 -0.011300 0.794000
H247 H 1.066200 0.050600 0.784800
H248 H 1.055900 -0.078300 0.826500
C249 C 0.683900 0.578200 0.652100
H250 H 0.748500 0.564700 0.673400
C251 C 0.648600 0.716100 0.655500
H252 H 0.688000 0.794800 0.678600
C253 C 0.556700 0.735700 0.625300
H254 H 0.530700 0.828700 0.627200
C255 C 0.502000 0.622600 0.592400
H256 H 0.437500 0.636400 0.570500
C257 C 0.540800 0.483600 0.590600
H258 H 0.502000 0.403900 0.567900
N259 N 0.717400 -0.035000 0.572100
N260 N 0.831300 0.019300 0.657000
N261 N 0.631400 0.463000 0.620300
I262 I 0.751040 0.383960 0.552540
I263 I 0.634790 0.141290 0.685320
Pt264 Pt 0.690950 0.260180 0.617380

#END
