./ABALOG_from_xyz.cif_generated_by_CrystalShift
_symmetry_cell_setting triclinic
_symmetry_space_group_name_H-M 'P 1'
loop_
_symmetry_equiv_pos_site_id
_symmetry_equiv_pos_as_xyz
1 x,y,z
_cell_length_a 24.205200
_cell_length_b 9.759400
_cell_length_c 7.276400
_cell_angle_alpha 90.000000
_cell_angle_beta 90.000000
_cell_angle_gamma 90.000000
_cell_volume 1718.891085
loop_
_atom_site_label
_atom_site_type_symbol
_atom_site_fract_x
_atom_site_fract_y
_atom_site_fract_z
N1 N 0.399710 0.130820 -0.048580
C2 C 0.450900 0.189230 0.035050
H3 H 0.483800 0.148200 -0.023900
H4 H 0.452000 0.167000 0.167800
C5 C 0.451820 0.343730 0.009410
H6 H 0.454300 0.365500 -0.123200
H7 H 0.484800 0.382300 0.071000
C8 C 0.399790 0.408730 0.089690
H9 H 0.399900 0.508400 0.064700
H10 H 0.399300 0.395500 0.224600
C11 C 0.348070 0.343930 0.005000
H12 H 0.314800 0.383700 0.063800
H13 H 0.346700 0.366400 -0.127600
C14 C 0.347100 0.188600 0.028420
H15 H 0.345200 0.166700 0.162500
C16 C 0.299210 0.117250 -0.069190
H17 H 0.301100 0.138200 -0.202200
H18 H 0.303300 0.016900 -0.054500
C19 C 0.242700 0.160250 0.003540
H20 H 0.213800 0.110600 -0.063100
H21 H 0.237800 0.259000 -0.014500
H22 H 0.240300 0.138800 0.134900
H23 H 0.400200 0.041000 -0.031100
H24 H 0.400700 0.147600 -0.170000
N25 N 0.100290 0.369180 0.451420
C26 C 0.049100 0.310770 0.535050
H27 H 0.016200 0.351800 0.476100
H28 H 0.048000 0.333000 0.667800
C29 C 0.048180 0.156270 0.509410
H30 H 0.045700 0.134500 0.376800
H31 H 0.015200 0.117700 0.571000
C32 C 0.100210 0.091270 0.589690
H33 H 0.100100 -0.008400 0.564700
H34 H 0.100700 0.104500 0.724600
C35 C 0.151930 0.156070 0.505000
H36 H 0.185200 0.116300 0.563800
H37 H 0.153300 0.133600 0.372400
C38 C 0.152900 0.311400 0.528420
H39 H 0.154800 0.333300 0.662500
C40 C 0.200790 0.382750 0.430810
H41 H 0.198900 0.361800 0.297800
H42 H 0.196700 0.483100 0.445500
C43 C 0.257300 0.339750 0.503540
H44 H 0.286200 0.389400 0.436900
H45 H 0.262200 0.241000 0.485500
H46 H 0.259700 0.361200 0.634900
H47 H 0.099800 0.459000 0.468900
H48 H 0.099300 0.352400 0.330000
N49 N 0.600290 0.130820 0.548580
C50 C 0.549100 0.189230 0.464950
H51 H 0.516200 0.148200 0.523900
H52 H 0.548000 0.167000 0.332200
C53 C 0.548180 0.343730 0.490590
H54 H 0.545700 0.365500 0.623200
H55 H 0.515200 0.382300 0.429000
C56 C 0.600210 0.408730 0.410310
H57 H 0.600100 0.508400 0.435300
H58 H 0.600700 0.395500 0.275400
C59 C 0.651930 0.343930 0.495000
H60 H 0.685200 0.383700 0.436200
H61 H 0.653300 0.366400 0.627600
C62 C 0.652900 0.188600 0.471580
H63 H 0.654800 0.166700 0.337500
C64 C 0.700790 0.117250 0.569190
H65 H 0.698900 0.138200 0.702200
H66 H 0.696700 0.016900 0.554500
C67 C 0.757300 0.160250 0.496460
H68 H 0.786200 0.110600 0.563100
H69 H 0.762200 0.259000 0.514500
H70 H 0.759700 0.138800 0.365100
H71 H 0.599800 0.041000 0.531100
H72 H 0.599300 0.147600 0.670000
N73 N 0.899710 0.369180 1.048580
C74 C 0.950900 0.310770 0.964950
H75 H 0.983800 0.351800 1.023900
H76 H 0.952000 0.333000 0.832200
C77 C 0.951820 0.156270 0.990590
H78 H 0.954300 0.134500 1.123200
H79 H 0.984800 0.117700 0.929000
C80 C 0.899790 0.091270 0.910310
H81 H 0.899900 -0.008400 0.935300
H82 H 0.899300 0.104500 0.775400
C83 C 0.848070 0.156070 0.995000
H84 H 0.814800 0.116300 0.936200
H85 H 0.846700 0.133600 1.127600
C86 C 0.847100 0.311400 0.971580
H87 H 0.845200 0.333300 0.837500
C88 C 0.799210 0.382750 1.069190
H89 H 0.801100 0.361800 1.202200
H90 H 0.803300 0.483100 1.054500
C91 C 0.742700 0.339750 0.996460
H92 H 0.713800 0.389400 1.063100
H93 H 0.737800 0.241000 1.014500
H94 H 0.740300 0.361200 0.865100
H95 H 0.900200 0.459000 1.031100
H96 H 0.900700 0.352400 1.170000
N97 N 0.600290 0.869180 1.048580
C98 C 0.549100 0.810770 0.964950
H99 H 0.516200 0.851800 1.023900
H100 H 0.548000 0.833000 0.832200
C101 C 0.548180 0.656270 0.990590
H102 H 0.545700 0.634500 1.123200
H103 H 0.515200 0.617700 0.929000
C104 C 0.600210 0.591270 0.910310
H105 H 0.600100 0.491600 0.935300
H106 H 0.600700 0.604500 0.775400
C107 C 0.651930 0.656070 0.995000
H108 H 0.685200 0.616300 0.936200
H109 H 0.653300 0.633600 1.127600
C110 C 0.652900 0.811400 0.971580
H111 H 0.654800 0.833300 0.837500
C112 C 0.700790 0.882750 1.069190
H113 H 0.698900 0.861800 1.202200
H114 H 0.696700 0.983100 1.054500
C115 C 0.757300 0.839750 0.996460
H116 H 0.786200 0.889400 1.063100
H117 H 0.762200 0.741000 1.014500
H118 H 0.759700 0.861200 0.865100
H119 H 0.599800 0.959000 1.031100
H120 H 0.599300 0.852400 1.170000
N121 N 0.899710 0.630820 0.548580
C122 C 0.950900 0.689230 0.464950
H123 H 0.983800 0.648200 0.523900
H124 H 0.952000 0.667000 0.332200
C125 C 0.951820 0.843730 0.490590
H126 H 0.954300 0.865500 0.623200
H127 H 0.984800 0.882300 0.429000
C128 C 0.899790 0.908730 0.410310
H129 H 0.899900 1.008400 0.435300
H130 H 0.899300 0.895500 0.275400
C131 C 0.848070 0.843930 0.495000
H132 H 0.814800 0.883700 0.436200
H133 H 0.846700 0.866400 0.627600
C134 C 0.847100 0.688600 0.471580
H135 H 0.845200 0.666700 0.337500
C136 C 0.799210 0.617250 0.569190
H137 H 0.801100 0.638200 0.702200
H138 H 0.803300 0.516900 0.554500
C139 C 0.742700 0.660250 0.496460
H140 H 0.713800 0.610600 0.563100
H141 H 0.737800 0.759000 0.514500
H142 H 0.740300 0.638800 0.365100
H143 H 0.900200 0.541000 0.531100
H144 H 0.900700 0.647600 0.670000
N145 N 0.399710 0.869180 0.451420
C146 C 0.450900 0.810770 0.535050
H147 H 0.483800 0.851800 0.476100
H148 H 0.452000 0.833000 0.667800
C149 C 0.451820 0.656270 0.509410
H150 H 0.454300 0.634500 0.376800
H151 H 0.484800 0.617700 0.571000
C152 C 0.399790 0.591270 0.589690
H153 H 0.399900 0.491600 0.564700
H154 H 0.399300 0.604500 0.724600
C155 C 0.348070 0.656070 0.505000
H156 H 0.314800 0.616300 0.563800
H157 H 0.346700 0.633600 0.372400
C158 C 0.347100 0.811400 0.528420
H159 H 0.345200 0.833300 0.662500
C160 C 0.299210 0.882750 0.430810
H161 H 0.301100 0.861800 0.297800
H162 H 0.303300 0.983100 0.445500
C163 C 0.242700 0.839750 0.503540
H164 H 0.213800 0.889400 0.436900
H165 H 0.237800 0.741000 0.485500
H166 H 0.240300 0.861200 0.634900
H167 H 0.400200 0.959000 0.468900
H168 H 0.400700 0.852400 0.330000
N169 N 0.100290 0.630820 -0.048580
C170 C 0.049100 0.689230 0.035050
H171 H 0.016200 0.648200 -0.023900
H172 H 0.048000 0.667000 0.167800
C173 C 0.048180 0.843730 0.009410
H174 H 0.045700 0.865500 -0.123200
H175 H 0.015200 0.882300 0.071000
C176 C 0.100210 0.908730 0.089690
H177 H 0.100100 1.008400 0.064700
H178 H 0.100700 0.895500 0.224600
C179 C 0.151930 0.843930 0.005000
H180 H 0.185200 0.883700 0.063800
H181 H 0.153300 0.866400 -0.127600
C182 C 0.152900 0.688600 0.028420
H183 H 0.154800 0.666700 0.162500
C184 C 0.200790 0.617250 -0.069190
H185 H 0.198900 0.638200 -0.202200
H186 H 0.196700 0.516900 -0.054500
C187 C 0.257300 0.660250 0.003540
H188 H 0.286200 0.610600 -0.063100
H189 H 0.262200 0.759000 -0.014500
H190 H 0.259700 0.638800 0.134900
H191 H 0.099800 0.541000 -0.031100
H192 H 0.099300 0.647600 -0.170000
Cl193 Cl 0.401145 0.182057 0.528920
Cl194 Cl 0.098855 0.317943 0.028920
Cl195 Cl 0.598855 0.182057 0.971080
Cl196 Cl 0.901145 0.317943 0.471080
Cl197 Cl 0.598855 0.817943 0.471080
Cl198 Cl 0.901145 0.682057 0.971080
Cl199 Cl 0.401145 0.817943 0.028920
Cl200 Cl 0.098855 0.682057 0.528920

#END
