./ABALIA_from_xyz.cif_generated_by_CrystalShift
_symmetry_cell_setting triclinic
_symmetry_space_group_name_H-M 'P 1'
loop_
_symmetry_equiv_pos_site_id
_symmetry_equiv_pos_as_xyz
1 x,y,z
_cell_length_a 10.748400
_cell_length_b 9.466900
_cell_length_c 15.719800
_cell_angle_alpha 90.000000
_cell_angle_beta 122.166000
_cell_angle_gamma 90.000000
_cell_volume 1354.036373
loop_
_atom_site_label
_atom_site_type_symbol
_atom_site_fract_x
_atom_site_fract_y
_atom_site_fract_z
O1 O 0.439250 1.180180 0.583850
O2 O 0.494710 1.474450 0.246750
H3 H 0.479200 1.431600 0.195200
O4 O 0.266850 0.669390 0.807510
H5 H 0.355600 0.677400 0.826000
O6 O 0.016750 0.546120 0.722040
N7 N 0.284280 1.034310 0.458010
H8 H 0.238000 1.010400 0.394200
N9 N 0.262210 0.961190 0.525150
C10 C 0.407550 1.220760 0.424220
C11 C 0.509520 1.331100 0.464690
H12 H 0.560300 1.349400 0.534800
C13 C 0.537740 1.414010 0.404530
H14 H 0.607100 1.488800 0.433400
C15 C 0.464670 1.388130 0.301660
C16 C 0.366540 1.275320 0.260610
H17 H 0.319300 1.254700 0.191000
C18 C 0.337800 1.193200 0.321250
H19 H 0.269900 1.117300 0.292500
C20 C 0.379560 1.143850 0.494180
C21 C 0.155800 0.872610 0.485120
H22 H 0.098200 0.863100 0.414100
C23 C 0.121460 0.785850 0.546920
C24 C 0.218990 0.771120 0.651140
H25 H 0.311500 0.817600 0.683800
C26 C 0.180340 0.689060 0.706140
C27 C 0.041940 0.622560 0.658890
C28 C -0.054140 0.636640 0.555810
H29 H -0.147500 0.591800 0.523200
C30 C -0.013090 0.716670 0.500420
H31 H -0.078100 0.724100 0.429700
C32 C -0.122590 0.477080 0.678020
H33 H -0.129400 0.428900 0.730600
H34 H -0.132500 0.407700 0.628500
H35 H -0.201400 0.547300 0.644800
O36 O 0.560750 0.680180 0.916150
O37 O 0.505290 0.974450 1.253250
H38 H 0.520800 0.931600 1.304800
O39 O 0.733150 0.169390 0.692490
H40 H 0.644400 0.177400 0.674000
O41 O 0.983250 0.046120 0.777960
N42 N 0.715720 0.534310 1.041990
H43 H 0.762000 0.510400 1.105800
N44 N 0.737790 0.461190 0.974850
C45 C 0.592450 0.720760 1.075780
C46 C 0.490480 0.831100 1.035310
H47 H 0.439700 0.849400 0.965200
C48 C 0.462260 0.914010 1.095470
H49 H 0.392900 0.988800 1.066600
C50 C 0.535330 0.888130 1.198340
C51 C 0.633460 0.775320 1.239390
H52 H 0.680700 0.754700 1.309000
C53 C 0.662200 0.693200 1.178750
H54 H 0.730100 0.617300 1.207500
C55 C 0.620440 0.643850 1.005820
C56 C 0.844200 0.372610 1.014880
H57 H 0.901800 0.363100 1.085900
C58 C 0.878540 0.285850 0.953080
C59 C 0.781010 0.271120 0.848860
H60 H 0.688500 0.317600 0.816200
C61 C 0.819660 0.189060 0.793860
C62 C 0.958060 0.122560 0.841110
C63 C 1.054140 0.136640 0.944190
H64 H 1.147500 0.091800 0.976800
C65 C 1.013090 0.216670 0.999580
H66 H 1.078100 0.224100 1.070300
C67 C 1.122590 -0.022920 0.821980
H68 H 1.129400 -0.071100 0.769400
H69 H 1.132500 -0.092300 0.871500
H70 H 1.201400 0.047300 0.855200
O71 O 0.560750 -0.180180 0.416150
O72 O 0.505290 -0.474450 0.753250
H73 H 0.520800 -0.431600 0.804800
O74 O 0.733150 0.330610 0.192490
H75 H 0.644400 0.322600 0.174000
O76 O 0.983250 0.453880 0.277960
N77 N 0.715720 -0.034310 0.541990
H78 H 0.762000 -0.010400 0.605800
N79 N 0.737790 0.038810 0.474850
C80 C 0.592450 -0.220760 0.575780
C81 C 0.490480 -0.331100 0.535310
H82 H 0.439700 -0.349400 0.465200
C83 C 0.462260 -0.414010 0.595470
H84 H 0.392900 -0.488800 0.566600
C85 C 0.535330 -0.388130 0.698340
C86 C 0.633460 -0.275320 0.739390
H87 H 0.680700 -0.254700 0.809000
C88 C 0.662200 -0.193200 0.678750
H89 H 0.730100 -0.117300 0.707500
C90 C 0.620440 -0.143850 0.505820
C91 C 0.844200 0.127390 0.514880
H92 H 0.901800 0.136900 0.585900
C93 C 0.878540 0.214150 0.453080
C94 C 0.781010 0.228880 0.348860
H95 H 0.688500 0.182400 0.316200
C96 C 0.819660 0.310940 0.293860
C97 C 0.958060 0.377440 0.341110
C98 C 1.054140 0.363360 0.444190
H99 H 1.147500 0.408200 0.476800
C100 C 1.013090 0.283330 0.499580
H101 H 1.078100 0.275900 0.570300
C102 C 1.122590 0.522920 0.321980
H103 H 1.129400 0.571100 0.269400
H104 H 1.132500 0.592300 0.371500
H105 H 1.201400 0.452700 0.355200
O106 O 0.439250 0.319820 0.083850
O107 O 0.494710 0.025550 -0.253250
H108 H 0.479200 0.068400 -0.304800
O109 O 0.266850 0.830610 0.307510
H110 H 0.355600 0.822600 0.326000
O111 O 0.016750 0.953880 0.222040
N112 N 0.284280 0.465690 -0.041990
H113 H 0.238000 0.489600 -0.105800
N114 N 0.262210 0.538810 0.025150
C115 C 0.407550 0.279240 -0.075780
C116 C 0.509520 0.168900 -0.035310
H117 H 0.560300 0.150600 0.034800
C118 C 0.537740 0.085990 -0.095470
H119 H 0.607100 0.011200 -0.066600
C120 C 0.464670 0.111870 -0.198340
C121 C 0.366540 0.224680 -0.239390
H122 H 0.319300 0.245300 -0.309000
C123 C 0.337800 0.306800 -0.178750
H124 H 0.269900 0.382700 -0.207500
C125 C 0.379560 0.356150 -0.005820
C126 C 0.155800 0.627390 -0.014880
H127 H 0.098200 0.636900 -0.085900
C128 C 0.121460 0.714150 0.046920
C129 C 0.218990 0.728880 0.151140
H130 H 0.311500 0.682400 0.183800
C131 C 0.180340 0.810940 0.206140
C132 C 0.041940 0.877440 0.158890
C133 C -0.054140 0.863360 0.055810
H134 H -0.147500 0.908200 0.023200
C135 C -0.013090 0.783330 0.000420
H136 H -0.078100 0.775900 -0.070300
C137 C -0.122590 1.022920 0.178020
H138 H -0.129400 1.071100 0.230600
H139 H -0.132500 1.092300 0.128500
H140 H -0.201400 0.952700 0.144800

#END
