
#######################################################################
#
#                 Cambridge Crystallographic Data Centre
#                                CCDC 
#
#######################################################################
#
# If this CIF has been generated from an entry in the Cambridge 
# Structural Database, then it will include bibliographic, chemical, 
# crystal, experimental, refinement or atomic coordinate data resulting 
# from the CCDC's data processing and validation procedures.
#
#######################################################################

data_ABANUO
_symmetry_cell_setting           orthorhombic
_symmetry_space_group_name_H-M   'P 21 21 21'
_symmetry_Int_Tables_number      19
_space_group_name_Hall           'P 2ac 2ab'
loop_
_symmetry_equiv_pos_site_id
_symmetry_equiv_pos_as_xyz
1 x,y,z
2 1/2-x,-y,1/2+z
3 -x,1/2+y,1/2-z
4 1/2+x,1/2-y,-z
_cell_length_a                   5.5354(4)
_cell_length_b                   8.0039(4)
_cell_length_c                   35.8207(17)
_cell_angle_alpha                90
_cell_angle_beta                 90
_cell_angle_gamma                90
_cell_volume                     1587.03
loop_
_atom_site_label
_atom_site_type_symbol
_atom_site_fract_x
_atom_site_fract_y
_atom_site_fract_z
Cl1 Cl 0.19210(10) 0.59051(5) 0.005768(11)
N1 N 0.1122(3) 0.01504(19) 0.06517(4)
H1 H -0.002(5) 0.000(3) 0.0477(7)
C1 C 0.1862(4) -0.12356(19) 0.08883(4)
H2 H 0.1373 -0.2302 0.0771
H3 H 0.1034 -0.1151 0.1133
C2 C 0.4575(4) -0.12319(19) 0.09483(5)
H4 H 0.5403 -0.1469 0.0709
H5 H 0.5017 -0.2120 0.1128
C3 C 0.5406(3) 0.04765(18) 0.10990(4)
H6 H 0.7213 0.0481 0.1100
C4 C 0.4573(3) 0.18288(17) 0.08315(4)
C5 C 0.2442(3) 0.15963(19) 0.06229(4)
C6 C 0.1654(3) 0.28714(19) 0.03814(4)
H7 H 0.0211 0.2739 0.0241
C7 C 0.3000(3) 0.43151(18) 0.03507(4)
C8 C 0.5160(3) 0.45488(18) 0.05393(4)
H8 H 0.6092 0.5534 0.0506
C9 C 0.5906(3) 0.32869(19) 0.07781(4)
H9 H 0.7381 0.3421 0.0910
C10 C 0.4564(3) 0.07013(17) 0.15017(4)
C11 C 0.5861(3) -0.00906(19) 0.17846(4)
H10 H 0.7295 -0.0682 0.1723
C12 C 0.5108(3) -0.00350(18) 0.21525(4)
H11 H 0.6035 -0.0590 0.2338
C13 C 0.3006(3) 0.08229(16) 0.22576(4)
C14 C 0.1743(3) 0.16460(19) 0.19743(4)
H12 H 0.0325 0.2257 0.2035
C15 C 0.2518(3) 0.15902(19) 0.16041(4)
H13 H 0.1628 0.2172 0.1418
C16 C 0.2160(3) 0.08270(16) 0.26536(4)
C17 C 0.3477(3) 0.00061(19) 0.29322(4)
H14 H 0.4934 -0.0551 0.2868
C18 C 0.2701(3) -0.0012(2) 0.33005(4)
H15 H 0.3632 -0.0577 0.3484
C19 C 0.0585(3) 0.07846(19) 0.34030(4)
H16 H 0.0048 0.0762 0.3655
C20 C -0.0739(3) 0.1618(2) 0.31320(5)
H17 H -0.2188 0.2178 0.3199
C21 C 0.0041(3) 0.16382(19) 0.27635(4)
H18 H -0.0888 0.2217 0.2582
Cl1 Cl 0.30790(10) 0.40949(5) 0.505768(11)
N1 N 0.3878(3) 0.98496(19) 0.56517(4)
H1 H 0.502(5) 1.000(3) 0.5477(7)
C1 C 0.3138(4) 1.12356(19) 0.58883(4)
H2 H 0.3627 1.2302 0.5771
H3 H 0.3966 1.1151 0.6133
C2 C 0.0425(4) 1.12319(19) 0.59483(5)
H4 H -0.0403 1.1469 0.5709
H5 H -0.0017 1.2120 0.6128
C3 C -0.0406(3) 0.95235(18) 0.60990(4)
H6 H -0.2213 0.9519 0.6100
C4 C 0.0427(3) 0.81712(17) 0.58315(4)
C5 C 0.2558(3) 0.84037(19) 0.56229(4)
C6 C 0.3346(3) 0.71286(19) 0.53814(4)
H7 H 0.4789 0.7261 0.5241
C7 C 0.2000(3) 0.56849(18) 0.53507(4)
C8 C -0.0160(3) 0.54512(18) 0.55393(4)
H8 H -0.1092 0.4466 0.5506
C9 C -0.0906(3) 0.67131(19) 0.57781(4)
H9 H -0.2381 0.6579 0.5910
C10 C 0.0436(3) 0.92987(17) 0.65017(4)
C11 C -0.0861(3) 1.00906(19) 0.67846(4)
H10 H -0.2295 1.0682 0.6723
C12 C -0.0108(3) 1.00350(18) 0.71525(4)
H11 H -0.1035 1.0590 0.7338
C13 C 0.1994(3) 0.91771(16) 0.72576(4)
C14 C 0.3257(3) 0.83540(19) 0.69743(4)
H12 H 0.4675 0.7743 0.7035
C15 C 0.2482(3) 0.84098(19) 0.66041(4)
H13 H 0.3372 0.7828 0.6418
C16 C 0.2840(3) 0.91730(16) 0.76536(4)
C17 C 0.1523(3) 0.99939(19) 0.79322(4)
H14 H 0.0066 1.0551 0.7868
C18 C 0.2299(3) 1.0012(2) 0.83005(4)
H15 H 0.1368 1.0577 0.8484
C19 C 0.4415(3) 0.92154(19) 0.84030(4)
H16 H 0.4952 0.9238 0.8655
C20 C 0.5739(3) 0.8382(2) 0.81320(5)
H17 H 0.7188 0.7822 0.8199
C21 C 0.4959(3) 0.83618(19) 0.77635(4)
H18 H 0.5888 0.7783 0.7582
Cl1 Cl 0.80790(10) 1.09051(5) 0.494232(11)
N1 N 0.8878(3) 0.51504(19) 0.43483(4)
H1 H 1.002(5) 0.500(3) 0.4523(7)
C1 C 0.8138(4) 0.37644(19) 0.41117(4)
H2 H 0.8627 0.2698 0.4229
H3 H 0.8966 0.3849 0.3867
C2 C 0.5425(4) 0.37681(19) 0.40517(5)
H4 H 0.4597 0.3531 0.4291
H5 H 0.4983 0.2880 0.3872
C3 C 0.4594(3) 0.54765(18) 0.39010(4)
H6 H 0.2787 0.5481 0.3900
C4 C 0.5427(3) 0.68288(17) 0.41685(4)
C5 C 0.7558(3) 0.65963(19) 0.43771(4)
C6 C 0.8346(3) 0.78714(19) 0.46186(4)
H7 H 0.9789 0.7739 0.4759
C7 C 0.7000(3) 0.93151(18) 0.46493(4)
C8 C 0.4840(3) 0.95488(18) 0.44607(4)
H8 H 0.3908 1.0534 0.4494
C9 C 0.4094(3) 0.82869(19) 0.42219(4)
H9 H 0.2619 0.8421 0.4090
C10 C 0.5436(3) 0.57013(17) 0.34983(4)
C11 C 0.4139(3) 0.49094(19) 0.32154(4)
H10 H 0.2705 0.4318 0.3277
C12 C 0.4892(3) 0.49650(18) 0.28475(4)
H11 H 0.3965 0.4410 0.2662
C13 C 0.6994(3) 0.58229(16) 0.27424(4)
C14 C 0.8257(3) 0.66460(19) 0.30257(4)
H12 H 0.9675 0.7257 0.2965
C15 C 0.7482(3) 0.65902(19) 0.33959(4)
H13 H 0.8372 0.7172 0.3582
C16 C 0.7840(3) 0.58270(16) 0.23464(4)
C17 C 0.6523(3) 0.50061(19) 0.20678(4)
H14 H 0.5066 0.4449 0.2132
C18 C 0.7299(3) 0.4988(2) 0.16995(4)
H15 H 0.6368 0.4423 0.1516
C19 C 0.9415(3) 0.57846(19) 0.15970(4)
H16 H 0.9952 0.5762 0.1345
C20 C 1.0739(3) 0.6618(2) 0.18680(5)
H17 H 1.2188 0.7178 0.1801
C21 C 0.9959(3) 0.66382(19) 0.22365(4)
H18 H 1.0888 0.7217 0.2418
Cl1 Cl 0.69210(10) -0.09051(5) 0.994232(11)
N1 N 0.6122(3) 0.48496(19) 0.93483(4)
H1 H 0.498(5) 0.500(3) 0.9523(7)
C1 C 0.6862(4) 0.62356(19) 0.91117(4)
H2 H 0.6373 0.7302 0.9229
H3 H 0.6034 0.6151 0.8867
C2 C 0.9575(4) 0.62319(19) 0.90517(5)
H4 H 1.0403 0.6469 0.9291
H5 H 1.0017 0.7120 0.8872
C3 C 1.0406(3) 0.45235(18) 0.89010(4)
H6 H 1.2213 0.4519 0.8900
C4 C 0.9573(3) 0.31712(17) 0.91685(4)
C5 C 0.7442(3) 0.34037(19) 0.93771(4)
C6 C 0.6654(3) 0.21286(19) 0.96186(4)
H7 H 0.5211 0.2261 0.9759
C7 C 0.8000(3) 0.06849(18) 0.96493(4)
C8 C 1.0160(3) 0.04512(18) 0.94607(4)
H8 H 1.1092 -0.0534 0.9494
C9 C 1.0906(3) 0.17131(19) 0.92219(4)
H9 H 1.2381 0.1579 0.9090
C10 C 0.9564(3) 0.42987(17) 0.84983(4)
C11 C 1.0861(3) 0.50906(19) 0.82154(4)
H10 H 1.2295 0.5682 0.8277
C12 C 1.0108(3) 0.50350(18) 0.78475(4)
H11 H 1.1035 0.5590 0.7662
C13 C 0.8006(3) 0.41771(16) 0.77424(4)
C14 C 0.6743(3) 0.33540(19) 0.80257(4)
H12 H 0.5325 0.2743 0.7965
C15 C 0.7518(3) 0.34098(19) 0.83959(4)
H13 H 0.6628 0.2828 0.8582
C16 C 0.7160(3) 0.41730(16) 0.73464(4)
C17 C 0.8477(3) 0.49939(19) 0.70678(4)
H14 H 0.9934 0.5551 0.7132
C18 C 0.7701(3) 0.5012(2) 0.66995(4)
H15 H 0.8632 0.5577 0.6516
C19 C 0.5585(3) 0.42154(19) 0.65970(4)
H16 H 0.5048 0.4238 0.6345
C20 C 0.4261(3) 0.3382(2) 0.68680(5)
H17 H 0.2812 0.2822 0.6801
C21 C 0.5041(3) 0.33618(19) 0.72365(4)
H18 H 0.4112 0.2783 0.7418

#END
