./ABAPCU_from_xyz.cif_generated_by_CrystalShift
_symmetry_cell_setting triclinic
_symmetry_space_group_name_H-M 'P 1'
loop_
_symmetry_equiv_pos_site_id
_symmetry_equiv_pos_as_xyz
1 x,y,z
_cell_length_a 11.046000
_cell_length_b 9.807000
_cell_length_c 8.503000
_cell_angle_alpha 106.800000
_cell_angle_beta 74.200000
_cell_angle_gamma 97.300000
_cell_volume 847.313815
loop_
_atom_site_label
_atom_site_type_symbol
_atom_site_fract_x
_atom_site_fract_y
_atom_site_fract_z
Br1 Br 0.395000 0.308000 -0.299000
Cu2 Cu 0.000000 0.000000 0.000000
C3 C 0.416000 0.271000 0.003000
C4 C 0.466000 0.170000 -0.122000
C5 C 0.445000 0.040000 -0.235000
C6 C 0.096000 0.010000 -0.349000
C7 C 0.152000 -0.011000 -0.527000
C8 C 0.231000 -0.115000 -0.575000
C9 C 0.256000 -0.203000 -0.476000
C10 C 0.179000 -0.165000 -0.286000
C11 C 0.048000 0.313000 0.017000
C12 C 0.212000 0.440000 0.104000
C13 C 0.288000 0.315000 0.123000
C14 C 0.187000 0.171000 0.092000
C15 C 0.306000 0.338000 0.331000
C16 C 0.161000 0.388000 0.464000
C17 C 0.080000 0.345000 0.506000
N18 N 0.093000 0.199000 0.034000
N19 N 0.107000 -0.052000 -0.233000
N20 N 0.119000 0.441000 0.042000
O21 O -0.042000 0.319000 -0.036000
O22 O 0.298000 0.557000 0.133000
O23 O 0.212000 0.068000 0.123000
N24 N -0.093000 -0.199000 -0.034000
N25 N -0.107000 0.052000 0.233000
C26 C -0.048000 -0.313000 -0.017000
C27 C -0.187000 -0.171000 -0.092000
C28 C -0.096000 -0.010000 0.349000
C29 C -0.179000 0.165000 0.286000
N30 N -0.119000 -0.441000 -0.042000
O31 O 0.042000 -0.319000 0.036000
C32 C -0.288000 -0.315000 -0.123000
O33 O -0.212000 -0.068000 -0.123000
C34 C -0.152000 0.011000 0.527000
C35 C -0.256000 0.203000 0.476000
C36 C -0.212000 -0.440000 -0.104000
C37 C -0.416000 -0.271000 -0.003000
C38 C -0.306000 -0.338000 -0.331000
C39 C -0.231000 0.115000 0.575000
O40 O -0.298000 -0.557000 -0.133000
C41 C -0.466000 -0.170000 0.122000
C42 C -0.161000 -0.388000 -0.464000
Br43 Br -0.395000 -0.308000 0.299000
C44 C -0.445000 -0.040000 0.235000
C45 C -0.080000 -0.345000 -0.506000
Br46 Br 0.395000 0.308000 0.701000
Cu47 Cu 0.000000 0.000000 1.000000
C48 C 0.416000 0.271000 1.003000
C49 C 0.466000 0.170000 0.878000
C50 C 0.445000 0.040000 0.765000
C51 C 0.096000 0.010000 0.651000
C52 C 0.152000 -0.011000 0.473000
C53 C 0.231000 -0.115000 0.425000
C54 C 0.256000 -0.203000 0.524000
C55 C 0.179000 -0.165000 0.714000
C56 C 0.048000 0.313000 1.017000
C57 C 0.212000 0.440000 1.104000
C58 C 0.288000 0.315000 1.123000
C59 C 0.187000 0.171000 1.092000
C60 C 0.306000 0.338000 1.331000
C61 C 0.161000 0.388000 1.464000
C62 C 0.080000 0.345000 1.506000
N63 N 0.093000 0.199000 1.034000
N64 N 0.107000 -0.052000 0.767000
N65 N 0.119000 0.441000 1.042000
O66 O -0.042000 0.319000 0.964000
O67 O 0.298000 0.557000 1.133000
O68 O 0.212000 0.068000 1.123000
N69 N -0.093000 -0.199000 0.966000
N70 N -0.107000 0.052000 1.233000
C71 C -0.048000 -0.313000 0.983000
C72 C -0.187000 -0.171000 0.908000
C73 C -0.096000 -0.010000 1.349000
C74 C -0.179000 0.165000 1.286000
N75 N -0.119000 -0.441000 0.958000
O76 O 0.042000 -0.319000 1.036000
C77 C -0.288000 -0.315000 0.877000
O78 O -0.212000 -0.068000 0.877000
C79 C -0.152000 0.011000 1.527000
C80 C -0.256000 0.203000 1.476000
C81 C -0.212000 -0.440000 0.896000
C82 C -0.416000 -0.271000 0.997000
C83 C -0.306000 -0.338000 0.669000
C84 C -0.231000 0.115000 1.575000
O85 O -0.298000 -0.557000 0.867000
C86 C -0.466000 -0.170000 1.122000
C87 C -0.161000 -0.388000 0.536000
Br88 Br -0.395000 -0.308000 1.299000
C89 C -0.445000 -0.040000 1.235000
C90 C -0.080000 -0.345000 0.494000
Br91 Br 0.395000 1.308000 -0.299000
Cu92 Cu 0.000000 1.000000 0.000000
C93 C 0.416000 1.271000 0.003000
C94 C 0.466000 1.170000 -0.122000
C95 C 0.445000 1.040000 -0.235000
C96 C 0.096000 1.010000 -0.349000
C97 C 0.152000 0.989000 -0.527000
C98 C 0.231000 0.885000 -0.575000
C99 C 0.256000 0.797000 -0.476000
C100 C 0.179000 0.835000 -0.286000
C101 C 0.048000 1.313000 0.017000
C102 C 0.212000 1.440000 0.104000
C103 C 0.288000 1.315000 0.123000
C104 C 0.187000 1.171000 0.092000
C105 C 0.306000 1.338000 0.331000
C106 C 0.161000 1.388000 0.464000
C107 C 0.080000 1.345000 0.506000
N108 N 0.093000 1.199000 0.034000
N109 N 0.107000 0.948000 -0.233000
N110 N 0.119000 1.441000 0.042000
O111 O -0.042000 1.319000 -0.036000
O112 O 0.298000 1.557000 0.133000
O113 O 0.212000 1.068000 0.123000
N114 N -0.093000 0.801000 -0.034000
N115 N -0.107000 1.052000 0.233000
C116 C -0.048000 0.687000 -0.017000
C117 C -0.187000 0.829000 -0.092000
C118 C -0.096000 0.990000 0.349000
C119 C -0.179000 1.165000 0.286000
N120 N -0.119000 0.559000 -0.042000
O121 O 0.042000 0.681000 0.036000
C122 C -0.288000 0.685000 -0.123000
O123 O -0.212000 0.932000 -0.123000
C124 C -0.152000 1.011000 0.527000
C125 C -0.256000 1.203000 0.476000
C126 C -0.212000 0.560000 -0.104000
C127 C -0.416000 0.729000 -0.003000
C128 C -0.306000 0.662000 -0.331000
C129 C -0.231000 1.115000 0.575000
O130 O -0.298000 0.443000 -0.133000
C131 C -0.466000 0.830000 0.122000
C132 C -0.161000 0.612000 -0.464000
Br133 Br -0.395000 0.692000 0.299000
C134 C -0.445000 0.960000 0.235000
C135 C -0.080000 0.655000 -0.506000
Br136 Br 0.395000 1.308000 0.701000
Cu137 Cu 0.000000 1.000000 1.000000
C138 C 0.416000 1.271000 1.003000
C139 C 0.466000 1.170000 0.878000
C140 C 0.445000 1.040000 0.765000
C141 C 0.096000 1.010000 0.651000
C142 C 0.152000 0.989000 0.473000
C143 C 0.231000 0.885000 0.425000
C144 C 0.256000 0.797000 0.524000
C145 C 0.179000 0.835000 0.714000
C146 C 0.048000 1.313000 1.017000
C147 C 0.212000 1.440000 1.104000
C148 C 0.288000 1.315000 1.123000
C149 C 0.187000 1.171000 1.092000
C150 C 0.306000 1.338000 1.331000
C151 C 0.161000 1.388000 1.464000
C152 C 0.080000 1.345000 1.506000
N153 N 0.093000 1.199000 1.034000
N154 N 0.107000 0.948000 0.767000
N155 N 0.119000 1.441000 1.042000
O156 O -0.042000 1.319000 0.964000
O157 O 0.298000 1.557000 1.133000
O158 O 0.212000 1.068000 1.123000
N159 N -0.093000 0.801000 0.966000
N160 N -0.107000 1.052000 1.233000
C161 C -0.048000 0.687000 0.983000
C162 C -0.187000 0.829000 0.908000
C163 C -0.096000 0.990000 1.349000
C164 C -0.179000 1.165000 1.286000
N165 N -0.119000 0.559000 0.958000
O166 O 0.042000 0.681000 1.036000
C167 C -0.288000 0.685000 0.877000
O168 O -0.212000 0.932000 0.877000
C169 C -0.152000 1.011000 1.527000
C170 C -0.256000 1.203000 1.476000
C171 C -0.212000 0.560000 0.896000
C172 C -0.416000 0.729000 0.997000
C173 C -0.306000 0.662000 0.669000
C174 C -0.231000 1.115000 1.575000
O175 O -0.298000 0.443000 0.867000
C176 C -0.466000 0.830000 1.122000
C177 C -0.161000 0.612000 0.536000
Br178 Br -0.395000 0.692000 1.299000
C179 C -0.445000 0.960000 1.235000
C180 C -0.080000 0.655000 0.494000
Br181 Br 1.395000 0.308000 -0.299000
Cu182 Cu 1.000000 0.000000 0.000000
C183 C 1.416000 0.271000 0.003000
C184 C 1.466000 0.170000 -0.122000
C185 C 1.445000 0.040000 -0.235000
C186 C 1.096000 0.010000 -0.349000
C187 C 1.152000 -0.011000 -0.527000
C188 C 1.231000 -0.115000 -0.575000
C189 C 1.256000 -0.203000 -0.476000
C190 C 1.179000 -0.165000 -0.286000
C191 C 1.048000 0.313000 0.017000
C192 C 1.212000 0.440000 0.104000
C193 C 1.288000 0.315000 0.123000
C194 C 1.187000 0.171000 0.092000
C195 C 1.306000 0.338000 0.331000
C196 C 1.161000 0.388000 0.464000
C197 C 1.080000 0.345000 0.506000
N198 N 1.093000 0.199000 0.034000
N199 N 1.107000 -0.052000 -0.233000
N200 N 1.119000 0.441000 0.042000
O201 O 0.958000 0.319000 -0.036000
O202 O 1.298000 0.557000 0.133000
O203 O 1.212000 0.068000 0.123000
N204 N 0.907000 -0.199000 -0.034000
N205 N 0.893000 0.052000 0.233000
C206 C 0.952000 -0.313000 -0.017000
C207 C 0.813000 -0.171000 -0.092000
C208 C 0.904000 -0.010000 0.349000
C209 C 0.821000 0.165000 0.286000
N210 N 0.881000 -0.441000 -0.042000
O211 O 1.042000 -0.319000 0.036000
C212 C 0.712000 -0.315000 -0.123000
O213 O 0.788000 -0.068000 -0.123000
C214 C 0.848000 0.011000 0.527000
C215 C 0.744000 0.203000 0.476000
C216 C 0.788000 -0.440000 -0.104000
C217 C 0.584000 -0.271000 -0.003000
C218 C 0.694000 -0.338000 -0.331000
C219 C 0.769000 0.115000 0.575000
O220 O 0.702000 -0.557000 -0.133000
C221 C 0.534000 -0.170000 0.122000
C222 C 0.839000 -0.388000 -0.464000
Br223 Br 0.605000 -0.308000 0.299000
C224 C 0.555000 -0.040000 0.235000
C225 C 0.920000 -0.345000 -0.506000
Br226 Br 1.395000 0.308000 0.701000
Cu227 Cu 1.000000 0.000000 1.000000
C228 C 1.416000 0.271000 1.003000
C229 C 1.466000 0.170000 0.878000
C230 C 1.445000 0.040000 0.765000
C231 C 1.096000 0.010000 0.651000
C232 C 1.152000 -0.011000 0.473000
C233 C 1.231000 -0.115000 0.425000
C234 C 1.256000 -0.203000 0.524000
C235 C 1.179000 -0.165000 0.714000
C236 C 1.048000 0.313000 1.017000
C237 C 1.212000 0.440000 1.104000
C238 C 1.288000 0.315000 1.123000
C239 C 1.187000 0.171000 1.092000
C240 C 1.306000 0.338000 1.331000
C241 C 1.161000 0.388000 1.464000
C242 C 1.080000 0.345000 1.506000
N243 N 1.093000 0.199000 1.034000
N244 N 1.107000 -0.052000 0.767000
N245 N 1.119000 0.441000 1.042000
O246 O 0.958000 0.319000 0.964000
O247 O 1.298000 0.557000 1.133000
O248 O 1.212000 0.068000 1.123000
N249 N 0.907000 -0.199000 0.966000
N250 N 0.893000 0.052000 1.233000
C251 C 0.952000 -0.313000 0.983000
C252 C 0.813000 -0.171000 0.908000
C253 C 0.904000 -0.010000 1.349000
C254 C 0.821000 0.165000 1.286000
N255 N 0.881000 -0.441000 0.958000
O256 O 1.042000 -0.319000 1.036000
C257 C 0.712000 -0.315000 0.877000
O258 O 0.788000 -0.068000 0.877000
C259 C 0.848000 0.011000 1.527000
C260 C 0.744000 0.203000 1.476000
C261 C 0.788000 -0.440000 0.896000
C262 C 0.584000 -0.271000 0.997000
C263 C 0.694000 -0.338000 0.669000
C264 C 0.769000 0.115000 1.575000
O265 O 0.702000 -0.557000 0.867000
C266 C 0.534000 -0.170000 1.122000
C267 C 0.839000 -0.388000 0.536000
Br268 Br 0.605000 -0.308000 1.299000
C269 C 0.555000 -0.040000 1.235000
C270 C 0.920000 -0.345000 0.494000
Br271 Br 1.395000 1.308000 -0.299000
Cu272 Cu 1.000000 1.000000 0.000000
C273 C 1.416000 1.271000 0.003000
C274 C 1.466000 1.170000 -0.122000
C275 C 1.445000 1.040000 -0.235000
C276 C 1.096000 1.010000 -0.349000
C277 C 1.152000 0.989000 -0.527000
C278 C 1.231000 0.885000 -0.575000
C279 C 1.256000 0.797000 -0.476000
C280 C 1.179000 0.835000 -0.286000
C281 C 1.048000 1.313000 0.017000
C282 C 1.212000 1.440000 0.104000
C283 C 1.288000 1.315000 0.123000
C284 C 1.187000 1.171000 0.092000
C285 C 1.306000 1.338000 0.331000
C286 C 1.161000 1.388000 0.464000
C287 C 1.080000 1.345000 0.506000
N288 N 1.093000 1.199000 0.034000
N289 N 1.107000 0.948000 -0.233000
N290 N 1.119000 1.441000 0.042000
O291 O 0.958000 1.319000 -0.036000
O292 O 1.298000 1.557000 0.133000
O293 O 1.212000 1.068000 0.123000
N294 N 0.907000 0.801000 -0.034000
N295 N 0.893000 1.052000 0.233000
C296 C 0.952000 0.687000 -0.017000
C297 C 0.813000 0.829000 -0.092000
C298 C 0.904000 0.990000 0.349000
C299 C 0.821000 1.165000 0.286000
N300 N 0.881000 0.559000 -0.042000
O301 O 1.042000 0.681000 0.036000
C302 C 0.712000 0.685000 -0.123000
O303 O 0.788000 0.932000 -0.123000
C304 C 0.848000 1.011000 0.527000
C305 C 0.744000 1.203000 0.476000
C306 C 0.788000 0.560000 -0.104000
C307 C 0.584000 0.729000 -0.003000
C308 C 0.694000 0.662000 -0.331000
C309 C 0.769000 1.115000 0.575000
O310 O 0.702000 0.443000 -0.133000
C311 C 0.534000 0.830000 0.122000
C312 C 0.839000 0.612000 -0.464000
Br313 Br 0.605000 0.692000 0.299000
C314 C 0.555000 0.960000 0.235000
C315 C 0.920000 0.655000 -0.506000
Br316 Br 1.395000 1.308000 0.701000
Cu317 Cu 1.000000 1.000000 1.000000
C318 C 1.416000 1.271000 1.003000
C319 C 1.466000 1.170000 0.878000
C320 C 1.445000 1.040000 0.765000
C321 C 1.096000 1.010000 0.651000
C322 C 1.152000 0.989000 0.473000
C323 C 1.231000 0.885000 0.425000
C324 C 1.256000 0.797000 0.524000
C325 C 1.179000 0.835000 0.714000
C326 C 1.048000 1.313000 1.017000
C327 C 1.212000 1.440000 1.104000
C328 C 1.288000 1.315000 1.123000
C329 C 1.187000 1.171000 1.092000
C330 C 1.306000 1.338000 1.331000
C331 C 1.161000 1.388000 1.464000
C332 C 1.080000 1.345000 1.506000
N333 N 1.093000 1.199000 1.034000
N334 N 1.107000 0.948000 0.767000
N335 N 1.119000 1.441000 1.042000
O336 O 0.958000 1.319000 0.964000
O337 O 1.298000 1.557000 1.133000
O338 O 1.212000 1.068000 1.123000
N339 N 0.907000 0.801000 0.966000
N340 N 0.893000 1.052000 1.233000
C341 C 0.952000 0.687000 0.983000
C342 C 0.813000 0.829000 0.908000
C343 C 0.904000 0.990000 1.349000
C344 C 0.821000 1.165000 1.286000
N345 N 0.881000 0.559000 0.958000
O346 O 1.042000 0.681000 1.036000
C347 C 0.712000 0.685000 0.877000
O348 O 0.788000 0.932000 0.877000
C349 C 0.848000 1.011000 1.527000
C350 C 0.744000 1.203000 1.476000
C351 C 0.788000 0.560000 0.896000
C352 C 0.584000 0.729000 0.997000
C353 C 0.694000 0.662000 0.669000
C354 C 0.769000 1.115000 1.575000
O355 O 0.702000 0.443000 0.867000
C356 C 0.534000 0.830000 1.122000
C357 C 0.839000 0.612000 0.536000
Br358 Br 0.605000 0.692000 1.299000
C359 C 0.555000 0.960000 1.235000
C360 C 0.920000 0.655000 0.494000

#END
