
#######################################################################
#
#                 Cambridge Crystallographic Data Centre
#                                CCDC 
#
#######################################################################
#
# If this CIF has been generated from an entry in the Cambridge 
# Structural Database, then it will include bibliographic, chemical, 
# crystal, experimental, refinement or atomic coordinate data resulting 
# from the CCDC's data processing and validation procedures.
#
#######################################################################

data_ABAVUX
_symmetry_cell_setting           triclinic
_symmetry_space_group_name_H-M   'P -1'
_symmetry_Int_Tables_number      2
_space_group_name_Hall           '-P 1'
loop_
_symmetry_equiv_pos_site_id
_symmetry_equiv_pos_as_xyz
1 x,y,z
2 -x,-y,-z
_cell_length_a                   13.1134(11)
_cell_length_b                   13.5996(10)
_cell_length_c                   14.3738(11)
_cell_angle_alpha                103.871(3)
_cell_angle_beta                 97.269(3)
_cell_angle_gamma                112.700(3)
_cell_volume                     2226.13
loop_
_atom_site_label
_atom_site_type_symbol
_atom_site_fract_x
_atom_site_fract_y
_atom_site_fract_z
O1 O 0.63770(12) 1.04674(11) 0.33255(10)
O2 O 0.47583(12) 0.75290(11) 0.02659(10)
N1 N -0.05336(14) 0.58448(14) 0.11711(13)
N2 N 0.61094(17) 0.95048(18) 0.74905(15)
N3 N 0.35878(17) 0.39692(15) 0.04989(15)
N4 N 0.68097(16) 0.67919(16) 0.20528(14)
C1 C 0.67042(17) 1.08366(18) -0.00835(16)
H1 H 0.6848 1.1007 -0.0671
C2 C 0.61103(17) 0.97246(17) -0.01275(15)
H2 H 0.5833 0.9132 -0.0736
C3 C 0.59393(16) 0.95136(16) 0.07408(15)
C4 C 0.52959(16) 0.84277(16) 0.09014(15)
C5 C 0.54235(16) 0.86798(15) 0.19926(14)
C6 C 0.49380(16) 0.79377(16) 0.24518(14)
C7 C 0.41243(17) 0.67365(15) 0.18773(14)
C8 C 0.29210(16) 0.64708(16) 0.16938(14)
C9 C 0.25730(17) 0.73340(16) 0.17134(14)
H3 H 0.3140 0.8081 0.1863
C10 C 0.14505(17) 0.71376(16) 0.15257(15)
H4 H 0.1253 0.7740 0.1522
C11 C 0.05823(17) 0.60463(16) 0.13367(15)
C12 C -0.14129(18) 0.47352(17) 0.10600(17)
H5 H -0.1420 0.4187 0.0472
H6 H -0.2158 0.4753 0.0987
H7 H -0.1251 0.4520 0.1646
C13 C 0.58944(19) 0.91777(19) 0.66453(18)
C14 C 0.56333(18) 0.87936(17) 0.55818(15)
C15 C 0.45124(18) 0.83447(18) 0.50388(16)
H8 H 0.3910 0.8250 0.5364
C16 C 0.42848(18) 0.80372(17) 0.40162(15)
H9 H 0.3519 0.7704 0.3637
C17 C 0.51664(17) 0.82127(15) 0.35442(15)
C18 C 0.62835(17) 0.86321(17) 0.40955(15)
H10 H 0.6887 0.8729 0.3772
C19 C 0.65105(18) 0.89060(17) 0.51091(15)
H11 H 0.7268 0.9172 0.5484
C20 C -0.08922(18) 0.66955(17) 0.10319(18)
H12 H -0.0579 0.7335 0.1641
H13 H -0.1726 0.6378 0.0871
H14 H -0.0613 0.6947 0.0490
C21 C 0.09252(17) 0.51820(16) 0.13407(15)
H15 H 0.0362 0.4441 0.1225
C22 C 0.20529(17) 0.53874(16) 0.15074(14)
H16 H 0.2252 0.4784 0.1497
C23 C 0.46222(17) 0.60334(16) 0.16138(15)
C24 C 0.40244(18) 0.48816(17) 0.10037(16)
C25 C 0.58351(18) 0.64514(17) 0.18542(15)
C26 C 0.61042(16) 0.99250(15) 0.24555(15)
C27 C 0.63611(16) 1.03809(16) 0.16387(15)
C28 C 0.70923(18) 1.17063(18) 0.08086(17)
H17 H 0.7473 1.2461 0.0814
C29 C 0.69357(17) 1.14940(16) 0.16814(16)
H18 H 0.7210 1.2087 0.2290
O1 O 0.36230(12) -0.04674(11) 0.66745(10)
O2 O 0.52417(12) 0.24710(11) 0.97341(10)
N1 N 1.05336(14) 0.41552(14) 0.88289(13)
N2 N 0.38906(17) 0.04952(18) 0.25095(15)
N3 N 0.64122(17) 0.60308(15) 0.95011(15)
N4 N 0.31903(16) 0.32081(16) 0.79472(14)
C1 C 0.32958(17) -0.08366(18) 1.00835(16)
H1 H 0.3152 -0.1007 1.0671
C2 C 0.38897(17) 0.02754(17) 1.01275(15)
H2 H 0.4167 0.0868 1.0736
C3 C 0.40607(16) 0.04864(16) 0.92592(15)
C4 C 0.47041(16) 0.15723(16) 0.90986(15)
C5 C 0.45765(16) 0.13202(15) 0.80074(14)
C6 C 0.50620(16) 0.20623(16) 0.75482(14)
C7 C 0.58757(17) 0.32635(15) 0.81227(14)
C8 C 0.70790(16) 0.35292(16) 0.83062(14)
C9 C 0.74270(17) 0.26660(16) 0.82866(14)
H3 H 0.6860 0.1919 0.8137
C10 C 0.85495(17) 0.28624(16) 0.84743(15)
H4 H 0.8747 0.2260 0.8478
C11 C 0.94177(17) 0.39537(16) 0.86633(15)
C12 C 1.14129(18) 0.52648(17) 0.89400(17)
H5 H 1.1420 0.5813 0.9528
H6 H 1.2158 0.5247 0.9013
H7 H 1.1251 0.5480 0.8354
C13 C 0.41056(19) 0.08223(19) 0.33547(18)
C14 C 0.43667(18) 0.12064(17) 0.44182(15)
C15 C 0.54876(18) 0.16553(18) 0.49612(16)
H8 H 0.6090 0.1750 0.4636
C16 C 0.57152(18) 0.19628(17) 0.59838(15)
H9 H 0.6481 0.2296 0.6363
C17 C 0.48336(17) 0.17873(15) 0.64558(15)
C18 C 0.37165(17) 0.13679(17) 0.59045(15)
H10 H 0.3113 0.1271 0.6228
C19 C 0.34895(18) 0.10940(17) 0.48909(15)
H11 H 0.2732 0.0828 0.4516
C20 C 1.08922(18) 0.33045(17) 0.89681(18)
H12 H 1.0579 0.2665 0.8359
H13 H 1.1726 0.3622 0.9129
H14 H 1.0613 0.3053 0.9510
C21 C 0.90748(17) 0.48180(16) 0.86593(15)
H15 H 0.9638 0.5559 0.8775
C22 C 0.79471(17) 0.46126(16) 0.84926(14)
H16 H 0.7748 0.5216 0.8503
C23 C 0.53778(17) 0.39666(16) 0.83862(15)
C24 C 0.59756(18) 0.51184(17) 0.89963(16)
C25 C 0.41649(18) 0.35486(17) 0.81458(15)
C26 C 0.38958(16) 0.00750(15) 0.75445(15)
C27 C 0.36389(16) -0.03809(16) 0.83613(15)
C28 C 0.29077(18) -0.17063(18) 0.91914(17)
H17 H 0.2527 -0.2461 0.9186
C29 C 0.30643(17) -0.14940(16) 0.83186(16)
H18 H 0.2790 -0.2087 0.7710
O3 O 0.03144(13) 0.27617(11) 0.14450(10)
O4 O -0.14617(12) -0.01029(11) 0.28302(10)
N5 N -0.14796(17) 0.38499(15) 0.37296(14)
N6 N 0.16616(17) 0.64638(15) 0.39070(15)
C30 C 0.5771(2) 0.3539(3) 0.2648(2)
H19 H 0.5763 0.3004 0.3001
H20 H 0.6516 0.3866 0.2500
H21 H 0.5174 0.3150 0.2031
N7 N 0.55628(16) 0.44267(18) 0.32620(16)
C31 C 0.45010(18) 0.42390(19) 0.33733(16)
C32 C 0.35974(18) 0.31441(19) 0.30190(16)
H22 H 0.3740 0.2528 0.2703
C33 C 0.25196(18) 0.29567(17) 0.31234(15)
H23 H 0.1942 0.2206 0.2898
C34 C 0.22345(17) 0.38214(16) 0.35472(14)
C35 C 0.10667(17) 0.35906(16) 0.35653(14)
C36 C 0.02399(16) 0.23953(15) 0.34224(15)
C37 C 0.00797(16) 0.20801(15) 0.43343(14)
C38 C -0.09704(17) 0.18071(16) 0.45568(15)
H24 H -0.1556 0.1877 0.4156
C39 C -0.11749(18) 0.14341(17) 0.53550(15)
H25 H -0.1892 0.1265 0.5514
C40 C -0.03243(17) 0.13062(16) 0.59273(15)
C41 C -0.05917(18) 0.08093(17) 0.66928(16)
N8 N -0.08585(16) 0.03783(16) 0.72756(15)
C42 C 0.6545(2) 0.5485(2) 0.3804(2)
H26 H 0.6650 0.6008 0.3420
H27 H 0.7227 0.5353 0.3914
H28 H 0.6420 0.5807 0.4441
C43 C 0.42327(19) 0.51092(18) 0.38541(16)
H29 H 0.4822 0.5851 0.4135
C44 C 0.31479(18) 0.49098(17) 0.39250(16)
H30 H 0.3000 0.5523 0.4239
C45 C 0.07448(18) 0.16151(18) 0.57309(16)
H31 H 0.1334 0.1553 0.6136
C46 C 0.09471(18) 0.20129(17) 0.49428(16)
H32 H 0.1683 0.2242 0.4815
C47 C -0.03241(16) 0.16439(15) 0.25207(14)
C48 C -0.02117(17) 0.18608(15) 0.15576(15)
C49 C -0.08359(16) 0.07653(15) 0.07720(14)
C50 C -0.13037(16) -0.00786(15) 0.11904(14)
C51 C -0.19006(16) -0.11976(16) 0.06029(15)
H33 H -0.2217 -0.1779 0.0884
C52 C -0.20152(17) -0.14305(16) -0.04043(15)
H34 H -0.2408 -0.2188 -0.0823
C53 C -0.15643(17) -0.05751(16) -0.08204(15)
H35 H -0.1676 -0.0759 -0.1517
C54 C -0.09605(17) 0.05314(16) -0.02363(15)
H36 H -0.0642 0.1112 -0.0518
C55 C -0.10851(16) 0.04035(15) 0.22708(15)
C56 C 0.06266(18) 0.43626(16) 0.37238(15)
C57 C -0.05475(19) 0.40461(16) 0.37252(15)
C58 C 0.12300(19) 0.55272(18) 0.38296(16)
O3 O 0.96856(13) 0.72383(11) 0.85550(10)
O4 O 1.14617(12) 1.01029(11) 0.71698(10)
N5 N 1.14796(17) 0.61501(15) 0.62704(14)
N6 N 0.83384(17) 0.35362(15) 0.60930(15)
C30 C 0.4229(2) 0.6461(3) 0.7352(2)
H19 H 0.4237 0.6996 0.6999
H20 H 0.3484 0.6134 0.7500
H21 H 0.4826 0.6850 0.7969
N7 N 0.44372(16) 0.55733(18) 0.67380(16)
C31 C 0.54990(18) 0.57610(19) 0.66267(16)
C32 C 0.64026(18) 0.68559(19) 0.69810(16)
H22 H 0.6260 0.7472 0.7297
C33 C 0.74804(18) 0.70433(17) 0.68766(15)
H23 H 0.8058 0.7794 0.7102
C34 C 0.77655(17) 0.61786(16) 0.64528(14)
C35 C 0.89333(17) 0.64094(16) 0.64347(14)
C36 C 0.97601(16) 0.76047(15) 0.65776(15)
C37 C 0.99203(16) 0.79199(15) 0.56657(14)
C38 C 1.09704(17) 0.81929(16) 0.54432(15)
H24 H 1.1556 0.8123 0.5844
C39 C 1.11749(18) 0.85659(17) 0.46450(15)
H25 H 1.1892 0.8735 0.4486
C40 C 1.03243(17) 0.86938(16) 0.40727(15)
C41 C 1.05917(18) 0.91907(17) 0.33072(16)
N8 N 1.08585(16) 0.96217(16) 0.27244(15)
C42 C 0.3455(2) 0.4515(2) 0.6196(2)
H26 H 0.3350 0.3992 0.6580
H27 H 0.2773 0.4647 0.6086
H28 H 0.3580 0.4193 0.5559
C43 C 0.57673(19) 0.48908(18) 0.61459(16)
H29 H 0.5178 0.4149 0.5865
C44 C 0.68521(18) 0.50902(17) 0.60750(16)
H30 H 0.7000 0.4477 0.5761
C45 C 0.92552(18) 0.83849(18) 0.42691(16)
H31 H 0.8666 0.8447 0.3864
C46 C 0.90529(18) 0.79871(17) 0.50572(16)
H32 H 0.8317 0.7758 0.5185
C47 C 1.03241(16) 0.83561(15) 0.74793(14)
C48 C 1.02117(17) 0.81392(15) 0.84424(15)
C49 C 1.08359(16) 0.92347(15) 0.92280(14)
C50 C 1.13037(16) 1.00786(15) 0.88096(14)
C51 C 1.19006(16) 1.11976(16) 0.93971(15)
H33 H 1.2217 1.1779 0.9116
C52 C 1.20152(17) 1.14305(16) 1.04043(15)
H34 H 1.2408 1.2188 1.0823
C53 C 1.15643(17) 1.05751(16) 1.08204(15)
H35 H 1.1676 1.0759 1.1517
C54 C 1.09605(17) 0.94686(16) 1.02363(15)
H36 H 1.0642 0.8888 1.0518
C55 C 1.10851(16) 0.95965(15) 0.77292(15)
C56 C 0.93734(18) 0.56374(16) 0.62762(15)
C57 C 1.05475(19) 0.59539(16) 0.62748(15)
C58 C 0.87700(19) 0.44728(18) 0.61704(16)

#END
