./ABAWEG_from_xyz.cif_generated_by_CrystalShift
_symmetry_cell_setting triclinic
_symmetry_space_group_name_H-M 'P 1'
loop_
_symmetry_equiv_pos_site_id
_symmetry_equiv_pos_as_xyz
1 x,y,z
_cell_length_a 4.909000
_cell_length_b 6.847000
_cell_length_c 7.083000
_cell_angle_alpha 116.780000
_cell_angle_beta 104.670000
_cell_angle_gamma 90.650000
_cell_volume 203.428876
loop_
_atom_site_label
_atom_site_type_symbol
_atom_site_fract_x
_atom_site_fract_y
_atom_site_fract_z
C1 C 0.328200 0.316500 0.677100
C2 C 0.325600 0.237600 0.443200
O3 O 0.542000 0.213600 0.386400
N4 N 0.072700 0.197000 0.298700
C5 C 0.031000 0.122300 0.065700
H6 H -0.075000 0.216000 0.345000
C7 C -0.031000 -0.122300 -0.065700
N8 N -0.072700 -0.197000 -0.298700
C9 C -0.325600 -0.237600 -0.443200
C10 C -0.328200 -0.316500 -0.677100
O11 O -0.542000 -0.213600 -0.386400
H12 H 0.075000 -0.216000 -0.345000
C13 C 0.328200 0.316500 1.677100
C14 C 0.325600 0.237600 1.443200
O15 O 0.542000 0.213600 1.386400
N16 N 0.072700 0.197000 1.298700
C17 C 0.031000 0.122300 1.065700
H18 H -0.075000 0.216000 1.345000
C19 C -0.031000 -0.122300 0.934300
N20 N -0.072700 -0.197000 0.701300
C21 C -0.325600 -0.237600 0.556800
C22 C -0.328200 -0.316500 0.322900
O23 O -0.542000 -0.213600 0.613600
H24 H 0.075000 -0.216000 0.655000
C25 C 0.328200 1.316500 0.677100
C26 C 0.325600 1.237600 0.443200
O27 O 0.542000 1.213600 0.386400
N28 N 0.072700 1.197000 0.298700
C29 C 0.031000 1.122300 0.065700
H30 H -0.075000 1.216000 0.345000
C31 C -0.031000 0.877700 -0.065700
N32 N -0.072700 0.803000 -0.298700
C33 C -0.325600 0.762400 -0.443200
C34 C -0.328200 0.683500 -0.677100
O35 O -0.542000 0.786400 -0.386400
H36 H 0.075000 0.784000 -0.345000
C37 C 0.328200 1.316500 1.677100
C38 C 0.325600 1.237600 1.443200
O39 O 0.542000 1.213600 1.386400
N40 N 0.072700 1.197000 1.298700
C41 C 0.031000 1.122300 1.065700
H42 H -0.075000 1.216000 1.345000
C43 C -0.031000 0.877700 0.934300
N44 N -0.072700 0.803000 0.701300
C45 C -0.325600 0.762400 0.556800
C46 C -0.328200 0.683500 0.322900
O47 O -0.542000 0.786400 0.613600
H48 H 0.075000 0.784000 0.655000
C49 C 1.328200 0.316500 0.677100
C50 C 1.325600 0.237600 0.443200
O51 O 1.542000 0.213600 0.386400
N52 N 1.072700 0.197000 0.298700
C53 C 1.031000 0.122300 0.065700
H54 H 0.925000 0.216000 0.345000
C55 C 0.969000 -0.122300 -0.065700
N56 N 0.927300 -0.197000 -0.298700
C57 C 0.674400 -0.237600 -0.443200
C58 C 0.671800 -0.316500 -0.677100
O59 O 0.458000 -0.213600 -0.386400
H60 H 1.075000 -0.216000 -0.345000
C61 C 1.328200 0.316500 1.677100
C62 C 1.325600 0.237600 1.443200
O63 O 1.542000 0.213600 1.386400
N64 N 1.072700 0.197000 1.298700
C65 C 1.031000 0.122300 1.065700
H66 H 0.925000 0.216000 1.345000
C67 C 0.969000 -0.122300 0.934300
N68 N 0.927300 -0.197000 0.701300
C69 C 0.674400 -0.237600 0.556800
C70 C 0.671800 -0.316500 0.322900
O71 O 0.458000 -0.213600 0.613600
H72 H 1.075000 -0.216000 0.655000
C73 C 1.328200 1.316500 0.677100
C74 C 1.325600 1.237600 0.443200
O75 O 1.542000 1.213600 0.386400
N76 N 1.072700 1.197000 0.298700
C77 C 1.031000 1.122300 0.065700
H78 H 0.925000 1.216000 0.345000
C79 C 0.969000 0.877700 -0.065700
N80 N 0.927300 0.803000 -0.298700
C81 C 0.674400 0.762400 -0.443200
C82 C 0.671800 0.683500 -0.677100
O83 O 0.458000 0.786400 -0.386400
H84 H 1.075000 0.784000 -0.345000
C85 C 1.328200 1.316500 1.677100
C86 C 1.325600 1.237600 1.443200
O87 O 1.542000 1.213600 1.386400
N88 N 1.072700 1.197000 1.298700
C89 C 1.031000 1.122300 1.065700
H90 H 0.925000 1.216000 1.345000
C91 C 0.969000 0.877700 0.934300
N92 N 0.927300 0.803000 0.701300
C93 C 0.674400 0.762400 0.556800
C94 C 0.671800 0.683500 0.322900
O95 O 0.458000 0.786400 0.613600
H96 H 1.075000 0.784000 0.655000

#END
