
#######################################################################
#
#                 Cambridge Crystallographic Data Centre
#                                CCDC 
#
#######################################################################
#
# If this CIF has been generated from an entry in the Cambridge 
# Structural Database, then it will include bibliographic, chemical, 
# crystal, experimental, refinement or atomic coordinate data resulting 
# from the CCDC's data processing and validation procedures.
#
#######################################################################

data_ABAWEG
_symmetry_cell_setting           triclinic
_symmetry_space_group_name_H-M   'P -1'
_symmetry_Int_Tables_number      2
_space_group_name_Hall           '-P 1'
loop_
_symmetry_equiv_pos_site_id
_symmetry_equiv_pos_as_xyz
1 x,y,z
2 -x,-y,-z
_cell_length_a                   4.909(1)
_cell_length_b                   6.847(1)
_cell_length_c                   7.083(1)
_cell_angle_alpha                116.78(1)
_cell_angle_beta                 104.67(1)
_cell_angle_gamma                90.65(1)
_cell_volume                     203.429
loop_
_atom_site_label
_atom_site_type_symbol
_atom_site_fract_x
_atom_site_fract_y
_atom_site_fract_z
C1 C 0.3282(6) 0.3165(5) 0.6771(5)
C2 C 0.3256(5) 0.2376(4) 0.4432(4)
O1 O 0.5420(4) 0.2136(4) 0.3864(4)
N1 N 0.0727(5) 0.1970(4) 0.2987(3)
C3 C 0.0310(7) 0.1223(5) 0.0657(5)
H1 H -0.075(7) 0.216(4) 0.345(5)
C3A C -0.0310(7) -0.1223(5) -0.0657(5)
N1A N -0.0727(5) -0.1970(4) -0.2987(3)
C2A C -0.3256(5) -0.2376(4) -0.4432(4)
C1A C -0.3282(6) -0.3165(5) -0.6771(5)
O1A O -0.5420(4) -0.2136(4) -0.3864(4)
H1A H 0.075(7) -0.216(4) -0.345(5)
C1 C 0.3282(6) 0.3165(5) 1.6771(5)
C2 C 0.3256(5) 0.2376(4) 1.4432(4)
O1 O 0.5420(4) 0.2136(4) 1.3864(4)
N1 N 0.0727(5) 0.1970(4) 1.2987(3)
C3 C 0.0310(7) 0.1223(5) 1.0657(5)
H1 H -0.075(7) 0.216(4) 1.345(5)
C3A C -0.0310(7) -0.1223(5) 0.9343(5)
N1A N -0.0727(5) -0.1970(4) 0.7013(3)
C2A C -0.3256(5) -0.2376(4) 0.5568(4)
C1A C -0.3282(6) -0.3165(5) 0.3229(5)
O1A O -0.5420(4) -0.2136(4) 0.6136(4)
H1A H 0.075(7) -0.216(4) 0.655(5)
C1 C 0.3282(6) 1.3165(5) 0.6771(5)
C2 C 0.3256(5) 1.2376(4) 0.4432(4)
O1 O 0.5420(4) 1.2136(4) 0.3864(4)
N1 N 0.0727(5) 1.1970(4) 0.2987(3)
C3 C 0.0310(7) 1.1223(5) 0.0657(5)
H1 H -0.075(7) 1.216(4) 0.345(5)
C3A C -0.0310(7) 0.8777(5) -0.0657(5)
N1A N -0.0727(5) 0.8030(4) -0.2987(3)
C2A C -0.3256(5) 0.7624(4) -0.4432(4)
C1A C -0.3282(6) 0.6835(5) -0.6771(5)
O1A O -0.5420(4) 0.7864(4) -0.3864(4)
H1A H 0.075(7) 0.784(4) -0.345(5)
C1 C 0.3282(6) 1.3165(5) 1.6771(5)
C2 C 0.3256(5) 1.2376(4) 1.4432(4)
O1 O 0.5420(4) 1.2136(4) 1.3864(4)
N1 N 0.0727(5) 1.1970(4) 1.2987(3)
C3 C 0.0310(7) 1.1223(5) 1.0657(5)
H1 H -0.075(7) 1.216(4) 1.345(5)
C3A C -0.0310(7) 0.8777(5) 0.9343(5)
N1A N -0.0727(5) 0.8030(4) 0.7013(3)
C2A C -0.3256(5) 0.7624(4) 0.5568(4)
C1A C -0.3282(6) 0.6835(5) 0.3229(5)
O1A O -0.5420(4) 0.7864(4) 0.6136(4)
H1A H 0.075(7) 0.784(4) 0.655(5)
C1 C 1.3282(6) 0.3165(5) 0.6771(5)
C2 C 1.3256(5) 0.2376(4) 0.4432(4)
O1 O 1.5420(4) 0.2136(4) 0.3864(4)
N1 N 1.0727(5) 0.1970(4) 0.2987(3)
C3 C 1.0310(7) 0.1223(5) 0.0657(5)
H1 H 0.925(7) 0.216(4) 0.345(5)
C3A C 0.9690(7) -0.1223(5) -0.0657(5)
N1A N 0.9273(5) -0.1970(4) -0.2987(3)
C2A C 0.6744(5) -0.2376(4) -0.4432(4)
C1A C 0.6718(6) -0.3165(5) -0.6771(5)
O1A O 0.4580(4) -0.2136(4) -0.3864(4)
H1A H 1.075(7) -0.216(4) -0.345(5)
C1 C 1.3282(6) 0.3165(5) 1.6771(5)
C2 C 1.3256(5) 0.2376(4) 1.4432(4)
O1 O 1.5420(4) 0.2136(4) 1.3864(4)
N1 N 1.0727(5) 0.1970(4) 1.2987(3)
C3 C 1.0310(7) 0.1223(5) 1.0657(5)
H1 H 0.925(7) 0.216(4) 1.345(5)
C3A C 0.9690(7) -0.1223(5) 0.9343(5)
N1A N 0.9273(5) -0.1970(4) 0.7013(3)
C2A C 0.6744(5) -0.2376(4) 0.5568(4)
C1A C 0.6718(6) -0.3165(5) 0.3229(5)
O1A O 0.4580(4) -0.2136(4) 0.6136(4)
H1A H 1.075(7) -0.216(4) 0.655(5)
C1 C 1.3282(6) 1.3165(5) 0.6771(5)
C2 C 1.3256(5) 1.2376(4) 0.4432(4)
O1 O 1.5420(4) 1.2136(4) 0.3864(4)
N1 N 1.0727(5) 1.1970(4) 0.2987(3)
C3 C 1.0310(7) 1.1223(5) 0.0657(5)
H1 H 0.925(7) 1.216(4) 0.345(5)
C3A C 0.9690(7) 0.8777(5) -0.0657(5)
N1A N 0.9273(5) 0.8030(4) -0.2987(3)
C2A C 0.6744(5) 0.7624(4) -0.4432(4)
C1A C 0.6718(6) 0.6835(5) -0.6771(5)
O1A O 0.4580(4) 0.7864(4) -0.3864(4)
H1A H 1.075(7) 0.784(4) -0.345(5)
C1 C 1.3282(6) 1.3165(5) 1.6771(5)
C2 C 1.3256(5) 1.2376(4) 1.4432(4)
O1 O 1.5420(4) 1.2136(4) 1.3864(4)
N1 N 1.0727(5) 1.1970(4) 1.2987(3)
C3 C 1.0310(7) 1.1223(5) 1.0657(5)
H1 H 0.925(7) 1.216(4) 1.345(5)
C3A C 0.9690(7) 0.8777(5) 0.9343(5)
N1A N 0.9273(5) 0.8030(4) 0.7013(3)
C2A C 0.6744(5) 0.7624(4) 0.5568(4)
C1A C 0.6718(6) 0.6835(5) 0.3229(5)
O1A O 0.4580(4) 0.7864(4) 0.6136(4)
H1A H 1.075(7) 0.784(4) 0.655(5)

#END
