./ABCOCX_from_xyz.cif_generated_by_CrystalShift
_symmetry_cell_setting triclinic
_symmetry_space_group_name_H-M 'P 1'
loop_
_symmetry_equiv_pos_site_id
_symmetry_equiv_pos_as_xyz
1 x,y,z
_cell_length_a 12.590000
_cell_length_b 6.477000
_cell_length_c 5.810000
_cell_angle_alpha 90.000000
_cell_angle_beta 100.680000
_cell_angle_gamma 90.000000
_cell_volume 465.571972
loop_
_atom_site_label
_atom_site_type_symbol
_atom_site_fract_x
_atom_site_fract_y
_atom_site_fract_z
C1 C 0.285300 0.956500 0.808200
C2 C 0.183600 0.886500 0.634600
C3 C 0.210400 0.709500 0.481500
C4 C 0.291400 0.550600 0.606000
C5 C 0.384800 0.650600 0.774700
C6 C 0.441800 0.820800 0.657900
C7 C 0.377100 1.021000 0.676100
C8 C 0.336900 0.772300 0.953200
C9 C 0.131800 1.070200 0.485100
N10 N 0.100000 0.815300 0.774800
O11 O 0.067000 1.180500 0.572600
O12 O 0.157600 1.099500 0.292100
H13 H 0.081000 0.925000 0.877000
H14 H 0.126000 0.691000 0.877000
H15 H 0.033000 0.766000 0.665000
H16 H 0.264000 1.077000 0.918000
H17 H 0.136000 0.627000 0.409000
H18 H 0.243000 0.774000 0.337000
H19 H 0.251000 0.444000 0.704000
H20 H 0.325000 0.462000 0.476000
H21 H 0.442000 0.533000 0.857000
H22 H 0.524000 0.836000 0.752000
H23 H 0.442000 0.783000 0.479000
H24 H 0.429000 1.136000 0.779000
H25 H 0.346000 1.082000 0.507000
H26 H 0.398000 0.820000 1.097000
H27 H 0.276000 0.680000 1.020000
C28 C 0.714700 0.456500 0.191800
C29 C 0.816400 0.386500 0.365400
C30 C 0.789600 0.209500 0.518500
C31 C 0.708600 0.050600 0.394000
C32 C 0.615200 0.150600 0.225300
C33 C 0.558200 0.320800 0.342100
C34 C 0.622900 0.521000 0.323900
C35 C 0.663100 0.272300 0.046800
C36 C 0.868200 0.570200 0.514900
N37 N 0.900000 0.315300 0.225200
O38 O 0.933000 0.680500 0.427400
O39 O 0.842400 0.599500 0.707900
H40 H 0.919000 0.425000 0.123000
H41 H 0.874000 0.191000 0.123000
H42 H 0.967000 0.266000 0.335000
H43 H 0.736000 0.577000 0.082000
H44 H 0.864000 0.127000 0.591000
H45 H 0.757000 0.274000 0.663000
H46 H 0.749000 -0.056000 0.296000
H47 H 0.675000 -0.038000 0.524000
H48 H 0.558000 0.033000 0.143000
H49 H 0.476000 0.336000 0.248000
H50 H 0.558000 0.283000 0.521000
H51 H 0.571000 0.636000 0.221000
H52 H 0.654000 0.582000 0.493000
H53 H 0.602000 0.320000 -0.097000
H54 H 0.724000 0.180000 -0.020000
O55 O 0.094300 0.418800 0.982000
H56 H 0.085000 0.388000 0.832000
H57 H 0.117000 0.300000 1.093000
O58 O 0.905700 0.918800 0.018000
H59 H 0.915000 0.888000 0.168000
H60 H 0.883000 0.800000 -0.093000

#END
