./ABDECO10_from_xyz.cif_generated_by_CrystalShift
_symmetry_cell_setting triclinic
_symmetry_space_group_name_H-M 'P 1'
loop_
_symmetry_equiv_pos_site_id
_symmetry_equiv_pos_as_xyz
1 x,y,z
_cell_length_a 11.680000
_cell_length_b 12.910000
_cell_length_c 10.430000
_cell_angle_alpha 114.700000
_cell_angle_beta 90.200000
_cell_angle_gamma 118.250000
_cell_volume 1218.191254
loop_
_atom_site_label
_atom_site_type_symbol
_atom_site_fract_x
_atom_site_fract_y
_atom_site_fract_z
Br1 Br 0.147300 0.145700 0.480300
C2 C 0.451400 0.772200 0.496200
C3 C 0.131200 0.608700 0.701500
C4 C -0.008200 0.527200 0.742600
C5 C -0.063100 0.620700 0.822300
C6 C 0.039500 0.763300 0.961800
C7 C 0.183000 0.841600 0.928700
C8 C 0.235700 0.742600 0.848200
C9 C 0.281000 0.969800 0.792000
C10 C 0.207100 0.319700 0.497200
C11 C 0.229600 0.974500 0.663000
C12 C 0.264900 0.724300 0.979000
C13 C 0.233000 0.822700 1.118200
C14 C 0.277900 0.943000 1.087000
C15 C 0.078600 0.749300 1.086500
C16 C -0.027800 0.849800 1.025400
C17 C 0.150600 0.396200 0.593300
C18 C 0.193900 0.523400 0.608800
C19 C 0.293200 0.572800 0.528400
C20 C 0.345900 0.495900 0.432000
C21 C 0.300900 0.366600 0.412300
C22 C 0.423400 0.318200 0.210900
H23 H 0.460000 0.717000 0.396000
H24 H 0.465000 0.865000 0.523000
H25 H 0.550000 0.800000 0.567000
H26 H 0.108000 0.638000 0.621000
H27 H 0.004000 0.500000 0.819000
H28 H -0.067000 0.442000 0.642000
H29 H -0.150000 0.592000 0.863000
H30 H -0.067000 0.625000 0.719000
H31 H 0.333000 0.800000 0.833000
H32 H 0.213000 0.883000 0.567000
H33 H 0.283000 1.050000 0.650000
H34 H 0.140000 0.985000 0.696000
H35 H 0.196000 0.629000 0.963000
H36 H 0.369000 0.752000 0.979000
H37 H 0.250000 0.825000 1.218000
H38 H 0.250000 1.009000 1.142000
H39 H 0.379000 0.983000 1.083000
H40 H -0.050000 0.863000 0.933000
H41 H -0.117000 0.800000 1.058000
H42 H 0.042000 0.938000 1.100000
H43 H 0.100000 0.358000 0.663000
H44 H 0.417000 0.525000 0.367000
H45 H 0.450000 0.258000 0.157000
H46 H 0.388000 0.375000 0.179000
H47 H 0.521000 0.400000 0.256000
O48 O 0.330100 0.700200 0.548200
O49 O 0.170700 0.895800 0.838500
O50 O 0.399400 1.021800 0.840700
O51 O -0.002500 0.686000 1.144400
O52 O 0.345200 0.281600 0.318600
Br53 Br 0.852700 0.854300 0.519700
C54 C 0.548600 0.227800 0.503800
C55 C 0.868800 0.391300 0.298500
C56 C 1.008200 0.472800 0.257400
C57 C 1.063100 0.379300 0.177700
C58 C 0.960500 0.236700 0.038200
C59 C 0.817000 0.158400 0.071300
C60 C 0.764300 0.257400 0.151800
C61 C 0.719000 0.030200 0.208000
C62 C 0.792900 0.680300 0.502800
C63 C 0.770400 0.025500 0.337000
C64 C 0.735100 0.275700 0.021000
C65 C 0.767000 0.177300 -0.118200
C66 C 0.722100 0.057000 -0.087000
C67 C 0.921400 0.250700 -0.086500
C68 C 1.027800 0.150200 -0.025400
C69 C 0.849400 0.603800 0.406700
C70 C 0.806100 0.476600 0.391200
C71 C 0.706800 0.427200 0.471600
C72 C 0.654100 0.504100 0.568000
C73 C 0.699100 0.633400 0.587700
C74 C 0.576600 0.681800 0.789100
H75 H 0.540000 0.283000 0.604000
H76 H 0.535000 0.135000 0.477000
H77 H 0.450000 0.200000 0.433000
H78 H 0.892000 0.362000 0.379000
H79 H 0.996000 0.500000 0.181000
H80 H 1.067000 0.558000 0.358000
H81 H 1.150000 0.408000 0.137000
H82 H 1.067000 0.375000 0.281000
H83 H 0.667000 0.200000 0.167000
H84 H 0.787000 0.117000 0.433000
H85 H 0.717000 -0.050000 0.350000
H86 H 0.860000 0.015000 0.304000
H87 H 0.804000 0.371000 0.037000
H88 H 0.631000 0.248000 0.021000
H89 H 0.750000 0.175000 -0.218000
H90 H 0.750000 -0.009000 -0.142000
H91 H 0.621000 0.017000 -0.083000
H92 H 1.050000 0.137000 0.067000
H93 H 1.117000 0.200000 -0.058000
H94 H 0.958000 0.062000 -0.100000
H95 H 0.900000 0.642000 0.337000
H96 H 0.583000 0.475000 0.633000
H97 H 0.550000 0.742000 0.843000
H98 H 0.612000 0.625000 0.821000
H99 H 0.479000 0.600000 0.744000
O100 O 0.669900 0.299800 0.451800
O101 O 0.829300 0.104200 0.161500
O102 O 0.600600 -0.021800 0.159300
O103 O 1.002500 0.314000 -0.144400
O104 O 0.654800 0.718400 0.681400
C105 C 0.543800 0.406200 -0.074100
C106 C 0.412800 0.377900 -0.128100
C107 C 0.626200 0.529800 0.057200
C108 C 0.373800 0.470200 -0.057200
C109 C 0.587200 0.622100 0.128100
C110 C 0.456200 0.593800 0.074100
C111 C 0.543800 0.406200 0.925900
C112 C 0.412800 0.377900 0.871900
C113 C 0.626200 0.529800 1.057200
C114 C 0.373800 0.470200 0.942800
C115 C 0.587200 0.622100 1.128100
C116 C 0.456200 0.593800 1.074100

#END
