
#######################################################################
#
#                 Cambridge Crystallographic Data Centre
#                                CCDC 
#
#######################################################################
#
# If this CIF has been generated from an entry in the Cambridge 
# Structural Database, then it will include bibliographic, chemical, 
# crystal, experimental, refinement or atomic coordinate data resulting 
# from the CCDC's data processing and validation procedures.
#
#######################################################################

data_ABEDAP
_symmetry_cell_setting           triclinic
_symmetry_space_group_name_H-M   'P -1'
_symmetry_Int_Tables_number      2
_space_group_name_Hall           '-P 1'
loop_
_symmetry_equiv_pos_site_id
_symmetry_equiv_pos_as_xyz
1 x,y,z
2 -x,-y,-z
_cell_length_a                   9.9581(6)
_cell_length_b                   10.7625(6)
_cell_length_c                   13.6159(7)
_cell_angle_alpha                71.8090(10)
_cell_angle_beta                 74.8150(10)
_cell_angle_gamma                65.9840(10)
_cell_volume                     1250.94
loop_
_atom_site_label
_atom_site_type_symbol
_atom_site_fract_x
_atom_site_fract_y
_atom_site_fract_z
Co1 Co 0.87500(2) 0.37051(2) 0.54596(2)
S1 S 0.42340(6) 0.88711(6) -0.04162(4)
O1 O 0.83648(14) 0.17321(15) 0.56199(12)
N1 N 0.89274(17) 0.40374(17) 0.37665(12)
C1 C 0.69916(18) 0.24347(19) 0.56691(13)
O2 O 0.65150(14) 0.37143(14) 0.56649(11)
N2 N 0.6366(2) 0.6333(2) 0.19301(13)
H1 H 0.5626 0.6551 0.2418
C2 C 0.58953(18) 0.17649(19) 0.57637(13)
O3 O 0.09149(13) 0.25308(14) 0.55304(10)
N3 N 0.02290(19) 1.17745(19) -0.05033(13)
H2 H -0.0046 1.1753 0.0154
C3 C 0.61617(18) 0.03559(18) 0.62447(14)
H3 H 0.7084 -0.0212 0.6448
N4 N -0.16189(17) 1.36012(16) -0.28601(12)
O4 O 0.18270(14) 0.42238(13) 0.47337(11)
C4 C 0.50613(19) -0.02124(18) 0.64243(13)
C5 C 0.36990(18) 0.06539(18) 0.60971(13)
H4 H 0.2952 0.0291 0.6219
O5 O 0.6979(2) 0.6641(2) 0.01757(13)
C6 C 0.34322(17) 0.20583(17) 0.55887(12)
O6 O 0.2137(2) 1.0861(3) -0.16977(13)
C7 C 0.45427(17) 0.26052(18) 0.54195(13)
H5 H 0.4378 0.3537 0.5075
C8 C 0.5336(2) -0.17260(19) 0.69746(15)
H6 H 0.6328 -0.2162 0.7142
H7 H 0.4633 -0.1783 0.7607
H8 H 0.5223 -0.2198 0.6525
C9 C 0.19522(18) 0.30060(18) 0.52626(13)
C10 C 1.0195(2) 0.3580(2) 0.31247(16)
H9 H 1.1052 0.2993 0.3413
C11 C 1.0282(2) 0.3944(3) 0.20521(17)
H10 H 1.1180 0.3581 0.1633
C12 C 0.9041(2) 0.4845(3) 0.16010(16)
H11 H 0.9087 0.5108 0.0878
C13 C 0.7717(2) 0.5351(2) 0.22553(15)
C14 C 0.7714(2) 0.4876(2) 0.33297(15)
H12 H 0.6814 0.5159 0.3770
C15 C 0.6101(2) 0.6973(2) 0.09323(16)
C16 C 0.4637(2) 0.8118(2) 0.08286(15)
C17 C 0.3513(2) 0.8717(2) 0.15399(15)
H13 H 0.3539 0.8441 0.2256
C18 C 0.2304(2) 0.9799(2) 0.10880(15)
H14 H 0.1452 1.0319 0.1467
C19 C 0.2534(2) 0.9991(2) 0.00308(15)
C20 C 0.1613(2) 1.0928(2) -0.07960(15)
C21 C -0.2877(2) 1.4487(2) -0.24402(16)
H15 H -0.3585 1.5098 -0.2867
C22 C -0.3163(2) 1.4530(2) -0.14055(17)
H16 H -0.4047 1.5161 -0.1142
C23 C -0.2124(2) 1.3626(2) -0.07584(16)
H17 H -0.2298 1.3640 -0.0056
C24 C -0.0818(2) 1.2700(2) -0.11777(15)
C25 C -0.0602(2) 1.2724(2) -0.22392(14)
H18 H 0.0276 1.2111 -0.2525
Co1 Co -0.12500(2) 0.37051(2) 0.54596(2)
Co1 Co -0.12500(2) 1.37051(2) -0.45404(2)
Co1A Co 0.12500(2) 0.62949(2) 0.45404(2)
O3 O 1.09149(13) 0.25308(14) 0.55304(10)
N4 N 0.83811(17) 0.36012(16) 0.71399(12)
O4A O 0.81730(14) 0.57762(13) 0.52663(11)
S1 S 0.57660(6) 0.11289(6) 1.04162(4)
O1 O 0.16352(14) 0.82679(15) 0.43801(12)
N1 N 0.10726(17) 0.59626(17) 0.62335(12)
C1 C 0.30084(18) 0.75653(19) 0.43309(13)
O2 O 0.34850(14) 0.62857(14) 0.43351(11)
N2 N 0.3634(2) 0.3667(2) 0.80699(13)
H1 H 0.4374 0.3449 0.7582
C2 C 0.41047(18) 0.82351(19) 0.42363(13)
O3 O 0.90851(13) 0.74692(14) 0.44696(10)
N3 N 0.97710(19) -0.17745(19) 1.05033(13)
H2 H 1.0046 -0.1753 0.9846
C3 C 0.38383(18) 0.96441(18) 0.37553(14)
H3 H 0.2916 1.0212 0.3552
N4 N 1.16189(17) -0.36012(16) 1.28601(12)
C4 C 0.49387(19) 1.02124(18) 0.35757(13)
C5 C 0.63010(18) 0.93461(18) 0.39029(13)
H4 H 0.7048 0.9709 0.3781
O5 O 0.3021(2) 0.3359(2) 0.98243(13)
C6 C 0.65678(17) 0.79417(17) 0.44113(12)
O6 O 0.7863(2) -0.0861(3) 1.16977(13)
C7 C 0.54573(17) 0.73948(18) 0.45805(13)
H5 H 0.5622 0.6463 0.4925
C8 C 0.4664(2) 1.17260(19) 0.30254(15)
H6 H 0.3672 1.2162 0.2858
H7 H 0.5367 1.1783 0.2393
H8 H 0.4777 1.2198 0.3475
C9 C 0.80478(18) 0.69940(18) 0.47374(13)
C10 C -0.0195(2) 0.6420(2) 0.68753(16)
H9 H -0.1052 0.7007 0.6587
C11 C -0.0282(2) 0.6056(3) 0.79479(17)
H10 H -0.1180 0.6419 0.8367
C12 C 0.0959(2) 0.5155(3) 0.83990(16)
H11 H 0.0913 0.4892 0.9122
C13 C 0.2283(2) 0.4649(2) 0.77447(15)
C14 C 0.2286(2) 0.5124(2) 0.66703(15)
H12 H 0.3186 0.4841 0.6230
C15 C 0.3899(2) 0.3027(2) 0.90677(16)
C16 C 0.5363(2) 0.1882(2) 0.91714(15)
C17 C 0.6487(2) 0.1283(2) 0.84601(15)
H13 H 0.6461 0.1559 0.7744
C18 C 0.7696(2) 0.0201(2) 0.89120(15)
H14 H 0.8548 -0.0319 0.8533
C19 C 0.7466(2) 0.0009(2) 0.99692(15)
C20 C 0.8387(2) -0.0928(2) 1.07960(15)
C21 C 1.2877(2) -0.4487(2) 1.24402(16)
H15 H 1.3585 -0.5098 1.2867
C22 C 1.3163(2) -0.4530(2) 1.14055(17)
H16 H 1.4047 -0.5161 1.1142
C23 C 1.2124(2) -0.3626(2) 1.07584(16)
H17 H 1.2298 -0.3640 1.0056
C24 C 1.0818(2) -0.2700(2) 1.11777(15)
C25 C 1.0602(2) -0.2724(2) 1.22392(14)
H18 H 0.9724 -0.2111 1.2525
Co1 Co 1.12500(2) 0.62949(2) 0.45404(2)
Co1 Co 1.12500(2) -0.37051(2) 1.45404(2)
O3 O -0.09149(13) 0.74692(14) 0.44696(10)
N4 N 0.16189(17) 0.63988(16) 0.28601(12)
O7 O 0.9351(3) 0.07878(19) 0.36075(15)
H19 H 0.9071 0.1135 0.4141
H20 H 1.0127 0.0064 0.3712
O7 O 0.0649(3) 0.92122(19) 0.63925(15)
H19 H 0.0929 0.8865 0.5859
H20 H -0.0127 0.9936 0.6288
O8 O 0.8582(2) 0.1662(3) 0.16417(14)
H21 H 0.8618 0.1560 0.2280
H22 H 0.8052 0.1221 0.1624
O8 O 0.1418(2) 0.8338(3) 0.83583(14)
H21 H 0.1382 0.8440 0.7720
H22 H 0.1948 0.8779 0.8376

#END
