
#######################################################################
#
#                 Cambridge Crystallographic Data Centre
#                                CCDC 
#
#######################################################################
#
# If this CIF has been generated from an entry in the Cambridge 
# Structural Database, then it will include bibliographic, chemical, 
# crystal, experimental, refinement or atomic coordinate data resulting 
# from the CCDC's data processing and validation procedures.
#
#######################################################################

data_KACTEN
_symmetry_cell_setting           triclinic
_symmetry_space_group_name_H-M   'P -1'
_symmetry_Int_Tables_number      2
_space_group_name_Hall           '-P 1'
loop_
_symmetry_equiv_pos_site_id
_symmetry_equiv_pos_as_xyz
1 x,y,z
2 -x,-y,-z
_cell_length_a                   10.211(1)
_cell_length_b                   18.785(3)
_cell_length_c                   19.262(3)
_cell_angle_alpha                107.80(1)
_cell_angle_beta                 100.14(2)
_cell_angle_gamma                98.96(2)
_cell_volume                     3375.23
loop_
_atom_site_label
_atom_site_type_symbol
_atom_site_fract_x
_atom_site_fract_y
_atom_site_fract_z
Co1 Co 0.30052(21) 0.07512(12) 0.75554(12)
N1 N 0.4422(12) 0.0526(7) 0.7037(6)
N2 N 0.3616(12) 0.0090(6) 0.8065(7)
N3 N 0.1661(11) 0.0926(6) 0.8115(6)
N4 N 0.2559(12) 0.1435(7) 0.7041(7)
N5 N 0.6060(12) -0.0263(7) 0.6912(7)
N6 N 0.5303(12) -0.0661(7) 0.8103(7)
N7 N 0.2082(11) 0.0143(6) 0.8868(6)
N8 N 0.4283(14) 0.1373(7) 0.6344(7)
N9 N 0.5142(14) 0.2062(8) 0.8767(8)
N10 N 0.0938(15) -0.0583(9) 0.6317(8)
C1 C 0.4765(16) 0.0803(9) 0.6520(9)
C2 C 0.5795(16) 0.0532(9) 0.6160(9)
C3 C 0.6240(18) 0.0822(10) 0.5609(10)
C4 C 0.7249(19) 0.0526(11) 0.5285(10)
C5 C 0.7873(19) 0.0028(11) 0.5501(11)
C6 C 0.7486(18) -0.0251(10) 0.6075(10)
C7 C 0.6403(16) 0.0011(9) 0.6371(9)
C8 C 0.5088(15) -0.0010(8) 0.7216(8)
C9 C 0.4695(15) -0.0222(8) 0.7847(8)
C10 C 0.4925(15) -0.0837(8) 0.8686(8)
C11 C 0.5614(17) -0.1307(9) 0.8996(9)
C12 C 0.5150(17) -0.1476(10) 0.9578(9)
C13 C 0.4076(17) -0.1231(9) 0.9835(9)
C14 C 0.3404(16) -0.0754(9) 0.9546(9)
C15 C 0.3838(14) -0.0558(8) 0.8961(8)
C16 C 0.3165(14) -0.0094(8) 0.8607(8)
C17 C 0.1414(14) 0.0584(8) 0.8628(8)
C18 C 0.0151(15) 0.0733(8) 0.8881(8)
C19 C -0.0104(16) 0.1420(9) 0.8627(9)
C20 C 0.0746(16) 0.1367(9) 0.8051(9)
C21 C 0.0701(17) 0.1790(9) 0.7570(9)
C22 C 0.1580(14) 0.1823(8) 0.7110(8)
C23 C 0.1564(16) 0.2334(9) 0.6633(9)
C24 C 0.2964(19) 0.2335(10) 0.6458(10)
C25 C 0.3336(15) 0.1630(9) 0.6604(9)
C26 C 0.0356(18) 0.0933(10) 0.9744(10)
C27 C -0.0984(18) -0.0005(10) 0.8445(10)
C28 C 0.0520(18) 0.2202(10) 0.9236(10)
C29 C -0.1609(17) 0.1417(10) 0.8305(9)
C30 C 0.120(3) 0.3052(15) 0.6956(14)
C31 C 0.0514(25) 0.1850(14) 0.5885(14)
C32 C 0.4060(23) 0.3034(13) 0.7107(13)
C33 C 0.3247(22) 0.2483(12) 0.5779(12)
C34 C 0.4331(17) 0.1587(9) 0.8316(9)
C35 C 0.1735(17) -0.0078(9) 0.6800(9)
H1 H 0.58090 0.12620 0.54520
H2 H 0.75470 0.07140 0.48400
H3 H 0.86600 -0.01790 0.52350
H4 H 0.80190 -0.06350 0.62800
H5 H 0.64580 -0.15240 0.87890
H6 H 0.5979 -0.1821 0.9848
H7 H 0.37330 -0.1414 1.0273
H8 H 0.2579 -0.0539 0.9766
H9 H -0.0084 0.2122 0.7560
H10 H -0.0601 0.1025 0.9895
H11 H 0.0643 0.0458 0.9898
H12 H 0.1151 0.1452 1.0050
H13 H -0.0693 -0.0479 0.8600
H14 H -0.1937 0.0087 0.8597
H15 H -0.1124 -0.0144 0.7841
H16 H 0.0479 0.2656 0.8995
H17 H -0.0034 0.2288 0.9678
H18 H 0.1578 0.2205 0.9462
H19 H -0.2170 0.1501 0.8745
H20 H -0.1656 0.1869 0.8062
H21 H -0.2061 0.0857 0.7868
H22 H 0.1200 0.3367 0.6567
H23 H 0.0193 0.2943 0.7064
H24 H 0.1942 0.3391 0.7483
H25 H -0.0497 0.1743 0.5994
H26 H 0.0510 0.2168 0.5497
H27 H 0.0786 0.1307 0.5640
H28 H 0.5090 0.2996 0.7057
H29 H 0.3873 0.3581 0.7091
H30 H 0.3838 0.2919 0.7600
H31 H 0.3067 0.3036 0.5766
H32 H 0.4285 0.2451 0.5732
H33 H 0.2499 0.2008 0.5335
Co1 Co 0.69948(21) 0.92488(12) 0.24446(12)
N1 N 0.5578(12) 0.9474(7) 0.2963(6)
N2 N 0.6384(12) 0.9910(6) 0.1935(7)
N3 N 0.8339(11) 0.9074(6) 0.1885(6)
N4 N 0.7441(12) 0.8565(7) 0.2959(7)
N5 N 0.3940(12) 1.0263(7) 0.3088(7)
N6 N 0.4697(12) 1.0661(7) 0.1897(7)
N7 N 0.7918(11) 0.9857(6) 0.1132(6)
N8 N 0.5717(14) 0.8627(7) 0.3656(7)
N9 N 0.4858(14) 0.7938(8) 0.1233(8)
N10 N 0.9062(15) 1.0583(9) 0.3683(8)
C1 C 0.5235(16) 0.9197(9) 0.3480(9)
C2 C 0.4205(16) 0.9468(9) 0.3840(9)
C3 C 0.3760(18) 0.9178(10) 0.4391(10)
C4 C 0.2751(19) 0.9474(11) 0.4715(10)
C5 C 0.2127(19) 0.9972(11) 0.4499(11)
C6 C 0.2514(18) 1.0251(10) 0.3925(10)
C7 C 0.3597(16) 0.9989(9) 0.3629(9)
C8 C 0.4912(15) 1.0010(8) 0.2784(8)
C9 C 0.5305(15) 1.0222(8) 0.2153(8)
C10 C 0.5075(15) 1.0837(8) 0.1314(8)
C11 C 0.4386(17) 1.1307(9) 0.1004(9)
C12 C 0.4850(17) 1.1476(10) 0.0422(9)
C13 C 0.5924(17) 1.1231(9) 0.0165(9)
C14 C 0.6596(16) 1.0754(9) 0.0454(9)
C15 C 0.6162(14) 1.0558(8) 0.1039(8)
C16 C 0.6835(14) 1.0094(8) 0.1393(8)
C17 C 0.8586(14) 0.9416(8) 0.1372(8)
C18 C 0.9849(15) 0.9267(8) 0.1119(8)
C19 C 1.0104(16) 0.8580(9) 0.1373(9)
C20 C 0.9254(16) 0.8633(9) 0.1949(9)
C21 C 0.9299(17) 0.8210(9) 0.2430(9)
C22 C 0.8420(14) 0.8177(8) 0.2890(8)
C23 C 0.8436(16) 0.7666(9) 0.3367(9)
C24 C 0.7036(19) 0.7665(10) 0.3542(10)
C25 C 0.6664(15) 0.8370(9) 0.3396(9)
C26 C 0.9644(18) 0.9067(10) 0.0256(10)
C27 C 1.0984(18) 1.0005(10) 0.1555(10)
C28 C 0.9480(18) 0.7798(10) 0.0764(10)
C29 C 1.1609(17) 0.8583(10) 0.1695(9)
C30 C 0.880(3) 0.6948(15) 0.3044(14)
C31 C 0.9486(25) 0.8150(14) 0.4115(14)
C32 C 0.5940(23) 0.6966(13) 0.2893(13)
C33 C 0.6753(22) 0.7517(12) 0.4221(12)
C34 C 0.5669(17) 0.8413(9) 0.1684(9)
C35 C 0.8265(17) 1.0078(9) 0.3200(9)
H1 H 0.41910 0.87380 0.45480
H2 H 0.24530 0.92860 0.51600
H3 H 0.13400 1.01790 0.47650
H4 H 0.19810 1.06350 0.37200
H5 H 0.35420 1.15240 0.12110
H6 H 0.4021 1.1821 0.0152
H7 H 0.62670 1.1414 -0.0273
H8 H 0.7421 1.0539 0.0234
H9 H 1.0084 0.7878 0.2440
H10 H 1.0601 0.8975 0.0105
H11 H 0.9357 0.9542 0.0102
H12 H 0.8849 0.8548 -0.0050
H13 H 1.0693 1.0479 0.1400
H14 H 1.1937 0.9913 0.1403
H15 H 1.1124 1.0144 0.2159
H16 H 0.9521 0.7344 0.1005
H17 H 1.0034 0.7712 0.0322
H18 H 0.8422 0.7795 0.0538
H19 H 1.2170 0.8499 0.1255
H20 H 1.1656 0.8131 0.1938
H21 H 1.2061 0.9143 0.2132
H22 H 0.8800 0.6633 0.3433
H23 H 0.9807 0.7057 0.2936
H24 H 0.8058 0.6609 0.2517
H25 H 1.0497 0.8257 0.4006
H26 H 0.9490 0.7832 0.4503
H27 H 0.9214 0.8693 0.4360
H28 H 0.4910 0.7004 0.2943
H29 H 0.6127 0.6419 0.2909
H30 H 0.6162 0.7081 0.2400
H31 H 0.6933 0.6964 0.4234
H32 H 0.5715 0.7549 0.4268
H33 H 0.7501 0.7992 0.4665
Co2 Co 0.48010(20) 0.40832(11) 0.22921(11)
N11 N 0.6186(11) 0.3505(6) 0.2111(6)
N12 N 0.5421(11) 0.4537(6) 0.1600(6)
N13 N 0.3461(11) 0.4673(6) 0.2409(6)
N14 N 0.4343(11) 0.3604(6) 0.2981(7)
N15 N 0.7887(12) 0.3371(6) 0.1387(6)
N16 N 0.7207(11) 0.4568(6) 0.0961(6)
N17 N 0.3856(11) 0.5348(7) 0.1563(7)
N18 N 0.5886(11) 0.2750(7) 0.2881(6)
N19 N 0.6716(15) 0.5446(8) 0.3544(8)
N20 N 0.2681(14) 0.2779(7) 0.1051(7)
C36 C 0.6536(14) 0.2978(8) 0.2405(8)
C37 C 0.7614(14) 0.2641(8) 0.2211(8)
C38 C 0.8114(14) 0.2109(8) 0.2533(8)
C39 C 0.9151(14) 0.1794(8) 0.2291(8)
C40 C 0.9740(16) 0.1986(9) 0.1760(9)
C41 C 0.9340(15) 0.2510(8) 0.1472(8)
C42 C 0.8262(14) 0.2843(8) 0.1705(8)
C43 C 0.6879(13) 0.3674(7) 0.1615(7)
C44 C 0.6524(13) 0.4299(8) 0.1360(7)
C45 C 0.6829(14) 0.5160(8) 0.0772(8)
C46 C 0.7564(15) 0.5485(9) 0.0341(8)
C47 C 0.7224(14) 0.6081(8) 0.0149(8)
C48 C 0.6123(14) 0.6356(8) 0.0356(7)
C49 C 0.5360(14) 0.6071(8) 0.0777(8)
C50 C 0.5722(14) 0.5441(8) 0.0987(8)
C51 C 0.4971(13) 0.5089(7) 0.1389(7)
C52 C 0.3168(14) 0.5133(8) 0.2005(8)
C53 C 0.1830(15) 0.5366(8) 0.2082(8)
C54 C 0.1759(15) 0.5267(8) 0.2841(8)
C55 C 0.2613(13) 0.4690(8) 0.2885(7)
C56 C 0.2604(14) 0.4256(8) 0.3333(8)
C57 C 0.3413(14) 0.3764(8) 0.3402(8)
C58 C 0.3441(15) 0.3335(8) 0.3954(8)
C59 C 0.4083(15) 0.2670(8) 0.3567(8)
C60 C 0.4898(14) 0.3019(8) 0.3116(8)
C61 C 0.1750(19) 0.6142(10) 0.2021(10)
C62 C 0.0734(18) 0.4743(10) 0.1415(10)
C63 C 0.2463(16) 0.5997(9) 0.3507(9)
C64 C 0.0259(17) 0.4994(9) 0.2894(9)
C65 C 0.2027(16) 0.3082(9) 0.4077(9)
C66 C 0.4380(17) 0.3897(9) 0.4690(9)
C67 C 0.3022(16) 0.2004(9) 0.2989(9)
C68 C 0.4980(16) 0.2374(9) 0.4090(9)
C69 C 0.6040(15) 0.4905(8) 0.3089(8)
C70 C 0.3463(14) 0.3253(8) 0.1479(8)
H34 H 0.7686 0.1963 0.2953
H35 H 0.9517 0.1379 0.2525
H36 H 1.0532 0.1710 0.1565
H37 H 0.9836 0.2678 0.1071
H38 H 0.8414 0.5251 0.0166
H39 H 0.7818 0.6333 -0.0171
H40 H 0.5856 0.6824 0.0186
H41 H 0.4519 0.6312 0.0945
H42 H 0.1897 0.4321 0.3694
H43 H 0.1937 0.6162 0.1486
H44 H 0.0736 0.6244 0.2057
H45 H 0.2517 0.6581 0.2482
H46 H -0.0264 0.4851 0.1464
H47 H 0.0937 0.4768 0.0893
H48 H 0.0815 0.4191 0.1472
H49 H 0.1901 0.6441 0.3481
H50 H 0.2478 0.5885 0.4022
H51 H 0.3505 0.6188 0.3464
H52 H 0.0275 0.4878 0.3415
H53 H -0.0302 0.5435 0.2874
H54 H -0.0243 0.4465 0.2419
H55 H 0.2111 0.2804 0.4493
H56 H 0.1604 0.3588 0.4269
H57 H 0.1355 0.2686 0.3548
H58 H 0.3955 0.4391 0.4879
H59 H 0.4462 0.3608 0.5104
H60 H 0.5386 0.4063 0.4595
H61 H 0.3545 0.1599 0.2661
H62 H 0.2397 0.1718 0.3262
H63 H 0.2403 0.2218 0.2612
H64 H 0.4334 0.2088 0.4366
H65 H 0.5482 0.1970 0.3764
H66 H 0.5733 0.2858 0.4509
Co2 Co 0.51990(20) 0.59168(11) 0.77079(11)
N11 N 0.3814(11) 0.6495(6) 0.7889(6)
N12 N 0.4579(11) 0.5463(6) 0.8400(6)
N13 N 0.6539(11) 0.5327(6) 0.7591(6)
N14 N 0.5657(11) 0.6396(6) 0.7019(7)
N15 N 0.2113(12) 0.6629(6) 0.8613(6)
N16 N 0.2793(11) 0.5432(6) 0.9039(6)
N17 N 0.6144(11) 0.4652(7) 0.8437(7)
N18 N 0.4114(11) 0.7250(7) 0.7119(6)
N19 N 0.3284(15) 0.4554(8) 0.6456(8)
N20 N 0.7319(14) 0.7221(7) 0.8949(7)
C36 C 0.3464(14) 0.7022(8) 0.7595(8)
C37 C 0.2386(14) 0.7359(8) 0.7789(8)
C38 C 0.1886(14) 0.7891(8) 0.7467(8)
C39 C 0.0849(14) 0.8206(8) 0.7709(8)
C40 C 0.0260(16) 0.8014(9) 0.8240(9)
C41 C 0.0660(15) 0.7490(8) 0.8528(8)
C42 C 0.1738(14) 0.7157(8) 0.8295(8)
C43 C 0.3121(13) 0.6326(7) 0.8385(7)
C44 C 0.3476(13) 0.5701(8) 0.8640(7)
C45 C 0.3171(14) 0.4840(8) 0.9228(8)
C46 C 0.2436(15) 0.4515(9) 0.9659(8)
C47 C 0.2776(14) 0.3919(8) 0.9851(8)
C48 C 0.3877(14) 0.3644(8) 0.9644(7)
C49 C 0.4640(14) 0.3929(8) 0.9223(8)
C50 C 0.4278(14) 0.4559(8) 0.9013(8)
C51 C 0.5029(13) 0.4911(7) 0.8611(7)
C52 C 0.6832(14) 0.4867(8) 0.7995(8)
C53 C 0.8170(15) 0.4634(8) 0.7918(8)
C54 C 0.8241(15) 0.4733(8) 0.7159(8)
C55 C 0.7387(13) 0.5310(8) 0.7115(7)
C56 C 0.7396(14) 0.5744(8) 0.6667(8)
C57 C 0.6587(14) 0.6236(8) 0.6598(8)
C58 C 0.6559(15) 0.6665(8) 0.6046(8)
C59 C 0.5917(15) 0.7330(8) 0.6433(8)
C60 C 0.5102(14) 0.6981(8) 0.6884(8)
C61 C 0.8250(19) 0.3858(10) 0.7979(10)
C62 C 0.9266(18) 0.5257(10) 0.8585(10)
C63 C 0.7537(16) 0.4003(9) 0.6493(9)
C64 C 0.9741(17) 0.5006(9) 0.7106(9)
C65 C 0.7973(16) 0.6918(9) 0.5923(9)
C66 C 0.5620(17) 0.6103(9) 0.5310(9)
C67 C 0.6978(16) 0.7996(9) 0.7011(9)
C68 C 0.5020(16) 0.7626(9) 0.5910(9)
C69 C 0.3960(15) 0.5095(8) 0.6911(8)
C70 C 0.6537(14) 0.6747(8) 0.8521(8)
H34 H 0.2314 0.8037 0.7047
H35 H 0.0483 0.8621 0.7475
H36 H -0.0532 0.8290 0.8435
H37 H 0.0164 0.7322 0.8929
H38 H 0.1586 0.4749 0.9834
H39 H 0.2182 0.3667 1.0171
H40 H 0.4144 0.3176 0.9814
H41 H 0.5481 0.3688 0.9055
H42 H 0.8103 0.5679 0.6306
H43 H 0.8063 0.3838 0.8514
H44 H 0.9264 0.3756 0.7943
H45 H 0.7483 0.3419 0.7518
H46 H 1.0264 0.5149 0.8536
H47 H 0.9063 0.5232 0.9107
H48 H 0.9185 0.5809 0.8528
H49 H 0.8099 0.3559 0.6519
H50 H 0.7522 0.4115 0.5978
H51 H 0.6495 0.3812 0.6536
H52 H 0.9725 0.5122 0.6585
H53 H 1.0302 0.4565 0.7126
H54 H 1.0243 0.5535 0.7581
H55 H 0.7889 0.7196 0.5507
H56 H 0.8396 0.6412 0.5731
H57 H 0.8645 0.7314 0.6452
H58 H 0.6045 0.5609 0.5121
H59 H 0.5538 0.6392 0.4896
H60 H 0.4614 0.5937 0.5405
H61 H 0.6455 0.8401 0.7339
H62 H 0.7603 0.8282 0.6738
H63 H 0.7597 0.7782 0.7388
H64 H 0.5666 0.7912 0.5634
H65 H 0.4518 0.8030 0.6236
H66 H 0.4267 0.7142 0.5491
O1 O 0.2078(15) 0.6790(8) 0.0365(8)
O1 O 0.7922(15) 0.3210(8) 0.9635(8)
O2 O 0.8866(20) 0.3689(11) 0.4609(11)
C71 C 0.9219(21) 0.5203(12) 0.4682(12)
C72 C 0.8604(24) 0.4268(14) 0.4422(13)
O2 O 0.1134(20) 0.6311(11) 0.5391(11)
C71 C 0.0781(21) 0.4797(12) 0.5318(12)
C72 C 0.1396(24) 0.5732(14) 0.5578(13)

#END
