./KACTEN_from_POSCAR.cif_generated_by_CrystalShift
_symmetry_cell_setting triclinic
_symmetry_space_group_name_H-M 'P 1'
loop_
_symmetry_equiv_pos_site_id
_symmetry_equiv_pos_as_xyz
1 x,y,z
_cell_length_a 10.211000
_cell_length_b 18.785000
_cell_length_c 19.262000
_cell_angle_alpha 107.800000
_cell_angle_beta 100.140000
_cell_angle_gamma 98.960000
_cell_volume 3375.227865
loop_
_atom_site_label
_atom_site_type_symbol
_atom_site_fract_x
_atom_site_fract_y
_atom_site_fract_z
H1 H 0.426700 0.714200 0.549100
H2 H 0.451800 0.803000 0.623600
H3 H 0.566600 0.791200 0.563400
H4 H 0.759700 0.778200 0.738800
H5 H 0.760300 0.828200 0.673800
H6 H 0.645500 0.840100 0.733900
H7 H 0.461400 0.593700 0.540500
H8 H 0.553800 0.639200 0.489600
H9 H 0.604500 0.560900 0.512100
H10 H 0.864500 0.731400 0.645200
H11 H 0.839600 0.641200 0.573100
H12 H 0.048300 0.862100 0.747500
H13 H 0.573300 0.285800 0.450900
H14 H 0.548200 0.197000 0.376400
H15 H 0.433400 0.208800 0.436600
H16 H 0.240300 0.221800 0.261200
H17 H 0.239700 0.171800 0.326200
H18 H 0.354500 0.159900 0.266100
H19 H 0.538600 0.406300 0.459500
H20 H 0.446200 0.360800 0.510400
H21 H 0.395500 0.439100 0.487900
H22 H 0.135500 0.268600 0.354800
H23 H 0.160400 0.358800 0.426900
H24 H 0.211100 0.280400 0.449300
H25 H -0.024300 0.446500 0.241900
H26 H -0.030200 0.543500 0.287400
H27 H 0.027500 0.487800 0.341500
H28 H 0.350500 0.618800 0.346400
H29 H 0.247800 0.588500 0.402200
H30 H 0.190100 0.644100 0.348100
H31 H 0.081500 0.419100 0.147200
H32 H 0.093700 0.476800 0.089300
H33 H -0.026400 0.485100 0.146400
H34 H 0.251700 0.658100 0.248200
H35 H 0.073600 0.624400 0.205700
H36 H 0.193700 0.616200 0.148600
H37 H 0.189700 0.432100 0.369400
H38 H 0.451900 0.631200 0.094500
H39 H 0.585600 0.682400 0.018600
H40 H 0.781800 0.633300 -0.017100
H41 H 0.841400 0.525100 0.016600
H42 H 0.983600 0.267800 0.107100
H43 H 1.053200 0.171000 0.156500
H44 H 0.951700 0.137900 0.252500
H45 H 0.768600 0.196300 0.295300
H46 H -0.053200 0.829000 0.843500
H47 H 0.580900 0.126200 0.545200
H48 H 0.754700 0.071400 0.484000
H49 H 0.866000 -0.017900 0.523500
H50 H 0.801900 -0.063500 0.628000
H51 H 0.645800 -0.152400 0.878900
H52 H 0.597900 -0.182100 0.984800
H53 H 0.373300 -0.141400 1.027300
H54 H 0.257900 -0.053900 0.976600
H55 H -0.008400 0.212200 0.756000
H56 H -0.060100 0.102500 0.989500
H57 H 0.064300 0.045800 0.989800
H58 H 0.115100 0.145200 1.005000
H59 H -0.069300 -0.047900 0.860000
H60 H -0.193700 0.008700 0.859700
H61 H -0.112400 -0.014400 0.784100
H62 H 0.047900 0.265600 0.899500
H63 H -0.003400 0.228800 0.967800
H64 H 0.157800 0.220500 0.946200
H65 H -0.217000 0.150100 0.874500
H66 H -0.165600 0.186900 0.806200
H67 H -0.206100 0.085700 0.786800
H68 H 0.120000 0.336700 0.656700
H69 H 0.019300 0.294300 0.706400
H70 H 0.194200 0.339100 0.748300
H71 H -0.049700 0.174300 0.599400
H72 H 0.051000 0.216800 0.549700
H73 H 0.078600 0.130700 0.564000
H74 H 0.509000 0.299600 0.705700
H75 H 0.387300 0.358100 0.709100
H76 H 0.383800 0.291900 0.760000
H77 H 0.306700 0.303600 0.576600
H78 H 0.428500 0.245100 0.573200
H79 H 0.249900 0.200800 0.533500
H80 H 0.016400 0.732200 0.892900
H81 H 0.788900 0.719600 0.550700
H82 H 1.024300 0.553500 0.758100
H83 H 1.030200 0.456500 0.712600
H84 H 0.972500 0.512200 0.658500
H85 H 0.649500 0.381200 0.653600
H86 H 0.752200 0.411500 0.597800
H87 H 0.809900 0.355900 0.651900
H88 H 0.918500 0.580900 0.852800
H89 H 0.906300 0.523200 0.910700
H90 H 1.026400 0.514900 0.853600
H91 H 0.158600 0.474900 0.983400
H92 H 0.218200 0.366700 1.017100
H93 H 0.414400 0.317600 0.981400
H94 H 0.548100 0.368800 0.905500
H95 H 0.810300 0.567900 0.630600
H96 H 0.806300 0.383800 0.851400
H97 H 0.926400 0.375600 0.794300
H98 H 0.748300 0.341900 0.751800
H99 H 0.750100 0.799200 0.466500
H100 H 0.571500 0.754900 0.426800
H101 H 0.693300 0.696400 0.423400
H102 H 0.616200 0.708100 0.240000
H103 H 0.612700 0.641900 0.290900
H104 H 0.491000 0.700400 0.294300
H105 H 0.921400 0.869300 0.436000
H106 H 0.949000 0.783200 0.450300
H107 H 1.049700 0.825700 0.400600
H108 H 0.805800 0.660900 0.251700
H109 H 0.980700 0.705700 0.293600
H110 H 0.880000 0.663300 0.343300
H111 H 1.206100 0.914300 0.213200
H112 H 1.165600 0.813100 0.193800
H113 H 1.217000 0.849900 0.125500
H114 H 0.842200 0.779500 0.053800
H115 H 1.003400 0.771200 0.032200
H116 H 0.952100 0.734400 0.100500
H117 H 1.112400 1.014400 0.215900
H118 H 1.193700 0.991300 0.140300
H119 H 1.069300 1.047900 0.140000
H120 H 0.884900 0.854800 -0.005000
H121 H 0.231400 0.803700 0.704700
H122 H 0.935700 0.954200 0.010200
H123 H 1.060100 0.897500 0.010500
H124 H 1.008400 0.787800 0.244000
H125 H 0.742100 1.053900 0.023400
H126 H 0.419100 0.873800 0.454800
H127 H 0.245300 0.928600 0.516000
H128 H 0.134000 1.017900 0.476500
H129 H 0.198100 1.063500 0.372000
H130 H 0.354200 1.152400 0.121100
H131 H 0.402100 1.182100 0.015200
H132 H 0.626700 1.141400 -0.027300
C133 C 0.826500 1.007800 0.320000
C134 C 0.566900 0.841300 0.168400
C135 C 0.675300 0.751700 0.422100
C136 C 0.594000 0.696600 0.289300
C137 C 0.880000 0.694800 0.304400
C138 C 1.160900 0.858300 0.169500
C139 C 0.948000 0.779800 0.076400
C140 C 1.098400 1.000500 0.155500
C141 C 0.964400 0.906700 0.025600
C142 C 0.666400 0.837000 0.339600
C143 C 0.703600 0.766500 0.354200
C144 C 0.843600 0.766600 0.336700
C145 C 0.842000 0.817700 0.289000
C146 C 0.929900 0.821000 0.243000
C147 C 0.925400 0.863300 0.194900
C148 C 1.010400 0.858000 0.137300
C149 C 0.984900 0.926700 0.111900
C150 C 0.858600 0.941600 0.137200
C151 C 0.683500 1.009400 0.139300
C152 C 0.616200 1.055800 0.103900
C153 C 0.659600 1.075400 0.045400
C154 C 0.592400 1.123100 0.016500
C155 C 0.485000 1.147600 0.042200
C156 C 0.438600 1.130700 0.100400
C157 C 0.507500 1.083700 0.131400
C158 C 0.530500 1.022200 0.215300
C159 C 0.860400 0.426800 0.442200
C160 C 0.491200 1.001000 0.278400
C161 C 0.359700 0.998900 0.362900
C162 C 0.251400 1.025100 0.392500
C163 C 0.212700 0.997200 0.449900
C164 C 0.275100 0.947400 0.471500
C165 C 0.376000 0.917800 0.439100
C166 C 0.420500 0.946800 0.384000
C167 C 0.523500 0.919700 0.348000
C168 C 0.078100 0.479700 0.531800
C169 C 0.173500 -0.007800 0.680000
C170 C 0.653600 0.297800 0.240500
C171 C 0.761400 0.264100 0.221100
C172 C 0.811400 0.210900 0.253300
C173 C 0.915100 0.179400 0.229100
C174 C 0.974000 0.198600 0.176000
C175 C 0.934000 0.251000 0.147200
C176 C 0.826200 0.284300 0.170500
C177 C 0.687900 0.367400 0.161500
C178 C 0.652400 0.429900 0.136000
C179 C 0.682900 0.516000 0.077200
C180 C 0.756400 0.548500 0.034100
C181 C 0.722400 0.608100 0.014900
C182 C 0.612300 0.635600 0.035600
C183 C 0.536000 0.607100 0.077700
C184 C 0.572200 0.544100 0.098700
C185 C 0.497100 0.508900 0.138900
C186 C 0.316800 0.513300 0.200500
C187 C 0.183000 0.536600 0.208200
C188 C 0.175900 0.526700 0.284100
C189 C 0.261300 0.469000 0.288500
C190 C 0.260400 0.425600 0.333300
C191 C 0.341300 0.376400 0.340200
C192 C 0.344100 0.333500 0.395400
C193 C 0.408300 0.267000 0.356700
C194 C 0.489800 0.301900 0.311600
C195 C 0.175000 0.614200 0.202100
C196 C 0.073400 0.474300 0.141500
C197 C 0.246300 0.599700 0.350700
C198 C 0.025900 0.499400 0.289400
C199 C 0.202700 0.308200 0.407700
C200 C 0.438000 0.389700 0.469000
C201 C 0.302200 0.200400 0.298900
C202 C 0.498000 0.237400 0.409000
C203 C 0.604000 0.490500 0.308900
C204 C 0.346300 0.325300 0.147900
C205 C 0.433100 0.158700 0.831600
C206 C 0.324700 0.248300 0.577900
C207 C 0.406000 0.303400 0.710700
C208 C 0.051400 0.185000 0.588500
C209 C 0.120000 0.305200 0.695600
C210 C -0.160900 0.141700 0.830500
C211 C 0.052000 0.220200 0.923600
C212 C -0.098400 -0.000500 0.844500
C213 C 0.035600 0.093300 0.974400
C214 C 0.333600 0.163000 0.660400
C215 C 0.296400 0.233500 0.645800
C216 C 0.156400 0.233400 0.663300
C217 C 0.158000 0.182300 0.711000
C218 C 0.070100 0.179000 0.757000
C219 C 0.074600 0.136700 0.805100
C220 C -0.010400 0.142000 0.862700
C221 C 0.015100 0.073300 0.888100
C222 C 0.141400 0.058400 0.862800
C223 C 0.316500 -0.009400 0.860700
C224 C 0.383800 -0.055800 0.896100
C225 C 0.340400 -0.075400 0.954600
C226 C 0.407600 -0.123100 0.983500
C227 C 0.515000 -0.147600 0.957800
C228 C 0.561400 -0.130700 0.899600
C229 C 0.492500 -0.083700 0.868600
C230 C 0.469500 -0.022200 0.784700
C231 C 0.508800 -0.001000 0.721600
C232 C 0.640300 0.001100 0.637100
C233 C 0.748600 -0.025100 0.607500
C234 C 0.787300 0.002800 0.550100
C235 C 0.724900 0.052600 0.528500
C236 C 0.624000 0.082200 0.560900
C237 C 0.579500 0.053200 0.616000
C238 C 0.921900 0.520300 0.468200
C239 C 0.476500 0.080300 0.652000
C240 C 0.948600 0.815000 0.411500
C241 C 0.653700 0.674700 0.852100
C242 C 0.396000 0.509500 0.691100
C243 C 0.502000 0.762600 0.591000
C244 C 0.697800 0.799600 0.701100
C245 C 0.562000 0.610300 0.531000
C246 C 0.797300 0.691800 0.592300
C247 C 0.974100 0.500600 0.710600
C248 C 0.753700 0.400300 0.649300
C249 C 0.346400 0.702200 0.759500
C250 C 0.238600 0.735900 0.778900
C251 C 0.188600 0.789100 0.746700
C252 C 0.084900 0.820600 0.770900
C253 C 0.026000 0.801400 0.824000
C254 C 0.066000 0.749000 0.852800
C255 C 0.173800 0.715700 0.829500
C256 C 0.312100 0.632600 0.838500
C257 C 0.347600 0.570100 0.864000
C258 C 0.317100 0.484000 0.922800
C259 C 0.243600 0.451500 0.965900
C260 C 0.277600 0.391900 0.985100
C261 C 0.387700 0.364400 0.964400
C262 C 0.464000 0.392900 0.922300
C263 C 0.427800 0.455900 0.901300
C264 C 0.502900 0.491100 0.861100
C265 C 0.683200 0.486700 0.799500
C266 C 0.817000 0.463400 0.791800
C267 C 0.824100 0.473300 0.715900
C268 C 0.738700 0.531000 0.711500
C269 C 0.739600 0.574400 0.666700
C270 C 0.658700 0.623600 0.659800
C271 C 0.655900 0.666500 0.604600
C272 C 0.591700 0.733000 0.643300
C273 C 0.510200 0.698100 0.688400
C274 C 0.825000 0.385800 0.797900
C275 C 0.926600 0.525700 0.858500
C276 C 0.139600 0.573200 0.557800
N277 N 0.328400 0.455400 0.645600
N278 N 0.411400 0.725000 0.711900
N279 N 0.614400 0.465200 0.843700
N280 N 0.279300 0.543200 0.903900
N281 N 0.211300 0.662900 0.861300
N282 N 0.565700 0.639600 0.701900
N283 N 0.653900 0.532700 0.759100
N284 N 0.457900 0.546300 0.840000
N285 N 0.381400 0.649500 0.788900
N286 N 0.268100 0.277900 0.105100
N287 N 0.671600 0.544600 0.354400
N288 N 0.588600 0.275000 0.288100
N289 N 0.385600 0.534800 0.156300
N290 N 0.720700 0.456800 0.096100
N291 N 0.788700 0.337100 0.138700
N292 N 0.434300 0.360400 0.298100
N293 N 0.346100 0.467300 0.240900
N294 N 0.542100 0.453700 0.160000
N295 N 0.618600 0.350500 0.211100
N296 N 0.906200 1.058300 0.368300
N297 N 0.485800 0.793800 0.123300
N298 N 0.571700 0.862700 0.365600
N299 N 0.791800 0.985700 0.113200
N300 N 0.469700 1.066100 0.189700
N301 N 0.394000 1.026300 0.308800
N302 N 0.744100 0.856500 0.295900
N303 N 0.833900 0.907400 0.188500
N304 N 0.638400 0.991000 0.193500
N305 N 0.557800 0.947400 0.296300
N306 N 0.093800 -0.058300 0.631700
N307 N 0.514200 0.206200 0.876700
N308 N 0.428300 0.137300 0.634400
N309 N 0.208200 0.014300 0.886800
N310 N 0.530300 -0.066100 0.810300
N311 N 0.606000 -0.026300 0.691200
N312 N 0.255900 0.143500 0.704100
N313 N 0.166100 0.092600 0.811500
N314 N 0.361600 0.009000 0.806500
N315 N 0.442200 0.052600 0.703700
N316 N 0.731900 0.722100 0.894900
O317 O 0.792200 0.321000 0.963500
O318 O 0.886600 0.368900 0.460900
O319 O 0.113400 0.631100 0.539100
O320 O 0.207800 0.679000 0.036500
Co321 Co 0.480100 0.408320 0.229210
Co322 Co 0.699480 0.924880 0.244460
Co323 Co 0.300520 0.075120 0.755540
Co324 Co 0.519900 0.591680 0.770790

#END
