./KACTIR_from_POSCAR.cif_generated_by_CrystalShift
_symmetry_cell_setting triclinic
_symmetry_space_group_name_H-M 'P 1'
loop_
_symmetry_equiv_pos_site_id
_symmetry_equiv_pos_as_xyz
1 x,y,z
_cell_length_a 18.487000
_cell_length_b 28.175000
_cell_length_c 19.434000
_cell_angle_alpha 90.000000
_cell_angle_beta 91.570000
_cell_angle_gamma 90.000000
_cell_volume 10118.811336
loop_
_atom_site_label
_atom_site_type_symbol
_atom_site_fract_x
_atom_site_fract_y
_atom_site_fract_z
C1 C 0.744500 0.349700 0.249800
C2 C 0.864600 0.361800 0.207000
C3 C 0.839700 0.398000 0.169300
C4 C 0.764500 0.409800 0.172800
C5 C 0.736500 0.448400 0.130000
C6 C 0.779200 0.474700 0.085600
C7 C 0.753000 0.507400 0.049700
C8 C 0.679000 0.519200 0.049600
C9 C 0.633400 0.491500 0.096300
C10 C 0.556200 0.499700 0.101200
C11 C 1.011200 0.716900 0.217300
C12 C 1.025800 0.703100 0.148600
C13 C 1.020000 0.654000 0.130000
C14 C 1.019100 0.770300 0.237000
C15 C 0.948000 0.785100 0.250000
C16 C 1.060000 0.775700 0.301800
C17 C 1.040000 0.802800 0.181000
C18 C 1.028900 0.638300 0.052600
C19 C 1.077000 0.595800 0.050700
C20 C 1.058000 0.680300 0.006800
C21 C 0.949000 0.624700 0.028100
C22 C 1.167100 0.591700 0.251700
C23 C 1.158100 0.546200 0.219600
C24 C 1.086100 0.521600 0.214700
C25 C 1.238500 0.617600 0.251100
C26 C 1.296700 0.594800 0.206900
C27 C 1.264600 0.622600 0.326800
C28 C 1.226200 0.666800 0.224000
C29 C 1.089600 0.471400 0.185500
C30 C 1.112000 0.439800 0.247000
C31 C 1.143900 0.465100 0.125900
C32 C 1.019000 0.457600 0.163000
C33 C 0.884700 0.659400 0.411500
C34 C 0.942200 0.680800 0.452500
C35 C 1.014100 0.672000 0.440800
C36 C 0.805000 0.670300 0.427100
C37 C 0.795200 0.697400 0.495800
C38 C 0.768400 0.621500 0.437000
C39 C 0.772500 0.692300 0.363100
C40 C 1.071900 0.695200 0.490000
C41 C 1.080400 0.661900 0.551000
C42 C 1.051500 0.745400 0.508900
C43 C 1.145600 0.698300 0.453600
C44 C 0.849700 0.650400 0.187300
C45 C 0.780000 0.656500 0.153800
C46 C 0.728100 0.620700 0.160500
C47 C 0.744300 0.579500 0.199400
C48 C 0.813300 0.578100 0.231100
C49 C 0.831800 0.537500 0.277300
C50 C 0.778900 0.502200 0.287300
C51 C 0.796200 0.466500 0.332000
C52 C 0.865100 0.464000 0.365300
C53 C 0.914300 0.501600 0.351600
C54 C 0.986100 0.501900 0.385100
C55 C 1.012900 0.462700 0.421700
C56 C 1.080700 0.465600 0.456400
C57 C 1.123300 0.508100 0.449200
C58 C 1.091900 0.544300 0.410100
C59 C 0.526000 0.540700 0.071800
C60 C 0.446000 0.545000 0.083000
C61 C 0.409700 0.512300 0.111600
C62 C 0.446900 0.472200 0.143200
C63 C 0.579000 0.375100 0.488100
C64 C 0.674000 0.338800 0.430000
C65 C 0.699000 0.410200 0.485100
C66 C 0.640100 0.382800 0.446600
C67 C 0.476300 0.536300 0.341000
C68 C 0.574000 0.567800 0.277000
C69 C 0.488800 0.216900 0.782700
C70 C 0.474200 0.203100 0.851400
C71 C 0.480000 0.154000 0.870000
C72 C 0.480900 0.270300 0.763000
C73 C 0.552000 0.285100 0.750000
C74 C 0.440000 0.275700 0.698200
C75 C 0.460000 0.302800 0.819000
C76 C 0.471100 0.138300 0.947400
C77 C 0.423000 0.095800 0.949300
C78 C 0.442000 0.180300 0.993200
C79 C 0.551000 0.124700 0.971900
C80 C 0.332900 0.091700 0.748300
C81 C 0.341900 0.046200 0.780400
C82 C 0.413900 0.021600 0.785300
C83 C 0.261500 0.117600 0.748900
C84 C 0.203300 0.094800 0.793100
C85 C 0.235400 0.122600 0.673200
C86 C 0.273800 0.166800 0.776000
C87 C 0.410400 -0.028600 0.814500
C88 C 0.388000 -0.060200 0.753000
C89 C 0.356100 -0.034900 0.874100
C90 C 0.481000 -0.042400 0.837000
C91 C 0.615300 0.159400 0.588500
C92 C 0.557800 0.180800 0.547500
C93 C 0.485900 0.172000 0.559200
C94 C 0.695000 0.170300 0.572900
C95 C 0.704800 0.197400 0.504200
C96 C 0.731600 0.121500 0.563000
C97 C 0.727500 0.192300 0.636900
C98 C 0.428100 0.195200 0.510000
C99 C 0.419600 0.161900 0.449000
C100 C 0.448500 0.245400 0.491100
C101 C 0.354400 0.198300 0.546400
C102 C 0.650300 0.150400 0.812700
C103 C 0.720000 0.156500 0.846200
C104 C 0.771900 0.120700 0.839500
C105 C 0.755700 0.079500 0.800600
C106 C 0.686700 0.078100 0.768900
C107 C 0.668200 0.037500 0.722700
C108 C 0.721100 0.002200 0.712700
C109 C 0.703800 -0.033500 0.668000
C110 C 0.634900 -0.036000 0.634700
C111 C 0.585700 0.001600 0.648400
C112 C 0.513900 0.001900 0.614900
C113 C 0.487100 -0.037300 0.578300
C114 C 0.419300 -0.034400 0.543600
C115 C 0.376700 0.008100 0.550800
C116 C 0.408100 0.044300 0.589900
C117 C 0.582000 0.559000 0.403000
C118 C 0.551800 0.538500 0.338400
C119 C 0.618400 0.412000 0.380300
C120 C 0.595600 0.458200 0.384900
C121 C 0.580500 0.487200 0.328400
C122 C 0.733000 0.331000 0.025000
C123 C 0.621000 0.341000 -0.037100
C124 C 0.651000 0.265400 -0.014400
C125 C 0.659000 0.314800 0.013800
C126 C 0.569000 0.195300 0.188000
C127 C -0.011200 0.283100 0.782700
C128 C -0.025800 0.296900 0.851400
C129 C -0.020000 0.346000 0.870000
C130 C -0.019100 0.229700 0.763000
C131 C 0.052000 0.214900 0.750000
C132 C -0.060000 0.224300 0.698200
C133 C -0.040000 0.197200 0.819000
C134 C -0.028900 0.361700 0.947400
C135 C -0.077000 0.404200 0.949300
C136 C -0.058000 0.319700 0.993200
C137 C 0.051000 0.375300 0.971900
C138 C -0.167100 0.408300 0.748300
C139 C -0.158100 0.453800 0.780400
C140 C -0.086100 0.478400 0.785300
C141 C -0.238500 0.382400 0.748900
C142 C -0.296700 0.405200 0.793100
C143 C -0.264600 0.377400 0.673200
C144 C -0.226200 0.333200 0.776000
C145 C -0.089600 0.528600 0.814500
C146 C -0.112000 0.560200 0.753000
C147 C -0.143900 0.534900 0.874100
C148 C -0.019000 0.542400 0.837000
C149 C 0.115300 0.340600 0.588500
C150 C 0.057800 0.319200 0.547500
C151 C -0.014100 0.328000 0.559200
C152 C 0.195000 0.329700 0.572900
C153 C 0.204800 0.302600 0.504200
C154 C 0.231600 0.378500 0.563000
C155 C 0.227500 0.307700 0.636900
C156 C -0.071900 0.304800 0.510000
C157 C -0.080400 0.338100 0.449000
C158 C -0.051500 0.254600 0.491100
C159 C -0.145600 0.301700 0.546400
C160 C 0.150300 0.349600 0.812700
C161 C 0.220000 0.343500 0.846200
C162 C 0.271900 0.379300 0.839500
C163 C 0.255700 0.420500 0.800600
C164 C 0.186700 0.421900 0.768900
C165 C 0.168200 0.462500 0.722700
C166 C 0.221100 0.497800 0.712700
C167 C 0.203800 0.533500 0.668000
C168 C 0.134900 0.536000 0.634700
C169 C 0.085700 0.498400 0.648400
C170 C 0.013900 0.498100 0.614900
C171 C -0.012900 0.537300 0.578300
C172 C -0.080700 0.534400 0.543600
C173 C -0.123300 0.491900 0.550800
C174 C -0.091900 0.455700 0.589900
C175 C 0.637000 0.228900 0.288000
C176 C 0.507000 0.239300 0.274000
C177 C 0.577100 0.235100 0.239100
C178 C 0.627100 0.323300 0.084600
C179 C 0.617500 0.278300 0.128000
C180 C 0.591800 0.281300 0.200000
C181 C 0.414000 0.333700 0.024000
C182 C 0.303000 0.351800 0.076600
C183 C 0.379000 0.279500 0.102400
C184 C 0.378000 0.329200 0.084300
C185 C 0.511200 0.783100 0.217300
C186 C 0.525800 0.796900 0.148600
C187 C 0.520000 0.846000 0.130000
C188 C 0.519100 0.729700 0.237000
C189 C 0.448000 0.714900 0.250000
C190 C 0.560000 0.724300 0.301800
C191 C 0.540000 0.697200 0.181000
C192 C 0.528900 0.861700 0.052600
C193 C 0.577000 0.904200 0.050700
C194 C 0.558000 0.819700 0.006800
C195 C 0.449000 0.875300 0.028100
C196 C 0.667100 0.908300 0.251700
C197 C 0.658100 0.953800 0.219600
C198 C 0.586100 0.978400 0.214700
C199 C 0.738500 0.882400 0.251100
C200 C 0.796700 0.905200 0.206900
C201 C 0.764600 0.877400 0.326800
C202 C 0.726200 0.833200 0.224000
C203 C 0.589600 1.028600 0.185500
C204 C 0.612000 1.060200 0.247000
C205 C 0.643900 1.034900 0.125900
C206 C 0.519000 1.042400 0.163000
C207 C 0.384700 0.840600 0.411500
C208 C 0.442200 0.819200 0.452500
C209 C 0.514100 0.828000 0.440800
C210 C 0.305000 0.829700 0.427100
C211 C 0.295200 0.802600 0.495800
C212 C 0.268400 0.878500 0.437000
C213 C 0.272500 0.807700 0.363100
C214 C 0.571900 0.804800 0.490000
C215 C 0.580400 0.838100 0.551000
C216 C 0.551500 0.754600 0.508900
C217 C 0.645600 0.801700 0.453600
C218 C 0.349700 0.849600 0.187300
C219 C 0.280000 0.843500 0.153800
C220 C 0.228100 0.879300 0.160500
C221 C 0.244300 0.920500 0.199400
C222 C 0.313300 0.921900 0.231100
C223 C 0.331800 0.962500 0.277300
C224 C 0.278900 0.997800 0.287300
C225 C 0.296200 1.033500 0.332000
C226 C 0.365100 1.036000 0.365300
C227 C 0.414300 0.998400 0.351600
C228 C 0.486100 0.998100 0.385100
C229 C 0.512900 1.037300 0.421700
C230 C 0.580700 1.034400 0.456400
C231 C 0.623300 0.991900 0.449200
C232 C 0.591900 0.955700 0.410100
C233 C 0.317000 0.340000 0.343000
C234 C 0.324000 0.422000 0.334000
C235 C 0.406000 0.383000 0.397900
C236 C 0.365700 0.383100 0.335800
C237 C 0.413500 0.354200 0.152600
C238 C 0.374500 0.361800 0.215700
C239 C 0.409200 0.383200 0.273700
C240 C 0.755500 0.849700 0.750200
C241 C 0.682900 0.836100 0.752700
C242 C 0.635400 0.861800 0.793000
C243 C -0.090800 0.116800 0.273700
C244 C -0.125500 0.138200 0.215700
C245 C -0.086500 0.145800 0.152600
C246 C -0.134300 0.116900 0.335800
C247 C -0.094000 0.117000 0.397900
C248 C -0.176000 0.078000 0.334000
C249 C -0.183000 0.160000 0.343000
C250 C -0.122000 0.170800 0.084300
C251 C -0.121000 0.220500 0.102400
C252 C -0.197000 0.148200 0.076600
C253 C -0.086000 0.166300 0.024000
C254 C 0.091800 0.218700 0.200000
C255 C 0.117500 0.221700 0.128000
C256 C 0.127100 0.176700 0.084600
C257 C 0.077100 0.264900 0.239100
C258 C 0.007000 0.260700 0.274000
C259 C 0.137000 0.271100 0.288000
C260 C 0.069000 0.304700 0.188000
C261 C 0.159000 0.185200 0.013800
C262 C 0.151000 0.234600 -0.014400
C263 C 0.121000 0.159000 -0.037100
C264 C 0.233000 0.169000 0.025000
C265 C 0.080500 0.012800 0.328400
C266 C 0.095600 0.041800 0.384900
C267 C 0.118400 0.088000 0.380300
C268 C 0.051800 -0.038500 0.338400
C269 C 0.082000 -0.059000 0.403000
C270 C 0.074000 -0.067800 0.277000
C271 C -0.023700 -0.036300 0.341000
C272 C 0.140100 0.117200 0.446600
C273 C 0.199000 0.089800 0.485100
C274 C 0.174000 0.161200 0.430000
C275 C 0.079000 0.124900 0.488100
C276 C -0.053100 0.027800 0.143200
C277 C -0.090300 -0.012300 0.111600
C278 C -0.054000 -0.045000 0.083000
C279 C 0.026000 -0.040700 0.071800
C280 C 0.056200 0.000300 0.101200
C281 C 0.133400 0.008500 0.096300
C282 C 0.179000 -0.019200 0.049600
C283 C 0.253000 -0.007400 0.049700
C284 C 0.279200 0.025300 0.085600
C285 C 0.236500 0.051600 0.130000
C286 C 0.264500 0.090200 0.172800
C287 C 0.339700 0.102000 0.169300
C288 C 0.364600 0.138200 0.207000
C289 C 0.317100 0.163900 0.247300
C290 C 0.244500 0.150300 0.249800
C291 C 0.660300 0.898000 0.830700
C292 C 0.735500 0.909800 0.827200
C293 C 0.763500 0.948400 0.870000
C294 C 0.720800 0.974700 0.914400
C295 C 0.747000 1.007400 0.950300
C296 C 0.821000 1.019200 0.950400
C297 C 0.866600 0.991500 0.903700
C298 C 0.943800 0.999700 0.898800
C299 C 0.974000 1.040700 0.928200
C300 C 1.054000 1.045000 0.917000
C301 C 0.590800 0.616800 0.726300
C302 C 0.625500 0.638200 0.784300
C303 C 0.586500 0.645800 0.847400
C304 C 0.634300 0.616900 0.664200
C305 C 0.594000 0.617000 0.602100
C306 C 0.676000 0.578000 0.666000
C307 C 0.683000 0.660000 0.657000
C308 C 0.622000 0.670800 0.915700
C309 C 0.621000 0.720500 0.897600
C310 C 0.697000 0.648200 0.923400
C311 C 0.586000 0.666300 0.976000
C312 C 0.408200 0.718700 0.800000
C313 C 0.382500 0.721700 0.872000
C314 C 0.372900 0.676700 0.915400
C315 C 0.422900 0.764900 0.760900
C316 C 0.493000 0.760700 0.726000
C317 C 0.363000 0.771100 0.712000
C318 C 0.431000 0.804700 0.812000
C319 C 0.341000 0.685200 0.986200
C320 C 0.349000 0.734600 1.014400
C321 C 0.379000 0.659000 1.037100
C322 C 0.267000 0.669000 0.975000
C323 C 0.419500 0.512800 0.671600
C324 C 0.404400 0.541800 0.615100
C325 C 0.381600 0.588000 0.619700
C326 C 0.448200 0.461500 0.661600
C327 C 0.418000 0.441000 0.597000
C328 C 0.426000 0.432200 0.723000
C329 C 0.523700 0.463700 0.659000
C330 C 0.359900 0.617200 0.553400
C331 C 0.301000 0.589800 0.514900
C332 C 0.326000 0.661200 0.570000
C333 C 0.421000 0.624900 0.511900
C334 C 0.553100 0.527800 0.856800
C335 C 0.590300 0.487700 0.888400
C336 C 0.554000 0.455000 0.917000
C337 C 0.474000 0.459300 0.928200
C338 C 0.443800 0.500300 0.898800
C339 C 0.366600 0.508500 0.903700
C340 C 0.321000 0.480800 0.950400
C341 C 0.247000 0.492600 0.950300
C342 C 0.220800 0.525300 0.914400
C343 C 0.263500 0.551600 0.870000
C344 C 0.235500 0.590200 0.827200
C345 C 0.160300 0.602000 0.830700
C346 C 0.135400 0.638200 0.793000
C347 C 0.182900 0.663900 0.752700
C348 C 0.255500 0.650300 0.750200
C349 C 1.090300 1.012300 0.888400
C350 C 1.053100 0.972200 0.856800
C351 C 0.921000 0.875100 0.511900
C352 C 0.826000 0.838800 0.570000
C353 C 0.801000 0.910200 0.514900
C354 C 0.859900 0.882800 0.553400
C355 C 1.023700 1.036300 0.659000
C356 C 0.926000 1.067800 0.723000
C357 C 0.918000 1.059000 0.597000
C358 C 0.948200 1.038500 0.661600
C359 C 1.090800 0.883200 0.726300
C360 C 1.125500 0.861800 0.784300
C361 C 1.086500 0.854200 0.847400
C362 C 1.134300 0.883100 0.664200
C363 C 1.094000 0.883000 0.602100
C364 C 1.176000 0.922000 0.666000
C365 C 1.183000 0.840000 0.657000
C366 C 1.122000 0.829200 0.915700
C367 C 1.121000 0.779500 0.897600
C368 C 1.197000 0.851800 0.923400
C369 C 1.086000 0.833700 0.976000
C370 C 0.908200 0.781300 0.800000
C371 C 0.882500 0.778300 0.872000
C372 C 0.872900 0.823300 0.915400
C373 C 0.922900 0.735100 0.760900
C374 C 0.993000 0.739300 0.726000
C375 C 0.863000 0.728900 0.712000
C376 C 0.931000 0.695300 0.812000
C377 C 0.841000 0.814800 0.986200
C378 C 0.849000 0.765400 1.014400
C379 C 0.879000 0.841000 1.037100
C380 C 0.767000 0.831000 0.975000
C381 C 0.919500 0.987200 0.671600
C382 C 0.904400 0.958200 0.615100
C383 C 0.881600 0.912000 0.619700
C384 C 0.817100 0.336100 0.247300
N385 N 0.835400 0.957900 0.864800
N386 N 0.980600 0.967500 0.866100
N387 N 0.863800 0.611200 0.224400
N388 N 0.897000 0.536900 0.308700
N389 N 1.024700 0.542100 0.380000
N390 N 0.636200 0.111200 0.775600
N391 N 0.603000 0.036900 0.691300
N392 N 0.475300 0.042100 0.620000
N393 N 0.136200 0.388800 0.775600
N394 N 0.279800 0.613500 0.788000
N395 N 0.335400 0.542100 0.864800
N396 N 0.480600 0.532500 0.866100
N397 N 0.103000 0.463100 0.691300
N398 N -0.024700 0.457900 0.620000
N399 N 0.363800 0.888800 0.224400
N400 N 0.397000 0.963100 0.308700
N401 N 0.524700 0.957900 0.380000
N402 N 0.720200 0.386500 0.212000
N403 N 0.664600 0.457900 0.135200
N404 N 0.220200 0.113500 0.212000
N405 N 0.164600 0.042100 0.135200
N406 N 0.019400 0.032500 0.133900
N407 N 0.519400 0.467500 0.133900
N408 N 0.779800 0.886500 0.788000
O409 O 0.478100 0.368700 0.139000
O410 O 0.582700 0.318600 0.229500
O411 O 0.620100 0.363400 0.105400
O412 O 0.586500 0.474600 0.265900
O413 O 0.623300 0.389100 0.326200
O414 O 0.991500 0.690200 0.265500
O415 O 1.004000 0.620300 0.170000
O416 O 0.526700 0.600700 0.726300
O417 O 0.123300 0.110900 0.326200
O418 O 0.086500 0.025400 0.265900
O419 O 0.120100 0.136600 0.105400
O420 O 0.082700 0.181400 0.229500
O421 O -0.021900 0.131300 0.139000
O422 O -0.026700 0.100700 0.273700
O423 O 1.115900 0.614700 0.281200
O424 O 0.521900 0.631300 0.861000
O425 O 0.417300 0.681400 0.770500
O426 O 0.379900 0.636600 0.894600
O427 O 0.537200 0.854400 0.394300
O428 O 0.394400 0.869100 0.363200
O429 O 0.531500 0.963700 0.238400
O430 O 0.615900 0.885300 0.281200
O431 O 0.504000 0.879700 0.170000
O432 O 0.491500 0.809800 0.265500
O433 O 1.031500 0.536300 0.238400
O434 O 0.413500 0.525400 0.734100
O435 O 0.376700 0.610900 0.673800
O436 O 0.473300 0.399300 0.273700
O437 O -0.037200 0.354400 0.605700
O438 O 0.105600 0.369100 0.636800
O439 O -0.031500 0.463700 0.761600
O440 O -0.115900 0.385300 0.718800
O441 O -0.004000 0.379700 0.830000
O442 O 0.008500 0.309800 0.734500
O443 O 0.894400 0.630900 0.363200
O444 O 1.026700 0.899300 0.726300
O445 O 1.021900 0.868700 0.861000
O446 O 0.917300 0.818600 0.770500
O447 O 0.462800 0.145600 0.605700
O448 O 0.605600 0.130900 0.636800
O449 O 0.468500 0.036300 0.761600
O450 O 0.384100 0.114700 0.718800
O451 O 0.496000 0.120300 0.830000
O452 O 0.508500 0.190200 0.734500
O453 O 1.037200 0.645600 0.394300
O454 O 0.879900 0.863400 0.894600
O455 O 0.913500 0.974600 0.734100
O456 O 0.876700 0.889100 0.673800
Eu457 Eu 0.009730 0.391570 0.708850
Eu458 Eu 0.490270 0.891570 0.291150
Eu459 Eu 0.078580 0.100610 0.208440
Eu460 Eu 0.421420 0.600610 0.791560
Eu461 Eu 0.578580 0.399390 0.208440
Eu462 Eu 0.921420 0.899390 0.791560
Eu463 Eu 0.509730 0.108430 0.708850
Eu464 Eu 0.990270 0.608430 0.291150

#END
