./KACVEQ_from_POSCAR.cif_generated_by_CrystalShift
_symmetry_cell_setting triclinic
_symmetry_space_group_name_H-M 'P 1'
loop_
_symmetry_equiv_pos_site_id
_symmetry_equiv_pos_as_xyz
1 x,y,z
_cell_length_a 9.115100
_cell_length_b 9.176100
_cell_length_c 11.374800
_cell_angle_alpha 69.683000
_cell_angle_beta 78.016000
_cell_angle_gamma 84.341000
_cell_volume 872.400219
loop_
_atom_site_label
_atom_site_type_symbol
_atom_site_fract_x
_atom_site_fract_y
_atom_site_fract_z
H1 H 0.180100 0.265500 0.447700
H2 H 0.873600 1.015200 0.756700
H3 H 0.742800 1.023100 0.875600
H4 H 0.217200 0.256700 0.118300
H5 H 0.658600 1.184400 0.667600
H6 H 0.495200 0.246200 0.148400
H7 H 0.469800 0.182500 0.038900
H8 H 0.435700 0.996500 0.736400
H9 H 0.536800 -0.060600 0.155000
H10 H 0.564300 0.003500 0.263600
H11 H 0.463200 1.060600 0.845000
H12 H 0.341400 -0.184400 0.332400
H13 H 0.530200 0.817500 0.961100
H14 H 0.257200 -0.023100 0.124400
H15 H 0.126400 -0.015200 0.243300
H16 H 0.504800 0.753800 0.851600
H17 H 0.246800 0.038800 0.558400
H18 H 0.782800 0.743300 0.881700
H19 H 0.819900 0.734500 0.552300
H20 H 0.753200 0.961200 0.441600
C21 C 0.461630 -0.434710 0.652190
C22 C 1.066860 0.356980 0.716290
C23 C 0.363460 -0.494440 0.765630
C24 C 0.994530 0.263160 0.833090
C25 C 0.243060 -0.404470 0.798580
C26 C 0.859360 0.313140 0.888540
C27 C 0.221160 -0.256430 0.716570
C28 C 0.799260 0.457650 0.828110
C29 C 0.186660 0.287900 0.358780
C30 C 1.005780 0.500570 0.658840
C31 C 0.129090 0.441800 0.287930
C32 C 0.200740 0.542350 0.171890
C33 C 0.870910 0.558200 0.712070
C34 C 0.140640 0.686860 0.111460
C35 C 0.437310 -0.286130 0.571410
C36 C 0.005470 0.736840 0.166910
C37 C 0.813340 0.712100 0.641220
C38 C -0.066860 0.643020 0.283710
C39 C 0.778840 1.256430 0.283430
C40 C -0.005780 0.499430 0.341160
C41 C 0.756940 1.404470 0.201420
C42 C 0.707080 0.983130 0.610060
C43 C 0.752900 0.823950 0.687650
C44 C 0.726680 0.825760 0.822520
C45 C 0.315120 -0.192460 0.598910
C46 C 0.555000 0.833220 0.868690
C47 C 0.281200 -0.035040 0.516640
C48 C 0.232600 0.006320 0.202250
C49 C 0.508270 0.999530 0.789170
C50 C 0.342130 -0.068410 0.295090
C51 C 0.491730 0.000470 0.210830
C52 C 0.657870 1.068410 0.704910
C53 C 0.445000 0.166780 0.131310
C54 C 0.767400 0.993680 0.797750
C55 C 0.273320 0.174240 0.177480
C56 C 0.247100 0.176050 0.312350
C57 C 0.718800 1.035040 0.483360
C58 C 0.292920 0.016870 0.389940
C59 C 0.684880 1.192460 0.401090
C60 C 0.562690 1.286130 0.428590
C61 C 0.636540 1.494440 0.234370
C62 C 0.538370 1.434710 0.347810
F63 F 0.419400 1.520210 0.379900
F64 F 0.461020 1.233120 0.535360
F65 F 0.615860 1.639390 0.157390
F66 F -0.081920 0.410340 0.453990
F67 F 0.854310 1.462940 0.092330
F68 F -0.197450 0.691550 0.339060
F69 F 0.898480 1.173450 0.248600
F70 F -0.054550 0.875190 0.109150
F71 F 0.213940 0.779140 0.000000
F72 F 0.335730 0.503350 0.115860
F73 F 0.101520 -0.173450 0.751400
F74 F 0.664270 0.496650 0.884140
F75 F 0.145690 -0.462940 0.907670
F76 F 0.786060 0.220860 1.000000
F77 F 0.384140 -0.639390 0.842610
F78 F 1.054550 0.124810 0.890850
F79 F 0.580600 -0.520210 0.620100
F80 F 1.197450 0.308450 0.660940
F81 F 0.538980 -0.233120 0.464640
F82 F 1.081920 0.589660 0.546010

#END
