./KACVES01_from_POSCAR.cif_generated_by_CrystalShift
_symmetry_cell_setting triclinic
_symmetry_space_group_name_H-M 'P 1'
loop_
_symmetry_equiv_pos_site_id
_symmetry_equiv_pos_as_xyz
1 x,y,z
_cell_length_a 16.463800
_cell_length_b 6.334600
_cell_length_c 10.992200
_cell_angle_alpha 90.000000
_cell_angle_beta 106.369000
_cell_angle_gamma 90.000000
_cell_volume 1099.926737
loop_
_atom_site_label
_atom_site_type_symbol
_atom_site_fract_x
_atom_site_fract_y
_atom_site_fract_z
H1 H 0.297000 -0.355000 0.070000
H2 H 0.477800 0.344500 0.052400
H3 H 0.302000 0.182200 0.681800
H4 H 0.446400 0.425800 0.166000
H5 H 0.196400 0.440500 0.643900
H6 H 0.190900 0.297600 0.525500
H7 H 0.481400 0.195400 0.167600
H8 H 0.396900 -0.075800 0.025100
H9 H 0.281600 0.681900 0.361900
H10 H 0.245200 0.451700 0.345800
H11 H 0.391500 0.066600 -0.093600
H12 H 0.391500 0.433400 0.406400
H13 H 0.396900 0.575800 0.525100
H14 H 0.245200 0.048300 -0.154200
H15 H 0.481400 0.304600 0.667600
H16 H 0.446400 0.074200 0.666000
H17 H 0.477800 0.155500 0.552400
H18 H 0.281600 -0.181900 -0.138100
H19 H 0.150400 0.791300 0.373500
H20 H 0.190900 0.202400 0.025500
H21 H 0.115600 0.454300 0.298500
H22 H 0.056400 0.438000 0.387700
H23 H 0.038600 0.608500 0.280000
H24 H 0.196400 0.059500 0.143900
H25 H 0.135500 0.897000 0.550000
H26 H 0.053500 0.882200 0.435600
H27 H 0.071300 0.711700 0.543300
H28 H 0.346000 -0.074000 0.216000
H29 H 0.332000 0.090000 0.407700
H30 H 0.332000 0.410000 -0.092300
H31 H 0.346000 0.574000 0.716000
H32 H 0.071300 -0.211700 0.043300
H33 H 0.297000 0.855000 0.570000
H34 H 0.302000 0.317800 0.181800
H35 H 0.703000 0.145000 0.430000
H36 H 0.698000 0.682200 0.818200
H37 H 0.115600 0.045700 -0.201500
H38 H 0.803600 0.940500 0.856100
H39 H 0.809100 0.797600 0.974500
H40 H 0.654000 0.426000 0.284000
H41 H 0.056400 0.062000 -0.112300
H42 H 0.718400 1.181900 1.138100
H43 H 0.754800 0.951700 1.154200
H44 H 0.668000 0.910000 0.592300
H45 H 0.608500 0.933400 1.093600
H46 H 0.603100 1.075800 0.974900
H47 H 0.038600 -0.108500 -0.220000
H48 H 0.518600 0.804600 0.832400
H49 H 0.553600 0.574200 0.834000
H50 H 0.522200 0.655500 0.947600
H51 H 0.928700 0.288300 0.456700
H52 H 0.849600 1.291300 1.126500
H53 H 0.946500 0.117800 0.564400
H54 H 0.884400 0.954300 1.201500
H55 H 0.943600 0.938000 1.112300
H56 H 0.961400 1.108500 1.220000
H57 H 0.864500 0.103000 0.450000
H58 H 0.864500 1.397000 0.950000
H59 H 0.946500 1.382200 1.064400
H60 H 0.928700 1.211700 0.956700
H61 H 0.053500 -0.382200 -0.064400
H62 H 0.668000 0.590000 1.092300
H63 H 0.135500 -0.397000 0.050000
H64 H 0.654000 1.074000 0.784000
H65 H 0.961400 0.391500 0.720000
H66 H 0.703000 1.355000 0.930000
H67 H 0.943600 0.562000 0.612300
H68 H 0.884400 0.545700 0.701500
H69 H 0.698000 0.817800 0.318200
H70 H 0.849600 0.208700 0.626500
H71 H 0.803600 0.559500 0.356100
H72 H 0.809100 0.702400 0.474500
H73 H 0.522200 0.844500 0.447600
H74 H 0.553600 0.925800 0.334000
H75 H 0.718400 0.318100 0.638100
H76 H 0.754800 0.548300 0.654200
H77 H 0.518600 0.695400 0.332400
H78 H 0.608500 0.566600 0.593600
H79 H 0.603100 0.424200 0.474900
H80 H 0.150400 -0.291300 -0.126500
C81 C 0.636300 0.532500 0.529200
C82 C 0.723800 0.446200 0.592700
C83 C 0.773400 0.398400 0.499800
C84 C 0.862300 0.312400 0.568300
C85 C 0.775600 0.594600 0.420300
C86 C 0.918000 0.466900 0.658700
C87 C 0.689800 0.682700 0.356500
C88 C 0.638470 0.726700 0.451000
C89 C 0.096800 -0.302300 -0.005700
C90 C 0.903200 0.197700 0.505700
C91 C 0.903200 1.302300 1.005700
C92 C 0.918000 1.033100 1.158700
C93 C 0.862300 1.187600 1.068300
C94 C 0.550100 0.694700 0.885200
C95 C 0.636300 0.967500 1.029200
C96 C 0.723800 1.053800 1.092700
C97 C 0.773400 1.101600 0.999800
C98 C 0.775600 0.905400 0.920300
C99 C 0.689800 0.817300 0.856500
C100 C 0.361530 0.226700 0.049000
C101 C 0.310200 0.182700 0.143500
C102 C 0.638470 0.773300 0.951000
C103 C 0.224400 0.094600 0.079700
C104 C 0.096800 0.802300 0.494300
C105 C 0.082000 0.533100 0.341300
C106 C 0.226600 -0.101600 0.000200
C107 C 0.276200 -0.053800 -0.092700
C108 C 0.137700 0.687600 0.431700
C109 C 0.449900 0.194700 0.614800
C110 C 0.363700 0.032500 -0.029200
C111 C 0.363700 0.467500 0.470800
C112 C 0.276200 0.553800 0.407300
C113 C 0.449900 0.305300 0.114800
C114 C 0.226600 0.601600 0.500200
C115 C 0.224400 0.405400 0.579700
C116 C 0.310200 0.317300 0.643500
C117 C 0.137700 -0.187600 -0.068300
C118 C 0.550100 0.805300 0.385200
C119 C 0.082000 -0.033100 -0.158700
C120 C 0.361530 0.273300 0.549000
O121 O 0.643780 0.548100 0.256910
O122 O 0.685610 0.891600 0.530080
O123 O 0.729830 1.256900 0.910890
O124 O 0.643780 0.951900 0.756910
O125 O 0.685610 0.608400 1.030080
O126 O 0.270170 0.756900 0.589110
O127 O 0.314390 0.391600 -0.030080
O128 O 0.356220 0.451900 0.743090
O129 O 0.356220 0.048100 0.243090
O130 O 0.314390 0.108400 0.469920
O131 O 0.270170 -0.256900 0.089110
O132 O 0.729830 0.243100 0.410890

#END
