
#######################################################################
#
#                 Cambridge Crystallographic Data Centre
#                                CCDC 
#
#######################################################################
#
# If this CIF has been generated from an entry in the Cambridge 
# Structural Database, then it will include bibliographic, chemical, 
# crystal, experimental, refinement or atomic coordinate data resulting 
# from the CCDC's data processing and validation procedures.
#
#######################################################################

data_KACVUI
_symmetry_cell_setting           monoclinic
_symmetry_space_group_name_H-M   'C 2'
_symmetry_Int_Tables_number      5
_space_group_name_Hall           'C 2y'
loop_
_symmetry_equiv_pos_site_id
_symmetry_equiv_pos_as_xyz
1 x,y,z
2 -x,y,-z
3 1/2+x,1/2+y,z
4 1/2-x,1/2+y,-z
_cell_length_a                   33.795(5)
_cell_length_b                   8.871(5)
_cell_length_c                   10.039(5)
_cell_angle_alpha                90
_cell_angle_beta                 98.337(5)
_cell_angle_gamma                90
_cell_volume                     2977.84
loop_
_atom_site_label
_atom_site_type_symbol
_atom_site_fract_x
_atom_site_fract_y
_atom_site_fract_z
Br1 Br 0.807776(14) 1.31485(6) 1.12378(5)
C1 C 0.80300(15) 1.4366(7) 0.5673(5)
H1 H 0.8131 1.3458 0.5404
C2 C 0.80693(17) 1.5663(7) 0.4950(6)
H2 H 0.8202 1.5626 0.4200
C3 C 0.79178(18) 1.7001(7) 0.5313(6)
H3 H 0.7940 1.7865 0.4804
C4 C 0.77317(18) 1.7055(6) 0.6447(6)
H4 H 0.7635 1.7971 0.6714
C5 C 0.76864(15) 1.5792(6) 0.7183(6)
H5 H 0.7554 1.5848 0.7932
C6 C 0.78374(13) 1.4422(5) 0.6813(5)
C7 C 0.77731(12) 1.3029(7) 0.7575(4)
C8 C 0.78534(14) 1.0916(6) 0.8639(5)
C9 C 0.82658(13) 0.9938(5) 1.1021(5)
C10 C 0.82710(13) 1.1218(5) 1.1712(5)
C11 C 0.84493(16) 1.0944(7) 1.3124(6)
C12 C 0.84665(13) 0.8723(5) 1.1943(5)
H6 H 0.8284 0.7876 1.2001
C13 C 0.89235(13) 0.6678(5) 1.1766(5)
H7 H 0.8692 0.6028 1.1489
C14 C 0.90635(16) 0.6441(6) 1.3254(5)
H8 H 0.9288 0.7101 1.3544
H9 H 0.8849 0.6706 1.3758
C15 C 0.91869(19) 0.4828(7) 1.3557(6)
H10 H 0.8954 0.4186 1.3268
C16 C 0.95123(19) 0.4405(8) 1.2710(6)
H11 H 0.9750 0.5004 1.2995
H12 H 0.9583 0.3352 1.2858
C17 C 0.93728(19) 0.4667(6) 1.1223(6)
H13 H 0.9149 0.4005 1.0924
H14 H 0.9588 0.4412 1.0718
C18 C 0.92460(14) 0.6298(5) 1.0926(5)
H15 H 0.9477 0.6929 1.1258
C19 C 0.91303(15) 0.6670(6) 0.9413(5)
H16 H 0.9071 0.7752 0.9366
C20 C 0.87538(18) 0.5884(7) 0.8752(6)
H17 H 0.8687 0.6235 0.7843
H18 H 0.8538 0.6103 0.9246
H19 H 0.8799 0.4815 0.8749
C21 C 0.9479(2) 0.6434(9) 0.8623(7)
H20 H 0.9558 0.5394 0.8675
H21 H 0.9700 0.7053 0.8998
H22 H 0.9397 0.6707 0.7698
C22 C 0.9320(2) 0.4544(9) 1.5043(7)
H23 H 0.9538 0.5202 1.5364
H24 H 0.9404 0.3514 1.5174
H25 H 0.9101 0.4735 1.5531
C23 C 0.85985(15) 1.0961(7) 0.7248(6)
H26 H 0.8425 1.0271 0.6774
C24 C 0.90301(16) 1.0813(6) 0.7251(6)
C25 C 0.92941(19) 1.1578(8) 0.8120(8)
H27 H 0.9204 1.2225 0.8741
C26 C 0.97042(19) 1.1408(9) 0.8098(9)
H28 H 0.9885 1.1999 0.8658
C27 C 0.98407(18) 1.0395(7) 0.7272(8)
C28 C 0.9575(2) 0.9651(9) 0.6391(8)
H29 H 0.9667 0.9005 0.5773
C29 C 0.91665(18) 0.9821(8) 0.6377(7)
H30 H 0.8987 0.9265 0.5780
Cl1 Cl 1.03452(5) 1.0066(2) 0.7357(3)
N1 N 0.74333(11) 1.2692(4) 0.7997(4)
N2 N 0.74837(12) 1.1341(5) 0.8672(4)
N3 N 0.80444(11) 1.1950(4) 0.7922(4)
N4 N 0.84610(12) 1.2017(5) 0.7885(5)
O1 O 0.84916(13) 1.1772(5) 1.4059(4)
O2 O 0.85601(10) 0.9458(4) 1.3228(3)
O3 O 0.88073(7) 0.8247(4) 1.1468(3)
S1 S 0.80831(4) 0.93170(14) 0.94097(14)
Br1 Br 0.192224(14) 1.31485(6) -0.12378(5)
C1 C 0.19700(15) 1.4366(7) 0.4327(5)
H1 H 0.1869 1.3458 0.4596
C2 C 0.19307(17) 1.5663(7) 0.5050(6)
H2 H 0.1798 1.5626 0.5800
C3 C 0.20822(18) 1.7001(7) 0.4687(6)
H3 H 0.2060 1.7865 0.5196
C4 C 0.22683(18) 1.7055(6) 0.3553(6)
H4 H 0.2365 1.7971 0.3286
C5 C 0.23136(15) 1.5792(6) 0.2817(6)
H5 H 0.2446 1.5848 0.2068
C6 C 0.21626(13) 1.4422(5) 0.3187(5)
C7 C 0.22269(12) 1.3029(7) 0.2425(4)
C8 C 0.21466(14) 1.0916(6) 0.1361(5)
C9 C 0.17342(13) 0.9938(5) -0.1021(5)
C10 C 0.17290(13) 1.1218(5) -0.1712(5)
C11 C 0.15507(16) 1.0944(7) -0.3124(6)
C12 C 0.15335(13) 0.8723(5) -0.1943(5)
H6 H 0.1716 0.7876 -0.2001
C13 C 0.10765(13) 0.6678(5) -0.1766(5)
H7 H 0.1308 0.6028 -0.1489
C14 C 0.09365(16) 0.6441(6) -0.3254(5)
H8 H 0.0712 0.7101 -0.3544
H9 H 0.1151 0.6706 -0.3758
C15 C 0.08131(19) 0.4828(7) -0.3557(6)
H10 H 0.1046 0.4186 -0.3268
C16 C 0.04877(19) 0.4405(8) -0.2710(6)
H11 H 0.0250 0.5004 -0.2995
H12 H 0.0417 0.3352 -0.2858
C17 C 0.06272(19) 0.4667(6) -0.1223(6)
H13 H 0.0851 0.4005 -0.0924
H14 H 0.0412 0.4412 -0.0718
C18 C 0.07540(14) 0.6298(5) -0.0926(5)
H15 H 0.0523 0.6929 -0.1258
C19 C 0.08697(15) 0.6670(6) 0.0587(5)
H16 H 0.0929 0.7752 0.0634
C20 C 0.12462(18) 0.5884(7) 0.1248(6)
H17 H 0.1313 0.6235 0.2157
H18 H 0.1462 0.6103 0.0754
H19 H 0.1201 0.4815 0.1251
C21 C 0.0521(2) 0.6434(9) 0.1377(7)
H20 H 0.0442 0.5394 0.1325
H21 H 0.0300 0.7053 0.1002
H22 H 0.0603 0.6707 0.2302
C22 C 0.0680(2) 0.4544(9) -0.5043(7)
H23 H 0.0462 0.5202 -0.5364
H24 H 0.0596 0.3514 -0.5174
H25 H 0.0899 0.4735 -0.5531
C23 C 0.14015(15) 1.0961(7) 0.2752(6)
H26 H 0.1575 1.0271 0.3226
C24 C 0.09699(16) 1.0813(6) 0.2749(6)
C25 C 0.07059(19) 1.1578(8) 0.1880(8)
H27 H 0.0796 1.2225 0.1259
C26 C 0.02958(19) 1.1408(9) 0.1902(9)
H28 H 0.0115 1.1999 0.1342
C27 C 0.01593(18) 1.0395(7) 0.2728(8)
C28 C 0.0425(2) 0.9651(9) 0.3609(8)
H29 H 0.0333 0.9005 0.4227
C29 C 0.08335(18) 0.9821(8) 0.3623(7)
H30 H 0.1013 0.9265 0.4220
Cl1 Cl -0.03452(5) 1.0066(2) 0.2643(3)
N1 N 0.25667(11) 1.2692(4) 0.2003(4)
N2 N 0.25163(12) 1.1341(5) 0.1328(4)
N3 N 0.19556(11) 1.1950(4) 0.2078(4)
N4 N 0.15390(12) 1.2017(5) 0.2115(5)
O1 O 0.15084(13) 1.1772(5) -0.4059(4)
O2 O 0.14399(10) 0.9458(4) -0.3228(3)
O3 O 0.11927(7) 0.8247(4) -0.1468(3)
S1 S 0.19169(4) 0.93170(14) 0.05903(14)
Br1 Br 0.307776(14) 0.81485(6) 1.12378(5)
C1 C 0.30300(15) 0.9366(7) 0.5673(5)
H1 H 0.3131 0.8458 0.5404
C2 C 0.30693(17) 1.0663(7) 0.4950(6)
H2 H 0.3202 1.0626 0.4200
C3 C 0.29178(18) 1.2001(7) 0.5313(6)
H3 H 0.2940 1.2865 0.4804
C4 C 0.27317(18) 1.2055(6) 0.6447(6)
H4 H 0.2635 1.2971 0.6714
C5 C 0.26864(15) 1.0792(6) 0.7183(6)
H5 H 0.2554 1.0848 0.7932
C6 C 0.28374(13) 0.9422(5) 0.6813(5)
C7 C 0.27731(12) 0.8029(7) 0.7575(4)
C8 C 0.28534(14) 0.5916(6) 0.8639(5)
C9 C 0.32658(13) 0.4938(5) 1.1021(5)
C10 C 0.32710(13) 0.6218(5) 1.1712(5)
C11 C 0.34493(16) 0.5944(7) 1.3124(6)
C12 C 0.34665(13) 0.3723(5) 1.1943(5)
H6 H 0.3284 0.2876 1.2001
C13 C 0.39235(13) 0.1678(5) 1.1766(5)
H7 H 0.3692 0.1028 1.1489
C14 C 0.40635(16) 0.1441(6) 1.3254(5)
H8 H 0.4288 0.2101 1.3544
H9 H 0.3849 0.1706 1.3758
C15 C 0.41869(19) -0.0172(7) 1.3557(6)
H10 H 0.3954 -0.0814 1.3268
C16 C 0.45123(19) -0.0595(8) 1.2710(6)
H11 H 0.4750 0.0004 1.2995
H12 H 0.4583 -0.1648 1.2858
C17 C 0.43728(19) -0.0333(6) 1.1223(6)
H13 H 0.4149 -0.0995 1.0924
H14 H 0.4588 -0.0588 1.0718
C18 C 0.42460(14) 0.1298(5) 1.0926(5)
H15 H 0.4477 0.1929 1.1258
C19 C 0.41303(15) 0.1670(6) 0.9413(5)
H16 H 0.4071 0.2752 0.9366
C20 C 0.37538(18) 0.0884(7) 0.8752(6)
H17 H 0.3687 0.1235 0.7843
H18 H 0.3538 0.1103 0.9246
H19 H 0.3799 -0.0185 0.8749
C21 C 0.4479(2) 0.1434(9) 0.8623(7)
H20 H 0.4558 0.0394 0.8675
H21 H 0.4700 0.2053 0.8998
H22 H 0.4397 0.1707 0.7698
C22 C 0.4320(2) -0.0456(9) 1.5043(7)
H23 H 0.4538 0.0202 1.5364
H24 H 0.4404 -0.1486 1.5174
H25 H 0.4101 -0.0265 1.5531
C23 C 0.35985(15) 0.5961(7) 0.7248(6)
H26 H 0.3425 0.5271 0.6774
C24 C 0.40301(16) 0.5813(6) 0.7251(6)
C25 C 0.42941(19) 0.6578(8) 0.8120(8)
H27 H 0.4204 0.7225 0.8741
C26 C 0.47042(19) 0.6408(9) 0.8098(9)
H28 H 0.4885 0.6999 0.8658
C27 C 0.48407(18) 0.5395(7) 0.7272(8)
C28 C 0.4575(2) 0.4651(9) 0.6391(8)
H29 H 0.4667 0.4005 0.5773
C29 C 0.41665(18) 0.4821(8) 0.6377(7)
H30 H 0.3987 0.4265 0.5780
Cl1 Cl 0.53452(5) 0.5066(2) 0.7357(3)
N1 N 0.24333(11) 0.7692(4) 0.7997(4)
N2 N 0.24837(12) 0.6341(5) 0.8672(4)
N3 N 0.30444(11) 0.6950(4) 0.7922(4)
N4 N 0.34610(12) 0.7017(5) 0.7885(5)
O1 O 0.34916(13) 0.6772(5) 1.4059(4)
O2 O 0.35601(10) 0.4458(4) 1.3228(3)
O3 O 0.38073(7) 0.3247(4) 1.1468(3)
S1 S 0.30831(4) 0.43170(14) 0.94097(14)
Br1 Br 0.692224(14) 0.81485(6) -0.12378(5)
C1 C 0.69700(15) 0.9366(7) 0.4327(5)
H1 H 0.6869 0.8458 0.4596
C2 C 0.69307(17) 1.0663(7) 0.5050(6)
H2 H 0.6798 1.0626 0.5800
C3 C 0.70822(18) 1.2001(7) 0.4687(6)
H3 H 0.7060 1.2865 0.5196
C4 C 0.72683(18) 1.2055(6) 0.3553(6)
H4 H 0.7365 1.2971 0.3286
C5 C 0.73136(15) 1.0792(6) 0.2817(6)
H5 H 0.7446 1.0848 0.2068
C6 C 0.71626(13) 0.9422(5) 0.3187(5)
C7 C 0.72269(12) 0.8029(7) 0.2425(4)
C8 C 0.71466(14) 0.5916(6) 0.1361(5)
C9 C 0.67342(13) 0.4938(5) -0.1021(5)
C10 C 0.67290(13) 0.6218(5) -0.1712(5)
C11 C 0.65507(16) 0.5944(7) -0.3124(6)
C12 C 0.65335(13) 0.3723(5) -0.1943(5)
H6 H 0.6716 0.2876 -0.2001
C13 C 0.60765(13) 0.1678(5) -0.1766(5)
H7 H 0.6308 0.1028 -0.1489
C14 C 0.59365(16) 0.1441(6) -0.3254(5)
H8 H 0.5712 0.2101 -0.3544
H9 H 0.6151 0.1706 -0.3758
C15 C 0.58131(19) -0.0172(7) -0.3557(6)
H10 H 0.6046 -0.0814 -0.3268
C16 C 0.54877(19) -0.0595(8) -0.2710(6)
H11 H 0.5250 0.0004 -0.2995
H12 H 0.5417 -0.1648 -0.2858
C17 C 0.56272(19) -0.0333(6) -0.1223(6)
H13 H 0.5851 -0.0995 -0.0924
H14 H 0.5412 -0.0588 -0.0718
C18 C 0.57540(14) 0.1298(5) -0.0926(5)
H15 H 0.5523 0.1929 -0.1258
C19 C 0.58697(15) 0.1670(6) 0.0587(5)
H16 H 0.5929 0.2752 0.0634
C20 C 0.62462(18) 0.0884(7) 0.1248(6)
H17 H 0.6313 0.1235 0.2157
H18 H 0.6462 0.1103 0.0754
H19 H 0.6201 -0.0185 0.1251
C21 C 0.5521(2) 0.1434(9) 0.1377(7)
H20 H 0.5442 0.0394 0.1325
H21 H 0.5300 0.2053 0.1002
H22 H 0.5603 0.1707 0.2302
C22 C 0.5680(2) -0.0456(9) -0.5043(7)
H23 H 0.5462 0.0202 -0.5364
H24 H 0.5596 -0.1486 -0.5174
H25 H 0.5899 -0.0265 -0.5531
C23 C 0.64015(15) 0.5961(7) 0.2752(6)
H26 H 0.6575 0.5271 0.3226
C24 C 0.59699(16) 0.5813(6) 0.2749(6)
C25 C 0.57059(19) 0.6578(8) 0.1880(8)
H27 H 0.5796 0.7225 0.1259
C26 C 0.52958(19) 0.6408(9) 0.1902(9)
H28 H 0.5115 0.6999 0.1342
C27 C 0.51593(18) 0.5395(7) 0.2728(8)
C28 C 0.5425(2) 0.4651(9) 0.3609(8)
H29 H 0.5333 0.4005 0.4227
C29 C 0.58335(18) 0.4821(8) 0.3623(7)
H30 H 0.6013 0.4265 0.4220
Cl1 Cl 0.46548(5) 0.5066(2) 0.2643(3)
N1 N 0.75667(11) 0.7692(4) 0.2003(4)
N2 N 0.75163(12) 0.6341(5) 0.1328(4)
N3 N 0.69556(11) 0.6950(4) 0.2078(4)
N4 N 0.65390(12) 0.7017(5) 0.2115(5)
O1 O 0.65084(13) 0.6772(5) -0.4059(4)
O2 O 0.64399(10) 0.4458(4) -0.3228(3)
O3 O 0.61927(7) 0.3247(4) -0.1468(3)
S1 S 0.69169(4) 0.43170(14) 0.05903(14)

#END
