
#######################################################################
#
#                 Cambridge Crystallographic Data Centre
#                                CCDC 
#
#######################################################################
#
# If this CIF has been generated from an entry in the Cambridge 
# Structural Database, then it will include bibliographic, chemical, 
# crystal, experimental, refinement or atomic coordinate data resulting 
# from the CCDC's data processing and validation procedures.
#
#######################################################################

data_KACVIU
_symmetry_cell_setting           monoclinic
_symmetry_space_group_name_H-M   'P 21/n'
_symmetry_Int_Tables_number      14
_space_group_name_Hall           '-P 2yn'
loop_
_symmetry_equiv_pos_site_id
_symmetry_equiv_pos_as_xyz
1 x,y,z
2 1/2+x,1/2-y,1/2+z
3 -x,-y,-z
4 1/2-x,1/2+y,1/2-z
_cell_length_a                   6.0081(8)
_cell_length_b                   11.5316(15)
_cell_length_c                   22.082(3)
_cell_angle_alpha                90
_cell_angle_beta                 91.343(2)
_cell_angle_gamma                90
_cell_volume                     1529.49
loop_
_atom_site_label
_atom_site_type_symbol
_atom_site_fract_x
_atom_site_fract_y
_atom_site_fract_z
C1 C 0.45712(19) 0.46746(10) 0.27600(5)
C2 C 0.37032(19) 0.58810(10) 0.28951(5)
H1 H 0.3029 0.6302 0.2540
C3 C 0.22057(19) 0.57916(11) 0.34550(5)
H2 H 0.1129 0.5146 0.3410
H3 H 0.1381 0.6523 0.3520
C4 C 0.3899(2) 0.55584(11) 0.39837(5)
H4 H 0.3890 0.6196 0.4284
H5 H 0.3568 0.4819 0.4191
C5 C 0.61588(19) 0.54970(10) 0.36610(5)
H6 H 0.7505 0.5598 0.3931
C6 C 0.61485(19) 0.44106(10) 0.32718(5)
C7 C 0.5822(2) 0.64398(11) 0.31746(6)
H7 H 0.7062 0.6476 0.2888
H8 H 0.5544 0.7216 0.3349
C8 C 0.4116(2) 0.40064(11) 0.22755(5)
H9 H 0.4939 0.3306 0.2246
C9 C 0.2479(2) 0.42410(10) 0.17836(5)
C10 C 0.2940(2) 0.38931(11) 0.11897(5)
H10 H 0.4334 0.3545 0.1108
C11 C 0.1390(2) 0.40504(12) 0.07216(6)
H11 H 0.1726 0.3809 0.0323
C12 C -0.0649(2) 0.45588(12) 0.08351(6)
H12 H -0.1709 0.4667 0.0514
C13 C -0.1140(2) 0.49097(12) 0.14181(6)
H13 H -0.2533 0.5263 0.1496
C14 C 0.0402(2) 0.47452(11) 0.18882(6)
H14 H 0.0043 0.4978 0.2287
C15 C 0.7309(2) 0.34314(11) 0.33575(5)
H15 H 0.7117 0.2848 0.3057
C16 C 0.8850(2) 0.31583(10) 0.38660(5)
C17 C 1.0761(3) 0.25034(12) 0.37605(7)
H16 H 1.1008 0.2215 0.3365
C18 C 1.2299(3) 0.22658(13) 0.42197(7)
H17 H 1.3599 0.1831 0.4136
C19 C 1.1947(2) 0.26610(12) 0.48012(7)
H18 H 1.3004 0.2503 0.5117
C20 C 1.0047(2) 0.32872(13) 0.49186(6)
H19 H 0.9793 0.3555 0.5318
C21 C 0.8504(2) 0.35288(12) 0.44582(5)
H20 H 0.7194 0.3952 0.4547
C1 C -0.04288(19) 0.03254(10) 0.77600(5)
C2 C -0.12968(19) -0.08810(10) 0.78951(5)
H1 H -0.1971 -0.1302 0.7540
C3 C -0.27943(19) -0.07916(11) 0.84550(5)
H2 H -0.3871 -0.0146 0.8410
H3 H -0.3619 -0.1523 0.8520
C4 C -0.1101(2) -0.05584(11) 0.89837(5)
H4 H -0.1110 -0.1196 0.9284
H5 H -0.1432 0.0181 0.9191
C5 C 0.11588(19) -0.04970(10) 0.86610(5)
H6 H 0.2505 -0.0598 0.8931
C6 C 0.11485(19) 0.05894(10) 0.82718(5)
C7 C 0.0822(2) -0.14398(11) 0.81746(6)
H7 H 0.2062 -0.1476 0.7888
H8 H 0.0544 -0.2216 0.8349
C8 C -0.0884(2) 0.09936(11) 0.72755(5)
H9 H -0.0061 0.1694 0.7246
C9 C -0.2521(2) 0.07590(10) 0.67836(5)
C10 C -0.2060(2) 0.11069(11) 0.61897(5)
H10 H -0.0666 0.1455 0.6108
C11 C -0.3610(2) 0.09496(12) 0.57216(6)
H11 H -0.3274 0.1191 0.5323
C12 C -0.5649(2) 0.04412(12) 0.58351(6)
H12 H -0.6709 0.0333 0.5514
C13 C -0.6140(2) 0.00903(12) 0.64181(6)
H13 H -0.7533 -0.0263 0.6496
C14 C -0.4598(2) 0.02548(11) 0.68882(6)
H14 H -0.4957 0.0022 0.7287
C15 C 0.2309(2) 0.15686(11) 0.83575(5)
H15 H 0.2117 0.2152 0.8057
C16 C 0.3850(2) 0.18417(10) 0.88660(5)
C17 C 0.5761(3) 0.24966(12) 0.87605(7)
H16 H 0.6008 0.2785 0.8365
C18 C 0.7299(3) 0.27342(13) 0.92197(7)
H17 H 0.8599 0.3169 0.9136
C19 C 0.6947(2) 0.23390(12) 0.98012(7)
H18 H 0.8004 0.2497 1.0117
C20 C 0.5047(2) 0.17128(13) 0.99186(6)
H19 H 0.4793 0.1445 1.0318
C21 C 0.3504(2) 0.14712(12) 0.94582(5)
H20 H 0.2194 0.1048 0.9547
C1 C 0.54288(19) 0.53254(10) 0.72400(5)
C2 C 0.62968(19) 0.41190(10) 0.71049(5)
H1 H 0.6971 0.3698 0.7460
C3 C 0.77943(19) 0.42084(11) 0.65450(5)
H2 H 0.8871 0.4854 0.6590
H3 H 0.8619 0.3477 0.6480
C4 C 0.6101(2) 0.44416(11) 0.60163(5)
H4 H 0.6110 0.3804 0.5716
H5 H 0.6432 0.5181 0.5809
C5 C 0.38412(19) 0.45030(10) 0.63390(5)
H6 H 0.2495 0.4402 0.6069
C6 C 0.38515(19) 0.55894(10) 0.67282(5)
C7 C 0.4178(2) 0.35602(11) 0.68254(6)
H7 H 0.2938 0.3524 0.7112
H8 H 0.4456 0.2784 0.6651
C8 C 0.5884(2) 0.59936(11) 0.77245(5)
H9 H 0.5061 0.6694 0.7754
C9 C 0.7521(2) 0.57590(10) 0.82164(5)
C10 C 0.7060(2) 0.61069(11) 0.88103(5)
H10 H 0.5666 0.6455 0.8892
C11 C 0.8610(2) 0.59496(12) 0.92784(6)
H11 H 0.8274 0.6191 0.9677
C12 C 1.0649(2) 0.54412(12) 0.91649(6)
H12 H 1.1709 0.5333 0.9486
C13 C 1.1140(2) 0.50903(12) 0.85819(6)
H13 H 1.2533 0.4737 0.8504
C14 C 0.9598(2) 0.52548(11) 0.81118(6)
H14 H 0.9957 0.5022 0.7713
C15 C 0.2691(2) 0.65686(11) 0.66425(5)
H15 H 0.2883 0.7152 0.6943
C16 C 0.1150(2) 0.68417(10) 0.61340(5)
C17 C -0.0761(3) 0.74966(12) 0.62395(7)
H16 H -0.1008 0.7785 0.6635
C18 C -0.2299(3) 0.77342(13) 0.57803(7)
H17 H -0.3599 0.8169 0.5864
C19 C -0.1947(2) 0.73390(12) 0.51988(7)
H18 H -0.3004 0.7497 0.4883
C20 C -0.0047(2) 0.67128(13) 0.50814(6)
H19 H 0.0207 0.6445 0.4682
C21 C 0.1496(2) 0.64712(12) 0.55418(5)
H20 H 0.2806 0.6048 0.5453
C1 C 1.04288(19) 0.96746(10) 0.22400(5)
C2 C 1.12968(19) 1.08810(10) 0.21049(5)
H1 H 1.1971 1.1302 0.2460
C3 C 1.27943(19) 1.07916(11) 0.15450(5)
H2 H 1.3871 1.0146 0.1590
H3 H 1.3619 1.1523 0.1480
C4 C 1.1101(2) 1.05584(11) 0.10163(5)
H4 H 1.1110 1.1196 0.0716
H5 H 1.1432 0.9819 0.0809
C5 C 0.88412(19) 1.04970(10) 0.13390(5)
H6 H 0.7495 1.0598 0.1069
C6 C 0.88515(19) 0.94106(10) 0.17282(5)
C7 C 0.9178(2) 1.14398(11) 0.18254(6)
H7 H 0.7938 1.1476 0.2112
H8 H 0.9456 1.2216 0.1651
C8 C 1.0884(2) 0.90064(11) 0.27245(5)
H9 H 1.0061 0.8306 0.2754
C9 C 1.2521(2) 0.92410(10) 0.32164(5)
C10 C 1.2060(2) 0.88931(11) 0.38103(5)
H10 H 1.0666 0.8545 0.3892
C11 C 1.3610(2) 0.90504(12) 0.42784(6)
H11 H 1.3274 0.8809 0.4677
C12 C 1.5649(2) 0.95588(12) 0.41649(6)
H12 H 1.6709 0.9667 0.4486
C13 C 1.6140(2) 0.99097(12) 0.35819(6)
H13 H 1.7533 1.0263 0.3504
C14 C 1.4598(2) 0.97452(11) 0.31118(6)
H14 H 1.4957 0.9978 0.2713
C15 C 0.7691(2) 0.84314(11) 0.16425(5)
H15 H 0.7883 0.7848 0.1943
C16 C 0.6150(2) 0.81583(10) 0.11340(5)
C17 C 0.4239(3) 0.75034(12) 0.12395(7)
H16 H 0.3992 0.7215 0.1635
C18 C 0.2701(3) 0.72658(13) 0.07803(7)
H17 H 0.1401 0.6831 0.0864
C19 C 0.3053(2) 0.76610(12) 0.01988(7)
H18 H 0.1996 0.7503 -0.0117
C20 C 0.4953(2) 0.82872(13) 0.00814(6)
H19 H 0.5207 0.8555 -0.0318
C21 C 0.6496(2) 0.85288(12) 0.05418(5)
H20 H 0.7806 0.8952 0.0453

#END
