./KACWAP_from_POSCAR.cif_generated_by_CrystalShift
_symmetry_cell_setting triclinic
_symmetry_space_group_name_H-M 'P 1'
loop_
_symmetry_equiv_pos_site_id
_symmetry_equiv_pos_as_xyz
1 x,y,z
_cell_length_a 6.018000
_cell_length_b 8.237000
_cell_length_c 21.600000
_cell_angle_alpha 87.080000
_cell_angle_beta 87.460000
_cell_angle_gamma 82.300000
_cell_volume 1058.925042
loop_
_atom_site_label
_atom_site_type_symbol
_atom_site_fract_x
_atom_site_fract_y
_atom_site_fract_z
H1 H 0.429800 0.374000 0.792300
H2 H 1.020800 0.502700 0.725800
H3 H 0.648300 0.054900 0.894900
H4 H 0.405200 -0.407800 0.643500
H5 H 0.718500 1.272700 0.593300
H6 H 0.624700 1.103800 0.604800
H7 H 1.115300 0.242800 0.689000
H8 H 0.549900 -0.268400 0.655800
H9 H 0.877900 0.046400 0.708400
H10 H -0.008000 0.351800 0.959600
H11 H 0.900900 1.163100 0.508900
H12 H 0.754100 1.018100 0.510900
H13 H 0.671300 0.567600 0.777100
H14 H 0.245900 -0.018100 0.489100
H15 H 0.099100 -0.163100 0.491100
H16 H 0.007000 0.221200 0.865600
H17 H 0.375300 -0.103800 0.395200
H18 H 0.281500 -0.272700 0.406700
H19 H 0.450100 1.268400 0.344200
H20 H 0.594800 1.407800 0.356500
H21 H 0.411300 0.419700 1.111300
H22 H 0.503900 0.244500 1.089000
H23 H 0.581600 0.400100 1.054200
H24 H 0.570200 0.626000 0.207700
H25 H 0.328700 0.432400 0.222900
H26 H 0.351700 0.945100 0.105100
H27 H -0.020800 0.497300 0.274200
H28 H 0.366300 0.818400 0.012900
H29 H -0.115300 0.757200 0.311000
H30 H 0.122100 0.953600 0.291600
H31 H 1.008000 0.648200 0.040400
H32 H 0.633700 0.181600 0.987100
H33 H 0.993000 0.778800 0.134400
H34 H 0.418400 0.599900 -0.054200
H35 H 0.588700 0.580300 -0.111300
H36 H 0.496100 0.755500 -0.089000
C37 C 0.542000 0.643500 -0.075800
C38 C 0.369800 0.808700 0.246000
C39 C 0.867600 0.787400 0.110200
C40 C 0.874500 0.708900 0.053800
C41 C 0.020200 0.730800 0.289100
C42 C 0.688500 0.719000 0.017400
C43 C 0.077100 0.575400 0.268000
C44 C 0.492800 0.809000 0.036700
C45 C 0.286700 0.537300 0.237000
C46 C 0.486400 0.885600 0.092100
C47 C 0.430500 0.653800 0.227200
C48 C 0.664000 0.879300 0.128500
C49 C 0.647100 0.965500 0.187300
C50 C 0.754400 1.092800 0.202800
C51 C 0.670900 1.135300 0.263200
C52 C 0.366800 -0.196000 0.424600
C53 C 0.601900 1.292200 0.348900
C54 C 0.703100 1.192300 0.402300
C55 C 0.458000 0.356500 1.075800
C56 C 0.401100 1.303200 0.479000
C57 C 0.132400 0.212600 0.889800
C58 C 0.251200 -0.136000 0.487200
C59 C 0.630200 0.191300 0.754000
C60 C 0.836800 0.151800 0.722100
C61 C 0.569500 0.346200 0.772800
C62 C 0.748800 1.136000 0.512800
C63 C 0.125500 0.291100 0.946200
C64 C 0.598900 -0.303200 0.521000
C65 C 0.296900 -0.192300 0.597700
C66 C 0.398100 -0.292200 0.651100
C67 C 0.979800 0.269200 0.710900
C68 C 0.633200 1.196000 0.575400
C69 C 0.329100 -0.135300 0.736800
C70 C 0.245600 -0.092800 0.797200
C71 C 0.352900 0.034500 0.812700
C72 C 0.336000 0.120700 0.871500
C73 C 0.513600 0.114400 0.907900
C74 C 0.922900 0.424600 0.732000
C75 C 0.507200 0.191000 0.963300
C76 C 0.163200 0.848200 0.277900
C77 C 0.311500 0.281000 0.982600
C78 C 0.713300 0.462700 0.763000
N79 N 0.487400 0.067000 0.762300
N80 N 0.512600 0.933000 0.237700
N81 N 0.476200 -0.039700 0.717100
N82 N 0.614100 1.219800 0.463200
N83 N 0.385900 -0.219800 0.536800
N84 N 0.523800 1.039700 0.282900
O85 O 0.725100 0.635800 -0.035100
O86 O 0.268300 -0.256400 0.706100
O87 O 0.731700 1.256400 0.293900
O88 O 0.132800 -0.093200 0.602600
O89 O 0.867200 1.093200 0.397400
O90 O 0.274900 0.364200 1.035100
S91 S 0.797500 -0.391600 0.564190
S92 S 0.642000 -0.293700 0.441400
S93 S 0.202500 1.391600 0.435810
S94 S 0.358000 1.293700 0.558600
Cl95 Cl 0.951700 1.190000 0.159660
Cl96 Cl 0.048300 -0.190000 0.840340

#END
