
#######################################################################
#
#                 Cambridge Crystallographic Data Centre
#                                CCDC 
#
#######################################################################
#
# If this CIF has been generated from an entry in the Cambridge 
# Structural Database, then it will include bibliographic, chemical, 
# crystal, experimental, refinement or atomic coordinate data resulting 
# from the CCDC's data processing and validation procedures.
#
#######################################################################

data_KACXOC
_symmetry_cell_setting           monoclinic
_symmetry_space_group_name_H-M   'P 21/c'
_symmetry_Int_Tables_number      14
_space_group_name_Hall           '-P 2ybc'
loop_
_symmetry_equiv_pos_site_id
_symmetry_equiv_pos_as_xyz
1 x,y,z
2 x,1/2-y,1/2+z
3 -x,-y,-z
4 -x,1/2+y,1/2-z
_cell_length_a                   11.9875(6)
_cell_length_b                   17.5408(6)
_cell_length_c                   20.9570(9)
_cell_angle_alpha                90
_cell_angle_beta                 113.179(15)
_cell_angle_gamma                90
_cell_volume                     4050.93
loop_
_atom_site_label
_atom_site_type_symbol
_atom_site_fract_x
_atom_site_fract_y
_atom_site_fract_z
P1 P 0.19432(12) 0.29409(7) 0.30068(7)
P2 P 0.12385(13) 0.18841(8) 0.25038(7)
P3 P 0.12933(13) 0.23848(8) 0.15948(7)
C1 C 0.2659(5) 0.2962(3) 0.1889(3)
H1 H 0.336(3) 0.2641(13) 0.2030(6)
H2 H 0.2660(5) 0.3285(13) 0.1520(14)
C2 C 0.2683(5) 0.3444(3) 0.2500(3)
H3 H 0.2265(16) 0.3924(19) 0.2329(7)
H4 H 0.352(3) 0.3559(6) 0.2801(12)
C3 C 0.3046(4) 0.2767(3) 0.3875(3)
C4 C 0.3093(5) 0.3189(4) 0.4439(3)
H5 H 0.248(4) 0.363(3) 0.4372(5)
C5 C 0.3955(6) 0.3034(4) 0.5093(3)
H6 H 0.3985(6) 0.334(2) 0.549(3)
C6 C 0.4773(6) 0.2449(4) 0.5187(3)
H7 H 0.541(4) 0.2332(9) 0.568(3)
C7 C 0.4743(6) 0.2023(4) 0.4630(3)
H8 H 0.531(4) 0.161(3) 0.4696(6)
C8 C 0.3890(5) 0.2193(3) 0.3969(3)
H9 H 0.3886(5) 0.1934(18) 0.361(3)
C9 C 0.0823(5) 0.3591(3) 0.3066(3)
C10 C -0.0335(5) 0.3329(4) 0.2954(3)
H10 H -0.0516(12) 0.280(3) 0.2875(6)
C11 C -0.1223(6) 0.3826(4) 0.2955(3)
H11 H -0.195(6) 0.3650(14) 0.2892(6)
C12 C -0.0980(6) 0.4592(4) 0.3054(3)
H12 H -0.156(5) 0.491(3) 0.3041(3)
C13 C 0.0177(6) 0.4868(4) 0.3176(3)
H13 H 0.0355(13) 0.542(4) 0.3259(6)
C14 C 0.1078(5) 0.4370(3) 0.3182(3)
H14 H 0.187(5) 0.4558(12) 0.3264(6)
C15 C 0.1368(5) 0.1656(3) 0.1013(3)
C16 C 0.2340(6) 0.1145(4) 0.1232(3)
H15 H 0.303(4) 0.1205(5) 0.173(3)
C17 C 0.2402(7) 0.0565(4) 0.0807(4)
H16 H 0.306(5) 0.022(3) 0.0965(13)
C18 C 0.1506(7) 0.0490(4) 0.0149(4)
H17 H 0.1550(8) 0.007(3) -0.016(2)
C19 C 0.0552(7) 0.0996(4) -0.0079(4)
H18 H -0.004(5) 0.0945(5) -0.052(3)
C20 C 0.0475(6) 0.1577(4) 0.0343(3)
H19 H -0.020(4) 0.193(2) 0.0175(11)
C21 C 0.0033(5) 0.2998(3) 0.1109(2)
C22 C -0.1030(5) 0.2961(4) 0.1229(3)
H20 H -0.1086(6) 0.264(2) 0.156(2)
C23 C -0.1997(6) 0.3419(4) 0.0845(3)
H21 H -0.274(5) 0.3387(5) 0.0917(6)
C24 C -0.1919(6) 0.3920(4) 0.0359(3)
H22 H -0.263(5) 0.426(2) 0.0086(18)
C25 C -0.0859(6) 0.3961(3) 0.0246(3)
H23 H -0.0801(7) 0.433(2) -0.012(2)
C26 C 0.0110(6) 0.3514(3) 0.0618(3)
H24 H 0.088(5) 0.3554(4) 0.0539(5)
P1 P 0.19432(12) 0.20591(7) 0.80068(7)
P2 P 0.12385(13) 0.31159(8) 0.75038(7)
P3 P 0.12933(13) 0.26152(8) 0.65948(7)
C1 C 0.2659(5) 0.2038(3) 0.6889(3)
H1 H 0.336(3) 0.2359(13) 0.7030(6)
H2 H 0.2660(5) 0.1715(13) 0.6520(14)
C2 C 0.2683(5) 0.1556(3) 0.7500(3)
H3 H 0.2265(16) 0.1076(19) 0.7329(7)
H4 H 0.352(3) 0.1441(6) 0.7801(12)
C3 C 0.3046(4) 0.2233(3) 0.8875(3)
C4 C 0.3093(5) 0.1811(4) 0.9439(3)
H5 H 0.248(4) 0.137(3) 0.9372(5)
C5 C 0.3955(6) 0.1966(4) 1.0093(3)
H6 H 0.3985(6) 0.166(2) 1.049(3)
C6 C 0.4773(6) 0.2551(4) 1.0187(3)
H7 H 0.541(4) 0.2668(9) 1.068(3)
C7 C 0.4743(6) 0.2977(4) 0.9630(3)
H8 H 0.531(4) 0.339(3) 0.9696(6)
C8 C 0.3890(5) 0.2807(3) 0.8969(3)
H9 H 0.3886(5) 0.3066(18) 0.861(3)
C9 C 0.0823(5) 0.1409(3) 0.8066(3)
C10 C -0.0335(5) 0.1671(4) 0.7954(3)
H10 H -0.0516(12) 0.220(3) 0.7875(6)
C11 C -0.1223(6) 0.1174(4) 0.7955(3)
H11 H -0.195(6) 0.1350(14) 0.7892(6)
C12 C -0.0980(6) 0.0408(4) 0.8054(3)
H12 H -0.156(5) 0.009(3) 0.8041(3)
C13 C 0.0177(6) 0.0132(4) 0.8176(3)
H13 H 0.0355(13) -0.042(4) 0.8259(6)
C14 C 0.1078(5) 0.0630(3) 0.8182(3)
H14 H 0.187(5) 0.0442(12) 0.8264(6)
C15 C 0.1368(5) 0.3344(3) 0.6013(3)
C16 C 0.2340(6) 0.3855(4) 0.6232(3)
H15 H 0.303(4) 0.3795(5) 0.673(3)
C17 C 0.2402(7) 0.4435(4) 0.5807(4)
H16 H 0.306(5) 0.478(3) 0.5965(13)
C18 C 0.1506(7) 0.4510(4) 0.5149(4)
H17 H 0.1550(8) 0.493(3) 0.484(2)
C19 C 0.0552(7) 0.4004(4) 0.4921(4)
H18 H -0.004(5) 0.4055(5) 0.448(3)
C20 C 0.0475(6) 0.3423(4) 0.5343(3)
H19 H -0.020(4) 0.307(2) 0.5175(11)
C21 C 0.0033(5) 0.2002(3) 0.6109(2)
C22 C -0.1030(5) 0.2039(4) 0.6229(3)
H20 H -0.1086(6) 0.236(2) 0.656(2)
C23 C -0.1997(6) 0.1581(4) 0.5845(3)
H21 H -0.274(5) 0.1613(5) 0.5917(6)
C24 C -0.1919(6) 0.1080(4) 0.5359(3)
H22 H -0.263(5) 0.074(2) 0.5086(18)
C25 C -0.0859(6) 0.1039(3) 0.5246(3)
H23 H -0.0801(7) 0.067(2) 0.488(2)
C26 C 0.0110(6) 0.1486(3) 0.5618(3)
H24 H 0.088(5) 0.1446(4) 0.5539(5)
P1 P 0.80568(12) 0.70591(7) 0.69932(7)
P2 P 0.87615(13) 0.81159(8) 0.74962(7)
P3 P 0.87067(13) 0.76152(8) 0.84052(7)
C1 C 0.7341(5) 0.7038(3) 0.8111(3)
H1 H 0.664(3) 0.7359(13) 0.7970(6)
H2 H 0.7340(5) 0.6715(13) 0.8480(14)
C2 C 0.7317(5) 0.6556(3) 0.7500(3)
H3 H 0.7735(16) 0.6076(19) 0.7671(7)
H4 H 0.648(3) 0.6441(6) 0.7199(12)
C3 C 0.6954(4) 0.7233(3) 0.6125(3)
C4 C 0.6907(5) 0.6811(4) 0.5561(3)
H5 H 0.752(4) 0.637(3) 0.5628(5)
C5 C 0.6045(6) 0.6966(4) 0.4907(3)
H6 H 0.6015(6) 0.666(2) 0.451(3)
C6 C 0.5227(6) 0.7551(4) 0.4813(3)
H7 H 0.459(4) 0.7668(9) 0.432(3)
C7 C 0.5257(6) 0.7977(4) 0.5370(3)
H8 H 0.469(4) 0.839(3) 0.5304(6)
C8 C 0.6110(5) 0.7807(3) 0.6031(3)
H9 H 0.6114(5) 0.8066(18) 0.639(3)
C9 C 0.9177(5) 0.6409(3) 0.6934(3)
C10 C 1.0335(5) 0.6671(4) 0.7046(3)
H10 H 1.0516(12) 0.720(3) 0.7125(6)
C11 C 1.1223(6) 0.6174(4) 0.7045(3)
H11 H 1.195(6) 0.6350(14) 0.7108(6)
C12 C 1.0980(6) 0.5408(4) 0.6946(3)
H12 H 1.156(5) 0.509(3) 0.6959(3)
C13 C 0.9823(6) 0.5132(4) 0.6824(3)
H13 H 0.9645(13) 0.458(4) 0.6741(6)
C14 C 0.8922(5) 0.5630(3) 0.6818(3)
H14 H 0.813(5) 0.5442(12) 0.6736(6)
C15 C 0.8632(5) 0.8344(3) 0.8987(3)
C16 C 0.7660(6) 0.8855(4) 0.8768(3)
H15 H 0.697(4) 0.8795(5) 0.827(3)
C17 C 0.7598(7) 0.9435(4) 0.9193(4)
H16 H 0.694(5) 0.978(3) 0.9035(13)
C18 C 0.8494(7) 0.9510(4) 0.9851(4)
H17 H 0.8450(8) 0.993(3) 1.016(2)
C19 C 0.9448(7) 0.9004(4) 1.0079(4)
H18 H 1.004(5) 0.9055(5) 1.052(3)
C20 C 0.9525(6) 0.8423(4) 0.9657(3)
H19 H 1.020(4) 0.807(2) 0.9825(11)
C21 C 0.9967(5) 0.7002(3) 0.8891(2)
C22 C 1.1030(5) 0.7039(4) 0.8771(3)
H20 H 1.1086(6) 0.736(2) 0.844(2)
C23 C 1.1997(6) 0.6581(4) 0.9155(3)
H21 H 1.274(5) 0.6613(5) 0.9083(6)
C24 C 1.1919(6) 0.6080(4) 0.9641(3)
H22 H 1.263(5) 0.574(2) 0.9914(18)
C25 C 1.0859(6) 0.6039(3) 0.9754(3)
H23 H 1.0801(7) 0.567(2) 1.012(2)
C26 C 0.9890(6) 0.6486(3) 0.9382(3)
H24 H 0.912(5) 0.6446(4) 0.9461(5)
P1 P 0.80568(12) 0.79409(7) 0.19932(7)
P2 P 0.87615(13) 0.68841(8) 0.24962(7)
P3 P 0.87067(13) 0.73848(8) 0.34052(7)
C1 C 0.7341(5) 0.7962(3) 0.3111(3)
H1 H 0.664(3) 0.7641(13) 0.2970(6)
H2 H 0.7340(5) 0.8285(13) 0.3480(14)
C2 C 0.7317(5) 0.8444(3) 0.2500(3)
H3 H 0.7735(16) 0.8924(19) 0.2671(7)
H4 H 0.648(3) 0.8559(6) 0.2199(12)
C3 C 0.6954(4) 0.7767(3) 0.1125(3)
C4 C 0.6907(5) 0.8189(4) 0.0561(3)
H5 H 0.752(4) 0.863(3) 0.0628(5)
C5 C 0.6045(6) 0.8034(4) -0.0093(3)
H6 H 0.6015(6) 0.834(2) -0.049(3)
C6 C 0.5227(6) 0.7449(4) -0.0187(3)
H7 H 0.459(4) 0.7332(9) -0.068(3)
C7 C 0.5257(6) 0.7023(4) 0.0370(3)
H8 H 0.469(4) 0.661(3) 0.0304(6)
C8 C 0.6110(5) 0.7193(3) 0.1031(3)
H9 H 0.6114(5) 0.6934(18) 0.139(3)
C9 C 0.9177(5) 0.8591(3) 0.1934(3)
C10 C 1.0335(5) 0.8329(4) 0.2046(3)
H10 H 1.0516(12) 0.780(3) 0.2125(6)
C11 C 1.1223(6) 0.8826(4) 0.2045(3)
H11 H 1.195(6) 0.8650(14) 0.2108(6)
C12 C 1.0980(6) 0.9592(4) 0.1946(3)
H12 H 1.156(5) 0.991(3) 0.1959(3)
C13 C 0.9823(6) 0.9868(4) 0.1824(3)
H13 H 0.9645(13) 1.042(4) 0.1741(6)
C14 C 0.8922(5) 0.9370(3) 0.1818(3)
H14 H 0.813(5) 0.9558(12) 0.1736(6)
C15 C 0.8632(5) 0.6656(3) 0.3987(3)
C16 C 0.7660(6) 0.6145(4) 0.3768(3)
H15 H 0.697(4) 0.6205(5) 0.327(3)
C17 C 0.7598(7) 0.5565(4) 0.4193(4)
H16 H 0.694(5) 0.522(3) 0.4035(13)
C18 C 0.8494(7) 0.5490(4) 0.4851(4)
H17 H 0.8450(8) 0.507(3) 0.516(2)
C19 C 0.9448(7) 0.5996(4) 0.5079(4)
H18 H 1.004(5) 0.5945(5) 0.552(3)
C20 C 0.9525(6) 0.6577(4) 0.4657(3)
H19 H 1.020(4) 0.693(2) 0.4825(11)
C21 C 0.9967(5) 0.7998(3) 0.3891(2)
C22 C 1.1030(5) 0.7961(4) 0.3771(3)
H20 H 1.1086(6) 0.764(2) 0.344(2)
C23 C 1.1997(6) 0.8419(4) 0.4155(3)
H21 H 1.274(5) 0.8387(5) 0.4083(6)
C24 C 1.1919(6) 0.8920(4) 0.4641(3)
H22 H 1.263(5) 0.926(2) 0.4914(18)
C25 C 1.0859(6) 0.8961(3) 0.4754(3)
H23 H 1.0801(7) 0.933(2) 0.512(2)
C26 C 0.9890(6) 0.8514(3) 0.4382(3)
H24 H 0.912(5) 0.8554(4) 0.4461(5)
C27 C 0.8632(5) 0.1160(3) 0.3373(3)
C28 C 0.9371(5) 0.1726(3) 0.3799(3)
H25 H 0.896(2) 0.223(3) 0.3899(6)
C29 C 1.0643(6) 0.1663(4) 0.4103(3)
H26 H 1.119(3) 0.213(3) 0.4431(19)
C30 C 1.1222(6) 0.1025(4) 0.3999(3)
H27 H 1.210(6) 0.0979(6) 0.4209(15)
C31 C 1.0513(6) 0.0458(4) 0.3588(3)
H28 H 1.089(3) 0.001(3) 0.3512(7)
C32 C 0.9264(5) 0.0530(3) 0.3283(3)
H29 H 0.880(3) 0.011(3) 0.2986(19)
C33 C 0.6799(5) 0.0922(3) 0.2170(3)
C34 C 0.7375(5) 0.1278(4) 0.1781(3)
H30 H 0.799(4) 0.170(3) 0.2005(14)
C35 C 0.7127(6) 0.1075(4) 0.1095(3)
H31 H 0.749(3) 0.1313(19) 0.0860(18)
C36 C 0.6304(6) 0.0496(4) 0.0783(3)
H32 H 0.6121(13) 0.0345(10) 0.029(3)
C37 C 0.5743(5) 0.0130(4) 0.1153(3)
H33 H 0.516(4) -0.030(3) 0.0932(14)
C38 C 0.5976(5) 0.0351(3) 0.1836(3)
H34 H 0.555(3) 0.0094(15) 0.2086(15)
C39 C 0.6497(5) 0.0607(3) 0.3353(3)
C40 C 0.5262(6) 0.0713(3) 0.3232(3)
H35 H 0.477(3) 0.115(3) 0.289(2)
C41 C 0.4672(7) 0.0254(4) 0.3545(4)
H36 H 0.387(6) 0.0342(8) 0.3455(8)
C42 C 0.5277(7) -0.0330(4) 0.3990(3)
H37 H 0.480(3) -0.070(2) 0.4248(15)
C43 C 0.6476(7) -0.0453(3) 0.4110(3)
H38 H 0.692(3) -0.087(3) 0.442(2)
C44 C 0.7075(5) 0.0007(3) 0.3791(3)
H39 H 0.799(5) -0.0108(7) 0.3887(6)
C45 C 0.6647(5) 0.2054(3) 0.3021(3)
C46 C 0.6790(6) 0.2365(3) 0.3670(4)
H40 H 0.720(2) 0.199(2) 0.416(3)
C47 C 0.6454(7) 0.3101(4) 0.3748(5)
H41 H 0.6600(13) 0.3308(15) 0.424(3)
C48 C 0.5930(6) 0.3557(4) 0.3179(5)
H42 H 0.5720(19) 0.404(4) 0.3231(7)
C49 C 0.5719(5) 0.3280(4) 0.2529(5)
H43 H 0.532(3) 0.360(2) 0.212(3)
C50 C 0.6083(5) 0.2530(3) 0.2449(4)
H44 H 0.5929(11) 0.2333(13) 0.197(3)
B1 B 0.7147(5) 0.1189(3) 0.2978(3)
C27 C 0.8632(5) 0.3840(3) 0.8373(3)
C28 C 0.9371(5) 0.3274(3) 0.8799(3)
H25 H 0.896(2) 0.277(3) 0.8899(6)
C29 C 1.0643(6) 0.3337(4) 0.9103(3)
H26 H 1.119(3) 0.287(3) 0.9431(19)
C30 C 1.1222(6) 0.3975(4) 0.8999(3)
H27 H 1.210(6) 0.4021(6) 0.9209(15)
C31 C 1.0513(6) 0.4542(4) 0.8588(3)
H28 H 1.089(3) 0.499(3) 0.8512(7)
C32 C 0.9264(5) 0.4470(3) 0.8283(3)
H29 H 0.880(3) 0.489(3) 0.7986(19)
C33 C 0.6799(5) 0.4078(3) 0.7170(3)
C34 C 0.7375(5) 0.3722(4) 0.6781(3)
H30 H 0.799(4) 0.330(3) 0.7005(14)
C35 C 0.7127(6) 0.3925(4) 0.6095(3)
H31 H 0.749(3) 0.3687(19) 0.5860(18)
C36 C 0.6304(6) 0.4504(4) 0.5783(3)
H32 H 0.6121(13) 0.4655(10) 0.529(3)
C37 C 0.5743(5) 0.4870(4) 0.6153(3)
H33 H 0.516(4) 0.530(3) 0.5932(14)
C38 C 0.5976(5) 0.4649(3) 0.6836(3)
H34 H 0.555(3) 0.4906(15) 0.7086(15)
C39 C 0.6497(5) 0.4393(3) 0.8353(3)
C40 C 0.5262(6) 0.4287(3) 0.8232(3)
H35 H 0.477(3) 0.385(3) 0.789(2)
C41 C 0.4672(7) 0.4746(4) 0.8545(4)
H36 H 0.387(6) 0.4658(8) 0.8455(8)
C42 C 0.5277(7) 0.5330(4) 0.8990(3)
H37 H 0.480(3) 0.570(2) 0.9248(15)
C43 C 0.6476(7) 0.5453(3) 0.9110(3)
H38 H 0.692(3) 0.587(3) 0.942(2)
C44 C 0.7075(5) 0.4993(3) 0.8791(3)
H39 H 0.799(5) 0.5108(7) 0.8887(6)
C45 C 0.6647(5) 0.2946(3) 0.8021(3)
C46 C 0.6790(6) 0.2635(3) 0.8670(4)
H40 H 0.720(2) 0.301(2) 0.916(3)
C47 C 0.6454(7) 0.1899(4) 0.8748(5)
H41 H 0.6600(13) 0.1692(15) 0.924(3)
C48 C 0.5930(6) 0.1443(4) 0.8179(5)
H42 H 0.5720(19) 0.096(4) 0.8231(7)
C49 C 0.5719(5) 0.1720(4) 0.7529(5)
H43 H 0.532(3) 0.140(2) 0.712(3)
C50 C 0.6083(5) 0.2470(3) 0.7449(4)
H44 H 0.5929(11) 0.2667(13) 0.697(3)
B1 B 0.7147(5) 0.3811(3) 0.7978(3)
C27 C 0.1368(5) 0.8840(3) 0.6627(3)
C28 C 0.0629(5) 0.8274(3) 0.6201(3)
H25 H 0.104(2) 0.777(3) 0.6101(6)
C29 C -0.0643(6) 0.8337(4) 0.5897(3)
H26 H -0.119(3) 0.787(3) 0.5569(19)
C30 C -0.1222(6) 0.8975(4) 0.6001(3)
H27 H -0.210(6) 0.9021(6) 0.5791(15)
C31 C -0.0513(6) 0.9542(4) 0.6412(3)
H28 H -0.089(3) 0.999(3) 0.6488(7)
C32 C 0.0736(5) 0.9470(3) 0.6717(3)
H29 H 0.120(3) 0.989(3) 0.7014(19)
C33 C 0.3201(5) 0.9078(3) 0.7830(3)
C34 C 0.2625(5) 0.8722(4) 0.8219(3)
H30 H 0.201(4) 0.830(3) 0.7995(14)
C35 C 0.2873(6) 0.8925(4) 0.8905(3)
H31 H 0.251(3) 0.8687(19) 0.9140(18)
C36 C 0.3696(6) 0.9504(4) 0.9217(3)
H32 H 0.3879(13) 0.9655(10) 0.971(3)
C37 C 0.4257(5) 0.9870(4) 0.8847(3)
H33 H 0.484(4) 1.030(3) 0.9068(14)
C38 C 0.4024(5) 0.9649(3) 0.8164(3)
H34 H 0.445(3) 0.9906(15) 0.7914(15)
C39 C 0.3503(5) 0.9393(3) 0.6647(3)
C40 C 0.4738(6) 0.9287(3) 0.6768(3)
H35 H 0.523(3) 0.885(3) 0.711(2)
C41 C 0.5328(7) 0.9746(4) 0.6455(4)
H36 H 0.613(6) 0.9658(8) 0.6545(8)
C42 C 0.4723(7) 1.0330(4) 0.6010(3)
H37 H 0.520(3) 1.070(2) 0.5752(15)
C43 C 0.3524(7) 1.0453(3) 0.5890(3)
H38 H 0.308(3) 1.087(3) 0.558(2)
C44 C 0.2925(5) 0.9993(3) 0.6209(3)
H39 H 0.201(5) 1.0108(7) 0.6113(6)
C45 C 0.3353(5) 0.7946(3) 0.6979(3)
C46 C 0.3210(6) 0.7635(3) 0.6330(4)
H40 H 0.280(2) 0.801(2) 0.584(3)
C47 C 0.3546(7) 0.6899(4) 0.6252(5)
H41 H 0.3400(13) 0.6692(15) 0.576(3)
C48 C 0.4070(6) 0.6443(4) 0.6821(5)
H42 H 0.4280(19) 0.596(4) 0.6769(7)
C49 C 0.4281(5) 0.6720(4) 0.7471(5)
H43 H 0.468(3) 0.640(2) 0.788(3)
C50 C 0.3917(5) 0.7470(3) 0.7551(4)
H44 H 0.4071(11) 0.7667(13) 0.803(3)
B1 B 0.2853(5) 0.8811(3) 0.7022(3)
C27 C 0.1368(5) 0.6160(3) 0.1627(3)
C28 C 0.0629(5) 0.6726(3) 0.1201(3)
H25 H 0.104(2) 0.723(3) 0.1101(6)
C29 C -0.0643(6) 0.6663(4) 0.0897(3)
H26 H -0.119(3) 0.713(3) 0.0569(19)
C30 C -0.1222(6) 0.6025(4) 0.1001(3)
H27 H -0.210(6) 0.5979(6) 0.0791(15)
C31 C -0.0513(6) 0.5458(4) 0.1412(3)
H28 H -0.089(3) 0.501(3) 0.1488(7)
C32 C 0.0736(5) 0.5530(3) 0.1717(3)
H29 H 0.120(3) 0.511(3) 0.2014(19)
C33 C 0.3201(5) 0.5922(3) 0.2830(3)
C34 C 0.2625(5) 0.6278(4) 0.3219(3)
H30 H 0.201(4) 0.670(3) 0.2995(14)
C35 C 0.2873(6) 0.6075(4) 0.3905(3)
H31 H 0.251(3) 0.6313(19) 0.4140(18)
C36 C 0.3696(6) 0.5496(4) 0.4217(3)
H32 H 0.3879(13) 0.5345(10) 0.471(3)
C37 C 0.4257(5) 0.5130(4) 0.3847(3)
H33 H 0.484(4) 0.470(3) 0.4068(14)
C38 C 0.4024(5) 0.5351(3) 0.3164(3)
H34 H 0.445(3) 0.5094(15) 0.2914(15)
C39 C 0.3503(5) 0.5607(3) 0.1647(3)
C40 C 0.4738(6) 0.5713(3) 0.1768(3)
H35 H 0.523(3) 0.615(3) 0.211(2)
C41 C 0.5328(7) 0.5254(4) 0.1455(4)
H36 H 0.613(6) 0.5342(8) 0.1545(8)
C42 C 0.4723(7) 0.4670(4) 0.1010(3)
H37 H 0.520(3) 0.430(2) 0.0752(15)
C43 C 0.3524(7) 0.4547(3) 0.0890(3)
H38 H 0.308(3) 0.413(3) 0.058(2)
C44 C 0.2925(5) 0.5007(3) 0.1209(3)
H39 H 0.201(5) 0.4892(7) 0.1113(6)
C45 C 0.3353(5) 0.7054(3) 0.1979(3)
C46 C 0.3210(6) 0.7365(3) 0.1330(4)
H40 H 0.280(2) 0.699(2) 0.084(3)
C47 C 0.3546(7) 0.8101(4) 0.1252(5)
H41 H 0.3400(13) 0.8308(15) 0.076(3)
C48 C 0.4070(6) 0.8557(4) 0.1821(5)
H42 H 0.4280(19) 0.904(4) 0.1769(7)
C49 C 0.4281(5) 0.8280(4) 0.2471(5)
H43 H 0.468(3) 0.860(2) 0.288(3)
C50 C 0.3917(5) 0.7530(3) 0.2551(4)
H44 H 0.4071(11) 0.7333(13) 0.303(3)
B1 B 0.2853(5) 0.6189(3) 0.2022(3)

#END
