
#######################################################################
#
#                 Cambridge Crystallographic Data Centre
#                                CCDC 
#
#######################################################################
#
# If this CIF has been generated from an entry in the Cambridge 
# Structural Database, then it will include bibliographic, chemical, 
# crystal, experimental, refinement or atomic coordinate data resulting 
# from the CCDC's data processing and validation procedures.
#
#######################################################################

data_KACXAN
_symmetry_cell_setting           monoclinic
_symmetry_space_group_name_H-M   'P 21'
_symmetry_Int_Tables_number      4
_space_group_name_Hall           'P 2yb'
loop_
_symmetry_equiv_pos_site_id
_symmetry_equiv_pos_as_xyz
1 x,y,z
2 -x,1/2+y,-z
_cell_length_a                   7.014(3)
_cell_length_b                   7.937(4)
_cell_length_c                   13.147(3)
_cell_angle_alpha                90
_cell_angle_beta                 97.07(2)
_cell_angle_gamma                90
_cell_volume                     726.33
loop_
_atom_site_label
_atom_site_type_symbol
_atom_site_fract_x
_atom_site_fract_y
_atom_site_fract_z
O1 O 0.9028(5) 1.1376 0.9001(3)
O2 O 0.9116(6) 0.4868(7) 0.9092(3)
C1 C 0.8423(8) 0.7798(9) 0.8638(4)
C2 C 0.6424(9) 0.7572(9) 0.8972(4)
C3 C 0.5611(9) 0.923(1) 0.9308(5)
C4 C 0.5678(8) 1.0595(9) 0.8516(4)
C5 C 0.7645(8) 1.0806(8) 0.8176(4)
C6 C 0.8414(8) 0.9129(9) 0.7790(4)
C7 C 0.7308(8) 0.8488(9) 0.6770(4)
C8 C 0.8190(9) 0.682(1) 0.6483(5)
C9 C 0.8249(9) 0.5502(9) 0.7327(5)
C10 C 0.9337(8) 0.615(1) 0.8335(4)
C11 C 0.720(1) 0.981(1) 0.5894(5)
C12 C 0.917(1) 1.046(1) 0.5685(6)
C13 C 0.606(1) 0.913(1) 0.4902(6)
C14 C 1.1484(8) 0.634(1) 0.8252(5)
C15 C 0.4193(9) 1.149(1) 0.8124(5)
H1 H 0.9225 0.8223 0.9216
H2 H 0.5584 0.7132 0.8414
H3 H 0.6508 0.6802 0.9530
H4 H 0.4313 0.9064 0.9421
H5 H 0.6341 0.9587 0.9928
H6 H 0.9141 1.2469 0.9006
H7 H 0.7566 1.1609 0.7637
H8 H 0.9709 0.9310 0.7676
H9 H 0.6027 0.8258 0.6895
H10 H 0.9466 0.7028 0.6342
H11 H 0.7450 0.6391 0.5886
H12 H 0.8875 0.4522 0.7120
H13 H 0.6972 0.5228 0.7436
H14 H 0.9594 0.5262 0.9525
H15 H 0.6511 1.0752 0.6105
H16 H 0.9798 1.0974 0.6285
H17 H 0.9007 1.1255 0.5143
H18 H 0.9918 0.9538 0.5495
H19 H 0.5962 0.9983 0.4392
H20 H 0.6714 0.8182 0.4668
H21 H 0.4815 0.8803 0.5035
H22 H 1.1660 0.7163 0.7745
H23 H 1.2132 0.6697 0.8894
H24 H 1.1993 0.5295 0.8066
H25 H 0.2975 1.1327 0.8356
H26 H 0.4334 1.2306 0.7609
O1 O 0.0972(5) 0.6376 0.0999(3)
O2 O 0.0884(6) -0.0132(7) 0.0908(3)
C1 C 0.1577(8) 0.2798(9) 0.1362(4)
C2 C 0.3576(9) 0.2572(9) 0.1028(4)
C3 C 0.4389(9) 0.423(1) 0.0692(5)
C4 C 0.4322(8) 0.5595(9) 0.1484(4)
C5 C 0.2355(8) 0.5806(8) 0.1824(4)
C6 C 0.1586(8) 0.4129(9) 0.2210(4)
C7 C 0.2692(8) 0.3488(9) 0.3230(4)
C8 C 0.1810(9) 0.182(1) 0.3517(5)
C9 C 0.1751(9) 0.0502(9) 0.2673(5)
C10 C 0.0663(8) 0.115(1) 0.1665(4)
C11 C 0.280(1) 0.481(1) 0.4106(5)
C12 C 0.083(1) 0.546(1) 0.4315(6)
C13 C 0.394(1) 0.413(1) 0.5098(6)
C14 C -0.1484(8) 0.134(1) 0.1748(5)
C15 C 0.5807(9) 0.649(1) 0.1876(5)
H1 H 0.0775 0.3223 0.0784
H2 H 0.4416 0.2132 0.1586
H3 H 0.3492 0.1802 0.0470
H4 H 0.5687 0.4064 0.0579
H5 H 0.3659 0.4587 0.0072
H6 H 0.0859 0.7469 0.0994
H7 H 0.2434 0.6609 0.2363
H8 H 0.0291 0.4310 0.2324
H9 H 0.3973 0.3258 0.3105
H10 H 0.0534 0.2028 0.3658
H11 H 0.2550 0.1391 0.4114
H12 H 0.1125 -0.0478 0.2880
H13 H 0.3028 0.0228 0.2564
H14 H 0.0406 0.0262 0.0475
H15 H 0.3489 0.5752 0.3895
H16 H 0.0202 0.5974 0.3715
H17 H 0.0993 0.6255 0.4857
H18 H 0.0082 0.4538 0.4505
H19 H 0.4038 0.4983 0.5608
H20 H 0.3286 0.3182 0.5332
H21 H 0.5185 0.3803 0.4965
H22 H -0.1660 0.2163 0.2255
H23 H -0.2132 0.1697 0.1106
H24 H -0.1993 0.0295 0.1934
H25 H 0.7025 0.6327 0.1644
H26 H 0.5666 0.7306 0.2391

#END
