./KACXAN_from_POSCAR.cif_generated_by_CrystalShift
_symmetry_cell_setting triclinic
_symmetry_space_group_name_H-M 'P 1'
loop_
_symmetry_equiv_pos_site_id
_symmetry_equiv_pos_as_xyz
1 x,y,z
_cell_length_a 7.014000
_cell_length_b 7.937000
_cell_length_c 13.147000
_cell_angle_alpha 90.000000
_cell_angle_beta 97.070000
_cell_angle_gamma 90.000000
_cell_volume 726.330092
loop_
_atom_site_label
_atom_site_type_symbol
_atom_site_fract_x
_atom_site_fract_y
_atom_site_fract_z
H1 H 0.566600 0.730600 0.239100
H2 H -0.199300 0.029500 0.193400
H3 H -0.213200 0.169700 0.110600
H4 H -0.166000 0.216300 0.225500
H5 H 0.518500 0.380300 0.496500
H6 H 0.328600 0.318200 0.533200
H7 H 0.403800 0.498300 0.560800
H8 H 0.008200 0.453800 0.450500
H9 H 0.099300 0.625500 0.485700
H10 H 0.020200 0.597400 0.371500
H11 H 0.348900 0.575200 0.389500
H12 H 0.040600 0.026200 0.047500
H13 H 0.302800 0.022800 0.256400
H14 H 0.112500 -0.047800 0.288000
H15 H 0.255000 0.139100 0.411400
H16 H 0.053400 0.202800 0.365800
H17 H 0.397300 0.325800 0.310500
H18 H 0.922500 0.822300 0.921600
H19 H 0.558400 0.713200 0.841400
H20 H 0.650800 0.680200 0.953000
H21 H 0.431300 0.906400 0.942100
H22 H 0.634100 0.958700 0.992800
H23 H 0.914100 1.246900 0.900600
H24 H 0.756600 1.160900 0.763700
H25 H 0.970900 0.931000 0.767600
H26 H 0.602700 0.825800 0.689500
H27 H 0.946600 0.702800 0.634200
H28 H 0.745000 0.639100 0.588600
H29 H 0.887500 0.452200 0.712000
H30 H 0.697200 0.522800 0.743600
H31 H 0.959400 0.526200 0.952500
H32 H 0.651100 1.075200 0.610500
H33 H 0.979800 1.097400 0.628500
H34 H 0.900700 1.125500 0.514300
H35 H 0.991800 0.953800 0.549500
H36 H 0.596200 0.998300 0.439200
H37 H 0.671400 0.818200 0.466800
H38 H 0.481500 0.880300 0.503500
H39 H 1.166000 0.716300 0.774500
H40 H 1.213200 0.669700 0.889400
H41 H 1.199300 0.529500 0.806600
H42 H 0.297500 1.132700 0.835600
H43 H 0.433400 1.230600 0.760900
H44 H 0.029100 0.431000 0.232400
H45 H 0.243400 0.660900 0.236300
H46 H 0.085900 0.746900 0.099400
H47 H 0.365900 0.458700 0.007200
H48 H 0.568700 0.406400 0.057900
H49 H 0.349200 0.180200 0.047000
H50 H 0.441600 0.213200 0.158600
H51 H 0.077500 0.322300 0.078400
H52 H 0.702500 0.632700 0.164400
C53 C 0.181000 0.182000 0.351700
C54 C 0.175100 0.050200 0.267300
C55 C 0.066300 0.115000 0.166500
C56 C 0.280000 0.481000 0.410600
C57 C 0.083000 0.546000 0.431500
C58 C 0.394000 0.413000 0.509800
C59 C -0.148400 0.134000 0.174800
C60 C 0.580700 0.649000 0.187600
C61 C 0.158600 0.412900 0.221000
C62 C 0.235500 0.580600 0.182400
C63 C 0.432200 0.559500 0.148400
C64 C 0.438900 0.423000 0.069200
C65 C 0.357600 0.257200 0.102800
C66 C 0.157700 0.279800 0.136200
C67 C 0.842300 0.779800 0.863800
C68 C 0.642400 0.757200 0.897200
C69 C 0.419300 1.149000 0.812400
C70 C 1.148400 0.634000 0.825200
C71 C 0.606000 0.913000 0.490200
C72 C 0.917000 1.046000 0.568500
C73 C 0.720000 0.981000 0.589400
C74 C 0.933700 0.615000 0.833500
C75 C 0.824900 0.550200 0.732700
C76 C 0.819000 0.682000 0.648300
C77 C 0.730800 0.848800 0.677000
C78 C 0.841400 0.912900 0.779000
C79 C 0.764500 1.080600 0.817600
C80 C 0.567800 1.059500 0.851600
C81 C 0.561100 0.923000 0.930800
C82 C 0.269200 0.348800 0.323000
O83 O 0.911600 0.486800 0.909200
O84 O 0.088400 -0.013200 0.090800
O85 O 0.097200 0.637600 0.099900
O86 O 0.902800 1.137600 0.900100

#END
