./KACXAP_from_POSCAR.cif_generated_by_CrystalShift
_symmetry_cell_setting triclinic
_symmetry_space_group_name_H-M 'P 1'
loop_
_symmetry_equiv_pos_site_id
_symmetry_equiv_pos_as_xyz
1 x,y,z
_cell_length_a 7.205200
_cell_length_b 8.204000
_cell_length_c 11.308800
_cell_angle_alpha 91.461000
_cell_angle_beta 92.761000
_cell_angle_gamma 90.699000
_cell_volume 667.426268
loop_
_atom_site_label
_atom_site_type_symbol
_atom_site_fract_x
_atom_site_fract_y
_atom_site_fract_z
H1 H 0.713000 0.404000 0.553000
H2 H 0.954000 1.235000 1.271000
H3 H 0.916500 0.097100 0.566500
H4 H 1.097000 0.161300 0.642500
H5 H 1.025300 0.256800 0.527800
H6 H 0.830600 0.234700 0.741000
H7 H 0.190200 0.100200 -0.109300
H8 H 0.571200 0.953700 0.741900
H9 H 0.490300 0.718400 0.630000
H10 H 0.311200 -0.089900 0.078800
H11 H 0.640300 0.441700 0.911500
H12 H 0.724100 0.677900 1.021700
H13 H 0.688800 1.089900 0.921200
H14 H 0.809800 0.899800 1.109300
H15 H 0.275900 0.322100 -0.021700
H16 H 0.287000 0.596000 0.447000
H17 H -0.115000 0.461000 0.149000
H18 H 0.359700 0.558300 0.088500
H19 H 0.046000 -0.235000 -0.271000
H20 H 0.083500 0.902900 0.433500
H21 H 0.509700 0.281600 0.370000
H22 H -0.097000 0.838700 0.357500
H23 H 0.428800 0.046300 0.258100
H24 H -0.025300 0.743200 0.472200
H25 H 0.169400 0.765300 0.259000
H26 H 1.115000 0.539000 0.851000
C27 C 0.013200 0.805700 0.404700
C28 C 0.027000 0.547200 0.283800
C29 C 0.413700 0.150300 0.224100
C30 C 0.462800 0.289300 0.290400
C31 C 0.442400 0.440500 0.238970
C32 C 0.372900 0.454200 0.122700
C33 C 0.158300 -0.153800 -0.128500
C34 C 0.986800 0.194300 0.595300
C35 C 0.211600 0.001900 -0.068500
C36 C 0.865900 0.298700 0.671200
C37 C 0.841700 1.153800 1.128500
C38 C 0.973000 0.452800 0.716200
C39 C 0.788400 0.998100 1.068500
C40 C 0.323300 0.314100 0.057700
C41 C 0.586300 0.849700 0.775900
C42 C 0.711300 0.989700 0.959400
C43 C 0.288700 0.010300 0.040600
C44 C 0.537200 0.710700 0.709600
C45 C 0.658000 0.839300 0.892460
C46 C 0.134100 0.701300 0.328800
C47 C 0.676700 0.685900 0.942300
C48 C 0.342000 0.160700 0.107540
C49 C 0.557600 0.559500 0.761030
C50 C 0.627100 0.545800 0.877300
N51 N 0.695900 0.341200 0.602540
N52 N 0.304100 0.658800 0.397460
O53 O 0.966800 0.581100 0.662720
O54 O 0.514700 0.750800 0.246060
O55 O 1.066000 0.433900 0.816260
O56 O -0.066000 0.566100 0.183740
O57 O 0.367700 0.413500 0.586510
O58 O 0.033200 0.418900 0.337280
O59 O 0.917100 1.138000 1.234630
O60 O 0.082900 -0.138000 -0.234630
O61 O 0.181900 -0.287500 -0.081590
O62 O 0.632300 0.586500 0.413490
O63 O 0.818100 1.287500 1.081590
O64 O 0.485300 0.249200 0.753940
S65 S 0.510740 0.380190 0.674780
S66 S 0.489260 0.619810 0.325220

#END
