./KADPOU02_from_POSCAR.cif_generated_by_CrystalShift
_symmetry_cell_setting triclinic
_symmetry_space_group_name_H-M 'P 1'
loop_
_symmetry_equiv_pos_site_id
_symmetry_equiv_pos_as_xyz
1 x,y,z
_cell_length_a 10.045000
_cell_length_b 10.084000
_cell_length_c 13.190000
_cell_angle_alpha 111.162000
_cell_angle_beta 96.841000
_cell_angle_gamma 90.395000
_cell_volume 1235.297275
loop_
_atom_site_label
_atom_site_type_symbol
_atom_site_fract_x
_atom_site_fract_y
_atom_site_fract_z
H1 H 0.689200 0.606500 0.608900
H2 H 0.745800 0.757000 0.691300
H3 H 0.853100 0.392700 0.533700
H4 H 0.919500 0.151500 0.537100
H5 H 0.990200 -0.074500 0.707000
H6 H 0.819300 0.500400 0.347700
H7 H 0.734000 0.358300 0.280500
H8 H 0.676500 0.476400 0.376800
H9 H 1.040100 0.009600 0.638000
H10 H 0.890700 -0.050300 0.615000
H11 H 0.394400 -0.097000 0.842300
H12 H 0.272300 -0.050900 0.779200
H13 H 0.363400 0.064300 0.876300
H14 H 0.513300 -0.146300 0.590500
H15 H 0.364900 -0.180900 0.602500
H16 H 0.484600 -0.224000 0.670000
H17 H -0.062500 0.875400 0.116000
H18 H -0.122500 0.793500 0.182500
H19 H -0.021300 0.720100 0.100000
H20 H 0.339600 0.010200 0.523300
H21 H 0.718800 0.545100 0.096500
H22 H 0.763900 0.402900 0.109300
H23 H 0.844800 0.546800 0.179500
H24 H 0.275000 0.260100 0.538600
H25 H 0.849600 0.131700 0.964900
H26 H 0.519800 0.352200 0.020800
H27 H 0.606300 0.057200 0.953000
H28 H 0.278100 0.286100 0.029200
H29 H 0.889500 0.780400 0.868100
H30 H 0.991300 0.690800 0.792600
H31 H 0.943800 0.642600 0.883600
H32 H 0.056200 0.357400 0.116400
H33 H 0.008700 0.309200 0.207400
H34 H 0.110500 0.219600 0.131900
H35 H 0.721900 0.713900 0.970800
H36 H 0.480200 0.647800 0.979200
H37 H 0.155200 0.453200 0.820500
H38 H 0.393700 0.942800 0.047000
H39 H 0.236100 0.597100 0.890700
H40 H 0.150400 0.868300 0.035100
H41 H 0.281200 0.454900 0.903500
H42 H 0.725000 0.739900 0.461400
H43 H 1.021300 0.279900 0.900000
H44 H 0.660400 0.989800 0.476700
H45 H 1.122500 0.206500 0.817500
H46 H 0.515400 1.224000 0.330000
H47 H 0.635100 1.180900 0.397500
H48 H 0.486700 1.146300 0.409500
H49 H 1.062500 0.124600 0.884000
H50 H 0.636600 0.935700 0.123700
H51 H 0.727700 1.050900 0.220800
H52 H 0.605600 1.097000 0.157700
H53 H 0.323500 0.523600 0.623200
H54 H 0.109300 1.050300 0.385000
H55 H -0.040100 0.990400 0.362000
H56 H 0.009800 1.074500 0.293000
H57 H 0.266000 0.641700 0.719500
H58 H 0.080500 0.848500 0.462900
H59 H 0.180700 0.499600 0.652300
H60 H 0.146900 0.607300 0.466300
H61 H 0.310800 0.393500 0.391100
H62 H 0.254200 0.243000 0.308700
H63 H 0.158800 0.348200 0.381200
H64 H 0.841200 0.651800 0.618800
C65 C 0.765700 0.658800 0.658400
C66 C 0.860700 0.365300 0.594200
C67 C 0.898200 0.229000 0.596000
C68 C 0.730200 0.459100 0.318300
C69 C 0.269800 0.540900 0.681700
C70 C 0.139300 0.634700 0.405800
C71 C 0.101800 0.771000 0.404000
C72 C 0.034500 1.009300 0.329100
C73 C 0.332800 0.473300 0.762500
C74 C 0.342000 0.316500 0.700700
C75 C 0.398400 0.097900 0.686900
C76 C 0.453800 -0.008600 0.734700
C77 C 0.593100 0.038300 0.794200
C78 C 0.806400 0.102400 0.803600
C79 C 0.925900 0.130800 0.755200
C80 C 1.044200 0.191200 0.847900
C81 C 0.637600 1.024500 0.184300
C82 C 0.545800 1.153600 0.359400
C83 C 0.651100 0.908900 0.413100
C84 C 0.242900 0.496800 0.852700
C85 C 0.687800 0.767300 0.404500
C86 C 0.214100 0.893600 0.097100
C87 C 0.351100 0.935300 0.103700
C88 C 0.470300 0.543600 0.814900
C89 C 0.523400 0.622100 0.916900
C90 C 0.103400 0.764900 0.302100
C91 C 0.659700 0.659200 0.912200
C92 C 0.161100 0.555200 0.305000
C93 C 0.680300 0.600100 0.807400
C94 C 0.799300 0.596500 0.748600
C95 C 0.917000 0.686000 0.830900
C96 C 0.083000 0.314000 0.169100
C97 C 0.200700 0.403500 0.251400
C98 C 0.319700 0.399900 0.192600
C99 C 0.838900 0.444800 0.695000
C100 C 0.896600 0.235100 0.697900
C101 C 0.648900 0.064700 0.896300
C102 C 0.340300 0.340800 0.087800
C103 C 0.785900 0.106400 0.902900
C104 C 0.476600 0.377900 0.083100
C105 C 0.312200 0.232700 0.595500
C106 C 0.529700 0.456400 0.185100
C107 C 0.348900 0.091100 0.586900
C108 C 0.757100 0.503200 0.147300
C109 C 0.454200 -0.153600 0.640600
C110 C -0.044200 0.808800 0.152100
C111 C 0.074100 0.869200 0.244800
C112 C 0.193600 0.897600 0.196400
C113 C 0.362400 -0.024500 0.815700
C114 C 0.406900 0.961700 0.205800
C115 C 0.546200 1.008600 0.265300
C116 C 0.601600 0.902100 0.313100
C117 C 0.965500 -0.009300 0.670900
C118 C 0.658000 0.683500 0.299300
C119 C 0.667200 0.526700 0.237500
C120 C 0.234300 0.341200 0.341600
O121 O 0.435300 0.473000 0.255800
O122 O 0.687400 0.060800 0.734300
O123 O 0.140000 0.632800 0.237800
O124 O 0.397300 0.237100 0.759900
O125 O 0.312600 0.939200 0.265700
O126 O 0.860000 0.367200 0.762200
O127 O 0.564700 0.527000 0.744200
O128 O 0.602700 0.762900 0.240100

#END
