
#######################################################################
#
#                 Cambridge Crystallographic Data Centre
#                                CCDC 
#
#######################################################################
#
# If this CIF has been generated from an entry in the Cambridge 
# Structural Database, then it will include bibliographic, chemical, 
# crystal, experimental, refinement or atomic coordinate data resulting 
# from the CCDC's data processing and validation procedures.
#
#######################################################################

data_KADPOU02
_symmetry_cell_setting           triclinic
_symmetry_space_group_name_H-M   'P -1'
_symmetry_Int_Tables_number      2
_space_group_name_Hall           '-P 1'
loop_
_symmetry_equiv_pos_site_id
_symmetry_equiv_pos_as_xyz
1 x,y,z
2 -x,-y,-z
_cell_length_a                   10.045(5)
_cell_length_b                   10.084(5)
_cell_length_c                   13.190(6)
_cell_angle_alpha                111.162(13)
_cell_angle_beta                 96.841(14)
_cell_angle_gamma                90.395(13)
_cell_volume                     1235.3
loop_
_atom_site_label
_atom_site_type_symbol
_atom_site_fract_x
_atom_site_fract_y
_atom_site_fract_z
O1 O 0.6027(3) 0.7629(3) 0.2401(2)
O2 O 0.3126(3) 0.9392(3) 0.2657(2)
O3 O 0.1400(3) 0.6328(3) 0.2378(2)
O4 O 0.4353(3) 0.4730(3) 0.2558(2)
C1 C 0.7302(5) 0.4591(5) 0.3183(5)
H1 H 0.8193 0.5004 0.3477
H2 H 0.7340 0.3583 0.2805
H3 H 0.6765 0.4764 0.3768
C2 C 0.6672(4) 0.5267(4) 0.2375(4)
C3 C 0.6580(4) 0.6835(4) 0.2993(4)
C4 C 0.6016(4) 0.9021(4) 0.3131(4)
C5 C 0.5462(4) 1.0086(4) 0.2653(4)
C6 C 0.4069(4) 0.9617(4) 0.2058(4)
C7 C 0.1936(4) 0.8976(4) 0.1964(4)
C8 C 0.0741(4) 0.8692(4) 0.2448(4)
C9 C -0.0442(5) 0.8088(5) 0.1521(4)
H4 H -0.0625 0.8754 0.1160
H5 H -0.1225 0.7935 0.1825
H6 H -0.0213 0.7201 0.1000
C10 C 0.7571(6) 0.5032(6) 0.1473(5)
H7 H 0.7188 0.5451 0.0965
H8 H 0.7639 0.4029 0.1093
H9 H 0.8448 0.5468 0.1795
C11 C 0.5297(4) 0.4564(4) 0.1851(4)
C12 C 0.4766(5) 0.3779(5) 0.0831(4)
H10 H 0.5198 0.3522 0.0208
C13 C 0.3403(5) 0.3408(5) 0.0878(4)
H11 H 0.2781 0.2861 0.0292
C14 C 0.3197(4) 0.3999(4) 0.1926(4)
C15 C 0.2007(4) 0.4035(4) 0.2514(4)
C16 C 0.0830(5) 0.3140(5) 0.1691(5)
H12 H 0.0562 0.3574 0.1164
H13 H 0.0087 0.3092 0.2074
H14 H 0.1105 0.2196 0.1319
C17 C 0.1611(4) 0.5552(5) 0.3050(3)
C18 C 0.1034(4) 0.7649(4) 0.3021(4)
C19 C 0.3511(5) 0.9353(6) 0.1037(4)
H15 H 0.3937 0.9428 0.0470
C20 C 0.2141(5) 0.8936(6) 0.0971(4)
H16 H 0.1504 0.8683 0.0351
C21 C 0.6878(5) 0.7673(5) 0.4045(4)
H17 H 0.7250 0.7399 0.4614
C22 C 0.6511(5) 0.9089(5) 0.4131(4)
H18 H 0.6604 0.9898 0.4767
C23 C 0.5458(5) 1.1536(5) 0.3594(4)
H19 H 0.5154 1.2240 0.3300
H20 H 0.6351 1.1809 0.3975
H21 H 0.4867 1.1463 0.4095
C24 C 0.6376(5) 1.0245(6) 0.1843(5)
H22 H 0.6366 0.9357 0.1237
H23 H 0.7277 1.0509 0.2208
H24 H 0.6056 1.0970 0.1577
C25 C 0.0345(5) 1.0093(5) 0.3291(5)
H25 H 0.1093 1.0503 0.3850
H26 H -0.0401 0.9904 0.3620
H27 H 0.0098 1.0745 0.2930
C26 C 0.1018(5) 0.7710(5) 0.4040(4)
H28 H 0.0805 0.8485 0.4629
C27 C 0.1393(6) 0.6347(6) 0.4058(4)
H29 H 0.1469 0.6073 0.4663
C28 C 0.2343(5) 0.3412(6) 0.3416(5)
H30 H 0.2542 0.2430 0.3087
H31 H 0.1588 0.3482 0.3812
H32 H 0.3108 0.3935 0.3911
O1 O 0.3973(3) 0.2371(3) 0.7599(2)
O2 O 0.6874(3) 0.0608(3) 0.7343(2)
O3 O 0.8600(3) 0.3672(3) 0.7622(2)
O4 O 0.5647(3) 0.5270(3) 0.7442(2)
C1 C 0.2698(5) 0.5409(5) 0.6817(5)
H1 H 0.1807 0.4996 0.6523
H2 H 0.2660 0.6417 0.7195
H3 H 0.3235 0.5236 0.6232
C2 C 0.3328(4) 0.4733(4) 0.7625(4)
C3 C 0.3420(4) 0.3165(4) 0.7007(4)
C4 C 0.3984(4) 0.0979(4) 0.6869(4)
C5 C 0.4538(4) -0.0086(4) 0.7347(4)
C6 C 0.5931(4) 0.0383(4) 0.7942(4)
C7 C 0.8064(4) 0.1024(4) 0.8036(4)
C8 C 0.9259(4) 0.1308(4) 0.7552(4)
C9 C 1.0442(5) 0.1912(5) 0.8479(4)
H4 H 1.0625 0.1246 0.8840
H5 H 1.1225 0.2065 0.8175
H6 H 1.0213 0.2799 0.9000
C10 C 0.2429(6) 0.4968(6) 0.8527(5)
H7 H 0.2812 0.4549 0.9035
H8 H 0.2361 0.5971 0.8907
H9 H 0.1552 0.4532 0.8205
C11 C 0.4703(4) 0.5436(4) 0.8149(4)
C12 C 0.5234(5) 0.6221(5) 0.9169(4)
H10 H 0.4802 0.6478 0.9792
C13 C 0.6597(5) 0.6592(5) 0.9122(4)
H11 H 0.7219 0.7139 0.9708
C14 C 0.6803(4) 0.6001(4) 0.8074(4)
C15 C 0.7993(4) 0.5965(4) 0.7486(4)
C16 C 0.9170(5) 0.6860(5) 0.8309(5)
H12 H 0.9438 0.6426 0.8836
H13 H 0.9913 0.6908 0.7926
H14 H 0.8895 0.7804 0.8681
C17 C 0.8389(4) 0.4448(5) 0.6950(3)
C18 C 0.8966(4) 0.2351(4) 0.6979(4)
C19 C 0.6489(5) 0.0647(6) 0.8963(4)
H15 H 0.6063 0.0572 0.9530
C20 C 0.7859(5) 0.1064(6) 0.9029(4)
H16 H 0.8496 0.1317 0.9649
C21 C 0.3122(5) 0.2327(5) 0.5955(4)
H17 H 0.2750 0.2601 0.5386
C22 C 0.3489(5) 0.0911(5) 0.5869(4)
H18 H 0.3396 0.0102 0.5233
C23 C 0.4542(5) -0.1536(5) 0.6406(4)
H19 H 0.4846 -0.2240 0.6700
H20 H 0.3649 -0.1809 0.6025
H21 H 0.5133 -0.1463 0.5905
C24 C 0.3624(5) -0.0245(6) 0.8157(5)
H22 H 0.3634 0.0643 0.8763
H23 H 0.2723 -0.0509 0.7792
H24 H 0.3944 -0.0970 0.8423
C25 C 0.9655(5) -0.0093(5) 0.6709(5)
H25 H 0.8907 -0.0503 0.6150
H26 H 1.0401 0.0096 0.6380
H27 H 0.9902 -0.0745 0.7070
C26 C 0.8982(5) 0.2290(5) 0.5960(4)
H28 H 0.9195 0.1515 0.5371
C27 C 0.8607(6) 0.3653(6) 0.5942(4)
H29 H 0.8531 0.3927 0.5337
C28 C 0.7657(5) 0.6588(6) 0.6584(5)
H30 H 0.7458 0.7570 0.6913
H31 H 0.8412 0.6518 0.6188
H32 H 0.6892 0.6065 0.6089

#END
