
#######################################################################
#
#                 Cambridge Crystallographic Data Centre
#                                CCDC 
#
#######################################################################
#
# If this CIF has been generated from an entry in the Cambridge 
# Structural Database, then it will include bibliographic, chemical, 
# crystal, experimental, refinement or atomic coordinate data resulting 
# from the CCDC's data processing and validation procedures.
#
#######################################################################

data_KADPOU
_symmetry_cell_setting           tetragonal
_symmetry_space_group_name_H-M   'P 41'
_symmetry_Int_Tables_number      76
_space_group_name_Hall           'P 4w'
loop_
_symmetry_equiv_pos_site_id
_symmetry_equiv_pos_as_xyz
1 x,y,z
2 -y,x,1/4+z
3 -x,-y,1/2+z
4 y,-x,3/4+z
_cell_length_a                   10.055(2)
_cell_length_b                   10.055(2)
_cell_length_c                   24.311(7)
_cell_angle_alpha                90
_cell_angle_beta                 90
_cell_angle_gamma                90
_cell_volume                     2457.92
loop_
_atom_site_label
_atom_site_type_symbol
_atom_site_fract_x
_atom_site_fract_y
_atom_site_fract_z
O1 O 0.6801(4) 0.1934(4) -0.0013
C1 C 0.6983(7) 0.0872(7) 0.0331(3)
C2 C 0.6684(8) 0.1229(8) 0.0853(4)
C3 C 0.6292(7) 0.2602(7) 0.0844(4)
C4 C 0.6384(7) 0.2957(6) 0.0311(4)
C5 C 0.6158(6) 0.4273(7) 0.0017(4)
C6 C 0.5069(8) 0.4080(8) -0.0428(4)
C7 C 0.5653(9) 0.5302(8) 0.0442(4)
O2 O 0.8498(4) 0.4865(5) 0.0075(2)
C8 C 0.7383(7) 0.4785(7) -0.0255(4)
C9 C 0.7701(8) 0.5176(7) -0.0760(4)
C10 C 0.9057(8) 0.5553(8) -0.0747(4)
C11 C 0.9525(7) 0.5348(6) -0.0238(3)
C12 C 1.0832(7) 0.5572(6) 0.0043(4)
C13 C 1.0681(9) 0.6573(9) 0.0515(4)
C14 C 1.1811(8) 0.6123(9) -0.0379(4)
O3 O 1.1411(4) 0.3207(4) -0.0085(2)
C15 C 1.1329(7) 0.4261(7) 0.0271(3)
C16 C 1.1801(8) 0.3898(8) 0.0767(4)
C17 C 1.2183(9) 0.2535(9) 0.0727(4)
C18 C 1.1921(7) 0.2151(7) 0.0213(3)
C19 C 1.2083(8) 0.0843(7) -0.0090(4)
C20 C 1.3084(9) 0.1005(9) -0.0560(4)
C21 C 1.2620(9) -0.0209(10) 0.0322(5)
O4 O 0.9760(4) 0.0236(5) 0.0048(2)
C22 C 1.0801(7) 0.0385(7) -0.0322(4)
C23 C 1.0377(8) 0.0043(9) -0.0822(4)
C24 C 0.9011(8) -0.0331(8) -0.0767(4)
C25 C 0.8637(8) -0.0213(8) -0.0243(4)
C26 C 0.7406(6) -0.0424(8) 0.0081(4)
C27 C 0.7600(10) -0.1451(9) 0.0533(4)
C28 C 0.6337(8) -0.0915(9) -0.0317(5)
H1 H 0.672(7) 0.058(7) 0.110(3)
H2 H 0.609(6) 0.320(6) 0.119(3)
H3 H 0.504(7) 0.494(7) -0.062(3)
H4 H 0.428(7) 0.376(6) -0.028(3)
H5 H 0.548(6) 0.335(6) -0.075(3)
H6 H 0.540(7) 0.612(7) 0.024(3)
H7 H 0.637(6) 0.556(6) 0.074(3)
H8 H 0.481(7) 0.493(7) 0.068(3)
H9 H 0.723(7) 0.526(7) -0.106(3)
H10 H 0.959(6) 0.595(6) -0.103(3)
H11 H 1.166(7) 0.669(6) 0.075(3)
H12 H 1.017(7) 0.620(7) 0.079(3)
H13 H 1.054(6) 0.761(7) 0.035(2)
H14 H 1.198(7) 0.562(7) -0.066(3)
H15 H 1.157(7) 0.707(7) -0.049(3)
H16 H 1.268(8) 0.607(6) -0.023(3)
H17 H 1.183(7) 0.445(7) 0.107(3)
H18 H 1.239(7) 0.204(7) 0.096(3)
H19 H 1.319(6) 0.013(7) -0.075(3)
H20 H 1.394(7) 0.134(6) -0.047(3)
H21 H 1.280(7) 0.166(7) -0.084(3)
H22 H 1.312(6) -0.083(7) 0.009(3)
H23 H 1.198(6) -0.034(7) 0.067(3)
H24 H 1.341(7) 0.017(7) 0.043(3)
H25 H 1.092(6) 0.009(6) -0.119(3)
H26 H 0.851(7) -0.065(7) -0.104(3)
H27 H 0.834(7) -0.117(7) 0.077(3)
H28 H 0.783(6) -0.238(8) 0.035(3)
H29 H 0.680(7) -0.152(6) 0.075(3)
H30 H 0.534(7) -0.099(6) -0.015(3)
H31 H 0.626(7) -0.027(6) -0.063(3)
H32 H 0.656(6) -0.179(7) -0.050(3)
O1 O 0.8066(4) 0.6801(4) 0.2487
C1 C 0.9128(7) 0.6983(7) 0.2831(3)
C2 C 0.8771(8) 0.6684(8) 0.3353(4)
C3 C 0.7398(7) 0.6292(7) 0.3344(4)
C4 C 0.7043(6) 0.6384(7) 0.2811(4)
C5 C 0.5727(7) 0.6158(6) 0.2517(4)
C6 C 0.5920(8) 0.5069(8) 0.2072(4)
C7 C 0.4698(8) 0.5653(9) 0.2942(4)
O2 O 0.5135(5) 0.8498(4) 0.2575(2)
C8 C 0.5215(7) 0.7383(7) 0.2245(4)
C9 C 0.4824(7) 0.7701(8) 0.1740(4)
C10 C 0.4447(8) 0.9057(8) 0.1753(4)
C11 C 0.4652(6) 0.9525(7) 0.2262(3)
C12 C 0.4428(6) 1.0832(7) 0.2543(4)
C13 C 0.3427(9) 1.0681(9) 0.3015(4)
C14 C 0.3877(9) 1.1811(8) 0.2121(4)
O3 O 0.6793(4) 1.1411(4) 0.2415(2)
C15 C 0.5739(7) 1.1329(7) 0.2771(3)
C16 C 0.6102(8) 1.1801(8) 0.3267(4)
C17 C 0.7465(9) 1.2183(9) 0.3227(4)
C18 C 0.7849(7) 1.1921(7) 0.2713(3)
C19 C 0.9157(7) 1.2083(8) 0.2410(4)
C20 C 0.8995(9) 1.3084(9) 0.1940(4)
C21 C 1.0209(10) 1.2620(9) 0.2822(5)
O4 O 0.9764(5) 0.9760(4) 0.2548(2)
C22 C 0.9615(7) 1.0801(7) 0.2178(4)
C23 C 0.9957(9) 1.0377(8) 0.1678(4)
C24 C 1.0331(8) 0.9011(8) 0.1733(4)
C25 C 1.0213(8) 0.8637(8) 0.2257(4)
C26 C 1.0424(8) 0.7406(6) 0.2581(4)
C27 C 1.1451(9) 0.7600(10) 0.3033(4)
C28 C 1.0915(9) 0.6337(8) 0.2183(5)
H1 H 0.942(7) 0.672(7) 0.360(3)
H2 H 0.680(6) 0.609(6) 0.369(3)
H3 H 0.506(7) 0.504(7) 0.188(3)
H4 H 0.624(6) 0.428(7) 0.222(3)
H5 H 0.665(6) 0.548(6) 0.175(3)
H6 H 0.388(7) 0.540(7) 0.274(3)
H7 H 0.444(6) 0.637(6) 0.324(3)
H8 H 0.507(7) 0.481(7) 0.318(3)
H9 H 0.474(7) 0.723(7) 0.144(3)
H10 H 0.405(6) 0.959(6) 0.147(3)
H11 H 0.331(6) 1.166(7) 0.325(3)
H12 H 0.380(7) 1.017(7) 0.329(3)
H13 H 0.239(7) 1.054(6) 0.285(2)
H14 H 0.438(7) 1.198(7) 0.184(3)
H15 H 0.293(7) 1.157(7) 0.201(3)
H16 H 0.393(6) 1.268(8) 0.227(3)
H17 H 0.555(7) 1.183(7) 0.357(3)
H18 H 0.796(7) 1.239(7) 0.346(3)
H19 H 0.987(7) 1.319(6) 0.175(3)
H20 H 0.866(6) 1.394(7) 0.203(3)
H21 H 0.834(7) 1.280(7) 0.166(3)
H22 H 1.083(7) 1.312(6) 0.259(3)
H23 H 1.034(7) 1.198(6) 0.317(3)
H24 H 0.983(7) 1.341(7) 0.293(3)
H25 H 0.991(6) 1.092(6) 0.131(3)
H26 H 1.065(7) 0.851(7) 0.146(3)
H27 H 1.117(7) 0.834(7) 0.327(3)
H28 H 1.238(8) 0.783(6) 0.285(3)
H29 H 1.152(6) 0.680(7) 0.325(3)
H30 H 1.099(6) 0.534(7) 0.235(3)
H31 H 1.027(6) 0.626(7) 0.187(3)
H32 H 1.179(7) 0.656(6) 0.200(3)
O1 O 0.3199(4) 0.8066(4) 0.4987
C1 C 0.3017(7) 0.9128(7) 0.5331(3)
C2 C 0.3316(8) 0.8771(8) 0.5853(4)
C3 C 0.3708(7) 0.7398(7) 0.5844(4)
C4 C 0.3616(7) 0.7043(6) 0.5311(4)
C5 C 0.3842(6) 0.5727(7) 0.5017(4)
C6 C 0.4931(8) 0.5920(8) 0.4572(4)
C7 C 0.4347(9) 0.4698(8) 0.5442(4)
O2 O 0.1502(4) 0.5135(5) 0.5075(2)
C8 C 0.2617(7) 0.5215(7) 0.4745(4)
C9 C 0.2299(8) 0.4824(7) 0.4240(4)
C10 C 0.0943(8) 0.4447(8) 0.4253(4)
C11 C 0.0475(7) 0.4652(6) 0.4762(3)
C12 C -0.0832(7) 0.4428(6) 0.5043(4)
C13 C -0.0681(9) 0.3427(9) 0.5515(4)
C14 C -0.1811(8) 0.3877(9) 0.4621(4)
O3 O -0.1411(4) 0.6793(4) 0.4915(2)
C15 C -0.1329(7) 0.5739(7) 0.5271(3)
C16 C -0.1801(8) 0.6102(8) 0.5767(4)
C17 C -0.2183(9) 0.7465(9) 0.5727(4)
C18 C -0.1921(7) 0.7849(7) 0.5213(3)
C19 C -0.2083(8) 0.9157(7) 0.4910(4)
C20 C -0.3084(9) 0.8995(9) 0.4440(4)
C21 C -0.2620(9) 1.0209(10) 0.5322(5)
O4 O 0.0240(4) 0.9764(5) 0.5048(2)
C22 C -0.0801(7) 0.9615(7) 0.4678(4)
C23 C -0.0377(8) 0.9957(9) 0.4178(4)
C24 C 0.0989(8) 1.0331(8) 0.4233(4)
C25 C 0.1363(8) 1.0213(8) 0.4757(4)
C26 C 0.2594(6) 1.0424(8) 0.5081(4)
C27 C 0.2400(10) 1.1451(9) 0.5533(4)
C28 C 0.3663(8) 1.0915(9) 0.4683(5)
H1 H 0.328(7) 0.942(7) 0.610(3)
H2 H 0.391(6) 0.680(6) 0.619(3)
H3 H 0.496(7) 0.506(7) 0.438(3)
H4 H 0.572(7) 0.624(6) 0.472(3)
H5 H 0.452(6) 0.665(6) 0.425(3)
H6 H 0.460(7) 0.388(7) 0.524(3)
H7 H 0.363(6) 0.444(6) 0.574(3)
H8 H 0.519(7) 0.507(7) 0.568(3)
H9 H 0.277(7) 0.474(7) 0.394(3)
H10 H 0.041(6) 0.405(6) 0.397(3)
H11 H -0.166(7) 0.331(6) 0.575(3)
H12 H -0.017(7) 0.380(7) 0.579(3)
H13 H -0.054(6) 0.239(7) 0.535(2)
H14 H -0.198(7) 0.438(7) 0.434(3)
H15 H -0.157(7) 0.293(7) 0.451(3)
H16 H -0.268(8) 0.393(6) 0.477(3)
H17 H -0.183(7) 0.555(7) 0.607(3)
H18 H -0.239(7) 0.796(7) 0.596(3)
H19 H -0.319(6) 0.987(7) 0.425(3)
H20 H -0.394(7) 0.866(6) 0.453(3)
H21 H -0.280(7) 0.834(7) 0.416(3)
H22 H -0.312(6) 1.083(7) 0.509(3)
H23 H -0.198(6) 1.034(7) 0.567(3)
H24 H -0.341(7) 0.983(7) 0.543(3)
H25 H -0.092(6) 0.991(6) 0.381(3)
H26 H 0.149(7) 1.065(7) 0.396(3)
H27 H 0.166(7) 1.117(7) 0.577(3)
H28 H 0.217(6) 1.238(8) 0.535(3)
H29 H 0.320(7) 1.152(6) 0.575(3)
H30 H 0.466(7) 1.099(6) 0.485(3)
H31 H 0.374(7) 1.027(6) 0.437(3)
H32 H 0.344(6) 1.179(7) 0.450(3)
O1 O 0.1934(4) 0.3199(4) 0.7487
C1 C 0.0872(7) 0.3017(7) 0.7831(3)
C2 C 0.1229(8) 0.3316(8) 0.8353(4)
C3 C 0.2602(7) 0.3708(7) 0.8344(4)
C4 C 0.2957(6) 0.3616(7) 0.7811(4)
C5 C 0.4273(7) 0.3842(6) 0.7517(4)
C6 C 0.4080(8) 0.4931(8) 0.7072(4)
C7 C 0.5302(8) 0.4347(9) 0.7942(4)
O2 O 0.4865(5) 0.1502(4) 0.7575(2)
C8 C 0.4785(7) 0.2617(7) 0.7245(4)
C9 C 0.5176(7) 0.2299(8) 0.6740(4)
C10 C 0.5553(8) 0.0943(8) 0.6753(4)
C11 C 0.5348(6) 0.0475(7) 0.7262(3)
C12 C 0.5572(6) -0.0832(7) 0.7543(4)
C13 C 0.6573(9) -0.0681(9) 0.8015(4)
C14 C 0.6123(9) -0.1811(8) 0.7121(4)
O3 O 0.3207(4) -0.1411(4) 0.7415(2)
C15 C 0.4261(7) -0.1329(7) 0.7771(3)
C16 C 0.3898(8) -0.1801(8) 0.8267(4)
C17 C 0.2535(9) -0.2183(9) 0.8227(4)
C18 C 0.2151(7) -0.1921(7) 0.7713(3)
C19 C 0.0843(7) -0.2083(8) 0.7410(4)
C20 C 0.1005(9) -0.3084(9) 0.6940(4)
C21 C -0.0209(10) -0.2620(9) 0.7822(5)
O4 O 0.0236(5) 0.0240(4) 0.7548(2)
C22 C 0.0385(7) -0.0801(7) 0.7178(4)
C23 C 0.0043(9) -0.0377(8) 0.6678(4)
C24 C -0.0331(8) 0.0989(8) 0.6733(4)
C25 C -0.0213(8) 0.1363(8) 0.7257(4)
C26 C -0.0424(8) 0.2594(6) 0.7581(4)
C27 C -0.1451(9) 0.2400(10) 0.8033(4)
C28 C -0.0915(9) 0.3663(8) 0.7183(5)
H1 H 0.058(7) 0.328(7) 0.860(3)
H2 H 0.320(6) 0.391(6) 0.869(3)
H3 H 0.494(7) 0.496(7) 0.688(3)
H4 H 0.376(6) 0.572(7) 0.722(3)
H5 H 0.335(6) 0.452(6) 0.675(3)
H6 H 0.612(7) 0.460(7) 0.774(3)
H7 H 0.556(6) 0.363(6) 0.824(3)
H8 H 0.493(7) 0.519(7) 0.818(3)
H9 H 0.526(7) 0.277(7) 0.644(3)
H10 H 0.595(6) 0.041(6) 0.647(3)
H11 H 0.669(6) -0.166(7) 0.825(3)
H12 H 0.620(7) -0.017(7) 0.829(3)
H13 H 0.761(7) -0.054(6) 0.785(2)
H14 H 0.562(7) -0.198(7) 0.684(3)
H15 H 0.707(7) -0.157(7) 0.701(3)
H16 H 0.607(6) -0.268(8) 0.727(3)
H17 H 0.445(7) -0.183(7) 0.857(3)
H18 H 0.204(7) -0.239(7) 0.846(3)
H19 H 0.013(7) -0.319(6) 0.675(3)
H20 H 0.134(6) -0.394(7) 0.703(3)
H21 H 0.166(7) -0.280(7) 0.666(3)
H22 H -0.083(7) -0.312(6) 0.759(3)
H23 H -0.034(7) -0.198(6) 0.817(3)
H24 H 0.017(7) -0.341(7) 0.793(3)
H25 H 0.009(6) -0.092(6) 0.631(3)
H26 H -0.065(7) 0.149(7) 0.646(3)
H27 H -0.117(7) 0.166(7) 0.827(3)
H28 H -0.238(8) 0.217(6) 0.785(3)
H29 H -0.152(6) 0.320(7) 0.825(3)
H30 H -0.099(6) 0.466(7) 0.735(3)
H31 H -0.027(6) 0.374(7) 0.687(3)
H32 H -0.179(7) 0.344(6) 0.700(3)

#END
