
#######################################################################
#
#                 Cambridge Crystallographic Data Centre
#                                CCDC 
#
#######################################################################
#
# If this CIF has been generated from an entry in the Cambridge 
# Structural Database, then it will include bibliographic, chemical, 
# crystal, experimental, refinement or atomic coordinate data resulting 
# from the CCDC's data processing and validation procedures.
#
#######################################################################

data_KADPOU01
_symmetry_cell_setting           triclinic
_symmetry_space_group_name_H-M   'P -1'
_symmetry_Int_Tables_number      2
_space_group_name_Hall           '-P 1'
loop_
_symmetry_equiv_pos_site_id
_symmetry_equiv_pos_as_xyz
1 x,y,z
2 -x,-y,-z
_cell_length_a                   9.969
_cell_length_b                   10.001
_cell_length_c                   13.079
_cell_angle_alpha                111.08
_cell_angle_beta                 96.97
_cell_angle_gamma                90.51
_cell_volume                     1205.78
loop_
_atom_site_label
_atom_site_type_symbol
_atom_site_fract_x
_atom_site_fract_y
_atom_site_fract_z
O1 O 0.6874(2) 0.0594(2) 0.23301(13)
O2 O 0.8607(2) 0.3697(2) 0.26344(13)
O3 O 0.5637(2) 0.5295(2) 0.24464(13)
O4 O 0.3949(2) 0.2363(2) 0.26023(13)
C1 C 0.4505(3) -0.0117(3) 0.2324(2)
C2 C 0.4519(3) -0.1564(2) 0.1362(2)
H1 H 0.3604(4) -0.1844(7) 0.0960(7)
H2 H 0.4828(13) -0.2300(4) 0.1654(2)
H3 H 0.5134(11) -0.1469(5) 0.0858(6)
C3 C 0.3590(3) -0.0295(3) 0.3141(2)
H4 H 0.2670(4) -0.0603(15) 0.2758(4)
H5 H 0.3575(12) 0.0624(5) 0.3754(7)
H6 H 0.3944(9) -0.1019(12) 0.3430(9)
C4 C 0.5904(3) 0.0346(3) 0.2922(2)
C5 C 0.6482(3) 0.0608(3) 0.3967(2)
H7 H 0.6045(3) 0.0523(3) 0.4549(2)
C6 C 0.7863(3) 0.1034(3) 0.4040(2)
H8 H 0.8519(3) 0.1286(3) 0.4679(2)
C7 C 0.8071(3) 0.1016(2) 0.3036(2)
C8 C 0.9287(3) 0.1313(3) 0.2560(2)
C9 C 0.9697(3) -0.0086(3) 0.1709(2)
H9 H 0.9942(14) -0.0766(6) 0.2075(3)
H10 H 1.0474(9) 0.0121(4) 0.1387(9)
H11 H 0.8935(5) -0.0504(8) 0.1124(6)
C10 C 1.0459(3) 0.1910(3) 0.3497(2)
H12 H 1.0656(9) 0.1208(6) 0.3851(7)
H13 H 1.0210(5) 0.2804(8) 0.4044(6)
H14 H 1.1263(4) 0.2099(13) 0.3196(2)
C11 C 0.8989(3) 0.2361(3) 0.1990(2)
C12 C 0.9028(3) 0.2317(3) 0.0958(2)
H15 H 0.9266(3) 0.1526(3) 0.0356(2)
C13 C 0.8645(3) 0.3679(3) 0.0929(2)
H16 H 0.8571(3) 0.3961(3) 0.0305(2)
C14 C 0.8409(3) 0.4485(3) 0.1958(2)
C15 C 0.8011(3) 0.6001(3) 0.2488(2)
C16 C 0.7673(3) 0.6634(3) 0.1585(2)
H17 H 0.8453(6) 0.6576(15) 0.1184(8)
H18 H 0.7459(15) 0.7640(5) 0.1925(2)
H19 H 0.6891(9) 0.6089(10) 0.1069(7)
C17 C 0.9199(3) 0.6904(3) 0.3319(2)
H20 H 0.9972(5) 0.6929(12) 0.2929(3)
H21 H 0.9455(10) 0.6476(9) 0.3876(7)
H22 H 0.8926(5) 0.7884(5) 0.3683(8)
C18 C 0.6812(3) 0.6026(2) 0.3080(2)
C19 C 0.6593(3) 0.6615(3) 0.4143(2)
H23 H 0.7233(3) 0.7179(3) 0.4749(2)
C20 C 0.5234(3) 0.6239(3) 0.4196(2)
H24 H 0.4797(3) 0.6498(3) 0.4841(2)
C21 C 0.4678(3) 0.5441(3) 0.3151(2)
C22 C 0.3301(3) 0.4746(3) 0.2634(2)
C23 C 0.2666(3) 0.5419(3) 0.1810(2)
H25 H 0.2584(14) 0.6448(4) 0.2201(3)
H26 H 0.1767(7) 0.4956(11) 0.1477(9)
H27 H 0.3244(8) 0.5280(14) 0.1229(7)
C24 C 0.2401(3) 0.4991(3) 0.3550(2)
H28 H 0.2346(13) 0.6024(3) 0.3943(8)
H29 H 0.2791(8) 0.4552(14) 0.4070(7)
H30 H 0.1492(5) 0.4554(14) 0.3221(2)
C25 C 0.3403(3) 0.3170(3) 0.2001(2)
C26 C 0.3086(3) 0.2323(3) 0.0938(2)
H31 H 0.2691(3) 0.2610(3) 0.0356(2)
C27 C 0.3454(3) 0.0901(3) 0.0840(2)
H32 H 0.3359(3) 0.0072(3) 0.0182(2)
C28 C 0.3961(3) 0.0972(3) 0.1860(2)
O1 O 0.3126(2) 0.9406(2) 0.76699(13)
O2 O 0.1393(2) 0.6303(2) 0.73656(13)
O3 O 0.4363(2) 0.4705(2) 0.75536(13)
O4 O 0.6051(2) 0.7637(2) 0.73977(13)
C1 C 0.5495(3) 1.0117(3) 0.7676(2)
C2 C 0.5481(3) 1.1564(2) 0.8638(2)
H1 H 0.6396(4) 1.1844(7) 0.9040(7)
H2 H 0.5172(13) 1.2300(4) 0.8346(2)
H3 H 0.4866(11) 1.1469(5) 0.9142(6)
C3 C 0.6410(3) 1.0295(3) 0.6859(2)
H4 H 0.7330(4) 1.0603(15) 0.7242(4)
H5 H 0.6425(12) 0.9376(5) 0.6246(7)
H6 H 0.6056(9) 1.1019(12) 0.6570(9)
C4 C 0.4096(3) 0.9654(3) 0.7078(2)
C5 C 0.3518(3) 0.9392(3) 0.6033(2)
H7 H 0.3955(3) 0.9477(3) 0.5451(2)
C6 C 0.2137(3) 0.8966(3) 0.5960(2)
H8 H 0.1481(3) 0.8714(3) 0.5321(2)
C7 C 0.1929(3) 0.8984(2) 0.6964(2)
C8 C 0.0713(3) 0.8687(3) 0.7440(2)
C9 C 0.0303(3) 1.0086(3) 0.8291(2)
H9 H 0.0058(14) 1.0766(6) 0.7925(3)
H10 H -0.0474(9) 0.9879(4) 0.8613(9)
H11 H 0.1065(5) 1.0504(8) 0.8876(6)
C10 C -0.0459(3) 0.8090(3) 0.6503(2)
H12 H -0.0656(9) 0.8792(6) 0.6149(7)
H13 H -0.0210(5) 0.7196(8) 0.5956(6)
H14 H -0.1263(4) 0.7901(13) 0.6804(2)
C11 C 0.1011(3) 0.7639(3) 0.8010(2)
C12 C 0.0972(3) 0.7683(3) 0.9042(2)
H15 H 0.0734(3) 0.8474(3) 0.9644(2)
C13 C 0.1355(3) 0.6321(3) 0.9071(2)
H16 H 0.1429(3) 0.6039(3) 0.9695(2)
C14 C 0.1591(3) 0.5515(3) 0.8042(2)
C15 C 0.1989(3) 0.3999(3) 0.7512(2)
C16 C 0.2327(3) 0.3366(3) 0.8415(2)
H17 H 0.1547(6) 0.3424(15) 0.8816(8)
H18 H 0.2541(15) 0.2360(5) 0.8075(2)
H19 H 0.3109(9) 0.3911(10) 0.8931(7)
C17 C 0.0801(3) 0.3096(3) 0.6681(2)
H20 H 0.0028(5) 0.3071(12) 0.7071(3)
H21 H 0.0545(10) 0.3524(9) 0.6124(7)
H22 H 0.1074(5) 0.2116(5) 0.6317(8)
C18 C 0.3188(3) 0.3974(2) 0.6920(2)
C19 C 0.3407(3) 0.3385(3) 0.5857(2)
H23 H 0.2767(3) 0.2821(3) 0.5251(2)
C20 C 0.4766(3) 0.3761(3) 0.5804(2)
H24 H 0.5203(3) 0.3502(3) 0.5159(2)
C21 C 0.5322(3) 0.4559(3) 0.6849(2)
C22 C 0.6699(3) 0.5254(3) 0.7366(2)
C23 C 0.7334(3) 0.4581(3) 0.8190(2)
H25 H 0.7416(14) 0.3552(4) 0.7799(3)
H26 H 0.8233(7) 0.5044(11) 0.8523(9)
H27 H 0.6756(8) 0.4720(14) 0.8771(7)
C24 C 0.7599(3) 0.5009(3) 0.6450(2)
H28 H 0.7654(13) 0.3976(3) 0.6057(8)
H29 H 0.7209(8) 0.5448(14) 0.5930(7)
H30 H 0.8508(5) 0.5446(14) 0.6779(2)
C25 C 0.6597(3) 0.6830(3) 0.7999(2)
C26 C 0.6914(3) 0.7677(3) 0.9062(2)
H31 H 0.7309(3) 0.7390(3) 0.9644(2)
C27 C 0.6546(3) 0.9099(3) 0.9160(2)
H32 H 0.6641(3) 0.9928(3) 0.9818(2)
C28 C 0.6039(3) 0.9028(3) 0.8140(2)

#END
