
#######################################################################
#
#                 Cambridge Crystallographic Data Centre
#                                CCDC 
#
#######################################################################
#
# If this CIF has been generated from an entry in the Cambridge 
# Structural Database, then it will include bibliographic, chemical, 
# crystal, experimental, refinement or atomic coordinate data resulting 
# from the CCDC's data processing and validation procedures.
#
#######################################################################

data_KADTOY
_symmetry_cell_setting           orthorhombic
_symmetry_space_group_name_H-M   'P 21 21 21'
_symmetry_Int_Tables_number      19
_space_group_name_Hall           'P 2ac 2ab'
loop_
_symmetry_equiv_pos_site_id
_symmetry_equiv_pos_as_xyz
1 x,y,z
2 1/2+x,1/2-y,-z
3 -x,1/2+y,1/2-z
4 1/2-x,-y,1/2+z
_cell_length_a                   11.847(1)
_cell_length_b                   14.654(1)
_cell_length_c                   15.841(1)
_cell_angle_alpha                90
_cell_angle_beta                 90
_cell_angle_gamma                90
_cell_volume                     2750.09
loop_
_atom_site_label
_atom_site_type_symbol
_atom_site_fract_x
_atom_site_fract_y
_atom_site_fract_z
O1 O 0.3213(4) 0.5715(3) -0.2080(3)
O2 O 0.5107(5) 0.5530(3) -0.3034(3)
O3 O 0.7051(4) 0.4167(3) -0.2242(3)
O4 O 0.6074(5) 0.3167(4) -0.2974(3)
O5 O 0.2962(4) 0.2645(3) 0.3287(3)
O6 O 0.3912(4) 0.1413(3) 0.2935(3)
C1 C 0.4269(5) 0.5506(4) -0.0737(4)
C2 C 0.4282(6) 0.5784(5) -0.1663(4)
C3 C 0.5150(6) 0.5271(4) -0.2171(4)
C4 C 0.5029(6) 0.4198(4) -0.2079(4)
C5 C 0.5076(6) 0.3979(4) -0.1113(4)
C6 C 0.5134(6) 0.2947(4) -0.0910(4)
C7 C 0.5520(6) 0.2821(4) -0.0006(4)
C8 C 0.4805(6) 0.3311(4) 0.0663(4)
C9 C 0.4571(5) 0.4311(4) 0.0378(4)
C10 C 0.4191(5) 0.4466(4) -0.0564(4)
C11 C 0.3834(6) 0.4799(4) 0.1021(4)
C12 C 0.4082(6) 0.4562(4) 0.1915(4)
C13 C 0.4762(6) 0.3904(4) 0.2175(4)
C14 C 0.5461(5) 0.3353(4) 0.1532(4)
C15 C 0.5716(6) 0.2374(4) 0.1856(4)
C16 C 0.5946(6) 0.2302(5) 0.2812(4)
C17 C 0.4985(6) 0.2727(4) 0.3330(4)
C18 C 0.4898(6) 0.3746(4) 0.3122(4)
C19 C 0.5869(6) 0.4299(5) 0.3500(4)
C20 C 0.5969(8) 0.4211(6) 0.4462(5)
C21 C 0.6130(6) 0.3189(5) 0.4648(5)
C22 C 0.5208(6) 0.2594(5) 0.4302(4)
C23 C 0.6129(6) 0.3839(5) -0.2454(4)
C24 C 0.4040(6) 0.3789(5) -0.2572(4)
C25 C 0.2957(6) 0.4140(5) -0.0726(4)
C26 C 0.3680(6) 0.2789(5) 0.0786(5)
C27 C 0.6631(5) 0.3844(5) 0.1453(4)
C28 C 0.3896(6) 0.2242(5) 0.3177(4)
C29 C 0.4975(8) 0.4609(6) 0.4926(5)
C30 C 0.7028(9) 0.4709(8) 0.4757(6)
H1 H 0.5038 0.5754 -0.0452
H2 H 0.3553 0.5831 -0.0441
H3 H 0.4503 0.6498 -0.1636
H4 H 0.5965 0.5458 -0.1920
H5 H 0.5877 0.4272 -0.0932
H6 H 0.5724 0.2619 -0.1332
H7 H 0.4308 0.2647 -0.0990
H8 H 0.5504 0.2099 0.0133
H9 H 0.6376 0.3070 0.0043
H10 H 0.5393 0.4628 0.0369
H11 H 0.2964 0.4628 0.0893
H12 H 0.3955 0.5524 0.0944
H13 H 0.3666 0.4964 0.2396
H14 H 0.6451 0.2123 0.1525
H15 H 0.4999 0.1947 0.1709
H16 H 0.6721 0.2657 0.2956
H17 H 0.6029 0.1592 0.2982
H18 H 0.4142 0.3999 0.3422
H19 H 0.6649 0.4067 0.3220
H20 H 0.5740 0.5009 0.3348
H21 H 0.6163 0.3099 0.5325
H22 H 0.6920 0.2973 0.4373
H23 H 0.5433 0.1889 0.4411
H24 H 0.4438 0.2750 0.4637
H25 H 0.3247 0.4085 -0.2376
H26 H 0.4015 0.3060 -0.2478
H27 H 0.4181 0.3935 -0.3232
H28 H 0.2942 0.3419 -0.0867
H29 H 0.2704 0.4521 -0.1278
H30 H 0.2380 0.4281 -0.0215
H31 H 0.3065 0.3140 0.1171
H32 H 0.3794 0.2104 0.1020
H33 H 0.3386 0.2763 0.0141
H34 H 0.7084 0.3594 0.0908
H35 H 0.7120 0.3713 0.2016
H36 H 0.6494 0.4569 0.1389
H37 H 0.4235 0.4193 0.4826
H38 H 0.4842 0.5276 0.4654
H39 H 0.5129 0.4677 0.5595
H40 H 0.7748 0.4393 0.4458
H41 H 0.7068 0.4599 0.5430
H42 H 0.7033 0.5433 0.4628
O1 O -0.1787(4) -0.0715(3) 1.2080(3)
O2 O 0.0107(5) -0.0530(3) 1.3034(3)
O3 O 0.2051(4) 0.0833(3) 1.2242(3)
O4 O 0.1074(5) 0.1833(4) 1.2974(3)
O5 O -0.2038(4) 0.2355(3) 0.6713(3)
O6 O -0.1088(4) 0.3587(3) 0.7065(3)
C1 C -0.0731(5) -0.0506(4) 1.0737(4)
C2 C -0.0718(6) -0.0784(5) 1.1663(4)
C3 C 0.0150(6) -0.0271(4) 1.2171(4)
C4 C 0.0029(6) 0.0802(4) 1.2079(4)
C5 C 0.0076(6) 0.1021(4) 1.1113(4)
C6 C 0.0134(6) 0.2053(4) 1.0910(4)
C7 C 0.0520(6) 0.2179(4) 1.0006(4)
C8 C -0.0195(6) 0.1689(4) 0.9337(4)
C9 C -0.0429(5) 0.0689(4) 0.9622(4)
C10 C -0.0809(5) 0.0534(4) 1.0564(4)
C11 C -0.1166(6) 0.0201(4) 0.8979(4)
C12 C -0.0918(6) 0.0438(4) 0.8085(4)
C13 C -0.0238(6) 0.1096(4) 0.7825(4)
C14 C 0.0461(5) 0.1647(4) 0.8468(4)
C15 C 0.0716(6) 0.2626(4) 0.8144(4)
C16 C 0.0946(6) 0.2698(5) 0.7188(4)
C17 C -0.0015(6) 0.2273(4) 0.6670(4)
C18 C -0.0102(6) 0.1254(4) 0.6878(4)
C19 C 0.0869(6) 0.0701(5) 0.6500(4)
C20 C 0.0969(8) 0.0789(6) 0.5538(5)
C21 C 0.1130(6) 0.1811(5) 0.5352(5)
C22 C 0.0208(6) 0.2406(5) 0.5698(4)
C23 C 0.1129(6) 0.1161(5) 1.2454(4)
C24 C -0.0960(6) 0.1211(5) 1.2572(4)
C25 C -0.2043(6) 0.0860(5) 1.0726(4)
C26 C -0.1320(6) 0.2211(5) 0.9214(5)
C27 C 0.1631(5) 0.1156(5) 0.8547(4)
C28 C -0.1104(6) 0.2758(5) 0.6823(4)
C29 C -0.0025(8) 0.0391(6) 0.5074(5)
C30 C 0.2028(9) 0.0291(8) 0.5243(6)
H1 H 0.0038 -0.0754 1.0452
H2 H -0.1447 -0.0831 1.0441
H3 H -0.0497 -0.1498 1.1636
H4 H 0.0965 -0.0458 1.1920
H5 H 0.0877 0.0728 1.0932
H6 H 0.0724 0.2381 1.1332
H7 H -0.0692 0.2353 1.0990
H8 H 0.0504 0.2901 0.9867
H9 H 0.1376 0.1930 0.9957
H10 H 0.0393 0.0372 0.9631
H11 H -0.2036 0.0372 0.9107
H12 H -0.1045 -0.0524 0.9056
H13 H -0.1334 0.0036 0.7604
H14 H 0.1451 0.2877 0.8475
H15 H -0.0001 0.3053 0.8291
H16 H 0.1721 0.2343 0.7044
H17 H 0.1029 0.3408 0.7018
H18 H -0.0858 0.1001 0.6578
H19 H 0.1649 0.0933 0.6780
H20 H 0.0740 -0.0009 0.6652
H21 H 0.1163 0.1901 0.4675
H22 H 0.1920 0.2027 0.5627
H23 H 0.0433 0.3111 0.5589
H24 H -0.0562 0.2250 0.5363
H25 H -0.1753 0.0915 1.2376
H26 H -0.0985 0.1940 1.2478
H27 H -0.0819 0.1065 1.3232
H28 H -0.2058 0.1581 1.0867
H29 H -0.2296 0.0479 1.1278
H30 H -0.2620 0.0719 1.0215
H31 H -0.1935 0.1860 0.8829
H32 H -0.1206 0.2896 0.8980
H33 H -0.1614 0.2237 0.9859
H34 H 0.2084 0.1406 0.9092
H35 H 0.2120 0.1287 0.7984
H36 H 0.1494 0.0431 0.8611
H37 H -0.0765 0.0807 0.5174
H38 H -0.0158 -0.0276 0.5346
H39 H 0.0129 0.0323 0.4405
H40 H 0.2748 0.0607 0.5542
H41 H 0.2068 0.0401 0.4570
H42 H 0.2033 -0.0433 0.5372
O1 O 0.6787(4) 1.0715(3) 0.7080(3)
O2 O 0.4893(5) 1.0530(3) 0.8034(3)
O3 O 0.2949(4) 0.9167(3) 0.7242(3)
O4 O 0.3926(5) 0.8167(4) 0.7974(3)
O5 O 0.7038(4) 0.7645(3) 0.1713(3)
O6 O 0.6088(4) 0.6413(3) 0.2065(3)
C1 C 0.5731(5) 1.0506(4) 0.5737(4)
C2 C 0.5718(6) 1.0784(5) 0.6663(4)
C3 C 0.4850(6) 1.0271(4) 0.7171(4)
C4 C 0.4971(6) 0.9198(4) 0.7079(4)
C5 C 0.4924(6) 0.8979(4) 0.6113(4)
C6 C 0.4866(6) 0.7947(4) 0.5910(4)
C7 C 0.4480(6) 0.7821(4) 0.5006(4)
C8 C 0.5195(6) 0.8311(4) 0.4337(4)
C9 C 0.5429(5) 0.9311(4) 0.4622(4)
C10 C 0.5809(5) 0.9466(4) 0.5564(4)
C11 C 0.6166(6) 0.9799(4) 0.3979(4)
C12 C 0.5918(6) 0.9562(4) 0.3085(4)
C13 C 0.5238(6) 0.8904(4) 0.2825(4)
C14 C 0.4539(5) 0.8353(4) 0.3468(4)
C15 C 0.4284(6) 0.7374(4) 0.3144(4)
C16 C 0.4054(6) 0.7302(5) 0.2188(4)
C17 C 0.5015(6) 0.7727(4) 0.1670(4)
C18 C 0.5102(6) 0.8746(4) 0.1878(4)
C19 C 0.4131(6) 0.9299(5) 0.1500(4)
C20 C 0.4031(8) 0.9211(6) 0.0538(5)
C21 C 0.3870(6) 0.8189(5) 0.0352(5)
C22 C 0.4792(6) 0.7594(5) 0.0698(4)
C23 C 0.3871(6) 0.8839(5) 0.7454(4)
C24 C 0.5960(6) 0.8789(5) 0.7572(4)
C25 C 0.7043(6) 0.9140(5) 0.5726(4)
C26 C 0.6320(6) 0.7789(5) 0.4214(5)
C27 C 0.3369(5) 0.8844(5) 0.3547(4)
C28 C 0.6104(6) 0.7242(5) 0.1823(4)
C29 C 0.5025(8) 0.9609(6) 0.0074(5)
C30 C 0.2972(9) 0.9709(8) 0.0243(6)
H1 H 0.4962 1.0754 0.5452
H2 H 0.6447 1.0831 0.5441
H3 H 0.5497 1.1498 0.6636
H4 H 0.4035 1.0458 0.6920
H5 H 0.4123 0.9272 0.5932
H6 H 0.4276 0.7619 0.6332
H7 H 0.5692 0.7647 0.5990
H8 H 0.4496 0.7099 0.4867
H9 H 0.3624 0.8070 0.4957
H10 H 0.4607 0.9628 0.4631
H11 H 0.7036 0.9628 0.4107
H12 H 0.6045 1.0524 0.4056
H13 H 0.6334 0.9964 0.2604
H14 H 0.3549 0.7123 0.3475
H15 H 0.5001 0.6947 0.3291
H16 H 0.3279 0.7657 0.2044
H17 H 0.3971 0.6592 0.2018
H18 H 0.5858 0.8999 0.1578
H19 H 0.3351 0.9067 0.1780
H20 H 0.4260 1.0009 0.1652
H21 H 0.3837 0.8099 -0.0325
H22 H 0.3080 0.7973 0.0627
H23 H 0.4567 0.6889 0.0589
H24 H 0.5562 0.7750 0.0363
H25 H 0.6753 0.9085 0.7376
H26 H 0.5985 0.8060 0.7478
H27 H 0.5819 0.8935 0.8232
H28 H 0.7058 0.8419 0.5867
H29 H 0.7296 0.9521 0.6278
H30 H 0.7620 0.9281 0.5215
H31 H 0.6935 0.8140 0.3829
H32 H 0.6206 0.7104 0.3980
H33 H 0.6614 0.7763 0.4859
H34 H 0.2916 0.8594 0.4092
H35 H 0.2880 0.8713 0.2984
H36 H 0.3506 0.9569 0.3611
H37 H 0.5765 0.9193 0.0174
H38 H 0.5158 1.0276 0.0346
H39 H 0.4871 0.9677 -0.0595
H40 H 0.2252 0.9393 0.0542
H41 H 0.2932 0.9599 -0.0430
H42 H 0.2967 1.0433 0.0372
O1 O 1.1787(4) 0.4285(3) 0.2920(3)
O2 O 0.9893(5) 0.4470(3) 0.1966(3)
O3 O 0.7949(4) 0.5833(3) 0.2758(3)
O4 O 0.8926(5) 0.6833(4) 0.2026(3)
O5 O 1.2038(4) 0.7355(3) 0.8287(3)
O6 O 1.1088(4) 0.8587(3) 0.7935(3)
C1 C 1.0731(5) 0.4494(4) 0.4263(4)
C2 C 1.0718(6) 0.4216(5) 0.3337(4)
C3 C 0.9850(6) 0.4729(4) 0.2829(4)
C4 C 0.9971(6) 0.5802(4) 0.2921(4)
C5 C 0.9924(6) 0.6021(4) 0.3887(4)
C6 C 0.9866(6) 0.7053(4) 0.4090(4)
C7 C 0.9480(6) 0.7179(4) 0.4994(4)
C8 C 1.0195(6) 0.6689(4) 0.5663(4)
C9 C 1.0429(5) 0.5689(4) 0.5378(4)
C10 C 1.0809(5) 0.5534(4) 0.4436(4)
C11 C 1.1166(6) 0.5201(4) 0.6021(4)
C12 C 1.0918(6) 0.5438(4) 0.6915(4)
C13 C 1.0238(6) 0.6096(4) 0.7175(4)
C14 C 0.9539(5) 0.6647(4) 0.6532(4)
C15 C 0.9284(6) 0.7626(4) 0.6856(4)
C16 C 0.9054(6) 0.7698(5) 0.7812(4)
C17 C 1.0015(6) 0.7273(4) 0.8330(4)
C18 C 1.0102(6) 0.6254(4) 0.8122(4)
C19 C 0.9131(6) 0.5701(5) 0.8500(4)
C20 C 0.9031(8) 0.5789(6) 0.9462(5)
C21 C 0.8870(6) 0.6811(5) 0.9648(5)
C22 C 0.9792(6) 0.7406(5) 0.9302(4)
C23 C 0.8871(6) 0.6161(5) 0.2546(4)
C24 C 1.0960(6) 0.6211(5) 0.2428(4)
C25 C 1.2043(6) 0.5860(5) 0.4274(4)
C26 C 1.1320(6) 0.7211(5) 0.5786(5)
C27 C 0.8369(5) 0.6156(5) 0.6453(4)
C28 C 1.1104(6) 0.7758(5) 0.8177(4)
C29 C 1.0025(8) 0.5391(6) 0.9926(5)
C30 C 0.7972(9) 0.5291(8) 0.9757(6)
H1 H 0.9962 0.4246 0.4548
H2 H 1.1447 0.4169 0.4559
H3 H 1.0497 0.3502 0.3364
H4 H 0.9035 0.4542 0.3080
H5 H 0.9123 0.5728 0.4068
H6 H 0.9276 0.7381 0.3668
H7 H 1.0692 0.7353 0.4010
H8 H 0.9496 0.7901 0.5133
H9 H 0.8624 0.6930 0.5043
H10 H 0.9607 0.5372 0.5369
H11 H 1.2036 0.5372 0.5893
H12 H 1.1045 0.4476 0.5944
H13 H 1.1334 0.5036 0.7396
H14 H 0.8549 0.7877 0.6525
H15 H 1.0001 0.8053 0.6709
H16 H 0.8279 0.7343 0.7956
H17 H 0.8971 0.8408 0.7982
H18 H 1.0858 0.6001 0.8422
H19 H 0.8351 0.5933 0.8220
H20 H 0.9260 0.4991 0.8348
H21 H 0.8837 0.6901 1.0325
H22 H 0.8080 0.7027 0.9373
H23 H 0.9567 0.8111 0.9411
H24 H 1.0562 0.7250 0.9637
H25 H 1.1753 0.5915 0.2624
H26 H 1.0985 0.6940 0.2522
H27 H 1.0819 0.6065 0.1768
H28 H 1.2058 0.6581 0.4133
H29 H 1.2296 0.5479 0.3722
H30 H 1.2620 0.5719 0.4785
H31 H 1.1935 0.6860 0.6171
H32 H 1.1206 0.7896 0.6020
H33 H 1.1614 0.7237 0.5141
H34 H 0.7916 0.6406 0.5908
H35 H 0.7880 0.6287 0.7016
H36 H 0.8506 0.5431 0.6389
H37 H 1.0765 0.5807 0.9826
H38 H 1.0158 0.4724 0.9654
H39 H 0.9871 0.5323 1.0595
H40 H 0.7252 0.5607 0.9458
H41 H 0.7932 0.5401 1.0430
H42 H 0.7967 0.4567 0.9628

#END
