
#######################################################################
#
#                 Cambridge Crystallographic Data Centre
#                                CCDC 
#
#######################################################################
#
# If this CIF has been generated from an entry in the Cambridge 
# Structural Database, then it will include bibliographic, chemical, 
# crystal, experimental, refinement or atomic coordinate data resulting 
# from the CCDC's data processing and validation procedures.
#
#######################################################################

data_KADWAQ
_symmetry_cell_setting           triclinic
_symmetry_space_group_name_H-M   'P 1'
_symmetry_Int_Tables_number      1
_space_group_name_Hall           'P 1'
loop_
_symmetry_equiv_pos_site_id
_symmetry_equiv_pos_as_xyz
1 x,y,z
_cell_length_a                   6.6821(3)
_cell_length_b                   9.1960(4)
_cell_length_c                   15.8865(6)
_cell_angle_alpha                96.246(4)
_cell_angle_beta                 100.362(3)
_cell_angle_gamma                110.893(3)
_cell_volume                     881.113
loop_
_atom_site_label
_atom_site_type_symbol
_atom_site_fract_x
_atom_site_fract_y
_atom_site_fract_z
O1 O 0.5927(10) -0.0151(7) 0.4024(4)
O2 O 0.2982(10) -0.4624(7) 0.1903(5)
O3 O 0.2324(9) 0.0541(7) 0.2435(4)
O4 O 0.6910(10) -0.1527(8) 0.0729(4)
O5 O 0.7770(9) 0.1059(7) 0.0816(4)
O6 O 1.0572(11) 0.8118(7) 0.4562(4)
N1 N 0.4404(11) -0.2179(8) 0.2811(5)
N2 N 0.5892(11) 0.1209(8) 0.2187(4)
C1 C 0.5148(14) -0.1572(12) 0.3710(6)
C2 C 0.4761(15) -0.2951(11) 0.4131(7)
C3 C 0.5151(15) -0.3059(11) 0.4998(7)
H1 H 0.5722 -0.2138 0.5442
C4 C 0.4678(16) -0.4566(12) 0.5204(7)
H2 H 0.4930 -0.4668 0.5799
C5 C 0.3838(16) -0.5936(12) 0.4552(7)
H3 H 0.3550 -0.6945 0.4711
C6 C 0.3423(14) -0.5827(11) 0.3672(6)
H4 H 0.2836 -0.6739 0.3222
C7 C 0.3911(14) -0.4330(12) 0.3494(6)
C8 C 0.3662(15) -0.3827(12) 0.2634(7)
C9 C 0.3922(14) 0.0304(10) 0.2300(6)
C10 C 0.4402(13) -0.1227(9) 0.2135(6)
H5 H 0.3490 -0.1907 0.1560
C11 C 0.6701(15) -0.0059(10) 0.2040(6)
H6 H 0.7954 0.0028 0.2521
C12 C 0.7148(14) -0.0284(11) 0.1159(6)
C13 C 0.8502(15) 0.2531(9) 0.1440(6)
H7 H 0.9031 0.3435 0.1140
H8 H 0.9759 0.2592 0.1900
C14 C 0.6712(14) 0.2686(10) 0.1861(6)
H9 H 0.5509 0.2760 0.1414
C15 C 0.7679(13) 0.4159(10) 0.2580(6)
C16 C 0.8128(15) 0.4038(11) 0.3462(7)
H10 H 0.7786 0.3028 0.3624
C17 C 0.9069(15) 0.5396(11) 0.4092(7)
H11 H 0.9339 0.5307 0.4688
C18 C 0.9625(15) 0.6874(12) 0.3881(8)
C19 C 0.9216(14) 0.7013(11) 0.3011(7)
H12 H 0.9610 0.8026 0.2851
C20 C 0.8219(13) 0.5641(10) 0.2380(6)
H13 H 0.7899 0.5735 0.1786
C21 C 1.1118(16) 0.9689(11) 0.4398(7)
H14 H 1.2091 0.9868 0.3992
H15 H 1.1873 1.0449 0.4946
H16 H 0.9768 0.9831 0.4141
O7 O 1.0729(10) 1.3010(8) 0.9225(5)
O8 O 0.7316(10) 0.8572(7) 0.7095(4)
O9 O 0.4429(9) 0.7865(6) 0.8679(4)
O10 O 1.2498(11) 0.9900(8) 1.0397(5)
O11 O 1.0688(10) 0.7314(6) 1.0309(4)
O12 O 0.3382(10) 0.0271(7) 0.6551(4)
N3 N 0.8885(11) 1.0563(8) 0.8310(5)
N4 N 0.7537(11) 0.7190(8) 0.8935(5)
C22 C 1.0001(15) 1.2229(12) 0.8490(8)
C23 C 1.0014(15) 1.2722(11) 0.7637(6)
C24 C 1.0865(15) 1.4214(11) 0.7445(7)
H17 H 1.1599 1.5132 0.7889
C25 C 1.0588(15) 1.4303(11) 0.6561(7)
H18 H 1.1153 1.5308 0.6397
C26 C 0.9503(16) 1.2950(12) 0.5916(7)
H19 H 0.9311 1.3055 0.5321
C27 C 0.8690(15) 1.1445(12) 0.6121(6)
H20 H 0.7998 1.0517 0.5682
C28 C 0.8941(16) 1.1370(11) 0.6995(7)
C29 C 0.8263(15) 0.9984(11) 0.7423(6)
C30 C 0.6379(15) 0.8127(10) 0.8822(6)
C31 C 0.8525(14) 0.9618(10) 0.8974(6)
H21 H 0.8793 1.0305 0.9548
C32 C 0.9716(14) 0.8460(10) 0.9075(6)
H22 H 1.0480 0.8360 0.8598
C33 C 1.1131(16) 0.8667(12) 0.9980(6)
C34 C 0.9430(15) 0.5826(10) 0.9701(6)
H23 H 0.9274 0.4936 1.0017
H24 H 1.0248 0.5719 0.9252
C35 C 0.7149(14) 0.5715(10) 0.9256(6)
H25 H 0.6228 0.5648 0.9693
C36 C 0.6056(13) 0.4246(10) 0.8538(6)
C37 C 0.5940(15) 0.4340(11) 0.7661(6)
H26 H 0.6508 0.5349 0.7502
C38 C 0.5014(15) 0.2994(11) 0.7019(7)
H27 H 0.4927 0.3080 0.6425
C39 C 0.4217(14) 0.1523(10) 0.7245(7)
C40 C 0.4331(14) 0.1380(11) 0.8114(7)
H28 H 0.3802 0.0365 0.8270
C41 C 0.5236(14) 0.2754(11) 0.8753(7)
H29 H 0.5294 0.2668 0.9346
C42 C 0.2348(15) -0.1307(10) 0.6712(7)
H30 H 0.3434 -0.1572 0.7097
H31 H 0.1773 -0.2065 0.6158
H32 H 0.1134 -0.1357 0.6989

#END
