
#######################################################################
#
#                 Cambridge Crystallographic Data Centre
#                                CCDC 
#
#######################################################################
#
# If this CIF has been generated from an entry in the Cambridge 
# Structural Database, then it will include bibliographic, chemical, 
# crystal, experimental, refinement or atomic coordinate data resulting 
# from the CCDC's data processing and validation procedures.
#
#######################################################################

data_KAFBOJ01
_symmetry_cell_setting           monoclinic
_symmetry_space_group_name_H-M   'P 21/n'
_symmetry_Int_Tables_number      14
_space_group_name_Hall           '-P 2yn'
loop_
_symmetry_equiv_pos_site_id
_symmetry_equiv_pos_as_xyz
1 x,y,z
2 1/2-x,1/2+y,1/2-z
3 -x,-y,-z
4 1/2+x,1/2-y,1/2+z
_cell_length_a                   5.5143(2)
_cell_length_b                   23.9975(9)
_cell_length_c                   7.2842(3)
_cell_angle_alpha                90
_cell_angle_beta                 110.8498(13)
_cell_angle_gamma                90
_cell_volume                     900.794
loop_
_atom_site_label
_atom_site_type_symbol
_atom_site_fract_x
_atom_site_fract_y
_atom_site_fract_z
I1 I 0.44172(16) 0.38470(4) 0.50979(12)
C1 C 0.793(2) 0.4052(6) 0.7248(18)
C2 C 0.913(2) 0.4511(5) 0.7026(16)
C3 C 1.167(2) 0.4724(5) 0.8398(16)
O1 O 1.2727(19) 0.5097(4) 0.7698(14)
O2 O 1.2632(17) 0.4539(3) 1.0148(12)
C4 C 0.882(2) 0.3627(5) 0.8911(19)
C5 C 1.085(2) 0.3263(5) 0.895(2)
C6 C 1.166(2) 0.2853(6) 1.0384(18)
C7 C 1.053(2) 0.2812(5) 1.185(2)
C8 C 0.855(3) 0.3184(6) 1.179(2)
C9 C 0.779(2) 0.3585(5) 1.0374(18)
H1 H 0.8302 0.4722 0.5888
H2 H 1.1654 0.3296 0.8031
H3 H 1.2944 0.2607 1.0378
H4 H 1.1090 0.2541 1.2830
H5 H 0.7774 0.3165 1.2733
H6 H 0.6517 0.3835 1.0388
H7 H 1.2772 0.4634 1.1266
I1 I 1.05828(16) 0.88470(4) 0.99021(12)
C1 C 0.707(2) 0.9052(6) 0.7752(18)
C2 C 0.587(2) 0.9511(5) 0.7974(16)
C3 C 0.333(2) 0.9724(5) 0.6602(16)
O1 O 0.2273(19) 1.0097(4) 0.7302(14)
O2 O 0.2368(17) 0.9539(3) 0.4852(12)
C4 C 0.618(2) 0.8627(5) 0.6089(19)
C5 C 0.415(2) 0.8263(5) 0.605(2)
C6 C 0.334(2) 0.7853(6) 0.4616(18)
C7 C 0.447(2) 0.7812(5) 0.315(2)
C8 C 0.645(3) 0.8184(6) 0.321(2)
C9 C 0.721(2) 0.8585(5) 0.4626(18)
H1 H 0.6698 0.9722 0.9112
H2 H 0.3346 0.8296 0.6969
H3 H 0.2056 0.7607 0.4622
H4 H 0.3910 0.7541 0.2170
H5 H 0.7226 0.8165 0.2267
H6 H 0.8483 0.8835 0.4612
H7 H 0.2228 0.9634 0.3734
I1 I 0.55828(16) 0.61530(4) 0.49021(12)
C1 C 0.207(2) 0.5948(6) 0.2752(18)
C2 C 0.087(2) 0.5489(5) 0.2974(16)
C3 C -0.167(2) 0.5276(5) 0.1602(16)
O1 O -0.2727(19) 0.4903(4) 0.2302(14)
O2 O -0.2632(17) 0.5461(3) -0.0148(12)
C4 C 0.118(2) 0.6373(5) 0.1089(19)
C5 C -0.085(2) 0.6737(5) 0.105(2)
C6 C -0.166(2) 0.7147(6) -0.0384(18)
C7 C -0.053(2) 0.7188(5) -0.185(2)
C8 C 0.145(3) 0.6816(6) -0.179(2)
C9 C 0.221(2) 0.6415(5) -0.0374(18)
H1 H 0.1698 0.5278 0.4112
H2 H -0.1654 0.6704 0.1969
H3 H -0.2944 0.7393 -0.0378
H4 H -0.1090 0.7459 -0.2830
H5 H 0.2226 0.6835 -0.2733
H6 H 0.3483 0.6165 -0.0388
H7 H -0.2772 0.5366 -0.1266
I1 I -0.05828(16) 0.11530(4) 0.00979(12)
C1 C 0.293(2) 0.0948(6) 0.2248(18)
C2 C 0.413(2) 0.0489(5) 0.2026(16)
C3 C 0.667(2) 0.0276(5) 0.3398(16)
O1 O 0.7727(19) -0.0097(4) 0.2698(14)
O2 O 0.7632(17) 0.0461(3) 0.5148(12)
C4 C 0.382(2) 0.1373(5) 0.3911(19)
C5 C 0.585(2) 0.1737(5) 0.395(2)
C6 C 0.666(2) 0.2147(6) 0.5384(18)
C7 C 0.553(2) 0.2188(5) 0.685(2)
C8 C 0.355(3) 0.1816(6) 0.679(2)
C9 C 0.279(2) 0.1415(5) 0.5374(18)
H1 H 0.3302 0.0278 0.0888
H2 H 0.6654 0.1704 0.3031
H3 H 0.7944 0.2393 0.5378
H4 H 0.6090 0.2459 0.7830
H5 H 0.2774 0.1835 0.7733
H6 H 0.1517 0.1165 0.5388
H7 H 0.7772 0.0366 0.6266

#END
