./KAFDIE03_from_POSCAR.cif_generated_by_CrystalShift
_symmetry_cell_setting triclinic
_symmetry_space_group_name_H-M 'P 1'
loop_
_symmetry_equiv_pos_site_id
_symmetry_equiv_pos_as_xyz
1 x,y,z
_cell_length_a 5.677000
_cell_length_b 8.951000
_cell_length_c 22.773000
_cell_angle_alpha 90.000000
_cell_angle_beta 93.510000
_cell_angle_gamma 90.000000
_cell_volume 1155.035285
loop_
_atom_site_label
_atom_site_type_symbol
_atom_site_fract_x
_atom_site_fract_y
_atom_site_fract_z
H1 H 1.550000 0.263000 0.159000
H2 H 1.361000 0.212000 0.238600
H3 H 0.882000 0.483000 0.225000
H4 H 0.614000 0.528000 0.292200
H5 H 0.902000 0.193000 0.395100
H6 H 1.162000 0.151000 0.324900
H7 H 0.481000 0.606000 0.389000
H8 H 0.312000 0.512000 0.349000
H9 H 0.297000 0.501000 0.418700
H10 H 0.742000 0.351000 0.471000
H11 H 0.615000 0.204000 0.443000
H12 H 0.453000 0.335000 0.464000
H13 H 1.146000 0.455000 0.086600
H14 H 1.293000 0.501000 0.034900
H15 H 0.793000 -0.001000 0.534900
H16 H 0.646000 0.045000 0.586600
H17 H -0.047000 0.165000 0.964000
H18 H 0.115000 0.296000 0.943000
H19 H 0.242000 0.149000 0.971000
H20 H -0.203000 -0.001000 0.918700
H21 H -0.188000 -0.012000 0.849000
H22 H -0.019000 -0.106000 0.889000
H23 H 0.662000 0.349000 0.824900
H24 H 0.402000 0.307000 0.895100
H25 H 0.114000 -0.028000 0.792200
H26 H 0.382000 0.017000 0.725000
H27 H 0.861000 0.288000 0.738600
H28 H 1.050000 0.237000 0.659000
H29 H -0.293000 0.499000 0.965100
H30 H -0.050000 0.763000 0.341000
H31 H 0.139000 0.712000 0.261400
H32 H 0.618000 0.983000 0.275000
H33 H 0.886000 1.028000 0.207800
H34 H 0.598000 0.693000 0.104900
H35 H 0.338000 0.651000 0.175100
H36 H 1.019000 1.106000 0.111000
H37 H 1.188000 1.012000 0.151000
H38 H 1.203000 1.001000 0.081300
H39 H 0.758000 0.851000 0.029000
H40 H 0.885000 0.704000 0.057000
H41 H 1.047000 0.835000 0.036000
H42 H 0.354000 0.955000 0.413400
H43 H 0.207000 1.001000 0.465100
H44 H -0.146000 0.545000 0.913400
H45 H 0.547000 0.665000 0.536000
H46 H 0.385000 0.796000 0.557000
H47 H 0.258000 0.649000 0.529000
H48 H 0.703000 0.499000 0.581300
H49 H 0.688000 0.488000 0.651000
H50 H 0.519000 0.394000 0.611000
H51 H -0.162000 0.849000 0.675100
H52 H 0.098000 0.807000 0.604900
H53 H 0.386000 0.472000 0.707800
H54 H 0.118000 0.517000 0.775000
H55 H -0.361000 0.788000 0.761400
H56 H -0.550000 0.737000 0.841000
C57 C 0.916600 0.814700 0.051690
C58 C 0.222100 0.134700 0.851790
C59 C 1.101700 1.014200 0.114070
C60 C 0.221300 0.050900 0.798870
C61 C 0.444200 0.730100 0.181350
C62 C 0.605900 0.754100 0.140140
C63 C 0.777900 0.865300 0.148210
C64 C 0.778700 0.949100 0.201130
C65 C 0.617500 0.922500 0.241940
C66 C 0.444300 0.813000 0.233120
C67 C 0.261900 0.786100 0.273120
C68 C 0.382500 0.077500 0.758060
C69 C 0.555700 0.187000 0.766880
C70 C 0.044100 0.875100 0.407950
C71 C 0.083400 0.185300 0.948310
C72 C 0.738100 0.213900 0.726880
C73 C -0.101700 -0.014200 0.885930
C74 C -0.455900 0.624900 0.907950
C75 C 0.955900 0.124900 0.592050
C76 C 0.555800 0.269900 0.818650
C77 C -0.238100 0.713900 0.773120
C78 C -0.055700 0.687000 0.733120
C79 C 0.117500 0.577500 0.741940
C80 C 0.278700 0.550900 0.701130
C81 C 0.277900 0.634700 0.648210
C82 C 0.105900 0.745900 0.640140
C83 C -0.055800 0.769900 0.681350
C84 C 0.394100 0.245900 0.859860
C85 C 0.601700 0.485800 0.614070
C86 C 0.416600 0.685300 0.551690
C87 C 1.455900 0.375100 0.092050
C88 C 0.583400 0.314700 0.448310
C89 C 0.398300 0.514200 0.385930
C90 C 1.238100 0.286100 0.226880
C91 C 1.055800 0.230100 0.318650
C92 C 0.894100 0.254100 0.359860
C93 C 0.722100 0.365300 0.351790
C94 C 0.721300 0.449100 0.298870
C95 C 0.882500 0.422500 0.258060
C96 C 1.055700 0.313000 0.266880
N97 N 0.562700 0.390900 0.392520
N98 N 1.245500 0.353400 0.177590
N99 N 1.436500 0.318900 0.145910
N100 N -0.276500 0.546800 0.931000
N101 N 0.062700 0.109100 0.892520
N102 N -0.245500 0.646600 0.822410
N103 N -0.436500 0.681100 0.854090
N104 N 0.936500 0.181100 0.645910
N105 N 0.745500 0.146600 0.677590
N106 N 1.276500 0.453200 0.069000
N107 N 0.063500 0.818900 0.354090
N108 N 0.254500 0.853400 0.322410
N109 N 0.937300 0.890900 0.107480
N110 N 0.223500 0.953200 0.431000
N111 N 0.437300 0.609100 0.607480
N112 N 0.776500 0.046800 0.569000
S113 S -0.702570 0.655520 0.942620
S114 S -0.202570 0.844480 0.442620
S115 S 1.702570 0.344480 0.057380
S116 S 1.202570 0.155520 0.557380

#END
