
#######################################################################
#
#                 Cambridge Crystallographic Data Centre
#                                CCDC 
#
#######################################################################
#
# If this CIF has been generated from an entry in the Cambridge 
# Structural Database, then it will include bibliographic, chemical, 
# crystal, experimental, refinement or atomic coordinate data resulting 
# from the CCDC's data processing and validation procedures.
#
#######################################################################

data_KAFDIE03
_symmetry_cell_setting           monoclinic
_symmetry_space_group_name_H-M   'P 21/n'
_symmetry_Int_Tables_number      14
_space_group_name_Hall           '-P 2yn'
loop_
_symmetry_equiv_pos_site_id
_symmetry_equiv_pos_as_xyz
1 x,y,z
2 1/2-x,1/2+y,1/2-z
3 -x,-y,-z
4 1/2+x,1/2-y,1/2+z
_cell_length_a                   5.677(7)
_cell_length_b                   8.951(2)
_cell_length_c                   22.773(4)
_cell_angle_alpha                90
_cell_angle_beta                 93.51(5)
_cell_angle_gamma                90
_cell_volume                     1155.04
loop_
_atom_site_label
_atom_site_type_symbol
_atom_site_fract_x
_atom_site_fract_y
_atom_site_fract_z
H1 H 1.550(6) 0.263(4) 0.1590(13)
H2 H 1.361(4) 0.212(3) 0.2386(9)
H3 H 0.882(4) 0.483(2) 0.2250(9)
H4 H 0.614(4) 0.528(3) 0.2922(10)
H5 H 0.902(4) 0.193(2) 0.3951(10)
H6 H 1.162(4) 0.151(3) 0.3249(10)
H7 H 0.481(5) 0.606(3) 0.3890(11)
H8 H 0.312(4) 0.512(2) 0.3490(11)
H9 H 0.297(6) 0.501(4) 0.4187(16)
H10 H 0.742(7) 0.351(4) 0.4710(16)
H11 H 0.615(6) 0.204(5) 0.4430(15)
H12 H 0.453(7) 0.335(4) 0.4640(15)
H13 H 1.146(5) 0.455(3) 0.0866(13)
H14 H 1.293(4) 0.501(2) 0.0349(10)
S1 S 1.70257(9) 0.34448(7) 0.05738(3)
C1 C 1.4559(3) 0.3751(2) 0.09205(8)
N1 N 1.4365(3) 0.3189(2) 0.14591(7)
N2 N 1.2455(3) 0.35340(17) 0.17759(7)
C2 C 1.2381(4) 0.2861(2) 0.22688(8)
C3 C 1.0557(3) 0.3130(2) 0.26688(8)
C4 C 0.8825(3) 0.4225(2) 0.25806(8)
C5 C 0.7213(3) 0.4491(2) 0.29887(8)
C6 C 0.7221(3) 0.3653(2) 0.35179(8)
C7 C 0.8941(4) 0.2541(2) 0.35986(9)
C8 C 1.0558(4) 0.2301(2) 0.31865(9)
N3 N 0.5627(3) 0.3909(2) 0.39252(8)
C9 C 0.3983(4) 0.5142(3) 0.38593(12)
C10 C 0.5834(7) 0.3147(4) 0.44831(13)
N4 N 1.2765(3) 0.4532(2) 0.06900(8)
H1 H -0.050(6) 0.763(4) 0.3410(13)
H2 H 0.139(4) 0.712(3) 0.2614(9)
H3 H 0.618(4) 0.983(2) 0.2750(9)
H4 H 0.886(4) 1.028(3) 0.2078(10)
H5 H 0.598(4) 0.693(2) 0.1049(10)
H6 H 0.338(4) 0.651(3) 0.1751(10)
H7 H 1.019(5) 1.106(3) 0.1110(11)
H8 H 1.188(4) 1.012(2) 0.1510(11)
H9 H 1.203(6) 1.001(4) 0.0813(16)
H10 H 0.758(7) 0.851(4) 0.0290(16)
H11 H 0.885(6) 0.704(5) 0.0570(15)
H12 H 1.047(7) 0.835(4) 0.0360(15)
H13 H 0.354(5) 0.955(3) 0.4134(13)
H14 H 0.207(4) 1.001(2) 0.4651(10)
S1 S -0.20257(9) 0.84448(7) 0.44262(3)
C1 C 0.0441(3) 0.8751(2) 0.40795(8)
N1 N 0.0635(3) 0.8189(2) 0.35409(7)
N2 N 0.2545(3) 0.85340(17) 0.32241(7)
C2 C 0.2619(4) 0.7861(2) 0.27312(8)
C3 C 0.4443(3) 0.8130(2) 0.23312(8)
C4 C 0.6175(3) 0.9225(2) 0.24194(8)
C5 C 0.7787(3) 0.9491(2) 0.20113(8)
C6 C 0.7779(3) 0.8653(2) 0.14821(8)
C7 C 0.6059(4) 0.7541(2) 0.14014(9)
C8 C 0.4442(4) 0.7301(2) 0.18135(9)
N3 N 0.9373(3) 0.8909(2) 0.10748(8)
C9 C 1.1017(4) 1.0142(3) 0.11407(12)
C10 C 0.9166(7) 0.8147(4) 0.05169(13)
N4 N 0.2235(3) 0.9532(2) 0.43100(8)
H1 H -0.550(6) 0.737(4) 0.8410(13)
H2 H -0.361(4) 0.788(3) 0.7614(9)
H3 H 0.118(4) 0.517(2) 0.7750(9)
H4 H 0.386(4) 0.472(3) 0.7078(10)
H5 H 0.098(4) 0.807(2) 0.6049(10)
H6 H -0.162(4) 0.849(3) 0.6751(10)
H7 H 0.519(5) 0.394(3) 0.6110(11)
H8 H 0.688(4) 0.488(2) 0.6510(11)
H9 H 0.703(6) 0.499(4) 0.5813(16)
H10 H 0.258(7) 0.649(4) 0.5290(16)
H11 H 0.385(6) 0.796(5) 0.5570(15)
H12 H 0.547(7) 0.665(4) 0.5360(15)
H13 H -0.146(5) 0.545(3) 0.9134(13)
H14 H -0.293(4) 0.499(2) 0.9651(10)
S1 S -0.70257(9) 0.65552(7) 0.94262(3)
C1 C -0.4559(3) 0.6249(2) 0.90795(8)
N1 N -0.4365(3) 0.6811(2) 0.85409(7)
N2 N -0.2455(3) 0.64660(17) 0.82241(7)
C2 C -0.2381(4) 0.7139(2) 0.77312(8)
C3 C -0.0557(3) 0.6870(2) 0.73312(8)
C4 C 0.1175(3) 0.5775(2) 0.74194(8)
C5 C 0.2787(3) 0.5509(2) 0.70113(8)
C6 C 0.2779(3) 0.6347(2) 0.64821(8)
C7 C 0.1059(4) 0.7459(2) 0.64014(9)
C8 C -0.0558(4) 0.7699(2) 0.68135(9)
N3 N 0.4373(3) 0.6091(2) 0.60748(8)
C9 C 0.6017(4) 0.4858(3) 0.61407(12)
C10 C 0.4166(7) 0.6853(4) 0.55169(13)
N4 N -0.2765(3) 0.5468(2) 0.93100(8)
H1 H 1.050(6) 0.237(4) 0.6590(13)
H2 H 0.861(4) 0.288(3) 0.7386(9)
H3 H 0.382(4) 0.017(2) 0.7250(9)
H4 H 0.114(4) -0.028(3) 0.7922(10)
H5 H 0.402(4) 0.307(2) 0.8951(10)
H6 H 0.662(4) 0.349(3) 0.8249(10)
H7 H -0.019(5) -0.106(3) 0.8890(11)
H8 H -0.188(4) -0.012(2) 0.8490(11)
H9 H -0.203(6) -0.001(4) 0.9187(16)
H10 H 0.242(7) 0.149(4) 0.9710(16)
H11 H 0.115(6) 0.296(5) 0.9430(15)
H12 H -0.047(7) 0.165(4) 0.9640(15)
H13 H 0.646(5) 0.045(3) 0.5866(13)
H14 H 0.793(4) -0.001(2) 0.5349(10)
S1 S 1.20257(9) 0.15552(7) 0.55738(3)
C1 C 0.9559(3) 0.1249(2) 0.59205(8)
N1 N 0.9365(3) 0.1811(2) 0.64591(7)
N2 N 0.7455(3) 0.14660(17) 0.67759(7)
C2 C 0.7381(4) 0.2139(2) 0.72688(8)
C3 C 0.5557(3) 0.1870(2) 0.76688(8)
C4 C 0.3825(3) 0.0775(2) 0.75806(8)
C5 C 0.2213(3) 0.0509(2) 0.79887(8)
C6 C 0.2221(3) 0.1347(2) 0.85179(8)
C7 C 0.3941(4) 0.2459(2) 0.85986(9)
C8 C 0.5558(4) 0.2699(2) 0.81865(9)
N3 N 0.0627(3) 0.1091(2) 0.89252(8)
C9 C -0.1017(4) -0.0142(3) 0.88593(12)
C10 C 0.0834(7) 0.1853(4) 0.94831(13)
N4 N 0.7765(3) 0.0468(2) 0.56900(8)

#END
