
#######################################################################
#
#                 Cambridge Crystallographic Data Centre
#                                CCDC 
#
#######################################################################
#
# If this CIF has been generated from an entry in the Cambridge 
# Structural Database, then it will include bibliographic, chemical, 
# crystal, experimental, refinement or atomic coordinate data resulting 
# from the CCDC's data processing and validation procedures.
#
#######################################################################

data_KAFDIE
_symmetry_cell_setting           triclinic
_symmetry_space_group_name_H-M   'P -1'
_symmetry_Int_Tables_number      2
_space_group_name_Hall           '-P 1'
loop_
_symmetry_equiv_pos_site_id
_symmetry_equiv_pos_as_xyz
1 x,y,z
2 -x,-y,-z
_cell_length_a                   8.532(1)
_cell_length_b                   9.391(1)
_cell_length_c                   15.592(4)
_cell_angle_alpha                73.81(2)
_cell_angle_beta                 79.59(2)
_cell_angle_gamma                82.85(2)
_cell_volume                     1176.37
loop_
_atom_site_label
_atom_site_type_symbol
_atom_site_fract_x
_atom_site_fract_y
_atom_site_fract_z
S1 S 1.0792(1) -0.1888(1) 0.10270(5)
N1 N 0.8568(3) 0.0255(3) 0.1296(2)
N2 N 0.9573(3) -0.1180(3) 0.2545(2)
N3 N 0.8588(3) -0.0323(2) 0.3056(1)
N4 N 0.5032(3) 0.2157(3) 0.6428(2)
C1 C 0.7748(3) 0.0051(3) 0.4537(2)
C2 C 0.7936(4) -0.0390(4) 0.5443(2)
C3 C 0.7063(4) 0.0299(4) 0.6063(2)
C4 C 0.5930(3) 0.1479(3) 0.5813(2)
C5 C 0.5746(4) 0.1933(3) 0.4891(2)
C6 C 0.6621(3) 0.1229(3) 0.4284(2)
C7 C 0.9562(3) -0.0871(3) 0.1656(2)
C8 C 0.8697(3) -0.0708(3) 0.3898(2)
C9 C 0.3959(6) 0.3447(5) 0.6158(4)
C10 C 0.5155(6) 0.1629(6) 0.7378(3)
H1 H 0.864(3) -0.119(3) 0.564(2)
H2 H 0.732(3) 0.002(3) 0.662(2)
H3 H 0.495(3) 0.271(3) 0.470(2)
H4 H 0.643(3) 0.150(3) 0.367(2)
H5 H 0.943(3) -0.156(3) 0.415(2)
H6 H 0.318(5) 0.327(5) 0.589(3)
H7 H 0.452(5) 0.438(5) 0.576(3)
H8 H 0.343(5) 0.374(4) 0.663(3)
H9 H 0.621(4) 0.168(4) 0.752(2)
H10 H 0.441(5) 0.212(4) 0.771(3)
H11 H 0.503(5) 0.058(5) 0.764(3)
H12 H 0.799(4) 0.080(3) 0.160(2)
H13 H 0.872(3) 0.054(3) 0.068(2)
H14 H 1.020(3) -0.196(3) 0.281(2)
S1 S -0.0792(1) 1.1888(1) 0.89730(5)
N1 N 0.1432(3) 0.9745(3) 0.8704(2)
N2 N 0.0427(3) 1.1180(3) 0.7455(2)
N3 N 0.1412(3) 1.0323(2) 0.6944(1)
N4 N 0.4968(3) 0.7843(3) 0.3572(2)
C1 C 0.2252(3) 0.9949(3) 0.5463(2)
C2 C 0.2064(4) 1.0390(4) 0.4557(2)
C3 C 0.2937(4) 0.9701(4) 0.3937(2)
C4 C 0.4070(3) 0.8521(3) 0.4187(2)
C5 C 0.4254(4) 0.8067(3) 0.5109(2)
C6 C 0.3379(3) 0.8771(3) 0.5716(2)
C7 C 0.0438(3) 1.0871(3) 0.8344(2)
C8 C 0.1303(3) 1.0708(3) 0.6102(2)
C9 C 0.6041(6) 0.6553(5) 0.3842(4)
C10 C 0.4845(6) 0.8371(6) 0.2622(3)
H1 H 0.136(3) 1.119(3) 0.436(2)
H2 H 0.268(3) 0.998(3) 0.338(2)
H3 H 0.505(3) 0.729(3) 0.530(2)
H4 H 0.357(3) 0.850(3) 0.633(2)
H5 H 0.057(3) 1.156(3) 0.585(2)
H6 H 0.682(5) 0.673(5) 0.411(3)
H7 H 0.548(5) 0.562(5) 0.424(3)
H8 H 0.657(5) 0.626(4) 0.337(3)
H9 H 0.379(4) 0.832(4) 0.248(2)
H10 H 0.559(5) 0.788(4) 0.229(3)
H11 H 0.497(5) 0.942(5) 0.236(3)
H12 H 0.201(4) 0.920(3) 0.840(2)
H13 H 0.128(3) 0.946(3) 0.932(2)
H14 H -0.020(3) 1.196(3) 0.719(2)
S2 S -0.1645(1) 0.4318(1) 0.63030(5)
N5 N 0.0743(3) 0.6082(3) 0.5826(2)
N6 N 0.0073(3) 0.5044(3) 0.7331(2)
N7 N 0.1394(3) 0.5609(2) 0.7477(1)
N8 N 0.6538(4) 0.7606(3) 0.9374(2)
C11 C 0.2861(3) 0.5950(3) 0.8564(2)
C12 C 0.2747(4) 0.6126(3) 0.9434(2)
C13 C 0.3941(4) 0.6663(3) 0.9698(2)
C14 C 0.5344(4) 0.7057(3) 0.9111(2)
C15 C 0.5488(4) 0.6833(3) 0.8248(2)
C16 C 0.4280(4) 0.6296(3) 0.7980(2)
C17 C -0.0185(3) 0.5202(3) 0.6479(2)
C18 C 0.1531(3) 0.5441(3) 0.8305(2)
C19 C 0.8010(7) 0.7933(8) 0.8788(5)
C20 C 0.6301(7) 0.7986(6) 1.0229(4)
H15 H 0.175(3) 0.586(3) 0.985(2)
H16 H 0.380(3) 0.675(3) 1.028(2)
H17 H 0.636(3) 0.702(3) 0.781(2)
H18 H 0.446(3) 0.616(3) 0.734(2)
H19 H 0.073(3) 0.492(3) 0.878(2)
H20 H 0.875(5) 0.808(4) 0.917(3)
H21 H 0.838(6) 0.723(6) 0.846(4)
H22 H 0.792(6) 0.876(6) 0.834(4)
H23 H 0.706(5) 0.842(5) 1.032(3)
H24 H 0.603(5) 0.717(4) 1.077(3)
H25 H 0.521(6) 0.867(5) 1.034(3)
H26 H 0.147(3) 0.645(3) 0.596(2)
H27 H 0.077(4) 0.607(3) 0.525(2)
H28 H -0.042(3) 0.437(3) 0.776(2)
S2 S 1.1645(1) 0.5682(1) 0.36970(5)
N5 N 0.9257(3) 0.3918(3) 0.4174(2)
N6 N 0.9927(3) 0.4956(3) 0.2669(2)
N7 N 0.8606(3) 0.4391(2) 0.2523(1)
N8 N 0.3462(4) 0.2394(3) 0.0626(2)
C11 C 0.7139(3) 0.4050(3) 0.1436(2)
C12 C 0.7253(4) 0.3874(3) 0.0566(2)
C13 C 0.6059(4) 0.3337(3) 0.0302(2)
C14 C 0.4656(4) 0.2943(3) 0.0889(2)
C15 C 0.4512(4) 0.3167(3) 0.1752(2)
C16 C 0.5720(4) 0.3704(3) 0.2020(2)
C17 C 1.0185(3) 0.4798(3) 0.3521(2)
C18 C 0.8469(3) 0.4559(3) 0.1695(2)
C19 C 0.1990(7) 0.2067(8) 0.1212(5)
C20 C 0.3699(7) 0.2014(6) -0.0229(4)
H15 H 0.825(3) 0.414(3) 0.015(2)
H16 H 0.620(3) 0.325(3) -0.028(2)
H17 H 0.364(3) 0.298(3) 0.219(2)
H18 H 0.554(3) 0.384(3) 0.266(2)
H19 H 0.927(3) 0.508(3) 0.122(2)
H20 H 0.125(5) 0.192(4) 0.083(3)
H21 H 0.162(6) 0.277(6) 0.154(4)
H22 H 0.208(6) 0.124(6) 0.166(4)
H23 H 0.294(5) 0.158(5) -0.032(3)
H24 H 0.397(5) 0.283(4) -0.077(3)
H25 H 0.479(6) 0.133(5) -0.034(3)
H26 H 0.853(3) 0.355(3) 0.404(2)
H27 H 0.923(4) 0.393(3) 0.475(2)
H28 H 1.042(3) 0.563(3) 0.224(2)

#END
