
#######################################################################
#
#                 Cambridge Crystallographic Data Centre
#                                CCDC 
#
#######################################################################
#
# If this CIF has been generated from an entry in the Cambridge 
# Structural Database, then it will include bibliographic, chemical, 
# crystal, experimental, refinement or atomic coordinate data resulting 
# from the CCDC's data processing and validation procedures.
#
#######################################################################

data_KAFHIK
_symmetry_cell_setting           triclinic
_symmetry_space_group_name_H-M   'P -1'
_symmetry_Int_Tables_number      2
_space_group_name_Hall           '-P 1'
loop_
_symmetry_equiv_pos_site_id
_symmetry_equiv_pos_as_xyz
1 x,y,z
2 -x,-y,-z
_cell_length_a                   10.562(2)
_cell_length_b                   10.6958(17)
_cell_length_c                   11.061(2)
_cell_angle_alpha                80.503(7)
_cell_angle_beta                 84.722(7)
_cell_angle_gamma                73.553(7)
_cell_volume                     1180.64
loop_
_atom_site_label
_atom_site_type_symbol
_atom_site_fract_x
_atom_site_fract_y
_atom_site_fract_z
F1 F 0.67098(9) 0.06768(9) 0.24897(9)
F2 F 0.97648(10) -0.29020(9) 0.09857(9)
F3 F 0.86666(8) 0.56826(9) 0.95498(8)
F4 F 0.69886(9) 0.64439(9) 1.07253(8)
F5 F 0.75351(9) 0.77058(9) 0.91452(9)
O1 O 0.78861(10) 0.55920(10) 0.39901(10)
O2 O 0.99218(10) 0.59274(11) 0.37999(10)
O3 O 0.56780(10) 0.34712(11) 0.53673(10)
O4 O 0.33217(11) 0.71311(12) 1.00725(11)
O5 O 0.48362(12) 0.81756(12) 0.98545(12)
N1 N 0.72653(12) 0.40768(13) 0.62310(12)
N2 N 0.44070(13) 0.72756(14) 0.96742(13)
C1 C 0.79728(15) 0.00852(16) 0.21367(14)
C2 C 0.82077(16) -0.11131(16) 0.17249(14)
H1 H 0.7518 -0.1513 0.1691
C3 C 0.94918(16) -0.16989(15) 0.13667(14)
C4 C 1.05135(16) -0.11382(16) 0.13745(14)
H2 H 1.1388 -0.1569 0.1113
C5 C 1.02198(15) 0.00786(15) 0.17774(14)
H3 H 1.0907 0.0492 0.1772
C6 C 0.89435(14) 0.07190(15) 0.21921(13)
C7 C 0.86710(14) 0.19955(15) 0.26628(14)
C8 C 0.92360(14) 0.29768(15) 0.20547(14)
H4 H 0.9777 0.2822 0.1330
C9 C 0.90262(14) 0.41660(15) 0.24833(14)
H5 H 0.9396 0.4832 0.2046
C10 C 0.82684(14) 0.43720(15) 0.35612(14)
C11 C 0.76918(14) 0.34159(15) 0.42005(13)
C12 C 0.78805(14) 0.22448(15) 0.37270(14)
H6 H 0.7463 0.1603 0.4136
C13 C 0.87722(14) 0.62606(15) 0.41460(14)
C14 C 0.81232(15) 0.73860(15) 0.48029(14)
C15 C 0.88669(15) 0.81947(15) 0.50493(14)
H7 H 0.9761 0.8051 0.4748
C16 C 0.83078(16) 0.92083(15) 0.57327(15)
H8 H 0.8825 0.9755 0.5890
C17 C 0.70000(16) 0.94404(16) 0.61940(15)
C18 C 0.62588(16) 0.86434(16) 0.59116(15)
H9 H 0.5358 0.8802 0.6194
C19 C 0.68032(15) 0.76275(16) 0.52297(15)
H10 H 0.6279 0.7096 0.5053
C20 C 0.63925(18) 1.05013(17) 0.69806(17)
H11 H 0.6211 1.0095 0.7815
H12 H 0.5565 1.1066 0.6636
H13 H 0.7006 1.1033 0.7003
C21 C 0.67720(15) 0.36554(15) 0.53129(14)
C22 C 0.65332(14) 0.47436(15) 0.71680(14)
C23 C 0.72299(14) 0.52506(15) 0.78967(14)
H14 H 0.8166 0.5047 0.7796
C24 C 0.65817(15) 0.60428(15) 0.87611(14)
C25 C 0.52060(15) 0.63278(15) 0.88863(14)
C26 C 0.45233(15) 0.57587(15) 0.82304(14)
H15 H 0.3593 0.5923 0.8365
C27 C 0.51743(15) 0.49535(16) 0.73815(14)
H16 H 0.4701 0.4548 0.6949
C28 C 0.74265(15) 0.64833(16) 0.95459(14)
H17 H 0.8101(18) 0.4068(17) 0.6113(16)
F1 F 0.32902(9) 0.93232(9) 0.75103(9)
F2 F 0.02352(10) 1.29020(9) 0.90143(9)
F3 F 0.13334(8) 0.43174(9) 0.04502(8)
F4 F 0.30114(9) 0.35561(9) -0.07253(8)
F5 F 0.24649(9) 0.22942(9) 0.08548(9)
O1 O 0.21139(10) 0.44080(10) 0.60099(10)
O2 O 0.00782(10) 0.40726(11) 0.62001(10)
O3 O 0.43220(10) 0.65288(11) 0.46327(10)
O4 O 0.66783(11) 0.28689(12) -0.00725(11)
O5 O 0.51638(12) 0.18244(12) 0.01455(12)
N1 N 0.27347(12) 0.59232(13) 0.37690(12)
N2 N 0.55930(13) 0.27244(14) 0.03258(13)
C1 C 0.20272(15) 0.99148(16) 0.78633(14)
C2 C 0.17923(16) 1.11131(16) 0.82751(14)
H1 H 0.2482 1.1513 0.8309
C3 C 0.05082(16) 1.16989(15) 0.86333(14)
C4 C -0.05135(16) 1.11382(16) 0.86255(14)
H2 H -0.1388 1.1569 0.8887
C5 C -0.02198(15) 0.99214(15) 0.82226(14)
H3 H -0.0907 0.9508 0.8228
C6 C 0.10565(14) 0.92810(15) 0.78079(13)
C7 C 0.13290(14) 0.80045(15) 0.73372(14)
C8 C 0.07640(14) 0.70232(15) 0.79453(14)
H4 H 0.0223 0.7178 0.8670
C9 C 0.09738(14) 0.58340(15) 0.75167(14)
H5 H 0.0604 0.5168 0.7954
C10 C 0.17316(14) 0.56280(15) 0.64388(14)
C11 C 0.23082(14) 0.65841(15) 0.57995(13)
C12 C 0.21195(14) 0.77552(15) 0.62730(14)
H6 H 0.2537 0.8397 0.5864
C13 C 0.12278(14) 0.37394(15) 0.58540(14)
C14 C 0.18768(15) 0.26140(15) 0.51971(14)
C15 C 0.11331(15) 0.18053(15) 0.49507(14)
H7 H 0.0239 0.1949 0.5252
C16 C 0.16922(16) 0.07917(15) 0.42673(15)
H8 H 0.1175 0.0245 0.4110
C17 C 0.30000(16) 0.05596(16) 0.38060(15)
C18 C 0.37412(16) 0.13566(16) 0.40884(15)
H9 H 0.4642 0.1198 0.3806
C19 C 0.31968(15) 0.23725(16) 0.47703(15)
H10 H 0.3721 0.2904 0.4947
C20 C 0.36075(18) -0.05013(17) 0.30194(17)
H11 H 0.3789 -0.0095 0.2185
H12 H 0.4435 -0.1066 0.3364
H13 H 0.2994 -0.1033 0.2997
C21 C 0.32280(15) 0.63446(15) 0.46871(14)
C22 C 0.34668(14) 0.52564(15) 0.28320(14)
C23 C 0.27701(14) 0.47494(15) 0.21033(14)
H14 H 0.1834 0.4953 0.2204
C24 C 0.34183(15) 0.39572(15) 0.12389(14)
C25 C 0.47940(15) 0.36722(15) 0.11137(14)
C26 C 0.54767(15) 0.42413(15) 0.17696(14)
H15 H 0.6407 0.4077 0.1635
C27 C 0.48257(15) 0.50465(16) 0.26185(14)
H16 H 0.5299 0.5452 0.3051
C28 C 0.25735(15) 0.35167(16) 0.04541(14)
H17 H 0.1899(18) 0.5932(17) 0.3887(16)

#END
