./KAFLEI_from_POSCAR.cif_generated_by_CrystalShift
_symmetry_cell_setting triclinic
_symmetry_space_group_name_H-M 'P 1'
loop_
_symmetry_equiv_pos_site_id
_symmetry_equiv_pos_as_xyz
1 x,y,z
_cell_length_a 9.258000
_cell_length_b 10.994000
_cell_length_c 16.768000
_cell_angle_alpha 90.000000
_cell_angle_beta 92.740000
_cell_angle_gamma 90.000000
_cell_volume 1704.736975
loop_
_atom_site_label
_atom_site_type_symbol
_atom_site_fract_x
_atom_site_fract_y
_atom_site_fract_z
H1 H 0.254800 0.255300 0.776800
H2 H 0.873500 -0.103600 0.476300
H3 H 0.746600 -0.041500 0.590000
H4 H 0.675400 0.171000 0.338700
H5 H 0.287500 0.548900 0.286200
H6 H 0.135500 0.330000 0.801200
H7 H 0.126100 0.709600 0.248700
H8 H -0.009000 0.804800 0.352100
H9 H 0.365000 0.528800 0.813000
H10 H 0.745200 0.755300 0.723200
H11 H 0.491300 0.616800 0.709900
H12 H 0.929700 1.060100 0.771600
H13 H 0.964100 1.162400 0.892200
H14 H 0.987400 1.237200 1.012000
H15 H 1.009000 1.304800 1.147900
H16 H 0.873900 1.209600 1.251300
H17 H 0.712500 1.048900 1.213800
H18 H 0.324600 0.671000 1.161300
H19 H 0.156800 0.501300 1.147800
H20 H 0.864500 0.830000 0.698800
H21 H 0.126500 0.396400 1.023700
H22 H 0.253400 0.458500 0.910000
H23 H 0.012600 0.737200 0.488000
H24 H 0.745200 0.744700 0.223200
H25 H 0.035900 0.662400 0.607800
H26 H 0.070300 0.560100 0.728400
H27 H 0.508700 0.116800 0.790100
H28 H 0.365000 0.971200 0.313000
H29 H 0.746600 0.541500 0.090000
H30 H 0.873500 0.603600 -0.023700
H31 H 0.843200 0.498700 -0.147800
H32 H 0.675400 0.329000 -0.161300
H33 H 0.287500 -0.048900 -0.213800
H34 H 0.126100 -0.209600 -0.251300
H35 H -0.009000 -0.304800 -0.147900
H36 H 0.012600 -0.237200 -0.012000
H37 H 0.035900 -0.162400 0.107800
H38 H 0.070300 -0.060100 0.228400
H39 H 0.508700 0.383200 0.290100
H40 H 0.635000 0.471200 0.187000
H41 H 0.491300 0.883200 0.209900
H42 H 0.929700 0.439900 0.271600
H43 H 0.964100 0.337600 0.392200
H44 H 0.987400 0.262800 0.512000
H45 H 1.009000 0.195200 0.647900
H46 H 0.864500 0.670000 0.198800
H47 H 0.873900 0.290400 0.751300
H48 H 0.712500 0.451100 0.713800
H49 H 0.324600 0.829000 0.661300
H50 H 0.254800 0.244700 0.276800
H51 H 0.156800 0.998700 0.647800
H52 H 0.126500 1.103600 0.523700
H53 H 0.253400 1.041500 0.410000
H54 H 0.635000 0.028800 0.687000
H55 H 0.135500 0.170000 0.301200
H56 H 0.843200 0.001300 0.352200
C57 C 0.821500 0.444100 0.457000
C58 C 0.895500 0.408500 0.389000
C59 C 0.870000 0.468000 0.317800
C60 C 0.928000 0.303500 0.554300
C61 C 0.703800 0.599500 0.365800
C62 C 0.605500 0.704800 0.349200
C63 C 0.723300 0.541900 0.441100
C64 C 0.940200 0.265000 0.632500
C65 C 0.502900 0.846700 0.266000
C66 C 0.430300 0.898300 0.325900
C67 C 0.441700 0.852500 0.405000
C68 C 0.365500 0.897600 0.470200
C69 C 0.862500 0.319000 0.693100
C70 C 0.771400 0.410900 0.670500
C71 C 0.750900 0.453600 0.592700
C72 C 0.532600 0.749900 0.414800
C73 C 0.648700 0.591700 0.507800
C74 C 0.546300 0.697000 0.493900
C75 C 0.388900 0.833900 0.541800
C76 C 0.310800 0.872700 0.607700
C77 C 0.214500 0.971100 0.600900
C78 C 0.196500 1.031800 0.529200
C79 C 0.267800 0.996700 0.463200
C80 C 0.634500 0.397600 0.029800
C81 C 0.267800 0.503300 0.963200
C82 C 0.196500 0.468200 1.029200
C83 C 0.214500 0.528900 1.100900
C84 C 0.310800 0.627300 1.107700
C85 C 0.388900 0.666100 1.041800
C86 C 0.558300 0.352500 0.095000
C87 C 0.546300 0.803000 0.993900
C88 C 0.648700 0.908300 1.007800
C89 C 0.532600 0.750100 0.914800
C90 C 0.569700 0.398300 0.174100
C91 C 0.750900 1.046400 1.092700
C92 C 0.771400 1.089100 1.170500
C93 C 0.862500 1.181000 1.193100
C94 C 0.940200 1.235000 1.132500
C95 C 0.928000 1.196500 1.054300
C96 C 0.833900 1.102700 1.036600
C97 C 0.821500 1.055900 0.957000
C98 C 0.895500 1.091500 0.889000
C99 C 0.870000 1.032000 0.817800
C100 C 0.497100 0.346700 0.234000
C101 C 0.703800 0.900500 0.865800
C102 C 0.605500 0.795200 0.849200
C103 C 0.723300 0.958100 0.941100
C104 C 0.276700 0.041900 0.058900
C105 C 0.502900 0.653300 0.766000
C106 C 0.430300 0.601700 0.825900
C107 C 0.441700 0.647500 0.905000
C108 C 0.365500 0.602400 0.970200
C109 C 0.394500 0.204800 0.150800
C110 C 0.296200 0.099500 0.134200
C111 C 0.130000 -0.032000 0.182200
C112 C 0.104500 -0.091500 0.111000
C113 C 0.178500 -0.055900 0.043000
C114 C 0.166100 -0.102700 -0.036600
C115 C 0.072000 -0.196500 -0.054300
C116 C 0.059800 -0.235000 -0.132500
C117 C 0.137500 -0.181000 -0.193100
C118 C 0.228600 -0.089100 -0.170500
C119 C 0.249100 -0.046400 -0.092700
C120 C 0.467400 0.249900 0.085200
C121 C 0.732200 0.003300 0.536800
C122 C 0.803500 -0.031800 0.470800
C123 C 0.785500 0.028900 0.399100
C124 C 0.689200 0.127300 0.392300
C125 C 0.611100 0.166100 0.458200
C126 C 0.351300 0.091700 -0.007800
C127 C 0.453700 0.303000 0.506100
C128 C 0.351300 0.408300 0.492200
C129 C 0.467400 0.250100 0.585200
C130 C 0.453700 0.197000 0.006100
C131 C 0.249100 0.546400 0.407300
C132 C 0.228600 0.589100 0.329500
C133 C 0.137500 0.681000 0.306900
C134 C 0.059800 0.735000 0.367500
C135 C 0.072000 0.696500 0.445700
C136 C 0.166100 0.602700 0.463400
C137 C 0.178500 0.555900 0.543000
C138 C 0.104500 0.591500 0.611000
C139 C 0.130000 0.532000 0.682200
C140 C 0.611100 0.333900 -0.041800
C141 C 0.296200 0.400500 0.634200
C142 C 0.394500 0.295200 0.650800
C143 C 0.276700 0.458100 0.558900
C144 C 0.689200 0.372700 -0.107700
C145 C 0.497100 0.153300 0.734000
C146 C 0.569700 0.101700 0.674100
C147 C 0.558300 0.147500 0.595000
C148 C 0.634500 0.102400 0.529800
C149 C 0.785500 0.471100 -0.100900
C150 C 0.803500 0.531800 -0.029200
C151 C 0.833900 0.397300 0.536600
C152 C 0.732200 0.496700 0.036800
N153 N 0.221500 0.439700 0.695700
N154 N 0.339600 0.448600 0.418100
N155 N 0.520100 0.261600 0.444500
N156 N 0.591800 0.750200 0.776900
N157 N 0.778500 0.939700 0.804300
N158 N 0.660400 0.948600 1.081900
N159 N 0.479900 0.761600 1.055500
N160 N 0.591800 0.749800 0.276900
N161 N 0.520100 0.238400 -0.055500
N162 N 0.778500 0.560300 0.304300
N163 N 0.660400 0.551400 0.581900
N164 N 0.339600 0.051400 -0.081900
N165 N 0.479900 0.738400 0.555500
N166 N 0.408200 0.249800 0.223100
N167 N 0.221500 0.060300 0.195700
N168 N 0.408200 0.250200 0.723100
O169 O 0.165300 0.265700 0.836700
O170 O 0.165300 0.234300 0.336700
O171 O 0.834700 0.734300 0.163300
O172 O 0.834700 0.765700 0.663300

#END
