
#######################################################################
#
#                 Cambridge Crystallographic Data Centre
#                                CCDC 
#
#######################################################################
#
# If this CIF has been generated from an entry in the Cambridge 
# Structural Database, then it will include bibliographic, chemical, 
# crystal, experimental, refinement or atomic coordinate data resulting 
# from the CCDC's data processing and validation procedures.
#
#######################################################################

data_KAFLEI01
_symmetry_cell_setting           monoclinic
_symmetry_space_group_name_H-M   'P 21/c'
_symmetry_Int_Tables_number      14
_space_group_name_Hall           '-P 2ybc'
loop_
_symmetry_equiv_pos_site_id
_symmetry_equiv_pos_as_xyz
1 x,y,z
2 -x,1/2+y,1/2-z
3 -x,-y,-z
4 x,1/2-y,1/2+z
_cell_length_a                   9.3302(3)
_cell_length_b                   10.9224(4)
_cell_length_c                   16.5491(7)
_cell_angle_alpha                90
_cell_angle_beta                 93.641(2)
_cell_angle_gamma                90
_cell_volume                     1683.08
loop_
_atom_site_label
_atom_site_type_symbol
_atom_site_fract_x
_atom_site_fract_y
_atom_site_fract_z
N1 N 1.02429(17) 0.23562(14) -0.05593(9)
C1 C 1.1166(2) 0.33421(17) -0.04428(11)
C2 C 1.1954(2) 0.36771(18) -0.11043(12)
H1 H 1.1824 0.3244 -0.1601
C3 C 1.2914(2) 0.4631(2) -0.10321(13)
H2 H 1.3455 0.4849 -0.1478
C4 C 1.3097(2) 0.52830(19) -0.03054(13)
H3 H 1.3756 0.5946 -0.0264
C5 C 1.2338(2) 0.49787(18) 0.03486(12)
H4 H 1.2469 0.5434 0.0837
C6 C 1.1361(2) 0.39868(17) 0.02974(11)
C7 C 1.0576(2) 0.35711(17) 0.09702(11)
C8 C 1.0672(2) 0.40929(18) 0.17455(11)
H5 H 1.1241 0.4803 0.1852
C9 C 0.9936(2) 0.35681(18) 0.23513(11)
H6 H 1.0052 0.3913 0.2878
N2 N 0.90543(18) 0.25875(15) 0.22398(9)
C10 C 0.8915(2) 0.21056(17) 0.14996(11)
C11 C 0.9665(2) 0.25481(16) 0.08450(11)
C12 C 0.95302(19) 0.19878(16) 0.00541(11)
C13 C 0.85387(19) 0.09319(16) -0.00765(10)
C14 C 0.77689(19) 0.04980(16) 0.05938(10)
C15 C 0.7922(2) 0.10607(17) 0.13658(10)
N3 N 0.71707(17) 0.07030(14) 0.19859(9)
C16 C 0.6260(2) -0.02488(17) 0.18552(11)
H7 H 0.5728 -0.0511 0.2295
C17 C 0.6047(2) -0.08655(17) 0.11355(11)
H8 H 0.5395 -0.1534 0.1086
C18 C 0.6811(2) -0.04892(16) 0.04720(11)
C19 C 0.6642(2) -0.10200(17) -0.03265(11)
C20 C 0.5692(2) -0.19916(17) -0.05316(12)
H9 H 0.5149 -0.2351 -0.0127
C21 C 0.5546(2) -0.24209(18) -0.13122(12)
H10 H 0.4893 -0.3068 -0.1444
C22 C 0.6351(2) -0.19149(18) -0.19170(12)
H11 H 0.6241 -0.2219 -0.2455
C23 C 0.7300(2) -0.09772(17) -0.17310(11)
H12 H 0.7853 -0.0640 -0.2139
C24 C 0.7453(2) -0.05174(16) -0.09359(11)
N4 N 0.83945(17) 0.04582(14) -0.08044(9)
N1 N -0.02429(17) 0.73562(14) 0.55593(9)
C1 C -0.1166(2) 0.83421(17) 0.54428(11)
C2 C -0.1954(2) 0.86771(18) 0.61043(12)
H1 H -0.1824 0.8244 0.6601
C3 C -0.2914(2) 0.9631(2) 0.60321(13)
H2 H -0.3455 0.9849 0.6478
C4 C -0.3097(2) 1.02830(19) 0.53054(13)
H3 H -0.3756 1.0946 0.5264
C5 C -0.2338(2) 0.99787(18) 0.46514(12)
H4 H -0.2469 1.0434 0.4163
C6 C -0.1361(2) 0.89868(17) 0.47026(11)
C7 C -0.0576(2) 0.85711(17) 0.40298(11)
C8 C -0.0672(2) 0.90929(18) 0.32545(11)
H5 H -0.1241 0.9803 0.3148
C9 C 0.0064(2) 0.85681(18) 0.26487(11)
H6 H -0.0052 0.8913 0.2122
N2 N 0.09457(18) 0.75875(15) 0.27602(9)
C10 C 0.1085(2) 0.71056(17) 0.35004(11)
C11 C 0.0335(2) 0.75481(16) 0.41550(11)
C12 C 0.04698(19) 0.69878(16) 0.49459(11)
C13 C 0.14613(19) 0.59319(16) 0.50765(10)
C14 C 0.22311(19) 0.54980(16) 0.44062(10)
C15 C 0.2078(2) 0.60607(17) 0.36342(10)
N3 N 0.28293(17) 0.57030(14) 0.30141(9)
C16 C 0.3740(2) 0.47512(17) 0.31448(11)
H7 H 0.4272 0.4489 0.2705
C17 C 0.3953(2) 0.41345(17) 0.38645(11)
H8 H 0.4605 0.3466 0.3914
C18 C 0.3189(2) 0.45108(16) 0.45280(11)
C19 C 0.3358(2) 0.39800(17) 0.53265(11)
C20 C 0.4308(2) 0.30084(17) 0.55316(12)
H9 H 0.4851 0.2649 0.5127
C21 C 0.4454(2) 0.25791(18) 0.63122(12)
H10 H 0.5107 0.1932 0.6444
C22 C 0.3649(2) 0.30851(18) 0.69170(12)
H11 H 0.3759 0.2781 0.7455
C23 C 0.2700(2) 0.40228(17) 0.67310(11)
H12 H 0.2147 0.4360 0.7139
C24 C 0.2547(2) 0.44826(16) 0.59359(11)
N4 N 0.16055(17) 0.54582(14) 0.58044(9)
N1 N -0.02429(17) 0.76438(14) 1.05593(9)
C1 C -0.1166(2) 0.66579(17) 1.04428(11)
C2 C -0.1954(2) 0.63229(18) 1.11043(12)
H1 H -0.1824 0.6756 1.1601
C3 C -0.2914(2) 0.5369(2) 1.10321(13)
H2 H -0.3455 0.5151 1.1478
C4 C -0.3097(2) 0.47170(19) 1.03054(13)
H3 H -0.3756 0.4054 1.0264
C5 C -0.2338(2) 0.50213(18) 0.96514(12)
H4 H -0.2469 0.4566 0.9163
C6 C -0.1361(2) 0.60132(17) 0.97026(11)
C7 C -0.0576(2) 0.64289(17) 0.90298(11)
C8 C -0.0672(2) 0.59071(18) 0.82545(11)
H5 H -0.1241 0.5197 0.8148
C9 C 0.0064(2) 0.64319(18) 0.76487(11)
H6 H -0.0052 0.6087 0.7122
N2 N 0.09457(18) 0.74125(15) 0.77602(9)
C10 C 0.1085(2) 0.78944(17) 0.85004(11)
C11 C 0.0335(2) 0.74519(16) 0.91550(11)
C12 C 0.04698(19) 0.80122(16) 0.99459(11)
C13 C 0.14613(19) 0.90681(16) 1.00765(10)
C14 C 0.22311(19) 0.95020(16) 0.94062(10)
C15 C 0.2078(2) 0.89393(17) 0.86342(10)
N3 N 0.28293(17) 0.92970(14) 0.80141(9)
C16 C 0.3740(2) 1.02488(17) 0.81448(11)
H7 H 0.4272 1.0511 0.7705
C17 C 0.3953(2) 1.08655(17) 0.88645(11)
H8 H 0.4605 1.1534 0.8914
C18 C 0.3189(2) 1.04892(16) 0.95280(11)
C19 C 0.3358(2) 1.10200(17) 1.03265(11)
C20 C 0.4308(2) 1.19916(17) 1.05316(12)
H9 H 0.4851 1.2351 1.0127
C21 C 0.4454(2) 1.24209(18) 1.13122(12)
H10 H 0.5107 1.3068 1.1444
C22 C 0.3649(2) 1.19149(18) 1.19170(12)
H11 H 0.3759 1.2219 1.2455
C23 C 0.2700(2) 1.09772(17) 1.17310(11)
H12 H 0.2147 1.0640 1.2139
C24 C 0.2547(2) 1.05174(16) 1.09359(11)
N4 N 0.16055(17) 0.95418(14) 1.08044(9)
N1 N 1.02429(17) 0.26438(14) 0.44407(9)
C1 C 1.1166(2) 0.16579(17) 0.45572(11)
C2 C 1.1954(2) 0.13229(18) 0.38957(12)
H1 H 1.1824 0.1756 0.3399
C3 C 1.2914(2) 0.0369(2) 0.39679(13)
H2 H 1.3455 0.0151 0.3522
C4 C 1.3097(2) -0.02830(19) 0.46946(13)
H3 H 1.3756 -0.0946 0.4736
C5 C 1.2338(2) 0.00213(18) 0.53486(12)
H4 H 1.2469 -0.0434 0.5837
C6 C 1.1361(2) 0.10132(17) 0.52974(11)
C7 C 1.0576(2) 0.14289(17) 0.59702(11)
C8 C 1.0672(2) 0.09071(18) 0.67455(11)
H5 H 1.1241 0.0197 0.6852
C9 C 0.9936(2) 0.14319(18) 0.73513(11)
H6 H 1.0052 0.1087 0.7878
N2 N 0.90543(18) 0.24125(15) 0.72398(9)
C10 C 0.8915(2) 0.28944(17) 0.64996(11)
C11 C 0.9665(2) 0.24519(16) 0.58450(11)
C12 C 0.95302(19) 0.30122(16) 0.50541(11)
C13 C 0.85387(19) 0.40681(16) 0.49235(10)
C14 C 0.77689(19) 0.45020(16) 0.55938(10)
C15 C 0.7922(2) 0.39393(17) 0.63658(10)
N3 N 0.71707(17) 0.42970(14) 0.69859(9)
C16 C 0.6260(2) 0.52488(17) 0.68552(11)
H7 H 0.5728 0.5511 0.7295
C17 C 0.6047(2) 0.58655(17) 0.61355(11)
H8 H 0.5395 0.6534 0.6086
C18 C 0.6811(2) 0.54892(16) 0.54720(11)
C19 C 0.6642(2) 0.60200(17) 0.46735(11)
C20 C 0.5692(2) 0.69916(17) 0.44684(12)
H9 H 0.5149 0.7351 0.4873
C21 C 0.5546(2) 0.74209(18) 0.36878(12)
H10 H 0.4893 0.8068 0.3556
C22 C 0.6351(2) 0.69149(18) 0.30830(12)
H11 H 0.6241 0.7219 0.2545
C23 C 0.7300(2) 0.59772(17) 0.32690(11)
H12 H 0.7853 0.5640 0.2861
C24 C 0.7453(2) 0.55174(16) 0.40641(11)
N4 N 0.83945(17) 0.45418(14) 0.41956(9)
O1 O 0.66165(17) 0.26434(14) 0.83762(9)
H13 H 0.6930 0.3042 0.7908
H14 H 0.7372 0.1969 0.8498
O1 O 0.33835(17) 0.76434(14) 0.66238(9)
H13 H 0.3070 0.8042 0.7092
H14 H 0.2628 0.6969 0.6502
O1 O 0.33835(17) 0.73566(14) 0.16238(9)
H13 H 0.3070 0.6958 0.2092
H14 H 0.2628 0.8031 0.1502
O1 O 0.66165(17) 0.23566(14) 0.33762(9)
H13 H 0.6930 0.1958 0.2908
H14 H 0.7372 0.3031 0.3498

#END
