./KAFMOU_from_POSCAR.cif_generated_by_CrystalShift
_symmetry_cell_setting triclinic
_symmetry_space_group_name_H-M 'P 1'
loop_
_symmetry_equiv_pos_site_id
_symmetry_equiv_pos_as_xyz
1 x,y,z
_cell_length_a 8.857000
_cell_length_b 8.856000
_cell_length_c 22.924000
_cell_angle_alpha 89.427000
_cell_angle_beta 89.415000
_cell_angle_gamma 62.973000
_cell_volume 1601.624467
loop_
_atom_site_label
_atom_site_type_symbol
_atom_site_fract_x
_atom_site_fract_y
_atom_site_fract_z
H1 H 1.280300 0.446300 0.929700
H2 H 0.793300 0.306600 0.757100
H3 H 0.674500 0.584700 0.715200
H4 H 0.619200 0.885800 0.530800
H5 H 0.649300 1.145600 0.528000
H6 H 0.711000 1.254000 0.614100
H7 H 0.756600 1.101000 0.701500
H8 H 0.724600 0.843200 0.704500
H9 H 0.520400 0.508700 0.551100
H10 H 0.243600 0.542800 0.536200
H11 H 0.026500 0.768200 0.585000
H12 H 0.087300 0.947800 0.647900
H13 H 0.371700 0.904900 0.662200
H14 H 0.101100 0.590300 0.230200
H15 H 0.206700 0.693400 0.242900
H16 H 0.325500 0.415300 0.284800
H17 H 0.380800 0.114200 0.469200
H18 H 0.350700 -0.145600 0.472000
H19 H 0.289000 -0.254000 0.385900
H20 H 0.243400 -0.101000 0.298500
H21 H 0.275400 0.156800 0.295500
H22 H 0.391700 0.122800 0.029700
H23 H 0.660600 0.136600 0.028900
H24 H 0.766400 0.197300 0.116000
H25 H 0.608600 0.257500 0.200200
H26 H 0.351600 0.231100 0.203800
H27 H 0.011100 0.046700 0.049600
H28 H 0.032000 -0.234000 0.037500
H29 H 0.241000 -0.457200 0.085000
H30 H 0.429300 -0.409400 0.149700
H31 H 0.400900 -0.123000 0.160700
H32 H 0.096300 0.195900 0.213900
H33 H -0.143300 0.548100 0.025400
H34 H -0.175000 0.657600 0.082000
H35 H -0.280300 0.553700 0.070300
H36 H -0.178400 0.330900 0.257600
H37 H -0.074400 0.434600 0.271600
H38 H -0.336800 0.555700 0.323900
H39 H -0.429900 0.583000 0.264400
H40 H -0.325800 0.686800 0.278300
H41 H 0.479600 0.491300 0.448900
H42 H 0.756400 0.457200 0.463800
H43 H 0.973500 0.231800 0.415000
H44 H 0.912700 0.052200 0.352100
H45 H 0.628300 0.095100 0.337800
H46 H 1.325800 0.313200 0.721700
H47 H 1.429900 0.417000 0.735600
H48 H 1.336800 0.444300 0.676100
H49 H 1.074400 0.565400 0.728400
H50 H 1.178400 0.669100 0.742400
H51 H 0.898900 0.409700 0.769800
H52 H 1.175000 0.342400 0.918000
H53 H 1.143300 0.451900 0.974600
H54 H 0.903700 0.804100 0.786100
H55 H 0.599100 1.123000 0.839300
H56 H 0.570700 1.409400 0.850300
H57 H 0.759000 1.457200 0.915000
H58 H 0.968000 1.234000 0.962500
H59 H 0.988900 0.953300 0.950400
H60 H 0.648400 0.768900 0.796200
H61 H 0.391400 0.742500 0.799800
H62 H 0.608300 0.877200 0.970300
H63 H 0.339400 0.863400 0.971100
H64 H 0.233600 0.802700 0.884000
C65 C 0.414100 0.841100 0.935100
C66 C 0.352600 0.805200 0.885300
C67 C 0.752000 1.342900 0.909100
C68 C 1.356400 0.426300 0.718300
C69 C 0.879300 1.212700 0.937600
C70 C 0.646800 1.313900 0.872900
C71 C 0.569100 0.851200 0.933400
C72 C 0.441700 0.776400 0.835000
C73 C 1.200300 0.557600 0.747200
C74 C 1.197300 0.447700 0.935300
C75 C 0.902800 1.048100 0.929200
C76 C 0.592900 0.786100 0.832400
C77 C 0.669600 1.151000 0.864700
C78 C 1.068700 0.626300 0.840200
C79 C 0.928900 0.767000 0.826000
C80 C 1.064000 0.596400 0.902700
C81 C 0.199900 -0.013300 0.107300
C82 C 0.341100 0.177600 0.118100
C83 C 0.512800 0.298500 0.392200
C84 C 0.333400 0.328100 0.380800
C85 C 0.268300 0.429500 0.324900
C86 C 0.546600 0.400800 0.428900
C87 C 0.097300 0.564800 0.402900
C88 C 0.324600 0.158600 0.382000
C89 C 0.286500 0.094300 0.333100
C90 C 0.126700 0.568700 0.340200
C91 C 0.646400 0.170500 0.364200
C92 C 0.058000 0.700300 0.247800
C93 C 0.712000 0.380400 0.437200
C94 C -0.055200 0.701100 0.435600
C95 C 0.351000 0.069400 0.433200
C96 C -0.081800 0.856300 0.218400
C97 C 0.813500 0.145300 0.371900
C98 C 0.276700 -0.058000 0.336200
C99 C 0.303800 -0.146500 0.386300
C100 C 0.845100 0.250900 0.408100
C101 C 0.340400 -0.082700 0.435400
C102 C 0.827600 0.832100 0.881000
C103 C 0.658900 0.822400 0.881900
C104 C 0.800100 1.013300 0.892700
C105 C 0.172400 0.167900 0.119000
C106 C -0.064000 0.403600 0.097300
C107 C 0.585900 0.158900 0.064900
C108 C 0.647400 0.194800 0.114700
C109 C 0.248000 -0.342900 0.090900
C110 C -0.356400 0.573700 0.281700
C111 C 0.120700 -0.212700 0.062400
C112 C 0.353200 -0.313900 0.127100
C113 C 0.430900 0.148800 0.066600
C114 C 0.558300 0.223600 0.165000
C115 C 0.071100 0.233000 0.174000
C116 C -0.068700 0.373700 0.159800
C117 C 0.487200 0.701500 0.607800
C118 C 0.666600 0.671900 0.619200
C119 C 0.731700 0.570500 0.675100
C120 C 0.453400 0.599200 0.571100
C121 C 0.902700 0.435200 0.597100
C122 C 0.675400 0.841400 0.618000
C123 C 0.713500 0.905700 0.666900
C124 C 0.873300 0.431300 0.659800
C125 C 0.353600 0.829500 0.635800
C126 C 0.942000 0.299700 0.752200
C127 C 0.288000 0.619600 0.562800
C128 C 1.055200 0.298900 0.564400
C129 C 0.649000 0.930600 0.566800
C130 C 1.081800 0.143700 0.781600
C131 C 0.186500 0.854700 0.628100
C132 C 0.723300 1.058000 0.663800
C133 C 0.696200 1.146500 0.613700
C134 C 0.154900 0.749100 0.591900
C135 C 0.659600 1.082700 0.564600
C136 C -0.200300 0.442400 0.252800
C137 C -0.197300 0.552300 0.064700
C138 C 0.097200 -0.048100 0.070800
C139 C 0.407100 0.213900 0.167600
C140 C 0.330400 -0.151000 0.135300
N141 N 0.066800 0.286900 0.072300
N142 N 0.213200 0.433000 0.427500
N143 N 0.933200 0.713100 0.927700
N144 N 0.786800 0.567000 0.572500
O145 O 0.016100 0.703600 0.308280
O146 O 1.203300 0.516600 0.808400
O147 O -0.203300 0.483400 0.191600
O148 O 0.983900 0.296400 0.691720

#END
