./KAFQOX_from_POSCAR.cif_generated_by_CrystalShift
_symmetry_cell_setting triclinic
_symmetry_space_group_name_H-M 'P 1'
loop_
_symmetry_equiv_pos_site_id
_symmetry_equiv_pos_as_xyz
1 x,y,z
_cell_length_a 17.922000
_cell_length_b 3.933000
_cell_length_c 34.624000
_cell_angle_alpha 90.000000
_cell_angle_beta 92.580000
_cell_angle_gamma 90.000000
_cell_volume 2438.075834
loop_
_atom_site_label
_atom_site_type_symbol
_atom_site_fract_x
_atom_site_fract_y
_atom_site_fract_z
C1 C 0.752400 0.060300 0.630700
C2 C 0.156000 0.590200 0.042200
C3 C 0.582600 0.573500 0.534500
C4 C 0.656000 0.409800 0.542200
C5 C 0.705400 0.347800 0.514200
C6 C 0.498500 -0.060500 0.672400
C7 C 0.476800 -0.045600 0.634500
C8 C 0.409400 0.111500 0.623700
C9 C 0.365000 0.252000 0.650500
C10 C 0.387100 0.235100 0.689400
C11 C 0.344700 0.381100 0.721300
C12 C 0.568900 -0.220700 0.687100
C13 C 0.205400 0.652200 0.014200
C14 C 0.272700 0.814900 0.023900
C15 C 0.772700 0.185100 0.523900
C16 C 0.790100 0.089000 0.561700
C17 C 0.739700 0.153600 0.589500
C18 C 0.001500 -0.060500 0.827600
C19 C 0.023200 -0.045600 0.865500
C20 C 0.090600 0.111500 0.876300
C21 C 0.135000 0.252000 0.849500
C22 C 0.112900 0.235100 0.810600
C23 C 0.155300 0.381100 0.778700
C24 C -0.068900 -0.220700 0.812900
C25 C 0.290100 0.911000 0.061700
C26 C 0.239700 0.846400 0.089500
C27 C 0.252400 0.939700 0.130700
C28 C 1.065600 0.496100 0.309000
C29 C 0.747600 0.060300 0.869300
C30 C 0.501500 1.060500 0.327600
C31 C 0.523200 1.045600 0.365500
C32 C 0.590600 0.888500 0.376300
C33 C 0.635000 0.748000 0.349500
C34 C 0.612900 0.764900 0.310600
C35 C 0.655300 0.618900 0.278700
C36 C 0.431100 1.220700 0.312900
C37 C 0.997200 0.510800 0.442700
C38 C 0.975000 0.607300 0.402800
C39 C 0.917400 0.573500 0.965500
C40 C 0.844000 0.409800 0.957800
C41 C 0.794600 0.347800 0.985800
C42 C 0.998500 1.060500 0.172400
C43 C 0.976800 1.045600 0.134500
C44 C 0.909400 0.888500 0.123700
C45 C 0.865000 0.748000 0.150500
C46 C 0.887100 0.764900 0.189400
C47 C 0.844700 0.618900 0.221300
C48 C 1.068900 1.220700 0.187100
C49 C 0.910700 0.783900 0.391900
C50 C 0.896900 0.863800 0.353900
C51 C 0.727300 0.185100 0.976100
C52 C 0.709900 0.089000 0.938300
C53 C 0.760300 0.153600 0.910500
C54 C 0.509100 0.401700 0.836400
C55 C 0.445200 0.224500 0.826200
C56 C 0.396900 0.136200 0.853900
C57 C 0.410700 0.216100 0.891900
C58 C 0.475000 0.392700 0.902800
C59 C 0.497200 0.489200 0.942700
C60 C 0.565600 0.503900 0.809000
C61 C 0.945200 0.775500 0.326200
C62 C 1.009100 0.598300 0.336400
C63 C 0.260300 0.846400 0.410500
C64 C 0.209900 0.911000 0.438300
C65 C 0.247600 0.939700 0.369300
C66 C -0.009100 0.401700 0.663600
C67 C 0.054800 0.224500 0.673800
C68 C 0.103100 0.136200 0.646100
C69 C 0.089300 0.216100 0.608100
C70 C 0.025000 0.392700 0.597200
C71 C 0.002800 0.489200 0.557300
C72 C -0.065600 0.503900 0.691000
C73 C 0.227300 0.814900 0.476100
C74 C 0.434400 0.496100 0.191000
C75 C 0.417400 0.426500 0.465500
C76 C 0.344000 0.590200 0.457800
C77 C 0.294600 0.652200 0.485800
C78 C 0.490900 0.598300 0.163600
C79 C 0.554800 0.775500 0.173800
C80 C 0.603100 0.863800 0.146100
C81 C 0.589300 0.783900 0.108100
C82 C 0.525000 0.607300 0.097200
C83 C 0.502800 0.510800 0.057300
C84 C 0.082600 0.426500 0.034500
N85 N 1.023200 0.518300 0.374800
N86 N 0.829200 1.059400 0.342400
N87 N 0.476800 0.518300 0.125200
N88 N 0.826600 0.314000 0.920600
N89 N 0.676700 0.112700 1.006300
N90 N 0.170800 -0.059400 0.657600
N91 N -0.023200 0.481700 0.625200
N92 N 0.329200 -0.059400 0.842400
N93 N 0.523200 0.481700 0.874800
N94 N 0.886900 0.871900 0.083000
N95 N 0.954100 0.921000 0.199500
N96 N 0.673400 0.314000 0.579400
N97 N 0.173400 0.686000 0.079400
N98 N 0.323300 0.887300 -0.006300
N99 N 0.176700 0.887300 0.506300
N100 N 0.326600 0.686000 0.420600
N101 N 0.823300 0.112700 0.493700
N102 N 0.613100 0.871900 0.417000
N103 N 0.545900 0.921000 0.300500
N104 N 0.113100 0.128100 0.917000
N105 N 0.045900 0.079000 0.800500
N106 N 0.386900 0.128100 0.583000
N107 N 0.670800 1.059400 0.157600
N108 N 0.454100 0.079000 0.699500
O109 O 0.311200 0.772100 -0.037800
O110 O 0.126400 0.631400 0.105600
O111 O 0.373600 0.631400 0.394400
O112 O 0.188800 0.772100 0.537800
O113 O 0.121200 1.059900 0.497300
O114 O 0.789300 1.156900 0.367800
O115 O 0.816700 1.119000 0.308500
O116 O 1.082900 0.349400 0.384500
O117 O 0.710700 1.156900 0.132200
O118 O 0.683300 1.119000 0.191500
O119 O 0.417100 0.349400 0.115500
O120 O 0.210700 -0.156900 0.632200
O121 O 0.183300 -0.119000 0.691500
O122 O -0.082900 0.650600 0.615500
O123 O 0.873600 0.368600 0.894400
O124 O 0.688800 0.227900 1.037800
O125 O 0.621200 -0.059900 0.997300
O126 O 0.289300 -0.156900 0.867800
O127 O 0.316700 -0.119000 0.808500
O128 O 0.582900 0.650600 0.884500
O129 O 0.924700 1.017600 0.059200
O130 O 0.831000 0.713600 0.073900
O131 O 0.975100 0.935100 0.235300
O132 O 0.575300 1.017600 0.440800
O133 O 0.669000 0.713600 0.426100
O134 O 0.524900 0.935100 0.264700
O135 O 0.626400 0.368600 0.605600
O136 O 0.811200 0.227900 0.462200
O137 O 0.878800 -0.059900 0.502700
O138 O 0.075300 -0.017600 0.940800
O139 O 0.169000 0.286400 0.926100
O140 O 0.024900 0.064900 0.764700
O141 O 0.424700 -0.017600 0.559200
O142 O 0.331000 0.286400 0.573900
O143 O 0.475100 0.064900 0.735300
O144 O 0.378800 1.059900 0.002700

#END
