
#######################################################################
#
#                 Cambridge Crystallographic Data Centre
#                                CCDC 
#
#######################################################################
#
# If this CIF has been generated from an entry in the Cambridge 
# Structural Database, then it will include bibliographic, chemical, 
# crystal, experimental, refinement or atomic coordinate data resulting 
# from the CCDC's data processing and validation procedures.
#
#######################################################################

data_KAFSES
_symmetry_cell_setting           triclinic
_symmetry_space_group_name_H-M   'P -1'
_symmetry_Int_Tables_number      2
_space_group_name_Hall           '-P 1'
loop_
_symmetry_equiv_pos_site_id
_symmetry_equiv_pos_as_xyz
1 x,y,z
2 -x,-y,-z
_cell_length_a                   11.104(3)
_cell_length_b                   11.535(3)
_cell_length_c                   13.956(4)
_cell_angle_alpha                95.274(3)
_cell_angle_beta                 100.098(3)
_cell_angle_gamma                113.620(3)
_cell_volume                     1586.15
loop_
_atom_site_label
_atom_site_type_symbol
_atom_site_fract_x
_atom_site_fract_y
_atom_site_fract_z
O1 O 1.2065(2) 0.7522(2) 0.44367(16)
Pt1 Pt 0.77935(2) 0.76538(2) 0.89628(2)
N1 N 0.8204(2) 0.9331(2) 0.98530(16)
N2 N 0.7267(2) 0.8044(2) 0.75608(16)
N3 N 0.7862(2) 0.7877(2) 0.68713(16)
N4 N 0.8069(2) 0.6028(2) 0.73631(15)
N5 N 0.7489(2) 0.6028(2) 0.81011(16)
F1 F 0.9747(3) 0.9092(2) 1.28033(14)
F2 F 0.9493(3) 0.5089(2) 1.15271(16)
C1 C 0.8448(3) 0.7052(3) 0.69144(18)
C2 C 0.8476(3) 0.7282(3) 1.02675(19)
C3 C 0.8821(3) 0.8275(3) 1.1080(2)
C4 C 0.9388(4) 0.8140(3) 1.2011(2)
C5 C 0.9622(5) 0.7089(4) 1.2188(3)
H1 H 1.0005 0.7018 1.2832
C6 C 0.9272(4) 0.6143(3) 1.1380(2)
C7 C 0.8727(3) 0.6212(3) 1.0434(2)
H2 H 0.8522 0.5540 0.9899
C8 C 0.8643(3) 0.9409(3) 1.08444(19)
C9 C 0.8901(3) 1.0511(3) 1.1506(2)
H3 H 0.9174 1.0550 1.2197
C10 C 0.8760(3) 1.1542(3) 1.1159(2)
H4 H 0.8938 1.2293 1.1607
C11 C 0.8360(3) 1.1470(3) 1.0153(2)
H5 H 0.8270 1.2174 0.9897
C12 C 0.8093(3) 1.0353(3) 0.9528(2)
H6 H 0.7817 1.0304 0.8836
C13 C 0.6354(3) 0.8601(3) 0.72690(19)
C14 C 0.5229(3) 0.8281(3) 0.7678(2)
H7 H 0.5087 0.7707 0.8136
C15 C 0.4317(3) 0.8803(3) 0.7414(2)
H8 H 0.3544 0.8568 0.7687
C16 C 0.4510(3) 0.9661(3) 0.6758(2)
C17 C 0.5644(3) 0.9971(3) 0.6355(2)
H9 H 0.5796 1.0560 0.5908
C18 C 0.6551(3) 0.9437(3) 0.6595(2)
H10 H 0.7304 0.9642 0.6301
C19 C 0.3555(4) 1.0278(4) 0.6510(3)
H11 H 0.3943 1.1147 0.6904
H12 H 0.2688 0.9761 0.6661
H13 H 0.3412 1.0328 0.5805
C20 C 0.9365(3) 0.7130(3) 0.62524(18)
C21 C 0.9540(3) 0.7957(3) 0.5559(2)
H14 H 0.9038 0.8458 0.5497
C22 C 1.0437(3) 0.8050(3) 0.4966(2)
H15 H 1.0541 0.8610 0.4497
C23 C 1.1188(3) 0.7333(3) 0.50493(19)
C24 C 1.1038(3) 0.6513(3) 0.5730(2)
H16 H 1.1547 0.6018 0.5790
C25 C 1.0130(3) 0.6422(3) 0.63266(19)
H17 H 1.0031 0.5863 0.6796
C26 C 1.2930(3) 0.6876(3) 0.4567(2)
H18 H 1.3452 0.7118 0.5254
H19 H 1.3550 0.7123 0.4124
H20 H 1.2382 0.5943 0.4410
C27 C 0.6790(3) 0.4797(2) 0.83318(18)
C28 C 0.5782(3) 0.4624(3) 0.8845(2)
H21 H 0.5514 0.5296 0.8977
C29 C 0.5170(3) 0.3471(3) 0.9164(2)
H22 H 0.4485 0.3364 0.9518
C30 C 0.5536(3) 0.2473(3) 0.8979(2)
C31 C 0.6507(3) 0.2638(3) 0.84216(19)
H23 H 0.6744 0.1949 0.8265
C32 C 0.7127(3) 0.3773(3) 0.80961(19)
H24 H 0.7778 0.3864 0.7714
C33 C 0.4916(3) 0.1250(3) 0.9378(3)
H25 H 0.4914 0.1463 1.0073
H26 H 0.5446 0.0752 0.9325
H27 H 0.3986 0.0740 0.8994
O1 O -0.2065(2) 0.2478(2) 0.55633(16)
Pt1 Pt 0.22065(2) 0.23462(2) 0.10372(2)
N1 N 0.1796(2) 0.0669(2) 0.01470(16)
N2 N 0.2733(2) 0.1956(2) 0.24392(16)
N3 N 0.2138(2) 0.2123(2) 0.31287(16)
N4 N 0.1931(2) 0.3972(2) 0.26369(15)
N5 N 0.2511(2) 0.3972(2) 0.18989(16)
F1 F 0.0253(3) 0.0908(2) -0.28033(14)
F2 F 0.0507(3) 0.4911(2) -0.15271(16)
C1 C 0.1552(3) 0.2948(3) 0.30856(18)
C2 C 0.1524(3) 0.2718(3) -0.02675(19)
C3 C 0.1179(3) 0.1725(3) -0.1080(2)
C4 C 0.0612(4) 0.1860(3) -0.2011(2)
C5 C 0.0378(5) 0.2911(4) -0.2188(3)
H1 H -0.0005 0.2982 -0.2832
C6 C 0.0728(4) 0.3857(3) -0.1380(2)
C7 C 0.1273(3) 0.3788(3) -0.0434(2)
H2 H 0.1478 0.4460 0.0101
C8 C 0.1357(3) 0.0591(3) -0.08444(19)
C9 C 0.1099(3) -0.0511(3) -0.1506(2)
H3 H 0.0826 -0.0550 -0.2197
C10 C 0.1240(3) -0.1542(3) -0.1159(2)
H4 H 0.1062 -0.2293 -0.1607
C11 C 0.1640(3) -0.1470(3) -0.0153(2)
H5 H 0.1730 -0.2174 0.0103
C12 C 0.1907(3) -0.0353(3) 0.0472(2)
H6 H 0.2183 -0.0304 0.1164
C13 C 0.3646(3) 0.1399(3) 0.27310(19)
C14 C 0.4771(3) 0.1719(3) 0.2322(2)
H7 H 0.4913 0.2293 0.1864
C15 C 0.5683(3) 0.1197(3) 0.2586(2)
H8 H 0.6456 0.1432 0.2313
C16 C 0.5490(3) 0.0339(3) 0.3242(2)
C17 C 0.4356(3) 0.0029(3) 0.3645(2)
H9 H 0.4204 -0.0560 0.4092
C18 C 0.3449(3) 0.0563(3) 0.3405(2)
H10 H 0.2696 0.0358 0.3699
C19 C 0.6445(4) -0.0278(4) 0.3490(3)
H11 H 0.6057 -0.1147 0.3096
H12 H 0.7312 0.0239 0.3339
H13 H 0.6588 -0.0328 0.4195
C20 C 0.0635(3) 0.2870(3) 0.37476(18)
C21 C 0.0460(3) 0.2043(3) 0.4441(2)
H14 H 0.0962 0.1542 0.4503
C22 C -0.0437(3) 0.1950(3) 0.5034(2)
H15 H -0.0541 0.1390 0.5503
C23 C -0.1188(3) 0.2667(3) 0.49507(19)
C24 C -0.1038(3) 0.3487(3) 0.4270(2)
H16 H -0.1547 0.3982 0.4210
C25 C -0.0130(3) 0.3578(3) 0.36734(19)
H17 H -0.0031 0.4137 0.3204
C26 C -0.2930(3) 0.3124(3) 0.5433(2)
H18 H -0.3452 0.2882 0.4746
H19 H -0.3550 0.2877 0.5876
H20 H -0.2382 0.4057 0.5590
C27 C 0.3210(3) 0.5203(2) 0.16682(18)
C28 C 0.4218(3) 0.5376(3) 0.1155(2)
H21 H 0.4486 0.4704 0.1023
C29 C 0.4830(3) 0.6529(3) 0.0836(2)
H22 H 0.5515 0.6636 0.0482
C30 C 0.4464(3) 0.7527(3) 0.1021(2)
C31 C 0.3493(3) 0.7362(3) 0.15784(19)
H23 H 0.3256 0.8051 0.1735
C32 C 0.2873(3) 0.6227(3) 0.19039(19)
H24 H 0.2222 0.6136 0.2286
C33 C 0.5084(3) 0.8750(3) 0.0622(3)
H25 H 0.5086 0.8537 -0.0073
H26 H 0.4554 0.9248 0.0675
H27 H 0.6014 0.9260 0.1006

#END
