./KAFVUI_from_POSCAR.cif_generated_by_CrystalShift
_symmetry_cell_setting triclinic
_symmetry_space_group_name_H-M 'P 1'
loop_
_symmetry_equiv_pos_site_id
_symmetry_equiv_pos_as_xyz
1 x,y,z
_cell_length_a 4.667000
_cell_length_b 16.663000
_cell_length_c 18.498000
_cell_angle_alpha 90.000000
_cell_angle_beta 90.000000
_cell_angle_gamma 90.000000
_cell_volume 1438.519556
loop_
_atom_site_label
_atom_site_type_symbol
_atom_site_fract_x
_atom_site_fract_y
_atom_site_fract_z
H1 H 0.888000 0.601000 0.936000
H2 H 1.508000 0.418000 0.911000
H3 H 1.446000 0.431000 0.780000
H4 H 1.164000 0.479000 0.670000
H5 H 0.907000 0.527000 0.571000
H6 H 0.565000 0.611000 0.518000
H7 H 0.194000 0.719000 0.528000
H8 H -0.044000 0.822000 0.598000
H9 H 0.078000 0.846000 0.725000
H10 H 0.265000 0.867000 0.819000
H11 H 0.456000 0.904000 0.934000
H12 H 0.866000 0.829000 0.981000
H13 H 1.020000 0.715000 0.920000
H14 H 0.612000 0.399000 0.436000
H15 H 0.315000 0.494000 0.490000
H16 H -0.008000 0.582000 0.411000
H17 H 0.054000 0.569000 0.280000
H18 H 0.336000 0.521000 0.170000
H19 H 0.593000 0.473000 0.071000
H20 H 0.935000 0.389000 0.018000
H21 H 1.306000 0.281000 0.028000
H22 H 1.544000 0.178000 0.098000
H23 H 1.422000 0.154000 0.225000
H24 H 1.235000 0.133000 0.319000
H25 H -0.020000 0.215000 0.580000
H26 H 0.134000 0.329000 0.519000
H27 H 0.544000 0.404000 0.566000
H28 H 0.735000 0.367000 0.681000
H29 H 0.922000 0.346000 0.775000
H30 H 1.044000 0.322000 0.902000
H31 H 0.806000 0.219000 0.972000
H32 H 0.435000 0.111000 0.982000
H33 H 0.093000 0.027000 0.929000
H34 H -0.164000 -0.021000 0.830000
H35 H -0.446000 -0.069000 0.720000
H36 H -0.508000 -0.082000 0.589000
H37 H -0.185000 0.006000 0.510000
H38 H 0.112000 0.101000 0.564000
H39 H 1.044000 0.096000 0.434000
H40 H 0.634000 0.171000 0.481000
H41 H 0.480000 0.285000 0.420000
H42 H 0.388000 0.899000 0.064000
H43 H 0.685000 0.994000 0.010000
H44 H 1.008000 1.082000 0.089000
H45 H 0.946000 1.069000 0.220000
H46 H 0.664000 1.021000 0.330000
H47 H 0.407000 0.973000 0.429000
H48 H 0.065000 0.889000 0.482000
H49 H -0.306000 0.781000 0.472000
H50 H -0.544000 0.678000 0.402000
H51 H -0.422000 0.654000 0.275000
H52 H -0.235000 0.633000 0.181000
H53 H -0.044000 0.596000 0.066000
H54 H 0.366000 0.671000 0.019000
H55 H 0.520000 0.785000 0.080000
H56 H 1.185000 0.506000 0.990000
C57 C -0.034600 0.820800 0.387000
C58 C 0.244600 0.863500 0.279500
C59 C 0.373300 0.924600 0.323100
C60 C 0.632700 0.974200 0.217900
C61 C 0.488700 0.916700 0.173100
C62 C 0.319100 0.855400 0.205400
C63 C -0.093900 0.749100 0.272100
C64 C 0.008400 0.733100 0.198800
C65 C 0.221300 0.782900 0.167800
C66 C 0.517500 0.928000 0.097400
C67 C 0.698200 0.985100 0.068900
C68 C 0.863700 1.035100 0.113600
C69 C 0.822500 1.030500 0.186400
C70 C 0.574800 0.975700 0.292100
C71 C 0.297300 0.931100 0.398500
C72 C 0.104700 0.881500 0.427900
C73 C -0.241400 0.771400 0.417700
C74 C -0.381700 0.713400 0.376300
C75 C -0.305600 0.702100 0.304000
C76 C -0.081800 0.665000 0.160000
C77 C 0.649400 0.255900 0.397300
C78 C 0.741200 0.189100 0.433700
C79 C 0.966600 0.144200 0.405600
C80 C 1.081800 0.165000 0.340000
C81 C 1.305600 0.202100 0.196000
C82 C 1.381700 0.213400 0.123700
C83 C 1.241400 0.271400 0.082300
C84 C 0.895300 0.381500 0.072100
C85 C 0.702700 0.431100 0.101500
C86 C 0.425200 0.475700 0.207900
C87 C 0.177500 0.530500 0.313600
C88 C 0.136300 0.535100 0.386400
C89 C 0.301800 0.485100 0.431100
C90 C 0.482500 0.428000 0.402600
C91 C 0.778700 0.282900 0.332200
C92 C 0.991600 0.233100 0.301200
C93 C 1.093900 0.249100 0.227900
C94 C 0.960600 0.310000 0.188100
C95 C 1.034600 0.320800 0.113000
C96 C 0.755400 0.363500 0.220500
C97 C 0.626700 0.424600 0.176900
C98 C 0.367300 0.474200 0.282100
C99 C 0.511300 0.416700 0.326900
C100 C 0.680900 0.355400 0.294600
C101 C 0.033400 0.644200 0.094400
C102 C 0.258800 0.689100 0.066300
C103 C 0.350600 0.755900 0.102700
C104 C 0.180900 0.144600 0.705400
C105 C 0.011300 0.083300 0.673100
C106 C -0.132700 0.025800 0.717900
C107 C 0.126700 0.075400 0.823100
C108 C 0.255400 0.136500 0.779500
C109 C 0.534600 0.179200 0.887000
C110 C 0.460600 0.190000 0.811900
C111 C 0.593900 0.250900 0.772100
C112 C 0.491600 0.266900 0.698800
C113 C 0.278700 0.217100 0.667800
C114 C -0.017500 0.072000 0.597400
C115 C 0.850600 0.744100 0.897300
C116 C 0.758800 0.810900 0.933700
C117 C 0.533400 0.855800 0.905600
C118 C 0.418200 0.835000 0.840000
C119 C 0.194400 0.797900 0.696000
C120 C 0.118300 0.786600 0.623700
C121 C 0.258600 0.728600 0.582300
C122 C 0.604700 0.618500 0.572100
C123 C 0.797300 0.568900 0.601500
C124 C 1.074800 0.524300 0.707900
C125 C 1.322500 0.469500 0.813600
C126 C 1.363700 0.464900 0.886400
C127 C 1.198200 0.514900 0.931100
C128 C 1.017500 0.572000 0.902600
C129 C 0.721300 0.717100 0.832200
C130 C 0.508400 0.766900 0.801200
C131 C 0.406100 0.750900 0.727900
C132 C 0.539400 0.690000 0.688100
C133 C 0.465400 0.679200 0.613000
C134 C 0.744600 0.636500 0.720500
C135 C 0.873300 0.575400 0.676900
C136 C 1.132700 0.525800 0.782100
C137 C 0.988700 0.583300 0.826900
C138 C 0.819100 0.644600 0.794600
C139 C -0.198200 0.014900 0.568900
C140 C -0.363700 -0.035100 0.613600
C141 C -0.322500 -0.030500 0.686400
C142 C -0.074800 0.024300 0.792100
C143 C 0.202700 0.068900 0.898500
C144 C 0.395300 0.118500 0.927900
C145 C 0.741400 0.228600 0.917700
C146 C 0.881700 0.286600 0.876300
C147 C 0.805600 0.297900 0.804000
C148 C 0.581800 0.335000 0.660000
C149 C 0.466600 0.355800 0.594400
C150 C 0.241200 0.310900 0.566300
C151 C 0.039400 0.810000 0.311900
C152 C 0.149400 0.244100 0.602700

#END
