./KAFYEV_from_POSCAR.cif_generated_by_CrystalShift
_symmetry_cell_setting triclinic
_symmetry_space_group_name_H-M 'P 1'
loop_
_symmetry_equiv_pos_site_id
_symmetry_equiv_pos_as_xyz
1 x,y,z
_cell_length_a 9.593000
_cell_length_b 7.815000
_cell_length_c 11.342000
_cell_angle_alpha 90.000000
_cell_angle_beta 99.470000
_cell_angle_gamma 90.000000
_cell_volume 838.713734
loop_
_atom_site_label
_atom_site_type_symbol
_atom_site_fract_x
_atom_site_fract_y
_atom_site_fract_z
H1 H 0.368500 0.418200 0.617100
H2 H 0.343600 0.782800 0.358600
H3 H 0.304200 0.381600 0.152100
H4 H 0.756200 0.541100 -0.246800
H5 H 1.089200 0.457900 0.013900
H6 H 1.045600 0.468100 0.196800
H7 H 0.974800 0.370000 0.371700
H8 H 0.842500 0.320200 0.434100
H9 H 0.944500 0.584800 0.509000
H10 H 0.782300 0.609200 0.449700
H11 H 0.913400 0.830400 0.382900
H12 H 1.020600 0.696300 0.339500
H13 H 0.867200 0.787500 0.171100
H14 H 0.755000 0.524300 0.096200
H15 H 0.530800 0.462000 0.105900
H16 H 0.463400 0.181200 0.056000
H17 H 0.515400 0.117800 0.190400
H18 H 0.688900 0.045000 0.075600
H19 H 0.696900 0.239000 0.031200
H20 H 0.784000 0.122700 0.272200
H21 H 0.888400 0.188700 0.185600
H22 H 0.381800 0.970400 0.659900
H23 H 0.349900 1.170900 0.729800
H24 H 0.111600 0.688700 0.814400
H25 H 0.216000 0.622700 0.727800
H26 H 0.303100 0.739000 0.968800
H27 H 0.311100 0.545000 0.924400
H28 H 0.484600 0.617800 0.809600
H29 H 0.536600 0.681200 0.944000
H30 H 0.469200 0.962000 0.894100
H31 H 0.245000 1.024300 0.903800
H32 H 0.132800 1.287500 0.828900
H33 H -0.020600 1.196300 0.660500
H34 H 0.086600 1.330400 0.617100
H35 H 0.217700 1.109200 0.550300
H36 H 0.055500 1.084800 0.491000
H37 H 0.157500 0.820200 0.565900
H38 H 0.025200 0.870000 0.628300
H39 H -0.045600 0.968100 0.803200
H40 H -0.089200 0.957900 0.986100
H41 H 0.243800 1.041100 1.246800
H42 H 0.695800 0.881600 0.847900
H43 H 0.623000 0.847600 0.712700
H44 H 0.645900 1.179200 0.820000
H45 H 0.656400 1.282800 0.641400
H46 H 0.631500 0.918200 0.382900
H47 H 0.650100 0.670900 0.270200
H48 H 0.354100 0.679200 0.180000
H49 H 0.618200 0.470400 0.340100
H50 H 0.377000 0.347600 0.287300
C51 C 0.681300 0.166100 0.099200
C52 C 0.534800 0.199600 0.128400
C53 C 0.523000 0.382300 0.173500
C54 C 0.827400 0.525300 0.170500
C55 C 0.827500 0.706500 0.225300
C56 C 0.920800 0.715000 0.348400
C57 C 0.877700 0.581800 0.432600
C58 C 0.876800 0.402400 0.378900
C59 C 0.968300 0.488100 0.134400
C60 C 0.994500 0.480800 0.023600
C61 C 0.894300 0.503900 -0.082400
C62 C 0.818000 0.524500 -0.173200
C63 C 0.382300 0.417700 0.215400
C64 C 0.362300 0.600000 0.244300
C65 C 0.354800 0.662600 0.351800
C66 C 0.362300 0.563500 0.457000
C67 C 0.365800 0.482900 0.545800
C68 C 0.784000 0.387900 0.256000
C69 C 0.216000 0.887900 0.744000
C70 C 0.634200 0.982900 0.454200
C71 C 0.637700 1.063500 0.543000
C72 C 0.645200 1.162600 0.648200
C73 C 0.637700 1.100000 0.755700
C74 C 0.617700 0.917700 0.784600
C75 C 0.182000 1.024500 1.173200
C76 C 0.105700 1.003900 1.082400
C77 C 0.005500 0.980800 0.976400
C78 C 0.031700 0.988100 0.865600
C79 C 0.123200 0.902400 0.621100
C80 C 0.122300 1.081800 0.567400
C81 C 0.079200 1.215000 0.651600
C82 C 0.172500 1.206500 0.774700
C83 C 0.172600 1.025300 0.829500
C84 C 0.477000 0.882300 0.826500
C85 C 0.465200 0.699600 0.871600
C86 C 0.318700 0.666100 0.900800
C87 C 0.206200 0.705300 0.792200
C88 C 0.793800 0.205300 0.207800
N89 N 0.636700 0.425000 0.273300
N90 N 0.363300 0.925000 0.726700
O91 O 0.314200 1.259600 0.768500
O92 O 0.685800 0.759600 0.231500

#END
