./KAFYEW_from_POSCAR.cif_generated_by_CrystalShift
_symmetry_cell_setting triclinic
_symmetry_space_group_name_H-M 'P 1'
loop_
_symmetry_equiv_pos_site_id
_symmetry_equiv_pos_as_xyz
1 x,y,z
_cell_length_a 10.774500
_cell_length_b 8.174500
_cell_length_c 10.662500
_cell_angle_alpha 90.000000
_cell_angle_beta 90.000000
_cell_angle_gamma 90.000000
_cell_volume 939.111952
loop_
_atom_site_label
_atom_site_type_symbol
_atom_site_fract_x
_atom_site_fract_y
_atom_site_fract_z
H1 H -0.090100 1.029700 0.986700
H2 H 0.367100 0.351800 0.869300
H3 H 0.740000 0.256000 0.597000
H4 H 0.231600 0.272800 0.858500
H5 H 0.788100 0.111800 0.768000
H6 H 0.260100 0.405700 0.964800
H7 H 0.877200 0.349000 0.783000
H8 H -0.001600 0.655200 0.500200
H9 H -0.062800 0.725800 0.625800
H10 H -0.062100 0.532900 0.600200
H11 H 0.437900 0.467100 0.600200
H12 H 0.437200 0.274200 0.625800
H13 H 0.498400 0.344800 0.500200
H14 H 0.377200 0.651000 0.783000
H15 H 0.760100 0.594300 0.964800
H16 H 0.731600 0.727200 0.858500
H17 H 0.867100 0.648200 0.869300
H18 H 0.288100 0.888200 0.768000
H19 H 0.240000 0.744000 0.597000
H20 H 0.476000 0.219000 1.089000
H21 H 1.090100 -0.029700 0.486700
H22 H 0.951900 -0.056700 0.298200
H23 H 1.024000 0.219000 0.589000
H24 H 0.548100 -0.056700 0.798200
H25 H 0.632900 0.648200 0.369300
H26 H 0.409900 -0.029700 0.986700
H27 H 0.768400 0.727200 0.358500
H28 H 0.739900 0.594300 0.464800
H29 H 0.260000 0.744000 0.097000
H30 H 1.001600 0.344800 0.000200
H31 H 0.211900 0.888200 0.268000
H32 H 1.062800 0.274200 0.125800
H33 H 0.122800 0.651000 0.283000
H34 H 1.062100 0.467100 0.100200
H35 H 0.622800 0.349000 0.283000
H36 H 0.711900 0.111800 0.268000
H37 H 0.562100 0.532900 0.100200
H38 H 0.562800 0.725800 0.125800
H39 H 0.501600 0.655200 0.000200
H40 H 0.760000 0.256000 0.097000
H41 H 0.239900 0.405700 0.464800
H42 H 0.268400 0.272800 0.358500
H43 H 0.132900 0.351800 0.369300
H44 H 0.048100 1.056700 0.798200
H45 H 0.590100 1.029700 0.486700
H46 H 0.524000 0.781000 0.589000
H47 H 0.451900 1.056700 0.298200
H48 H -0.024000 0.781000 1.089000
C49 C 0.450600 0.972400 0.359600
C50 C 0.127900 0.836800 0.864300
C51 C 0.525400 0.957300 0.462700
C52 C 0.731000 0.207900 0.774100
C53 C 0.278000 0.372600 0.878400
C54 C 0.635000 0.508600 0.725100
C55 C 0.222000 0.372600 0.378400
C56 C 0.769000 0.207900 0.274100
C57 C 0.515500 0.634900 0.089700
C58 C 0.484500 0.365100 0.589700
C59 C 0.365000 0.491400 0.225100
C60 C -0.015500 0.634900 0.589700
C61 C 0.865000 0.508600 0.225100
C62 C 1.015500 0.365100 0.089700
C63 C 0.135000 0.491400 0.725100
C64 C 0.778000 0.627400 0.878400
C65 C 0.269000 0.792100 0.274100
C66 C 0.722000 0.627400 0.378400
C67 C -0.025400 0.957300 0.962700
C68 C 0.231000 0.792100 0.774100
C69 C 0.474600 0.042700 0.962700
C70 C 0.049400 0.972400 0.859600
C71 C 1.025400 0.042700 0.462700
C72 C 0.549400 0.027600 0.859600
C73 C 0.372100 0.836800 0.364300
C74 C 0.872100 0.163200 0.364300
C75 C 0.950600 0.027600 0.359600
C76 C 0.627900 0.163200 0.864300
N77 N 0.990600 0.177800 0.523000
N78 N 0.604620 0.255800 0.964200
N79 N 0.103260 0.621300 0.653350
N80 N 0.177620 0.764400 0.649120
N81 N 0.509400 0.177800 1.023000
N82 N 0.396740 0.621300 0.153350
N83 N 0.322380 0.764400 0.149120
N84 N 0.303300 0.653600 0.819200
N85 N 0.196700 0.653600 0.319200
N86 N 0.241200 0.501900 0.793460
N87 N 0.258800 0.501900 0.293460
N88 N 0.758800 0.498100 0.293460
N89 N 0.696700 0.346400 0.319200
N90 N 0.822380 0.235600 0.149120
N91 N 0.741200 0.498100 0.793460
N92 N 0.896740 0.378700 0.153350
N93 N 0.803300 0.346400 0.819200
N94 N 0.490600 0.822200 0.523000
N95 N 0.677620 0.235600 0.649120
N96 N 0.395380 0.744200 0.464200
N97 N 0.009400 0.822200 1.023000
N98 N 0.895380 0.255800 0.464200
N99 N 0.104620 0.744200 0.964200
N100 N 0.603260 0.378700 0.653350
O101 O 0.429700 0.363800 0.227840
O102 O 0.570300 0.636200 0.727840
O103 O 0.929700 0.636200 0.227840
O104 O 0.070300 0.363800 0.727840

#END
