./KAFZID_from_POSCAR.cif_generated_by_CrystalShift
_symmetry_cell_setting triclinic
_symmetry_space_group_name_H-M 'P 1'
loop_
_symmetry_equiv_pos_site_id
_symmetry_equiv_pos_as_xyz
1 x,y,z
_cell_length_a 12.934000
_cell_length_b 9.380100
_cell_length_c 26.147000
_cell_angle_alpha 90.000000
_cell_angle_beta 97.186700
_cell_angle_gamma 90.000000
_cell_volume 3147.290281
loop_
_atom_site_label
_atom_site_type_symbol
_atom_site_fract_x
_atom_site_fract_y
_atom_site_fract_z
H1 H -0.403000 -0.096200 0.454300
H2 H -0.439600 -0.231500 0.524700
H3 H -0.253700 0.044500 0.459900
H4 H 0.209700 0.733600 0.710000
H5 H 0.190600 0.648300 0.761000
H6 H 0.131700 0.796000 0.747300
H7 H -0.036600 0.661300 0.755600
H8 H 0.026300 0.514700 0.765000
H9 H 0.335100 -0.216700 -0.012500
H10 H -0.067400 0.527000 0.719100
H11 H -0.090100 0.346500 -0.034900
H12 H -0.173900 -0.089500 0.606600
H13 H -0.323000 -0.230400 0.600400
H14 H 0.360200 0.789900 0.659000
H15 H 0.434600 0.404000 0.704600
H16 H 0.183400 0.033100 -0.124200
H17 H 0.479600 0.288400 0.746600
H18 H 0.382800 0.386200 0.756700
H19 H 0.253100 -0.100500 -0.186400
H20 H 0.368900 0.068500 0.761000
H21 H 0.258100 0.049100 0.727000
H22 H 0.274100 0.171200 0.770000
H23 H 0.059300 0.768500 0.640600
H24 H 0.362300 -0.294200 -0.162600
H25 H -0.015900 0.812900 0.682200
H26 H 0.028700 -0.032600 0.106700
H27 H -0.047600 0.684300 0.643100
H28 H 0.222400 0.698400 0.602200
H29 H 0.421800 0.203600 0.640700
H30 H 0.250500 0.289400 0.107200
H31 H 0.352500 0.066300 0.649100
H32 H 0.459800 0.092400 0.685500
H33 H 0.404300 -0.349900 -0.075200
H34 H 0.529500 0.706600 0.656500
H35 H 0.423900 0.064000 0.041400
H36 H 0.561100 0.528900 0.597800
H37 H 0.561100 -0.028900 0.097800
H38 H 0.423900 0.436000 0.541400
H39 H 0.404300 0.849900 0.424800
H40 H 0.529500 -0.206600 0.156500
H41 H 0.250500 0.210600 0.607200
H42 H 0.028700 0.532600 0.606700
H43 H 0.459800 0.407600 0.185500
H44 H 0.352500 0.433700 0.149100
H45 H 0.421800 0.296400 0.140700
H46 H 0.362300 0.794200 0.337400
H47 H 0.222400 -0.198400 0.102200
H48 H 0.253100 0.600500 0.313600
H49 H -0.047600 -0.184300 0.143100
H50 H -0.015900 -0.312900 0.182200
H51 H 0.059300 -0.268500 0.140600
H52 H 0.183400 0.466900 0.375800
H53 H 0.274100 0.328800 0.270000
H54 H 0.258100 0.450900 0.227000
H55 H 0.368900 0.431500 0.261000
H56 H -0.090100 0.153500 0.465100
H57 H 0.382800 0.113800 0.256700
H58 H 0.479600 0.211600 0.246600
H59 H 0.434600 0.096000 0.204600
H60 H 0.335100 0.716700 0.487500
H61 H 0.360200 -0.289900 0.159000
H62 H 1.403000 0.403800 1.045700
H63 H -0.323000 0.730400 0.100400
H64 H 1.439600 0.268500 0.975300
H65 H -0.173900 0.589500 0.106600
H66 H 1.253700 0.544500 1.040100
H67 H -0.067400 -0.027000 0.219100
H68 H 0.026300 -0.014700 0.265000
H69 H -0.036600 -0.161300 0.255600
H70 H 0.790300 1.233600 0.790000
H71 H 0.131700 -0.296000 0.247300
H72 H 0.190600 -0.148300 0.261000
H73 H 0.209700 -0.233600 0.210000
H74 H 0.809400 1.148300 0.739000
H75 H -0.253700 0.455500 -0.040100
H76 H 0.868300 1.296000 0.752700
H77 H -0.439600 0.731500 0.024700
H78 H 1.036600 1.161300 0.744400
H79 H -0.403000 0.596200 -0.045700
H80 H 0.973700 1.014700 0.735000
H81 H 1.067400 1.027000 0.780900
H82 H 1.173900 0.410500 0.893400
H83 H 1.323000 0.269600 0.899600
H84 H 0.639800 1.289900 0.841000
H85 H 0.565400 0.904000 0.795400
H86 H 0.520400 0.788400 0.753400
H87 H 0.617200 0.886200 0.743300
H88 H 0.664900 0.283300 0.512500
H89 H 0.631100 0.568500 0.739000
H90 H 1.090100 0.846500 0.534900
H91 H 0.741900 0.549100 0.773000
H92 H 0.725900 0.671200 0.730000
H93 H 0.940700 1.268500 0.859400
H94 H 1.015900 1.312900 0.817800
H95 H 0.816600 0.533100 0.624200
H96 H 1.047600 1.184300 0.856900
H97 H 0.777600 1.198400 0.897800
H98 H 0.746900 0.399500 0.686400
H99 H 0.578200 0.703600 0.859300
H100 H 0.647500 0.566300 0.850900
H101 H 0.540200 0.592400 0.814500
H102 H 0.470500 1.206600 0.843500
H103 H 0.637700 0.205800 0.662600
H104 H 0.438900 1.028900 0.902200
H105 H 0.971300 0.467400 0.393300
H106 H 0.576100 0.936000 0.958600
H107 H 0.595700 1.349900 1.075200
H108 H 0.749500 0.710600 0.892800
H109 H 0.749500 0.789400 0.392800
H110 H 0.971300 1.032600 0.893300
H111 H 0.637700 1.294200 1.162600
H112 H 0.595700 0.150100 0.575200
H113 H 0.746900 1.100500 1.186400
H114 H 0.576100 0.564000 0.458600
H115 H 0.816600 0.966900 1.124200
H116 H 0.438900 0.471100 0.402200
H117 H 1.090100 0.653500 1.034900
H118 H 0.664900 1.216700 1.012500
H119 H 0.470500 0.293400 0.343500
H120 H 1.403000 1.096200 0.545700
H121 H 1.439600 1.231500 0.475300
H122 H 0.540200 0.907600 0.314500
H123 H 0.647500 0.933700 0.350900
H124 H 0.578200 0.796400 0.359300
H125 H 1.253700 0.955500 0.540100
H126 H 0.777600 0.301600 0.397800
H127 H 0.790300 0.266400 0.290000
H128 H 1.047600 0.315700 0.356900
H129 H 1.015900 0.187100 0.317800
H130 H 0.940700 0.231500 0.359400
H131 H 0.809400 0.351700 0.239000
H132 H 0.725900 0.828800 0.230000
H133 H 0.741900 0.950900 0.273000
H134 H 0.631100 0.931500 0.239000
H135 H 0.868300 0.204000 0.252700
H136 H 0.617200 0.613800 0.243300
H137 H 0.520400 0.711600 0.253400
H138 H 0.565400 0.596000 0.295400
H139 H 1.036600 0.338700 0.244400
H140 H 0.639800 0.210100 0.341000
H141 H 0.973700 0.485300 0.235000
H142 H 1.323000 1.230400 0.399600
H143 H 1.067400 0.473000 0.280900
H144 H 1.173900 1.089500 0.393400
C145 C 1.009530 0.421780 0.261190
C146 C 1.220550 1.089690 0.424440
C147 C 1.309400 1.173710 0.428070
C148 C 0.626930 0.281800 0.365090
C149 C 0.841940 0.291260 0.267070
C150 C 0.583710 0.664270 0.269670
C151 C 0.692610 0.881480 0.255840
C152 C 0.989310 0.267170 0.336440
C153 C 1.267740 1.010310 0.511160
C154 C 0.708940 0.336490 0.398800
C155 C 1.378120 1.175280 0.472990
C156 C 0.601070 0.861190 0.333580
C157 C 1.356530 1.094300 0.514560
C158 C 1.198720 1.005610 0.465640
C159 C -0.378120 -0.175280 0.527010
C160 C -0.267740 -0.010310 0.488840
C161 C 0.201010 0.003210 -0.023250
C162 C 0.798990 0.996790 1.023250
C163 C 0.965100 0.750480 0.926310
C164 C 0.034900 0.249520 0.073690
C165 C 0.878330 0.851660 0.903890
C166 C 0.682370 1.193000 1.047860
C167 C 0.526470 0.331440 0.366440
C168 C 1.066980 0.663950 0.999160
C169 C 0.932640 0.372220 0.297740
C170 C 0.755100 0.798300 0.824670
C171 C 0.984640 0.754960 0.978950
C172 C 1.109400 0.592730 0.961070
C173 C 0.772110 1.045110 1.114000
C174 C 0.507690 0.436650 0.401270
C175 C 0.816050 0.899470 0.795510
C176 C 0.730590 1.124560 1.150980
C177 C 0.589390 0.491730 0.434820
C178 C 0.690860 1.057590 0.934110
C179 C 0.891030 0.999420 0.825300
C180 C 0.776450 0.996010 0.970190
C181 C 0.665340 1.239120 1.136990
C182 C 0.640990 0.227650 0.585170
C183 C 0.920520 0.972100 0.875030
C184 C 0.659330 0.776510 0.296070
C185 C 0.749420 1.078510 1.061570
C186 C 0.910530 0.855200 0.996560
C187 C 0.786920 0.776890 0.874710
C188 C 0.786920 0.723110 0.374710
C189 C 0.659330 0.723490 0.796070
C190 C 0.640990 1.272350 1.085170
C191 C 0.910530 0.644800 0.496560
C192 C 0.589390 1.008270 0.934820
C193 C 0.749420 0.421490 0.561570
C194 C 0.507690 1.063350 0.901270
C195 C 0.920520 0.527900 0.375030
C196 C 0.932640 1.127780 0.797740
C197 C 0.526470 1.168560 0.866440
C198 C 0.665340 0.260880 0.636990
C199 C 1.198720 0.494390 0.965640
C200 C 0.601070 0.638810 0.833580
C201 C 0.776450 0.503990 0.470190
C202 C 0.891030 0.500580 0.325300
C203 C 0.690860 0.442410 0.434110
C204 C 0.708940 1.163510 0.898800
C205 C 0.730590 0.375440 0.650980
C206 C 0.989310 1.232830 0.836440
C207 C 0.816050 0.600530 0.295510
C208 C 0.772110 0.454890 0.614000
C209 C 1.109400 0.907270 0.461070
C210 C 0.692610 0.618520 0.755840
C211 C 0.984640 0.745040 0.478950
C212 C 0.755100 0.701700 0.324670
C213 C 1.066980 0.836050 0.499160
C214 C 0.583710 0.835730 0.769670
C215 C 0.682370 0.307000 0.547860
C216 C 0.878330 0.648340 0.403890
C217 C 0.158060 0.708740 0.732930
C218 C 0.626930 1.218200 0.865090
C219 C 0.965100 0.749520 0.426310
C220 C 1.309400 0.326290 0.928070
C221 C 0.798990 0.503210 0.523250
C222 C 1.220550 0.410310 0.924440
C223 C 0.121670 0.148340 0.096110
C224 C 1.009530 1.078220 0.761190
C225 C 0.317630 -0.193000 -0.047860
C226 C -0.066980 0.336050 0.000840
C227 C -0.356530 0.594300 -0.014560
C228 C 0.841940 1.208740 0.767070
C229 C -0.378120 0.675280 0.027010
C230 C -0.267740 0.510310 -0.011160
C231 C 0.158060 -0.208740 0.232930
C232 C 1.267740 0.489690 1.011160
C233 C -0.009530 -0.078220 0.238810
C234 C 1.378120 0.324720 0.972990
C235 C -0.220550 0.589690 0.075560
C236 C 1.356530 0.405700 1.014560
C237 C -0.309400 0.673710 0.071930
C238 C -0.009530 0.578220 0.738810
C239 C 0.244900 0.201700 0.175330
C240 C -0.220550 -0.089690 0.575560
C241 C 0.201010 0.496790 0.476750
C242 C 0.034900 0.250480 0.573690
C243 C 0.015360 0.245040 0.021050
C244 C 0.121670 0.351660 0.596110
C245 C 0.317630 0.693000 0.452140
C246 C 0.373070 -0.218200 0.134910
C247 C -0.066980 0.163950 0.500840
C248 C 0.416290 0.164270 0.230330
C249 C 0.244900 0.298300 0.675330
C250 C 0.015360 0.254960 0.521050
C251 C -0.109400 0.092730 0.538930
C252 C 0.227890 0.545110 0.386000
C253 C 0.307390 0.381480 0.244160
C254 C 0.183950 0.399470 0.704490
C255 C 0.269410 0.624560 0.349020
C256 C 0.010690 -0.232830 0.163560
C257 C 0.309140 0.557590 0.565890
C258 C 0.108970 0.499420 0.674700
C259 C 0.223550 0.496010 0.529810
C260 C 0.334660 0.739120 0.363010
C261 C 0.291060 -0.163510 0.101200
C262 C 0.079480 0.472100 0.624970
C263 C 0.398930 0.361190 0.166420
C264 C 0.250580 0.578510 0.438430
C265 C 0.089470 0.355200 0.503440
C266 C 0.213080 0.276890 0.625290
C267 C -0.198720 0.505610 0.034360
C268 C 0.340670 0.223490 0.703930
C269 C 0.359010 0.772350 0.414830
C270 C 0.473530 -0.168560 0.133560
C271 C 0.410610 0.508270 0.565180
C272 C 0.067360 -0.127780 0.202260
C273 C 0.492310 0.563350 0.598730
C274 C 0.492310 -0.063350 0.098730
C275 C 0.067360 0.627780 0.702260
C276 C 0.473530 0.668560 0.633560
C277 C 0.410610 -0.008270 0.065180
C278 C -0.198720 -0.005610 0.534360
C279 C 0.398930 0.138810 0.666420
C280 C 0.359010 -0.272350 -0.085170
C281 C 0.340670 0.276510 0.203930
C282 C 0.213080 0.223110 0.125290
C283 C 0.291060 0.663510 0.601200
C284 C 0.089470 0.144800 0.003440
C285 C 0.010690 0.732830 0.663560
C286 C 0.250580 -0.078510 -0.061570
C287 C 0.079480 0.027900 0.124970
C288 C 0.334660 -0.239120 -0.136990
C289 C 0.307390 0.118520 0.744160
C290 C 0.223550 0.003990 0.029810
C291 C 0.108970 0.000580 0.174700
C292 C 0.309140 -0.057590 0.065890
C293 C 0.416290 0.335730 0.730330
C294 C 0.269410 -0.124560 -0.150980
C295 C 0.183950 0.100530 0.204490
C296 C 0.227890 -0.045110 -0.114000
C297 C 0.373070 0.718200 0.634910
C298 C -0.109400 0.407270 0.038930
C299 C -0.309400 -0.173710 0.571930
C300 C -0.356530 -0.094300 0.485440
N301 N 0.149960 0.405450 0.546120
N302 N 0.116330 0.407830 0.460580
N303 N 0.116330 0.092170 -0.039420
N304 N 0.149960 0.094550 0.046120
N305 N 0.883670 0.592170 0.539420
N306 N 0.850040 0.594550 0.453880
N307 N 0.850040 0.905450 0.953880
N308 N 0.883670 0.907830 1.039420
O309 O 0.805180 0.601270 0.248260
O310 O 0.805180 0.898730 0.748260
O311 O 0.194820 0.101270 0.251740
O312 O 0.194820 0.398730 0.751740
S313 S -0.047170 0.137430 0.600150
S314 S 1.047170 0.637430 0.899850
S315 S 1.047170 0.862570 0.399850
S316 S -0.047170 0.362570 0.100150

#END
