./KAGGEG_from_POSCAR.cif_generated_by_CrystalShift
_symmetry_cell_setting triclinic
_symmetry_space_group_name_H-M 'P 1'
loop_
_symmetry_equiv_pos_site_id
_symmetry_equiv_pos_as_xyz
1 x,y,z
_cell_length_a 11.614500
_cell_length_b 5.426000
_cell_length_c 11.352000
_cell_angle_alpha 90.000000
_cell_angle_beta 90.756000
_cell_angle_gamma 90.000000
_cell_volume 715.343909
loop_
_atom_site_label
_atom_site_type_symbol
_atom_site_fract_x
_atom_site_fract_y
_atom_site_fract_z
H1 H 1.468800 0.711400 0.426800
H2 H 0.344100 0.442200 -0.305900
H3 H 1.188000 0.930200 0.605900
H4 H 0.150300 0.496100 -0.256500
H5 H 1.453700 0.359800 0.284900
H6 H 0.981400 0.119800 0.357600
H7 H -0.018600 0.380200 -0.142400
H8 H 1.150300 0.003900 0.243500
H9 H 1.344100 0.057800 0.194100
H10 H 0.453700 0.140200 -0.215100
H11 H 0.531200 0.288600 0.573200
H12 H 0.617500 0.027100 0.439800
H13 H 0.812000 0.069800 0.394100
H14 H 0.546300 0.640200 0.715100
H15 H 0.188000 -0.430200 0.105900
H16 H 1.018600 0.880200 0.642400
H17 H 0.382500 -0.472900 0.060200
H18 H 0.849700 0.996100 0.756500
H19 H 0.468800 -0.211400 -0.073200
H20 H 0.655900 0.942200 0.805900
H21 H -0.344100 -0.442200 0.305900
H22 H 0.468800 0.711400 0.426800
H23 H -0.150300 -0.496100 0.256500
H24 H 0.382500 0.972900 0.560200
H25 H 0.188000 0.930200 0.605900
H26 H 0.018600 -0.380200 0.142400
H27 H 0.453700 0.359800 0.284900
H28 H -0.018600 0.119800 0.357600
H29 H -0.453700 -0.140200 0.215100
H30 H 0.150300 0.003900 0.243500
H31 H 0.344100 0.057800 0.194100
H32 H -0.468800 0.288600 0.573200
H33 H -0.382500 0.027100 0.439800
H34 H -0.188000 0.430200 -0.105900
H35 H -0.188000 0.069800 0.394100
H36 H -0.382500 0.472900 -0.060200
H37 H -0.453700 0.640200 0.715100
H38 H -0.468800 0.211400 0.073200
H39 H 0.018600 0.880200 0.642400
H40 H 0.344100 0.442200 0.694100
H41 H -0.150300 0.996100 0.756500
H42 H 0.150300 0.496100 0.743500
H43 H -0.344100 0.942200 0.805900
H44 H 0.531200 1.211400 1.073200
H45 H -0.018600 0.380200 0.857600
H46 H 0.617500 1.472900 0.939800
H47 H 0.812000 1.430200 0.894100
H48 H 0.453700 0.140200 0.784900
H49 H 0.546300 0.859800 1.215100
H50 H 1.018600 0.619800 1.142400
H51 H 0.849700 0.503900 1.256500
H52 H 0.655900 0.557800 1.305900
H53 H 0.188000 -0.430200 1.105900
H54 H 1.468800 0.788600 0.926800
H55 H 0.382500 -0.472900 1.060200
H56 H 1.382500 0.527100 1.060200
H57 H 0.468800 -0.211400 0.926800
H58 H 1.188000 0.569800 1.105900
H59 H -0.344100 -0.442200 1.305900
H60 H 1.453700 1.140200 0.784900
H61 H -0.150300 -0.496100 1.256500
H62 H 0.981400 1.380200 0.857600
H63 H 1.150300 1.496100 0.743500
H64 H 0.018600 -0.380200 1.142400
H65 H 1.344100 1.442200 0.694100
H66 H 0.531200 1.211400 0.073200
H67 H -0.453700 -0.140200 1.215100
H68 H 0.617500 1.472900 -0.060200
H69 H 0.812000 1.430200 -0.105900
H70 H 0.546300 0.859800 0.215100
H71 H 1.018600 0.619800 0.142400
H72 H -0.188000 0.430200 0.894100
H73 H 0.849700 0.503900 0.256500
H74 H -0.382500 0.472900 0.939800
H75 H 0.655900 0.557800 0.305900
H76 H -0.468800 0.211400 1.073200
H77 H 1.468800 0.788600 -0.073200
H78 H 0.344100 1.442200 -0.305900
H79 H 1.382500 0.527100 0.060200
H80 H 0.150300 1.496100 -0.256500
H81 H 1.188000 0.569800 0.105900
H82 H 1.453700 1.140200 -0.215100
H83 H -0.018600 1.380200 -0.142400
H84 H 0.981400 1.380200 -0.142400
H85 H 1.150300 1.496100 -0.256500
H86 H 0.453700 1.140200 -0.215100
H87 H 1.344100 1.442200 -0.305900
H88 H 0.531200 0.211400 1.073200
H89 H 0.617500 0.472900 0.939800
H90 H 0.812000 0.430200 0.894100
H91 H 0.188000 0.569800 0.105900
H92 H 0.546300 -0.140200 1.215100
H93 H 0.382500 0.527100 0.060200
H94 H 1.018600 -0.380200 1.142400
H95 H 0.468800 0.788600 -0.073200
H96 H 0.849700 -0.496100 1.256500
H97 H -0.344100 0.557800 0.305900
H98 H 0.655900 -0.442200 1.305900
H99 H -0.150300 0.503900 0.256500
H100 H 1.468800 -0.211400 0.926800
H101 H 1.382500 -0.472900 1.060200
H102 H 0.018600 0.619800 0.142400
H103 H 1.188000 -0.430200 1.105900
H104 H 1.453700 0.140200 0.784900
H105 H -0.453700 0.859800 0.215100
H106 H 0.981400 0.380200 0.857600
H107 H 1.150300 0.496100 0.743500
H108 H 1.344100 0.442200 0.694100
H109 H 0.531200 0.211400 0.073200
H110 H -0.188000 1.430200 -0.105900
H111 H 0.617500 0.472900 -0.060200
H112 H -0.382500 1.472900 -0.060200
H113 H 0.812000 0.430200 -0.105900
H114 H -0.468800 1.211400 0.073200
H115 H 0.546300 -0.140200 0.215100
H116 H 0.344100 1.442200 0.694100
H117 H 1.018600 -0.380200 0.142400
H118 H 0.150300 1.496100 0.743500
H119 H 0.849700 -0.496100 0.256500
H120 H 0.655900 -0.442200 0.305900
H121 H -0.018600 1.380200 0.857600
H122 H 1.468800 -0.211400 -0.073200
H123 H 1.382500 -0.472900 0.060200
H124 H 0.453700 1.140200 0.784900
H125 H 1.188000 -0.430200 0.105900
H126 H 1.453700 0.140200 -0.215100
H127 H 0.981400 0.380200 -0.142400
H128 H 1.150300 0.496100 -0.256500
H129 H 0.188000 0.569800 1.105900
H130 H 1.344100 0.442200 -0.305900
H131 H 0.382500 0.527100 1.060200
H132 H -0.468800 1.211400 1.073200
H133 H 0.468800 0.788600 0.926800
H134 H -0.382500 1.472900 0.939800
H135 H -0.344100 0.557800 1.305900
H136 H -0.188000 1.430200 0.894100
H137 H -0.150300 0.503900 1.256500
H138 H -0.453700 0.859800 1.215100
H139 H 0.018600 0.619800 1.142400
H140 H 1.382500 0.972900 0.560200
C141 C -0.031390 1.101300 0.971860
C142 C -0.374700 0.842700 1.195830
C143 C -0.141800 0.784500 1.138510
C144 C -0.325190 1.005100 1.112040
C145 C -0.206720 0.977000 1.083560
C146 C -0.154100 1.137600 1.000810
C147 C -0.221640 1.320600 0.949130
C148 C -0.193920 0.631500 1.219920
C149 C -0.338300 1.346600 0.976600
C150 C -0.310170 0.662500 1.249000
C151 C -0.389470 1.192100 1.056020
C152 C 0.389470 0.807900 0.943980
C153 C 1.310170 0.337500 -0.249000
C154 C 0.338300 0.653400 1.023400
C155 C 1.193920 0.368500 -0.219920
C156 C 0.221640 0.679400 1.050870
C157 C 1.141800 0.215500 -0.138510
C158 C 1.023430 0.249000 -0.106840
C159 C 0.154100 0.862400 0.999190
C160 C 1.031390 -0.101300 0.028140
C161 C 1.374700 0.157300 -0.195830
C162 C 0.206720 1.023000 0.916440
C163 C 1.325190 -0.005100 -0.112040
C164 C 1.206720 0.023000 -0.083560
C165 C 1.154100 -0.137600 -0.000810
C166 C 1.221640 -0.320600 0.050870
C167 C 0.325190 0.994900 0.887960
C168 C 1.338300 -0.346600 0.023400
C169 C 0.374700 1.157300 0.804170
C170 C 1.389470 -0.192100 -0.056020
C171 C 0.031390 0.898700 1.028140
C172 C 0.689830 -0.337500 0.249000
C173 C 0.023430 1.249000 0.893160
C174 C 0.806080 -0.368500 0.219920
C175 C 0.141800 1.215500 0.861490
C176 C 0.858200 -0.215500 0.138510
C177 C 0.976570 -0.249000 0.106840
C178 C 0.193920 1.368500 0.780080
C179 C 0.968610 0.101300 -0.028140
C180 C 0.625300 -0.157300 0.195830
C181 C 0.310170 1.337500 0.751000
C182 C 0.674810 0.005100 0.112040
C183 C 0.793280 -0.023000 0.083560
C184 C 0.845900 0.137600 0.000810
C185 C 0.778360 0.320600 -0.050870
C186 C -0.389470 1.192100 0.056020
C187 C 0.661700 0.346600 -0.023400
C188 C -0.338300 1.346600 -0.023400
C189 C 0.610530 0.192100 0.056020
C190 C -0.221640 1.320600 -0.050870
C191 C 1.310170 0.337500 0.751000
C192 C -0.154100 1.137600 0.000810
C193 C 1.193920 0.368500 0.780080
C194 C -0.206720 0.977000 0.083560
C195 C 1.141800 0.215500 0.861490
C196 C 1.023430 0.249000 0.893160
C197 C -0.325190 1.005100 0.112040
C198 C 1.031390 -0.101300 1.028140
C199 C 1.374700 0.157300 0.804170
C200 C -0.374700 0.842700 0.195830
C201 C 1.325190 -0.005100 0.887960
C202 C 1.206720 0.023000 0.916440
C203 C 1.154100 -0.137600 0.999190
C204 C 1.221640 -0.320600 1.050870
C205 C -0.031390 1.101300 -0.028140
C206 C 1.338300 -0.346600 1.023400
C207 C -0.023430 0.751000 0.106840
C208 C 1.389470 -0.192100 0.943980
C209 C -0.141800 0.784500 0.138510
C210 C 0.689830 -0.337500 1.249000
C211 C -0.193920 0.631500 0.219920
C212 C 0.806080 -0.368500 1.219920
C213 C -0.310170 0.662500 0.249000
C214 C 0.858200 -0.215500 1.138510
C215 C 0.976570 -0.249000 1.106840
C216 C 0.389470 0.807900 -0.056020
C217 C 0.968610 0.101300 0.971860
C218 C 0.625300 -0.157300 1.195830
C219 C 0.338300 0.653400 0.023400
C220 C 0.674810 0.005100 1.112040
C221 C 0.793280 -0.023000 1.083560
C222 C 0.845900 0.137600 1.000810
C223 C 0.778360 0.320600 0.949130
C224 C 0.221640 0.679400 0.050870
C225 C 0.661700 0.346600 0.976600
C226 C 0.154100 0.862400 -0.000810
C227 C 0.610530 0.192100 1.056020
C228 C 0.206720 1.023000 -0.083560
C229 C 1.310170 1.337500 -0.249000
C230 C 0.325190 0.994900 -0.112040
C231 C 1.193920 1.368500 -0.219920
C232 C 0.374700 1.157300 -0.195830
C233 C 1.141800 1.215500 -0.138510
C234 C 1.023430 1.249000 -0.106840
C235 C 0.031390 0.898700 0.028140
C236 C 1.031390 0.898700 0.028140
C237 C 1.374700 1.157300 -0.195830
C238 C 0.023430 1.249000 -0.106840
C239 C 1.325190 0.994900 -0.112040
C240 C 1.206720 1.023000 -0.083560
C241 C 1.154100 0.862400 -0.000810
C242 C 1.221640 0.679400 0.050870
C243 C 0.141800 1.215500 -0.138510
C244 C 1.338300 0.653400 0.023400
C245 C 0.193920 1.368500 -0.219920
C246 C 1.389470 0.807900 -0.056020
C247 C 0.310170 1.337500 -0.249000
C248 C 0.689830 0.662500 0.249000
C249 C -0.389470 0.192100 1.056020
C250 C 0.806080 0.631500 0.219920
C251 C -0.338300 0.346600 0.976600
C252 C 0.858200 0.784500 0.138510
C253 C 0.976570 0.751000 0.106840
C254 C -0.221640 0.320600 0.949130
C255 C 0.968610 1.101300 -0.028140
C256 C 0.625300 0.842700 0.195830
C257 C -0.154100 0.137600 1.000810
C258 C 0.674810 1.005100 0.112040
C259 C 0.793280 0.977000 0.083560
C260 C 0.845900 1.137600 0.000810
C261 C 0.778360 1.320600 -0.050870
C262 C -0.206720 -0.023000 1.083560
C263 C 0.661700 1.346600 -0.023400
C264 C -0.325190 0.005100 1.112040
C265 C 0.610530 1.192100 0.056020
C266 C -0.374700 -0.157300 1.195830
C267 C 1.310170 1.337500 0.751000
C268 C -0.031390 0.101300 0.971860
C269 C 1.193920 1.368500 0.780080
C270 C -0.023430 -0.249000 1.106840
C271 C 1.141800 1.215500 0.861490
C272 C 1.023430 1.249000 0.893160
C273 C -0.141800 -0.215500 1.138510
C274 C 1.031390 0.898700 1.028140
C275 C 1.374700 1.157300 0.804170
C276 C -0.193920 -0.368500 1.219920
C277 C 1.325190 0.994900 0.887960
C278 C 1.206720 1.023000 0.916440
C279 C 1.154100 0.862400 0.999190
C280 C 1.221640 0.679400 1.050870
C281 C -0.310170 -0.337500 1.249000
C282 C 1.338300 0.653400 1.023400
C283 C 0.389470 -0.192100 0.943980
C284 C 1.389470 0.807900 0.943980
C285 C 0.338300 -0.346600 1.023400
C286 C 0.689830 0.662500 1.249000
C287 C 0.221640 -0.320600 1.050870
C288 C 0.806080 0.631500 1.219920
C289 C 0.154100 -0.137600 0.999190
C290 C 0.858200 0.784500 1.138510
C291 C 0.976570 0.751000 1.106840
C292 C 0.206720 0.023000 0.916440
C293 C 0.968610 1.101300 0.971860
C294 C 0.625300 0.842700 1.195830
C295 C 0.325190 -0.005100 0.887960
C296 C 0.674810 1.005100 1.112040
C297 C 0.793280 0.977000 1.083560
C298 C 0.845900 1.137600 1.000810
C299 C 0.778360 1.320600 0.949130
C300 C 0.374700 0.157300 0.804170
C301 C 0.661700 1.346600 0.976600
C302 C 0.031390 -0.101300 1.028140
C303 C 0.610530 1.192100 1.056020
C304 C 0.023430 0.249000 0.893160
C305 C -0.310170 0.837500 0.749000
C306 C 0.141800 0.215500 0.861490
C307 C -0.193920 0.868500 0.719920
C308 C 0.193920 0.368500 0.780080
C309 C -0.141800 0.715500 0.638510
C310 C -0.023430 0.749000 0.606840
C311 C 0.310170 0.337500 0.751000
C312 C -0.031390 0.398700 0.471860
C313 C -0.374700 0.657300 0.695830
C314 C -0.389470 0.192100 0.056020
C315 C -0.325190 0.494900 0.612040
C316 C -0.206720 0.523000 0.583560
C317 C -0.154100 0.362400 0.500810
C318 C -0.221640 0.179400 0.449130
C319 C -0.338300 0.346600 -0.023400
C320 C -0.338300 0.153400 0.476600
C321 C -0.221640 0.320600 -0.050870
C322 C -0.389470 0.307900 0.556020
C323 C -0.154100 0.137600 0.000810
C324 C 0.310170 0.162500 0.251000
C325 C -0.206720 -0.023000 0.083560
C326 C 0.193920 0.131500 0.280080
C327 C -0.325190 0.005100 0.112040
C328 C 0.141800 0.284500 0.361490
C329 C 0.023430 0.251000 0.393160
C330 C -0.374700 -0.157300 0.195830
C331 C 0.031390 0.601300 0.528140
C332 C 0.374700 0.342700 0.304170
C333 C -0.031390 0.101300 -0.028140
C334 C 0.325190 0.505100 0.387960
C335 C 0.206720 0.477000 0.416440
C336 C 0.154100 0.637600 0.499190
C337 C 0.221640 0.820600 0.550870
C338 C -0.023430 -0.249000 0.106840
C339 C 0.338300 0.846600 0.523400
C340 C -0.141800 -0.215500 0.138510
C341 C 0.389470 0.692100 0.443980
C342 C -0.193920 -0.368500 0.219920
C343 C 0.689830 0.837500 0.749000
C344 C -0.310170 -0.337500 0.249000
C345 C 0.806080 0.868500 0.719920
C346 C 0.389470 -0.192100 -0.056020
C347 C 0.858200 0.715500 0.638510
C348 C 0.976570 0.749000 0.606840
C349 C 0.338300 -0.346600 0.023400
C350 C 0.968610 0.398700 0.471860
C351 C 0.625300 0.657300 0.695830
C352 C 0.221640 -0.320600 0.050870
C353 C 0.674810 0.494900 0.612040
C354 C 0.793280 0.523000 0.583560
C355 C 0.845900 0.362400 0.500810
C356 C 0.778360 0.179400 0.449130
C357 C 0.154100 -0.137600 -0.000810
C358 C 0.661700 0.153400 0.476600
C359 C 0.206720 0.023000 -0.083560
C360 C 0.610530 0.307900 0.556020
C361 C 0.325190 -0.005100 -0.112040
C362 C 1.310170 0.162500 0.251000
C363 C 0.374700 0.157300 -0.195830
C364 C 1.193920 0.131500 0.280080
C365 C 0.031390 -0.101300 0.028140
C366 C 1.141800 0.284500 0.361490
C367 C 1.023430 0.251000 0.393160
C368 C 0.023430 0.249000 -0.106840
C369 C 1.031390 0.601300 0.528140
C370 C 1.374700 0.342700 0.304170
C371 C 0.141800 0.215500 -0.138510
C372 C 1.325190 0.505100 0.387960
C373 C 1.206720 0.477000 0.416440
C374 C 1.154100 0.637600 0.499190
C375 C 1.221640 0.820600 0.550870
C376 C 0.193920 0.368500 -0.219920
C377 C 1.338300 0.846600 0.523400
C378 C -0.023430 0.751000 1.106840
C379 C 1.389470 0.692100 0.443980
C380 C 0.310170 0.337500 -0.249000

#END
