
#######################################################################
#
#                 Cambridge Crystallographic Data Centre
#                                CCDC 
#
#######################################################################
#
# If this CIF has been generated from an entry in the Cambridge 
# Structural Database, then it will include bibliographic, chemical, 
# crystal, experimental, refinement or atomic coordinate data resulting 
# from the CCDC's data processing and validation procedures.
#
#######################################################################

data_KAGQOB
_symmetry_cell_setting           monoclinic
_symmetry_space_group_name_H-M   'P 21/n'
_symmetry_Int_Tables_number      14
_space_group_name_Hall           '-P 2yn'
loop_
_symmetry_equiv_pos_site_id
_symmetry_equiv_pos_as_xyz
1 x,y,z
2 1/2-x,1/2+y,1/2-z
3 -x,-y,-z
4 1/2+x,1/2-y,1/2+z
_cell_length_a                   9.9461(4)
_cell_length_b                   6.9825(3)
_cell_length_c                   15.2049(8)
_cell_angle_alpha                90
_cell_angle_beta                 92.314(2)
_cell_angle_gamma                90
_cell_volume                     1055.1
loop_
_atom_site_label
_atom_site_type_symbol
_atom_site_fract_x
_atom_site_fract_y
_atom_site_fract_z
I1 I 0.329898(16) 0.26502(2) 0.025896(12)
C1 C 0.0348(3) 0.7312(4) 0.0980(2)
H1 H 0.0109 0.7237 0.1598
H2 H -0.0441 0.6999 0.06
H3 H 0.0653 0.8613 0.0849
O1 O 0.14107(15) 0.5974(2) 0.08228(11)
C2 C 0.2572(2) 0.6173(3) 0.13225(16)
C3 C 0.2803(2) 0.7584(3) 0.19549(18)
H4 H 0.2137 0.8536 0.2037
C4 C 0.3983(3) 0.7626(3) 0.24669(19)
H5 H 0.4127 0.8613 0.289
C5 C 0.4964(2) 0.6223(3) 0.23640(15)
C6 C 0.4758(2) 0.4832(3) 0.17213(15)
H6 H 0.5429 0.3888 0.1637
C7 C 0.3585(2) 0.4810(3) 0.12034(15)
N1 N 0.61473(18) 0.6198(3) 0.29203(13)
C8 C 0.6282(2) 0.6985(3) 0.37527(17)
H7 H 0.5605 0.7666 0.4046
C9 C 0.7549(2) 0.6618(3) 0.40811(17)
H8 H 0.7916 0.7001 0.464
C10 C 0.8220(2) 0.5561(3) 0.34356(17)
H9 H 0.9119 0.5102 0.3485
C11 C 0.7341(2) 0.5322(3) 0.27295(17)
H10 H 0.7522 0.4666 0.22
I1 I 0.170102(16) -0.23498(2) 0.474104(12)
C1 C 0.4652(3) 0.2312(4) 0.4020(2)
H1 H 0.4891 0.2237 0.3402
H2 H 0.5441 0.1999 0.44
H3 H 0.4347 0.3613 0.4151
O1 O 0.35893(15) 0.0974(2) 0.41772(11)
C2 C 0.2428(2) 0.1173(3) 0.36775(16)
C3 C 0.2197(2) 0.2584(3) 0.30451(18)
H4 H 0.2863 0.3536 0.2963
C4 C 0.1017(3) 0.2626(3) 0.25331(19)
H5 H 0.0873 0.3613 0.211
C5 C 0.0036(2) 0.1223(3) 0.26360(15)
C6 C 0.0242(2) -0.0168(3) 0.32787(15)
H6 H -0.0429 -0.1112 0.3363
C7 C 0.1415(2) -0.0190(3) 0.37966(15)
N1 N -0.11473(18) 0.1198(3) 0.20797(13)
C8 C -0.1282(2) 0.1985(3) 0.12473(17)
H7 H -0.0605 0.2666 0.0954
C9 C -0.2549(2) 0.1618(3) 0.09189(17)
H8 H -0.2916 0.2001 0.036
C10 C -0.3220(2) 0.0561(3) 0.15644(17)
H9 H -0.4119 0.0102 0.1515
C11 C -0.2341(2) 0.0322(3) 0.22705(17)
H10 H -0.2522 -0.0334 0.28
I1 I 0.670102(16) 0.73498(2) 0.974104(12)
C1 C 0.9652(3) 0.2688(4) 0.9020(2)
H1 H 0.9891 0.2763 0.8402
H2 H 1.0441 0.3001 0.94
H3 H 0.9347 0.1387 0.9151
O1 O 0.85893(15) 0.4026(2) 0.91772(11)
C2 C 0.7428(2) 0.3827(3) 0.86775(16)
C3 C 0.7197(2) 0.2416(3) 0.80451(18)
H4 H 0.7863 0.1464 0.7963
C4 C 0.6017(3) 0.2374(3) 0.75331(19)
H5 H 0.5873 0.1387 0.711
C5 C 0.5036(2) 0.3777(3) 0.76360(15)
C6 C 0.5242(2) 0.5168(3) 0.82787(15)
H6 H 0.4571 0.6112 0.8363
C7 C 0.6415(2) 0.5190(3) 0.87966(15)
N1 N 0.38527(18) 0.3802(3) 0.70797(13)
C8 C 0.3718(2) 0.3015(3) 0.62473(17)
H7 H 0.4395 0.2334 0.5954
C9 C 0.2451(2) 0.3382(3) 0.59189(17)
H8 H 0.2084 0.2999 0.536
C10 C 0.1780(2) 0.4439(3) 0.65644(17)
H9 H 0.0881 0.4898 0.6515
C11 C 0.2659(2) 0.4678(3) 0.72705(17)
H10 H 0.2478 0.5334 0.78
I1 I 0.829898(16) 1.23498(2) 0.525896(12)
C1 C 0.5348(3) 0.7688(4) 0.5980(2)
H1 H 0.5109 0.7763 0.6598
H2 H 0.4559 0.8001 0.56
H3 H 0.5653 0.6387 0.5849
O1 O 0.64107(15) 0.9026(2) 0.58228(11)
C2 C 0.7572(2) 0.8827(3) 0.63225(16)
C3 C 0.7803(2) 0.7416(3) 0.69549(18)
H4 H 0.7137 0.6464 0.7037
C4 C 0.8983(3) 0.7374(3) 0.74669(19)
H5 H 0.9127 0.6387 0.789
C5 C 0.9964(2) 0.8777(3) 0.73640(15)
C6 C 0.9758(2) 1.0168(3) 0.67213(15)
H6 H 1.0429 1.1112 0.6637
C7 C 0.8585(2) 1.0190(3) 0.62034(15)
N1 N 1.11473(18) 0.8802(3) 0.79203(13)
C8 C 1.1282(2) 0.8015(3) 0.87527(17)
H7 H 1.0605 0.7334 0.9046
C9 C 1.2549(2) 0.8382(3) 0.90811(17)
H8 H 1.2916 0.7999 0.964
C10 C 1.3220(2) 0.9439(3) 0.84356(17)
H9 H 1.4119 0.9898 0.8485
C11 C 1.2341(2) 0.9678(3) 0.77295(17)
H10 H 1.2522 1.0334 0.72

#END
