./KAGQUH_from_POSCAR.cif_generated_by_CrystalShift
_symmetry_cell_setting triclinic
_symmetry_space_group_name_H-M 'P 1'
loop_
_symmetry_equiv_pos_site_id
_symmetry_equiv_pos_as_xyz
1 x,y,z
_cell_length_a 10.066500
_cell_length_b 5.989500
_cell_length_c 17.515500
_cell_angle_alpha 90.000000
_cell_angle_beta 103.942000
_cell_angle_gamma 90.000000
_cell_volume 1024.955715
loop_
_atom_site_label
_atom_site_type_symbol
_atom_site_fract_x
_atom_site_fract_y
_atom_site_fract_z
H1 H 0.780200 -0.172400 0.733000
H2 H 0.365200 0.150400 0.108100
H3 H 0.637100 0.205700 0.540200
H4 H 0.137100 0.294300 0.040200
H5 H 0.865200 0.349600 0.608100
H6 H 0.081900 0.615000 0.121300
H7 H 0.518100 0.358100 0.686500
H8 H 0.280200 0.672400 0.233000
H9 H 0.981900 -0.141900 0.813500
H10 H 0.247700 0.975200 0.707700
H11 H 0.452900 0.922900 0.798900
H12 H 0.547100 0.077100 0.201100
H13 H 1.047100 0.422900 0.701100
H14 H 0.752300 0.024800 0.292300
H15 H 0.719800 0.327600 0.767000
H16 H 0.918100 0.385000 0.878700
H17 H 0.862900 0.705700 0.959800
H18 H 0.481900 0.641900 0.313500
H19 H 0.634800 0.849600 0.891900
H20 H 1.252300 0.475200 0.792300
H21 H 0.018100 1.141900 0.186500
H22 H 0.134800 0.650400 0.391900
H23 H -0.252300 0.524800 0.207700
H24 H 0.362900 0.794300 0.459800
H25 H -0.047100 0.577100 0.298900
H26 H 0.418100 1.115000 0.378700
H27 H 0.219800 1.172400 0.267000
H28 H 0.581900 -0.115000 0.621300
C29 C 1.242200 0.197200 0.857700
C30 C 0.004700 0.867500 0.253100
C31 C -0.076300 0.682600 0.257700
C32 C 0.336000 1.030000 0.367600
C33 C -0.197600 0.651400 0.203600
C34 C 0.306000 0.850700 0.412400
C35 C -0.242200 0.802800 0.142300
C36 C -0.160300 0.983400 0.135400
C37 C -0.037400 1.016700 0.190900
C38 C 0.180500 0.773100 0.375300
C39 C 1.160300 0.016600 0.864600
C40 C 1.197600 0.348600 0.796400
C41 C 0.680500 0.726900 0.875300
C42 C 1.037400 -0.016700 0.809100
C43 C 0.806000 0.649300 0.912400
C44 C 0.537400 0.516700 0.309100
C45 C 0.836000 0.470000 0.867600
C46 C 0.660300 0.483400 0.364600
C47 C 0.727500 0.440000 0.806100
C48 C 0.742200 0.302800 0.357700
C49 C 0.697600 0.151400 0.296400
C50 C 0.504700 0.632500 0.753100
C51 C 0.423700 0.817400 0.757700
C52 C 0.576300 0.182600 0.242300
C53 C 0.302400 0.848600 0.703600
C54 C 0.495300 0.367500 0.246900
C55 C 0.257800 0.697200 0.642300
C56 C 0.339700 0.516600 0.635400
C57 C 0.462600 0.483300 0.690900
C58 C 0.272500 0.560000 0.193900
C59 C 1.076300 0.317400 0.742300
C60 C 0.995300 0.132500 0.746900
C61 C 0.819500 0.226900 0.624700
C62 C 0.164000 0.530000 0.132400
C63 C 0.694000 0.149300 0.587600
C64 C 0.194000 0.350700 0.087600
C65 C 0.664000 -0.030000 0.632400
C66 C 0.227500 1.060000 0.306100
C67 C 0.772500 -0.060000 0.693900
C68 C 0.319500 0.273100 0.124700
N69 N 0.870000 0.097800 0.690910
N70 N 0.370000 0.402200 0.190910
N71 N 0.130000 0.902200 0.309090
N72 N 0.630000 0.597800 0.809090
Br73 Br -0.417120 0.757080 0.073260
Br74 Br 0.082880 0.742920 0.573260
Br75 Br 0.917120 0.257080 0.426740
Br76 Br 1.417120 0.242920 0.926740
I77 I 0.289990 0.290880 0.541460
I78 I 0.710010 0.709120 0.458540
I79 I 1.210010 -0.209120 0.958540
I80 I -0.210010 1.209120 0.041460

#END
