
#######################################################################
#
#                 Cambridge Crystallographic Data Centre
#                                CCDC 
#
#######################################################################
#
# If this CIF has been generated from an entry in the Cambridge 
# Structural Database, then it will include bibliographic, chemical, 
# crystal, experimental, refinement or atomic coordinate data resulting 
# from the CCDC's data processing and validation procedures.
#
#######################################################################

data_KAGRUG
_symmetry_cell_setting           triclinic
_symmetry_space_group_name_H-M   'P -1'
_symmetry_Int_Tables_number      2
_space_group_name_Hall           '-P 1'
loop_
_symmetry_equiv_pos_site_id
_symmetry_equiv_pos_as_xyz
1 x,y,z
2 -x,-y,-z
_cell_length_a                   9.73700(10)
_cell_length_b                   11.4350(2)
_cell_length_c                   14.9620(3)
_cell_angle_alpha                91.4540(6)
_cell_angle_beta                 102.7070(7)
_cell_angle_gamma                112.4550(13)
_cell_volume                     1490.79
loop_
_atom_site_label
_atom_site_type_symbol
_atom_site_fract_x
_atom_site_fract_y
_atom_site_fract_z
N1 N 0.47644(17) -0.10282(15) 0.38496(11)
C1 C 0.3501(2) -0.10942(18) 0.41441(14)
C2 C 0.2930(2) -0.2038(2) 0.47151(15)
H1 H 0.3427 -0.2598 0.4889
C3 C 0.1663(2) -0.2147(2) 0.50188(16)
H2 H 0.1288 -0.2780 0.5404
C4 C 0.0911(3) -0.1324(2) 0.47636(17)
H3 H 0.0035 -0.1405 0.4980
C5 C 0.1429(2) -0.0414(2) 0.42087(16)
H4 H 0.0904 0.0127 0.4036
C6 C 0.2743(2) -0.02657(19) 0.38872(14)
C7 C 0.3335(2) 0.06511(19) 0.33070(15)
H5 H 0.2861 0.1224 0.3121
C8 C 0.4584(2) 0.07138(19) 0.30139(14)
H6 H 0.4989 0.1325 0.2621
C9 C 0.5275(2) -0.01493(18) 0.33046(14)
C10 C 0.6604(2) -0.01192(18) 0.29832(13)
H7 H 0.7051 -0.0711 0.3160
N2 N 0.71518(18) 0.07119(16) 0.24630(12)
N3 N 0.83543(18) 0.05819(15) 0.21547(12)
C11 C 0.9026(2) 0.15325(18) 0.17422(13)
C12 C 0.8572(2) 0.26632(18) 0.16617(14)
N4 N 0.92086(18) 0.36363(16) 0.22868(11)
N5 N 1.03303(18) 0.34829(16) 0.29907(12)
C13 C 1.0729(2) 0.42265(18) 0.37357(14)
H8 H 1.0270 0.4817 0.3784
C14 C 1.1896(2) 0.41651(18) 0.45173(14)
C15 C 1.2567(2) 0.32711(19) 0.44464(15)
H9 H 1.2268 0.2714 0.3893
C16 C 1.3649(2) 0.32231(19) 0.51840(15)
H10 H 1.4087 0.2614 0.5156
C17 C 1.4109(2) 0.40911(18) 0.59890(14)
C18 C 1.5280(2) 0.4160(2) 0.67674(15)
H11 H 1.5764 0.3579 0.6772
C19 C 1.5719(2) 0.5053(2) 0.75097(16)
H12 H 1.6534 0.5113 0.8018
C20 C 1.4968(3) 0.5889(2) 0.75263(16)
H13 H 1.5274 0.6500 0.8050
C21 C 1.3805(2) 0.5831(2) 0.67975(15)
H14 H 1.3292 0.6385 0.6824
C22 C 1.3367(2) 0.49461(19) 0.60050(14)
N6 N 1.22495(18) 0.49621(15) 0.52688(12)
C23 C 1.0238(2) 0.15136(18) 0.13062(13)
C24 C 1.0931(2) 0.24948(19) 0.08130(14)
H15 H 1.0649 0.3204 0.0772
C25 C 1.2032(2) 0.2438(2) 0.03815(16)
H16 H 1.2497 0.3106 0.0043
C26 C 1.2454(2) 0.1410(2) 0.04433(15)
H17 H 1.3211 0.1375 0.0149
C27 C 1.1774(2) 0.0435(2) 0.09339(15)
H18 H 1.2071 -0.0267 0.0978
C28 C 1.0666(2) 0.0473(2) 0.13613(15)
H19 H 1.0196 -0.0205 0.1692
C29 C 0.7445(2) 0.26585(19) 0.08217(14)
C30 C 0.7124(3) 0.3731(2) 0.06320(16)
H20 H 0.7586 0.4472 0.1071
C31 C 0.6135(3) 0.3716(2) -0.01938(17)
H21 H 0.5919 0.4448 -0.0315
C32 C 0.5458(2) 0.2650(2) -0.08448(15)
H22 H 0.4799 0.2655 -0.1415
C33 C 0.5749(2) 0.1577(2) -0.06588(15)
H23 H 0.5276 0.0836 -0.1098
C34 C 0.6731(2) 0.15810(19) 0.01683(14)
H24 H 0.6920 0.0838 0.0292
N1 N 0.52356(17) 1.10282(15) 0.61504(11)
C1 C 0.6499(2) 1.10942(18) 0.58559(14)
C2 C 0.7070(2) 1.2038(2) 0.52849(15)
H1 H 0.6573 1.2598 0.5111
C3 C 0.8337(2) 1.2147(2) 0.49812(16)
H2 H 0.8712 1.2780 0.4596
C4 C 0.9089(3) 1.1324(2) 0.52364(17)
H3 H 0.9965 1.1405 0.5020
C5 C 0.8571(2) 1.0414(2) 0.57913(16)
H4 H 0.9096 0.9873 0.5964
C6 C 0.7257(2) 1.02657(19) 0.61128(14)
C7 C 0.6665(2) 0.93489(19) 0.66930(15)
H5 H 0.7139 0.8776 0.6879
C8 C 0.5416(2) 0.92862(19) 0.69861(14)
H6 H 0.5011 0.8675 0.7379
C9 C 0.4725(2) 1.01493(18) 0.66954(14)
C10 C 0.3396(2) 1.01192(18) 0.70168(13)
H7 H 0.2949 1.0711 0.6840
N2 N 0.28482(18) 0.92881(16) 0.75370(12)
N3 N 0.16457(18) 0.94181(15) 0.78453(12)
C11 C 0.0974(2) 0.84675(18) 0.82578(13)
C12 C 0.1428(2) 0.73368(18) 0.83383(14)
N4 N 0.07914(18) 0.63637(16) 0.77132(11)
N5 N -0.03303(18) 0.65171(16) 0.70093(12)
C13 C -0.0729(2) 0.57735(18) 0.62643(14)
H8 H -0.0270 0.5183 0.6216
C14 C -0.1896(2) 0.58349(18) 0.54827(14)
C15 C -0.2567(2) 0.67289(19) 0.55536(15)
H9 H -0.2268 0.7286 0.6107
C16 C -0.3649(2) 0.67769(19) 0.48160(15)
H10 H -0.4087 0.7386 0.4844
C17 C -0.4109(2) 0.59089(18) 0.40110(14)
C18 C -0.5280(2) 0.5840(2) 0.32326(15)
H11 H -0.5764 0.6421 0.3228
C19 C -0.5719(2) 0.4947(2) 0.24903(16)
H12 H -0.6534 0.4887 0.1982
C20 C -0.4968(3) 0.4111(2) 0.24737(16)
H13 H -0.5274 0.3500 0.1950
C21 C -0.3805(2) 0.4169(2) 0.32025(15)
H14 H -0.3292 0.3615 0.3176
C22 C -0.3367(2) 0.50539(19) 0.39950(14)
N6 N -0.22495(18) 0.50379(15) 0.47312(12)
C23 C -0.0238(2) 0.84864(18) 0.86938(13)
C24 C -0.0931(2) 0.75052(19) 0.91870(14)
H15 H -0.0649 0.6796 0.9228
C25 C -0.2032(2) 0.7562(2) 0.96185(16)
H16 H -0.2497 0.6894 0.9957
C26 C -0.2454(2) 0.8590(2) 0.95567(15)
H17 H -0.3211 0.8625 0.9851
C27 C -0.1774(2) 0.9565(2) 0.90661(15)
H18 H -0.2071 1.0267 0.9022
C28 C -0.0666(2) 0.9527(2) 0.86387(15)
H19 H -0.0196 1.0205 0.8308
C29 C 0.2555(2) 0.73415(19) 0.91783(14)
C30 C 0.2876(3) 0.6269(2) 0.93680(16)
H20 H 0.2414 0.5528 0.8929
C31 C 0.3865(3) 0.6284(2) 1.01938(17)
H21 H 0.4081 0.5552 1.0315
C32 C 0.4542(2) 0.7350(2) 1.08448(15)
H22 H 0.5201 0.7345 1.1415
C33 C 0.4251(2) 0.8423(2) 1.06588(15)
H23 H 0.4724 0.9164 1.1098
C34 C 0.3269(2) 0.84190(19) 0.98317(14)
H24 H 0.3080 0.9162 0.9708
C35 C 0.9799(3) 0.6717(2) 0.25058(17)
H25 H 0.9345 0.5785 0.2529
H26 H 1.0386 0.7133 0.3138
Cl1 Cl 0.83176(7) 0.72477(6) 0.21337(5)
Cl2 Cl 1.10603(8) 0.70524(7) 0.17761(6)
C35 C 0.0201(3) 0.3283(2) 0.74942(17)
H25 H 0.0655 0.4215 0.7471
H26 H -0.0386 0.2867 0.6862
Cl1 Cl 0.16824(7) 0.27523(6) 0.78663(5)
Cl2 Cl -0.10603(8) 0.29476(7) 0.82239(6)

#END
