./KAGSAN_from_POSCAR.cif_generated_by_CrystalShift
_symmetry_cell_setting triclinic
_symmetry_space_group_name_H-M 'P 1'
loop_
_symmetry_equiv_pos_site_id
_symmetry_equiv_pos_as_xyz
1 x,y,z
_cell_length_a 6.234000
_cell_length_b 9.344000
_cell_length_c 12.612000
_cell_angle_alpha 70.957000
_cell_angle_beta 77.614000
_cell_angle_gamma 84.160000
_cell_volume 677.885393
loop_
_atom_site_label
_atom_site_type_symbol
_atom_site_fract_x
_atom_site_fract_y
_atom_site_fract_z
H1 H -1.220400 0.897500 0.584600
H2 H 0.842100 1.126300 0.839900
H3 H 0.577200 1.014800 0.840000
H4 H -0.220400 0.897500 0.584600
H5 H 0.643000 0.849800 0.314400
H6 H 0.447500 0.620100 0.979500
H7 H 0.204000 0.488000 0.933000
H8 H -0.084700 0.497600 0.814500
H9 H -0.281400 0.637700 0.676000
H10 H 0.357000 0.150200 0.685600
H11 H 0.043100 1.015100 0.628800
H12 H 1.104000 1.243500 0.886500
H13 H 1.157900 0.873700 1.160100
H14 H 0.956900 -0.015100 0.371200
H15 H 1.422800 0.985200 1.160000
H16 H 1.281400 0.362300 0.324000
H17 H 1.552500 1.379900 1.020500
H18 H 1.220400 0.102500 0.415400
H19 H 1.796000 1.512000 1.067000
H20 H 1.084700 0.502400 0.185500
H21 H 2.084700 1.502400 1.185500
H22 H 2.220400 1.102500 1.415400
H23 H 0.796000 0.512000 0.067000
H24 H 2.281400 1.362300 1.324000
H25 H 0.552500 0.379900 0.020500
H26 H 1.956900 0.984900 1.371200
H27 H 0.896000 0.756500 0.113500
H28 H 0.422800 -0.014800 0.160000
H29 H 0.842100 1.126300 -0.160100
H30 H 0.577200 1.014800 -0.160000
H31 H -0.220400 0.897500 -0.415400
H32 H 0.157900 -0.126300 0.160100
H33 H 0.447500 0.620100 -0.020500
H34 H 0.104000 0.243500 -0.113500
H35 H 0.204000 0.488000 -0.067000
H36 H -0.084700 0.497600 -0.185500
H37 H -0.281400 0.637700 -0.324000
H38 H 0.043100 1.015100 -0.371200
H39 H 1.104000 1.243500 -0.113500
H40 H 1.157900 0.873700 0.160100
H41 H 1.422800 0.985200 0.160000
H42 H 1.552500 1.379900 0.020500
H43 H -0.956900 0.015100 -0.371200
H44 H 1.796000 1.512000 0.067000
H45 H 2.084700 1.502400 0.185500
H46 H -1.281400 -0.362300 -0.324000
H47 H 2.220400 1.102500 0.415400
H48 H -1.084700 -0.502400 -0.185500
H49 H 2.281400 1.362300 0.324000
H50 H 1.956900 0.984900 0.371200
H51 H -0.796000 -0.512000 -0.067000
H52 H 0.896000 -0.243500 1.113500
H53 H -0.552500 -0.379900 -0.020500
H54 H -1.220400 -0.102500 -0.415400
H55 H -0.422800 0.014800 -0.160000
H56 H 0.842100 0.126300 0.839900
H57 H -0.157900 0.126300 -0.160100
H58 H -0.104000 -0.243500 0.113500
H59 H 0.577200 0.014800 0.840000
H60 H -0.220400 -0.102500 0.584600
H61 H 0.447500 -0.379900 0.979500
H62 H 0.956900 -0.015100 1.371200
H63 H 0.204000 -0.512000 0.933000
H64 H 1.281400 0.362300 1.324000
H65 H -0.084700 -0.502400 0.814500
H66 H 1.220400 0.102500 1.415400
H67 H -0.281400 -0.362300 0.676000
H68 H 1.084700 0.502400 1.185500
H69 H 0.043100 0.015100 0.628800
H70 H 1.104000 0.243500 0.886500
H71 H 0.796000 0.512000 1.067000
H72 H 1.157900 -0.126300 1.160100
H73 H 0.552500 0.379900 1.020500
H74 H 1.422800 -0.014800 1.160000
H75 H 1.552500 0.379900 1.020500
H76 H 0.422800 -0.014800 1.160000
H77 H 1.796000 0.512000 1.067000
H78 H 2.084700 0.502400 1.185500
H79 H 2.220400 0.102500 1.415400
H80 H 0.157900 -0.126300 1.160100
H81 H 2.281400 0.362300 1.324000
H82 H 0.104000 0.243500 0.886500
H83 H 1.956900 -0.015100 1.371200
H84 H 0.896000 -0.243500 0.113500
H85 H 0.842100 0.126300 -0.160100
H86 H 0.577200 0.014800 -0.160000
H87 H -0.220400 -0.102500 -0.415400
H88 H 0.447500 -0.379900 -0.020500
H89 H 0.204000 -0.512000 -0.067000
H90 H -0.084700 -0.502400 -0.185500
H91 H -0.956900 0.015100 0.628800
H92 H -0.281400 -0.362300 -0.324000
H93 H 0.043100 0.015100 -0.371200
H94 H -1.281400 -0.362300 0.676000
H95 H 1.104000 0.243500 -0.113500
H96 H -1.084700 -0.502400 0.814500
H97 H 1.157900 -0.126300 0.160100
H98 H 1.422800 -0.014800 0.160000
H99 H -0.796000 -0.512000 0.933000
H100 H 1.552500 0.379900 0.020500
H101 H -0.552500 -0.379900 0.979500
H102 H -1.220400 -0.102500 0.584600
H103 H -0.422800 0.014800 0.840000
H104 H 1.796000 0.512000 0.067000
H105 H -0.157900 0.126300 0.839900
H106 H -0.104000 -0.243500 1.113500
H107 H 2.084700 0.502400 0.185500
H108 H 2.220400 0.102500 0.415400
H109 H 2.281400 0.362300 0.324000
H110 H 0.956900 0.984900 0.371200
H111 H 1.956900 -0.015100 0.371200
H112 H 1.281400 1.362300 0.324000
H113 H -0.104000 0.756500 1.113500
H114 H 1.220400 1.102500 0.415400
H115 H -0.157900 1.126300 0.839900
H116 H 1.084700 1.502400 0.185500
H117 H -0.422800 1.014800 0.840000
H118 H 0.896000 0.756500 1.113500
H119 H 0.796000 1.512000 0.067000
H120 H -0.552500 0.620100 0.979500
H121 H 0.552500 1.379900 0.020500
H122 H -0.796000 0.488000 0.933000
H123 H -1.084700 0.497600 0.814500
H124 H 0.422800 0.985200 0.160000
H125 H -1.281400 0.637700 0.676000
H126 H -0.956900 1.015100 0.628800
H127 H 0.104000 1.243500 0.886500
H128 H 0.157900 0.873700 0.160100
H129 H 0.157900 0.873700 1.160100
H130 H 0.104000 1.243500 -0.113500
H131 H 0.422800 0.985200 1.160000
H132 H 0.552500 1.379900 1.020500
H133 H 0.796000 1.512000 1.067000
H134 H 1.084700 1.502400 1.185500
H135 H 1.220400 1.102500 1.415400
H136 H 1.281400 1.362300 1.324000
H137 H 0.956900 0.984900 1.371200
H138 H -0.104000 0.756500 0.113500
H139 H -0.956900 1.015100 -0.371200
H140 H -0.157900 1.126300 -0.160100
H141 H -0.422800 1.014800 -0.160000
H142 H -1.281400 0.637700 -0.324000
H143 H -1.220400 0.897500 -0.415400
H144 H -1.084700 0.497600 -0.185500
H145 H -0.552500 0.620100 -0.020500
H146 H -0.796000 0.488000 -0.067000
C147 C -0.776000 0.592830 -0.106280
C148 C -0.630600 0.669710 -0.080220
C149 C -0.897100 0.671180 -0.192820
C150 C -1.057700 0.602180 -0.222560
C151 C -1.174700 0.685210 -0.304420
C152 C -0.094700 1.074870 -0.095070
C153 C -1.137300 0.840610 -0.359580
C154 C -0.981400 0.910470 -0.333230
C155 C 0.905300 1.074870 0.904930
C156 C 0.857300 1.172480 1.249920
C157 C 0.981400 1.089530 1.333230
C158 C -0.857300 0.827520 -0.249920
C159 C 1.174700 1.314790 1.304420
C160 C 0.606900 0.746000 0.367970
C161 C 1.137300 1.159390 1.359580
C162 C -0.597500 0.824600 -0.143370
C163 C 1.057700 1.397820 1.222560
C164 C -0.437000 0.909750 -0.119810
C165 C 0.897100 1.328820 1.192820
C166 C 0.776000 1.407170 1.106280
C167 C 0.369400 0.669710 0.919780
C168 C 0.630600 1.330290 1.080220
C169 C -0.159600 0.929030 -0.026970
C170 C 0.597500 1.175400 1.143370
C171 C 0.437000 1.090250 1.119810
C172 C -0.062000 0.855960 0.067300
C173 C 0.224000 0.592830 0.893720
C174 C 0.159600 1.070970 1.026970
C175 C 0.094700 0.925130 1.095070
C176 C 0.062000 1.144040 -0.067300
C177 C 0.062000 1.144040 0.932700
C178 C 0.094700 0.925130 0.095070
C179 C -0.062000 0.855960 1.067300
C180 C -0.159600 0.929030 0.973030
C181 C 0.102900 0.671180 0.807180
C182 C -0.437000 0.909750 0.880190
C183 C -0.597500 0.824600 0.856630
C184 C -0.057700 0.602180 0.777440
C185 C -0.857300 0.827520 0.750080
C186 C -0.981400 0.910470 0.666770
C187 C 0.159600 1.070970 0.026970
C188 C -1.137300 0.840610 0.640420
C189 C -1.174700 0.685210 0.695580
C190 C 0.393100 0.254000 0.632030
C191 C -1.057700 0.602180 0.777440
C192 C 0.437000 1.090250 0.119810
C193 C -0.897100 0.671180 0.807180
C194 C -0.776000 0.592830 0.893720
C195 C 0.597500 1.175400 0.143370
C196 C -0.630600 0.669710 0.919780
C197 C 0.630600 1.330290 0.080220
C198 C 0.776000 1.407170 0.106280
C199 C 0.897100 1.328820 0.192820
C200 C -0.094700 1.074870 0.904930
C201 C 1.057700 1.397820 0.222560
C202 C 1.137300 1.159390 0.359580
C203 C -0.174700 0.685210 0.695580
C204 C 1.857300 0.172480 0.249920
C205 C 1.981400 0.089530 0.333230
C206 C 1.174700 1.314790 0.304420
C207 C 2.174700 0.314790 0.304420
C208 C 0.981400 1.089530 0.333230
C209 C 2.137300 0.159390 0.359580
C210 C 0.857300 1.172480 0.249920
C211 C 2.057700 0.397820 0.222560
C212 C -0.137300 0.840610 0.640420
C213 C 1.897100 0.328820 0.192820
C214 C 1.776000 0.407170 0.106280
C215 C -0.094700 0.074870 0.904930
C216 C 1.630600 0.330290 0.080220
C217 C -0.630600 -0.330290 0.919780
C218 C 1.597500 0.175400 0.143370
C219 C 1.437000 0.090250 0.119810
C220 C -0.776000 -0.407170 0.893720
C221 C 0.018600 0.910470 0.666770
C222 C 1.159600 0.070970 0.026970
C223 C 1.094700 -0.074870 0.095070
C224 C -0.897100 -0.328820 0.807180
C225 C 1.062000 0.144040 -0.067300
C226 C -1.057700 -0.397820 0.777440
C227 C 0.938000 -0.144040 0.067300
C228 C 0.840400 -0.070970 -0.026970
C229 C 0.142700 0.827520 0.750080
C230 C 0.563000 -0.090250 -0.119810
C231 C 0.402500 -0.175400 -0.143370
C232 C 0.402500 0.824600 0.856630
C233 C 0.142700 -0.172480 -0.249920
C234 C 0.018600 -0.089530 -0.333230
C235 C -1.174700 -0.314790 0.695580
C236 C -0.137300 -0.159390 -0.359580
C237 C -0.174700 -0.314790 -0.304420
C238 C -1.137300 -0.159390 0.640420
C239 C -0.057700 -0.397820 -0.222560
C240 C -0.981400 -0.089530 0.666770
C241 C 0.102900 -0.328820 -0.192820
C242 C 0.224000 -0.407170 -0.106280
C243 C -0.857300 -0.172480 0.750080
C244 C 0.369400 -0.330290 -0.080220
C245 C 0.563000 0.909750 0.880190
C246 C -0.597500 -0.175400 0.856630
C247 C -0.437000 -0.090250 0.880190
C248 C 0.905300 0.074870 -0.095070
C249 C 0.840400 0.929030 0.973030
C250 C -0.159600 -0.070970 0.973030
C251 C 0.938000 0.855960 1.067300
C252 C 1.857300 0.172480 1.249920
C253 C 1.981400 0.089530 1.333230
C254 C -0.062000 -0.144040 1.067300
C255 C 2.174700 0.314790 1.304420
C256 C 0.062000 0.144040 0.932700
C257 C 2.137300 0.159390 1.359580
C258 C 0.094700 -0.074870 1.095070
C259 C 2.057700 0.397820 1.222560
C260 C 0.159600 0.070970 1.026970
C261 C 1.897100 0.328820 1.192820
C262 C 1.776000 0.407170 1.106280
C263 C 0.857300 0.172480 0.249920
C264 C 1.630600 0.330290 1.080220
C265 C 0.437000 0.090250 1.119810
C266 C 1.597500 0.175400 1.143370
C267 C 1.437000 0.090250 1.119810
C268 C 0.597500 0.175400 1.143370
C269 C 1.062000 1.144040 0.932700
C270 C 1.159600 0.070970 1.026970
C271 C 1.094700 -0.074870 1.095070
C272 C 0.630600 0.330290 1.080220
C273 C 1.062000 0.144040 0.932700
C274 C 0.776000 0.407170 1.106280
C275 C 0.938000 -0.144040 1.067300
C276 C 0.840400 -0.070970 0.973030
C277 C 0.981400 0.089530 0.333230
C278 C 0.563000 -0.090250 0.880190
C279 C 0.402500 -0.175400 0.856630
C280 C 1.094700 0.925130 1.095070
C281 C 0.142700 -0.172480 0.750080
C282 C 0.018600 -0.089530 0.666770
C283 C 0.897100 0.328820 1.192820
C284 C -0.137300 -0.159390 0.640420
C285 C -0.174700 -0.314790 0.695580
C286 C 1.057700 0.397820 1.222560
C287 C -0.057700 -0.397820 0.777440
C288 C 1.137300 0.159390 1.359580
C289 C 0.102900 -0.328820 0.807180
C290 C 0.224000 -0.407170 0.893720
C291 C 1.174700 0.314790 1.304420
C292 C 0.369400 -0.330290 0.919780
C293 C 0.981400 0.089530 1.333230
C294 C 0.857300 0.172480 1.249920
C295 C 1.159600 1.070970 1.026970
C296 C 0.905300 0.074870 0.904930
C297 C -0.094700 0.074870 -0.095070
C298 C -0.630600 -0.330290 -0.080220
C299 C 1.174700 0.314790 0.304420
C300 C 1.857300 1.172480 0.249920
C301 C 1.981400 1.089530 0.333230
C302 C -0.776000 -0.407170 -0.106280
C303 C 2.174700 1.314790 0.304420
C304 C -0.897100 -0.328820 -0.192820
C305 C 2.137300 1.159390 0.359580
C306 C -1.057700 -0.397820 -0.222560
C307 C 2.057700 1.397820 0.222560
C308 C -1.174700 -0.314790 -0.304420
C309 C 1.897100 1.328820 0.192820
C310 C 1.776000 1.407170 0.106280
C311 C -1.137300 -0.159390 -0.359580
C312 C 1.630600 1.330290 0.080220
C313 C -0.981400 -0.089530 -0.333230
C314 C 1.597500 1.175400 0.143370
C315 C 1.437000 1.090250 0.119810
C316 C -0.857300 -0.172480 -0.249920
C317 C 1.437000 1.090250 1.119810
C318 C 1.159600 1.070970 0.026970
C319 C 1.094700 0.925130 0.095070
C320 C 1.597500 1.175400 1.143370
C321 C 1.062000 1.144040 -0.067300
C322 C -0.597500 -0.175400 -0.143370
C323 C 0.938000 0.855960 0.067300
C324 C 0.840400 0.929030 -0.026970
C325 C 1.137300 0.159390 0.359580
C326 C 0.563000 0.909750 -0.119810
C327 C 0.402500 0.824600 -0.143370
C328 C 1.630600 1.330290 1.080220
C329 C 0.142700 0.827520 -0.249920
C330 C 0.018600 0.910470 -0.333230
C331 C -0.437000 -0.090250 -0.119810
C332 C -0.137300 0.840610 -0.359580
C333 C -0.174700 0.685210 -0.304420
C334 C 1.057700 0.397820 0.222560
C335 C -0.057700 0.602180 -0.222560
C336 C -0.159600 -0.070970 -0.026970
C337 C 0.102900 0.671180 -0.192820
C338 C 0.224000 0.592830 -0.106280
C339 C -0.062000 -0.144040 0.067300
C340 C 0.369400 0.669710 -0.080220
C341 C 0.062000 0.144040 -0.067300
C342 C 0.094700 -0.074870 0.095070
C343 C 0.159600 0.070970 0.026970
C344 C 0.905300 1.074870 -0.095070
C345 C 1.776000 1.407170 1.106280
C346 C 0.437000 0.090250 0.119810
C347 C 1.897100 1.328820 1.192820
C348 C 1.857300 1.172480 1.249920
C349 C 1.981400 1.089530 1.333230
C350 C 0.597500 0.175400 0.143370
C351 C 2.174700 1.314790 1.304420
C352 C 0.630600 0.330290 0.080220
C353 C 2.137300 1.159390 1.359580
C354 C 0.776000 0.407170 0.106280
C355 C 2.057700 1.397820 1.222560
C356 C 0.897100 0.328820 0.192820
N357 N 1.705000 1.098040 1.225390
N358 N 0.316650 0.155120 0.046220
N359 N -0.316650 -0.155120 -0.046220
N360 N 0.295000 0.901960 -0.225390
N361 N 0.683350 0.844880 -0.046220
N362 N -0.705000 -0.098040 -0.225390
N363 N 1.316650 1.155120 0.046220
N364 N 1.705000 1.098040 0.225390
N365 N 1.316650 1.155120 1.046220
N366 N 0.705000 0.098040 1.225390
N367 N 0.295000 -0.098040 0.774610
N368 N 0.683350 -0.155120 0.953780
N369 N 1.316650 0.155120 1.046220
N370 N 0.316650 0.155120 1.046220
N371 N 1.705000 0.098040 1.225390
N372 N -0.316650 -0.155120 0.953780
N373 N 0.683350 0.844880 0.953780
N374 N -0.705000 -0.098040 0.774610
N375 N 0.295000 -0.098040 -0.225390
N376 N 0.295000 0.901960 0.774610
N377 N 0.683350 -0.155120 -0.046220
N378 N 1.316650 0.155120 0.046220
N379 N 0.705000 0.098040 0.225390
N380 N 0.705000 1.098040 0.225390
N381 N 1.705000 0.098040 0.225390
N382 N 0.316650 1.155120 0.046220
N383 N -0.705000 0.901960 0.774610
N384 N 0.705000 1.098040 1.225390
N385 N -0.316650 0.844880 0.953780
N386 N 0.316650 1.155120 1.046220
N387 N -0.705000 0.901960 -0.225390
N388 N -0.316650 0.844880 -0.046220
Cl389 Cl 0.147710 0.348230 0.593930
Cl390 Cl 0.418220 0.764090 0.489150
Cl391 Cl 0.581780 0.235910 0.510850
Cl392 Cl 0.852290 0.651770 0.406070
Cl393 Cl 0.488440 0.648280 0.296720
Cl394 Cl 0.511560 0.351720 0.703280

#END
