
#######################################################################
#
#                 Cambridge Crystallographic Data Centre
#                                CCDC 
#
#######################################################################
#
# If this CIF has been generated from an entry in the Cambridge 
# Structural Database, then it will include bibliographic, chemical, 
# crystal, experimental, refinement or atomic coordinate data resulting 
# from the CCDC's data processing and validation procedures.
#
#######################################################################

data_KABBAT
_symmetry_cell_setting           monoclinic
_symmetry_space_group_name_H-M   'P 21/n'
_symmetry_Int_Tables_number      14
_space_group_name_Hall           '-P 2yn'
loop_
_symmetry_equiv_pos_site_id
_symmetry_equiv_pos_as_xyz
1 x,y,z
2 1/2-x,1/2+y,1/2-z
3 -x,-y,-z
4 1/2+x,1/2-y,1/2+z
_cell_length_a                   7.8824(7)
_cell_length_b                   13.5854(10)
_cell_length_c                   20.6072(16)
_cell_angle_alpha                90
_cell_angle_beta                 98.786(3)
_cell_angle_gamma                90
_cell_volume                     2180.84
loop_
_atom_site_label
_atom_site_type_symbol
_atom_site_fract_x
_atom_site_fract_y
_atom_site_fract_z
F1 F -0.2923(2) 0.27511(11) 0.01788(7)
C1 C -0.1659(3) 0.27682(15) 0.07060(10)
C2 C -0.0980(3) 0.18840(15) 0.09489(9)
H1 H -0.1356 0.1292 0.0751
C3 C 0.0264(2) 0.19041(13) 0.14911(9)
H2 H 0.0737 0.1317 0.1667
C4 C 0.0833(2) 0.27998(12) 0.17835(8)
C5 C 0.0107(2) 0.36644(12) 0.15111(9)
C6 C -0.1159(3) 0.36640(15) 0.09718(10)
H3 H -0.1652 0.4246 0.0796
C7 C 0.2098(2) 0.28823(12) 0.23554(8)
H4 H 0.2566 0.2311 0.2557
C8 C 0.2635(2) 0.37557(12) 0.26130(9)
C9 C 0.1913(2) 0.46672(12) 0.23036(9)
O1 O 0.06248(18) 0.45608(9) 0.17704(7)
O2 O 0.2282(2) 0.54958(9) 0.24598(7)
C10 C 0.3961(2) 0.38342(13) 0.32078(9)
O3 O 0.4721(2) 0.45593(10) 0.34030(8)
O4 O 0.42144(18) 0.29592(10) 0.35016(6)
C11 C 0.5527(3) 0.29238(18) 0.40710(11)
H5 H 0.5199 0.3324 0.4421
H6 H 0.6605 0.3171 0.3964
C12 C 0.5711(4) 0.1870(2) 0.42798(13)
H7 H 0.4672 0.1653 0.4425
H8 H 0.6651 0.1807 0.4633
H9 H 0.5929 0.1474 0.3916
F1 F 0.7923(2) 0.77511(11) 0.48212(7)
C1 C 0.6659(3) 0.77682(15) 0.42940(10)
C2 C 0.5980(3) 0.68840(15) 0.40511(9)
H1 H 0.6356 0.6292 0.4249
C3 C 0.4736(2) 0.69041(13) 0.35089(9)
H2 H 0.4263 0.6317 0.3333
C4 C 0.4167(2) 0.77998(12) 0.32165(8)
C5 C 0.4893(2) 0.86644(12) 0.34889(9)
C6 C 0.6159(3) 0.86640(15) 0.40282(10)
H3 H 0.6652 0.9246 0.4204
C7 C 0.2902(2) 0.78823(12) 0.26446(8)
H4 H 0.2434 0.7311 0.2443
C8 C 0.2365(2) 0.87557(12) 0.23870(9)
C9 C 0.3087(2) 0.96672(12) 0.26964(9)
O1 O 0.43752(18) 0.95608(9) 0.32296(7)
O2 O 0.2718(2) 1.04958(9) 0.25402(7)
C10 C 0.1039(2) 0.88342(13) 0.17922(9)
O3 O 0.0279(2) 0.95593(10) 0.15970(8)
O4 O 0.07856(18) 0.79592(10) 0.14984(6)
C11 C -0.0527(3) 0.79238(18) 0.09290(11)
H5 H -0.0199 0.8324 0.0579
H6 H -0.1605 0.8171 0.1036
C12 C -0.0711(4) 0.6870(2) 0.07202(13)
H7 H 0.0328 0.6653 0.0575
H8 H -0.1651 0.6807 0.0367
H9 H -0.0929 0.6474 0.1084
F1 F 1.2923(2) 0.72489(11) 0.98212(7)
C1 C 1.1659(3) 0.72318(15) 0.92940(10)
C2 C 1.0980(3) 0.81160(15) 0.90511(9)
H1 H 1.1356 0.8708 0.9249
C3 C 0.9736(2) 0.80959(13) 0.85089(9)
H2 H 0.9263 0.8683 0.8333
C4 C 0.9167(2) 0.72002(12) 0.82165(8)
C5 C 0.9893(2) 0.63356(12) 0.84889(9)
C6 C 1.1159(3) 0.63360(15) 0.90282(10)
H3 H 1.1652 0.5754 0.9204
C7 C 0.7902(2) 0.71177(12) 0.76446(8)
H4 H 0.7434 0.7689 0.7443
C8 C 0.7365(2) 0.62443(12) 0.73870(9)
C9 C 0.8087(2) 0.53328(12) 0.76964(9)
O1 O 0.93752(18) 0.54392(9) 0.82296(7)
O2 O 0.7718(2) 0.45042(9) 0.75402(7)
C10 C 0.6039(2) 0.61658(13) 0.67922(9)
O3 O 0.5279(2) 0.54407(10) 0.65970(8)
O4 O 0.57856(18) 0.70408(10) 0.64984(6)
C11 C 0.4473(3) 0.70762(18) 0.59290(11)
H5 H 0.4801 0.6676 0.5579
H6 H 0.3395 0.6829 0.6036
C12 C 0.4289(4) 0.8130(2) 0.57202(13)
H7 H 0.5328 0.8347 0.5575
H8 H 0.3349 0.8193 0.5367
H9 H 0.4071 0.8526 0.6084
F1 F 0.2077(2) 0.22489(11) 0.51788(7)
C1 C 0.3341(3) 0.22318(15) 0.57060(10)
C2 C 0.4020(3) 0.31160(15) 0.59489(9)
H1 H 0.3644 0.3708 0.5751
C3 C 0.5264(2) 0.30959(13) 0.64911(9)
H2 H 0.5737 0.3683 0.6667
C4 C 0.5833(2) 0.22002(12) 0.67835(8)
C5 C 0.5107(2) 0.13356(12) 0.65111(9)
C6 C 0.3841(3) 0.13360(15) 0.59718(10)
H3 H 0.3348 0.0754 0.5796
C7 C 0.7098(2) 0.21177(12) 0.73554(8)
H4 H 0.7566 0.2689 0.7557
C8 C 0.7635(2) 0.12443(12) 0.76130(9)
C9 C 0.6913(2) 0.03328(12) 0.73036(9)
O1 O 0.56248(18) 0.04392(9) 0.67704(7)
O2 O 0.7282(2) -0.04958(9) 0.74598(7)
C10 C 0.8961(2) 0.11658(13) 0.82078(9)
O3 O 0.9721(2) 0.04407(10) 0.84030(8)
O4 O 0.92144(18) 0.20408(10) 0.85016(6)
C11 C 1.0527(3) 0.20762(18) 0.90710(11)
H5 H 1.0199 0.1676 0.9421
H6 H 1.1605 0.1829 0.8964
C12 C 1.0711(4) 0.3130(2) 0.92798(13)
H7 H 0.9672 0.3347 0.9425
H8 H 1.1651 0.3193 0.9633
H9 H 1.0929 0.3526 0.8916
F2 F 1.2694(2) 0.52046(12) 0.49334(7)
C13 C 1.1487(3) 0.52377(17) 0.43949(10)
C14 C 1.0775(3) 0.43666(16) 0.41460(10)
H10 H 1.1103 0.3769 0.4348
C15 C 0.9563(3) 0.44041(14) 0.35899(9)
H11 H 0.9064 0.3825 0.3411
C16 C 0.9077(2) 0.53066(12) 0.32932(9)
C17 C 0.9847(2) 0.61589(13) 0.35602(9)
C18 C 1.1066(3) 0.61409(16) 0.41198(10)
H12 H 1.1576 0.6716 0.4301
C19 C 0.7840(2) 0.53945(12) 0.27073(9)
H13 H 0.7310 0.4831 0.2517
C20 C 0.7436(2) 0.62718(12) 0.24295(9)
C21 C 0.8264(3) 0.71727(13) 0.27163(10)
O5 O 0.94708(18) 0.70520(9) 0.32800(7)
O6 O 0.8037(2) 0.79982(9) 0.25177(8)
C22 C 0.6092(3) 0.63734(13) 0.18416(10)
O7 O 0.5407(2) 0.71079(11) 0.16436(9)
O8 O 0.56949(19) 0.54968(10) 0.15636(7)
C23 C 0.4274(3) 0.54964(18) 0.10297(11)
H14 H 0.4550 0.5891 0.0668
H15 H 0.3257 0.5770 0.1174
C24 C 0.3962(3) 0.4451(2) 0.08182(13)
H16 H 0.4933 0.4209 0.0636
H17 H 0.2954 0.4415 0.0492
H18 H 0.3798 0.4056 0.1190
F2 F 0.2306(2) 0.02046(12) 0.00666(7)
C13 C 0.3513(3) 0.02377(17) 0.06051(10)
C14 C 0.4225(3) -0.06334(16) 0.08540(10)
H10 H 0.3897 -0.1231 0.0652
C15 C 0.5437(3) -0.05959(14) 0.14101(9)
H11 H 0.5936 -0.1175 0.1589
C16 C 0.5923(2) 0.03066(12) 0.17068(9)
C17 C 0.5153(2) 0.11589(13) 0.14398(9)
C18 C 0.3934(3) 0.11409(16) 0.08802(10)
H12 H 0.3424 0.1716 0.0699
C19 C 0.7160(2) 0.03945(12) 0.22927(9)
H13 H 0.7690 -0.0169 0.2483
C20 C 0.7564(2) 0.12718(12) 0.25705(9)
C21 C 0.6736(3) 0.21727(13) 0.22837(10)
O5 O 0.55292(18) 0.20520(9) 0.17200(7)
O6 O 0.6963(2) 0.29982(9) 0.24823(8)
C22 C 0.8908(3) 0.13734(13) 0.31584(10)
O7 O 0.9593(2) 0.21079(11) 0.33564(9)
O8 O 0.93051(19) 0.04968(10) 0.34364(7)
C23 C 1.0726(3) 0.04964(18) 0.39703(11)
H14 H 1.0450 0.0891 0.4332
H15 H 1.1743 0.0770 0.3826
C24 C 1.1038(3) -0.0549(2) 0.41818(13)
H16 H 1.0067 -0.0791 0.4364
H17 H 1.2046 -0.0585 0.4508
H18 H 1.1202 -0.0944 0.3810
F2 F -0.2694(2) 0.47954(12) 0.50666(7)
C13 C -0.1487(3) 0.47623(17) 0.56051(10)
C14 C -0.0775(3) 0.56334(16) 0.58540(10)
H10 H -0.1103 0.6231 0.5652
C15 C 0.0437(3) 0.55959(14) 0.64101(9)
H11 H 0.0936 0.6175 0.6589
C16 C 0.0923(2) 0.46934(12) 0.67068(9)
C17 C 0.0153(2) 0.38411(13) 0.64398(9)
C18 C -0.1066(3) 0.38591(16) 0.58802(10)
H12 H -0.1576 0.3284 0.5699
C19 C 0.2160(2) 0.46055(12) 0.72927(9)
H13 H 0.2690 0.5169 0.7483
C20 C 0.2564(2) 0.37282(12) 0.75705(9)
C21 C 0.1736(3) 0.28273(13) 0.72837(10)
O5 O 0.05292(18) 0.29480(9) 0.67200(7)
O6 O 0.1963(2) 0.20018(9) 0.74823(8)
C22 C 0.3908(3) 0.36266(13) 0.81584(10)
O7 O 0.4593(2) 0.28921(11) 0.83564(9)
O8 O 0.43051(19) 0.45032(10) 0.84364(7)
C23 C 0.5726(3) 0.45036(18) 0.89703(11)
H14 H 0.5450 0.4109 0.9332
H15 H 0.6743 0.4230 0.8826
C24 C 0.6038(3) 0.5549(2) 0.91818(13)
H16 H 0.5067 0.5791 0.9364
H17 H 0.7046 0.5585 0.9508
H18 H 0.6202 0.5944 0.8810
F2 F 0.7694(2) 0.97954(12) 0.99334(7)
C13 C 0.6487(3) 0.97623(17) 0.93949(10)
C14 C 0.5775(3) 1.06334(16) 0.91460(10)
H10 H 0.6103 1.1231 0.9348
C15 C 0.4563(3) 1.05959(14) 0.85899(9)
H11 H 0.4064 1.1175 0.8411
C16 C 0.4077(2) 0.96934(12) 0.82932(9)
C17 C 0.4847(2) 0.88411(13) 0.85602(9)
C18 C 0.6066(3) 0.88591(16) 0.91198(10)
H12 H 0.6576 0.8284 0.9301
C19 C 0.2840(2) 0.96055(12) 0.77073(9)
H13 H 0.2310 1.0169 0.7517
C20 C 0.2436(2) 0.87282(12) 0.74295(9)
C21 C 0.3264(3) 0.78273(13) 0.77163(10)
O5 O 0.44708(18) 0.79480(9) 0.82800(7)
O6 O 0.3037(2) 0.70018(9) 0.75177(8)
C22 C 0.1092(3) 0.86266(13) 0.68416(10)
O7 O 0.0407(2) 0.78921(11) 0.66436(9)
O8 O 0.06949(19) 0.95032(10) 0.65636(7)
C23 C -0.0726(3) 0.95036(18) 0.60297(11)
H14 H -0.0450 0.9109 0.5668
H15 H -0.1743 0.9230 0.6174
C24 C -0.1038(3) 1.0549(2) 0.58182(13)
H16 H -0.0067 1.0791 0.5636
H17 H -0.2046 1.0585 0.5492
H18 H -0.1202 1.0944 0.6190

#END
