./KABBAT_from_xyz.cif_generated_by_CrystalShift
_symmetry_cell_setting triclinic
_symmetry_space_group_name_H-M 'P 1'
loop_
_symmetry_equiv_pos_site_id
_symmetry_equiv_pos_as_xyz
1 x,y,z
_cell_length_a 7.882400
_cell_length_b 13.585400
_cell_length_c 20.607200
_cell_angle_alpha 90.000000
_cell_angle_beta 98.786000
_cell_angle_gamma 90.000000
_cell_volume 2180.839131
loop_
_atom_site_label
_atom_site_type_symbol
_atom_site_fract_x
_atom_site_fract_y
_atom_site_fract_z
F1 F -0.292300 0.275110 0.017880
C2 C -0.165900 0.276820 0.070600
C3 C -0.098000 0.188400 0.094890
H4 H -0.135600 0.129200 0.075100
C5 C 0.026400 0.190410 0.149110
H6 H 0.073700 0.131700 0.166700
C7 C 0.083300 0.279980 0.178350
C8 C 0.010700 0.366440 0.151110
C9 C -0.115900 0.366400 0.097180
H10 H -0.165200 0.424600 0.079600
C11 C 0.209800 0.288230 0.235540
H12 H 0.256600 0.231100 0.255700
C13 C 0.263500 0.375570 0.261300
C14 C 0.191300 0.466720 0.230360
O15 O 0.062480 0.456080 0.177040
O16 O 0.228200 0.549580 0.245980
C17 C 0.396100 0.383420 0.320780
O18 O 0.472100 0.455930 0.340300
O19 O 0.421440 0.295920 0.350160
C20 C 0.552700 0.292380 0.407100
H21 H 0.519900 0.332400 0.442100
H22 H 0.660500 0.317100 0.396400
C23 C 0.571100 0.187000 0.427980
H24 H 0.467200 0.165300 0.442500
H25 H 0.665100 0.180700 0.463300
H26 H 0.592900 0.147400 0.391600
F27 F 0.792300 0.775110 0.482120
C28 C 0.665900 0.776820 0.429400
C29 C 0.598000 0.688400 0.405110
H30 H 0.635600 0.629200 0.424900
C31 C 0.473600 0.690410 0.350890
H32 H 0.426300 0.631700 0.333300
C33 C 0.416700 0.779980 0.321650
C34 C 0.489300 0.866440 0.348890
C35 C 0.615900 0.866400 0.402820
H36 H 0.665200 0.924600 0.420400
C37 C 0.290200 0.788230 0.264460
H38 H 0.243400 0.731100 0.244300
C39 C 0.236500 0.875570 0.238700
C40 C 0.308700 0.966720 0.269640
O41 O 0.437520 0.956080 0.322960
O42 O 0.271800 1.049580 0.254020
C43 C 0.103900 0.883420 0.179220
O44 O 0.027900 0.955930 0.159700
O45 O 0.078560 0.795920 0.149840
C46 C -0.052700 0.792380 0.092900
H47 H -0.019900 0.832400 0.057900
H48 H -0.160500 0.817100 0.103600
C49 C -0.071100 0.687000 0.072020
H50 H 0.032800 0.665300 0.057500
H51 H -0.165100 0.680700 0.036700
H52 H -0.092900 0.647400 0.108400
F53 F 1.292300 0.724890 0.982120
C54 C 1.165900 0.723180 0.929400
C55 C 1.098000 0.811600 0.905110
H56 H 1.135600 0.870800 0.924900
C57 C 0.973600 0.809590 0.850890
H58 H 0.926300 0.868300 0.833300
C59 C 0.916700 0.720020 0.821650
C60 C 0.989300 0.633560 0.848890
C61 C 1.115900 0.633600 0.902820
H62 H 1.165200 0.575400 0.920400
C63 C 0.790200 0.711770 0.764460
H64 H 0.743400 0.768900 0.744300
C65 C 0.736500 0.624430 0.738700
C66 C 0.808700 0.533280 0.769640
O67 O 0.937520 0.543920 0.822960
O68 O 0.771800 0.450420 0.754020
C69 C 0.603900 0.616580 0.679220
O70 O 0.527900 0.544070 0.659700
O71 O 0.578560 0.704080 0.649840
C72 C 0.447300 0.707620 0.592900
H73 H 0.480100 0.667600 0.557900
H74 H 0.339500 0.682900 0.603600
C75 C 0.428900 0.813000 0.572020
H76 H 0.532800 0.834700 0.557500
H77 H 0.334900 0.819300 0.536700
H78 H 0.407100 0.852600 0.608400
F79 F 0.207700 0.224890 0.517880
C80 C 0.334100 0.223180 0.570600
C81 C 0.402000 0.311600 0.594890
H82 H 0.364400 0.370800 0.575100
C83 C 0.526400 0.309590 0.649110
H84 H 0.573700 0.368300 0.666700
C85 C 0.583300 0.220020 0.678350
C86 C 0.510700 0.133560 0.651110
C87 C 0.384100 0.133600 0.597180
H88 H 0.334800 0.075400 0.579600
C89 C 0.709800 0.211770 0.735540
H90 H 0.756600 0.268900 0.755700
C91 C 0.763500 0.124430 0.761300
C92 C 0.691300 0.033280 0.730360
O93 O 0.562480 0.043920 0.677040
O94 O 0.728200 -0.049580 0.745980
C95 C 0.896100 0.116580 0.820780
O96 O 0.972100 0.044070 0.840300
O97 O 0.921440 0.204080 0.850160
C98 C 1.052700 0.207620 0.907100
H99 H 1.019900 0.167600 0.942100
H100 H 1.160500 0.182900 0.896400
C101 C 1.071100 0.313000 0.927980
H102 H 0.967200 0.334700 0.942500
H103 H 1.165100 0.319300 0.963300
H104 H 1.092900 0.352600 0.891600
F105 F 1.269400 0.520460 0.493340
C106 C 1.148700 0.523770 0.439490
C107 C 1.077500 0.436660 0.414600
H108 H 1.110300 0.376900 0.434800
C109 C 0.956300 0.440410 0.358990
H110 H 0.906400 0.382500 0.341100
C111 C 0.907700 0.530660 0.329320
C112 C 0.984700 0.615890 0.356020
C113 C 1.106600 0.614090 0.411980
H114 H 1.157600 0.671600 0.430100
C115 C 0.784000 0.539450 0.270730
H116 H 0.731000 0.483100 0.251700
C117 C 0.743600 0.627180 0.242950
C118 C 0.826400 0.717270 0.271630
O119 O 0.947080 0.705200 0.328000
O120 O 0.803700 0.799820 0.251770
C121 C 0.609200 0.637340 0.184160
O122 O 0.540700 0.710790 0.164360
O123 O 0.569490 0.549680 0.156360
C124 C 0.427400 0.549640 0.102970
H125 H 0.455000 0.589100 0.066800
H126 H 0.325700 0.577000 0.117400
C127 C 0.396200 0.445100 0.081820
H128 H 0.493300 0.420900 0.063600
H129 H 0.295400 0.441500 0.049200
H130 H 0.379800 0.405600 0.119000
F131 F 0.230600 0.020460 0.006660
C132 C 0.351300 0.023770 0.060510
C133 C 0.422500 -0.063340 0.085400
H134 H 0.389700 -0.123100 0.065200
C135 C 0.543700 -0.059590 0.141010
H136 H 0.593600 -0.117500 0.158900
C137 C 0.592300 0.030660 0.170680
C138 C 0.515300 0.115890 0.143980
C139 C 0.393400 0.114090 0.088020
H140 H 0.342400 0.171600 0.069900
C141 C 0.716000 0.039450 0.229270
H142 H 0.769000 -0.016900 0.248300
C143 C 0.756400 0.127180 0.257050
C144 C 0.673600 0.217270 0.228370
O145 O 0.552920 0.205200 0.172000
O146 O 0.696300 0.299820 0.248230
C147 C 0.890800 0.137340 0.315840
O148 O 0.959300 0.210790 0.335640
O149 O 0.930510 0.049680 0.343640
C150 C 1.072600 0.049640 0.397030
H151 H 1.045000 0.089100 0.433200
H152 H 1.174300 0.077000 0.382600
C153 C 1.103800 -0.054900 0.418180
H154 H 1.006700 -0.079100 0.436400
H155 H 1.204600 -0.058500 0.450800
H156 H 1.120200 -0.094400 0.381000
F157 F -0.269400 0.479540 0.506660
C158 C -0.148700 0.476230 0.560510
C159 C -0.077500 0.563340 0.585400
H160 H -0.110300 0.623100 0.565200
C161 C 0.043700 0.559590 0.641010
H162 H 0.093600 0.617500 0.658900
C163 C 0.092300 0.469340 0.670680
C164 C 0.015300 0.384110 0.643980
C165 C -0.106600 0.385910 0.588020
H166 H -0.157600 0.328400 0.569900
C167 C 0.216000 0.460550 0.729270
H168 H 0.269000 0.516900 0.748300
C169 C 0.256400 0.372820 0.757050
C170 C 0.173600 0.282730 0.728370
O171 O 0.052920 0.294800 0.672000
O172 O 0.196300 0.200180 0.748230
C173 C 0.390800 0.362660 0.815840
O174 O 0.459300 0.289210 0.835640
O175 O 0.430510 0.450320 0.843640
C176 C 0.572600 0.450360 0.897030
H177 H 0.545000 0.410900 0.933200
H178 H 0.674300 0.423000 0.882600
C179 C 0.603800 0.554900 0.918180
H180 H 0.506700 0.579100 0.936400
H181 H 0.704600 0.558500 0.950800
H182 H 0.620200 0.594400 0.881000
F183 F 0.769400 0.979540 0.993340
C184 C 0.648700 0.976230 0.939490
C185 C 0.577500 1.063340 0.914600
H186 H 0.610300 1.123100 0.934800
C187 C 0.456300 1.059590 0.858990
H188 H 0.406400 1.117500 0.841100
C189 C 0.407700 0.969340 0.829320
C190 C 0.484700 0.884110 0.856020
C191 C 0.606600 0.885910 0.911980
H192 H 0.657600 0.828400 0.930100
C193 C 0.284000 0.960550 0.770730
H194 H 0.231000 1.016900 0.751700
C195 C 0.243600 0.872820 0.742950
C196 C 0.326400 0.782730 0.771630
O197 O 0.447080 0.794800 0.828000
O198 O 0.303700 0.700180 0.751770
C199 C 0.109200 0.862660 0.684160
O200 O 0.040700 0.789210 0.664360
O201 O 0.069490 0.950320 0.656360
C202 C -0.072600 0.950360 0.602970
H203 H -0.045000 0.910900 0.566800
H204 H -0.174300 0.923000 0.617400
C205 C -0.103800 1.054900 0.581820
H206 H -0.006700 1.079100 0.563600
H207 H -0.204600 1.058500 0.549200
H208 H -0.120200 1.094400 0.619000

#END
