./KABBIB_from_xyz.cif_generated_by_CrystalShift
_symmetry_cell_setting triclinic
_symmetry_space_group_name_H-M 'P 1'
loop_
_symmetry_equiv_pos_site_id
_symmetry_equiv_pos_as_xyz
1 x,y,z
_cell_length_a 6.769700
_cell_length_b 18.410800
_cell_length_c 13.043100
_cell_angle_alpha 90.000000
_cell_angle_beta 99.042000
_cell_angle_gamma 90.000000
_cell_volume 1605.433438
loop_
_atom_site_label
_atom_site_type_symbol
_atom_site_fract_x
_atom_site_fract_y
_atom_site_fract_z
Se1 Se 0.645280 0.759420 0.497670
O2 O 0.167300 0.511100 0.805600
C3 C 0.244000 0.522800 0.730300
O4 O 0.217200 0.546920 0.465600
N5 N 0.155000 0.515000 0.629100
H6 H 0.040000 0.497000 0.610000
N7 N 0.450600 0.560160 0.614600
C8 C 0.272800 0.541800 0.559300
C9 C 0.586800 0.619700 0.594000
H10 H 0.692500 0.600900 0.557800
C11 C 0.746200 0.554800 0.922700
H12 H 0.777800 0.552600 0.997800
H13 H 0.869600 0.563200 0.895400
C14 C 0.655300 0.482700 0.881500
H15 H 0.749600 0.443700 0.902000
H16 H 0.535200 0.473100 0.911200
C17 C 0.524600 0.620200 0.774200
H18 H 0.410200 0.653500 0.762800
C19 C 0.918300 0.689200 0.381600
H20 H 1.003400 0.687600 0.444900
C21 C 0.980700 0.662400 0.293300
H22 H 1.108900 0.643300 0.297400
C23 C 0.859100 0.663500 0.201400
H24 H 0.903000 0.644500 0.142900
C25 C 0.673000 0.692200 0.193400
H26 H 0.589700 0.693100 0.129500
C27 C 0.607900 0.719900 0.280100
H28 H 0.480600 0.739900 0.274800
C29 C 0.732000 0.718000 0.375800
C30 C 0.473600 0.680600 0.531500
H31 H 0.375400 0.700300 0.570700
H32 H 0.401900 0.660600 0.467500
C33 C 0.458000 0.546800 0.725600
C34 C 0.604200 0.485100 0.764000
H35 H 0.545200 0.439100 0.739200
H36 H 0.726200 0.491500 0.734800
C37 C 0.602300 0.617100 0.891200
H38 H 0.669200 0.662500 0.912400
H39 H 0.489200 0.612400 0.928100
C40 C 0.675900 0.644300 0.705000
H41 H 0.804800 0.621500 0.727100
H42 H 0.693000 0.696600 0.707700
Se43 Se 0.854720 0.259420 1.002330
O44 O 1.332700 0.011100 0.694400
C45 C 1.256000 0.022800 0.769700
O46 O 1.282800 0.046920 1.034400
N47 N 1.345000 0.015000 0.870900
H48 H 1.460000 -0.003000 0.890000
N49 N 1.049400 0.060160 0.885400
C50 C 1.227200 0.041800 0.940700
C51 C 0.913200 0.119700 0.906000
H52 H 0.807500 0.100900 0.942200
C53 C 0.753800 0.054800 0.577300
H54 H 0.722200 0.052600 0.502200
H55 H 0.630400 0.063200 0.604600
C56 C 0.844700 -0.017300 0.618500
H57 H 0.750400 -0.056300 0.598000
H58 H 0.964800 -0.026900 0.588800
C59 C 0.975400 0.120200 0.725800
H60 H 1.089800 0.153500 0.737200
C61 C 0.581700 0.189200 1.118400
H62 H 0.496600 0.187600 1.055100
C63 C 0.519300 0.162400 1.206700
H64 H 0.391100 0.143300 1.202600
C65 C 0.640900 0.163500 1.298600
H66 H 0.597000 0.144500 1.357100
C67 C 0.827000 0.192200 1.306600
H68 H 0.910300 0.193100 1.370500
C69 C 0.892100 0.219900 1.219900
H70 H 1.019400 0.239900 1.225200
C71 C 0.768000 0.218000 1.124200
C72 C 1.026400 0.180600 0.968500
H73 H 1.124600 0.200300 0.929300
H74 H 1.098100 0.160600 1.032500
C75 C 1.042000 0.046800 0.774400
C76 C 0.895800 -0.014900 0.736000
H77 H 0.954800 -0.060900 0.760800
H78 H 0.773800 -0.008500 0.765200
C79 C 0.897700 0.117100 0.608800
H80 H 0.830800 0.162500 0.587600
H81 H 1.010800 0.112400 0.571900
C82 C 0.824100 0.144300 0.795000
H83 H 0.695200 0.121500 0.772900
H84 H 0.807000 0.196600 0.792300
Se85 Se 0.354720 0.240580 0.502330
O86 O 0.832700 0.488900 0.194400
C87 C 0.756000 0.477200 0.269700
O88 O 0.782800 0.453080 0.534400
N89 N 0.845000 0.485000 0.370900
H90 H 0.960000 0.503000 0.390000
N91 N 0.549400 0.439840 0.385400
C92 C 0.727200 0.458200 0.440700
C93 C 0.413200 0.380300 0.406000
H94 H 0.307500 0.399100 0.442200
C95 C 0.253800 0.445200 0.077300
H96 H 0.222200 0.447400 0.002200
H97 H 0.130400 0.436800 0.104600
C98 C 0.344700 0.517300 0.118500
H99 H 0.250400 0.556300 0.098000
H100 H 0.464800 0.526900 0.088800
C101 C 0.475400 0.379800 0.225800
H102 H 0.589800 0.346500 0.237200
C103 C 0.081700 0.310800 0.618400
H104 H -0.003400 0.312400 0.555100
C105 C 0.019300 0.337600 0.706700
H106 H -0.108900 0.356700 0.702600
C107 C 0.140900 0.336500 0.798600
H108 H 0.097000 0.355500 0.857100
C109 C 0.327000 0.307800 0.806600
H110 H 0.410300 0.306900 0.870500
C111 C 0.392100 0.280100 0.719900
H112 H 0.519400 0.260100 0.725200
C113 C 0.268000 0.282000 0.624200
C114 C 0.526400 0.319400 0.468500
H115 H 0.624600 0.299700 0.429300
H116 H 0.598100 0.339400 0.532500
C117 C 0.542000 0.453200 0.274400
C118 C 0.395800 0.514900 0.236000
H119 H 0.454800 0.560900 0.260800
H120 H 0.273800 0.508500 0.265200
C121 C 0.397700 0.382900 0.108800
H122 H 0.330800 0.337500 0.087600
H123 H 0.510800 0.387600 0.071900
C124 C 0.324100 0.355700 0.295000
H125 H 0.195200 0.378500 0.272900
H126 H 0.307000 0.303400 0.292300
Se127 Se 0.145280 0.740580 -0.002330
O128 O -0.332700 0.988900 0.305600
C129 C -0.256000 0.977200 0.230300
O130 O -0.282800 0.953080 -0.034400
N131 N -0.345000 0.985000 0.129100
H132 H -0.460000 1.003000 0.110000
N133 N -0.049400 0.939840 0.114600
C134 C -0.227200 0.958200 0.059300
C135 C 0.086800 0.880300 0.094000
H136 H 0.192500 0.899100 0.057800
C137 C 0.246200 0.945200 0.422700
H138 H 0.277800 0.947400 0.497800
H139 H 0.369600 0.936800 0.395400
C140 C 0.155300 1.017300 0.381500
H141 H 0.249600 1.056300 0.402000
H142 H 0.035200 1.026900 0.411200
C143 C 0.024600 0.879800 0.274200
H144 H -0.089800 0.846500 0.262800
C145 C 0.418300 0.810800 -0.118400
H146 H 0.503400 0.812400 -0.055100
C147 C 0.480700 0.837600 -0.206700
H148 H 0.608900 0.856700 -0.202600
C149 C 0.359100 0.836500 -0.298600
H150 H 0.403000 0.855500 -0.357100
C151 C 0.173000 0.807800 -0.306600
H152 H 0.089700 0.806900 -0.370500
C153 C 0.107900 0.780100 -0.219900
H154 H -0.019400 0.760100 -0.225200
C155 C 0.232000 0.782000 -0.124200
C156 C -0.026400 0.819400 0.031500
H157 H -0.124600 0.799700 0.070700
H158 H -0.098100 0.839400 -0.032500
C159 C -0.042000 0.953200 0.225600
C160 C 0.104200 1.014900 0.264000
H161 H 0.045200 1.060900 0.239200
H162 H 0.226200 1.008500 0.234800
C163 C 0.102300 0.882900 0.391200
H164 H 0.169200 0.837500 0.412400
H165 H -0.010800 0.887600 0.428100
C166 C 0.175900 0.855700 0.205000
H167 H 0.304800 0.878500 0.227100
H168 H 0.193000 0.803400 0.207700

#END
