
#######################################################################
#
#                 Cambridge Crystallographic Data Centre
#                                CCDC 
#
#######################################################################
#
# If this CIF has been generated from an entry in the Cambridge 
# Structural Database, then it will include bibliographic, chemical, 
# crystal, experimental, refinement or atomic coordinate data resulting 
# from the CCDC's data processing and validation procedures.
#
#######################################################################

data_KABBUK
_symmetry_cell_setting           monoclinic
_symmetry_space_group_name_H-M   'P 21/c'
_symmetry_Int_Tables_number      14
_space_group_name_Hall           '-P 2ybc'
loop_
_symmetry_equiv_pos_site_id
_symmetry_equiv_pos_as_xyz
1 x,y,z
2 -x,1/2+y,1/2-z
3 -x,-y,-z
4 x,1/2-y,1/2+z
_cell_length_a                   7.3394(1)
_cell_length_b                   8.5719(2)
_cell_length_c                   23.0617(5)
_cell_angle_alpha                90
_cell_angle_beta                 96.466(1)
_cell_angle_gamma                90
_cell_volume                     1441.64
loop_
_atom_site_label
_atom_site_type_symbol
_atom_site_fract_x
_atom_site_fract_y
_atom_site_fract_z
W1 W 0.4622(1) 0.2602(1) 0.3841(1)
S1 S 0.5913(2) -0.0060(2) 0.3658(1)
C1 C 0.5658(17) 0.4590(11) 0.4169(6)
O1 O 0.6280(11) 0.5743(7) 0.4357(4)
C3 C 0.6689(5) 0.2986(5) 0.3375(2)
O3 O 0.7853(4) 0.3217(4) 0.3084(1)
C4 C 0.5665(5) 0.1947(4) 0.4645(2)
O4 O 0.6207(4) 0.1555(3) 0.5105(1)
C5 C 0.1824(5) 0.3924(4) 0.3860(2)
C6 C 0.1479(5) 0.2347(4) 0.4001(2)
C7 C 0.1757(5) 0.1406(4) 0.3513(2)
C8 C 0.2319(5) 0.2392(4) 0.3062(2)
C9 C 0.2349(5) 0.3962(4) 0.3274(2)
C10 C 0.1437(6) 0.5331(5) 0.4208(2)
C11 C 0.0762(6) 0.1797(6) 0.4548(2)
C12 C 0.1334(6) -0.0299(4) 0.3450(2)
C13 C 0.2616(6) 0.1887(5) 0.2456(2)
C14 C 0.2646(5) 0.5406(5) 0.2929(2)
H1 H 0.5680(9) -0.0780(80) 0.4000(30)
H2 H 0.0141 0.5615 0.4124
H3 H 0.2204 0.6200 0.4104
H4 H 0.1711 0.5099 0.4625
H5 H -0.0582 0.1811 0.4494
H6 H 0.1206 0.2489 0.4872
H7 H 0.1192 0.0732 0.4637
H8 H 0.0036 -0.0437 0.3306
H9 H 0.1596 -0.0811 0.3830
H10 H 0.2095 -0.0764 0.3172
H11 H 0.1442 0.1893 0.2207
H12 H 0.3131 0.0832 0.2468
H13 H 0.3468 0.2609 0.2296
H14 H 0.1471 0.5759 0.2727
H15 H 0.3494 0.5174 0.2641
H16 H 0.3167 0.6228 0.3192
W1 W 0.5378(1) 0.7602(1) 0.1159(1)
S1 S 0.4087(2) 0.4940(2) 0.1342(1)
C1 C 0.4342(17) 0.9590(11) 0.0831(6)
O1 O 0.3720(11) 1.0743(7) 0.0643(4)
C3 C 0.3311(5) 0.7986(5) 0.1625(2)
O3 O 0.2147(4) 0.8217(4) 0.1916(1)
C4 C 0.4335(5) 0.6947(4) 0.0355(2)
O4 O 0.3793(4) 0.6555(3) -0.0105(1)
C5 C 0.8176(5) 0.8924(4) 0.1140(2)
C6 C 0.8521(5) 0.7347(4) 0.0999(2)
C7 C 0.8243(5) 0.6406(4) 0.1487(2)
C8 C 0.7681(5) 0.7392(4) 0.1938(2)
C9 C 0.7651(5) 0.8962(4) 0.1726(2)
C10 C 0.8563(6) 1.0331(5) 0.0792(2)
C11 C 0.9238(6) 0.6797(6) 0.0452(2)
C12 C 0.8666(6) 0.4701(4) 0.1550(2)
C13 C 0.7384(6) 0.6887(5) 0.2544(2)
C14 C 0.7354(5) 1.0406(5) 0.2071(2)
H1 H 0.4320(9) 0.4220(80) 0.1000(30)
H2 H 0.9859 1.0615 0.0876
H3 H 0.7796 1.1200 0.0896
H4 H 0.8289 1.0099 0.0375
H5 H 1.0582 0.6811 0.0506
H6 H 0.8794 0.7489 0.0128
H7 H 0.8808 0.5732 0.0363
H8 H 0.9964 0.4563 0.1694
H9 H 0.8404 0.4189 0.1170
H10 H 0.7905 0.4236 0.1828
H11 H 0.8558 0.6893 0.2793
H12 H 0.6869 0.5832 0.2532
H13 H 0.6532 0.7609 0.2704
H14 H 0.8529 1.0759 0.2273
H15 H 0.6506 1.0174 0.2359
H16 H 0.6833 1.1228 0.1808
W1 W 0.5378(1) 0.7398(1) 0.6159(1)
S1 S 0.4087(2) 1.0060(2) 0.6342(1)
C1 C 0.4342(17) 0.5410(11) 0.5831(6)
O1 O 0.3720(11) 0.4257(7) 0.5643(4)
C3 C 0.3311(5) 0.7014(5) 0.6625(2)
O3 O 0.2147(4) 0.6783(4) 0.6916(1)
C4 C 0.4335(5) 0.8053(4) 0.5355(2)
O4 O 0.3793(4) 0.8445(3) 0.4895(1)
C5 C 0.8176(5) 0.6076(4) 0.6140(2)
C6 C 0.8521(5) 0.7653(4) 0.5999(2)
C7 C 0.8243(5) 0.8594(4) 0.6487(2)
C8 C 0.7681(5) 0.7608(4) 0.6938(2)
C9 C 0.7651(5) 0.6038(4) 0.6726(2)
C10 C 0.8563(6) 0.4669(5) 0.5792(2)
C11 C 0.9238(6) 0.8203(6) 0.5452(2)
C12 C 0.8666(6) 1.0299(4) 0.6550(2)
C13 C 0.7384(6) 0.8113(5) 0.7544(2)
C14 C 0.7354(5) 0.4594(5) 0.7071(2)
H1 H 0.4320(9) 1.0780(80) 0.6000(30)
H2 H 0.9859 0.4385 0.5876
H3 H 0.7796 0.3800 0.5896
H4 H 0.8289 0.4901 0.5375
H5 H 1.0582 0.8189 0.5506
H6 H 0.8794 0.7511 0.5128
H7 H 0.8808 0.9268 0.5363
H8 H 0.9964 1.0437 0.6694
H9 H 0.8404 1.0811 0.6170
H10 H 0.7905 1.0764 0.6828
H11 H 0.8558 0.8107 0.7793
H12 H 0.6869 0.9168 0.7532
H13 H 0.6532 0.7391 0.7704
H14 H 0.8529 0.4241 0.7273
H15 H 0.6506 0.4826 0.7359
H16 H 0.6833 0.3772 0.6808
W1 W 0.4622(1) 0.2398(1) 0.8841(1)
S1 S 0.5913(2) 0.5060(2) 0.8658(1)
C1 C 0.5658(17) 0.0410(11) 0.9169(6)
O1 O 0.6280(11) -0.0743(7) 0.9357(4)
C3 C 0.6689(5) 0.2014(5) 0.8375(2)
O3 O 0.7853(4) 0.1783(4) 0.8084(1)
C4 C 0.5665(5) 0.3053(4) 0.9645(2)
O4 O 0.6207(4) 0.3445(3) 1.0105(1)
C5 C 0.1824(5) 0.1076(4) 0.8860(2)
C6 C 0.1479(5) 0.2653(4) 0.9001(2)
C7 C 0.1757(5) 0.3594(4) 0.8513(2)
C8 C 0.2319(5) 0.2608(4) 0.8062(2)
C9 C 0.2349(5) 0.1038(4) 0.8274(2)
C10 C 0.1437(6) -0.0331(5) 0.9208(2)
C11 C 0.0762(6) 0.3203(6) 0.9548(2)
C12 C 0.1334(6) 0.5299(4) 0.8450(2)
C13 C 0.2616(6) 0.3113(5) 0.7456(2)
C14 C 0.2646(5) -0.0406(5) 0.7929(2)
H1 H 0.5680(9) 0.5780(80) 0.9000(30)
H2 H 0.0141 -0.0615 0.9124
H3 H 0.2204 -0.1200 0.9104
H4 H 0.1711 -0.0099 0.9625
H5 H -0.0582 0.3189 0.9494
H6 H 0.1206 0.2511 0.9872
H7 H 0.1192 0.4268 0.9637
H8 H 0.0036 0.5437 0.8306
H9 H 0.1596 0.5811 0.8830
H10 H 0.2095 0.5764 0.8172
H11 H 0.1442 0.3107 0.7207
H12 H 0.3131 0.4168 0.7468
H13 H 0.3468 0.2391 0.7296
H14 H 0.1471 -0.0759 0.7727
H15 H 0.3494 -0.0174 0.7641
H16 H 0.3167 -0.1228 0.8192
S2? S 0.5997(8) 0.5127(5) 0.4246(3)
C2? C 0.5550(20) 0.0464(12) 0.3732(8)
O2? O 0.6090(18) -0.0780(8) 0.3670(6)
S2? S 0.4003(8) 1.0127(5) 0.0754(3)
C2? C 0.4450(20) 0.5464(12) 0.1268(8)
O2? O 0.3910(18) 0.4220(8) 0.1330(6)
S2? S 0.4003(8) 0.4873(5) 0.5754(3)
C2? C 0.4450(20) 0.9536(12) 0.6268(8)
O2? O 0.3910(18) 1.0780(8) 0.6330(6)
S2? S 0.5997(8) -0.0127(5) 0.9246(3)
C2? C 0.5550(20) 0.4536(12) 0.8732(8)
O2? O 0.6090(18) 0.5780(8) 0.8670(6)

#END
