
#######################################################################
#
#                 Cambridge Crystallographic Data Centre
#                                CCDC 
#
#######################################################################
#
# If this CIF has been generated from an entry in the Cambridge 
# Structural Database, then it will include bibliographic, chemical, 
# crystal, experimental, refinement or atomic coordinate data resulting 
# from the CCDC's data processing and validation procedures.
#
#######################################################################

data_KABCEY
_symmetry_cell_setting           monoclinic
_symmetry_space_group_name_H-M   'C 2/c'
_symmetry_Int_Tables_number      15
_space_group_name_Hall           '-C 2yn'
loop_
_symmetry_equiv_pos_site_id
_symmetry_equiv_pos_as_xyz
1 x,y,z
2 -x,y,1/2-z
3 1/2+x,1/2+y,z
4 1/2-x,1/2+y,1/2-z
5 -x,-y,-z
6 x,-y,1/2+z
7 1/2-x,1/2-y,-z
8 1/2+x,1/2-y,1/2+z
_cell_length_a                   18.5685(5)
_cell_length_b                   6.67667(14)
_cell_length_c                   13.8200(4)
_cell_angle_alpha                90
_cell_angle_beta                 108.928(3)
_cell_angle_gamma                90
_cell_volume                     1620.7
loop_
_atom_site_label
_atom_site_type_symbol
_atom_site_fract_x
_atom_site_fract_y
_atom_site_fract_z
O1 O 0.72837(6) 0.07735(15) 0.41221(9)
O2 O 0.74985(7) -0.22394(19) 0.35500(11)
O3 O 0.53070(7) -0.32194(15) 0.38835(10)
O4 O 0.59688(6) -0.02720(14) 0.43168(10)
C1 C 0.79723(9) 0.1528(3) 0.39883(14)
H1 H 0.8062 0.2873 0.4245
H2 H 0.7921 0.1520 0.3274
H3 H 0.8393 0.0694 0.4356
C2 C 0.71043(7) -0.1120(2) 0.38462(10)
C3 C 0.63744(7) -0.16680(19) 0.39496(10)
C4 C 0.59830(8) -0.33619(19) 0.36851(10)
C5 C 0.53237(8) -0.1330(2) 0.44142(12)
C6 C 0.61198(11) -0.5247(2) 0.32080(13)
H4 H 0.5744 -0.5391 0.2545
H5 H 0.6087 -0.6361 0.3631
H6 H 0.6618 -0.5212 0.3139
C7 C 0.54342(9) -0.1750(2) 0.55311(12)
H7 H 0.5925 -0.2382 0.5844
H8 H 0.5044 -0.2671 0.5580
C8 C 0.53935(9) 0.0173(2) 0.61095(12)
H9 H 0.5410 -0.0159 0.6800
H10 H 0.5832 0.1003 0.6155
O1D O 0.27163(6) -0.07735(15) 0.58779(9)
O2D O 0.25015(7) 0.22394(19) 0.64500(11)
O3D O 0.46930(7) 0.32194(15) 0.61165(10)
O4D O 0.40312(6) 0.02720(14) 0.56832(10)
C1D C 0.20277(9) -0.1528(3) 0.60117(14)
H1D H 0.1938 -0.2873 0.5755
H2D H 0.2079 -0.1520 0.6726
H3D H 0.1607 -0.0694 0.5644
C2D C 0.28957(7) 0.1120(2) 0.61538(10)
C3D C 0.36256(7) 0.16680(19) 0.60504(10)
C4D C 0.40170(8) 0.33619(19) 0.63149(10)
C5D C 0.46763(8) 0.1330(2) 0.55858(12)
C6D C 0.38802(11) 0.5247(2) 0.67920(13)
H4D H 0.4256 0.5391 0.7455
H5D H 0.3913 0.6361 0.6369
H6D H 0.3382 0.5212 0.6861
C7D C 0.45658(9) 0.1750(2) 0.44689(12)
H7D H 0.4075 0.2382 0.4156
H8D H 0.4956 0.2671 0.4420
C8D C 0.46065(9) -0.0173(2) 0.38905(12)
H9D H 0.4590 0.0159 0.3200
H10D H 0.4168 -0.1003 0.3845
O1 O 0.72837(6) 1.07735(15) 0.41221(9)
O2 O 0.74985(7) 0.77606(19) 0.35500(11)
O3 O 0.53070(7) 0.67806(15) 0.38835(10)
O4 O 0.59688(6) 0.97280(14) 0.43168(10)
C1 C 0.79723(9) 1.1528(3) 0.39883(14)
H1 H 0.8062 1.2873 0.4245
H2 H 0.7921 1.1520 0.3274
H3 H 0.8393 1.0694 0.4356
C2 C 0.71043(7) 0.8880(2) 0.38462(10)
C3 C 0.63744(7) 0.83320(19) 0.39496(10)
C4 C 0.59830(8) 0.66381(19) 0.36851(10)
C5 C 0.53237(8) 0.8670(2) 0.44142(12)
C6 C 0.61198(11) 0.4753(2) 0.32080(13)
H4 H 0.5744 0.4609 0.2545
H5 H 0.6087 0.3639 0.3631
H6 H 0.6618 0.4788 0.3139
C7 C 0.54342(9) 0.8250(2) 0.55311(12)
H7 H 0.5925 0.7618 0.5844
H8 H 0.5044 0.7329 0.5580
C8 C 0.53935(9) 1.0173(2) 0.61095(12)
H9 H 0.5410 0.9841 0.6800
H10 H 0.5832 1.1003 0.6155
O1D O 0.27163(6) 0.92265(15) 0.58779(9)
O2D O 0.25015(7) 1.22394(19) 0.64500(11)
O3D O 0.46930(7) 1.32194(15) 0.61165(10)
O4D O 0.40312(6) 1.02720(14) 0.56832(10)
C1D C 0.20277(9) 0.8472(3) 0.60117(14)
H1D H 0.1938 0.7127 0.5755
H2D H 0.2079 0.8480 0.6726
H3D H 0.1607 0.9306 0.5644
C2D C 0.28957(7) 1.1120(2) 0.61538(10)
C3D C 0.36256(7) 1.16680(19) 0.60504(10)
C4D C 0.40170(8) 1.33619(19) 0.63149(10)
C5D C 0.46763(8) 1.1330(2) 0.55858(12)
C6D C 0.38802(11) 1.5247(2) 0.67920(13)
H4D H 0.4256 1.5391 0.7455
H5D H 0.3913 1.6361 0.6369
H6D H 0.3382 1.5212 0.6861
C7D C 0.45658(9) 1.1750(2) 0.44689(12)
H7D H 0.4075 1.2382 0.4156
H8D H 0.4956 1.2671 0.4420
C8D C 0.46065(9) 0.9827(2) 0.38905(12)
H9D H 0.4590 1.0159 0.3200
H10D H 0.4168 0.8997 0.3845
O1 O 0.27163(6) 0.07735(15) 0.08779(9)
O2 O 0.25015(7) -0.22394(19) 0.14500(11)
O3 O 0.46930(7) -0.32194(15) 0.11165(10)
O4 O 0.40312(6) -0.02720(14) 0.06832(10)
C1 C 0.20277(9) 0.1528(3) 0.10117(14)
H1 H 0.1938 0.2873 0.0755
H2 H 0.2079 0.1520 0.1726
H3 H 0.1607 0.0694 0.0644
C2 C 0.28957(7) -0.1120(2) 0.11538(10)
C3 C 0.36256(7) -0.16680(19) 0.10504(10)
C4 C 0.40170(8) -0.33619(19) 0.13149(10)
C5 C 0.46763(8) -0.1330(2) 0.05858(12)
C6 C 0.38802(11) -0.5247(2) 0.17920(13)
H4 H 0.4256 -0.5391 0.2455
H5 H 0.3913 -0.6361 0.1369
H6 H 0.3382 -0.5212 0.1861
C7 C 0.45658(9) -0.1750(2) -0.05311(12)
H7 H 0.4075 -0.2382 -0.0844
H8 H 0.4956 -0.2671 -0.0580
C8 C 0.46065(9) 0.0173(2) -0.11095(12)
H9 H 0.4590 -0.0159 -0.1800
H10 H 0.4168 0.1003 -0.1155
O1D O 0.72837(6) -0.07735(15) -0.08779(9)
O2D O 0.74985(7) 0.22394(19) -0.14500(11)
O3D O 0.53070(7) 0.32194(15) -0.11165(10)
O4D O 0.59688(6) 0.02720(14) -0.06832(10)
C1D C 0.79723(9) -0.1528(3) -0.10117(14)
H1D H 0.8062 -0.2873 -0.0755
H2D H 0.7921 -0.1520 -0.1726
H3D H 0.8393 -0.0694 -0.0644
C2D C 0.71043(7) 0.1120(2) -0.11538(10)
C3D C 0.63744(7) 0.16680(19) -0.10504(10)
C4D C 0.59830(8) 0.33619(19) -0.13149(10)
C5D C 0.53237(8) 0.1330(2) -0.05858(12)
C6D C 0.61198(11) 0.5247(2) -0.17920(13)
H4D H 0.5744 0.5391 -0.2455
H5D H 0.6087 0.6361 -0.1369
H6D H 0.6618 0.5212 -0.1861
C7D C 0.54342(9) 0.1750(2) 0.05311(12)
H7D H 0.5925 0.2382 0.0844
H8D H 0.5044 0.2671 0.0580
C8D C 0.53935(9) -0.0173(2) 0.11095(12)
H9D H 0.5410 0.0159 0.1800
H10D H 0.5832 -0.1003 0.1155
O1 O 0.27163(6) 0.07735(15) 1.08779(9)
O2 O 0.25015(7) -0.22394(19) 1.14500(11)
O3 O 0.46930(7) -0.32194(15) 1.11165(10)
O4 O 0.40312(6) -0.02720(14) 1.06832(10)
C1 C 0.20277(9) 0.1528(3) 1.10117(14)
H1 H 0.1938 0.2873 1.0755
H2 H 0.2079 0.1520 1.1726
H3 H 0.1607 0.0694 1.0644
C2 C 0.28957(7) -0.1120(2) 1.11538(10)
C3 C 0.36256(7) -0.16680(19) 1.10504(10)
C4 C 0.40170(8) -0.33619(19) 1.13149(10)
C5 C 0.46763(8) -0.1330(2) 1.05858(12)
C6 C 0.38802(11) -0.5247(2) 1.17920(13)
H4 H 0.4256 -0.5391 1.2455
H5 H 0.3913 -0.6361 1.1369
H6 H 0.3382 -0.5212 1.1861
C7 C 0.45658(9) -0.1750(2) 0.94689(12)
H7 H 0.4075 -0.2382 0.9156
H8 H 0.4956 -0.2671 0.9420
C8 C 0.46065(9) 0.0173(2) 0.88905(12)
H9 H 0.4590 -0.0159 0.8200
H10 H 0.4168 0.1003 0.8845
O1D O 0.72837(6) -0.07735(15) 0.91221(9)
O2D O 0.74985(7) 0.22394(19) 0.85500(11)
O3D O 0.53070(7) 0.32194(15) 0.88835(10)
O4D O 0.59688(6) 0.02720(14) 0.93168(10)
C1D C 0.79723(9) -0.1528(3) 0.89883(14)
H1D H 0.8062 -0.2873 0.9245
H2D H 0.7921 -0.1520 0.8274
H3D H 0.8393 -0.0694 0.9356
C2D C 0.71043(7) 0.1120(2) 0.88462(10)
C3D C 0.63744(7) 0.16680(19) 0.89496(10)
C4D C 0.59830(8) 0.33619(19) 0.86851(10)
C5D C 0.53237(8) 0.1330(2) 0.94142(12)
C6D C 0.61198(11) 0.5247(2) 0.82080(13)
H4D H 0.5744 0.5391 0.7545
H5D H 0.6087 0.6361 0.8631
H6D H 0.6618 0.5212 0.8139
C7D C 0.54342(9) 0.1750(2) 1.05311(12)
H7D H 0.5925 0.2382 1.0844
H8D H 0.5044 0.2671 1.0580
C8D C 0.53935(9) -0.0173(2) 1.11095(12)
H9D H 0.5410 0.0159 1.1800
H10D H 0.5832 -0.1003 1.1155
O1 O 0.27163(6) 1.07735(15) 0.08779(9)
O2 O 0.25015(7) 0.77606(19) 0.14500(11)
O3 O 0.46930(7) 0.67806(15) 0.11165(10)
O4 O 0.40312(6) 0.97280(14) 0.06832(10)
C1 C 0.20277(9) 1.1528(3) 0.10117(14)
H1 H 0.1938 1.2873 0.0755
H2 H 0.2079 1.1520 0.1726
H3 H 0.1607 1.0694 0.0644
C2 C 0.28957(7) 0.8880(2) 0.11538(10)
C3 C 0.36256(7) 0.83320(19) 0.10504(10)
C4 C 0.40170(8) 0.66381(19) 0.13149(10)
C5 C 0.46763(8) 0.8670(2) 0.05858(12)
C6 C 0.38802(11) 0.4753(2) 0.17920(13)
H4 H 0.4256 0.4609 0.2455
H5 H 0.3913 0.3639 0.1369
H6 H 0.3382 0.4788 0.1861
C7 C 0.45658(9) 0.8250(2) -0.05311(12)
H7 H 0.4075 0.7618 -0.0844
H8 H 0.4956 0.7329 -0.0580
C8 C 0.46065(9) 1.0173(2) -0.11095(12)
H9 H 0.4590 0.9841 -0.1800
H10 H 0.4168 1.1003 -0.1155
O1D O 0.72837(6) 0.92265(15) -0.08779(9)
O2D O 0.74985(7) 1.22394(19) -0.14500(11)
O3D O 0.53070(7) 1.32194(15) -0.11165(10)
O4D O 0.59688(6) 1.02720(14) -0.06832(10)
C1D C 0.79723(9) 0.8472(3) -0.10117(14)
H1D H 0.8062 0.7127 -0.0755
H2D H 0.7921 0.8480 -0.1726
H3D H 0.8393 0.9306 -0.0644
C2D C 0.71043(7) 1.1120(2) -0.11538(10)
C3D C 0.63744(7) 1.16680(19) -0.10504(10)
C4D C 0.59830(8) 1.33619(19) -0.13149(10)
C5D C 0.53237(8) 1.1330(2) -0.05858(12)
C6D C 0.61198(11) 1.5247(2) -0.17920(13)
H4D H 0.5744 1.5391 -0.2455
H5D H 0.6087 1.6361 -0.1369
H6D H 0.6618 1.5212 -0.1861
C7D C 0.54342(9) 1.1750(2) 0.05311(12)
H7D H 0.5925 1.2382 0.0844
H8D H 0.5044 1.2671 0.0580
C8D C 0.53935(9) 0.9827(2) 0.11095(12)
H9D H 0.5410 1.0159 0.1800
H10D H 0.5832 0.8997 0.1155
O1 O 0.27163(6) 1.07735(15) 1.08779(9)
O2 O 0.25015(7) 0.77606(19) 1.14500(11)
O3 O 0.46930(7) 0.67806(15) 1.11165(10)
O4 O 0.40312(6) 0.97280(14) 1.06832(10)
C1 C 0.20277(9) 1.1528(3) 1.10117(14)
H1 H 0.1938 1.2873 1.0755
H2 H 0.2079 1.1520 1.1726
H3 H 0.1607 1.0694 1.0644
C2 C 0.28957(7) 0.8880(2) 1.11538(10)
C3 C 0.36256(7) 0.83320(19) 1.10504(10)
C4 C 0.40170(8) 0.66381(19) 1.13149(10)
C5 C 0.46763(8) 0.8670(2) 1.05858(12)
C6 C 0.38802(11) 0.4753(2) 1.17920(13)
H4 H 0.4256 0.4609 1.2455
H5 H 0.3913 0.3639 1.1369
H6 H 0.3382 0.4788 1.1861
C7 C 0.45658(9) 0.8250(2) 0.94689(12)
H7 H 0.4075 0.7618 0.9156
H8 H 0.4956 0.7329 0.9420
C8 C 0.46065(9) 1.0173(2) 0.88905(12)
H9 H 0.4590 0.9841 0.8200
H10 H 0.4168 1.1003 0.8845
O1D O 0.72837(6) 0.92265(15) 0.91221(9)
O2D O 0.74985(7) 1.22394(19) 0.85500(11)
O3D O 0.53070(7) 1.32194(15) 0.88835(10)
O4D O 0.59688(6) 1.02720(14) 0.93168(10)
C1D C 0.79723(9) 0.8472(3) 0.89883(14)
H1D H 0.8062 0.7127 0.9245
H2D H 0.7921 0.8480 0.8274
H3D H 0.8393 0.9306 0.9356
C2D C 0.71043(7) 1.1120(2) 0.88462(10)
C3D C 0.63744(7) 1.16680(19) 0.89496(10)
C4D C 0.59830(8) 1.33619(19) 0.86851(10)
C5D C 0.53237(8) 1.1330(2) 0.94142(12)
C6D C 0.61198(11) 1.5247(2) 0.82080(13)
H4D H 0.5744 1.5391 0.7545
H5D H 0.6087 1.6361 0.8631
H6D H 0.6618 1.5212 0.8139
C7D C 0.54342(9) 1.1750(2) 1.05311(12)
H7D H 0.5925 1.2382 1.0844
H8D H 0.5044 1.2671 1.0580
C8D C 0.53935(9) 0.9827(2) 1.11095(12)
H9D H 0.5410 1.0159 1.1800
H10D H 0.5832 0.8997 1.1155
O1 O 0.22837(6) 0.57735(15) 0.41221(9)
O2 O 0.24985(7) 0.27606(19) 0.35500(11)
O3 O 0.03070(7) 0.17806(15) 0.38835(10)
O4 O 0.09688(6) 0.47280(14) 0.43168(10)
C1 C 0.29723(9) 0.6528(3) 0.39883(14)
H1 H 0.3062 0.7873 0.4245
H2 H 0.2921 0.6520 0.3274
H3 H 0.3393 0.5694 0.4356
C2 C 0.21043(7) 0.3880(2) 0.38462(10)
C3 C 0.13744(7) 0.33320(19) 0.39496(10)
C4 C 0.09830(8) 0.16381(19) 0.36851(10)
C5 C 0.03237(8) 0.3670(2) 0.44142(12)
C6 C 0.11198(11) -0.0247(2) 0.32080(13)
H4 H 0.0744 -0.0391 0.2545
H5 H 0.1087 -0.1361 0.3631
H6 H 0.1618 -0.0212 0.3139
C7 C 0.04342(9) 0.3250(2) 0.55311(12)
H7 H 0.0925 0.2618 0.5844
H8 H 0.0044 0.2329 0.5580
C8 C 0.03935(9) 0.5173(2) 0.61095(12)
H9 H 0.0410 0.4841 0.6800
H10 H 0.0832 0.6003 0.6155
O1D O -0.22837(6) 0.42265(15) 0.58779(9)
O2D O -0.24985(7) 0.72394(19) 0.64500(11)
O3D O -0.03070(7) 0.82194(15) 0.61165(10)
O4D O -0.09688(6) 0.52720(14) 0.56832(10)
C1D C -0.29723(9) 0.3472(3) 0.60117(14)
H1D H -0.3062 0.2127 0.5755
H2D H -0.2921 0.3480 0.6726
H3D H -0.3393 0.4306 0.5644
C2D C -0.21043(7) 0.6120(2) 0.61538(10)
C3D C -0.13744(7) 0.66680(19) 0.60504(10)
C4D C -0.09830(8) 0.83619(19) 0.63149(10)
C5D C -0.03237(8) 0.6330(2) 0.55858(12)
C6D C -0.11198(11) 1.0247(2) 0.67920(13)
H4D H -0.0744 1.0391 0.7455
H5D H -0.1087 1.1361 0.6369
H6D H -0.1618 1.0212 0.6861
C7D C -0.04342(9) 0.6750(2) 0.44689(12)
H7D H -0.0925 0.7382 0.4156
H8D H -0.0044 0.7671 0.4420
C8D C -0.03935(9) 0.4827(2) 0.38905(12)
H9D H -0.0410 0.5159 0.3200
H10D H -0.0832 0.3997 0.3845
O1 O 1.22837(6) 0.57735(15) 0.41221(9)
O2 O 1.24985(7) 0.27606(19) 0.35500(11)
O3 O 1.03070(7) 0.17806(15) 0.38835(10)
O4 O 1.09688(6) 0.47280(14) 0.43168(10)
C1 C 1.29723(9) 0.6528(3) 0.39883(14)
H1 H 1.3062 0.7873 0.4245
H2 H 1.2921 0.6520 0.3274
H3 H 1.3393 0.5694 0.4356
C2 C 1.21043(7) 0.3880(2) 0.38462(10)
C3 C 1.13744(7) 0.33320(19) 0.39496(10)
C4 C 1.09830(8) 0.16381(19) 0.36851(10)
C5 C 1.03237(8) 0.3670(2) 0.44142(12)
C6 C 1.11198(11) -0.0247(2) 0.32080(13)
H4 H 1.0744 -0.0391 0.2545
H5 H 1.1087 -0.1361 0.3631
H6 H 1.1618 -0.0212 0.3139
C7 C 1.04342(9) 0.3250(2) 0.55311(12)
H7 H 1.0925 0.2618 0.5844
H8 H 1.0044 0.2329 0.5580
C8 C 1.03935(9) 0.5173(2) 0.61095(12)
H9 H 1.0410 0.4841 0.6800
H10 H 1.0832 0.6003 0.6155
O1D O 0.77163(6) 0.42265(15) 0.58779(9)
O2D O 0.75015(7) 0.72394(19) 0.64500(11)
O3D O 0.96930(7) 0.82194(15) 0.61165(10)
O4D O 0.90312(6) 0.52720(14) 0.56832(10)
C1D C 0.70277(9) 0.3472(3) 0.60117(14)
H1D H 0.6938 0.2127 0.5755
H2D H 0.7079 0.3480 0.6726
H3D H 0.6607 0.4306 0.5644
C2D C 0.78957(7) 0.6120(2) 0.61538(10)
C3D C 0.86256(7) 0.66680(19) 0.60504(10)
C4D C 0.90170(8) 0.83619(19) 0.63149(10)
C5D C 0.96763(8) 0.6330(2) 0.55858(12)
C6D C 0.88802(11) 1.0247(2) 0.67920(13)
H4D H 0.9256 1.0391 0.7455
H5D H 0.8913 1.1361 0.6369
H6D H 0.8382 1.0212 0.6861
C7D C 0.95658(9) 0.6750(2) 0.44689(12)
H7D H 0.9075 0.7382 0.4156
H8D H 0.9956 0.7671 0.4420
C8D C 0.96065(9) 0.4827(2) 0.38905(12)
H9D H 0.9590 0.5159 0.3200
H10D H 0.9168 0.3997 0.3845
O1 O -0.22837(6) 0.57735(15) 0.08779(9)
O2 O -0.24985(7) 0.27606(19) 0.14500(11)
O3 O -0.03070(7) 0.17806(15) 0.11165(10)
O4 O -0.09688(6) 0.47280(14) 0.06832(10)
C1 C -0.29723(9) 0.6528(3) 0.10117(14)
H1 H -0.3062 0.7873 0.0755
H2 H -0.2921 0.6520 0.1726
H3 H -0.3393 0.5694 0.0644
C2 C -0.21043(7) 0.3880(2) 0.11538(10)
C3 C -0.13744(7) 0.33320(19) 0.10504(10)
C4 C -0.09830(8) 0.16381(19) 0.13149(10)
C5 C -0.03237(8) 0.3670(2) 0.05858(12)
C6 C -0.11198(11) -0.0247(2) 0.17920(13)
H4 H -0.0744 -0.0391 0.2455
H5 H -0.1087 -0.1361 0.1369
H6 H -0.1618 -0.0212 0.1861
C7 C -0.04342(9) 0.3250(2) -0.05311(12)
H7 H -0.0925 0.2618 -0.0844
H8 H -0.0044 0.2329 -0.0580
C8 C -0.03935(9) 0.5173(2) -0.11095(12)
H9 H -0.0410 0.4841 -0.1800
H10 H -0.0832 0.6003 -0.1155
O1D O 0.22837(6) 0.42265(15) -0.08779(9)
O2D O 0.24985(7) 0.72394(19) -0.14500(11)
O3D O 0.03070(7) 0.82194(15) -0.11165(10)
O4D O 0.09688(6) 0.52720(14) -0.06832(10)
C1D C 0.29723(9) 0.3472(3) -0.10117(14)
H1D H 0.3062 0.2127 -0.0755
H2D H 0.2921 0.3480 -0.1726
H3D H 0.3393 0.4306 -0.0644
C2D C 0.21043(7) 0.6120(2) -0.11538(10)
C3D C 0.13744(7) 0.66680(19) -0.10504(10)
C4D C 0.09830(8) 0.83619(19) -0.13149(10)
C5D C 0.03237(8) 0.6330(2) -0.05858(12)
C6D C 0.11198(11) 1.0247(2) -0.17920(13)
H4D H 0.0744 1.0391 -0.2455
H5D H 0.1087 1.1361 -0.1369
H6D H 0.1618 1.0212 -0.1861
C7D C 0.04342(9) 0.6750(2) 0.05311(12)
H7D H 0.0925 0.7382 0.0844
H8D H 0.0044 0.7671 0.0580
C8D C 0.03935(9) 0.4827(2) 0.11095(12)
H9D H 0.0410 0.5159 0.1800
H10D H 0.0832 0.3997 0.1155
O1 O -0.22837(6) 0.57735(15) 1.08779(9)
O2 O -0.24985(7) 0.27606(19) 1.14500(11)
O3 O -0.03070(7) 0.17806(15) 1.11165(10)
O4 O -0.09688(6) 0.47280(14) 1.06832(10)
C1 C -0.29723(9) 0.6528(3) 1.10117(14)
H1 H -0.3062 0.7873 1.0755
H2 H -0.2921 0.6520 1.1726
H3 H -0.3393 0.5694 1.0644
C2 C -0.21043(7) 0.3880(2) 1.11538(10)
C3 C -0.13744(7) 0.33320(19) 1.10504(10)
C4 C -0.09830(8) 0.16381(19) 1.13149(10)
C5 C -0.03237(8) 0.3670(2) 1.05858(12)
C6 C -0.11198(11) -0.0247(2) 1.17920(13)
H4 H -0.0744 -0.0391 1.2455
H5 H -0.1087 -0.1361 1.1369
H6 H -0.1618 -0.0212 1.1861
C7 C -0.04342(9) 0.3250(2) 0.94689(12)
H7 H -0.0925 0.2618 0.9156
H8 H -0.0044 0.2329 0.9420
C8 C -0.03935(9) 0.5173(2) 0.88905(12)
H9 H -0.0410 0.4841 0.8200
H10 H -0.0832 0.6003 0.8845
O1D O 0.22837(6) 0.42265(15) 0.91221(9)
O2D O 0.24985(7) 0.72394(19) 0.85500(11)
O3D O 0.03070(7) 0.82194(15) 0.88835(10)
O4D O 0.09688(6) 0.52720(14) 0.93168(10)
C1D C 0.29723(9) 0.3472(3) 0.89883(14)
H1D H 0.3062 0.2127 0.9245
H2D H 0.2921 0.3480 0.8274
H3D H 0.3393 0.4306 0.9356
C2D C 0.21043(7) 0.6120(2) 0.88462(10)
C3D C 0.13744(7) 0.66680(19) 0.89496(10)
C4D C 0.09830(8) 0.83619(19) 0.86851(10)
C5D C 0.03237(8) 0.6330(2) 0.94142(12)
C6D C 0.11198(11) 1.0247(2) 0.82080(13)
H4D H 0.0744 1.0391 0.7545
H5D H 0.1087 1.1361 0.8631
H6D H 0.1618 1.0212 0.8139
C7D C 0.04342(9) 0.6750(2) 1.05311(12)
H7D H 0.0925 0.7382 1.0844
H8D H 0.0044 0.7671 1.0580
C8D C 0.03935(9) 0.4827(2) 1.11095(12)
H9D H 0.0410 0.5159 1.1800
H10D H 0.0832 0.3997 1.1155
O1 O 0.77163(6) 0.57735(15) 0.08779(9)
O2 O 0.75015(7) 0.27606(19) 0.14500(11)
O3 O 0.96930(7) 0.17806(15) 0.11165(10)
O4 O 0.90312(6) 0.47280(14) 0.06832(10)
C1 C 0.70277(9) 0.6528(3) 0.10117(14)
H1 H 0.6938 0.7873 0.0755
H2 H 0.7079 0.6520 0.1726
H3 H 0.6607 0.5694 0.0644
C2 C 0.78957(7) 0.3880(2) 0.11538(10)
C3 C 0.86256(7) 0.33320(19) 0.10504(10)
C4 C 0.90170(8) 0.16381(19) 0.13149(10)
C5 C 0.96763(8) 0.3670(2) 0.05858(12)
C6 C 0.88802(11) -0.0247(2) 0.17920(13)
H4 H 0.9256 -0.0391 0.2455
H5 H 0.8913 -0.1361 0.1369
H6 H 0.8382 -0.0212 0.1861
C7 C 0.95658(9) 0.3250(2) -0.05311(12)
H7 H 0.9075 0.2618 -0.0844
H8 H 0.9956 0.2329 -0.0580
C8 C 0.96065(9) 0.5173(2) -0.11095(12)
H9 H 0.9590 0.4841 -0.1800
H10 H 0.9168 0.6003 -0.1155
O1D O 1.22837(6) 0.42265(15) -0.08779(9)
O2D O 1.24985(7) 0.72394(19) -0.14500(11)
O3D O 1.03070(7) 0.82194(15) -0.11165(10)
O4D O 1.09688(6) 0.52720(14) -0.06832(10)
C1D C 1.29723(9) 0.3472(3) -0.10117(14)
H1D H 1.3062 0.2127 -0.0755
H2D H 1.2921 0.3480 -0.1726
H3D H 1.3393 0.4306 -0.0644
C2D C 1.21043(7) 0.6120(2) -0.11538(10)
C3D C 1.13744(7) 0.66680(19) -0.10504(10)
C4D C 1.09830(8) 0.83619(19) -0.13149(10)
C5D C 1.03237(8) 0.6330(2) -0.05858(12)
C6D C 1.11198(11) 1.0247(2) -0.17920(13)
H4D H 1.0744 1.0391 -0.2455
H5D H 1.1087 1.1361 -0.1369
H6D H 1.1618 1.0212 -0.1861
C7D C 1.04342(9) 0.6750(2) 0.05311(12)
H7D H 1.0925 0.7382 0.0844
H8D H 1.0044 0.7671 0.0580
C8D C 1.03935(9) 0.4827(2) 0.11095(12)
H9D H 1.0410 0.5159 0.1800
H10D H 1.0832 0.3997 0.1155
O1 O 0.77163(6) 0.57735(15) 1.08779(9)
O2 O 0.75015(7) 0.27606(19) 1.14500(11)
O3 O 0.96930(7) 0.17806(15) 1.11165(10)
O4 O 0.90312(6) 0.47280(14) 1.06832(10)
C1 C 0.70277(9) 0.6528(3) 1.10117(14)
H1 H 0.6938 0.7873 1.0755
H2 H 0.7079 0.6520 1.1726
H3 H 0.6607 0.5694 1.0644
C2 C 0.78957(7) 0.3880(2) 1.11538(10)
C3 C 0.86256(7) 0.33320(19) 1.10504(10)
C4 C 0.90170(8) 0.16381(19) 1.13149(10)
C5 C 0.96763(8) 0.3670(2) 1.05858(12)
C6 C 0.88802(11) -0.0247(2) 1.17920(13)
H4 H 0.9256 -0.0391 1.2455
H5 H 0.8913 -0.1361 1.1369
H6 H 0.8382 -0.0212 1.1861
C7 C 0.95658(9) 0.3250(2) 0.94689(12)
H7 H 0.9075 0.2618 0.9156
H8 H 0.9956 0.2329 0.9420
C8 C 0.96065(9) 0.5173(2) 0.88905(12)
H9 H 0.9590 0.4841 0.8200
H10 H 0.9168 0.6003 0.8845
O1D O 1.22837(6) 0.42265(15) 0.91221(9)
O2D O 1.24985(7) 0.72394(19) 0.85500(11)
O3D O 1.03070(7) 0.82194(15) 0.88835(10)
O4D O 1.09688(6) 0.52720(14) 0.93168(10)
C1D C 1.29723(9) 0.3472(3) 0.89883(14)
H1D H 1.3062 0.2127 0.9245
H2D H 1.2921 0.3480 0.8274
H3D H 1.3393 0.4306 0.9356
C2D C 1.21043(7) 0.6120(2) 0.88462(10)
C3D C 1.13744(7) 0.66680(19) 0.89496(10)
C4D C 1.09830(8) 0.83619(19) 0.86851(10)
C5D C 1.03237(8) 0.6330(2) 0.94142(12)
C6D C 1.11198(11) 1.0247(2) 0.82080(13)
H4D H 1.0744 1.0391 0.7545
H5D H 1.1087 1.1361 0.8631
H6D H 1.1618 1.0212 0.8139
C7D C 1.04342(9) 0.6750(2) 1.05311(12)
H7D H 1.0925 0.7382 1.0844
H8D H 1.0044 0.7671 1.0580
C8D C 1.03935(9) 0.4827(2) 1.11095(12)
H9D H 1.0410 0.5159 1.1800
H10D H 1.0832 0.3997 1.1155

#END
