
#######################################################################
#
#                 Cambridge Crystallographic Data Centre
#                                CCDC 
#
#######################################################################
#
# If this CIF has been generated from an entry in the Cambridge 
# Structural Database, then it will include bibliographic, chemical, 
# crystal, experimental, refinement or atomic coordinate data resulting 
# from the CCDC's data processing and validation procedures.
#
#######################################################################

data_KABCOH
_symmetry_cell_setting           triclinic
_symmetry_space_group_name_H-M   'P -1'
_symmetry_Int_Tables_number      2
_space_group_name_Hall           '-P 1'
loop_
_symmetry_equiv_pos_site_id
_symmetry_equiv_pos_as_xyz
1 x,y,z
2 -x,-y,-z
_cell_length_a                   12.208(2)
_cell_length_b                   13.931(2)
_cell_length_c                   14.537(2)
_cell_angle_alpha                62.405(16)
_cell_angle_beta                 74.412(15)
_cell_angle_gamma                72.171(16)
_cell_volume                     2062.11
loop_
_atom_site_label
_atom_site_type_symbol
_atom_site_fract_x
_atom_site_fract_y
_atom_site_fract_z
O1 O 1.16438(10) 0.47386(11) 0.11183(10)
O2 O 1.07317(10) 0.42369(12) 0.30577(10)
H1 H 1.0419 0.4212 0.3641
O3 O 0.85512(10) 0.51899(11) 0.36572(10)
O4 O 0.60331(12) 0.98455(12) -0.26044(10)
O5 O 0.43491(13) 1.08306(14) -0.29372(12)
O6 O 0.10800(11) 1.07985(13) -0.03146(13)
O7 O 0.13071(12) 0.99503(14) 0.13233(14)
N1 N 0.69782(12) 0.77314(13) 0.01660(11)
N2 N 0.63799(12) 0.84473(12) -0.06680(12)
H2 H 0.6722 0.8612 -0.1305
N3 N 0.49985(15) 1.01377(15) -0.23198(14)
N4 N 0.16778(14) 1.01869(15) 0.03847(17)
C1 C 0.98729(14) 0.60679(15) 0.04999(15)
H3 H 1.0192 0.6253 -0.0203
C2 C 1.05264(15) 0.52930(16) 0.12764(16)
C3 C 1.00473(15) 0.50120(16) 0.23327(15)
C4 C 0.89093(15) 0.55258(16) 0.25985(16)
C5 C 0.82687(14) 0.62989(15) 0.18204(15)
H4 H 0.7513 0.6645 0.1997
C6 C 0.87395(14) 0.65703(15) 0.07682(16)
C7 C 1.22460(14) 0.50572(16) 0.00683(14)
H5 H 1.3025 0.4619 0.0071
H6 H 1.2270 0.5827 -0.0228
H7 H 1.1847 0.4940 -0.0345
C8 C 0.73980(15) 0.56672(18) 0.39943(15)
H8 H 0.7263 0.5385 0.4746
H9 H 0.6853 0.5480 0.3768
H10 H 0.7300 0.6458 0.3696
C9 C 0.80494(15) 0.73386(15) -0.00621(15)
H11 H 0.8391 0.7543 -0.0761
C10 C 0.52455(15) 0.88791(15) -0.04531(15)
C11 C 0.45313(15) 0.96713(16) -0.12119(15)
C12 C 0.33727(15) 1.00841(16) -0.09368(16)
H12 H 0.2922 1.0600 -0.1455
C13 C 0.28912(15) 0.97383(17) 0.00874(17)
C14 C 0.35523(16) 0.89655(16) 0.08688(15)
H13 H 0.3216 0.8734 0.1571
C15 C 0.46907(16) 0.85492(16) 0.06046(15)
H14 H 0.5122 0.8029 0.1136
O1 O -0.16438(10) 0.52614(11) 0.88817(10)
O2 O -0.07317(10) 0.57631(12) 0.69423(10)
H1 H -0.0419 0.5788 0.6359
O3 O 0.14488(10) 0.48101(11) 0.63428(10)
O4 O 0.39669(12) 0.01545(12) 1.26044(10)
O5 O 0.56509(13) -0.08306(14) 1.29372(12)
O6 O 0.89200(11) -0.07985(13) 1.03146(13)
O7 O 0.86929(12) 0.00497(14) 0.86767(14)
N1 N 0.30218(12) 0.22686(13) 0.98340(11)
N2 N 0.36201(12) 0.15527(12) 1.06680(12)
H2 H 0.3278 0.1388 1.1305
N3 N 0.50015(15) -0.01377(15) 1.23198(14)
N4 N 0.83222(14) -0.01869(15) 0.96153(17)
C1 C 0.01271(14) 0.39321(15) 0.95001(15)
H3 H -0.0192 0.3747 1.0203
C2 C -0.05264(15) 0.47070(16) 0.87236(16)
C3 C -0.00473(15) 0.49880(16) 0.76673(15)
C4 C 0.10907(15) 0.44742(16) 0.74015(16)
C5 C 0.17313(14) 0.37011(15) 0.81796(15)
H4 H 0.2487 0.3355 0.8003
C6 C 0.12605(14) 0.34297(15) 0.92318(16)
C7 C -0.22460(14) 0.49428(16) 0.99317(14)
H5 H -0.3025 0.5381 0.9929
H6 H -0.2270 0.4173 1.0228
H7 H -0.1847 0.5060 1.0345
C8 C 0.26020(15) 0.43328(18) 0.60057(15)
H8 H 0.2737 0.4615 0.5254
H9 H 0.3147 0.4520 0.6232
H10 H 0.2700 0.3542 0.6304
C9 C 0.19506(15) 0.26614(15) 1.00621(15)
H11 H 0.1609 0.2457 1.0761
C10 C 0.47545(15) 0.11209(15) 1.04531(15)
C11 C 0.54687(15) 0.03287(16) 1.12119(15)
C12 C 0.66273(15) -0.00841(16) 1.09368(16)
H12 H 0.7078 -0.0600 1.1455
C13 C 0.71088(15) 0.02617(17) 0.99126(17)
C14 C 0.64477(16) 0.10345(16) 0.91312(15)
H13 H 0.6784 0.1266 0.8429
C15 C 0.53093(16) 0.14508(16) 0.93954(15)
H14 H 0.4878 0.1971 0.8864
O8 O 0.60110(10) -0.20303(11) 0.61612(10)
O9 O 0.50993(10) -0.25838(13) 0.81097(10)
H15 H 0.4725 -0.2779 0.8702
O10 O 0.27984(10) -0.19778(11) 0.87289(10)
O11 O 0.00060(11) 0.22634(13) 0.25371(10)
O12 O -0.16148(12) 0.34266(12) 0.22412(10)
O13 O -0.43779(14) 0.28231(17) 0.65779(15)
O14 O -0.46769(12) 0.36640(14) 0.49623(14)
N5 N 0.11811(12) 0.05058(12) 0.52678(11)
N6 N 0.05646(11) 0.12124(12) 0.44502(11)
H16 H 0.0884 0.1369 0.3808
N7 N -0.09480(15) 0.27239(15) 0.28452(13)
N8 N -0.40570(15) 0.30440(18) 0.56430(19)
C16 C 0.41392(14) -0.10112(15) 0.55671(14)
H17 H 0.4459 -0.0826 0.4865
C17 C 0.48356(15) -0.16602(16) 0.63432(15)
C18 C 0.43604(15) -0.19613(16) 0.73928(15)
C19 C 0.31679(15) -0.16104(15) 0.76710(15)
C20 C 0.24810(14) -0.09458(15) 0.69001(15)
H18 H 0.1690 -0.0698 0.7083
C21 C 0.29642(14) -0.06399(15) 0.58421(15)
C22 C 0.65080(14) -0.20819(16) 0.51718(15)
H19 H 0.7314 -0.2446 0.5181
H20 H 0.6441 -0.1344 0.4625
H21 H 0.6102 -0.2490 0.5045
C23 C 0.15956(15) -0.16295(17) 0.90709(15)
H22 H 0.1445 -0.1954 0.9824
H23 H 0.1133 -0.1864 0.8805
H24 H 0.1399 -0.0836 0.8814
C24 C 0.22455(15) 0.00984(15) 0.50237(14)
H25 H 0.2563 0.0273 0.4322
C25 C -0.05589(15) 0.16467(16) 0.46994(15)
C26 C -0.13091(15) 0.24109(16) 0.39592(15)
C27 C -0.24429(15) 0.28574(16) 0.42727(16)
H26 H -0.2919 0.3364 0.3772
C28 C -0.28655(15) 0.25594(18) 0.53100(18)
C29 C -0.21783(17) 0.17783(18) 0.60649(16)
H27 H -0.2484 0.1556 0.6774
C30 C -0.10641(15) 0.13397(17) 0.57704(15)
H28 H -0.0613 0.0820 0.6287
O8 O 0.39890(10) 1.20303(11) 0.38388(10)
O9 O 0.49007(10) 1.25838(13) 0.18903(10)
H15 H 0.5275 1.2779 0.1298
O10 O 0.72016(10) 1.19778(11) 0.12711(10)
O11 O 0.99940(11) 0.77366(13) 0.74629(10)
O12 O 1.16148(12) 0.65734(12) 0.77588(10)
O13 O 1.43779(14) 0.71769(17) 0.34221(15)
O14 O 1.46769(12) 0.63360(14) 0.50377(14)
N5 N 0.88189(12) 0.94942(12) 0.47322(11)
N6 N 0.94354(11) 0.87876(12) 0.55498(11)
H16 H 0.9116 0.8631 0.6192
N7 N 1.09480(15) 0.72761(15) 0.71548(13)
N8 N 1.40570(15) 0.69560(18) 0.43570(19)
C16 C 0.58608(14) 1.10112(15) 0.44329(14)
H17 H 0.5541 1.0826 0.5135
C17 C 0.51644(15) 1.16602(16) 0.36568(15)
C18 C 0.56396(15) 1.19613(16) 0.26072(15)
C19 C 0.68321(15) 1.16104(15) 0.23290(15)
C20 C 0.75190(14) 1.09458(15) 0.30999(15)
H18 H 0.8310 1.0698 0.2917
C21 C 0.70358(14) 1.06399(15) 0.41579(15)
C22 C 0.34920(14) 1.20819(16) 0.48282(15)
H19 H 0.2686 1.2446 0.4819
H20 H 0.3559 1.1344 0.5375
H21 H 0.3898 1.2490 0.4955
C23 C 0.84044(15) 1.16295(17) 0.09291(15)
H22 H 0.8555 1.1954 0.0176
H23 H 0.8867 1.1864 0.1195
H24 H 0.8601 1.0836 0.1186
C24 C 0.77545(15) 0.99016(15) 0.49763(14)
H25 H 0.7437 0.9727 0.5678
C25 C 1.05589(15) 0.83533(16) 0.53006(15)
C26 C 1.13091(15) 0.75891(16) 0.60408(15)
C27 C 1.24429(15) 0.71426(16) 0.57273(16)
H26 H 1.2919 0.6636 0.6228
C28 C 1.28655(15) 0.74406(18) 0.46900(18)
C29 C 1.21783(17) 0.82217(18) 0.39351(16)
H27 H 1.2484 0.8444 0.3226
C30 C 1.10641(15) 0.86603(17) 0.42296(15)
H28 H 1.0613 0.9180 0.3713
O15 O 0.48326(14) 0.64263(15) 0.01517(13)
N9 N 0.44236(15) 0.53897(15) 0.18764(15)
C31 C 0.3621(2) 0.4785(2) 0.2721(2)
H29 H 0.2958 0.4843 0.2449
H30 H 0.3372 0.5090 0.3234
H31 H 0.3999 0.4020 0.3043
C32 C 0.55486(19) 0.5271(2) 0.20919(19)
H32 H 0.5943 0.5804 0.1506
H33 H 0.5996 0.4537 0.2206
H34 H 0.5460 0.5394 0.2708
C33 C 0.4189(2) 0.5964(2) 0.0903(2)
H35 H 0.3454 0.6011 0.0796
O15 O 0.51674(14) 0.35737(15) 0.98483(13)
N9 N 0.55764(15) 0.46103(15) 0.81236(15)
C31 C 0.6379(2) 0.5215(2) 0.7279(2)
H29 H 0.7042 0.5157 0.7551
H30 H 0.6628 0.4910 0.6766
H31 H 0.6001 0.5980 0.6957
C32 C 0.44514(19) 0.4729(2) 0.79081(19)
H32 H 0.4057 0.4196 0.8494
H33 H 0.4004 0.5463 0.7794
H34 H 0.4540 0.4606 0.7292
C33 C 0.5811(2) 0.4036(2) 0.9097(2)
H35 H 0.6546 0.3989 0.9204
O16 O 1.05419(13) 0.35079(13) 0.50902(12)
N10 N 0.99256(16) 0.27610(16) 0.68363(15)
C34 C 1.0898(2) 0.18411(19) 0.70500(18)
H36 H 1.1262 0.1747 0.6415
H37 H 1.0636 0.1181 0.7564
H38 H 1.1450 0.1978 0.7314
C35 C 0.9053(2) 0.2821(2) 0.77290(19)
H39 H 0.8439 0.3460 0.7487
H40 H 0.9407 0.2877 0.8212
H41 H 0.8739 0.2164 0.8075
C36 C 0.9843(2) 0.3510(2) 0.5864(2)
H42 H 0.9193 0.4090 0.5761
O16 O -0.05419(13) 0.64921(13) 0.49098(12)
N10 N 0.00744(16) 0.72390(16) 0.31637(15)
C34 C -0.0898(2) 0.81589(19) 0.29500(18)
H36 H -0.1262 0.8253 0.3585
H37 H -0.0636 0.8819 0.2436
H38 H -0.1450 0.8022 0.2686
C35 C 0.0947(2) 0.7179(2) 0.22710(19)
H39 H 0.1561 0.6540 0.2513
H40 H 0.0593 0.7123 0.1788
H41 H 0.1261 0.7836 0.1925
C36 C 0.0157(2) 0.6490(2) 0.4136(2)
H42 H 0.0807 0.5910 0.4239
O17 O 0.23621(9) 0.22474(10) 0.25040(9)
H43 H 0.2979 0.2211 0.2686
H44 H 0.1978 0.2900 0.2365
O17 O 0.76379(9) 0.77526(10) 0.74960(9)
H43 H 0.7021 0.7789 0.7314
H44 H 0.8022 0.7100 0.7635

#END
