
#######################################################################
#
#                 Cambridge Crystallographic Data Centre
#                                CCDC 
#
#######################################################################
#
# If this CIF has been generated from an entry in the Cambridge 
# Structural Database, then it will include bibliographic, chemical, 
# crystal, experimental, refinement or atomic coordinate data resulting 
# from the CCDC's data processing and validation procedures.
#
#######################################################################

data_KABCAU
_symmetry_cell_setting           monoclinic
_symmetry_space_group_name_H-M   'P 21/n'
_symmetry_Int_Tables_number      14
_space_group_name_Hall           '-P 2yn'
loop_
_symmetry_equiv_pos_site_id
_symmetry_equiv_pos_as_xyz
1 x,y,z
2 1/2-x,1/2+y,1/2-z
3 -x,-y,-z
4 1/2+x,1/2-y,1/2+z
_cell_length_a                   20.558(12)
_cell_length_b                   8.2095(12)
_cell_length_c                   20.947(8)
_cell_angle_alpha                90
_cell_angle_beta                 113.22(6)
_cell_angle_gamma                90
_cell_volume                     3248.88
loop_
_atom_site_label
_atom_site_type_symbol
_atom_site_fract_x
_atom_site_fract_y
_atom_site_fract_z
Cl1 Cl 0.63838(16) 0.2261(4) 0.24489(16)
N1 N 0.8778(4) 0.2021(7) 0.0154(4)
N2 N 0.7728(3) 0.2998(8) -0.0015(4)
N3 N 0.9152(3) 0.0756(7) 0.1276(4)
H1 H 0.9115 0.1039 0.1656
C1 C 0.7050(5) 0.3263(12) 0.0953(5)
H2 H 0.6930 0.4010 0.0590
C2 C 0.6671(5) 0.3249(13) 0.1371(6)
H3 H 0.6286 0.3944 0.1271
C3 C 0.6854(5) 0.2233(12) 0.1925(5)
C4 C 0.7398(6) 0.1148(12) 0.2039(5)
H4 H 0.7510 0.0400 0.2400
C5 C 0.7782(5) 0.1152(11) 0.1625(5)
H5 H 0.8164 0.0450 0.1727
C6 C 0.7601(4) 0.2195(11) 0.1060(5)
C7 C 0.8002(5) 0.2249(10) 0.0623(5)
C8 C 0.8647(5) 0.1592(9) 0.0731(5)
C9 C 0.8191(5) 0.2895(9) -0.0302(5)
C10 C 0.8198(5) 0.3426(10) -0.0918(5)
H6 H 0.7809 0.3984 -0.1230
C11 C 0.8772(6) 0.3147(12) -0.1080(6)
H7 H 0.8779 0.3519 -0.1496
C12 C 0.9373(5) 0.2248(12) -0.0582(6)
H8 H 0.9768 0.2034 -0.0681
C13 C 0.9351(5) 0.1734(10) 0.0020(5)
H9 H 0.9735 0.1180 0.0342
C14 C 0.9230(4) -0.0938(10) 0.1268(4)
C15 C 0.9719(5) -0.1718(10) 0.1817(5)
H10 H 1.0007 -0.1116 0.2201
C16 C 0.9801(5) -0.3397(11) 0.1820(5)
H11 H 1.0142 -0.3905 0.2203
C17 C 0.9390(5) -0.4294(11) 0.1271(6)
H12 H 0.9430 -0.5422 0.1277
C18 C 0.8905(5) -0.3499(11) 0.0696(5)
H13 H 0.8628 -0.4095 0.0306
C19 C 0.8830(4) -0.1830(10) 0.0698(5)
H14 H 0.8505 -0.1309 0.0309
Cl1 Cl 0.86162(16) 0.7261(4) 0.25511(16)
N1 N 0.6222(4) 0.7021(7) 0.4846(4)
N2 N 0.7272(3) 0.7998(8) 0.5015(4)
N3 N 0.5848(3) 0.5756(7) 0.3724(4)
H1 H 0.5885 0.6039 0.3344
C1 C 0.7950(5) 0.8263(12) 0.4047(5)
H2 H 0.8070 0.9010 0.4410
C2 C 0.8329(5) 0.8249(13) 0.3629(6)
H3 H 0.8714 0.8944 0.3729
C3 C 0.8146(5) 0.7233(12) 0.3075(5)
C4 C 0.7602(6) 0.6148(12) 0.2961(5)
H4 H 0.7490 0.5400 0.2600
C5 C 0.7218(5) 0.6152(11) 0.3375(5)
H5 H 0.6836 0.5450 0.3273
C6 C 0.7399(4) 0.7195(11) 0.3940(5)
C7 C 0.6998(5) 0.7249(10) 0.4377(5)
C8 C 0.6353(5) 0.6592(9) 0.4269(5)
C9 C 0.6809(5) 0.7895(9) 0.5302(5)
C10 C 0.6802(5) 0.8426(10) 0.5918(5)
H6 H 0.7191 0.8984 0.6230
C11 C 0.6228(6) 0.8147(12) 0.6080(6)
H7 H 0.6221 0.8519 0.6496
C12 C 0.5627(5) 0.7248(12) 0.5582(6)
H8 H 0.5232 0.7034 0.5681
C13 C 0.5649(5) 0.6734(10) 0.4980(5)
H9 H 0.5265 0.6180 0.4658
C14 C 0.5770(4) 0.4062(10) 0.3732(4)
C15 C 0.5281(5) 0.3282(10) 0.3183(5)
H10 H 0.4993 0.3884 0.2799
C16 C 0.5199(5) 0.1603(11) 0.3180(5)
H11 H 0.4858 0.1095 0.2797
C17 C 0.5610(5) 0.0706(11) 0.3729(6)
H12 H 0.5570 -0.0422 0.3723
C18 C 0.6095(5) 0.1501(11) 0.4304(5)
H13 H 0.6372 0.0905 0.4694
C19 C 0.6170(4) 0.3170(10) 0.4302(5)
H14 H 0.6495 0.3691 0.4691
Cl1 Cl 0.36162(16) 0.7739(4) 0.75511(16)
N1 N 0.1222(4) 0.7979(7) 0.9846(4)
N2 N 0.2272(3) 0.7002(8) 1.0015(4)
N3 N 0.0848(3) 0.9244(7) 0.8724(4)
H1 H 0.0885 0.8961 0.8344
C1 C 0.2950(5) 0.6737(12) 0.9047(5)
H2 H 0.3070 0.5990 0.9410
C2 C 0.3329(5) 0.6751(13) 0.8629(6)
H3 H 0.3714 0.6056 0.8729
C3 C 0.3146(5) 0.7767(12) 0.8075(5)
C4 C 0.2602(6) 0.8852(12) 0.7961(5)
H4 H 0.2490 0.9600 0.7600
C5 C 0.2218(5) 0.8848(11) 0.8375(5)
H5 H 0.1836 0.9550 0.8273
C6 C 0.2399(4) 0.7805(11) 0.8940(5)
C7 C 0.1998(5) 0.7751(10) 0.9377(5)
C8 C 0.1353(5) 0.8408(9) 0.9269(5)
C9 C 0.1809(5) 0.7105(9) 1.0302(5)
C10 C 0.1802(5) 0.6574(10) 1.0918(5)
H6 H 0.2191 0.6016 1.1230
C11 C 0.1228(6) 0.6853(12) 1.1080(6)
H7 H 0.1221 0.6481 1.1496
C12 C 0.0627(5) 0.7752(12) 1.0582(6)
H8 H 0.0232 0.7966 1.0681
C13 C 0.0649(5) 0.8266(10) 0.9980(5)
H9 H 0.0265 0.8820 0.9658
C14 C 0.0770(4) 1.0938(10) 0.8732(4)
C15 C 0.0281(5) 1.1718(10) 0.8183(5)
H10 H -0.0007 1.1116 0.7799
C16 C 0.0199(5) 1.3397(11) 0.8180(5)
H11 H -0.0142 1.3905 0.7797
C17 C 0.0610(5) 1.4294(11) 0.8729(6)
H12 H 0.0570 1.5422 0.8723
C18 C 0.1095(5) 1.3499(11) 0.9304(5)
H13 H 0.1372 1.4095 0.9694
C19 C 0.1170(4) 1.1830(10) 0.9302(5)
H14 H 0.1495 1.1309 0.9691
Cl1 Cl 0.13838(16) 0.2739(4) 0.74489(16)
N1 N 0.3778(4) 0.2979(7) 0.5154(4)
N2 N 0.2728(3) 0.2002(8) 0.4985(4)
N3 N 0.4152(3) 0.4244(7) 0.6276(4)
H1 H 0.4115 0.3961 0.6656
C1 C 0.2050(5) 0.1737(12) 0.5953(5)
H2 H 0.1930 0.0990 0.5590
C2 C 0.1671(5) 0.1751(13) 0.6371(6)
H3 H 0.1286 0.1056 0.6271
C3 C 0.1854(5) 0.2767(12) 0.6925(5)
C4 C 0.2398(6) 0.3852(12) 0.7039(5)
H4 H 0.2510 0.4600 0.7400
C5 C 0.2782(5) 0.3848(11) 0.6625(5)
H5 H 0.3164 0.4550 0.6727
C6 C 0.2601(4) 0.2805(11) 0.6060(5)
C7 C 0.3002(5) 0.2751(10) 0.5623(5)
C8 C 0.3647(5) 0.3408(9) 0.5731(5)
C9 C 0.3191(5) 0.2105(9) 0.4698(5)
C10 C 0.3198(5) 0.1574(10) 0.4082(5)
H6 H 0.2809 0.1016 0.3770
C11 C 0.3772(6) 0.1853(12) 0.3920(6)
H7 H 0.3779 0.1481 0.3504
C12 C 0.4373(5) 0.2752(12) 0.4418(6)
H8 H 0.4768 0.2966 0.4319
C13 C 0.4351(5) 0.3266(10) 0.5020(5)
H9 H 0.4735 0.3820 0.5342
C14 C 0.4230(4) 0.5938(10) 0.6268(4)
C15 C 0.4719(5) 0.6718(10) 0.6817(5)
H10 H 0.5007 0.6116 0.7201
C16 C 0.4801(5) 0.8397(11) 0.6820(5)
H11 H 0.5142 0.8905 0.7203
C17 C 0.4390(5) 0.9294(11) 0.6271(6)
H12 H 0.4430 1.0422 0.6277
C18 C 0.3905(5) 0.8499(11) 0.5696(5)
H13 H 0.3628 0.9095 0.5306
C19 C 0.3830(4) 0.6830(10) 0.5698(5)
H14 H 0.3505 0.6309 0.5309
Cl2 Cl 0.24818(17) 0.0799(4) 0.13017(17)
N4 N 0.0227(4) 0.1672(8) 0.3723(4)
N5 N 0.0035(4) 0.2387(8) 0.2646(4)
N6 N 0.1365(3) 0.0329(8) 0.4094(3)
H15 H 0.1520 0.0901 0.4468
C20 C 0.1606(5) 0.0115(10) 0.2657(5)
H16 H 0.1654 -0.0637 0.3004
C21 C 0.2021(5) -0.0068(11) 0.2292(5)
H17 H 0.2356 -0.0897 0.2403
C22 C 0.1937(5) 0.0997(14) 0.1753(6)
C23 C 0.1438(6) 0.2202(13) 0.1604(6)
H18 H 0.1375 0.2899 0.1234
C24 C 0.1040(5) 0.2415(12) 0.1966(5)
H19 H 0.0708 0.3253 0.1848
C25 C 0.1117(5) 0.1356(10) 0.2541(5)
C26 C 0.0669(4) 0.1611(9) 0.2922(5)
C27 C 0.0812(5) 0.1163(10) 0.3590(5)
C28 C -0.0245(6) 0.2428(11) 0.3121(6)
C29 C -0.0872(6) 0.3037(11) 0.3121(6)
H20 H -0.1197 0.3513 0.2719
C30 C -0.1017(6) 0.2956(12) 0.3682(7)
H21 H -0.1440 0.3381 0.3674
C31 C -0.0527(6) 0.2217(12) 0.4298(6)
H22 H -0.0627 0.2161 0.4693
C32 C 0.0091(5) 0.1590(11) 0.4307(5)
H23 H 0.0417 0.1111 0.4709
C33 C 0.1297(5) -0.1327(9) 0.4259(5)
C34 C 0.0704(5) -0.2225(10) 0.3885(5)
H24 H 0.0326 -0.1737 0.3528
C35 C 0.0668(6) -0.3807(13) 0.4033(6)
H25 H 0.0270 -0.4411 0.3770
C36 C 0.1221(7) -0.4554(11) 0.4578(7)
H26 H 0.1191 -0.5637 0.4693
C37 C 0.1808(5) -0.3639(12) 0.4936(5)
H27 H 0.2190 -0.4132 0.5286
C38 C 0.1854(5) -0.2024(11) 0.4796(5)
H28 H 0.2252 -0.1415 0.5057
Cl2 Cl 0.25182(17) 0.5799(4) 0.36983(17)
N4 N 0.4773(4) 0.6672(8) 0.1277(4)
N5 N 0.4965(4) 0.7387(8) 0.2354(4)
N6 N 0.3635(3) 0.5329(8) 0.0906(3)
H15 H 0.3480 0.5901 0.0532
C20 C 0.3394(5) 0.5115(10) 0.2343(5)
H16 H 0.3346 0.4363 0.1996
C21 C 0.2979(5) 0.4932(11) 0.2708(5)
H17 H 0.2644 0.4103 0.2597
C22 C 0.3063(5) 0.5997(14) 0.3247(6)
C23 C 0.3562(6) 0.7202(13) 0.3396(6)
H18 H 0.3625 0.7899 0.3766
C24 C 0.3960(5) 0.7415(12) 0.3034(5)
H19 H 0.4292 0.8253 0.3152
C25 C 0.3883(5) 0.6356(10) 0.2459(5)
C26 C 0.4331(4) 0.6611(9) 0.2078(5)
C27 C 0.4188(5) 0.6163(10) 0.1410(5)
C28 C 0.5245(6) 0.7428(11) 0.1879(6)
C29 C 0.5872(6) 0.8037(11) 0.1879(6)
H20 H 0.6197 0.8513 0.2281
C30 C 0.6017(6) 0.7956(12) 0.1318(7)
H21 H 0.6440 0.8381 0.1326
C31 C 0.5527(6) 0.7217(12) 0.0702(6)
H22 H 0.5627 0.7161 0.0307
C32 C 0.4909(5) 0.6590(11) 0.0693(5)
H23 H 0.4583 0.6111 0.0291
C33 C 0.3703(5) 0.3673(9) 0.0741(5)
C34 C 0.4296(5) 0.2775(10) 0.1115(5)
H24 H 0.4674 0.3263 0.1472
C35 C 0.4332(6) 0.1193(13) 0.0967(6)
H25 H 0.4730 0.0589 0.1230
C36 C 0.3779(7) 0.0446(11) 0.0422(7)
H26 H 0.3809 -0.0637 0.0307
C37 C 0.3192(5) 0.1361(12) 0.0064(5)
H27 H 0.2810 0.0868 -0.0286
C38 C 0.3146(5) 0.2976(11) 0.0204(5)
H28 H 0.2748 0.3585 -0.0057
Cl2 Cl 0.75182(17) 0.9201(4) 0.86983(17)
N4 N 0.9773(4) 0.8328(8) 0.6277(4)
N5 N 0.9965(4) 0.7613(8) 0.7354(4)
N6 N 0.8635(3) 0.9671(8) 0.5906(3)
H15 H 0.8480 0.9099 0.5532
C20 C 0.8394(5) 0.9885(10) 0.7343(5)
H16 H 0.8346 1.0637 0.6996
C21 C 0.7979(5) 1.0068(11) 0.7708(5)
H17 H 0.7644 1.0897 0.7597
C22 C 0.8063(5) 0.9003(14) 0.8247(6)
C23 C 0.8562(6) 0.7798(13) 0.8396(6)
H18 H 0.8625 0.7101 0.8766
C24 C 0.8960(5) 0.7585(12) 0.8034(5)
H19 H 0.9292 0.6747 0.8152
C25 C 0.8883(5) 0.8644(10) 0.7459(5)
C26 C 0.9331(4) 0.8389(9) 0.7078(5)
C27 C 0.9188(5) 0.8837(10) 0.6410(5)
C28 C 1.0245(6) 0.7572(11) 0.6879(6)
C29 C 1.0872(6) 0.6963(11) 0.6879(6)
H20 H 1.1197 0.6487 0.7281
C30 C 1.1017(6) 0.7044(12) 0.6318(7)
H21 H 1.1440 0.6619 0.6326
C31 C 1.0527(6) 0.7783(12) 0.5702(6)
H22 H 1.0627 0.7839 0.5307
C32 C 0.9909(5) 0.8410(11) 0.5693(5)
H23 H 0.9583 0.8889 0.5291
C33 C 0.8703(5) 1.1327(9) 0.5741(5)
C34 C 0.9296(5) 1.2225(10) 0.6115(5)
H24 H 0.9674 1.1737 0.6472
C35 C 0.9332(6) 1.3807(13) 0.5967(6)
H25 H 0.9730 1.4411 0.6230
C36 C 0.8779(7) 1.4554(11) 0.5422(7)
H26 H 0.8809 1.5637 0.5307
C37 C 0.8192(5) 1.3639(12) 0.5064(5)
H27 H 0.7810 1.4132 0.4714
C38 C 0.8146(5) 1.2024(11) 0.5204(5)
H28 H 0.7748 1.1415 0.4943
Cl2 Cl 0.74818(17) 0.4201(4) 0.63017(17)
N4 N 0.5227(4) 0.3328(8) 0.8723(4)
N5 N 0.5035(4) 0.2613(8) 0.7646(4)
N6 N 0.6365(3) 0.4671(8) 0.9094(3)
H15 H 0.6520 0.4099 0.9468
C20 C 0.6606(5) 0.4885(10) 0.7657(5)
H16 H 0.6654 0.5637 0.8004
C21 C 0.7021(5) 0.5068(11) 0.7292(5)
H17 H 0.7356 0.5897 0.7403
C22 C 0.6937(5) 0.4003(14) 0.6753(6)
C23 C 0.6438(6) 0.2798(13) 0.6604(6)
H18 H 0.6375 0.2101 0.6234
C24 C 0.6040(5) 0.2585(12) 0.6966(5)
H19 H 0.5708 0.1747 0.6848
C25 C 0.6117(5) 0.3644(10) 0.7541(5)
C26 C 0.5669(4) 0.3389(9) 0.7922(5)
C27 C 0.5812(5) 0.3837(10) 0.8590(5)
C28 C 0.4755(6) 0.2572(11) 0.8121(6)
C29 C 0.4128(6) 0.1963(11) 0.8121(6)
H20 H 0.3803 0.1487 0.7719
C30 C 0.3983(6) 0.2044(12) 0.8682(7)
H21 H 0.3560 0.1619 0.8674
C31 C 0.4473(6) 0.2783(12) 0.9298(6)
H22 H 0.4373 0.2839 0.9693
C32 C 0.5091(5) 0.3410(11) 0.9307(5)
H23 H 0.5417 0.3889 0.9709
C33 C 0.6297(5) 0.6327(9) 0.9259(5)
C34 C 0.5704(5) 0.7225(10) 0.8885(5)
H24 H 0.5326 0.6737 0.8528
C35 C 0.5668(6) 0.8807(13) 0.9033(6)
H25 H 0.5270 0.9411 0.8770
C36 C 0.6221(7) 0.9554(11) 0.9578(7)
H26 H 0.6191 1.0637 0.9693
C37 C 0.6808(5) 0.8639(12) 0.9936(5)
H27 H 0.7190 0.9132 1.0286
C38 C 0.6854(5) 0.7024(11) 0.9796(5)
H28 H 0.7252 0.6415 1.0057
H29? H 0.7320 0.3459 -0.0196
H30? H 0.9846 0.2786 0.2234
H29? H 0.7680 0.8459 0.5196
H30? H 0.5154 0.7786 0.2766
H29? H 0.2680 0.6541 1.0196
H30? H 0.0154 0.7214 0.7766
H29? H 0.2320 0.1541 0.4804
H30? H 0.4846 0.2214 0.7234

#END
