./KABDUP_from_xyz.cif_generated_by_CrystalShift
_symmetry_cell_setting triclinic
_symmetry_space_group_name_H-M 'P 1'
loop_
_symmetry_equiv_pos_site_id
_symmetry_equiv_pos_as_xyz
1 x,y,z
_cell_length_a 6.129400
_cell_length_b 6.149200
_cell_length_c 15.902400
_cell_angle_alpha 90.341000
_cell_angle_beta 100.911000
_cell_angle_gamma 106.244000
_cell_volume 563.941655
loop_
_atom_site_label
_atom_site_type_symbol
_atom_site_fract_x
_atom_site_fract_y
_atom_site_fract_z
C1 C 0.915400 -0.013700 0.512920
H2 H 0.763300 -0.109300 0.485500
H3 H 1.029100 -0.058900 0.487500
C4 C 1.462200 0.110400 0.782570
H5 H 1.479000 0.043700 0.837000
H6 H 1.511600 0.272800 0.791400
H7 H 1.555500 0.063600 0.748000
C8 C 0.956000 -0.057700 0.608080
H9 H 0.835500 -0.026100 0.633600
H10 H 0.949800 -0.215800 0.615000
C11 C 1.190300 0.092400 0.652680
H12 H 1.310400 0.060300 0.625900
C13 C 1.197300 0.340700 0.642900
H14 H 1.082700 0.375100 0.671100
H15 H 1.348800 0.436900 0.670600
C16 C 1.148900 0.391200 0.549370
C17 C 1.293000 0.563600 0.519400
H18 H 1.421000 0.651800 0.558200
C19 C 1.264600 0.626100 0.428050
H20 H 1.378500 0.583400 0.401800
H21 H 1.295000 0.789400 0.426700
C22 C 1.022400 0.511700 0.375260
H23 H 0.913900 0.590800 0.388900
C24 C 0.941700 0.262300 0.396870
H25 H 1.060700 0.193300 0.386200
C26 C 0.929800 0.235100 0.493230
C27 C 0.716000 0.132500 0.335770
H28 H 0.589800 0.183900 0.349200
H29 H 0.683500 -0.027600 0.346100
C30 C 0.720600 0.160700 0.240110
H31 H 0.830100 0.088900 0.224100
H32 H 0.568400 0.085100 0.206200
C33 C 0.789300 0.411000 0.220130
C34 C 1.025000 0.521400 0.279960
H35 H 1.128100 0.432800 0.269000
C36 C 1.114500 0.752500 0.244520
H37 H 1.282500 0.805900 0.258800
H38 H 1.051800 0.863900 0.267000
C39 C 1.027200 0.708000 0.146560
H40 H 1.156300 0.721700 0.117900
H41 H 0.945400 0.816000 0.124100
C42 C 0.861100 0.462100 0.132230
H43 H 0.956800 0.362700 0.124300
C44 C 0.603100 0.523000 0.233000
H45 H 0.649700 0.679400 0.219900
H46 H 0.584000 0.513500 0.291500
H47 H 0.459000 0.446200 0.195600
C48 C 0.718700 0.295500 0.515050
H49 H 0.715500 0.441300 0.494600
H50 H 0.729800 0.299800 0.576100
H51 H 0.579100 0.182900 0.488000
C52 C 0.674800 0.429400 0.048990
C53 C 0.509600 0.188400 0.035770
H54 H 0.413000 0.168000 -0.020400
H55 H 0.414300 0.165300 0.078200
H56 H 0.597800 0.080800 0.041200
C57 C 0.801800 0.479700 -0.025910
C58 C 0.930200 0.343900 -0.049760
H59 H 0.939900 0.215100 -0.020700
C60 C 1.043000 0.403500 -0.117360
H61 H 1.129000 0.314800 -0.134600
C62 C 1.026200 0.596800 -0.159070
H63 H 1.101800 0.641500 -0.204300
C64 C 0.894600 0.721200 -0.131780
H65 H 0.882800 0.850900 -0.159900
N66 N 0.782700 0.664800 -0.066780
O67 O 1.227120 0.038420 0.740280
O68 O 0.539030 0.581860 0.050430
H69 H 0.562000 0.656000 0.011400

#END
