
#######################################################################
#
#                 Cambridge Crystallographic Data Centre
#                                CCDC 
#
#######################################################################
#
# If this CIF has been generated from an entry in the Cambridge 
# Structural Database, then it will include bibliographic, chemical, 
# crystal, experimental, refinement or atomic coordinate data resulting 
# from the CCDC's data processing and validation procedures.
#
#######################################################################

data_KABDEX
_symmetry_cell_setting           monoclinic
_symmetry_space_group_name_H-M   'I 2/a'
_symmetry_Int_Tables_number      15
_space_group_name_Hall           '-I 2ya'
loop_
_symmetry_equiv_pos_site_id
_symmetry_equiv_pos_as_xyz
1 x,y,z
2 1/2+x,1/2+y,1/2+z
3 1/2+x,-y,z
4 x,1/2-y,1/2+z
5 -x,-y,-z
6 1/2-x,1/2-y,1/2-z
7 1/2-x,y,-z
8 -x,1/2+y,1/2-z
_cell_length_a                   21.587(5)
_cell_length_b                   8.979(5)
_cell_length_c                   26.183(5)
_cell_angle_alpha                90
_cell_angle_beta                 104.844(5)
_cell_angle_gamma                90
_cell_volume                     4905.67
loop_
_atom_site_label
_atom_site_type_symbol
_atom_site_fract_x
_atom_site_fract_y
_atom_site_fract_z
Pd1 Pd 0.90134(5) -0.01054(10) 0.11318(4)
Cl1 Cl 0.9621(2) -0.1712(4) 0.07179(19)
Cl2 Cl 0.85110(19) -0.2116(4) 0.14180(16)
P1 P 0.84159(18) 0.1384(4) 0.14604(15)
N1 N 0.9432(6) 0.1853(12) 0.0937(4)
C1 C 0.8752(8) 0.3235(14) 0.1405(5)
H1 H 0.8398 0.3913 0.1251
C2 C 0.9056(7) 0.3739(14) 0.1973(5)
C3 C 0.9416(10) 0.4924(14) 0.2126(8)
H2 H 0.9548 0.5485 0.1874
C4 C 0.9619(10) 0.539(2) 0.2691(8)
H3 H 0.9601 0.6469 0.2710
H4 H 1.0061 0.5092 0.2838
C5 C 0.9218(9) 0.4747(15) 0.3018(7)
H5 H 0.8800 0.5218 0.2926
H6 H 0.9415 0.4948 0.3388
C6 C 0.9140(8) 0.3094(16) 0.2935(6)
H7 H 0.9550 0.2612 0.3078
H8 H 0.8843 0.2724 0.3128
C7 C 0.8900(7) 0.2690(15) 0.2370(6)
C8 C 0.8543(7) 0.1504(15) 0.2164(6)
C9 C 0.8333(8) 0.0356(16) 0.2509(6)
C10 C 0.8774(9) -0.0484(19) 0.2846(7)
H9 H 0.9204 -0.0382 0.2853
C11 C 0.8593(10) -0.151(2) 0.3188(7)
H10 H 0.8898 -0.2109 0.3411
C12 C 0.7945(10) -0.1612(19) 0.3185(7)
H11 H 0.7822 -0.2238 0.3424
C13 C 0.7481(10) -0.0785(19) 0.2827(7)
H12 H 0.7049 -0.0876 0.2818
C14 C 0.7684(10) 0.0192(17) 0.2481(8)
H13 H 0.7383 0.0730 0.2232
C15 C 0.9208(7) 0.3227(14) 0.1050(5)
C16 C 0.9460(10) 0.4435(19) 0.0894(7)
H14 H 0.9304 0.5362 0.0960
C17 C 0.9947(10) 0.4372(19) 0.0638(7)
H15 H 1.0128 0.5239 0.0546
C18 C 1.0138(8) 0.3110(18) 0.0532(6)
H16 H 1.0459 0.3047 0.0355
C19 C 0.9872(8) 0.1793(16) 0.0679(6)
H17 H 1.0013 0.0873 0.0590
C20 C 0.7582(7) 0.1385(16) 0.1122(6)
C21 C 0.7171(8) 0.250(2) 0.1236(7)
H18 H 0.7337 0.3212 0.1492
C22 C 0.6530(10) 0.254(3) 0.0974(8)
H19 H 0.6260 0.3242 0.1065
C23 C 0.6292(10) 0.151(3) 0.0565(8)
H20 H 0.5865 0.1538 0.0371
C24 C 0.6695(14) 0.048(4) 0.0462(12)
H21 H 0.6527 -0.0192 0.0192
C25 C 0.7343(11) 0.033(3) 0.0720(10)
H22 H 0.7599 -0.0407 0.0634
Pd1 Pd 0.40134(5) 0.48946(10) 0.61318(4)
Cl1 Cl 0.4621(2) 0.3288(4) 0.57179(19)
Cl2 Cl 0.35110(19) 0.2884(4) 0.64180(16)
P1 P 0.34159(18) 0.6384(4) 0.64604(15)
N1 N 0.4432(6) 0.6853(12) 0.5937(4)
C1 C 0.3752(8) 0.8235(14) 0.6405(5)
H1 H 0.3398 0.8913 0.6251
C2 C 0.4056(7) 0.8739(14) 0.6973(5)
C3 C 0.4416(10) 0.9924(14) 0.7126(8)
H2 H 0.4548 1.0485 0.6874
C4 C 0.4619(10) 1.039(2) 0.7691(8)
H3 H 0.4601 1.1469 0.7710
H4 H 0.5061 1.0092 0.7838
C5 C 0.4218(9) 0.9747(15) 0.8018(7)
H5 H 0.3800 1.0218 0.7926
H6 H 0.4415 0.9948 0.8388
C6 C 0.4140(8) 0.8094(16) 0.7935(6)
H7 H 0.4550 0.7612 0.8078
H8 H 0.3843 0.7724 0.8128
C7 C 0.3900(7) 0.7690(15) 0.7370(6)
C8 C 0.3543(7) 0.6504(15) 0.7164(6)
C9 C 0.3333(8) 0.5356(16) 0.7509(6)
C10 C 0.3774(9) 0.4516(19) 0.7846(7)
H9 H 0.4204 0.4618 0.7853
C11 C 0.3593(10) 0.349(2) 0.8188(7)
H10 H 0.3898 0.2891 0.8411
C12 C 0.2945(10) 0.3388(19) 0.8185(7)
H11 H 0.2822 0.2762 0.8424
C13 C 0.2481(10) 0.4215(19) 0.7827(7)
H12 H 0.2049 0.4124 0.7818
C14 C 0.2684(10) 0.5192(17) 0.7481(8)
H13 H 0.2383 0.5730 0.7232
C15 C 0.4208(7) 0.8227(14) 0.6050(5)
C16 C 0.4460(10) 0.9435(19) 0.5894(7)
H14 H 0.4304 1.0362 0.5960
C17 C 0.4947(10) 0.9372(19) 0.5638(7)
H15 H 0.5128 1.0239 0.5546
C18 C 0.5138(8) 0.8110(18) 0.5532(6)
H16 H 0.5459 0.8047 0.5355
C19 C 0.4872(8) 0.6793(16) 0.5679(6)
H17 H 0.5013 0.5873 0.5590
C20 C 0.2582(7) 0.6385(16) 0.6122(6)
C21 C 0.2171(8) 0.750(2) 0.6236(7)
H18 H 0.2337 0.8212 0.6492
C22 C 0.1530(10) 0.754(3) 0.5974(8)
H19 H 0.1260 0.8242 0.6065
C23 C 0.1292(10) 0.651(3) 0.5565(8)
H20 H 0.0865 0.6538 0.5371
C24 C 0.1695(14) 0.548(4) 0.5462(12)
H21 H 0.1527 0.4808 0.5192
C25 C 0.2343(11) 0.533(3) 0.5720(10)
H22 H 0.2599 0.4593 0.5634
Pd1 Pd 0.40134(5) 1.01054(10) 0.11318(4)
Cl1 Cl 0.4621(2) 1.1712(4) 0.07179(19)
Cl2 Cl 0.35110(19) 1.2116(4) 0.14180(16)
P1 P 0.34159(18) 0.8616(4) 0.14604(15)
N1 N 0.4432(6) 0.8147(12) 0.0937(4)
C1 C 0.3752(8) 0.6765(14) 0.1405(5)
H1 H 0.3398 0.6087 0.1251
C2 C 0.4056(7) 0.6261(14) 0.1973(5)
C3 C 0.4416(10) 0.5076(14) 0.2126(8)
H2 H 0.4548 0.4515 0.1874
C4 C 0.4619(10) 0.461(2) 0.2691(8)
H3 H 0.4601 0.3531 0.2710
H4 H 0.5061 0.4908 0.2838
C5 C 0.4218(9) 0.5253(15) 0.3018(7)
H5 H 0.3800 0.4782 0.2926
H6 H 0.4415 0.5052 0.3388
C6 C 0.4140(8) 0.6906(16) 0.2935(6)
H7 H 0.4550 0.7388 0.3078
H8 H 0.3843 0.7276 0.3128
C7 C 0.3900(7) 0.7310(15) 0.2370(6)
C8 C 0.3543(7) 0.8496(15) 0.2164(6)
C9 C 0.3333(8) 0.9644(16) 0.2509(6)
C10 C 0.3774(9) 1.0484(19) 0.2846(7)
H9 H 0.4204 1.0382 0.2853
C11 C 0.3593(10) 1.151(2) 0.3188(7)
H10 H 0.3898 1.2109 0.3411
C12 C 0.2945(10) 1.1612(19) 0.3185(7)
H11 H 0.2822 1.2238 0.3424
C13 C 0.2481(10) 1.0785(19) 0.2827(7)
H12 H 0.2049 1.0876 0.2818
C14 C 0.2684(10) 0.9808(17) 0.2481(8)
H13 H 0.2383 0.9270 0.2232
C15 C 0.4208(7) 0.6773(14) 0.1050(5)
C16 C 0.4460(10) 0.5565(19) 0.0894(7)
H14 H 0.4304 0.4638 0.0960
C17 C 0.4947(10) 0.5628(19) 0.0638(7)
H15 H 0.5128 0.4761 0.0546
C18 C 0.5138(8) 0.6890(18) 0.0532(6)
H16 H 0.5459 0.6953 0.0355
C19 C 0.4872(8) 0.8207(16) 0.0679(6)
H17 H 0.5013 0.9127 0.0590
C20 C 0.2582(7) 0.8615(16) 0.1122(6)
C21 C 0.2171(8) 0.750(2) 0.1236(7)
H18 H 0.2337 0.6788 0.1492
C22 C 0.1530(10) 0.746(3) 0.0974(8)
H19 H 0.1260 0.6758 0.1065
C23 C 0.1292(10) 0.849(3) 0.0565(8)
H20 H 0.0865 0.8462 0.0371
C24 C 0.1695(14) 0.952(4) 0.0462(12)
H21 H 0.1527 1.0192 0.0192
C25 C 0.2343(11) 0.967(3) 0.0720(10)
H22 H 0.2599 1.0407 0.0634
Pd1 Pd 0.90134(5) 0.51054(10) 0.61318(4)
Cl1 Cl 0.9621(2) 0.6712(4) 0.57179(19)
Cl2 Cl 0.85110(19) 0.7116(4) 0.64180(16)
P1 P 0.84159(18) 0.3616(4) 0.64604(15)
N1 N 0.9432(6) 0.3147(12) 0.5937(4)
C1 C 0.8752(8) 0.1765(14) 0.6405(5)
H1 H 0.8398 0.1087 0.6251
C2 C 0.9056(7) 0.1261(14) 0.6973(5)
C3 C 0.9416(10) 0.0076(14) 0.7126(8)
H2 H 0.9548 -0.0485 0.6874
C4 C 0.9619(10) -0.039(2) 0.7691(8)
H3 H 0.9601 -0.1469 0.7710
H4 H 1.0061 -0.0092 0.7838
C5 C 0.9218(9) 0.0253(15) 0.8018(7)
H5 H 0.8800 -0.0218 0.7926
H6 H 0.9415 0.0052 0.8388
C6 C 0.9140(8) 0.1906(16) 0.7935(6)
H7 H 0.9550 0.2388 0.8078
H8 H 0.8843 0.2276 0.8128
C7 C 0.8900(7) 0.2310(15) 0.7370(6)
C8 C 0.8543(7) 0.3496(15) 0.7164(6)
C9 C 0.8333(8) 0.4644(16) 0.7509(6)
C10 C 0.8774(9) 0.5484(19) 0.7846(7)
H9 H 0.9204 0.5382 0.7853
C11 C 0.8593(10) 0.651(2) 0.8188(7)
H10 H 0.8898 0.7109 0.8411
C12 C 0.7945(10) 0.6612(19) 0.8185(7)
H11 H 0.7822 0.7238 0.8424
C13 C 0.7481(10) 0.5785(19) 0.7827(7)
H12 H 0.7049 0.5876 0.7818
C14 C 0.7684(10) 0.4808(17) 0.7481(8)
H13 H 0.7383 0.4270 0.7232
C15 C 0.9208(7) 0.1773(14) 0.6050(5)
C16 C 0.9460(10) 0.0565(19) 0.5894(7)
H14 H 0.9304 -0.0362 0.5960
C17 C 0.9947(10) 0.0628(19) 0.5638(7)
H15 H 1.0128 -0.0239 0.5546
C18 C 1.0138(8) 0.1890(18) 0.5532(6)
H16 H 1.0459 0.1953 0.5355
C19 C 0.9872(8) 0.3207(16) 0.5679(6)
H17 H 1.0013 0.4127 0.5590
C20 C 0.7582(7) 0.3615(16) 0.6122(6)
C21 C 0.7171(8) 0.250(2) 0.6236(7)
H18 H 0.7337 0.1788 0.6492
C22 C 0.6530(10) 0.246(3) 0.5974(8)
H19 H 0.6260 0.1758 0.6065
C23 C 0.6292(10) 0.349(3) 0.5565(8)
H20 H 0.5865 0.3462 0.5371
C24 C 0.6695(14) 0.452(4) 0.5462(12)
H21 H 0.6527 0.5192 0.5192
C25 C 0.7343(11) 0.467(3) 0.5720(10)
H22 H 0.7599 0.5407 0.5634
Pd1 Pd 0.09866(5) 1.01054(10) 0.88682(4)
Cl1 Cl 0.0379(2) 1.1712(4) 0.92821(19)
Cl2 Cl 0.14890(19) 1.2116(4) 0.85820(16)
P1 P 0.15841(18) 0.8616(4) 0.85396(15)
N1 N 0.0568(6) 0.8147(12) 0.9063(4)
C1 C 0.1248(8) 0.6765(14) 0.8595(5)
H1 H 0.1602 0.6087 0.8749
C2 C 0.0944(7) 0.6261(14) 0.8027(5)
C3 C 0.0584(10) 0.5076(14) 0.7874(8)
H2 H 0.0452 0.4515 0.8126
C4 C 0.0381(10) 0.461(2) 0.7309(8)
H3 H 0.0399 0.3531 0.7290
H4 H -0.0061 0.4908 0.7162
C5 C 0.0782(9) 0.5253(15) 0.6982(7)
H5 H 0.1200 0.4782 0.7074
H6 H 0.0585 0.5052 0.6612
C6 C 0.0860(8) 0.6906(16) 0.7065(6)
H7 H 0.0450 0.7388 0.6922
H8 H 0.1157 0.7276 0.6872
C7 C 0.1100(7) 0.7310(15) 0.7630(6)
C8 C 0.1457(7) 0.8496(15) 0.7836(6)
C9 C 0.1667(8) 0.9644(16) 0.7491(6)
C10 C 0.1226(9) 1.0484(19) 0.7154(7)
H9 H 0.0796 1.0382 0.7147
C11 C 0.1407(10) 1.151(2) 0.6812(7)
H10 H 0.1102 1.2109 0.6589
C12 C 0.2055(10) 1.1612(19) 0.6815(7)
H11 H 0.2178 1.2238 0.6576
C13 C 0.2519(10) 1.0785(19) 0.7173(7)
H12 H 0.2951 1.0876 0.7182
C14 C 0.2316(10) 0.9808(17) 0.7519(8)
H13 H 0.2617 0.9270 0.7768
C15 C 0.0792(7) 0.6773(14) 0.8950(5)
C16 C 0.0540(10) 0.5565(19) 0.9106(7)
H14 H 0.0696 0.4638 0.9040
C17 C 0.0053(10) 0.5628(19) 0.9362(7)
H15 H -0.0128 0.4761 0.9454
C18 C -0.0138(8) 0.6890(18) 0.9468(6)
H16 H -0.0459 0.6953 0.9645
C19 C 0.0128(8) 0.8207(16) 0.9321(6)
H17 H -0.0013 0.9127 0.9410
C20 C 0.2418(7) 0.8615(16) 0.8878(6)
C21 C 0.2829(8) 0.750(2) 0.8764(7)
H18 H 0.2663 0.6788 0.8508
C22 C 0.3470(10) 0.746(3) 0.9026(8)
H19 H 0.3740 0.6758 0.8935
C23 C 0.3708(10) 0.849(3) 0.9435(8)
H20 H 0.4135 0.8462 0.9629
C24 C 0.3305(14) 0.952(4) 0.9538(12)
H21 H 0.3473 1.0192 0.9808
C25 C 0.2657(11) 0.967(3) 0.9280(10)
H22 H 0.2401 1.0407 0.9366
Pd1 Pd 0.59866(5) 0.51054(10) 0.38682(4)
Cl1 Cl 0.5379(2) 0.6712(4) 0.42821(19)
Cl2 Cl 0.64890(19) 0.7116(4) 0.35820(16)
P1 P 0.65841(18) 0.3616(4) 0.35396(15)
N1 N 0.5568(6) 0.3147(12) 0.4063(4)
C1 C 0.6248(8) 0.1765(14) 0.3595(5)
H1 H 0.6602 0.1087 0.3749
C2 C 0.5944(7) 0.1261(14) 0.3027(5)
C3 C 0.5584(10) 0.0076(14) 0.2874(8)
H2 H 0.5452 -0.0485 0.3126
C4 C 0.5381(10) -0.039(2) 0.2309(8)
H3 H 0.5399 -0.1469 0.2290
H4 H 0.4939 -0.0092 0.2162
C5 C 0.5782(9) 0.0253(15) 0.1982(7)
H5 H 0.6200 -0.0218 0.2074
H6 H 0.5585 0.0052 0.1612
C6 C 0.5860(8) 0.1906(16) 0.2065(6)
H7 H 0.5450 0.2388 0.1922
H8 H 0.6157 0.2276 0.1872
C7 C 0.6100(7) 0.2310(15) 0.2630(6)
C8 C 0.6457(7) 0.3496(15) 0.2836(6)
C9 C 0.6667(8) 0.4644(16) 0.2491(6)
C10 C 0.6226(9) 0.5484(19) 0.2154(7)
H9 H 0.5796 0.5382 0.2147
C11 C 0.6407(10) 0.651(2) 0.1812(7)
H10 H 0.6102 0.7109 0.1589
C12 C 0.7055(10) 0.6612(19) 0.1815(7)
H11 H 0.7178 0.7238 0.1576
C13 C 0.7519(10) 0.5785(19) 0.2173(7)
H12 H 0.7951 0.5876 0.2182
C14 C 0.7316(10) 0.4808(17) 0.2519(8)
H13 H 0.7617 0.4270 0.2768
C15 C 0.5792(7) 0.1773(14) 0.3950(5)
C16 C 0.5540(10) 0.0565(19) 0.4106(7)
H14 H 0.5696 -0.0362 0.4040
C17 C 0.5053(10) 0.0628(19) 0.4362(7)
H15 H 0.4872 -0.0239 0.4454
C18 C 0.4862(8) 0.1890(18) 0.4468(6)
H16 H 0.4541 0.1953 0.4645
C19 C 0.5128(8) 0.3207(16) 0.4321(6)
H17 H 0.4987 0.4127 0.4410
C20 C 0.7418(7) 0.3615(16) 0.3878(6)
C21 C 0.7829(8) 0.250(2) 0.3764(7)
H18 H 0.7663 0.1788 0.3508
C22 C 0.8470(10) 0.246(3) 0.4026(8)
H19 H 0.8740 0.1758 0.3935
C23 C 0.8708(10) 0.349(3) 0.4435(8)
H20 H 0.9135 0.3462 0.4629
C24 C 0.8305(14) 0.452(4) 0.4538(12)
H21 H 0.8473 0.5192 0.4808
C25 C 0.7657(11) 0.467(3) 0.4280(10)
H22 H 0.7401 0.5407 0.4366
Pd1 Pd 0.59866(5) -0.01054(10) 0.88682(4)
Cl1 Cl 0.5379(2) -0.1712(4) 0.92821(19)
Cl2 Cl 0.64890(19) -0.2116(4) 0.85820(16)
P1 P 0.65841(18) 0.1384(4) 0.85396(15)
N1 N 0.5568(6) 0.1853(12) 0.9063(4)
C1 C 0.6248(8) 0.3235(14) 0.8595(5)
H1 H 0.6602 0.3913 0.8749
C2 C 0.5944(7) 0.3739(14) 0.8027(5)
C3 C 0.5584(10) 0.4924(14) 0.7874(8)
H2 H 0.5452 0.5485 0.8126
C4 C 0.5381(10) 0.539(2) 0.7309(8)
H3 H 0.5399 0.6469 0.7290
H4 H 0.4939 0.5092 0.7162
C5 C 0.5782(9) 0.4747(15) 0.6982(7)
H5 H 0.6200 0.5218 0.7074
H6 H 0.5585 0.4948 0.6612
C6 C 0.5860(8) 0.3094(16) 0.7065(6)
H7 H 0.5450 0.2612 0.6922
H8 H 0.6157 0.2724 0.6872
C7 C 0.6100(7) 0.2690(15) 0.7630(6)
C8 C 0.6457(7) 0.1504(15) 0.7836(6)
C9 C 0.6667(8) 0.0356(16) 0.7491(6)
C10 C 0.6226(9) -0.0484(19) 0.7154(7)
H9 H 0.5796 -0.0382 0.7147
C11 C 0.6407(10) -0.151(2) 0.6812(7)
H10 H 0.6102 -0.2109 0.6589
C12 C 0.7055(10) -0.1612(19) 0.6815(7)
H11 H 0.7178 -0.2238 0.6576
C13 C 0.7519(10) -0.0785(19) 0.7173(7)
H12 H 0.7951 -0.0876 0.7182
C14 C 0.7316(10) 0.0192(17) 0.7519(8)
H13 H 0.7617 0.0730 0.7768
C15 C 0.5792(7) 0.3227(14) 0.8950(5)
C16 C 0.5540(10) 0.4435(19) 0.9106(7)
H14 H 0.5696 0.5362 0.9040
C17 C 0.5053(10) 0.4372(19) 0.9362(7)
H15 H 0.4872 0.5239 0.9454
C18 C 0.4862(8) 0.3110(18) 0.9468(6)
H16 H 0.4541 0.3047 0.9645
C19 C 0.5128(8) 0.1793(16) 0.9321(6)
H17 H 0.4987 0.0873 0.9410
C20 C 0.7418(7) 0.1385(16) 0.8878(6)
C21 C 0.7829(8) 0.250(2) 0.8764(7)
H18 H 0.7663 0.3212 0.8508
C22 C 0.8470(10) 0.254(3) 0.9026(8)
H19 H 0.8740 0.3242 0.8935
C23 C 0.8708(10) 0.151(3) 0.9435(8)
H20 H 0.9135 0.1538 0.9629
C24 C 0.8305(14) 0.048(4) 0.9538(12)
H21 H 0.8473 -0.0192 0.9808
C25 C 0.7657(11) 0.033(3) 0.9280(10)
H22 H 0.7401 -0.0407 0.9366
Pd1 Pd 0.09866(5) 0.48946(10) 0.38682(4)
Cl1 Cl 0.0379(2) 0.3288(4) 0.42821(19)
Cl2 Cl 0.14890(19) 0.2884(4) 0.35820(16)
P1 P 0.15841(18) 0.6384(4) 0.35396(15)
N1 N 0.0568(6) 0.6853(12) 0.4063(4)
C1 C 0.1248(8) 0.8235(14) 0.3595(5)
H1 H 0.1602 0.8913 0.3749
C2 C 0.0944(7) 0.8739(14) 0.3027(5)
C3 C 0.0584(10) 0.9924(14) 0.2874(8)
H2 H 0.0452 1.0485 0.3126
C4 C 0.0381(10) 1.039(2) 0.2309(8)
H3 H 0.0399 1.1469 0.2290
H4 H -0.0061 1.0092 0.2162
C5 C 0.0782(9) 0.9747(15) 0.1982(7)
H5 H 0.1200 1.0218 0.2074
H6 H 0.0585 0.9948 0.1612
C6 C 0.0860(8) 0.8094(16) 0.2065(6)
H7 H 0.0450 0.7612 0.1922
H8 H 0.1157 0.7724 0.1872
C7 C 0.1100(7) 0.7690(15) 0.2630(6)
C8 C 0.1457(7) 0.6504(15) 0.2836(6)
C9 C 0.1667(8) 0.5356(16) 0.2491(6)
C10 C 0.1226(9) 0.4516(19) 0.2154(7)
H9 H 0.0796 0.4618 0.2147
C11 C 0.1407(10) 0.349(2) 0.1812(7)
H10 H 0.1102 0.2891 0.1589
C12 C 0.2055(10) 0.3388(19) 0.1815(7)
H11 H 0.2178 0.2762 0.1576
C13 C 0.2519(10) 0.4215(19) 0.2173(7)
H12 H 0.2951 0.4124 0.2182
C14 C 0.2316(10) 0.5192(17) 0.2519(8)
H13 H 0.2617 0.5730 0.2768
C15 C 0.0792(7) 0.8227(14) 0.3950(5)
C16 C 0.0540(10) 0.9435(19) 0.4106(7)
H14 H 0.0696 1.0362 0.4040
C17 C 0.0053(10) 0.9372(19) 0.4362(7)
H15 H -0.0128 1.0239 0.4454
C18 C -0.0138(8) 0.8110(18) 0.4468(6)
H16 H -0.0459 0.8047 0.4645
C19 C 0.0128(8) 0.6793(16) 0.4321(6)
H17 H -0.0013 0.5873 0.4410
C20 C 0.2418(7) 0.6385(16) 0.3878(6)
C21 C 0.2829(8) 0.750(2) 0.3764(7)
H18 H 0.2663 0.8212 0.3508
C22 C 0.3470(10) 0.754(3) 0.4026(8)
H19 H 0.3740 0.8242 0.3935
C23 C 0.3708(10) 0.651(3) 0.4435(8)
H20 H 0.4135 0.6538 0.4629
C24 C 0.3305(14) 0.548(4) 0.4538(12)
H21 H 0.3473 0.4808 0.4808
C25 C 0.2657(11) 0.533(3) 0.4280(10)
H22 H 0.2401 0.4593 0.4366

#END
