./KABFUQ_from_xyz.cif_generated_by_CrystalShift
_symmetry_cell_setting triclinic
_symmetry_space_group_name_H-M 'P 1'
loop_
_symmetry_equiv_pos_site_id
_symmetry_equiv_pos_as_xyz
1 x,y,z
_cell_length_a 14.671600
_cell_length_b 4.519000
_cell_length_c 19.387400
_cell_angle_alpha 90.000000
_cell_angle_beta 90.218000
_cell_angle_gamma 90.000000
_cell_volume 1285.393958
loop_
_atom_site_label
_atom_site_type_symbol
_atom_site_fract_x
_atom_site_fract_y
_atom_site_fract_z
O1 O 0.378620 0.525900 0.968820
O2 O 0.193290 0.169900 0.825710
O3 O 0.082900 0.219500 0.903360
O4 O 0.362500 0.195000 0.886290
C5 C 0.345000 0.718100 1.016800
C6 C 0.409800 0.847600 1.060500
H7 H 0.471400 0.802500 1.056000
C8 C 0.381300 1.039700 1.109400
H9 H 0.424100 1.127600 1.138300
C10 C 0.287900 1.110500 1.117600
C11 C 0.259700 1.316000 1.168600
H12 H 0.302500 1.404100 1.197500
C13 C 0.170800 1.382600 1.174900
H14 H 0.152700 1.516600 1.208600
C15 C 0.105000 1.254300 1.131900
H16 H 0.043900 1.304200 1.136700
C17 C 0.130900 1.057200 1.083300
H18 H 0.086800 0.971500 1.055100
C19 C 0.222900 0.978600 1.074300
C20 C 0.253000 0.773600 1.022100
C21 C 0.196000 0.615300 0.975700
H22 H 0.133400 0.644600 0.978700
C23 C 0.226600 0.427100 0.928100
C24 C 0.324100 0.369400 0.923400
C25 C 0.160100 0.262100 0.885000
C26 C 0.133900 -0.011100 0.781900
H27 H 0.099300 -0.145500 0.810800
H28 H 0.171100 -0.129100 0.751200
C29 C 0.069900 0.170200 0.740400
H30 H 0.032700 0.042700 0.712400
H31 H 0.103800 0.301600 0.711300
H32 H 0.031700 0.283600 0.770600
O33 O 0.121380 0.025900 0.531180
O34 O 0.306710 -0.330100 0.674290
O35 O 0.417100 -0.280500 0.596640
O36 O 0.137500 -0.305000 0.613710
C37 C 0.155000 0.218100 0.483200
C38 C 0.090200 0.347600 0.439500
H39 H 0.028600 0.302500 0.444000
C40 C 0.118700 0.539700 0.390600
H41 H 0.075900 0.627600 0.361700
C42 C 0.212100 0.610500 0.382400
C43 C 0.240300 0.816000 0.331400
H44 H 0.197500 0.904100 0.302500
C45 C 0.329200 0.882600 0.325100
H46 H 0.347300 1.016600 0.291400
C47 C 0.395000 0.754300 0.368100
H48 H 0.456100 0.804200 0.363300
C49 C 0.369100 0.557200 0.416700
H50 H 0.413200 0.471500 0.444900
C51 C 0.277100 0.478600 0.425700
C52 C 0.247000 0.273600 0.477900
C53 C 0.304000 0.115300 0.524300
H54 H 0.366600 0.144600 0.521300
C55 C 0.273400 -0.072900 0.571900
C56 C 0.175900 -0.130600 0.576600
C57 C 0.339900 -0.237900 0.615000
C58 C 0.366100 -0.511100 0.718100
H59 H 0.400700 -0.645500 0.689200
H60 H 0.328900 -0.629100 0.748800
C61 C 0.430100 -0.329800 0.759600
H62 H 0.467300 -0.457300 0.787600
H63 H 0.396200 -0.198400 0.788700
H64 H 0.468300 -0.216400 0.729400
O65 O 0.621380 0.474100 0.031180
O66 O 0.806710 0.830100 0.174290
O67 O 0.917100 0.780500 0.096640
O68 O 0.637500 0.805000 0.113710
C69 C 0.655000 0.281900 -0.016800
C70 C 0.590200 0.152400 -0.060500
H71 H 0.528600 0.197500 -0.056000
C72 C 0.618700 -0.039700 -0.109400
H73 H 0.575900 -0.127600 -0.138300
C74 C 0.712100 -0.110500 -0.117600
C75 C 0.740300 -0.316000 -0.168600
H76 H 0.697500 -0.404100 -0.197500
C77 C 0.829200 -0.382600 -0.174900
H78 H 0.847300 -0.516600 -0.208600
C79 C 0.895000 -0.254300 -0.131900
H80 H 0.956100 -0.304200 -0.136700
C81 C 0.869100 -0.057200 -0.083300
H82 H 0.913200 0.028500 -0.055100
C83 C 0.777100 0.021400 -0.074300
C84 C 0.747000 0.226400 -0.022100
C85 C 0.804000 0.384700 0.024300
H86 H 0.866600 0.355400 0.021300
C87 C 0.773400 0.572900 0.071900
C88 C 0.675900 0.630600 0.076600
C89 C 0.839900 0.737900 0.115000
C90 C 0.866100 1.011100 0.218100
H91 H 0.900700 1.145500 0.189200
H92 H 0.828900 1.129100 0.248800
C93 C 0.930100 0.829800 0.259600
H94 H 0.967300 0.957300 0.287600
H95 H 0.896200 0.698400 0.288700
H96 H 0.968300 0.716400 0.229400
O97 O 0.878620 0.974100 0.468820
O98 O 0.693290 1.330100 0.325710
O99 O 0.582900 1.280500 0.403360
O100 O 0.862500 1.305000 0.386290
C101 C 0.845000 0.781900 0.516800
C102 C 0.909800 0.652400 0.560500
H103 H 0.971400 0.697500 0.556000
C104 C 0.881300 0.460300 0.609400
H105 H 0.924100 0.372400 0.638300
C106 C 0.787900 0.389500 0.617600
C107 C 0.759700 0.184000 0.668600
H108 H 0.802500 0.095900 0.697500
C109 C 0.670800 0.117400 0.674900
H110 H 0.652700 -0.016600 0.708600
C111 C 0.605000 0.245700 0.631900
H112 H 0.543900 0.195800 0.636700
C113 C 0.630900 0.442800 0.583300
H114 H 0.586800 0.528500 0.555100
C115 C 0.722900 0.521400 0.574300
C116 C 0.753000 0.726400 0.522100
C117 C 0.696000 0.884700 0.475700
H118 H 0.633400 0.855400 0.478700
C119 C 0.726600 1.072900 0.428100
C120 C 0.824100 1.130600 0.423400
C121 C 0.660100 1.237900 0.385000
C122 C 0.633900 1.511100 0.281900
H123 H 0.599300 1.645500 0.310800
H124 H 0.671100 1.629100 0.251200
C125 C 0.569900 1.329800 0.240400
H126 H 0.532700 1.457300 0.212400
H127 H 0.603800 1.198400 0.211300
H128 H 0.531700 1.216400 0.270600

#END
