./KABFEB_from_xyz.cif_generated_by_CrystalShift
_symmetry_cell_setting triclinic
_symmetry_space_group_name_H-M 'P 1'
loop_
_symmetry_equiv_pos_site_id
_symmetry_equiv_pos_as_xyz
1 x,y,z
_cell_length_a 6.208110
_cell_length_b 11.629700
_cell_length_c 29.900700
_cell_angle_alpha 90.000000
_cell_angle_beta 90.000000
_cell_angle_gamma 90.000000
_cell_volume 2158.784399
loop_
_atom_site_label
_atom_site_type_symbol
_atom_site_fract_x
_atom_site_fract_y
_atom_site_fract_z
C1 C 0.328000 0.757300 0.931140
C2 C 0.460100 0.703800 0.966220
H3 H 0.467400 0.738200 0.994300
C4 C 0.569100 0.607800 0.958790
H5 H 0.643900 0.573600 0.982200
C6 C 0.574500 0.553010 0.913520
H7 H 0.470900 0.490600 0.912600
H8 H 0.716400 0.520700 0.908400
C9 C 0.522300 0.639310 0.876210
C10 C 0.450500 0.575340 0.833530
H11 H 0.564700 0.519500 0.827200
C12 C 0.241900 0.502900 0.841460
H13 H 0.278600 0.425400 0.850700
H14 H 0.153700 0.537900 0.864500
C15 C 0.120000 0.500600 0.796540
H16 H 0.075200 0.423100 0.789000
H17 H -0.006100 0.549900 0.797600
C18 C 0.284100 0.545660 0.762880
H19 H 0.386700 0.482800 0.758100
C20 C 0.409100 0.639840 0.788540
C21 C 0.609600 0.665400 0.759910
H22 H 0.691800 0.726700 0.773800
H23 H 0.700200 0.597500 0.758900
C24 C 0.549300 0.700820 0.711990
H25 H 0.680500 0.709700 0.694700
H26 H 0.478500 0.775100 0.713000
C27 C 0.400700 0.615150 0.687580
H28 H 0.485600 0.545000 0.683300
C29 C 0.206000 0.580590 0.716670
H30 H 0.110400 0.647200 0.719700
C31 C 0.081500 0.482950 0.694460
H32 H 0.154400 0.410900 0.700600
H33 H -0.061100 0.478700 0.707600
C34 C 0.059400 0.496760 0.644980
H35 H -0.036100 0.448200 0.630200
C36 C 0.165900 0.573200 0.620430
C37 C 0.332300 0.655510 0.640180
C38 C 0.532900 0.654300 0.609420
H39 H 0.632400 0.713100 0.619500
H40 H 0.604400 0.580600 0.612500
C41 C 0.483400 0.674700 0.559910
H42 H 0.421400 0.750600 0.556100
H43 H 0.615800 0.671200 0.542700
C44 C 0.327400 0.584700 0.542930
H45 H 0.395500 0.508800 0.544700
C46 C 0.122800 0.584300 0.570620
H47 H 0.032500 0.520800 0.561100
H48 H 0.044300 0.655000 0.565100
C49 C 0.424100 0.577900 0.466030
H50 H 0.555200 0.617300 0.473500
H51 H 0.377900 0.600900 0.436700
H52 H 0.448700 0.496400 0.466400
C53 C 0.712900 0.719200 0.868670
H54 H 0.672600 0.778900 0.848100
H55 H 0.831200 0.676200 0.856500
H56 H 0.755300 0.752900 0.896600
C57 C 0.273300 0.749130 0.794690
H58 H 0.232900 0.778800 0.765900
H59 H 0.356100 0.805800 0.810500
H60 H 0.146100 0.731100 0.811500
C61 C 0.232200 0.776640 0.641380
H62 H 0.121000 0.779100 0.663700
H63 H 0.171500 0.794300 0.612700
H64 H 0.341500 0.832000 0.648600
O65 O 0.201100 0.833220 0.937970
O66 O 0.337500 0.711310 0.889600
O67 O 0.263100 0.606160 0.497580
C68 C 0.172000 0.242700 0.431140
C69 C 0.039900 0.296200 0.466220
H70 H 0.032600 0.261800 0.494300
C71 C -0.069100 0.392200 0.458790
H72 H -0.143900 0.426400 0.482200
C73 C -0.074500 0.446990 0.413520
H74 H 0.029100 0.509400 0.412600
H75 H -0.216400 0.479300 0.408400
C76 C -0.022300 0.360690 0.376210
C77 C 0.049500 0.424660 0.333530
H78 H -0.064700 0.480500 0.327200
C79 C 0.258100 0.497100 0.341460
H80 H 0.221400 0.574600 0.350700
H81 H 0.346300 0.462100 0.364500
C82 C 0.380000 0.499400 0.296540
H83 H 0.424800 0.576900 0.289000
H84 H 0.506100 0.450100 0.297600
C85 C 0.215900 0.454340 0.262880
H86 H 0.113300 0.517200 0.258100
C87 C 0.090900 0.360160 0.288540
C88 C -0.109600 0.334600 0.259910
H89 H -0.191800 0.273300 0.273800
H90 H -0.200200 0.402500 0.258900
C91 C -0.049300 0.299180 0.211990
H92 H -0.180500 0.290300 0.194700
H93 H 0.021500 0.224900 0.213000
C94 C 0.099300 0.384850 0.187580
H95 H 0.014400 0.455000 0.183300
C96 C 0.294000 0.419410 0.216670
H97 H 0.389600 0.352800 0.219700
C98 C 0.418500 0.517050 0.194460
H99 H 0.345600 0.589100 0.200600
H100 H 0.561100 0.521300 0.207600
C101 C 0.440600 0.503240 0.144980
H102 H 0.536100 0.551800 0.130200
C103 C 0.334100 0.426800 0.120430
C104 C 0.167700 0.344490 0.140180
C105 C -0.032900 0.345700 0.109420
H106 H -0.132400 0.286900 0.119500
H107 H -0.104400 0.419400 0.112500
C108 C 0.016600 0.325300 0.059910
H109 H 0.078600 0.249400 0.056100
H110 H -0.115800 0.328800 0.042700
C111 C 0.172600 0.415300 0.042930
H112 H 0.104500 0.491200 0.044700
C113 C 0.377200 0.415700 0.070620
H114 H 0.467500 0.479200 0.061100
H115 H 0.455700 0.345000 0.065100
C116 C 0.075900 0.422100 -0.033970
H117 H -0.055200 0.382700 -0.026500
H118 H 0.122100 0.399100 -0.063300
H119 H 0.051300 0.503600 -0.033600
C120 C -0.212900 0.280800 0.368670
H121 H -0.172600 0.221100 0.348100
H122 H -0.331200 0.323800 0.356500
H123 H -0.255300 0.247100 0.396600
C124 C 0.226700 0.250870 0.294690
H125 H 0.267100 0.221200 0.265900
H126 H 0.143900 0.194200 0.310500
H127 H 0.353900 0.268900 0.311500
C128 C 0.267800 0.223360 0.141380
H129 H 0.379000 0.220900 0.163700
H130 H 0.328500 0.205700 0.112700
H131 H 0.158500 0.168000 0.148600
O132 O 0.298900 0.166780 0.437970
O133 O 0.162500 0.288690 0.389600
O134 O 0.236900 0.393840 -0.002420
C135 C 0.828000 0.742700 0.068860
C136 C 0.960100 0.796200 0.033780
H137 H 0.967400 0.761800 0.005700
C138 C 1.069100 0.892200 0.041210
H139 H 1.143900 0.926400 0.017800
C140 C 1.074500 0.946990 0.086480
H141 H 0.970900 1.009400 0.087400
H142 H 1.216400 0.979300 0.091600
C143 C 1.022300 0.860690 0.123790
C144 C 0.950500 0.924660 0.166470
H145 H 1.064700 0.980500 0.172800
C146 C 0.741900 0.997100 0.158540
H147 H 0.778600 1.074600 0.149300
H148 H 0.653700 0.962100 0.135500
C149 C 0.620000 0.999400 0.203460
H150 H 0.575200 1.076900 0.211000
H151 H 0.493900 0.950100 0.202400
C152 C 0.784100 0.954340 0.237120
H153 H 0.886700 1.017200 0.241900
C154 C 0.909100 0.860160 0.211460
C155 C 1.109600 0.834600 0.240090
H156 H 1.191800 0.773300 0.226200
H157 H 1.200200 0.902500 0.241100
C158 C 1.049300 0.799180 0.288010
H159 H 1.180500 0.790300 0.305300
H160 H 0.978500 0.724900 0.287000
C161 C 0.900700 0.884850 0.312420
H162 H 0.985600 0.955000 0.316700
C163 C 0.706000 0.919410 0.283330
H164 H 0.610400 0.852800 0.280300
C165 C 0.581500 1.017050 0.305540
H166 H 0.654400 1.089100 0.299400
H167 H 0.438900 1.021300 0.292400
C168 C 0.559400 1.003240 0.355020
H169 H 0.463900 1.051800 0.369800
C170 C 0.665900 0.926800 0.379570
C171 C 0.832300 0.844490 0.359820
C172 C 1.032900 0.845700 0.390580
H173 H 1.132400 0.786900 0.380500
H174 H 1.104400 0.919400 0.387500
C175 C 0.983400 0.825300 0.440090
H176 H 0.921400 0.749400 0.443900
H177 H 1.115800 0.828800 0.457300
C178 C 0.827400 0.915300 0.457070
H179 H 0.895500 0.991200 0.455300
C180 C 0.622800 0.915700 0.429380
H181 H 0.532500 0.979200 0.438900
H182 H 0.544300 0.845000 0.434900
C183 C 0.924100 0.922100 0.533970
H184 H 1.055200 0.882700 0.526500
H185 H 0.877900 0.899100 0.563300
H186 H 0.948700 1.003600 0.533600
C187 C 1.212900 0.780800 0.131330
H188 H 1.172600 0.721100 0.151900
H189 H 1.331200 0.823800 0.143500
H190 H 1.255300 0.747100 0.103400
C191 C 0.773300 0.750870 0.205310
H192 H 0.732900 0.721200 0.234100
H193 H 0.856100 0.694200 0.189500
H194 H 0.646100 0.768900 0.188500
C195 C 0.732200 0.723360 0.358620
H196 H 0.621000 0.720900 0.336300
H197 H 0.671500 0.705700 0.387300
H198 H 0.841500 0.668000 0.351400
O199 O 0.701100 0.666780 0.062030
O200 O 0.837500 0.788690 0.110400
O201 O 0.763100 0.893840 0.502420
C202 C 0.672000 0.257300 0.568860
C203 C 0.539900 0.203800 0.533780
H204 H 0.532600 0.238200 0.505700
C205 C 0.430900 0.107800 0.541210
H206 H 0.356100 0.073600 0.517800
C207 C 0.425500 0.053010 0.586480
H208 H 0.529100 -0.009400 0.587400
H209 H 0.283600 0.020700 0.591600
C210 C 0.477700 0.139310 0.623790
C211 C 0.549500 0.075340 0.666470
H212 H 0.435300 0.019500 0.672800
C213 C 0.758100 0.002900 0.658540
H214 H 0.721400 -0.074600 0.649300
H215 H 0.846300 0.037900 0.635500
C216 C 0.880000 0.000600 0.703460
H217 H 0.924800 -0.076900 0.711000
H218 H 1.006100 0.049900 0.702400
C219 C 0.715900 0.045660 0.737120
H220 H 0.613300 -0.017200 0.741900
C221 C 0.590900 0.139840 0.711460
C222 C 0.390400 0.165400 0.740090
H223 H 0.308200 0.226700 0.726200
H224 H 0.299800 0.097500 0.741100
C225 C 0.450700 0.200820 0.788010
H226 H 0.319500 0.209700 0.805300
H227 H 0.521500 0.275100 0.787000
C228 C 0.599300 0.115150 0.812420
H229 H 0.514400 0.045000 0.816700
C230 C 0.794000 0.080590 0.783330
H231 H 0.889600 0.147200 0.780300
C232 C 0.918500 -0.017050 0.805540
H233 H 0.845600 -0.089100 0.799400
H234 H 1.061100 -0.021300 0.792400
C235 C 0.940600 -0.003240 0.855020
H236 H 1.036100 -0.051800 0.869800
C237 C 0.834100 0.073200 0.879570
C238 C 0.667700 0.155510 0.859820
C239 C 0.467100 0.154300 0.890580
H240 H 0.367600 0.213100 0.880500
H241 H 0.395600 0.080600 0.887500
C242 C 0.516600 0.174700 0.940090
H243 H 0.578600 0.250600 0.943900
H244 H 0.384200 0.171200 0.957300
C245 C 0.672600 0.084700 0.957070
H246 H 0.604500 0.008800 0.955300
C247 C 0.877200 0.084300 0.929380
H248 H 0.967500 0.020800 0.938900
H249 H 0.955700 0.155000 0.934900
C250 C 0.575900 0.077900 1.033970
H251 H 0.444800 0.117300 1.026500
H252 H 0.622100 0.100900 1.063300
H253 H 0.551300 -0.003600 1.033600
C254 C 0.287100 0.219200 0.631330
H255 H 0.327400 0.278900 0.651900
H256 H 0.168800 0.176200 0.643500
H257 H 0.244700 0.252900 0.603400
C258 C 0.726700 0.249130 0.705310
H259 H 0.767100 0.278800 0.734100
H260 H 0.643900 0.305800 0.689500
H261 H 0.853900 0.231100 0.688500
C262 C 0.767800 0.276640 0.858620
H263 H 0.879000 0.279100 0.836300
H264 H 0.828500 0.294300 0.887300
H265 H 0.658500 0.332000 0.851400
O266 O 0.798900 0.333220 0.562030
O267 O 0.662500 0.211310 0.610400
O268 O 0.736900 0.106160 1.002420

#END
