
#######################################################################
#
#                 Cambridge Crystallographic Data Centre
#                                CCDC 
#
#######################################################################
#
# If this CIF has been generated from an entry in the Cambridge 
# Structural Database, then it will include bibliographic, chemical, 
# crystal, experimental, refinement or atomic coordinate data resulting 
# from the CCDC's data processing and validation procedures.
#
#######################################################################

data_KABFUQ
_symmetry_cell_setting           monoclinic
_symmetry_space_group_name_H-M   'P 21/n'
_symmetry_Int_Tables_number      14
_space_group_name_Hall           '-P 2yn'
loop_
_symmetry_equiv_pos_site_id
_symmetry_equiv_pos_as_xyz
1 x,y,z
2 1/2-x,1/2+y,1/2-z
3 -x,-y,-z
4 1/2+x,1/2-y,1/2+z
_cell_length_a                   14.6716(11)
_cell_length_b                   4.5190(5)
_cell_length_c                   19.3874(18)
_cell_angle_alpha                90
_cell_angle_beta                 90.218(7)
_cell_angle_gamma                90
_cell_volume                     1285.39
loop_
_atom_site_label
_atom_site_type_symbol
_atom_site_fract_x
_atom_site_fract_y
_atom_site_fract_z
O1 O 0.37862(18) 0.5259(7) 0.96882(17)
O2 O 0.19329(19) 0.1699(8) 0.82571(17)
O3 O 0.0829(2) 0.2195(8) 0.90336(17)
O4 O 0.3625(2) 0.1950(8) 0.88629(17)
C1 C 0.3450(3) 0.7181(10) 1.0168(2)
C2 C 0.4098(3) 0.8476(12) 1.0605(3)
H1 H 0.4714 0.8025 1.0560
C3 C 0.3813(3) 1.0397(11) 1.1094(3)
H2 H 0.4241 1.1276 1.1383
C4 C 0.2879(3) 1.1105(10) 1.1176(2)
C5 C 0.2597(4) 1.3160(11) 1.1686(2)
H3 H 0.3025 1.4041 1.1975
C6 C 0.1708(4) 1.3826(12) 1.1749(3)
H4 H 0.1527 1.5166 1.2086
C7 C 0.1050(4) 1.2543(12) 1.1319(3)
H5 H 0.0439 1.3042 1.1367
C8 C 0.1309(3) 1.0572(11) 1.0833(3)
H6 H 0.0868 0.9715 1.0551
C9 C 0.2229(3) 0.9786(9) 1.0743(2)
C10 C 0.2530(3) 0.7736(9) 1.0221(2)
C11 C 0.1960(3) 0.6153(10) 0.9757(2)
H7 H 0.1334 0.6446 0.9787
C12 C 0.2266(3) 0.4271(10) 0.9281(2)
C13 C 0.3241(3) 0.3694(12) 0.9234(2)
C14 C 0.1601(3) 0.2621(9) 0.8850(2)
C15 C 0.1339(3) -0.0111(12) 0.7819(3)
H8 H 0.0993 -0.1455 0.8108
H9 H 0.1711 -0.1291 0.7512
C16 C 0.0699(4) 0.1702(13) 0.7404(3)
H10 H 0.0327 0.0427 0.7124
H11 H 0.1038 0.3016 0.7113
H12 H 0.0317 0.2836 0.7706
O1 O 0.12138(18) 0.0259(7) 0.53118(17)
O2 O 0.30671(19) -0.3301(8) 0.67429(17)
O3 O 0.4171(2) -0.2805(8) 0.59664(17)
O4 O 0.1375(2) -0.3050(8) 0.61371(17)
C1 C 0.1550(3) 0.2181(10) 0.4832(2)
C2 C 0.0902(3) 0.3476(12) 0.4395(3)
H1 H 0.0286 0.3025 0.4440
C3 C 0.1187(3) 0.5397(11) 0.3906(3)
H2 H 0.0759 0.6276 0.3617
C4 C 0.2121(3) 0.6105(10) 0.3824(2)
C5 C 0.2403(4) 0.8160(11) 0.3314(2)
H3 H 0.1975 0.9041 0.3025
C6 C 0.3292(4) 0.8826(12) 0.3251(3)
H4 H 0.3473 1.0166 0.2914
C7 C 0.3950(4) 0.7543(12) 0.3681(3)
H5 H 0.4561 0.8042 0.3633
C8 C 0.3691(3) 0.5572(11) 0.4167(3)
H6 H 0.4132 0.4715 0.4449
C9 C 0.2771(3) 0.4786(9) 0.4257(2)
C10 C 0.2470(3) 0.2736(9) 0.4779(2)
C11 C 0.3040(3) 0.1153(10) 0.5243(2)
H7 H 0.3666 0.1446 0.5213
C12 C 0.2734(3) -0.0729(10) 0.5719(2)
C13 C 0.1759(3) -0.1306(12) 0.5766(2)
C14 C 0.3399(3) -0.2379(9) 0.6150(2)
C15 C 0.3661(3) -0.5111(12) 0.7181(3)
H8 H 0.4007 -0.6455 0.6892
H9 H 0.3289 -0.6291 0.7488
C16 C 0.4301(4) -0.3298(13) 0.7596(3)
H10 H 0.4673 -0.4573 0.7876
H11 H 0.3962 -0.1984 0.7887
H12 H 0.4683 -0.2164 0.7294
O1 O 0.62138(18) 0.4741(7) 0.03118(17)
O2 O 0.80671(19) 0.8301(8) 0.17429(17)
O3 O 0.9171(2) 0.7805(8) 0.09664(17)
O4 O 0.6375(2) 0.8050(8) 0.11371(17)
C1 C 0.6550(3) 0.2819(10) -0.0168(2)
C2 C 0.5902(3) 0.1524(12) -0.0605(3)
H1 H 0.5286 0.1975 -0.0560
C3 C 0.6187(3) -0.0397(11) -0.1094(3)
H2 H 0.5759 -0.1276 -0.1383
C4 C 0.7121(3) -0.1105(10) -0.1176(2)
C5 C 0.7403(4) -0.3160(11) -0.1686(2)
H3 H 0.6975 -0.4041 -0.1975
C6 C 0.8292(4) -0.3826(12) -0.1749(3)
H4 H 0.8473 -0.5166 -0.2086
C7 C 0.8950(4) -0.2543(12) -0.1319(3)
H5 H 0.9561 -0.3042 -0.1367
C8 C 0.8691(3) -0.0572(11) -0.0833(3)
H6 H 0.9132 0.0285 -0.0551
C9 C 0.7771(3) 0.0214(9) -0.0743(2)
C10 C 0.7470(3) 0.2264(9) -0.0221(2)
C11 C 0.8040(3) 0.3847(10) 0.0243(2)
H7 H 0.8666 0.3554 0.0213
C12 C 0.7734(3) 0.5729(10) 0.0719(2)
C13 C 0.6759(3) 0.6306(12) 0.0766(2)
C14 C 0.8399(3) 0.7379(9) 0.1150(2)
C15 C 0.8661(3) 1.0111(12) 0.2181(3)
H8 H 0.9007 1.1455 0.1892
H9 H 0.8289 1.1291 0.2488
C16 C 0.9301(4) 0.8298(13) 0.2596(3)
H10 H 0.9673 0.9573 0.2876
H11 H 0.8962 0.6984 0.2887
H12 H 0.9683 0.7164 0.2294
O1 O 0.87862(18) 0.9741(7) 0.46882(17)
O2 O 0.69329(19) 1.3301(8) 0.32571(17)
O3 O 0.5829(2) 1.2805(8) 0.40336(17)
O4 O 0.8625(2) 1.3050(8) 0.38629(17)
C1 C 0.8450(3) 0.7819(10) 0.5168(2)
C2 C 0.9098(3) 0.6524(12) 0.5605(3)
H1 H 0.9714 0.6975 0.5560
C3 C 0.8813(3) 0.4603(11) 0.6094(3)
H2 H 0.9241 0.3724 0.6383
C4 C 0.7879(3) 0.3895(10) 0.6176(2)
C5 C 0.7597(4) 0.1840(11) 0.6686(2)
H3 H 0.8025 0.0959 0.6975
C6 C 0.6708(4) 0.1174(12) 0.6749(3)
H4 H 0.6527 -0.0166 0.7086
C7 C 0.6050(4) 0.2457(12) 0.6319(3)
H5 H 0.5439 0.1958 0.6367
C8 C 0.6309(3) 0.4428(11) 0.5833(3)
H6 H 0.5868 0.5285 0.5551
C9 C 0.7229(3) 0.5214(9) 0.5743(2)
C10 C 0.7530(3) 0.7264(9) 0.5221(2)
C11 C 0.6960(3) 0.8847(10) 0.4757(2)
H7 H 0.6334 0.8554 0.4787
C12 C 0.7266(3) 1.0729(10) 0.4281(2)
C13 C 0.8241(3) 1.1306(12) 0.4234(2)
C14 C 0.6601(3) 1.2379(9) 0.3850(2)
C15 C 0.6339(3) 1.5111(12) 0.2819(3)
H8 H 0.5993 1.6455 0.3108
H9 H 0.6711 1.6291 0.2512
C16 C 0.5699(4) 1.3298(13) 0.2404(3)
H10 H 0.5327 1.4573 0.2124
H11 H 0.6038 1.1984 0.2113
H12 H 0.5317 1.2164 0.2706

#END
