
#######################################################################
#
#                 Cambridge Crystallographic Data Centre
#                                CCDC 
#
#######################################################################
#
# If this CIF has been generated from an entry in the Cambridge 
# Structural Database, then it will include bibliographic, chemical, 
# crystal, experimental, refinement or atomic coordinate data resulting 
# from the CCDC's data processing and validation procedures.
#
#######################################################################

data_KABHUS
_symmetry_cell_setting           orthorhombic
_symmetry_space_group_name_H-M   'P 21 21 21'
_symmetry_Int_Tables_number      19
_space_group_name_Hall           'P 2ac 2ab'
loop_
_symmetry_equiv_pos_site_id
_symmetry_equiv_pos_as_xyz
1 x,y,z
2 1/2-x,-y,1/2+z
3 -x,1/2+y,1/2-z
4 1/2+x,1/2-y,-z
_cell_length_a                   5.44420(10)
_cell_length_b                   10.7665(2)
_cell_length_c                   32.2160(7)
_cell_angle_alpha                90
_cell_angle_beta                 90
_cell_angle_gamma                90
_cell_volume                     1888.34
loop_
_atom_site_label
_atom_site_type_symbol
_atom_site_fract_x
_atom_site_fract_y
_atom_site_fract_z
O1 O -0.0044(2) 0.12896(14) 0.83325(4)
O2 O 0.5039(3) -0.11326(13) 0.80475(4)
C1 C 0.3555(4) -0.08224(18) 0.77249(6)
C2 C 0.3530(4) -0.1433(2) 0.73429(6)
H1 H 0.4665 -0.2057 0.7288
C3 C 0.1806(4) -0.1105(2) 0.70459(6)
H2 H 0.1805 -0.1508 0.6791
C4 C 0.0084(4) -0.0187(2) 0.71237(6)
H3 H -0.1093 0.0013 0.6925
C5 C 0.0135(4) 0.04316(19) 0.75010(6)
H4 H -0.1019 0.1048 0.7554
C6 C 0.1884(3) 0.01477(17) 0.78025(5)
C7 C 0.1887(3) 0.08877(17) 0.81949(6)
C8 C 0.4287(3) 0.11964(17) 0.83872(6)
H5 H 0.5698 0.1084 0.8229
C9 C 0.4541(3) 0.16241(17) 0.87726(6)
H6 H 0.6114 0.1843 0.8858
C10 C 0.2511(3) 0.17797(19) 0.90773(5)
C11 C 0.1582(3) 0.07403(18) 0.92908(6)
C12 C 0.2619(4) -0.04731(19) 0.92423(6)
H7 H 0.3957 -0.0585 0.9067
C13 C 0.1672(5) -0.1464(2) 0.94501(7)
H8 H 0.2386 -0.2243 0.9419
C14 C -0.0399(5) -0.1318(2) 0.97134(7)
H9 H -0.1049 -0.2006 0.9849
C15 C -0.1435(4) -0.0192(2) 0.97689(6)
H10 H -0.2787 -0.0115 0.9943
C16 C -0.0488(4) 0.0885(2) 0.95640(6)
C17 C -0.1518(4) 0.2059(2) 0.96189(6)
H11 H -0.2869 0.2147 0.9793
C18 C -0.0574(3) 0.3102(2) 0.94196(6)
C19 C -0.1629(4) 0.4308(2) 0.94695(6)
H12 H -0.2990 0.4406 0.9641
C20 C -0.0687(4) 0.5313(2) 0.92721(7)
H13 H -0.1417 0.6087 0.9306
C21 C 0.1408(4) 0.5188(2) 0.90134(6)
H14 H 0.2072 0.5887 0.8886
C22 C 0.2456(4) 0.40556(19) 0.89496(6)
H15 H 0.3804 0.3988 0.8774
C23 C 0.1515(3) 0.29688(19) 0.91489(6)
C24 C 0.6799(4) -0.2118(2) 0.79972(7)
H16 H 0.7919 -0.1932 0.7771
H17 H 0.5973 -0.2896 0.7937
C25 C 0.8164(5) -0.2200(2) 0.84010(8)
H18 H 0.9491 -0.2782 0.8374
H19 H 0.7066 -0.2473 0.8616
H20 H 0.8810 -0.1397 0.8472
O1 O 0.5044(2) 0.87104(14) 0.33325(4)
O2 O -0.0039(3) 1.11326(13) 0.30475(4)
C1 C 0.1445(4) 1.08224(18) 0.27249(6)
C2 C 0.1470(4) 1.1433(2) 0.23429(6)
H1 H 0.0335 1.2057 0.2288
C3 C 0.3194(4) 1.1105(2) 0.20459(6)
H2 H 0.3195 1.1508 0.1791
C4 C 0.4916(4) 1.0187(2) 0.21237(6)
H3 H 0.6093 0.9987 0.1925
C5 C 0.4865(4) 0.95684(19) 0.25010(6)
H4 H 0.6019 0.8952 0.2554
C6 C 0.3116(3) 0.98523(17) 0.28025(5)
C7 C 0.3113(3) 0.91123(17) 0.31949(6)
C8 C 0.0713(3) 0.88036(17) 0.33872(6)
H5 H -0.0698 0.8916 0.3229
C9 C 0.0459(3) 0.83759(17) 0.37726(6)
H6 H -0.1114 0.8157 0.3858
C10 C 0.2489(3) 0.82203(19) 0.40773(5)
C11 C 0.3418(3) 0.92597(18) 0.42908(6)
C12 C 0.2381(4) 1.04731(19) 0.42423(6)
H7 H 0.1043 1.0585 0.4067
C13 C 0.3328(5) 1.1464(2) 0.44501(7)
H8 H 0.2614 1.2243 0.4419
C14 C 0.5399(5) 1.1318(2) 0.47134(7)
H9 H 0.6049 1.2006 0.4849
C15 C 0.6435(4) 1.0192(2) 0.47689(6)
H10 H 0.7787 1.0115 0.4943
C16 C 0.5488(4) 0.9115(2) 0.45640(6)
C17 C 0.6518(4) 0.7941(2) 0.46189(6)
H11 H 0.7869 0.7853 0.4793
C18 C 0.5574(3) 0.6898(2) 0.44196(6)
C19 C 0.6629(4) 0.5692(2) 0.44695(6)
H12 H 0.7990 0.5594 0.4641
C20 C 0.5687(4) 0.4687(2) 0.42721(7)
H13 H 0.6417 0.3913 0.4306
C21 C 0.3592(4) 0.4812(2) 0.40134(6)
H14 H 0.2928 0.4113 0.3886
C22 C 0.2544(4) 0.59444(19) 0.39496(6)
H15 H 0.1196 0.6012 0.3774
C23 C 0.3485(3) 0.70312(19) 0.41489(6)
C24 C -0.1799(4) 1.2118(2) 0.29972(7)
H16 H -0.2919 1.1932 0.2771
H17 H -0.0973 1.2896 0.2937
C25 C -0.3164(5) 1.2200(2) 0.34010(8)
H18 H -0.4491 1.2782 0.3374
H19 H -0.2066 1.2473 0.3616
H20 H -0.3810 1.1397 0.3472
O1 O 1.0044(2) 0.62896(14) 0.66675(4)
O2 O 0.4961(3) 0.38674(13) 0.69525(4)
C1 C 0.6445(4) 0.41776(18) 0.72751(6)
C2 C 0.6470(4) 0.3567(2) 0.76571(6)
H1 H 0.5335 0.2943 0.7712
C3 C 0.8194(4) 0.3895(2) 0.79541(6)
H2 H 0.8195 0.3492 0.8209
C4 C 0.9916(4) 0.4813(2) 0.78763(6)
H3 H 1.1093 0.5013 0.8075
C5 C 0.9865(4) 0.54316(19) 0.74990(6)
H4 H 1.1019 0.6048 0.7446
C6 C 0.8116(3) 0.51477(17) 0.71975(5)
C7 C 0.8113(3) 0.58877(17) 0.68051(6)
C8 C 0.5713(3) 0.61964(17) 0.66128(6)
H5 H 0.4302 0.6084 0.6771
C9 C 0.5459(3) 0.66241(17) 0.62274(6)
H6 H 0.3886 0.6843 0.6142
C10 C 0.7489(3) 0.67797(19) 0.59227(5)
C11 C 0.8418(3) 0.57403(18) 0.57092(6)
C12 C 0.7381(4) 0.45269(19) 0.57577(6)
H7 H 0.6043 0.4415 0.5933
C13 C 0.8328(5) 0.3536(2) 0.55499(7)
H8 H 0.7614 0.2757 0.5581
C14 C 1.0399(5) 0.3682(2) 0.52866(7)
H9 H 1.1049 0.2994 0.5151
C15 C 1.1435(4) 0.4808(2) 0.52311(6)
H10 H 1.2787 0.4885 0.5057
C16 C 1.0488(4) 0.5885(2) 0.54360(6)
C17 C 1.1518(4) 0.7059(2) 0.53811(6)
H11 H 1.2869 0.7147 0.5207
C18 C 1.0574(3) 0.8102(2) 0.55804(6)
C19 C 1.1629(4) 0.9308(2) 0.55305(6)
H12 H 1.2990 0.9406 0.5359
C20 C 1.0687(4) 1.0313(2) 0.57279(7)
H13 H 1.1417 1.1087 0.5694
C21 C 0.8592(4) 1.0188(2) 0.59866(6)
H14 H 0.7928 1.0887 0.6114
C22 C 0.7544(4) 0.90556(19) 0.60504(6)
H15 H 0.6196 0.8988 0.6226
C23 C 0.8485(3) 0.79688(19) 0.58511(6)
C24 C 0.3201(4) 0.2882(2) 0.70028(7)
H16 H 0.2081 0.3068 0.7229
H17 H 0.4027 0.2104 0.7063
C25 C 0.1836(5) 0.2800(2) 0.65990(8)
H18 H 0.0509 0.2218 0.6626
H19 H 0.2934 0.2527 0.6384
H20 H 0.1190 0.3603 0.6528
O1 O 0.4956(2) 0.37104(14) 0.16675(4)
O2 O 1.0039(3) 0.61326(13) 0.19525(4)
C1 C 0.8555(4) 0.58224(18) 0.22751(6)
C2 C 0.8530(4) 0.6433(2) 0.26571(6)
H1 H 0.9665 0.7057 0.2712
C3 C 0.6806(4) 0.6105(2) 0.29541(6)
H2 H 0.6805 0.6508 0.3209
C4 C 0.5084(4) 0.5187(2) 0.28763(6)
H3 H 0.3907 0.4987 0.3075
C5 C 0.5135(4) 0.45684(19) 0.24990(6)
H4 H 0.3981 0.3952 0.2446
C6 C 0.6884(3) 0.48523(17) 0.21975(5)
C7 C 0.6887(3) 0.41123(17) 0.18051(6)
C8 C 0.9287(3) 0.38036(17) 0.16128(6)
H5 H 1.0698 0.3916 0.1771
C9 C 0.9541(3) 0.33759(17) 0.12274(6)
H6 H 1.1114 0.3157 0.1142
C10 C 0.7511(3) 0.32203(19) 0.09227(5)
C11 C 0.6582(3) 0.42597(18) 0.07092(6)
C12 C 0.7619(4) 0.54731(19) 0.07577(6)
H7 H 0.8957 0.5585 0.0933
C13 C 0.6672(5) 0.6464(2) 0.05499(7)
H8 H 0.7386 0.7243 0.0581
C14 C 0.4601(5) 0.6318(2) 0.02866(7)
H9 H 0.3951 0.7006 0.0151
C15 C 0.3565(4) 0.5192(2) 0.02311(6)
H10 H 0.2213 0.5115 0.0057
C16 C 0.4512(4) 0.4115(2) 0.04360(6)
C17 C 0.3482(4) 0.2941(2) 0.03811(6)
H11 H 0.2131 0.2853 0.0207
C18 C 0.4426(3) 0.1898(2) 0.05804(6)
C19 C 0.3371(4) 0.0692(2) 0.05305(6)
H12 H 0.2010 0.0594 0.0359
C20 C 0.4313(4) -0.0313(2) 0.07279(7)
H13 H 0.3583 -0.1087 0.0694
C21 C 0.6408(4) -0.0188(2) 0.09866(6)
H14 H 0.7072 -0.0887 0.1114
C22 C 0.7456(4) 0.09444(19) 0.10504(6)
H15 H 0.8804 0.1012 0.1226
C23 C 0.6515(3) 0.20312(19) 0.08511(6)
C24 C 1.1799(4) 0.7118(2) 0.20028(7)
H16 H 1.2919 0.6932 0.2229
H17 H 1.0973 0.7896 0.2063
C25 C 1.3164(5) 0.7200(2) 0.15990(8)
H18 H 1.4491 0.7782 0.1626
H19 H 1.2066 0.7473 0.1384
H20 H 1.3810 0.6397 0.1528

#END
