
#######################################################################
#
#                 Cambridge Crystallographic Data Centre
#                                CCDC 
#
#######################################################################
#
# If this CIF has been generated from an entry in the Cambridge 
# Structural Database, then it will include bibliographic, chemical, 
# crystal, experimental, refinement or atomic coordinate data resulting 
# from the CCDC's data processing and validation procedures.
#
#######################################################################

data_KABHIH
_symmetry_cell_setting           orthorhombic
_symmetry_space_group_name_H-M   'P 21 21 21'
_symmetry_Int_Tables_number      19
_space_group_name_Hall           'P 2ac 2ab'
loop_
_symmetry_equiv_pos_site_id
_symmetry_equiv_pos_as_xyz
1 x,y,z
2 1/2-x,-y,1/2+z
3 -x,1/2+y,1/2-z
4 1/2+x,1/2-y,-z
_cell_length_a                   4.5729(5)
_cell_length_b                   14.7748(14)
_cell_length_c                   19.072(2)
_cell_angle_alpha                90
_cell_angle_beta                 90
_cell_angle_gamma                90
_cell_volume                     1288.57
loop_
_atom_site_label
_atom_site_type_symbol
_atom_site_fract_x
_atom_site_fract_y
_atom_site_fract_z
O1 O -0.0722(4) 0.73600(11) 0.12900(10)
O2 O 0.2455(4) 0.80792(12) 0.19353(11)
N1 N 0.3071(5) 0.62658(13) 0.28210(12)
C1 C -0.2361(6) 0.66250(17) 0.10771(15)
C2 C -0.4133(6) 0.67409(19) 0.05040(15)
H1 H -0.4209 0.7308 0.0270
C3 C -0.5811(7) 0.60214(18) 0.02695(17)
H2 H -0.7031 0.6092 -0.0130
C4 C -0.5708(7) 0.51892(19) 0.06218(16)
H3 H -0.6870 0.4697 0.0464
C5 C -0.3917(6) 0.50883(17) 0.11967(15)
H4 H -0.3837 0.4521 0.1430
C6 C -0.2226(6) 0.58032(17) 0.14405(15)
C7 C -0.0293(6) 0.57701(18) 0.20322(15)
C8 C 0.0243(6) 0.50674(17) 0.25008(16)
H5 H -0.0649 0.4487 0.2494
C9 C 0.2291(6) 0.53619(17) 0.29755(15)
C10 C 0.1420(6) 0.65125(16) 0.22267(14)
C11 C 0.1226(6) 0.73586(17) 0.18502(15)
C12 C 0.3552(7) 0.49004(18) 0.35510(16)
H6 H 0.3027 0.4289 0.3640
C13 C 0.5475(6) 0.53158(19) 0.39706(17)
H7 H 0.6283 0.5003 0.4361
C14 C 0.6323(6) 0.62406(17) 0.38295(15)
C15 C 0.8347(6) 0.6676(2) 0.42645(16)
H8 H 0.9131 0.6361 0.4656
C16 C 0.9233(7) 0.75566(19) 0.41365(16)
H9 H 1.0609 0.7845 0.4435
C17 C 0.8071(6) 0.80106(19) 0.35632(15)
H10 H 0.8673 0.8614 0.3471
C18 C 0.6066(6) 0.76049(16) 0.31258(15)
H11 H 0.5303 0.7930 0.2737
C19 C 0.5145(5) 0.67143(18) 0.32509(15)
O1 O 0.5722(4) 0.26400(11) 0.62900(10)
O2 O 0.2545(4) 0.19208(12) 0.69353(11)
N1 N 0.1929(5) 0.37342(13) 0.78210(12)
C1 C 0.7361(6) 0.33750(17) 0.60771(15)
C2 C 0.9133(6) 0.32591(19) 0.55040(15)
H1 H 0.9209 0.2692 0.5270
C3 C 1.0811(7) 0.39786(18) 0.52695(17)
H2 H 1.2031 0.3908 0.4870
C4 C 1.0708(7) 0.48108(19) 0.56218(16)
H3 H 1.1870 0.5303 0.5464
C5 C 0.8917(6) 0.49117(17) 0.61967(15)
H4 H 0.8837 0.5479 0.6430
C6 C 0.7226(6) 0.41968(17) 0.64405(15)
C7 C 0.5293(6) 0.42299(18) 0.70322(15)
C8 C 0.4757(6) 0.49326(17) 0.75008(16)
H5 H 0.5649 0.5513 0.7494
C9 C 0.2709(6) 0.46381(17) 0.79755(15)
C10 C 0.3580(6) 0.34875(16) 0.72267(14)
C11 C 0.3774(6) 0.26414(17) 0.68502(15)
C12 C 0.1448(7) 0.50996(18) 0.85510(16)
H6 H 0.1973 0.5711 0.8640
C13 C -0.0475(6) 0.46842(19) 0.89706(17)
H7 H -0.1283 0.4997 0.9361
C14 C -0.1323(6) 0.37594(17) 0.88295(15)
C15 C -0.3347(6) 0.3324(2) 0.92645(16)
H8 H -0.4131 0.3639 0.9656
C16 C -0.4233(7) 0.24434(19) 0.91365(16)
H9 H -0.5609 0.2155 0.9435
C17 C -0.3071(6) 0.19894(19) 0.85632(15)
H10 H -0.3673 0.1386 0.8471
C18 C -0.1066(6) 0.23951(16) 0.81258(15)
H11 H -0.0303 0.2070 0.7737
C19 C -0.0145(5) 0.32857(18) 0.82509(15)
O1 O 1.0722(4) 0.23600(11) 0.37100(10)
O2 O 0.7545(4) 0.30792(12) 0.30647(11)
N1 N 0.6929(5) 0.12658(13) 0.21790(12)
C1 C 1.2361(6) 0.16250(17) 0.39229(15)
C2 C 1.4133(6) 0.17409(19) 0.44960(15)
H1 H 1.4209 0.2308 0.4730
C3 C 1.5811(7) 0.10214(18) 0.47305(17)
H2 H 1.7031 0.1092 0.5130
C4 C 1.5708(7) 0.01892(19) 0.43782(16)
H3 H 1.6870 -0.0303 0.4536
C5 C 1.3917(6) 0.00883(17) 0.38033(15)
H4 H 1.3837 -0.0479 0.3570
C6 C 1.2226(6) 0.08032(17) 0.35595(15)
C7 C 1.0293(6) 0.07701(18) 0.29678(15)
C8 C 0.9757(6) 0.00674(17) 0.24992(16)
H5 H 1.0649 -0.0513 0.2506
C9 C 0.7709(6) 0.03619(17) 0.20245(15)
C10 C 0.8580(6) 0.15125(16) 0.27733(14)
C11 C 0.8774(6) 0.23586(17) 0.31498(15)
C12 C 0.6448(7) -0.00996(18) 0.14490(16)
H6 H 0.6973 -0.0711 0.1360
C13 C 0.4525(6) 0.03158(19) 0.10294(17)
H7 H 0.3717 0.0003 0.0639
C14 C 0.3677(6) 0.12406(17) 0.11705(15)
C15 C 0.1653(6) 0.1676(2) 0.07355(16)
H8 H 0.0869 0.1361 0.0344
C16 C 0.0767(7) 0.25566(19) 0.08635(16)
H9 H -0.0609 0.2845 0.0565
C17 C 0.1929(6) 0.30106(19) 0.14368(15)
H10 H 0.1327 0.3614 0.1529
C18 C 0.3934(6) 0.26049(16) 0.18742(15)
H11 H 0.4697 0.2930 0.2263
C19 C 0.4855(5) 0.17143(18) 0.17491(15)
O1 O 0.4278(4) 0.76400(11) 0.87100(10)
O2 O 0.7455(4) 0.69208(12) 0.80647(11)
N1 N 0.8071(5) 0.87342(13) 0.71790(12)
C1 C 0.2639(6) 0.83750(17) 0.89229(15)
C2 C 0.0867(6) 0.82591(19) 0.94960(15)
H1 H 0.0791 0.7692 0.9730
C3 C -0.0811(7) 0.89786(18) 0.97305(17)
H2 H -0.2031 0.8908 1.0130
C4 C -0.0708(7) 0.98108(19) 0.93782(16)
H3 H -0.1870 1.0303 0.9536
C5 C 0.1083(6) 0.99117(17) 0.88033(15)
H4 H 0.1163 1.0479 0.8570
C6 C 0.2774(6) 0.91968(17) 0.85595(15)
C7 C 0.4707(6) 0.92299(18) 0.79678(15)
C8 C 0.5243(6) 0.99326(17) 0.74992(16)
H5 H 0.4351 1.0513 0.7506
C9 C 0.7291(6) 0.96381(17) 0.70245(15)
C10 C 0.6420(6) 0.84875(16) 0.77733(14)
C11 C 0.6226(6) 0.76414(17) 0.81498(15)
C12 C 0.8552(7) 1.00996(18) 0.64490(16)
H6 H 0.8027 1.0711 0.6360
C13 C 1.0475(6) 0.96842(19) 0.60294(17)
H7 H 1.1283 0.9997 0.5639
C14 C 1.1323(6) 0.87594(17) 0.61705(15)
C15 C 1.3347(6) 0.8324(2) 0.57355(16)
H8 H 1.4131 0.8639 0.5344
C16 C 1.4233(7) 0.74434(19) 0.58635(16)
H9 H 1.5609 0.7155 0.5565
C17 C 1.3071(6) 0.69894(19) 0.64368(15)
H10 H 1.3673 0.6386 0.6529
C18 C 1.1066(6) 0.73951(16) 0.68742(15)
H11 H 1.0303 0.7070 0.7263
C19 C 1.0145(5) 0.82857(18) 0.67491(15)

#END
