./KABJED_from_xyz.cif_generated_by_CrystalShift
_symmetry_cell_setting triclinic
_symmetry_space_group_name_H-M 'P 1'
loop_
_symmetry_equiv_pos_site_id
_symmetry_equiv_pos_as_xyz
1 x,y,z
_cell_length_a 5.615000
_cell_length_b 12.230000
_cell_length_c 11.956000
_cell_angle_alpha 90.000000
_cell_angle_beta 90.510000
_cell_angle_gamma 90.000000
_cell_volume 821.003306
loop_
_atom_site_label
_atom_site_type_symbol
_atom_site_fract_x
_atom_site_fract_y
_atom_site_fract_z
S1 S 0.175490 0.390670 0.213440
O2 O 0.413400 0.374400 0.178770
O3 O -0.016700 0.408160 0.138160
N4 N 0.186100 0.494220 0.302470
N5 N -0.024100 0.537900 0.340300
C6 C 0.049600 0.609700 0.415800
H7 H -0.055200 0.654700 0.457500
C8 C 0.299500 0.612700 0.428000
H9 H 0.390200 0.658100 0.476800
C10 C 0.382600 0.536900 0.355300
H11 H 0.544100 0.517300 0.343400
N12 N 0.095800 0.285280 0.291670
N13 N 0.261100 0.237200 0.361600
C14 C 0.135700 0.162900 0.414800
H15 H 0.201800 0.114700 0.469100
C16 C -0.105500 0.162100 0.383100
H17 H -0.227100 0.115500 0.410500
C18 C -0.128500 0.242400 0.304900
H19 H -0.270300 0.264200 0.267200
S20 S 0.675490 0.109330 0.713440
O21 O 0.913400 0.125600 0.678770
O22 O 0.483300 0.091840 0.638160
N23 N 0.686100 0.005780 0.802470
N24 N 0.475900 -0.037900 0.840300
C25 C 0.549600 -0.109700 0.915800
H26 H 0.444800 -0.154700 0.957500
C27 C 0.799500 -0.112700 0.928000
H28 H 0.890200 -0.158100 0.976800
C29 C 0.882600 -0.036900 0.855300
H30 H 1.044100 -0.017300 0.843400
N31 N 0.595800 0.214720 0.791670
N32 N 0.761100 0.262800 0.861600
C33 C 0.635700 0.337100 0.914800
H34 H 0.701800 0.385300 0.969100
C35 C 0.394500 0.337900 0.883100
H36 H 0.272900 0.384500 0.910500
C37 C 0.371500 0.257600 0.804900
H38 H 0.229700 0.235800 0.767200
S39 S 0.824510 0.609330 0.786560
O40 O 0.586600 0.625600 0.821230
O41 O 1.016700 0.591840 0.861840
N42 N 0.813900 0.505780 0.697530
N43 N 1.024100 0.462100 0.659700
C44 C 0.950400 0.390300 0.584200
H45 H 1.055200 0.345300 0.542500
C46 C 0.700500 0.387300 0.572000
H47 H 0.609800 0.341900 0.523200
C48 C 0.617400 0.463100 0.644700
H49 H 0.455900 0.482700 0.656600
N50 N 0.904200 0.714720 0.708330
N51 N 0.738900 0.762800 0.638400
C52 C 0.864300 0.837100 0.585200
H53 H 0.798200 0.885300 0.530900
C54 C 1.105500 0.837900 0.616900
H55 H 1.227100 0.884500 0.589500
C56 C 1.128500 0.757600 0.695100
H57 H 1.270300 0.735800 0.732800
S58 S 0.324510 0.890670 0.286560
O59 O 0.086600 0.874400 0.321230
O60 O 0.516700 0.908160 0.361840
N61 N 0.313900 0.994220 0.197530
N62 N 0.524100 1.037900 0.159700
C63 C 0.450400 1.109700 0.084200
H64 H 0.555200 1.154700 0.042500
C65 C 0.200500 1.112700 0.072000
H66 H 0.109800 1.158100 0.023200
C67 C 0.117400 1.036900 0.144700
H68 H -0.044100 1.017300 0.156600
N69 N 0.404200 0.785280 0.208330
N70 N 0.238900 0.737200 0.138400
C71 C 0.364300 0.662900 0.085200
H72 H 0.298200 0.614700 0.030900
C73 C 0.605500 0.662100 0.116900
H74 H 0.727100 0.615500 0.089500
C75 C 0.628500 0.742400 0.195100
H76 H 0.770300 0.764200 0.232800

#END
