
#######################################################################
#
#                 Cambridge Crystallographic Data Centre
#                                CCDC 
#
#######################################################################
#
# If this CIF has been generated from an entry in the Cambridge 
# Structural Database, then it will include bibliographic, chemical, 
# crystal, experimental, refinement or atomic coordinate data resulting 
# from the CCDC's data processing and validation procedures.
#
#######################################################################

data_KABJED
_symmetry_cell_setting           monoclinic
_symmetry_space_group_name_H-M   'P 21/n'
_symmetry_Int_Tables_number      14
_space_group_name_Hall           '-P 2yn'
loop_
_symmetry_equiv_pos_site_id
_symmetry_equiv_pos_as_xyz
1 x,y,z
2 1/2+x,1/2-y,1/2+z
3 -x,-y,-z
4 1/2-x,1/2+y,1/2-z
_cell_length_a                   5.6150(10)
_cell_length_b                   12.2300(10)
_cell_length_c                   11.9560(10)
_cell_angle_alpha                90
_cell_angle_beta                 90.51(2)
_cell_angle_gamma                90
_cell_volume                     821.003
loop_
_atom_site_label
_atom_site_type_symbol
_atom_site_fract_x
_atom_site_fract_y
_atom_site_fract_z
S1 S 0.17549(13) 0.39067(6) 0.21344(6)
O1 O 0.4134(4) 0.37440(18) 0.17877(18)
O2 O -0.0167(4) 0.40816(19) 0.13816(17)
N1 N 0.1861(4) 0.49422(19) 0.30247(19)
N2 N -0.0241(4) 0.5379(2) 0.3403(2)
C1 C 0.0496(6) 0.6097(2) 0.4158(3)
H1 H -0.0552 0.6547 0.4575
C2 C 0.2995(5) 0.6127(2) 0.4280(2)
H2 H 0.3902 0.6581 0.4768
C3 C 0.3826(5) 0.5369(2) 0.3553(2)
H3 H 0.5441 0.5173 0.3434
N3 N 0.0958(4) 0.28528(19) 0.29167(19)
N4 N 0.2611(4) 0.2372(2) 0.3616(2)
C4 C 0.1357(6) 0.1629(2) 0.4148(2)
H4 H 0.2018 0.1147 0.4691
C5 C -0.1055(6) 0.1621(3) 0.3831(3)
H5 H -0.2271 0.1155 0.4105
C6 C -0.1285(5) 0.2424(2) 0.3049(2)
H6 H -0.2703 0.2642 0.2672
S1 S 0.67549(13) 0.10933(6) 0.71344(6)
O1 O 0.9134(4) 0.12560(18) 0.67877(18)
O2 O 0.4833(4) 0.09184(19) 0.63816(17)
N1 N 0.6861(4) 0.00578(19) 0.80247(19)
N2 N 0.4759(4) -0.0379(2) 0.8403(2)
C1 C 0.5496(6) -0.1097(2) 0.9158(3)
H1 H 0.4448 -0.1547 0.9575
C2 C 0.7995(5) -0.1127(2) 0.9280(2)
H2 H 0.8902 -0.1581 0.9768
C3 C 0.8826(5) -0.0369(2) 0.8553(2)
H3 H 1.0441 -0.0173 0.8434
N3 N 0.5958(4) 0.21472(19) 0.79167(19)
N4 N 0.7611(4) 0.2628(2) 0.8616(2)
C4 C 0.6357(6) 0.3371(2) 0.9148(2)
H4 H 0.7018 0.3853 0.9691
C5 C 0.3945(6) 0.3379(3) 0.8831(3)
H5 H 0.2729 0.3845 0.9105
C6 C 0.3715(5) 0.2576(2) 0.8049(2)
H6 H 0.2297 0.2358 0.7672
S1 S 0.82451(13) 0.60933(6) 0.78656(6)
O1 O 0.5866(4) 0.62560(18) 0.82123(18)
O2 O 1.0167(4) 0.59184(19) 0.86184(17)
N1 N 0.8139(4) 0.50578(19) 0.69753(19)
N2 N 1.0241(4) 0.4621(2) 0.6597(2)
C1 C 0.9504(6) 0.3903(2) 0.5842(3)
H1 H 1.0552 0.3453 0.5425
C2 C 0.7005(5) 0.3873(2) 0.5720(2)
H2 H 0.6098 0.3419 0.5232
C3 C 0.6174(5) 0.4631(2) 0.6447(2)
H3 H 0.4559 0.4827 0.6566
N3 N 0.9042(4) 0.71472(19) 0.70833(19)
N4 N 0.7389(4) 0.7628(2) 0.6384(2)
C4 C 0.8643(6) 0.8371(2) 0.5852(2)
H4 H 0.7982 0.8853 0.5309
C5 C 1.1055(6) 0.8379(3) 0.6169(3)
H5 H 1.2271 0.8845 0.5895
C6 C 1.1285(5) 0.7576(2) 0.6951(2)
H6 H 1.2703 0.7358 0.7328
S1 S 0.32451(13) 0.89067(6) 0.28656(6)
O1 O 0.0866(4) 0.87440(18) 0.32123(18)
O2 O 0.5167(4) 0.90816(19) 0.36184(17)
N1 N 0.3139(4) 0.99422(19) 0.19753(19)
N2 N 0.5241(4) 1.0379(2) 0.1597(2)
C1 C 0.4504(6) 1.1097(2) 0.0842(3)
H1 H 0.5552 1.1547 0.0425
C2 C 0.2005(5) 1.1127(2) 0.0720(2)
H2 H 0.1098 1.1581 0.0232
C3 C 0.1174(5) 1.0369(2) 0.1447(2)
H3 H -0.0441 1.0173 0.1566
N3 N 0.4042(4) 0.78528(19) 0.20833(19)
N4 N 0.2389(4) 0.7372(2) 0.1384(2)
C4 C 0.3643(6) 0.6629(2) 0.0852(2)
H4 H 0.2982 0.6147 0.0309
C5 C 0.6055(6) 0.6621(3) 0.1169(3)
H5 H 0.7271 0.6155 0.0895
C6 C 0.6285(5) 0.7424(2) 0.1951(2)
H6 H 0.7703 0.7642 0.2328

#END
