
#######################################################################
#
#                 Cambridge Crystallographic Data Centre
#                                CCDC 
#
#######################################################################
#
# If this CIF has been generated from an entry in the Cambridge 
# Structural Database, then it will include bibliographic, chemical, 
# crystal, experimental, refinement or atomic coordinate data resulting 
# from the CCDC's data processing and validation procedures.
#
#######################################################################

data_KABJII
_symmetry_cell_setting           orthorhombic
_symmetry_space_group_name_H-M   'P c a 21'
_symmetry_Int_Tables_number      29
_space_group_name_Hall           'P 2c -2ac'
loop_
_symmetry_equiv_pos_site_id
_symmetry_equiv_pos_as_xyz
1 x,y,z
2 -x,-y,1/2+z
3 1/2-x,y,1/2+z
4 1/2+x,-y,z
_cell_length_a                   12.157(5)
_cell_length_b                   11.483(5)
_cell_length_c                   14.964(7)
_cell_angle_alpha                90
_cell_angle_beta                 90
_cell_angle_gamma                90
_cell_volume                     2088.96
loop_
_atom_site_label
_atom_site_type_symbol
_atom_site_fract_x
_atom_site_fract_y
_atom_site_fract_z
S1 S 0.81953(6) 0.23202(7) 0.11098(7)
O1 O 0.4807(2) 0.2221(2) 0.2163(2)
O2 O 0.8585(2) 0.2231(2) 0.0215(2)
O3 O 0.90038(19) 0.2461(2) 0.1799(2)
N1 N 0.7975(3) 0.0089(3) 0.1253(4)
C1 C 0.7263(2) 0.3484(3) 0.1177(2)
C2 C 0.7670(3) 0.4540(3) 0.0899(3)
C3 C 0.7021(3) 0.5509(4) 0.0970(3)
C4 C 0.5960(3) 0.5429(4) 0.1313(3)
C5 C 0.5556(3) 0.4373(4) 0.1565(3)
C6 C 0.6192(3) 0.3367(3) 0.1509(2)
C7 C 0.5707(3) 0.2240(3) 0.1802(2)
C8 C 0.6319(3) 0.1143(3) 0.1664(3)
C9 C 0.5807(3) 0.0072(3) 0.1860(4)
C10 C 0.6387(4) -0.0949(3) 0.1760(3)
C11 C 0.7462(4) -0.0915(4) 0.1467(3)
C12 C 0.7393(3) 0.1068(3) 0.1364(3)
H1 H 0.83773 0.45951 0.06657
H2 H 0.72920 0.62284 0.07869
H3 H 0.55289 0.60938 0.13709
H4 H 0.48391 0.43225 0.17780
H5 H 0.50812 0.00552 0.20555
H6 H 0.60550 -0.16592 0.18901
H7 H 0.78485 -0.16105 0.14140
S1 S 0.18047(6) 0.76798(7) 0.61098(7)
O1 O 0.5193(2) 0.7779(2) 0.7163(2)
O2 O 0.1415(2) 0.7769(2) 0.5215(2)
O3 O 0.09962(19) 0.7539(2) 0.6799(2)
N1 N 0.2025(3) 0.9911(3) 0.6253(4)
C1 C 0.2737(2) 0.6516(3) 0.6177(2)
C2 C 0.2330(3) 0.5460(3) 0.5899(3)
C3 C 0.2979(3) 0.4491(4) 0.5970(3)
C4 C 0.4040(3) 0.4571(4) 0.6313(3)
C5 C 0.4444(3) 0.5627(4) 0.6565(3)
C6 C 0.3808(3) 0.6633(3) 0.6509(2)
C7 C 0.4293(3) 0.7760(3) 0.6802(2)
C8 C 0.3681(3) 0.8857(3) 0.6664(3)
C9 C 0.4193(3) 0.9928(3) 0.6860(4)
C10 C 0.3613(4) 1.0949(3) 0.6760(3)
C11 C 0.2538(4) 1.0915(4) 0.6467(3)
C12 C 0.2607(3) 0.8932(3) 0.6364(3)
H1 H 0.16227 0.54049 0.56657
H2 H 0.27080 0.37716 0.57869
H3 H 0.44711 0.39062 0.63709
H4 H 0.51609 0.56775 0.67780
H5 H 0.49188 0.99448 0.70555
H6 H 0.39450 1.16592 0.68901
H7 H 0.21515 1.16105 0.64140
S1 S 0.68047(6) 0.23202(7) 0.61098(7)
O1 O 1.0193(2) 0.2221(2) 0.7163(2)
O2 O 0.6415(2) 0.2231(2) 0.5215(2)
O3 O 0.59962(19) 0.2461(2) 0.6799(2)
N1 N 0.7025(3) 0.0089(3) 0.6253(4)
C1 C 0.7737(2) 0.3484(3) 0.6177(2)
C2 C 0.7330(3) 0.4540(3) 0.5899(3)
C3 C 0.7979(3) 0.5509(4) 0.5970(3)
C4 C 0.9040(3) 0.5429(4) 0.6313(3)
C5 C 0.9444(3) 0.4373(4) 0.6565(3)
C6 C 0.8808(3) 0.3367(3) 0.6509(2)
C7 C 0.9293(3) 0.2240(3) 0.6802(2)
C8 C 0.8681(3) 0.1143(3) 0.6664(3)
C9 C 0.9193(3) 0.0072(3) 0.6860(4)
C10 C 0.8613(4) -0.0949(3) 0.6760(3)
C11 C 0.7538(4) -0.0915(4) 0.6467(3)
C12 C 0.7607(3) 0.1068(3) 0.6364(3)
H1 H 0.66227 0.45951 0.56657
H2 H 0.77080 0.62284 0.57869
H3 H 0.94711 0.60938 0.63709
H4 H 1.01609 0.43225 0.67780
H5 H 0.99188 0.00552 0.70555
H6 H 0.89450 -0.16592 0.68901
H7 H 0.71515 -0.16105 0.64140
S1 S 0.31953(6) 0.76798(7) 0.11098(7)
O1 O -0.0193(2) 0.7779(2) 0.2163(2)
O2 O 0.3585(2) 0.7769(2) 0.0215(2)
O3 O 0.40038(19) 0.7539(2) 0.1799(2)
N1 N 0.2975(3) 0.9911(3) 0.1253(4)
C1 C 0.2263(2) 0.6516(3) 0.1177(2)
C2 C 0.2670(3) 0.5460(3) 0.0899(3)
C3 C 0.2021(3) 0.4491(4) 0.0970(3)
C4 C 0.0960(3) 0.4571(4) 0.1313(3)
C5 C 0.0556(3) 0.5627(4) 0.1565(3)
C6 C 0.1192(3) 0.6633(3) 0.1509(2)
C7 C 0.0707(3) 0.7760(3) 0.1802(2)
C8 C 0.1319(3) 0.8857(3) 0.1664(3)
C9 C 0.0807(3) 0.9928(3) 0.1860(4)
C10 C 0.1387(4) 1.0949(3) 0.1760(3)
C11 C 0.2462(4) 1.0915(4) 0.1467(3)
C12 C 0.2393(3) 0.8932(3) 0.1364(3)
H1 H 0.33773 0.54049 0.06657
H2 H 0.22920 0.37716 0.07869
H3 H 0.05289 0.39062 0.13709
H4 H -0.01609 0.56775 0.17780
H5 H 0.00812 0.99448 0.20555
H6 H 0.10550 1.16592 0.18901
H7 H 0.28485 1.16105 0.14140
S2 S 0.55676(6) 0.72967(8) 0.42422(7)
O4 O 0.2126(2) 0.7236(2) 0.33032(18)
O5 O 0.5968(2) 0.7223(2) 0.5146(2)
O6 O 0.6358(2) 0.7403(2) 0.3539(2)
N2 N 0.5313(3) 0.5063(3) 0.4106(3)
C13 C 0.4655(2) 0.8471(3) 0.4173(3)
C14 C 0.5086(3) 0.9534(3) 0.4424(3)
C15 C 0.4448(3) 1.0509(4) 0.4341(4)
C16 C 0.3396(3) 1.0443(4) 0.4026(4)
C17 C 0.2959(3) 0.9386(3) 0.3784(3)
C18 C 0.3576(3) 0.8374(3) 0.3856(2)
C19 C 0.3053(3) 0.7249(3) 0.3592(2)
C20 C 0.3670(3) 0.6127(3) 0.3704(3)
C21 C 0.3156(3) 0.5088(3) 0.3504(4)
C22 C 0.3716(3) 0.4060(3) 0.3600(3)
C23 C 0.4783(4) 0.4074(4) 0.3899(3)
C24 C 0.4750(3) 0.6059(3) 0.4004(3)
H8 H 0.57990 0.95872 0.46456
H9 H 0.47355 1.12296 0.45013
H10 H 0.29745 1.11160 0.39751
H11 H 0.22412 0.93488 0.35701
H12 H 0.24310 0.50852 0.33052
H13 H 0.33746 0.33569 0.34637
H14 H 0.51535 0.33705 0.39606
S2 S 0.44324(6) 0.27033(8) 0.92422(7)
O4 O 0.7874(2) 0.2764(2) 0.83032(18)
O5 O 0.4032(2) 0.2777(2) 1.0146(2)
O6 O 0.3642(2) 0.2597(2) 0.8539(2)
N2 N 0.4687(3) 0.4937(3) 0.9106(3)
C13 C 0.5345(2) 0.1529(3) 0.9173(3)
C14 C 0.4914(3) 0.0466(3) 0.9424(3)
C15 C 0.5552(3) -0.0509(4) 0.9341(4)
C16 C 0.6604(3) -0.0443(4) 0.9026(4)
C17 C 0.7041(3) 0.0614(3) 0.8784(3)
C18 C 0.6424(3) 0.1626(3) 0.8856(2)
C19 C 0.6947(3) 0.2751(3) 0.8592(2)
C20 C 0.6330(3) 0.3873(3) 0.8704(3)
C21 C 0.6844(3) 0.4912(3) 0.8504(4)
C22 C 0.6284(3) 0.5940(3) 0.8600(3)
C23 C 0.5217(4) 0.5926(4) 0.8899(3)
C24 C 0.5250(3) 0.3941(3) 0.9004(3)
H8 H 0.42010 0.04128 0.96456
H9 H 0.52645 -0.12296 0.95013
H10 H 0.70255 -0.11160 0.89751
H11 H 0.77588 0.06512 0.85701
H12 H 0.75690 0.49148 0.83052
H13 H 0.66254 0.66431 0.84637
H14 H 0.48465 0.66295 0.89606
S2 S -0.05676(6) 0.72967(8) 0.92422(7)
O4 O 0.2874(2) 0.7236(2) 0.83032(18)
O5 O -0.0968(2) 0.7223(2) 1.0146(2)
O6 O -0.1358(2) 0.7403(2) 0.8539(2)
N2 N -0.0313(3) 0.5063(3) 0.9106(3)
C13 C 0.0345(2) 0.8471(3) 0.9173(3)
C14 C -0.0086(3) 0.9534(3) 0.9424(3)
C15 C 0.0552(3) 1.0509(4) 0.9341(4)
C16 C 0.1604(3) 1.0443(4) 0.9026(4)
C17 C 0.2041(3) 0.9386(3) 0.8784(3)
C18 C 0.1424(3) 0.8374(3) 0.8856(2)
C19 C 0.1947(3) 0.7249(3) 0.8592(2)
C20 C 0.1330(3) 0.6127(3) 0.8704(3)
C21 C 0.1844(3) 0.5088(3) 0.8504(4)
C22 C 0.1284(3) 0.4060(3) 0.8600(3)
C23 C 0.0217(4) 0.4074(4) 0.8899(3)
C24 C 0.0250(3) 0.6059(3) 0.9004(3)
H8 H -0.07990 0.95872 0.96456
H9 H 0.02645 1.12296 0.95013
H10 H 0.20255 1.11160 0.89751
H11 H 0.27588 0.93488 0.85701
H12 H 0.25690 0.50852 0.83052
H13 H 0.16254 0.33569 0.84637
H14 H -0.01535 0.33705 0.89606
S2 S 1.05676(6) 0.27033(8) 0.42422(7)
O4 O 0.7126(2) 0.2764(2) 0.33032(18)
O5 O 1.0968(2) 0.2777(2) 0.5146(2)
O6 O 1.1358(2) 0.2597(2) 0.3539(2)
N2 N 1.0313(3) 0.4937(3) 0.4106(3)
C13 C 0.9655(2) 0.1529(3) 0.4173(3)
C14 C 1.0086(3) 0.0466(3) 0.4424(3)
C15 C 0.9448(3) -0.0509(4) 0.4341(4)
C16 C 0.8396(3) -0.0443(4) 0.4026(4)
C17 C 0.7959(3) 0.0614(3) 0.3784(3)
C18 C 0.8576(3) 0.1626(3) 0.3856(2)
C19 C 0.8053(3) 0.2751(3) 0.3592(2)
C20 C 0.8670(3) 0.3873(3) 0.3704(3)
C21 C 0.8156(3) 0.4912(3) 0.3504(4)
C22 C 0.8716(3) 0.5940(3) 0.3600(3)
C23 C 0.9783(4) 0.5926(4) 0.3899(3)
C24 C 0.9750(3) 0.3941(3) 0.4004(3)
H8 H 1.07990 0.04128 0.46456
H9 H 0.97355 -0.12296 0.45013
H10 H 0.79745 -0.11160 0.39751
H11 H 0.72412 0.06512 0.35701
H12 H 0.74310 0.49148 0.33052
H13 H 0.83746 0.66431 0.34637
H14 H 1.01535 0.66295 0.39606

#END
