
#######################################################################
#
#                 Cambridge Crystallographic Data Centre
#                                CCDC 
#
#######################################################################
#
# If this CIF has been generated from an entry in the Cambridge 
# Structural Database, then it will include bibliographic, chemical, 
# crystal, experimental, refinement or atomic coordinate data resulting 
# from the CCDC's data processing and validation procedures.
#
#######################################################################

data_KABKUU
_symmetry_cell_setting           triclinic
_symmetry_space_group_name_H-M   'P -1'
_symmetry_Int_Tables_number      2
_space_group_name_Hall           '-P 1'
loop_
_symmetry_equiv_pos_site_id
_symmetry_equiv_pos_as_xyz
1 x,y,z
2 -x,-y,-z
_cell_length_a                   10.128(2)
_cell_length_b                   10.831(3)
_cell_length_c                   11.889(5)
_cell_angle_alpha                82.86(3)
_cell_angle_beta                 86.28(2)
_cell_angle_gamma                75.65(2)
_cell_volume                     1252.9
loop_
_atom_site_label
_atom_site_type_symbol
_atom_site_fract_x
_atom_site_fract_y
_atom_site_fract_z
W1 W 0.23626(2) 0.931940(18) 0.357858(16)
Mo1 Mo 0.64928(4) 0.64094(4) 0.25734(4)
O1 O 0.2145(3) 0.6589(3) 0.3252(3)
O2 O 0.6339(4) 0.4565(3) 0.2218(3)
O3 O 0.5155(5) 1.0093(4) 0.3733(4)
C1 C 0.2767(5) 0.5390(5) 0.2953(4)
O4 O 0.2372(5) 0.8161(5) 0.6165(4)
C2 C 0.8045(6) 0.5123(6) 0.3789(5)
H1 H 0.8569 0.4344 0.3585
C3 C 0.6721(6) 0.5362(7) 0.4327(5)
H2 H 0.625(6) 0.470(6) 0.464(5)
O5 O 0.0803(4) 1.2066(4) 0.4170(4)
O6 O 0.2702(6) 1.0350(5) 0.0999(4)
N1 N 0.4318(4) 0.6563(4) 0.2890(3)
C4 C 0.4086(5) 0.5383(4) 0.2727(4)
C5 C 0.5094(5) 0.4374(5) 0.2388(4)
C6 C 0.7315(6) 0.7243(6) 0.4052(5)
H3 H 0.7293 0.8109 0.4032
O7 O -0.0588(5) 0.8992(4) 0.3181(4)
C7 C 0.4651(6) 0.3278(5) 0.2287(5)
H4 H 0.5264 0.2548 0.2067
C8 C 0.3276(6) 0.3276(5) 0.2517(5)
H5 H 0.3006 0.2532 0.2436
C9 C 0.2294(6) 0.4312(5) 0.2858(5)
H6 H 0.1389 0.4286 0.3011
C10 C 0.6310(6) 0.6669(7) 0.4495(5)
H7 H 0.5496 0.7070 0.4846
C11 C 0.8387(6) 0.6303(6) 0.3633(6)
H8 H 0.9201 0.6447 0.3302
C12 C 0.3141(5) 0.7307(5) 0.3203(4)
C13 C 0.2541(6) 0.9967(5) 0.1917(5)
C14 C 0.1392(5) 1.1083(6) 0.3953(4)
C15 C 0.4174(6) 0.9762(5) 0.3711(5)
C16 C 0.0473(6) 0.9073(5) 0.3339(5)
C17 C 0.6435(9) 0.6611(7) 0.0592(5)
H9 H 0.6217 0.6006 0.0193
C18 C 0.2347(6) 0.8592(5) 0.5251(5)
C20 C 0.7728(8) 0.6557(7) 0.0924(6)
H11 H 0.8517 0.5919 0.0823
C21 C 0.7595(8) 0.7699(8) 0.1459(6)
H12 H 0.8295 0.7969 0.1745
C22 C 0.5520(8) 0.7660(8) 0.0922(5)
H13 H 0.4590 0.7876 0.0794
C23 C 0.6185(9) 0.8340(6) 0.1468(6)
H14 H 0.5791 0.9091 0.1790
W1 W 0.76374(2) 0.068060(18) 0.642142(16)
Mo1 Mo 0.35072(4) 0.35906(4) 0.74266(4)
O1 O 0.7855(3) 0.3411(3) 0.6748(3)
O2 O 0.3661(4) 0.5435(3) 0.7782(3)
O3 O 0.4845(5) -0.0093(4) 0.6267(4)
C1 C 0.7233(5) 0.4610(5) 0.7047(4)
O4 O 0.7628(5) 0.1839(5) 0.3835(4)
C2 C 0.1955(6) 0.4877(6) 0.6211(5)
H1 H 0.1431 0.5656 0.6415
C3 C 0.3279(6) 0.4638(7) 0.5673(5)
H2 H 0.375(6) 0.530(6) 0.536(5)
O5 O 0.9197(4) -0.2066(4) 0.5830(4)
O6 O 0.7298(6) -0.0350(5) 0.9001(4)
N1 N 0.5682(4) 0.3437(4) 0.7110(3)
C4 C 0.5914(5) 0.4617(4) 0.7273(4)
C5 C 0.4906(5) 0.5626(5) 0.7612(4)
C6 C 0.2685(6) 0.2757(6) 0.5948(5)
H3 H 0.2707 0.1891 0.5968
O7 O 1.0588(5) 0.1008(4) 0.6819(4)
C7 C 0.5349(6) 0.6722(5) 0.7713(5)
H4 H 0.4736 0.7452 0.7933
C8 C 0.6724(6) 0.6724(5) 0.7483(5)
H5 H 0.6994 0.7468 0.7564
C9 C 0.7706(6) 0.5688(5) 0.7142(5)
H6 H 0.8611 0.5714 0.6989
C10 C 0.3690(6) 0.3331(7) 0.5505(5)
H7 H 0.4504 0.2930 0.5154
C11 C 0.1613(6) 0.3697(6) 0.6367(6)
H8 H 0.0799 0.3553 0.6698
C12 C 0.6859(5) 0.2693(5) 0.6797(4)
C13 C 0.7459(6) 0.0033(5) 0.8083(5)
C14 C 0.8608(5) -0.1083(6) 0.6047(4)
C15 C 0.5826(6) 0.0238(5) 0.6289(5)
C16 C 0.9527(6) 0.0927(5) 0.6661(5)
C17 C 0.3565(9) 0.3389(7) 0.9408(5)
H9 H 0.3783 0.3994 0.9807
C18 C 0.7653(6) 0.1408(5) 0.4749(5)
C20 C 0.2272(8) 0.3443(7) 0.9076(6)
H11 H 0.1483 0.4081 0.9177
C21 C 0.2405(8) 0.2301(8) 0.8541(6)
H12 H 0.1705 0.2031 0.8255
C22 C 0.4480(8) 0.2340(8) 0.9078(5)
H13 H 0.5410 0.2124 0.9206
C23 C 0.3815(9) 0.1660(6) 0.8532(6)
H14 H 0.4209 0.0909 0.8210
Cl1 Cl 0.9945(2) 0.2940(3) 0.13483(19)
Cl2 Cl 0.8110(3) 0.3447(3) -0.04572(18)
Cl3 Cl 0.8452(5) 0.1099(3) 0.0970(3)
C19 C 0.8439(7) 0.2689(7) 0.0901(5)
H10 H 0.769(7) 0.309(7) 0.141(6)
Cl1 Cl 0.0055(2) 0.7060(3) 0.86517(19)
Cl2 Cl 0.1890(3) 0.6553(3) 1.04572(18)
Cl3 Cl 0.1548(5) 0.8901(3) 0.9030(3)
C19 C 0.1561(7) 0.7311(7) 0.9099(5)
H10 H 0.231(7) 0.691(7) 0.859(6)

#END
