
#######################################################################
#
#                 Cambridge Crystallographic Data Centre
#                                CCDC 
#
#######################################################################
#
# If this CIF has been generated from an entry in the Cambridge 
# Structural Database, then it will include bibliographic, chemical, 
# crystal, experimental, refinement or atomic coordinate data resulting 
# from the CCDC's data processing and validation procedures.
#
#######################################################################

data_KABKAB
_symmetry_cell_setting           orthorhombic
_symmetry_space_group_name_H-M   'P b c a'
_symmetry_Int_Tables_number      61
_space_group_name_Hall           '-P 2ac 2ab'
loop_
_symmetry_equiv_pos_site_id
_symmetry_equiv_pos_as_xyz
1 x,y,z
2 1/2-x,-y,1/2+z
3 -x,1/2+y,1/2-z
4 1/2+x,1/2-y,-z
5 -x,-y,-z
6 1/2+x,y,1/2-z
7 x,1/2-y,1/2+z
8 1/2-x,1/2+y,z
_cell_length_a                   7.3543(3)
_cell_length_b                   6.2617(3)
_cell_length_c                   31.3872(13)
_cell_angle_alpha                90
_cell_angle_beta                 90
_cell_angle_gamma                90
_cell_volume                     1445.39
loop_
_atom_site_label
_atom_site_type_symbol
_atom_site_fract_x
_atom_site_fract_y
_atom_site_fract_z
O1 O -0.01884(15) -0.57491(16) 0.19955(3)
C1 C -0.00667(17) -0.5056(2) 0.15818(4)
C2 C 0.07908(18) -0.6145(2) 0.12580(4)
H1 H 0.1341 -0.7457 0.1310
C3 C 0.08211(18) -0.5260(2) 0.08547(4)
H2 H 0.1386 -0.6012 0.0636
C4 C 0.00422(16) -0.3293(2) 0.07623(4)
C5 C -0.08465(17) -0.2248(2) 0.10963(4)
H3 H -0.1411 -0.0944 0.1046
C6 C -0.09002(18) -0.3116(2) 0.14980(4)
H4 H -0.1501 -0.2395 0.1716
C7 C 0.02594(18) -0.2380(2) 0.03382(4)
H5 H 0.0769 -0.3271 0.0133
C8 C -0.01863(18) -0.0416(2) 0.02086(4)
H6 H -0.0777 0.0472 0.0402
C9 C 0.0738(3) -0.7661(3) 0.21039(5)
H7 H 0.0254 -0.8824 0.1940
H8 H 0.0577 -0.7950 0.2402
H9 H 0.2010 -0.7503 0.2043
O1D O 0.01884(15) 0.57491(16) -0.19955(3)
C1D C 0.00667(17) 0.5056(2) -0.15818(4)
C2D C -0.07908(18) 0.6145(2) -0.12580(4)
H1D H -0.1341 0.7457 -0.1310
C3D C -0.08211(18) 0.5260(2) -0.08547(4)
H2D H -0.1386 0.6012 -0.0636
C4D C -0.00422(16) 0.3293(2) -0.07623(4)
C5D C 0.08465(17) 0.2248(2) -0.10963(4)
H3D H 0.1411 0.0944 -0.1046
C6D C 0.09002(18) 0.3116(2) -0.14980(4)
H4D H 0.1501 0.2395 -0.1716
C7D C -0.02594(18) 0.2380(2) -0.03382(4)
H5D H -0.0769 0.3271 -0.0133
C8D C 0.01863(18) 0.0416(2) -0.02086(4)
H6D H 0.0777 -0.0472 -0.0402
C9D C -0.0738(3) 0.7661(3) -0.21039(5)
H7D H -0.0254 0.8824 -0.1940
H8D H -0.0577 0.7950 -0.2402
H9D H -0.2010 0.7503 -0.2043
O1 O -0.01884(15) -0.57491(16) 1.19955(3)
C1 C -0.00667(17) -0.5056(2) 1.15818(4)
C2 C 0.07908(18) -0.6145(2) 1.12580(4)
H1 H 0.1341 -0.7457 1.1310
C3 C 0.08211(18) -0.5260(2) 1.08547(4)
H2 H 0.1386 -0.6012 1.0636
C4 C 0.00422(16) -0.3293(2) 1.07623(4)
C5 C -0.08465(17) -0.2248(2) 1.10963(4)
H3 H -0.1411 -0.0944 1.1046
C6 C -0.09002(18) -0.3116(2) 1.14980(4)
H4 H -0.1501 -0.2395 1.1716
C7 C 0.02594(18) -0.2380(2) 1.03382(4)
H5 H 0.0769 -0.3271 1.0133
C8 C -0.01863(18) -0.0416(2) 1.02086(4)
H6 H -0.0777 0.0472 1.0402
C9 C 0.0738(3) -0.7661(3) 1.21039(5)
H7 H 0.0254 -0.8824 1.1940
H8 H 0.0577 -0.7950 1.2402
H9 H 0.2010 -0.7503 1.2043
O1D O 0.01884(15) 0.57491(16) 0.80045(3)
C1D C 0.00667(17) 0.5056(2) 0.84182(4)
C2D C -0.07908(18) 0.6145(2) 0.87420(4)
H1D H -0.1341 0.7457 0.8690
C3D C -0.08211(18) 0.5260(2) 0.91453(4)
H2D H -0.1386 0.6012 0.9364
C4D C -0.00422(16) 0.3293(2) 0.92377(4)
C5D C 0.08465(17) 0.2248(2) 0.89037(4)
H3D H 0.1411 0.0944 0.8954
C6D C 0.09002(18) 0.3116(2) 0.85020(4)
H4D H 0.1501 0.2395 0.8284
C7D C -0.02594(18) 0.2380(2) 0.96618(4)
H5D H -0.0769 0.3271 0.9867
C8D C 0.01863(18) 0.0416(2) 0.97914(4)
H6D H 0.0777 -0.0472 0.9598
C9D C -0.0738(3) 0.7661(3) 0.78961(5)
H7D H -0.0254 0.8824 0.8060
H8D H -0.0577 0.7950 0.7598
H9D H -0.2010 0.7503 0.7957
O1 O -0.01884(15) 0.42509(16) 0.19955(3)
C1 C -0.00667(17) 0.4944(2) 0.15818(4)
C2 C 0.07908(18) 0.3855(2) 0.12580(4)
H1 H 0.1341 0.2543 0.1310
C3 C 0.08211(18) 0.4740(2) 0.08547(4)
H2 H 0.1386 0.3988 0.0636
C4 C 0.00422(16) 0.6707(2) 0.07623(4)
C5 C -0.08465(17) 0.7752(2) 0.10963(4)
H3 H -0.1411 0.9056 0.1046
C6 C -0.09002(18) 0.6884(2) 0.14980(4)
H4 H -0.1501 0.7605 0.1716
C7 C 0.02594(18) 0.7620(2) 0.03382(4)
H5 H 0.0769 0.6729 0.0133
C8 C -0.01863(18) 0.9584(2) 0.02086(4)
H6 H -0.0777 1.0472 0.0402
C9 C 0.0738(3) 0.2339(3) 0.21039(5)
H7 H 0.0254 0.1176 0.1940
H8 H 0.0577 0.2050 0.2402
H9 H 0.2010 0.2497 0.2043
O1D O 0.01884(15) 1.57491(16) -0.19955(3)
C1D C 0.00667(17) 1.5056(2) -0.15818(4)
C2D C -0.07908(18) 1.6145(2) -0.12580(4)
H1D H -0.1341 1.7457 -0.1310
C3D C -0.08211(18) 1.5260(2) -0.08547(4)
H2D H -0.1386 1.6012 -0.0636
C4D C -0.00422(16) 1.3293(2) -0.07623(4)
C5D C 0.08465(17) 1.2248(2) -0.10963(4)
H3D H 0.1411 1.0944 -0.1046
C6D C 0.09002(18) 1.3116(2) -0.14980(4)
H4D H 0.1501 1.2395 -0.1716
C7D C -0.02594(18) 1.2380(2) -0.03382(4)
H5D H -0.0769 1.3271 -0.0133
C8D C 0.01863(18) 1.0416(2) -0.02086(4)
H6D H 0.0777 0.9528 -0.0402
C9D C -0.0738(3) 1.7661(3) -0.21039(5)
H7D H -0.0254 1.8824 -0.1940
H8D H -0.0577 1.7950 -0.2402
H9D H -0.2010 1.7503 -0.2043
O1 O -0.01884(15) 0.42509(16) 1.19955(3)
C1 C -0.00667(17) 0.4944(2) 1.15818(4)
C2 C 0.07908(18) 0.3855(2) 1.12580(4)
H1 H 0.1341 0.2543 1.1310
C3 C 0.08211(18) 0.4740(2) 1.08547(4)
H2 H 0.1386 0.3988 1.0636
C4 C 0.00422(16) 0.6707(2) 1.07623(4)
C5 C -0.08465(17) 0.7752(2) 1.10963(4)
H3 H -0.1411 0.9056 1.1046
C6 C -0.09002(18) 0.6884(2) 1.14980(4)
H4 H -0.1501 0.7605 1.1716
C7 C 0.02594(18) 0.7620(2) 1.03382(4)
H5 H 0.0769 0.6729 1.0133
C8 C -0.01863(18) 0.9584(2) 1.02086(4)
H6 H -0.0777 1.0472 1.0402
C9 C 0.0738(3) 0.2339(3) 1.21039(5)
H7 H 0.0254 0.1176 1.1940
H8 H 0.0577 0.2050 1.2402
H9 H 0.2010 0.2497 1.2043
O1D O 0.01884(15) 1.57491(16) 0.80045(3)
C1D C 0.00667(17) 1.5056(2) 0.84182(4)
C2D C -0.07908(18) 1.6145(2) 0.87420(4)
H1D H -0.1341 1.7457 0.8690
C3D C -0.08211(18) 1.5260(2) 0.91453(4)
H2D H -0.1386 1.6012 0.9364
C4D C -0.00422(16) 1.3293(2) 0.92377(4)
C5D C 0.08465(17) 1.2248(2) 0.89037(4)
H3D H 0.1411 1.0944 0.8954
C6D C 0.09002(18) 1.3116(2) 0.85020(4)
H4D H 0.1501 1.2395 0.8284
C7D C -0.02594(18) 1.2380(2) 0.96618(4)
H5D H -0.0769 1.3271 0.9867
C8D C 0.01863(18) 1.0416(2) 0.97914(4)
H6D H 0.0777 0.9528 0.9598
C9D C -0.0738(3) 1.7661(3) 0.78961(5)
H7D H -0.0254 1.8824 0.8060
H8D H -0.0577 1.7950 0.7598
H9D H -0.2010 1.7503 0.7957
O1 O 0.98116(15) -0.57491(16) 0.19955(3)
C1 C 0.99333(17) -0.5056(2) 0.15818(4)
C2 C 1.07908(18) -0.6145(2) 0.12580(4)
H1 H 1.1341 -0.7457 0.1310
C3 C 1.08211(18) -0.5260(2) 0.08547(4)
H2 H 1.1386 -0.6012 0.0636
C4 C 1.00422(16) -0.3293(2) 0.07623(4)
C5 C 0.91535(17) -0.2248(2) 0.10963(4)
H3 H 0.8589 -0.0944 0.1046
C6 C 0.90998(18) -0.3116(2) 0.14980(4)
H4 H 0.8499 -0.2395 0.1716
C7 C 1.02594(18) -0.2380(2) 0.03382(4)
H5 H 1.0769 -0.3271 0.0133
C8 C 0.98137(18) -0.0416(2) 0.02086(4)
H6 H 0.9223 0.0472 0.0402
C9 C 1.0738(3) -0.7661(3) 0.21039(5)
H7 H 1.0254 -0.8824 0.1940
H8 H 1.0577 -0.7950 0.2402
H9 H 1.2010 -0.7503 0.2043
O1D O 1.01884(15) 0.57491(16) -0.19955(3)
C1D C 1.00667(17) 0.5056(2) -0.15818(4)
C2D C 0.92092(18) 0.6145(2) -0.12580(4)
H1D H 0.8659 0.7457 -0.1310
C3D C 0.91789(18) 0.5260(2) -0.08547(4)
H2D H 0.8614 0.6012 -0.0636
C4D C 0.99578(16) 0.3293(2) -0.07623(4)
C5D C 1.08465(17) 0.2248(2) -0.10963(4)
H3D H 1.1411 0.0944 -0.1046
C6D C 1.09002(18) 0.3116(2) -0.14980(4)
H4D H 1.1501 0.2395 -0.1716
C7D C 0.97406(18) 0.2380(2) -0.03382(4)
H5D H 0.9231 0.3271 -0.0133
C8D C 1.01863(18) 0.0416(2) -0.02086(4)
H6D H 1.0777 -0.0472 -0.0402
C9D C 0.9262(3) 0.7661(3) -0.21039(5)
H7D H 0.9746 0.8824 -0.1940
H8D H 0.9423 0.7950 -0.2402
H9D H 0.7990 0.7503 -0.2043
O1 O 0.98116(15) -0.57491(16) 1.19955(3)
C1 C 0.99333(17) -0.5056(2) 1.15818(4)
C2 C 1.07908(18) -0.6145(2) 1.12580(4)
H1 H 1.1341 -0.7457 1.1310
C3 C 1.08211(18) -0.5260(2) 1.08547(4)
H2 H 1.1386 -0.6012 1.0636
C4 C 1.00422(16) -0.3293(2) 1.07623(4)
C5 C 0.91535(17) -0.2248(2) 1.10963(4)
H3 H 0.8589 -0.0944 1.1046
C6 C 0.90998(18) -0.3116(2) 1.14980(4)
H4 H 0.8499 -0.2395 1.1716
C7 C 1.02594(18) -0.2380(2) 1.03382(4)
H5 H 1.0769 -0.3271 1.0133
C8 C 0.98137(18) -0.0416(2) 1.02086(4)
H6 H 0.9223 0.0472 1.0402
C9 C 1.0738(3) -0.7661(3) 1.21039(5)
H7 H 1.0254 -0.8824 1.1940
H8 H 1.0577 -0.7950 1.2402
H9 H 1.2010 -0.7503 1.2043
O1D O 1.01884(15) 0.57491(16) 0.80045(3)
C1D C 1.00667(17) 0.5056(2) 0.84182(4)
C2D C 0.92092(18) 0.6145(2) 0.87420(4)
H1D H 0.8659 0.7457 0.8690
C3D C 0.91789(18) 0.5260(2) 0.91453(4)
H2D H 0.8614 0.6012 0.9364
C4D C 0.99578(16) 0.3293(2) 0.92377(4)
C5D C 1.08465(17) 0.2248(2) 0.89037(4)
H3D H 1.1411 0.0944 0.8954
C6D C 1.09002(18) 0.3116(2) 0.85020(4)
H4D H 1.1501 0.2395 0.8284
C7D C 0.97406(18) 0.2380(2) 0.96618(4)
H5D H 0.9231 0.3271 0.9867
C8D C 1.01863(18) 0.0416(2) 0.97914(4)
H6D H 1.0777 -0.0472 0.9598
C9D C 0.9262(3) 0.7661(3) 0.78961(5)
H7D H 0.9746 0.8824 0.8060
H8D H 0.9423 0.7950 0.7598
H9D H 0.7990 0.7503 0.7957
O1 O 0.98116(15) 0.42509(16) 0.19955(3)
C1 C 0.99333(17) 0.4944(2) 0.15818(4)
C2 C 1.07908(18) 0.3855(2) 0.12580(4)
H1 H 1.1341 0.2543 0.1310
C3 C 1.08211(18) 0.4740(2) 0.08547(4)
H2 H 1.1386 0.3988 0.0636
C4 C 1.00422(16) 0.6707(2) 0.07623(4)
C5 C 0.91535(17) 0.7752(2) 0.10963(4)
H3 H 0.8589 0.9056 0.1046
C6 C 0.90998(18) 0.6884(2) 0.14980(4)
H4 H 0.8499 0.7605 0.1716
C7 C 1.02594(18) 0.7620(2) 0.03382(4)
H5 H 1.0769 0.6729 0.0133
C8 C 0.98137(18) 0.9584(2) 0.02086(4)
H6 H 0.9223 1.0472 0.0402
C9 C 1.0738(3) 0.2339(3) 0.21039(5)
H7 H 1.0254 0.1176 0.1940
H8 H 1.0577 0.2050 0.2402
H9 H 1.2010 0.2497 0.2043
O1D O 1.01884(15) 1.57491(16) -0.19955(3)
C1D C 1.00667(17) 1.5056(2) -0.15818(4)
C2D C 0.92092(18) 1.6145(2) -0.12580(4)
H1D H 0.8659 1.7457 -0.1310
C3D C 0.91789(18) 1.5260(2) -0.08547(4)
H2D H 0.8614 1.6012 -0.0636
C4D C 0.99578(16) 1.3293(2) -0.07623(4)
C5D C 1.08465(17) 1.2248(2) -0.10963(4)
H3D H 1.1411 1.0944 -0.1046
C6D C 1.09002(18) 1.3116(2) -0.14980(4)
H4D H 1.1501 1.2395 -0.1716
C7D C 0.97406(18) 1.2380(2) -0.03382(4)
H5D H 0.9231 1.3271 -0.0133
C8D C 1.01863(18) 1.0416(2) -0.02086(4)
H6D H 1.0777 0.9528 -0.0402
C9D C 0.9262(3) 1.7661(3) -0.21039(5)
H7D H 0.9746 1.8824 -0.1940
H8D H 0.9423 1.7950 -0.2402
H9D H 0.7990 1.7503 -0.2043
O1 O 0.98116(15) 0.42509(16) 1.19955(3)
C1 C 0.99333(17) 0.4944(2) 1.15818(4)
C2 C 1.07908(18) 0.3855(2) 1.12580(4)
H1 H 1.1341 0.2543 1.1310
C3 C 1.08211(18) 0.4740(2) 1.08547(4)
H2 H 1.1386 0.3988 1.0636
C4 C 1.00422(16) 0.6707(2) 1.07623(4)
C5 C 0.91535(17) 0.7752(2) 1.10963(4)
H3 H 0.8589 0.9056 1.1046
C6 C 0.90998(18) 0.6884(2) 1.14980(4)
H4 H 0.8499 0.7605 1.1716
C7 C 1.02594(18) 0.7620(2) 1.03382(4)
H5 H 1.0769 0.6729 1.0133
C8 C 0.98137(18) 0.9584(2) 1.02086(4)
H6 H 0.9223 1.0472 1.0402
C9 C 1.0738(3) 0.2339(3) 1.21039(5)
H7 H 1.0254 0.1176 1.1940
H8 H 1.0577 0.2050 1.2402
H9 H 1.2010 0.2497 1.2043
O1D O 1.01884(15) 1.57491(16) 0.80045(3)
C1D C 1.00667(17) 1.5056(2) 0.84182(4)
C2D C 0.92092(18) 1.6145(2) 0.87420(4)
H1D H 0.8659 1.7457 0.8690
C3D C 0.91789(18) 1.5260(2) 0.91453(4)
H2D H 0.8614 1.6012 0.9364
C4D C 0.99578(16) 1.3293(2) 0.92377(4)
C5D C 1.08465(17) 1.2248(2) 0.89037(4)
H3D H 1.1411 1.0944 0.8954
C6D C 1.09002(18) 1.3116(2) 0.85020(4)
H4D H 1.1501 1.2395 0.8284
C7D C 0.97406(18) 1.2380(2) 0.96618(4)
H5D H 0.9231 1.3271 0.9867
C8D C 1.01863(18) 1.0416(2) 0.97914(4)
H6D H 1.0777 0.9528 0.9598
C9D C 0.9262(3) 1.7661(3) 0.78961(5)
H7D H 0.9746 1.8824 0.8060
H8D H 0.9423 1.7950 0.7598
H9D H 0.7990 1.7503 0.7957
O1 O 0.51884(15) 0.57491(16) 0.69955(3)
C1 C 0.50667(17) 0.5056(2) 0.65818(4)
C2 C 0.42092(18) 0.6145(2) 0.62580(4)
H1 H 0.3659 0.7457 0.6310
C3 C 0.41789(18) 0.5260(2) 0.58547(4)
H2 H 0.3614 0.6012 0.5636
C4 C 0.49578(16) 0.3293(2) 0.57623(4)
C5 C 0.58465(17) 0.2248(2) 0.60963(4)
H3 H 0.6411 0.0944 0.6046
C6 C 0.59002(18) 0.3116(2) 0.64980(4)
H4 H 0.6501 0.2395 0.6716
C7 C 0.47406(18) 0.2380(2) 0.53382(4)
H5 H 0.4231 0.3271 0.5133
C8 C 0.51863(18) 0.0416(2) 0.52086(4)
H6 H 0.5777 -0.0472 0.5402
C9 C 0.4262(3) 0.7661(3) 0.71039(5)
H7 H 0.4746 0.8824 0.6940
H8 H 0.4423 0.7950 0.7402
H9 H 0.2990 0.7503 0.7043
O1D O 0.48116(15) -0.57491(16) 0.30045(3)
C1D C 0.49333(17) -0.5056(2) 0.34182(4)
C2D C 0.57908(18) -0.6145(2) 0.37420(4)
H1D H 0.6341 -0.7457 0.3690
C3D C 0.58211(18) -0.5260(2) 0.41453(4)
H2D H 0.6386 -0.6012 0.4364
C4D C 0.50422(16) -0.3293(2) 0.42377(4)
C5D C 0.41535(17) -0.2248(2) 0.39037(4)
H3D H 0.3589 -0.0944 0.3954
C6D C 0.40998(18) -0.3116(2) 0.35020(4)
H4D H 0.3499 -0.2395 0.3284
C7D C 0.52594(18) -0.2380(2) 0.46618(4)
H5D H 0.5769 -0.3271 0.4867
C8D C 0.48137(18) -0.0416(2) 0.47914(4)
H6D H 0.4223 0.0472 0.4598
C9D C 0.5738(3) -0.7661(3) 0.28961(5)
H7D H 0.5254 -0.8824 0.3060
H8D H 0.5577 -0.7950 0.2598
H9D H 0.7010 -0.7503 0.2957
O1 O 0.51884(15) 1.57491(16) 0.69955(3)
C1 C 0.50667(17) 1.5056(2) 0.65818(4)
C2 C 0.42092(18) 1.6145(2) 0.62580(4)
H1 H 0.3659 1.7457 0.6310
C3 C 0.41789(18) 1.5260(2) 0.58547(4)
H2 H 0.3614 1.6012 0.5636
C4 C 0.49578(16) 1.3293(2) 0.57623(4)
C5 C 0.58465(17) 1.2248(2) 0.60963(4)
H3 H 0.6411 1.0944 0.6046
C6 C 0.59002(18) 1.3116(2) 0.64980(4)
H4 H 0.6501 1.2395 0.6716
C7 C 0.47406(18) 1.2380(2) 0.53382(4)
H5 H 0.4231 1.3271 0.5133
C8 C 0.51863(18) 1.0416(2) 0.52086(4)
H6 H 0.5777 0.9528 0.5402
C9 C 0.4262(3) 1.7661(3) 0.71039(5)
H7 H 0.4746 1.8824 0.6940
H8 H 0.4423 1.7950 0.7402
H9 H 0.2990 1.7503 0.7043
O1D O 0.48116(15) 0.42509(16) 0.30045(3)
C1D C 0.49333(17) 0.4944(2) 0.34182(4)
C2D C 0.57908(18) 0.3855(2) 0.37420(4)
H1D H 0.6341 0.2543 0.3690
C3D C 0.58211(18) 0.4740(2) 0.41453(4)
H2D H 0.6386 0.3988 0.4364
C4D C 0.50422(16) 0.6707(2) 0.42377(4)
C5D C 0.41535(17) 0.7752(2) 0.39037(4)
H3D H 0.3589 0.9056 0.3954
C6D C 0.40998(18) 0.6884(2) 0.35020(4)
H4D H 0.3499 0.7605 0.3284
C7D C 0.52594(18) 0.7620(2) 0.46618(4)
H5D H 0.5769 0.6729 0.4867
C8D C 0.48137(18) 0.9584(2) 0.47914(4)
H6D H 0.4223 1.0472 0.4598
C9D C 0.5738(3) 0.2339(3) 0.28961(5)
H7D H 0.5254 0.1176 0.3060
H8D H 0.5577 0.2050 0.2598
H9D H 0.7010 0.2497 0.2957
O1 O 0.01884(15) -0.07491(16) 0.30045(3)
C1 C 0.00667(17) -0.0056(2) 0.34182(4)
C2 C -0.07908(18) -0.1145(2) 0.37420(4)
H1 H -0.1341 -0.2457 0.3690
C3 C -0.08211(18) -0.0260(2) 0.41453(4)
H2 H -0.1386 -0.1012 0.4364
C4 C -0.00422(16) 0.1707(2) 0.42377(4)
C5 C 0.08465(17) 0.2752(2) 0.39037(4)
H3 H 0.1411 0.4056 0.3954
C6 C 0.09002(18) 0.1884(2) 0.35020(4)
H4 H 0.1501 0.2605 0.3284
C7 C -0.02594(18) 0.2620(2) 0.46618(4)
H5 H -0.0769 0.1729 0.4867
C8 C 0.01863(18) 0.4584(2) 0.47914(4)
H6 H 0.0777 0.5472 0.4598
C9 C -0.0738(3) -0.2661(3) 0.28961(5)
H7 H -0.0254 -0.3824 0.3060
H8 H -0.0577 -0.2950 0.2598
H9 H -0.2010 -0.2503 0.2957
O1D O -0.01884(15) 1.07491(16) 0.69955(3)
C1D C -0.00667(17) 1.0056(2) 0.65818(4)
C2D C 0.07908(18) 1.1145(2) 0.62580(4)
H1D H 0.1341 1.2457 0.6310
C3D C 0.08211(18) 1.0260(2) 0.58547(4)
H2D H 0.1386 1.1012 0.5636
C4D C 0.00422(16) 0.8293(2) 0.57623(4)
C5D C -0.08465(17) 0.7248(2) 0.60963(4)
H3D H -0.1411 0.5944 0.6046
C6D C -0.09002(18) 0.8116(2) 0.64980(4)
H4D H -0.1501 0.7395 0.6716
C7D C 0.02594(18) 0.7380(2) 0.53382(4)
H5D H 0.0769 0.8271 0.5133
C8D C -0.01863(18) 0.5416(2) 0.52086(4)
H6D H -0.0777 0.4528 0.5402
C9D C 0.0738(3) 1.2661(3) 0.71039(5)
H7D H 0.0254 1.3824 0.6940
H8D H 0.0577 1.2950 0.7402
H9D H 0.2010 1.2503 0.7043
O1 O 1.01884(15) -0.07491(16) 0.30045(3)
C1 C 1.00667(17) -0.0056(2) 0.34182(4)
C2 C 0.92092(18) -0.1145(2) 0.37420(4)
H1 H 0.8659 -0.2457 0.3690
C3 C 0.91789(18) -0.0260(2) 0.41453(4)
H2 H 0.8614 -0.1012 0.4364
C4 C 0.99578(16) 0.1707(2) 0.42377(4)
C5 C 1.08465(17) 0.2752(2) 0.39037(4)
H3 H 1.1411 0.4056 0.3954
C6 C 1.09002(18) 0.1884(2) 0.35020(4)
H4 H 1.1501 0.2605 0.3284
C7 C 0.97406(18) 0.2620(2) 0.46618(4)
H5 H 0.9231 0.1729 0.4867
C8 C 1.01863(18) 0.4584(2) 0.47914(4)
H6 H 1.0777 0.5472 0.4598
C9 C 0.9262(3) -0.2661(3) 0.28961(5)
H7 H 0.9746 -0.3824 0.3060
H8 H 0.9423 -0.2950 0.2598
H9 H 0.7990 -0.2503 0.2957
O1D O 0.98116(15) 1.07491(16) 0.69955(3)
C1D C 0.99333(17) 1.0056(2) 0.65818(4)
C2D C 1.07908(18) 1.1145(2) 0.62580(4)
H1D H 1.1341 1.2457 0.6310
C3D C 1.08211(18) 1.0260(2) 0.58547(4)
H2D H 1.1386 1.1012 0.5636
C4D C 1.00422(16) 0.8293(2) 0.57623(4)
C5D C 0.91535(17) 0.7248(2) 0.60963(4)
H3D H 0.8589 0.5944 0.6046
C6D C 0.90998(18) 0.8116(2) 0.64980(4)
H4D H 0.8499 0.7395 0.6716
C7D C 1.02594(18) 0.7380(2) 0.53382(4)
H5D H 1.0769 0.8271 0.5133
C8D C 0.98137(18) 0.5416(2) 0.52086(4)
H6D H 0.9223 0.4528 0.5402
C9D C 1.0738(3) 1.2661(3) 0.71039(5)
H7D H 1.0254 1.3824 0.6940
H8D H 1.0577 1.2950 0.7402
H9D H 1.2010 1.2503 0.7043
O1 O 0.48116(15) 1.07491(16) -0.19955(3)
C1 C 0.49333(17) 1.0056(2) -0.15818(4)
C2 C 0.57908(18) 1.1145(2) -0.12580(4)
H1 H 0.6341 1.2457 -0.1310
C3 C 0.58211(18) 1.0260(2) -0.08547(4)
H2 H 0.6386 1.1012 -0.0636
C4 C 0.50422(16) 0.8293(2) -0.07623(4)
C5 C 0.41535(17) 0.7248(2) -0.10963(4)
H3 H 0.3589 0.5944 -0.1046
C6 C 0.40998(18) 0.8116(2) -0.14980(4)
H4 H 0.3499 0.7395 -0.1716
C7 C 0.52594(18) 0.7380(2) -0.03382(4)
H5 H 0.5769 0.8271 -0.0133
C8 C 0.48137(18) 0.5416(2) -0.02086(4)
H6 H 0.4223 0.4528 -0.0402
C9 C 0.5738(3) 1.2661(3) -0.21039(5)
H7 H 0.5254 1.3824 -0.1940
H8 H 0.5577 1.2950 -0.2402
H9 H 0.7010 1.2503 -0.2043
O1D O 0.51884(15) -0.07491(16) 0.19955(3)
C1D C 0.50667(17) -0.0056(2) 0.15818(4)
C2D C 0.42092(18) -0.1145(2) 0.12580(4)
H1D H 0.3659 -0.2457 0.1310
C3D C 0.41789(18) -0.0260(2) 0.08547(4)
H2D H 0.3614 -0.1012 0.0636
C4D C 0.49578(16) 0.1707(2) 0.07623(4)
C5D C 0.58465(17) 0.2752(2) 0.10963(4)
H3D H 0.6411 0.4056 0.1046
C6D C 0.59002(18) 0.1884(2) 0.14980(4)
H4D H 0.6501 0.2605 0.1716
C7D C 0.47406(18) 0.2620(2) 0.03382(4)
H5D H 0.4231 0.1729 0.0133
C8D C 0.51863(18) 0.4584(2) 0.02086(4)
H6D H 0.5777 0.5472 0.0402
C9D C 0.4262(3) -0.2661(3) 0.21039(5)
H7D H 0.4746 -0.3824 0.1940
H8D H 0.4423 -0.2950 0.2402
H9D H 0.2990 -0.2503 0.2043
O1 O 0.48116(15) 1.07491(16) 0.80045(3)
C1 C 0.49333(17) 1.0056(2) 0.84182(4)
C2 C 0.57908(18) 1.1145(2) 0.87420(4)
H1 H 0.6341 1.2457 0.8690
C3 C 0.58211(18) 1.0260(2) 0.91453(4)
H2 H 0.6386 1.1012 0.9364
C4 C 0.50422(16) 0.8293(2) 0.92377(4)
C5 C 0.41535(17) 0.7248(2) 0.89037(4)
H3 H 0.3589 0.5944 0.8954
C6 C 0.40998(18) 0.8116(2) 0.85020(4)
H4 H 0.3499 0.7395 0.8284
C7 C 0.52594(18) 0.7380(2) 0.96618(4)
H5 H 0.5769 0.8271 0.9867
C8 C 0.48137(18) 0.5416(2) 0.97914(4)
H6 H 0.4223 0.4528 0.9598
C9 C 0.5738(3) 1.2661(3) 0.78961(5)
H7 H 0.5254 1.3824 0.8060
H8 H 0.5577 1.2950 0.7598
H9 H 0.7010 1.2503 0.7957
O1D O 0.51884(15) -0.07491(16) 1.19955(3)
C1D C 0.50667(17) -0.0056(2) 1.15818(4)
C2D C 0.42092(18) -0.1145(2) 1.12580(4)
H1D H 0.3659 -0.2457 1.1310
C3D C 0.41789(18) -0.0260(2) 1.08547(4)
H2D H 0.3614 -0.1012 1.0636
C4D C 0.49578(16) 0.1707(2) 1.07623(4)
C5D C 0.58465(17) 0.2752(2) 1.10963(4)
H3D H 0.6411 0.4056 1.1046
C6D C 0.59002(18) 0.1884(2) 1.14980(4)
H4D H 0.6501 0.2605 1.1716
C7D C 0.47406(18) 0.2620(2) 1.03382(4)
H5D H 0.4231 0.1729 1.0133
C8D C 0.51863(18) 0.4584(2) 1.02086(4)
H6D H 0.5777 0.5472 1.0402
C9D C 0.4262(3) -0.2661(3) 1.21039(5)
H7D H 0.4746 -0.3824 1.1940
H8D H 0.4423 -0.2950 1.2402
H9D H 0.2990 -0.2503 1.2043

#END
