
#######################################################################
#
#                 Cambridge Crystallographic Data Centre
#                                CCDC 
#
#######################################################################
#
# If this CIF has been generated from an entry in the Cambridge 
# Structural Database, then it will include bibliographic, chemical, 
# crystal, experimental, refinement or atomic coordinate data resulting 
# from the CCDC's data processing and validation procedures.
#
#######################################################################

data_KABLAA
_symmetry_cell_setting           orthorhombic
_symmetry_space_group_name_H-M   'P 21 21 21'
_symmetry_Int_Tables_number      19
_space_group_name_Hall           'P 2ac 2ab'
loop_
_symmetry_equiv_pos_site_id
_symmetry_equiv_pos_as_xyz
1 x,y,z
2 1/2+x,1/2-y,-z
3 -x,1/2+y,1/2-z
4 1/2-x,-y,1/2+z
_cell_length_a                   16.806(2)
_cell_length_b                   16.880(4)
_cell_length_c                   7.421(3)
_cell_angle_alpha                90
_cell_angle_beta                 90
_cell_angle_gamma                90
_cell_volume                     2105.23
loop_
_atom_site_label
_atom_site_type_symbol
_atom_site_fract_x
_atom_site_fract_y
_atom_site_fract_z
C1 C 0.7898(2) -0.0421(2) 0.1808(5)
C2 C 0.7536(2) -0.1115(2) 0.2524(5)
C3 C 0.7950(2) -0.1793(2) 0.2772(5)
C4 C 0.8766(2) -0.1879(2) 0.2254(5)
C5 C 0.9192(2) -0.1158(2) 0.1748(4)
C6 C 1.0025(2) -0.1133(2) 0.1557(6)
C7 C 1.0399(2) -0.0444(3) 0.1032(7)
C8 C 0.9975(2) 0.0235(2) 0.0653(6)
C9 C 0.9162(2) 0.0232(2) 0.0902(6)
C10 C 0.8761(2) -0.0452(2) 0.1475(5)
N1 N 0.7538(2) 0.0268(2) 0.1595(5)
C11 C 0.6734(2) 0.0373(2) 0.1543(5)
C12 C 0.6162(2) -0.0163(2) 0.0903(5)
C13 C 0.5374(2) 0.0012(2) 0.0796(6)
C14 C 0.5096(2) 0.0771(2) 0.1385(5)
C15 C 0.5654(2) 0.1323(2) 0.1990(5)
C16 C 0.6455(2) 0.1148(2) 0.2034(5)
N2 N 0.7035(2) 0.1680(2) 0.2597(5)
C17 C 0.6954(2) 0.2469(2) 0.3010(6)
O1 O 0.6331(2) 0.2819(2) 0.2950(8)
C18 C 0.7711(3) 0.2867(3) 0.3525(9)
N3 N 0.4312(2) 0.0964(2) 0.1324(5)
C19 C 0.4025(2) 0.1704(3) 0.2098(6)
C20 C 0.4120(4) 0.2415(3) 0.0857(9)
C21 C 0.3706(3) 0.0444(3) 0.0525(8)
C22 C 0.3366(4) -0.0132(3) 0.1941(10)
C23 C 0.9083(2) -0.2635(2) 0.2234(6)
C24 C 0.9840(3) -0.2866(2) 0.1543(7)
N4 N 1.0433(2) -0.3093(2) 0.1022(8)
C25 C 0.8605(2) -0.3297(2) 0.2744(8)
N5 N 0.8223(3) -0.3816(3) 0.3134(10)
H1 H 0.6956(2) -0.1104(2) 0.2822(5)
H2 H 0.7683(2) -0.2248(2) 0.3391(5)
H3 H 1.0345(2) -0.1617(2) 0.1833(6)
H4 H 1.0991(2) -0.0444(3) 0.0911(7)
H5 H 1.0250(2) 0.0722(2) 0.0209(6)
H6 H 0.8850(2) 0.0725(2) 0.0653(6)
H7 H 0.6342(2) -0.0699(2) 0.0502(5)
H8 H 0.4987(2) -0.0383(2) 0.0302(6)
H9 H 0.5470(2) 0.1856(2) 0.2400(5)
H10 H 0.7584(2) 0.1458(2) 0.2730(5)
H11 H 0.8186(3) 0.2536(3) 0.3225(9)
H12 H 0.7776(3) 0.3098(3) 0.4757(9)
H13 H 0.7660(3) 0.3305(3) 0.2624(9)
H14 H 0.3448(2) 0.1647(3) 0.2403(6)
H15 H 0.4336(2) 0.1804(3) 0.3224(6)
H16 H 0.3906(4) 0.2867(3) 0.1580(9)
H17 H 0.3770(4) 0.2321(3) -0.0211(9)
H18 H 0.4671(4) 0.2544(3) 0.0439(9)
H19 H 0.3264(3) 0.0779(3) 0.0048(8)
H20 H 0.3950(3) 0.0136(3) -0.0485(8)
H21 H 0.2946(4) -0.0514(3) 0.1548(10)
H22 H 0.3147(4) 0.0223(3) 0.2898(10)
H23 H 0.3832(4) -0.0431(3) 0.2431(10)
C1 C 0.2898(2) 0.5421(2) 0.8192(5)
C2 C 0.2536(2) 0.6115(2) 0.7476(5)
C3 C 0.2950(2) 0.6793(2) 0.7228(5)
C4 C 0.3766(2) 0.6879(2) 0.7746(5)
C5 C 0.4192(2) 0.6158(2) 0.8252(4)
C6 C 0.5025(2) 0.6133(2) 0.8443(6)
C7 C 0.5399(2) 0.5444(3) 0.8968(7)
C8 C 0.4975(2) 0.4765(2) 0.9347(6)
C9 C 0.4162(2) 0.4768(2) 0.9098(6)
C10 C 0.3761(2) 0.5452(2) 0.8525(5)
N1 N 0.2538(2) 0.4732(2) 0.8405(5)
C11 C 0.1734(2) 0.4627(2) 0.8457(5)
C12 C 0.1162(2) 0.5163(2) 0.9097(5)
C13 C 0.0374(2) 0.4988(2) 0.9204(6)
C14 C 0.0096(2) 0.4229(2) 0.8615(5)
C15 C 0.0654(2) 0.3677(2) 0.8010(5)
C16 C 0.1455(2) 0.3852(2) 0.7966(5)
N2 N 0.2035(2) 0.3320(2) 0.7403(5)
C17 C 0.1954(2) 0.2531(2) 0.6990(6)
O1 O 0.1331(2) 0.2181(2) 0.7050(8)
C18 C 0.2711(3) 0.2133(3) 0.6475(9)
N3 N -0.0688(2) 0.4036(2) 0.8676(5)
C19 C -0.0975(2) 0.3296(3) 0.7902(6)
C20 C -0.0880(4) 0.2585(3) 0.9143(9)
C21 C -0.1294(3) 0.4556(3) 0.9475(8)
C22 C -0.1634(4) 0.5132(3) 0.8059(10)
C23 C 0.4083(2) 0.7635(2) 0.7766(6)
C24 C 0.4840(3) 0.7866(2) 0.8457(7)
N4 N 0.5433(2) 0.8093(2) 0.8978(8)
C25 C 0.3605(2) 0.8297(2) 0.7256(8)
N5 N 0.3223(3) 0.8816(3) 0.6866(10)
H1 H 0.1956(2) 0.6104(2) 0.7178(5)
H2 H 0.2683(2) 0.7248(2) 0.6609(5)
H3 H 0.5345(2) 0.6617(2) 0.8167(6)
H4 H 0.5991(2) 0.5444(3) 0.9089(7)
H5 H 0.5250(2) 0.4278(2) 0.9791(6)
H6 H 0.3850(2) 0.4275(2) 0.9347(6)
H7 H 0.1342(2) 0.5699(2) 0.9498(5)
H8 H -0.0013(2) 0.5383(2) 0.9698(6)
H9 H 0.0470(2) 0.3144(2) 0.7600(5)
H10 H 0.2584(2) 0.3542(2) 0.7270(5)
H11 H 0.3186(3) 0.2464(3) 0.6775(9)
H12 H 0.2776(3) 0.1902(3) 0.5243(9)
H13 H 0.2660(3) 0.1695(3) 0.7376(9)
H14 H -0.1552(2) 0.3353(3) 0.7597(6)
H15 H -0.0664(2) 0.3196(3) 0.6776(6)
H16 H -0.1094(4) 0.2133(3) 0.8420(9)
H17 H -0.1230(4) 0.2679(3) 1.0211(9)
H18 H -0.0329(4) 0.2456(3) 0.9561(9)
H19 H -0.1736(3) 0.4221(3) 0.9952(8)
H20 H -0.1050(3) 0.4864(3) 1.0485(8)
H21 H -0.2054(4) 0.5514(3) 0.8452(10)
H22 H -0.1853(4) 0.4777(3) 0.7102(10)
H23 H -0.1168(4) 0.5431(3) 0.7569(10)
C1 C 0.2102(2) 0.4579(2) 0.3192(5)
C2 C 0.2464(2) 0.3885(2) 0.2476(5)
C3 C 0.2050(2) 0.3207(2) 0.2228(5)
C4 C 0.1234(2) 0.3121(2) 0.2746(5)
C5 C 0.0808(2) 0.3842(2) 0.3252(4)
C6 C -0.0025(2) 0.3867(2) 0.3443(6)
C7 C -0.0399(2) 0.4556(3) 0.3968(7)
C8 C 0.0025(2) 0.5235(2) 0.4347(6)
C9 C 0.0838(2) 0.5232(2) 0.4098(6)
C10 C 0.1239(2) 0.4548(2) 0.3525(5)
N1 N 0.2462(2) 0.5268(2) 0.3405(5)
C11 C 0.3266(2) 0.5373(2) 0.3457(5)
C12 C 0.3838(2) 0.4837(2) 0.4097(5)
C13 C 0.4626(2) 0.5012(2) 0.4204(6)
C14 C 0.4904(2) 0.5771(2) 0.3615(5)
C15 C 0.4346(2) 0.6323(2) 0.3010(5)
C16 C 0.3545(2) 0.6148(2) 0.2966(5)
N2 N 0.2965(2) 0.6680(2) 0.2403(5)
C17 C 0.3046(2) 0.7469(2) 0.1990(6)
O1 O 0.3669(2) 0.7819(2) 0.2050(8)
C18 C 0.2289(3) 0.7867(3) 0.1475(9)
N3 N 0.5688(2) 0.5964(2) 0.3676(5)
C19 C 0.5975(2) 0.6704(3) 0.2902(6)
C20 C 0.5880(4) 0.7415(3) 0.4143(9)
C21 C 0.6294(3) 0.5444(3) 0.4475(8)
C22 C 0.6634(4) 0.4868(3) 0.3059(10)
C23 C 0.0917(2) 0.2365(2) 0.2766(6)
C24 C 0.0160(3) 0.2134(2) 0.3457(7)
N4 N -0.0433(2) 0.1907(2) 0.3978(8)
C25 C 0.1395(2) 0.1703(2) 0.2256(8)
N5 N 0.1777(3) 0.1184(3) 0.1866(10)
H1 H 0.3044(2) 0.3896(2) 0.2178(5)
H2 H 0.2317(2) 0.2752(2) 0.1609(5)
H3 H -0.0345(2) 0.3383(2) 0.3167(6)
H4 H -0.0991(2) 0.4556(3) 0.4089(7)
H5 H -0.0250(2) 0.5722(2) 0.4791(6)
H6 H 0.1150(2) 0.5725(2) 0.4347(6)
H7 H 0.3658(2) 0.4301(2) 0.4498(5)
H8 H 0.5013(2) 0.4617(2) 0.4698(6)
H9 H 0.4530(2) 0.6856(2) 0.2600(5)
H10 H 0.2416(2) 0.6458(2) 0.2270(5)
H11 H 0.1814(3) 0.7536(3) 0.1775(9)
H12 H 0.2224(3) 0.8098(3) 0.0243(9)
H13 H 0.2340(3) 0.8305(3) 0.2376(9)
H14 H 0.6552(2) 0.6647(3) 0.2597(6)
H15 H 0.5664(2) 0.6804(3) 0.1776(6)
H16 H 0.6094(4) 0.7867(3) 0.3420(9)
H17 H 0.6230(4) 0.7321(3) 0.5211(9)
H18 H 0.5329(4) 0.7544(3) 0.4561(9)
H19 H 0.6736(3) 0.5779(3) 0.4952(8)
H20 H 0.6050(3) 0.5136(3) 0.5485(8)
H21 H 0.7054(4) 0.4486(3) 0.3452(10)
H22 H 0.6853(4) 0.5223(3) 0.2102(10)
H23 H 0.6168(4) 0.4569(3) 0.2569(10)
C1 C 0.7102(2) 1.0421(2) 0.6808(5)
C2 C 0.7464(2) 1.1115(2) 0.7524(5)
C3 C 0.7050(2) 1.1793(2) 0.7772(5)
C4 C 0.6234(2) 1.1879(2) 0.7254(5)
C5 C 0.5808(2) 1.1158(2) 0.6748(4)
C6 C 0.4975(2) 1.1133(2) 0.6557(6)
C7 C 0.4601(2) 1.0444(3) 0.6032(7)
C8 C 0.5025(2) 0.9765(2) 0.5653(6)
C9 C 0.5838(2) 0.9768(2) 0.5902(6)
C10 C 0.6239(2) 1.0452(2) 0.6475(5)
N1 N 0.7462(2) 0.9732(2) 0.6595(5)
C11 C 0.8266(2) 0.9627(2) 0.6543(5)
C12 C 0.8838(2) 1.0163(2) 0.5903(5)
C13 C 0.9626(2) 0.9988(2) 0.5796(6)
C14 C 0.9904(2) 0.9229(2) 0.6385(5)
C15 C 0.9346(2) 0.8677(2) 0.6990(5)
C16 C 0.8545(2) 0.8852(2) 0.7034(5)
N2 N 0.7965(2) 0.8320(2) 0.7597(5)
C17 C 0.8046(2) 0.7531(2) 0.8010(6)
O1 O 0.8669(2) 0.7181(2) 0.7950(8)
C18 C 0.7289(3) 0.7133(3) 0.8525(9)
N3 N 1.0688(2) 0.9036(2) 0.6324(5)
C19 C 1.0975(2) 0.8296(3) 0.7098(6)
C20 C 1.0880(4) 0.7585(3) 0.5857(9)
C21 C 1.1294(3) 0.9556(3) 0.5525(8)
C22 C 1.1634(4) 1.0132(3) 0.6941(10)
C23 C 0.5917(2) 1.2635(2) 0.7234(6)
C24 C 0.5160(3) 1.2866(2) 0.6543(7)
N4 N 0.4567(2) 1.3093(2) 0.6022(8)
C25 C 0.6395(2) 1.3297(2) 0.7744(8)
N5 N 0.6777(3) 1.3816(3) 0.8134(10)
H1 H 0.8044(2) 1.1104(2) 0.7822(5)
H2 H 0.7317(2) 1.2248(2) 0.8391(5)
H3 H 0.4655(2) 1.1617(2) 0.6833(6)
H4 H 0.4009(2) 1.0444(3) 0.5911(7)
H5 H 0.4750(2) 0.9278(2) 0.5209(6)
H6 H 0.6150(2) 0.9275(2) 0.5653(6)
H7 H 0.8658(2) 1.0699(2) 0.5502(5)
H8 H 1.0013(2) 1.0383(2) 0.5302(6)
H9 H 0.9530(2) 0.8144(2) 0.7400(5)
H10 H 0.7416(2) 0.8542(2) 0.7730(5)
H11 H 0.6814(3) 0.7464(3) 0.8225(9)
H12 H 0.7224(3) 0.6902(3) 0.9757(9)
H13 H 0.7340(3) 0.6695(3) 0.7624(9)
H14 H 1.1552(2) 0.8353(3) 0.7403(6)
H15 H 1.0664(2) 0.8196(3) 0.8224(6)
H16 H 1.1094(4) 0.7133(3) 0.6580(9)
H17 H 1.1230(4) 0.7679(3) 0.4789(9)
H18 H 1.0329(4) 0.7456(3) 0.5439(9)
H19 H 1.1736(3) 0.9221(3) 0.5048(8)
H20 H 1.1050(3) 0.9864(3) 0.4515(8)
H21 H 1.2054(4) 1.0514(3) 0.6548(10)
H22 H 1.1853(4) 0.9777(3) 0.7898(10)
H23 H 1.1168(4) 1.0431(3) 0.7431(10)

#END
