./KABLAC_from_xyz.cif_generated_by_CrystalShift
_symmetry_cell_setting triclinic
_symmetry_space_group_name_H-M 'P 1'
loop_
_symmetry_equiv_pos_site_id
_symmetry_equiv_pos_as_xyz
1 x,y,z
_cell_length_a 13.804000
_cell_length_b 5.829000
_cell_length_c 22.164000
_cell_angle_alpha 90.000000
_cell_angle_beta 97.989000
_cell_angle_gamma 90.000000
_cell_volume 1766.085103
loop_
_atom_site_label
_atom_site_type_symbol
_atom_site_fract_x
_atom_site_fract_y
_atom_site_fract_z
I1 I 0.339880 0.757670 0.089898
F2 F 0.410700 0.900300 -0.037510
F3 F 0.529200 0.699300 -0.106630
C4 C 0.435600 0.603600 0.036000
C5 C 0.454000 0.699900 -0.018100
C6 C 0.516800 0.598000 -0.053400
I7 I 0.660120 0.242330 -0.089898
F8 F 0.589300 0.099700 0.037510
F9 F 0.470800 0.300700 0.106630
C10 C 0.564400 0.396400 -0.036000
C11 C 0.546000 0.300100 0.018100
C12 C 0.483200 0.402000 0.053400
I13 I 0.339880 0.757670 1.089898
F14 F 0.410700 0.900300 0.962490
F15 F 0.529200 0.699300 0.893370
C16 C 0.435600 0.603600 1.036000
C17 C 0.454000 0.699900 0.981900
C18 C 0.516800 0.598000 0.946600
I19 I 0.660120 0.242330 0.910102
F20 F 0.589300 0.099700 1.037510
F21 F 0.470800 0.300700 1.106630
C22 C 0.564400 0.396400 0.964000
C23 C 0.546000 0.300100 1.018100
C24 C 0.483200 0.402000 1.053400
I25 I 0.660120 0.757670 0.410102
F26 F 0.589300 0.900300 0.537510
F27 F 0.470800 0.699300 0.606630
C28 C 0.564400 0.603600 0.464000
C29 C 0.546000 0.699900 0.518100
C30 C 0.483200 0.598000 0.553400
I31 I 0.339880 0.242330 0.589898
F32 F 0.410700 0.099700 0.462490
F33 F 0.529200 0.300700 0.393370
C34 C 0.435600 0.396400 0.536000
C35 C 0.454000 0.300100 0.481900
C36 C 0.516800 0.402000 0.446600
I37 I -0.160120 0.257670 0.089898
F38 F -0.089300 0.400300 -0.037510
F39 F 0.029200 0.199300 -0.106630
C40 C -0.064400 0.103600 0.036000
C41 C -0.046000 0.199900 -0.018100
C42 C 0.016800 0.098000 -0.053400
I43 I 0.160120 -0.257670 -0.089898
F44 F 0.089300 -0.400300 0.037510
F45 F -0.029200 -0.199300 0.106630
C46 C 0.064400 -0.103600 -0.036000
C47 C 0.046000 -0.199900 0.018100
C48 C -0.016800 -0.098000 0.053400
I49 I -0.160120 0.257670 1.089898
F50 F -0.089300 0.400300 0.962490
F51 F 0.029200 0.199300 0.893370
C52 C -0.064400 0.103600 1.036000
C53 C -0.046000 0.199900 0.981900
C54 C 0.016800 0.098000 0.946600
I55 I 0.160120 -0.257670 0.910102
F56 F 0.089300 -0.400300 1.037510
F57 F -0.029200 -0.199300 1.106630
C58 C 0.064400 -0.103600 0.964000
C59 C 0.046000 -0.199900 1.018100
C60 C -0.016800 -0.098000 1.053400
I61 I -0.160120 1.257670 0.089898
F62 F -0.089300 1.400300 -0.037510
F63 F 0.029200 1.199300 -0.106630
C64 C -0.064400 1.103600 0.036000
C65 C -0.046000 1.199900 -0.018100
C66 C 0.016800 1.098000 -0.053400
I67 I 0.160120 0.742330 -0.089898
F68 F 0.089300 0.599700 0.037510
F69 F -0.029200 0.800700 0.106630
C70 C 0.064400 0.896400 -0.036000
C71 C 0.046000 0.800100 0.018100
C72 C -0.016800 0.902000 0.053400
I73 I -0.160120 1.257670 1.089898
F74 F -0.089300 1.400300 0.962490
F75 F 0.029200 1.199300 0.893370
C76 C -0.064400 1.103600 1.036000
C77 C -0.046000 1.199900 0.981900
C78 C 0.016800 1.098000 0.946600
I79 I 0.160120 0.742330 0.910102
F80 F 0.089300 0.599700 1.037510
F81 F -0.029200 0.800700 1.106630
C82 C 0.064400 0.896400 0.964000
C83 C 0.046000 0.800100 1.018100
C84 C -0.016800 0.902000 1.053400
I85 I 0.839880 0.257670 0.089898
F86 F 0.910700 0.400300 -0.037510
F87 F 1.029200 0.199300 -0.106630
C88 C 0.935600 0.103600 0.036000
C89 C 0.954000 0.199900 -0.018100
C90 C 1.016800 0.098000 -0.053400
I91 I 1.160120 -0.257670 -0.089898
F92 F 1.089300 -0.400300 0.037510
F93 F 0.970800 -0.199300 0.106630
C94 C 1.064400 -0.103600 -0.036000
C95 C 1.046000 -0.199900 0.018100
C96 C 0.983200 -0.098000 0.053400
I97 I 0.839880 0.257670 1.089898
F98 F 0.910700 0.400300 0.962490
F99 F 1.029200 0.199300 0.893370
C100 C 0.935600 0.103600 1.036000
C101 C 0.954000 0.199900 0.981900
C102 C 1.016800 0.098000 0.946600
I103 I 1.160120 -0.257670 0.910102
F104 F 1.089300 -0.400300 1.037510
F105 F 0.970800 -0.199300 1.106630
C106 C 1.064400 -0.103600 0.964000
C107 C 1.046000 -0.199900 1.018100
C108 C 0.983200 -0.098000 1.053400
I109 I 0.839880 1.257670 0.089898
F110 F 0.910700 1.400300 -0.037510
F111 F 1.029200 1.199300 -0.106630
C112 C 0.935600 1.103600 0.036000
C113 C 0.954000 1.199900 -0.018100
C114 C 1.016800 1.098000 -0.053400
I115 I 1.160120 0.742330 -0.089898
F116 F 1.089300 0.599700 0.037510
F117 F 0.970800 0.800700 0.106630
C118 C 1.064400 0.896400 -0.036000
C119 C 1.046000 0.800100 0.018100
C120 C 0.983200 0.902000 0.053400
I121 I 0.839880 1.257670 1.089898
F122 F 0.910700 1.400300 0.962490
F123 F 1.029200 1.199300 0.893370
C124 C 0.935600 1.103600 1.036000
C125 C 0.954000 1.199900 0.981900
C126 C 1.016800 1.098000 0.946600
I127 I 1.160120 0.742330 0.910102
F128 F 1.089300 0.599700 1.037510
F129 F 0.970800 0.800700 1.106630
C130 C 1.064400 0.896400 0.964000
C131 C 1.046000 0.800100 1.018100
C132 C 0.983200 0.902000 1.053400
I133 I 0.160120 0.257670 0.410102
F134 F 0.089300 0.400300 0.537510
F135 F -0.029200 0.199300 0.606630
C136 C 0.064400 0.103600 0.464000
C137 C 0.046000 0.199900 0.518100
C138 C -0.016800 0.098000 0.553400
I139 I -0.160120 -0.257670 0.589898
F140 F -0.089300 -0.400300 0.462490
F141 F 0.029200 -0.199300 0.393370
C142 C -0.064400 -0.103600 0.536000
C143 C -0.046000 -0.199900 0.481900
C144 C 0.016800 -0.098000 0.446600
I145 I 0.160120 1.257670 0.410102
F146 F 0.089300 1.400300 0.537510
F147 F -0.029200 1.199300 0.606630
C148 C 0.064400 1.103600 0.464000
C149 C 0.046000 1.199900 0.518100
C150 C -0.016800 1.098000 0.553400
I151 I -0.160120 0.742330 0.589898
F152 F -0.089300 0.599700 0.462490
F153 F 0.029200 0.800700 0.393370
C154 C -0.064400 0.896400 0.536000
C155 C -0.046000 0.800100 0.481900
C156 C 0.016800 0.902000 0.446600
I157 I 1.160120 0.257670 0.410102
F158 F 1.089300 0.400300 0.537510
F159 F 0.970800 0.199300 0.606630
C160 C 1.064400 0.103600 0.464000
C161 C 1.046000 0.199900 0.518100
C162 C 0.983200 0.098000 0.553400
I163 I 0.839880 -0.257670 0.589898
F164 F 0.910700 -0.400300 0.462490
F165 F 1.029200 -0.199300 0.393370
C166 C 0.935600 -0.103600 0.536000
C167 C 0.954000 -0.199900 0.481900
C168 C 1.016800 -0.098000 0.446600
I169 I 1.160120 1.257670 0.410102
F170 F 1.089300 1.400300 0.537510
F171 F 0.970800 1.199300 0.606630
C172 C 1.064400 1.103600 0.464000
C173 C 1.046000 1.199900 0.518100
C174 C 0.983200 1.098000 0.553400
I175 I 0.839880 0.742330 0.589898
F176 F 0.910700 0.599700 0.462490
F177 F 1.029200 0.800700 0.393370
C178 C 0.935600 0.896400 0.536000
C179 C 0.954000 0.800100 0.481900
C180 C 1.016800 0.902000 0.446600
S181 S -0.000000 0.426600 0.250000
N182 N 0.210300 -0.020200 0.159870
C183 C 0.178700 0.184200 0.137900
H184 H 0.203200 0.240400 0.102800
C185 C 0.112100 0.319200 0.163500
H186 H 0.090500 0.461600 0.145500
C187 C 0.077900 0.241700 0.215800
C188 C 0.111200 0.032600 0.240100
H189 H 0.090000 -0.024200 0.276300
C190 C 0.176200 -0.092600 0.210400
H191 H 0.197700 -0.237300 0.226800
N192 N -0.210300 -0.020200 0.340130
C193 C -0.178700 0.184200 0.362100
H194 H -0.203200 0.240400 0.397200
C195 C -0.112100 0.319200 0.336500
H196 H -0.090500 0.461600 0.354500
C197 C -0.077900 0.241700 0.284200
C198 C -0.111200 0.032600 0.259900
H199 H -0.090000 -0.024200 0.223700
C200 C -0.176200 -0.092600 0.289600
H201 H -0.197700 -0.237300 0.273200
S202 S 1.000000 0.426600 0.250000
N203 N 1.210300 -0.020200 0.159870
C204 C 1.178700 0.184200 0.137900
H205 H 1.203200 0.240400 0.102800
C206 C 1.112100 0.319200 0.163500
H207 H 1.090500 0.461600 0.145500
C208 C 1.077900 0.241700 0.215800
C209 C 1.111200 0.032600 0.240100
H210 H 1.090000 -0.024200 0.276300
C211 C 1.176200 -0.092600 0.210400
H212 H 1.197700 -0.237300 0.226800
N213 N 0.789700 -0.020200 0.340130
C214 C 0.821300 0.184200 0.362100
H215 H 0.796800 0.240400 0.397200
C216 C 0.887900 0.319200 0.336500
H217 H 0.909500 0.461600 0.354500
C218 C 0.922100 0.241700 0.284200
C219 C 0.888800 0.032600 0.259900
H220 H 0.910000 -0.024200 0.223700
C221 C 0.823800 -0.092600 0.289600
H222 H 0.802300 -0.237300 0.273200
S223 S 0.500000 0.926600 0.250000
N224 N 0.710300 0.479800 0.159870
C225 C 0.678700 0.684200 0.137900
H226 H 0.703200 0.740400 0.102800
C227 C 0.612100 0.819200 0.163500
H228 H 0.590500 0.961600 0.145500
C229 C 0.577900 0.741700 0.215800
C230 C 0.611200 0.532600 0.240100
H231 H 0.590000 0.475800 0.276300
C232 C 0.676200 0.407400 0.210400
H233 H 0.697700 0.262700 0.226800
N234 N 0.289700 0.479800 0.340130
C235 C 0.321300 0.684200 0.362100
H236 H 0.296800 0.740400 0.397200
C237 C 0.387900 0.819200 0.336500
H238 H 0.409500 0.961600 0.354500
C239 C 0.422100 0.741700 0.284200
C240 C 0.388800 0.532600 0.259900
H241 H 0.410000 0.475800 0.223700
C242 C 0.323800 0.407400 0.289600
H243 H 0.302300 0.262700 0.273200
S244 S 0.000000 0.573400 0.750000
N245 N -0.210300 1.020200 0.840130
C246 C -0.178700 0.815800 0.862100
H247 H -0.203200 0.759600 0.897200
C248 C -0.112100 0.680800 0.836500
H249 H -0.090500 0.538400 0.854500
C250 C -0.077900 0.758300 0.784200
C251 C -0.111200 0.967400 0.759900
H252 H -0.090000 1.024200 0.723700
C253 C -0.176200 1.092600 0.789600
H254 H -0.197700 1.237300 0.773200
N255 N 0.210300 1.020200 0.659870
C256 C 0.178700 0.815800 0.637900
H257 H 0.203200 0.759600 0.602800
C258 C 0.112100 0.680800 0.663500
H259 H 0.090500 0.538400 0.645500
C260 C 0.077900 0.758300 0.715800
C261 C 0.111200 0.967400 0.740100
H262 H 0.090000 1.024200 0.776300
C263 C 0.176200 1.092600 0.710400
H264 H 0.197700 1.237300 0.726800
S265 S 1.000000 0.573400 0.750000
N266 N 0.789700 1.020200 0.840130
C267 C 0.821300 0.815800 0.862100
H268 H 0.796800 0.759600 0.897200
C269 C 0.887900 0.680800 0.836500
H270 H 0.909500 0.538400 0.854500
C271 C 0.922100 0.758300 0.784200
C272 C 0.888800 0.967400 0.759900
H273 H 0.910000 1.024200 0.723700
C274 C 0.823800 1.092600 0.789600
H275 H 0.802300 1.237300 0.773200
N276 N 1.210300 1.020200 0.659870
C277 C 1.178700 0.815800 0.637900
H278 H 1.203200 0.759600 0.602800
C279 C 1.112100 0.680800 0.663500
H280 H 1.090500 0.538400 0.645500
C281 C 1.077900 0.758300 0.715800
C282 C 1.111200 0.967400 0.740100
H283 H 1.090000 1.024200 0.776300
C284 C 1.176200 1.092600 0.710400
H285 H 1.197700 1.237300 0.726800
S286 S 0.500000 0.073400 0.750000
N287 N 0.289700 0.520200 0.840130
C288 C 0.321300 0.315800 0.862100
H289 H 0.296800 0.259600 0.897200
C290 C 0.387900 0.180800 0.836500
H291 H 0.409500 0.038400 0.854500
C292 C 0.422100 0.258300 0.784200
C293 C 0.388800 0.467400 0.759900
H294 H 0.410000 0.524200 0.723700
C295 C 0.323800 0.592600 0.789600
H296 H 0.302300 0.737300 0.773200
N297 N 0.710300 0.520200 0.659870
C298 C 0.678700 0.315800 0.637900
H299 H 0.703200 0.259600 0.602800
C300 C 0.612100 0.180800 0.663500
H301 H 0.590500 0.038400 0.645500
C302 C 0.577900 0.258300 0.715800
C303 C 0.611200 0.467400 0.740100
H304 H 0.590000 0.524200 0.776300
C305 C 0.676200 0.592600 0.710400
H306 H 0.697700 0.737300 0.726800

#END
