
#######################################################################
#
#                 Cambridge Crystallographic Data Centre
#                                CCDC 
#
#######################################################################
#
# If this CIF has been generated from an entry in the Cambridge 
# Structural Database, then it will include bibliographic, chemical, 
# crystal, experimental, refinement or atomic coordinate data resulting 
# from the CCDC's data processing and validation procedures.
#
#######################################################################

data_KABLIK
_symmetry_cell_setting           monoclinic
_symmetry_space_group_name_H-M   'P 21/c'
_symmetry_Int_Tables_number      14
_space_group_name_Hall           '-P 2ybc'
loop_
_symmetry_equiv_pos_site_id
_symmetry_equiv_pos_as_xyz
1 x,y,z
2 -x,1/2+y,1/2-z
3 -x,-y,-z
4 x,1/2-y,1/2+z
_cell_length_a                   8.6659(17)
_cell_length_b                   15.207(3)
_cell_length_c                   9.993(2)
_cell_angle_alpha                90
_cell_angle_beta                 93.47(3)
_cell_angle_gamma                90
_cell_volume                     1314.49
loop_
_atom_site_label
_atom_site_type_symbol
_atom_site_fract_x
_atom_site_fract_y
_atom_site_fract_z
S1 S -0.15004(8) 0.11266(4) -0.07812(6)
N1 N 0.02915(18) 0.11306(10) 0.28935(16)
N2 N -0.0121(2) 0.08927(11) 0.15935(16)
H1 H 0.0235 0.0415 0.1269
C1 C 0.1228(2) 0.06157(13) 0.35388(19)
H2 H 0.1574 0.0115 0.3114
N3 N -0.1623(2) 0.21192(12) 0.14109(18)
H3 H -0.1370 0.2193 0.2249
C2 C 0.1328(3) 0.15253(16) 0.5627(2)
H4 H 0.0691 0.1947 0.5206
C3 C 0.2782(2) 0.01920(13) 0.5576(2)
H5 H 0.3120 -0.0293 0.5108
C4 C 0.1773(2) 0.07867(13) 0.49181(19)
C5 C -0.1084(2) 0.14075(13) 0.08270(19)
C6 C 0.3299(2) 0.03031(14) 0.6911(2)
C7 C 0.2793(3) 0.10241(17) 0.7607(2)
C8 C 0.1829(3) 0.16286(18) 0.6946(2)
H6 H 0.1511 0.2120 0.7409
C9 C 0.4415(3) -0.0353(2) 0.7562(3)
H7 H 0.4651 -0.0188 0.8480
H8 H 0.5348 -0.0360 0.7092
H9 H 0.3956 -0.0927 0.7530
C10 C -0.4156(3) 0.2822(2) 0.1272(4)
H10 H -0.4761 0.3265 0.0800
H11 H -0.4065 0.2963 0.2210
H12 H -0.4652 0.2261 0.1149
C11 C -0.2609(3) 0.27866(18) 0.0749(3)
H13 H -0.2711 0.2663 -0.0204
H14 H -0.2119 0.3357 0.0868
C12 C 0.3292(4) 0.1167(3) 0.9069(3)
H15 H 0.2832 0.1698 0.9380
H16 H 0.4397 0.1216 0.9166
H17 H 0.2962 0.0679 0.9589
S1 S 1.15004(8) 0.61266(4) 0.57812(6)
N1 N 0.97085(18) 0.61306(10) 0.21065(16)
N2 N 1.0121(2) 0.58927(11) 0.34065(16)
H1 H 0.9765 0.5415 0.3731
C1 C 0.8772(2) 0.56157(13) 0.14612(19)
H2 H 0.8426 0.5115 0.1886
N3 N 1.1623(2) 0.71192(12) 0.35891(18)
H3 H 1.1370 0.7193 0.2751
C2 C 0.8672(3) 0.65253(16) -0.0627(2)
H4 H 0.9309 0.6947 -0.0206
C3 C 0.7218(2) 0.51920(13) -0.0576(2)
H5 H 0.6880 0.4707 -0.0108
C4 C 0.8227(2) 0.57867(13) 0.00819(19)
C5 C 1.1084(2) 0.64075(13) 0.41730(19)
C6 C 0.6701(2) 0.53031(14) -0.1911(2)
C7 C 0.7207(3) 0.60241(17) -0.2607(2)
C8 C 0.8171(3) 0.66286(18) -0.1946(2)
H6 H 0.8489 0.7120 -0.2409
C9 C 0.5585(3) 0.4647(2) -0.2562(3)
H7 H 0.5349 0.4812 -0.3480
H8 H 0.4652 0.4640 -0.2092
H9 H 0.6044 0.4073 -0.2530
C10 C 1.4156(3) 0.7822(2) 0.3728(4)
H10 H 1.4761 0.8265 0.4200
H11 H 1.4065 0.7963 0.2790
H12 H 1.4652 0.7261 0.3851
C11 C 1.2609(3) 0.77866(18) 0.4251(3)
H13 H 1.2711 0.7663 0.5204
H14 H 1.2119 0.8357 0.4132
C12 C 0.6708(4) 0.6167(3) -0.4069(3)
H15 H 0.7168 0.6698 -0.4380
H16 H 0.5603 0.6216 -0.4166
H17 H 0.7038 0.5679 -0.4589
S1 S 1.15004(8) 0.88734(4) 1.07812(6)
N1 N 0.97085(18) 0.88694(10) 0.71065(16)
N2 N 1.0121(2) 0.91073(11) 0.84065(16)
H1 H 0.9765 0.9585 0.8731
C1 C 0.8772(2) 0.93843(13) 0.64612(19)
H2 H 0.8426 0.9885 0.6886
N3 N 1.1623(2) 0.78808(12) 0.85891(18)
H3 H 1.1370 0.7807 0.7751
C2 C 0.8672(3) 0.84747(16) 0.4373(2)
H4 H 0.9309 0.8053 0.4794
C3 C 0.7218(2) 0.98080(13) 0.4424(2)
H5 H 0.6880 1.0293 0.4892
C4 C 0.8227(2) 0.92133(13) 0.50819(19)
C5 C 1.1084(2) 0.85925(13) 0.91730(19)
C6 C 0.6701(2) 0.96969(14) 0.3089(2)
C7 C 0.7207(3) 0.89759(17) 0.2393(2)
C8 C 0.8171(3) 0.83714(18) 0.3054(2)
H6 H 0.8489 0.7880 0.2591
C9 C 0.5585(3) 1.0353(2) 0.2438(3)
H7 H 0.5349 1.0188 0.1520
H8 H 0.4652 1.0360 0.2908
H9 H 0.6044 1.0927 0.2470
C10 C 1.4156(3) 0.7178(2) 0.8728(4)
H10 H 1.4761 0.6735 0.9200
H11 H 1.4065 0.7037 0.7790
H12 H 1.4652 0.7739 0.8851
C11 C 1.2609(3) 0.72134(18) 0.9251(3)
H13 H 1.2711 0.7337 1.0204
H14 H 1.2119 0.6643 0.9132
C12 C 0.6708(4) 0.8833(3) 0.0931(3)
H15 H 0.7168 0.8302 0.0620
H16 H 0.5603 0.8784 0.0834
H17 H 0.7038 0.9321 0.0411
S1 S -0.15004(8) 0.38734(4) 0.42188(6)
N1 N 0.02915(18) 0.38694(10) 0.78935(16)
N2 N -0.0121(2) 0.41073(11) 0.65935(16)
H1 H 0.0235 0.4585 0.6269
C1 C 0.1228(2) 0.43843(13) 0.85388(19)
H2 H 0.1574 0.4885 0.8114
N3 N -0.1623(2) 0.28808(12) 0.64109(18)
H3 H -0.1370 0.2807 0.7249
C2 C 0.1328(3) 0.34747(16) 1.0627(2)
H4 H 0.0691 0.3053 1.0206
C3 C 0.2782(2) 0.48080(13) 1.0576(2)
H5 H 0.3120 0.5293 1.0108
C4 C 0.1773(2) 0.42133(13) 0.99181(19)
C5 C -0.1084(2) 0.35925(13) 0.58270(19)
C6 C 0.3299(2) 0.46969(14) 1.1911(2)
C7 C 0.2793(3) 0.39759(17) 1.2607(2)
C8 C 0.1829(3) 0.33714(18) 1.1946(2)
H6 H 0.1511 0.2880 1.2409
C9 C 0.4415(3) 0.5353(2) 1.2562(3)
H7 H 0.4651 0.5188 1.3480
H8 H 0.5348 0.5360 1.2092
H9 H 0.3956 0.5927 1.2530
C10 C -0.4156(3) 0.2178(2) 0.6272(4)
H10 H -0.4761 0.1735 0.5800
H11 H -0.4065 0.2037 0.7210
H12 H -0.4652 0.2739 0.6149
C11 C -0.2609(3) 0.22134(18) 0.5749(3)
H13 H -0.2711 0.2337 0.4796
H14 H -0.2119 0.1643 0.5868
C12 C 0.3292(4) 0.3833(3) 1.4069(3)
H15 H 0.2832 0.3302 1.4380
H16 H 0.4397 0.3784 1.4166
H17 H 0.2962 0.4321 1.4589

#END
