./KABNOS_from_xyz.cif_generated_by_CrystalShift
_symmetry_cell_setting triclinic
_symmetry_space_group_name_H-M 'P 1'
loop_
_symmetry_equiv_pos_site_id
_symmetry_equiv_pos_as_xyz
1 x,y,z
_cell_length_a 10.866000
_cell_length_b 7.965400
_cell_length_c 30.620000
_cell_angle_alpha 90.000000
_cell_angle_beta 90.000000
_cell_angle_gamma 90.000000
_cell_volume 2650.223355
loop_
_atom_site_label
_atom_site_type_symbol
_atom_site_fract_x
_atom_site_fract_y
_atom_site_fract_z
N1 N 0.252400 0.270600 0.079060
H2 H 0.208500 0.351800 0.069100
N3 N 0.235700 0.212500 0.121260
C4 C 0.208700 0.157900 0.258490
H5 H 0.264200 0.092100 0.274000
O6 O 0.396750 0.072200 0.064310
C7 C 0.138800 0.264600 0.189440
C8 C 0.116400 0.243600 0.280880
O9 O 0.300400 0.421100 0.001870
C10 C 0.046000 0.347100 0.211900
H11 H -0.010100 0.411200 0.196200
C12 C 0.033700 0.337900 0.256390
H13 H -0.030000 0.394900 0.270200
C14 C 0.339100 0.197400 0.053710
N15 N 0.106800 0.235500 0.325920
C16 C 0.155200 0.295000 0.143170
H17 H 0.107000 0.375100 0.129200
C18 C 0.196800 0.147500 0.351230
C19 C 0.219100 0.168900 0.214140
H20 H 0.281900 0.110500 0.200200
C21 C 0.343600 0.469900 -0.037950
H22 H 0.317500 0.564900 -0.052900
C23 C 0.362500 0.278500 0.012240
C24 C 0.427500 0.364000 -0.052290
H25 H 0.470100 0.370400 -0.078600
C26 C 0.019200 0.339600 0.348590
C27 C 0.440100 0.239000 -0.019970
H28 H 0.492500 0.146700 -0.020900
H29 H 0.025000 0.306000 0.379500
H30 H -0.057000 0.330000 0.336200
H31 H 0.202000 0.030000 0.340500
H32 H 0.038000 0.456000 0.345600
H33 H 0.168000 0.141000 0.380500
H34 H 0.273000 0.198000 0.352000
N35 N 0.247600 0.729400 0.579060
H36 H 0.291500 0.648200 0.569100
N37 N 0.264300 0.787500 0.621260
C38 C 0.291300 0.842100 0.758490
H39 H 0.235800 0.907900 0.774000
O40 O 0.103250 0.927800 0.564310
C41 C 0.361200 0.735400 0.689440
C42 C 0.383600 0.756400 0.780880
O43 O 0.199600 0.578900 0.501870
C44 C 0.454000 0.652900 0.711900
H45 H 0.510100 0.588800 0.696200
C46 C 0.466300 0.662100 0.756390
H47 H 0.530000 0.605100 0.770200
C48 C 0.160900 0.802600 0.553710
N49 N 0.393200 0.764500 0.825920
C50 C 0.344800 0.705000 0.643170
H51 H 0.393000 0.624900 0.629200
C52 C 0.303200 0.852500 0.851230
C53 C 0.280900 0.831100 0.714140
H54 H 0.218100 0.889500 0.700200
C55 C 0.156400 0.530100 0.462050
H56 H 0.182500 0.435100 0.447100
C57 C 0.137500 0.721500 0.512240
C58 C 0.072500 0.636000 0.447710
H59 H 0.029900 0.629600 0.421400
C60 C 0.480800 0.660400 0.848590
C61 C 0.059900 0.761000 0.480030
H62 H 0.007500 0.853300 0.479100
H63 H 0.475000 0.694000 0.879500
H64 H 0.557000 0.670000 0.836200
H65 H 0.298000 0.970000 0.840500
H66 H 0.462000 0.544000 0.845600
H67 H 0.332000 0.859000 0.880500
H68 H 0.227000 0.802000 0.852000
N69 N 0.752400 0.229400 0.920940
H70 H 0.708500 0.148200 0.930900
N71 N 0.735700 0.287500 0.878740
C72 C 0.708700 0.342100 0.741510
H73 H 0.764200 0.407900 0.726000
O74 O 0.896750 0.427800 0.935690
C75 C 0.638800 0.235400 0.810560
C76 C 0.616400 0.256400 0.719120
O77 O 0.800400 0.078900 0.998130
C78 C 0.546000 0.152900 0.788100
H79 H 0.489900 0.088800 0.803800
C80 C 0.533700 0.162100 0.743610
H81 H 0.470000 0.105100 0.729800
C82 C 0.839100 0.302600 0.946290
N83 N 0.606800 0.264500 0.674080
C84 C 0.655200 0.205000 0.856830
H85 H 0.607000 0.124900 0.870800
C86 C 0.696800 0.352500 0.648770
C87 C 0.719100 0.331100 0.785860
H88 H 0.781900 0.389500 0.799800
C89 C 0.843600 0.030100 1.037950
H90 H 0.817500 -0.064900 1.052900
C91 C 0.862500 0.221500 0.987760
C92 C 0.927500 0.136000 1.052290
H93 H 0.970100 0.129600 1.078600
C94 C 0.519200 0.160400 0.651410
C95 C 0.940100 0.261000 1.019970
H96 H 0.992500 0.353300 1.020900
H97 H 0.525000 0.194000 0.620500
H98 H 0.443000 0.170000 0.663800
H99 H 0.702000 0.470000 0.659500
H100 H 0.538000 0.044000 0.654400
H101 H 0.668000 0.359000 0.619500
H102 H 0.773000 0.302000 0.648000
N103 N 0.747600 0.770600 0.420940
H104 H 0.791500 0.851800 0.430900
N105 N 0.764300 0.712500 0.378740
C106 C 0.791300 0.657900 0.241510
H107 H 0.735800 0.592100 0.226000
O108 O 0.603250 0.572200 0.435690
C109 C 0.861200 0.764600 0.310560
C110 C 0.883600 0.743600 0.219120
O111 O 0.699600 0.921100 0.498130
C112 C 0.954000 0.847100 0.288100
H113 H 1.010100 0.911200 0.303800
C114 C 0.966300 0.837900 0.243610
H115 H 1.030000 0.894900 0.229800
C116 C 0.660900 0.697400 0.446290
N117 N 0.893200 0.735500 0.174080
C118 C 0.844800 0.795000 0.356830
H119 H 0.893000 0.875100 0.370800
C120 C 0.803200 0.647500 0.148770
C121 C 0.780900 0.668900 0.285860
H122 H 0.718100 0.610500 0.299800
C123 C 0.656400 0.969900 0.537950
H124 H 0.682500 1.064900 0.552900
C125 C 0.637500 0.778500 0.487760
C126 C 0.572500 0.864000 0.552290
H127 H 0.529900 0.870400 0.578600
C128 C 0.980800 0.839600 0.151410
C129 C 0.559900 0.739000 0.519970
H130 H 0.507500 0.646700 0.520900
H131 H 0.975000 0.806000 0.120500
H132 H 1.057000 0.830000 0.163800
H133 H 0.798000 0.530000 0.159500
H134 H 0.962000 0.956000 0.154400
H135 H 0.832000 0.641000 0.119500
H136 H 0.727000 0.698000 0.148000
N137 N 0.747600 0.729400 0.920940
H138 H 0.791500 0.648200 0.930900
N139 N 0.764300 0.787500 0.878740
C140 C 0.791300 0.842100 0.741510
H141 H 0.735800 0.907900 0.726000
O142 O 0.603250 0.927800 0.935690
C143 C 0.861200 0.735400 0.810560
C144 C 0.883600 0.756400 0.719120
O145 O 0.699600 0.578900 0.998130
C146 C 0.954000 0.652900 0.788100
H147 H 1.010100 0.588800 0.803800
C148 C 0.966300 0.662100 0.743610
H149 H 1.030000 0.605100 0.729800
C150 C 0.660900 0.802600 0.946290
N151 N 0.893200 0.764500 0.674080
C152 C 0.844800 0.705000 0.856830
H153 H 0.893000 0.624900 0.870800
C154 C 0.803200 0.852500 0.648770
C155 C 0.780900 0.831100 0.785860
H156 H 0.718100 0.889500 0.799800
C157 C 0.656400 0.530100 1.037950
H158 H 0.682500 0.435100 1.052900
C159 C 0.637500 0.721500 0.987760
C160 C 0.572500 0.636000 1.052290
H161 H 0.529900 0.629600 1.078600
C162 C 0.980800 0.660400 0.651410
C163 C 0.559900 0.761000 1.019970
H164 H 0.507500 0.853300 1.020900
H165 H 0.975000 0.694000 0.620500
H166 H 1.057000 0.670000 0.663800
H167 H 0.798000 0.970000 0.659500
H168 H 0.962000 0.544000 0.654400
H169 H 0.832000 0.859000 0.619500
H170 H 0.727000 0.802000 0.648000
N171 N 0.752400 0.270600 0.420940
H172 H 0.708500 0.351800 0.430900
N173 N 0.735700 0.212500 0.378740
C174 C 0.708700 0.157900 0.241510
H175 H 0.764200 0.092100 0.226000
O176 O 0.896750 0.072200 0.435690
C177 C 0.638800 0.264600 0.310560
C178 C 0.616400 0.243600 0.219120
O179 O 0.800400 0.421100 0.498130
C180 C 0.546000 0.347100 0.288100
H181 H 0.489900 0.411200 0.303800
C182 C 0.533700 0.337900 0.243610
H183 H 0.470000 0.394900 0.229800
C184 C 0.839100 0.197400 0.446290
N185 N 0.606800 0.235500 0.174080
C186 C 0.655200 0.295000 0.356830
H187 H 0.607000 0.375100 0.370800
C188 C 0.696800 0.147500 0.148770
C189 C 0.719100 0.168900 0.285860
H190 H 0.781900 0.110500 0.299800
C191 C 0.843600 0.469900 0.537950
H192 H 0.817500 0.564900 0.552900
C193 C 0.862500 0.278500 0.487760
C194 C 0.927500 0.364000 0.552290
H195 H 0.970100 0.370400 0.578600
C196 C 0.519200 0.339600 0.151410
C197 C 0.940100 0.239000 0.519970
H198 H 0.992500 0.146700 0.520900
H199 H 0.525000 0.306000 0.120500
H200 H 0.443000 0.330000 0.163800
H201 H 0.702000 0.030000 0.159500
H202 H 0.538000 0.456000 0.154400
H203 H 0.668000 0.141000 0.119500
H204 H 0.773000 0.198000 0.148000
N205 N 0.247600 0.770600 0.079060
H206 H 0.291500 0.851800 0.069100
N207 N 0.264300 0.712500 0.121260
C208 C 0.291300 0.657900 0.258490
H209 H 0.235800 0.592100 0.274000
O210 O 0.103250 0.572200 0.064310
C211 C 0.361200 0.764600 0.189440
C212 C 0.383600 0.743600 0.280880
O213 O 0.199600 0.921100 0.001870
C214 C 0.454000 0.847100 0.211900
H215 H 0.510100 0.911200 0.196200
C216 C 0.466300 0.837900 0.256390
H217 H 0.530000 0.894900 0.270200
C218 C 0.160900 0.697400 0.053710
N219 N 0.393200 0.735500 0.325920
C220 C 0.344800 0.795000 0.143170
H221 H 0.393000 0.875100 0.129200
C222 C 0.303200 0.647500 0.351230
C223 C 0.280900 0.668900 0.214140
H224 H 0.218100 0.610500 0.200200
C225 C 0.156400 0.969900 -0.037950
H226 H 0.182500 1.064900 -0.052900
C227 C 0.137500 0.778500 0.012240
C228 C 0.072500 0.864000 -0.052290
H229 H 0.029900 0.870400 -0.078600
C230 C 0.480800 0.839600 0.348590
C231 C 0.059900 0.739000 -0.019970
H232 H 0.007500 0.646700 -0.020900
H233 H 0.475000 0.806000 0.379500
H234 H 0.557000 0.830000 0.336200
H235 H 0.298000 0.530000 0.340500
H236 H 0.462000 0.956000 0.345600
H237 H 0.332000 0.641000 0.380500
H238 H 0.227000 0.698000 0.352000
N239 N 0.252400 0.229400 0.579060
H240 H 0.208500 0.148200 0.569100
N241 N 0.235700 0.287500 0.621260
C242 C 0.208700 0.342100 0.758490
H243 H 0.264200 0.407900 0.774000
O244 O 0.396750 0.427800 0.564310
C245 C 0.138800 0.235400 0.689440
C246 C 0.116400 0.256400 0.780880
O247 O 0.300400 0.078900 0.501870
C248 C 0.046000 0.152900 0.711900
H249 H -0.010100 0.088800 0.696200
C250 C 0.033700 0.162100 0.756390
H251 H -0.030000 0.105100 0.770200
C252 C 0.339100 0.302600 0.553710
N253 N 0.106800 0.264500 0.825920
C254 C 0.155200 0.205000 0.643170
H255 H 0.107000 0.124900 0.629200
C256 C 0.196800 0.352500 0.851230
C257 C 0.219100 0.331100 0.714140
H258 H 0.281900 0.389500 0.700200
C259 C 0.343600 0.030100 0.462050
H260 H 0.317500 -0.064900 0.447100
C261 C 0.362500 0.221500 0.512240
C262 C 0.427500 0.136000 0.447710
H263 H 0.470100 0.129600 0.421400
C264 C 0.019200 0.160400 0.848590
C265 C 0.440100 0.261000 0.480030
H266 H 0.492500 0.353300 0.479100
H267 H 0.025000 0.194000 0.879500
H268 H -0.057000 0.170000 0.836200
H269 H 0.202000 0.470000 0.840500
H270 H 0.038000 0.044000 0.845600
H271 H 0.168000 0.359000 0.880500
H272 H 0.273000 0.302000 0.852000

#END
