
#######################################################################
#
#                 Cambridge Crystallographic Data Centre
#                                CCDC 
#
#######################################################################
#
# If this CIF has been generated from an entry in the Cambridge 
# Structural Database, then it will include bibliographic, chemical, 
# crystal, experimental, refinement or atomic coordinate data resulting 
# from the CCDC's data processing and validation procedures.
#
#######################################################################

data_KABPIM
_symmetry_cell_setting           monoclinic
_symmetry_space_group_name_H-M   'P 21/c'
_symmetry_Int_Tables_number      14
_space_group_name_Hall           '-P 2ybc'
loop_
_symmetry_equiv_pos_site_id
_symmetry_equiv_pos_as_xyz
1 x,y,z
2 -x,1/2+y,1/2-z
3 -x,-y,-z
4 x,1/2-y,1/2+z
_cell_length_a                   7.9950(5)
_cell_length_b                   7.7168(6)
_cell_length_c                   10.866(1)
_cell_angle_alpha                90
_cell_angle_beta                 103.639(6)
_cell_angle_gamma                90
_cell_volume                     651.482
loop_
_atom_site_label
_atom_site_type_symbol
_atom_site_fract_x
_atom_site_fract_y
_atom_site_fract_z
Cl1 Cl 0.8139(1) 0.1867(1) 0.0576(1)
C1 C 0.6269(3) 0.2850(3) 0.0794(3)
C2 C 0.6383(4) 0.4203(3) 0.1651(2)
C3 C 0.4818(4) 0.4767(4) 0.1848(3)
C4 C 0.3263(4) 0.4297(4) 0.1067(3)
C5 C 0.3222(3) 0.3250(3) 0.0025(3)
C6 C 0.4730(3) 0.2387(3) -0.0015(3)
C7 C 0.7995(4) 0.5268(4) 0.2115(3)
C8 C 0.1747(4) 0.3325(4) -0.1136(4)
H1 H 0.4812(34) 0.5602(37) 0.2411(27)
H2 H 0.2064(32) 0.4823(36) 0.1148(27)
H3 H 0.4725(30) 0.1593(33) -0.0661(25)
H4 H 0.9210(39) 0.4549(45) 0.2314(32)
H5 H 0.8173(43) 0.5853(50) 0.2883(36)
H6 H 0.0468(42) 0.3682(45) -0.0808(33)
H7 H 0.1300(41) 0.2290(50) -0.1593(37)
C8B C 0.8253(4) 0.6675(4) 0.1136(4)
C7B C 0.2005(4) 0.4732(4) -0.2115(3)
C5B C 0.6778(3) 0.6750(3) -0.0025(3)
H6B H 0.9532(42) 0.6318(45) 0.0808(33)
H7B H 0.8700(41) 0.7710(50) 0.1593(37)
C2B C 0.3617(4) 0.5797(3) -0.1651(2)
H4B H 0.0790(39) 0.5451(45) -0.2314(32)
H5B H 0.1827(43) 0.4147(50) -0.2883(36)
C4B C 0.6737(4) 0.5703(4) -0.1067(3)
C6B C 0.5270(3) 0.7613(3) 0.0015(3)
C1B C 0.3731(3) 0.7150(3) -0.0794(3)
C3B C 0.5182(4) 0.5233(4) -0.1848(3)
H2B H 0.7936(32) 0.5177(36) -0.1148(27)
H3B H 0.5275(30) 0.8407(33) 0.0661(25)
Cl1B Cl 0.1861(1) 0.8133(1) -0.0576(1)
H1B H 0.5188(34) 0.4398(37) -0.2411(27)
Cl1 Cl 0.8139(1) 0.1867(1) 1.0576(1)
C1 C 0.6269(3) 0.2850(3) 1.0794(3)
C2 C 0.6383(4) 0.4203(3) 1.1651(2)
C3 C 0.4818(4) 0.4767(4) 1.1848(3)
C4 C 0.3263(4) 0.4297(4) 1.1067(3)
C5 C 0.3222(3) 0.3250(3) 1.0025(3)
C6 C 0.4730(3) 0.2387(3) 0.9985(3)
C7 C 0.7995(4) 0.5268(4) 1.2115(3)
C8 C 0.1747(4) 0.3325(4) 0.8864(4)
H1 H 0.4812(34) 0.5602(37) 1.2411(27)
H2 H 0.2064(32) 0.4823(36) 1.1148(27)
H3 H 0.4725(30) 0.1593(33) 0.9339(25)
H4 H 0.9210(39) 0.4549(45) 1.2314(32)
H5 H 0.8173(43) 0.5853(50) 1.2883(36)
H6 H 0.0468(42) 0.3682(45) 0.9192(33)
H7 H 0.1300(41) 0.2290(50) 0.8407(37)
C8B C 0.8253(4) 0.6675(4) 1.1136(4)
C7B C 0.2005(4) 0.4732(4) 0.7885(3)
C5B C 0.6778(3) 0.6750(3) 0.9975(3)
H6B H 0.9532(42) 0.6318(45) 1.0808(33)
H7B H 0.8700(41) 0.7710(50) 1.1593(37)
C2B C 0.3617(4) 0.5797(3) 0.8349(2)
H4B H 0.0790(39) 0.5451(45) 0.7686(32)
H5B H 0.1827(43) 0.4147(50) 0.7117(36)
C4B C 0.6737(4) 0.5703(4) 0.8933(3)
C6B C 0.5270(3) 0.7613(3) 1.0015(3)
C1B C 0.3731(3) 0.7150(3) 0.9206(3)
C3B C 0.5182(4) 0.5233(4) 0.8152(3)
H2B H 0.7936(32) 0.5177(36) 0.8852(27)
H3B H 0.5275(30) 0.8407(33) 1.0661(25)
Cl1B Cl 0.1861(1) 0.8133(1) 0.9424(1)
H1B H 0.5188(34) 0.4398(37) 0.7589(27)
Cl1 Cl 0.1861(1) -0.3133(1) 0.4424(1)
C1 C 0.3731(3) -0.2150(3) 0.4206(3)
C2 C 0.3617(4) -0.0797(3) 0.3349(2)
C3 C 0.5182(4) -0.0233(4) 0.3152(3)
C4 C 0.6737(4) -0.0703(4) 0.3933(3)
C5 C 0.6778(3) -0.1750(3) 0.4975(3)
C6 C 0.5270(3) -0.2613(3) 0.5015(3)
C7 C 0.2005(4) 0.0268(4) 0.2885(3)
C8 C 0.8253(4) -0.1675(4) 0.6136(4)
H1 H 0.5188(34) 0.0602(37) 0.2589(27)
H2 H 0.7936(32) -0.0177(36) 0.3852(27)
H3 H 0.5275(30) -0.3407(33) 0.5661(25)
H4 H 0.0790(39) -0.0451(45) 0.2686(32)
H5 H 0.1827(43) 0.0853(50) 0.2117(36)
H6 H 0.9532(42) -0.1318(45) 0.5808(33)
H7 H 0.8700(41) -0.2710(50) 0.6593(37)
C8B C 0.1747(4) 0.1675(4) 0.3864(4)
C7B C 0.7995(4) -0.0268(4) 0.7115(3)
C5B C 0.3222(3) 0.1750(3) 0.5025(3)
H6B H 0.0468(42) 0.1318(45) 0.4192(33)
H7B H 0.1300(41) 0.2710(50) 0.3407(37)
C2B C 0.6383(4) 0.0797(3) 0.6651(2)
H4B H 0.9210(39) 0.0451(45) 0.7314(32)
H5B H 0.8173(43) -0.0853(50) 0.7883(36)
C4B C 0.3263(4) 0.0703(4) 0.6067(3)
C6B C 0.4730(3) 0.2613(3) 0.4985(3)
C1B C 0.6269(3) 0.2150(3) 0.5794(3)
C3B C 0.4818(4) 0.0233(4) 0.6848(3)
H2B H 0.2064(32) 0.0177(36) 0.6148(27)
H3B H 0.4725(30) 0.3407(33) 0.4339(25)
Cl1B Cl 0.8139(1) 0.3133(1) 0.5576(1)
H1B H 0.4812(34) -0.0602(37) 0.7411(27)
Cl1 Cl 0.1861(1) 0.6867(1) 0.4424(1)
C1 C 0.3731(3) 0.7850(3) 0.4206(3)
C2 C 0.3617(4) 0.9203(3) 0.3349(2)
C3 C 0.5182(4) 0.9767(4) 0.3152(3)
C4 C 0.6737(4) 0.9297(4) 0.3933(3)
C5 C 0.6778(3) 0.8250(3) 0.4975(3)
C6 C 0.5270(3) 0.7387(3) 0.5015(3)
C7 C 0.2005(4) 1.0268(4) 0.2885(3)
C8 C 0.8253(4) 0.8325(4) 0.6136(4)
H1 H 0.5188(34) 1.0602(37) 0.2589(27)
H2 H 0.7936(32) 0.9823(36) 0.3852(27)
H3 H 0.5275(30) 0.6593(33) 0.5661(25)
H4 H 0.0790(39) 0.9549(45) 0.2686(32)
H5 H 0.1827(43) 1.0853(50) 0.2117(36)
H6 H 0.9532(42) 0.8682(45) 0.5808(33)
H7 H 0.8700(41) 0.7290(50) 0.6593(37)
C8B C 0.1747(4) 1.1675(4) 0.3864(4)
C7B C 0.7995(4) 0.9732(4) 0.7115(3)
C5B C 0.3222(3) 1.1750(3) 0.5025(3)
H6B H 0.0468(42) 1.1318(45) 0.4192(33)
H7B H 0.1300(41) 1.2710(50) 0.3407(37)
C2B C 0.6383(4) 1.0797(3) 0.6651(2)
H4B H 0.9210(39) 1.0451(45) 0.7314(32)
H5B H 0.8173(43) 0.9147(50) 0.7883(36)
C4B C 0.3263(4) 1.0703(4) 0.6067(3)
C6B C 0.4730(3) 1.2613(3) 0.4985(3)
C1B C 0.6269(3) 1.2150(3) 0.5794(3)
C3B C 0.4818(4) 1.0233(4) 0.6848(3)
H2B H 0.2064(32) 1.0177(36) 0.6148(27)
H3B H 0.4725(30) 1.3407(33) 0.4339(25)
Cl1B Cl 0.8139(1) 1.3133(1) 0.5576(1)
H1B H 0.4812(34) 0.9398(37) 0.7411(27)

#END
