
#######################################################################
#
#                 Cambridge Crystallographic Data Centre
#                                CCDC 
#
#######################################################################
#
# If this CIF has been generated from an entry in the Cambridge 
# Structural Database, then it will include bibliographic, chemical, 
# crystal, experimental, refinement or atomic coordinate data resulting 
# from the CCDC's data processing and validation procedures.
#
#######################################################################

data_KABPUA
_symmetry_cell_setting           monoclinic
_symmetry_space_group_name_H-M   'P 21/c'
_symmetry_Int_Tables_number      14
_space_group_name_Hall           '-P 2ybc'
loop_
_symmetry_equiv_pos_site_id
_symmetry_equiv_pos_as_xyz
1 x,y,z
2 -x,1/2+y,1/2-z
3 -x,-y,-z
4 x,1/2-y,1/2+z
_cell_length_a                   10.8650(9)
_cell_length_b                   14.0010(3)
_cell_length_c                   14.3021(6)
_cell_angle_alpha                90
_cell_angle_beta                 94.697(10)
_cell_angle_gamma                90
_cell_volume                     2168.34
loop_
_atom_site_label
_atom_site_type_symbol
_atom_site_fract_x
_atom_site_fract_y
_atom_site_fract_z
C1 C 0.5955(2) 1.02803(16) 0.72770(17)
H1 H 0.5829 1.0873 0.6918
C2 C 0.6751(3) 1.04896(18) 0.8132(2)
N1 N 0.7390(3) 1.0631(2) 0.8783(2)
C3 C 0.4709(2) 0.99280(16) 0.75371(18)
N2 N 0.3903(2) 1.06106(15) 0.76626(19)
H2 H 0.3180 1.0468 0.7825
H3 H 0.4099 1.1198 0.7582
C4 C 0.4486(2) 0.89689(16) 0.76488(18)
C5 C 0.3264(2) 0.86441(16) 0.79292(18)
C6 C 0.2826(3) 0.8932(2) 0.8762(2)
H4 H 0.3314 0.9319 0.9170
C7 C 0.1668(3) 0.8652(2) 0.9000(2)
H5 H 0.1378 0.8861 0.9559
C8 C 0.0960(3) 0.8075(2) 0.8420(2)
H6 H 0.0177 0.7895 0.8573
C9 C 0.1400(3) 0.7755(2) 0.7603(2)
H7 H 0.0925 0.7342 0.7214
C10 C 0.2538(2) 0.80422(18) 0.7358(2)
H8 H 0.2821 0.7827 0.6800
C11 C 0.5411(2) 0.82758(16) 0.74985(17)
O1 O 0.52548(17) 0.74240(11) 0.76898(14)
C12 C 0.6635(2) 0.85569(15) 0.71259(17)
H9 H 0.7250 0.8589 0.7665
C13 C 0.7058(2) 0.77923(16) 0.64729(17)
C14 C 0.6356(3) 0.7563(2) 0.56597(19)
H10 H 0.5624 0.7891 0.5501
C15 C 0.6729(3) 0.6849(2) 0.5073(2)
H11 H 0.6241 0.6695 0.4529
C16 C 0.7804(3) 0.6371(2) 0.5289(2)
H12 H 0.8055 0.5896 0.4891
C17 C 0.8507(3) 0.6590(2) 0.6084(2)
H13 H 0.9244 0.6265 0.6233
C18 C 0.8136(2) 0.72927(18) 0.6676(2)
H14 H 0.8624 0.7431 0.7224
C19 C 0.6585(2) 0.95467(15) 0.66641(16)
H15 H 0.6058 0.9486 0.6078
C20 C 0.7812(2) 0.99408(16) 0.64069(17)
C21 C 0.8914(2) 0.97372(18) 0.69160(19)
H16 H 0.8909 0.9311 0.7414
C22 C 1.0019(3) 1.01363(19) 0.6720(2)
H17 H 1.0744 0.9980 0.7078
C23 C 1.0039(2) 1.07653(18) 0.5992(2)
C24 C 0.8972(3) 1.09852(19) 0.54492(19)
H18 H 0.8988 1.1407 0.4948
C25 C 0.7879(2) 1.05682(18) 0.56630(18)
Cl1 Cl 1.14075(7) 1.13127(6) 0.57487(7)
Cl2 Cl 0.65648(8) 1.08729(7) 0.49620(6)
C1 C 0.4045(2) 0.52803(16) 0.77230(17)
H1 H 0.4171 0.5873 0.8082
C2 C 0.3249(3) 0.54896(18) 0.6868(2)
N1 N 0.2610(3) 0.5631(2) 0.6217(2)
C3 C 0.5291(2) 0.49280(16) 0.74629(18)
N2 N 0.6097(2) 0.56106(15) 0.73374(19)
H2 H 0.6820 0.5468 0.7175
H3 H 0.5901 0.6198 0.7418
C4 C 0.5514(2) 0.39689(16) 0.73512(18)
C5 C 0.6736(2) 0.36441(16) 0.70708(18)
C6 C 0.7174(3) 0.3932(2) 0.6238(2)
H4 H 0.6686 0.4319 0.5830
C7 C 0.8332(3) 0.3652(2) 0.6000(2)
H5 H 0.8622 0.3861 0.5441
C8 C 0.9040(3) 0.3075(2) 0.6580(2)
H6 H 0.9823 0.2895 0.6427
C9 C 0.8600(3) 0.2755(2) 0.7397(2)
H7 H 0.9075 0.2342 0.7786
C10 C 0.7462(2) 0.30422(18) 0.7642(2)
H8 H 0.7179 0.2827 0.8200
C11 C 0.4589(2) 0.32758(16) 0.75015(17)
O1 O 0.47452(17) 0.24240(11) 0.73102(14)
C12 C 0.3365(2) 0.35569(15) 0.78741(17)
H9 H 0.2750 0.3589 0.7335
C13 C 0.2942(2) 0.27923(16) 0.85271(17)
C14 C 0.3644(3) 0.2563(2) 0.93403(19)
H10 H 0.4376 0.2891 0.9499
C15 C 0.3271(3) 0.1849(2) 0.9927(2)
H11 H 0.3759 0.1695 1.0471
C16 C 0.2196(3) 0.1371(2) 0.9711(2)
H12 H 0.1945 0.0896 1.0109
C17 C 0.1493(3) 0.1590(2) 0.8916(2)
H13 H 0.0756 0.1265 0.8767
C18 C 0.1864(2) 0.22927(18) 0.8324(2)
H14 H 0.1376 0.2431 0.7776
C19 C 0.3415(2) 0.45467(15) 0.83359(16)
H15 H 0.3942 0.4486 0.8922
C20 C 0.2188(2) 0.49408(16) 0.85931(17)
C21 C 0.1086(2) 0.47372(18) 0.80840(19)
H16 H 0.1091 0.4311 0.7586
C22 C -0.0019(3) 0.51363(19) 0.8280(2)
H17 H -0.0744 0.4980 0.7922
C23 C -0.0039(2) 0.57653(18) 0.9008(2)
C24 C 0.1028(3) 0.59852(19) 0.95508(19)
H18 H 0.1012 0.6407 1.0052
C25 C 0.2121(2) 0.55682(18) 0.93370(18)
Cl1 Cl -0.14075(7) 0.63127(6) 0.92513(7)
Cl2 Cl 0.34352(8) 0.58729(7) 1.00380(6)
C1 C 0.4045(2) -0.02803(16) 0.27230(17)
H1 H 0.4171 -0.0873 0.3082
C2 C 0.3249(3) -0.04896(18) 0.1868(2)
N1 N 0.2610(3) -0.0631(2) 0.1217(2)
C3 C 0.5291(2) 0.00720(16) 0.24629(18)
N2 N 0.6097(2) -0.06106(15) 0.23374(19)
H2 H 0.6820 -0.0468 0.2175
H3 H 0.5901 -0.1198 0.2418
C4 C 0.5514(2) 0.10311(16) 0.23512(18)
C5 C 0.6736(2) 0.13559(16) 0.20708(18)
C6 C 0.7174(3) 0.1068(2) 0.1238(2)
H4 H 0.6686 0.0681 0.0830
C7 C 0.8332(3) 0.1348(2) 0.1000(2)
H5 H 0.8622 0.1139 0.0441
C8 C 0.9040(3) 0.1925(2) 0.1580(2)
H6 H 0.9823 0.2105 0.1427
C9 C 0.8600(3) 0.2245(2) 0.2397(2)
H7 H 0.9075 0.2658 0.2786
C10 C 0.7462(2) 0.19578(18) 0.2642(2)
H8 H 0.7179 0.2173 0.3200
C11 C 0.4589(2) 0.17242(16) 0.25015(17)
O1 O 0.47452(17) 0.25760(11) 0.23102(14)
C12 C 0.3365(2) 0.14431(15) 0.28741(17)
H9 H 0.2750 0.1411 0.2335
C13 C 0.2942(2) 0.22077(16) 0.35271(17)
C14 C 0.3644(3) 0.2437(2) 0.43403(19)
H10 H 0.4376 0.2109 0.4499
C15 C 0.3271(3) 0.3151(2) 0.4927(2)
H11 H 0.3759 0.3305 0.5471
C16 C 0.2196(3) 0.3629(2) 0.4711(2)
H12 H 0.1945 0.4104 0.5109
C17 C 0.1493(3) 0.3410(2) 0.3916(2)
H13 H 0.0756 0.3735 0.3767
C18 C 0.1864(2) 0.27073(18) 0.3324(2)
H14 H 0.1376 0.2569 0.2776
C19 C 0.3415(2) 0.04533(15) 0.33359(16)
H15 H 0.3942 0.0514 0.3922
C20 C 0.2188(2) 0.00592(16) 0.35931(17)
C21 C 0.1086(2) 0.02628(18) 0.30840(19)
H16 H 0.1091 0.0689 0.2586
C22 C -0.0019(3) -0.01363(19) 0.3280(2)
H17 H -0.0744 0.0020 0.2922
C23 C -0.0039(2) -0.07653(18) 0.4008(2)
C24 C 0.1028(3) -0.09852(19) 0.45508(19)
H18 H 0.1012 -0.1407 0.5052
C25 C 0.2121(2) -0.05682(18) 0.43370(18)
Cl1 Cl -0.14075(7) -0.13127(6) 0.42513(7)
Cl2 Cl 0.34352(8) -0.08729(7) 0.50380(6)
C1 C 0.5955(2) 0.47197(16) 0.22770(17)
H1 H 0.5829 0.4127 0.1918
C2 C 0.6751(3) 0.45104(18) 0.3132(2)
N1 N 0.7390(3) 0.4369(2) 0.3783(2)
C3 C 0.4709(2) 0.50720(16) 0.25371(18)
N2 N 0.3903(2) 0.43894(15) 0.26626(19)
H2 H 0.3180 0.4532 0.2825
H3 H 0.4099 0.3802 0.2582
C4 C 0.4486(2) 0.60311(16) 0.26488(18)
C5 C 0.3264(2) 0.63559(16) 0.29292(18)
C6 C 0.2826(3) 0.6068(2) 0.3762(2)
H4 H 0.3314 0.5681 0.4170
C7 C 0.1668(3) 0.6348(2) 0.4000(2)
H5 H 0.1378 0.6139 0.4559
C8 C 0.0960(3) 0.6925(2) 0.3420(2)
H6 H 0.0177 0.7105 0.3573
C9 C 0.1400(3) 0.7245(2) 0.2603(2)
H7 H 0.0925 0.7658 0.2214
C10 C 0.2538(2) 0.69578(18) 0.2358(2)
H8 H 0.2821 0.7173 0.1800
C11 C 0.5411(2) 0.67242(16) 0.24985(17)
O1 O 0.52548(17) 0.75760(11) 0.26898(14)
C12 C 0.6635(2) 0.64431(15) 0.21259(17)
H9 H 0.7250 0.6411 0.2665
C13 C 0.7058(2) 0.72077(16) 0.14729(17)
C14 C 0.6356(3) 0.7437(2) 0.06597(19)
H10 H 0.5624 0.7109 0.0501
C15 C 0.6729(3) 0.8151(2) 0.0073(2)
H11 H 0.6241 0.8305 -0.0471
C16 C 0.7804(3) 0.8629(2) 0.0289(2)
H12 H 0.8055 0.9104 -0.0109
C17 C 0.8507(3) 0.8410(2) 0.1084(2)
H13 H 0.9244 0.8735 0.1233
C18 C 0.8136(2) 0.77073(18) 0.1676(2)
H14 H 0.8624 0.7569 0.2224
C19 C 0.6585(2) 0.54533(15) 0.16641(16)
H15 H 0.6058 0.5514 0.1078
C20 C 0.7812(2) 0.50592(16) 0.14069(17)
C21 C 0.8914(2) 0.52628(18) 0.19160(19)
H16 H 0.8909 0.5689 0.2414
C22 C 1.0019(3) 0.48637(19) 0.1720(2)
H17 H 1.0744 0.5020 0.2078
C23 C 1.0039(2) 0.42347(18) 0.0992(2)
C24 C 0.8972(3) 0.40148(19) 0.04492(19)
H18 H 0.8988 0.3593 -0.0052
C25 C 0.7879(2) 0.44318(18) 0.06630(18)
Cl1 Cl 1.14075(7) 0.36873(6) 0.07487(7)
Cl2 Cl 0.65648(8) 0.41271(7) -0.00380(6)

#END
