
#######################################################################
#
#                 Cambridge Crystallographic Data Centre
#                                CCDC 
#
#######################################################################
#
# If this CIF has been generated from an entry in the Cambridge 
# Structural Database, then it will include bibliographic, chemical, 
# crystal, experimental, refinement or atomic coordinate data resulting 
# from the CCDC's data processing and validation procedures.
#
#######################################################################

data_KABPAG
_symmetry_cell_setting           monoclinic
_symmetry_space_group_name_H-M   'P 21/c'
_symmetry_Int_Tables_number      14
_space_group_name_Hall           '-P 2ybc'
loop_
_symmetry_equiv_pos_site_id
_symmetry_equiv_pos_as_xyz
1 x,y,z
2 -x,1/2+y,1/2-z
3 -x,-y,-z
4 x,1/2-y,1/2+z
_cell_length_a                   15.356(2)
_cell_length_b                   14.035(2)
_cell_length_c                   6.1124(6)
_cell_angle_alpha                90
_cell_angle_beta                 95.2440(10)
_cell_angle_gamma                90
_cell_volume                     1311.84
loop_
_atom_site_label
_atom_site_type_symbol
_atom_site_fract_x
_atom_site_fract_y
_atom_site_fract_z
Cl1 Cl 0.26367(8) 0.34104(10) 0.2064(3)
N1 N 0.6685(2) 0.3635(2) 0.1036(6)
O1 O 0.5752(2) 0.4086(3) -0.2569(6)
N2 N 0.9958(2) 0.4344(2) 0.8002(6)
O2 O 1.0777(2) 0.4341(2) 0.9205(7)
C1 C 0.5046(3) 0.3912(3) -0.1470(8)
C2 C 0.4222(3) 0.4095(3) -0.2484(8)
H1 H 0.4164 0.4333 -0.3910
C3 C 0.3485(3) 0.3930(3) -0.1418(9)
H2 H 0.2933 0.4051 -0.2124
C4 C 0.3566(3) 0.3589(3) 0.0678(9)
C5 C 0.4378(3) 0.3407(3) 0.1758(8)
H3 H 0.4424 0.3178 0.3192
C6 C 0.5131(3) 0.3569(3) 0.0687(7)
C7 C 0.5974(3) 0.3471(3) 0.1921(7)
H4 H 0.6002 0.3285 0.3386
C8 C 0.7485(2) 0.3677(3) 0.2391(7)
C9 C 0.8234(3) 0.3372(3) 0.1531(7)
H5 H 0.8206 0.3124 0.0116
C10 C 0.9030(3) 0.3438(3) 0.2787(8)
H6 H 0.9531 0.3219 0.2201
C11 C 0.9104(2) 0.3813(3) 0.4848(7)
C12 C 0.8338(2) 0.4151(3) 0.5670(7)
H7 H 0.8368 0.4427 0.7058
C13 C 0.7546(3) 0.4079(3) 0.4454(7)
H8 H 0.7044 0.4304 0.5027
C14 C 0.9956(3) 0.3880(3) 0.6196(8)
C15 C 1.0748(3) 0.3417(3) 0.5426(9)
H9 H 1.1216 0.3436 0.6580
H10 H 1.0921 0.3752 0.4165
H11 H 1.0616 0.2767 0.5037
H12 H 0.619(3) 0.395(4) -0.166(8)
H13 H 1.076(4) 0.471(4) 1.031(8)
Cl1 Cl 0.73633(8) 0.84104(10) 0.2936(3)
N1 N 0.3315(2) 0.8635(2) 0.3964(6)
O1 O 0.4248(2) 0.9086(3) 0.7569(6)
N2 N 0.0042(2) 0.9344(2) -0.3002(6)
O2 O -0.0777(2) 0.9341(2) -0.4205(7)
C1 C 0.4954(3) 0.8912(3) 0.6470(8)
C2 C 0.5778(3) 0.9095(3) 0.7484(8)
H1 H 0.5836 0.9333 0.8910
C3 C 0.6515(3) 0.8930(3) 0.6418(9)
H2 H 0.7067 0.9051 0.7124
C4 C 0.6434(3) 0.8589(3) 0.4322(9)
C5 C 0.5622(3) 0.8407(3) 0.3242(8)
H3 H 0.5576 0.8178 0.1808
C6 C 0.4869(3) 0.8569(3) 0.4313(7)
C7 C 0.4026(3) 0.8471(3) 0.3079(7)
H4 H 0.3998 0.8285 0.1614
C8 C 0.2515(2) 0.8677(3) 0.2609(7)
C9 C 0.1766(3) 0.8372(3) 0.3469(7)
H5 H 0.1794 0.8124 0.4884
C10 C 0.0970(3) 0.8438(3) 0.2213(8)
H6 H 0.0469 0.8219 0.2799
C11 C 0.0896(2) 0.8813(3) 0.0152(7)
C12 C 0.1662(2) 0.9151(3) -0.0670(7)
H7 H 0.1632 0.9427 -0.2058
C13 C 0.2454(3) 0.9079(3) 0.0546(7)
H8 H 0.2956 0.9304 -0.0027
C14 C 0.0044(3) 0.8880(3) -0.1196(8)
C15 C -0.0748(3) 0.8417(3) -0.0426(9)
H9 H -0.1216 0.8436 -0.1580
H10 H -0.0921 0.8752 0.0835
H11 H -0.0616 0.7767 -0.0037
H12 H 0.381(3) 0.895(4) 0.666(8)
H13 H -0.076(4) 0.971(4) -0.531(8)
Cl1 Cl 0.73633(8) 0.65896(10) 0.7936(3)
N1 N 0.3315(2) 0.6365(2) 0.8964(6)
O1 O 0.4248(2) 0.5914(3) 1.2569(6)
N2 N 0.0042(2) 0.5656(2) 0.1998(6)
O2 O -0.0777(2) 0.5659(2) 0.0795(7)
C1 C 0.4954(3) 0.6088(3) 1.1470(8)
C2 C 0.5778(3) 0.5905(3) 1.2484(8)
H1 H 0.5836 0.5667 1.3910
C3 C 0.6515(3) 0.6070(3) 1.1418(9)
H2 H 0.7067 0.5949 1.2124
C4 C 0.6434(3) 0.6411(3) 0.9322(9)
C5 C 0.5622(3) 0.6593(3) 0.8242(8)
H3 H 0.5576 0.6822 0.6808
C6 C 0.4869(3) 0.6431(3) 0.9313(7)
C7 C 0.4026(3) 0.6529(3) 0.8079(7)
H4 H 0.3998 0.6715 0.6614
C8 C 0.2515(2) 0.6323(3) 0.7609(7)
C9 C 0.1766(3) 0.6628(3) 0.8469(7)
H5 H 0.1794 0.6876 0.9884
C10 C 0.0970(3) 0.6562(3) 0.7213(8)
H6 H 0.0469 0.6781 0.7799
C11 C 0.0896(2) 0.6187(3) 0.5152(7)
C12 C 0.1662(2) 0.5849(3) 0.4330(7)
H7 H 0.1632 0.5573 0.2942
C13 C 0.2454(3) 0.5921(3) 0.5546(7)
H8 H 0.2956 0.5696 0.4973
C14 C 0.0044(3) 0.6120(3) 0.3804(8)
C15 C -0.0748(3) 0.6583(3) 0.4574(9)
H9 H -0.1216 0.6564 0.3420
H10 H -0.0921 0.6248 0.5835
H11 H -0.0616 0.7233 0.4963
H12 H 0.381(3) 0.605(4) 1.166(8)
H13 H -0.076(4) 0.529(4) -0.031(8)
Cl1 Cl 0.26367(8) 0.15896(10) 0.7064(3)
N1 N 0.6685(2) 0.1365(2) 0.6036(6)
O1 O 0.5752(2) 0.0914(3) 0.2431(6)
N2 N 0.9958(2) 0.0656(2) 1.3002(6)
O2 O 1.0777(2) 0.0659(2) 1.4205(7)
C1 C 0.5046(3) 0.1088(3) 0.3530(8)
C2 C 0.4222(3) 0.0905(3) 0.2516(8)
H1 H 0.4164 0.0667 0.1090
C3 C 0.3485(3) 0.1070(3) 0.3582(9)
H2 H 0.2933 0.0949 0.2876
C4 C 0.3566(3) 0.1411(3) 0.5678(9)
C5 C 0.4378(3) 0.1593(3) 0.6758(8)
H3 H 0.4424 0.1822 0.8192
C6 C 0.5131(3) 0.1431(3) 0.5687(7)
C7 C 0.5974(3) 0.1529(3) 0.6921(7)
H4 H 0.6002 0.1715 0.8386
C8 C 0.7485(2) 0.1323(3) 0.7391(7)
C9 C 0.8234(3) 0.1628(3) 0.6531(7)
H5 H 0.8206 0.1876 0.5116
C10 C 0.9030(3) 0.1562(3) 0.7787(8)
H6 H 0.9531 0.1781 0.7201
C11 C 0.9104(2) 0.1187(3) 0.9848(7)
C12 C 0.8338(2) 0.0849(3) 1.0670(7)
H7 H 0.8368 0.0573 1.2058
C13 C 0.7546(3) 0.0921(3) 0.9454(7)
H8 H 0.7044 0.0696 1.0027
C14 C 0.9956(3) 0.1120(3) 1.1196(8)
C15 C 1.0748(3) 0.1583(3) 1.0426(9)
H9 H 1.1216 0.1564 1.1580
H10 H 1.0921 0.1248 0.9165
H11 H 1.0616 0.2233 1.0037
H12 H 0.619(3) 0.105(4) 0.334(8)
H13 H 1.076(4) 0.029(4) 1.531(8)

#END
