./KABPIM_from_xyz.cif_generated_by_CrystalShift
_symmetry_cell_setting triclinic
_symmetry_space_group_name_H-M 'P 1'
loop_
_symmetry_equiv_pos_site_id
_symmetry_equiv_pos_as_xyz
1 x,y,z
_cell_length_a 7.995000
_cell_length_b 7.716800
_cell_length_c 10.866000
_cell_angle_alpha 90.000000
_cell_angle_beta 103.639000
_cell_angle_gamma 90.000000
_cell_volume 651.482337
loop_
_atom_site_label
_atom_site_type_symbol
_atom_site_fract_x
_atom_site_fract_y
_atom_site_fract_z
Cl1 Cl 0.813900 0.186700 0.057600
C2 C 0.626900 0.285000 0.079400
C3 C 0.638300 0.420300 0.165100
C4 C 0.481800 0.476700 0.184800
C5 C 0.326300 0.429700 0.106700
C6 C 0.322200 0.325000 0.002500
C7 C 0.473000 0.238700 -0.001500
C8 C 0.799500 0.526800 0.211500
C9 C 0.174700 0.332500 -0.113600
H10 H 0.481200 0.560200 0.241100
H11 H 0.206400 0.482300 0.114800
H12 H 0.472500 0.159300 -0.066100
H13 H 0.921000 0.454900 0.231400
H14 H 0.817300 0.585300 0.288300
H15 H 0.046800 0.368200 -0.080800
H16 H 0.130000 0.229000 -0.159300
C17 C 0.825300 0.667500 0.113600
C18 C 0.200500 0.473200 -0.211500
C19 C 0.677800 0.675000 -0.002500
H20 H 0.953200 0.631800 0.080800
H21 H 0.870000 0.771000 0.159300
C22 C 0.361700 0.579700 -0.165100
H23 H 0.079000 0.545100 -0.231400
H24 H 0.182700 0.414700 -0.288300
C25 C 0.673700 0.570300 -0.106700
C26 C 0.527000 0.761300 0.001500
C27 C 0.373100 0.715000 -0.079400
C28 C 0.518200 0.523300 -0.184800
H29 H 0.793600 0.517700 -0.114800
H30 H 0.527500 0.840700 0.066100
Cl31 Cl 0.186100 0.813300 -0.057600
H32 H 0.518800 0.439800 -0.241100
Cl33 Cl 0.813900 0.186700 1.057600
C34 C 0.626900 0.285000 1.079400
C35 C 0.638300 0.420300 1.165100
C36 C 0.481800 0.476700 1.184800
C37 C 0.326300 0.429700 1.106700
C38 C 0.322200 0.325000 1.002500
C39 C 0.473000 0.238700 0.998500
C40 C 0.799500 0.526800 1.211500
C41 C 0.174700 0.332500 0.886400
H42 H 0.481200 0.560200 1.241100
H43 H 0.206400 0.482300 1.114800
H44 H 0.472500 0.159300 0.933900
H45 H 0.921000 0.454900 1.231400
H46 H 0.817300 0.585300 1.288300
H47 H 0.046800 0.368200 0.919200
H48 H 0.130000 0.229000 0.840700
C49 C 0.825300 0.667500 1.113600
C50 C 0.200500 0.473200 0.788500
C51 C 0.677800 0.675000 0.997500
H52 H 0.953200 0.631800 1.080800
H53 H 0.870000 0.771000 1.159300
C54 C 0.361700 0.579700 0.834900
H55 H 0.079000 0.545100 0.768600
H56 H 0.182700 0.414700 0.711700
C57 C 0.673700 0.570300 0.893300
C58 C 0.527000 0.761300 1.001500
C59 C 0.373100 0.715000 0.920600
C60 C 0.518200 0.523300 0.815200
H61 H 0.793600 0.517700 0.885200
H62 H 0.527500 0.840700 1.066100
Cl63 Cl 0.186100 0.813300 0.942400
H64 H 0.518800 0.439800 0.758900
Cl65 Cl 0.186100 -0.313300 0.442400
C66 C 0.373100 -0.215000 0.420600
C67 C 0.361700 -0.079700 0.334900
C68 C 0.518200 -0.023300 0.315200
C69 C 0.673700 -0.070300 0.393300
C70 C 0.677800 -0.175000 0.497500
C71 C 0.527000 -0.261300 0.501500
C72 C 0.200500 0.026800 0.288500
C73 C 0.825300 -0.167500 0.613600
H74 H 0.518800 0.060200 0.258900
H75 H 0.793600 -0.017700 0.385200
H76 H 0.527500 -0.340700 0.566100
H77 H 0.079000 -0.045100 0.268600
H78 H 0.182700 0.085300 0.211700
H79 H 0.953200 -0.131800 0.580800
H80 H 0.870000 -0.271000 0.659300
C81 C 0.174700 0.167500 0.386400
C82 C 0.799500 -0.026800 0.711500
C83 C 0.322200 0.175000 0.502500
H84 H 0.046800 0.131800 0.419200
H85 H 0.130000 0.271000 0.340700
C86 C 0.638300 0.079700 0.665100
H87 H 0.921000 0.045100 0.731400
H88 H 0.817300 -0.085300 0.788300
C89 C 0.326300 0.070300 0.606700
C90 C 0.473000 0.261300 0.498500
C91 C 0.626900 0.215000 0.579400
C92 C 0.481800 0.023300 0.684800
H93 H 0.206400 0.017700 0.614800
H94 H 0.472500 0.340700 0.433900
Cl95 Cl 0.813900 0.313300 0.557600
H96 H 0.481200 -0.060200 0.741100
Cl97 Cl 0.186100 0.686700 0.442400
C98 C 0.373100 0.785000 0.420600
C99 C 0.361700 0.920300 0.334900
C100 C 0.518200 0.976700 0.315200
C101 C 0.673700 0.929700 0.393300
C102 C 0.677800 0.825000 0.497500
C103 C 0.527000 0.738700 0.501500
C104 C 0.200500 1.026800 0.288500
C105 C 0.825300 0.832500 0.613600
H106 H 0.518800 1.060200 0.258900
H107 H 0.793600 0.982300 0.385200
H108 H 0.527500 0.659300 0.566100
H109 H 0.079000 0.954900 0.268600
H110 H 0.182700 1.085300 0.211700
H111 H 0.953200 0.868200 0.580800
H112 H 0.870000 0.729000 0.659300
C113 C 0.174700 1.167500 0.386400
C114 C 0.799500 0.973200 0.711500
C115 C 0.322200 1.175000 0.502500
H116 H 0.046800 1.131800 0.419200
H117 H 0.130000 1.271000 0.340700
C118 C 0.638300 1.079700 0.665100
H119 H 0.921000 1.045100 0.731400
H120 H 0.817300 0.914700 0.788300
C121 C 0.326300 1.070300 0.606700
C122 C 0.473000 1.261300 0.498500
C123 C 0.626900 1.215000 0.579400
C124 C 0.481800 1.023300 0.684800
H125 H 0.206400 1.017700 0.614800
H126 H 0.472500 1.340700 0.433900
Cl127 Cl 0.813900 1.313300 0.557600
H128 H 0.481200 0.939800 0.741100

#END
