./KABQUC_from_xyz.cif_generated_by_CrystalShift
_symmetry_cell_setting triclinic
_symmetry_space_group_name_H-M 'P 1'
loop_
_symmetry_equiv_pos_site_id
_symmetry_equiv_pos_as_xyz
1 x,y,z
_cell_length_a 12.584700
_cell_length_b 5.499100
_cell_length_c 20.513000
_cell_angle_alpha 90.000000
_cell_angle_beta 90.881000
_cell_angle_gamma 90.000000
_cell_volume 1419.424575
loop_
_atom_site_label
_atom_site_type_symbol
_atom_site_fract_x
_atom_site_fract_y
_atom_site_fract_z
Br1 Br 0.981258 0.768560 0.189865
N2 N 0.812870 0.298600 0.475390
C3 C 0.897130 -0.135800 0.564350
H4 H 0.936400 -0.134100 0.525200
C5 C 0.917860 -0.308400 0.611990
H6 H 0.971100 -0.427700 0.605200
C7 C 0.861040 -0.308600 0.670030
H8 H 0.877100 -0.426300 0.702600
C9 C 0.781670 -0.139300 0.680570
H10 H 0.743100 -0.140700 0.720000
C11 C 0.759120 0.033600 0.632410
C12 C 0.817760 0.035300 0.574920
C13 C 0.675060 0.229400 0.630730
H14 H 0.602900 0.158800 0.633400
H15 H 0.685700 0.347100 0.666800
C16 C 0.776910 0.234000 0.533670
C17 C 0.692180 0.347600 0.565410
C18 C 0.640510 0.536900 0.533920
H19 H 0.581800 0.615500 0.553500
C20 C 0.676010 0.610600 0.472960
C21 C 0.763150 0.488000 0.446150
C22 C 0.619920 0.814000 0.436670
H23 H 0.552100 0.849100 0.457600
H24 H 0.606700 0.764700 0.391400
H25 H 0.664600 0.960000 0.437600
C26 C 0.809090 0.563000 0.382550
C27 C 0.863570 0.782700 0.376840
H28 H 0.865200 0.893200 0.412400
C29 C 0.915250 0.841600 0.319850
H30 H 0.954200 0.989000 0.316700
C31 C 0.909370 0.682500 0.267550
C32 C 0.854480 0.465000 0.270600
H33 H 0.850400 0.358900 0.234100
C34 C 0.805240 0.406600 0.329170
H35 H 0.768300 0.256600 0.332600
Br36 Br 0.518742 1.268560 0.310135
N37 N 0.687130 0.798600 0.024610
C38 C 0.602870 0.364200 -0.064350
H39 H 0.563600 0.365900 -0.025200
C40 C 0.582140 0.191600 -0.111990
H41 H 0.528900 0.072300 -0.105200
C42 C 0.638960 0.191400 -0.170030
H43 H 0.622900 0.073700 -0.202600
C44 C 0.718330 0.360700 -0.180570
H45 H 0.756900 0.359300 -0.220000
C46 C 0.740880 0.533600 -0.132410
C47 C 0.682240 0.535300 -0.074920
C48 C 0.824940 0.729400 -0.130730
H49 H 0.897100 0.658800 -0.133400
H50 H 0.814300 0.847100 -0.166800
C51 C 0.723090 0.734000 -0.033670
C52 C 0.807820 0.847600 -0.065410
C53 C 0.859490 1.036900 -0.033920
H54 H 0.918200 1.115500 -0.053500
C55 C 0.823990 1.110600 0.027040
C56 C 0.736850 0.988000 0.053850
C57 C 0.880080 1.314000 0.063330
H58 H 0.947900 1.349100 0.042400
H59 H 0.893300 1.264700 0.108600
H60 H 0.835400 1.460000 0.062400
C61 C 0.690910 1.063000 0.117450
C62 C 0.636430 1.282700 0.123160
H63 H 0.634800 1.393200 0.087600
C64 C 0.584750 1.341600 0.180150
H65 H 0.545800 1.489000 0.183300
C66 C 0.590630 1.182500 0.232450
C67 C 0.645520 0.965000 0.229400
H68 H 0.649600 0.858900 0.265900
C69 C 0.694760 0.906600 0.170830
H70 H 0.731700 0.756600 0.167400
Br71 Br 0.018742 0.231440 0.810135
N72 N 0.187130 0.701400 0.524610
C73 C 0.102870 1.135800 0.435650
H74 H 0.063600 1.134100 0.474800
C75 C 0.082140 1.308400 0.388010
H76 H 0.028900 1.427700 0.394800
C77 C 0.138960 1.308600 0.329970
H78 H 0.122900 1.426300 0.297400
C79 C 0.218330 1.139300 0.319430
H80 H 0.256900 1.140700 0.280000
C81 C 0.240880 0.966400 0.367590
C82 C 0.182240 0.964700 0.425080
C83 C 0.324940 0.770600 0.369270
H84 H 0.397100 0.841200 0.366600
H85 H 0.314300 0.652900 0.333200
C86 C 0.223090 0.766000 0.466330
C87 C 0.307820 0.652400 0.434590
C88 C 0.359490 0.463100 0.466080
H89 H 0.418200 0.384500 0.446500
C90 C 0.323990 0.389400 0.527040
C91 C 0.236850 0.512000 0.553850
C92 C 0.380080 0.186000 0.563330
H93 H 0.447900 0.150900 0.542400
H94 H 0.393300 0.235300 0.608600
H95 H 0.335400 0.040000 0.562400
C96 C 0.190910 0.437000 0.617450
C97 C 0.136430 0.217300 0.623160
H98 H 0.134800 0.106800 0.587600
C99 C 0.084750 0.158400 0.680150
H100 H 0.045800 0.011000 0.683300
C101 C 0.090630 0.317500 0.732450
C102 C 0.145520 0.535000 0.729400
H103 H 0.149600 0.641100 0.765900
C104 C 0.194760 0.593400 0.670830
H105 H 0.231700 0.743400 0.667400
Br106 Br 0.481258 -0.268560 0.689865
N107 N 0.312870 0.201400 0.975390
C108 C 0.397130 0.635800 1.064350
H109 H 0.436400 0.634100 1.025200
C110 C 0.417860 0.808400 1.111990
H111 H 0.471100 0.927700 1.105200
C112 C 0.361040 0.808600 1.170030
H113 H 0.377100 0.926300 1.202600
C114 C 0.281670 0.639300 1.180570
H115 H 0.243100 0.640700 1.220000
C116 C 0.259120 0.466400 1.132410
C117 C 0.317760 0.464700 1.074920
C118 C 0.175060 0.270600 1.130730
H119 H 0.102900 0.341200 1.133400
H120 H 0.185700 0.152900 1.166800
C121 C 0.276910 0.266000 1.033670
C122 C 0.192180 0.152400 1.065410
C123 C 0.140510 -0.036900 1.033920
H124 H 0.081800 -0.115500 1.053500
C125 C 0.176010 -0.110600 0.972960
C126 C 0.263150 0.012000 0.946150
C127 C 0.119920 -0.314000 0.936670
H128 H 0.052100 -0.349100 0.957600
H129 H 0.106700 -0.264700 0.891400
H130 H 0.164600 -0.460000 0.937600
C131 C 0.309090 -0.063000 0.882550
C132 C 0.363570 -0.282700 0.876840
H133 H 0.365200 -0.393200 0.912400
C134 C 0.415250 -0.341600 0.819850
H135 H 0.454200 -0.489000 0.816700
C136 C 0.409370 -0.182500 0.767550
C137 C 0.354480 0.035000 0.770600
H138 H 0.350400 0.141100 0.734100
C139 C 0.305240 0.093400 0.829170
H140 H 0.268300 0.243400 0.832600

#END
