
#######################################################################
#
#                 Cambridge Crystallographic Data Centre
#                                CCDC 
#
#######################################################################
#
# If this CIF has been generated from an entry in the Cambridge 
# Structural Database, then it will include bibliographic, chemical, 
# crystal, experimental, refinement or atomic coordinate data resulting 
# from the CCDC's data processing and validation procedures.
#
#######################################################################

data_ABORUH
_symmetry_cell_setting           triclinic
_symmetry_space_group_name_H-M   'P -1'
_symmetry_Int_Tables_number      2
_space_group_name_Hall           '-P 1'
loop_
_symmetry_equiv_pos_site_id
_symmetry_equiv_pos_as_xyz
1 x,y,z
2 -x,-y,-z
_cell_length_a                   10.09900(10)
_cell_length_b                   10.33230(10)
_cell_length_c                   11.53800(10)
_cell_angle_alpha                88.8490(10)
_cell_angle_beta                 71.7180(10)
_cell_angle_gamma                86.2430(10)
_cell_volume                     1140.72
loop_
_atom_site_label
_atom_site_type_symbol
_atom_site_fract_x
_atom_site_fract_y
_atom_site_fract_z
Ti1 Ti -0.11716(3) 0.50531(3) 0.13070(2)
Cl1 Cl -0.07939(4) 0.48855(4) 0.31702(4)
F1 F -0.27272(12) 0.77811(11) -0.03908(10)
F2 F -0.14494(11) 0.91394(10) 0.00666(10)
F3 F -0.36771(12) 0.94652(11) 0.06856(11)
F4 F -0.25809(12) 0.78858(11) 0.36537(9)
F5 F -0.10463(10) 0.88794(10) 0.22774(10)
F6 F -0.31800(11) 0.96479(10) 0.28658(11)
O1 O -0.30305(11) 0.49403(10) 0.18746(10)
O2 O -0.14837(11) 0.68496(10) 0.12168(10)
O3 O -0.07930(13) 0.29922(11) 0.11554(12)
H1 H -0.023(3) 0.280(2) 0.055(2)
O4 O 0.08915(11) 0.52609(10) 0.04468(10)
C1 C -0.41978(16) 0.57555(15) 0.22955(14)
C2 C -0.40714(16) 0.70991(15) 0.21752(14)
C3 C -0.52706(17) 0.79184(16) 0.26296(15)
H2 H -0.5197 0.8830 0.2547
C4 C -0.65693(17) 0.74417(16) 0.31995(14)
C5 C -0.66517(17) 0.61033(16) 0.33069(14)
H3 H -0.7537 0.5769 0.3697
C6 C -0.54899(17) 0.52255(15) 0.28666(14)
C7 C -0.26593(17) 0.77060(15) 0.16305(15)
C8 C -0.26508(18) 0.85420(17) 0.05000(16)
C9 C -0.23684(18) 0.85429(16) 0.26224(17)
C10 C -0.78234(17) 0.84151(16) 0.37203(16)
C11 C -0.75210(19) 0.92449(18) 0.46881(17)
H4 H -0.7349 0.8680 0.5325
H5 H -0.8326 0.9852 0.5052
H6 H -0.6695 0.9732 0.4304
C12 C -0.80291(19) 0.93006(18) 0.27010(17)
H7 H -0.8214 0.8776 0.2077
H8 H -0.7182 0.9765 0.2332
H9 H -0.8822 0.9927 0.3042
C13 C -0.91769(17) 0.77384(17) 0.43187(17)
H10 H -0.9372 0.7193 0.3714
H11 H -0.9951 0.8392 0.4629
H12 H -0.9073 0.7198 0.4996
C14 C -0.56153(17) 0.37553(15) 0.30717(15)
C15 C -0.71457(18) 0.34091(17) 0.36041(17)
H13 H -0.7571 0.3842 0.4394
H14 H -0.7183 0.2468 0.3716
H15 H -0.7659 0.3696 0.3042
C16 C -0.48584(18) 0.33104(17) 0.39920(17)
H16 H -0.5341 0.3714 0.4787
H17 H -0.3893 0.3569 0.3701
H18 H -0.4859 0.2365 0.4075
C17 C -0.49864(19) 0.29940(17) 0.18654(17)
H19 H -0.5198 0.2081 0.2004
H20 H -0.3971 0.3059 0.1575
H21 H -0.5390 0.3359 0.1252
C18 C -0.0886(3) 0.2021(2) 0.2081(2)
H22 H -0.0844 0.1159 0.1726
H23 H -0.1771 0.2166 0.2741
H24 H -0.0106 0.2074 0.2409
C19 C 0.19212(19) 0.5771(2) 0.08951(17)
H25 H 0.2807 0.5254 0.0575
H26 H 0.1608 0.5735 0.1789
H27 H 0.2054 0.6673 0.0629
Ti1A Ti 0.11716(3) 0.49469(3) -0.13070(2)
Cl1A Cl 0.07939(4) 0.51145(4) -0.31702(4)
F1A F 0.27272(12) 0.22189(11) 0.03908(10)
F2A F 0.14494(11) 0.08606(10) -0.00666(10)
F3A F 0.36771(12) 0.05348(11) -0.06856(11)
F4A F 0.25809(12) 0.21142(11) -0.36537(9)
F5A F 0.10463(10) 0.11206(10) -0.22774(10)
F6A F 0.31800(11) 0.03521(10) -0.28658(11)
O1A O 0.30305(11) 0.50597(10) -0.18746(10)
O2A O 0.14837(11) 0.31504(10) -0.12168(10)
O3A O 0.07930(13) 0.70078(11) -0.11554(12)
H1A H 0.023(3) 0.720(2) -0.055(2)
O4A O -0.08915(11) 0.47391(10) -0.04468(10)
C1A C 0.41978(16) 0.42445(15) -0.22955(14)
C2A C 0.40714(16) 0.29009(15) -0.21752(14)
C3A C 0.52706(17) 0.20816(16) -0.26296(15)
H2A H 0.5197 0.1170 -0.2547
C4A C 0.65693(17) 0.25583(16) -0.31995(14)
C5A C 0.66517(17) 0.38967(16) -0.33069(14)
H3A H 0.7537 0.4231 -0.3697
C6A C 0.54899(17) 0.47745(15) -0.28666(14)
C7A C 0.26593(17) 0.22940(15) -0.16305(15)
C8A C 0.26508(18) 0.14580(17) -0.05000(16)
C9A C 0.23684(18) 0.14571(16) -0.26224(17)
C10A C 0.78234(17) 0.15849(16) -0.37203(16)
C11A C 0.75210(19) 0.07551(18) -0.46881(17)
H4A H 0.7349 0.1320 -0.5325
H5A H 0.8326 0.0148 -0.5052
H6A H 0.6695 0.0268 -0.4304
C12A C 0.80291(19) 0.06994(18) -0.27010(17)
H7A H 0.8214 0.1224 -0.2077
H8A H 0.7182 0.0235 -0.2332
H9A H 0.8822 0.0073 -0.3042
C13A C 0.91769(17) 0.22616(17) -0.43187(17)
H10A H 0.9372 0.2807 -0.3714
H11A H 0.9951 0.1608 -0.4629
H12A H 0.9073 0.2802 -0.4996
C14A C 0.56153(17) 0.62447(15) -0.30717(15)
C15A C 0.71457(18) 0.65909(17) -0.36041(17)
H13A H 0.7571 0.6158 -0.4394
H14A H 0.7183 0.7532 -0.3716
H15A H 0.7659 0.6304 -0.3042
C16A C 0.48584(18) 0.66896(17) -0.39920(17)
H16A H 0.5341 0.6286 -0.4787
H17A H 0.3893 0.6431 -0.3701
H18A H 0.4859 0.7635 -0.4075
C17A C 0.49864(19) 0.70060(17) -0.18654(17)
H19A H 0.5198 0.7919 -0.2004
H20A H 0.3971 0.6941 -0.1575
H21A H 0.5390 0.6641 -0.1252
C18A C 0.0886(3) 0.7979(2) -0.2081(2)
H22A H 0.0844 0.8841 -0.1726
H23A H 0.1771 0.7834 -0.2741
H24A H 0.0106 0.7926 -0.2409
C19A C -0.19212(19) 0.4229(2) -0.08951(17)
H25A H -0.2807 0.4746 -0.0575
H26A H -0.1608 0.4265 -0.1789
H27A H -0.2054 0.3327 -0.0629
Ti1 Ti -0.11716(3) 0.50531(3) 1.13070(2)
Cl1 Cl -0.07939(4) 0.48855(4) 1.31702(4)
F1 F -0.27272(12) 0.77811(11) 0.96092(10)
F2 F -0.14494(11) 0.91394(10) 1.00666(10)
F3 F -0.36771(12) 0.94652(11) 1.06856(11)
F4 F -0.25809(12) 0.78858(11) 1.36537(9)
F5 F -0.10463(10) 0.88794(10) 1.22774(10)
F6 F -0.31800(11) 0.96479(10) 1.28658(11)
O1 O -0.30305(11) 0.49403(10) 1.18746(10)
O2 O -0.14837(11) 0.68496(10) 1.12168(10)
O3 O -0.07930(13) 0.29922(11) 1.11554(12)
H1 H -0.023(3) 0.280(2) 1.055(2)
O4 O 0.08915(11) 0.52609(10) 1.04468(10)
C1 C -0.41978(16) 0.57555(15) 1.22955(14)
C2 C -0.40714(16) 0.70991(15) 1.21752(14)
C3 C -0.52706(17) 0.79184(16) 1.26296(15)
H2 H -0.5197 0.8830 1.2547
C4 C -0.65693(17) 0.74417(16) 1.31995(14)
C5 C -0.66517(17) 0.61033(16) 1.33069(14)
H3 H -0.7537 0.5769 1.3697
C6 C -0.54899(17) 0.52255(15) 1.28666(14)
C7 C -0.26593(17) 0.77060(15) 1.16305(15)
C8 C -0.26508(18) 0.85420(17) 1.05000(16)
C9 C -0.23684(18) 0.85429(16) 1.26224(17)
C10 C -0.78234(17) 0.84151(16) 1.37203(16)
C11 C -0.75210(19) 0.92449(18) 1.46881(17)
H4 H -0.7349 0.8680 1.5325
H5 H -0.8326 0.9852 1.5052
H6 H -0.6695 0.9732 1.4304
C12 C -0.80291(19) 0.93006(18) 1.27010(17)
H7 H -0.8214 0.8776 1.2077
H8 H -0.7182 0.9765 1.2332
H9 H -0.8822 0.9927 1.3042
C13 C -0.91769(17) 0.77384(17) 1.43187(17)
H10 H -0.9372 0.7193 1.3714
H11 H -0.9951 0.8392 1.4629
H12 H -0.9073 0.7198 1.4996
C14 C -0.56153(17) 0.37553(15) 1.30717(15)
C15 C -0.71457(18) 0.34091(17) 1.36041(17)
H13 H -0.7571 0.3842 1.4394
H14 H -0.7183 0.2468 1.3716
H15 H -0.7659 0.3696 1.3042
C16 C -0.48584(18) 0.33104(17) 1.39920(17)
H16 H -0.5341 0.3714 1.4787
H17 H -0.3893 0.3569 1.3701
H18 H -0.4859 0.2365 1.4075
C17 C -0.49864(19) 0.29940(17) 1.18654(17)
H19 H -0.5198 0.2081 1.2004
H20 H -0.3971 0.3059 1.1575
H21 H -0.5390 0.3359 1.1252
C18 C -0.0886(3) 0.2021(2) 1.2081(2)
H22 H -0.0844 0.1159 1.1726
H23 H -0.1771 0.2166 1.2741
H24 H -0.0106 0.2074 1.2409
C19 C 0.19212(19) 0.5771(2) 1.08951(17)
H25 H 0.2807 0.5254 1.0575
H26 H 0.1608 0.5735 1.1789
H27 H 0.2054 0.6673 1.0629
Ti1A Ti 0.11716(3) 0.49469(3) 0.86930(2)
Cl1A Cl 0.07939(4) 0.51145(4) 0.68298(4)
F1A F 0.27272(12) 0.22189(11) 1.03908(10)
F2A F 0.14494(11) 0.08606(10) 0.99334(10)
F3A F 0.36771(12) 0.05348(11) 0.93144(11)
F4A F 0.25809(12) 0.21142(11) 0.63463(9)
F5A F 0.10463(10) 0.11206(10) 0.77226(10)
F6A F 0.31800(11) 0.03521(10) 0.71342(11)
O1A O 0.30305(11) 0.50597(10) 0.81254(10)
O2A O 0.14837(11) 0.31504(10) 0.87832(10)
O3A O 0.07930(13) 0.70078(11) 0.88446(12)
H1A H 0.023(3) 0.720(2) 0.945(2)
O4A O -0.08915(11) 0.47391(10) 0.95532(10)
C1A C 0.41978(16) 0.42445(15) 0.77045(14)
C2A C 0.40714(16) 0.29009(15) 0.78248(14)
C3A C 0.52706(17) 0.20816(16) 0.73704(15)
H2A H 0.5197 0.1170 0.7453
C4A C 0.65693(17) 0.25583(16) 0.68005(14)
C5A C 0.66517(17) 0.38967(16) 0.66931(14)
H3A H 0.7537 0.4231 0.6303
C6A C 0.54899(17) 0.47745(15) 0.71334(14)
C7A C 0.26593(17) 0.22940(15) 0.83695(15)
C8A C 0.26508(18) 0.14580(17) 0.95000(16)
C9A C 0.23684(18) 0.14571(16) 0.73776(17)
C10A C 0.78234(17) 0.15849(16) 0.62797(16)
C11A C 0.75210(19) 0.07551(18) 0.53119(17)
H4A H 0.7349 0.1320 0.4675
H5A H 0.8326 0.0148 0.4948
H6A H 0.6695 0.0268 0.5696
C12A C 0.80291(19) 0.06994(18) 0.72990(17)
H7A H 0.8214 0.1224 0.7923
H8A H 0.7182 0.0235 0.7668
H9A H 0.8822 0.0073 0.6958
C13A C 0.91769(17) 0.22616(17) 0.56813(17)
H10A H 0.9372 0.2807 0.6286
H11A H 0.9951 0.1608 0.5371
H12A H 0.9073 0.2802 0.5004
C14A C 0.56153(17) 0.62447(15) 0.69283(15)
C15A C 0.71457(18) 0.65909(17) 0.63959(17)
H13A H 0.7571 0.6158 0.5606
H14A H 0.7183 0.7532 0.6284
H15A H 0.7659 0.6304 0.6958
C16A C 0.48584(18) 0.66896(17) 0.60080(17)
H16A H 0.5341 0.6286 0.5213
H17A H 0.3893 0.6431 0.6299
H18A H 0.4859 0.7635 0.5925
C17A C 0.49864(19) 0.70060(17) 0.81346(17)
H19A H 0.5198 0.7919 0.7996
H20A H 0.3971 0.6941 0.8425
H21A H 0.5390 0.6641 0.8748
C18A C 0.0886(3) 0.7979(2) 0.7919(2)
H22A H 0.0844 0.8841 0.8274
H23A H 0.1771 0.7834 0.7259
H24A H 0.0106 0.7926 0.7591
C19A C -0.19212(19) 0.4229(2) 0.91049(17)
H25A H -0.2807 0.4746 0.9425
H26A H -0.1608 0.4265 0.8211
H27A H -0.2054 0.3327 0.9371
Ti1 Ti 0.88284(3) 0.50531(3) 0.13070(2)
Cl1 Cl 0.92061(4) 0.48855(4) 0.31702(4)
F1 F 0.72728(12) 0.77811(11) -0.03908(10)
F2 F 0.85506(11) 0.91394(10) 0.00666(10)
F3 F 0.63229(12) 0.94652(11) 0.06856(11)
F4 F 0.74191(12) 0.78858(11) 0.36537(9)
F5 F 0.89537(10) 0.88794(10) 0.22774(10)
F6 F 0.68200(11) 0.96479(10) 0.28658(11)
O1 O 0.69695(11) 0.49403(10) 0.18746(10)
O2 O 0.85163(11) 0.68496(10) 0.12168(10)
O3 O 0.92070(13) 0.29922(11) 0.11554(12)
H1 H 0.977(3) 0.280(2) 0.055(2)
O4 O 1.08915(11) 0.52609(10) 0.04468(10)
C1 C 0.58022(16) 0.57555(15) 0.22955(14)
C2 C 0.59286(16) 0.70991(15) 0.21752(14)
C3 C 0.47294(17) 0.79184(16) 0.26296(15)
H2 H 0.4803 0.8830 0.2547
C4 C 0.34307(17) 0.74417(16) 0.31995(14)
C5 C 0.33483(17) 0.61033(16) 0.33069(14)
H3 H 0.2463 0.5769 0.3697
C6 C 0.45101(17) 0.52255(15) 0.28666(14)
C7 C 0.73407(17) 0.77060(15) 0.16305(15)
C8 C 0.73492(18) 0.85420(17) 0.05000(16)
C9 C 0.76316(18) 0.85429(16) 0.26224(17)
C10 C 0.21766(17) 0.84151(16) 0.37203(16)
C11 C 0.24790(19) 0.92449(18) 0.46881(17)
H4 H 0.2651 0.8680 0.5325
H5 H 0.1674 0.9852 0.5052
H6 H 0.3305 0.9732 0.4304
C12 C 0.19709(19) 0.93006(18) 0.27010(17)
H7 H 0.1786 0.8776 0.2077
H8 H 0.2818 0.9765 0.2332
H9 H 0.1178 0.9927 0.3042
C13 C 0.08231(17) 0.77384(17) 0.43187(17)
H10 H 0.0628 0.7193 0.3714
H11 H 0.0049 0.8392 0.4629
H12 H 0.0927 0.7198 0.4996
C14 C 0.43847(17) 0.37553(15) 0.30717(15)
C15 C 0.28543(18) 0.34091(17) 0.36041(17)
H13 H 0.2429 0.3842 0.4394
H14 H 0.2817 0.2468 0.3716
H15 H 0.2341 0.3696 0.3042
C16 C 0.51416(18) 0.33104(17) 0.39920(17)
H16 H 0.4659 0.3714 0.4787
H17 H 0.6107 0.3569 0.3701
H18 H 0.5141 0.2365 0.4075
C17 C 0.50136(19) 0.29940(17) 0.18654(17)
H19 H 0.4802 0.2081 0.2004
H20 H 0.6029 0.3059 0.1575
H21 H 0.4610 0.3359 0.1252
C18 C 0.9114(3) 0.2021(2) 0.2081(2)
H22 H 0.9156 0.1159 0.1726
H23 H 0.8229 0.2166 0.2741
H24 H 0.9894 0.2074 0.2409
C19 C 1.19212(19) 0.5771(2) 0.08951(17)
H25 H 1.2807 0.5254 0.0575
H26 H 1.1608 0.5735 0.1789
H27 H 1.2054 0.6673 0.0629
Ti1A Ti 1.11716(3) 0.49469(3) -0.13070(2)
Cl1A Cl 1.07939(4) 0.51145(4) -0.31702(4)
F1A F 1.27272(12) 0.22189(11) 0.03908(10)
F2A F 1.14494(11) 0.08606(10) -0.00666(10)
F3A F 1.36771(12) 0.05348(11) -0.06856(11)
F4A F 1.25809(12) 0.21142(11) -0.36537(9)
F5A F 1.10463(10) 0.11206(10) -0.22774(10)
F6A F 1.31800(11) 0.03521(10) -0.28658(11)
O1A O 1.30305(11) 0.50597(10) -0.18746(10)
O2A O 1.14837(11) 0.31504(10) -0.12168(10)
O3A O 1.07930(13) 0.70078(11) -0.11554(12)
H1A H 1.023(3) 0.720(2) -0.055(2)
O4A O 0.91085(11) 0.47391(10) -0.04468(10)
C1A C 1.41978(16) 0.42445(15) -0.22955(14)
C2A C 1.40714(16) 0.29009(15) -0.21752(14)
C3A C 1.52706(17) 0.20816(16) -0.26296(15)
H2A H 1.5197 0.1170 -0.2547
C4A C 1.65693(17) 0.25583(16) -0.31995(14)
C5A C 1.66517(17) 0.38967(16) -0.33069(14)
H3A H 1.7537 0.4231 -0.3697
C6A C 1.54899(17) 0.47745(15) -0.28666(14)
C7A C 1.26593(17) 0.22940(15) -0.16305(15)
C8A C 1.26508(18) 0.14580(17) -0.05000(16)
C9A C 1.23684(18) 0.14571(16) -0.26224(17)
C10A C 1.78234(17) 0.15849(16) -0.37203(16)
C11A C 1.75210(19) 0.07551(18) -0.46881(17)
H4A H 1.7349 0.1320 -0.5325
H5A H 1.8326 0.0148 -0.5052
H6A H 1.6695 0.0268 -0.4304
C12A C 1.80291(19) 0.06994(18) -0.27010(17)
H7A H 1.8214 0.1224 -0.2077
H8A H 1.7182 0.0235 -0.2332
H9A H 1.8822 0.0073 -0.3042
C13A C 1.91769(17) 0.22616(17) -0.43187(17)
H10A H 1.9372 0.2807 -0.3714
H11A H 1.9951 0.1608 -0.4629
H12A H 1.9073 0.2802 -0.4996
C14A C 1.56153(17) 0.62447(15) -0.30717(15)
C15A C 1.71457(18) 0.65909(17) -0.36041(17)
H13A H 1.7571 0.6158 -0.4394
H14A H 1.7183 0.7532 -0.3716
H15A H 1.7659 0.6304 -0.3042
C16A C 1.48584(18) 0.66896(17) -0.39920(17)
H16A H 1.5341 0.6286 -0.4787
H17A H 1.3893 0.6431 -0.3701
H18A H 1.4859 0.7635 -0.4075
C17A C 1.49864(19) 0.70060(17) -0.18654(17)
H19A H 1.5198 0.7919 -0.2004
H20A H 1.3971 0.6941 -0.1575
H21A H 1.5390 0.6641 -0.1252
C18A C 1.0886(3) 0.7979(2) -0.2081(2)
H22A H 1.0844 0.8841 -0.1726
H23A H 1.1771 0.7834 -0.2741
H24A H 1.0106 0.7926 -0.2409
C19A C 0.80788(19) 0.4229(2) -0.08951(17)
H25A H 0.7193 0.4746 -0.0575
H26A H 0.8392 0.4265 -0.1789
H27A H 0.7946 0.3327 -0.0629
Ti1 Ti 0.88284(3) 0.50531(3) 1.13070(2)
Cl1 Cl 0.92061(4) 0.48855(4) 1.31702(4)
F1 F 0.72728(12) 0.77811(11) 0.96092(10)
F2 F 0.85506(11) 0.91394(10) 1.00666(10)
F3 F 0.63229(12) 0.94652(11) 1.06856(11)
F4 F 0.74191(12) 0.78858(11) 1.36537(9)
F5 F 0.89537(10) 0.88794(10) 1.22774(10)
F6 F 0.68200(11) 0.96479(10) 1.28658(11)
O1 O 0.69695(11) 0.49403(10) 1.18746(10)
O2 O 0.85163(11) 0.68496(10) 1.12168(10)
O3 O 0.92070(13) 0.29922(11) 1.11554(12)
H1 H 0.977(3) 0.280(2) 1.055(2)
O4 O 1.08915(11) 0.52609(10) 1.04468(10)
C1 C 0.58022(16) 0.57555(15) 1.22955(14)
C2 C 0.59286(16) 0.70991(15) 1.21752(14)
C3 C 0.47294(17) 0.79184(16) 1.26296(15)
H2 H 0.4803 0.8830 1.2547
C4 C 0.34307(17) 0.74417(16) 1.31995(14)
C5 C 0.33483(17) 0.61033(16) 1.33069(14)
H3 H 0.2463 0.5769 1.3697
C6 C 0.45101(17) 0.52255(15) 1.28666(14)
C7 C 0.73407(17) 0.77060(15) 1.16305(15)
C8 C 0.73492(18) 0.85420(17) 1.05000(16)
C9 C 0.76316(18) 0.85429(16) 1.26224(17)
C10 C 0.21766(17) 0.84151(16) 1.37203(16)
C11 C 0.24790(19) 0.92449(18) 1.46881(17)
H4 H 0.2651 0.8680 1.5325
H5 H 0.1674 0.9852 1.5052
H6 H 0.3305 0.9732 1.4304
C12 C 0.19709(19) 0.93006(18) 1.27010(17)
H7 H 0.1786 0.8776 1.2077
H8 H 0.2818 0.9765 1.2332
H9 H 0.1178 0.9927 1.3042
C13 C 0.08231(17) 0.77384(17) 1.43187(17)
H10 H 0.0628 0.7193 1.3714
H11 H 0.0049 0.8392 1.4629
H12 H 0.0927 0.7198 1.4996
C14 C 0.43847(17) 0.37553(15) 1.30717(15)
C15 C 0.28543(18) 0.34091(17) 1.36041(17)
H13 H 0.2429 0.3842 1.4394
H14 H 0.2817 0.2468 1.3716
H15 H 0.2341 0.3696 1.3042
C16 C 0.51416(18) 0.33104(17) 1.39920(17)
H16 H 0.4659 0.3714 1.4787
H17 H 0.6107 0.3569 1.3701
H18 H 0.5141 0.2365 1.4075
C17 C 0.50136(19) 0.29940(17) 1.18654(17)
H19 H 0.4802 0.2081 1.2004
H20 H 0.6029 0.3059 1.1575
H21 H 0.4610 0.3359 1.1252
C18 C 0.9114(3) 0.2021(2) 1.2081(2)
H22 H 0.9156 0.1159 1.1726
H23 H 0.8229 0.2166 1.2741
H24 H 0.9894 0.2074 1.2409
C19 C 1.19212(19) 0.5771(2) 1.08951(17)
H25 H 1.2807 0.5254 1.0575
H26 H 1.1608 0.5735 1.1789
H27 H 1.2054 0.6673 1.0629
Ti1A Ti 1.11716(3) 0.49469(3) 0.86930(2)
Cl1A Cl 1.07939(4) 0.51145(4) 0.68298(4)
F1A F 1.27272(12) 0.22189(11) 1.03908(10)
F2A F 1.14494(11) 0.08606(10) 0.99334(10)
F3A F 1.36771(12) 0.05348(11) 0.93144(11)
F4A F 1.25809(12) 0.21142(11) 0.63463(9)
F5A F 1.10463(10) 0.11206(10) 0.77226(10)
F6A F 1.31800(11) 0.03521(10) 0.71342(11)
O1A O 1.30305(11) 0.50597(10) 0.81254(10)
O2A O 1.14837(11) 0.31504(10) 0.87832(10)
O3A O 1.07930(13) 0.70078(11) 0.88446(12)
H1A H 1.023(3) 0.720(2) 0.945(2)
O4A O 0.91085(11) 0.47391(10) 0.95532(10)
C1A C 1.41978(16) 0.42445(15) 0.77045(14)
C2A C 1.40714(16) 0.29009(15) 0.78248(14)
C3A C 1.52706(17) 0.20816(16) 0.73704(15)
H2A H 1.5197 0.1170 0.7453
C4A C 1.65693(17) 0.25583(16) 0.68005(14)
C5A C 1.66517(17) 0.38967(16) 0.66931(14)
H3A H 1.7537 0.4231 0.6303
C6A C 1.54899(17) 0.47745(15) 0.71334(14)
C7A C 1.26593(17) 0.22940(15) 0.83695(15)
C8A C 1.26508(18) 0.14580(17) 0.95000(16)
C9A C 1.23684(18) 0.14571(16) 0.73776(17)
C10A C 1.78234(17) 0.15849(16) 0.62797(16)
C11A C 1.75210(19) 0.07551(18) 0.53119(17)
H4A H 1.7349 0.1320 0.4675
H5A H 1.8326 0.0148 0.4948
H6A H 1.6695 0.0268 0.5696
C12A C 1.80291(19) 0.06994(18) 0.72990(17)
H7A H 1.8214 0.1224 0.7923
H8A H 1.7182 0.0235 0.7668
H9A H 1.8822 0.0073 0.6958
C13A C 1.91769(17) 0.22616(17) 0.56813(17)
H10A H 1.9372 0.2807 0.6286
H11A H 1.9951 0.1608 0.5371
H12A H 1.9073 0.2802 0.5004
C14A C 1.56153(17) 0.62447(15) 0.69283(15)
C15A C 1.71457(18) 0.65909(17) 0.63959(17)
H13A H 1.7571 0.6158 0.5606
H14A H 1.7183 0.7532 0.6284
H15A H 1.7659 0.6304 0.6958
C16A C 1.48584(18) 0.66896(17) 0.60080(17)
H16A H 1.5341 0.6286 0.5213
H17A H 1.3893 0.6431 0.6299
H18A H 1.4859 0.7635 0.5925
C17A C 1.49864(19) 0.70060(17) 0.81346(17)
H19A H 1.5198 0.7919 0.7996
H20A H 1.3971 0.6941 0.8425
H21A H 1.5390 0.6641 0.8748
C18A C 1.0886(3) 0.7979(2) 0.7919(2)
H22A H 1.0844 0.8841 0.8274
H23A H 1.1771 0.7834 0.7259
H24A H 1.0106 0.7926 0.7591
C19A C 0.80788(19) 0.4229(2) 0.91049(17)
H25A H 0.7193 0.4746 0.9425
H26A H 0.8392 0.4265 0.8211
H27A H 0.7946 0.3327 0.9371

#END
