
#######################################################################
#
#                 Cambridge Crystallographic Data Centre
#                                CCDC 
#
#######################################################################
#
# If this CIF has been generated from an entry in the Cambridge 
# Structural Database, then it will include bibliographic, chemical, 
# crystal, experimental, refinement or atomic coordinate data resulting 
# from the CCDC's data processing and validation procedures.
#
#######################################################################

data_ABOSAN
_symmetry_cell_setting           triclinic
_symmetry_space_group_name_H-M   'P -1'
_symmetry_Int_Tables_number      2
_space_group_name_Hall           '-P 1'
loop_
_symmetry_equiv_pos_site_id
_symmetry_equiv_pos_as_xyz
1 x,y,z
2 -x,-y,-z
_cell_length_a                   6.4447(2)
_cell_length_b                   8.0844(3)
_cell_length_c                   15.8506(6)
_cell_angle_alpha                94.3189(16)
_cell_angle_beta                 99.2169(17)
_cell_angle_gamma                92.0591(17)
_cell_volume                     811.897
loop_
_atom_site_label
_atom_site_type_symbol
_atom_site_fract_x
_atom_site_fract_y
_atom_site_fract_z
C1 C 0.4844(3) 0.2536(2) 1.01683(11)
C2 C 0.5571(3) 0.2185(2) 0.93551(11)
C3 C 0.7580(3) 0.1295(2) 0.95526(11)
N1 N 0.7911(2) 0.11645(19) 1.04094(9)
C4 C 0.6302(3) 0.1896(2) 1.07971(11)
C5 C 0.6093(3) 0.2048(2) 1.16521(11)
C6 C 0.4369(3) 0.2876(2) 1.18698(12)
C7 C 0.2929(3) 0.3514(2) 1.12408(11)
C8 C 0.3121(3) 0.3358(2) 1.03803(11)
Cl1 Cl 0.08188(7) 0.45733(6) 1.15422(3)
O1 O 0.86775(19) 0.07950(16) 0.90250(8)
N2 N 0.4615(2) 0.25591(18) 0.86204(9)
N3 N 0.5550(2) 0.21901(19) 0.79315(9)
C9 C 0.4615(3) 0.2592(2) 0.71426(11)
S1 S 0.20988(7) 0.33155(6) 0.71631(3)
C10 C 0.1281(3) 0.3839(2) 0.60662(11)
C11 C 0.1188(3) 0.5685(2) 0.60282(10)
C12 C -0.0574(3) 0.6485(2) 0.62217(12)
C13 C -0.0665(4) 0.8192(3) 0.61959(15)
C14 C 0.1005(5) 0.9100(3) 0.59755(15)
C15 C 0.2743(5) 0.8309(3) 0.57784(14)
C16 C 0.2845(3) 0.6611(3) 0.58065(12)
S2 S 0.58637(7) 0.23281(6) 0.63196(3)
H1 H 0.7090 0.1643 1.2073
H2 H 0.4209 0.3028 1.2450
H3 H 0.2159 0.3790 0.9966
H4 H -0.0096 0.3294 0.5875
H5 H 0.2231 0.3353 0.5715
H6 H -0.1715 0.5864 0.6368
H7 H -0.1869 0.8707 0.6332
H8 H 0.0938 1.0270 0.5975
H9 H 0.3910 0.8909 0.5644
H10 H 0.4028 0.6069 0.5671
H11 H 0.8968 0.0619 1.0674
H12 H 0.6633 0.1636 0.7937
C1 C 0.5156(3) 0.7464(2) -0.01683(11)
C2 C 0.4429(3) 0.7815(2) 0.06449(11)
C3 C 0.2420(3) 0.8705(2) 0.04474(11)
N1 N 0.2089(2) 0.88355(19) -0.04094(9)
C4 C 0.3698(3) 0.8104(2) -0.07971(11)
C5 C 0.3907(3) 0.7952(2) -0.16521(11)
C6 C 0.5631(3) 0.7124(2) -0.18698(12)
C7 C 0.7071(3) 0.6486(2) -0.12408(11)
C8 C 0.6879(3) 0.6642(2) -0.03803(11)
Cl1 Cl 0.91812(7) 0.54267(6) -0.15422(3)
O1 O 0.13225(19) 0.92050(16) 0.09750(8)
N2 N 0.5385(2) 0.74409(18) 0.13796(9)
N3 N 0.4450(2) 0.78099(19) 0.20685(9)
C9 C 0.5385(3) 0.7408(2) 0.28574(11)
S1 S 0.79012(7) 0.66845(6) 0.28369(3)
C10 C 0.8719(3) 0.6161(2) 0.39338(11)
C11 C 0.8812(3) 0.4315(2) 0.39718(10)
C12 C 1.0574(3) 0.3515(2) 0.37783(12)
C13 C 1.0665(4) 0.1808(3) 0.38041(15)
C14 C 0.8995(5) 0.0900(3) 0.40245(15)
C15 C 0.7257(5) 0.1691(3) 0.42216(14)
C16 C 0.7155(3) 0.3389(3) 0.41935(12)
S2 S 0.41363(7) 0.76719(6) 0.36804(3)
H1 H 0.2910 0.8357 -0.2073
H2 H 0.5791 0.6972 -0.2450
H3 H 0.7841 0.6210 0.0034
H4 H 1.0096 0.6706 0.4125
H5 H 0.7769 0.6647 0.4285
H6 H 1.1715 0.4136 0.3632
H7 H 1.1869 0.1293 0.3668
H8 H 0.9062 -0.0270 0.4025
H9 H 0.6090 0.1091 0.4356
H10 H 0.5972 0.3931 0.4329
H11 H 0.1032 0.9381 -0.0674
H12 H 0.3367 0.8364 0.2063

#END
