
#######################################################################
#
#                 Cambridge Crystallographic Data Centre
#                                CCDC 
#
#######################################################################
#
# If this CIF has been generated from an entry in the Cambridge 
# Structural Database, then it will include bibliographic, chemical, 
# crystal, experimental, refinement or atomic coordinate data resulting 
# from the CCDC's data processing and validation procedures.
#
#######################################################################

data_ABOSEP
_symmetry_cell_setting           monoclinic
_symmetry_space_group_name_H-M   'P 21/n'
_symmetry_Int_Tables_number      14
_space_group_name_Hall           '-P 2yn'
loop_
_symmetry_equiv_pos_site_id
_symmetry_equiv_pos_as_xyz
1 x,y,z
2 1/2+x,1/2-y,1/2+z
3 -x,-y,-z
4 1/2-x,1/2+y,1/2-z
_cell_length_a                   8.4350(10)
_cell_length_b                   9.0050(10)
_cell_length_c                   42.123(5)
_cell_angle_alpha                90
_cell_angle_beta                 95.400(10)
_cell_angle_gamma                90
_cell_volume                     3185.34
loop_
_atom_site_label
_atom_site_type_symbol
_atom_site_fract_x
_atom_site_fract_y
_atom_site_fract_z
N1 N 0.0213(6) 0.1392(5) -0.07706(10)
N2 N 0.0468(6) 0.2210(5) -0.04986(11)
N3 N 0.2516(5) 0.1022(5) 0.02530(10)
N4 N 0.4019(6) 0.1181(5) 0.10862(10)
N5 N 0.4823(6) 0.0071(5) 0.12578(10)
O1 O -0.3249(5) 0.3723(5) -0.20867(9)
O2 O -0.2108(6) 0.5848(5) -0.19087(9)
O3 O 0.5362(7) 0.1888(6) 0.27350(11)
O4 O 0.7111(6) 0.0016(5) 0.27435(10)
C1 C -0.4600(8) 0.3305(7) -0.26003(15)
H1 H -0.494(4) 0.3748(12) -0.2802(3)
H2 H -0.551(2) 0.292(3) -0.2505(4)
H3 H -0.3874(15) 0.251(2) -0.2631(7)
C2 C -0.3786(8) 0.4443(7) -0.23869(14)
H4 H -0.2885(8) 0.4856(7) -0.24838(14)
H5 H -0.4517(8) 0.5244(7) -0.23504(14)
C3 C -0.2377(8) 0.4536(7) -0.18724(14)
C4 C -0.1757(7) 0.3681(7) -0.15866(13)
C5 C -0.1008(7) 0.4444(6) -0.13282(13)
H6 H -0.0936(7) 0.5474(6) -0.13341(13)
C6 C -0.0365(7) 0.3672(7) -0.10609(14)
H7 H 0.0135(7) 0.4188(7) -0.08883(14)
C7 C -0.0467(7) 0.2131(7) -0.10500(13)
C8 C -0.1223(7) 0.1358(7) -0.13052(13)
H8 H -0.1308(7) 0.0330(7) -0.12976(13)
C9 C -0.1853(7) 0.2137(7) -0.15728(14)
H9 H -0.2347(7) 0.1619(7) -0.17457(14)
C10 C 0.0858(7) -0.0017(6) -0.07325(13)
C11 C 0.0902(8) -0.1216(6) -0.09784(13)
H10 H 0.1174(8) -0.0790(6) -0.11778(13)
H11 H -0.0139(8) -0.1675(6) -0.10158(13)
C12 C 0.2138(8) -0.2387(7) -0.08633(14)
H12 H 0.1965(8) -0.3274(7) -0.09926(14)
H13 H 0.3194(8) -0.2013(7) -0.08919(14)
C13 C 0.2058(8) -0.2788(7) -0.05163(14)
H14 H 0.2832(8) -0.3561(7) -0.04580(14)
H15 H 0.1010(8) -0.3184(7) -0.04892(14)
C14 C 0.2382(7) -0.1463(6) -0.02913(13)
H16 H 0.2018(7) -0.1693(6) -0.00852(13)
H17 H 0.3519(7) -0.1276(6) -0.02606(13)
C15 C 0.1547(7) -0.0109(6) -0.04251(13)
C16 C 0.1275(7) 0.1313(6) -0.02876(12)
C17 C 0.1817(7) 0.1940(6) 0.00289(13)
C18 C 0.1607(7) 0.3459(6) 0.00805(13)
H18 H 0.1146(7) 0.4063(6) -0.00819(13)
C19 C 0.2091(7) 0.4042(6) 0.03744(13)
H19 H 0.1950(7) 0.5047(6) 0.04144(13)
C20 C 0.2789(8) 0.3128(6) 0.06100(14)
H20 H 0.3127(8) 0.3504(6) 0.08106(14)
C21 C 0.2977(7) 0.1624(6) 0.05408(12)
C22 C 0.3773(7) 0.0638(6) 0.07886(13)
C23 C 0.4372(7) -0.0815(6) 0.07664(12)
C24 C 0.4367(7) -0.1904(6) 0.04967(13)
H21 H 0.4775(7) -0.1427(6) 0.03146(13)
H22 H 0.3283(7) -0.2220(6) 0.04339(13)
C25 C 0.5393(8) -0.3263(7) 0.05947(13)
H23 H 0.5134(8) -0.4062(7) 0.04442(13)
H24 H 0.6507(8) -0.3013(7) 0.05863(13)
C26 C 0.5135(8) -0.3796(6) 0.09304(13)
H25 H 0.4012(8) -0.3986(6) 0.09438(13)
H26 H 0.5710(8) -0.4717(6) 0.09746(13)
C27 C 0.5715(7) -0.2633(6) 0.11776(13)
H27 H 0.5365(7) -0.2888(6) 0.13835(13)
H28 H 0.6869(7) -0.2591(6) 0.11984(13)
C28 C 0.5036(6) -0.1147(6) 0.10691(13)
C29 C 0.5169(7) 0.0268(6) 0.15928(13)
C30 C 0.4198(7) 0.1203(7) 0.17541(13)
H29 H 0.3346(7) 0.1691(7) 0.16431(13)
C31 C 0.4507(7) 0.1403(6) 0.20790(14)
H30 H 0.3874(7) 0.2040(6) 0.21865(14)
C32 C 0.5768(8) 0.0650(7) 0.22464(14)
C33 C 0.6725(8) -0.0283(6) 0.20876(14)
H31 H 0.7546(8) -0.0802(6) 0.22012(14)
C34 C 0.6463(7) -0.0452(6) 0.17570(13)
H32 H 0.7143(7) -0.1035(6) 0.16479(13)
C35 C 0.6034(9) 0.0932(8) 0.2598(2)
C36 C 0.7500(12) 0.0228(10) 0.30847(15)
H33 H 0.8553(12) 0.0664(10) 0.31227(15)
H34 H 0.6742(12) 0.0909(10) 0.31653(15)
C37 C 0.7465(13) -0.1086(10) 0.3242(2)
H35 H 0.6383(13) -0.142(2) 0.3241(7)
H36 H 0.791(4) -0.0956(14) 0.3459(3)
H37 H 0.808(4) -0.1811(15) 0.3139(6)
N1 N 0.5213(6) 0.3608(5) 0.42294(10)
N2 N 0.5468(6) 0.2790(5) 0.45014(11)
N3 N 0.7516(5) 0.3978(5) 0.52530(10)
N4 N 0.9019(6) 0.3819(5) 0.60862(10)
N5 N 0.9823(6) 0.4929(5) 0.62578(10)
O1 O 0.1751(5) 0.1277(5) 0.29133(9)
O2 O 0.2892(6) -0.0848(5) 0.30913(9)
O3 O 1.0362(7) 0.3112(6) 0.77350(11)
O4 O 1.2111(6) 0.4984(5) 0.77435(10)
C1 C 0.0400(8) 0.1695(7) 0.23997(15)
H1 H 0.006(4) 0.1252(12) 0.2198(3)
H2 H -0.051(2) 0.208(3) 0.2495(4)
H3 H 0.1126(15) 0.249(2) 0.2369(7)
C2 C 0.1214(8) 0.0557(7) 0.26131(14)
H4 H 0.2115(8) 0.0144(7) 0.25162(14)
H5 H 0.0483(8) -0.0244(7) 0.26496(14)
C3 C 0.2623(8) 0.0464(7) 0.31276(14)
C4 C 0.3243(7) 0.1319(7) 0.34134(13)
C5 C 0.3992(7) 0.0556(6) 0.36718(13)
H6 H 0.4064(7) -0.0474(6) 0.36659(13)
C6 C 0.4635(7) 0.1328(7) 0.39391(14)
H7 H 0.5135(7) 0.0812(7) 0.41117(14)
C7 C 0.4533(7) 0.2869(7) 0.39500(13)
C8 C 0.3777(7) 0.3642(7) 0.36948(13)
H8 H 0.3692(7) 0.4670(7) 0.37024(13)
C9 C 0.3147(7) 0.2863(7) 0.34272(14)
H9 H 0.2653(7) 0.3381(7) 0.32543(14)
C10 C 0.5858(7) 0.5017(6) 0.42675(13)
C11 C 0.5902(8) 0.6216(6) 0.40216(13)
H10 H 0.6174(8) 0.5790(6) 0.38222(13)
H11 H 0.4861(8) 0.6675(6) 0.39842(13)
C12 C 0.7138(8) 0.7387(7) 0.41367(14)
H12 H 0.6965(8) 0.8274(7) 0.40074(14)
H13 H 0.8194(8) 0.7013(7) 0.41081(14)
C13 C 0.7058(8) 0.7788(7) 0.44837(14)
H14 H 0.7832(8) 0.8561(7) 0.45420(14)
H15 H 0.6010(8) 0.8184(7) 0.45108(14)
C14 C 0.7382(7) 0.6463(6) 0.47087(13)
H16 H 0.7018(7) 0.6693(6) 0.49148(13)
H17 H 0.8519(7) 0.6276(6) 0.47394(13)
C15 C 0.6547(7) 0.5109(6) 0.45749(13)
C16 C 0.6275(7) 0.3687(6) 0.47124(12)
C17 C 0.6817(7) 0.3060(6) 0.50289(13)
C18 C 0.6607(7) 0.1541(6) 0.50805(13)
H18 H 0.6146(7) 0.0937(6) 0.49181(13)
C19 C 0.7091(7) 0.0958(6) 0.53744(13)
H19 H 0.6950(7) -0.0047(6) 0.54144(13)
C20 C 0.7789(8) 0.1872(6) 0.56100(14)
H20 H 0.8127(8) 0.1496(6) 0.58106(14)
C21 C 0.7977(7) 0.3376(6) 0.55408(12)
C22 C 0.8773(7) 0.4362(6) 0.57886(13)
C23 C 0.9372(7) 0.5815(6) 0.57664(12)
C24 C 0.9367(7) 0.6904(6) 0.54967(13)
H21 H 0.9775(7) 0.6427(6) 0.53146(13)
H22 H 0.8283(7) 0.7220(6) 0.54339(13)
C25 C 1.0393(8) 0.8263(7) 0.55947(13)
H23 H 1.0134(8) 0.9062(7) 0.54442(13)
H24 H 1.1507(8) 0.8013(7) 0.55863(13)
C26 C 1.0135(8) 0.8796(6) 0.59304(13)
H25 H 0.9012(8) 0.8986(6) 0.59438(13)
H26 H 1.0710(8) 0.9717(6) 0.59746(13)
C27 C 1.0715(7) 0.7633(6) 0.61776(13)
H27 H 1.0365(7) 0.7888(6) 0.63835(13)
H28 H 1.1869(7) 0.7591(6) 0.61984(13)
C28 C 1.0036(6) 0.6147(6) 0.60691(13)
C29 C 1.0169(7) 0.4732(6) 0.65928(13)
C30 C 0.9198(7) 0.3797(7) 0.67541(13)
H29 H 0.8346(7) 0.3309(7) 0.66431(13)
C31 C 0.9507(7) 0.3597(6) 0.70790(14)
H30 H 0.8874(7) 0.2960(6) 0.71865(14)
C32 C 1.0768(8) 0.4350(7) 0.72464(14)
C33 C 1.1725(8) 0.5283(6) 0.70876(14)
H31 H 1.2546(8) 0.5802(6) 0.72012(14)
C34 C 1.1463(7) 0.5452(6) 0.67570(13)
H32 H 1.2143(7) 0.6035(6) 0.66479(13)
C35 C 1.1034(9) 0.4068(8) 0.7598(2)
C36 C 1.2500(12) 0.4772(10) 0.80847(15)
H33 H 1.3553(12) 0.4336(10) 0.81227(15)
H34 H 1.1742(12) 0.4091(10) 0.81653(15)
C37 C 1.2465(13) 0.6086(10) 0.8242(2)
H35 H 1.1383(13) 0.642(2) 0.8241(7)
H36 H 1.291(4) 0.5956(14) 0.8459(3)
H37 H 1.308(4) 0.6811(15) 0.8139(6)
N1 N 0.9787(6) 0.8608(5) 1.07706(10)
N2 N 0.9532(6) 0.7790(5) 1.04986(11)
N3 N 0.7484(5) 0.8978(5) 0.97470(10)
N4 N 0.5981(6) 0.8819(5) 0.89138(10)
N5 N 0.5177(6) 0.9929(5) 0.87422(10)
O1 O 1.3249(5) 0.6277(5) 1.20867(9)
O2 O 1.2108(6) 0.4152(5) 1.19087(9)
O3 O 0.4638(7) 0.8112(6) 0.72650(11)
O4 O 0.2889(6) 0.9984(5) 0.72565(10)
C1 C 1.4600(8) 0.6695(7) 1.26003(15)
H1 H 1.494(4) 0.6252(12) 1.2802(3)
H2 H 1.551(2) 0.708(3) 1.2505(4)
H3 H 1.3874(15) 0.749(2) 1.2631(7)
C2 C 1.3786(8) 0.5557(7) 1.23869(14)
H4 H 1.2885(8) 0.5144(7) 1.24838(14)
H5 H 1.4517(8) 0.4756(7) 1.23504(14)
C3 C 1.2377(8) 0.5464(7) 1.18724(14)
C4 C 1.1757(7) 0.6319(7) 1.15866(13)
C5 C 1.1008(7) 0.5556(6) 1.13282(13)
H6 H 1.0936(7) 0.4526(6) 1.13341(13)
C6 C 1.0365(7) 0.6328(7) 1.10609(14)
H7 H 0.9865(7) 0.5812(7) 1.08883(14)
C7 C 1.0467(7) 0.7869(7) 1.10500(13)
C8 C 1.1223(7) 0.8642(7) 1.13052(13)
H8 H 1.1308(7) 0.9670(7) 1.12976(13)
C9 C 1.1853(7) 0.7863(7) 1.15728(14)
H9 H 1.2347(7) 0.8381(7) 1.17457(14)
C10 C 0.9142(7) 1.0017(6) 1.07325(13)
C11 C 0.9098(8) 1.1216(6) 1.09784(13)
H10 H 0.8826(8) 1.0790(6) 1.11778(13)
H11 H 1.0139(8) 1.1675(6) 1.10158(13)
C12 C 0.7862(8) 1.2387(7) 1.08633(14)
H12 H 0.8035(8) 1.3274(7) 1.09926(14)
H13 H 0.6806(8) 1.2013(7) 1.08919(14)
C13 C 0.7942(8) 1.2788(7) 1.05163(14)
H14 H 0.7168(8) 1.3561(7) 1.04580(14)
H15 H 0.8990(8) 1.3184(7) 1.04892(14)
C14 C 0.7618(7) 1.1463(6) 1.02913(13)
H16 H 0.7982(7) 1.1693(6) 1.00852(13)
H17 H 0.6481(7) 1.1276(6) 1.02606(13)
C15 C 0.8453(7) 1.0109(6) 1.04251(13)
C16 C 0.8725(7) 0.8687(6) 1.02876(12)
C17 C 0.8183(7) 0.8060(6) 0.99711(13)
C18 C 0.8393(7) 0.6541(6) 0.99195(13)
H18 H 0.8854(7) 0.5937(6) 1.00819(13)
C19 C 0.7909(7) 0.5958(6) 0.96256(13)
H19 H 0.8050(7) 0.4953(6) 0.95856(13)
C20 C 0.7211(8) 0.6872(6) 0.93900(14)
H20 H 0.6873(8) 0.6496(6) 0.91894(14)
C21 C 0.7023(7) 0.8376(6) 0.94592(12)
C22 C 0.6227(7) 0.9362(6) 0.92114(13)
C23 C 0.5628(7) 1.0815(6) 0.92336(12)
C24 C 0.5633(7) 1.1904(6) 0.95033(13)
H21 H 0.5225(7) 1.1427(6) 0.96854(13)
H22 H 0.6717(7) 1.2220(6) 0.95661(13)
C25 C 0.4607(8) 1.3263(7) 0.94053(13)
H23 H 0.4866(8) 1.4062(7) 0.95558(13)
H24 H 0.3493(8) 1.3013(7) 0.94137(13)
C26 C 0.4865(8) 1.3796(6) 0.90696(13)
H25 H 0.5988(8) 1.3986(6) 0.90562(13)
H26 H 0.4290(8) 1.4717(6) 0.90254(13)
C27 C 0.4285(7) 1.2633(6) 0.88224(13)
H27 H 0.4635(7) 1.2888(6) 0.86165(13)
H28 H 0.3131(7) 1.2591(6) 0.88016(13)
C28 C 0.4964(6) 1.1147(6) 0.89309(13)
C29 C 0.4831(7) 0.9732(6) 0.84072(13)
C30 C 0.5802(7) 0.8797(7) 0.82459(13)
H29 H 0.6654(7) 0.8309(7) 0.83569(13)
C31 C 0.5493(7) 0.8597(6) 0.79210(14)
H30 H 0.6126(7) 0.7960(6) 0.78135(14)
C32 C 0.4232(8) 0.9350(7) 0.77536(14)
C33 C 0.3275(8) 1.0283(6) 0.79124(14)
H31 H 0.2454(8) 1.0802(6) 0.77988(14)
C34 C 0.3537(7) 1.0452(6) 0.82430(13)
H32 H 0.2857(7) 1.1035(6) 0.83521(13)
C35 C 0.3966(9) 0.9068(8) 0.7402(2)
C36 C 0.2500(12) 0.9772(10) 0.69153(15)
H33 H 0.1447(12) 0.9336(10) 0.68773(15)
H34 H 0.3258(12) 0.9091(10) 0.68347(15)
C37 C 0.2535(13) 1.1086(10) 0.6758(2)
H35 H 0.3617(13) 1.142(2) 0.6759(7)
H36 H 0.209(4) 1.0956(14) 0.6541(3)
H37 H 0.192(4) 1.1811(15) 0.6861(6)
N1 N 0.4787(6) 0.6392(5) 0.57706(10)
N2 N 0.4532(6) 0.7210(5) 0.54986(11)
N3 N 0.2484(5) 0.6022(5) 0.47470(10)
N4 N 0.0981(6) 0.6181(5) 0.39138(10)
N5 N 0.0177(6) 0.5071(5) 0.37422(10)
O1 O 0.8249(5) 0.8723(5) 0.70867(9)
O2 O 0.7108(6) 1.0848(5) 0.69087(9)
O3 O -0.0362(7) 0.6888(6) 0.22650(11)
O4 O -0.2111(6) 0.5016(5) 0.22565(10)
C1 C 0.9600(8) 0.8305(7) 0.76003(15)
H1 H 0.994(4) 0.8748(12) 0.7802(3)
H2 H 1.051(2) 0.792(3) 0.7505(4)
H3 H 0.8874(15) 0.751(2) 0.7631(7)
C2 C 0.8786(8) 0.9443(7) 0.73869(14)
H4 H 0.7885(8) 0.9856(7) 0.74838(14)
H5 H 0.9517(8) 1.0244(7) 0.73504(14)
C3 C 0.7377(8) 0.9536(7) 0.68724(14)
C4 C 0.6757(7) 0.8681(7) 0.65866(13)
C5 C 0.6008(7) 0.9444(6) 0.63282(13)
H6 H 0.5936(7) 1.0474(6) 0.63341(13)
C6 C 0.5365(7) 0.8672(7) 0.60609(14)
H7 H 0.4865(7) 0.9188(7) 0.58883(14)
C7 C 0.5467(7) 0.7131(7) 0.60500(13)
C8 C 0.6223(7) 0.6358(7) 0.63052(13)
H8 H 0.6308(7) 0.5330(7) 0.62976(13)
C9 C 0.6853(7) 0.7137(7) 0.65728(14)
H9 H 0.7347(7) 0.6619(7) 0.67457(14)
C10 C 0.4142(7) 0.4983(6) 0.57325(13)
C11 C 0.4098(8) 0.3784(6) 0.59784(13)
H10 H 0.3826(8) 0.4210(6) 0.61778(13)
H11 H 0.5139(8) 0.3325(6) 0.60158(13)
C12 C 0.2862(8) 0.2613(7) 0.58633(14)
H12 H 0.3035(8) 0.1726(7) 0.59926(14)
H13 H 0.1806(8) 0.2987(7) 0.58919(14)
C13 C 0.2942(8) 0.2212(7) 0.55163(14)
H14 H 0.2168(8) 0.1439(7) 0.54580(14)
H15 H 0.3990(8) 0.1816(7) 0.54892(14)
C14 C 0.2618(7) 0.3537(6) 0.52913(13)
H16 H 0.2982(7) 0.3307(6) 0.50852(13)
H17 H 0.1481(7) 0.3724(6) 0.52606(13)
C15 C 0.3453(7) 0.4891(6) 0.54251(13)
C16 C 0.3725(7) 0.6313(6) 0.52876(12)
C17 C 0.3183(7) 0.6940(6) 0.49711(13)
C18 C 0.3393(7) 0.8459(6) 0.49195(13)
H18 H 0.3854(7) 0.9063(6) 0.50819(13)
C19 C 0.2909(7) 0.9042(6) 0.46256(13)
H19 H 0.3050(7) 1.0047(6) 0.45856(13)
C20 C 0.2211(8) 0.8128(6) 0.43900(14)
H20 H 0.1873(8) 0.8504(6) 0.41894(14)
C21 C 0.2023(7) 0.6624(6) 0.44592(12)
C22 C 0.1227(7) 0.5638(6) 0.42114(13)
C23 C 0.0628(7) 0.4185(6) 0.42336(12)
C24 C 0.0633(7) 0.3096(6) 0.45033(13)
H21 H 0.0225(7) 0.3573(6) 0.46854(13)
H22 H 0.1717(7) 0.2780(6) 0.45661(13)
C25 C -0.0393(8) 0.1737(7) 0.44053(13)
H23 H -0.0134(8) 0.0938(7) 0.45558(13)
H24 H -0.1507(8) 0.1987(7) 0.44137(13)
C26 C -0.0135(8) 0.1204(6) 0.40696(13)
H25 H 0.0988(8) 0.1014(6) 0.40562(13)
H26 H -0.0710(8) 0.0283(6) 0.40254(13)
C27 C -0.0715(7) 0.2367(6) 0.38224(13)
H27 H -0.0365(7) 0.2112(6) 0.36165(13)
H28 H -0.1869(7) 0.2409(6) 0.38016(13)
C28 C -0.0036(6) 0.3853(6) 0.39309(13)
C29 C -0.0169(7) 0.5268(6) 0.34072(13)
C30 C 0.0802(7) 0.6203(7) 0.32459(13)
H29 H 0.1654(7) 0.6691(7) 0.33569(13)
C31 C 0.0493(7) 0.6403(6) 0.29210(14)
H30 H 0.1126(7) 0.7040(6) 0.28135(14)
C32 C -0.0768(8) 0.5650(7) 0.27536(14)
C33 C -0.1725(8) 0.4717(6) 0.29124(14)
H31 H -0.2546(8) 0.4198(6) 0.27988(14)
C34 C -0.1463(7) 0.4548(6) 0.32430(13)
H32 H -0.2143(7) 0.3965(6) 0.33521(13)
C35 C -0.1034(9) 0.5932(8) 0.2402(2)
C36 C -0.2500(12) 0.5228(10) 0.19153(15)
H33 H -0.3553(12) 0.5664(10) 0.18773(15)
H34 H -0.1742(12) 0.5909(10) 0.18347(15)
C37 C -0.2465(13) 0.3914(10) 0.1758(2)
H35 H -0.1383(13) 0.358(2) 0.1759(7)
H36 H -0.291(4) 0.4044(14) 0.1541(3)
H37 H -0.308(4) 0.3189(15) 0.1861(6)

#END
