./ABOSAL_from_xyz.cif_generated_by_CrystalShift
_symmetry_cell_setting triclinic
_symmetry_space_group_name_H-M 'P 1'
loop_
_symmetry_equiv_pos_site_id
_symmetry_equiv_pos_as_xyz
1 x,y,z
_cell_length_a 12.475000
_cell_length_b 10.056000
_cell_length_c 15.402000
_cell_angle_alpha 90.000000
_cell_angle_beta 104.150000
_cell_angle_gamma 90.000000
_cell_volume 1873.535826
loop_
_atom_site_label
_atom_site_type_symbol
_atom_site_fract_x
_atom_site_fract_y
_atom_site_fract_z
N1 N 0.714400 0.045400 0.024700
N2 N 0.706100 0.157600 0.071500
N3 N 0.565600 0.175100 0.251900
N4 N 0.524300 0.239100 0.466200
N5 N 0.449700 0.176300 0.504400
C6 C 0.778800 0.048000 -0.043100
H7 H 0.766400 0.130800 -0.075000
H8 H 0.756100 -0.024200 -0.084200
H9 H 0.855900 0.039000 -0.014400
C10 C 0.658500 -0.059100 0.048100
C11 C 0.655300 -0.195800 0.011800
H12 H 0.728300 -0.221400 0.006200
H13 H 0.604900 -0.199700 -0.047000
C14 C 0.617200 -0.289700 0.075100
H15 H 0.589900 -0.370300 0.042500
H16 H 0.680800 -0.313900 0.122600
C17 C 0.532100 -0.239200 0.115500
H18 H 0.520500 -0.304700 0.158500
H19 H 0.464100 -0.233800 0.068900
C20 C 0.549500 -0.107000 0.162100
H21 H 0.590900 -0.119400 0.223600
H22 H 0.478400 -0.068500 0.162800
C23 C 0.611400 -0.013400 0.115400
C24 C 0.642700 0.121100 0.127400
C25 C 0.619200 0.220000 0.191400
C26 C 0.652400 0.351600 0.189400
H27 H 0.687000 0.380300 0.145600
C28 C 0.633600 0.439100 0.252500
H29 H 0.656600 0.527100 0.252900
C30 C 0.580100 0.394300 0.315300
H31 H 0.565900 0.452000 0.358400
C32 C 0.548000 0.263200 0.313500
C33 C 0.488200 0.209200 0.378500
C34 C 0.393200 0.130000 0.361300
C35 C 0.319900 0.079100 0.276000
H36 H 0.352800 0.001100 0.256000
H37 H 0.311300 0.146600 0.229800
C38 C 0.208000 0.043800 0.291600
H39 H 0.166900 0.125400 0.293000
H40 H 0.167600 -0.008400 0.241200
C41 C 0.212000 -0.031300 0.374800
H42 H 0.246800 -0.116500 0.370800
H43 H 0.136800 -0.048500 0.378700
C44 C 0.273800 0.037300 0.461300
H45 H 0.225000 0.099000 0.481200
H46 H 0.299000 -0.028300 0.508000
C47 C 0.371400 0.111000 0.443300
C48 C 0.462500 0.184500 0.601000
H49 H 0.529900 0.230000 0.627900
H50 H 0.465000 0.096500 0.625500
H51 H 0.401000 0.232000 0.613200
N52 N 0.214400 0.454600 0.524700
N53 N 0.206100 0.342400 0.571500
N54 N 0.065600 0.324900 0.751900
N55 N 0.024300 0.260900 0.966200
N56 N -0.050300 0.323700 1.004400
C57 C 0.278800 0.452000 0.456900
H58 H 0.266400 0.369200 0.425000
H59 H 0.256100 0.524200 0.415800
H60 H 0.355900 0.461000 0.485600
C61 C 0.158500 0.559100 0.548100
C62 C 0.155300 0.695800 0.511800
H63 H 0.228300 0.721400 0.506200
H64 H 0.104900 0.699700 0.453000
C65 C 0.117200 0.789700 0.575100
H66 H 0.089900 0.870300 0.542500
H67 H 0.180800 0.813900 0.622600
C68 C 0.032100 0.739200 0.615500
H69 H 0.020500 0.804700 0.658500
H70 H -0.035900 0.733800 0.568900
C71 C 0.049500 0.607000 0.662100
H72 H 0.090900 0.619400 0.723600
H73 H -0.021600 0.568500 0.662800
C74 C 0.111400 0.513400 0.615400
C75 C 0.142700 0.378900 0.627400
C76 C 0.119200 0.280000 0.691400
C77 C 0.152400 0.148400 0.689400
H78 H 0.187000 0.119700 0.645600
C79 C 0.133600 0.060900 0.752500
H80 H 0.156600 -0.027100 0.752900
C81 C 0.080100 0.105700 0.815300
H82 H 0.065900 0.048000 0.858400
C83 C 0.048000 0.236800 0.813500
C84 C -0.011800 0.290800 0.878500
C85 C -0.106800 0.370000 0.861300
C86 C -0.180100 0.420900 0.776000
H87 H -0.147200 0.498900 0.756000
H88 H -0.188700 0.353400 0.729800
C89 C -0.292000 0.456200 0.791600
H90 H -0.333100 0.374600 0.793000
H91 H -0.332400 0.508400 0.741200
C92 C -0.288000 0.531300 0.874800
H93 H -0.253200 0.616500 0.870800
H94 H -0.363200 0.548500 0.878700
C95 C -0.226200 0.462700 0.961300
H96 H -0.275000 0.401000 0.981200
H97 H -0.201000 0.528300 1.008000
C98 C -0.128600 0.389000 0.943300
C99 C -0.037500 0.315500 1.101000
H100 H 0.029900 0.270000 1.127900
H101 H -0.035000 0.403500 1.125500
H102 H -0.099000 0.268000 1.113200
N103 N 0.285600 0.954600 0.975300
N104 N 0.293900 0.842400 0.928500
N105 N 0.434400 0.824900 0.748100
N106 N 0.475700 0.760900 0.533800
N107 N 0.550300 0.823700 0.495600
C108 C 0.221200 0.952000 1.043100
H109 H 0.233600 0.869200 1.075000
H110 H 0.243900 1.024200 1.084200
H111 H 0.144100 0.961000 1.014400
C112 C 0.341500 1.059100 0.951900
C113 C 0.344700 1.195800 0.988200
H114 H 0.271700 1.221400 0.993800
H115 H 0.395100 1.199700 1.047000
C116 C 0.382800 1.289700 0.924900
H117 H 0.410100 1.370300 0.957500
H118 H 0.319200 1.313900 0.877400
C119 C 0.467900 1.239200 0.884500
H120 H 0.479500 1.304700 0.841500
H121 H 0.535900 1.233800 0.931100
C122 C 0.450500 1.107000 0.837900
H123 H 0.409100 1.119400 0.776400
H124 H 0.521600 1.068500 0.837200
C125 C 0.388600 1.013400 0.884600
C126 C 0.357300 0.878900 0.872600
C127 C 0.380800 0.780000 0.808600
C128 C 0.347600 0.648400 0.810600
H129 H 0.313000 0.619700 0.854400
C130 C 0.366400 0.560900 0.747500
H131 H 0.343400 0.472900 0.747100
C132 C 0.419900 0.605700 0.684700
H133 H 0.434100 0.548000 0.641600
C134 C 0.452000 0.736800 0.686500
C135 C 0.511800 0.790800 0.621500
C136 C 0.606800 0.870000 0.638700
C137 C 0.680100 0.920900 0.724000
H138 H 0.647200 0.998900 0.744000
H139 H 0.688700 0.853400 0.770200
C140 C 0.792000 0.956200 0.708400
H141 H 0.833100 0.874600 0.707000
H142 H 0.832400 1.008400 0.758800
C143 C 0.788000 1.031300 0.625200
H144 H 0.753200 1.116500 0.629200
H145 H 0.863200 1.048500 0.621300
C146 C 0.726200 0.962700 0.538700
H147 H 0.775000 0.901000 0.518800
H148 H 0.701000 1.028300 0.492000
C149 C 0.628600 0.889000 0.556700
C150 C 0.537500 0.815500 0.399000
H151 H 0.470100 0.770000 0.372100
H152 H 0.535000 0.903500 0.374500
H153 H 0.599000 0.768000 0.386800
N154 N 0.785600 0.545400 0.475300
N155 N 0.793900 0.657600 0.428500
N156 N 0.934400 0.675100 0.248100
N157 N 0.975700 0.739100 0.033800
N158 N 1.050300 0.676300 -0.004400
C159 C 0.721200 0.548000 0.543100
H160 H 0.733600 0.630800 0.575000
H161 H 0.743900 0.475800 0.584200
H162 H 0.644100 0.539000 0.514400
C163 C 0.841500 0.440900 0.451900
C164 C 0.844700 0.304200 0.488200
H165 H 0.771700 0.278600 0.493800
H166 H 0.895100 0.300300 0.547000
C167 C 0.882800 0.210300 0.424900
H168 H 0.910100 0.129700 0.457500
H169 H 0.819200 0.186100 0.377400
C170 C 0.967900 0.260800 0.384500
H171 H 0.979500 0.195300 0.341500
H172 H 1.035900 0.266200 0.431100
C173 C 0.950500 0.393000 0.337900
H174 H 0.909100 0.380600 0.276400
H175 H 1.021600 0.431500 0.337200
C176 C 0.888600 0.486600 0.384600
C177 C 0.857300 0.621100 0.372600
C178 C 0.880800 0.720000 0.308600
C179 C 0.847600 0.851600 0.310600
H180 H 0.813000 0.880300 0.354400
C181 C 0.866400 0.939100 0.247500
H182 H 0.843400 1.027100 0.247100
C183 C 0.919900 0.894300 0.184700
H184 H 0.934100 0.952000 0.141600
C185 C 0.952000 0.763200 0.186500
C186 C 1.011800 0.709200 0.121500
C187 C 1.106800 0.630000 0.138700
C188 C 1.180100 0.579100 0.224000
H189 H 1.147200 0.501100 0.244000
H190 H 1.188700 0.646600 0.270200
C191 C 1.292000 0.543800 0.208400
H192 H 1.333100 0.625400 0.207000
H193 H 1.332400 0.491600 0.258800
C194 C 1.288000 0.468700 0.125200
H195 H 1.253200 0.383500 0.129200
H196 H 1.363200 0.451500 0.121300
C197 C 1.226200 0.537300 0.038700
H198 H 1.275000 0.599000 0.018800
H199 H 1.201000 0.471700 -0.008000
C200 C 1.128600 0.611000 0.056700
C201 C 1.037500 0.684500 -0.101000
H202 H 0.970100 0.730000 -0.127900
H203 H 1.035000 0.596500 -0.125500
H204 H 1.099000 0.732000 -0.113200

#END
