./ABOSOZ_from_xyz.cif_generated_by_CrystalShift
_symmetry_cell_setting triclinic
_symmetry_space_group_name_H-M 'P 1'
loop_
_symmetry_equiv_pos_site_id
_symmetry_equiv_pos_as_xyz
1 x,y,z
_cell_length_a 14.400700
_cell_length_b 17.276000
_cell_length_c 14.170000
_cell_angle_alpha 104.715000
_cell_angle_beta 104.128000
_cell_angle_gamma 87.445000
_cell_volume 3305.975657
loop_
_atom_site_label
_atom_site_type_symbol
_atom_site_fract_x
_atom_site_fract_y
_atom_site_fract_z
Ag1 Ag 0.919110 0.607231 0.466020
N2 N 0.849100 0.531000 0.520400
N3 N 0.984900 0.689400 0.416200
N4 N 0.802000 0.597100 0.342500
N5 N 1.032400 0.622400 0.593500
C6 C 0.975500 0.527800 0.671100
C7 C 1.107800 0.619800 0.919400
C8 C 0.886100 0.505100 0.604900
C9 C 0.758400 0.499000 0.478400
C10 C 1.041500 0.583500 0.668200
C11 C 1.128300 0.612300 0.744900
C12 C 0.643200 0.406900 0.522700
C13 C 0.866300 0.681700 0.256800
C14 C 1.122300 0.726600 0.561800
C15 C 0.703800 0.609900 0.194100
C16 C 0.736600 0.450100 0.540500
C17 C 0.815800 0.453000 0.617900
C18 C 0.952500 0.710000 0.326700
C19 C 1.161800 0.583500 0.839500
C20 C 0.674800 0.629200 0.093400
C21 C 0.831000 0.412800 0.702800
C22 C 1.087300 0.785100 0.409000
C23 C 0.796100 0.631200 0.264100
C24 C 0.718100 0.556700 0.327200
C25 C 0.581300 0.449500 0.592600
C26 C 1.018300 0.769000 0.320700
C27 C 0.820100 0.468900 0.802300
C28 C 1.256100 0.720200 0.771400
C29 C 0.555200 0.531800 0.191000
C30 C 0.698400 0.512400 0.390700
C31 C 1.066800 0.733100 0.468300
C32 C 0.654700 0.565600 0.233600
C33 C 1.009700 0.804000 0.231700
C34 C 1.168500 0.845000 0.441900
C35 C 1.168600 0.669500 0.715800
C36 C 1.107700 0.675400 0.619100
C37 C 0.716600 0.570700 0.014200
C38 C 0.550500 0.444000 0.133800
C39 C 1.235300 0.796000 0.844400
C40 C 1.259400 0.813300 0.411700
C41 C 1.052700 0.750000 0.150900
H42 H 0.993400 0.502000 0.724500
H43 H 0.854700 0.698300 0.195800
H44 H 1.176900 0.761500 0.589400
H45 H 0.635700 0.488600 0.371500
H46 H 0.608600 0.402700 0.455200
H47 H 0.656300 0.354900 0.532900
H48 H 1.227900 0.597100 0.866900
H49 H 1.153700 0.527000 0.822700
H50 H 0.607000 0.626800 0.071600
H51 H 0.697000 0.681800 0.100400
H52 H 0.785600 0.370100 0.684400
H53 H 0.893900 0.392000 0.712900
H54 H 1.300400 0.689700 0.808200
H55 H 1.283800 0.734800 0.723900
H56 H 0.524900 0.536800 0.244700
H57 H 0.521400 0.561800 0.146300
H58 H 0.943700 0.811000 0.203600
H59 H 1.042000 0.854500 0.253900
H60 H 1.148200 0.888700 0.413200
H61 H 1.182700 0.863000 0.513100
H62 H 0.615300 0.454600 0.660400
H63 H 0.566200 0.501200 0.581800
H64 H 0.523900 0.419400 0.579000
H65 H 0.831500 0.440100 0.852800
H66 H 0.865200 0.512000 0.821800
H67 H 0.757200 0.489300 0.793900
H68 H 0.694000 0.518200 0.006000
H69 H 0.696900 0.585400 -0.047900
H70 H 0.784400 0.572900 0.035400
H71 H 0.485600 0.426500 0.108300
H72 H 0.580500 0.437800 0.079500
H73 H 0.583100 0.412800 0.177700
H74 H 1.293400 0.825300 0.878300
H75 H 1.192500 0.828000 0.808500
H76 H 1.207000 0.782400 0.892100
H77 H 1.281300 0.769700 0.440500
H78 H 1.247000 0.795800 0.340800
H79 H 1.307000 0.854700 0.435600
H80 H 1.019900 0.699800 0.127200
H81 H 1.046800 0.774400 0.096700
H82 H 1.118500 0.742400 0.178500
H83 H 1.116300 0.676600 0.938500
H84 H 1.041300 0.607100 0.893500
H85 H 1.131100 0.599400 0.976900
Ag86 Ag 0.080890 0.392769 0.533980
N87 N 0.150900 0.469000 0.479600
N88 N 0.015100 0.310600 0.583800
N89 N 0.198000 0.402900 0.657500
N90 N -0.032400 0.377600 0.406500
C91 C 0.024500 0.472200 0.328900
C92 C -0.107800 0.380200 0.080600
C93 C 0.113900 0.494900 0.395100
C94 C 0.241600 0.501000 0.521600
C95 C -0.041500 0.416500 0.331800
C96 C -0.128300 0.387700 0.255100
C97 C 0.356800 0.593100 0.477300
C98 C 0.133700 0.318300 0.743200
C99 C -0.122300 0.273400 0.438200
C100 C 0.296200 0.390100 0.805900
C101 C 0.263400 0.549900 0.459500
C102 C 0.184200 0.547000 0.382100
C103 C 0.047500 0.290000 0.673300
C104 C -0.161800 0.416500 0.160500
C105 C 0.325200 0.370800 0.906600
C106 C 0.169000 0.587200 0.297200
C107 C -0.087300 0.214900 0.591000
C108 C 0.203900 0.368800 0.735900
C109 C 0.281900 0.443300 0.672800
C110 C 0.418700 0.550500 0.407400
C111 C -0.018300 0.231000 0.679300
C112 C 0.179900 0.531100 0.197700
C113 C -0.256100 0.279800 0.228600
C114 C 0.444800 0.468200 0.809000
C115 C 0.301600 0.487600 0.609300
C116 C -0.066800 0.266900 0.531700
C117 C 0.345300 0.434400 0.766400
C118 C -0.009700 0.196000 0.768300
C119 C -0.168500 0.155000 0.558100
C120 C -0.168600 0.330500 0.284200
C121 C -0.107700 0.324600 0.380900
C122 C 0.283400 0.429300 0.985800
C123 C 0.449500 0.556000 0.866200
C124 C -0.235300 0.204000 0.155600
C125 C -0.259400 0.186700 0.588300
C126 C -0.052700 0.250000 0.849100
H127 H 0.006600 0.498000 0.275500
H128 H 0.145300 0.301700 0.804200
H129 H -0.176900 0.238500 0.410600
H130 H 0.364300 0.511400 0.628500
H131 H 0.391400 0.597300 0.544800
H132 H 0.343700 0.645100 0.467100
H133 H -0.227900 0.402900 0.133100
H134 H -0.153700 0.473000 0.177300
H135 H 0.393000 0.373200 0.928400
H136 H 0.303000 0.318200 0.899600
H137 H 0.214400 0.629900 0.315600
H138 H 0.106100 0.608000 0.287100
H139 H -0.300400 0.310300 0.191800
H140 H -0.283800 0.265200 0.276100
H141 H 0.475100 0.463200 0.755300
H142 H 0.478600 0.438200 0.853700
H143 H 0.056300 0.189000 0.796400
H144 H -0.042000 0.145500 0.746100
H145 H -0.148200 0.111300 0.586800
H146 H -0.182700 0.137000 0.486900
H147 H 0.384700 0.545400 0.339600
H148 H 0.433800 0.498800 0.418200
H149 H 0.476100 0.580600 0.421000
H150 H 0.168500 0.559900 0.147200
H151 H 0.134800 0.488000 0.178200
H152 H 0.242800 0.510700 0.206100
H153 H 0.306000 0.481800 0.994000
H154 H 0.303100 0.414600 1.047900
H155 H 0.215600 0.427100 0.964600
H156 H 0.514400 0.573500 0.891700
H157 H 0.419500 0.562200 0.920500
H158 H 0.416900 0.587200 0.822300
H159 H -0.293400 0.174700 0.121700
H160 H -0.192500 0.172000 0.191500
H161 H -0.207000 0.217600 0.107900
H162 H -0.281300 0.230300 0.559500
H163 H -0.247000 0.204200 0.659200
H164 H -0.307000 0.145300 0.564400
H165 H -0.019900 0.300200 0.872800
H166 H -0.046800 0.225600 0.903300
H167 H -0.118500 0.257600 0.821500
H168 H -0.116300 0.323400 0.061500
H169 H -0.041300 0.392900 0.106500
H170 H -0.131100 0.400600 0.023100
C171 C 0.778800 0.757000 0.954900
C172 C 0.732900 0.864100 0.525400
C173 C 0.674400 0.859100 1.004800
C174 C 0.523000 0.780500 0.844700
C175 C 0.779800 1.044200 0.735400
C176 C 0.595000 0.902000 0.970200
C177 C 0.572900 0.891400 0.530400
C178 C 0.722400 0.662700 0.789900
C179 C 0.585500 0.680400 0.615900
C180 C 0.557900 0.687600 0.705500
C181 C 0.478000 0.932200 0.656800
C182 C 0.709500 0.707200 0.547500
C183 C 0.884600 0.942400 0.685100
C184 C 0.799600 0.702700 0.873000
C185 C 0.890100 0.861400 0.641500
C186 C 0.605600 0.736000 0.880200
C187 C 0.638000 0.828300 0.500400
C188 C 0.627900 0.678500 0.794300
C189 C 0.751100 0.654300 0.697600
C190 C 0.487700 0.795200 0.583300
C191 C 0.801200 0.987000 0.649200
C192 C 0.929800 0.790500 0.871900
C193 C 0.726900 0.948600 0.570600
C194 C 0.800800 0.741200 0.570700
C195 C 0.684600 0.663100 0.611800
C196 C 0.531300 1.003300 0.699100
C197 C 0.955200 0.835100 0.807300
C198 C 0.517600 0.861700 0.887900
C199 C 0.452800 0.887900 0.722500
C200 C 0.846500 0.690000 0.721900
C201 C 0.680600 0.774300 0.958500
C202 C 0.858000 0.987700 0.975800
C203 C 0.685200 1.060700 0.739200
C204 C 0.914800 0.972200 0.793500
C205 C 0.656300 1.068500 0.832400
C206 C 0.876600 0.719400 0.829700
C207 C 0.628500 0.965800 0.574400
C208 C 0.834200 0.831500 0.999100
C209 C 0.871000 0.732400 0.660000
C210 C 0.493400 0.750700 0.736400
C211 C 0.606600 0.981900 0.958500
C212 C 0.907900 0.847500 0.957700
C213 C 0.550300 0.735000 0.553500
C214 C 0.459000 0.803200 0.675600
C215 C 0.822100 1.043100 0.914100
C216 C 0.627100 0.751700 0.511100
C217 C 0.849800 1.035200 0.824500
C218 C 0.481600 0.916400 0.826000
C219 C 0.949200 0.919400 0.853200
C220 C 0.781200 0.970900 1.018300
C221 C 0.812200 0.821200 0.559600
C222 C 0.698100 1.015400 0.982600
C223 C 0.723900 1.059600 0.918100
C224 C 0.608000 1.020500 0.656900
C225 C 0.561400 1.033200 0.807400
C226 C 0.919600 0.927100 0.946600
C227 C 0.769800 0.894200 1.029100
C228 C 0.499500 0.875300 0.571400
C229 C 0.926600 0.806500 0.703800
C230 C 0.536500 0.990800 0.869100
C231 C 0.221200 0.243000 0.045100
C232 C 0.267100 0.135900 0.474600
C233 C 0.325600 0.140900 -0.004800
C234 C 0.477000 0.219500 0.155300
C235 C 0.220200 -0.044200 0.264600
C236 C 0.405000 0.098000 0.029800
C237 C 0.427100 0.108600 0.469600
C238 C 0.277600 0.337300 0.210100
C239 C 0.414500 0.319600 0.384100
C240 C 0.442100 0.312400 0.294500
C241 C 0.522000 0.067800 0.343200
C242 C 0.290500 0.292800 0.452500
C243 C 0.115400 0.057600 0.314900
C244 C 0.200400 0.297300 0.127000
C245 C 0.109900 0.138600 0.358500
C246 C 0.394400 0.264000 0.119800
C247 C 0.362000 0.171700 0.499600
C248 C 0.372100 0.321500 0.205700
C249 C 0.248900 0.345700 0.302400
C250 C 0.512300 0.204800 0.416700
C251 C 0.198800 0.013000 0.350800
C252 C 0.070200 0.209500 0.128100
C253 C 0.273100 0.051400 0.429400
C254 C 0.199200 0.258800 0.429300
C255 C 0.315400 0.336900 0.388200
C256 C 0.468700 -0.003300 0.300900
C257 C 0.044800 0.164900 0.192700
C258 C 0.482400 0.138300 0.112100
C259 C 0.547200 0.112100 0.277500
C260 C 0.153500 0.310000 0.278100
C261 C 0.319400 0.225700 0.041500
C262 C 0.142000 0.012300 0.024200
C263 C 0.314800 -0.060700 0.260800
C264 C 0.085200 0.027800 0.206500
C265 C 0.343700 -0.068500 0.167600
C266 C 0.123400 0.280600 0.170300
C267 C 0.371500 0.034200 0.425600
C268 C 0.165800 0.168500 0.000900
C269 C 0.129000 0.267600 0.340000
C270 C 0.506600 0.249300 0.263600
C271 C 0.393400 0.018100 0.041500
C272 C 0.092100 0.152500 0.042300
C273 C 0.449700 0.265000 0.446500
C274 C 0.541000 0.196800 0.324400
C275 C 0.177900 -0.043100 0.085900
C276 C 0.372900 0.248300 0.488900
C277 C 0.150200 -0.035200 0.175500
C278 C 0.518400 0.083600 0.174000
C279 C 0.050800 0.080600 0.146800
C280 C 0.218800 0.029100 -0.018300
C281 C 0.187800 0.178800 0.440400
C282 C 0.301900 -0.015400 0.017400
C283 C 0.276100 -0.059600 0.081900
C284 C 0.392000 -0.020500 0.343100
C285 C 0.438600 -0.033200 0.192600
C286 C 0.080400 0.072900 0.053400
C287 C 0.230200 0.105800 -0.029100
C288 C 0.500500 0.124700 0.428600
C289 C 0.073400 0.193500 0.296200
C290 C 0.463500 0.009200 0.130900
C291 C 0.274300 0.045900 0.732300
C292 C 0.225500 0.096900 0.678100
C293 C 0.133200 -0.038800 0.684700
C294 C 0.131000 0.079900 0.625100
C295 C 0.084800 0.012600 0.629000
C296 C 0.229200 -0.022600 0.735300
H297 H 0.340200 0.057000 0.768600
H298 H 0.256500 0.144600 0.677000
H299 H 0.102000 -0.085400 0.687800
H300 H 0.097200 0.115300 0.586000
H301 H 0.019300 0.001100 0.592900
H302 H 0.263100 -0.058700 0.772600
C303 C 0.725700 0.954100 0.267700
C304 C 0.774500 0.903100 0.321900
C305 C 0.866800 1.038800 0.315300
C306 C 0.869000 0.920100 0.374900
C307 C 0.915200 0.987400 0.371000
C308 C 0.770800 1.022600 0.264700
H309 H 0.659800 0.943000 0.231400
H310 H 0.743500 0.855400 0.323000
H311 H 0.898000 1.085400 0.312200
H312 H 0.902800 0.884700 0.414000
H313 H 0.980700 0.998900 0.407100
H314 H 0.736900 1.058700 0.227400
C315 C 0.637500 0.297500 0.811900
C316 C 0.646400 0.294000 0.910100
C317 C 0.575200 0.257500 0.935000
C318 C 0.485900 0.229100 0.764000
C319 C 0.556900 0.265100 0.739100
C320 C 0.495500 0.225200 0.861900
H321 H 0.686600 0.322600 0.794300
H322 H 0.702800 0.316100 0.961200
H323 H 0.582200 0.255700 1.003700
H324 H 0.429900 0.206700 0.713400
H325 H 0.551500 0.266500 0.670300
H326 H 0.446300 0.199700 0.879600
C327 C 0.362500 0.702500 0.188100
C328 C 0.353600 0.706000 0.089900
C329 C 0.424800 0.742500 0.065000
C330 C 0.514100 0.770900 0.236000
C331 C 0.443100 0.734900 0.260900
C332 C 0.504500 0.774800 0.138100
H333 H 0.313400 0.677400 0.205700
H334 H 0.297200 0.683900 0.038800
H335 H 0.417800 0.744300 -0.003700
H336 H 0.570100 0.793300 0.286600
H337 H 0.448500 0.733500 0.329700
H338 H 0.553700 0.800300 0.120400

#END
