./ABPZCU02_from_xyz.cif_generated_by_CrystalShift
_symmetry_cell_setting triclinic
_symmetry_space_group_name_H-M 'P 1'
loop_
_symmetry_equiv_pos_site_id
_symmetry_equiv_pos_as_xyz
1 x,y,z
_cell_length_a 15.125000
_cell_length_b 12.442000
_cell_length_c 6.992000
_cell_angle_alpha 90.000000
_cell_angle_beta 105.940000
_cell_angle_gamma 90.000000
_cell_volume 1265.198793
loop_
_atom_site_label
_atom_site_type_symbol
_atom_site_fract_x
_atom_site_fract_y
_atom_site_fract_z
Cu1 Cu 0.500000 0.274380 0.750000
O2 O 0.405550 0.383190 0.752600
N3 N 0.587940 0.152650 0.771800
C4 C 0.678710 0.161250 0.796300
H5 H 0.704500 0.229500 0.802600
C6 C 0.735200 0.073100 0.812500
H7 H 0.798000 0.081200 0.829100
C8 C 0.696260 -0.027980 0.803400
H9 H 0.733000 -0.088900 0.814800
C10 C 0.602630 -0.038420 0.777200
H11 H 0.575600 -0.106000 0.769700
C12 C 0.550130 0.054000 0.762500
S13 S 0.500000 0.346010 1.250000
O14 O 0.534830 0.279960 1.113600
O15 O 0.425100 0.416180 1.131200
H16 H 0.411000 0.432000 0.711000
H17 H 0.411000 0.392000 0.877000
C18 C 0.449870 0.054000 0.737500
N19 N 0.412060 0.152650 0.728200
C20 C 0.321290 0.161250 0.703700
H21 H 0.295500 0.229500 0.697400
C22 C 0.264800 0.073100 0.687500
H23 H 0.202000 0.081200 0.670900
C24 C 0.303740 -0.027980 0.696600
H25 H 0.267000 -0.088900 0.685200
C26 C 0.397370 -0.038420 0.722800
H27 H 0.424400 -0.106000 0.730300
O28 O 0.465170 0.279960 1.386400
O29 O 0.574900 0.416180 1.368800
O30 O 0.594450 0.383190 0.747400
H31 H 0.589000 0.432000 0.789000
H32 H 0.589000 0.392000 0.623000
O33 O 0.465170 0.279960 0.386400
Cu34 Cu 0.500000 0.274380 1.750000
S35 S 0.500000 0.346010 0.250000
O36 O 0.574900 0.416180 0.368800
O37 O 0.534830 0.279960 0.113600
O38 O 0.425100 0.416180 0.131200
Cu39 Cu 0.500000 0.274380 -0.250000
Cu40 Cu 1.000000 0.774380 0.750000
O41 O 0.905550 0.883190 0.752600
N42 N 1.087940 0.652650 0.771800
C43 C 1.178710 0.661250 0.796300
H44 H 1.204500 0.729500 0.802600
C45 C 1.235200 0.573100 0.812500
H46 H 1.298000 0.581200 0.829100
C47 C 1.196260 0.472020 0.803400
H48 H 1.233000 0.411100 0.814800
C49 C 1.102630 0.461580 0.777200
H50 H 1.075600 0.394000 0.769700
C51 C 1.050130 0.554000 0.762500
S52 S 1.000000 0.846010 1.250000
O53 O 1.034830 0.779960 1.113600
O54 O 0.925100 0.916180 1.131200
H55 H 0.911000 0.932000 0.711000
H56 H 0.911000 0.892000 0.877000
C57 C 0.949870 0.554000 0.737500
N58 N 0.912060 0.652650 0.728200
C59 C 0.821290 0.661250 0.703700
H60 H 0.795500 0.729500 0.697400
C61 C 0.764800 0.573100 0.687500
H62 H 0.702000 0.581200 0.670900
C63 C 0.803740 0.472020 0.696600
H64 H 0.767000 0.411100 0.685200
C65 C 0.897370 0.461580 0.722800
H66 H 0.924400 0.394000 0.730300
O67 O 0.965170 0.779960 1.386400
O68 O 1.074900 0.916180 1.368800
O69 O 1.094450 0.883190 0.747400
H70 H 1.089000 0.932000 0.789000
H71 H 1.089000 0.892000 0.623000
O72 O 0.965170 0.779960 0.386400
Cu73 Cu 1.000000 0.774380 1.750000
Cu74 Cu -0.000000 0.774380 0.750000
O75 O 0.094450 0.883190 0.747400
N76 N -0.087940 0.652650 0.728200
C77 C -0.178710 0.661250 0.703700
H78 H -0.204500 0.729500 0.697400
C79 C -0.235200 0.573100 0.687500
H80 H -0.298000 0.581200 0.670900
C81 C -0.196260 0.472020 0.696600
H82 H -0.233000 0.411100 0.685200
C83 C -0.102630 0.461580 0.722800
H84 H -0.075600 0.394000 0.730300
C85 C -0.050130 0.554000 0.737500
S86 S 0.000000 0.846010 0.250000
O87 O -0.034830 0.779960 0.386400
O88 O 0.074900 0.916180 0.368800
H89 H 0.089000 0.932000 0.789000
H90 H 0.089000 0.892000 0.623000
C91 C 0.050130 0.554000 0.762500
N92 N 0.087940 0.652650 0.771800
C93 C 0.178710 0.661250 0.796300
H94 H 0.204500 0.729500 0.802600
C95 C 0.235200 0.573100 0.812500
H96 H 0.298000 0.581200 0.829100
C97 C 0.196260 0.472020 0.803400
H98 H 0.233000 0.411100 0.814800
C99 C 0.102630 0.461580 0.777200
H100 H 0.075600 0.394000 0.769700
O101 O 0.034830 0.779960 0.113600
O102 O -0.074900 0.916180 0.131200
O103 O -0.094450 0.883190 0.752600
H104 H -0.089000 0.932000 0.711000
H105 H -0.089000 0.892000 0.877000
O106 O 0.034830 0.779960 1.113600
Cu107 Cu -0.000000 0.774380 -0.250000
Cu108 Cu 0.500000 0.725620 0.250000
O109 O 0.594450 0.616810 0.247400
N110 N 0.412060 0.847350 0.228200
C111 C 0.321290 0.838750 0.203700
H112 H 0.295500 0.770500 0.197400
C113 C 0.264800 0.926900 0.187500
H114 H 0.202000 0.918800 0.170900
C115 C 0.303740 1.027980 0.196600
H116 H 0.267000 1.088900 0.185200
C117 C 0.397370 1.038420 0.222800
H118 H 0.424400 1.106000 0.230300
C119 C 0.449870 0.946000 0.237500
S120 S 0.500000 0.653990 -0.250000
O121 O 0.465170 0.720040 -0.113600
O122 O 0.574900 0.583820 -0.131200
H123 H 0.589000 0.568000 0.289000
H124 H 0.589000 0.608000 0.123000
C125 C 0.550130 0.946000 0.262500
N126 N 0.587940 0.847350 0.271800
C127 C 0.678710 0.838750 0.296300
H128 H 0.704500 0.770500 0.302600
C129 C 0.735200 0.926900 0.312500
H130 H 0.798000 0.918800 0.329100
C131 C 0.696260 1.027980 0.303400
H132 H 0.733000 1.088900 0.314800
C133 C 0.602630 1.038420 0.277200
H134 H 0.575600 1.106000 0.269700
O135 O 0.534830 0.720040 -0.386400
O136 O 0.425100 0.583820 -0.368800
O137 O 0.405550 0.616810 0.252600
H138 H 0.411000 0.568000 0.211000
H139 H 0.411000 0.608000 0.377000
O140 O 0.534830 0.720040 0.613600
Cu141 Cu 0.500000 0.725620 -0.750000
S142 S 0.500000 0.653990 0.750000
O143 O 0.425100 0.583820 0.631200
O144 O 0.465170 0.720040 0.886400
O145 O 0.574900 0.583820 0.868800
Cu146 Cu 0.500000 0.725620 1.250000
Cu147 Cu 0.000000 0.225620 0.250000
O148 O 0.094450 0.116810 0.247400
N149 N -0.087940 0.347350 0.228200
C150 C -0.178710 0.338750 0.203700
H151 H -0.204500 0.270500 0.197400
C152 C -0.235200 0.426900 0.187500
H153 H -0.298000 0.418800 0.170900
C154 C -0.196260 0.527980 0.196600
H155 H -0.233000 0.588900 0.185200
C156 C -0.102630 0.538420 0.222800
H157 H -0.075600 0.606000 0.230300
C158 C -0.050130 0.446000 0.237500
S159 S -0.000000 0.153990 -0.250000
O160 O -0.034830 0.220040 -0.113600
O161 O 0.074900 0.083820 -0.131200
H162 H 0.089000 0.068000 0.289000
H163 H 0.089000 0.108000 0.123000
C164 C 0.050130 0.446000 0.262500
N165 N 0.087940 0.347350 0.271800
C166 C 0.178710 0.338750 0.296300
H167 H 0.204500 0.270500 0.302600
C168 C 0.235200 0.426900 0.312500
H169 H 0.298000 0.418800 0.329100
C170 C 0.196260 0.527980 0.303400
H171 H 0.233000 0.588900 0.314800
C172 C 0.102630 0.538420 0.277200
H173 H 0.075600 0.606000 0.269700
O174 O 0.034830 0.220040 -0.386400
O175 O -0.074900 0.083820 -0.368800
O176 O -0.094450 0.116810 0.252600
H177 H -0.089000 0.068000 0.211000
H178 H -0.089000 0.108000 0.377000
O179 O 0.034830 0.220040 0.613600
Cu180 Cu 0.000000 0.225620 -0.750000
Cu181 Cu 1.000000 0.225620 0.250000
O182 O 0.905550 0.116810 0.252600
N183 N 1.087940 0.347350 0.271800
C184 C 1.178710 0.338750 0.296300
H185 H 1.204500 0.270500 0.302600
C186 C 1.235200 0.426900 0.312500
H187 H 1.298000 0.418800 0.329100
C188 C 1.196260 0.527980 0.303400
H189 H 1.233000 0.588900 0.314800
C190 C 1.102630 0.538420 0.277200
H191 H 1.075600 0.606000 0.269700
C192 C 1.050130 0.446000 0.262500
S193 S 1.000000 0.153990 0.750000
O194 O 1.034830 0.220040 0.613600
O195 O 0.925100 0.083820 0.631200
H196 H 0.911000 0.068000 0.211000
H197 H 0.911000 0.108000 0.377000
C198 C 0.949870 0.446000 0.237500
N199 N 0.912060 0.347350 0.228200
C200 C 0.821290 0.338750 0.203700
H201 H 0.795500 0.270500 0.197400
C202 C 0.764800 0.426900 0.187500
H203 H 0.702000 0.418800 0.170900
C204 C 0.803740 0.527980 0.196600
H205 H 0.767000 0.588900 0.185200
C206 C 0.897370 0.538420 0.222800
H207 H 0.924400 0.606000 0.230300
O208 O 0.965170 0.220040 0.886400
O209 O 1.074900 0.083820 0.868800
O210 O 1.094450 0.116810 0.247400
H211 H 1.089000 0.068000 0.289000
H212 H 1.089000 0.108000 0.123000
O213 O 0.965170 0.220040 -0.113600
Cu214 Cu 1.000000 0.225620 1.250000

#END
