
#######################################################################
#
#                 Cambridge Crystallographic Data Centre
#                                CCDC 
#
#######################################################################
#
# If this CIF has been generated from an entry in the Cambridge 
# Structural Database, then it will include bibliographic, chemical, 
# crystal, experimental, refinement or atomic coordinate data resulting 
# from the CCDC's data processing and validation procedures.
#
#######################################################################

data_ABRBPH
_symmetry_cell_setting           monoclinic
_symmetry_space_group_name_H-M   'P 21/c'
_symmetry_Int_Tables_number      14
_space_group_name_Hall           '-P 2ybc'
loop_
_symmetry_equiv_pos_site_id
_symmetry_equiv_pos_as_xyz
1 x,y,z
2 -x,1/2+y,1/2-z
3 -x,-y,-z
4 x,1/2-y,1/2+z
_cell_length_a                   3.91(1)
_cell_length_b                   9.06(1)
_cell_length_c                   32.76(3)
_cell_angle_alpha                90
_cell_angle_beta                 98.1(1)
_cell_angle_gamma                90
_cell_volume                     1148.93
loop_
_atom_site_label
_atom_site_type_symbol
_atom_site_fract_x
_atom_site_fract_y
_atom_site_fract_z
Br1 Br 0.37570 0.70480 0.27110
C1 C 0.09040 0.81040 0.14940
C2 C 0.26230 1.16830 0.07120
C3 C 0.18570 1.19680 0.11000
C4 C 0.12030 1.07830 0.13550
C5 C 0.34280 1.29210 0.04380
C6 C 0.35130 1.43210 0.05890
C7 C 0.22170 0.81840 0.19090
C8 C 0.18230 0.69690 0.21530
C9 C 0.01220 0.56690 0.20170
C10 C -0.13030 0.56700 0.15940
C11 C -0.08530 0.68240 0.13420
C12 C 0.13240 0.93410 0.12150
C13 C 0.20910 0.91040 0.08180
C14 C 0.26750 1.02920 0.05620
H1 H 0.17600 1.30800 0.12100
H2 H 0.06000 1.09900 0.16600
H3 H 0.51200 1.44400 0.09000
H4 H 0.09900 1.47600 0.06300
H5 H 0.46100 1.51200 0.03900
H6 H 0.35500 0.91900 0.20400
H7 H -0.01100 0.46600 0.22300
H8 H -0.27500 0.47500 0.14700
H9 H -0.18500 0.67500 0.10200
H10 H 0.22300 0.80100 0.07100
H11 H 0.31700 1.01000 0.02400
O1 O 0.41450 1.26460 0.00560
Br1 Br 0.62430 0.20480 0.22890
C1 C 0.90960 0.31040 0.35060
C2 C 0.73770 0.66830 0.42880
C3 C 0.81430 0.69680 0.39000
C4 C 0.87970 0.57830 0.36450
C5 C 0.65720 0.79210 0.45620
C6 C 0.64870 0.93210 0.44110
C7 C 0.77830 0.31840 0.30910
C8 C 0.81770 0.19690 0.28470
C9 C 0.98780 0.06690 0.29830
C10 C 1.13030 0.06700 0.34060
C11 C 1.08530 0.18240 0.36580
C12 C 0.86760 0.43410 0.37850
C13 C 0.79090 0.41040 0.41820
C14 C 0.73250 0.52920 0.44380
H1 H 0.82400 0.80800 0.37900
H2 H 0.94000 0.59900 0.33400
H3 H 0.48800 0.94400 0.41000
H4 H 0.90100 0.97600 0.43700
H5 H 0.53900 1.01200 0.46100
H6 H 0.64500 0.41900 0.29600
H7 H 1.01100 -0.03400 0.27700
H8 H 1.27500 -0.02500 0.35300
H9 H 1.18500 0.17500 0.39800
H10 H 0.77700 0.30100 0.42900
H11 H 0.68300 0.51000 0.47600
O1 O 0.58550 0.76460 0.49440
Br1 Br 0.62430 0.29520 0.72890
C1 C 0.90960 0.18960 0.85060
C2 C 0.73770 -0.16830 0.92880
C3 C 0.81430 -0.19680 0.89000
C4 C 0.87970 -0.07830 0.86450
C5 C 0.65720 -0.29210 0.95620
C6 C 0.64870 -0.43210 0.94110
C7 C 0.77830 0.18160 0.80910
C8 C 0.81770 0.30310 0.78470
C9 C 0.98780 0.43310 0.79830
C10 C 1.13030 0.43300 0.84060
C11 C 1.08530 0.31760 0.86580
C12 C 0.86760 0.06590 0.87850
C13 C 0.79090 0.08960 0.91820
C14 C 0.73250 -0.02920 0.94380
H1 H 0.82400 -0.30800 0.87900
H2 H 0.94000 -0.09900 0.83400
H3 H 0.48800 -0.44400 0.91000
H4 H 0.90100 -0.47600 0.93700
H5 H 0.53900 -0.51200 0.96100
H6 H 0.64500 0.08100 0.79600
H7 H 1.01100 0.53400 0.77700
H8 H 1.27500 0.52500 0.85300
H9 H 1.18500 0.32500 0.89800
H10 H 0.77700 0.19900 0.92900
H11 H 0.68300 -0.01000 0.97600
O1 O 0.58550 -0.26460 0.99440
Br1 Br 0.37570 0.79520 0.77110
C1 C 0.09040 0.68960 0.64940
C2 C 0.26230 0.33170 0.57120
C3 C 0.18570 0.30320 0.61000
C4 C 0.12030 0.42170 0.63550
C5 C 0.34280 0.20790 0.54380
C6 C 0.35130 0.06790 0.55890
C7 C 0.22170 0.68160 0.69090
C8 C 0.18230 0.80310 0.71530
C9 C 0.01220 0.93310 0.70170
C10 C -0.13030 0.93300 0.65940
C11 C -0.08530 0.81760 0.63420
C12 C 0.13240 0.56590 0.62150
C13 C 0.20910 0.58960 0.58180
C14 C 0.26750 0.47080 0.55620
H1 H 0.17600 0.19200 0.62100
H2 H 0.06000 0.40100 0.66600
H3 H 0.51200 0.05600 0.59000
H4 H 0.09900 0.02400 0.56300
H5 H 0.46100 -0.01200 0.53900
H6 H 0.35500 0.58100 0.70400
H7 H -0.01100 1.03400 0.72300
H8 H -0.27500 1.02500 0.64700
H9 H -0.18500 0.82500 0.60200
H10 H 0.22300 0.69900 0.57100
H11 H 0.31700 0.49000 0.52400
O1 O 0.41450 0.23540 0.50560

#END
