./ABUBAA02_from_xyz.cif_generated_by_CrystalShift
_symmetry_cell_setting triclinic
_symmetry_space_group_name_H-M 'P 1'
loop_
_symmetry_equiv_pos_site_id
_symmetry_equiv_pos_as_xyz
1 x,y,z
_cell_length_a 9.856200
_cell_length_b 11.917000
_cell_length_c 13.232400
_cell_angle_alpha 89.269000
_cell_angle_beta 77.229000
_cell_angle_gamma 67.500000
_cell_volume 1395.939925
loop_
_atom_site_label
_atom_site_type_symbol
_atom_site_fract_x
_atom_site_fract_y
_atom_site_fract_z
Br1 Br 0.233400 0.891470 0.670810
Br2 Br 0.189410 0.892710 0.987070
Br3 Br -0.202040 0.919670 0.584160
N4 N 0.395500 0.317370 0.569260
N5 N 0.457300 0.306950 0.897180
N6 N 0.013310 0.410700 0.798900
N7 N 0.313370 0.196940 0.771140
O8 O 0.263800 0.449280 0.438350
O9 O 0.645490 0.398310 0.800490
O10 O -0.004400 0.590650 0.918650
C11 C 0.318500 0.533030 0.581640
C12 C 0.261900 0.546050 0.491360
C13 C 0.203700 0.660400 0.454640
H14 H 0.169200 0.668400 0.392300
C15 C 0.195500 0.762100 0.507940
H16 H 0.154800 0.840300 0.483000
C17 C 0.247300 0.749300 0.598290
C18 C 0.309600 0.637200 0.634740
H19 H 0.346800 0.630300 0.695900
C20 C 0.391300 0.412520 0.615750
H21 H 0.436400 0.404400 0.673300
C22 C 0.476700 0.197570 0.600850
H23 H 0.544700 0.203700 0.643500
H24 H 0.539700 0.142100 0.538300
C25 C 0.369200 0.144760 0.663000
H26 H 0.282700 0.161700 0.630600
H27 H 0.422100 0.055300 0.661600
C28 C 0.401000 0.520500 0.906730
C29 C 0.539500 0.508900 0.840920
C30 C 0.568800 0.611700 0.815880
H31 H 0.661100 0.603600 0.769500
C32 C 0.464900 0.726200 0.857650
H33 H 0.485500 0.796600 0.840400
C34 C 0.330300 0.736700 0.925090
C35 C 0.297200 0.636600 0.948750
H36 H 0.203400 0.645900 0.993900
C37 C 0.364800 0.414400 0.932790
H38 H 0.270000 0.425600 0.977400
C39 C 0.413400 0.205600 0.927150
H40 H 0.308600 0.237200 0.970100
H41 H 0.480500 0.153200 0.969500
C42 C 0.423600 0.130800 0.831780
H43 H 0.526600 0.105000 0.786600
H44 H 0.407300 0.056300 0.854000
C45 C -0.050300 0.613880 0.746890
C46 C -0.043800 0.662300 0.840960
C47 C -0.079900 0.786300 0.855680
H48 H -0.072500 0.818800 0.918500
C49 C -0.126500 0.863200 0.780030
H50 H -0.152000 0.948200 0.790800
C51 C -0.135600 0.814900 0.688570
C52 C -0.096700 0.691900 0.670780
H53 H -0.101400 0.660200 0.606700
C54 C -0.014500 0.484000 0.728230
H55 H -0.011900 0.453500 0.661600
C56 C 0.037400 0.283610 0.776200
H57 H 0.061000 0.265700 0.700000
H58 H -0.056700 0.271400 0.806700
C59 C 0.165000 0.196000 0.819300
H60 H 0.142700 0.216800 0.895000
H61 H 0.169000 0.112500 0.809400
H62 H 0.304000 0.391000 0.468000
H63 H 0.610000 0.348000 0.821000
H64 H 0.009000 0.524000 0.901000
Br65 Br 0.766600 0.108530 0.329190
Br66 Br 0.810590 0.107290 0.012930
Br67 Br 1.202040 0.080330 0.415840
N68 N 0.604500 0.682630 0.430740
N69 N 0.542700 0.693050 0.102820
N70 N 0.986690 0.589300 0.201100
N71 N 0.686630 0.803060 0.228860
O72 O 0.736200 0.550720 0.561650
O73 O 0.354510 0.601690 0.199510
O74 O 1.004400 0.409350 0.081350
C75 C 0.681500 0.466970 0.418360
C76 C 0.738100 0.453950 0.508640
C77 C 0.796300 0.339600 0.545360
H78 H 0.830800 0.331600 0.607700
C79 C 0.804500 0.237900 0.492060
H80 H 0.845200 0.159700 0.517000
C81 C 0.752700 0.250700 0.401710
C82 C 0.690400 0.362800 0.365260
H83 H 0.653200 0.369700 0.304100
C84 C 0.608700 0.587480 0.384250
H85 H 0.563600 0.595600 0.326700
C86 C 0.523300 0.802430 0.399150
H87 H 0.455300 0.796300 0.356500
H88 H 0.460300 0.857900 0.461700
C89 C 0.630800 0.855240 0.337000
H90 H 0.717300 0.838300 0.369400
H91 H 0.577900 0.944700 0.338400
C92 C 0.599000 0.479500 0.093270
C93 C 0.460500 0.491100 0.159080
C94 C 0.431200 0.388300 0.184120
H95 H 0.338900 0.396400 0.230500
C96 C 0.535100 0.273800 0.142350
H97 H 0.514500 0.203400 0.159600
C98 C 0.669700 0.263300 0.074910
C99 C 0.702800 0.363400 0.051250
H100 H 0.796600 0.354100 0.006100
C101 C 0.635200 0.585600 0.067210
H102 H 0.730000 0.574400 0.022600
C103 C 0.586600 0.794400 0.072850
H104 H 0.691400 0.762800 0.029900
H105 H 0.519500 0.846800 0.030500
C106 C 0.576400 0.869200 0.168220
H107 H 0.473400 0.895000 0.213400
H108 H 0.592700 0.943700 0.146000
C109 C 1.050300 0.386120 0.253110
C110 C 1.043800 0.337700 0.159040
C111 C 1.079900 0.213700 0.144320
H112 H 1.072500 0.181200 0.081500
C113 C 1.126500 0.136800 0.219970
H114 H 1.152000 0.051800 0.209200
C115 C 1.135600 0.185100 0.311430
C116 C 1.096700 0.308100 0.329220
H117 H 1.101400 0.339800 0.393300
C118 C 1.014500 0.516000 0.271770
H119 H 1.011900 0.546500 0.338400
C120 C 0.962600 0.716390 0.223800
H121 H 0.939000 0.734300 0.300000
H122 H 1.056700 0.728600 0.193300
C123 C 0.835000 0.804000 0.180700
H124 H 0.857300 0.783200 0.105000
H125 H 0.831000 0.887500 0.190600
H126 H 0.696000 0.609000 0.532000
H127 H 0.390000 0.652000 0.179000
H128 H 0.991000 0.476000 0.099000

#END
