
#######################################################################
#
#                 Cambridge Crystallographic Data Centre
#                                CCDC 
#
#######################################################################
#
# If this CIF has been generated from an entry in the Cambridge 
# Structural Database, then it will include bibliographic, chemical, 
# crystal, experimental, refinement or atomic coordinate data resulting 
# from the CCDC's data processing and validation procedures.
#
#######################################################################

data_ABUBAA
_symmetry_cell_setting           triclinic
_symmetry_space_group_name_H-M   'P -1'
_symmetry_Int_Tables_number      2
_space_group_name_Hall           '-P 1'
loop_
_symmetry_equiv_pos_site_id
_symmetry_equiv_pos_as_xyz
1 x,y,z
2 -x,-y,-z
_cell_length_a                   9.957(1)
_cell_length_b                   11.970(1)
_cell_length_c                   13.347(1)
_cell_angle_alpha                89.36(1)
_cell_angle_beta                 77.21(1)
_cell_angle_gamma                67.19(1)
_cell_volume                     1425.04
loop_
_atom_site_label
_atom_site_type_symbol
_atom_site_fract_x
_atom_site_fract_y
_atom_site_fract_z
Br1 Br 0.30654(6) -0.39068(5) 0.01426(4)
Br2 Br 0.70146(6) -0.41894(5) 0.41400(4)
Br3 Br 0.26251(6) -0.38798(4) 0.33185(4)
O1 O -0.1413(3) 0.1033(2) 0.1990(2)
O2 O 0.5044(3) -0.0908(2) 0.0827(2)
O3 O 0.2373(3) 0.0516(2) 0.5594(2)
N1 N 0.0453(3) 0.1932(3) 0.1044(2)
N2 N 0.4867(3) 0.0881(3) 0.2011(2)
N3 N 0.1084(3) 0.1833(3) 0.4300(2)
N4 N 0.1888(3) 0.3020(3) 0.2291(2)
C1 C 0.0811(4) 0.3683(4) 0.1691(3)
C2 C 0.0901(5) 0.2922(4) 0.0753(3)
C3 C 0.1350(4) 0.0864(4) 0.0696(3)
C4 C 0.0999(4) -0.0188(4) 0.0944(3)
C5 C -0.0394(4) -0.0069(4) 0.1597(3)
C6 C -0.0665(4) -0.1098(4) 0.1828(3)
C7 C 0.0346(5) -0.2235(4) 0.1408(3)
C8 C 0.1688(5) -0.2360(4) 0.0747(3)
C9 C 0.2006(4) -0.1357(4) 0.0527(3)
C10 C 0.3367(4) 0.3028(3) 0.1821(3)
C11 C 0.4633(4) 0.2146(4) 0.2236(3)
C12 C 0.5167(4) 0.0149(4) 0.2704(3)
C13 C 0.5514(4) -0.1145(3) 0.2517(3)
C14 C 0.5445(4) -0.1627(4) 0.1602(3)
C15 C 0.5798(5) -0.2859(4) 0.1463(3)
C16 C 0.6270(5) -0.3620(4) 0.2211(4)
C17 C 0.6358(4) -0.3141(4) 0.3102(3)
C18 C 0.5984(4) -0.1933(4) 0.3273(3)
C19 C 0.1335(4) 0.3545(3) 0.3362(3)
C20 C 0.0271(4) 0.3028(4) 0.3981(3)
C21 C 0.1121(4) 0.0887(4) 0.3846(3)
C22 C 0.1832(4) -0.0314(3) 0.4188(3)
C23 C 0.2385(4) -0.0449(4) 0.5077(3)
C24 C 0.2961(4) -0.1590(4) 0.5437(3)
C25 C 0.3030(4) -0.2607(4) 0.4919(3)
C26 C 0.2511(4) -0.2467(3) 0.4028(3)
C27 C 0.1884(4) -0.1343(4) 0.3672(3)
H1 H -0.1265 0.1791 0.1882
H2 H 0.4979 -0.0037 0.1032
H3 H 0.2246 0.1356 0.5205
H4 H 0.0972 0.4478 0.1462
H5 H -0.0330 0.3973 0.2107
H6 H 0.1889 0.2603 0.0268
H7 H 0.0209 0.3479 0.0391
H8 H 0.2369 0.0740 0.0240
H9 H -0.1667 -0.0959 0.2269
H10 H 0.0116 -0.2938 0.1666
H11 H 0.2898 -0.1436 0.0051
H12 H 0.3379 0.3873 0.1839
H13 H 0.3536 0.2827 0.1122
H14 H 0.5527 0.2241 0.1905
H15 H 0.4418 0.2306 0.2976
H16 H 0.5103 0.0489 0.3378
H17 H 0.5706 -0.3237 0.0831
H18 H 0.6503 -0.4449 0.2107
H19 H 0.5935 -0.1540 0.3925
H20 H 0.2100 0.3360 0.3688
H21 H 0.0865 0.4526 0.3336
H22 H -0.0236 0.3583 0.4570
H23 H -0.0415 0.2899 0.3558
H24 H 0.0604 0.0950 0.3348
H25 H 0.3282 -0.1684 0.6019
H26 H 0.3479 -0.3418 0.5212
H27 H 0.1491 -0.1270 0.3075
Br1 Br 0.69346(6) 1.39068(5) 0.98574(4)
Br2 Br 0.29854(6) 1.41894(5) 0.58600(4)
Br3 Br 0.73749(6) 1.38798(4) 0.66815(4)
O1 O 1.1413(3) 0.8967(2) 0.8010(2)
O2 O 0.4956(3) 1.0908(2) 0.9173(2)
O3 O 0.7627(3) 0.9484(2) 0.4406(2)
N1 N 0.9547(3) 0.8068(3) 0.8956(2)
N2 N 0.5133(3) 0.9119(3) 0.7989(2)
N3 N 0.8916(3) 0.8167(3) 0.5700(2)
N4 N 0.8112(3) 0.6980(3) 0.7709(2)
C1 C 0.9189(4) 0.6317(4) 0.8309(3)
C2 C 0.9099(5) 0.7078(4) 0.9247(3)
C3 C 0.8650(4) 0.9136(4) 0.9304(3)
C4 C 0.9001(4) 1.0188(4) 0.9056(3)
C5 C 1.0394(4) 1.0069(4) 0.8403(3)
C6 C 1.0665(4) 1.1098(4) 0.8172(3)
C7 C 0.9654(5) 1.2235(4) 0.8592(3)
C8 C 0.8312(5) 1.2360(4) 0.9253(3)
C9 C 0.7994(4) 1.1357(4) 0.9473(3)
C10 C 0.6633(4) 0.6972(3) 0.8179(3)
C11 C 0.5367(4) 0.7854(4) 0.7764(3)
C12 C 0.4833(4) 0.9851(4) 0.7296(3)
C13 C 0.4486(4) 1.1145(3) 0.7483(3)
C14 C 0.4555(4) 1.1627(4) 0.8398(3)
C15 C 0.4202(5) 1.2859(4) 0.8537(3)
C16 C 0.3730(5) 1.3620(4) 0.7789(4)
C17 C 0.3642(4) 1.3141(4) 0.6898(3)
C18 C 0.4016(4) 1.1933(4) 0.6727(3)
C19 C 0.8665(4) 0.6455(3) 0.6638(3)
C20 C 0.9729(4) 0.6972(4) 0.6019(3)
C21 C 0.8879(4) 0.9113(4) 0.6154(3)
C22 C 0.8168(4) 1.0314(3) 0.5812(3)
C23 C 0.7615(4) 1.0449(4) 0.4923(3)
C24 C 0.7039(4) 1.1590(4) 0.4563(3)
C25 C 0.6970(4) 1.2607(4) 0.5081(3)
C26 C 0.7489(4) 1.2467(3) 0.5972(3)
C27 C 0.8116(4) 1.1343(4) 0.6328(3)
H1 H 1.1265 0.8209 0.8118
H2 H 0.5021 1.0037 0.8968
H3 H 0.7754 0.8644 0.4795
H4 H 0.9028 0.5522 0.8538
H5 H 1.0330 0.6027 0.7893
H6 H 0.8111 0.7397 0.9732
H7 H 0.9791 0.6521 0.9609
H8 H 0.7631 0.9260 0.9760
H9 H 1.1667 1.0959 0.7731
H10 H 0.9884 1.2938 0.8334
H11 H 0.7102 1.1436 0.9949
H12 H 0.6621 0.6127 0.8161
H13 H 0.6464 0.7173 0.8878
H14 H 0.4473 0.7759 0.8095
H15 H 0.5582 0.7694 0.7024
H16 H 0.4897 0.9511 0.6622
H17 H 0.4294 1.3237 0.9169
H18 H 0.3497 1.4449 0.7893
H19 H 0.4065 1.1540 0.6075
H20 H 0.7900 0.6640 0.6312
H21 H 0.9135 0.5474 0.6664
H22 H 1.0236 0.6417 0.5430
H23 H 1.0415 0.7101 0.6442
H24 H 0.9396 0.9050 0.6652
H25 H 0.6718 1.1684 0.3981
H26 H 0.6521 1.3418 0.4788
H27 H 0.8509 1.1270 0.6925

#END
