./ABUBAA_from_xyz.cif_generated_by_CrystalShift
_symmetry_cell_setting triclinic
_symmetry_space_group_name_H-M 'P 1'
loop_
_symmetry_equiv_pos_site_id
_symmetry_equiv_pos_as_xyz
1 x,y,z
_cell_length_a 9.957000
_cell_length_b 11.970000
_cell_length_c 13.347000
_cell_angle_alpha 89.360000
_cell_angle_beta 77.210000
_cell_angle_gamma 67.190000
_cell_volume 1425.037882
loop_
_atom_site_label
_atom_site_type_symbol
_atom_site_fract_x
_atom_site_fract_y
_atom_site_fract_z
Br1 Br 0.306540 -0.390680 0.014260
Br2 Br 0.701460 -0.418940 0.414000
Br3 Br 0.262510 -0.387980 0.331850
O4 O -0.141300 0.103300 0.199000
O5 O 0.504400 -0.090800 0.082700
O6 O 0.237300 0.051600 0.559400
N7 N 0.045300 0.193200 0.104400
N8 N 0.486700 0.088100 0.201100
N9 N 0.108400 0.183300 0.430000
N10 N 0.188800 0.302000 0.229100
C11 C 0.081100 0.368300 0.169100
C12 C 0.090100 0.292200 0.075300
C13 C 0.135000 0.086400 0.069600
C14 C 0.099900 -0.018800 0.094400
C15 C -0.039400 -0.006900 0.159700
C16 C -0.066500 -0.109800 0.182800
C17 C 0.034600 -0.223500 0.140800
C18 C 0.168800 -0.236000 0.074700
C19 C 0.200600 -0.135700 0.052700
C20 C 0.336700 0.302800 0.182100
C21 C 0.463300 0.214600 0.223600
C22 C 0.516700 0.014900 0.270400
C23 C 0.551400 -0.114500 0.251700
C24 C 0.544500 -0.162700 0.160200
C25 C 0.579800 -0.285900 0.146300
C26 C 0.627000 -0.362000 0.221100
C27 C 0.635800 -0.314100 0.310200
C28 C 0.598400 -0.193300 0.327300
C29 C 0.133500 0.354500 0.336200
C30 C 0.027100 0.302800 0.398100
C31 C 0.112100 0.088700 0.384600
C32 C 0.183200 -0.031400 0.418800
C33 C 0.238500 -0.044900 0.507700
C34 C 0.296100 -0.159000 0.543700
C35 C 0.303000 -0.260700 0.491900
C36 C 0.251100 -0.246700 0.402800
C37 C 0.188400 -0.134300 0.367200
H38 H -0.126500 0.179100 0.188200
H39 H 0.497900 -0.003700 0.103200
H40 H 0.224600 0.135600 0.520500
H41 H 0.097200 0.447800 0.146200
H42 H -0.033000 0.397300 0.210700
H43 H 0.188900 0.260300 0.026800
H44 H 0.020900 0.347900 0.039100
H45 H 0.236900 0.074000 0.024000
H46 H -0.166700 -0.095900 0.226900
H47 H 0.011600 -0.293800 0.166600
H48 H 0.289800 -0.143600 0.005100
H49 H 0.337900 0.387300 0.183900
H50 H 0.353600 0.282700 0.112200
H51 H 0.552700 0.224100 0.190500
H52 H 0.441800 0.230600 0.297600
H53 H 0.510300 0.048900 0.337800
H54 H 0.570600 -0.323700 0.083100
H55 H 0.650300 -0.444900 0.210700
H56 H 0.593500 -0.154000 0.392500
H57 H 0.210000 0.336000 0.368800
H58 H 0.086500 0.452600 0.333600
H59 H -0.023600 0.358300 0.457000
H60 H -0.041500 0.289900 0.355800
H61 H 0.060400 0.095000 0.334800
H62 H 0.328200 -0.168400 0.601900
H63 H 0.347900 -0.341800 0.521200
H64 H 0.149100 -0.127000 0.307500
Br65 Br 0.693460 1.390680 0.985740
Br66 Br 0.298540 1.418940 0.586000
Br67 Br 0.737490 1.387980 0.668150
O68 O 1.141300 0.896700 0.801000
O69 O 0.495600 1.090800 0.917300
O70 O 0.762700 0.948400 0.440600
N71 N 0.954700 0.806800 0.895600
N72 N 0.513300 0.911900 0.798900
N73 N 0.891600 0.816700 0.570000
N74 N 0.811200 0.698000 0.770900
C75 C 0.918900 0.631700 0.830900
C76 C 0.909900 0.707800 0.924700
C77 C 0.865000 0.913600 0.930400
C78 C 0.900100 1.018800 0.905600
C79 C 1.039400 1.006900 0.840300
C80 C 1.066500 1.109800 0.817200
C81 C 0.965400 1.223500 0.859200
C82 C 0.831200 1.236000 0.925300
C83 C 0.799400 1.135700 0.947300
C84 C 0.663300 0.697200 0.817900
C85 C 0.536700 0.785400 0.776400
C86 C 0.483300 0.985100 0.729600
C87 C 0.448600 1.114500 0.748300
C88 C 0.455500 1.162700 0.839800
C89 C 0.420200 1.285900 0.853700
C90 C 0.373000 1.362000 0.778900
C91 C 0.364200 1.314100 0.689800
C92 C 0.401600 1.193300 0.672700
C93 C 0.866500 0.645500 0.663800
C94 C 0.972900 0.697200 0.601900
C95 C 0.887900 0.911300 0.615400
C96 C 0.816800 1.031400 0.581200
C97 C 0.761500 1.044900 0.492300
C98 C 0.703900 1.159000 0.456300
C99 C 0.697000 1.260700 0.508100
C100 C 0.748900 1.246700 0.597200
C101 C 0.811600 1.134300 0.632800
H102 H 1.126500 0.820900 0.811800
H103 H 0.502100 1.003700 0.896800
H104 H 0.775400 0.864400 0.479500
H105 H 0.902800 0.552200 0.853800
H106 H 1.033000 0.602700 0.789300
H107 H 0.811100 0.739700 0.973200
H108 H 0.979100 0.652100 0.960900
H109 H 0.763100 0.926000 0.976000
H110 H 1.166700 1.095900 0.773100
H111 H 0.988400 1.293800 0.833400
H112 H 0.710200 1.143600 0.994900
H113 H 0.662100 0.612700 0.816100
H114 H 0.646400 0.717300 0.887800
H115 H 0.447300 0.775900 0.809500
H116 H 0.558200 0.769400 0.702400
H117 H 0.489700 0.951100 0.662200
H118 H 0.429400 1.323700 0.916900
H119 H 0.349700 1.444900 0.789300
H120 H 0.406500 1.154000 0.607500
H121 H 0.790000 0.664000 0.631200
H122 H 0.913500 0.547400 0.666400
H123 H 1.023600 0.641700 0.543000
H124 H 1.041500 0.710100 0.644200
H125 H 0.939600 0.905000 0.665200
H126 H 0.671800 1.168400 0.398100
H127 H 0.652100 1.341800 0.478800
H128 H 0.850900 1.127000 0.692500

#END
