
#######################################################################
#
#                 Cambridge Crystallographic Data Centre
#                                CCDC 
#
#######################################################################
#
# If this CIF has been generated from an entry in the Cambridge 
# Structural Database, then it will include bibliographic, chemical, 
# crystal, experimental, refinement or atomic coordinate data resulting 
# from the CCDC's data processing and validation procedures.
#
#######################################################################

data_ABUBAB
_symmetry_cell_setting           monoclinic
_symmetry_space_group_name_H-M   'P 21/n'
_symmetry_Int_Tables_number      14
_space_group_name_Hall           '-P 2yn'
loop_
_symmetry_equiv_pos_site_id
_symmetry_equiv_pos_as_xyz
1 x,y,z
2 1/2+x,1/2-y,1/2+z
3 -x,-y,-z
4 1/2-x,1/2+y,1/2-z
_cell_length_a                   8.687(2)
_cell_length_b                   7.887(2)
_cell_length_c                   13.353(3)
_cell_angle_alpha                90
_cell_angle_beta                 90.17(3)
_cell_angle_gamma                90
_cell_volume                     914.868
loop_
_atom_site_label
_atom_site_type_symbol
_atom_site_fract_x
_atom_site_fract_y
_atom_site_fract_z
C1 C 0.5383(3) 0.4308(3) 0.0130(2)
C2 C 0.6957(3) 0.3938(4) 0.0402(2)
C3 C 0.3261(4) 0.2460(6) 0.1572(2)
H1 H 0.4237(4) 0.2148(6) 0.1836(2)
C4 C 0.2598(5) 0.4096(5) 0.1571(2)
H2 H 0.3040(5) 0.5099(5) 0.1841(2)
C5 C 0.1163(4) 0.3954(5) 0.1096(3)
H3 H 0.0457(4) 0.4853(5) 0.0978(3)
C6 C 0.0963(4) 0.2329(5) 0.0836(3)
H4 H 0.0079(4) 0.1886(5) 0.0508(3)
C7 C 0.2212(4) 0.1414(4) 0.1113(3)
H5 H 0.2341(4) 0.0231(4) 0.1007(3)
C8 C 0.1838(6) 0.1624(7) -0.1318(3)
H6 H 0.0843(6) 0.1191(7) -0.1171(3)
C9 C 0.2155(4) 0.3100(6) -0.1799(3)
H7 H 0.1418(4) 0.3894(6) -0.2037(3)
C10 C 0.3699(4) 0.3244(4) -0.1881(2)
H8 H 0.4216(4) 0.4161(4) -0.2196(2)
C11 C 0.4400(4) 0.1912(4) -0.1454(2)
H9 H 0.5480(4) 0.1735(4) -0.1420(2)
C12 C 0.3288(7) 0.0838(5) -0.1073(3)
H10 H 0.3447(7) -0.0197(5) -0.0724(3)
Ti1 Ti 0.30943(5) 0.33562(6) -0.01248(3)
H11 H 0.7047(35) 0.3551(38) 0.1038(26)
H12 H 0.7445(36) 0.3279(36) -0.0048(23)
C1B C 0.4617(3) 0.5692(3) -0.0130(2)
C2B C 0.3043(3) 0.6062(4) -0.0402(2)
Ti1B Ti 0.69057(5) 0.66438(6) 0.01248(3)
C3B C 0.6739(4) 0.7540(6) -0.1572(2)
H1B H 0.5763(4) 0.7852(6) -0.1836(2)
C4B C 0.7402(5) 0.5904(5) -0.1571(2)
H2B H 0.6960(5) 0.4901(5) -0.1841(2)
C5B C 0.8837(4) 0.6046(5) -0.1096(3)
H3B H 0.9543(4) 0.5147(5) -0.0978(3)
C6B C 0.9037(4) 0.7671(5) -0.0836(3)
H4B H 0.9921(4) 0.8114(5) -0.0508(3)
C7B C 0.7788(4) 0.8586(4) -0.1113(3)
H5B H 0.7659(4) 0.9769(4) -0.1007(3)
C8B C 0.8162(6) 0.8376(7) 0.1318(3)
H6B H 0.9157(6) 0.8809(7) 0.1171(3)
C9B C 0.7845(4) 0.6900(6) 0.1799(3)
H7B H 0.8582(4) 0.6106(6) 0.2037(3)
C10B C 0.6301(4) 0.6756(4) 0.1881(2)
H8B H 0.5784(4) 0.5839(4) 0.2196(2)
C11B C 0.5600(4) 0.8088(4) 0.1454(2)
H9B H 0.4520(4) 0.8265(4) 0.1420(2)
C12B C 0.6712(7) 0.9162(5) 0.1073(3)
H10B H 0.6553(7) 1.0197(5) 0.0724(3)
H11B H 0.2953(35) 0.6449(38) -0.1038(26)
H12B H 0.2555(36) 0.6721(36) 0.0048(23)
C1 C 0.5383(3) 0.4308(3) 1.0130(2)
C2 C 0.6957(3) 0.3938(4) 1.0402(2)
C3 C 0.3261(4) 0.2460(6) 1.1572(2)
H1 H 0.4237(4) 0.2148(6) 1.1836(2)
C4 C 0.2598(5) 0.4096(5) 1.1571(2)
H2 H 0.3040(5) 0.5099(5) 1.1841(2)
C5 C 0.1163(4) 0.3954(5) 1.1096(3)
H3 H 0.0457(4) 0.4853(5) 1.0978(3)
C6 C 0.0963(4) 0.2329(5) 1.0836(3)
H4 H 0.0079(4) 0.1886(5) 1.0508(3)
C7 C 0.2212(4) 0.1414(4) 1.1113(3)
H5 H 0.2341(4) 0.0231(4) 1.1007(3)
C8 C 0.1838(6) 0.1624(7) 0.8682(3)
H6 H 0.0843(6) 0.1191(7) 0.8829(3)
C9 C 0.2155(4) 0.3100(6) 0.8201(3)
H7 H 0.1418(4) 0.3894(6) 0.7963(3)
C10 C 0.3699(4) 0.3244(4) 0.8119(2)
H8 H 0.4216(4) 0.4161(4) 0.7804(2)
C11 C 0.4400(4) 0.1912(4) 0.8546(2)
H9 H 0.5480(4) 0.1735(4) 0.8580(2)
C12 C 0.3288(7) 0.0838(5) 0.8927(3)
H10 H 0.3447(7) -0.0197(5) 0.9276(3)
Ti1 Ti 0.30943(5) 0.33562(6) 0.98752(3)
H11 H 0.7047(35) 0.3551(38) 1.1038(26)
H12 H 0.7445(36) 0.3279(36) 0.9952(23)
C1B C 0.4617(3) 0.5692(3) 0.9870(2)
C2B C 0.3043(3) 0.6062(4) 0.9598(2)
Ti1B Ti 0.69057(5) 0.66438(6) 1.01248(3)
C3B C 0.6739(4) 0.7540(6) 0.8428(2)
H1B H 0.5763(4) 0.7852(6) 0.8164(2)
C4B C 0.7402(5) 0.5904(5) 0.8429(2)
H2B H 0.6960(5) 0.4901(5) 0.8159(2)
C5B C 0.8837(4) 0.6046(5) 0.8904(3)
H3B H 0.9543(4) 0.5147(5) 0.9022(3)
C6B C 0.9037(4) 0.7671(5) 0.9164(3)
H4B H 0.9921(4) 0.8114(5) 0.9492(3)
C7B C 0.7788(4) 0.8586(4) 0.8887(3)
H5B H 0.7659(4) 0.9769(4) 0.8993(3)
C8B C 0.8162(6) 0.8376(7) 1.1318(3)
H6B H 0.9157(6) 0.8809(7) 1.1171(3)
C9B C 0.7845(4) 0.6900(6) 1.1799(3)
H7B H 0.8582(4) 0.6106(6) 1.2037(3)
C10B C 0.6301(4) 0.6756(4) 1.1881(2)
H8B H 0.5784(4) 0.5839(4) 1.2196(2)
C11B C 0.5600(4) 0.8088(4) 1.1454(2)
H9B H 0.4520(4) 0.8265(4) 1.1420(2)
C12B C 0.6712(7) 0.9162(5) 1.1073(3)
H10B H 0.6553(7) 1.0197(5) 1.0724(3)
H11B H 0.2953(35) 0.6449(38) 0.8962(26)
H12B H 0.2555(36) 0.6721(36) 1.0048(23)
C1 C 0.0383(3) 0.0692(3) 0.5130(2)
C2 C 0.1957(3) 0.1062(4) 0.5402(2)
C3 C -0.1739(4) 0.2540(6) 0.6572(2)
H1 H -0.0763(4) 0.2852(6) 0.6836(2)
C4 C -0.2402(5) 0.0904(5) 0.6571(2)
H2 H -0.1960(5) -0.0099(5) 0.6841(2)
C5 C -0.3837(4) 0.1046(5) 0.6096(3)
H3 H -0.4543(4) 0.0147(5) 0.5978(3)
C6 C -0.4037(4) 0.2671(5) 0.5836(3)
H4 H -0.4921(4) 0.3114(5) 0.5508(3)
C7 C -0.2788(4) 0.3586(4) 0.6113(3)
H5 H -0.2659(4) 0.4769(4) 0.6007(3)
C8 C -0.3162(6) 0.3376(7) 0.3682(3)
H6 H -0.4157(6) 0.3809(7) 0.3829(3)
C9 C -0.2845(4) 0.1900(6) 0.3201(3)
H7 H -0.3582(4) 0.1106(6) 0.2963(3)
C10 C -0.1301(4) 0.1756(4) 0.3119(2)
H8 H -0.0784(4) 0.0839(4) 0.2804(2)
C11 C -0.0600(4) 0.3088(4) 0.3546(2)
H9 H 0.0480(4) 0.3265(4) 0.3580(2)
C12 C -0.1712(7) 0.4162(5) 0.3927(3)
H10 H -0.1553(7) 0.5197(5) 0.4276(3)
Ti1 Ti -0.19057(5) 0.16438(6) 0.48752(3)
H11 H 0.2047(35) 0.1449(38) 0.6038(26)
H12 H 0.2445(36) 0.1721(36) 0.4952(23)
C1B C -0.0383(3) -0.0692(3) 0.4870(2)
C2B C -0.1957(3) -0.1062(4) 0.4598(2)
Ti1B Ti 0.19057(5) -0.16438(6) 0.51248(3)
C3B C 0.1739(4) -0.2540(6) 0.3428(2)
H1B H 0.0763(4) -0.2852(6) 0.3164(2)
C4B C 0.2402(5) -0.0904(5) 0.3429(2)
H2B H 0.1960(5) 0.0099(5) 0.3159(2)
C5B C 0.3837(4) -0.1046(5) 0.3904(3)
H3B H 0.4543(4) -0.0147(5) 0.4022(3)
C6B C 0.4037(4) -0.2671(5) 0.4164(3)
H4B H 0.4921(4) -0.3114(5) 0.4492(3)
C7B C 0.2788(4) -0.3586(4) 0.3887(3)
H5B H 0.2659(4) -0.4769(4) 0.3993(3)
C8B C 0.3162(6) -0.3376(7) 0.6318(3)
H6B H 0.4157(6) -0.3809(7) 0.6171(3)
C9B C 0.2845(4) -0.1900(6) 0.6799(3)
H7B H 0.3582(4) -0.1106(6) 0.7037(3)
C10B C 0.1301(4) -0.1756(4) 0.6881(2)
H8B H 0.0784(4) -0.0839(4) 0.7196(2)
C11B C 0.0600(4) -0.3088(4) 0.6454(2)
H9B H -0.0480(4) -0.3265(4) 0.6420(2)
C12B C 0.1712(7) -0.4162(5) 0.6073(3)
H10B H 0.1553(7) -0.5197(5) 0.5724(3)
H11B H -0.2047(35) -0.1449(38) 0.3962(26)
H12B H -0.2445(36) -0.1721(36) 0.5048(23)
C1 C 0.0383(3) 1.0692(3) 0.5130(2)
C2 C 0.1957(3) 1.1062(4) 0.5402(2)
C3 C -0.1739(4) 1.2540(6) 0.6572(2)
H1 H -0.0763(4) 1.2852(6) 0.6836(2)
C4 C -0.2402(5) 1.0904(5) 0.6571(2)
H2 H -0.1960(5) 0.9901(5) 0.6841(2)
C5 C -0.3837(4) 1.1046(5) 0.6096(3)
H3 H -0.4543(4) 1.0147(5) 0.5978(3)
C6 C -0.4037(4) 1.2671(5) 0.5836(3)
H4 H -0.4921(4) 1.3114(5) 0.5508(3)
C7 C -0.2788(4) 1.3586(4) 0.6113(3)
H5 H -0.2659(4) 1.4769(4) 0.6007(3)
C8 C -0.3162(6) 1.3376(7) 0.3682(3)
H6 H -0.4157(6) 1.3809(7) 0.3829(3)
C9 C -0.2845(4) 1.1900(6) 0.3201(3)
H7 H -0.3582(4) 1.1106(6) 0.2963(3)
C10 C -0.1301(4) 1.1756(4) 0.3119(2)
H8 H -0.0784(4) 1.0839(4) 0.2804(2)
C11 C -0.0600(4) 1.3088(4) 0.3546(2)
H9 H 0.0480(4) 1.3265(4) 0.3580(2)
C12 C -0.1712(7) 1.4162(5) 0.3927(3)
H10 H -0.1553(7) 1.5197(5) 0.4276(3)
Ti1 Ti -0.19057(5) 1.16438(6) 0.48752(3)
H11 H 0.2047(35) 1.1449(38) 0.6038(26)
H12 H 0.2445(36) 1.1721(36) 0.4952(23)
C1B C -0.0383(3) 0.9308(3) 0.4870(2)
C2B C -0.1957(3) 0.8938(4) 0.4598(2)
Ti1B Ti 0.19057(5) 0.83562(6) 0.51248(3)
C3B C 0.1739(4) 0.7460(6) 0.3428(2)
H1B H 0.0763(4) 0.7148(6) 0.3164(2)
C4B C 0.2402(5) 0.9096(5) 0.3429(2)
H2B H 0.1960(5) 1.0099(5) 0.3159(2)
C5B C 0.3837(4) 0.8954(5) 0.3904(3)
H3B H 0.4543(4) 0.9853(5) 0.4022(3)
C6B C 0.4037(4) 0.7329(5) 0.4164(3)
H4B H 0.4921(4) 0.6886(5) 0.4492(3)
C7B C 0.2788(4) 0.6414(4) 0.3887(3)
H5B H 0.2659(4) 0.5231(4) 0.3993(3)
C8B C 0.3162(6) 0.6624(7) 0.6318(3)
H6B H 0.4157(6) 0.6191(7) 0.6171(3)
C9B C 0.2845(4) 0.8100(6) 0.6799(3)
H7B H 0.3582(4) 0.8894(6) 0.7037(3)
C10B C 0.1301(4) 0.8244(4) 0.6881(2)
H8B H 0.0784(4) 0.9161(4) 0.7196(2)
C11B C 0.0600(4) 0.6912(4) 0.6454(2)
H9B H -0.0480(4) 0.6735(4) 0.6420(2)
C12B C 0.1712(7) 0.5838(5) 0.6073(3)
H10B H 0.1553(7) 0.4803(5) 0.5724(3)
H11B H -0.2047(35) 0.8551(38) 0.3962(26)
H12B H -0.2445(36) 0.8279(36) 0.5048(23)
C1 C 1.0383(3) 0.0692(3) 0.5130(2)
C2 C 1.1957(3) 0.1062(4) 0.5402(2)
C3 C 0.8261(4) 0.2540(6) 0.6572(2)
H1 H 0.9237(4) 0.2852(6) 0.6836(2)
C4 C 0.7598(5) 0.0904(5) 0.6571(2)
H2 H 0.8040(5) -0.0099(5) 0.6841(2)
C5 C 0.6163(4) 0.1046(5) 0.6096(3)
H3 H 0.5457(4) 0.0147(5) 0.5978(3)
C6 C 0.5963(4) 0.2671(5) 0.5836(3)
H4 H 0.5079(4) 0.3114(5) 0.5508(3)
C7 C 0.7212(4) 0.3586(4) 0.6113(3)
H5 H 0.7341(4) 0.4769(4) 0.6007(3)
C8 C 0.6838(6) 0.3376(7) 0.3682(3)
H6 H 0.5843(6) 0.3809(7) 0.3829(3)
C9 C 0.7155(4) 0.1900(6) 0.3201(3)
H7 H 0.6418(4) 0.1106(6) 0.2963(3)
C10 C 0.8699(4) 0.1756(4) 0.3119(2)
H8 H 0.9216(4) 0.0839(4) 0.2804(2)
C11 C 0.9400(4) 0.3088(4) 0.3546(2)
H9 H 1.0480(4) 0.3265(4) 0.3580(2)
C12 C 0.8288(7) 0.4162(5) 0.3927(3)
H10 H 0.8447(7) 0.5197(5) 0.4276(3)
Ti1 Ti 0.80943(5) 0.16438(6) 0.48752(3)
H11 H 1.2047(35) 0.1449(38) 0.6038(26)
H12 H 1.2445(36) 0.1721(36) 0.4952(23)
C1B C 0.9617(3) -0.0692(3) 0.4870(2)
C2B C 0.8043(3) -0.1062(4) 0.4598(2)
Ti1B Ti 1.19057(5) -0.16438(6) 0.51248(3)
C3B C 1.1739(4) -0.2540(6) 0.3428(2)
H1B H 1.0763(4) -0.2852(6) 0.3164(2)
C4B C 1.2402(5) -0.0904(5) 0.3429(2)
H2B H 1.1960(5) 0.0099(5) 0.3159(2)
C5B C 1.3837(4) -0.1046(5) 0.3904(3)
H3B H 1.4543(4) -0.0147(5) 0.4022(3)
C6B C 1.4037(4) -0.2671(5) 0.4164(3)
H4B H 1.4921(4) -0.3114(5) 0.4492(3)
C7B C 1.2788(4) -0.3586(4) 0.3887(3)
H5B H 1.2659(4) -0.4769(4) 0.3993(3)
C8B C 1.3162(6) -0.3376(7) 0.6318(3)
H6B H 1.4157(6) -0.3809(7) 0.6171(3)
C9B C 1.2845(4) -0.1900(6) 0.6799(3)
H7B H 1.3582(4) -0.1106(6) 0.7037(3)
C10B C 1.1301(4) -0.1756(4) 0.6881(2)
H8B H 1.0784(4) -0.0839(4) 0.7196(2)
C11B C 1.0600(4) -0.3088(4) 0.6454(2)
H9B H 0.9520(4) -0.3265(4) 0.6420(2)
C12B C 1.1712(7) -0.4162(5) 0.6073(3)
H10B H 1.1553(7) -0.5197(5) 0.5724(3)
H11B H 0.7953(35) -0.1449(38) 0.3962(26)
H12B H 0.7555(36) -0.1721(36) 0.5048(23)
C1 C 1.0383(3) 1.0692(3) 0.5130(2)
C2 C 1.1957(3) 1.1062(4) 0.5402(2)
C3 C 0.8261(4) 1.2540(6) 0.6572(2)
H1 H 0.9237(4) 1.2852(6) 0.6836(2)
C4 C 0.7598(5) 1.0904(5) 0.6571(2)
H2 H 0.8040(5) 0.9901(5) 0.6841(2)
C5 C 0.6163(4) 1.1046(5) 0.6096(3)
H3 H 0.5457(4) 1.0147(5) 0.5978(3)
C6 C 0.5963(4) 1.2671(5) 0.5836(3)
H4 H 0.5079(4) 1.3114(5) 0.5508(3)
C7 C 0.7212(4) 1.3586(4) 0.6113(3)
H5 H 0.7341(4) 1.4769(4) 0.6007(3)
C8 C 0.6838(6) 1.3376(7) 0.3682(3)
H6 H 0.5843(6) 1.3809(7) 0.3829(3)
C9 C 0.7155(4) 1.1900(6) 0.3201(3)
H7 H 0.6418(4) 1.1106(6) 0.2963(3)
C10 C 0.8699(4) 1.1756(4) 0.3119(2)
H8 H 0.9216(4) 1.0839(4) 0.2804(2)
C11 C 0.9400(4) 1.3088(4) 0.3546(2)
H9 H 1.0480(4) 1.3265(4) 0.3580(2)
C12 C 0.8288(7) 1.4162(5) 0.3927(3)
H10 H 0.8447(7) 1.5197(5) 0.4276(3)
Ti1 Ti 0.80943(5) 1.16438(6) 0.48752(3)
H11 H 1.2047(35) 1.1449(38) 0.6038(26)
H12 H 1.2445(36) 1.1721(36) 0.4952(23)
C1B C 0.9617(3) 0.9308(3) 0.4870(2)
C2B C 0.8043(3) 0.8938(4) 0.4598(2)
Ti1B Ti 1.19057(5) 0.83562(6) 0.51248(3)
C3B C 1.1739(4) 0.7460(6) 0.3428(2)
H1B H 1.0763(4) 0.7148(6) 0.3164(2)
C4B C 1.2402(5) 0.9096(5) 0.3429(2)
H2B H 1.1960(5) 1.0099(5) 0.3159(2)
C5B C 1.3837(4) 0.8954(5) 0.3904(3)
H3B H 1.4543(4) 0.9853(5) 0.4022(3)
C6B C 1.4037(4) 0.7329(5) 0.4164(3)
H4B H 1.4921(4) 0.6886(5) 0.4492(3)
C7B C 1.2788(4) 0.6414(4) 0.3887(3)
H5B H 1.2659(4) 0.5231(4) 0.3993(3)
C8B C 1.3162(6) 0.6624(7) 0.6318(3)
H6B H 1.4157(6) 0.6191(7) 0.6171(3)
C9B C 1.2845(4) 0.8100(6) 0.6799(3)
H7B H 1.3582(4) 0.8894(6) 0.7037(3)
C10B C 1.1301(4) 0.8244(4) 0.6881(2)
H8B H 1.0784(4) 0.9161(4) 0.7196(2)
C11B C 1.0600(4) 0.6912(4) 0.6454(2)
H9B H 0.9520(4) 0.6735(4) 0.6420(2)
C12B C 1.1712(7) 0.5838(5) 0.6073(3)
H10B H 1.1553(7) 0.4803(5) 0.5724(3)
H11B H 0.7953(35) 0.8551(38) 0.3962(26)
H12B H 0.7555(36) 0.8279(36) 0.5048(23)

#END
