./ABUBAB_from_xyz.cif_generated_by_CrystalShift
_symmetry_cell_setting triclinic
_symmetry_space_group_name_H-M 'P 1'
loop_
_symmetry_equiv_pos_site_id
_symmetry_equiv_pos_as_xyz
1 x,y,z
_cell_length_a 8.687000
_cell_length_b 7.887000
_cell_length_c 13.353000
_cell_angle_alpha 90.000000
_cell_angle_beta 90.170000
_cell_angle_gamma 90.000000
_cell_volume 914.868327
loop_
_atom_site_label
_atom_site_type_symbol
_atom_site_fract_x
_atom_site_fract_y
_atom_site_fract_z
C1 C 0.538300 0.430800 0.013000
C2 C 0.695700 0.393800 0.040200
C3 C 0.326100 0.246000 0.157200
H4 H 0.423700 0.214800 0.183600
C5 C 0.259800 0.409600 0.157100
H6 H 0.304000 0.509900 0.184100
C7 C 0.116300 0.395400 0.109600
H8 H 0.045700 0.485300 0.097800
C9 C 0.096300 0.232900 0.083600
H10 H 0.007900 0.188600 0.050800
C11 C 0.221200 0.141400 0.111300
H12 H 0.234100 0.023100 0.100700
C13 C 0.183800 0.162400 -0.131800
H14 H 0.084300 0.119100 -0.117100
C15 C 0.215500 0.310000 -0.179900
H16 H 0.141800 0.389400 -0.203700
C17 C 0.369900 0.324400 -0.188100
H18 H 0.421600 0.416100 -0.219600
C19 C 0.440000 0.191200 -0.145400
H20 H 0.548000 0.173500 -0.142000
C21 C 0.328800 0.083800 -0.107300
H22 H 0.344700 -0.019700 -0.072400
Ti23 Ti 0.309430 0.335620 -0.012480
H24 H 0.704700 0.355100 0.103800
H25 H 0.744500 0.327900 -0.004800
C26 C 0.461700 0.569200 -0.013000
C27 C 0.304300 0.606200 -0.040200
Ti28 Ti 0.690570 0.664380 0.012480
C29 C 0.673900 0.754000 -0.157200
H30 H 0.576300 0.785200 -0.183600
C31 C 0.740200 0.590400 -0.157100
H32 H 0.696000 0.490100 -0.184100
C33 C 0.883700 0.604600 -0.109600
H34 H 0.954300 0.514700 -0.097800
C35 C 0.903700 0.767100 -0.083600
H36 H 0.992100 0.811400 -0.050800
C37 C 0.778800 0.858600 -0.111300
H38 H 0.765900 0.976900 -0.100700
C39 C 0.816200 0.837600 0.131800
H40 H 0.915700 0.880900 0.117100
C41 C 0.784500 0.690000 0.179900
H42 H 0.858200 0.610600 0.203700
C43 C 0.630100 0.675600 0.188100
H44 H 0.578400 0.583900 0.219600
C45 C 0.560000 0.808800 0.145400
H46 H 0.452000 0.826500 0.142000
C47 C 0.671200 0.916200 0.107300
H48 H 0.655300 1.019700 0.072400
H49 H 0.295300 0.644900 -0.103800
H50 H 0.255500 0.672100 0.004800
C51 C 0.538300 0.430800 1.013000
C52 C 0.695700 0.393800 1.040200
C53 C 0.326100 0.246000 1.157200
H54 H 0.423700 0.214800 1.183600
C55 C 0.259800 0.409600 1.157100
H56 H 0.304000 0.509900 1.184100
C57 C 0.116300 0.395400 1.109600
H58 H 0.045700 0.485300 1.097800
C59 C 0.096300 0.232900 1.083600
H60 H 0.007900 0.188600 1.050800
C61 C 0.221200 0.141400 1.111300
H62 H 0.234100 0.023100 1.100700
C63 C 0.183800 0.162400 0.868200
H64 H 0.084300 0.119100 0.882900
C65 C 0.215500 0.310000 0.820100
H66 H 0.141800 0.389400 0.796300
C67 C 0.369900 0.324400 0.811900
H68 H 0.421600 0.416100 0.780400
C69 C 0.440000 0.191200 0.854600
H70 H 0.548000 0.173500 0.858000
C71 C 0.328800 0.083800 0.892700
H72 H 0.344700 -0.019700 0.927600
Ti73 Ti 0.309430 0.335620 0.987520
H74 H 0.704700 0.355100 1.103800
H75 H 0.744500 0.327900 0.995200
C76 C 0.461700 0.569200 0.987000
C77 C 0.304300 0.606200 0.959800
Ti78 Ti 0.690570 0.664380 1.012480
C79 C 0.673900 0.754000 0.842800
H80 H 0.576300 0.785200 0.816400
C81 C 0.740200 0.590400 0.842900
H82 H 0.696000 0.490100 0.815900
C83 C 0.883700 0.604600 0.890400
H84 H 0.954300 0.514700 0.902200
C85 C 0.903700 0.767100 0.916400
H86 H 0.992100 0.811400 0.949200
C87 C 0.778800 0.858600 0.888700
H88 H 0.765900 0.976900 0.899300
C89 C 0.816200 0.837600 1.131800
H90 H 0.915700 0.880900 1.117100
C91 C 0.784500 0.690000 1.179900
H92 H 0.858200 0.610600 1.203700
C93 C 0.630100 0.675600 1.188100
H94 H 0.578400 0.583900 1.219600
C95 C 0.560000 0.808800 1.145400
H96 H 0.452000 0.826500 1.142000
C97 C 0.671200 0.916200 1.107300
H98 H 0.655300 1.019700 1.072400
H99 H 0.295300 0.644900 0.896200
H100 H 0.255500 0.672100 1.004800
C101 C 0.038300 0.069200 0.513000
C102 C 0.195700 0.106200 0.540200
C103 C -0.173900 0.254000 0.657200
H104 H -0.076300 0.285200 0.683600
C105 C -0.240200 0.090400 0.657100
H106 H -0.196000 -0.009900 0.684100
C107 C -0.383700 0.104600 0.609600
H108 H -0.454300 0.014700 0.597800
C109 C -0.403700 0.267100 0.583600
H110 H -0.492100 0.311400 0.550800
C111 C -0.278800 0.358600 0.611300
H112 H -0.265900 0.476900 0.600700
C113 C -0.316200 0.337600 0.368200
H114 H -0.415700 0.380900 0.382900
C115 C -0.284500 0.190000 0.320100
H116 H -0.358200 0.110600 0.296300
C117 C -0.130100 0.175600 0.311900
H118 H -0.078400 0.083900 0.280400
C119 C -0.060000 0.308800 0.354600
H120 H 0.048000 0.326500 0.358000
C121 C -0.171200 0.416200 0.392700
H122 H -0.155300 0.519700 0.427600
Ti123 Ti -0.190570 0.164380 0.487520
H124 H 0.204700 0.144900 0.603800
H125 H 0.244500 0.172100 0.495200
C126 C -0.038300 -0.069200 0.487000
C127 C -0.195700 -0.106200 0.459800
Ti128 Ti 0.190570 -0.164380 0.512480
C129 C 0.173900 -0.254000 0.342800
H130 H 0.076300 -0.285200 0.316400
C131 C 0.240200 -0.090400 0.342900
H132 H 0.196000 0.009900 0.315900
C133 C 0.383700 -0.104600 0.390400
H134 H 0.454300 -0.014700 0.402200
C135 C 0.403700 -0.267100 0.416400
H136 H 0.492100 -0.311400 0.449200
C137 C 0.278800 -0.358600 0.388700
H138 H 0.265900 -0.476900 0.399300
C139 C 0.316200 -0.337600 0.631800
H140 H 0.415700 -0.380900 0.617100
C141 C 0.284500 -0.190000 0.679900
H142 H 0.358200 -0.110600 0.703700
C143 C 0.130100 -0.175600 0.688100
H144 H 0.078400 -0.083900 0.719600
C145 C 0.060000 -0.308800 0.645400
H146 H -0.048000 -0.326500 0.642000
C147 C 0.171200 -0.416200 0.607300
H148 H 0.155300 -0.519700 0.572400
H149 H -0.204700 -0.144900 0.396200
H150 H -0.244500 -0.172100 0.504800
C151 C 0.038300 1.069200 0.513000
C152 C 0.195700 1.106200 0.540200
C153 C -0.173900 1.254000 0.657200
H154 H -0.076300 1.285200 0.683600
C155 C -0.240200 1.090400 0.657100
H156 H -0.196000 0.990100 0.684100
C157 C -0.383700 1.104600 0.609600
H158 H -0.454300 1.014700 0.597800
C159 C -0.403700 1.267100 0.583600
H160 H -0.492100 1.311400 0.550800
C161 C -0.278800 1.358600 0.611300
H162 H -0.265900 1.476900 0.600700
C163 C -0.316200 1.337600 0.368200
H164 H -0.415700 1.380900 0.382900
C165 C -0.284500 1.190000 0.320100
H166 H -0.358200 1.110600 0.296300
C167 C -0.130100 1.175600 0.311900
H168 H -0.078400 1.083900 0.280400
C169 C -0.060000 1.308800 0.354600
H170 H 0.048000 1.326500 0.358000
C171 C -0.171200 1.416200 0.392700
H172 H -0.155300 1.519700 0.427600
Ti173 Ti -0.190570 1.164380 0.487520
H174 H 0.204700 1.144900 0.603800
H175 H 0.244500 1.172100 0.495200
C176 C -0.038300 0.930800 0.487000
C177 C -0.195700 0.893800 0.459800
Ti178 Ti 0.190570 0.835620 0.512480
C179 C 0.173900 0.746000 0.342800
H180 H 0.076300 0.714800 0.316400
C181 C 0.240200 0.909600 0.342900
H182 H 0.196000 1.009900 0.315900
C183 C 0.383700 0.895400 0.390400
H184 H 0.454300 0.985300 0.402200
C185 C 0.403700 0.732900 0.416400
H186 H 0.492100 0.688600 0.449200
C187 C 0.278800 0.641400 0.388700
H188 H 0.265900 0.523100 0.399300
C189 C 0.316200 0.662400 0.631800
H190 H 0.415700 0.619100 0.617100
C191 C 0.284500 0.810000 0.679900
H192 H 0.358200 0.889400 0.703700
C193 C 0.130100 0.824400 0.688100
H194 H 0.078400 0.916100 0.719600
C195 C 0.060000 0.691200 0.645400
H196 H -0.048000 0.673500 0.642000
C197 C 0.171200 0.583800 0.607300
H198 H 0.155300 0.480300 0.572400
H199 H -0.204700 0.855100 0.396200
H200 H -0.244500 0.827900 0.504800
C201 C 1.038300 0.069200 0.513000
C202 C 1.195700 0.106200 0.540200
C203 C 0.826100 0.254000 0.657200
H204 H 0.923700 0.285200 0.683600
C205 C 0.759800 0.090400 0.657100
H206 H 0.804000 -0.009900 0.684100
C207 C 0.616300 0.104600 0.609600
H208 H 0.545700 0.014700 0.597800
C209 C 0.596300 0.267100 0.583600
H210 H 0.507900 0.311400 0.550800
C211 C 0.721200 0.358600 0.611300
H212 H 0.734100 0.476900 0.600700
C213 C 0.683800 0.337600 0.368200
H214 H 0.584300 0.380900 0.382900
C215 C 0.715500 0.190000 0.320100
H216 H 0.641800 0.110600 0.296300
C217 C 0.869900 0.175600 0.311900
H218 H 0.921600 0.083900 0.280400
C219 C 0.940000 0.308800 0.354600
H220 H 1.048000 0.326500 0.358000
C221 C 0.828800 0.416200 0.392700
H222 H 0.844700 0.519700 0.427600
Ti223 Ti 0.809430 0.164380 0.487520
H224 H 1.204700 0.144900 0.603800
H225 H 1.244500 0.172100 0.495200
C226 C 0.961700 -0.069200 0.487000
C227 C 0.804300 -0.106200 0.459800
Ti228 Ti 1.190570 -0.164380 0.512480
C229 C 1.173900 -0.254000 0.342800
H230 H 1.076300 -0.285200 0.316400
C231 C 1.240200 -0.090400 0.342900
H232 H 1.196000 0.009900 0.315900
C233 C 1.383700 -0.104600 0.390400
H234 H 1.454300 -0.014700 0.402200
C235 C 1.403700 -0.267100 0.416400
H236 H 1.492100 -0.311400 0.449200
C237 C 1.278800 -0.358600 0.388700
H238 H 1.265900 -0.476900 0.399300
C239 C 1.316200 -0.337600 0.631800
H240 H 1.415700 -0.380900 0.617100
C241 C 1.284500 -0.190000 0.679900
H242 H 1.358200 -0.110600 0.703700
C243 C 1.130100 -0.175600 0.688100
H244 H 1.078400 -0.083900 0.719600
C245 C 1.060000 -0.308800 0.645400
H246 H 0.952000 -0.326500 0.642000
C247 C 1.171200 -0.416200 0.607300
H248 H 1.155300 -0.519700 0.572400
H249 H 0.795300 -0.144900 0.396200
H250 H 0.755500 -0.172100 0.504800
C251 C 1.038300 1.069200 0.513000
C252 C 1.195700 1.106200 0.540200
C253 C 0.826100 1.254000 0.657200
H254 H 0.923700 1.285200 0.683600
C255 C 0.759800 1.090400 0.657100
H256 H 0.804000 0.990100 0.684100
C257 C 0.616300 1.104600 0.609600
H258 H 0.545700 1.014700 0.597800
C259 C 0.596300 1.267100 0.583600
H260 H 0.507900 1.311400 0.550800
C261 C 0.721200 1.358600 0.611300
H262 H 0.734100 1.476900 0.600700
C263 C 0.683800 1.337600 0.368200
H264 H 0.584300 1.380900 0.382900
C265 C 0.715500 1.190000 0.320100
H266 H 0.641800 1.110600 0.296300
C267 C 0.869900 1.175600 0.311900
H268 H 0.921600 1.083900 0.280400
C269 C 0.940000 1.308800 0.354600
H270 H 1.048000 1.326500 0.358000
C271 C 0.828800 1.416200 0.392700
H272 H 0.844700 1.519700 0.427600
Ti273 Ti 0.809430 1.164380 0.487520
H274 H 1.204700 1.144900 0.603800
H275 H 1.244500 1.172100 0.495200
C276 C 0.961700 0.930800 0.487000
C277 C 0.804300 0.893800 0.459800
Ti278 Ti 1.190570 0.835620 0.512480
C279 C 1.173900 0.746000 0.342800
H280 H 1.076300 0.714800 0.316400
C281 C 1.240200 0.909600 0.342900
H282 H 1.196000 1.009900 0.315900
C283 C 1.383700 0.895400 0.390400
H284 H 1.454300 0.985300 0.402200
C285 C 1.403700 0.732900 0.416400
H286 H 1.492100 0.688600 0.449200
C287 C 1.278800 0.641400 0.388700
H288 H 1.265900 0.523100 0.399300
C289 C 1.316200 0.662400 0.631800
H290 H 1.415700 0.619100 0.617100
C291 C 1.284500 0.810000 0.679900
H292 H 1.358200 0.889400 0.703700
C293 C 1.130100 0.824400 0.688100
H294 H 1.078400 0.916100 0.719600
C295 C 1.060000 0.691200 0.645400
H296 H 0.952000 0.673500 0.642000
C297 C 1.171200 0.583800 0.607300
H298 H 1.155300 0.480300 0.572400
H299 H 0.795300 0.855100 0.396200
H300 H 0.755500 0.827900 0.504800

#END
