./ABUDAD01_from_xyz.cif_generated_by_CrystalShift
_symmetry_cell_setting triclinic
_symmetry_space_group_name_H-M 'P 1'
loop_
_symmetry_equiv_pos_site_id
_symmetry_equiv_pos_as_xyz
1 x,y,z
_cell_length_a 5.858000
_cell_length_b 7.629000
_cell_length_c 28.237000
_cell_angle_alpha 90.000000
_cell_angle_beta 97.970000
_cell_angle_gamma 90.000000
_cell_volume 1249.741538
loop_
_atom_site_label
_atom_site_type_symbol
_atom_site_fract_x
_atom_site_fract_y
_atom_site_fract_z
O1 O 1.035920 0.400590 0.260310
N2 N 0.838000 0.568700 0.199050
H3 H 0.876000 0.676900 0.203600
C4 C 0.744100 0.306320 0.189520
H5 H 0.827000 0.223600 0.171500
C6 C 0.559400 0.219300 0.214170
H7 H 0.631100 0.129500 0.235600
H8 H 0.494600 0.306300 0.233600
C9 C 0.364100 0.136150 0.180430
H10 H 0.302100 0.223500 0.157200
H11 H 0.242200 0.104000 0.198800
C12 C 0.428300 -0.024630 0.153630
H13 H 0.550800 0.006200 0.135300
H14 H 0.487600 -0.113700 0.176600
C15 C 0.226400 -0.100700 0.119910
H16 H 0.105300 -0.132800 0.138500
H17 H 0.277200 -0.207000 0.105700
C18 C 0.126200 0.023000 0.079900
H19 H -0.015600 -0.027400 0.063700
H20 H 0.087200 0.133000 0.094100
C21 C 0.285400 0.061500 0.042790
H22 H 0.442800 0.037800 0.057000
H23 H 0.248200 -0.018500 0.016200
C24 C 0.273600 0.248500 0.023610
H25 H 0.113300 0.277100 0.012900
H26 H 0.354500 0.253400 -0.004100
C27 C 0.374400 0.388100 0.059450
H28 H 0.297100 0.381200 0.087700
H29 H 0.343100 0.502900 0.045400
C30 C 0.631600 0.370400 0.074600
H31 H 0.661700 0.252900 0.087100
H32 H 0.707400 0.381200 0.046300
C33 C 0.743500 0.500300 0.111880
H34 H 0.703900 0.618100 0.100700
H35 H 0.909500 0.488500 0.114100
C36 C 0.677100 0.479980 0.161660
H37 H 0.516400 0.513200 0.162900
C38 C 0.904000 0.422610 0.223200
O39 O 1.035920 0.099410 0.760310
N40 N 0.838000 -0.068700 0.699050
H41 H 0.876000 -0.176900 0.703600
C42 C 0.744100 0.193680 0.689520
H43 H 0.827000 0.276400 0.671500
C44 C 0.559400 0.280700 0.714170
H45 H 0.631100 0.370500 0.735600
H46 H 0.494600 0.193700 0.733600
C47 C 0.364100 0.363850 0.680430
H48 H 0.302100 0.276500 0.657200
H49 H 0.242200 0.396000 0.698800
C50 C 0.428300 0.524630 0.653630
H51 H 0.550800 0.493800 0.635300
H52 H 0.487600 0.613700 0.676600
C53 C 0.226400 0.600700 0.619910
H54 H 0.105300 0.632800 0.638500
H55 H 0.277200 0.707000 0.605700
C56 C 0.126200 0.477000 0.579900
H57 H -0.015600 0.527400 0.563700
H58 H 0.087200 0.367000 0.594100
C59 C 0.285400 0.438500 0.542790
H60 H 0.442800 0.462200 0.557000
H61 H 0.248200 0.518500 0.516200
C62 C 0.273600 0.251500 0.523610
H63 H 0.113300 0.222900 0.512900
H64 H 0.354500 0.246600 0.495900
C65 C 0.374400 0.111900 0.559450
H66 H 0.297100 0.118800 0.587700
H67 H 0.343100 -0.002900 0.545400
C68 C 0.631600 0.129600 0.574600
H69 H 0.661700 0.247100 0.587100
H70 H 0.707400 0.118800 0.546300
C71 C 0.743500 -0.000300 0.611880
H72 H 0.703900 -0.118100 0.600700
H73 H 0.909500 0.011500 0.614100
C74 C 0.677100 0.020020 0.661660
H75 H 0.516400 -0.013200 0.662900
C76 C 0.904000 0.077390 0.723200
O77 O -0.035920 0.599410 0.739690
N78 N 0.162000 0.431300 0.800950
H79 H 0.124000 0.323100 0.796400
C80 C 0.255900 0.693680 0.810480
H81 H 0.173000 0.776400 0.828500
C82 C 0.440600 0.780700 0.785830
H83 H 0.368900 0.870500 0.764400
H84 H 0.505400 0.693700 0.766400
C85 C 0.635900 0.863850 0.819570
H86 H 0.697900 0.776500 0.842800
H87 H 0.757800 0.896000 0.801200
C88 C 0.571700 1.024630 0.846370
H89 H 0.449200 0.993800 0.864700
H90 H 0.512400 1.113700 0.823400
C91 C 0.773600 1.100700 0.880090
H92 H 0.894700 1.132800 0.861500
H93 H 0.722800 1.207000 0.894300
C94 C 0.873800 0.977000 0.920100
H95 H 1.015600 1.027400 0.936300
H96 H 0.912800 0.867000 0.905900
C97 C 0.714600 0.938500 0.957210
H98 H 0.557200 0.962200 0.943000
H99 H 0.751800 1.018500 0.983800
C100 C 0.726400 0.751500 0.976390
H101 H 0.886700 0.722900 0.987100
H102 H 0.645500 0.746600 1.004100
C103 C 0.625600 0.611900 0.940550
H104 H 0.702900 0.618800 0.912300
H105 H 0.656900 0.497100 0.954600
C106 C 0.368400 0.629600 0.925400
H107 H 0.338300 0.747100 0.912900
H108 H 0.292600 0.618800 0.953700
C109 C 0.256500 0.499700 0.888120
H110 H 0.296100 0.381900 0.899300
H111 H 0.090500 0.511500 0.885900
C112 C 0.322900 0.520020 0.838340
H113 H 0.483600 0.486800 0.837100
C114 C 0.096000 0.577390 0.776800
O115 O -0.035920 0.900590 0.239690
N116 N 0.162000 1.068700 0.300950
H117 H 0.124000 1.176900 0.296400
C118 C 0.255900 0.806320 0.310480
H119 H 0.173000 0.723600 0.328500
C120 C 0.440600 0.719300 0.285830
H121 H 0.368900 0.629500 0.264400
H122 H 0.505400 0.806300 0.266400
C123 C 0.635900 0.636150 0.319570
H124 H 0.697900 0.723500 0.342800
H125 H 0.757800 0.604000 0.301200
C126 C 0.571700 0.475370 0.346370
H127 H 0.449200 0.506200 0.364700
H128 H 0.512400 0.386300 0.323400
C129 C 0.773600 0.399300 0.380090
H130 H 0.894700 0.367200 0.361500
H131 H 0.722800 0.293000 0.394300
C132 C 0.873800 0.523000 0.420100
H133 H 1.015600 0.472600 0.436300
H134 H 0.912800 0.633000 0.405900
C135 C 0.714600 0.561500 0.457210
H136 H 0.557200 0.537800 0.443000
H137 H 0.751800 0.481500 0.483800
C138 C 0.726400 0.748500 0.476390
H139 H 0.886700 0.777100 0.487100
H140 H 0.645500 0.753400 0.504100
C141 C 0.625600 0.888100 0.440550
H142 H 0.702900 0.881200 0.412300
H143 H 0.656900 1.002900 0.454600
C144 C 0.368400 0.870400 0.425400
H145 H 0.338300 0.752900 0.412900
H146 H 0.292600 0.881200 0.453700
C147 C 0.256500 1.000300 0.388120
H148 H 0.296100 1.118100 0.399300
H149 H 0.090500 0.988500 0.385900
C150 C 0.322900 0.979980 0.338340
H151 H 0.483600 1.013200 0.337100
C152 C 0.096000 0.922610 0.276800

#END
