
#######################################################################
#
#                 Cambridge Crystallographic Data Centre
#                                CCDC 
#
#######################################################################
#
# If this CIF has been generated from an entry in the Cambridge 
# Structural Database, then it will include bibliographic, chemical, 
# crystal, experimental, refinement or atomic coordinate data resulting 
# from the CCDC's data processing and validation procedures.
#
#######################################################################

data_ABUDAD01
_symmetry_cell_setting           monoclinic
_symmetry_space_group_name_H-M   'P 21/c'
_symmetry_Int_Tables_number      14
_space_group_name_Hall           '-P 2ybc'
loop_
_symmetry_equiv_pos_site_id
_symmetry_equiv_pos_as_xyz
1 x,y,z
2 x,1/2-y,1/2+z
3 -x,-y,-z
4 -x,1/2+y,1/2-z
_cell_length_a                   5.858(1)
_cell_length_b                   7.629(1)
_cell_length_c                   28.237(3)
_cell_angle_alpha                90
_cell_angle_beta                 97.97(1)
_cell_angle_gamma                90
_cell_volume                     1249.74
loop_
_atom_site_label
_atom_site_type_symbol
_atom_site_fract_x
_atom_site_fract_y
_atom_site_fract_z
O1 O 1.03592(18) 0.40059(13) 0.26031(3)
N1 N 0.8380(2) 0.56870(15) 0.19905(4)
H1 H 0.8760 0.6769 0.2036
C1 C 0.7441(2) 0.30632(16) 0.18952(4)
H2 H 0.8270 0.2236 0.1715
C2 C 0.5594(2) 0.21930(18) 0.21417(4)
H3 H 0.6311 0.1295 0.2356
H4 H 0.4946 0.3063 0.2336
C3 C 0.3641(2) 0.13615(18) 0.18043(5)
H5 H 0.3021 0.2235 0.1572
H6 H 0.2422 0.1040 0.1988
C4 C 0.4283(3) -0.02463(19) 0.15363(5)
H7 H 0.5508 0.0062 0.1353
H8 H 0.4876 -0.1137 0.1766
C5 C 0.2264(3) -0.1007(2) 0.11991(6)
H9 H 0.1053 -0.1328 0.1385
H10 H 0.2772 -0.2070 0.1057
C6 C 0.1262(3) 0.0230(2) 0.07990(6)
H11 H -0.0156 -0.0274 0.0637
H12 H 0.0872 0.1330 0.0941
C7 C 0.2854(3) 0.0615(2) 0.04279(5)
H13 H 0.4428 0.0378 0.0570
H14 H 0.2482 -0.0185 0.0162
C8 C 0.2736(3) 0.2485(3) 0.02361(5)
H15 H 0.1133 0.2771 0.0129
H16 H 0.3545 0.2534 -0.0041
C9 C 0.3744(3) 0.3881(2) 0.05945(5)
H17 H 0.2971 0.3812 0.0877
H18 H 0.3431 0.5029 0.0454
C10 C 0.6316(3) 0.3704(2) 0.07460(5)
H19 H 0.6617 0.2529 0.0871
H20 H 0.7074 0.3812 0.0463
C11 C 0.7435(3) 0.5003(2) 0.11188(5)
H21 H 0.7039 0.6181 0.1007
H22 H 0.9095 0.4885 0.1141
C12 C 0.6771(2) 0.47998(17) 0.16166(5)
H23 H 0.5164 0.5132 0.1629
C13 C 0.9040(2) 0.42261(16) 0.22320(5)
O1 O 1.03592(18) 0.09941(13) 0.76031(3)
N1 N 0.8380(2) -0.06870(15) 0.69905(4)
H1 H 0.8760 -0.1769 0.7036
C1 C 0.7441(2) 0.19368(16) 0.68952(4)
H2 H 0.8270 0.2764 0.6715
C2 C 0.5594(2) 0.28070(18) 0.71417(4)
H3 H 0.6311 0.3705 0.7356
H4 H 0.4946 0.1937 0.7336
C3 C 0.3641(2) 0.36385(18) 0.68043(5)
H5 H 0.3021 0.2765 0.6572
H6 H 0.2422 0.3960 0.6988
C4 C 0.4283(3) 0.52463(19) 0.65363(5)
H7 H 0.5508 0.4938 0.6353
H8 H 0.4876 0.6137 0.6766
C5 C 0.2264(3) 0.6007(2) 0.61991(6)
H9 H 0.1053 0.6328 0.6385
H10 H 0.2772 0.7070 0.6057
C6 C 0.1262(3) 0.4770(2) 0.57990(6)
H11 H -0.0156 0.5274 0.5637
H12 H 0.0872 0.3670 0.5941
C7 C 0.2854(3) 0.4385(2) 0.54279(5)
H13 H 0.4428 0.4622 0.5570
H14 H 0.2482 0.5185 0.5162
C8 C 0.2736(3) 0.2515(3) 0.52361(5)
H15 H 0.1133 0.2229 0.5129
H16 H 0.3545 0.2466 0.4959
C9 C 0.3744(3) 0.1119(2) 0.55945(5)
H17 H 0.2971 0.1188 0.5877
H18 H 0.3431 -0.0029 0.5454
C10 C 0.6316(3) 0.1296(2) 0.57460(5)
H19 H 0.6617 0.2471 0.5871
H20 H 0.7074 0.1188 0.5463
C11 C 0.7435(3) -0.0003(2) 0.61188(5)
H21 H 0.7039 -0.1181 0.6007
H22 H 0.9095 0.0115 0.6141
C12 C 0.6771(2) 0.02002(17) 0.66166(5)
H23 H 0.5164 -0.0132 0.6629
C13 C 0.9040(2) 0.07739(16) 0.72320(5)
O1 O -0.03592(18) 0.59941(13) 0.73969(3)
N1 N 0.1620(2) 0.43130(15) 0.80095(4)
H1 H 0.1240 0.3231 0.7964
C1 C 0.2559(2) 0.69368(16) 0.81048(4)
H2 H 0.1730 0.7764 0.8285
C2 C 0.4406(2) 0.78070(18) 0.78583(4)
H3 H 0.3689 0.8705 0.7644
H4 H 0.5054 0.6937 0.7664
C3 C 0.6359(2) 0.86385(18) 0.81957(5)
H5 H 0.6979 0.7765 0.8428
H6 H 0.7578 0.8960 0.8012
C4 C 0.5717(3) 1.02463(19) 0.84637(5)
H7 H 0.4492 0.9938 0.8647
H8 H 0.5124 1.1137 0.8234
C5 C 0.7736(3) 1.1007(2) 0.88009(6)
H9 H 0.8947 1.1328 0.8615
H10 H 0.7228 1.2070 0.8943
C6 C 0.8738(3) 0.9770(2) 0.92010(6)
H11 H 1.0156 1.0274 0.9363
H12 H 0.9128 0.8670 0.9059
C7 C 0.7146(3) 0.9385(2) 0.95721(5)
H13 H 0.5572 0.9622 0.9430
H14 H 0.7518 1.0185 0.9838
C8 C 0.7264(3) 0.7515(3) 0.97639(5)
H15 H 0.8867 0.7229 0.9871
H16 H 0.6455 0.7466 1.0041
C9 C 0.6256(3) 0.6119(2) 0.94055(5)
H17 H 0.7029 0.6188 0.9123
H18 H 0.6569 0.4971 0.9546
C10 C 0.3684(3) 0.6296(2) 0.92540(5)
H19 H 0.3383 0.7471 0.9129
H20 H 0.2926 0.6188 0.9537
C11 C 0.2565(3) 0.4997(2) 0.88812(5)
H21 H 0.2961 0.3819 0.8993
H22 H 0.0905 0.5115 0.8859
C12 C 0.3229(2) 0.52002(17) 0.83834(5)
H23 H 0.4836 0.4868 0.8371
C13 C 0.0960(2) 0.57739(16) 0.77680(5)
O1 O -0.03592(18) 0.90059(13) 0.23969(3)
N1 N 0.1620(2) 1.06870(15) 0.30095(4)
H1 H 0.1240 1.1769 0.2964
C1 C 0.2559(2) 0.80632(16) 0.31048(4)
H2 H 0.1730 0.7236 0.3285
C2 C 0.4406(2) 0.71930(18) 0.28583(4)
H3 H 0.3689 0.6295 0.2644
H4 H 0.5054 0.8063 0.2664
C3 C 0.6359(2) 0.63615(18) 0.31957(5)
H5 H 0.6979 0.7235 0.3428
H6 H 0.7578 0.6040 0.3012
C4 C 0.5717(3) 0.47537(19) 0.34637(5)
H7 H 0.4492 0.5062 0.3647
H8 H 0.5124 0.3863 0.3234
C5 C 0.7736(3) 0.3993(2) 0.38009(6)
H9 H 0.8947 0.3672 0.3615
H10 H 0.7228 0.2930 0.3943
C6 C 0.8738(3) 0.5230(2) 0.42010(6)
H11 H 1.0156 0.4726 0.4363
H12 H 0.9128 0.6330 0.4059
C7 C 0.7146(3) 0.5615(2) 0.45721(5)
H13 H 0.5572 0.5378 0.4430
H14 H 0.7518 0.4815 0.4838
C8 C 0.7264(3) 0.7485(3) 0.47639(5)
H15 H 0.8867 0.7771 0.4871
H16 H 0.6455 0.7534 0.5041
C9 C 0.6256(3) 0.8881(2) 0.44055(5)
H17 H 0.7029 0.8812 0.4123
H18 H 0.6569 1.0029 0.4546
C10 C 0.3684(3) 0.8704(2) 0.42540(5)
H19 H 0.3383 0.7529 0.4129
H20 H 0.2926 0.8812 0.4537
C11 C 0.2565(3) 1.0003(2) 0.38812(5)
H21 H 0.2961 1.1181 0.3993
H22 H 0.0905 0.9885 0.3859
C12 C 0.3229(2) 0.97998(17) 0.33834(5)
H23 H 0.4836 1.0132 0.3371
C13 C 0.0960(2) 0.92261(16) 0.27680(5)

#END
