./ABUFAG_from_xyz.cif_generated_by_CrystalShift
_symmetry_cell_setting triclinic
_symmetry_space_group_name_H-M 'P 1'
loop_
_symmetry_equiv_pos_site_id
_symmetry_equiv_pos_as_xyz
1 x,y,z
_cell_length_a 8.818600
_cell_length_b 19.501500
_cell_length_c 9.133000
_cell_angle_alpha 90.000000
_cell_angle_beta 110.067000
_cell_angle_gamma 90.000000
_cell_volume 1475.304784
loop_
_atom_site_label
_atom_site_type_symbol
_atom_site_fract_x
_atom_site_fract_y
_atom_site_fract_z
N1 N 0.496760 0.060210 0.633820
O2 O 1.080900 0.113930 0.798470
O3 O 1.185810 0.201920 0.643320
O4 O 0.229450 0.039600 0.517500
O5 O 0.166350 0.113440 0.313730
C6 C 0.377230 -0.127040 0.965370
H7 H 0.378800 -0.160500 1.041400
C8 C 0.232200 -0.108100 0.854600
H9 H 0.134800 -0.129200 0.853600
C10 C 0.228220 -0.058420 0.744820
H11 H 0.128400 -0.045400 0.668700
C12 C 0.371350 -0.027810 0.746840
C13 C 0.517820 -0.048070 0.857580
H14 H 0.615800 -0.027700 0.857900
C15 C 0.520610 -0.097490 0.966390
H16 H 0.620300 -0.111200 1.041700
C17 C 0.373460 0.025040 0.635400
C18 C 0.266420 0.090820 0.428810
C19 C 0.439190 0.104330 0.505720
C20 C 0.520920 0.150630 0.452010
H21 H 0.456800 0.176900 0.365300
C22 C 0.691440 0.166230 0.506720
C23 C 0.750220 0.213680 0.425460
H24 H 0.676700 0.237000 0.338700
C25 C 0.913870 0.227610 0.468700
H26 H 0.951300 0.260700 0.412700
C27 C 1.022710 0.193430 0.593260
C28 C 0.965310 0.144920 0.676870
C29 C 0.802450 0.132260 0.634870
H30 H 0.764600 0.100300 0.692900
C31 C 1.245630 0.254950 0.568910
H32 H 1.363700 0.256400 0.613800
H33 H 1.201300 0.299200 0.585100
H34 H 1.212800 0.245500 0.457000
C35 C 1.025500 0.064920 0.884650
H36 H 1.118100 0.045600 0.968000
H37 H 0.967600 0.028100 0.814900
H38 H 0.952800 0.087400 0.930300
N39 N 0.503240 0.560210 0.866180
O40 O -0.080900 0.613930 0.701530
O41 O -0.185810 0.701920 0.856680
O42 O 0.770550 0.539600 0.982500
O43 O 0.833650 0.613440 1.186270
C44 C 0.622770 0.372960 0.534630
H45 H 0.621200 0.339500 0.458600
C46 C 0.767800 0.391900 0.645400
H47 H 0.865200 0.370800 0.646400
C48 C 0.771780 0.441580 0.755180
H49 H 0.871600 0.454600 0.831300
C50 C 0.628650 0.472190 0.753160
C51 C 0.482180 0.451930 0.642420
H52 H 0.384200 0.472300 0.642100
C53 C 0.479390 0.402510 0.533610
H54 H 0.379700 0.388800 0.458300
C55 C 0.626540 0.525040 0.864600
C56 C 0.733580 0.590820 1.071190
C57 C 0.560810 0.604330 0.994280
C58 C 0.479080 0.650630 1.047990
H59 H 0.543200 0.676900 1.134700
C60 C 0.308560 0.666230 0.993280
C61 C 0.249780 0.713680 1.074540
H62 H 0.323300 0.737000 1.161300
C63 C 0.086130 0.727610 1.031300
H64 H 0.048700 0.760700 1.087300
C65 C -0.022710 0.693430 0.906740
C66 C 0.034690 0.644920 0.823130
C67 C 0.197550 0.632260 0.865130
H68 H 0.235400 0.600300 0.807100
C69 C -0.245630 0.754950 0.931090
H70 H -0.363700 0.756400 0.886200
H71 H -0.201300 0.799200 0.914900
H72 H -0.212800 0.745500 1.043000
C73 C -0.025500 0.564920 0.615350
H74 H -0.118100 0.545600 0.532000
H75 H 0.032400 0.528100 0.685100
H76 H 0.047200 0.587400 0.569700
N77 N 0.503240 0.939790 0.366180
O78 O -0.080900 0.886070 0.201530
O79 O -0.185810 0.798080 0.356680
O80 O 0.770550 0.960400 0.482500
O81 O 0.833650 0.886560 0.686270
C82 C 0.622770 1.127040 0.034630
H83 H 0.621200 1.160500 -0.041400
C84 C 0.767800 1.108100 0.145400
H85 H 0.865200 1.129200 0.146400
C86 C 0.771780 1.058420 0.255180
H87 H 0.871600 1.045400 0.331300
C88 C 0.628650 1.027810 0.253160
C89 C 0.482180 1.048070 0.142420
H90 H 0.384200 1.027700 0.142100
C91 C 0.479390 1.097490 0.033610
H92 H 0.379700 1.111200 -0.041700
C93 C 0.626540 0.974960 0.364600
C94 C 0.733580 0.909180 0.571190
C95 C 0.560810 0.895670 0.494280
C96 C 0.479080 0.849370 0.547990
H97 H 0.543200 0.823100 0.634700
C98 C 0.308560 0.833770 0.493280
C99 C 0.249780 0.786320 0.574540
H100 H 0.323300 0.763000 0.661300
C101 C 0.086130 0.772390 0.531300
H102 H 0.048700 0.739300 0.587300
C103 C -0.022710 0.806570 0.406740
C104 C 0.034690 0.855080 0.323130
C105 C 0.197550 0.867740 0.365130
H106 H 0.235400 0.899700 0.307100
C107 C -0.245630 0.745050 0.431090
H108 H -0.363700 0.743600 0.386200
H109 H -0.201300 0.700800 0.414900
H110 H -0.212800 0.754500 0.543000
C111 C -0.025500 0.935080 0.115350
H112 H -0.118100 0.954400 0.032000
H113 H 0.032400 0.971900 0.185100
H114 H 0.047200 0.912600 0.069700
N115 N 0.496760 0.439790 0.133820
O116 O 1.080900 0.386070 0.298470
O117 O 1.185810 0.298080 0.143320
O118 O 0.229450 0.460400 0.017500
O119 O 0.166350 0.386560 -0.186270
C120 C 0.377230 0.627040 0.465370
H121 H 0.378800 0.660500 0.541400
C122 C 0.232200 0.608100 0.354600
H123 H 0.134800 0.629200 0.353600
C124 C 0.228220 0.558420 0.244820
H125 H 0.128400 0.545400 0.168700
C126 C 0.371350 0.527810 0.246840
C127 C 0.517820 0.548070 0.357580
H128 H 0.615800 0.527700 0.357900
C129 C 0.520610 0.597490 0.466390
H130 H 0.620300 0.611200 0.541700
C131 C 0.373460 0.474960 0.135400
C132 C 0.266420 0.409180 -0.071190
C133 C 0.439190 0.395670 0.005720
C134 C 0.520920 0.349370 -0.047990
H135 H 0.456800 0.323100 -0.134700
C136 C 0.691440 0.333770 0.006720
C137 C 0.750220 0.286320 -0.074540
H138 H 0.676700 0.263000 -0.161300
C139 C 0.913870 0.272390 -0.031300
H140 H 0.951300 0.239300 -0.087300
C141 C 1.022710 0.306570 0.093260
C142 C 0.965310 0.355080 0.176870
C143 C 0.802450 0.367740 0.134870
H144 H 0.764600 0.399700 0.192900
C145 C 1.245630 0.245050 0.068910
H146 H 1.363700 0.243600 0.113800
H147 H 1.201300 0.200800 0.085100
H148 H 1.212800 0.254500 -0.043000
C149 C 1.025500 0.435080 0.384650
H150 H 1.118100 0.454400 0.468000
H151 H 0.967600 0.471900 0.314900
H152 H 0.952800 0.412600 0.430300

#END
