
#######################################################################
#
#                 Cambridge Crystallographic Data Centre
#                                CCDC 
#
#######################################################################
#
# If this CIF has been generated from an entry in the Cambridge 
# Structural Database, then it will include bibliographic, chemical, 
# crystal, experimental, refinement or atomic coordinate data resulting 
# from the CCDC's data processing and validation procedures.
#
#######################################################################

data_ABUGIN
_symmetry_cell_setting           monoclinic
_symmetry_space_group_name_H-M   'P c'
_symmetry_Int_Tables_number      7
_space_group_name_Hall           'P -2yc'
loop_
_symmetry_equiv_pos_site_id
_symmetry_equiv_pos_as_xyz
1 x,y,z
2 x,-y,1/2+z
_cell_length_a                   7.5752(8)
_cell_length_b                   15.683(2)
_cell_length_c                   7.5158(8)
_cell_angle_alpha                90
_cell_angle_beta                 107.045(4)
_cell_angle_gamma                90
_cell_volume                     853.671
loop_
_atom_site_label
_atom_site_type_symbol
_atom_site_fract_x
_atom_site_fract_y
_atom_site_fract_z
O1 O 0.3651(4) 0.3278(2) 0.4973(4)
O2 O 0.4907(5) 0.3014(2) 0.0803(5)
O3 O 0.5311(4) 0.4079(2) 0.2864(5)
O4 O 0.0046(4) 0.3391(2) 0.2823(4)
O5 O 0.0126(6) 0.2954(2) -0.1322(4)
O6 O 0.5845(5) 0.1093(2) 0.4129(7)
O7 O 0.1416(5) 0.4138(2) 0.0161(4)
N1 N 0.0190(5) 0.1345(2) 0.1538(5)
C1 C 0.0979(6) 0.0527(3) 0.1979(6)
C2 C -0.0158(8) -0.0193(3) 0.1553(7)
C3 C 0.0589(9) -0.0992(3) 0.2045(7)
C4 C 0.2448(10) -0.1089(3) 0.2934(8)
C5 C 0.3570(8) -0.0394(3) 0.3336(7)
C6 C 0.2892(6) 0.0444(3) 0.2879(6)
C7 C 0.4161(6) 0.1168(3) 0.3415(6)
C8 C 0.3182(5) 0.1963(3) 0.3002(5)
C9 C 0.1343(5) 0.1996(3) 0.2097(5)
C10 C -0.1769(7) 0.1466(3) 0.0608(8)
C11 C 0.3423(6) 0.2924(3) 0.3188(5)
C12 C 0.1238(5) 0.2961(3) 0.2015(5)
C13 C 0.5265(9) 0.2971(4) 0.6348(7)
C14 C 0.4662(6) 0.3324(3) 0.2169(6)
C15 C 0.6223(9) 0.4577(4) 0.1786(10)
C16 C -0.0377(7) 0.2975(4) 0.4344(7)
C17 C 0.0851(6) 0.3340(3) 0.0083(6)
C18 C 0.1312(10) 0.4556(4) -0.1605(8)
H1 H -0.1528(90) -0.0171(36) 0.0906(79)
H2 H -0.030(10) -0.1418(52) 0.1748(97)
H3 H 0.3112(83) -0.1663(43) 0.3364(85)
H4 H 0.4937(81) -0.0410(33) 0.3983(77)
H5 H -0.2642(89) 0.1310(40) 0.1230(86)
H6 H -0.1878(82) 0.2197(40) 0.0443(87)
H7 H -0.1951(67) 0.1208(31) -0.0564(79)
H8 H 0.5103(74) 0.3186(33) 0.7497(86)
H9 H 0.5285(77) 0.2329(44) 0.6400(78)
H10 H 0.643(13) 0.2950(58) 0.586(13)
H11 H 0.699(12) 0.4258(57) 0.127(12)
H12 H 0.732(23) 0.5063(97) 0.226(24)
H13 H 0.507(13) 0.4673(53) 0.035(13)
H14 H -0.1098(74) 0.3407(37) 0.4852(75)
H15 H 0.0979(87) 0.2779(39) 0.5259(91)
H16 H -0.109(10) 0.2454(44) 0.393(10)
H17 H 0.0043(85) 0.4533(32) -0.2242(77)
H18 H 0.1964(73) 0.4232(36) -0.2134(74)
H19 H 0.165(11) 0.5163(53) -0.149(10)
O1 O 0.3651(4) 0.6722(2) 0.9973(4)
O2 O 0.4907(5) 0.6986(2) 0.5803(5)
O3 O 0.5311(4) 0.5921(2) 0.7864(5)
O4 O 0.0046(4) 0.6609(2) 0.7823(4)
O5 O 0.0126(6) 0.7046(2) 0.3678(4)
O6 O 0.5845(5) 0.8907(2) 0.9129(7)
O7 O 0.1416(5) 0.5862(2) 0.5161(4)
N1 N 0.0190(5) 0.8655(2) 0.6538(5)
C1 C 0.0979(6) 0.9473(3) 0.6979(6)
C2 C -0.0158(8) 1.0193(3) 0.6553(7)
C3 C 0.0589(9) 1.0992(3) 0.7045(7)
C4 C 0.2448(10) 1.1089(3) 0.7934(8)
C5 C 0.3570(8) 1.0394(3) 0.8336(7)
C6 C 0.2892(6) 0.9556(3) 0.7879(6)
C7 C 0.4161(6) 0.8832(3) 0.8415(6)
C8 C 0.3182(5) 0.8037(3) 0.8002(5)
C9 C 0.1343(5) 0.8004(3) 0.7097(5)
C10 C -0.1769(7) 0.8534(3) 0.5608(8)
C11 C 0.3423(6) 0.7076(3) 0.8188(5)
C12 C 0.1238(5) 0.7039(3) 0.7015(5)
C13 C 0.5265(9) 0.7029(4) 1.1348(7)
C14 C 0.4662(6) 0.6676(3) 0.7169(6)
C15 C 0.6223(9) 0.5423(4) 0.6786(10)
C16 C -0.0377(7) 0.7025(4) 0.9344(7)
C17 C 0.0851(6) 0.6660(3) 0.5083(6)
C18 C 0.1312(10) 0.5444(4) 0.3395(8)
H1 H -0.1528(90) 1.0171(36) 0.5906(79)
H2 H -0.030(10) 1.1418(52) 0.6748(97)
H3 H 0.3112(83) 1.1663(43) 0.8364(85)
H4 H 0.4937(81) 1.0410(33) 0.8983(77)
H5 H -0.2642(89) 0.8690(40) 0.6230(86)
H6 H -0.1878(82) 0.7803(40) 0.5443(87)
H7 H -0.1951(67) 0.8792(31) 0.4436(79)
H8 H 0.5103(74) 0.6814(33) 1.2497(86)
H9 H 0.5285(77) 0.7671(44) 1.1400(78)
H10 H 0.643(13) 0.7050(58) 1.086(13)
H11 H 0.699(12) 0.5742(57) 0.627(12)
H12 H 0.732(23) 0.4937(97) 0.726(24)
H13 H 0.507(13) 0.5327(53) 0.535(13)
H14 H -0.1098(74) 0.6593(37) 0.9852(75)
H15 H 0.0979(87) 0.7221(39) 1.0259(91)
H16 H -0.109(10) 0.7546(44) 0.893(10)
H17 H 0.0043(85) 0.5467(32) 0.2758(77)
H18 H 0.1964(73) 0.5768(36) 0.2866(74)
H19 H 0.165(11) 0.4837(53) 0.351(10)

#END
