
#######################################################################
#
#                 Cambridge Crystallographic Data Centre
#                                CCDC 
#
#######################################################################
#
# If this CIF has been generated from an entry in the Cambridge 
# Structural Database, then it will include bibliographic, chemical, 
# crystal, experimental, refinement or atomic coordinate data resulting 
# from the CCDC's data processing and validation procedures.
#
#######################################################################

data_ABUHUA
_symmetry_cell_setting           monoclinic
_symmetry_space_group_name_H-M   'P 21/n'
_symmetry_Int_Tables_number      14
_space_group_name_Hall           '-P 2yn'
loop_
_symmetry_equiv_pos_site_id
_symmetry_equiv_pos_as_xyz
1 x,y,z
2 1/2-x,1/2+y,1/2-z
3 -x,-y,-z
4 1/2+x,1/2-y,1/2+z
_cell_length_a                   12.7990(15)
_cell_length_b                   6.6870(13)
_cell_length_c                   18.925(3)
_cell_angle_alpha                90
_cell_angle_beta                 93.641(10)
_cell_angle_gamma                90
_cell_volume                     1616.46
loop_
_atom_site_label
_atom_site_type_symbol
_atom_site_fract_x
_atom_site_fract_y
_atom_site_fract_z
Cl1 Cl 0.59922(11) 0.8368(3) 0.02065(8)
Cl2 Cl 1.09062(10) 0.7348(2) 0.06396(7)
O1 O 0.7279(3) 0.8178(7) 0.1569(2)
O2 O 0.9364(3) 0.7793(8) 0.1719(2)
O3 O 0.7564(3) 0.8067(7) -0.0895(2)
O4 O 0.9644(3) 0.7576(7) -0.0723(2)
C13 C 0.7333(4) 0.8117(9) 0.0328(3)
C14 C 0.7776(4) 0.8063(8) 0.1008(3)
C15 C 0.8968(4) 0.7830(9) 0.1116(3)
C16 C 0.9567(4) 0.7641(8) 0.0508(3)
C17 C 0.9107(4) 0.7720(8) -0.0166(3)
C18 C 0.7923(4) 0.7984(8) -0.0278(3)
H2 H 0.9263(74) 0.764(13) -0.1200(52)
Cl1 Cl 0.90078(11) 0.3368(3) 0.47935(8)
Cl2 Cl 0.40938(10) 0.2348(2) 0.43604(7)
O1 O 0.7721(3) 0.3178(7) 0.3431(2)
O2 O 0.5636(3) 0.2793(8) 0.3281(2)
O3 O 0.7436(3) 0.3067(7) 0.5895(2)
O4 O 0.5356(3) 0.2576(7) 0.5723(2)
C13 C 0.7667(4) 0.3117(9) 0.4672(3)
C14 C 0.7224(4) 0.3063(8) 0.3992(3)
C15 C 0.6032(4) 0.2830(9) 0.3884(3)
C16 C 0.5433(4) 0.2641(8) 0.4492(3)
C17 C 0.5893(4) 0.2720(8) 0.5166(3)
C18 C 0.7077(4) 0.2984(8) 0.5278(3)
H2 H 0.5737(74) 0.264(13) 0.6200(52)
Cl1 Cl 0.40078(11) 0.1632(3) 0.97935(8)
Cl2 Cl -0.09062(10) 0.2652(2) 0.93604(7)
O1 O 0.2721(3) 0.1822(7) 0.8431(2)
O2 O 0.0636(3) 0.2207(8) 0.8281(2)
O3 O 0.2436(3) 0.1933(7) 1.0895(2)
O4 O 0.0356(3) 0.2424(7) 1.0723(2)
C13 C 0.2667(4) 0.1883(9) 0.9672(3)
C14 C 0.2224(4) 0.1937(8) 0.8992(3)
C15 C 0.1032(4) 0.2170(9) 0.8884(3)
C16 C 0.0433(4) 0.2359(8) 0.9492(3)
C17 C 0.0893(4) 0.2280(8) 1.0166(3)
C18 C 0.2077(4) 0.2016(8) 1.0278(3)
H2 H 0.0737(74) 0.236(13) 1.1200(52)
Cl1 Cl 0.09922(11) 0.6632(3) 0.52065(8)
Cl2 Cl 0.59062(10) 0.7652(2) 0.56396(7)
O1 O 0.2279(3) 0.6822(7) 0.6569(2)
O2 O 0.4364(3) 0.7207(8) 0.6719(2)
O3 O 0.2564(3) 0.6933(7) 0.4105(2)
O4 O 0.4644(3) 0.7424(7) 0.4277(2)
C13 C 0.2333(4) 0.6883(9) 0.5328(3)
C14 C 0.2776(4) 0.6937(8) 0.6008(3)
C15 C 0.3968(4) 0.7170(9) 0.6116(3)
C16 C 0.4567(4) 0.7359(8) 0.5508(3)
C17 C 0.4107(4) 0.7280(8) 0.4834(3)
C18 C 0.2923(4) 0.7016(8) 0.4722(3)
H2 H 0.4263(74) 0.736(13) 0.3800(52)
N1 N 0.5979(4) 0.2652(8) 0.7068(2)
N2 N 0.7060(4) 0.3245(8) 1.2108(2)
C1 C 0.5723(6) 0.1192(12) 0.7491(3)
C2 C 0.5892(6) 0.1283(11) 0.8226(3)
C3 C 0.6354(4) 0.2991(9) 0.8524(3)
C4 C 0.6639(5) 0.4496(11) 0.8077(3)
C5 C 0.6430(5) 0.4266(12) 0.7352(3)
C6 C 0.6551(5) 0.3161(10) 0.9281(3)
C7 C 0.6688(4) 0.3255(9) 0.9906(3)
C8 C 0.6825(4) 0.3300(9) 1.0663(3)
C9 C 0.5974(5) 0.3579(11) 1.1066(3)
C10 C 0.6108(5) 0.3564(12) 1.1788(3)
C11 C 0.7892(5) 0.3000(10) 1.1731(3)
C12 C 0.7806(5) 0.3007(10) 1.1010(3)
H1 H 0.7132(64) 0.318(13) 1.2645(46)
H3 H 0.5456(55) -0.011(11) 0.7271(38)
H4 H 0.5697(54) 0.017(11) 0.8550(36)
H5 H 0.6898(46) 0.5692(93) 0.8268(30)
H6 H 0.6608(48) 0.5394(98) 0.7077(33)
H7 H 0.5251(58) 0.375(12) 1.0878(38)
H8 H 0.5520(61) 0.351(12) 1.2063(41)
H9 H 0.8585(46) 0.2670(85) 1.2007(29)
H10 H 0.8384(50) 0.2864(91) 1.0782(34)
N1 N 0.9021(4) 0.7652(8) 0.7932(2)
N2 N 0.7940(4) 0.8245(8) 0.2892(2)
C1 C 0.9277(6) 0.6192(12) 0.7509(3)
C2 C 0.9108(6) 0.6283(11) 0.6774(3)
C3 C 0.8646(4) 0.7991(9) 0.6476(3)
C4 C 0.8361(5) 0.9496(11) 0.6923(3)
C5 C 0.8570(5) 0.9266(12) 0.7648(3)
C6 C 0.8449(5) 0.8161(10) 0.5719(3)
C7 C 0.8312(4) 0.8255(9) 0.5094(3)
C8 C 0.8175(4) 0.8300(9) 0.4337(3)
C9 C 0.9026(5) 0.8579(11) 0.3934(3)
C10 C 0.8892(5) 0.8564(12) 0.3212(3)
C11 C 0.7108(5) 0.8000(10) 0.3269(3)
C12 C 0.7194(5) 0.8007(10) 0.3990(3)
H1 H 0.7868(64) 0.818(13) 0.2355(46)
H3 H 0.9544(55) 0.489(11) 0.7729(38)
H4 H 0.9303(54) 0.517(11) 0.6450(36)
H5 H 0.8102(46) 1.0692(93) 0.6732(30)
H6 H 0.8392(48) 1.0394(98) 0.7923(33)
H7 H 0.9749(58) 0.875(12) 0.4122(38)
H8 H 0.9480(61) 0.851(12) 0.2937(41)
H9 H 0.6415(46) 0.7670(85) 0.2993(29)
H10 H 0.6616(50) 0.7864(91) 0.4218(34)
N1 N 0.4021(4) 0.7348(8) 0.2932(2)
N2 N 0.2940(4) 0.6755(8) -0.2108(2)
C1 C 0.4277(6) 0.8808(12) 0.2509(3)
C2 C 0.4108(6) 0.8717(11) 0.1774(3)
C3 C 0.3646(4) 0.7009(9) 0.1476(3)
C4 C 0.3361(5) 0.5504(11) 0.1923(3)
C5 C 0.3570(5) 0.5734(12) 0.2648(3)
C6 C 0.3449(5) 0.6839(10) 0.0719(3)
C7 C 0.3312(4) 0.6745(9) 0.0094(3)
C8 C 0.3175(4) 0.6700(9) -0.0663(3)
C9 C 0.4026(5) 0.6421(11) -0.1066(3)
C10 C 0.3892(5) 0.6436(12) -0.1788(3)
C11 C 0.2108(5) 0.7000(10) -0.1731(3)
C12 C 0.2194(5) 0.6993(10) -0.1010(3)
H1 H 0.2868(64) 0.682(13) -0.2645(46)
H3 H 0.4544(55) 1.011(11) 0.2729(38)
H4 H 0.4303(54) 0.983(11) 0.1450(36)
H5 H 0.3102(46) 0.4308(93) 0.1732(30)
H6 H 0.3392(48) 0.4606(98) 0.2923(33)
H7 H 0.4749(58) 0.625(12) -0.0878(38)
H8 H 0.4480(61) 0.649(12) -0.2063(41)
H9 H 0.1415(46) 0.7330(85) -0.2007(29)
H10 H 0.1616(50) 0.7136(91) -0.0782(34)
N1 N 0.0979(4) 0.2348(8) 0.2068(2)
N2 N 0.2060(4) 0.1755(8) 0.7108(2)
C1 C 0.0723(6) 0.3808(12) 0.2491(3)
C2 C 0.0892(6) 0.3717(11) 0.3226(3)
C3 C 0.1354(4) 0.2009(9) 0.3524(3)
C4 C 0.1639(5) 0.0504(11) 0.3077(3)
C5 C 0.1430(5) 0.0734(12) 0.2352(3)
C6 C 0.1551(5) 0.1839(10) 0.4281(3)
C7 C 0.1688(4) 0.1745(9) 0.4906(3)
C8 C 0.1825(4) 0.1700(9) 0.5663(3)
C9 C 0.0974(5) 0.1421(11) 0.6066(3)
C10 C 0.1108(5) 0.1436(12) 0.6788(3)
C11 C 0.2892(5) 0.2000(10) 0.6731(3)
C12 C 0.2806(5) 0.1993(10) 0.6010(3)
H1 H 0.2132(64) 0.182(13) 0.7645(46)
H3 H 0.0456(55) 0.511(11) 0.2271(38)
H4 H 0.0697(54) 0.483(11) 0.3550(36)
H5 H 0.1898(46) -0.0692(93) 0.3268(30)
H6 H 0.1608(48) -0.0394(98) 0.2077(33)
H7 H 0.0251(58) 0.125(12) 0.5878(38)
H8 H 0.0520(61) 0.149(12) 0.7063(41)
H9 H 0.3585(46) 0.2330(85) 0.7007(29)
H10 H 0.3384(50) 0.2136(91) 0.5782(34)

#END
