./ABUHEK_from_xyz.cif_generated_by_CrystalShift
_symmetry_cell_setting triclinic
_symmetry_space_group_name_H-M 'P 1'
loop_
_symmetry_equiv_pos_site_id
_symmetry_equiv_pos_as_xyz
1 x,y,z
_cell_length_a 7.990000
_cell_length_b 9.143000
_cell_length_c 9.194000
_cell_angle_alpha 68.310000
_cell_angle_beta 84.120000
_cell_angle_gamma 65.940000
_cell_volume 568.947768
loop_
_atom_site_label
_atom_site_type_symbol
_atom_site_fract_x
_atom_site_fract_y
_atom_site_fract_z
C1 C 0.543800 -0.024500 0.688300
N2 N 0.427200 0.141600 0.644200
C3 C 0.231000 0.166800 0.651300
C4 C 0.249200 -0.017000 0.702700
C5 C 0.117200 -0.083000 0.718300
C6 C 0.172000 -0.257400 0.771700
C7 C 0.353300 -0.367600 0.810500
C8 C 0.488200 -0.303500 0.789900
C9 C 0.432100 -0.127600 0.733600
C10 C 0.491300 0.279800 0.589700
O11 O 0.137900 0.273400 0.503400
O12 O 0.713300 -0.078300 0.686200
C13 C 0.130700 0.257700 0.768700
O14 O 0.133600 0.424400 0.713500
C15 C -0.067200 0.275100 0.782900
C16 C 0.233200 0.164000 0.927600
H17 H -0.006000 -0.007000 0.685000
H18 H 0.082000 -0.307000 0.783000
H19 H 0.385000 -0.484000 0.847000
H20 H 0.617000 -0.377000 0.811000
H21 H 0.502000 0.313000 0.678000
H22 H 0.403000 0.381000 0.509000
H23 H 0.609000 0.240000 0.547000
H24 H 0.178000 0.217000 0.441000
H25 H 0.052000 0.496000 0.631000
H26 H -0.072000 0.157000 0.840000
H27 H -0.134000 0.334000 0.675000
H28 H -0.127000 0.340000 0.854000
H29 H 0.246000 0.044000 0.970000
H30 H 0.170000 0.221000 1.001000
H31 H 0.352000 0.162000 0.922000
C32 C 0.456200 1.024500 0.311700
N33 N 0.572800 0.858400 0.355800
C34 C 0.769000 0.833200 0.348700
C35 C 0.750800 1.017000 0.297300
C36 C 0.882800 1.083000 0.281700
C37 C 0.828000 1.257400 0.228300
C38 C 0.646700 1.367600 0.189500
C39 C 0.511800 1.303500 0.210100
C40 C 0.567900 1.127600 0.266400
C41 C 0.508700 0.720200 0.410300
O42 O 0.862100 0.726600 0.496600
O43 O 0.286700 1.078300 0.313800
C44 C 0.869300 0.742300 0.231300
O45 O 0.866400 0.575600 0.286500
C46 C 1.067200 0.724900 0.217100
C47 C 0.766800 0.836000 0.072400
H48 H 1.006000 1.007000 0.315000
H49 H 0.918000 1.307000 0.217000
H50 H 0.615000 1.484000 0.153000
H51 H 0.383000 1.377000 0.189000
H52 H 0.498000 0.687000 0.322000
H53 H 0.597000 0.619000 0.491000
H54 H 0.391000 0.760000 0.453000
H55 H 0.822000 0.783000 0.559000
H56 H 0.948000 0.504000 0.369000
H57 H 1.072000 0.843000 0.160000
H58 H 1.134000 0.666000 0.325000
H59 H 1.127000 0.660000 0.146000
H60 H 0.754000 0.956000 0.030000
H61 H 0.830000 0.779000 -0.001000
H62 H 0.648000 0.838000 0.078000

#END
