./ABUHUA_from_xyz.cif_generated_by_CrystalShift
_symmetry_cell_setting triclinic
_symmetry_space_group_name_H-M 'P 1'
loop_
_symmetry_equiv_pos_site_id
_symmetry_equiv_pos_as_xyz
1 x,y,z
_cell_length_a 12.799000
_cell_length_b 6.687000
_cell_length_c 18.925000
_cell_angle_alpha 90.000000
_cell_angle_beta 93.641000
_cell_angle_gamma 90.000000
_cell_volume 1616.462994
loop_
_atom_site_label
_atom_site_type_symbol
_atom_site_fract_x
_atom_site_fract_y
_atom_site_fract_z
Cl1 Cl 0.599220 0.836800 0.020650
Cl2 Cl 1.090620 0.734800 0.063960
O3 O 0.727900 0.817800 0.156900
O4 O 0.936400 0.779300 0.171900
O5 O 0.756400 0.806700 -0.089500
O6 O 0.964400 0.757600 -0.072300
C7 C 0.733300 0.811700 0.032800
C8 C 0.777600 0.806300 0.100800
C9 C 0.896800 0.783000 0.111600
C10 C 0.956700 0.764100 0.050800
C11 C 0.910700 0.772000 -0.016600
C12 C 0.792300 0.798400 -0.027800
H13 H 0.926300 0.764000 -0.120000
Cl14 Cl 0.900780 0.336800 0.479350
Cl15 Cl 0.409380 0.234800 0.436040
O16 O 0.772100 0.317800 0.343100
O17 O 0.563600 0.279300 0.328100
O18 O 0.743600 0.306700 0.589500
O19 O 0.535600 0.257600 0.572300
C20 C 0.766700 0.311700 0.467200
C21 C 0.722400 0.306300 0.399200
C22 C 0.603200 0.283000 0.388400
C23 C 0.543300 0.264100 0.449200
C24 C 0.589300 0.272000 0.516600
C25 C 0.707700 0.298400 0.527800
H26 H 0.573700 0.264000 0.620000
Cl27 Cl 0.400780 0.163200 0.979350
Cl28 Cl -0.090620 0.265200 0.936040
O29 O 0.272100 0.182200 0.843100
O30 O 0.063600 0.220700 0.828100
O31 O 0.243600 0.193300 1.089500
O32 O 0.035600 0.242400 1.072300
C33 C 0.266700 0.188300 0.967200
C34 C 0.222400 0.193700 0.899200
C35 C 0.103200 0.217000 0.888400
C36 C 0.043300 0.235900 0.949200
C37 C 0.089300 0.228000 1.016600
C38 C 0.207700 0.201600 1.027800
H39 H 0.073700 0.236000 1.120000
Cl40 Cl 0.099220 0.663200 0.520650
Cl41 Cl 0.590620 0.765200 0.563960
O42 O 0.227900 0.682200 0.656900
O43 O 0.436400 0.720700 0.671900
O44 O 0.256400 0.693300 0.410500
O45 O 0.464400 0.742400 0.427700
C46 C 0.233300 0.688300 0.532800
C47 C 0.277600 0.693700 0.600800
C48 C 0.396800 0.717000 0.611600
C49 C 0.456700 0.735900 0.550800
C50 C 0.410700 0.728000 0.483400
C51 C 0.292300 0.701600 0.472200
H52 H 0.426300 0.736000 0.380000
N53 N 0.597900 0.265200 0.706800
N54 N 0.706000 0.324500 1.210800
C55 C 0.572300 0.119200 0.749100
C56 C 0.589200 0.128300 0.822600
C57 C 0.635400 0.299100 0.852400
C58 C 0.663900 0.449600 0.807700
C59 C 0.643000 0.426600 0.735200
C60 C 0.655100 0.316100 0.928100
C61 C 0.668800 0.325500 0.990600
C62 C 0.682500 0.330000 1.066300
C63 C 0.597400 0.357900 1.106600
C64 C 0.610800 0.356400 1.178800
C65 C 0.789200 0.300000 1.173100
C66 C 0.780600 0.300700 1.101000
H67 H 0.713200 0.318000 1.264500
H68 H 0.545600 -0.011000 0.727100
H69 H 0.569700 0.017000 0.855000
H70 H 0.689800 0.569200 0.826800
H71 H 0.660800 0.539400 0.707700
H72 H 0.525100 0.375000 1.087800
H73 H 0.552000 0.351000 1.206300
H74 H 0.858500 0.267000 1.200700
H75 H 0.838400 0.286400 1.078200
N76 N 0.902100 0.765200 0.793200
N77 N 0.794000 0.824500 0.289200
C78 C 0.927700 0.619200 0.750900
C79 C 0.910800 0.628300 0.677400
C80 C 0.864600 0.799100 0.647600
C81 C 0.836100 0.949600 0.692300
C82 C 0.857000 0.926600 0.764800
C83 C 0.844900 0.816100 0.571900
C84 C 0.831200 0.825500 0.509400
C85 C 0.817500 0.830000 0.433700
C86 C 0.902600 0.857900 0.393400
C87 C 0.889200 0.856400 0.321200
C88 C 0.710800 0.800000 0.326900
C89 C 0.719400 0.800700 0.399000
H90 H 0.786800 0.818000 0.235500
H91 H 0.954400 0.489000 0.772900
H92 H 0.930300 0.517000 0.645000
H93 H 0.810200 1.069200 0.673200
H94 H 0.839200 1.039400 0.792300
H95 H 0.974900 0.875000 0.412200
H96 H 0.948000 0.851000 0.293700
H97 H 0.641500 0.767000 0.299300
H98 H 0.661600 0.786400 0.421800
N99 N 0.402100 0.734800 0.293200
N100 N 0.294000 0.675500 -0.210800
C101 C 0.427700 0.880800 0.250900
C102 C 0.410800 0.871700 0.177400
C103 C 0.364600 0.700900 0.147600
C104 C 0.336100 0.550400 0.192300
C105 C 0.357000 0.573400 0.264800
C106 C 0.344900 0.683900 0.071900
C107 C 0.331200 0.674500 0.009400
C108 C 0.317500 0.670000 -0.066300
C109 C 0.402600 0.642100 -0.106600
C110 C 0.389200 0.643600 -0.178800
C111 C 0.210800 0.700000 -0.173100
C112 C 0.219400 0.699300 -0.101000
H113 H 0.286800 0.682000 -0.264500
H114 H 0.454400 1.011000 0.272900
H115 H 0.430300 0.983000 0.145000
H116 H 0.310200 0.430800 0.173200
H117 H 0.339200 0.460600 0.292300
H118 H 0.474900 0.625000 -0.087800
H119 H 0.448000 0.649000 -0.206300
H120 H 0.141500 0.733000 -0.200700
H121 H 0.161600 0.713600 -0.078200
N122 N 0.097900 0.234800 0.206800
N123 N 0.206000 0.175500 0.710800
C124 C 0.072300 0.380800 0.249100
C125 C 0.089200 0.371700 0.322600
C126 C 0.135400 0.200900 0.352400
C127 C 0.163900 0.050400 0.307700
C128 C 0.143000 0.073400 0.235200
C129 C 0.155100 0.183900 0.428100
C130 C 0.168800 0.174500 0.490600
C131 C 0.182500 0.170000 0.566300
C132 C 0.097400 0.142100 0.606600
C133 C 0.110800 0.143600 0.678800
C134 C 0.289200 0.200000 0.673100
C135 C 0.280600 0.199300 0.601000
H136 H 0.213200 0.182000 0.764500
H137 H 0.045600 0.511000 0.227100
H138 H 0.069700 0.483000 0.355000
H139 H 0.189800 -0.069200 0.326800
H140 H 0.160800 -0.039400 0.207700
H141 H 0.025100 0.125000 0.587800
H142 H 0.052000 0.149000 0.706300
H143 H 0.358500 0.233000 0.700700
H144 H 0.338400 0.213600 0.578200

#END
