
#######################################################################
#
#                 Cambridge Crystallographic Data Centre
#                                CCDC 
#
#######################################################################
#
# If this CIF has been generated from an entry in the Cambridge 
# Structural Database, then it will include bibliographic, chemical, 
# crystal, experimental, refinement or atomic coordinate data resulting 
# from the CCDC's data processing and validation procedures.
#
#######################################################################

data_ABUHEK
_symmetry_cell_setting           triclinic
_symmetry_space_group_name_H-M   'P -1'
_symmetry_Int_Tables_number      2
_space_group_name_Hall           '-P 1'
loop_
_symmetry_equiv_pos_site_id
_symmetry_equiv_pos_as_xyz
1 x,y,z
2 -x,-y,-z
_cell_length_a                   7.990(1)
_cell_length_b                   9.143(1)
_cell_length_c                   9.194(1)
_cell_angle_alpha                68.31(1)
_cell_angle_beta                 84.12(1)
_cell_angle_gamma                65.94(1)
_cell_volume                     568.948
loop_
_atom_site_label
_atom_site_type_symbol
_atom_site_fract_x
_atom_site_fract_y
_atom_site_fract_z
C1 C 0.5438(3) -0.0245(3) 0.6883(3)
N1 N 0.4272(2) 0.1416(2) 0.6442(2)
C2 C 0.2310(3) 0.1668(3) 0.6513(3)
C3 C 0.2492(3) -0.0170(3) 0.7027(3)
C4 C 0.1172(4) -0.0830(3) 0.7183(3)
C5 C 0.1720(4) -0.2574(4) 0.7717(3)
C6 C 0.3533(4) -0.3676(4) 0.8105(3)
C7 C 0.4882(4) -0.3035(3) 0.7899(3)
C8 C 0.4321(3) -0.1276(3) 0.7336(3)
C9 C 0.4913(5) 0.2798(4) 0.5897(4)
O1 O 0.1379(2) 0.2734(2) 0.5034(2)
O2 O 0.7133(2) -0.0783(2) 0.6862(2)
C10 C 0.1307(3) 0.2577(3) 0.7687(3)
O3 O 0.1336(3) 0.4244(2) 0.7135(2)
C11 C -0.0672(4) 0.2751(4) 0.7829(4)
C12 C 0.2332(5) 0.1640(4) 0.9276(4)
H1 H -0.0060(30) -0.0070(30) 0.6850(30)
H2 H 0.0820(40) -0.3070(30) 0.7830(30)
H3 H 0.3850(30) -0.4840(40) 0.8470(30)
H4 H 0.6170(30) -0.3770(30) 0.8110(30)
H5 H 0.5020(30) 0.3130(30) 0.6780(30)
H6 H 0.4030(40) 0.3810(40) 0.5090(40)
H7 H 0.6090(40) 0.2400(40) 0.5470(30)
H8 H 0.1780(40) 0.2170(40) 0.4410(30)
H9 H 0.0520(50) 0.4960(50) 0.6310(40)
H10 H -0.0720(40) 0.1570(40) 0.8400(40)
H11 H -0.1340(40) 0.3340(40) 0.6750(40)
H12 H -0.1270(40) 0.3400(40) 0.8540(40)
H13 H 0.2460(40) 0.0440(40) 0.9700(30)
H14 H 0.1700(40) 0.2210(30) 1.0010(30)
H15 H 0.3520(50) 0.1620(40) 0.9220(40)
C1 C 0.4562(3) 1.0245(3) 0.3117(3)
N1 N 0.5728(2) 0.8584(2) 0.3558(2)
C2 C 0.7690(3) 0.8332(3) 0.3487(3)
C3 C 0.7508(3) 1.0170(3) 0.2973(3)
C4 C 0.8828(4) 1.0830(3) 0.2817(3)
C5 C 0.8280(4) 1.2574(4) 0.2283(3)
C6 C 0.6467(4) 1.3676(4) 0.1895(3)
C7 C 0.5118(4) 1.3035(3) 0.2101(3)
C8 C 0.5679(3) 1.1276(3) 0.2664(3)
C9 C 0.5087(5) 0.7202(4) 0.4103(4)
O1 O 0.8621(2) 0.7266(2) 0.4966(2)
O2 O 0.2867(2) 1.0783(2) 0.3138(2)
C10 C 0.8693(3) 0.7423(3) 0.2313(3)
O3 O 0.8664(3) 0.5756(2) 0.2865(2)
C11 C 1.0672(4) 0.7249(4) 0.2171(4)
C12 C 0.7668(5) 0.8360(4) 0.0724(4)
H1 H 1.0060(30) 1.0070(30) 0.3150(30)
H2 H 0.9180(40) 1.3070(30) 0.2170(30)
H3 H 0.6150(30) 1.4840(40) 0.1530(30)
H4 H 0.3830(30) 1.3770(30) 0.1890(30)
H5 H 0.4980(30) 0.6870(30) 0.3220(30)
H6 H 0.5970(40) 0.6190(40) 0.4910(40)
H7 H 0.3910(40) 0.7600(40) 0.4530(30)
H8 H 0.8220(40) 0.7830(40) 0.5590(30)
H9 H 0.9480(50) 0.5040(50) 0.3690(40)
H10 H 1.0720(40) 0.8430(40) 0.1600(40)
H11 H 1.1340(40) 0.6660(40) 0.3250(40)
H12 H 1.1270(40) 0.6600(40) 0.1460(40)
H13 H 0.7540(40) 0.9560(40) 0.0300(30)
H14 H 0.8300(40) 0.7790(30) -0.0010(30)
H15 H 0.6480(50) 0.8380(40) 0.0780(40)

#END
