
#######################################################################
#
#                 Cambridge Crystallographic Data Centre
#                                CCDC 
#
#######################################################################
#
# If this CIF has been generated from an entry in the Cambridge 
# Structural Database, then it will include bibliographic, chemical, 
# crystal, experimental, refinement or atomic coordinate data resulting 
# from the CCDC's data processing and validation procedures.
#
#######################################################################

data_ABUJAL
_symmetry_cell_setting           orthorhombic
_symmetry_space_group_name_H-M   'P b c a'
_symmetry_Int_Tables_number      61
_space_group_name_Hall           '-P 2ac 2ab'
loop_
_symmetry_equiv_pos_site_id
_symmetry_equiv_pos_as_xyz
1 x,y,z
2 1/2-x,-y,1/2+z
3 1/2+x,1/2-y,-z
4 -x,1/2+y,1/2-z
5 -x,-y,-z
6 1/2+x,y,1/2-z
7 1/2-x,1/2+y,z
8 x,1/2-y,1/2+z
_cell_length_a                   21.7221(5)
_cell_length_b                   9.2115(2)
_cell_length_c                   25.5019(6)
_cell_angle_alpha                90
_cell_angle_beta                 90
_cell_angle_gamma                90
_cell_volume                     5102.75
loop_
_atom_site_label
_atom_site_type_symbol
_atom_site_fract_x
_atom_site_fract_y
_atom_site_fract_z
C1 C 0.06995(7) 0.62988(16) 0.99140(6)
C2 C 0.04157(8) 0.79049(17) 0.91711(6)
C3 C -0.00995(7) 0.83494(16) 0.94959(6)
C4 C -0.01621(7) 0.77566(15) 0.99976(6)
C5 C -0.06546(8) 0.82237(18) 1.03105(7)
H1 H -0.0703 0.7848 1.0646
C6 C -0.10656(8) 0.92322(18) 1.01246(8)
H2 H -0.1391 0.9532 1.0336
C7 C -0.10009(8) 0.98095(18) 0.96244(8)
H3 H -0.1283 1.0488 0.9501
C8 C -0.05202(8) 0.93771(18) 0.93116(7)
H4 H -0.0475 0.9768 0.8978
C9 C 0.11462(7) 0.52559(17) 1.01177(6)
H5 H 0.1461 0.4942 0.9898
C10 C 0.11208(7) 0.47401(17) 1.06008(6)
H6 H 0.0797 0.5075 1.0806
C11 C 0.15366(8) 0.37128(17) 1.08531(6)
C12 C 0.14072(10) 0.3263(2) 1.13617(8)
H7 H 0.1069 0.3649 1.1537
C13 C 0.17762(13) 0.2248(3) 1.16114(10)
H8 H 0.1683 0.1947 1.1950
C14 C 0.22781(13) 0.1688(3) 1.13582(11)
H9 H 0.2524 0.1002 1.1524
C15 C 0.24203(10) 0.2142(2) 1.08563(10)
H10 H 0.2764 0.1767 1.0687
C16 C 0.20560(9) 0.31410(19) 1.06079(8)
H11 H 0.2157 0.3442 1.0271
C17 C 0.11417(7) 0.53751(16) 0.86750(6)
C18 C 0.18358(7) 0.70021(17) 0.91760(6)
C19 C 0.23079(7) 0.65448(17) 0.88013(6)
C20 C 0.21458(7) 0.56054(17) 0.83940(6)
C21 C 0.26005(9) 0.5197(2) 0.80328(8)
H12 H 0.2502 0.4575 0.7758
C22 C 0.31865(9) 0.5710(3) 0.80828(9)
H13 H 0.3484 0.5441 0.7839
C23 C 0.33426(9) 0.6619(2) 0.84892(9)
H14 H 0.3746 0.6945 0.8522
C24 C 0.29064(8) 0.7047(2) 0.88457(8)
H15 H 0.3012 0.7674 0.9117
C25 C 0.05329(7) 0.47249(17) 0.86323(6)
H16 H 0.0284 0.4653 0.8928
C26 C 0.03296(8) 0.42324(19) 0.81729(7)
H17 H 0.0583 0.4402 0.7885
C27 C -0.02431(8) 0.34581(18) 0.80659(6)
C28 C -0.05771(8) 0.2752(2) 0.84566(7)
H18 H -0.0432 0.2751 0.8800
C29 C -0.11183(9) 0.2058(2) 0.83393(8)
H19 H -0.1339 0.1597 0.8604
C30 C -0.13374(10) 0.2038(2) 0.78335(8)
H20 H -0.1706 0.1568 0.7757
C31 C -0.10146(10) 0.2709(2) 0.74428(8)
H21 H -0.1162 0.2696 0.7101
C32 C -0.04673(9) 0.3407(2) 0.75577(7)
H22 H -0.0246 0.3850 0.7289
N1 N 0.07747(6) 0.67931(14) 0.94007(5)
N2 N 0.02448(6) 0.67469(13) 1.02015(5)
N3 N 0.12694(6) 0.63004(14) 0.90978(5)
N4 N 0.15614(6) 0.50378(15) 0.83358(5)
O1 O 0.05476(6) 0.83705(15) 0.87405(5)
O2 O 0.19011(6) 0.78625(14) 0.95323(5)
C1 C 0.43005(7) 0.37012(16) 0.49140(6)
C2 C 0.45843(8) 0.20951(17) 0.41711(6)
C3 C 0.50995(7) 0.16506(16) 0.44959(6)
C4 C 0.51621(7) 0.22434(15) 0.49976(6)
C5 C 0.56546(8) 0.17763(18) 0.53105(7)
H1 H 0.5703 0.2152 0.5646
C6 C 0.60656(8) 0.07678(18) 0.51246(8)
H2 H 0.6391 0.0468 0.5336
C7 C 0.60009(8) 0.01905(18) 0.46244(8)
H3 H 0.6283 -0.0488 0.4501
C8 C 0.55202(8) 0.06229(18) 0.43116(7)
H4 H 0.5475 0.0232 0.3978
C9 C 0.38538(7) 0.47441(17) 0.51177(6)
H5 H 0.3539 0.5058 0.4898
C10 C 0.38792(7) 0.52599(17) 0.56008(6)
H6 H 0.4203 0.4925 0.5806
C11 C 0.34634(8) 0.62872(17) 0.58531(6)
C12 C 0.35928(10) 0.6737(2) 0.63617(8)
H7 H 0.3931 0.6351 0.6537
C13 C 0.32238(13) 0.7752(3) 0.66114(10)
H8 H 0.3317 0.8053 0.6950
C14 C 0.27219(13) 0.8312(3) 0.63582(11)
H9 H 0.2476 0.8998 0.6524
C15 C 0.25797(10) 0.7858(2) 0.58563(10)
H10 H 0.2236 0.8233 0.5687
C16 C 0.29440(9) 0.68590(19) 0.56079(8)
H11 H 0.2843 0.6558 0.5271
C17 C 0.38583(7) 0.46249(16) 0.36750(6)
C18 C 0.31642(7) 0.29979(17) 0.41760(6)
C19 C 0.26921(7) 0.34552(17) 0.38013(6)
C20 C 0.28542(7) 0.43946(17) 0.33940(6)
C21 C 0.23995(9) 0.4803(2) 0.30328(8)
H12 H 0.2498 0.5425 0.2758
C22 C 0.18135(9) 0.4290(3) 0.30828(9)
H13 H 0.1516 0.4559 0.2839
C23 C 0.16574(9) 0.3381(2) 0.34892(9)
H14 H 0.1254 0.3055 0.3522
C24 C 0.20936(8) 0.2953(2) 0.38457(8)
H15 H 0.1988 0.2326 0.4117
C25 C 0.44671(7) 0.52751(17) 0.36323(6)
H16 H 0.4716 0.5347 0.3928
C26 C 0.46704(8) 0.57676(19) 0.31729(7)
H17 H 0.4417 0.5598 0.2885
C27 C 0.52431(8) 0.65419(18) 0.30659(6)
C28 C 0.55771(8) 0.7248(2) 0.34566(7)
H18 H 0.5432 0.7249 0.3800
C29 C 0.61183(9) 0.7942(2) 0.33393(8)
H19 H 0.6339 0.8403 0.3604
C30 C 0.63374(10) 0.7962(2) 0.28335(8)
H20 H 0.6706 0.8432 0.2757
C31 C 0.60146(10) 0.7291(2) 0.24428(8)
H21 H 0.6162 0.7304 0.2101
C32 C 0.54673(9) 0.6593(2) 0.25577(7)
H22 H 0.5246 0.6150 0.2289
N1 N 0.42253(6) 0.32069(14) 0.44007(5)
N2 N 0.47552(6) 0.32531(13) 0.52015(5)
N3 N 0.37306(6) 0.36996(14) 0.40978(5)
N4 N 0.34386(6) 0.49622(15) 0.33358(5)
O1 O 0.44524(6) 0.16295(15) 0.37405(5)
O2 O 0.30989(6) 0.21375(14) 0.45323(5)
C1 C 0.56995(7) 0.87012(16) 0.00860(6)
C2 C 0.54157(8) 0.70951(17) 0.08289(6)
C3 C 0.49005(7) 0.66506(16) 0.05041(6)
C4 C 0.48379(7) 0.72434(15) 0.00024(6)
C5 C 0.43454(8) 0.67763(18) -0.03105(7)
H1 H 0.4297 0.7152 -0.0646
C6 C 0.39344(8) 0.57678(18) -0.01246(8)
H2 H 0.3609 0.5468 -0.0336
C7 C 0.39991(8) 0.51905(18) 0.03756(8)
H3 H 0.3717 0.4512 0.0499
C8 C 0.44798(8) 0.56229(18) 0.06884(7)
H4 H 0.4525 0.5232 0.1022
C9 C 0.61462(7) 0.97441(17) -0.01177(6)
H5 H 0.6461 1.0058 0.0102
C10 C 0.61208(7) 1.02599(17) -0.06008(6)
H6 H 0.5797 0.9925 -0.0806
C11 C 0.65366(8) 1.12872(17) -0.08531(6)
C12 C 0.64072(10) 1.1737(2) -0.13617(8)
H7 H 0.6069 1.1351 -0.1537
C13 C 0.67762(13) 1.2752(3) -0.16114(10)
H8 H 0.6683 1.3053 -0.1950
C14 C 0.72781(13) 1.3312(3) -0.13582(11)
H9 H 0.7524 1.3998 -0.1524
C15 C 0.74203(10) 1.2858(2) -0.08563(10)
H10 H 0.7764 1.3233 -0.0687
C16 C 0.70560(9) 1.18590(19) -0.06079(8)
H11 H 0.7157 1.1558 -0.0271
C17 C 0.61417(7) 0.96249(16) 0.13250(6)
C18 C 0.68358(7) 0.79979(17) 0.08240(6)
C19 C 0.73079(7) 0.84552(17) 0.11987(6)
C20 C 0.71458(7) 0.93946(17) 0.16060(6)
C21 C 0.76005(9) 0.9803(2) 0.19672(8)
H12 H 0.7502 1.0425 0.2242
C22 C 0.81865(9) 0.9290(3) 0.19172(9)
H13 H 0.8484 0.9559 0.2161
C23 C 0.83426(9) 0.8381(2) 0.15108(9)
H14 H 0.8746 0.8055 0.1478
C24 C 0.79064(8) 0.7953(2) 0.11543(8)
H15 H 0.8012 0.7326 0.0883
C25 C 0.55329(7) 1.02751(17) 0.13677(6)
H16 H 0.5284 1.0347 0.1072
C26 C 0.53296(8) 1.07676(19) 0.18271(7)
H17 H 0.5583 1.0598 0.2115
C27 C 0.47569(8) 1.15419(18) 0.19341(6)
C28 C 0.44229(8) 1.2248(2) 0.15434(7)
H18 H 0.4568 1.2249 0.1200
C29 C 0.38817(9) 1.2942(2) 0.16607(8)
H19 H 0.3661 1.3403 0.1396
C30 C 0.36626(10) 1.2962(2) 0.21665(8)
H20 H 0.3294 1.3432 0.2243
C31 C 0.39854(10) 1.2291(2) 0.25572(8)
H21 H 0.3838 1.2304 0.2899
C32 C 0.45327(9) 1.1593(2) 0.24423(7)
H22 H 0.4754 1.1150 0.2711
N1 N 0.57747(6) 0.82069(14) 0.05993(5)
N2 N 0.52448(6) 0.82531(13) -0.02015(5)
N3 N 0.62694(6) 0.86996(14) 0.09022(5)
N4 N 0.65614(6) 0.99622(15) 0.16642(5)
O1 O 0.55476(6) 0.66295(15) 0.12595(5)
O2 O 0.69011(6) 0.71375(14) 0.04677(5)
C1 C 0.93005(7) 0.12988(16) 0.50860(6)
C2 C 0.95843(8) 0.29049(17) 0.58289(6)
C3 C 1.00995(7) 0.33494(16) 0.55041(6)
C4 C 1.01621(7) 0.27566(15) 0.50024(6)
C5 C 1.06546(8) 0.32237(18) 0.46895(7)
H1 H 1.0703 0.2848 0.4354
C6 C 1.10656(8) 0.42322(18) 0.48754(8)
H2 H 1.1391 0.4532 0.4664
C7 C 1.10009(8) 0.48095(18) 0.53756(8)
H3 H 1.1283 0.5488 0.5499
C8 C 1.05202(8) 0.43771(18) 0.56884(7)
H4 H 1.0475 0.4768 0.6022
C9 C 0.88538(7) 0.02559(17) 0.48823(6)
H5 H 0.8539 -0.0058 0.5102
C10 C 0.88792(7) -0.02599(17) 0.43992(6)
H6 H 0.9203 0.0075 0.4194
C11 C 0.84634(8) -0.12872(17) 0.41469(6)
C12 C 0.85928(10) -0.1737(2) 0.36383(8)
H7 H 0.8931 -0.1351 0.3463
C13 C 0.82238(13) -0.2752(3) 0.33886(10)
H8 H 0.8317 -0.3053 0.3050
C14 C 0.77219(13) -0.3312(3) 0.36418(11)
H9 H 0.7476 -0.3998 0.3476
C15 C 0.75797(10) -0.2858(2) 0.41437(10)
H10 H 0.7236 -0.3233 0.4313
C16 C 0.79440(9) -0.18590(19) 0.43921(8)
H11 H 0.7843 -0.1558 0.4729
C17 C 0.88583(7) 0.03751(16) 0.63250(6)
C18 C 0.81642(7) 0.20021(17) 0.58240(6)
C19 C 0.76921(7) 0.15448(17) 0.61987(6)
C20 C 0.78542(7) 0.06054(17) 0.66060(6)
C21 C 0.73995(9) 0.0197(2) 0.69672(8)
H12 H 0.7498 -0.0425 0.7242
C22 C 0.68135(9) 0.0710(3) 0.69172(9)
H13 H 0.6516 0.0441 0.7161
C23 C 0.66574(9) 0.1619(2) 0.65108(9)
H14 H 0.6254 0.1945 0.6478
C24 C 0.70936(8) 0.2047(2) 0.61543(8)
H15 H 0.6988 0.2674 0.5883
C25 C 0.94671(7) -0.02751(17) 0.63677(6)
H16 H 0.9716 -0.0347 0.6072
C26 C 0.96704(8) -0.07676(19) 0.68271(7)
H17 H 0.9417 -0.0598 0.7115
C27 C 1.02431(8) -0.15419(18) 0.69341(6)
C28 C 1.05771(8) -0.2248(2) 0.65434(7)
H18 H 1.0432 -0.2249 0.6200
C29 C 1.11183(9) -0.2942(2) 0.66607(8)
H19 H 1.1339 -0.3403 0.6396
C30 C 1.13374(10) -0.2962(2) 0.71665(8)
H20 H 1.1706 -0.3432 0.7243
C31 C 1.10146(10) -0.2291(2) 0.75572(8)
H21 H 1.1162 -0.2304 0.7899
C32 C 1.04673(9) -0.1593(2) 0.74423(7)
H22 H 1.0246 -0.1150 0.7711
N1 N 0.92253(6) 0.17931(14) 0.55993(5)
N2 N 0.97552(6) 0.17469(13) 0.47985(5)
N3 N 0.87306(6) 0.13004(14) 0.59022(5)
N4 N 0.84386(6) 0.00378(15) 0.66642(5)
O1 O 0.94524(6) 0.33705(15) 0.62595(5)
O2 O 0.80989(6) 0.28625(14) 0.54677(5)
C1 C 0.93005(7) 0.37012(16) 0.00860(6)
C2 C 0.95843(8) 0.20951(17) 0.08289(6)
C3 C 1.00995(7) 0.16506(16) 0.05041(6)
C4 C 1.01621(7) 0.22434(15) 0.00024(6)
C5 C 1.06546(8) 0.17763(18) -0.03105(7)
H1 H 1.0703 0.2152 -0.0646
C6 C 1.10656(8) 0.07678(18) -0.01246(8)
H2 H 1.1391 0.0468 -0.0336
C7 C 1.10009(8) 0.01905(18) 0.03756(8)
H3 H 1.1283 -0.0488 0.0499
C8 C 1.05202(8) 0.06229(18) 0.06884(7)
H4 H 1.0475 0.0232 0.1022
C9 C 0.88538(7) 0.47441(17) -0.01177(6)
H5 H 0.8539 0.5058 0.0102
C10 C 0.88792(7) 0.52599(17) -0.06008(6)
H6 H 0.9203 0.4925 -0.0806
C11 C 0.84634(8) 0.62872(17) -0.08531(6)
C12 C 0.85928(10) 0.6737(2) -0.13617(8)
H7 H 0.8931 0.6351 -0.1537
C13 C 0.82238(13) 0.7752(3) -0.16114(10)
H8 H 0.8317 0.8053 -0.1950
C14 C 0.77219(13) 0.8312(3) -0.13582(11)
H9 H 0.7476 0.8998 -0.1524
C15 C 0.75797(10) 0.7858(2) -0.08563(10)
H10 H 0.7236 0.8233 -0.0687
C16 C 0.79440(9) 0.68590(19) -0.06079(8)
H11 H 0.7843 0.6558 -0.0271
C17 C 0.88583(7) 0.46249(16) 0.13250(6)
C18 C 0.81642(7) 0.29979(17) 0.08240(6)
C19 C 0.76921(7) 0.34552(17) 0.11987(6)
C20 C 0.78542(7) 0.43946(17) 0.16060(6)
C21 C 0.73995(9) 0.4803(2) 0.19672(8)
H12 H 0.7498 0.5425 0.2242
C22 C 0.68135(9) 0.4290(3) 0.19172(9)
H13 H 0.6516 0.4559 0.2161
C23 C 0.66574(9) 0.3381(2) 0.15108(9)
H14 H 0.6254 0.3055 0.1478
C24 C 0.70936(8) 0.2953(2) 0.11543(8)
H15 H 0.6988 0.2326 0.0883
C25 C 0.94671(7) 0.52751(17) 0.13677(6)
H16 H 0.9716 0.5347 0.1072
C26 C 0.96704(8) 0.57676(19) 0.18271(7)
H17 H 0.9417 0.5598 0.2115
C27 C 1.02431(8) 0.65419(18) 0.19341(6)
C28 C 1.05771(8) 0.7248(2) 0.15434(7)
H18 H 1.0432 0.7249 0.1200
C29 C 1.11183(9) 0.7942(2) 0.16607(8)
H19 H 1.1339 0.8403 0.1396
C30 C 1.13374(10) 0.7962(2) 0.21665(8)
H20 H 1.1706 0.8432 0.2243
C31 C 1.10146(10) 0.7291(2) 0.25572(8)
H21 H 1.1162 0.7304 0.2899
C32 C 1.04673(9) 0.6593(2) 0.24423(7)
H22 H 1.0246 0.6150 0.2711
N1 N 0.92253(6) 0.32069(14) 0.05993(5)
N2 N 0.97552(6) 0.32531(13) -0.02015(5)
N3 N 0.87306(6) 0.36996(14) 0.09022(5)
N4 N 0.84386(6) 0.49622(15) 0.16642(5)
O1 O 0.94524(6) 0.16295(15) 0.12595(5)
O2 O 0.80989(6) 0.21375(14) 0.04677(5)
C1 C 0.56995(7) 0.62988(16) 0.50860(6)
C2 C 0.54157(8) 0.79049(17) 0.58289(6)
C3 C 0.49005(7) 0.83494(16) 0.55041(6)
C4 C 0.48379(7) 0.77566(15) 0.50024(6)
C5 C 0.43454(8) 0.82237(18) 0.46895(7)
H1 H 0.4297 0.7848 0.4354
C6 C 0.39344(8) 0.92322(18) 0.48754(8)
H2 H 0.3609 0.9532 0.4664
C7 C 0.39991(8) 0.98095(18) 0.53756(8)
H3 H 0.3717 1.0488 0.5499
C8 C 0.44798(8) 0.93771(18) 0.56884(7)
H4 H 0.4525 0.9768 0.6022
C9 C 0.61462(7) 0.52559(17) 0.48823(6)
H5 H 0.6461 0.4942 0.5102
C10 C 0.61208(7) 0.47401(17) 0.43992(6)
H6 H 0.5797 0.5075 0.4194
C11 C 0.65366(8) 0.37128(17) 0.41469(6)
C12 C 0.64072(10) 0.3263(2) 0.36383(8)
H7 H 0.6069 0.3649 0.3463
C13 C 0.67762(13) 0.2248(3) 0.33886(10)
H8 H 0.6683 0.1947 0.3050
C14 C 0.72781(13) 0.1688(3) 0.36418(11)
H9 H 0.7524 0.1002 0.3476
C15 C 0.74203(10) 0.2142(2) 0.41437(10)
H10 H 0.7764 0.1767 0.4313
C16 C 0.70560(9) 0.31410(19) 0.43921(8)
H11 H 0.7157 0.3442 0.4729
C17 C 0.61417(7) 0.53751(16) 0.63250(6)
C18 C 0.68358(7) 0.70021(17) 0.58240(6)
C19 C 0.73079(7) 0.65448(17) 0.61987(6)
C20 C 0.71458(7) 0.56054(17) 0.66060(6)
C21 C 0.76005(9) 0.5197(2) 0.69672(8)
H12 H 0.7502 0.4575 0.7242
C22 C 0.81865(9) 0.5710(3) 0.69172(9)
H13 H 0.8484 0.5441 0.7161
C23 C 0.83426(9) 0.6619(2) 0.65108(9)
H14 H 0.8746 0.6945 0.6478
C24 C 0.79064(8) 0.7047(2) 0.61543(8)
H15 H 0.8012 0.7674 0.5883
C25 C 0.55329(7) 0.47249(17) 0.63677(6)
H16 H 0.5284 0.4653 0.6072
C26 C 0.53296(8) 0.42324(19) 0.68271(7)
H17 H 0.5583 0.4402 0.7115
C27 C 0.47569(8) 0.34581(18) 0.69341(6)
C28 C 0.44229(8) 0.2752(2) 0.65434(7)
H18 H 0.4568 0.2751 0.6200
C29 C 0.38817(9) 0.2058(2) 0.66607(8)
H19 H 0.3661 0.1597 0.6396
C30 C 0.36626(10) 0.2038(2) 0.71665(8)
H20 H 0.3294 0.1568 0.7243
C31 C 0.39854(10) 0.2709(2) 0.75572(8)
H21 H 0.3838 0.2696 0.7899
C32 C 0.45327(9) 0.3407(2) 0.74423(7)
H22 H 0.4754 0.3850 0.7711
N1 N 0.57747(6) 0.67931(14) 0.55993(5)
N2 N 0.52448(6) 0.67469(13) 0.47985(5)
N3 N 0.62694(6) 0.63004(14) 0.59022(5)
N4 N 0.65614(6) 0.50378(15) 0.66642(5)
O1 O 0.55476(6) 0.83705(15) 0.62595(5)
O2 O 0.69011(6) 0.78625(14) 0.54677(5)
C1 C 0.43005(7) 0.12988(16) 0.99140(6)
C2 C 0.45843(8) 0.29049(17) 0.91711(6)
C3 C 0.50995(7) 0.33494(16) 0.94959(6)
C4 C 0.51621(7) 0.27566(15) 0.99976(6)
C5 C 0.56546(8) 0.32237(18) 1.03105(7)
H1 H 0.5703 0.2848 1.0646
C6 C 0.60656(8) 0.42322(18) 1.01246(8)
H2 H 0.6391 0.4532 1.0336
C7 C 0.60009(8) 0.48095(18) 0.96244(8)
H3 H 0.6283 0.5488 0.9501
C8 C 0.55202(8) 0.43771(18) 0.93116(7)
H4 H 0.5475 0.4768 0.8978
C9 C 0.38538(7) 0.02559(17) 1.01177(6)
H5 H 0.3539 -0.0058 0.9898
C10 C 0.38792(7) -0.02599(17) 1.06008(6)
H6 H 0.4203 0.0075 1.0806
C11 C 0.34634(8) -0.12872(17) 1.08531(6)
C12 C 0.35928(10) -0.1737(2) 1.13617(8)
H7 H 0.3931 -0.1351 1.1537
C13 C 0.32238(13) -0.2752(3) 1.16114(10)
H8 H 0.3317 -0.3053 1.1950
C14 C 0.27219(13) -0.3312(3) 1.13582(11)
H9 H 0.2476 -0.3998 1.1524
C15 C 0.25797(10) -0.2858(2) 1.08563(10)
H10 H 0.2236 -0.3233 1.0687
C16 C 0.29440(9) -0.18590(19) 1.06079(8)
H11 H 0.2843 -0.1558 1.0271
C17 C 0.38583(7) 0.03751(16) 0.86750(6)
C18 C 0.31642(7) 0.20021(17) 0.91760(6)
C19 C 0.26921(7) 0.15448(17) 0.88013(6)
C20 C 0.28542(7) 0.06054(17) 0.83940(6)
C21 C 0.23995(9) 0.0197(2) 0.80328(8)
H12 H 0.2498 -0.0425 0.7758
C22 C 0.18135(9) 0.0710(3) 0.80828(9)
H13 H 0.1516 0.0441 0.7839
C23 C 0.16574(9) 0.1619(2) 0.84892(9)
H14 H 0.1254 0.1945 0.8522
C24 C 0.20936(8) 0.2047(2) 0.88457(8)
H15 H 0.1988 0.2674 0.9117
C25 C 0.44671(7) -0.02751(17) 0.86323(6)
H16 H 0.4716 -0.0347 0.8928
C26 C 0.46704(8) -0.07676(19) 0.81729(7)
H17 H 0.4417 -0.0598 0.7885
C27 C 0.52431(8) -0.15419(18) 0.80659(6)
C28 C 0.55771(8) -0.2248(2) 0.84566(7)
H18 H 0.5432 -0.2249 0.8800
C29 C 0.61183(9) -0.2942(2) 0.83393(8)
H19 H 0.6339 -0.3403 0.8604
C30 C 0.63374(10) -0.2962(2) 0.78335(8)
H20 H 0.6706 -0.3432 0.7757
C31 C 0.60146(10) -0.2291(2) 0.74428(8)
H21 H 0.6162 -0.2304 0.7101
C32 C 0.54673(9) -0.1593(2) 0.75577(7)
H22 H 0.5246 -0.1150 0.7289
N1 N 0.42253(6) 0.17931(14) 0.94007(5)
N2 N 0.47552(6) 0.17469(13) 1.02015(5)
N3 N 0.37306(6) 0.13004(14) 0.90978(5)
N4 N 0.34386(6) 0.00378(15) 0.83358(5)
O1 O 0.44524(6) 0.33705(15) 0.87405(5)
O2 O 0.30989(6) 0.28625(14) 0.95323(5)
C1 C 0.06995(7) 0.87012(16) 0.49140(6)
C2 C 0.04157(8) 0.70951(17) 0.41711(6)
C3 C -0.00995(7) 0.66506(16) 0.44959(6)
C4 C -0.01621(7) 0.72434(15) 0.49976(6)
C5 C -0.06546(8) 0.67763(18) 0.53105(7)
H1 H -0.0703 0.7152 0.5646
C6 C -0.10656(8) 0.57678(18) 0.51246(8)
H2 H -0.1391 0.5468 0.5336
C7 C -0.10009(8) 0.51905(18) 0.46244(8)
H3 H -0.1283 0.4512 0.4501
C8 C -0.05202(8) 0.56229(18) 0.43116(7)
H4 H -0.0475 0.5232 0.3978
C9 C 0.11462(7) 0.97441(17) 0.51177(6)
H5 H 0.1461 1.0058 0.4898
C10 C 0.11208(7) 1.02599(17) 0.56008(6)
H6 H 0.0797 0.9925 0.5806
C11 C 0.15366(8) 1.12872(17) 0.58531(6)
C12 C 0.14072(10) 1.1737(2) 0.63617(8)
H7 H 0.1069 1.1351 0.6537
C13 C 0.17762(13) 1.2752(3) 0.66114(10)
H8 H 0.1683 1.3053 0.6950
C14 C 0.22781(13) 1.3312(3) 0.63582(11)
H9 H 0.2524 1.3998 0.6524
C15 C 0.24203(10) 1.2858(2) 0.58563(10)
H10 H 0.2764 1.3233 0.5687
C16 C 0.20560(9) 1.18590(19) 0.56079(8)
H11 H 0.2157 1.1558 0.5271
C17 C 0.11417(7) 0.96249(16) 0.36750(6)
C18 C 0.18358(7) 0.79979(17) 0.41760(6)
C19 C 0.23079(7) 0.84552(17) 0.38013(6)
C20 C 0.21458(7) 0.93946(17) 0.33940(6)
C21 C 0.26005(9) 0.9803(2) 0.30328(8)
H12 H 0.2502 1.0425 0.2758
C22 C 0.31865(9) 0.9290(3) 0.30828(9)
H13 H 0.3484 0.9559 0.2839
C23 C 0.33426(9) 0.8381(2) 0.34892(9)
H14 H 0.3746 0.8055 0.3522
C24 C 0.29064(8) 0.7953(2) 0.38457(8)
H15 H 0.3012 0.7326 0.4117
C25 C 0.05329(7) 1.02751(17) 0.36323(6)
H16 H 0.0284 1.0347 0.3928
C26 C 0.03296(8) 1.07676(19) 0.31729(7)
H17 H 0.0583 1.0598 0.2885
C27 C -0.02431(8) 1.15419(18) 0.30659(6)
C28 C -0.05771(8) 1.2248(2) 0.34566(7)
H18 H -0.0432 1.2249 0.3800
C29 C -0.11183(9) 1.2942(2) 0.33393(8)
H19 H -0.1339 1.3403 0.3604
C30 C -0.13374(10) 1.2962(2) 0.28335(8)
H20 H -0.1706 1.3432 0.2757
C31 C -0.10146(10) 1.2291(2) 0.24428(8)
H21 H -0.1162 1.2304 0.2101
C32 C -0.04673(9) 1.1593(2) 0.25577(7)
H22 H -0.0246 1.1150 0.2289
N1 N 0.07747(6) 0.82069(14) 0.44007(5)
N2 N 0.02448(6) 0.82531(13) 0.52015(5)
N3 N 0.12694(6) 0.86996(14) 0.40978(5)
N4 N 0.15614(6) 0.99622(15) 0.33358(5)
O1 O 0.05476(6) 0.66295(15) 0.37405(5)
O2 O 0.19011(6) 0.71375(14) 0.45323(5)

#END
