
#######################################################################
#
#                 Cambridge Crystallographic Data Centre
#                                CCDC 
#
#######################################################################
#
# If this CIF has been generated from an entry in the Cambridge 
# Structural Database, then it will include bibliographic, chemical, 
# crystal, experimental, refinement or atomic coordinate data resulting 
# from the CCDC's data processing and validation procedures.
#
#######################################################################

data_ABUKIT
_symmetry_cell_setting           monoclinic
_symmetry_space_group_name_H-M   'P 21/n'
_symmetry_Int_Tables_number      14
_space_group_name_Hall           '-P 2yn'
loop_
_symmetry_equiv_pos_site_id
_symmetry_equiv_pos_as_xyz
1 x,y,z
2 1/2-x,1/2+y,1/2-z
3 -x,-y,-z
4 1/2+x,1/2-y,1/2+z
_cell_length_a                   11.209(2)
_cell_length_b                   8.7858(19)
_cell_length_c                   15.171(3)
_cell_angle_alpha                90
_cell_angle_beta                 93.717(4)
_cell_angle_gamma                90
_cell_volume                     1490.9
loop_
_atom_site_label
_atom_site_type_symbol
_atom_site_fract_x
_atom_site_fract_y
_atom_site_fract_z
O1 O 0.22885(16) 0.81104(18) 0.48076(13)
O2 O 0.1082(2) 0.5653(2) 0.4276(2)
O3 O -0.06292(18) 0.5858(2) 0.36409(15)
O4 O -0.22984(17) 1.0543(2) 0.27185(14)
O5 O -0.13919(18) 1.2645(2) 0.30399(15)
O6 O 0.22775(17) 1.2705(2) 0.49070(14)
O7 O 0.32224(17) 1.0586(2) 0.52367(14)
N1 N 0.0276(2) 0.6426(2) 0.39676(16)
N2 N -0.1452(2) 1.1258(3) 0.30564(15)
C1 C 0.1389(2) 1.0434(3) 0.43636(17)
C2 C 0.1413(2) 0.8808(3) 0.43945(17)
C3 C 0.0407(2) 0.8071(3) 0.39582(16)
C4 C -0.0510(2) 0.8865(3) 0.35203(16)
C5 C -0.0469(2) 1.0422(3) 0.35018(17)
C6 C 0.0469(2) 1.1214(3) 0.39255(16)
C7 C 0.2332(2) 1.1334(3) 0.48518(18)
H1 H -0.115200 0.834800 0.324000
H2 H 0.047700 1.227300 0.391300
H3 H 0.301(3) 0.951(4) 0.513(2)
O1 O 0.27115(16) 0.31104(18) 0.01924(13)
O2 O 0.3918(2) 0.0653(2) 0.0724(2)
O3 O 0.56292(18) 0.0858(2) 0.13591(15)
O4 O 0.72984(17) 0.5543(2) 0.22815(14)
O5 O 0.63919(18) 0.7645(2) 0.19601(15)
O6 O 0.27225(17) 0.7705(2) 0.00930(14)
O7 O 0.17776(17) 0.5586(2) -0.02367(14)
N1 N 0.4724(2) 0.1426(2) 0.10324(16)
N2 N 0.6452(2) 0.6258(3) 0.19436(15)
C1 C 0.3611(2) 0.5434(3) 0.06364(17)
C2 C 0.3587(2) 0.3808(3) 0.06055(17)
C3 C 0.4593(2) 0.3071(3) 0.10418(16)
C4 C 0.5510(2) 0.3865(3) 0.14797(16)
C5 C 0.5469(2) 0.5422(3) 0.14982(17)
C6 C 0.4531(2) 0.6214(3) 0.10745(16)
C7 C 0.2668(2) 0.6334(3) 0.01482(18)
H1 H 0.615200 0.334800 0.176000
H2 H 0.452300 0.727300 0.108700
H3 H 0.199(3) 0.451(4) -0.013(2)
O1 O 0.77115(16) 0.18896(18) 0.51924(13)
O2 O 0.8918(2) 0.4347(2) 0.5724(2)
O3 O 1.06292(18) 0.4142(2) 0.63591(15)
O4 O 1.22984(17) -0.0543(2) 0.72815(14)
O5 O 1.13919(18) -0.2645(2) 0.69601(15)
O6 O 0.77225(17) -0.2705(2) 0.50930(14)
O7 O 0.67776(17) -0.0586(2) 0.47633(14)
N1 N 0.9724(2) 0.3574(2) 0.60324(16)
N2 N 1.1452(2) -0.1258(3) 0.69436(15)
C1 C 0.8611(2) -0.0434(3) 0.56364(17)
C2 C 0.8587(2) 0.1192(3) 0.56055(17)
C3 C 0.9593(2) 0.1929(3) 0.60418(16)
C4 C 1.0510(2) 0.1135(3) 0.64797(16)
C5 C 1.0469(2) -0.0422(3) 0.64982(17)
C6 C 0.9531(2) -0.1214(3) 0.60745(16)
C7 C 0.7668(2) -0.1334(3) 0.51482(18)
H1 H 1.115200 0.165200 0.676000
H2 H 0.952300 -0.227300 0.608700
H3 H 0.699(3) 0.049(4) 0.487(2)
O1 O 0.72885(16) 0.68896(18) 0.98076(13)
O2 O 0.6082(2) 0.9347(2) 0.9276(2)
O3 O 0.43708(18) 0.9142(2) 0.86409(15)
O4 O 0.27016(17) 0.4457(2) 0.77185(14)
O5 O 0.36081(18) 0.2355(2) 0.80399(15)
O6 O 0.72775(17) 0.2295(2) 0.99070(14)
O7 O 0.82224(17) 0.4414(2) 1.02367(14)
N1 N 0.5276(2) 0.8574(2) 0.89676(16)
N2 N 0.3548(2) 0.3742(3) 0.80564(15)
C1 C 0.6389(2) 0.4566(3) 0.93636(17)
C2 C 0.6413(2) 0.6192(3) 0.93945(17)
C3 C 0.5407(2) 0.6929(3) 0.89582(16)
C4 C 0.4490(2) 0.6135(3) 0.85203(16)
C5 C 0.4531(2) 0.4578(3) 0.85018(17)
C6 C 0.5469(2) 0.3786(3) 0.89255(16)
C7 C 0.7332(2) 0.3666(3) 0.98518(18)
H1 H 0.384800 0.665200 0.824000
H2 H 0.547700 0.272700 0.891300
H3 H 0.801(3) 0.549(4) 1.013(2)
O8 O 0.62014(16) 0.8527(2) 0.68974(13)
N3 N 0.2849(2) 0.5432(3) 0.57476(19)
C8 C 0.4103(2) 0.5598(3) 0.60658(16)
C9 C 0.4511(2) 0.7022(3) 0.63100(17)
C10 C 0.5691(2) 0.7184(3) 0.66320(18)
C11 C 0.6422(2) 0.5915(3) 0.6700(2)
C12 C 0.5982(3) 0.4515(3) 0.6459(2)
C13 C 0.4815(2) 0.4330(3) 0.61356(18)
C14 C 0.5522(3) 0.9898(3) 0.6751(2)
H4 H 0.277(2) 0.629(4) 0.545(2)
H5 H 0.276(3) 0.443(4) 0.546(2)
H6 H 0.224(3) 0.510(3) 0.594(3)
H7 H 0.400500 0.786100 0.626000
H8 H 0.530800 1.000800 0.613100
H9 H 0.599300 1.075500 0.695500
H10 H 0.481000 0.984600 0.706900
H11 H 0.721600 0.601600 0.691100
H12 H 0.648100 0.367000 0.651500
H13 H 0.451900 0.337600 0.597000
O8 O -0.12014(16) 0.3527(2) 0.81026(13)
N3 N 0.2151(2) 0.0432(3) 0.92524(19)
C8 C 0.0897(2) 0.0598(3) 0.89342(16)
C9 C 0.0489(2) 0.2022(3) 0.86900(17)
C10 C -0.0691(2) 0.2184(3) 0.83680(18)
C11 C -0.1422(2) 0.0915(3) 0.8300(2)
C12 C -0.0982(3) -0.0485(3) 0.8541(2)
C13 C 0.0185(2) -0.0670(3) 0.88644(18)
C14 C -0.0522(3) 0.4898(3) 0.8249(2)
H4 H 0.223(2) 0.129(4) 0.955(2)
H5 H 0.224(3) -0.057(4) 0.954(2)
H6 H 0.276(3) 0.010(3) 0.906(3)
H7 H 0.099500 0.286100 0.874000
H8 H -0.030800 0.500800 0.886900
H9 H -0.099300 0.575500 0.804500
H10 H 0.019000 0.484600 0.793100
H11 H -0.221600 0.101600 0.808900
H12 H -0.148100 -0.133000 0.848500
H13 H 0.048100 -0.162400 0.903000
O8 O 0.37986(16) 0.1473(2) 0.31026(13)
N3 N 0.7151(2) 0.4568(3) 0.42524(19)
C8 C 0.5897(2) 0.4402(3) 0.39342(16)
C9 C 0.5489(2) 0.2978(3) 0.36900(17)
C10 C 0.4309(2) 0.2816(3) 0.33680(18)
C11 C 0.3578(2) 0.4085(3) 0.3300(2)
C12 C 0.4018(3) 0.5485(3) 0.3541(2)
C13 C 0.5185(2) 0.5670(3) 0.38644(18)
C14 C 0.4478(3) 0.0102(3) 0.3249(2)
H4 H 0.723(2) 0.371(4) 0.455(2)
H5 H 0.724(3) 0.557(4) 0.454(2)
H6 H 0.776(3) 0.490(3) 0.406(3)
H7 H 0.599500 0.213900 0.374000
H8 H 0.469200 -0.000800 0.386900
H9 H 0.400700 -0.075500 0.304500
H10 H 0.519000 0.015400 0.293100
H11 H 0.278400 0.398400 0.308900
H12 H 0.351900 0.633000 0.348500
H13 H 0.548100 0.662400 0.403000
O8 O 1.12014(16) 0.6473(2) 0.18974(13)
N3 N 0.7849(2) 0.9568(3) 0.07476(19)
C8 C 0.9103(2) 0.9402(3) 0.10658(16)
C9 C 0.9511(2) 0.7978(3) 0.13100(17)
C10 C 1.0691(2) 0.7816(3) 0.16320(18)
C11 C 1.1422(2) 0.9085(3) 0.1700(2)
C12 C 1.0982(3) 1.0485(3) 0.1459(2)
C13 C 0.9815(2) 1.0670(3) 0.11356(18)
C14 C 1.0522(3) 0.5102(3) 0.1751(2)
H4 H 0.777(2) 0.871(4) 0.045(2)
H5 H 0.776(3) 1.057(4) 0.046(2)
H6 H 0.724(3) 0.990(3) 0.094(3)
H7 H 0.900500 0.713900 0.126000
H8 H 1.030800 0.499200 0.113100
H9 H 1.099300 0.424500 0.195500
H10 H 0.981000 0.515400 0.206900
H11 H 1.221600 0.898400 0.191100
H12 H 1.148100 1.133000 0.151500
H13 H 0.951900 1.162400 0.097000

#END
