
#######################################################################
#
#                 Cambridge Crystallographic Data Centre
#                                CCDC 
#
#######################################################################
#
# If this CIF has been generated from an entry in the Cambridge 
# Structural Database, then it will include bibliographic, chemical, 
# crystal, experimental, refinement or atomic coordinate data resulting 
# from the CCDC's data processing and validation procedures.
#
#######################################################################

data_ABUKOX
_symmetry_cell_setting           monoclinic
_symmetry_space_group_name_H-M   'P 21'
_symmetry_Int_Tables_number      4
_space_group_name_Hall           'P 2yb'
loop_
_symmetry_equiv_pos_site_id
_symmetry_equiv_pos_as_xyz
1 x,y,z
2 -x,1/2+y,-z
_cell_length_a                   11.345(2)
_cell_length_b                   6.079(3)
_cell_length_c                   20.274(2)
_cell_angle_alpha                90
_cell_angle_beta                 105.96(1)
_cell_angle_gamma                90
_cell_volume                     1344.33
loop_
_atom_site_label
_atom_site_type_symbol
_atom_site_fract_x
_atom_site_fract_y
_atom_site_fract_z
O1 O 0.93397(14) 1.0177(3) 0.28287(8)
O2 O 0.69438(15) 0.6561(3) 0.18787(8)
O3 O 0.65214(14) 0.8182(3) 0.30371(8)
O4 O 0.97140(14) 0.7022(3) 0.38856(8)
O5 O 0.8175(2) 1.2522(4) 0.13029(11)
O6 O 1.07909(17) 0.9421(4) 0.02469(9)
O7 O 0.66962(16) 0.3297(3) 0.23349(9)
O8 O 0.58170(18) 0.5508(4) 0.35916(12)
O9 O 1.03541(17) 0.9176(4) 0.48148(9)
N1 N 0.89962(17) 0.9172(4) 0.17007(10)
N2 N 0.9480(2) 1.0877(4) 0.07833(10)
H1 H 0.9359 1.1937 0.0491
C1 C 0.8435(2) 0.9263(5) 0.22724(12)
H2 H 0.7733 1.0268 0.2149
C2 C 0.7992(2) 0.7018(5) 0.24488(11)
H3 H 0.8629 0.5912 0.2466
C3 C 0.76738(19) 0.7067(5) 0.31453(11)
H4 H 0.7609 0.5563 0.3306
C4 C 0.8611(2) 0.8371(5) 0.36914(12)
H5 H 0.8299 0.8605 0.4091
C5 C 0.8878(2) 1.0539(5) 0.34164(12)
H6 H 0.8136 1.1417 0.3284
H7 H 0.9481 1.1333 0.3768
C6 C 0.8828(2) 1.0973(5) 0.12680(13)
C7 C 1.0300(2) 0.9284(5) 0.07143(12)
C8 C 1.0526(2) 0.7570(5) 0.12276(13)
C9 C 0.9867(2) 0.7601(5) 0.16854(13)
H8 H 1.0007 0.6492 0.2014
C10 C 1.1479(3) 0.5872(7) 0.12348(17)
H9 H 1.1524 0.4860 0.1604
H10 H 1.2260 0.6575 0.1297
H11 H 1.1267 0.5088 0.0807
C11 C 0.6379(2) 0.4604(5) 0.18793(13)
C12 C 0.5315(2) 0.4286(5) 0.12654(13)
C13 C 0.4742(3) 0.2245(6) 0.11872(16)
H12 H 0.5037 0.1136 0.1506
C14 C 0.3733(3) 0.1863(7) 0.06355(17)
H13 H 0.3338 0.0508 0.0588
C15 C 0.3316(3) 0.3482(7) 0.01595(16)
H14 H 0.2643 0.3213 -0.0214
C16 C 0.3879(3) 0.5491(7) 0.02273(15)
H15 H 0.3590 0.6579 -0.0100
C17 C 0.4883(2) 0.5905(6) 0.07847(14)
H16 H 0.5264 0.7274 0.0833
C18 C 0.5655(2) 0.7193(5) 0.32758(12)
C19 C 0.4492(2) 0.8485(5) 0.31104(12)
C20 C 0.3486(2) 0.7592(6) 0.32735(14)
H17 H 0.3545 0.6231 0.3490
C21 C 0.2383(2) 0.8750(7) 0.31109(15)
H18 H 0.1703 0.8163 0.3220
C22 C 0.2300(3) 1.0736(7) 0.27942(16)
H19 H 0.1557 1.1484 0.2679
C23 C 0.3304(3) 1.1656(7) 0.26418(17)
H20 H 0.3242 1.3028 0.2432
C24 C 0.4404(2) 1.0522(6) 0.28034(15)
H21 H 0.5086 1.1137 0.2704
C25 C 1.0534(2) 0.7667(5) 0.44771(12)
C26 C 1.1684(2) 0.6354(5) 0.46537(12)
C27 C 1.1814(2) 0.4396(6) 0.43335(14)
H22 H 1.1172 0.3867 0.3978
C28 C 1.2898(3) 0.3224(7) 0.45420(16)
H23 H 1.2987 0.1900 0.4331
C29 C 1.3853(3) 0.4045(7) 0.50711(15)
H24 H 1.4583 0.3261 0.5215
C30 C 1.3730(2) 0.5995(7) 0.53816(14)
H25 H 1.4376 0.6537 0.5732
C31 C 1.2652(2) 0.7152(6) 0.51759(13)
H26 H 1.2570 0.8478 0.5388
O1 O 0.06603(14) 0.5177(3) 0.71713(8)
O2 O 0.30562(15) 0.1561(3) 0.81213(8)
O3 O 0.34786(14) 0.3182(3) 0.69629(8)
O4 O 0.02860(14) 0.2022(3) 0.61144(8)
O5 O 0.1825(2) 0.7522(4) 0.86971(11)
O6 O -0.07909(17) 0.4421(4) 0.97531(9)
O7 O 0.33038(16) -0.1703(3) 0.76651(9)
O8 O 0.41830(18) 0.0508(4) 0.64084(12)
O9 O -0.03541(17) 0.4176(4) 0.51852(9)
N1 N 0.10038(17) 0.4172(4) 0.82993(10)
N2 N 0.0520(2) 0.5877(4) 0.92167(10)
H1 H 0.0641 0.6937 0.9509
C1 C 0.1565(2) 0.4263(5) 0.77276(12)
H2 H 0.2267 0.5268 0.7851
C2 C 0.2008(2) 0.2018(5) 0.75512(11)
H3 H 0.1371 0.0912 0.7534
C3 C 0.23262(19) 0.2067(5) 0.68547(11)
H4 H 0.2391 0.0563 0.6694
C4 C 0.1389(2) 0.3371(5) 0.63086(12)
H5 H 0.1701 0.3605 0.5909
C5 C 0.1122(2) 0.5539(5) 0.65836(12)
H6 H 0.1864 0.6417 0.6716
H7 H 0.0519 0.6333 0.6232
C6 C 0.1172(2) 0.5973(5) 0.87320(13)
C7 C -0.0300(2) 0.4284(5) 0.92857(12)
C8 C -0.0526(2) 0.2570(5) 0.87724(13)
C9 C 0.0133(2) 0.2601(5) 0.83146(13)
H8 H -0.0007 0.1492 0.7986
C10 C -0.1479(3) 0.0872(7) 0.87652(17)
H9 H -0.1524 -0.0140 0.8396
H10 H -0.2260 0.1575 0.8703
H11 H -0.1267 0.0088 0.9193
C11 C 0.3621(2) -0.0396(5) 0.81207(13)
C12 C 0.4685(2) -0.0714(5) 0.87346(13)
C13 C 0.5258(3) -0.2755(6) 0.88128(16)
H12 H 0.4963 -0.3864 0.8494
C14 C 0.6267(3) -0.3137(7) 0.93645(17)
H13 H 0.6662 -0.4492 0.9412
C15 C 0.6684(3) -0.1518(7) 0.98405(16)
H14 H 0.7357 -0.1787 1.0214
C16 C 0.6121(3) 0.0491(7) 0.97727(15)
H15 H 0.6410 0.1579 1.0100
C17 C 0.5117(2) 0.0905(6) 0.92153(14)
H16 H 0.4736 0.2274 0.9167
C18 C 0.4345(2) 0.2193(5) 0.67242(12)
C19 C 0.5508(2) 0.3485(5) 0.68896(12)
C20 C 0.6514(2) 0.2592(6) 0.67265(14)
H17 H 0.6455 0.1231 0.6510
C21 C 0.7617(2) 0.3750(7) 0.68891(15)
H18 H 0.8297 0.3163 0.6780
C22 C 0.7700(3) 0.5736(7) 0.72058(16)
H19 H 0.8443 0.6484 0.7321
C23 C 0.6696(3) 0.6656(7) 0.73582(17)
H20 H 0.6758 0.8028 0.7568
C24 C 0.5596(2) 0.5522(6) 0.71966(15)
H21 H 0.4914 0.6137 0.7296
C25 C -0.0534(2) 0.2667(5) 0.55229(12)
C26 C -0.1684(2) 0.1354(5) 0.53463(12)
C27 C -0.1814(2) -0.0604(6) 0.56665(14)
H22 H -0.1172 -0.1133 0.6022
C28 C -0.2898(3) -0.1776(7) 0.54580(16)
H23 H -0.2987 -0.3100 0.5669
C29 C -0.3853(3) -0.0955(7) 0.49289(15)
H24 H -0.4583 -0.1739 0.4785
C30 C -0.3730(2) 0.0995(7) 0.46184(14)
H25 H -0.4376 0.1537 0.4268
C31 C -0.2652(2) 0.2152(6) 0.48241(13)
H26 H -0.2570 0.3478 0.4612

#END
