./ABUKIT_from_xyz.cif_generated_by_CrystalShift
_symmetry_cell_setting triclinic
_symmetry_space_group_name_H-M 'P 1'
loop_
_symmetry_equiv_pos_site_id
_symmetry_equiv_pos_as_xyz
1 x,y,z
_cell_length_a 11.209000
_cell_length_b 8.785800
_cell_length_c 15.171000
_cell_angle_alpha 90.000000
_cell_angle_beta 93.717000
_cell_angle_gamma 90.000000
_cell_volume 1490.897775
loop_
_atom_site_label
_atom_site_type_symbol
_atom_site_fract_x
_atom_site_fract_y
_atom_site_fract_z
O1 O 0.228850 0.811040 0.480760
O2 O 0.108200 0.565300 0.427600
O3 O -0.062920 0.585800 0.364090
O4 O -0.229840 1.054300 0.271850
O5 O -0.139190 1.264500 0.303990
O6 O 0.227750 1.270500 0.490700
O7 O 0.322240 1.058600 0.523670
N8 N 0.027600 0.642600 0.396760
N9 N -0.145200 1.125800 0.305640
C10 C 0.138900 1.043400 0.436360
C11 C 0.141300 0.880800 0.439450
C12 C 0.040700 0.807100 0.395820
C13 C -0.051000 0.886500 0.352030
C14 C -0.046900 1.042200 0.350180
C15 C 0.046900 1.121400 0.392550
C16 C 0.233200 1.133400 0.485180
H17 H -0.115200 0.834800 0.324000
H18 H 0.047700 1.227300 0.391300
H19 H 0.301000 0.951000 0.513000
O20 O 0.271150 0.311040 0.019240
O21 O 0.391800 0.065300 0.072400
O22 O 0.562920 0.085800 0.135910
O23 O 0.729840 0.554300 0.228150
O24 O 0.639190 0.764500 0.196010
O25 O 0.272250 0.770500 0.009300
O26 O 0.177760 0.558600 -0.023670
N27 N 0.472400 0.142600 0.103240
N28 N 0.645200 0.625800 0.194360
C29 C 0.361100 0.543400 0.063640
C30 C 0.358700 0.380800 0.060550
C31 C 0.459300 0.307100 0.104180
C32 C 0.551000 0.386500 0.147970
C33 C 0.546900 0.542200 0.149820
C34 C 0.453100 0.621400 0.107450
C35 C 0.266800 0.633400 0.014820
H36 H 0.615200 0.334800 0.176000
H37 H 0.452300 0.727300 0.108700
H38 H 0.199000 0.451000 -0.013000
O39 O 0.771150 0.188960 0.519240
O40 O 0.891800 0.434700 0.572400
O41 O 1.062920 0.414200 0.635910
O42 O 1.229840 -0.054300 0.728150
O43 O 1.139190 -0.264500 0.696010
O44 O 0.772250 -0.270500 0.509300
O45 O 0.677760 -0.058600 0.476330
N46 N 0.972400 0.357400 0.603240
N47 N 1.145200 -0.125800 0.694360
C48 C 0.861100 -0.043400 0.563640
C49 C 0.858700 0.119200 0.560550
C50 C 0.959300 0.192900 0.604180
C51 C 1.051000 0.113500 0.647970
C52 C 1.046900 -0.042200 0.649820
C53 C 0.953100 -0.121400 0.607450
C54 C 0.766800 -0.133400 0.514820
H55 H 1.115200 0.165200 0.676000
H56 H 0.952300 -0.227300 0.608700
H57 H 0.699000 0.049000 0.487000
O58 O 0.728850 0.688960 0.980760
O59 O 0.608200 0.934700 0.927600
O60 O 0.437080 0.914200 0.864090
O61 O 0.270160 0.445700 0.771850
O62 O 0.360810 0.235500 0.803990
O63 O 0.727750 0.229500 0.990700
O64 O 0.822240 0.441400 1.023670
N65 N 0.527600 0.857400 0.896760
N66 N 0.354800 0.374200 0.805640
C67 C 0.638900 0.456600 0.936360
C68 C 0.641300 0.619200 0.939450
C69 C 0.540700 0.692900 0.895820
C70 C 0.449000 0.613500 0.852030
C71 C 0.453100 0.457800 0.850180
C72 C 0.546900 0.378600 0.892550
C73 C 0.733200 0.366600 0.985180
H74 H 0.384800 0.665200 0.824000
H75 H 0.547700 0.272700 0.891300
H76 H 0.801000 0.549000 1.013000
O77 O 0.620140 0.852700 0.689740
N78 N 0.284900 0.543200 0.574760
C79 C 0.410300 0.559800 0.606580
C80 C 0.451100 0.702200 0.631000
C81 C 0.569100 0.718400 0.663200
C82 C 0.642200 0.591500 0.670000
C83 C 0.598200 0.451500 0.645900
C84 C 0.481500 0.433000 0.613560
C85 C 0.552200 0.989800 0.675100
H86 H 0.277000 0.629000 0.545000
H87 H 0.276000 0.443000 0.546000
H88 H 0.224000 0.510000 0.594000
H89 H 0.400500 0.786100 0.626000
H90 H 0.530800 1.000800 0.613100
H91 H 0.599300 1.075500 0.695500
H92 H 0.481000 0.984600 0.706900
H93 H 0.721600 0.601600 0.691100
H94 H 0.648100 0.367000 0.651500
H95 H 0.451900 0.337600 0.597000
O96 O -0.120140 0.352700 0.810260
N97 N 0.215100 0.043200 0.925240
C98 C 0.089700 0.059800 0.893420
C99 C 0.048900 0.202200 0.869000
C100 C -0.069100 0.218400 0.836800
C101 C -0.142200 0.091500 0.830000
C102 C -0.098200 -0.048500 0.854100
C103 C 0.018500 -0.067000 0.886440
C104 C -0.052200 0.489800 0.824900
H105 H 0.223000 0.129000 0.955000
H106 H 0.224000 -0.057000 0.954000
H107 H 0.276000 0.010000 0.906000
H108 H 0.099500 0.286100 0.874000
H109 H -0.030800 0.500800 0.886900
H110 H -0.099300 0.575500 0.804500
H111 H 0.019000 0.484600 0.793100
H112 H -0.221600 0.101600 0.808900
H113 H -0.148100 -0.133000 0.848500
H114 H 0.048100 -0.162400 0.903000
O115 O 0.379860 0.147300 0.310260
N116 N 0.715100 0.456800 0.425240
C117 C 0.589700 0.440200 0.393420
C118 C 0.548900 0.297800 0.369000
C119 C 0.430900 0.281600 0.336800
C120 C 0.357800 0.408500 0.330000
C121 C 0.401800 0.548500 0.354100
C122 C 0.518500 0.567000 0.386440
C123 C 0.447800 0.010200 0.324900
H124 H 0.723000 0.371000 0.455000
H125 H 0.724000 0.557000 0.454000
H126 H 0.776000 0.490000 0.406000
H127 H 0.599500 0.213900 0.374000
H128 H 0.469200 -0.000800 0.386900
H129 H 0.400700 -0.075500 0.304500
H130 H 0.519000 0.015400 0.293100
H131 H 0.278400 0.398400 0.308900
H132 H 0.351900 0.633000 0.348500
H133 H 0.548100 0.662400 0.403000
O134 O 1.120140 0.647300 0.189740
N135 N 0.784900 0.956800 0.074760
C136 C 0.910300 0.940200 0.106580
C137 C 0.951100 0.797800 0.131000
C138 C 1.069100 0.781600 0.163200
C139 C 1.142200 0.908500 0.170000
C140 C 1.098200 1.048500 0.145900
C141 C 0.981500 1.067000 0.113560
C142 C 1.052200 0.510200 0.175100
H143 H 0.777000 0.871000 0.045000
H144 H 0.776000 1.057000 0.046000
H145 H 0.724000 0.990000 0.094000
H146 H 0.900500 0.713900 0.126000
H147 H 1.030800 0.499200 0.113100
H148 H 1.099300 0.424500 0.195500
H149 H 0.981000 0.515400 0.206900
H150 H 1.221600 0.898400 0.191100
H151 H 1.148100 1.133000 0.151500
H152 H 0.951900 1.162400 0.097000

#END
