
#######################################################################
#
#                 Cambridge Crystallographic Data Centre
#                                CCDC 
#
#######################################################################
#
# If this CIF has been generated from an entry in the Cambridge 
# Structural Database, then it will include bibliographic, chemical, 
# crystal, experimental, refinement or atomic coordinate data resulting 
# from the CCDC's data processing and validation procedures.
#
#######################################################################

data_ABUKOZ
_symmetry_cell_setting           monoclinic
_symmetry_space_group_name_H-M   'P 21/n'
_symmetry_Int_Tables_number      14
_space_group_name_Hall           '-P 2yn'
loop_
_symmetry_equiv_pos_site_id
_symmetry_equiv_pos_as_xyz
1 x,y,z
2 1/2-x,1/2+y,1/2-z
3 -x,-y,-z
4 1/2+x,1/2-y,1/2+z
_cell_length_a                   26.377(3)
_cell_length_b                   10.1602(12)
_cell_length_c                   5.1384(10)
_cell_angle_alpha                90
_cell_angle_beta                 91.996(13)
_cell_angle_gamma                90
_cell_volume                     1376.23
loop_
_atom_site_label
_atom_site_type_symbol
_atom_site_fract_x
_atom_site_fract_y
_atom_site_fract_z
O1 O 0.49510(9) 0.8453(3) 1.1869(5)
O2 O 0.46020(12) 0.6079(3) 1.0354(7)
O3 O 0.46169(12) 0.6030(3) 0.6147(6)
O4 O 0.63478(12) 0.6462(3) 0.3144(6)
O5 O 0.68159(13) 0.8011(4) 0.4795(7)
O6 O 0.61611(10) 1.0941(3) 1.1565(6)
O7 O 0.54832(11) 1.0264(3) 1.3617(5)
N1 N 0.47864(12) 0.6382(3) 0.8283(7)
N2 N 0.64298(14) 0.7347(4) 0.4713(7)
C1 C 0.57472(13) 0.8981(3) 1.0061(7)
C2 C 0.53060(13) 0.8202(4) 1.0177(6)
C3 C 0.52472(13) 0.7180(3) 0.8357(7)
C4 C 0.56073(14) 0.6901(4) 0.6551(7)
C5 C 0.60411(14) 0.7647(4) 0.6600(7)
C6 C 0.61135(13) 0.8688(4) 0.8305(7)
C7 C 0.58064(14) 1.0141(4) 1.1851(7)
H1 H 0.5108(19) 0.916(5) 1.293(10)
H2 H 0.55570 0.62140 0.53150
H3 H 0.64150 0.92000 0.82660
O1 O 1.00490(9) 0.3453(3) 0.3131(5)
O2 O 1.03980(12) 0.1079(3) 0.4646(7)
O3 O 1.03831(12) 0.1030(3) 0.8853(6)
O4 O 0.86522(12) 0.1462(3) 1.1856(6)
O5 O 0.81841(13) 0.3011(4) 1.0205(7)
O6 O 0.88389(10) 0.5941(3) 0.3435(6)
O7 O 0.95168(11) 0.5264(3) 0.1383(5)
N1 N 1.02136(12) 0.1382(3) 0.6717(7)
N2 N 0.85702(14) 0.2347(4) 1.0287(7)
C1 C 0.92528(13) 0.3981(3) 0.4939(7)
C2 C 0.96940(13) 0.3202(4) 0.4823(6)
C3 C 0.97528(13) 0.2180(3) 0.6643(7)
C4 C 0.93927(14) 0.1901(4) 0.8449(7)
C5 C 0.89589(14) 0.2647(4) 0.8400(7)
C6 C 0.88865(13) 0.3688(4) 0.6695(7)
C7 C 0.91936(14) 0.5141(4) 0.3149(7)
H1 H 0.9892(19) 0.416(5) 0.207(10)
H2 H 0.94430 0.12140 0.96850
H3 H 0.85850 0.42000 0.67340
O1 O 0.50490(9) 0.1547(3) -0.1869(5)
O2 O 0.53980(12) 0.3921(3) -0.0354(7)
O3 O 0.53831(12) 0.3970(3) 0.3853(6)
O4 O 0.36522(12) 0.3538(3) 0.6856(6)
O5 O 0.31841(13) 0.1989(4) 0.5205(7)
O6 O 0.38389(10) -0.0941(3) -0.1565(6)
O7 O 0.45168(11) -0.0264(3) -0.3617(5)
N1 N 0.52136(12) 0.3618(3) 0.1717(7)
N2 N 0.35702(14) 0.2653(4) 0.5287(7)
C1 C 0.42528(13) 0.1019(3) -0.0061(7)
C2 C 0.46940(13) 0.1798(4) -0.0177(6)
C3 C 0.47528(13) 0.2820(3) 0.1643(7)
C4 C 0.43927(14) 0.3099(4) 0.3449(7)
C5 C 0.39589(14) 0.2353(4) 0.3400(7)
C6 C 0.38865(13) 0.1312(4) 0.1695(7)
C7 C 0.41936(14) -0.0141(4) -0.1851(7)
H1 H 0.4892(19) 0.084(5) -0.293(10)
H2 H 0.44430 0.37860 0.46850
H3 H 0.35850 0.08000 0.17340
O1 O -0.00490(9) 0.6547(3) 0.6869(5)
O2 O -0.03980(12) 0.8921(3) 0.5354(7)
O3 O -0.03831(12) 0.8970(3) 0.1147(6)
O4 O 0.13478(12) 0.8538(3) -0.1856(6)
O5 O 0.18159(13) 0.6989(4) -0.0205(7)
O6 O 0.11611(10) 0.4059(3) 0.6565(6)
O7 O 0.04832(11) 0.4736(3) 0.8617(5)
N1 N -0.02136(12) 0.8618(3) 0.3283(7)
N2 N 0.14298(14) 0.7653(4) -0.0287(7)
C1 C 0.07472(13) 0.6019(3) 0.5061(7)
C2 C 0.03060(13) 0.6798(4) 0.5177(6)
C3 C 0.02472(13) 0.7820(3) 0.3357(7)
C4 C 0.06073(14) 0.8099(4) 0.1551(7)
C5 C 0.10411(14) 0.7353(4) 0.1600(7)
C6 C 0.11135(13) 0.6312(4) 0.3305(7)
C7 C 0.08064(14) 0.4859(4) 0.6851(7)
H1 H 0.0108(19) 0.584(5) 0.793(10)
H2 H 0.05570 0.87860 0.03150
H3 H 0.14150 0.58000 0.32660
F1 F 0.22213(10) 0.4312(3) 0.3586(7)
N3 N 0.38503(14) 0.7732(4) 0.3298(8)
C8 C 0.34229(13) 0.6797(4) 0.3411(7)
C9 C 0.30628(16) 0.6986(4) 0.5242(8)
C10 C 0.26547(16) 0.6134(5) 0.5299(9)
C11 C 0.26272(15) 0.5141(4) 0.3533(9)
C12 C 0.29803(15) 0.4934(4) 0.1694(8)
C13 C 0.33897(14) 0.5787(4) 0.1639(8)
H4 H 0.3845(17) 0.820(5) 0.485(10)
H5 H 0.417(2) 0.733(5) 0.317(10)
H6 H 0.3850(19) 0.816(6) 0.174(11)
H7 H 0.30940 0.76910 0.64500
H8 H 0.24000 0.62410 0.65430
H9 H 0.29460 0.42270 0.04900
H10 H 0.36440 0.56740 0.03930
F1 F 0.27787(10) -0.0688(3) 0.1414(7)
N3 N 0.11497(14) 0.2732(4) 0.1702(8)
C8 C 0.15771(13) 0.1797(4) 0.1589(7)
C9 C 0.19372(16) 0.1986(4) -0.0242(8)
C10 C 0.23453(16) 0.1134(5) -0.0299(9)
C11 C 0.23728(15) 0.0141(4) 0.1467(9)
C12 C 0.20197(15) -0.0066(4) 0.3306(8)
C13 C 0.16103(14) 0.0787(4) 0.3361(8)
H4 H 0.1155(17) 0.320(5) 0.015(10)
H5 H 0.083(2) 0.233(5) 0.183(10)
H6 H 0.1150(19) 0.316(6) 0.326(11)
H7 H 0.19060 0.26910 -0.14500
H8 H 0.26000 0.12410 -0.15430
H9 H 0.20540 -0.07730 0.45100
H10 H 0.13560 0.06740 0.46070
F1 F 0.77787(10) 0.5688(3) 0.6414(7)
N3 N 0.61497(14) 0.2268(4) 0.6702(8)
C8 C 0.65771(13) 0.3203(4) 0.6589(7)
C9 C 0.69372(16) 0.3014(4) 0.4758(8)
C10 C 0.73453(16) 0.3866(5) 0.4701(9)
C11 C 0.73728(15) 0.4859(4) 0.6467(9)
C12 C 0.70197(15) 0.5066(4) 0.8306(8)
C13 C 0.66103(14) 0.4213(4) 0.8361(8)
H4 H 0.6155(17) 0.180(5) 0.515(10)
H5 H 0.583(2) 0.267(5) 0.683(10)
H6 H 0.6150(19) 0.184(6) 0.826(11)
H7 H 0.69060 0.23090 0.35500
H8 H 0.76000 0.37590 0.34570
H9 H 0.70540 0.57730 0.95100
H10 H 0.63560 0.43260 0.96070
F1 F 0.72213(10) 1.0688(3) 0.8586(7)
N3 N 0.88503(14) 0.7268(4) 0.8298(8)
C8 C 0.84229(13) 0.8203(4) 0.8411(7)
C9 C 0.80628(16) 0.8014(4) 1.0242(8)
C10 C 0.76547(16) 0.8866(5) 1.0299(9)
C11 C 0.76272(15) 0.9859(4) 0.8533(9)
C12 C 0.79803(15) 1.0066(4) 0.6694(8)
C13 C 0.83897(14) 0.9213(4) 0.6639(8)
H4 H 0.8845(17) 0.680(5) 0.985(10)
H5 H 0.917(2) 0.767(5) 0.817(10)
H6 H 0.8850(19) 0.684(6) 0.674(11)
H7 H 0.80940 0.73090 1.14500
H8 H 0.74000 0.87590 1.15430
H9 H 0.79460 1.07730 0.54900
H10 H 0.86440 0.93260 0.53930

#END
