
#######################################################################
#
#                 Cambridge Crystallographic Data Centre
#                                CCDC 
#
#######################################################################
#
# If this CIF has been generated from an entry in the Cambridge 
# Structural Database, then it will include bibliographic, chemical, 
# crystal, experimental, refinement or atomic coordinate data resulting 
# from the CCDC's data processing and validation procedures.
#
#######################################################################

data_ABULOA
_symmetry_cell_setting           triclinic
_symmetry_space_group_name_H-M   'P -1'
_symmetry_Int_Tables_number      2
_space_group_name_Hall           '-P 1'
loop_
_symmetry_equiv_pos_site_id
_symmetry_equiv_pos_as_xyz
1 x,y,z
2 -x,-y,-z
_cell_length_a                   7.1635(10)
_cell_length_b                   7.4178(12)
_cell_length_c                   8.9524(12)
_cell_angle_alpha                79.713(12)
_cell_angle_beta                 73.474(12)
_cell_angle_gamma                85.320(12)
_cell_volume                     448.486
loop_
_atom_site_label
_atom_site_type_symbol
_atom_site_fract_x
_atom_site_fract_y
_atom_site_fract_z
C1 C 1.0949(2) 0.1732(2) 0.58608(19)
C2 C 1.3521(2) 0.1653(2) 0.3348(2)
H1 H 1.4453 0.2396 0.352
H2 H 1.3577 0.1863 0.2246
H3 H 1.3817 0.0383 0.3673
C3 C 1.0224(2) 0.3080(2) 0.35459(19)
C4 C 0.8383(2) 0.3566(2) 0.44229(19)
C5 C 0.7885(2) 0.30724(19) 0.60666(19)
C6 C 0.8718(2) 0.4474(2) 0.2005(2)
H4 H 0.8444 0.5012 0.1066
C7 C 1.1740(3) 0.0361(3) 0.8183(2)
H5 H 1.1373 0.1457 0.8643
H6 H 1.282 -0.0249 0.8522
H7 H 1.0658 -0.0438 0.8516
C8 C 0.5738(2) 0.2994(2) 0.87442(19)
H8 H 0.5836 0.1688 0.9044
H9 H 0.4444 0.3427 0.9223
H10 H 0.6658 0.3565 0.9093
N1 N 0.92241(17) 0.21287(17) 0.67570(15)
N2 N 1.15604(17) 0.21388(17) 0.42706(16)
N3 N 0.61566(17) 0.34483(18) 0.70399(15)
H11 H 0.5257 0.3981 0.664
N4 N 0.74015(17) 0.44941(17) 0.33830(15)
N5 N 1.04828(18) 0.36428(19) 0.20018(17)
O1 O 1.22932(14) 0.08310(15) 0.64951(13)
C1 C -0.0949(2) 0.8268(2) 0.41392(19)
C2 C -0.3521(2) 0.8347(2) 0.6652(2)
H1 H -0.4453 0.7604 0.648
H2 H -0.3577 0.8137 0.7754
H3 H -0.3817 0.9617 0.6327
C3 C -0.0224(2) 0.6920(2) 0.64541(19)
C4 C 0.1617(2) 0.6434(2) 0.55771(19)
C5 C 0.2115(2) 0.69276(19) 0.39334(19)
C6 C 0.1282(2) 0.5526(2) 0.7995(2)
H4 H 0.1556 0.4988 0.8934
C7 C -0.1740(3) 0.9639(3) 0.1817(2)
H5 H -0.1373 0.8543 0.1357
H6 H -0.282 1.0249 0.1478
H7 H -0.0658 1.0438 0.1484
C8 C 0.4262(2) 0.7006(2) 0.12558(19)
H8 H 0.4164 0.8312 0.0956
H9 H 0.5556 0.6573 0.0777
H10 H 0.3342 0.6435 0.0907
N1 N 0.07759(17) 0.78713(17) 0.32430(15)
N2 N -0.15604(17) 0.78612(17) 0.57294(16)
N3 N 0.38434(17) 0.65517(18) 0.29601(15)
H11 H 0.4743 0.6019 0.336
N4 N 0.25985(17) 0.55059(17) 0.66170(15)
N5 N -0.04828(18) 0.63572(19) 0.79982(17)
O1 O -0.22932(14) 0.91690(15) 0.35049(13)

#END
