./ABUMIT_from_xyz.cif_generated_by_CrystalShift
_symmetry_cell_setting triclinic
_symmetry_space_group_name_H-M 'P 1'
loop_
_symmetry_equiv_pos_site_id
_symmetry_equiv_pos_as_xyz
1 x,y,z
_cell_length_a 3.949500
_cell_length_b 10.626000
_cell_length_c 15.270000
_cell_angle_alpha 90.000000
_cell_angle_beta 97.000000
_cell_angle_gamma 90.000000
_cell_volume 636.065272
loop_
_atom_site_label
_atom_site_type_symbol
_atom_site_fract_x
_atom_site_fract_y
_atom_site_fract_z
Cl1 Cl -0.008700 0.803500 0.796920
Cl2 Cl -0.276500 0.991060 0.642970
C3 C 0.019200 0.765200 0.687680
C4 C -0.101000 0.847200 0.620180
C5 C -0.075600 0.814200 0.533240
H6 H -0.158000 0.870600 0.486300
C7 C 0.068500 0.701200 0.514340
H8 H 0.084500 0.678800 0.454100
C9 C 0.189000 0.619200 0.581640
H10 H 0.289500 0.540500 0.567900
C11 C 0.164700 0.651200 0.668670
H12 H 0.248900 0.594800 0.715500
Cl13 Cl 0.491300 0.696500 0.296920
Cl14 Cl 0.223500 0.508940 0.142970
C15 C 0.519200 0.734800 0.187680
C16 C 0.399000 0.652800 0.120180
C17 C 0.424400 0.685800 0.033240
H18 H 0.342000 0.629400 -0.013700
C19 C 0.568500 0.798800 0.014340
H20 H 0.584500 0.821200 -0.045900
C21 C 0.689000 0.880800 0.081640
H22 H 0.789500 0.959500 0.067900
C23 C 0.664700 0.848800 0.168670
H24 H 0.748900 0.905200 0.215500
Cl25 Cl 1.008700 0.196500 0.203080
Cl26 Cl 1.276500 0.008940 0.357030
C27 C 0.980800 0.234800 0.312320
C28 C 1.101000 0.152800 0.379820
C29 C 1.075600 0.185800 0.466760
H30 H 1.158000 0.129400 0.513700
C31 C 0.931500 0.298800 0.485660
H32 H 0.915500 0.321200 0.545900
C33 C 0.811000 0.380800 0.418360
H34 H 0.710500 0.459500 0.432100
C35 C 0.835300 0.348800 0.331330
H36 H 0.751100 0.405200 0.284500
Cl37 Cl 0.508700 0.303500 0.703080
Cl38 Cl 0.776500 0.491060 0.857030
C39 C 0.480800 0.265200 0.812320
C40 C 0.601000 0.347200 0.879820
C41 C 0.575600 0.314200 0.966760
H42 H 0.658000 0.370600 1.013700
C43 C 0.431500 0.201200 0.985660
H44 H 0.415500 0.178800 1.045900
C45 C 0.311000 0.119200 0.918360
H46 H 0.210500 0.040500 0.932100
C47 C 0.335300 0.151200 0.831330
H48 H 0.251100 0.094800 0.784500

#END
