
#######################################################################
#
#                 Cambridge Crystallographic Data Centre
#                                CCDC 
#
#######################################################################
#
# If this CIF has been generated from an entry in the Cambridge 
# Structural Database, then it will include bibliographic, chemical, 
# crystal, experimental, refinement or atomic coordinate data resulting 
# from the CCDC's data processing and validation procedures.
#
#######################################################################

data_ABUNIU01
_symmetry_cell_setting           monoclinic
_symmetry_space_group_name_H-M   'P 21/c'
_symmetry_Int_Tables_number      14
_space_group_name_Hall           '-P 2ybc'
loop_
_symmetry_equiv_pos_site_id
_symmetry_equiv_pos_as_xyz
1 x,y,z
2 -x,1/2+y,1/2-z
3 -x,-y,-z
4 x,1/2-y,1/2+z
_cell_length_a                   8.0299(3)
_cell_length_b                   16.7514(5)
_cell_length_c                   18.9323(7)
_cell_angle_alpha                90
_cell_angle_beta                 98.582(1)
_cell_angle_gamma                90
_cell_volume                     2518.11
loop_
_atom_site_label
_atom_site_type_symbol
_atom_site_fract_x
_atom_site_fract_y
_atom_site_fract_z
C1 C 0.50250(20) 0.61322(10) 0.31456(8)
C2 C 0.22030(20) 0.76101(9) 0.45951(7)
C3 C 0.22486(19) 0.68439(9) 0.49552(7)
C4 C 0.39007(18) 0.66049(9) 0.34844(7)
C5 C 0.59600(20) 0.76914(11) 0.35820(9)
C6 C 0.22450(20) 0.63104(10) 0.34579(7)
C7 C 0.37030(20) 0.63659(10) 0.50883(8)
C8 C 0.37280(30) 0.87165(11) 0.41454(9)
C9 C 0.44522(19) 0.73788(9) 0.37741(7)
C10 C 0.37010(30) 0.56569(11) 0.54505(8)
C11 C 0.70560(20) 0.71838(15) 0.32557(10)
C12 C 0.66410(20) 0.64351(15) 0.30674(10)
C13 C 0.34640(20) 0.78819(9) 0.41788(8)
C14 C 0.52040(30) 0.90108(14) 0.39016(12)
C15 C 0.17700(30) 0.55823(10) 0.31672(9)
C16 C 0.63350(30) 0.85128(14) 0.36786(11)
C17 C 0.08010(20) 0.65801(11) 0.52400(8)
C18 C 0.09080(20) 0.81426(11) 0.47080(8)
C19 C 0.29130(30) 0.51040(12) 0.28734(10)
C20 C 0.08260(30) 0.58298(13) 0.55775(9)
C21 C 0.24730(40) 0.92458(13) 0.43384(12)
C22 C 0.22380(30) 0.53760(12) 0.56781(10)
C23 C -0.06050(20) 0.71036(15) 0.52216(10)
C24 C 0.44880(30) 0.53818(12) 0.28563(10)
C25 C -0.05150(30) 0.78564(15) 0.49997(9)
C26 C 0.10690(40) 0.89652(13) 0.45496(11)
H1 H 0.1426(19) 0.6643(9) 0.3633(8)
H2 H 0.4760(20) 0.6553(9) 0.4939(8)
H3 H -0.0210(30) 0.5636(12) 0.5738(11)
H4 H 0.8120(30) 0.7405(12) 0.3170(11)
H5 H 0.7400(30) 0.6109(13) 0.2834(11)
H6 H 0.0120(30) 0.9295(13) 0.4671(12)
H7 H -0.1450(30) 0.8243(12) 0.5032(11)
H8 H 0.4740(20) 0.5360(11) 0.5547(10)
H9 H 0.0610(20) 0.5397(11) 0.3153(10)
H10 H 0.7400(30) 0.8704(13) 0.3546(11)
H11 H -0.1590(30) 0.6918(13) 0.5406(12)
H12 H 0.2700(30) 0.9814(15) 0.4291(12)
H13 H 0.2550(20) 0.4580(13) 0.2668(11)
H14 H 0.5280(30) 0.5091(12) 0.2621(11)
H15 H 0.5310(30) 0.9575(16) 0.3915(13)
H16 H 0.2220(30) 0.4856(13) 0.5912(11)
C1 C 0.49750(20) 0.11322(10) 0.18544(8)
C2 C 0.77970(20) 0.26101(9) 0.04049(7)
C3 C 0.77514(19) 0.18439(9) 0.00448(7)
C4 C 0.60993(18) 0.16049(9) 0.15156(7)
C5 C 0.40400(20) 0.26914(11) 0.14180(9)
C6 C 0.77550(20) 0.13104(10) 0.15421(7)
C7 C 0.62970(20) 0.13659(10) -0.00883(8)
C8 C 0.62720(30) 0.37165(11) 0.08546(9)
C9 C 0.55478(19) 0.23788(9) 0.12259(7)
C10 C 0.62990(30) 0.06569(11) -0.04505(8)
C11 C 0.29440(20) 0.21838(15) 0.17443(10)
C12 C 0.33590(20) 0.14351(15) 0.19326(10)
C13 C 0.65360(20) 0.28819(9) 0.08212(8)
C14 C 0.47960(30) 0.40108(14) 0.10984(12)
C15 C 0.82300(30) 0.05823(10) 0.18328(9)
C16 C 0.36650(30) 0.35128(14) 0.13214(11)
C17 C 0.91990(20) 0.15801(11) -0.02400(8)
C18 C 0.90920(20) 0.31426(11) 0.02920(8)
C19 C 0.70870(30) 0.01040(12) 0.21266(10)
C20 C 0.91740(30) 0.08298(13) -0.05775(9)
C21 C 0.75270(40) 0.42458(13) 0.06616(12)
C22 C 0.77620(30) 0.03760(12) -0.06781(10)
C23 C 1.06050(20) 0.21036(15) -0.02216(10)
C24 C 0.55120(30) 0.03818(12) 0.21437(10)
C25 C 1.05150(30) 0.28564(15) 0.00003(9)
C26 C 0.89310(40) 0.39652(13) 0.04504(11)
H1 H 0.8574(19) 0.1643(9) 0.1367(8)
H2 H 0.5240(20) 0.1553(9) 0.0061(8)
H3 H 1.0210(30) 0.0636(12) -0.0738(11)
H4 H 0.1880(30) 0.2405(12) 0.1830(11)
H5 H 0.2600(30) 0.1109(13) 0.2166(11)
H6 H 0.9880(30) 0.4295(13) 0.0329(12)
H7 H 1.1450(30) 0.3243(12) -0.0032(11)
H8 H 0.5260(20) 0.0360(11) -0.0547(10)
H9 H 0.9390(20) 0.0397(11) 0.1847(10)
H10 H 0.2600(30) 0.3704(13) 0.1454(11)
H11 H 1.1590(30) 0.1918(13) -0.0406(12)
H12 H 0.7300(30) 0.4814(15) 0.0709(12)
H13 H 0.7450(20) -0.0420(13) 0.2332(11)
H14 H 0.4720(30) 0.0091(12) 0.2379(11)
H15 H 0.4690(30) 0.4575(16) 0.1085(13)
H16 H 0.7780(30) -0.0144(13) -0.0912(11)
C1 C 0.49750(20) 0.38678(10) 0.68544(8)
C2 C 0.77970(20) 0.23899(9) 0.54049(7)
C3 C 0.77514(19) 0.31561(9) 0.50448(7)
C4 C 0.60993(18) 0.33951(9) 0.65156(7)
C5 C 0.40400(20) 0.23086(11) 0.64180(9)
C6 C 0.77550(20) 0.36896(10) 0.65421(7)
C7 C 0.62970(20) 0.36341(10) 0.49117(8)
C8 C 0.62720(30) 0.12835(11) 0.58546(9)
C9 C 0.55478(19) 0.26212(9) 0.62259(7)
C10 C 0.62990(30) 0.43431(11) 0.45495(8)
C11 C 0.29440(20) 0.28162(15) 0.67443(10)
C12 C 0.33590(20) 0.35649(15) 0.69326(10)
C13 C 0.65360(20) 0.21181(9) 0.58212(8)
C14 C 0.47960(30) 0.09892(14) 0.60984(12)
C15 C 0.82300(30) 0.44177(10) 0.68328(9)
C16 C 0.36650(30) 0.14872(14) 0.63214(11)
C17 C 0.91990(20) 0.34199(11) 0.47600(8)
C18 C 0.90920(20) 0.18574(11) 0.52920(8)
C19 C 0.70870(30) 0.48960(12) 0.71266(10)
C20 C 0.91740(30) 0.41702(13) 0.44225(9)
C21 C 0.75270(40) 0.07542(13) 0.56616(12)
C22 C 0.77620(30) 0.46240(12) 0.43219(10)
C23 C 1.06050(20) 0.28964(15) 0.47784(10)
C24 C 0.55120(30) 0.46182(12) 0.71437(10)
C25 C 1.05150(30) 0.21436(15) 0.50003(9)
C26 C 0.89310(40) 0.10348(13) 0.54504(11)
H1 H 0.8574(19) 0.3357(9) 0.6367(8)
H2 H 0.5240(20) 0.3447(9) 0.5061(8)
H3 H 1.0210(30) 0.4364(12) 0.4262(11)
H4 H 0.1880(30) 0.2595(12) 0.6830(11)
H5 H 0.2600(30) 0.3891(13) 0.7166(11)
H6 H 0.9880(30) 0.0705(13) 0.5329(12)
H7 H 1.1450(30) 0.1757(12) 0.4968(11)
H8 H 0.5260(20) 0.4640(11) 0.4453(10)
H9 H 0.9390(20) 0.4603(11) 0.6847(10)
H10 H 0.2600(30) 0.1296(13) 0.6454(11)
H11 H 1.1590(30) 0.3082(13) 0.4594(12)
H12 H 0.7300(30) 0.0186(15) 0.5709(12)
H13 H 0.7450(20) 0.5420(13) 0.7332(11)
H14 H 0.4720(30) 0.4909(12) 0.7379(11)
H15 H 0.4690(30) 0.0425(16) 0.6085(13)
H16 H 0.7780(30) 0.5144(13) 0.4088(11)
C1 C 0.50250(20) 0.88678(10) 0.81456(8)
C2 C 0.22030(20) 0.73899(9) 0.95951(7)
C3 C 0.22486(19) 0.81561(9) 0.99552(7)
C4 C 0.39007(18) 0.83951(9) 0.84844(7)
C5 C 0.59600(20) 0.73086(11) 0.85820(9)
C6 C 0.22450(20) 0.86896(10) 0.84579(7)
C7 C 0.37030(20) 0.86341(10) 1.00883(8)
C8 C 0.37280(30) 0.62835(11) 0.91454(9)
C9 C 0.44522(19) 0.76212(9) 0.87741(7)
C10 C 0.37010(30) 0.93431(11) 1.04505(8)
C11 C 0.70560(20) 0.78162(15) 0.82557(10)
C12 C 0.66410(20) 0.85649(15) 0.80674(10)
C13 C 0.34640(20) 0.71181(9) 0.91788(8)
C14 C 0.52040(30) 0.59892(14) 0.89016(12)
C15 C 0.17700(30) 0.94177(10) 0.81672(9)
C16 C 0.63350(30) 0.64872(14) 0.86786(11)
C17 C 0.08010(20) 0.84199(11) 1.02400(8)
C18 C 0.09080(20) 0.68574(11) 0.97080(8)
C19 C 0.29130(30) 0.98960(12) 0.78734(10)
C20 C 0.08260(30) 0.91702(13) 1.05775(9)
C21 C 0.24730(40) 0.57542(13) 0.93384(12)
C22 C 0.22380(30) 0.96240(12) 1.06781(10)
C23 C -0.06050(20) 0.78964(15) 1.02216(10)
C24 C 0.44880(30) 0.96182(12) 0.78563(10)
C25 C -0.05150(30) 0.71436(15) 0.99997(9)
C26 C 0.10690(40) 0.60348(13) 0.95496(11)
H1 H 0.1426(19) 0.8357(9) 0.8633(8)
H2 H 0.4760(20) 0.8447(9) 0.9939(8)
H3 H -0.0210(30) 0.9364(12) 1.0738(11)
H4 H 0.8120(30) 0.7595(12) 0.8170(11)
H5 H 0.7400(30) 0.8891(13) 0.7834(11)
H6 H 0.0120(30) 0.5705(13) 0.9671(12)
H7 H -0.1450(30) 0.6757(12) 1.0032(11)
H8 H 0.4740(20) 0.9640(11) 1.0547(10)
H9 H 0.0610(20) 0.9603(11) 0.8153(10)
H10 H 0.7400(30) 0.6296(13) 0.8546(11)
H11 H -0.1590(30) 0.8082(13) 1.0406(12)
H12 H 0.2700(30) 0.5186(15) 0.9291(12)
H13 H 0.2550(20) 1.0420(13) 0.7668(11)
H14 H 0.5280(30) 0.9909(12) 0.7621(11)
H15 H 0.5310(30) 0.5425(16) 0.8915(13)
H16 H 0.2220(30) 1.0144(13) 1.0912(11)
C27 C 0.41589(19) 0.74485(10) 0.16021(8)
C28 C 0.35673(19) 0.80833(10) 0.19467(8)
O1 O 0.19926(19) 0.93248(8) 0.24942(7)
C29 C 0.16680(20) 0.67249(9) 0.16324(8)
C30 C 0.19697(19) 0.80121(9) 0.21228(8)
O2 O -0.00305(18) 0.85763(10) 0.27237(9)
C31 C 0.32430(20) 0.67600(11) 0.14342(9)
C32 C 0.09910(20) 0.73419(10) 0.19726(8)
N1 N 0.12576(18) 0.86901(9) 0.24719(7)
O3 O 0.67231(17) 0.80724(10) 0.15974(9)
N2 N 0.58410(20) 0.75084(11) 0.13842(9)
O4 O 0.62240(20) 0.69912(12) 0.09892(11)
N3 N 0.06530(30) 0.59985(10) 0.14641(9)
O5 O -0.07650(20) 0.59897(9) 0.16247(10)
O6 O 0.13110(20) 0.54506(9) 0.11780(9)
H17 H 0.4210(20) 0.8557(10) 0.2058(8)
H18 H 0.3650(20) 0.6345(11) 0.1169(10)
H19 H -0.0100(20) 0.7312(10) 0.2082(9)
C27 C 0.58411(19) 0.24485(10) 0.33979(8)
C28 C 0.64327(19) 0.30833(10) 0.30533(8)
O1 O 0.80074(19) 0.43248(8) 0.25058(7)
C29 C 0.83320(20) 0.17249(9) 0.33676(8)
C30 C 0.80303(19) 0.30121(9) 0.28772(8)
O2 O 1.00305(18) 0.35763(10) 0.22763(9)
C31 C 0.67570(20) 0.17600(11) 0.35658(9)
C32 C 0.90090(20) 0.23419(10) 0.30274(8)
N1 N 0.87424(18) 0.36901(9) 0.25281(7)
O3 O 0.32769(17) 0.30724(10) 0.34026(9)
N2 N 0.41590(20) 0.25084(11) 0.36158(9)
O4 O 0.37760(20) 0.19912(12) 0.40108(11)
N3 N 0.93470(30) 0.09985(10) 0.35359(9)
O5 O 1.07650(20) 0.09897(9) 0.33753(10)
O6 O 0.86890(20) 0.04506(9) 0.38220(9)
H17 H 0.5790(20) 0.3557(10) 0.2942(8)
H18 H 0.6350(20) 0.1345(11) 0.3831(10)
H19 H 1.0100(20) 0.2312(10) 0.2918(9)
C27 C 0.58411(19) 0.25515(10) 0.83979(8)
C28 C 0.64327(19) 0.19167(10) 0.80533(8)
O1 O 0.80074(19) 0.06752(8) 0.75058(7)
C29 C 0.83320(20) 0.32751(9) 0.83676(8)
C30 C 0.80303(19) 0.19879(9) 0.78772(8)
O2 O 1.00305(18) 0.14237(10) 0.72763(9)
C31 C 0.67570(20) 0.32400(11) 0.85658(9)
C32 C 0.90090(20) 0.26581(10) 0.80274(8)
N1 N 0.87424(18) 0.13099(9) 0.75281(7)
O3 O 0.32769(17) 0.19276(10) 0.84026(9)
N2 N 0.41590(20) 0.24916(11) 0.86158(9)
O4 O 0.37760(20) 0.30088(12) 0.90108(11)
N3 N 0.93470(30) 0.40015(10) 0.85359(9)
O5 O 1.07650(20) 0.40103(9) 0.83753(10)
O6 O 0.86890(20) 0.45494(9) 0.88220(9)
H17 H 0.5790(20) 0.1443(10) 0.7942(8)
H18 H 0.6350(20) 0.3655(11) 0.8831(10)
H19 H 1.0100(20) 0.2688(10) 0.7918(9)
C27 C 0.41589(19) 0.75515(10) 0.66021(8)
C28 C 0.35673(19) 0.69167(10) 0.69467(8)
O1 O 0.19926(19) 0.56752(8) 0.74942(7)
C29 C 0.16680(20) 0.82751(9) 0.66324(8)
C30 C 0.19697(19) 0.69879(9) 0.71228(8)
O2 O -0.00305(18) 0.64237(10) 0.77237(9)
C31 C 0.32430(20) 0.82400(11) 0.64342(9)
C32 C 0.09910(20) 0.76581(10) 0.69726(8)
N1 N 0.12576(18) 0.63099(9) 0.74719(7)
O3 O 0.67231(17) 0.69276(10) 0.65974(9)
N2 N 0.58410(20) 0.74916(11) 0.63842(9)
O4 O 0.62240(20) 0.80088(12) 0.59892(11)
N3 N 0.06530(30) 0.90015(10) 0.64641(9)
O5 O -0.07650(20) 0.90103(9) 0.66247(10)
O6 O 0.13110(20) 0.95494(9) 0.61780(9)
H17 H 0.4210(20) 0.6443(10) 0.7058(8)
H18 H 0.3650(20) 0.8655(11) 0.6169(10)
H19 H -0.0100(20) 0.7688(10) 0.7082(9)

#END
