
#######################################################################
#
#                 Cambridge Crystallographic Data Centre
#                                CCDC 
#
#######################################################################
#
# If this CIF has been generated from an entry in the Cambridge 
# Structural Database, then it will include bibliographic, chemical, 
# crystal, experimental, refinement or atomic coordinate data resulting 
# from the CCDC's data processing and validation procedures.
#
#######################################################################

data_ABUPIX
_symmetry_cell_setting           triclinic
_symmetry_space_group_name_H-M   'P -1'
_symmetry_Int_Tables_number      2
_space_group_name_Hall           '-P 1'
loop_
_symmetry_equiv_pos_site_id
_symmetry_equiv_pos_as_xyz
1 x,y,z
2 -x,-y,-z
_cell_length_a                   9.161(3)
_cell_length_b                   9.625(3)
_cell_length_c                   16.719(5)
_cell_angle_alpha                78.243(4)
_cell_angle_beta                 86.099(5)
_cell_angle_gamma                88.529(5)
_cell_volume                     1439.81
loop_
_atom_site_label
_atom_site_type_symbol
_atom_site_fract_x
_atom_site_fract_y
_atom_site_fract_z
Ti1 Ti 0.53618(5) 0.68148(5) 0.74429(3)
O1 O 0.6160(2) 0.53970(19) 0.70153(11)
O2 O 0.5061(2) 0.82949(19) 0.66222(11)
O3 O 0.3640(2) 0.6280(2) 0.79614(12)
O4 O 0.65305(19) 0.7319(2) 0.81546(11)
C1 C 0.6935(3) 0.4200(3) 0.69378(16)
C2 C 0.7776(3) 0.4197(3) 0.62155(16)
C3 C 0.8545(3) 0.2968(3) 0.61420(17)
H1 H 0.9135 0.2943 0.5655
C4 C 0.8473(3) 0.1780(3) 0.67617(18)
H2 H 0.8999 0.0942 0.6698
C5 C 0.7636(3) 0.1812(3) 0.74736(18)
H3 H 0.7594 0.0990 0.7900
C6 C 0.6851(3) 0.3026(3) 0.75810(16)
C7 C 0.7830(4) 0.5482(3) 0.55241(19)
H4 H 0.6886 0.5605 0.5274
H5 H 0.8604 0.5348 0.5111
H6 H 0.8035 0.6327 0.5738
C8 C 0.5941(4) 0.3072(3) 0.83541(18)
H7 H 0.6269 0.3850 0.8593
H8 H 0.6048 0.2171 0.8743
H9 H 0.4912 0.3227 0.8232
C9 C 0.3964(3) 0.9118(3) 0.62388(16)
C10 C 0.3580(3) 0.8881(3) 0.54886(16)
C11 C 0.2452(3) 0.9709(3) 0.51167(18)
H10 H 0.2164 0.9574 0.4603
C12 C 0.1743(3) 1.0723(3) 0.54816(19)
H11 H 0.0953 1.1257 0.5227
C13 C 0.2176(3) 1.0965(3) 0.62124(19)
H12 H 0.1705 1.1691 0.6447
C14 C 0.3297(3) 1.0159(3) 0.66148(17)
C15 C 0.3787(3) 1.0407(4) 0.7409(2)
H13 H 0.3689 0.9529 0.7824
H14 H 0.3180 1.1156 0.7586
H15 H 0.4812 1.0698 0.7337
C16 C 0.4386(3) 0.7800(3) 0.50882(18)
H16 H 0.4037 0.7850 0.4542
H17 H 0.4211 0.6849 0.5421
H18 H 0.5436 0.7994 0.5041
C17 C 0.2526(3) 0.5340(3) 0.82212(17)
C18 C 0.1858(3) 0.4738(3) 0.76522(17)
C19 C 0.0746(3) 0.3785(3) 0.79416(19)
H19 H 0.0274 0.3355 0.7567
C20 C 0.0309(3) 0.3447(3) 0.8760(2)
H20 H -0.0455 0.2787 0.8946
C21 C 0.0980(3) 0.4065(3) 0.93069(19)
H21 H 0.0667 0.3830 0.9871
C22 C 0.2101(3) 0.5024(3) 0.90547(17)
C23 C 0.2337(4) 0.5106(4) 0.67557(19)
H22 H 0.3318 0.4711 0.6669
H23 H 0.2356 0.6140 0.6573
H24 H 0.1649 0.4705 0.6442
C24 C 0.2837(4) 0.5722(4) 0.9643(2)
H25 H 0.2450 0.5335 1.0203
H26 H 0.2648 0.6748 0.9512
H27 H 0.3894 0.5540 0.9598
C25 C 0.7715(3) 0.7945(3) 0.83717(16)
C26 C 0.9008(3) 0.8039(3) 0.78693(17)
C27 C 1.0196(3) 0.8671(3) 0.8116(2)
H28 H 1.1094 0.8732 0.7791
C28 C 1.0108(4) 0.9208(4) 0.8812(2)
H29 H 1.0936 0.9642 0.8966
C29 C 0.8815(4) 0.9119(4) 0.92931(19)
H30 H 0.8760 0.9501 0.9775
C30 C 0.7591(3) 0.8482(3) 0.90852(17)
C31 C 0.9090(3) 0.7509(3) 0.7087(2)
H31 H 1.0040 0.7754 0.6792
H32 H 0.8305 0.7949 0.6748
H33 H 0.8980 0.6475 0.7208
C32 C 0.6180(4) 0.8372(4) 0.9602(2)
H34 H 0.5387 0.8799 0.9265
H35 H 0.6263 0.8875 1.0050
H36 H 0.5968 0.7371 0.9828
Ti1 Ti 0.46382(5) 0.31852(5) 0.25571(3)
O1 O 0.3840(2) 0.46030(19) 0.29847(11)
O2 O 0.4939(2) 0.17051(19) 0.33778(11)
O3 O 0.6360(2) 0.3720(2) 0.20386(12)
O4 O 0.34695(19) 0.2681(2) 0.18454(11)
C1 C 0.3065(3) 0.5800(3) 0.30622(16)
C2 C 0.2224(3) 0.5803(3) 0.37845(16)
C3 C 0.1455(3) 0.7032(3) 0.38580(17)
H1 H 0.0865 0.7057 0.4345
C4 C 0.1527(3) 0.8220(3) 0.32383(18)
H2 H 0.1001 0.9058 0.3302
C5 C 0.2364(3) 0.8188(3) 0.25264(18)
H3 H 0.2406 0.9010 0.2100
C6 C 0.3149(3) 0.6974(3) 0.24190(16)
C7 C 0.2170(4) 0.4518(3) 0.44759(19)
H4 H 0.3114 0.4395 0.4726
H5 H 0.1396 0.4652 0.4889
H6 H 0.1965 0.3673 0.4262
C8 C 0.4059(4) 0.6928(3) 0.16459(18)
H7 H 0.3731 0.6150 0.1407
H8 H 0.3952 0.7829 0.1257
H9 H 0.5088 0.6773 0.1768
C9 C 0.6036(3) 0.0882(3) 0.37612(16)
C10 C 0.6420(3) 0.1119(3) 0.45114(16)
C11 C 0.7548(3) 0.0291(3) 0.48833(18)
H10 H 0.7836 0.0426 0.5397
C12 C 0.8257(3) -0.0723(3) 0.45184(19)
H11 H 0.9047 -0.1257 0.4773
C13 C 0.7824(3) -0.0965(3) 0.37876(19)
H12 H 0.8295 -0.1691 0.3553
C14 C 0.6703(3) -0.0159(3) 0.33852(17)
C15 C 0.6213(3) -0.0407(4) 0.2591(2)
H13 H 0.6311 0.0471 0.2176
H14 H 0.6820 -0.1156 0.2414
H15 H 0.5188 -0.0698 0.2663
C16 C 0.5614(3) 0.2200(3) 0.49118(18)
H16 H 0.5963 0.2150 0.5458
H17 H 0.5789 0.3151 0.4579
H18 H 0.4564 0.2006 0.4959
C17 C 0.7474(3) 0.4660(3) 0.17788(17)
C18 C 0.8142(3) 0.5262(3) 0.23478(17)
C19 C 0.9254(3) 0.6215(3) 0.20584(19)
H19 H 0.9726 0.6645 0.2433
C20 C 0.9691(3) 0.6553(3) 0.1240(2)
H20 H 1.0455 0.7213 0.1054
C21 C 0.9020(3) 0.5935(3) 0.06931(19)
H21 H 0.9333 0.6170 0.0129
C22 C 0.7899(3) 0.4976(3) 0.09453(17)
C23 C 0.7663(4) 0.4894(4) 0.32443(19)
H22 H 0.6682 0.5289 0.3331
H23 H 0.7644 0.3860 0.3427
H24 H 0.8351 0.5295 0.3558
C24 C 0.7163(4) 0.4278(4) 0.0357(2)
H25 H 0.7550 0.4665 -0.0203
H26 H 0.7352 0.3252 0.0488
H27 H 0.6106 0.4460 0.0402
C25 C 0.2285(3) 0.2055(3) 0.16283(16)
C26 C 0.0992(3) 0.1961(3) 0.21307(17)
C27 C -0.0196(3) 0.1329(3) 0.1884(2)
H28 H -0.1094 0.1268 0.2209
C28 C -0.0108(4) 0.0792(4) 0.1188(2)
H29 H -0.0936 0.0358 0.1034
C29 C 0.1185(4) 0.0881(4) 0.07069(19)
H30 H 0.1240 0.0499 0.0225
C30 C 0.2409(3) 0.1518(3) 0.09148(17)
C31 C 0.0910(3) 0.2491(3) 0.2913(2)
H31 H -0.0040 0.2246 0.3208
H32 H 0.1695 0.2051 0.3252
H33 H 0.1020 0.3525 0.2792
C32 C 0.3820(4) 0.1628(4) 0.0398(2)
H34 H 0.4613 0.1201 0.0735
H35 H 0.3737 0.1125 -0.0050
H36 H 0.4032 0.2629 0.0172

#END
