./ABUQET_from_xyz.cif_generated_by_CrystalShift
_symmetry_cell_setting triclinic
_symmetry_space_group_name_H-M 'P 1'
loop_
_symmetry_equiv_pos_site_id
_symmetry_equiv_pos_as_xyz
1 x,y,z
_cell_length_a 5.405000
_cell_length_b 6.947000
_cell_length_c 50.464000
_cell_angle_alpha 89.730000
_cell_angle_beta 89.330000
_cell_angle_gamma 74.310000
_cell_volume 1824.118236
loop_
_atom_site_label
_atom_site_type_symbol
_atom_site_fract_x
_atom_site_fract_y
_atom_site_fract_z
S1 S 0.793240 1.713160 0.249423
C2 C 0.953500 1.506200 0.267130
H3 H 1.082800 1.504900 0.279200
C4 C 0.868100 1.344800 0.261370
C5 C 0.669300 1.388300 0.242200
C6 C 0.608700 1.581700 0.233970
H7 H 0.483300 1.636200 0.221500
O8 O 0.946500 1.156340 0.271170
C9 C 1.161800 1.114300 0.288770
H10 H 1.123100 1.199600 0.304300
H11 H 1.312300 1.135800 0.279900
C12 C 1.207200 0.898100 0.296520
H13 H 1.246000 0.817000 0.280600
H14 H 1.049500 0.879700 0.304100
C15 C 1.422800 0.822200 0.316170
H16 H 1.385200 0.900800 0.332300
H17 H 1.582400 0.838000 0.308700
C18 C 1.453900 0.602900 0.322750
H19 H 1.292700 0.589400 0.330100
H20 H 1.487200 0.526800 0.306400
C21 C 1.666200 0.511500 0.342080
H22 H 1.637200 0.589100 0.358300
H23 H 1.829400 0.518800 0.334500
C24 C 1.681800 0.294300 0.348700
H25 H 1.519100 0.288100 0.356500
H26 H 1.706800 0.217900 0.332400
C27 C 1.895900 0.196600 0.367670
H28 H 1.872800 0.273900 0.383900
H29 H 2.059200 0.200300 0.359800
C30 C 1.905800 -0.018800 0.374430
H31 H 1.742300 -0.022400 0.382300
H32 H 1.929100 -0.096000 0.358200
C33 C 2.119400 -0.116600 0.393420
H34 H 2.096400 -0.039000 0.409600
H35 H 2.282800 -0.113400 0.385600
C36 C 2.129200 -0.331800 0.400310
H37 H 1.965700 -0.335000 0.408200
H38 H 2.152100 -0.409400 0.384100
C39 C 2.342500 -0.429500 0.419280
H40 H 2.319900 -0.351400 0.435400
H41 H 2.505900 -0.426500 0.411400
C42 C 2.353100 -0.644200 0.426350
H43 H 2.189500 -0.647500 0.434200
H44 H 2.377200 -0.722800 0.410200
C45 C 2.565900 -0.739900 0.445460
H46 H 2.540500 -0.661700 0.461600
H47 H 2.729000 -0.734700 0.437700
C48 C 2.581200 -0.955600 0.452510
H49 H 2.418600 -0.961200 0.460300
H50 H 2.606900 -1.034200 0.436400
C51 C 2.794200 -1.048200 0.471500
H52 H 2.767800 -0.969700 0.487700
H53 H 2.956500 -1.041600 0.463700
C54 C 2.811800 -1.263600 0.478540
H55 H 2.951300 -1.312900 0.490500
H56 H 2.841600 -1.343200 0.462700
H57 H 2.653900 -1.271300 0.486800
O58 O 0.567700 1.239350 0.234420
C59 C 0.387300 1.284200 0.213220
H60 H 0.465400 1.324700 0.197500
H61 H 0.238100 1.391300 0.218200
C62 C 0.311500 1.094900 0.208060
H63 H 0.230400 1.059800 0.223900
H64 H 0.465800 0.987900 0.204600
C65 C 0.129400 1.108000 0.184940
H66 H -0.026600 1.213600 0.188300
H67 H 0.209400 1.141800 0.168900
C68 C 0.062100 0.911900 0.180930
H69 H -0.021900 0.882100 0.196900
H70 H 0.220500 0.806600 0.178600
C71 C -0.110900 0.906700 0.157470
H72 H -0.269000 1.012800 0.159500
H73 H -0.025900 0.931900 0.141300
C74 C -0.175800 0.708300 0.155000
H75 H -0.017000 0.602300 0.153600
H76 H -0.264100 0.685300 0.171100
C77 C -0.342000 0.695300 0.131440
H78 H -0.499300 0.802900 0.132600
H79 H -0.252100 0.714700 0.115300
C80 C -0.410700 0.498400 0.129560
H81 H -0.504500 0.480600 0.145500
H82 H -0.253300 0.390500 0.128900
C83 C -0.571700 0.483000 0.105550
H84 H -0.727900 0.592000 0.106100
H85 H -0.476800 0.499000 0.089600
C86 C -0.644000 0.286900 0.103790
H87 H -0.488100 0.177600 0.103500
H88 H -0.741700 0.271900 0.119500
C89 C -0.800700 0.271000 0.079560
H90 H -0.955600 0.381300 0.079700
H91 H -0.702200 0.285100 0.063800
C92 C -0.876200 0.077500 0.077660
H93 H -0.721600 -0.033000 0.077900
H94 H -0.978600 0.065100 0.093200
C95 C -1.026100 0.060100 0.053210
H96 H -0.924000 0.074300 0.037800
H97 H -1.180900 0.170400 0.053000
C98 C -1.102200 -0.133600 0.050710
H99 H -0.948100 -0.244300 0.051400
H100 H -1.209100 -0.146000 0.065800
C101 C -1.243800 -0.150700 0.025950
H102 H -1.136300 -0.138600 0.010800
H103 H -1.397100 -0.039200 0.025300
C104 C -1.321700 -0.341400 0.023260
H105 H -1.411600 -0.339300 0.006900
H106 H -1.432000 -0.353700 0.037800
H107 H -1.171200 -0.453000 0.023300
S108 S 0.206760 -0.713160 0.750577
C109 C 0.046500 -0.506200 0.732870
H110 H -0.082800 -0.504900 0.720800
C111 C 0.131900 -0.344800 0.738630
C112 C 0.330700 -0.388300 0.757800
C113 C 0.391300 -0.581700 0.766030
H114 H 0.516700 -0.636200 0.778500
O115 O 0.053500 -0.156340 0.728830
C116 C -0.161800 -0.114300 0.711230
H117 H -0.123100 -0.199600 0.695700
H118 H -0.312300 -0.135800 0.720100
C119 C -0.207200 0.101900 0.703480
H120 H -0.246000 0.183000 0.719400
H121 H -0.049500 0.120300 0.695900
C122 C -0.422800 0.177800 0.683830
H123 H -0.385200 0.099200 0.667700
H124 H -0.582400 0.162000 0.691300
C125 C -0.453900 0.397100 0.677250
H126 H -0.292700 0.410600 0.669900
H127 H -0.487200 0.473200 0.693600
C128 C -0.666200 0.488500 0.657920
H129 H -0.637200 0.410900 0.641700
H130 H -0.829400 0.481200 0.665500
C131 C -0.681800 0.705700 0.651300
H132 H -0.519100 0.711900 0.643500
H133 H -0.706800 0.782100 0.667600
C134 C -0.895900 0.803400 0.632330
H135 H -0.872800 0.726100 0.616100
H136 H -1.059200 0.799700 0.640200
C137 C -0.905800 1.018800 0.625570
H138 H -0.742300 1.022400 0.617700
H139 H -0.929100 1.096000 0.641800
C140 C -1.119400 1.116600 0.606580
H141 H -1.096400 1.039000 0.590400
H142 H -1.282800 1.113400 0.614400
C143 C -1.129200 1.331800 0.599690
H144 H -0.965700 1.335000 0.591800
H145 H -1.152100 1.409400 0.615900
C146 C -1.342500 1.429500 0.580720
H147 H -1.319900 1.351400 0.564600
H148 H -1.505900 1.426500 0.588600
C149 C -1.353100 1.644200 0.573650
H150 H -1.189500 1.647500 0.565800
H151 H -1.377200 1.722800 0.589800
C152 C -1.565900 1.739900 0.554540
H153 H -1.540500 1.661700 0.538400
H154 H -1.729000 1.734700 0.562300
C155 C -1.581200 1.955600 0.547490
H156 H -1.418600 1.961200 0.539700
H157 H -1.606900 2.034200 0.563600
C158 C -1.794200 2.048200 0.528500
H159 H -1.767800 1.969700 0.512300
H160 H -1.956500 2.041600 0.536300
C161 C -1.811800 2.263600 0.521460
H162 H -1.951300 2.312900 0.509500
H163 H -1.841600 2.343200 0.537300
H164 H -1.653900 2.271300 0.513200
O165 O 0.432300 -0.239350 0.765580
C166 C 0.612700 -0.284200 0.786780
H167 H 0.534600 -0.324700 0.802500
H168 H 0.761900 -0.391300 0.781800
C169 C 0.688500 -0.094900 0.791940
H170 H 0.769600 -0.059800 0.776100
H171 H 0.534200 0.012100 0.795400
C172 C 0.870600 -0.108000 0.815060
H173 H 1.026600 -0.213600 0.811700
H174 H 0.790600 -0.141800 0.831100
C175 C 0.937900 0.088100 0.819070
H176 H 1.021900 0.117900 0.803100
H177 H 0.779500 0.193400 0.821400
C178 C 1.110900 0.093300 0.842530
H179 H 1.269000 -0.012800 0.840500
H180 H 1.025900 0.068100 0.858700
C181 C 1.175800 0.291700 0.845000
H182 H 1.017000 0.397700 0.846400
H183 H 1.264100 0.314700 0.828900
C184 C 1.342000 0.304700 0.868560
H185 H 1.499300 0.197100 0.867400
H186 H 1.252100 0.285300 0.884700
C187 C 1.410700 0.501600 0.870440
H188 H 1.504500 0.519400 0.854500
H189 H 1.253300 0.609500 0.871100
C190 C 1.571700 0.517000 0.894450
H191 H 1.727900 0.408000 0.893900
H192 H 1.476800 0.501000 0.910400
C193 C 1.644000 0.713100 0.896210
H194 H 1.488100 0.822400 0.896500
H195 H 1.741700 0.728100 0.880500
C196 C 1.800700 0.729000 0.920440
H197 H 1.955600 0.618700 0.920300
H198 H 1.702200 0.714900 0.936200
C199 C 1.876200 0.922500 0.922340
H200 H 1.721600 1.033000 0.922100
H201 H 1.978600 0.934900 0.906800
C202 C 2.026100 0.939900 0.946790
H203 H 1.924000 0.925700 0.962200
H204 H 2.180900 0.829600 0.947000
C205 C 2.102200 1.133600 0.949290
H206 H 1.948100 1.244300 0.948600
H207 H 2.209100 1.146000 0.934200
C208 C 2.243800 1.150700 0.974050
H209 H 2.136300 1.138600 0.989200
H210 H 2.397100 1.039200 0.974700
C211 C 2.321700 1.341400 0.976740
H212 H 2.411600 1.339300 0.993100
H213 H 2.432000 1.353700 0.962200
H214 H 2.171200 1.453000 0.976700

#END
