
#######################################################################
#
#                 Cambridge Crystallographic Data Centre
#                                CCDC 
#
#######################################################################
#
# If this CIF has been generated from an entry in the Cambridge 
# Structural Database, then it will include bibliographic, chemical, 
# crystal, experimental, refinement or atomic coordinate data resulting 
# from the CCDC's data processing and validation procedures.
#
#######################################################################

data_ABURAQ
_symmetry_cell_setting           monoclinic
_symmetry_space_group_name_H-M   'P 21/n'
_symmetry_Int_Tables_number      14
_space_group_name_Hall           '-P 2yn'
loop_
_symmetry_equiv_pos_site_id
_symmetry_equiv_pos_as_xyz
1 x,y,z
2 1/2+x,1/2-y,1/2+z
3 -x,-y,-z
4 1/2-x,1/2+y,1/2-z
_cell_length_a                   11.911(5)
_cell_length_b                   8.206(4)
_cell_length_c                   16.996(7)
_cell_angle_alpha                90
_cell_angle_beta                 104.30(2)
_cell_angle_gamma                90
_cell_volume                     1609.75
loop_
_atom_site_label
_atom_site_type_symbol
_atom_site_fract_x
_atom_site_fract_y
_atom_site_fract_z
O1 O 0.13211(12) 0.4143(2) 0.70356(8)
O2 O 0.12285(12) 0.3400(2) 0.42815(8)
N1 N -0.01419(12) 0.27202(18) 0.62027(8)
C1 C 0.09185(14) 0.3638(2) 0.63468(11)
C2 C 0.13933(14) 0.3855(2) 0.56712(11)
C3 C 0.08911(15) 0.3277(2) 0.49040(11)
N2 N -0.02108(12) 0.23624(18) 0.48293(8)
C4 C -0.06712(14) 0.2077(2) 0.54718(10)
C5 C -0.16707(15) 0.1098(2) 0.53496(12)
H1 H -0.1978 0.0841 0.5787
C6 C -0.21880(17) 0.0529(3) 0.45983(12)
H2 H -0.2846 -0.0121 0.4522
C7 C -0.17361(17) 0.0915(3) 0.39414(12)
H3 H -0.2106 0.0567 0.3421
C8 C -0.07511(16) 0.1802(2) 0.40688(11)
H4 H -0.0434 0.2038 0.3634
C9 C 0.25410(15) 0.4729(2) 0.58053(12)
H5 H 0.2647 0.5419 0.6281
H6 H 0.2533 0.5423 0.5342
C10 C 0.35442(14) 0.3551(2) 0.59203(10)
C11 C 0.41490(16) 0.3384(3) 0.53313(11)
H7 H 0.3951 0.4026 0.4867
C12 C 0.50505(18) 0.2272(3) 0.54198(14)
H8 H 0.5445 0.2163 0.5014
C13 C 0.53558(18) 0.1339(3) 0.61061(16)
H9 H 0.5964 0.0600 0.6169
C14 C 0.47667(18) 0.1490(3) 0.67033(15)
H10 H 0.4977 0.0853 0.7169
C15 C 0.38617(16) 0.2588(2) 0.66127(11)
H11 H 0.3464 0.2681 0.7017
C16 C -0.06815(14) 0.2565(2) 0.68742(10)
C17 C -0.16692(16) 0.3448(2) 0.68675(11)
H12 H -0.1981 0.4149 0.6439
C18 C -0.21891(16) 0.3279(3) 0.75043(12)
H13 H -0.2866 0.3850 0.7498
C19 C -0.17179(18) 0.2277(3) 0.81462(12)
H14 H -0.2070 0.2174 0.8575
C20 C -0.0722(2) 0.1427(3) 0.81516(13)
H15 H -0.0396 0.0757 0.8590
C21 C -0.01994(17) 0.1556(3) 0.75155(12)
H16 H 0.0470 0.0969 0.7520
O1 O 0.63211(12) 0.0857(2) 0.20356(8)
O2 O 0.62285(12) 0.1600(2) -0.07185(8)
N1 N 0.48581(12) 0.22798(18) 0.12027(8)
C1 C 0.59185(14) 0.1362(2) 0.13468(11)
C2 C 0.63933(14) 0.1145(2) 0.06712(11)
C3 C 0.58911(15) 0.1723(2) -0.00960(11)
N2 N 0.47892(12) 0.26376(18) -0.01707(8)
C4 C 0.43288(14) 0.2923(2) 0.04718(10)
C5 C 0.33293(15) 0.3902(2) 0.03496(12)
H1 H 0.3022 0.4159 0.0787
C6 C 0.28120(17) 0.4471(3) -0.04017(12)
H2 H 0.2154 0.5121 -0.0478
C7 C 0.32639(17) 0.4085(3) -0.10586(12)
H3 H 0.2894 0.4433 -0.1579
C8 C 0.42489(16) 0.3198(2) -0.09312(11)
H4 H 0.4566 0.2962 -0.1366
C9 C 0.75410(15) 0.0271(2) 0.08053(12)
H5 H 0.7647 -0.0419 0.1281
H6 H 0.7533 -0.0423 0.0342
C10 C 0.85442(14) 0.1449(2) 0.09203(10)
C11 C 0.91490(16) 0.1616(3) 0.03313(11)
H7 H 0.8951 0.0974 -0.0133
C12 C 1.00505(18) 0.2728(3) 0.04198(14)
H8 H 1.0445 0.2837 0.0014
C13 C 1.03558(18) 0.3661(3) 0.11061(16)
H9 H 1.0964 0.4400 0.1169
C14 C 0.97667(18) 0.3510(3) 0.17033(15)
H10 H 0.9977 0.4147 0.2169
C15 C 0.88617(16) 0.2412(2) 0.16127(11)
H11 H 0.8464 0.2319 0.2017
C16 C 0.43185(14) 0.2435(2) 0.18742(10)
C17 C 0.33308(16) 0.1552(2) 0.18675(11)
H12 H 0.3019 0.0851 0.1439
C18 C 0.28109(16) 0.1721(3) 0.25043(12)
H13 H 0.2134 0.1150 0.2498
C19 C 0.32821(18) 0.2723(3) 0.31462(12)
H14 H 0.2930 0.2826 0.3575
C20 C 0.4278(2) 0.3573(3) 0.31516(13)
H15 H 0.4604 0.4243 0.3590
C21 C 0.48006(17) 0.3444(3) 0.25155(12)
H16 H 0.5470 0.4031 0.2520
O1 O 0.86789(12) 0.5857(2) 0.29644(8)
O2 O 0.87715(12) 0.6600(2) 0.57185(8)
N1 N 1.01419(12) 0.72798(18) 0.37973(8)
C1 C 0.90815(14) 0.6362(2) 0.36532(11)
C2 C 0.86067(14) 0.6145(2) 0.43288(11)
C3 C 0.91089(15) 0.6723(2) 0.50960(11)
N2 N 1.02108(12) 0.76376(18) 0.51707(8)
C4 C 1.06712(14) 0.7923(2) 0.45282(10)
C5 C 1.16707(15) 0.8902(2) 0.46504(12)
H1 H 1.1978 0.9159 0.4213
C6 C 1.21880(17) 0.9471(3) 0.54017(12)
H2 H 1.2846 1.0121 0.5478
C7 C 1.17361(17) 0.9085(3) 0.60586(12)
H3 H 1.2106 0.9433 0.6579
C8 C 1.07511(16) 0.8198(2) 0.59312(11)
H4 H 1.0434 0.7962 0.6366
C9 C 0.74590(15) 0.5271(2) 0.41947(12)
H5 H 0.7353 0.4581 0.3719
H6 H 0.7467 0.4577 0.4658
C10 C 0.64558(14) 0.6449(2) 0.40797(10)
C11 C 0.58510(16) 0.6616(3) 0.46687(11)
H7 H 0.6049 0.5974 0.5133
C12 C 0.49495(18) 0.7728(3) 0.45802(14)
H8 H 0.4555 0.7837 0.4986
C13 C 0.46442(18) 0.8661(3) 0.38939(16)
H9 H 0.4036 0.9400 0.3831
C14 C 0.52333(18) 0.8510(3) 0.32967(15)
H10 H 0.5023 0.9147 0.2831
C15 C 0.61383(16) 0.7412(2) 0.33873(11)
H11 H 0.6536 0.7319 0.2983
C16 C 1.06815(14) 0.7435(2) 0.31258(10)
C17 C 1.16692(16) 0.6552(2) 0.31325(11)
H12 H 1.1981 0.5851 0.3561
C18 C 1.21891(16) 0.6721(3) 0.24957(12)
H13 H 1.2866 0.6150 0.2502
C19 C 1.17179(18) 0.7723(3) 0.18538(12)
H14 H 1.2070 0.7826 0.1425
C20 C 1.0722(2) 0.8573(3) 0.18484(13)
H15 H 1.0396 0.9243 0.1410
C21 C 1.01994(17) 0.8444(3) 0.24845(12)
H16 H 0.9530 0.9031 0.2480
O1 O 0.36789(12) 0.9143(2) 0.79644(8)
O2 O 0.37715(12) 0.8400(2) 1.07185(8)
N1 N 0.51419(12) 0.77202(18) 0.87973(8)
C1 C 0.40815(14) 0.8638(2) 0.86532(11)
C2 C 0.36067(14) 0.8855(2) 0.93288(11)
C3 C 0.41089(15) 0.8277(2) 1.00960(11)
N2 N 0.52108(12) 0.73624(18) 1.01707(8)
C4 C 0.56712(14) 0.7077(2) 0.95282(10)
C5 C 0.66707(15) 0.6098(2) 0.96504(12)
H1 H 0.6978 0.5841 0.9213
C6 C 0.71880(17) 0.5529(3) 1.04017(12)
H2 H 0.7846 0.4879 1.0478
C7 C 0.67361(17) 0.5915(3) 1.10586(12)
H3 H 0.7106 0.5567 1.1579
C8 C 0.57511(16) 0.6802(2) 1.09312(11)
H4 H 0.5434 0.7038 1.1366
C9 C 0.24590(15) 0.9729(2) 0.91947(12)
H5 H 0.2353 1.0419 0.8719
H6 H 0.2467 1.0423 0.9658
C10 C 0.14558(14) 0.8551(2) 0.90797(10)
C11 C 0.08510(16) 0.8384(3) 0.96687(11)
H7 H 0.1049 0.9026 1.0133
C12 C -0.00505(18) 0.7272(3) 0.95802(14)
H8 H -0.0445 0.7163 0.9986
C13 C -0.03558(18) 0.6339(3) 0.88939(16)
H9 H -0.0964 0.5600 0.8831
C14 C 0.02333(18) 0.6490(3) 0.82967(15)
H10 H 0.0023 0.5853 0.7831
C15 C 0.11383(16) 0.7588(2) 0.83873(11)
H11 H 0.1536 0.7681 0.7983
C16 C 0.56815(14) 0.7565(2) 0.81258(10)
C17 C 0.66692(16) 0.8448(2) 0.81325(11)
H12 H 0.6981 0.9149 0.8561
C18 C 0.71891(16) 0.8279(3) 0.74957(12)
H13 H 0.7866 0.8850 0.7502
C19 C 0.67179(18) 0.7277(3) 0.68538(12)
H14 H 0.7070 0.7174 0.6425
C20 C 0.5722(2) 0.6427(3) 0.68484(13)
H15 H 0.5396 0.5757 0.6410
C21 C 0.51994(17) 0.6556(3) 0.74845(12)
H16 H 0.4530 0.5969 0.7480

#END
