
#######################################################################
#
#                 Cambridge Crystallographic Data Centre
#                                CCDC 
#
#######################################################################
#
# If this CIF has been generated from an entry in the Cambridge 
# Structural Database, then it will include bibliographic, chemical, 
# crystal, experimental, refinement or atomic coordinate data resulting 
# from the CCDC's data processing and validation procedures.
#
#######################################################################

data_ABURIA
_symmetry_cell_setting           triclinic
_symmetry_space_group_name_H-M   'P -1'
_symmetry_Int_Tables_number      2
_space_group_name_Hall           '-P 1'
loop_
_symmetry_equiv_pos_site_id
_symmetry_equiv_pos_as_xyz
1 x,y,z
2 -x,-y,-z
_cell_length_a                   10.9121(2)
_cell_length_b                   13.4556(3)
_cell_length_c                   21.4689(5)
_cell_angle_alpha                101.7495(9)
_cell_angle_beta                 92.3718(12)
_cell_angle_gamma                92.6724(11)
_cell_volume                     3078.67
loop_
_atom_site_label
_atom_site_type_symbol
_atom_site_fract_x
_atom_site_fract_y
_atom_site_fract_z
F1 F 0.5571(4) 1.3343(3) 0.76397(19)
F2 F 0.3813(4) 1.2780(3) 0.7850(2)
F3 F 0.5323(4) 1.1878(4) 0.7923(2)
F4 F 0.0872(3) 1.0086(3) 0.44348(15)
F5 F 0.2631(3) 0.9444(2) 0.42624(13)
F6 F 0.1442(3) 0.8917(2) 0.49175(14)
S1 S 0.46219(10) 1.18855(7) 0.67728(5)
S2 S 0.24938(9) 1.07233(7) 0.53479(5)
O1 O 0.3512(2) 1.11135(19) 0.68344(13)
O2 O 0.5666(3) 1.1373(3) 0.6585(2)
O3 O 0.4132(4) 1.2606(3) 0.6439(2)
O4 O 0.3707(2) 1.0228(2) 0.55549(12)
O5 O 0.1644(3) 1.0846(3) 0.58321(16)
O6 O 0.2908(3) 1.1522(3) 0.50575(18)
Br1 Br 0.39914(4) 0.59297(3) 0.78406(2)
Br2 Br 0.43278(4) 0.48975(3) 0.63424(3)
C1 C 0.3898(3) 0.7955(2) 0.62895(16)
C2 C 0.3744(3) 0.8405(2) 0.69391(16)
C3 C 0.3612(3) 0.9471(3) 0.71299(16)
C4 C 0.3454(4) 0.9907(3) 0.77677(17)
C5 C 0.3446(4) 0.9299(3) 0.82223(18)
C6 C 0.3615(4) 0.8263(3) 0.80431(19)
C7 C 0.3762(3) 0.7798(3) 0.74108(18)
C8 C 0.3944(3) 0.6731(3) 0.7207(2)
C9 C 0.4087(3) 0.6305(3) 0.6593(2)
C10 C 0.4076(3) 0.6899(2) 0.61003(18)
C11 C 0.4252(3) 0.6492(3) 0.5458(2)
C12 C 0.4283(3) 0.7104(3) 0.50112(19)
C13 C 0.4102(3) 0.8131(3) 0.51841(17)
C14 C 0.3882(3) 0.8563(3) 0.58138(16)
C15 C 0.3697(3) 0.9621(3) 0.60236(17)
C16 C 0.3629(3) 1.0060(2) 0.66413(17)
C17 C 0.4812(5) 1.2528(4) 0.7592(3)
C18 C 0.1823(4) 0.9716(3) 0.4696(2)
H1 H 0.3343 1.0615 0.7889
H2 H 0.3332 0.9596 0.8655
H3 H 0.3633 0.7857 0.8357
H4 H 0.4340 0.5782 0.5329
H5 H 0.4433 0.6814 0.4581
H6 H 0.4127 0.8548 0.4877
F1 F 0.4429(4) -0.3343(3) 0.23603(19)
F2 F 0.6187(4) -0.2780(3) 0.2150(2)
F3 F 0.4677(4) -0.1878(4) 0.2077(2)
F4 F 0.9128(3) -0.0086(3) 0.55652(15)
F5 F 0.7369(3) 0.0556(2) 0.57376(13)
F6 F 0.8558(3) 0.1083(2) 0.50825(14)
S1 S 0.53781(10) -0.18855(7) 0.32272(5)
S2 S 0.75062(9) -0.07233(7) 0.46521(5)
O1 O 0.6488(2) -0.11135(19) 0.31656(13)
O2 O 0.4334(3) -0.1373(3) 0.3415(2)
O3 O 0.5868(4) -0.2606(3) 0.3561(2)
O4 O 0.6293(2) -0.0228(2) 0.44451(12)
O5 O 0.8356(3) -0.0846(3) 0.41679(16)
O6 O 0.7092(3) -0.1522(3) 0.49425(18)
Br1 Br 0.60086(4) 0.40703(3) 0.21594(2)
Br2 Br 0.56722(4) 0.51025(3) 0.36576(3)
C1 C 0.6102(3) 0.2045(2) 0.37105(16)
C2 C 0.6256(3) 0.1595(2) 0.30609(16)
C3 C 0.6388(3) 0.0529(3) 0.28701(16)
C4 C 0.6546(4) 0.0093(3) 0.22323(17)
C5 C 0.6554(4) 0.0701(3) 0.17777(18)
C6 C 0.6385(4) 0.1737(3) 0.19569(19)
C7 C 0.6238(3) 0.2202(3) 0.25892(18)
C8 C 0.6056(3) 0.3269(3) 0.2793(2)
C9 C 0.5913(3) 0.3695(3) 0.3407(2)
C10 C 0.5924(3) 0.3101(2) 0.38997(18)
C11 C 0.5748(3) 0.3508(3) 0.4542(2)
C12 C 0.5717(3) 0.2896(3) 0.49888(19)
C13 C 0.5898(3) 0.1869(3) 0.48159(17)
C14 C 0.6118(3) 0.1437(3) 0.41862(16)
C15 C 0.6303(3) 0.0379(3) 0.39764(17)
C16 C 0.6371(3) -0.0060(2) 0.33587(17)
C17 C 0.5188(5) -0.2528(4) 0.2408(3)
C18 C 0.8177(4) 0.0284(3) 0.5304(2)
H1 H 0.6657 -0.0615 0.2111
H2 H 0.6668 0.0404 0.1345
H3 H 0.6367 0.2143 0.1643
H4 H 0.5660 0.4218 0.4671
H5 H 0.5567 0.3186 0.5419
H6 H 0.5873 0.1452 0.5123
F7 F 0.4253(3) 0.3380(2) -0.00564(14)
F8 F 0.3177(3) 0.2289(2) -0.07655(13)
F9 F 0.5148(3) 0.2256(2) -0.07216(14)
F10 F 0.1326(2) -0.0015(2) 0.00063(12)
F11 F 0.2541(3) -0.1254(2) -0.00896(13)
F12 F 0.0646(3) -0.1502(2) 0.01107(14)
S3 S 0.41240(8) 0.15249(7) 0.01516(4)
S4 S 0.19599(8) -0.05384(6) 0.10778(4)
O7 O 0.2879(2) 0.18269(19) 0.04844(11)
O8 O 0.5131(3) 0.1783(3) 0.05989(13)
O9 O 0.3924(3) 0.0562(2) -0.02514(14)
O10 O 0.3104(2) 0.02732(18) 0.11255(12)
O11 O 0.0935(3) -0.0061(2) 0.13555(14)
O12 O 0.2417(3) -0.1430(2) 0.12321(16)
Br3 Br 0.22102(3) 0.57685(3) 0.361231(18)
Br4 Br 0.25516(4) 0.39277(3) 0.439060(17)
C19 C 0.2836(3) 0.2448(2) 0.24902(16)
C20 C 0.2693(3) 0.3249(2) 0.21528(16)
C21 C 0.2735(3) 0.3058(2) 0.14782(15)
C22 C 0.2584(3) 0.3847(3) 0.11497(17)
C23 C 0.2395(3) 0.4815(3) 0.14827(18)
C24 C 0.2361(3) 0.5018(3) 0.21423(17)
C25 C 0.2502(3) 0.4251(2) 0.24859(16)
C26 C 0.2458(3) 0.4431(3) 0.31731(17)
C27 C 0.2605(3) 0.3669(3) 0.34952(16)
C28 C 0.2810(3) 0.2646(3) 0.31697(16)
C29 C 0.2986(3) 0.1850(3) 0.34857(17)
C30 C 0.3188(3) 0.0878(3) 0.31493(18)
C31 C 0.3187(3) 0.0665(3) 0.24891(17)
C32 C 0.3004(3) 0.1446(2) 0.21554(16)
C33 C 0.2970(3) 0.1265(2) 0.14742(16)
C34 C 0.2891(3) 0.2036(2) 0.11575(15)
C35 C 0.4165(4) 0.2432(3) -0.03835(19)
C36 C 0.1615(4) -0.0842(3) 0.0214(2)
H7 H 0.2613 0.3717 0.0699
H8 H 0.2289 0.5350 0.1261
H9 H 0.2232 0.5690 0.2362
H10 H 0.2972 0.1974 0.3937
H11 H 0.3321 0.0348 0.3372
H12 H 0.3325 0.0000 0.2261
F7 F 0.5747(3) 0.6620(2) 1.00564(14)
F8 F 0.6823(3) 0.7711(2) 1.07655(13)
F9 F 0.4852(3) 0.7744(2) 1.07216(14)
F10 F 0.8674(2) 1.0015(2) 0.99937(12)
F11 F 0.7459(3) 1.1254(2) 1.00896(13)
F12 F 0.9354(3) 1.1502(2) 0.98893(14)
S3 S 0.58760(8) 0.84751(7) 0.98484(4)
S4 S 0.80401(8) 1.05384(6) 0.89222(4)
O7 O 0.7121(2) 0.81731(19) 0.95156(11)
O8 O 0.4869(3) 0.8217(3) 0.94011(13)
O9 O 0.6076(3) 0.9438(2) 1.02514(14)
O10 O 0.6896(2) 0.97268(18) 0.88745(12)
O11 O 0.9065(3) 1.0061(2) 0.86445(14)
O12 O 0.7583(3) 1.1430(2) 0.87679(16)
Br3 Br 0.77898(3) 0.42315(3) 0.638769(18)
Br4 Br 0.74484(4) 0.60723(3) 0.560940(17)
C19 C 0.7164(3) 0.7552(2) 0.75098(16)
C20 C 0.7307(3) 0.6751(2) 0.78472(16)
C21 C 0.7265(3) 0.6942(2) 0.85218(15)
C22 C 0.7416(3) 0.6153(3) 0.88503(17)
C23 C 0.7605(3) 0.5185(3) 0.85173(18)
C24 C 0.7639(3) 0.4982(3) 0.78577(17)
C25 C 0.7498(3) 0.5749(2) 0.75141(16)
C26 C 0.7542(3) 0.5569(3) 0.68269(17)
C27 C 0.7395(3) 0.6331(3) 0.65048(16)
C28 C 0.7190(3) 0.7354(3) 0.68303(16)
C29 C 0.7014(3) 0.8150(3) 0.65143(17)
C30 C 0.6812(3) 0.9122(3) 0.68507(18)
C31 C 0.6813(3) 0.9335(3) 0.75109(17)
C32 C 0.6996(3) 0.8554(2) 0.78446(16)
C33 C 0.7030(3) 0.8735(2) 0.85258(16)
C34 C 0.7109(3) 0.7964(2) 0.88425(15)
C35 C 0.5835(4) 0.7568(3) 1.03835(19)
C36 C 0.8385(4) 1.0842(3) 0.9786(2)
H7 H 0.7387 0.6283 0.9301
H8 H 0.7711 0.4650 0.8739
H9 H 0.7768 0.4310 0.7638
H10 H 0.7028 0.8026 0.6063
H11 H 0.6679 0.9652 0.6628
H12 H 0.6675 1.0000 0.7739
F13 F 1.1097(3) 0.9005(2) 0.25527(15)
F14 F 0.9310(3) 0.8716(2) 0.28925(17)
F15 F 1.0819(3) 0.7833(3) 0.30927(15)
F16 F 0.6787(3) 0.4208(2) -0.02003(13)
F17 F 0.8620(3) 0.3713(2) -0.00922(14)
F18 F 0.7244(3) 0.3413(2) 0.05476(14)
S5 S 0.99322(9) 0.73836(6) 0.19151(4)
S6 S 0.80608(8) 0.53125(7) 0.07404(4)
O13 O 0.8858(2) 0.66966(18) 0.21275(13)
O14 O 1.0983(3) 0.6824(2) 0.17710(17)
O15 O 0.9366(3) 0.7934(2) 0.15006(17)
O16 O 0.9246(2) 0.50723(19) 0.11307(12)
O17 O 0.7071(3) 0.5532(2) 0.11376(14)
O18 O 0.8490(3) 0.5947(2) 0.03363(15)
Br5 Br 0.90872(3) 0.32418(3) 0.459819(17)
Br6 Br 0.95622(3) 0.13284(3) 0.343071(19)
C37 C 0.9319(3) 0.3774(2) 0.25024(15)
C38 C 0.9127(3) 0.4601(2) 0.30063(15)
C39 C 0.8976(3) 0.5597(2) 0.28929(16)
C40 C 0.8765(3) 0.6403(2) 0.33933(18)
C41 C 0.8749(3) 0.6249(3) 0.40099(18)
C42 C 0.8912(3) 0.5289(3) 0.41388(17)
C43 C 0.9078(3) 0.4453(2) 0.36478(16)
C44 C 0.9210(3) 0.3440(3) 0.37587(16)
C45 C 0.9400(3) 0.2650(2) 0.32731(16)
C46 C 0.9470(3) 0.2782(2) 0.26236(16)
C47 C 0.9680(3) 0.1984(2) 0.21137(17)
C48 C 0.9741(3) 0.2159(2) 0.14995(17)
C49 C 0.9582(3) 0.3113(2) 0.13716(16)
C50 C 0.9358(3) 0.3923(2) 0.18668(16)
C51 C 0.9180(3) 0.4924(2) 0.17615(16)
C52 C 0.9047(3) 0.5720(2) 0.22449(16)
C53 C 1.0303(5) 0.8298(3) 0.2671(2)
C54 C 0.7661(4) 0.4070(3) 0.0214(2)
H13 H 0.8641 0.7059 0.3310
H14 H 0.8612 0.6805 0.4346
H15 H 0.8919 0.5201 0.4567
H16 H 0.9771 0.1319 0.2188
H17 H 0.9904 0.1614 0.1161
H18 H 0.9626 0.3221 0.0949
F13 F -0.1097(3) 0.0995(2) 0.74473(15)
F14 F 0.0690(3) 0.1284(2) 0.71075(17)
F15 F -0.0819(3) 0.2167(3) 0.69073(15)
F16 F 0.3213(3) 0.5792(2) 1.02003(13)
F17 F 0.1380(3) 0.6287(2) 1.00922(14)
F18 F 0.2756(3) 0.6587(2) 0.94524(14)
S5 S 0.00678(9) 0.26164(6) 0.80849(4)
S6 S 0.19392(8) 0.46875(7) 0.92596(4)
O13 O 0.1142(2) 0.33034(18) 0.78725(13)
O14 O -0.0983(3) 0.3176(2) 0.82290(17)
O15 O 0.0634(3) 0.2066(2) 0.84994(17)
O16 O 0.0754(2) 0.49277(19) 0.88693(12)
O17 O 0.2929(3) 0.4468(2) 0.88624(14)
O18 O 0.1510(3) 0.4053(2) 0.96637(15)
Br5 Br 0.09128(3) 0.67582(3) 0.540181(17)
Br6 Br 0.04378(3) 0.86716(3) 0.656929(19)
C37 C 0.0681(3) 0.6226(2) 0.74976(15)
C38 C 0.0873(3) 0.5399(2) 0.69937(15)
C39 C 0.1024(3) 0.4403(2) 0.71071(16)
C40 C 0.1235(3) 0.3597(2) 0.66067(18)
C41 C 0.1251(3) 0.3751(3) 0.59901(18)
C42 C 0.1088(3) 0.4711(3) 0.58612(17)
C43 C 0.0922(3) 0.5547(2) 0.63522(16)
C44 C 0.0790(3) 0.6560(3) 0.62413(16)
C45 C 0.0600(3) 0.7350(2) 0.67269(16)
C46 C 0.0530(3) 0.7218(2) 0.73764(16)
C47 C 0.0320(3) 0.8016(2) 0.78863(17)
C48 C 0.0259(3) 0.7841(2) 0.85005(17)
C49 C 0.0418(3) 0.6887(2) 0.86284(16)
C50 C 0.0642(3) 0.6077(2) 0.81332(16)
C51 C 0.0820(3) 0.5076(2) 0.82385(16)
C52 C 0.0953(3) 0.4280(2) 0.77551(16)
C53 C -0.0303(5) 0.1702(3) 0.7329(2)
C54 C 0.2339(4) 0.5930(3) 0.9786(2)
H13 H 0.1359 0.2941 0.6690
H14 H 0.1388 0.3195 0.5654
H15 H 0.1081 0.4799 0.5433
H16 H 0.0229 0.8681 0.7812
H17 H 0.0096 0.8386 0.8839
H18 H 0.0374 0.6779 0.9051

#END
