./ABURAQ_from_xyz.cif_generated_by_CrystalShift
_symmetry_cell_setting triclinic
_symmetry_space_group_name_H-M 'P 1'
loop_
_symmetry_equiv_pos_site_id
_symmetry_equiv_pos_as_xyz
1 x,y,z
_cell_length_a 11.911000
_cell_length_b 8.206000
_cell_length_c 16.996000
_cell_angle_alpha 90.000000
_cell_angle_beta 104.300000
_cell_angle_gamma 90.000000
_cell_volume 1609.745714
loop_
_atom_site_label
_atom_site_type_symbol
_atom_site_fract_x
_atom_site_fract_y
_atom_site_fract_z
O1 O 0.132110 0.414300 0.703560
O2 O 0.122850 0.340000 0.428150
N3 N -0.014190 0.272020 0.620270
C4 C 0.091850 0.363800 0.634680
C5 C 0.139330 0.385500 0.567120
C6 C 0.089110 0.327700 0.490400
N7 N -0.021080 0.236240 0.482930
C8 C -0.067120 0.207700 0.547180
C9 C -0.167070 0.109800 0.534960
H10 H -0.197800 0.084100 0.578700
C11 C -0.218800 0.052900 0.459830
H12 H -0.284600 -0.012100 0.452200
C13 C -0.173610 0.091500 0.394140
H14 H -0.210600 0.056700 0.342100
C15 C -0.075110 0.180200 0.406880
H16 H -0.043400 0.203800 0.363400
C17 C 0.254100 0.472900 0.580530
H18 H 0.264700 0.541900 0.628100
H19 H 0.253300 0.542300 0.534200
C20 C 0.354420 0.355100 0.592030
C21 C 0.414900 0.338400 0.533130
H22 H 0.395100 0.402600 0.486700
C23 C 0.505050 0.227200 0.541980
H24 H 0.544500 0.216300 0.501400
C25 C 0.535580 0.133900 0.610610
H26 H 0.596400 0.060000 0.616900
C27 C 0.476670 0.149000 0.670330
H28 H 0.497700 0.085300 0.716900
C29 C 0.386170 0.258800 0.661270
H30 H 0.346400 0.268100 0.701700
C31 C -0.068150 0.256500 0.687420
C32 C -0.166920 0.344800 0.686750
H33 H -0.198100 0.414900 0.643900
C34 C -0.218910 0.327900 0.750430
H35 H -0.286600 0.385000 0.749800
C36 C -0.171790 0.227700 0.814620
H37 H -0.207000 0.217400 0.857500
C38 C -0.072200 0.142700 0.815160
H39 H -0.039600 0.075700 0.859000
C40 C -0.019940 0.155600 0.751550
H41 H 0.047000 0.096900 0.752000
O42 O 0.632110 0.085700 0.203560
O43 O 0.622850 0.160000 -0.071850
N44 N 0.485810 0.227980 0.120270
C45 C 0.591850 0.136200 0.134680
C46 C 0.639330 0.114500 0.067120
C47 C 0.589110 0.172300 -0.009600
N48 N 0.478920 0.263760 -0.017070
C49 C 0.432880 0.292300 0.047180
C50 C 0.332930 0.390200 0.034960
H51 H 0.302200 0.415900 0.078700
C52 C 0.281200 0.447100 -0.040170
H53 H 0.215400 0.512100 -0.047800
C54 C 0.326390 0.408500 -0.105860
H55 H 0.289400 0.443300 -0.157900
C56 C 0.424890 0.319800 -0.093120
H57 H 0.456600 0.296200 -0.136600
C58 C 0.754100 0.027100 0.080530
H59 H 0.764700 -0.041900 0.128100
H60 H 0.753300 -0.042300 0.034200
C61 C 0.854420 0.144900 0.092030
C62 C 0.914900 0.161600 0.033130
H63 H 0.895100 0.097400 -0.013300
C64 C 1.005050 0.272800 0.041980
H65 H 1.044500 0.283700 0.001400
C66 C 1.035580 0.366100 0.110610
H67 H 1.096400 0.440000 0.116900
C68 C 0.976670 0.351000 0.170330
H69 H 0.997700 0.414700 0.216900
C70 C 0.886170 0.241200 0.161270
H71 H 0.846400 0.231900 0.201700
C72 C 0.431850 0.243500 0.187420
C73 C 0.333080 0.155200 0.186750
H74 H 0.301900 0.085100 0.143900
C75 C 0.281090 0.172100 0.250430
H76 H 0.213400 0.115000 0.249800
C77 C 0.328210 0.272300 0.314620
H78 H 0.293000 0.282600 0.357500
C79 C 0.427800 0.357300 0.315160
H80 H 0.460400 0.424300 0.359000
C81 C 0.480060 0.344400 0.251550
H82 H 0.547000 0.403100 0.252000
O83 O 0.867890 0.585700 0.296440
O84 O 0.877150 0.660000 0.571850
N85 N 1.014190 0.727980 0.379730
C86 C 0.908150 0.636200 0.365320
C87 C 0.860670 0.614500 0.432880
C88 C 0.910890 0.672300 0.509600
N89 N 1.021080 0.763760 0.517070
C90 C 1.067120 0.792300 0.452820
C91 C 1.167070 0.890200 0.465040
H92 H 1.197800 0.915900 0.421300
C93 C 1.218800 0.947100 0.540170
H94 H 1.284600 1.012100 0.547800
C95 C 1.173610 0.908500 0.605860
H96 H 1.210600 0.943300 0.657900
C97 C 1.075110 0.819800 0.593120
H98 H 1.043400 0.796200 0.636600
C99 C 0.745900 0.527100 0.419470
H100 H 0.735300 0.458100 0.371900
H101 H 0.746700 0.457700 0.465800
C102 C 0.645580 0.644900 0.407970
C103 C 0.585100 0.661600 0.466870
H104 H 0.604900 0.597400 0.513300
C105 C 0.494950 0.772800 0.458020
H106 H 0.455500 0.783700 0.498600
C107 C 0.464420 0.866100 0.389390
H108 H 0.403600 0.940000 0.383100
C109 C 0.523330 0.851000 0.329670
H110 H 0.502300 0.914700 0.283100
C111 C 0.613830 0.741200 0.338730
H112 H 0.653600 0.731900 0.298300
C113 C 1.068150 0.743500 0.312580
C114 C 1.166920 0.655200 0.313250
H115 H 1.198100 0.585100 0.356100
C116 C 1.218910 0.672100 0.249570
H117 H 1.286600 0.615000 0.250200
C118 C 1.171790 0.772300 0.185380
H119 H 1.207000 0.782600 0.142500
C120 C 1.072200 0.857300 0.184840
H121 H 1.039600 0.924300 0.141000
C122 C 1.019940 0.844400 0.248450
H123 H 0.953000 0.903100 0.248000
O124 O 0.367890 0.914300 0.796440
O125 O 0.377150 0.840000 1.071850
N126 N 0.514190 0.772020 0.879730
C127 C 0.408150 0.863800 0.865320
C128 C 0.360670 0.885500 0.932880
C129 C 0.410890 0.827700 1.009600
N130 N 0.521080 0.736240 1.017070
C131 C 0.567120 0.707700 0.952820
C132 C 0.667070 0.609800 0.965040
H133 H 0.697800 0.584100 0.921300
C134 C 0.718800 0.552900 1.040170
H135 H 0.784600 0.487900 1.047800
C136 C 0.673610 0.591500 1.105860
H137 H 0.710600 0.556700 1.157900
C138 C 0.575110 0.680200 1.093120
H139 H 0.543400 0.703800 1.136600
C140 C 0.245900 0.972900 0.919470
H141 H 0.235300 1.041900 0.871900
H142 H 0.246700 1.042300 0.965800
C143 C 0.145580 0.855100 0.907970
C144 C 0.085100 0.838400 0.966870
H145 H 0.104900 0.902600 1.013300
C146 C -0.005050 0.727200 0.958020
H147 H -0.044500 0.716300 0.998600
C148 C -0.035580 0.633900 0.889390
H149 H -0.096400 0.560000 0.883100
C150 C 0.023330 0.649000 0.829670
H151 H 0.002300 0.585300 0.783100
C152 C 0.113830 0.758800 0.838730
H153 H 0.153600 0.768100 0.798300
C154 C 0.568150 0.756500 0.812580
C155 C 0.666920 0.844800 0.813250
H156 H 0.698100 0.914900 0.856100
C157 C 0.718910 0.827900 0.749570
H158 H 0.786600 0.885000 0.750200
C159 C 0.671790 0.727700 0.685380
H160 H 0.707000 0.717400 0.642500
C161 C 0.572200 0.642700 0.684840
H162 H 0.539600 0.575700 0.641000
C163 C 0.519940 0.655600 0.748450
H164 H 0.453000 0.596900 0.748000

#END
