
#######################################################################
#
#                 Cambridge Crystallographic Data Centre
#                                CCDC 
#
#######################################################################
#
# If this CIF has been generated from an entry in the Cambridge 
# Structural Database, then it will include bibliographic, chemical, 
# crystal, experimental, refinement or atomic coordinate data resulting 
# from the CCDC's data processing and validation procedures.
#
#######################################################################

data_ABUSOF
_symmetry_cell_setting           monoclinic
_symmetry_space_group_name_H-M   'P 21/c'
_symmetry_Int_Tables_number      14
_space_group_name_Hall           '-P 2ybc'
loop_
_symmetry_equiv_pos_site_id
_symmetry_equiv_pos_as_xyz
1 x,y,z
2 x,1/2-y,1/2+z
3 -x,-y,-z
4 -x,1/2+y,1/2-z
_cell_length_a                   10.4615(10)
_cell_length_b                   12.6555(6)
_cell_length_c                   23.024(3)
_cell_angle_alpha                90
_cell_angle_beta                 104.166(5)
_cell_angle_gamma                90
_cell_volume                     2955.58
loop_
_atom_site_label
_atom_site_type_symbol
_atom_site_fract_x
_atom_site_fract_y
_atom_site_fract_z
N1 N 0.1802(3) 0.1444(2) 0.01987(12)
C1 C 0.0437(3) 0.1637(2) 0.00605(13)
C2 C -0.0390(4) 0.2157(3) -0.04193(15)
H1 H -0.0064 0.2469 -0.0719
C3 C -0.1710(4) 0.2190(3) -0.04316(17)
H2 H -0.2291 0.2517 -0.0752
C4 C -0.2194(4) 0.1752(3) 0.00179(17)
H3 H -0.3092 0.1796 -0.0003
C5 C -0.1382(3) 0.1253(3) 0.04949(15)
H4 H -0.1724 0.0957 0.0795
C6 C -0.0042(3) 0.1194(2) 0.05268(13)
C7 C 0.1071(3) 0.0750(2) 0.09630(13)
C8 C 0.2147(3) 0.0926(2) 0.07563(14)
H5 H 0.3000 0.0733 0.0954
S1 S 0.29120(9) 0.19381(7) -0.01289(4)
O1 O 0.2271(3) 0.2110(2) -0.07427(10)
O2 O 0.4025(3) 0.12530(19) 0.00359(12)
C9 C 0.3376(3) 0.3170(2) 0.02107(14)
C10 C 0.2831(4) 0.4082(3) -0.00610(16)
H6 H 0.2184 0.4059 -0.0419
C11 C 0.3262(4) 0.5041(3) 0.02064(19)
H7 H 0.2919 0.5669 0.0022
C12 C 0.4194(4) 0.5071(3) 0.07428(19)
H8 H 0.4470 0.5719 0.0921
C13 C 0.4715(4) 0.4160(4) 0.10156(19)
H9 H 0.5341 0.4187 0.1380
C14 C 0.4317(4) 0.3197(3) 0.07539(17)
H10 H 0.4675 0.2574 0.0938
C15 C 0.1030(3) 0.0226(2) 0.15350(13)
C16 C 0.0051(4) -0.0406(3) 0.15781(16)
H11 H -0.0638 -0.0533 0.1244
H12 H 0.0051 -0.0724 0.1942
C17 C 0.2145(3) 0.0443(2) 0.20784(13)
H13 H 0.2999 0.0533 0.1899
H14 H 0.2287 -0.0211 0.2395
C18 C 0.1954(3) 0.1425(2) 0.24521(13)
C19 C 0.1848(3) 0.2421(2) 0.20640(15)
H15 H 0.1073 0.2377 0.1739
H16 H 0.2614 0.2477 0.1906
H17 H 0.1790 0.3032 0.2303
C20 C 0.3173(3) 0.1533(3) 0.29759(15)
H18 H 0.3063 0.2126 0.3219
H19 H 0.3939 0.1640 0.2823
H20 H 0.3281 0.0901 0.3213
C21 C 0.0741(2) 0.1307(2) 0.26924(12)
C22 C -0.0335(2) 0.1930(2) 0.25588(12)
H21 H -0.0477 0.2466 0.2274
N2 N -0.1219(2) 0.16559(18) 0.29102(11)
C23 C -0.0683(3) 0.0772(2) 0.32607(12)
C24 C -0.1162(3) 0.0221(3) 0.36830(14)
H22 H -0.1954 0.0406 0.3772
C25 C -0.0420(4) -0.0609(3) 0.39644(15)
H23 H -0.0719 -0.0999 0.4247
C26 C 0.0773(3) -0.0882(3) 0.38371(14)
H24 H 0.1250 -0.1455 0.4031
C27 C 0.1248(3) -0.0316(2) 0.34291(13)
H25 H 0.2046 -0.0503 0.3348
C28 C 0.0530(3) 0.0545(2) 0.31345(12)
S2 S -0.28176(7) 0.19179(5) 0.26822(3)
O3 O -0.2915(2) 0.28618(15) 0.23352(11)
O4 O -0.3336(2) 0.18817(18) 0.31964(10)
C29 C -0.3509(3) 0.0871(2) 0.22064(13)
C30 C -0.3504(3) 0.0927(3) 0.16074(15)
H26 H -0.3136 0.1506 0.1459
C31 C -0.4052(4) 0.0111(3) 0.12358(18)
H27 H -0.4046 0.0134 0.0833
C32 C -0.4607(4) -0.0735(3) 0.1452(2)
H28 H -0.4987 -0.1277 0.1194
C33 C -0.4604(3) -0.0785(3) 0.2046(2)
H29 H -0.4977 -0.1364 0.2191
C34 C -0.4049(3) 0.0022(2) 0.24347(16)
H30 H -0.4043 -0.0010 0.2839
N1 N 0.1802(3) 0.3556(2) 0.51987(12)
C1 C 0.0437(3) 0.3363(2) 0.50605(13)
C2 C -0.0390(4) 0.2843(3) 0.45807(15)
H1 H -0.0064 0.2531 0.4281
C3 C -0.1710(4) 0.2810(3) 0.45684(17)
H2 H -0.2291 0.2483 0.4248
C4 C -0.2194(4) 0.3248(3) 0.50179(17)
H3 H -0.3092 0.3204 0.4997
C5 C -0.1382(3) 0.3747(3) 0.54949(15)
H4 H -0.1724 0.4043 0.5795
C6 C -0.0042(3) 0.3806(2) 0.55268(13)
C7 C 0.1071(3) 0.4250(2) 0.59630(13)
C8 C 0.2147(3) 0.4074(2) 0.57563(14)
H5 H 0.3000 0.4267 0.5954
S1 S 0.29120(9) 0.30619(7) 0.48711(4)
O1 O 0.2271(3) 0.2890(2) 0.42573(10)
O2 O 0.4025(3) 0.37470(19) 0.50359(12)
C9 C 0.3376(3) 0.1830(2) 0.52107(14)
C10 C 0.2831(4) 0.0918(3) 0.49390(16)
H6 H 0.2184 0.0941 0.4581
C11 C 0.3262(4) -0.0041(3) 0.52064(19)
H7 H 0.2919 -0.0669 0.5022
C12 C 0.4194(4) -0.0071(3) 0.57428(19)
H8 H 0.4470 -0.0719 0.5921
C13 C 0.4715(4) 0.0840(4) 0.60156(19)
H9 H 0.5341 0.0813 0.6380
C14 C 0.4317(4) 0.1803(3) 0.57539(17)
H10 H 0.4675 0.2426 0.5938
C15 C 0.1030(3) 0.4774(2) 0.65350(13)
C16 C 0.0051(4) 0.5406(3) 0.65781(16)
H11 H -0.0638 0.5533 0.6244
H12 H 0.0051 0.5724 0.6942
C17 C 0.2145(3) 0.4557(2) 0.70784(13)
H13 H 0.2999 0.4467 0.6899
H14 H 0.2287 0.5211 0.7395
C18 C 0.1954(3) 0.3575(2) 0.74521(13)
C19 C 0.1848(3) 0.2579(2) 0.70640(15)
H15 H 0.1073 0.2623 0.6739
H16 H 0.2614 0.2523 0.6906
H17 H 0.1790 0.1968 0.7303
C20 C 0.3173(3) 0.3467(3) 0.79759(15)
H18 H 0.3063 0.2874 0.8219
H19 H 0.3939 0.3360 0.7823
H20 H 0.3281 0.4099 0.8213
C21 C 0.0741(2) 0.3693(2) 0.76924(12)
C22 C -0.0335(2) 0.3070(2) 0.75588(12)
H21 H -0.0477 0.2534 0.7274
N2 N -0.1219(2) 0.33441(18) 0.79102(11)
C23 C -0.0683(3) 0.4228(2) 0.82607(12)
C24 C -0.1162(3) 0.4779(3) 0.86830(14)
H22 H -0.1954 0.4594 0.8772
C25 C -0.0420(4) 0.5609(3) 0.89644(15)
H23 H -0.0719 0.5999 0.9247
C26 C 0.0773(3) 0.5882(3) 0.88371(14)
H24 H 0.1250 0.6455 0.9031
C27 C 0.1248(3) 0.5316(2) 0.84291(13)
H25 H 0.2046 0.5503 0.8348
C28 C 0.0530(3) 0.4455(2) 0.81345(12)
S2 S -0.28176(7) 0.30821(5) 0.76822(3)
O3 O -0.2915(2) 0.21382(15) 0.73352(11)
O4 O -0.3336(2) 0.31183(18) 0.81964(10)
C29 C -0.3509(3) 0.4129(2) 0.72064(13)
C30 C -0.3504(3) 0.4073(3) 0.66074(15)
H26 H -0.3136 0.3494 0.6459
C31 C -0.4052(4) 0.4889(3) 0.62358(18)
H27 H -0.4046 0.4866 0.5833
C32 C -0.4607(4) 0.5735(3) 0.6452(2)
H28 H -0.4987 0.6277 0.6194
C33 C -0.4604(3) 0.5785(3) 0.7046(2)
H29 H -0.4977 0.6364 0.7191
C34 C -0.4049(3) 0.4978(2) 0.74347(16)
H30 H -0.4043 0.5010 0.7839
N1 N 0.8198(3) 0.8556(2) 0.98013(12)
C1 C 0.9563(3) 0.8363(2) 0.99395(13)
C2 C 1.0390(4) 0.7843(3) 1.04193(15)
H1 H 1.0064 0.7531 1.0719
C3 C 1.1710(4) 0.7810(3) 1.04316(17)
H2 H 1.2291 0.7483 1.0752
C4 C 1.2194(4) 0.8248(3) 0.99821(17)
H3 H 1.3092 0.8204 1.0003
C5 C 1.1382(3) 0.8747(3) 0.95051(15)
H4 H 1.1724 0.9043 0.9205
C6 C 1.0042(3) 0.8806(2) 0.94732(13)
C7 C 0.8929(3) 0.9250(2) 0.90370(13)
C8 C 0.7853(3) 0.9074(2) 0.92437(14)
H5 H 0.7000 0.9267 0.9046
S1 S 0.70880(9) 0.80619(7) 1.01289(4)
O1 O 0.7729(3) 0.7890(2) 1.07427(10)
O2 O 0.5975(3) 0.87470(19) 0.99641(12)
C9 C 0.6624(3) 0.6830(2) 0.97893(14)
C10 C 0.7169(4) 0.5918(3) 1.00610(16)
H6 H 0.7816 0.5941 1.0419
C11 C 0.6738(4) 0.4959(3) 0.97936(19)
H7 H 0.7081 0.4331 0.9978
C12 C 0.5806(4) 0.4929(3) 0.92572(19)
H8 H 0.5530 0.4281 0.9079
C13 C 0.5285(4) 0.5840(4) 0.89844(19)
H9 H 0.4659 0.5813 0.8620
C14 C 0.5683(4) 0.6803(3) 0.92461(17)
H10 H 0.5325 0.7426 0.9062
C15 C 0.8970(3) 0.9774(2) 0.84650(13)
C16 C 0.9949(4) 1.0406(3) 0.84219(16)
H11 H 1.0638 1.0533 0.8756
H12 H 0.9949 1.0724 0.8058
C17 C 0.7855(3) 0.9557(2) 0.79216(13)
H13 H 0.7001 0.9467 0.8101
H14 H 0.7713 1.0211 0.7605
C18 C 0.8046(3) 0.8575(2) 0.75479(13)
C19 C 0.8152(3) 0.7579(2) 0.79360(15)
H15 H 0.8927 0.7623 0.8261
H16 H 0.7386 0.7523 0.8094
H17 H 0.8210 0.6968 0.7697
C20 C 0.6827(3) 0.8467(3) 0.70241(15)
H18 H 0.6937 0.7874 0.6781
H19 H 0.6061 0.8360 0.7177
H20 H 0.6719 0.9099 0.6787
C21 C 0.9259(2) 0.8693(2) 0.73076(12)
C22 C 1.0335(2) 0.8070(2) 0.74412(12)
H21 H 1.0477 0.7534 0.7726
N2 N 1.1219(2) 0.83441(18) 0.70898(11)
C23 C 1.0683(3) 0.9228(2) 0.67393(12)
C24 C 1.1162(3) 0.9779(3) 0.63170(14)
H22 H 1.1954 0.9594 0.6228
C25 C 1.0420(4) 1.0609(3) 0.60356(15)
H23 H 1.0719 1.0999 0.5753
C26 C 0.9227(3) 1.0882(3) 0.61629(14)
H24 H 0.8750 1.1455 0.5969
C27 C 0.8752(3) 1.0316(2) 0.65709(13)
H25 H 0.7954 1.0503 0.6652
C28 C 0.9470(3) 0.9455(2) 0.68655(12)
S2 S 1.28176(7) 0.80821(5) 0.73178(3)
O3 O 1.2915(2) 0.71382(15) 0.76648(11)
O4 O 1.3336(2) 0.81183(18) 0.68036(10)
C29 C 1.3509(3) 0.9129(2) 0.77936(13)
C30 C 1.3504(3) 0.9073(3) 0.83926(15)
H26 H 1.3136 0.8494 0.8541
C31 C 1.4052(4) 0.9889(3) 0.87642(18)
H27 H 1.4046 0.9866 0.9167
C32 C 1.4607(4) 1.0735(3) 0.8548(2)
H28 H 1.4987 1.1277 0.8806
C33 C 1.4604(3) 1.0785(3) 0.7954(2)
H29 H 1.4977 1.1364 0.7809
C34 C 1.4049(3) 0.9978(2) 0.75653(16)
H30 H 1.4043 1.0010 0.7161
N1 N 0.8198(3) 0.6444(2) 0.48013(12)
C1 C 0.9563(3) 0.6637(2) 0.49395(13)
C2 C 1.0390(4) 0.7157(3) 0.54193(15)
H1 H 1.0064 0.7469 0.5719
C3 C 1.1710(4) 0.7190(3) 0.54316(17)
H2 H 1.2291 0.7517 0.5752
C4 C 1.2194(4) 0.6752(3) 0.49821(17)
H3 H 1.3092 0.6796 0.5003
C5 C 1.1382(3) 0.6253(3) 0.45051(15)
H4 H 1.1724 0.5957 0.4205
C6 C 1.0042(3) 0.6194(2) 0.44732(13)
C7 C 0.8929(3) 0.5750(2) 0.40370(13)
C8 C 0.7853(3) 0.5926(2) 0.42437(14)
H5 H 0.7000 0.5733 0.4046
S1 S 0.70880(9) 0.69381(7) 0.51289(4)
O1 O 0.7729(3) 0.7110(2) 0.57427(10)
O2 O 0.5975(3) 0.62530(19) 0.49641(12)
C9 C 0.6624(3) 0.8170(2) 0.47893(14)
C10 C 0.7169(4) 0.9082(3) 0.50610(16)
H6 H 0.7816 0.9059 0.5419
C11 C 0.6738(4) 1.0041(3) 0.47936(19)
H7 H 0.7081 1.0669 0.4978
C12 C 0.5806(4) 1.0071(3) 0.42572(19)
H8 H 0.5530 1.0719 0.4079
C13 C 0.5285(4) 0.9160(4) 0.39844(19)
H9 H 0.4659 0.9187 0.3620
C14 C 0.5683(4) 0.8197(3) 0.42461(17)
H10 H 0.5325 0.7574 0.4062
C15 C 0.8970(3) 0.5226(2) 0.34650(13)
C16 C 0.9949(4) 0.4594(3) 0.34219(16)
H11 H 1.0638 0.4467 0.3756
H12 H 0.9949 0.4276 0.3058
C17 C 0.7855(3) 0.5443(2) 0.29216(13)
H13 H 0.7001 0.5533 0.3101
H14 H 0.7713 0.4789 0.2605
C18 C 0.8046(3) 0.6425(2) 0.25479(13)
C19 C 0.8152(3) 0.7421(2) 0.29360(15)
H15 H 0.8927 0.7377 0.3261
H16 H 0.7386 0.7477 0.3094
H17 H 0.8210 0.8032 0.2697
C20 C 0.6827(3) 0.6533(3) 0.20241(15)
H18 H 0.6937 0.7126 0.1781
H19 H 0.6061 0.6640 0.2177
H20 H 0.6719 0.5901 0.1787
C21 C 0.9259(2) 0.6307(2) 0.23076(12)
C22 C 1.0335(2) 0.6930(2) 0.24412(12)
H21 H 1.0477 0.7466 0.2726
N2 N 1.1219(2) 0.66559(18) 0.20898(11)
C23 C 1.0683(3) 0.5772(2) 0.17393(12)
C24 C 1.1162(3) 0.5221(3) 0.13170(14)
H22 H 1.1954 0.5406 0.1228
C25 C 1.0420(4) 0.4391(3) 0.10356(15)
H23 H 1.0719 0.4001 0.0753
C26 C 0.9227(3) 0.4118(3) 0.11629(14)
H24 H 0.8750 0.3545 0.0969
C27 C 0.8752(3) 0.4684(2) 0.15709(13)
H25 H 0.7954 0.4497 0.1652
C28 C 0.9470(3) 0.5545(2) 0.18655(12)
S2 S 1.28176(7) 0.69179(5) 0.23178(3)
O3 O 1.2915(2) 0.78618(15) 0.26648(11)
O4 O 1.3336(2) 0.68817(18) 0.18036(10)
C29 C 1.3509(3) 0.5871(2) 0.27936(13)
C30 C 1.3504(3) 0.5927(3) 0.33926(15)
H26 H 1.3136 0.6506 0.3541
C31 C 1.4052(4) 0.5111(3) 0.37642(18)
H27 H 1.4046 0.5134 0.4167
C32 C 1.4607(4) 0.4265(3) 0.3548(2)
H28 H 1.4987 0.3723 0.3806
C33 C 1.4604(3) 0.4215(3) 0.2954(2)
H29 H 1.4977 0.3636 0.2809
C34 C 1.4049(3) 0.5022(2) 0.25653(16)
H30 H 1.4043 0.4990 0.2161

#END
