./ACACTA_from_xyz.cif_generated_by_CrystalShift
_symmetry_cell_setting triclinic
_symmetry_space_group_name_H-M 'P 1'
loop_
_symmetry_equiv_pos_site_id
_symmetry_equiv_pos_as_xyz
1 x,y,z
_cell_length_a 9.320000
_cell_length_b 25.130000
_cell_length_c 7.691000
_cell_angle_alpha 90.000000
_cell_angle_beta 90.000000
_cell_angle_gamma 90.000000
_cell_volume 1801.321416
loop_
_atom_site_label
_atom_site_type_symbol
_atom_site_fract_x
_atom_site_fract_y
_atom_site_fract_z
O1 O 0.242800 0.508200 0.352300
O2 O 0.359200 0.256500 0.471800
N3 N 0.460600 0.470500 0.292300
C4 C 0.434200 0.416700 0.344900
C5 C 0.324600 0.401800 0.459500
C6 C 0.304300 0.348000 0.499100
C7 C 0.392500 0.308800 0.427600
C8 C 0.506300 0.323500 0.318800
C9 C 0.526300 0.377400 0.278700
C10 C 0.364800 0.511600 0.293400
C11 C 0.420100 0.563700 0.212300
C12 C 0.421600 0.215100 0.366500
H13 H 0.254000 0.427000 0.508000
H14 H 0.219000 0.341000 0.566000
H15 H 0.579000 0.294000 0.262000
H16 H 0.602000 0.386000 0.192000
H17 H 0.554000 0.478000 0.267000
H18 H 0.516000 0.568000 0.202000
H19 H 0.357000 0.568000 0.108000
H20 H 0.397000 0.591000 0.306000
H21 H 0.388000 0.220000 0.229000
H22 H 0.368000 0.182000 0.410000
H23 H 0.528000 0.211000 0.383000
O24 O 0.257200 0.508200 0.852300
O25 O 0.140800 0.256500 0.971800
N26 N 0.039400 0.470500 0.792300
C27 C 0.065800 0.416700 0.844900
C28 C 0.175400 0.401800 0.959500
C29 C 0.195700 0.348000 0.999100
C30 C 0.107500 0.308800 0.927600
C31 C -0.006300 0.323500 0.818800
C32 C -0.026300 0.377400 0.778700
C33 C 0.135200 0.511600 0.793400
C34 C 0.079900 0.563700 0.712300
C35 C 0.078400 0.215100 0.866500
H36 H 0.246000 0.427000 1.008000
H37 H 0.281000 0.341000 1.066000
H38 H -0.079000 0.294000 0.762000
H39 H -0.102000 0.386000 0.692000
H40 H -0.054000 0.478000 0.767000
H41 H -0.016000 0.568000 0.702000
H42 H 0.143000 0.568000 0.608000
H43 H 0.103000 0.591000 0.806000
H44 H 0.112000 0.220000 0.729000
H45 H 0.132000 0.182000 0.910000
H46 H -0.028000 0.211000 0.883000
O47 O 0.742800 -0.008200 0.352300
O48 O 0.859200 0.243500 0.471800
N49 N 0.960600 0.029500 0.292300
C50 C 0.934200 0.083300 0.344900
C51 C 0.824600 0.098200 0.459500
C52 C 0.804300 0.152000 0.499100
C53 C 0.892500 0.191200 0.427600
C54 C 1.006300 0.176500 0.318800
C55 C 1.026300 0.122600 0.278700
C56 C 0.864800 -0.011600 0.293400
C57 C 0.920100 -0.063700 0.212300
C58 C 0.921600 0.284900 0.366500
H59 H 0.754000 0.073000 0.508000
H60 H 0.719000 0.159000 0.566000
H61 H 1.079000 0.206000 0.262000
H62 H 1.102000 0.114000 0.192000
H63 H 1.054000 0.022000 0.267000
H64 H 1.016000 -0.068000 0.202000
H65 H 0.857000 -0.068000 0.108000
H66 H 0.897000 -0.091000 0.306000
H67 H 0.888000 0.280000 0.229000
H68 H 0.868000 0.318000 0.410000
H69 H 1.028000 0.289000 0.383000
O70 O 0.757200 -0.008200 0.852300
O71 O 0.640800 0.243500 0.971800
N72 N 0.539400 0.029500 0.792300
C73 C 0.565800 0.083300 0.844900
C74 C 0.675400 0.098200 0.959500
C75 C 0.695700 0.152000 0.999100
C76 C 0.607500 0.191200 0.927600
C77 C 0.493700 0.176500 0.818800
C78 C 0.473700 0.122600 0.778700
C79 C 0.635200 -0.011600 0.793400
C80 C 0.579900 -0.063700 0.712300
C81 C 0.578400 0.284900 0.866500
H82 H 0.746000 0.073000 1.008000
H83 H 0.781000 0.159000 1.066000
H84 H 0.421000 0.206000 0.762000
H85 H 0.398000 0.114000 0.692000
H86 H 0.446000 0.022000 0.767000
H87 H 0.484000 -0.068000 0.702000
H88 H 0.643000 -0.068000 0.608000
H89 H 0.603000 -0.091000 0.806000
H90 H 0.612000 0.280000 0.729000
H91 H 0.632000 0.318000 0.910000
H92 H 0.472000 0.289000 0.883000
O93 O 0.757200 0.491800 0.647700
O94 O 0.640800 0.743500 0.528200
N95 N 0.539400 0.529500 0.707700
C96 C 0.565800 0.583300 0.655100
C97 C 0.675400 0.598200 0.540500
C98 C 0.695700 0.652000 0.500900
C99 C 0.607500 0.691200 0.572400
C100 C 0.493700 0.676500 0.681200
C101 C 0.473700 0.622600 0.721300
C102 C 0.635200 0.488400 0.706600
C103 C 0.579900 0.436300 0.787700
C104 C 0.578400 0.784900 0.633500
H105 H 0.746000 0.573000 0.492000
H106 H 0.781000 0.659000 0.434000
H107 H 0.421000 0.706000 0.738000
H108 H 0.398000 0.614000 0.808000
H109 H 0.446000 0.522000 0.733000
H110 H 0.484000 0.432000 0.798000
H111 H 0.643000 0.432000 0.892000
H112 H 0.603000 0.409000 0.694000
H113 H 0.612000 0.780000 0.771000
H114 H 0.632000 0.818000 0.590000
H115 H 0.472000 0.789000 0.617000
O116 O 0.742800 0.491800 0.147700
O117 O 0.859200 0.743500 0.028200
N118 N 0.960600 0.529500 0.207700
C119 C 0.934200 0.583300 0.155100
C120 C 0.824600 0.598200 0.040500
C121 C 0.804300 0.652000 0.000900
C122 C 0.892500 0.691200 0.072400
C123 C 1.006300 0.676500 0.181200
C124 C 1.026300 0.622600 0.221300
C125 C 0.864800 0.488400 0.206600
C126 C 0.920100 0.436300 0.287700
C127 C 0.921600 0.784900 0.133500
H128 H 0.754000 0.573000 -0.008000
H129 H 0.719000 0.659000 -0.066000
H130 H 1.079000 0.706000 0.238000
H131 H 1.102000 0.614000 0.308000
H132 H 1.054000 0.522000 0.233000
H133 H 1.016000 0.432000 0.298000
H134 H 0.857000 0.432000 0.392000
H135 H 0.897000 0.409000 0.194000
H136 H 0.888000 0.780000 0.271000
H137 H 0.868000 0.818000 0.090000
H138 H 1.028000 0.789000 0.117000
O139 O 0.257200 1.008200 0.647700
O140 O 0.140800 0.756500 0.528200
N141 N 0.039400 0.970500 0.707700
C142 C 0.065800 0.916700 0.655100
C143 C 0.175400 0.901800 0.540500
C144 C 0.195700 0.848000 0.500900
C145 C 0.107500 0.808800 0.572400
C146 C -0.006300 0.823500 0.681200
C147 C -0.026300 0.877400 0.721300
C148 C 0.135200 1.011600 0.706600
C149 C 0.079900 1.063700 0.787700
C150 C 0.078400 0.715100 0.633500
H151 H 0.246000 0.927000 0.492000
H152 H 0.281000 0.841000 0.434000
H153 H -0.079000 0.794000 0.738000
H154 H -0.102000 0.886000 0.808000
H155 H -0.054000 0.978000 0.733000
H156 H -0.016000 1.068000 0.798000
H157 H 0.143000 1.068000 0.892000
H158 H 0.103000 1.091000 0.694000
H159 H 0.112000 0.720000 0.771000
H160 H 0.132000 0.682000 0.590000
H161 H -0.028000 0.711000 0.617000
O162 O 0.242800 1.008200 0.147700
O163 O 0.359200 0.756500 0.028200
N164 N 0.460600 0.970500 0.207700
C165 C 0.434200 0.916700 0.155100
C166 C 0.324600 0.901800 0.040500
C167 C 0.304300 0.848000 0.000900
C168 C 0.392500 0.808800 0.072400
C169 C 0.506300 0.823500 0.181200
C170 C 0.526300 0.877400 0.221300
C171 C 0.364800 1.011600 0.206600
C172 C 0.420100 1.063700 0.287700
C173 C 0.421600 0.715100 0.133500
H174 H 0.254000 0.927000 -0.008000
H175 H 0.219000 0.841000 -0.066000
H176 H 0.579000 0.794000 0.238000
H177 H 0.602000 0.886000 0.308000
H178 H 0.554000 0.978000 0.233000
H179 H 0.516000 1.068000 0.298000
H180 H 0.357000 1.068000 0.392000
H181 H 0.397000 1.091000 0.194000
H182 H 0.388000 0.720000 0.271000
H183 H 0.368000 0.682000 0.090000
H184 H 0.528000 0.711000 0.117000

#END
