
#######################################################################
#
#                 Cambridge Crystallographic Data Centre
#                                CCDC 
#
#######################################################################
#
# If this CIF has been generated from an entry in the Cambridge 
# Structural Database, then it will include bibliographic, chemical, 
# crystal, experimental, refinement or atomic coordinate data resulting 
# from the CCDC's data processing and validation procedures.
#
#######################################################################

data_ACACTA01
_symmetry_cell_setting           orthorhombic
_symmetry_space_group_name_H-M   'P b c a'
_symmetry_Int_Tables_number      61
_space_group_name_Hall           '-P 2ac 2ab'
loop_
_symmetry_equiv_pos_site_id
_symmetry_equiv_pos_as_xyz
1 x,y,z
2 1/2-x,-y,1/2+z
3 -x,1/2+y,1/2-z
4 1/2+x,1/2-y,-z
5 -x,-y,-z
6 1/2+x,y,1/2-z
7 x,1/2-y,1/2+z
8 1/2-x,1/2+y,z
_cell_length_a                   9.1172(2)
_cell_length_b                   7.4950(2)
_cell_length_c                   24.6628(5)
_cell_angle_alpha                90
_cell_angle_beta                 90
_cell_angle_gamma                90
_cell_volume                     1685.29
loop_
_atom_site_label
_atom_site_type_symbol
_atom_site_fract_x
_atom_site_fract_y
_atom_site_fract_z
C1 C 0.93699(12) 0.14802(15) 0.58212(5)
C2 C 0.82397(13) 0.03109(15) 0.59622(5)
H1 H 0.7621 -0.0174 0.5689
C3 C 0.80240(13) -0.01389(15) 0.65019(5)
H2 H 0.7255 -0.0936 0.6597
C4 C 0.89189(13) 0.05617(16) 0.69069(5)
C5 C 1.00874(14) 0.16574(16) 0.67668(5)
H3 H 1.0734 0.2095 0.7038
C6 C 1.03022(13) 0.21080(16) 0.62254(5)
H4 H 1.1101 0.2859 0.6130
C7 C 0.87017(13) 0.20447(15) 0.48601(5)
C8 C 0.92455(14) 0.29138(17) 0.43480(5)
H5 H 0.9174 0.2065 0.4047
H6 H 1.0271 0.3275 0.4396
H7 H 0.8646 0.3967 0.4268
C9 C 0.91984(18) 0.11619(19) 0.78515(5)
H8 H 1.0259 0.0954 0.7861
H9 H 0.8768 0.0829 0.8201
H10 H 0.9007 0.2427 0.7780
N1 N 0.96416(11) 0.20639(13) 0.52833(4)
O1 O 0.74631(9) 0.13799(12) 0.48844(3)
O2 O 0.85564(11) 0.01039(11) 0.74308(3)
H11 H 1.0471(18) 0.255(2) 0.5224(6)
C1 C 0.56301(12) 0.85198(15) 0.08212(5)
C2 C 0.67603(13) 0.96891(15) 0.09622(5)
H1 H 0.7379 1.0174 0.0689
C3 C 0.69760(13) 1.01389(15) 0.15019(5)
H2 H 0.7745 1.0936 0.1597
C4 C 0.60811(13) 0.94383(16) 0.19069(5)
C5 C 0.49126(14) 0.83426(16) 0.17668(5)
H3 H 0.4266 0.7905 0.2038
C6 C 0.46978(13) 0.78920(16) 0.12254(5)
H4 H 0.3899 0.7141 0.1130
C7 C 0.62983(13) 0.79553(15) -0.01399(5)
C8 C 0.57545(14) 0.70862(17) -0.06520(5)
H5 H 0.5826 0.7935 -0.0953
H6 H 0.4729 0.6725 -0.0604
H7 H 0.6354 0.6033 -0.0732
C9 C 0.58016(18) 0.88381(19) 0.28515(5)
H8 H 0.4741 0.9046 0.2861
H9 H 0.6232 0.9171 0.3201
H10 H 0.5993 0.7573 0.2780
N1 N 0.53584(11) 0.79361(13) 0.02833(4)
O1 O 0.75369(9) 0.86201(12) -0.01156(3)
O2 O 0.64436(11) 0.98961(11) 0.24308(3)
H11 H 0.4529(18) 0.745(2) 0.0224(6)
C1 C 0.06301(12) 0.64802(15) 0.91788(5)
C2 C 0.17603(13) 0.53109(15) 0.90378(5)
H1 H 0.2379 0.4826 0.9311
C3 C 0.19760(13) 0.48611(15) 0.84981(5)
H2 H 0.2745 0.4064 0.8403
C4 C 0.10811(13) 0.55617(16) 0.80931(5)
C5 C -0.00874(14) 0.66574(16) 0.82332(5)
H3 H -0.0734 0.7095 0.7962
C6 C -0.03022(13) 0.71080(16) 0.87746(5)
H4 H -0.1101 0.7859 0.8870
C7 C 0.12983(13) 0.70447(15) 1.01399(5)
C8 C 0.07545(14) 0.79138(17) 1.06520(5)
H5 H 0.0826 0.7065 1.0953
H6 H -0.0271 0.8275 1.0604
H7 H 0.1354 0.8967 1.0732
C9 C 0.08016(18) 0.61619(19) 0.71485(5)
H8 H -0.0259 0.5954 0.7139
H9 H 0.1232 0.5829 0.6799
H10 H 0.0993 0.7427 0.7220
N1 N 0.03584(11) 0.70639(13) 0.97167(4)
O1 O 0.25369(9) 0.63799(12) 1.01156(3)
O2 O 0.14436(11) 0.51039(11) 0.75692(3)
H11 H -0.0471(18) 0.755(2) 0.9776(6)
C1 C 0.43699(12) 0.35198(15) 0.41788(5)
C2 C 0.32397(13) 0.46891(15) 0.40378(5)
H1 H 0.2621 0.5174 0.4311
C3 C 0.30240(13) 0.51389(15) 0.34981(5)
H2 H 0.2255 0.5936 0.3403
C4 C 0.39189(13) 0.44383(16) 0.30931(5)
C5 C 0.50874(14) 0.33426(16) 0.32332(5)
H3 H 0.5734 0.2905 0.2962
C6 C 0.53022(13) 0.28920(16) 0.37746(5)
H4 H 0.6101 0.2141 0.3870
C7 C 0.37017(13) 0.29553(15) 0.51399(5)
C8 C 0.42455(14) 0.20862(17) 0.56520(5)
H5 H 0.4174 0.2935 0.5953
H6 H 0.5271 0.1725 0.5604
H7 H 0.3646 0.1033 0.5732
C9 C 0.41984(18) 0.38381(19) 0.21485(5)
H8 H 0.5259 0.4046 0.2139
H9 H 0.3768 0.4171 0.1799
H10 H 0.4007 0.2573 0.2220
N1 N 0.46416(11) 0.29361(13) 0.47167(4)
O1 O 0.24631(9) 0.36201(12) 0.51156(3)
O2 O 0.35564(11) 0.48961(11) 0.25692(3)
H11 H 0.5471(18) 0.245(2) 0.4776(6)
C1 C 0.06301(12) 0.85198(15) 0.41788(5)
C2 C 0.17603(13) 0.96891(15) 0.40378(5)
H1 H 0.2379 1.0174 0.4311
C3 C 0.19760(13) 1.01389(15) 0.34981(5)
H2 H 0.2745 1.0936 0.3403
C4 C 0.10811(13) 0.94383(16) 0.30931(5)
C5 C -0.00874(14) 0.83426(16) 0.32332(5)
H3 H -0.0734 0.7905 0.2962
C6 C -0.03022(13) 0.78920(16) 0.37746(5)
H4 H -0.1101 0.7141 0.3870
C7 C 0.12983(13) 0.79553(15) 0.51399(5)
C8 C 0.07545(14) 0.70862(17) 0.56520(5)
H5 H 0.0826 0.7935 0.5953
H6 H -0.0271 0.6725 0.5604
H7 H 0.1354 0.6033 0.5732
C9 C 0.08016(18) 0.88381(19) 0.21485(5)
H8 H -0.0259 0.9046 0.2139
H9 H 0.1232 0.9171 0.1799
H10 H 0.0993 0.7573 0.2220
N1 N 0.03584(11) 0.79361(13) 0.47167(4)
O1 O 0.25369(9) 0.86201(12) 0.51156(3)
O2 O 0.14436(11) 0.98961(11) 0.25692(3)
H11 H -0.0471(18) 0.745(2) 0.4776(6)
C1 C 0.43699(12) 0.14802(15) 0.91788(5)
C2 C 0.32397(13) 0.03109(15) 0.90378(5)
H1 H 0.2621 -0.0174 0.9311
C3 C 0.30240(13) -0.01389(15) 0.84981(5)
H2 H 0.2255 -0.0936 0.8403
C4 C 0.39189(13) 0.05617(16) 0.80931(5)
C5 C 0.50874(14) 0.16574(16) 0.82332(5)
H3 H 0.5734 0.2095 0.7962
C6 C 0.53022(13) 0.21080(16) 0.87746(5)
H4 H 0.6101 0.2859 0.8870
C7 C 0.37017(13) 0.20447(15) 1.01399(5)
C8 C 0.42455(14) 0.29138(17) 1.06520(5)
H5 H 0.4174 0.2065 1.0953
H6 H 0.5271 0.3275 1.0604
H7 H 0.3646 0.3967 1.0732
C9 C 0.41984(18) 0.11619(19) 0.71485(5)
H8 H 0.5259 0.0954 0.7139
H9 H 0.3768 0.0829 0.6799
H10 H 0.4007 0.2427 0.7220
N1 N 0.46416(11) 0.20639(13) 0.97167(4)
O1 O 0.24631(9) 0.13799(12) 1.01156(3)
O2 O 0.35564(11) 0.01039(11) 0.75692(3)
H11 H 0.5471(18) 0.255(2) 0.9776(6)
C1 C 0.93699(12) 0.35198(15) 0.08212(5)
C2 C 0.82397(13) 0.46891(15) 0.09622(5)
H1 H 0.7621 0.5174 0.0689
C3 C 0.80240(13) 0.51389(15) 0.15019(5)
H2 H 0.7255 0.5936 0.1597
C4 C 0.89189(13) 0.44383(16) 0.19069(5)
C5 C 1.00874(14) 0.33426(16) 0.17668(5)
H3 H 1.0734 0.2905 0.2038
C6 C 1.03022(13) 0.28920(16) 0.12254(5)
H4 H 1.1101 0.2141 0.1130
C7 C 0.87017(13) 0.29553(15) -0.01399(5)
C8 C 0.92455(14) 0.20862(17) -0.06520(5)
H5 H 0.9174 0.2935 -0.0953
H6 H 1.0271 0.1725 -0.0604
H7 H 0.8646 0.1033 -0.0732
C9 C 0.91984(18) 0.38381(19) 0.28515(5)
H8 H 1.0259 0.4046 0.2861
H9 H 0.8768 0.4171 0.3201
H10 H 0.9007 0.2573 0.2780
N1 N 0.96416(11) 0.29361(13) 0.02833(4)
O1 O 0.74631(9) 0.36201(12) -0.01156(3)
O2 O 0.85564(11) 0.48961(11) 0.24308(3)
H11 H 1.0471(18) 0.245(2) 0.0224(6)
C1 C 0.56301(12) 0.64802(15) 0.58212(5)
C2 C 0.67603(13) 0.53109(15) 0.59622(5)
H1 H 0.7379 0.4826 0.5689
C3 C 0.69760(13) 0.48611(15) 0.65019(5)
H2 H 0.7745 0.4064 0.6597
C4 C 0.60811(13) 0.55617(16) 0.69069(5)
C5 C 0.49126(14) 0.66574(16) 0.67668(5)
H3 H 0.4266 0.7095 0.7038
C6 C 0.46978(13) 0.71080(16) 0.62254(5)
H4 H 0.3899 0.7859 0.6130
C7 C 0.62983(13) 0.70447(15) 0.48601(5)
C8 C 0.57545(14) 0.79138(17) 0.43480(5)
H5 H 0.5826 0.7065 0.4047
H6 H 0.4729 0.8275 0.4396
H7 H 0.6354 0.8967 0.4268
C9 C 0.58016(18) 0.61619(19) 0.78515(5)
H8 H 0.4741 0.5954 0.7861
H9 H 0.6232 0.5829 0.8201
H10 H 0.5993 0.7427 0.7780
N1 N 0.53584(11) 0.70639(13) 0.52833(4)
O1 O 0.75369(9) 0.63799(12) 0.48844(3)
O2 O 0.64436(11) 0.51039(11) 0.74308(3)
H11 H 0.4529(18) 0.755(2) 0.5224(6)

#END
