
#######################################################################
#
#                 Cambridge Crystallographic Data Centre
#                                CCDC 
#
#######################################################################
#
# If this CIF has been generated from an entry in the Cambridge 
# Structural Database, then it will include bibliographic, chemical, 
# crystal, experimental, refinement or atomic coordinate data resulting 
# from the CCDC's data processing and validation procedures.
#
#######################################################################

data_ACAFEQ
_symmetry_cell_setting           monoclinic
_symmetry_space_group_name_H-M   'P 21/c'
_symmetry_Int_Tables_number      14
_space_group_name_Hall           '-P 2ybc'
loop_
_symmetry_equiv_pos_site_id
_symmetry_equiv_pos_as_xyz
1 x,y,z
2 -x,1/2+y,1/2-z
3 -x,-y,-z
4 x,1/2-y,1/2+z
_cell_length_a                   7.419(1)
_cell_length_b                   18.437(2)
_cell_length_c                   9.656(1)
_cell_angle_alpha                90
_cell_angle_beta                 106.277(6)
_cell_angle_gamma                90
_cell_volume                     1267.85
loop_
_atom_site_label
_atom_site_type_symbol
_atom_site_fract_x
_atom_site_fract_y
_atom_site_fract_z
S1 S 0.05874(8) 0.41482(3) 0.66645(5)
N1 N 0.5422(3) 0.25066(9) 0.9231(2)
N2 N 0.1853(2) 0.43496(9) 0.44105(16)
H1 H 0.109(3) 0.4713(13) 0.427(2)
N3 N 0.2961(2) 0.33256(8) 0.57419(16)
H2 H 0.346(3) 0.3208(13) 0.513(3)
C1 C 0.5055(3) 0.29881(9) 0.81561(18)
C2 C 0.6257(3) 0.35513(10) 0.81115(19)
H3 H 0.5923 0.3900 0.7388
C3 C 0.7970(3) 0.35938(12) 0.9156(2)
H4 H 0.8810 0.3965 0.9134
C4 C 0.8404(3) 0.30769(15) 1.0225(3)
H5 H 0.9562 0.3077 1.0919
C5 C 0.7070(4) 0.25596(14) 1.0235(3)
H6 H 0.7333 0.2226 1.0988
C6 C 0.3251(3) 0.28484(10) 0.6988(2)
H7 H 0.3251 0.2350 0.6667
H8 H 0.2204 0.2905 0.7396
C7 C 0.1911(2) 0.39200(9) 0.55512(16)
C8 C 0.2947(3) 0.43013(9) 0.34108(17)
C9 C 0.2005(3) 0.43720(11) 0.19563(18)
H9 H 0.0707 0.4424 0.1659
C10 C 0.3029(4) 0.43640(14) 0.0949(2)
H10 H 0.2409 0.4412 -0.0027
C11 C 0.4937(4) 0.42869(13) 0.1384(3)
H11 H 0.5609 0.4275 0.0703
C12 C 0.5863(3) 0.42273(13) 0.2823(3)
H12 H 0.7163 0.4178 0.3115
C13 C 0.4868(3) 0.42397(11) 0.3846(2)
H13 H 0.5501 0.4206 0.4822
S1 S 0.94126(8) 0.91482(3) 0.83355(5)
N1 N 0.4578(3) 0.75066(9) 0.5769(2)
N2 N 0.8147(2) 0.93496(9) 1.05895(16)
H1 H 0.891(3) 0.9713(13) 1.073(2)
N3 N 0.7039(2) 0.83256(8) 0.92581(16)
H2 H 0.654(3) 0.8208(13) 0.987(3)
C1 C 0.4945(3) 0.79881(9) 0.68439(18)
C2 C 0.3743(3) 0.85513(10) 0.68885(19)
H3 H 0.4077 0.8900 0.7612
C3 C 0.2030(3) 0.85938(12) 0.5844(2)
H4 H 0.1190 0.8965 0.5866
C4 C 0.1596(3) 0.80769(15) 0.4775(3)
H5 H 0.0438 0.8077 0.4081
C5 C 0.2930(4) 0.75596(14) 0.4765(3)
H6 H 0.2667 0.7226 0.4012
C6 C 0.6749(3) 0.78484(10) 0.8012(2)
H7 H 0.6749 0.7350 0.8333
H8 H 0.7796 0.7905 0.7604
C7 C 0.8089(2) 0.89200(9) 0.94488(16)
C8 C 0.7053(3) 0.93013(9) 1.15892(17)
C9 C 0.7995(3) 0.93720(11) 1.30437(18)
H9 H 0.9293 0.9424 1.3341
C10 C 0.6971(4) 0.93640(14) 1.4051(2)
H10 H 0.7591 0.9412 1.5027
C11 C 0.5063(4) 0.92869(13) 1.3616(3)
H11 H 0.4391 0.9275 1.4297
C12 C 0.4137(3) 0.92273(13) 1.2177(3)
H12 H 0.2837 0.9178 1.1885
C13 C 0.5132(3) 0.92397(11) 1.1154(2)
H13 H 0.4499 0.9206 1.0178
S1 S 0.94126(8) 0.58518(3) 0.33355(5)
N1 N 0.4578(3) 0.74934(9) 0.0769(2)
N2 N 0.8147(2) 0.56504(9) 0.55895(16)
H1 H 0.891(3) 0.5287(13) 0.573(2)
N3 N 0.7039(2) 0.66744(8) 0.42581(16)
H2 H 0.654(3) 0.6792(13) 0.487(3)
C1 C 0.4945(3) 0.70119(9) 0.18439(18)
C2 C 0.3743(3) 0.64487(10) 0.18885(19)
H3 H 0.4077 0.6100 0.2612
C3 C 0.2030(3) 0.64062(12) 0.0844(2)
H4 H 0.1190 0.6035 0.0866
C4 C 0.1596(3) 0.69231(15) -0.0225(3)
H5 H 0.0438 0.6923 -0.0919
C5 C 0.2930(4) 0.74404(14) -0.0235(3)
H6 H 0.2667 0.7774 -0.0988
C6 C 0.6749(3) 0.71516(10) 0.3012(2)
H7 H 0.6749 0.7650 0.3333
H8 H 0.7796 0.7095 0.2604
C7 C 0.8089(2) 0.60800(9) 0.44488(16)
C8 C 0.7053(3) 0.56987(9) 0.65892(17)
C9 C 0.7995(3) 0.56280(11) 0.80437(18)
H9 H 0.9293 0.5576 0.8341
C10 C 0.6971(4) 0.56360(14) 0.9051(2)
H10 H 0.7591 0.5588 1.0027
C11 C 0.5063(4) 0.57131(13) 0.8616(3)
H11 H 0.4391 0.5725 0.9297
C12 C 0.4137(3) 0.57727(13) 0.7177(3)
H12 H 0.2837 0.5822 0.6885
C13 C 0.5132(3) 0.57603(11) 0.6154(2)
H13 H 0.4499 0.5794 0.5178
S1 S 0.05874(8) 0.08518(3) 0.16645(5)
N1 N 0.5422(3) 0.24934(9) 0.4231(2)
N2 N 0.1853(2) 0.06504(9) -0.05895(16)
H1 H 0.109(3) 0.0287(13) -0.073(2)
N3 N 0.2961(2) 0.16744(8) 0.07419(16)
H2 H 0.346(3) 0.1792(13) 0.013(3)
C1 C 0.5055(3) 0.20119(9) 0.31561(18)
C2 C 0.6257(3) 0.14487(10) 0.31115(19)
H3 H 0.5923 0.1100 0.2388
C3 C 0.7970(3) 0.14062(12) 0.4156(2)
H4 H 0.8810 0.1035 0.4134
C4 C 0.8404(3) 0.19231(15) 0.5225(3)
H5 H 0.9562 0.1923 0.5919
C5 C 0.7070(4) 0.24404(14) 0.5235(3)
H6 H 0.7333 0.2774 0.5988
C6 C 0.3251(3) 0.21516(10) 0.1988(2)
H7 H 0.3251 0.2650 0.1667
H8 H 0.2204 0.2095 0.2396
C7 C 0.1911(2) 0.10800(9) 0.05512(16)
C8 C 0.2947(3) 0.06987(9) -0.15892(17)
C9 C 0.2005(3) 0.06280(11) -0.30437(18)
H9 H 0.0707 0.0576 -0.3341
C10 C 0.3029(4) 0.06360(14) -0.4051(2)
H10 H 0.2409 0.0588 -0.5027
C11 C 0.4937(4) 0.07131(13) -0.3616(3)
H11 H 0.5609 0.0725 -0.4297
C12 C 0.5863(3) 0.07727(13) -0.2177(3)
H12 H 0.7163 0.0822 -0.1885
C13 C 0.4868(3) 0.07603(11) -0.1154(2)
H13 H 0.5501 0.0794 -0.0178

#END
