
#######################################################################
#
#                 Cambridge Crystallographic Data Centre
#                                CCDC 
#
#######################################################################
#
# If this CIF has been generated from an entry in the Cambridge 
# Structural Database, then it will include bibliographic, chemical, 
# crystal, experimental, refinement or atomic coordinate data resulting 
# from the CCDC's data processing and validation procedures.
#
#######################################################################

data_ACAFEQ01
_symmetry_cell_setting           monoclinic
_symmetry_space_group_name_H-M   'C 2/c'
_symmetry_Int_Tables_number      15
_space_group_name_Hall           '-C 2yn'
loop_
_symmetry_equiv_pos_site_id
_symmetry_equiv_pos_as_xyz
1 x,y,z
2 1/2+x,1/2+y,z
3 -x,y,1/2-z
4 1/2-x,1/2+y,1/2-z
5 -x,-y,-z
6 1/2-x,1/2-y,-z
7 x,-y,1/2+z
8 1/2+x,1/2-y,1/2+z
_cell_length_a                   17.488(5)
_cell_length_b                   8.751(2)
_cell_length_c                   16.970(5)
_cell_angle_alpha                90
_cell_angle_beta                 108.781(10)
_cell_angle_gamma                90
_cell_volume                     2458.77
loop_
_atom_site_label
_atom_site_type_symbol
_atom_site_fract_x
_atom_site_fract_y
_atom_site_fract_z
S1 S 0.26077(4) 0.50477(9) 0.02760(5)
N1 N 0.37343(16) 0.7151(3) 0.05649(18)
N2 N 0.41565(15) 0.4844(3) 0.11823(17)
N3 N 0.39535(16) 0.4129(3) 0.27715(17)
C1 C 0.35551(15) 0.5706(3) 0.07073(17)
C2 C 0.45167(17) 0.7831(3) 0.0796(2)
C3 C 0.4654(3) 0.9069(6) 0.1284(4)
C4 C 0.5404(3) 0.9813(6) 0.1474(5)
C5 C 0.5987(2) 0.9281(5) 0.1194(3)
C6 C 0.5836(2) 0.8063(6) 0.0690(3)
C7 C 0.5093(2) 0.7334(6) 0.0486(2)
C8 C 0.4023(2) 0.3305(4) 0.1434(2)
C9 C 0.36284(17) 0.3259(3) 0.21000(19)
C10 C 0.2975(2) 0.2341(4) 0.2016(2)
C11 C 0.2633(2) 0.2317(5) 0.2643(2)
C12 C 0.2944(2) 0.3209(5) 0.3323(2)
C13 C 0.3600(2) 0.4084(5) 0.3362(2)
H1 H 0.339(2) 0.779(4) 0.028(2)
H2 H 0.418(4) 0.935(7) 0.159(4)
H3 H 0.653(3) 0.991(5) 0.140(3)
H4 H 0.545(5) 1.072(10) 0.195(5)
H5 H 0.628(3) 0.761(4) 0.047(2)
H6 H 0.500(3) 0.654(7) 0.015(3)
H7 H 0.465(3) 0.525(4) 0.144(3)
H8 H 0.456(2) 0.285(4) 0.166(2)
H9 H 0.371(2) 0.275(4) 0.093(2)
H10 H 0.275(2) 0.170(4) 0.155(2)
H11 H 0.223(2) 0.165(4) 0.261(2)
H12 H 0.267(2) 0.329(4) 0.374(2)
H13 H 0.380(2) 0.488(4) 0.379(2)
S1 S 0.76077(4) 0.00477(9) 0.02760(5)
N1 N 0.87343(16) 0.2151(3) 0.05649(18)
N2 N 0.91565(15) -0.0156(3) 0.11823(17)
N3 N 0.89535(16) -0.0871(3) 0.27715(17)
C1 C 0.85551(15) 0.0706(3) 0.07073(17)
C2 C 0.95167(17) 0.2831(3) 0.0796(2)
C3 C 0.9654(3) 0.4069(6) 0.1284(4)
C4 C 1.0404(3) 0.4813(6) 0.1474(5)
C5 C 1.0987(2) 0.4281(5) 0.1194(3)
C6 C 1.0836(2) 0.3063(6) 0.0690(3)
C7 C 1.0093(2) 0.2334(6) 0.0486(2)
C8 C 0.9023(2) -0.1695(4) 0.1434(2)
C9 C 0.86284(17) -0.1741(3) 0.21000(19)
C10 C 0.7975(2) -0.2659(4) 0.2016(2)
C11 C 0.7633(2) -0.2683(5) 0.2643(2)
C12 C 0.7944(2) -0.1791(5) 0.3323(2)
C13 C 0.8600(2) -0.0916(5) 0.3362(2)
H1 H 0.839(2) 0.279(4) 0.028(2)
H2 H 0.918(4) 0.435(7) 0.159(4)
H3 H 1.153(3) 0.491(5) 0.140(3)
H4 H 1.045(5) 0.572(10) 0.195(5)
H5 H 1.128(3) 0.261(4) 0.047(2)
H6 H 1.000(3) 0.154(7) 0.015(3)
H7 H 0.965(3) 0.025(4) 0.144(3)
H8 H 0.956(2) -0.215(4) 0.166(2)
H9 H 0.871(2) -0.225(4) 0.093(2)
H10 H 0.775(2) -0.330(4) 0.155(2)
H11 H 0.723(2) -0.335(4) 0.261(2)
H12 H 0.767(2) -0.171(4) 0.374(2)
H13 H 0.880(2) -0.012(4) 0.379(2)
S1 S 0.73923(4) 0.50477(9) 0.47240(5)
N1 N 0.62657(16) 0.7151(3) 0.44351(18)
N2 N 0.58435(15) 0.4844(3) 0.38177(17)
N3 N 0.60465(16) 0.4129(3) 0.22285(17)
C1 C 0.64449(15) 0.5706(3) 0.42927(17)
C2 C 0.54833(17) 0.7831(3) 0.4204(2)
C3 C 0.5346(3) 0.9069(6) 0.3716(4)
C4 C 0.4596(3) 0.9813(6) 0.3526(5)
C5 C 0.4013(2) 0.9281(5) 0.3806(3)
C6 C 0.4164(2) 0.8063(6) 0.4310(3)
C7 C 0.4907(2) 0.7334(6) 0.4514(2)
C8 C 0.5977(2) 0.3305(4) 0.3566(2)
C9 C 0.63716(17) 0.3259(3) 0.29000(19)
C10 C 0.7025(2) 0.2341(4) 0.2984(2)
C11 C 0.7367(2) 0.2317(5) 0.2357(2)
C12 C 0.7056(2) 0.3209(5) 0.1677(2)
C13 C 0.6400(2) 0.4084(5) 0.1638(2)
H1 H 0.661(2) 0.779(4) 0.472(2)
H2 H 0.582(4) 0.935(7) 0.341(4)
H3 H 0.347(3) 0.991(5) 0.360(3)
H4 H 0.455(5) 1.072(10) 0.305(5)
H5 H 0.372(3) 0.761(4) 0.453(2)
H6 H 0.500(3) 0.654(7) 0.485(3)
H7 H 0.535(3) 0.525(4) 0.356(3)
H8 H 0.544(2) 0.285(4) 0.334(2)
H9 H 0.629(2) 0.275(4) 0.407(2)
H10 H 0.725(2) 0.170(4) 0.345(2)
H11 H 0.777(2) 0.165(4) 0.239(2)
H12 H 0.733(2) 0.329(4) 0.126(2)
H13 H 0.620(2) 0.488(4) 0.121(2)
S1 S 0.23923(4) 0.00477(9) 0.47240(5)
N1 N 0.12657(16) 0.2151(3) 0.44351(18)
N2 N 0.08435(15) -0.0156(3) 0.38177(17)
N3 N 0.10465(16) -0.0871(3) 0.22285(17)
C1 C 0.14449(15) 0.0706(3) 0.42927(17)
C2 C 0.04833(17) 0.2831(3) 0.4204(2)
C3 C 0.0346(3) 0.4069(6) 0.3716(4)
C4 C -0.0404(3) 0.4813(6) 0.3526(5)
C5 C -0.0987(2) 0.4281(5) 0.3806(3)
C6 C -0.0836(2) 0.3063(6) 0.4310(3)
C7 C -0.0093(2) 0.2334(6) 0.4514(2)
C8 C 0.0977(2) -0.1695(4) 0.3566(2)
C9 C 0.13716(17) -0.1741(3) 0.29000(19)
C10 C 0.2025(2) -0.2659(4) 0.2984(2)
C11 C 0.2367(2) -0.2683(5) 0.2357(2)
C12 C 0.2056(2) -0.1791(5) 0.1677(2)
C13 C 0.1400(2) -0.0916(5) 0.1638(2)
H1 H 0.161(2) 0.279(4) 0.472(2)
H2 H 0.082(4) 0.435(7) 0.341(4)
H3 H -0.153(3) 0.491(5) 0.360(3)
H4 H -0.045(5) 0.572(10) 0.305(5)
H5 H -0.128(3) 0.261(4) 0.453(2)
H6 H 0.000(3) 0.154(7) 0.485(3)
H7 H 0.035(3) 0.025(4) 0.356(3)
H8 H 0.044(2) -0.215(4) 0.334(2)
H9 H 0.129(2) -0.225(4) 0.407(2)
H10 H 0.225(2) -0.330(4) 0.345(2)
H11 H 0.277(2) -0.335(4) 0.239(2)
H12 H 0.233(2) -0.171(4) 0.126(2)
H13 H 0.120(2) -0.012(4) 0.121(2)
S1 S 0.73923(4) 0.49523(9) 0.97240(5)
N1 N 0.62657(16) 0.2849(3) 0.94351(18)
N2 N 0.58435(15) 0.5156(3) 0.88177(17)
N3 N 0.60465(16) 0.5871(3) 0.72285(17)
C1 C 0.64449(15) 0.4294(3) 0.92927(17)
C2 C 0.54833(17) 0.2169(3) 0.9204(2)
C3 C 0.5346(3) 0.0931(6) 0.8716(4)
C4 C 0.4596(3) 0.0187(6) 0.8526(5)
C5 C 0.4013(2) 0.0719(5) 0.8806(3)
C6 C 0.4164(2) 0.1937(6) 0.9310(3)
C7 C 0.4907(2) 0.2666(6) 0.9514(2)
C8 C 0.5977(2) 0.6695(4) 0.8566(2)
C9 C 0.63716(17) 0.6741(3) 0.79000(19)
C10 C 0.7025(2) 0.7659(4) 0.7984(2)
C11 C 0.7367(2) 0.7683(5) 0.7357(2)
C12 C 0.7056(2) 0.6791(5) 0.6677(2)
C13 C 0.6400(2) 0.5916(5) 0.6638(2)
H1 H 0.661(2) 0.221(4) 0.972(2)
H2 H 0.582(4) 0.065(7) 0.841(4)
H3 H 0.347(3) 0.009(5) 0.860(3)
H4 H 0.455(5) -0.072(10) 0.805(5)
H5 H 0.372(3) 0.239(4) 0.953(2)
H6 H 0.500(3) 0.346(7) 0.985(3)
H7 H 0.535(3) 0.475(4) 0.856(3)
H8 H 0.544(2) 0.715(4) 0.834(2)
H9 H 0.629(2) 0.725(4) 0.907(2)
H10 H 0.725(2) 0.830(4) 0.845(2)
H11 H 0.777(2) 0.835(4) 0.739(2)
H12 H 0.733(2) 0.671(4) 0.626(2)
H13 H 0.620(2) 0.512(4) 0.621(2)
S1 S 0.23923(4) 0.99523(9) 0.97240(5)
N1 N 0.12657(16) 0.7849(3) 0.94351(18)
N2 N 0.08435(15) 1.0156(3) 0.88177(17)
N3 N 0.10465(16) 1.0871(3) 0.72285(17)
C1 C 0.14449(15) 0.9294(3) 0.92927(17)
C2 C 0.04833(17) 0.7169(3) 0.9204(2)
C3 C 0.0346(3) 0.5931(6) 0.8716(4)
C4 C -0.0404(3) 0.5187(6) 0.8526(5)
C5 C -0.0987(2) 0.5719(5) 0.8806(3)
C6 C -0.0836(2) 0.6937(6) 0.9310(3)
C7 C -0.0093(2) 0.7666(6) 0.9514(2)
C8 C 0.0977(2) 1.1695(4) 0.8566(2)
C9 C 0.13716(17) 1.1741(3) 0.79000(19)
C10 C 0.2025(2) 1.2659(4) 0.7984(2)
C11 C 0.2367(2) 1.2683(5) 0.7357(2)
C12 C 0.2056(2) 1.1791(5) 0.6677(2)
C13 C 0.1400(2) 1.0916(5) 0.6638(2)
H1 H 0.161(2) 0.721(4) 0.972(2)
H2 H 0.082(4) 0.565(7) 0.841(4)
H3 H -0.153(3) 0.509(5) 0.860(3)
H4 H -0.045(5) 0.428(10) 0.805(5)
H5 H -0.128(3) 0.739(4) 0.953(2)
H6 H 0.000(3) 0.846(7) 0.985(3)
H7 H 0.035(3) 0.975(4) 0.856(3)
H8 H 0.044(2) 1.215(4) 0.834(2)
H9 H 0.129(2) 1.225(4) 0.907(2)
H10 H 0.225(2) 1.330(4) 0.845(2)
H11 H 0.277(2) 1.335(4) 0.739(2)
H12 H 0.233(2) 1.171(4) 0.626(2)
H13 H 0.120(2) 1.012(4) 0.621(2)
S1 S 0.26077(4) 0.49523(9) 0.52760(5)
N1 N 0.37343(16) 0.2849(3) 0.55649(18)
N2 N 0.41565(15) 0.5156(3) 0.61823(17)
N3 N 0.39535(16) 0.5871(3) 0.77715(17)
C1 C 0.35551(15) 0.4294(3) 0.57073(17)
C2 C 0.45167(17) 0.2169(3) 0.5796(2)
C3 C 0.4654(3) 0.0931(6) 0.6284(4)
C4 C 0.5404(3) 0.0187(6) 0.6474(5)
C5 C 0.5987(2) 0.0719(5) 0.6194(3)
C6 C 0.5836(2) 0.1937(6) 0.5690(3)
C7 C 0.5093(2) 0.2666(6) 0.5486(2)
C8 C 0.4023(2) 0.6695(4) 0.6434(2)
C9 C 0.36284(17) 0.6741(3) 0.71000(19)
C10 C 0.2975(2) 0.7659(4) 0.7016(2)
C11 C 0.2633(2) 0.7683(5) 0.7643(2)
C12 C 0.2944(2) 0.6791(5) 0.8323(2)
C13 C 0.3600(2) 0.5916(5) 0.8362(2)
H1 H 0.339(2) 0.221(4) 0.528(2)
H2 H 0.418(4) 0.065(7) 0.659(4)
H3 H 0.653(3) 0.009(5) 0.640(3)
H4 H 0.545(5) -0.072(10) 0.695(5)
H5 H 0.628(3) 0.239(4) 0.547(2)
H6 H 0.500(3) 0.346(7) 0.515(3)
H7 H 0.465(3) 0.475(4) 0.644(3)
H8 H 0.456(2) 0.715(4) 0.666(2)
H9 H 0.371(2) 0.725(4) 0.593(2)
H10 H 0.275(2) 0.830(4) 0.655(2)
H11 H 0.223(2) 0.835(4) 0.761(2)
H12 H 0.267(2) 0.671(4) 0.874(2)
H13 H 0.380(2) 0.512(4) 0.879(2)
S1 S 0.76077(4) 0.99523(9) 0.52760(5)
N1 N 0.87343(16) 0.7849(3) 0.55649(18)
N2 N 0.91565(15) 1.0156(3) 0.61823(17)
N3 N 0.89535(16) 1.0871(3) 0.77715(17)
C1 C 0.85551(15) 0.9294(3) 0.57073(17)
C2 C 0.95167(17) 0.7169(3) 0.5796(2)
C3 C 0.9654(3) 0.5931(6) 0.6284(4)
C4 C 1.0404(3) 0.5187(6) 0.6474(5)
C5 C 1.0987(2) 0.5719(5) 0.6194(3)
C6 C 1.0836(2) 0.6937(6) 0.5690(3)
C7 C 1.0093(2) 0.7666(6) 0.5486(2)
C8 C 0.9023(2) 1.1695(4) 0.6434(2)
C9 C 0.86284(17) 1.1741(3) 0.71000(19)
C10 C 0.7975(2) 1.2659(4) 0.7016(2)
C11 C 0.7633(2) 1.2683(5) 0.7643(2)
C12 C 0.7944(2) 1.1791(5) 0.8323(2)
C13 C 0.8600(2) 1.0916(5) 0.8362(2)
H1 H 0.839(2) 0.721(4) 0.528(2)
H2 H 0.918(4) 0.565(7) 0.659(4)
H3 H 1.153(3) 0.509(5) 0.640(3)
H4 H 1.045(5) 0.428(10) 0.695(5)
H5 H 1.128(3) 0.739(4) 0.547(2)
H6 H 1.000(3) 0.846(7) 0.515(3)
H7 H 0.965(3) 0.975(4) 0.644(3)
H8 H 0.956(2) 1.215(4) 0.666(2)
H9 H 0.871(2) 1.225(4) 0.593(2)
H10 H 0.775(2) 1.330(4) 0.655(2)
H11 H 0.723(2) 1.335(4) 0.761(2)
H12 H 0.767(2) 1.171(4) 0.874(2)
H13 H 0.880(2) 1.012(4) 0.879(2)

#END
