
#######################################################################
#
#                 Cambridge Crystallographic Data Centre
#                                CCDC 
#
#######################################################################
#
# If this CIF has been generated from an entry in the Cambridge 
# Structural Database, then it will include bibliographic, chemical, 
# crystal, experimental, refinement or atomic coordinate data resulting 
# from the CCDC's data processing and validation procedures.
#
#######################################################################

data_ACAPRE
_symmetry_cell_setting           monoclinic
_symmetry_space_group_name_H-M   'P 21/a'
_symmetry_Int_Tables_number      14
_space_group_name_Hall           '-P 2yab'
loop_
_symmetry_equiv_pos_site_id
_symmetry_equiv_pos_as_xyz
1 x,y,z
2 1/2-x,1/2+y,-z
3 -x,-y,-z
4 1/2+x,1/2-y,z
_cell_length_a                   15.618(2)
_cell_length_b                   10.281(1)
_cell_length_c                   9.713(1)
_cell_angle_alpha                90
_cell_angle_beta                 102.61(1)
_cell_angle_gamma                90
_cell_volume                     1521.98
loop_
_atom_site_label
_atom_site_type_symbol
_atom_site_fract_x
_atom_site_fract_y
_atom_site_fract_z
C1 C 0.70230 0.63840 0.03660
C2 C 0.71680 0.75590 0.11180
C3 C 0.66850 0.78650 0.20680
C4 C 0.53570 0.48470 0.21440
C5 C 0.59420 0.57520 0.17090
C6 C 0.60250 0.70050 0.23520
C7 C 0.48640 0.66630 0.34230
C8 C 0.47570 0.53640 0.29360
C9 C 0.59160 0.27610 0.12540
C10 C 0.59080 0.13570 0.17700
C11 C 0.50040 0.07560 0.15780
C12 C 0.37050 0.06030 0.25520
C13 C 0.33250 0.08910 0.38230
C14 C 0.42660 0.71790 0.41940
C15 C 0.36060 0.64380 0.44740
C16 C 0.35000 0.51370 0.40190
C17 C 0.40630 0.46230 0.32710
C18 C 0.64330 0.55090 0.06570
H1 H 0.41100 0.10900 0.56100
H2 H 0.73000 0.62000 -0.03500
H3 H 0.76400 0.81000 0.09900
H4 H 0.67800 0.86800 0.25800
H5 H 0.57300 0.27800 0.01700
H6 H 0.65200 0.30900 0.15600
H7 H 0.62300 0.13200 0.28100
H8 H 0.62600 0.08500 0.12400
H9 H 0.46300 0.10400 0.06400
H10 H 0.50500 -0.01900 0.16200
H11 H 0.33000 0.10100 0.17100
H12 H 0.37200 -0.03500 0.24100
H13 H 0.27100 0.04300 0.37300
H14 H 0.32000 0.18500 0.39000
H15 H 0.49400 0.31200 0.22600
H16 H 0.49200 0.09500 0.34900
H17 H 0.43200 0.80700 0.45200
H18 H 0.31900 0.68800 0.50100
H19 H 0.30000 0.46400 0.42000
H20 H 0.39800 0.37500 0.30200
H21 H 0.63300 0.47500 0.01200
N1 N 0.55200 0.74610 0.32140
N2 N 0.53340 0.35610 0.18840
N3 N 0.45610 0.12060 0.26870
O1 O 0.38640 0.04080 0.50840
C1 C 0.79770 1.13840 0.96340
C2 C 0.78320 1.25590 0.88820
C3 C 0.83150 1.28650 0.79320
C4 C 0.96430 0.98470 0.78560
C5 C 0.90580 1.07520 0.82910
C6 C 0.89750 1.20050 0.76480
C7 C 1.01360 1.16630 0.65770
C8 C 1.02430 1.03640 0.70640
C9 C 0.90840 0.77610 0.87460
C10 C 0.90920 0.63570 0.82300
C11 C 0.99960 0.57560 0.84220
C12 C 1.12950 0.56030 0.74480
C13 C 1.16750 0.58910 0.61770
C14 C 1.07340 1.21790 0.58060
C15 C 1.13940 1.14380 0.55260
C16 C 1.15000 1.01370 0.59810
C17 C 1.09370 0.96230 0.67290
C18 C 0.85670 1.05090 0.93430
H1 H 1.08900 0.60900 0.43900
H2 H 0.77000 1.12000 1.03500
H3 H 0.73600 1.31000 0.90100
H4 H 0.82200 1.36800 0.74200
H5 H 0.92700 0.77800 0.98300
H6 H 0.84800 0.80900 0.84400
H7 H 0.87700 0.63200 0.71900
H8 H 0.87400 0.58500 0.87600
H9 H 1.03700 0.60400 0.93600
H10 H 0.99500 0.48100 0.83800
H11 H 1.17000 0.60100 0.82900
H12 H 1.12800 0.46500 0.75900
H13 H 1.22900 0.54300 0.62700
H14 H 1.18000 0.68500 0.61000
H15 H 1.00600 0.81200 0.77400
H16 H 1.00800 0.59500 0.65100
H17 H 1.06800 1.30700 0.54800
H18 H 1.18100 1.18800 0.49900
H19 H 1.20000 0.96400 0.58000
H20 H 1.10200 0.87500 0.69800
H21 H 0.86700 0.97500 0.98800
N1 N 0.94800 1.24610 0.67860
N2 N 0.96660 0.85610 0.81160
N3 N 1.04390 0.62060 0.73130
O1 O 1.11360 0.54080 0.49160
C1 C 0.29770 0.36160 0.96340
C2 C 0.28320 0.24410 0.88820
C3 C 0.33150 0.21350 0.79320
C4 C 0.46430 0.51530 0.78560
C5 C 0.40580 0.42480 0.82910
C6 C 0.39750 0.29950 0.76480
C7 C 0.51360 0.33370 0.65770
C8 C 0.52430 0.46360 0.70640
C9 C 0.40840 0.72390 0.87460
C10 C 0.40920 0.86430 0.82300
C11 C 0.49960 0.92440 0.84220
C12 C 0.62950 0.93970 0.74480
C13 C 0.66750 0.91090 0.61770
C14 C 0.57340 0.28210 0.58060
C15 C 0.63940 0.35620 0.55260
C16 C 0.65000 0.48630 0.59810
C17 C 0.59370 0.53770 0.67290
C18 C 0.35670 0.44910 0.93430
H1 H 0.58900 0.89100 0.43900
H2 H 0.27000 0.38000 1.03500
H3 H 0.23600 0.19000 0.90100
H4 H 0.32200 0.13200 0.74200
H5 H 0.42700 0.72200 0.98300
H6 H 0.34800 0.69100 0.84400
H7 H 0.37700 0.86800 0.71900
H8 H 0.37400 0.91500 0.87600
H9 H 0.53700 0.89600 0.93600
H10 H 0.49500 1.01900 0.83800
H11 H 0.67000 0.89900 0.82900
H12 H 0.62800 1.03500 0.75900
H13 H 0.72900 0.95700 0.62700
H14 H 0.68000 0.81500 0.61000
H15 H 0.50600 0.68800 0.77400
H16 H 0.50800 0.90500 0.65100
H17 H 0.56800 0.19300 0.54800
H18 H 0.68100 0.31200 0.49900
H19 H 0.70000 0.53600 0.58000
H20 H 0.60200 0.62500 0.69800
H21 H 0.36700 0.52500 0.98800
N1 N 0.44800 0.25390 0.67860
N2 N 0.46660 0.64390 0.81160
N3 N 0.54390 0.87940 0.73130
O1 O 0.61360 0.95920 0.49160
C1 C 0.20230 -0.13840 0.03660
C2 C 0.21680 -0.25590 0.11180
C3 C 0.16850 -0.28650 0.20680
C4 C 0.03570 0.01530 0.21440
C5 C 0.09420 -0.07520 0.17090
C6 C 0.10250 -0.20050 0.23520
C7 C -0.01360 -0.16630 0.34230
C8 C -0.02430 -0.03640 0.29360
C9 C 0.09160 0.22390 0.12540
C10 C 0.09080 0.36430 0.17700
C11 C 0.00040 0.42440 0.15780
C12 C -0.12950 0.43970 0.25520
C13 C -0.16750 0.41090 0.38230
C14 C -0.07340 -0.21790 0.41940
C15 C -0.13940 -0.14380 0.44740
C16 C -0.15000 -0.01370 0.40190
C17 C -0.09370 0.03770 0.32710
C18 C 0.14330 -0.05090 0.06570
H1 H -0.08900 0.39100 0.56100
H2 H 0.23000 -0.12000 -0.03500
H3 H 0.26400 -0.31000 0.09900
H4 H 0.17800 -0.36800 0.25800
H5 H 0.07300 0.22200 0.01700
H6 H 0.15200 0.19100 0.15600
H7 H 0.12300 0.36800 0.28100
H8 H 0.12600 0.41500 0.12400
H9 H -0.03700 0.39600 0.06400
H10 H 0.00500 0.51900 0.16200
H11 H -0.17000 0.39900 0.17100
H12 H -0.12800 0.53500 0.24100
H13 H -0.22900 0.45700 0.37300
H14 H -0.18000 0.31500 0.39000
H15 H -0.00600 0.18800 0.22600
H16 H -0.00800 0.40500 0.34900
H17 H -0.06800 -0.30700 0.45200
H18 H -0.18100 -0.18800 0.50100
H19 H -0.20000 0.03600 0.42000
H20 H -0.10200 0.12500 0.30200
H21 H 0.13300 0.02500 0.01200
N1 N 0.05200 -0.24610 0.32140
N2 N 0.03340 0.14390 0.18840
N3 N -0.04390 0.37940 0.26870
O1 O -0.11360 0.45920 0.50840

#END
