./ACAPRE_from_xyz.cif_generated_by_CrystalShift
_symmetry_cell_setting triclinic
_symmetry_space_group_name_H-M 'P 1'
loop_
_symmetry_equiv_pos_site_id
_symmetry_equiv_pos_as_xyz
1 x,y,z
_cell_length_a 15.618000
_cell_length_b 10.281000
_cell_length_c 9.713000
_cell_angle_alpha 90.000000
_cell_angle_beta 102.610000
_cell_angle_gamma 90.000000
_cell_volume 1521.983744
loop_
_atom_site_label
_atom_site_type_symbol
_atom_site_fract_x
_atom_site_fract_y
_atom_site_fract_z
C1 C 0.702300 0.638400 0.036600
C2 C 0.716800 0.755900 0.111800
C3 C 0.668500 0.786500 0.206800
C4 C 0.535700 0.484700 0.214400
C5 C 0.594200 0.575200 0.170900
C6 C 0.602500 0.700500 0.235200
C7 C 0.486400 0.666300 0.342300
C8 C 0.475700 0.536400 0.293600
C9 C 0.591600 0.276100 0.125400
C10 C 0.590800 0.135700 0.177000
C11 C 0.500400 0.075600 0.157800
C12 C 0.370500 0.060300 0.255200
C13 C 0.332500 0.089100 0.382300
C14 C 0.426600 0.717900 0.419400
C15 C 0.360600 0.643800 0.447400
C16 C 0.350000 0.513700 0.401900
C17 C 0.406300 0.462300 0.327100
C18 C 0.643300 0.550900 0.065700
H19 H 0.411000 0.109000 0.561000
H20 H 0.730000 0.620000 -0.035000
H21 H 0.764000 0.810000 0.099000
H22 H 0.678000 0.868000 0.258000
H23 H 0.573000 0.278000 0.017000
H24 H 0.652000 0.309000 0.156000
H25 H 0.623000 0.132000 0.281000
H26 H 0.626000 0.085000 0.124000
H27 H 0.463000 0.104000 0.064000
H28 H 0.505000 -0.019000 0.162000
H29 H 0.330000 0.101000 0.171000
H30 H 0.372000 -0.035000 0.241000
H31 H 0.271000 0.043000 0.373000
H32 H 0.320000 0.185000 0.390000
H33 H 0.494000 0.312000 0.226000
H34 H 0.492000 0.095000 0.349000
H35 H 0.432000 0.807000 0.452000
H36 H 0.319000 0.688000 0.501000
H37 H 0.300000 0.464000 0.420000
H38 H 0.398000 0.375000 0.302000
H39 H 0.633000 0.475000 0.012000
N40 N 0.552000 0.746100 0.321400
N41 N 0.533400 0.356100 0.188400
N42 N 0.456100 0.120600 0.268700
O43 O 0.386400 0.040800 0.508400
C44 C 0.797700 1.138400 0.963400
C45 C 0.783200 1.255900 0.888200
C46 C 0.831500 1.286500 0.793200
C47 C 0.964300 0.984700 0.785600
C48 C 0.905800 1.075200 0.829100
C49 C 0.897500 1.200500 0.764800
C50 C 1.013600 1.166300 0.657700
C51 C 1.024300 1.036400 0.706400
C52 C 0.908400 0.776100 0.874600
C53 C 0.909200 0.635700 0.823000
C54 C 0.999600 0.575600 0.842200
C55 C 1.129500 0.560300 0.744800
C56 C 1.167500 0.589100 0.617700
C57 C 1.073400 1.217900 0.580600
C58 C 1.139400 1.143800 0.552600
C59 C 1.150000 1.013700 0.598100
C60 C 1.093700 0.962300 0.672900
C61 C 0.856700 1.050900 0.934300
H62 H 1.089000 0.609000 0.439000
H63 H 0.770000 1.120000 1.035000
H64 H 0.736000 1.310000 0.901000
H65 H 0.822000 1.368000 0.742000
H66 H 0.927000 0.778000 0.983000
H67 H 0.848000 0.809000 0.844000
H68 H 0.877000 0.632000 0.719000
H69 H 0.874000 0.585000 0.876000
H70 H 1.037000 0.604000 0.936000
H71 H 0.995000 0.481000 0.838000
H72 H 1.170000 0.601000 0.829000
H73 H 1.128000 0.465000 0.759000
H74 H 1.229000 0.543000 0.627000
H75 H 1.180000 0.685000 0.610000
H76 H 1.006000 0.812000 0.774000
H77 H 1.008000 0.595000 0.651000
H78 H 1.068000 1.307000 0.548000
H79 H 1.181000 1.188000 0.499000
H80 H 1.200000 0.964000 0.580000
H81 H 1.102000 0.875000 0.698000
H82 H 0.867000 0.975000 0.988000
N83 N 0.948000 1.246100 0.678600
N84 N 0.966600 0.856100 0.811600
N85 N 1.043900 0.620600 0.731300
O86 O 1.113600 0.540800 0.491600
C87 C 0.297700 0.361600 0.963400
C88 C 0.283200 0.244100 0.888200
C89 C 0.331500 0.213500 0.793200
C90 C 0.464300 0.515300 0.785600
C91 C 0.405800 0.424800 0.829100
C92 C 0.397500 0.299500 0.764800
C93 C 0.513600 0.333700 0.657700
C94 C 0.524300 0.463600 0.706400
C95 C 0.408400 0.723900 0.874600
C96 C 0.409200 0.864300 0.823000
C97 C 0.499600 0.924400 0.842200
C98 C 0.629500 0.939700 0.744800
C99 C 0.667500 0.910900 0.617700
C100 C 0.573400 0.282100 0.580600
C101 C 0.639400 0.356200 0.552600
C102 C 0.650000 0.486300 0.598100
C103 C 0.593700 0.537700 0.672900
C104 C 0.356700 0.449100 0.934300
H105 H 0.589000 0.891000 0.439000
H106 H 0.270000 0.380000 1.035000
H107 H 0.236000 0.190000 0.901000
H108 H 0.322000 0.132000 0.742000
H109 H 0.427000 0.722000 0.983000
H110 H 0.348000 0.691000 0.844000
H111 H 0.377000 0.868000 0.719000
H112 H 0.374000 0.915000 0.876000
H113 H 0.537000 0.896000 0.936000
H114 H 0.495000 1.019000 0.838000
H115 H 0.670000 0.899000 0.829000
H116 H 0.628000 1.035000 0.759000
H117 H 0.729000 0.957000 0.627000
H118 H 0.680000 0.815000 0.610000
H119 H 0.506000 0.688000 0.774000
H120 H 0.508000 0.905000 0.651000
H121 H 0.568000 0.193000 0.548000
H122 H 0.681000 0.312000 0.499000
H123 H 0.700000 0.536000 0.580000
H124 H 0.602000 0.625000 0.698000
H125 H 0.367000 0.525000 0.988000
N126 N 0.448000 0.253900 0.678600
N127 N 0.466600 0.643900 0.811600
N128 N 0.543900 0.879400 0.731300
O129 O 0.613600 0.959200 0.491600
C130 C 0.202300 -0.138400 0.036600
C131 C 0.216800 -0.255900 0.111800
C132 C 0.168500 -0.286500 0.206800
C133 C 0.035700 0.015300 0.214400
C134 C 0.094200 -0.075200 0.170900
C135 C 0.102500 -0.200500 0.235200
C136 C -0.013600 -0.166300 0.342300
C137 C -0.024300 -0.036400 0.293600
C138 C 0.091600 0.223900 0.125400
C139 C 0.090800 0.364300 0.177000
C140 C 0.000400 0.424400 0.157800
C141 C -0.129500 0.439700 0.255200
C142 C -0.167500 0.410900 0.382300
C143 C -0.073400 -0.217900 0.419400
C144 C -0.139400 -0.143800 0.447400
C145 C -0.150000 -0.013700 0.401900
C146 C -0.093700 0.037700 0.327100
C147 C 0.143300 -0.050900 0.065700
H148 H -0.089000 0.391000 0.561000
H149 H 0.230000 -0.120000 -0.035000
H150 H 0.264000 -0.310000 0.099000
H151 H 0.178000 -0.368000 0.258000
H152 H 0.073000 0.222000 0.017000
H153 H 0.152000 0.191000 0.156000
H154 H 0.123000 0.368000 0.281000
H155 H 0.126000 0.415000 0.124000
H156 H -0.037000 0.396000 0.064000
H157 H 0.005000 0.519000 0.162000
H158 H -0.170000 0.399000 0.171000
H159 H -0.128000 0.535000 0.241000
H160 H -0.229000 0.457000 0.373000
H161 H -0.180000 0.315000 0.390000
H162 H -0.006000 0.188000 0.226000
H163 H -0.008000 0.405000 0.349000
H164 H -0.068000 -0.307000 0.452000
H165 H -0.181000 -0.188000 0.501000
H166 H -0.200000 0.036000 0.420000
H167 H -0.102000 0.125000 0.302000
H168 H 0.133000 0.025000 0.012000
N169 N 0.052000 -0.246100 0.321400
N170 N 0.033400 0.143900 0.188400
N171 N -0.043900 0.379400 0.268700
O172 O -0.113600 0.459200 0.508400

#END
