./ACAQGD02_from_xyz.cif_generated_by_CrystalShift
_symmetry_cell_setting triclinic
_symmetry_space_group_name_H-M 'P 1'
loop_
_symmetry_equiv_pos_site_id
_symmetry_equiv_pos_as_xyz
1 x,y,z
_cell_length_a 8.896000
_cell_length_b 9.258000
_cell_length_c 10.405000
_cell_angle_alpha 92.020000
_cell_angle_beta 113.620000
_cell_angle_gamma 118.480000
_cell_volume 662.329252
loop_
_atom_site_label
_atom_site_type_symbol
_atom_site_fract_x
_atom_site_fract_y
_atom_site_fract_z
Gd1 Gd -0.179800 0.593840 0.409657
O2 O -0.121300 0.349700 0.399200
O3 O -0.391700 0.309100 0.228200
O4 O 0.053000 0.877800 0.404400
O5 O 0.022600 0.655100 0.288900
O6 O -0.515700 0.532000 0.312400
O7 O -0.357800 0.646800 0.191000
O8 O -0.142500 0.795700 0.584400
H9 H -0.116000 0.903000 0.584000
H10 H -0.102000 0.794000 0.678000
O11 O -0.282500 0.436900 0.565200
H12 H -0.199000 0.410000 0.622000
H13 H -0.362000 0.430000 0.600000
C14 C -0.282600 0.254200 0.283700
C15 C -0.340300 0.077500 0.213500
H16 H -0.291100 0.028600 0.289500
H17 H -0.285000 0.085600 0.147400
H18 H -0.482400 0.003900 0.158000
C19 C 0.103800 0.816600 0.331800
C20 C 0.260500 0.930500 0.293400
H21 H 0.310500 1.050700 0.334200
H22 H 0.205800 0.904300 0.186800
H23 H 0.366600 0.910200 0.334200
C24 C -0.509700 0.587600 0.202500
C25 C -0.685200 0.582100 0.089500
H26 H -0.788800 0.533400 0.117100
H27 H -0.730800 0.510900 -0.005900
H28 H -0.650200 0.698500 0.083700
Gd29 Gd 0.179800 0.406160 0.590343
O30 O 0.121300 0.650300 0.600800
O31 O 0.391700 0.690900 0.771800
O32 O -0.053000 0.122200 0.595600
O33 O -0.022600 0.344900 0.711100
O34 O 0.515700 0.468000 0.687600
O35 O 0.357800 0.353200 0.809000
O36 O 0.142500 0.204300 0.415600
H37 H 0.116000 0.097000 0.416000
H38 H 0.102000 0.206000 0.322000
O39 O 0.282500 0.563100 0.434800
H40 H 0.199000 0.590000 0.378000
H41 H 0.362000 0.570000 0.400000
C42 C 0.282600 0.745800 0.716300
C43 C 0.340300 0.922500 0.786500
H44 H 0.291100 0.971400 0.710500
H45 H 0.285000 0.914400 0.852600
H46 H 0.482400 0.996100 0.842000
C47 C -0.103800 0.183400 0.668200
C48 C -0.260500 0.069500 0.706600
H49 H -0.310500 -0.050700 0.665800
H50 H -0.205800 0.095700 0.813200
H51 H -0.366600 0.089800 0.665800
C52 C 0.509700 0.412400 0.797500
C53 C 0.685200 0.417900 0.910500
H54 H 0.788800 0.466600 0.882900
H55 H 0.730800 0.489100 1.005900
H56 H 0.650200 0.301500 0.916300
Gd57 Gd 0.820200 0.593840 0.409657
O58 O 0.878700 0.349700 0.399200
O59 O 0.608300 0.309100 0.228200
O60 O 1.053000 0.877800 0.404400
O61 O 1.022600 0.655100 0.288900
O62 O 0.484300 0.532000 0.312400
O63 O 0.642200 0.646800 0.191000
O64 O 0.857500 0.795700 0.584400
H65 H 0.884000 0.903000 0.584000
H66 H 0.898000 0.794000 0.678000
O67 O 0.717500 0.436900 0.565200
H68 H 0.801000 0.410000 0.622000
H69 H 0.638000 0.430000 0.600000
C70 C 0.717400 0.254200 0.283700
C71 C 0.659700 0.077500 0.213500
H72 H 0.708900 0.028600 0.289500
H73 H 0.715000 0.085600 0.147400
H74 H 0.517600 0.003900 0.158000
C75 C 1.103800 0.816600 0.331800
C76 C 1.260500 0.930500 0.293400
H77 H 1.310500 1.050700 0.334200
H78 H 1.205800 0.904300 0.186800
H79 H 1.366600 0.910200 0.334200
C80 C 0.490300 0.587600 0.202500
C81 C 0.314800 0.582100 0.089500
H82 H 0.211200 0.533400 0.117100
H83 H 0.269200 0.510900 -0.005900
H84 H 0.349800 0.698500 0.083700
Gd85 Gd 1.179800 0.406160 0.590343
O86 O 1.121300 0.650300 0.600800
O87 O 1.391700 0.690900 0.771800
O88 O 0.947000 0.122200 0.595600
O89 O 0.977400 0.344900 0.711100
O90 O 1.515700 0.468000 0.687600
O91 O 1.357800 0.353200 0.809000
O92 O 1.142500 0.204300 0.415600
H93 H 1.116000 0.097000 0.416000
H94 H 1.102000 0.206000 0.322000
O95 O 1.282500 0.563100 0.434800
H96 H 1.199000 0.590000 0.378000
H97 H 1.362000 0.570000 0.400000
C98 C 1.282600 0.745800 0.716300
C99 C 1.340300 0.922500 0.786500
H100 H 1.291100 0.971400 0.710500
H101 H 1.285000 0.914400 0.852600
H102 H 1.482400 0.996100 0.842000
C103 C 0.896200 0.183400 0.668200
C104 C 0.739500 0.069500 0.706600
H105 H 0.689500 -0.050700 0.665800
H106 H 0.794200 0.095700 0.813200
H107 H 0.633400 0.089800 0.665800
C108 C 1.509700 0.412400 0.797500
C109 C 1.685200 0.417900 0.910500
H110 H 1.788800 0.466600 0.882900
H111 H 1.730800 0.489100 1.005900
H112 H 1.650200 0.301500 0.916300
O113 O 0.252400 0.178500 0.995600
H114 H 0.285000 0.231000 0.931000
H115 H 0.367000 0.201000 1.067000
O116 O 0.747600 0.821500 0.004400
H117 H 0.715000 0.769000 0.069000
H118 H 0.633000 0.799000 -0.067000
O119 O 0.023900 0.169900 0.126200
H120 H 0.139000 0.206000 0.130000
H121 H -0.052000 0.056000 0.094000
O122 O 0.976100 0.830100 0.873800
H123 H 0.861000 0.794000 0.870000
H124 H 1.052000 0.944000 0.906000

#END
