
#######################################################################
#
#                 Cambridge Crystallographic Data Centre
#                                CCDC 
#
#######################################################################
#
# If this CIF has been generated from an entry in the Cambridge 
# Structural Database, then it will include bibliographic, chemical, 
# crystal, experimental, refinement or atomic coordinate data resulting 
# from the CCDC's data processing and validation procedures.
#
#######################################################################

data_ACAQGD01
_symmetry_cell_setting           triclinic
_symmetry_space_group_name_H-M   'P -1'
_symmetry_Int_Tables_number      2
_space_group_name_Hall           '-P 1'
loop_
_symmetry_equiv_pos_site_id
_symmetry_equiv_pos_as_xyz
1 x,y,z
2 -x,-y,-z
_cell_length_a                   8.940(2)
_cell_length_b                   9.315(2)
_cell_length_c                   10.528(3)
_cell_angle_alpha                91.68(3)
_cell_angle_beta                 114.04(3)
_cell_angle_gamma                118.03(3)
_cell_volume                     679.748
loop_
_atom_site_label
_atom_site_type_symbol
_atom_site_fract_x
_atom_site_fract_y
_atom_site_fract_z
Gd1 Gd 0.67902(2) -0.09618(2) 0.089818(16)
O1 O 0.8881(4) 0.1841(4) 0.2676(3)
O2 O 0.3792(3) -0.1480(3) -0.0997(2)
C1 C 0.7810(5) 0.2411(4) 0.2138(3)
C2 C 0.8381(6) 0.4134(5) 0.2827(5)
H1 H 0.9742 0.4781 0.3480
H2 H 0.7693 0.4042 0.3352
H3 H 0.8075 0.4688 0.2093
O3 O 1.0110(4) -0.0392(4) 0.1866(3)
O4 O 0.8577(4) -0.1497(4) 0.3067(3)
C3 C 1.0094(5) -0.0925(5) 0.2954(4)
C4 C 1.1822(6) -0.0861(6) 0.4084(5)
H4 H 1.2293 -0.0114 0.4985
H5 H 1.2809 -0.0454 0.3799
H6 H 1.1478 -0.1974 0.4198
O5 O 0.4479(4) -0.3770(3) 0.0959(3)
O6 O 0.4774(4) -0.1572(3) 0.2085(3)
C5 C 0.3981(5) -0.3151(5) 0.1676(4)
C6 C 0.2448(7) -0.4287(6) 0.2046(6)
H7 H 0.2996 -0.4091 0.3077
H8 H 0.1930 -0.5445 0.1603
H9 H 0.1437 -0.4051 0.1697
O7 O 0.7777(4) 0.0565(4) -0.0675(3)
H10 H 0.854(5) 0.049(5) -0.106(4)
H11 H 0.695(7) 0.090(8) -0.128(6)
O8 O 0.6412(4) -0.2979(3) -0.0819(3)
H12 H 0.611(6) -0.412(3) -0.079(4)
H13 H 0.607(6) -0.301(5) -0.180(2)
Gd1A Gd 0.32098(2) 0.09618(2) -0.089818(16)
O1A O 0.1119(4) -0.1841(4) -0.2676(3)
O2A O 0.6208(3) 0.1480(3) 0.0997(2)
C1A C 0.2190(5) -0.2411(4) -0.2138(3)
C2A C 0.1619(6) -0.4134(5) -0.2827(5)
H1A H 0.0258 -0.4781 -0.3480
H2A H 0.2307 -0.4042 -0.3352
H3A H 0.1925 -0.4688 -0.2093
O3A O -0.0110(4) 0.0392(4) -0.1866(3)
O4A O 0.1423(4) 0.1497(4) -0.3067(3)
C3A C -0.0094(5) 0.0925(5) -0.2954(4)
C4A C -0.1822(6) 0.0861(6) -0.4084(5)
H4A H -0.2293 0.0114 -0.4985
H5A H -0.2809 0.0454 -0.3799
H6A H -0.1478 0.1974 -0.4198
O5A O 0.5521(4) 0.3770(3) -0.0959(3)
O6A O 0.5226(4) 0.1572(3) -0.2085(3)
C5A C 0.6019(5) 0.3151(5) -0.1676(4)
C6A C 0.7552(7) 0.4287(6) -0.2046(6)
H7A H 0.7004 0.4091 -0.3077
H8A H 0.8070 0.5445 -0.1603
H9A H 0.8563 0.4051 -0.1697
O7A O 0.2223(4) -0.0565(4) 0.0675(3)
H10A H 0.146(5) -0.049(5) 0.106(4)
H11A H 0.305(7) -0.090(8) 0.128(6)
O8A O 0.3588(4) 0.2979(3) 0.0819(3)
H12A H 0.389(6) 0.412(3) 0.079(4)
H13A H 0.393(6) 0.301(5) 0.180(2)
Gd1 Gd 0.67902(2) -0.09618(2) 1.089818(16)
O1 O 0.8881(4) 0.1841(4) 1.2676(3)
O2 O 0.3792(3) -0.1480(3) 0.9003(2)
C1 C 0.7810(5) 0.2411(4) 1.2138(3)
C2 C 0.8381(6) 0.4134(5) 1.2827(5)
H1 H 0.9742 0.4781 1.3480
H2 H 0.7693 0.4042 1.3352
H3 H 0.8075 0.4688 1.2093
O3 O 1.0110(4) -0.0392(4) 1.1866(3)
O4 O 0.8577(4) -0.1497(4) 1.3067(3)
C3 C 1.0094(5) -0.0925(5) 1.2954(4)
C4 C 1.1822(6) -0.0861(6) 1.4084(5)
H4 H 1.2293 -0.0114 1.4985
H5 H 1.2809 -0.0454 1.3799
H6 H 1.1478 -0.1974 1.4198
O5 O 0.4479(4) -0.3770(3) 1.0959(3)
O6 O 0.4774(4) -0.1572(3) 1.2085(3)
C5 C 0.3981(5) -0.3151(5) 1.1676(4)
C6 C 0.2448(7) -0.4287(6) 1.2046(6)
H7 H 0.2996 -0.4091 1.3077
H8 H 0.1930 -0.5445 1.1603
H9 H 0.1437 -0.4051 1.1697
O7 O 0.7777(4) 0.0565(4) 0.9325(3)
H10 H 0.854(5) 0.049(5) 0.894(4)
H11 H 0.695(7) 0.090(8) 0.872(6)
O8 O 0.6412(4) -0.2979(3) 0.9181(3)
H12 H 0.611(6) -0.412(3) 0.921(4)
H13 H 0.607(6) -0.301(5) 0.820(2)
Gd1A Gd 0.32098(2) 0.09618(2) 0.910182(16)
O1A O 0.1119(4) -0.1841(4) 0.7324(3)
O2A O 0.6208(3) 0.1480(3) 1.0997(2)
C1A C 0.2190(5) -0.2411(4) 0.7862(3)
C2A C 0.1619(6) -0.4134(5) 0.7173(5)
H1A H 0.0258 -0.4781 0.6520
H2A H 0.2307 -0.4042 0.6648
H3A H 0.1925 -0.4688 0.7907
O3A O -0.0110(4) 0.0392(4) 0.8134(3)
O4A O 0.1423(4) 0.1497(4) 0.6933(3)
C3A C -0.0094(5) 0.0925(5) 0.7046(4)
C4A C -0.1822(6) 0.0861(6) 0.5916(5)
H4A H -0.2293 0.0114 0.5015
H5A H -0.2809 0.0454 0.6201
H6A H -0.1478 0.1974 0.5802
O5A O 0.5521(4) 0.3770(3) 0.9041(3)
O6A O 0.5226(4) 0.1572(3) 0.7915(3)
C5A C 0.6019(5) 0.3151(5) 0.8324(4)
C6A C 0.7552(7) 0.4287(6) 0.7954(6)
H7A H 0.7004 0.4091 0.6923
H8A H 0.8070 0.5445 0.8397
H9A H 0.8563 0.4051 0.8303
O7A O 0.2223(4) -0.0565(4) 1.0675(3)
H10A H 0.146(5) -0.049(5) 1.106(4)
H11A H 0.305(7) -0.090(8) 1.128(6)
O8A O 0.3588(4) 0.2979(3) 1.0819(3)
H12A H 0.389(6) 0.412(3) 1.079(4)
H13A H 0.393(6) 0.301(5) 1.180(2)
Gd1 Gd 0.67902(2) 0.90382(2) 0.089818(16)
O1 O 0.8881(4) 1.1841(4) 0.2676(3)
O2 O 0.3792(3) 0.8520(3) -0.0997(2)
C1 C 0.7810(5) 1.2411(4) 0.2138(3)
C2 C 0.8381(6) 1.4134(5) 0.2827(5)
H1 H 0.9742 1.4781 0.3480
H2 H 0.7693 1.4042 0.3352
H3 H 0.8075 1.4688 0.2093
O3 O 1.0110(4) 0.9608(4) 0.1866(3)
O4 O 0.8577(4) 0.8503(4) 0.3067(3)
C3 C 1.0094(5) 0.9075(5) 0.2954(4)
C4 C 1.1822(6) 0.9139(6) 0.4084(5)
H4 H 1.2293 0.9886 0.4985
H5 H 1.2809 0.9546 0.3799
H6 H 1.1478 0.8026 0.4198
O5 O 0.4479(4) 0.6230(3) 0.0959(3)
O6 O 0.4774(4) 0.8428(3) 0.2085(3)
C5 C 0.3981(5) 0.6849(5) 0.1676(4)
C6 C 0.2448(7) 0.5713(6) 0.2046(6)
H7 H 0.2996 0.5909 0.3077
H8 H 0.1930 0.4555 0.1603
H9 H 0.1437 0.5949 0.1697
O7 O 0.7777(4) 1.0565(4) -0.0675(3)
H10 H 0.854(5) 1.049(5) -0.106(4)
H11 H 0.695(7) 1.090(8) -0.128(6)
O8 O 0.6412(4) 0.7021(3) -0.0819(3)
H12 H 0.611(6) 0.588(3) -0.079(4)
H13 H 0.607(6) 0.699(5) -0.180(2)
Gd1A Gd 0.32098(2) 1.09618(2) -0.089818(16)
O1A O 0.1119(4) 0.8159(4) -0.2676(3)
O2A O 0.6208(3) 1.1480(3) 0.0997(2)
C1A C 0.2190(5) 0.7589(4) -0.2138(3)
C2A C 0.1619(6) 0.5866(5) -0.2827(5)
H1A H 0.0258 0.5219 -0.3480
H2A H 0.2307 0.5958 -0.3352
H3A H 0.1925 0.5312 -0.2093
O3A O -0.0110(4) 1.0392(4) -0.1866(3)
O4A O 0.1423(4) 1.1497(4) -0.3067(3)
C3A C -0.0094(5) 1.0925(5) -0.2954(4)
C4A C -0.1822(6) 1.0861(6) -0.4084(5)
H4A H -0.2293 1.0114 -0.4985
H5A H -0.2809 1.0454 -0.3799
H6A H -0.1478 1.1974 -0.4198
O5A O 0.5521(4) 1.3770(3) -0.0959(3)
O6A O 0.5226(4) 1.1572(3) -0.2085(3)
C5A C 0.6019(5) 1.3151(5) -0.1676(4)
C6A C 0.7552(7) 1.4287(6) -0.2046(6)
H7A H 0.7004 1.4091 -0.3077
H8A H 0.8070 1.5445 -0.1603
H9A H 0.8563 1.4051 -0.1697
O7A O 0.2223(4) 0.9435(4) 0.0675(3)
H10A H 0.146(5) 0.951(5) 0.106(4)
H11A H 0.305(7) 0.910(8) 0.128(6)
O8A O 0.3588(4) 1.2979(3) 0.0819(3)
H12A H 0.389(6) 1.412(3) 0.079(4)
H13A H 0.393(6) 1.301(5) 0.180(2)
Gd1 Gd 0.67902(2) 0.90382(2) 1.089818(16)
O1 O 0.8881(4) 1.1841(4) 1.2676(3)
O2 O 0.3792(3) 0.8520(3) 0.9003(2)
C1 C 0.7810(5) 1.2411(4) 1.2138(3)
C2 C 0.8381(6) 1.4134(5) 1.2827(5)
H1 H 0.9742 1.4781 1.3480
H2 H 0.7693 1.4042 1.3352
H3 H 0.8075 1.4688 1.2093
O3 O 1.0110(4) 0.9608(4) 1.1866(3)
O4 O 0.8577(4) 0.8503(4) 1.3067(3)
C3 C 1.0094(5) 0.9075(5) 1.2954(4)
C4 C 1.1822(6) 0.9139(6) 1.4084(5)
H4 H 1.2293 0.9886 1.4985
H5 H 1.2809 0.9546 1.3799
H6 H 1.1478 0.8026 1.4198
O5 O 0.4479(4) 0.6230(3) 1.0959(3)
O6 O 0.4774(4) 0.8428(3) 1.2085(3)
C5 C 0.3981(5) 0.6849(5) 1.1676(4)
C6 C 0.2448(7) 0.5713(6) 1.2046(6)
H7 H 0.2996 0.5909 1.3077
H8 H 0.1930 0.4555 1.1603
H9 H 0.1437 0.5949 1.1697
O7 O 0.7777(4) 1.0565(4) 0.9325(3)
H10 H 0.854(5) 1.049(5) 0.894(4)
H11 H 0.695(7) 1.090(8) 0.872(6)
O8 O 0.6412(4) 0.7021(3) 0.9181(3)
H12 H 0.611(6) 0.588(3) 0.921(4)
H13 H 0.607(6) 0.699(5) 0.820(2)
Gd1A Gd 0.32098(2) 1.09618(2) 0.910182(16)
O1A O 0.1119(4) 0.8159(4) 0.7324(3)
O2A O 0.6208(3) 1.1480(3) 1.0997(2)
C1A C 0.2190(5) 0.7589(4) 0.7862(3)
C2A C 0.1619(6) 0.5866(5) 0.7173(5)
H1A H 0.0258 0.5219 0.6520
H2A H 0.2307 0.5958 0.6648
H3A H 0.1925 0.5312 0.7907
O3A O -0.0110(4) 1.0392(4) 0.8134(3)
O4A O 0.1423(4) 1.1497(4) 0.6933(3)
C3A C -0.0094(5) 1.0925(5) 0.7046(4)
C4A C -0.1822(6) 1.0861(6) 0.5916(5)
H4A H -0.2293 1.0114 0.5015
H5A H -0.2809 1.0454 0.6201
H6A H -0.1478 1.1974 0.5802
O5A O 0.5521(4) 1.3770(3) 0.9041(3)
O6A O 0.5226(4) 1.1572(3) 0.7915(3)
C5A C 0.6019(5) 1.3151(5) 0.8324(4)
C6A C 0.7552(7) 1.4287(6) 0.7954(6)
H7A H 0.7004 1.4091 0.6923
H8A H 0.8070 1.5445 0.8397
H9A H 0.8563 1.4051 0.8303
O7A O 0.2223(4) 0.9435(4) 1.0675(3)
H10A H 0.146(5) 0.951(5) 1.106(4)
H11A H 0.305(7) 0.910(8) 1.128(6)
O8A O 0.3588(4) 1.2979(3) 1.0819(3)
H12A H 0.389(6) 1.412(3) 1.079(4)
H13A H 0.393(6) 1.301(5) 1.180(2)
O9 O 0.2456(4) 0.3229(4) 0.5038(3)
H14 H 0.121(4) 0.283(7) 0.420(4)
H15 H 0.220(6) 0.261(5) 0.571(4)
O9 O 0.7544(4) 0.6771(4) 0.4962(3)
H14 H 0.879(4) 0.717(7) 0.580(4)
H15 H 0.780(6) 0.739(5) 0.429(4)
O10 O 0.5254(5) 0.6697(4) 0.6283(3)
H16 H 0.418(6) 0.558(4) 0.573(5)
H17 H 0.618(6) 0.700(7) 0.594(5)
O10 O 0.4746(5) 0.3303(4) 0.3717(3)
H16 H 0.582(6) 0.442(4) 0.427(5)
H17 H 0.382(6) 0.300(7) 0.406(5)

#END
