
#######################################################################
#
#                 Cambridge Crystallographic Data Centre
#                                CCDC 
#
#######################################################################
#
# If this CIF has been generated from an entry in the Cambridge 
# Structural Database, then it will include bibliographic, chemical, 
# crystal, experimental, refinement or atomic coordinate data resulting 
# from the CCDC's data processing and validation procedures.
#
#######################################################################

data_ACAQGD
_symmetry_cell_setting           triclinic
_symmetry_space_group_name_H-M   'P -1'
_symmetry_Int_Tables_number      2
_space_group_name_Hall           '-P 1'
loop_
_symmetry_equiv_pos_site_id
_symmetry_equiv_pos_as_xyz
1 x,y,z
2 -x,-y,-z
_cell_length_a                   10.790(2)
_cell_length_b                   9.395(3)
_cell_length_c                   8.941(3)
_cell_angle_alpha                60.98(2)
_cell_angle_beta                 88.50(2)
_cell_angle_gamma                62.31(2)
_cell_volume                     678.17
loop_
_atom_site_label
_atom_site_type_symbol
_atom_site_fract_x
_atom_site_fract_y
_atom_site_fract_z
O1 O 0.09960 0.54920 -0.02740
Gd1 Gd 0.08979 0.31416 0.27509
O2 O 0.26790 0.41810 0.20280
C1 C 0.21410 0.52830 0.03860
C2 C 0.28210 0.63280 -0.07670
H1 H 0.34000 0.56000 -0.12000
H2 H 0.18600 0.78800 -0.14600
H3 H 0.36400 0.60500 -0.00700
O3 O 0.09520 0.02780 0.32510
O4 O 0.20870 0.13400 0.13450
C3 C 0.16740 0.01850 0.21300
C4 C 0.20480 -0.13350 0.17270
H4 H 0.14800 -0.03700 0.04800
H5 H 0.32400 -0.25400 0.22100
H6 H 0.18200 -0.22100 0.22900
O5 O 0.18630 0.27490 0.55030
O6 O 0.30670 0.04230 0.50890
C5 C 0.29470 0.11290 0.60110
C6 C 0.40850 0.00480 0.77050
H7 H 0.41700 -0.14100 0.84300
H8 H 0.48200 -0.01600 0.76600
H9 H 0.37200 0.07200 0.84800
O7 O -0.08250 0.28490 0.43840
H10 H -0.08400 0.19900 0.49900
H11 H -0.17000 0.37500 0.40200
O8 O -0.06740 0.62460 0.22170
H12 H -0.12700 0.71300 0.12000
H13 H -0.12200 0.73800 0.26800
Gd1A Gd -0.08979 0.68584 -0.27509
O1A O -0.09960 0.45080 0.02740
O2A O -0.26790 0.58190 -0.20280
O3A O -0.09520 0.97220 -0.32510
O4A O -0.20870 0.86600 -0.13450
O5A O -0.18630 0.72510 -0.55030
O6A O -0.30670 0.95770 -0.50890
O7A O 0.08250 0.71510 -0.43840
O8A O 0.06740 0.37540 -0.22170
C1A C -0.21410 0.47170 -0.03860
C3A C -0.16740 0.98150 -0.21300
C5A C -0.29470 0.88710 -0.60110
H10A H 0.08400 0.80100 -0.49900
H11A H 0.17000 0.62500 -0.40200
H12A H 0.12700 0.28700 -0.12000
H13A H 0.12200 0.26200 -0.26800
C2A C -0.28210 0.36720 0.07670
C4A C -0.20480 1.13350 -0.17270
C6A C -0.40850 0.99520 -0.77050
H1A H -0.34000 0.44000 0.12000
H2A H -0.18600 0.21200 0.14600
H3A H -0.36400 0.39500 0.00700
H4A H -0.14800 1.03700 -0.04800
H5A H -0.32400 1.25400 -0.22100
H6A H -0.18200 1.22100 -0.22900
H7A H -0.41700 1.14100 -0.84300
H8A H -0.48200 1.01600 -0.76600
H9A H -0.37200 0.92800 -0.84800
O1 O 0.09960 0.54920 0.97260
Gd1 Gd 0.08979 0.31416 1.27509
O2 O 0.26790 0.41810 1.20280
C1 C 0.21410 0.52830 1.03860
C2 C 0.28210 0.63280 0.92330
H1 H 0.34000 0.56000 0.88000
H2 H 0.18600 0.78800 0.85400
H3 H 0.36400 0.60500 0.99300
O3 O 0.09520 0.02780 1.32510
O4 O 0.20870 0.13400 1.13450
C3 C 0.16740 0.01850 1.21300
C4 C 0.20480 -0.13350 1.17270
H4 H 0.14800 -0.03700 1.04800
H5 H 0.32400 -0.25400 1.22100
H6 H 0.18200 -0.22100 1.22900
O5 O 0.18630 0.27490 1.55030
O6 O 0.30670 0.04230 1.50890
C5 C 0.29470 0.11290 1.60110
C6 C 0.40850 0.00480 1.77050
H7 H 0.41700 -0.14100 1.84300
H8 H 0.48200 -0.01600 1.76600
H9 H 0.37200 0.07200 1.84800
O7 O -0.08250 0.28490 1.43840
H10 H -0.08400 0.19900 1.49900
H11 H -0.17000 0.37500 1.40200
O8 O -0.06740 0.62460 1.22170
H12 H -0.12700 0.71300 1.12000
H13 H -0.12200 0.73800 1.26800
Gd1A Gd -0.08979 0.68584 0.72491
O1A O -0.09960 0.45080 1.02740
O2A O -0.26790 0.58190 0.79720
O3A O -0.09520 0.97220 0.67490
O4A O -0.20870 0.86600 0.86550
O5A O -0.18630 0.72510 0.44970
O6A O -0.30670 0.95770 0.49110
O7A O 0.08250 0.71510 0.56160
O8A O 0.06740 0.37540 0.77830
C1A C -0.21410 0.47170 0.96140
C3A C -0.16740 0.98150 0.78700
C5A C -0.29470 0.88710 0.39890
H10A H 0.08400 0.80100 0.50100
H11A H 0.17000 0.62500 0.59800
H12A H 0.12700 0.28700 0.88000
H13A H 0.12200 0.26200 0.73200
C2A C -0.28210 0.36720 1.07670
C4A C -0.20480 1.13350 0.82730
C6A C -0.40850 0.99520 0.22950
H1A H -0.34000 0.44000 1.12000
H2A H -0.18600 0.21200 1.14600
H3A H -0.36400 0.39500 1.00700
H4A H -0.14800 1.03700 0.95200
H5A H -0.32400 1.25400 0.77900
H6A H -0.18200 1.22100 0.77100
H7A H -0.41700 1.14100 0.15700
H8A H -0.48200 1.01600 0.23400
H9A H -0.37200 0.92800 0.15200
O1 O 1.09960 0.54920 -0.02740
Gd1 Gd 1.08979 0.31416 0.27509
O2 O 1.26790 0.41810 0.20280
C1 C 1.21410 0.52830 0.03860
C2 C 1.28210 0.63280 -0.07670
H1 H 1.34000 0.56000 -0.12000
H2 H 1.18600 0.78800 -0.14600
H3 H 1.36400 0.60500 -0.00700
O3 O 1.09520 0.02780 0.32510
O4 O 1.20870 0.13400 0.13450
C3 C 1.16740 0.01850 0.21300
C4 C 1.20480 -0.13350 0.17270
H4 H 1.14800 -0.03700 0.04800
H5 H 1.32400 -0.25400 0.22100
H6 H 1.18200 -0.22100 0.22900
O5 O 1.18630 0.27490 0.55030
O6 O 1.30670 0.04230 0.50890
C5 C 1.29470 0.11290 0.60110
C6 C 1.40850 0.00480 0.77050
H7 H 1.41700 -0.14100 0.84300
H8 H 1.48200 -0.01600 0.76600
H9 H 1.37200 0.07200 0.84800
O7 O 0.91750 0.28490 0.43840
H10 H 0.91600 0.19900 0.49900
H11 H 0.83000 0.37500 0.40200
O8 O 0.93260 0.62460 0.22170
H12 H 0.87300 0.71300 0.12000
H13 H 0.87800 0.73800 0.26800
Gd1A Gd 0.91021 0.68584 -0.27509
O1A O 0.90040 0.45080 0.02740
O2A O 0.73210 0.58190 -0.20280
O3A O 0.90480 0.97220 -0.32510
O4A O 0.79130 0.86600 -0.13450
O5A O 0.81370 0.72510 -0.55030
O6A O 0.69330 0.95770 -0.50890
O7A O 1.08250 0.71510 -0.43840
O8A O 1.06740 0.37540 -0.22170
C1A C 0.78590 0.47170 -0.03860
C3A C 0.83260 0.98150 -0.21300
C5A C 0.70530 0.88710 -0.60110
H10A H 1.08400 0.80100 -0.49900
H11A H 1.17000 0.62500 -0.40200
H12A H 1.12700 0.28700 -0.12000
H13A H 1.12200 0.26200 -0.26800
C2A C 0.71790 0.36720 0.07670
C4A C 0.79520 1.13350 -0.17270
C6A C 0.59150 0.99520 -0.77050
H1A H 0.66000 0.44000 0.12000
H2A H 0.81400 0.21200 0.14600
H3A H 0.63600 0.39500 0.00700
H4A H 0.85200 1.03700 -0.04800
H5A H 0.67600 1.25400 -0.22100
H6A H 0.81800 1.22100 -0.22900
H7A H 0.58300 1.14100 -0.84300
H8A H 0.51800 1.01600 -0.76600
H9A H 0.62800 0.92800 -0.84800
O1 O 1.09960 0.54920 0.97260
Gd1 Gd 1.08979 0.31416 1.27509
O2 O 1.26790 0.41810 1.20280
C1 C 1.21410 0.52830 1.03860
C2 C 1.28210 0.63280 0.92330
H1 H 1.34000 0.56000 0.88000
H2 H 1.18600 0.78800 0.85400
H3 H 1.36400 0.60500 0.99300
O3 O 1.09520 0.02780 1.32510
O4 O 1.20870 0.13400 1.13450
C3 C 1.16740 0.01850 1.21300
C4 C 1.20480 -0.13350 1.17270
H4 H 1.14800 -0.03700 1.04800
H5 H 1.32400 -0.25400 1.22100
H6 H 1.18200 -0.22100 1.22900
O5 O 1.18630 0.27490 1.55030
O6 O 1.30670 0.04230 1.50890
C5 C 1.29470 0.11290 1.60110
C6 C 1.40850 0.00480 1.77050
H7 H 1.41700 -0.14100 1.84300
H8 H 1.48200 -0.01600 1.76600
H9 H 1.37200 0.07200 1.84800
O7 O 0.91750 0.28490 1.43840
H10 H 0.91600 0.19900 1.49900
H11 H 0.83000 0.37500 1.40200
O8 O 0.93260 0.62460 1.22170
H12 H 0.87300 0.71300 1.12000
H13 H 0.87800 0.73800 1.26800
Gd1A Gd 0.91021 0.68584 0.72491
O1A O 0.90040 0.45080 1.02740
O2A O 0.73210 0.58190 0.79720
O3A O 0.90480 0.97220 0.67490
O4A O 0.79130 0.86600 0.86550
O5A O 0.81370 0.72510 0.44970
O6A O 0.69330 0.95770 0.49110
O7A O 1.08250 0.71510 0.56160
O8A O 1.06740 0.37540 0.77830
C1A C 0.78590 0.47170 0.96140
C3A C 0.83260 0.98150 0.78700
C5A C 0.70530 0.88710 0.39890
H10A H 1.08400 0.80100 0.50100
H11A H 1.17000 0.62500 0.59800
H12A H 1.12700 0.28700 0.88000
H13A H 1.12200 0.26200 0.73200
C2A C 0.71790 0.36720 1.07670
C4A C 0.79520 1.13350 0.82730
C6A C 0.59150 0.99520 0.22950
H1A H 0.66000 0.44000 1.12000
H2A H 0.81400 0.21200 1.14600
H3A H 0.63600 0.39500 1.00700
H4A H 0.85200 1.03700 0.95200
H5A H 0.67600 1.25400 0.77900
H6A H 0.81800 1.22100 0.77100
H7A H 0.58300 1.14100 0.15700
H8A H 0.51800 1.01600 0.23400
H9A H 0.62800 0.92800 0.15200
O9 O 0.50400 0.31940 0.42380
H14 H 0.44300 0.36800 0.32900
H15 H 0.54200 0.23600 0.44300
O9 O 0.49600 0.68060 0.57620
H14 H 0.55700 0.63200 0.67100
H15 H 0.45800 0.76400 0.55700
O10 O 0.37160 0.45960 0.64550
H16 H 0.39400 0.41100 0.59200
H17 H 0.41800 0.55800 0.57700
O10 O 0.62840 0.54040 0.35450
H16 H 0.60600 0.58900 0.40800
H17 H 0.58200 0.44200 0.42300

#END
