
#######################################################################
#
#                 Cambridge Crystallographic Data Centre
#                                CCDC 
#
#######################################################################
#
# If this CIF has been generated from an entry in the Cambridge 
# Structural Database, then it will include bibliographic, chemical, 
# crystal, experimental, refinement or atomic coordinate data resulting 
# from the CCDC's data processing and validation procedures.
#
#######################################################################

data_ACARBM
_symmetry_cell_setting           orthorhombic
_symmetry_space_group_name_H-M   'P b c a'
_symmetry_Int_Tables_number      61
_space_group_name_Hall           '-P 2ac 2ab'
loop_
_symmetry_equiv_pos_site_id
_symmetry_equiv_pos_as_xyz
1 x,y,z
2 1/2-x,-y,1/2+z
3 1/2+x,1/2-y,-z
4 -x,1/2+y,1/2-z
5 -x,-y,-z
6 1/2+x,y,1/2-z
7 1/2-x,1/2+y,z
8 x,1/2-y,1/2+z
_cell_length_a                   17.121(6)
_cell_length_b                   6.531(2)
_cell_length_c                   6.742(3)
_cell_angle_alpha                90
_cell_angle_beta                 90
_cell_angle_gamma                90
_cell_volume                     753.872
loop_
_atom_site_label
_atom_site_type_symbol
_atom_site_fract_x
_atom_site_fract_y
_atom_site_fract_z
C1 C 0.10633 0.07650 0.84631
H1 H -0.00053 0.14012 0.86150
H2 H 0.04264 0.28200 0.72858
N2 N 0.04115 0.18512 0.80749
O1 O 0.10459 -0.05433 0.98553
O2 O 0.16688 0.11313 0.74099
C1 C 0.39367 0.92350 0.34631
H1 H 0.50053 0.85988 0.36150
H2 H 0.45736 0.71800 0.22858
N2 N 0.45885 0.81488 0.30749
O1 O 0.39541 1.05433 0.48553
O2 O 0.33312 0.88687 0.24099
C1 C 0.60633 0.42350 0.15369
H1 H 0.49947 0.35988 0.13850
H2 H 0.54264 0.21800 0.27142
N2 N 0.54115 0.31488 0.19251
O1 O 0.60459 0.55433 0.01447
O2 O 0.66688 0.38687 0.25901
C1 C 0.89367 0.57650 0.65369
H1 H 1.00053 0.64012 0.63850
H2 H 0.95736 0.78200 0.77142
N2 N 0.95885 0.68512 0.69251
O1 O 0.89541 0.44567 0.51447
O2 O 0.83312 0.61313 0.75901
C1 C 0.89367 0.92350 0.15369
H1 H 1.00053 0.85988 0.13850
H2 H 0.95736 0.71800 0.27142
N2 N 0.95885 0.81488 0.19251
O1 O 0.89541 1.05433 0.01447
O2 O 0.83312 0.88687 0.25901
C1 C 0.60633 0.07650 0.65369
H1 H 0.49947 0.14012 0.63850
H2 H 0.54264 0.28200 0.77142
N2 N 0.54115 0.18512 0.69251
O1 O 0.60459 -0.05433 0.51447
O2 O 0.66688 0.11313 0.75901
C1 C 0.39367 0.57650 0.84631
H1 H 0.50053 0.64012 0.86150
H2 H 0.45736 0.78200 0.72858
N2 N 0.45885 0.68512 0.80749
O1 O 0.39541 0.44567 0.98553
O2 O 0.33312 0.61313 0.74099
C1 C 0.10633 0.42350 0.34631
H1 H -0.00053 0.35988 0.36150
H2 H 0.04264 0.21800 0.22858
N2 N 0.04115 0.31488 0.30749
O1 O 0.10459 0.55433 0.48553
O2 O 0.16688 0.38687 0.24099
H3 H 0.26450 0.43124 0.31779
H4 H 0.32807 0.52726 0.43621
H5 H 0.33935 0.29786 0.40598
H6 H 0.34111 0.45721 0.27902
N1 N 0.31895 0.42047 0.36836
H3 H 0.23550 0.56876 0.81779
H4 H 0.17193 0.47274 0.93621
H5 H 0.16065 0.70214 0.90598
H6 H 0.15889 0.54279 0.77902
N1 N 0.18105 0.57953 0.86836
H3 H 0.76450 0.06876 0.68221
H4 H 0.82807 -0.02726 0.56379
H5 H 0.83935 0.20214 0.59402
H6 H 0.84111 0.04279 0.72098
N1 N 0.81895 0.07953 0.63164
H3 H 0.73550 0.93124 0.18221
H4 H 0.67193 1.02726 0.06379
H5 H 0.66065 0.79786 0.09402
H6 H 0.65889 0.95721 0.22098
N1 N 0.68105 0.92047 0.13164
H3 H 0.73550 0.56876 0.68221
H4 H 0.67193 0.47274 0.56379
H5 H 0.66065 0.70214 0.59402
H6 H 0.65889 0.54279 0.72098
N1 N 0.68105 0.57953 0.63164
H3 H 0.76450 0.43124 0.18221
H4 H 0.82807 0.52726 0.06379
H5 H 0.83935 0.29786 0.09402
H6 H 0.84111 0.45721 0.22098
N1 N 0.81895 0.42047 0.13164
H3 H 0.23550 0.93124 0.31779
H4 H 0.17193 1.02726 0.43621
H5 H 0.16065 0.79786 0.40598
H6 H 0.15889 0.95721 0.27902
N1 N 0.18105 0.92047 0.36836
H3 H 0.26450 0.06876 0.81779
H4 H 0.32807 -0.02726 0.93621
H5 H 0.33935 0.20214 0.90598
H6 H 0.34111 0.04279 0.77902
N1 N 0.31895 0.07953 0.86836

#END
