
#######################################################################
#
#                 Cambridge Crystallographic Data Centre
#                                CCDC 
#
#######################################################################
#
# If this CIF has been generated from an entry in the Cambridge 
# Structural Database, then it will include bibliographic, chemical, 
# crystal, experimental, refinement or atomic coordinate data resulting 
# from the CCDC's data processing and validation procedures.
#
#######################################################################

data_ACATUT
_symmetry_cell_setting           monoclinic
_symmetry_space_group_name_H-M   'C 2/c'
_symmetry_Int_Tables_number      15
_space_group_name_Hall           '-C 2yn'
loop_
_symmetry_equiv_pos_site_id
_symmetry_equiv_pos_as_xyz
1 x,y,z
2 1/2+x,1/2+y,z
3 x,-y,1/2+z
4 1/2+x,1/2-y,1/2+z
5 -x,-y,-z
6 1/2-x,1/2-y,-z
7 -x,y,1/2-z
8 1/2-x,1/2+y,1/2-z
_cell_length_a                   26.506(5)
_cell_length_b                   7.128(1)
_cell_length_c                   14.092(3)
_cell_angle_alpha                90.00
_cell_angle_beta                 113.37(3)
_cell_angle_gamma                90.00
_cell_volume                     2444.05
loop_
_atom_site_label
_atom_site_type_symbol
_atom_site_fract_x
_atom_site_fract_y
_atom_site_fract_z
Pt1 Pt 0.623499(10) 0.59988(4) 0.45079(2)
Cl1 Cl 0.57773(8) 0.4304(3) 0.30186(13)
Cl2 Cl 0.58014(9) 0.4222(3) 0.53393(15)
Cl3 Cl 0.66400(8) 0.7769(3) 0.3638(2)
Cl4 Cl 0.69530(9) 0.3918(3) 0.4992(2)
N1 N 0.5606(2) 0.7883(9) 0.4105(4)
N2 N 0.5076(2) 0.7365(10) 0.3683(5)
H1 H 0.4957(2) 0.6174(10) 0.3544(5)
N3 N 0.6637(2) 0.7495(8) 0.5832(4)
N4 N 0.6551(3) 0.7196(11) 0.6697(5)
H2 H 0.6312(3) 0.6351(11) 0.6754(5)
C1 C 0.4747(3) 0.8880(12) 0.3502(6)
H3 H 0.4352(3) 0.8876(12) 0.3214(6)
C2 C 0.5073(3) 1.0385(12) 0.3802(7)
H4 H 0.4956(3) 1.1665(12) 0.3778(7)
C3 C 0.5611(3) 0.9732(11) 0.4160(6)
H5 H 0.5936(3) 1.0498(11) 0.4398(6)
C4 C 0.7009(4) 0.8776(14) 0.6023(8)
H6 H 0.7166(4) 0.9225(14) 0.5557(8)
C5 C 0.7142(4) 0.9357(16) 0.7068(9)
H7 H 0.7393(4) 1.0346(16) 0.7415(9)
C6 C 0.6865(5) 0.8342(17) 0.7449(8)
H8 H 0.6884(5) 0.8401(17) 0.8142(8)
Pt1 Pt 0.123499(10) 0.09988(4) 0.45079(2)
Cl1 Cl 0.07773(8) -0.0696(3) 0.30186(13)
Cl2 Cl 0.08014(9) -0.0778(3) 0.53393(15)
Cl3 Cl 0.16400(8) 0.2769(3) 0.3638(2)
Cl4 Cl 0.19530(9) -0.1082(3) 0.4992(2)
N1 N 0.0606(2) 0.2883(9) 0.4105(4)
N2 N 0.0076(2) 0.2365(10) 0.3683(5)
H1 H -0.0043(2) 0.1174(10) 0.3544(5)
N3 N 0.1637(2) 0.2495(8) 0.5832(4)
N4 N 0.1551(3) 0.2196(11) 0.6697(5)
H2 H 0.1312(3) 0.1351(11) 0.6754(5)
C1 C -0.0253(3) 0.3880(12) 0.3502(6)
H3 H -0.0648(3) 0.3876(12) 0.3214(6)
C2 C 0.0073(3) 0.5385(12) 0.3802(7)
H4 H -0.0044(3) 0.6665(12) 0.3778(7)
C3 C 0.0611(3) 0.4732(11) 0.4160(6)
H5 H 0.0936(3) 0.5498(11) 0.4398(6)
C4 C 0.2009(4) 0.3776(14) 0.6023(8)
H6 H 0.2166(4) 0.4225(14) 0.5557(8)
C5 C 0.2142(4) 0.4357(16) 0.7068(9)
H7 H 0.2393(4) 0.5346(16) 0.7415(9)
C6 C 0.1865(5) 0.3342(17) 0.7449(8)
H8 H 0.1884(5) 0.3401(17) 0.8142(8)
Pt1 Pt 0.623499(10) 0.40012(4) -0.04921(2)
Cl1 Cl 0.57773(8) 0.5696(3) -0.19814(13)
Cl2 Cl 0.58014(9) 0.5778(3) 0.03393(15)
Cl3 Cl 0.66400(8) 0.2231(3) -0.1362(2)
Cl4 Cl 0.69530(9) 0.6082(3) -0.0008(2)
N1 N 0.5606(2) 0.2117(9) -0.0895(4)
N2 N 0.5076(2) 0.2635(10) -0.1317(5)
H1 H 0.4957(2) 0.3826(10) -0.1456(5)
N3 N 0.6637(2) 0.2505(8) 0.0832(4)
N4 N 0.6551(3) 0.2804(11) 0.1697(5)
H2 H 0.6312(3) 0.3649(11) 0.1754(5)
C1 C 0.4747(3) 0.1120(12) -0.1498(6)
H3 H 0.4352(3) 0.1124(12) -0.1786(6)
C2 C 0.5073(3) -0.0385(12) -0.1198(7)
H4 H 0.4956(3) -0.1665(12) -0.1222(7)
C3 C 0.5611(3) 0.0268(11) -0.0840(6)
H5 H 0.5936(3) -0.0498(11) -0.0602(6)
C4 C 0.7009(4) 0.1224(14) 0.1023(8)
H6 H 0.7166(4) 0.0775(14) 0.0557(8)
C5 C 0.7142(4) 0.0643(16) 0.2068(9)
H7 H 0.7393(4) -0.0346(16) 0.2415(9)
C6 C 0.6865(5) 0.1658(17) 0.2449(8)
H8 H 0.6884(5) 0.1599(17) 0.3142(8)
Pt1 Pt 0.123499(10) 0.90012(4) -0.04921(2)
Cl1 Cl 0.07773(8) 1.0696(3) -0.19814(13)
Cl2 Cl 0.08014(9) 1.0778(3) 0.03393(15)
Cl3 Cl 0.16400(8) 0.7231(3) -0.1362(2)
Cl4 Cl 0.19530(9) 1.1082(3) -0.0008(2)
N1 N 0.0606(2) 0.7117(9) -0.0895(4)
N2 N 0.0076(2) 0.7635(10) -0.1317(5)
H1 H -0.0043(2) 0.8826(10) -0.1456(5)
N3 N 0.1637(2) 0.7505(8) 0.0832(4)
N4 N 0.1551(3) 0.7804(11) 0.1697(5)
H2 H 0.1312(3) 0.8649(11) 0.1754(5)
C1 C -0.0253(3) 0.6120(12) -0.1498(6)
H3 H -0.0648(3) 0.6124(12) -0.1786(6)
C2 C 0.0073(3) 0.4615(12) -0.1198(7)
H4 H -0.0044(3) 0.3335(12) -0.1222(7)
C3 C 0.0611(3) 0.5268(11) -0.0840(6)
H5 H 0.0936(3) 0.4502(11) -0.0602(6)
C4 C 0.2009(4) 0.6224(14) 0.1023(8)
H6 H 0.2166(4) 0.5775(14) 0.0557(8)
C5 C 0.2142(4) 0.5643(16) 0.2068(9)
H7 H 0.2393(4) 0.4654(16) 0.2415(9)
C6 C 0.1865(5) 0.6658(17) 0.2449(8)
H8 H 0.1884(5) 0.6599(17) 0.3142(8)
Pt1 Pt 0.376501(10) 0.40012(4) 0.54921(2)
Cl1 Cl 0.42227(8) 0.5696(3) 0.69814(13)
Cl2 Cl 0.41986(9) 0.5778(3) 0.46607(15)
Cl3 Cl 0.33600(8) 0.2231(3) 0.6362(2)
Cl4 Cl 0.30470(9) 0.6082(3) 0.5008(2)
N1 N 0.4394(2) 0.2117(9) 0.5895(4)
N2 N 0.4924(2) 0.2635(10) 0.6317(5)
H1 H 0.5043(2) 0.3826(10) 0.6456(5)
N3 N 0.3363(2) 0.2505(8) 0.4168(4)
N4 N 0.3449(3) 0.2804(11) 0.3303(5)
H2 H 0.3688(3) 0.3649(11) 0.3246(5)
C1 C 0.5253(3) 0.1120(12) 0.6498(6)
H3 H 0.5648(3) 0.1124(12) 0.6786(6)
C2 C 0.4927(3) -0.0385(12) 0.6198(7)
H4 H 0.5044(3) -0.1665(12) 0.6222(7)
C3 C 0.4389(3) 0.0268(11) 0.5840(6)
H5 H 0.4064(3) -0.0498(11) 0.5602(6)
C4 C 0.2991(4) 0.1224(14) 0.3977(8)
H6 H 0.2834(4) 0.0775(14) 0.4443(8)
C5 C 0.2858(4) 0.0643(16) 0.2932(9)
H7 H 0.2607(4) -0.0346(16) 0.2585(9)
C6 C 0.3135(5) 0.1658(17) 0.2551(8)
H8 H 0.3116(5) 0.1599(17) 0.1858(8)
Pt1 Pt 0.876501(10) 0.90012(4) 0.54921(2)
Cl1 Cl 0.92227(8) 1.0696(3) 0.69814(13)
Cl2 Cl 0.91986(9) 1.0778(3) 0.46607(15)
Cl3 Cl 0.83600(8) 0.7231(3) 0.6362(2)
Cl4 Cl 0.80470(9) 1.1082(3) 0.5008(2)
N1 N 0.9394(2) 0.7117(9) 0.5895(4)
N2 N 0.9924(2) 0.7635(10) 0.6317(5)
H1 H 1.0043(2) 0.8826(10) 0.6456(5)
N3 N 0.8363(2) 0.7505(8) 0.4168(4)
N4 N 0.8449(3) 0.7804(11) 0.3303(5)
H2 H 0.8688(3) 0.8649(11) 0.3246(5)
C1 C 1.0253(3) 0.6120(12) 0.6498(6)
H3 H 1.0648(3) 0.6124(12) 0.6786(6)
C2 C 0.9927(3) 0.4615(12) 0.6198(7)
H4 H 1.0044(3) 0.3335(12) 0.6222(7)
C3 C 0.9389(3) 0.5268(11) 0.5840(6)
H5 H 0.9064(3) 0.4502(11) 0.5602(6)
C4 C 0.7991(4) 0.6224(14) 0.3977(8)
H6 H 0.7834(4) 0.5775(14) 0.4443(8)
C5 C 0.7858(4) 0.5643(16) 0.2932(9)
H7 H 0.7607(4) 0.4654(16) 0.2585(9)
C6 C 0.8135(5) 0.6658(17) 0.2551(8)
H8 H 0.8116(5) 0.6599(17) 0.1858(8)
Pt1 Pt 0.376501(10) 0.59988(4) 1.04921(2)
Cl1 Cl 0.42227(8) 0.4304(3) 1.19814(13)
Cl2 Cl 0.41986(9) 0.4222(3) 0.96607(15)
Cl3 Cl 0.33600(8) 0.7769(3) 1.1362(2)
Cl4 Cl 0.30470(9) 0.3918(3) 1.0008(2)
N1 N 0.4394(2) 0.7883(9) 1.0895(4)
N2 N 0.4924(2) 0.7365(10) 1.1317(5)
H1 H 0.5043(2) 0.6174(10) 1.1456(5)
N3 N 0.3363(2) 0.7495(8) 0.9168(4)
N4 N 0.3449(3) 0.7196(11) 0.8303(5)
H2 H 0.3688(3) 0.6351(11) 0.8246(5)
C1 C 0.5253(3) 0.8880(12) 1.1498(6)
H3 H 0.5648(3) 0.8876(12) 1.1786(6)
C2 C 0.4927(3) 1.0385(12) 1.1198(7)
H4 H 0.5044(3) 1.1665(12) 1.1222(7)
C3 C 0.4389(3) 0.9732(11) 1.0840(6)
H5 H 0.4064(3) 1.0498(11) 1.0602(6)
C4 C 0.2991(4) 0.8776(14) 0.8977(8)
H6 H 0.2834(4) 0.9225(14) 0.9443(8)
C5 C 0.2858(4) 0.9357(16) 0.7932(9)
H7 H 0.2607(4) 1.0346(16) 0.7585(9)
C6 C 0.3135(5) 0.8342(17) 0.7551(8)
H8 H 0.3116(5) 0.8401(17) 0.6858(8)
Pt1 Pt 0.876501(10) 0.09988(4) 1.04921(2)
Cl1 Cl 0.92227(8) -0.0696(3) 1.19814(13)
Cl2 Cl 0.91986(9) -0.0778(3) 0.96607(15)
Cl3 Cl 0.83600(8) 0.2769(3) 1.1362(2)
Cl4 Cl 0.80470(9) -0.1082(3) 1.0008(2)
N1 N 0.9394(2) 0.2883(9) 1.0895(4)
N2 N 0.9924(2) 0.2365(10) 1.1317(5)
H1 H 1.0043(2) 0.1174(10) 1.1456(5)
N3 N 0.8363(2) 0.2495(8) 0.9168(4)
N4 N 0.8449(3) 0.2196(11) 0.8303(5)
H2 H 0.8688(3) 0.1351(11) 0.8246(5)
C1 C 1.0253(3) 0.3880(12) 1.1498(6)
H3 H 1.0648(3) 0.3876(12) 1.1786(6)
C2 C 0.9927(3) 0.5385(12) 1.1198(7)
H4 H 1.0044(3) 0.6665(12) 1.1222(7)
C3 C 0.9389(3) 0.4732(11) 1.0840(6)
H5 H 0.9064(3) 0.5498(11) 1.0602(6)
C4 C 0.7991(4) 0.3776(14) 0.8977(8)
H6 H 0.7834(4) 0.4225(14) 0.9443(8)
C5 C 0.7858(4) 0.4357(16) 0.7932(9)
H7 H 0.7607(4) 0.5346(16) 0.7585(9)
C6 C 0.8135(5) 0.3342(17) 0.7551(8)
H8 H 0.8116(5) 0.3401(17) 0.6858(8)

#END
