
#######################################################################
#
#                 Cambridge Crystallographic Data Centre
#                                CCDC 
#
#######################################################################
#
# If this CIF has been generated from an entry in the Cambridge 
# Structural Database, then it will include bibliographic, chemical, 
# crystal, experimental, refinement or atomic coordinate data resulting 
# from the CCDC's data processing and validation procedures.
#
#######################################################################

data_ACBNZA
_symmetry_cell_setting           monoclinic
_symmetry_space_group_name_H-M   'P 21/n'
_symmetry_Int_Tables_number      14
_space_group_name_Hall           '-P 2yn'
loop_
_symmetry_equiv_pos_site_id
_symmetry_equiv_pos_as_xyz
1 x,y,z
2 1/2-x,1/2+y,1/2-z
3 -x,-y,-z
4 1/2+x,1/2-y,1/2+z
_cell_length_a                   4.952(2)
_cell_length_b                   14.496(2)
_cell_length_c                   12.471(3)
_cell_angle_alpha                90
_cell_angle_beta                 93.99(3)
_cell_angle_gamma                90
_cell_volume                     893.051
loop_
_atom_site_label
_atom_site_type_symbol
_atom_site_fract_x
_atom_site_fract_y
_atom_site_fract_z
O1 O 0.67000 0.11080 0.00500
O2 O 0.70700 0.41850 0.16520
N1 N 0.75300 -0.00920 0.11560
N2 N 0.72700 0.27230 0.10220
C1 C 0.93300 0.23100 0.16940
C2 C 0.96900 0.13450 0.16200
C3 C 1.18100 0.09350 0.22520
C4 C 1.34700 0.14400 0.29530
C5 C 1.30300 0.23610 0.30380
C6 C 1.09700 0.28130 0.24340
C7 C 0.78400 0.07810 0.08780
C8 C 0.62600 0.35860 0.10330
C9 C 0.39700 0.37370 0.01900
H1 H 1.19000 0.03000 0.21700
H2 H 1.50000 0.11700 0.33500
H3 H 1.41000 0.27500 0.34100
H4 H 1.06000 0.35400 0.28400
H5 H 0.80000 -0.02300 0.17300
H6 H 0.62000 -0.04300 0.07400
H7 H 0.66000 0.23400 0.06000
H8 H 0.32000 0.31500 -0.00400
H9 H 0.43000 0.41700 -0.03000
H10 H 0.28000 0.40100 0.04500
O1 O 0.83000 0.61080 0.49500
O2 O 0.79300 0.91850 0.33480
N1 N 0.74700 0.49080 0.38440
N2 N 0.77300 0.77230 0.39780
C1 C 0.56700 0.73100 0.33060
C2 C 0.53100 0.63450 0.33800
C3 C 0.31900 0.59350 0.27480
C4 C 0.15300 0.64400 0.20470
C5 C 0.19700 0.73610 0.19620
C6 C 0.40300 0.78130 0.25660
C7 C 0.71600 0.57810 0.41220
C8 C 0.87400 0.85860 0.39670
C9 C 1.10300 0.87370 0.48100
H1 H 0.31000 0.53000 0.28300
H2 H 0.00000 0.61700 0.16500
H3 H 0.09000 0.77500 0.15900
H4 H 0.44000 0.85400 0.21600
H5 H 0.70000 0.47700 0.32700
H6 H 0.88000 0.45700 0.42600
H7 H 0.84000 0.73400 0.44000
H8 H 1.18000 0.81500 0.50400
H9 H 1.07000 0.91700 0.53000
H10 H 1.22000 0.90100 0.45500
O1 O 0.33000 0.88920 0.99500
O2 O 0.29300 0.58150 0.83480
N1 N 0.24700 1.00920 0.88440
N2 N 0.27300 0.72770 0.89780
C1 C 0.06700 0.76900 0.83060
C2 C 0.03100 0.86550 0.83800
C3 C -0.18100 0.90650 0.77480
C4 C -0.34700 0.85600 0.70470
C5 C -0.30300 0.76390 0.69620
C6 C -0.09700 0.71870 0.75660
C7 C 0.21600 0.92190 0.91220
C8 C 0.37400 0.64140 0.89670
C9 C 0.60300 0.62630 0.98100
H1 H -0.19000 0.97000 0.78300
H2 H -0.50000 0.88300 0.66500
H3 H -0.41000 0.72500 0.65900
H4 H -0.06000 0.64600 0.71600
H5 H 0.20000 1.02300 0.82700
H6 H 0.38000 1.04300 0.92600
H7 H 0.34000 0.76600 0.94000
H8 H 0.68000 0.68500 1.00400
H9 H 0.57000 0.58300 1.03000
H10 H 0.72000 0.59900 0.95500
O1 O 0.17000 0.38920 0.50500
O2 O 0.20700 0.08150 0.66520
N1 N 0.25300 0.50920 0.61560
N2 N 0.22700 0.22770 0.60220
C1 C 0.43300 0.26900 0.66940
C2 C 0.46900 0.36550 0.66200
C3 C 0.68100 0.40650 0.72520
C4 C 0.84700 0.35600 0.79530
C5 C 0.80300 0.26390 0.80380
C6 C 0.59700 0.21870 0.74340
C7 C 0.28400 0.42190 0.58780
C8 C 0.12600 0.14140 0.60330
C9 C -0.10300 0.12630 0.51900
H1 H 0.69000 0.47000 0.71700
H2 H 1.00000 0.38300 0.83500
H3 H 0.91000 0.22500 0.84100
H4 H 0.56000 0.14600 0.78400
H5 H 0.30000 0.52300 0.67300
H6 H 0.12000 0.54300 0.57400
H7 H 0.16000 0.26600 0.56000
H8 H -0.18000 0.18500 0.49600
H9 H -0.07000 0.08300 0.47000
H10 H -0.22000 0.09900 0.54500

#END
