./ACBNZA01_from_xyz.cif_generated_by_CrystalShift
_symmetry_cell_setting triclinic
_symmetry_space_group_name_H-M 'P 1'
loop_
_symmetry_equiv_pos_site_id
_symmetry_equiv_pos_as_xyz
1 x,y,z
_cell_length_a 7.807000
_cell_length_b 9.039000
_cell_length_c 12.706000
_cell_angle_alpha 90.000000
_cell_angle_beta 101.120000
_cell_angle_gamma 90.000000
_cell_volume 879.796441
loop_
_atom_site_label
_atom_site_type_symbol
_atom_site_fract_x
_atom_site_fract_y
_atom_site_fract_z
O1 O 0.306400 0.454400 0.065500
O2 O 0.454200 0.445200 0.328700
N3 N 0.492200 0.646300 0.097100
N4 N 0.469000 0.693300 0.327900
C5 C 0.291900 0.714300 0.273100
C6 C 0.233300 0.655100 0.172100
C7 C 0.060200 0.673700 0.124800
C8 C -0.051500 0.753100 0.174400
C9 C 0.009700 0.814000 0.273000
C10 C 0.180600 0.794500 0.323500
C11 C 0.347900 0.575800 0.108400
C12 C 0.539000 0.558900 0.353600
C13 C 0.723200 0.557000 0.413300
H14 H 0.572000 0.605000 0.052000
H15 H 0.518000 0.734000 0.120000
H16 H 0.024000 0.639000 0.058000
H17 H -0.172000 0.766000 0.142000
H18 H -0.058000 0.859000 0.305000
H19 H 0.226000 0.834000 0.392000
H20 H 0.522000 0.771000 0.350000
H21 H 0.776000 0.647000 0.426000
H22 H 0.790000 0.509000 0.365000
H23 H 0.741000 0.482000 0.465000
O24 O 0.693600 -0.045600 0.434500
O25 O 0.545800 -0.054800 0.171300
N26 N 0.507800 0.146300 0.402900
N27 N 0.531000 0.193300 0.172100
C28 C 0.708100 0.214300 0.226900
C29 C 0.766700 0.155100 0.327900
C30 C 0.939800 0.173700 0.375200
C31 C 1.051500 0.253100 0.325600
C32 C 0.990300 0.314000 0.227000
C33 C 0.819400 0.294500 0.176500
C34 C 0.652100 0.075800 0.391600
C35 C 0.461000 0.058900 0.146400
C36 C 0.276800 0.057000 0.086700
H37 H 0.428000 0.105000 0.448000
H38 H 0.482000 0.234000 0.380000
H39 H 0.976000 0.139000 0.442000
H40 H 1.172000 0.266000 0.358000
H41 H 1.058000 0.359000 0.195000
H42 H 0.774000 0.334000 0.108000
H43 H 0.478000 0.271000 0.150000
H44 H 0.224000 0.147000 0.074000
H45 H 0.210000 0.009000 0.135000
H46 H 0.259000 -0.018000 0.035000
O47 O 0.693600 0.545600 0.934500
O48 O 0.545800 0.554800 0.671300
N49 N 0.507800 0.353700 0.902900
N50 N 0.531000 0.306700 0.672100
C51 C 0.708100 0.285700 0.726900
C52 C 0.766700 0.344900 0.827900
C53 C 0.939800 0.326300 0.875200
C54 C 1.051500 0.246900 0.825600
C55 C 0.990300 0.186000 0.727000
C56 C 0.819400 0.205500 0.676500
C57 C 0.652100 0.424200 0.891600
C58 C 0.461000 0.441100 0.646400
C59 C 0.276800 0.443000 0.586700
H60 H 0.428000 0.395000 0.948000
H61 H 0.482000 0.266000 0.880000
H62 H 0.976000 0.361000 0.942000
H63 H 1.172000 0.234000 0.858000
H64 H 1.058000 0.141000 0.695000
H65 H 0.774000 0.166000 0.608000
H66 H 0.478000 0.229000 0.650000
H67 H 0.224000 0.353000 0.574000
H68 H 0.210000 0.491000 0.635000
H69 H 0.259000 0.518000 0.535000
O70 O 0.306400 1.045600 0.565500
O71 O 0.454200 1.054800 0.828700
N72 N 0.492200 0.853700 0.597100
N73 N 0.469000 0.806700 0.827900
C74 C 0.291900 0.785700 0.773100
C75 C 0.233300 0.844900 0.672100
C76 C 0.060200 0.826300 0.624800
C77 C -0.051500 0.746900 0.674400
C78 C 0.009700 0.686000 0.773000
C79 C 0.180600 0.705500 0.823500
C80 C 0.347900 0.924200 0.608400
C81 C 0.539000 0.941100 0.853600
C82 C 0.723200 0.943000 0.913300
H83 H 0.572000 0.895000 0.552000
H84 H 0.518000 0.766000 0.620000
H85 H 0.024000 0.861000 0.558000
H86 H -0.172000 0.734000 0.642000
H87 H -0.058000 0.641000 0.805000
H88 H 0.226000 0.666000 0.892000
H89 H 0.522000 0.729000 0.850000
H90 H 0.776000 0.853000 0.926000
H91 H 0.790000 0.991000 0.865000
H92 H 0.741000 1.018000 0.965000

#END
