
#######################################################################
#
#                 Cambridge Crystallographic Data Centre
#                                CCDC 
#
#######################################################################
#
# If this CIF has been generated from an entry in the Cambridge 
# Structural Database, then it will include bibliographic, chemical, 
# crystal, experimental, refinement or atomic coordinate data resulting 
# from the CCDC's data processing and validation procedures.
#
#######################################################################

data_ACCRHG01
_symmetry_cell_setting           tetragonal
_symmetry_space_group_name_H-M   'I 4/m'
_symmetry_Int_Tables_number      87
_space_group_name_Hall           '-I 4'
loop_
_symmetry_equiv_pos_site_id
_symmetry_equiv_pos_as_xyz
1 x,y,z
2 1/2+x,1/2+y,1/2+z
3 -y,x,z
4 1/2-y,1/2+x,1/2+z
5 -x,-y,z
6 1/2-x,1/2-y,1/2+z
7 y,-x,z
8 1/2+y,1/2-x,1/2+z
9 -x,-y,-z
10 1/2-x,1/2-y,1/2-z
11 y,-x,-z
12 1/2+y,1/2-x,1/2-z
13 x,y,-z
14 1/2+x,1/2+y,1/2-z
15 -y,x,-z
16 1/2-y,1/2+x,1/2-z
_cell_length_a                   8.564(1)
_cell_length_b                   8.564(1)
_cell_length_c                   13.955(1)
_cell_angle_alpha                90
_cell_angle_beta                 90
_cell_angle_gamma                90
_cell_volume                     1023.49
loop_
_atom_site_label
_atom_site_type_symbol
_atom_site_fract_x
_atom_site_fract_y
_atom_site_fract_z
Rh1 Rh 0.0000 0.0000 0.08584(1)
Cl1 Cl 0.0000 0.0000 0.27111(4)
O1 O 0.2093(1) 0.1138(1) 0.08053(7)
C1 C 0.2695(2) 0.1446(2) 0.0000
C2 C 0.4262(3) 0.2241(3) 0.0000
H1 H 0.5199 0.1515 0.0000
H2 H 0.4325 0.2906 0.0574
Rh1H Rh 0.0000 0.0000 -0.08584(1)
O1B O -0.1138(1) 0.2093(1) 0.08053(7)
O1D O -0.2093(1) -0.1138(1) 0.08053(7)
O1F O 0.1138(1) -0.2093(1) 0.08053(7)
O1L O 0.2093(1) 0.1138(1) -0.08053(7)
H2L H 0.4325 0.2906 -0.0574
Cl1H Cl 0.0000 0.0000 -0.27111(4)
O1H O -0.2093(1) -0.1138(1) -0.08053(7)
O1J O 0.1138(1) -0.2093(1) -0.08053(7)
O1N O -0.1138(1) 0.2093(1) -0.08053(7)
C1B C -0.1446(2) 0.2695(2) 0.0000
C1H C -0.2695(2) -0.1446(2) 0.0000
C1J C 0.1446(2) -0.2695(2) 0.0000
C2B C -0.2241(3) 0.4262(3) 0.0000
C2H C -0.4262(3) -0.2241(3) 0.0000
C2J C 0.2241(3) -0.4262(3) 0.0000
H1B H -0.1515 0.5199 0.0000
H2B H -0.2906 0.4325 0.0574
H2N H -0.2906 0.4325 -0.0574
H1H H -0.5199 -0.1515 0.0000
H2H H -0.4325 -0.2906 -0.0574
H2D H -0.4325 -0.2906 0.0574
H1J H 0.1515 -0.5199 0.0000
H2J H 0.2906 -0.4325 -0.0574
H2F H 0.2906 -0.4325 0.0574
Rh1 Rh 0.0000 0.0000 1.08584(1)
Cl1 Cl 0.0000 0.0000 1.27111(4)
O1 O 0.2093(1) 0.1138(1) 1.08053(7)
C1 C 0.2695(2) 0.1446(2) 1.0000
C2 C 0.4262(3) 0.2241(3) 1.0000
H1 H 0.5199 0.1515 1.0000
H2 H 0.4325 0.2906 1.0574
Rh1H Rh 0.0000 0.0000 0.91416(1)
O1B O -0.1138(1) 0.2093(1) 1.08053(7)
O1D O -0.2093(1) -0.1138(1) 1.08053(7)
O1F O 0.1138(1) -0.2093(1) 1.08053(7)
O1L O 0.2093(1) 0.1138(1) 0.91947(7)
H2L H 0.4325 0.2906 0.9426
Cl1H Cl 0.0000 0.0000 0.72889(4)
O1H O -0.2093(1) -0.1138(1) 0.91947(7)
O1J O 0.1138(1) -0.2093(1) 0.91947(7)
O1N O -0.1138(1) 0.2093(1) 0.91947(7)
C1B C -0.1446(2) 0.2695(2) 1.0000
C1H C -0.2695(2) -0.1446(2) 1.0000
C1J C 0.1446(2) -0.2695(2) 1.0000
C2B C -0.2241(3) 0.4262(3) 1.0000
C2H C -0.4262(3) -0.2241(3) 1.0000
C2J C 0.2241(3) -0.4262(3) 1.0000
H1B H -0.1515 0.5199 1.0000
H2B H -0.2906 0.4325 1.0574
H2N H -0.2906 0.4325 0.9426
H1H H -0.5199 -0.1515 1.0000
H2H H -0.4325 -0.2906 0.9426
H2D H -0.4325 -0.2906 1.0574
H1J H 0.1515 -0.5199 1.0000
H2J H 0.2906 -0.4325 0.9426
H2F H 0.2906 -0.4325 1.0574
Rh1 Rh 0.0000 1.0000 0.08584(1)
Cl1 Cl 0.0000 1.0000 0.27111(4)
O1 O 0.2093(1) 1.1138(1) 0.08053(7)
C1 C 0.2695(2) 1.1446(2) 0.0000
C2 C 0.4262(3) 1.2241(3) 0.0000
H1 H 0.5199 1.1515 0.0000
H2 H 0.4325 1.2906 0.0574
Rh1H Rh 0.0000 1.0000 -0.08584(1)
O1B O -0.1138(1) 1.2093(1) 0.08053(7)
O1D O -0.2093(1) 0.8862(1) 0.08053(7)
O1F O 0.1138(1) 0.7907(1) 0.08053(7)
O1L O 0.2093(1) 1.1138(1) -0.08053(7)
H2L H 0.4325 1.2906 -0.0574
Cl1H Cl 0.0000 1.0000 -0.27111(4)
O1H O -0.2093(1) 0.8862(1) -0.08053(7)
O1J O 0.1138(1) 0.7907(1) -0.08053(7)
O1N O -0.1138(1) 1.2093(1) -0.08053(7)
C1B C -0.1446(2) 1.2695(2) 0.0000
C1H C -0.2695(2) 0.8554(2) 0.0000
C1J C 0.1446(2) 0.7305(2) 0.0000
C2B C -0.2241(3) 1.4262(3) 0.0000
C2H C -0.4262(3) 0.7759(3) 0.0000
C2J C 0.2241(3) 0.5738(3) 0.0000
H1B H -0.1515 1.5199 0.0000
H2B H -0.2906 1.4325 0.0574
H2N H -0.2906 1.4325 -0.0574
H1H H -0.5199 0.8485 0.0000
H2H H -0.4325 0.7094 -0.0574
H2D H -0.4325 0.7094 0.0574
H1J H 0.1515 0.4801 0.0000
H2J H 0.2906 0.5675 -0.0574
H2F H 0.2906 0.5675 0.0574
Rh1 Rh 0.0000 1.0000 1.08584(1)
Cl1 Cl 0.0000 1.0000 1.27111(4)
O1 O 0.2093(1) 1.1138(1) 1.08053(7)
C1 C 0.2695(2) 1.1446(2) 1.0000
C2 C 0.4262(3) 1.2241(3) 1.0000
H1 H 0.5199 1.1515 1.0000
H2 H 0.4325 1.2906 1.0574
Rh1H Rh 0.0000 1.0000 0.91416(1)
O1B O -0.1138(1) 1.2093(1) 1.08053(7)
O1D O -0.2093(1) 0.8862(1) 1.08053(7)
O1F O 0.1138(1) 0.7907(1) 1.08053(7)
O1L O 0.2093(1) 1.1138(1) 0.91947(7)
H2L H 0.4325 1.2906 0.9426
Cl1H Cl 0.0000 1.0000 0.72889(4)
O1H O -0.2093(1) 0.8862(1) 0.91947(7)
O1J O 0.1138(1) 0.7907(1) 0.91947(7)
O1N O -0.1138(1) 1.2093(1) 0.91947(7)
C1B C -0.1446(2) 1.2695(2) 1.0000
C1H C -0.2695(2) 0.8554(2) 1.0000
C1J C 0.1446(2) 0.7305(2) 1.0000
C2B C -0.2241(3) 1.4262(3) 1.0000
C2H C -0.4262(3) 0.7759(3) 1.0000
C2J C 0.2241(3) 0.5738(3) 1.0000
H1B H -0.1515 1.5199 1.0000
H2B H -0.2906 1.4325 1.0574
H2N H -0.2906 1.4325 0.9426
H1H H -0.5199 0.8485 1.0000
H2H H -0.4325 0.7094 0.9426
H2D H -0.4325 0.7094 1.0574
H1J H 0.1515 0.4801 1.0000
H2J H 0.2906 0.5675 0.9426
H2F H 0.2906 0.5675 1.0574
Rh1 Rh 1.0000 0.0000 0.08584(1)
Cl1 Cl 1.0000 0.0000 0.27111(4)
O1 O 1.2093(1) 0.1138(1) 0.08053(7)
C1 C 1.2695(2) 0.1446(2) 0.0000
C2 C 1.4262(3) 0.2241(3) 0.0000
H1 H 1.5199 0.1515 0.0000
H2 H 1.4325 0.2906 0.0574
Rh1H Rh 1.0000 0.0000 -0.08584(1)
O1B O 0.8862(1) 0.2093(1) 0.08053(7)
O1D O 0.7907(1) -0.1138(1) 0.08053(7)
O1F O 1.1138(1) -0.2093(1) 0.08053(7)
O1L O 1.2093(1) 0.1138(1) -0.08053(7)
H2L H 1.4325 0.2906 -0.0574
Cl1H Cl 1.0000 0.0000 -0.27111(4)
O1H O 0.7907(1) -0.1138(1) -0.08053(7)
O1J O 1.1138(1) -0.2093(1) -0.08053(7)
O1N O 0.8862(1) 0.2093(1) -0.08053(7)
C1B C 0.8554(2) 0.2695(2) 0.0000
C1H C 0.7305(2) -0.1446(2) 0.0000
C1J C 1.1446(2) -0.2695(2) 0.0000
C2B C 0.7759(3) 0.4262(3) 0.0000
C2H C 0.5738(3) -0.2241(3) 0.0000
C2J C 1.2241(3) -0.4262(3) 0.0000
H1B H 0.8485 0.5199 0.0000
H2B H 0.7094 0.4325 0.0574
H2N H 0.7094 0.4325 -0.0574
H1H H 0.4801 -0.1515 0.0000
H2H H 0.5675 -0.2906 -0.0574
H2D H 0.5675 -0.2906 0.0574
H1J H 1.1515 -0.5199 0.0000
H2J H 1.2906 -0.4325 -0.0574
H2F H 1.2906 -0.4325 0.0574
Rh1 Rh 1.0000 0.0000 1.08584(1)
Cl1 Cl 1.0000 0.0000 1.27111(4)
O1 O 1.2093(1) 0.1138(1) 1.08053(7)
C1 C 1.2695(2) 0.1446(2) 1.0000
C2 C 1.4262(3) 0.2241(3) 1.0000
H1 H 1.5199 0.1515 1.0000
H2 H 1.4325 0.2906 1.0574
Rh1H Rh 1.0000 0.0000 0.91416(1)
O1B O 0.8862(1) 0.2093(1) 1.08053(7)
O1D O 0.7907(1) -0.1138(1) 1.08053(7)
O1F O 1.1138(1) -0.2093(1) 1.08053(7)
O1L O 1.2093(1) 0.1138(1) 0.91947(7)
H2L H 1.4325 0.2906 0.9426
Cl1H Cl 1.0000 0.0000 0.72889(4)
O1H O 0.7907(1) -0.1138(1) 0.91947(7)
O1J O 1.1138(1) -0.2093(1) 0.91947(7)
O1N O 0.8862(1) 0.2093(1) 0.91947(7)
C1B C 0.8554(2) 0.2695(2) 1.0000
C1H C 0.7305(2) -0.1446(2) 1.0000
C1J C 1.1446(2) -0.2695(2) 1.0000
C2B C 0.7759(3) 0.4262(3) 1.0000
C2H C 0.5738(3) -0.2241(3) 1.0000
C2J C 1.2241(3) -0.4262(3) 1.0000
H1B H 0.8485 0.5199 1.0000
H2B H 0.7094 0.4325 1.0574
H2N H 0.7094 0.4325 0.9426
H1H H 0.4801 -0.1515 1.0000
H2H H 0.5675 -0.2906 0.9426
H2D H 0.5675 -0.2906 1.0574
H1J H 1.1515 -0.5199 1.0000
H2J H 1.2906 -0.4325 0.9426
H2F H 1.2906 -0.4325 1.0574
Rh1 Rh 1.0000 1.0000 0.08584(1)
Cl1 Cl 1.0000 1.0000 0.27111(4)
O1 O 1.2093(1) 1.1138(1) 0.08053(7)
C1 C 1.2695(2) 1.1446(2) 0.0000
C2 C 1.4262(3) 1.2241(3) 0.0000
H1 H 1.5199 1.1515 0.0000
H2 H 1.4325 1.2906 0.0574
Rh1H Rh 1.0000 1.0000 -0.08584(1)
O1B O 0.8862(1) 1.2093(1) 0.08053(7)
O1D O 0.7907(1) 0.8862(1) 0.08053(7)
O1F O 1.1138(1) 0.7907(1) 0.08053(7)
O1L O 1.2093(1) 1.1138(1) -0.08053(7)
H2L H 1.4325 1.2906 -0.0574
Cl1H Cl 1.0000 1.0000 -0.27111(4)
O1H O 0.7907(1) 0.8862(1) -0.08053(7)
O1J O 1.1138(1) 0.7907(1) -0.08053(7)
O1N O 0.8862(1) 1.2093(1) -0.08053(7)
C1B C 0.8554(2) 1.2695(2) 0.0000
C1H C 0.7305(2) 0.8554(2) 0.0000
C1J C 1.1446(2) 0.7305(2) 0.0000
C2B C 0.7759(3) 1.4262(3) 0.0000
C2H C 0.5738(3) 0.7759(3) 0.0000
C2J C 1.2241(3) 0.5738(3) 0.0000
H1B H 0.8485 1.5199 0.0000
H2B H 0.7094 1.4325 0.0574
H2N H 0.7094 1.4325 -0.0574
H1H H 0.4801 0.8485 0.0000
H2H H 0.5675 0.7094 -0.0574
H2D H 0.5675 0.7094 0.0574
H1J H 1.1515 0.4801 0.0000
H2J H 1.2906 0.5675 -0.0574
H2F H 1.2906 0.5675 0.0574
Rh1 Rh 1.0000 1.0000 1.08584(1)
Cl1 Cl 1.0000 1.0000 1.27111(4)
O1 O 1.2093(1) 1.1138(1) 1.08053(7)
C1 C 1.2695(2) 1.1446(2) 1.0000
C2 C 1.4262(3) 1.2241(3) 1.0000
H1 H 1.5199 1.1515 1.0000
H2 H 1.4325 1.2906 1.0574
Rh1H Rh 1.0000 1.0000 0.91416(1)
O1B O 0.8862(1) 1.2093(1) 1.08053(7)
O1D O 0.7907(1) 0.8862(1) 1.08053(7)
O1F O 1.1138(1) 0.7907(1) 1.08053(7)
O1L O 1.2093(1) 1.1138(1) 0.91947(7)
H2L H 1.4325 1.2906 0.9426
Cl1H Cl 1.0000 1.0000 0.72889(4)
O1H O 0.7907(1) 0.8862(1) 0.91947(7)
O1J O 1.1138(1) 0.7907(1) 0.91947(7)
O1N O 0.8862(1) 1.2093(1) 0.91947(7)
C1B C 0.8554(2) 1.2695(2) 1.0000
C1H C 0.7305(2) 0.8554(2) 1.0000
C1J C 1.1446(2) 0.7305(2) 1.0000
C2B C 0.7759(3) 1.4262(3) 1.0000
C2H C 0.5738(3) 0.7759(3) 1.0000
C2J C 1.2241(3) 0.5738(3) 1.0000
H1B H 0.8485 1.5199 1.0000
H2B H 0.7094 1.4325 1.0574
H2N H 0.7094 1.4325 0.9426
H1H H 0.4801 0.8485 1.0000
H2H H 0.5675 0.7094 0.9426
H2D H 0.5675 0.7094 1.0574
H1J H 1.1515 0.4801 1.0000
H2J H 1.2906 0.5675 0.9426
H2F H 1.2906 0.5675 1.0574
Rh1 Rh 0.5000 0.5000 0.58584(1)
Cl1 Cl 0.5000 0.5000 0.77111(4)
O1 O 0.7093(1) 0.6138(1) 0.58053(7)
C1 C 0.7695(2) 0.6446(2) 0.5000
C2 C 0.9262(3) 0.7241(3) 0.5000
H1 H 1.0199 0.6515 0.5000
H2 H 0.9325 0.7906 0.5574
Rh1H Rh 0.5000 0.5000 0.41416(1)
O1B O 0.3862(1) 0.7093(1) 0.58053(7)
O1D O 0.2907(1) 0.3862(1) 0.58053(7)
O1F O 0.6138(1) 0.2907(1) 0.58053(7)
O1L O 0.7093(1) 0.6138(1) 0.41947(7)
H2L H 0.9325 0.7906 0.4426
Cl1H Cl 0.5000 0.5000 0.22889(4)
O1H O 0.2907(1) 0.3862(1) 0.41947(7)
O1J O 0.6138(1) 0.2907(1) 0.41947(7)
O1N O 0.3862(1) 0.7093(1) 0.41947(7)
C1B C 0.3554(2) 0.7695(2) 0.5000
C1H C 0.2305(2) 0.3554(2) 0.5000
C1J C 0.6446(2) 0.2305(2) 0.5000
C2B C 0.2759(3) 0.9262(3) 0.5000
C2H C 0.0738(3) 0.2759(3) 0.5000
C2J C 0.7241(3) 0.0738(3) 0.5000
H1B H 0.3485 1.0199 0.5000
H2B H 0.2094 0.9325 0.5574
H2N H 0.2094 0.9325 0.4426
H1H H -0.0199 0.3485 0.5000
H2H H 0.0675 0.2094 0.4426
H2D H 0.0675 0.2094 0.5574
H1J H 0.6515 -0.0199 0.5000
H2J H 0.7906 0.0675 0.4426
H2F H 0.7906 0.0675 0.5574

#END
