./ACEFIZ_from_xyz.cif_generated_by_CrystalShift
_symmetry_cell_setting triclinic
_symmetry_space_group_name_H-M 'P 1'
loop_
_symmetry_equiv_pos_site_id
_symmetry_equiv_pos_as_xyz
1 x,y,z
_cell_length_a 14.110400
_cell_length_b 4.895700
_cell_length_c 16.763100
_cell_angle_alpha 90.000000
_cell_angle_beta 94.640000
_cell_angle_gamma 90.000000
_cell_volume 1154.204528
loop_
_atom_site_label
_atom_site_type_symbol
_atom_site_fract_x
_atom_site_fract_y
_atom_site_fract_z
C1 C 0.702750 0.649500 0.523870
C2 C 0.662130 0.483400 0.461890
C3 C 0.799410 0.870200 0.433640
C4 C 0.770700 0.839700 0.510400
C5 C 0.692030 0.517700 0.384860
C6 C 0.761100 0.714300 0.371600
C7 C 0.904370 1.321600 0.633300
C8 C 0.984000 1.478500 0.625040
C9 C 1.017600 1.648300 0.685520
C10 C 0.858500 1.338100 0.703580
C11 C 0.893800 1.514300 0.762910
C12 C 0.972900 1.668300 0.753750
C13 C 0.591000 0.279600 0.477510
O14 O 0.554400 0.126300 0.424780
O15 O 0.656740 0.368800 0.321210
O16 O 0.567610 0.267900 0.551680
N17 N 0.872890 1.154000 0.566390
N18 N 0.804920 1.002200 0.579210
H19 H 0.777100 0.723000 0.317700
H20 H 0.849900 1.000000 0.427000
H21 H 1.013400 1.447000 0.578000
H22 H 0.997700 1.805000 0.796300
H23 H 0.858100 1.534000 0.814000
H24 H 1.075000 1.750000 0.680000
H25 H 0.804300 1.234000 0.712400
H26 H 0.679900 0.624000 0.577200
H27 H 0.610000 0.248000 0.339000
H28 H 0.523000 0.128000 0.555900
C29 C 0.797250 0.149500 0.976130
C30 C 0.837870 -0.016600 1.038110
C31 C 0.700590 0.370200 1.066360
C32 C 0.729300 0.339700 0.989600
C33 C 0.807970 0.017700 1.115140
C34 C 0.738900 0.214300 1.128400
C35 C 0.595630 0.821600 0.866700
C36 C 0.516000 0.978500 0.874960
C37 C 0.482400 1.148300 0.814480
C38 C 0.641500 0.838100 0.796420
C39 C 0.606200 1.014300 0.737090
C40 C 0.527100 1.168300 0.746250
C41 C 0.909000 -0.220400 1.022490
O42 O 0.945600 -0.373700 1.075220
O43 O 0.843260 -0.131200 1.178790
O44 O 0.932390 -0.232100 0.948320
N45 N 0.627110 0.654000 0.933610
N46 N 0.695080 0.502200 0.920790
H47 H 0.722900 0.223000 1.182300
H48 H 0.650100 0.500000 1.073000
H49 H 0.486600 0.947000 0.922000
H50 H 0.502300 1.305000 0.703700
H51 H 0.641900 1.034000 0.686000
H52 H 0.425000 1.250000 0.820000
H53 H 0.695700 0.734000 0.787600
H54 H 0.820100 0.124000 0.922800
H55 H 0.890000 -0.252000 1.161000
H56 H 0.977000 -0.372000 0.944100
C57 C 0.297250 0.350500 0.476130
C58 C 0.337870 0.516600 0.538110
C59 C 0.200590 0.129800 0.566360
C60 C 0.229300 0.160300 0.489600
C61 C 0.307970 0.482300 0.615140
C62 C 0.238900 0.285700 0.628400
C63 C 0.095630 -0.321600 0.366700
C64 C 0.016000 -0.478500 0.374960
C65 C -0.017600 -0.648300 0.314480
C66 C 0.141500 -0.338100 0.296420
C67 C 0.106200 -0.514300 0.237090
C68 C 0.027100 -0.668300 0.246250
C69 C 0.409000 0.720400 0.522490
O70 O 0.445600 0.873700 0.575220
O71 O 0.343260 0.631200 0.678790
O72 O 0.432390 0.732100 0.448320
N73 N 0.127110 -0.154000 0.433610
N74 N 0.195080 -0.002200 0.420790
H75 H 0.222900 0.277000 0.682300
H76 H 0.150100 0.000000 0.573000
H77 H -0.013400 -0.447000 0.422000
H78 H 0.002300 -0.805000 0.203700
H79 H 0.141900 -0.534000 0.186000
H80 H -0.075000 -0.750000 0.320000
H81 H 0.195700 -0.234000 0.287600
H82 H 0.320100 0.376000 0.422800
H83 H 0.390000 0.752000 0.661000
H84 H 0.477000 0.872000 0.444100
C85 C 0.202750 0.850500 0.023870
C86 C 0.162130 1.016600 -0.038110
C87 C 0.299410 0.629800 -0.066360
C88 C 0.270700 0.660300 0.010400
C89 C 0.192030 0.982300 -0.115140
C90 C 0.261100 0.785700 -0.128400
C91 C 0.404370 0.178400 0.133300
C92 C 0.484000 0.021500 0.125040
C93 C 0.517600 -0.148300 0.185520
C94 C 0.358500 0.161900 0.203580
C95 C 0.393800 -0.014300 0.262910
C96 C 0.472900 -0.168300 0.253750
C97 C 0.091000 1.220400 -0.022490
O98 O 0.054400 1.373700 -0.075220
O99 O 0.156740 1.131200 -0.178790
O100 O 0.067610 1.232100 0.051680
N101 N 0.372890 0.346000 0.066390
N102 N 0.304920 0.497800 0.079210
H103 H 0.277100 0.777000 -0.182300
H104 H 0.349900 0.500000 -0.073000
H105 H 0.513400 0.053000 0.078000
H106 H 0.497700 -0.305000 0.296300
H107 H 0.358100 -0.034000 0.314000
H108 H 0.575000 -0.250000 0.180000
H109 H 0.304300 0.266000 0.212400
H110 H 0.179900 0.876000 0.077200
H111 H 0.110000 1.252000 -0.161000
H112 H 0.023000 1.372000 0.055900

#END
