./ACEGLL_from_xyz.cif_generated_by_CrystalShift
_symmetry_cell_setting triclinic
_symmetry_space_group_name_H-M 'P 1'
loop_
_symmetry_equiv_pos_site_id
_symmetry_equiv_pos_as_xyz
1 x,y,z
_cell_length_a 11.804000
_cell_length_b 10.814000
_cell_length_c 6.987000
_cell_angle_alpha 90.000000
_cell_angle_beta 104.120000
_cell_angle_gamma 90.000000
_cell_volume 864.933301
loop_
_atom_site_label
_atom_site_type_symbol
_atom_site_fract_x
_atom_site_fract_y
_atom_site_fract_z
O1 O -0.080100 0.181300 0.027900
O2 O 0.000500 0.259200 -0.303600
O3 O 0.238500 0.217700 -0.273200
O4 O 0.330200 -0.012800 -0.066800
O5 O 0.083600 0.070000 0.135700
O6 O 0.310500 0.031400 0.398600
O7 O -0.171900 0.000200 0.049600
O8 O -0.011900 0.374800 -0.568600
O9 O 0.482700 0.095800 0.104700
O10 O 0.463100 -0.097600 0.471000
C11 C 0.005800 0.115900 -0.039400
C12 C 0.075200 0.201800 -0.135100
C13 C 0.172500 0.131500 -0.193300
C14 C 0.248500 0.071200 -0.010000
C15 C 0.173500 -0.007300 0.093800
C16 C 0.239600 -0.062900 0.281700
C17 C -0.164300 0.108700 0.081700
C18 C -0.237400 0.186800 0.180600
C19 C 0.047800 0.307500 -0.445000
C20 C 0.169400 0.262800 -0.455500
C21 C 0.236200 0.370900 -0.520900
C22 C 0.446200 0.006200 0.014200
C23 C 0.516700 -0.104100 -0.019400
C24 C 0.421900 0.001300 0.482300
C25 C 0.488400 0.112000 0.582400
H26 H -0.034600 0.048200 -0.149700
H27 H 0.110600 0.264800 -0.029900
H28 H 0.144100 0.071300 -0.303400
H29 H 0.295100 0.133900 0.102700
H30 H 0.139600 -0.066800 -0.005600
H31 H 0.181200 -0.093400 0.358600
H32 H 0.303800 -0.133200 0.237500
H33 H -0.274400 0.206500 0.074600
H34 H -0.208400 0.183900 0.303300
H35 H -0.318500 0.142700 0.193100
H36 H 0.152100 0.199500 -0.562100
H37 H 0.251700 0.432900 -0.418700
H38 H 0.195200 0.406200 -0.658700
H39 H 0.316600 0.333500 -0.534600
H40 H 0.492900 -0.131600 -0.149400
H41 H 0.593300 -0.089200 -0.044500
H42 H 0.530600 -0.159700 0.105100
H43 H 0.482200 0.157700 0.486800
H44 H 0.438700 0.153200 0.675900
H45 H 0.565900 0.090600 0.641000
O46 O 1.080100 0.681300 0.972100
O47 O 0.999500 0.759200 1.303600
O48 O 0.761500 0.717700 1.273200
O49 O 0.669800 0.487200 1.066800
O50 O 0.916400 0.570000 0.864300
O51 O 0.689500 0.531400 0.601400
O52 O 1.171900 0.500200 0.950400
O53 O 1.011900 0.874800 1.568600
O54 O 0.517300 0.595800 0.895300
O55 O 0.536900 0.402400 0.529000
C56 C 0.994200 0.615900 1.039400
C57 C 0.924800 0.701800 1.135100
C58 C 0.827500 0.631500 1.193300
C59 C 0.751500 0.571200 1.010000
C60 C 0.826500 0.492700 0.906200
C61 C 0.760400 0.437100 0.718300
C62 C 1.164300 0.608700 0.918300
C63 C 1.237400 0.686800 0.819400
C64 C 0.952200 0.807500 1.445000
C65 C 0.830600 0.762800 1.455500
C66 C 0.763800 0.870900 1.520900
C67 C 0.553800 0.506200 0.985800
C68 C 0.483300 0.395900 1.019400
C69 C 0.578100 0.501300 0.517700
C70 C 0.511600 0.612000 0.417600
H71 H 1.034600 0.548200 1.149700
H72 H 0.889400 0.764800 1.029900
H73 H 0.855900 0.571300 1.303400
H74 H 0.704900 0.633900 0.897300
H75 H 0.860400 0.433200 1.005600
H76 H 0.818800 0.406600 0.641400
H77 H 0.696200 0.366800 0.762500
H78 H 1.274400 0.706500 0.925400
H79 H 1.208400 0.683900 0.696700
H80 H 1.318500 0.642700 0.806900
H81 H 0.847900 0.699500 1.562100
H82 H 0.748300 0.932900 1.418700
H83 H 0.804800 0.906200 1.658700
H84 H 0.683400 0.833500 1.534600
H85 H 0.507100 0.368400 1.149400
H86 H 0.406700 0.410800 1.044500
H87 H 0.469400 0.340300 0.894900
H88 H 0.517800 0.657700 0.513200
H89 H 0.561300 0.653200 0.324100
H90 H 0.434100 0.590600 0.359000

#END
