
#######################################################################
#
#                 Cambridge Crystallographic Data Centre
#                                CCDC 
#
#######################################################################
#
# If this CIF has been generated from an entry in the Cambridge 
# Structural Database, then it will include bibliographic, chemical, 
# crystal, experimental, refinement or atomic coordinate data resulting 
# from the CCDC's data processing and validation procedures.
#
#######################################################################

data_ACEGLL
_symmetry_cell_setting           monoclinic
_symmetry_space_group_name_H-M   'P 21'
_symmetry_Int_Tables_number      4
_space_group_name_Hall           'P 2yb'
loop_
_symmetry_equiv_pos_site_id
_symmetry_equiv_pos_as_xyz
1 x,y,z
2 -x,1/2+y,-z
_cell_length_a                   11.804(2)
_cell_length_b                   10.814(3)
_cell_length_c                   6.987(3)
_cell_angle_alpha                90
_cell_angle_beta                 104.12(20)
_cell_angle_gamma                90
_cell_volume                     864.933
loop_
_atom_site_label
_atom_site_type_symbol
_atom_site_fract_x
_atom_site_fract_y
_atom_site_fract_z
O1 O -0.08010 0.18130 0.02790
O2 O 0.00050 0.25920 -0.30360
O3 O 0.23850 0.21770 -0.27320
O4 O 0.33020 -0.01280 -0.06680
O5 O 0.08360 0.07000 0.13570
O6 O 0.31050 0.03140 0.39860
O7 O -0.17190 0.00020 0.04960
O8 O -0.01190 0.37480 -0.56860
O9 O 0.48270 0.09580 0.10470
O10 O 0.46310 -0.09760 0.47100
C1 C 0.00580 0.11590 -0.03940
C2 C 0.07520 0.20180 -0.13510
C3 C 0.17250 0.13150 -0.19330
C4 C 0.24850 0.07120 -0.01000
C5 C 0.17350 -0.00730 0.09380
C6 C 0.23960 -0.06290 0.28170
C7 C -0.16430 0.10870 0.08170
C8 C -0.23740 0.18680 0.18060
C9 C 0.04780 0.30750 -0.44500
C10 C 0.16940 0.26280 -0.45550
C11 C 0.23620 0.37090 -0.52090
C12 C 0.44620 0.00620 0.01420
C13 C 0.51670 -0.10410 -0.01940
C14 C 0.42190 0.00130 0.48230
C15 C 0.48840 0.11200 0.58240
H1 H -0.03460 0.04820 -0.14970
H2 H 0.11060 0.26480 -0.02990
H3 H 0.14410 0.07130 -0.30340
H4 H 0.29510 0.13390 0.10270
H5 H 0.13960 -0.06680 -0.00560
H6 H 0.18120 -0.09340 0.35860
H7 H 0.30380 -0.13320 0.23750
H8 H -0.27440 0.20650 0.07460
H9 H -0.20840 0.18390 0.30330
H10 H -0.31850 0.14270 0.19310
H11 H 0.15210 0.19950 -0.56210
H12 H 0.25170 0.43290 -0.41870
H13 H 0.19520 0.40620 -0.65870
H14 H 0.31660 0.33350 -0.53460
H15 H 0.49290 -0.13160 -0.14940
H16 H 0.59330 -0.08920 -0.04450
H17 H 0.53060 -0.15970 0.10510
H18 H 0.48220 0.15770 0.48680
H19 H 0.43870 0.15320 0.67590
H20 H 0.56590 0.09060 0.64100
O1 O 1.08010 0.68130 0.97210
O2 O 0.99950 0.75920 1.30360
O3 O 0.76150 0.71770 1.27320
O4 O 0.66980 0.48720 1.06680
O5 O 0.91640 0.57000 0.86430
O6 O 0.68950 0.53140 0.60140
O7 O 1.17190 0.50020 0.95040
O8 O 1.01190 0.87480 1.56860
O9 O 0.51730 0.59580 0.89530
O10 O 0.53690 0.40240 0.52900
C1 C 0.99420 0.61590 1.03940
C2 C 0.92480 0.70180 1.13510
C3 C 0.82750 0.63150 1.19330
C4 C 0.75150 0.57120 1.01000
C5 C 0.82650 0.49270 0.90620
C6 C 0.76040 0.43710 0.71830
C7 C 1.16430 0.60870 0.91830
C8 C 1.23740 0.68680 0.81940
C9 C 0.95220 0.80750 1.44500
C10 C 0.83060 0.76280 1.45550
C11 C 0.76380 0.87090 1.52090
C12 C 0.55380 0.50620 0.98580
C13 C 0.48330 0.39590 1.01940
C14 C 0.57810 0.50130 0.51770
C15 C 0.51160 0.61200 0.41760
H1 H 1.03460 0.54820 1.14970
H2 H 0.88940 0.76480 1.02990
H3 H 0.85590 0.57130 1.30340
H4 H 0.70490 0.63390 0.89730
H5 H 0.86040 0.43320 1.00560
H6 H 0.81880 0.40660 0.64140
H7 H 0.69620 0.36680 0.76250
H8 H 1.27440 0.70650 0.92540
H9 H 1.20840 0.68390 0.69670
H10 H 1.31850 0.64270 0.80690
H11 H 0.84790 0.69950 1.56210
H12 H 0.74830 0.93290 1.41870
H13 H 0.80480 0.90620 1.65870
H14 H 0.68340 0.83350 1.53460
H15 H 0.50710 0.36840 1.14940
H16 H 0.40670 0.41080 1.04450
H17 H 0.46940 0.34030 0.89490
H18 H 0.51780 0.65770 0.51320
H19 H 0.56130 0.65320 0.32410
H20 H 0.43410 0.59060 0.35900

#END
