./ACEMAW_from_xyz.cif_generated_by_CrystalShift
_symmetry_cell_setting triclinic
_symmetry_space_group_name_H-M 'P 1'
loop_
_symmetry_equiv_pos_site_id
_symmetry_equiv_pos_as_xyz
1 x,y,z
_cell_length_a 10.768900
_cell_length_b 9.823500
_cell_length_c 18.439000
_cell_angle_alpha 90.000000
_cell_angle_beta 100.456000
_cell_angle_gamma 90.000000
_cell_volume 1918.239159
loop_
_atom_site_label
_atom_site_type_symbol
_atom_site_fract_x
_atom_site_fract_y
_atom_site_fract_z
C1 C 0.009500 0.452200 0.556600
C2 C -0.003600 0.397000 0.472970
C3 C 0.144200 0.394600 0.567660
C4 C 0.132500 0.348800 0.495910
C5 C 0.230900 0.287700 0.468520
C6 C 0.344400 0.271800 0.520040
C7 C 0.355200 0.315300 0.593860
C8 C 0.254500 0.380900 0.619580
C9 C -0.075800 0.420600 0.612010
C10 C -0.058100 0.285800 0.652800
C11 C -0.138000 0.271900 0.710500
C12 C -0.102500 0.299600 0.433450
C13 C -0.103600 0.157200 0.464600
C14 C -0.188600 0.059500 0.416900
C15 C 0.214400 0.241100 0.389000
C16 C 0.190600 0.088900 0.377000
C17 C 0.458000 0.211500 0.493000
C18 C 0.538900 0.321900 0.466000
C19 C 0.476600 0.286300 0.648600
C20 C 0.478700 0.145100 0.682600
C21 C 0.263800 0.431600 0.698090
C22 C 0.340600 0.561800 0.716600
H23 H -0.169000 0.437000 0.585000
H24 H -0.057000 0.494000 0.655000
H25 H -0.067000 0.209000 0.623000
H26 H 0.040000 0.274000 0.677000
H27 H -0.131000 0.185000 0.736000
H28 H -0.208000 0.320000 0.706000
H29 H -0.100000 0.362000 0.750000
H30 H -0.091000 0.293000 0.382000
H31 H -0.187000 0.340000 0.430000
H32 H -0.140000 0.168000 0.510000
H33 H -0.025000 0.126000 0.489000
H34 H -0.194000 -0.026000 0.438000
H35 H -0.270000 0.101000 0.389000
H36 H -0.143000 0.038000 0.373000
H37 H 0.290000 0.266000 0.368000
H38 H 0.140000 0.295000 0.358000
H39 H 0.256000 0.024000 0.402000
H40 H 0.118000 0.062000 0.394000
H41 H 0.184000 0.068000 0.322000
H42 H 0.510000 0.151000 0.531000
H43 H 0.427000 0.140000 0.448000
H44 H 0.576000 0.388000 0.509000
H45 H 0.610000 0.280000 0.452000
H46 H 0.480000 0.380000 0.427000
H47 H 0.549000 0.301000 0.623000
H48 H 0.491000 0.360000 0.693000
H49 H 0.562000 0.136000 0.724000
H50 H 0.470000 0.067000 0.642000
H51 H 0.412000 0.139000 0.711000
H52 H 0.297000 0.360000 0.738000
H53 H 0.176000 0.446000 0.711000
H54 H 0.301000 0.646000 0.692000
H55 H 0.430000 0.551000 0.711000
H56 H 0.345000 0.587000 0.767000
C57 C -0.009500 0.547800 0.443400
C58 C 0.003600 0.603000 0.527030
C59 C -0.132500 0.651200 0.504090
C60 C -0.144200 0.605400 0.432340
C61 C 0.075800 0.579400 0.387990
C62 C 0.058100 0.714200 0.347200
C63 C 0.138000 0.728100 0.289500
H64 H 0.131000 0.815000 0.264000
H65 H 0.208000 0.680000 0.294000
H66 H 0.100000 0.638000 0.250000
H67 H 0.067000 0.791000 0.377000
H68 H -0.040000 0.726000 0.323000
H69 H 0.169000 0.563000 0.415000
H70 H 0.057000 0.506000 0.345000
C71 C -0.254500 0.619100 0.380420
C72 C -0.355200 0.684700 0.406140
C73 C -0.344400 0.728200 0.479960
C74 C -0.230900 0.712300 0.531480
C75 C -0.214400 0.758900 0.611000
C76 C -0.190600 0.911100 0.623000
H77 H -0.256000 0.976000 0.598000
H78 H -0.118000 0.938000 0.606000
H79 H -0.184000 0.932000 0.678000
H80 H -0.290000 0.734000 0.632000
H81 H -0.140000 0.705000 0.642000
C82 C -0.458000 0.788500 0.507000
C83 C -0.538900 0.678100 0.534000
H84 H -0.576000 0.612000 0.491000
H85 H -0.610000 0.720000 0.548000
H86 H -0.480000 0.620000 0.573000
H87 H -0.510000 0.849000 0.469000
H88 H -0.427000 0.860000 0.552000
C89 C -0.476600 0.713700 0.351400
C90 C -0.478700 0.854900 0.317400
H91 H -0.562000 0.864000 0.276000
H92 H -0.470000 0.933000 0.358000
H93 H -0.412000 0.861000 0.289000
H94 H -0.549000 0.699000 0.377000
H95 H -0.491000 0.640000 0.307000
C96 C -0.263800 0.568400 0.301910
C97 C -0.340600 0.438200 0.283400
H98 H -0.301000 0.354000 0.308000
H99 H -0.430000 0.449000 0.289000
H100 H -0.345000 0.413000 0.233000
H101 H -0.297000 0.640000 0.262000
H102 H -0.176000 0.554000 0.289000
C103 C 0.102500 0.700400 0.566550
C104 C 0.103600 0.842800 0.535400
C105 C 0.188600 0.940500 0.583100
H106 H 0.194000 1.026000 0.562000
H107 H 0.270000 0.899000 0.611000
H108 H 0.143000 0.962000 0.627000
H109 H 0.140000 0.832000 0.490000
H110 H 0.025000 0.874000 0.511000
H111 H 0.091000 0.707000 0.618000
H112 H 0.187000 0.660000 0.570000
C113 C 1.009500 0.452200 0.556600
C114 C 0.996400 0.397000 0.472970
C115 C 1.144200 0.394600 0.567660
C116 C 1.132500 0.348800 0.495910
C117 C 1.230900 0.287700 0.468520
C118 C 1.344400 0.271800 0.520040
C119 C 1.355200 0.315300 0.593860
C120 C 1.254500 0.380900 0.619580
C121 C 0.924200 0.420600 0.612010
C122 C 0.941900 0.285800 0.652800
C123 C 0.862000 0.271900 0.710500
C124 C 0.897500 0.299600 0.433450
C125 C 0.896400 0.157200 0.464600
C126 C 0.811400 0.059500 0.416900
C127 C 1.214400 0.241100 0.389000
C128 C 1.190600 0.088900 0.377000
C129 C 1.458000 0.211500 0.493000
C130 C 1.538900 0.321900 0.466000
C131 C 1.476600 0.286300 0.648600
C132 C 1.478700 0.145100 0.682600
C133 C 1.263800 0.431600 0.698090
C134 C 1.340600 0.561800 0.716600
H135 H 0.831000 0.437000 0.585000
H136 H 0.943000 0.494000 0.655000
H137 H 0.933000 0.209000 0.623000
H138 H 1.040000 0.274000 0.677000
H139 H 0.869000 0.185000 0.736000
H140 H 0.792000 0.320000 0.706000
H141 H 0.900000 0.362000 0.750000
H142 H 0.909000 0.293000 0.382000
H143 H 0.813000 0.340000 0.430000
H144 H 0.860000 0.168000 0.510000
H145 H 0.975000 0.126000 0.489000
H146 H 0.806000 -0.026000 0.438000
H147 H 0.730000 0.101000 0.389000
H148 H 0.857000 0.038000 0.373000
H149 H 1.290000 0.266000 0.368000
H150 H 1.140000 0.295000 0.358000
H151 H 1.256000 0.024000 0.402000
H152 H 1.118000 0.062000 0.394000
H153 H 1.184000 0.068000 0.322000
H154 H 1.510000 0.151000 0.531000
H155 H 1.427000 0.140000 0.448000
H156 H 1.576000 0.388000 0.509000
H157 H 1.610000 0.280000 0.452000
H158 H 1.480000 0.380000 0.427000
H159 H 1.549000 0.301000 0.623000
H160 H 1.491000 0.360000 0.693000
H161 H 1.562000 0.136000 0.724000
H162 H 1.470000 0.067000 0.642000
H163 H 1.412000 0.139000 0.711000
H164 H 1.297000 0.360000 0.738000
H165 H 1.176000 0.446000 0.711000
H166 H 1.301000 0.646000 0.692000
H167 H 1.430000 0.551000 0.711000
H168 H 1.345000 0.587000 0.767000
C169 C 0.990500 0.547800 0.443400
C170 C 1.003600 0.603000 0.527030
C171 C 0.867500 0.651200 0.504090
C172 C 0.855800 0.605400 0.432340
C173 C 1.075800 0.579400 0.387990
C174 C 1.058100 0.714200 0.347200
C175 C 1.138000 0.728100 0.289500
H176 H 1.131000 0.815000 0.264000
H177 H 1.208000 0.680000 0.294000
H178 H 1.100000 0.638000 0.250000
H179 H 1.067000 0.791000 0.377000
H180 H 0.960000 0.726000 0.323000
H181 H 1.169000 0.563000 0.415000
H182 H 1.057000 0.506000 0.345000
C183 C 0.745500 0.619100 0.380420
C184 C 0.644800 0.684700 0.406140
C185 C 0.655600 0.728200 0.479960
C186 C 0.769100 0.712300 0.531480
C187 C 0.785600 0.758900 0.611000
C188 C 0.809400 0.911100 0.623000
H189 H 0.744000 0.976000 0.598000
H190 H 0.882000 0.938000 0.606000
H191 H 0.816000 0.932000 0.678000
H192 H 0.710000 0.734000 0.632000
H193 H 0.860000 0.705000 0.642000
C194 C 0.542000 0.788500 0.507000
C195 C 0.461100 0.678100 0.534000
H196 H 0.424000 0.612000 0.491000
H197 H 0.390000 0.720000 0.548000
H198 H 0.520000 0.620000 0.573000
H199 H 0.490000 0.849000 0.469000
H200 H 0.573000 0.860000 0.552000
C201 C 0.523400 0.713700 0.351400
C202 C 0.521300 0.854900 0.317400
H203 H 0.438000 0.864000 0.276000
H204 H 0.530000 0.933000 0.358000
H205 H 0.588000 0.861000 0.289000
H206 H 0.451000 0.699000 0.377000
H207 H 0.509000 0.640000 0.307000
C208 C 0.736200 0.568400 0.301910
C209 C 0.659400 0.438200 0.283400
H210 H 0.699000 0.354000 0.308000
H211 H 0.570000 0.449000 0.289000
H212 H 0.655000 0.413000 0.233000
H213 H 0.703000 0.640000 0.262000
H214 H 0.824000 0.554000 0.289000
C215 C 1.102500 0.700400 0.566550
C216 C 1.103600 0.842800 0.535400
C217 C 1.188600 0.940500 0.583100
H218 H 1.194000 1.026000 0.562000
H219 H 1.270000 0.899000 0.611000
H220 H 1.143000 0.962000 0.627000
H221 H 1.140000 0.832000 0.490000
H222 H 1.025000 0.874000 0.511000
H223 H 1.091000 0.707000 0.618000
H224 H 1.187000 0.660000 0.570000
C225 C 0.490500 -0.047800 -0.056600
C226 C 0.503600 -0.103000 0.027030
C227 C 0.355800 -0.105400 -0.067660
C228 C 0.367500 -0.151200 0.004090
C229 C 0.269100 -0.212300 0.031480
C230 C 0.155600 -0.228200 -0.020040
C231 C 0.144800 -0.184700 -0.093860
C232 C 0.245500 -0.119100 -0.119580
C233 C 0.575800 -0.079400 -0.112010
C234 C 0.558100 -0.214200 -0.152800
C235 C 0.638000 -0.228100 -0.210500
C236 C 0.602500 -0.200400 0.066550
C237 C 0.603600 -0.342800 0.035400
C238 C 0.688600 -0.440500 0.083100
C239 C 0.285600 -0.258900 0.111000
C240 C 0.309400 -0.411100 0.123000
C241 C 0.042000 -0.288500 0.007000
C242 C -0.038900 -0.178100 0.034000
C243 C 0.023400 -0.213700 -0.148600
C244 C 0.021300 -0.354900 -0.182600
C245 C 0.236200 -0.068400 -0.198090
C246 C 0.159400 0.061800 -0.216600
H247 H 0.669000 -0.063000 -0.085000
H248 H 0.557000 -0.006000 -0.155000
H249 H 0.567000 -0.291000 -0.123000
H250 H 0.460000 -0.226000 -0.177000
H251 H 0.631000 -0.315000 -0.236000
H252 H 0.708000 -0.180000 -0.206000
H253 H 0.600000 -0.138000 -0.250000
H254 H 0.591000 -0.207000 0.118000
H255 H 0.687000 -0.160000 0.070000
H256 H 0.640000 -0.332000 -0.010000
H257 H 0.525000 -0.374000 0.011000
H258 H 0.694000 -0.526000 0.062000
H259 H 0.770000 -0.399000 0.111000
H260 H 0.643000 -0.462000 0.127000
H261 H 0.210000 -0.234000 0.132000
H262 H 0.360000 -0.205000 0.142000
H263 H 0.244000 -0.476000 0.098000
H264 H 0.382000 -0.438000 0.106000
H265 H 0.316000 -0.432000 0.178000
H266 H -0.010000 -0.349000 -0.031000
H267 H 0.073000 -0.360000 0.052000
H268 H -0.076000 -0.112000 -0.009000
H269 H -0.110000 -0.220000 0.048000
H270 H 0.020000 -0.120000 0.073000
H271 H -0.049000 -0.199000 -0.123000
H272 H 0.009000 -0.140000 -0.193000
H273 H -0.062000 -0.364000 -0.224000
H274 H 0.030000 -0.433000 -0.142000
H275 H 0.088000 -0.361000 -0.211000
H276 H 0.203000 -0.140000 -0.238000
H277 H 0.324000 -0.054000 -0.211000
H278 H 0.199000 0.146000 -0.192000
H279 H 0.070000 0.051000 -0.211000
H280 H 0.155000 0.087000 -0.267000
C281 C 0.509500 0.047800 0.056600
C282 C 0.496400 0.103000 -0.027030
C283 C 0.632500 0.151200 -0.004090
C284 C 0.644200 0.105400 0.067660
C285 C 0.424200 0.079400 0.112010
C286 C 0.441900 0.214200 0.152800
C287 C 0.362000 0.228100 0.210500
H288 H 0.369000 0.315000 0.236000
H289 H 0.292000 0.180000 0.206000
H290 H 0.400000 0.138000 0.250000
H291 H 0.433000 0.291000 0.123000
H292 H 0.540000 0.226000 0.177000
H293 H 0.331000 0.063000 0.085000
H294 H 0.443000 0.006000 0.155000
C295 C 0.754500 0.119100 0.119580
C296 C 0.855200 0.184700 0.093860
C297 C 0.844400 0.228200 0.020040
C298 C 0.730900 0.212300 -0.031480
C299 C 0.714400 0.258900 -0.111000
C300 C 0.690600 0.411100 -0.123000
H301 H 0.756000 0.476000 -0.098000
H302 H 0.618000 0.438000 -0.106000
H303 H 0.684000 0.432000 -0.178000
H304 H 0.790000 0.234000 -0.132000
H305 H 0.640000 0.205000 -0.142000
C306 C 0.958000 0.288500 -0.007000
C307 C 1.038900 0.178100 -0.034000
H308 H 1.076000 0.112000 0.009000
H309 H 1.110000 0.220000 -0.048000
H310 H 0.980000 0.120000 -0.073000
H311 H 1.010000 0.349000 0.031000
H312 H 0.927000 0.360000 -0.052000
C313 C 0.976600 0.213700 0.148600
C314 C 0.978700 0.354900 0.182600
H315 H 1.062000 0.364000 0.224000
H316 H 0.970000 0.433000 0.142000
H317 H 0.912000 0.361000 0.211000
H318 H 1.049000 0.199000 0.123000
H319 H 0.991000 0.140000 0.193000
C320 C 0.763800 0.068400 0.198090
C321 C 0.840600 -0.061800 0.216600
H322 H 0.801000 -0.146000 0.192000
H323 H 0.930000 -0.051000 0.211000
H324 H 0.845000 -0.087000 0.267000
H325 H 0.797000 0.140000 0.238000
H326 H 0.676000 0.054000 0.211000
C327 C 0.397500 0.200400 -0.066550
C328 C 0.396400 0.342800 -0.035400
C329 C 0.311400 0.440500 -0.083100
H330 H 0.306000 0.526000 -0.062000
H331 H 0.230000 0.399000 -0.111000
H332 H 0.357000 0.462000 -0.127000
H333 H 0.360000 0.332000 0.010000
H334 H 0.475000 0.374000 -0.011000
H335 H 0.409000 0.207000 -0.118000
H336 H 0.313000 0.160000 -0.070000
C337 C 0.490500 -0.047800 0.943400
C338 C 0.503600 -0.103000 1.027030
C339 C 0.355800 -0.105400 0.932340
C340 C 0.367500 -0.151200 1.004090
C341 C 0.269100 -0.212300 1.031480
C342 C 0.155600 -0.228200 0.979960
C343 C 0.144800 -0.184700 0.906140
C344 C 0.245500 -0.119100 0.880420
C345 C 0.575800 -0.079400 0.887990
C346 C 0.558100 -0.214200 0.847200
C347 C 0.638000 -0.228100 0.789500
C348 C 0.602500 -0.200400 1.066550
C349 C 0.603600 -0.342800 1.035400
C350 C 0.688600 -0.440500 1.083100
C351 C 0.285600 -0.258900 1.111000
C352 C 0.309400 -0.411100 1.123000
C353 C 0.042000 -0.288500 1.007000
C354 C -0.038900 -0.178100 1.034000
C355 C 0.023400 -0.213700 0.851400
C356 C 0.021300 -0.354900 0.817400
C357 C 0.236200 -0.068400 0.801910
C358 C 0.159400 0.061800 0.783400
H359 H 0.669000 -0.063000 0.915000
H360 H 0.557000 -0.006000 0.845000
H361 H 0.567000 -0.291000 0.877000
H362 H 0.460000 -0.226000 0.823000
H363 H 0.631000 -0.315000 0.764000
H364 H 0.708000 -0.180000 0.794000
H365 H 0.600000 -0.138000 0.750000
H366 H 0.591000 -0.207000 1.118000
H367 H 0.687000 -0.160000 1.070000
H368 H 0.640000 -0.332000 0.990000
H369 H 0.525000 -0.374000 1.011000
H370 H 0.694000 -0.526000 1.062000
H371 H 0.770000 -0.399000 1.111000
H372 H 0.643000 -0.462000 1.127000
H373 H 0.210000 -0.234000 1.132000
H374 H 0.360000 -0.205000 1.142000
H375 H 0.244000 -0.476000 1.098000
H376 H 0.382000 -0.438000 1.106000
H377 H 0.316000 -0.432000 1.178000
H378 H -0.010000 -0.349000 0.969000
H379 H 0.073000 -0.360000 1.052000
H380 H -0.076000 -0.112000 0.991000
H381 H -0.110000 -0.220000 1.048000
H382 H 0.020000 -0.120000 1.073000
H383 H -0.049000 -0.199000 0.877000
H384 H 0.009000 -0.140000 0.807000
H385 H -0.062000 -0.364000 0.776000
H386 H 0.030000 -0.433000 0.858000
H387 H 0.088000 -0.361000 0.789000
H388 H 0.203000 -0.140000 0.762000
H389 H 0.324000 -0.054000 0.789000
H390 H 0.199000 0.146000 0.808000
H391 H 0.070000 0.051000 0.789000
H392 H 0.155000 0.087000 0.733000
C393 C 0.509500 0.047800 1.056600
C394 C 0.496400 0.103000 0.972970
C395 C 0.632500 0.151200 0.995910
C396 C 0.644200 0.105400 1.067660
C397 C 0.424200 0.079400 1.112010
C398 C 0.441900 0.214200 1.152800
C399 C 0.362000 0.228100 1.210500
H400 H 0.369000 0.315000 1.236000
H401 H 0.292000 0.180000 1.206000
H402 H 0.400000 0.138000 1.250000
H403 H 0.433000 0.291000 1.123000
H404 H 0.540000 0.226000 1.177000
H405 H 0.331000 0.063000 1.085000
H406 H 0.443000 0.006000 1.155000
C407 C 0.754500 0.119100 1.119580
C408 C 0.855200 0.184700 1.093860
C409 C 0.844400 0.228200 1.020040
C410 C 0.730900 0.212300 0.968520
C411 C 0.714400 0.258900 0.889000
C412 C 0.690600 0.411100 0.877000
H413 H 0.756000 0.476000 0.902000
H414 H 0.618000 0.438000 0.894000
H415 H 0.684000 0.432000 0.822000
H416 H 0.790000 0.234000 0.868000
H417 H 0.640000 0.205000 0.858000
C418 C 0.958000 0.288500 0.993000
C419 C 1.038900 0.178100 0.966000
H420 H 1.076000 0.112000 1.009000
H421 H 1.110000 0.220000 0.952000
H422 H 0.980000 0.120000 0.927000
H423 H 1.010000 0.349000 1.031000
H424 H 0.927000 0.360000 0.948000
C425 C 0.976600 0.213700 1.148600
C426 C 0.978700 0.354900 1.182600
H427 H 1.062000 0.364000 1.224000
H428 H 0.970000 0.433000 1.142000
H429 H 0.912000 0.361000 1.211000
H430 H 1.049000 0.199000 1.123000
H431 H 0.991000 0.140000 1.193000
C432 C 0.763800 0.068400 1.198090
C433 C 0.840600 -0.061800 1.216600
H434 H 0.801000 -0.146000 1.192000
H435 H 0.930000 -0.051000 1.211000
H436 H 0.845000 -0.087000 1.267000
H437 H 0.797000 0.140000 1.238000
H438 H 0.676000 0.054000 1.211000
C439 C 0.397500 0.200400 0.933450
C440 C 0.396400 0.342800 0.964600
C441 C 0.311400 0.440500 0.916900
H442 H 0.306000 0.526000 0.938000
H443 H 0.230000 0.399000 0.889000
H444 H 0.357000 0.462000 0.873000
H445 H 0.360000 0.332000 1.010000
H446 H 0.475000 0.374000 0.989000
H447 H 0.409000 0.207000 0.882000
H448 H 0.313000 0.160000 0.930000
C449 C 0.490500 0.952200 -0.056600
C450 C 0.503600 0.897000 0.027030
C451 C 0.355800 0.894600 -0.067660
C452 C 0.367500 0.848800 0.004090
C453 C 0.269100 0.787700 0.031480
C454 C 0.155600 0.771800 -0.020040
C455 C 0.144800 0.815300 -0.093860
C456 C 0.245500 0.880900 -0.119580
C457 C 0.575800 0.920600 -0.112010
C458 C 0.558100 0.785800 -0.152800
C459 C 0.638000 0.771900 -0.210500
C460 C 0.602500 0.799600 0.066550
C461 C 0.603600 0.657200 0.035400
C462 C 0.688600 0.559500 0.083100
C463 C 0.285600 0.741100 0.111000
C464 C 0.309400 0.588900 0.123000
C465 C 0.042000 0.711500 0.007000
C466 C -0.038900 0.821900 0.034000
C467 C 0.023400 0.786300 -0.148600
C468 C 0.021300 0.645100 -0.182600
C469 C 0.236200 0.931600 -0.198090
C470 C 0.159400 1.061800 -0.216600
H471 H 0.669000 0.937000 -0.085000
H472 H 0.557000 0.994000 -0.155000
H473 H 0.567000 0.709000 -0.123000
H474 H 0.460000 0.774000 -0.177000
H475 H 0.631000 0.685000 -0.236000
H476 H 0.708000 0.820000 -0.206000
H477 H 0.600000 0.862000 -0.250000
H478 H 0.591000 0.793000 0.118000
H479 H 0.687000 0.840000 0.070000
H480 H 0.640000 0.668000 -0.010000
H481 H 0.525000 0.626000 0.011000
H482 H 0.694000 0.474000 0.062000
H483 H 0.770000 0.601000 0.111000
H484 H 0.643000 0.538000 0.127000
H485 H 0.210000 0.766000 0.132000
H486 H 0.360000 0.795000 0.142000
H487 H 0.244000 0.524000 0.098000
H488 H 0.382000 0.562000 0.106000
H489 H 0.316000 0.568000 0.178000
H490 H -0.010000 0.651000 -0.031000
H491 H 0.073000 0.640000 0.052000
H492 H -0.076000 0.888000 -0.009000
H493 H -0.110000 0.780000 0.048000
H494 H 0.020000 0.880000 0.073000
H495 H -0.049000 0.801000 -0.123000
H496 H 0.009000 0.860000 -0.193000
H497 H -0.062000 0.636000 -0.224000
H498 H 0.030000 0.567000 -0.142000
H499 H 0.088000 0.639000 -0.211000
H500 H 0.203000 0.860000 -0.238000
H501 H 0.324000 0.946000 -0.211000
H502 H 0.199000 1.146000 -0.192000
H503 H 0.070000 1.051000 -0.211000
H504 H 0.155000 1.087000 -0.267000
C505 C 0.509500 1.047800 0.056600
C506 C 0.496400 1.103000 -0.027030
C507 C 0.632500 1.151200 -0.004090
C508 C 0.644200 1.105400 0.067660
C509 C 0.424200 1.079400 0.112010
C510 C 0.441900 1.214200 0.152800
C511 C 0.362000 1.228100 0.210500
H512 H 0.369000 1.315000 0.236000
H513 H 0.292000 1.180000 0.206000
H514 H 0.400000 1.138000 0.250000
H515 H 0.433000 1.291000 0.123000
H516 H 0.540000 1.226000 0.177000
H517 H 0.331000 1.063000 0.085000
H518 H 0.443000 1.006000 0.155000
C519 C 0.754500 1.119100 0.119580
C520 C 0.855200 1.184700 0.093860
C521 C 0.844400 1.228200 0.020040
C522 C 0.730900 1.212300 -0.031480
C523 C 0.714400 1.258900 -0.111000
C524 C 0.690600 1.411100 -0.123000
H525 H 0.756000 1.476000 -0.098000
H526 H 0.618000 1.438000 -0.106000
H527 H 0.684000 1.432000 -0.178000
H528 H 0.790000 1.234000 -0.132000
H529 H 0.640000 1.205000 -0.142000
C530 C 0.958000 1.288500 -0.007000
C531 C 1.038900 1.178100 -0.034000
H532 H 1.076000 1.112000 0.009000
H533 H 1.110000 1.220000 -0.048000
H534 H 0.980000 1.120000 -0.073000
H535 H 1.010000 1.349000 0.031000
H536 H 0.927000 1.360000 -0.052000
C537 C 0.976600 1.213700 0.148600
C538 C 0.978700 1.354900 0.182600
H539 H 1.062000 1.364000 0.224000
H540 H 0.970000 1.433000 0.142000
H541 H 0.912000 1.361000 0.211000
H542 H 1.049000 1.199000 0.123000
H543 H 0.991000 1.140000 0.193000
C544 C 0.763800 1.068400 0.198090
C545 C 0.840600 0.938200 0.216600
H546 H 0.801000 0.854000 0.192000
H547 H 0.930000 0.949000 0.211000
H548 H 0.845000 0.913000 0.267000
H549 H 0.797000 1.140000 0.238000
H550 H 0.676000 1.054000 0.211000
C551 C 0.397500 1.200400 -0.066550
C552 C 0.396400 1.342800 -0.035400
C553 C 0.311400 1.440500 -0.083100
H554 H 0.306000 1.526000 -0.062000
H555 H 0.230000 1.399000 -0.111000
H556 H 0.357000 1.462000 -0.127000
H557 H 0.360000 1.332000 0.010000
H558 H 0.475000 1.374000 -0.011000
H559 H 0.409000 1.207000 -0.118000
H560 H 0.313000 1.160000 -0.070000
C561 C 0.490500 0.952200 0.943400
C562 C 0.503600 0.897000 1.027030
C563 C 0.355800 0.894600 0.932340
C564 C 0.367500 0.848800 1.004090
C565 C 0.269100 0.787700 1.031480
C566 C 0.155600 0.771800 0.979960
C567 C 0.144800 0.815300 0.906140
C568 C 0.245500 0.880900 0.880420
C569 C 0.575800 0.920600 0.887990
C570 C 0.558100 0.785800 0.847200
C571 C 0.638000 0.771900 0.789500
C572 C 0.602500 0.799600 1.066550
C573 C 0.603600 0.657200 1.035400
C574 C 0.688600 0.559500 1.083100
C575 C 0.285600 0.741100 1.111000
C576 C 0.309400 0.588900 1.123000
C577 C 0.042000 0.711500 1.007000
C578 C -0.038900 0.821900 1.034000
C579 C 0.023400 0.786300 0.851400
C580 C 0.021300 0.645100 0.817400
C581 C 0.236200 0.931600 0.801910
C582 C 0.159400 1.061800 0.783400
H583 H 0.669000 0.937000 0.915000
H584 H 0.557000 0.994000 0.845000
H585 H 0.567000 0.709000 0.877000
H586 H 0.460000 0.774000 0.823000
H587 H 0.631000 0.685000 0.764000
H588 H 0.708000 0.820000 0.794000
H589 H 0.600000 0.862000 0.750000
H590 H 0.591000 0.793000 1.118000
H591 H 0.687000 0.840000 1.070000
H592 H 0.640000 0.668000 0.990000
H593 H 0.525000 0.626000 1.011000
H594 H 0.694000 0.474000 1.062000
H595 H 0.770000 0.601000 1.111000
H596 H 0.643000 0.538000 1.127000
H597 H 0.210000 0.766000 1.132000
H598 H 0.360000 0.795000 1.142000
H599 H 0.244000 0.524000 1.098000
H600 H 0.382000 0.562000 1.106000
H601 H 0.316000 0.568000 1.178000
H602 H -0.010000 0.651000 0.969000
H603 H 0.073000 0.640000 1.052000
H604 H -0.076000 0.888000 0.991000
H605 H -0.110000 0.780000 1.048000
H606 H 0.020000 0.880000 1.073000
H607 H -0.049000 0.801000 0.877000
H608 H 0.009000 0.860000 0.807000
H609 H -0.062000 0.636000 0.776000
H610 H 0.030000 0.567000 0.858000
H611 H 0.088000 0.639000 0.789000
H612 H 0.203000 0.860000 0.762000
H613 H 0.324000 0.946000 0.789000
H614 H 0.199000 1.146000 0.808000
H615 H 0.070000 1.051000 0.789000
H616 H 0.155000 1.087000 0.733000
C617 C 0.509500 1.047800 1.056600
C618 C 0.496400 1.103000 0.972970
C619 C 0.632500 1.151200 0.995910
C620 C 0.644200 1.105400 1.067660
C621 C 0.424200 1.079400 1.112010
C622 C 0.441900 1.214200 1.152800
C623 C 0.362000 1.228100 1.210500
H624 H 0.369000 1.315000 1.236000
H625 H 0.292000 1.180000 1.206000
H626 H 0.400000 1.138000 1.250000
H627 H 0.433000 1.291000 1.123000
H628 H 0.540000 1.226000 1.177000
H629 H 0.331000 1.063000 1.085000
H630 H 0.443000 1.006000 1.155000
C631 C 0.754500 1.119100 1.119580
C632 C 0.855200 1.184700 1.093860
C633 C 0.844400 1.228200 1.020040
C634 C 0.730900 1.212300 0.968520
C635 C 0.714400 1.258900 0.889000
C636 C 0.690600 1.411100 0.877000
H637 H 0.756000 1.476000 0.902000
H638 H 0.618000 1.438000 0.894000
H639 H 0.684000 1.432000 0.822000
H640 H 0.790000 1.234000 0.868000
H641 H 0.640000 1.205000 0.858000
C642 C 0.958000 1.288500 0.993000
C643 C 1.038900 1.178100 0.966000
H644 H 1.076000 1.112000 1.009000
H645 H 1.110000 1.220000 0.952000
H646 H 0.980000 1.120000 0.927000
H647 H 1.010000 1.349000 1.031000
H648 H 0.927000 1.360000 0.948000
C649 C 0.976600 1.213700 1.148600
C650 C 0.978700 1.354900 1.182600
H651 H 1.062000 1.364000 1.224000
H652 H 0.970000 1.433000 1.142000
H653 H 0.912000 1.361000 1.211000
H654 H 1.049000 1.199000 1.123000
H655 H 0.991000 1.140000 1.193000
C656 C 0.763800 1.068400 1.198090
C657 C 0.840600 0.938200 1.216600
H658 H 0.801000 0.854000 1.192000
H659 H 0.930000 0.949000 1.211000
H660 H 0.845000 0.913000 1.267000
H661 H 0.797000 1.140000 1.238000
H662 H 0.676000 1.054000 1.211000
C663 C 0.397500 1.200400 0.933450
C664 C 0.396400 1.342800 0.964600
C665 C 0.311400 1.440500 0.916900
H666 H 0.306000 1.526000 0.938000
H667 H 0.230000 1.399000 0.889000
H668 H 0.357000 1.462000 0.873000
H669 H 0.360000 1.332000 1.010000
H670 H 0.475000 1.374000 0.989000
H671 H 0.409000 1.207000 0.882000
H672 H 0.313000 1.160000 0.930000

#END
