./ACENIG_from_xyz.cif_generated_by_CrystalShift
_symmetry_cell_setting triclinic
_symmetry_space_group_name_H-M 'P 1'
loop_
_symmetry_equiv_pos_site_id
_symmetry_equiv_pos_as_xyz
1 x,y,z
_cell_length_a 6.668000
_cell_length_b 8.699000
_cell_length_c 15.628000
_cell_angle_alpha 83.240000
_cell_angle_beta 79.400000
_cell_angle_gamma 74.430000
_cell_volume 856.095761
loop_
_atom_site_label
_atom_site_type_symbol
_atom_site_fract_x
_atom_site_fract_y
_atom_site_fract_z
O1 O -0.120800 0.536600 0.393600
O2 O -0.255400 1.074100 0.438700
N3 N 0.231300 0.428600 0.363900
N4 N -0.312700 0.828400 0.462300
H5 H -0.437700 0.863000 0.490300
H6 H -0.263600 0.728000 0.454900
C7 C 0.239500 0.818700 0.231800
C8 C -0.195000 0.930300 0.430400
C9 C -0.146400 0.852100 0.243800
H10 H -0.133600 0.737900 0.253700
H11 H -0.283700 0.907300 0.273200
C12 C 0.023100 0.859600 0.380500
H13 H 0.110000 0.925000 0.394600
C14 C 0.138000 0.688700 0.407500
H15 H 0.138400 0.681100 0.470500
C16 C 0.062500 0.546800 0.386400
C17 C -0.127900 0.900100 0.146000
H18 H -0.235500 0.869300 0.122800
H19 H -0.152100 1.015500 0.136800
C20 C 0.026600 0.894900 0.281600
H21 H 0.006600 1.010800 0.270100
C22 C 0.217700 0.277800 0.334900
H23 H 0.089800 0.250800 0.365400
H24 H 0.337000 0.192400 0.349000
C25 C 0.386600 0.713700 0.267900
H26 H 0.514700 0.676500 0.232200
C27 C 0.216800 0.292300 0.237900
C28 C 0.402700 0.262200 0.180100
H29 H 0.530300 0.229500 0.201200
C30 C 0.368100 0.647800 0.361400
H31 H 0.456400 0.687800 0.392600
C32 C 0.088200 0.821300 0.097400
H33 H 0.097000 0.857300 0.036000
H34 H 0.108600 0.706100 0.102400
C35 C 0.432500 0.464400 0.365700
H36 H 0.536600 0.425100 0.316000
H37 H 0.487300 0.419600 0.419100
C38 C 0.259800 0.863800 0.135300
H39 H 0.397300 0.807700 0.106500
H40 H 0.248000 0.977800 0.124700
C41 C 0.402100 0.279900 0.091700
H42 H 0.529300 0.258500 0.053600
C43 C 0.218100 0.328200 0.059300
H44 H 0.218500 0.341200 -0.000600
C45 C 0.030200 0.340200 0.204900
H46 H -0.097400 0.360800 0.242800
C47 C 0.031500 0.357700 0.116300
H48 H -0.095500 0.389800 0.094700
O49 O 1.120800 0.463400 0.606400
O50 O 1.255400 -0.074100 0.561300
N51 N 0.768700 0.571400 0.636100
N52 N 1.312700 0.171600 0.537700
H53 H 1.437700 0.137000 0.509700
H54 H 1.263600 0.272000 0.545100
C55 C 0.760500 0.181300 0.768200
C56 C 1.195000 0.069700 0.569600
C57 C 1.146400 0.147900 0.756200
H58 H 1.133600 0.262100 0.746300
H59 H 1.283700 0.092700 0.726800
C60 C 0.976900 0.140400 0.619500
H61 H 0.890000 0.075000 0.605400
C62 C 0.862000 0.311300 0.592500
H63 H 0.861600 0.318900 0.529500
C64 C 0.937500 0.453200 0.613600
C65 C 1.127900 0.099900 0.854000
H66 H 1.235500 0.130700 0.877200
H67 H 1.152100 -0.015500 0.863200
C68 C 0.973400 0.105100 0.718400
H69 H 0.993400 -0.010800 0.729900
C70 C 0.782300 0.722200 0.665100
H71 H 0.910200 0.749200 0.634600
H72 H 0.663000 0.807600 0.651000
C73 C 0.613400 0.286300 0.732100
H74 H 0.485300 0.323500 0.767800
C75 C 0.783200 0.707700 0.762100
C76 C 0.597300 0.737800 0.819900
H77 H 0.469700 0.770500 0.798800
C78 C 0.631900 0.352200 0.638600
H79 H 0.543600 0.312200 0.607400
C80 C 0.911800 0.178700 0.902600
H81 H 0.903000 0.142700 0.964000
H82 H 0.891400 0.293900 0.897600
C83 C 0.567500 0.535600 0.634300
H84 H 0.463400 0.574900 0.684000
H85 H 0.512700 0.580400 0.580900
C86 C 0.740200 0.136200 0.864700
H87 H 0.602700 0.192300 0.893500
H88 H 0.752000 0.022200 0.875300
C89 C 0.597900 0.720100 0.908300
H90 H 0.470700 0.741500 0.946400
C91 C 0.781900 0.671800 0.940700
H92 H 0.781500 0.658800 1.000600
C93 C 0.969800 0.659800 0.795100
H94 H 1.097400 0.639200 0.757200
C95 C 0.968500 0.642300 0.883700
H96 H 1.095500 0.610200 0.905300

#END
