./ACENEC_from_xyz.cif_generated_by_CrystalShift
_symmetry_cell_setting triclinic
_symmetry_space_group_name_H-M 'P 1'
loop_
_symmetry_equiv_pos_site_id
_symmetry_equiv_pos_as_xyz
1 x,y,z
_cell_length_a 28.774000
_cell_length_b 8.907000
_cell_length_c 6.089000
_cell_angle_alpha 90.000000
_cell_angle_beta 90.000000
_cell_angle_gamma 90.000000
_cell_volume 1560.549920
loop_
_atom_site_label
_atom_site_type_symbol
_atom_site_fract_x
_atom_site_fract_y
_atom_site_fract_z
N1 N 0.079670 0.153100 0.099300
N2 N 0.022540 -0.325600 0.035400
H3 H 0.003170 -0.391500 -0.012300
H4 H 0.027130 -0.244300 -0.037600
O5 O 0.047350 -0.036600 -0.098900
O6 O 0.039830 -0.462800 0.329300
C7 C 0.063730 0.012200 0.074500
C8 C 0.067870 -0.068500 0.291300
H9 H 0.038470 -0.057900 0.371100
C10 C 0.081510 -0.234800 0.288700
H11 H 0.089600 -0.259800 0.440700
C12 C 0.126020 -0.255500 0.156700
H13 H 0.137230 -0.357400 0.175100
H14 H 0.119460 -0.240200 0.002000
C15 C 0.162970 -0.147400 0.228600
C16 C 0.152880 -0.028000 0.348600
H17 H 0.177780 0.028700 0.399600
C18 C 0.105310 0.024400 0.410000
H19 H 0.100860 0.021200 0.569500
C20 C 0.096340 0.182700 0.319900
H21 H 0.073090 0.234800 0.406500
H22 H 0.124660 0.241700 0.317500
C23 C 0.076840 0.268000 -0.066500
H24 H 0.061030 0.354400 -0.004700
H25 H 0.057980 0.230800 -0.186800
C26 C 0.122970 0.318400 -0.157000
C27 C 0.162010 0.228100 -0.146100
H28 H 0.160390 0.135000 -0.077300
C29 C 0.203600 0.276100 -0.237700
H30 H 0.229600 0.214200 -0.233500
C31 C 0.206200 0.414700 -0.334500
H32 H 0.234300 0.448600 -0.391600
C33 C 0.167800 0.502200 -0.346800
H34 H 0.169600 0.595000 -0.416400
C35 C 0.126300 0.456100 -0.258000
H36 H 0.100300 0.518200 -0.266300
C37 C 0.045170 -0.349200 0.220000
C38 C 0.211420 -0.184400 0.152900
H39 H 0.211700 -0.194100 -0.004200
H40 H 0.221200 -0.277300 0.218300
H41 H 0.232200 -0.105600 0.196200
N42 N 0.920330 0.846900 0.599300
N43 N 0.977460 1.325600 0.535400
H44 H 0.996830 1.391500 0.487700
H45 H 0.972870 1.244300 0.462400
O46 O 0.952650 1.036600 0.401100
O47 O 0.960170 1.462800 0.829300
C48 C 0.936270 0.987800 0.574500
C49 C 0.932130 1.068500 0.791300
H50 H 0.961530 1.057900 0.871100
C51 C 0.918490 1.234800 0.788700
H52 H 0.910400 1.259800 0.940700
C53 C 0.873980 1.255500 0.656700
H54 H 0.862770 1.357400 0.675100
H55 H 0.880540 1.240200 0.502000
C56 C 0.837030 1.147400 0.728600
C57 C 0.847120 1.028000 0.848600
H58 H 0.822220 0.971300 0.899600
C59 C 0.894690 0.975600 0.910000
H60 H 0.899140 0.978800 1.069500
C61 C 0.903660 0.817300 0.819900
H62 H 0.926910 0.765200 0.906500
H63 H 0.875340 0.758300 0.817500
C64 C 0.923160 0.732000 0.433500
H65 H 0.938970 0.645600 0.495300
H66 H 0.942020 0.769200 0.313200
C67 C 0.877030 0.681600 0.343000
C68 C 0.837990 0.771900 0.353900
H69 H 0.839610 0.865000 0.422700
C70 C 0.796400 0.723900 0.262300
H71 H 0.770400 0.785800 0.266500
C72 C 0.793800 0.585300 0.165500
H73 H 0.765700 0.551400 0.108400
C74 C 0.832200 0.497800 0.153200
H75 H 0.830400 0.405000 0.083600
C76 C 0.873700 0.543900 0.242000
H77 H 0.899700 0.481800 0.233700
C78 C 0.954830 1.349200 0.720000
C79 C 0.788580 1.184400 0.652900
H80 H 0.788300 1.194100 0.495800
H81 H 0.778800 1.277300 0.718300
H82 H 0.767800 1.105600 0.696200
N83 N 0.420330 0.153100 0.599300
N84 N 0.477460 -0.325600 0.535400
H85 H 0.496830 -0.391500 0.487700
H86 H 0.472870 -0.244300 0.462400
O87 O 0.452650 -0.036600 0.401100
O88 O 0.460170 -0.462800 0.829300
C89 C 0.436270 0.012200 0.574500
C90 C 0.432130 -0.068500 0.791300
H91 H 0.461530 -0.057900 0.871100
C92 C 0.418490 -0.234800 0.788700
H93 H 0.410400 -0.259800 0.940700
C94 C 0.373980 -0.255500 0.656700
H95 H 0.362770 -0.357400 0.675100
H96 H 0.380540 -0.240200 0.502000
C97 C 0.337030 -0.147400 0.728600
C98 C 0.347120 -0.028000 0.848600
H99 H 0.322220 0.028700 0.899600
C100 C 0.394690 0.024400 0.910000
H101 H 0.399140 0.021200 1.069500
C102 C 0.403660 0.182700 0.819900
H103 H 0.426910 0.234800 0.906500
H104 H 0.375340 0.241700 0.817500
C105 C 0.423160 0.268000 0.433500
H106 H 0.438970 0.354400 0.495300
H107 H 0.442020 0.230800 0.313200
C108 C 0.377030 0.318400 0.343000
C109 C 0.337990 0.228100 0.353900
H110 H 0.339610 0.135000 0.422700
C111 C 0.296400 0.276100 0.262300
H112 H 0.270400 0.214200 0.266500
C113 C 0.293800 0.414700 0.165500
H114 H 0.265700 0.448600 0.108400
C115 C 0.332200 0.502200 0.153200
H116 H 0.330400 0.595000 0.083600
C117 C 0.373700 0.456100 0.242000
H118 H 0.399700 0.518200 0.233700
C119 C 0.454830 -0.349200 0.720000
C120 C 0.288580 -0.184400 0.652900
H121 H 0.288300 -0.194100 0.495800
H122 H 0.278800 -0.277300 0.718300
H123 H 0.267800 -0.105600 0.696200
N124 N 0.579670 0.846900 0.099300
N125 N 0.522540 1.325600 0.035400
H126 H 0.503170 1.391500 -0.012300
H127 H 0.527130 1.244300 -0.037600
O128 O 0.547350 1.036600 -0.098900
O129 O 0.539830 1.462800 0.329300
C130 C 0.563730 0.987800 0.074500
C131 C 0.567870 1.068500 0.291300
H132 H 0.538470 1.057900 0.371100
C133 C 0.581510 1.234800 0.288700
H134 H 0.589600 1.259800 0.440700
C135 C 0.626020 1.255500 0.156700
H136 H 0.637230 1.357400 0.175100
H137 H 0.619460 1.240200 0.002000
C138 C 0.662970 1.147400 0.228600
C139 C 0.652880 1.028000 0.348600
H140 H 0.677780 0.971300 0.399600
C141 C 0.605310 0.975600 0.410000
H142 H 0.600860 0.978800 0.569500
C143 C 0.596340 0.817300 0.319900
H144 H 0.573090 0.765200 0.406500
H145 H 0.624660 0.758300 0.317500
C146 C 0.576840 0.732000 -0.066500
H147 H 0.561030 0.645600 -0.004700
H148 H 0.557980 0.769200 -0.186800
C149 C 0.622970 0.681600 -0.157000
C150 C 0.662010 0.771900 -0.146100
H151 H 0.660390 0.865000 -0.077300
C152 C 0.703600 0.723900 -0.237700
H153 H 0.729600 0.785800 -0.233500
C154 C 0.706200 0.585300 -0.334500
H155 H 0.734300 0.551400 -0.391600
C156 C 0.667800 0.497800 -0.346800
H157 H 0.669600 0.405000 -0.416400
C158 C 0.626300 0.543900 -0.258000
H159 H 0.600300 0.481800 -0.266300
C160 C 0.545170 1.349200 0.220000
C161 C 0.711420 1.184400 0.152900
H162 H 0.711700 1.194100 -0.004200
H163 H 0.721200 1.277300 0.218300
H164 H 0.732200 1.105600 0.196200

#END
