
#######################################################################
#
#                 Cambridge Crystallographic Data Centre
#                                CCDC 
#
#######################################################################
#
# If this CIF has been generated from an entry in the Cambridge 
# Structural Database, then it will include bibliographic, chemical, 
# crystal, experimental, refinement or atomic coordinate data resulting 
# from the CCDC's data processing and validation procedures.
#
#######################################################################

data_ACEQAA
_symmetry_cell_setting           orthorhombic
_symmetry_space_group_name_H-M   'P n m a'
_symmetry_Int_Tables_number      62
_space_group_name_Hall           '-P 2ac 2n'
loop_
_symmetry_equiv_pos_site_id
_symmetry_equiv_pos_as_xyz
1 x,y,z
2 1/2-x,-y,1/2+z
3 -x,1/2+y,-z
4 1/2+x,1/2-y,1/2-z
5 -x,-y,-z
6 1/2+x,y,1/2-z
7 x,1/2-y,z
8 1/2-x,1/2+y,1/2+z
_cell_length_a                   12.747(2)
_cell_length_b                   13.590(2)
_cell_length_c                   9.177(2)
_cell_angle_alpha                90
_cell_angle_beta                 90
_cell_angle_gamma                90
_cell_volume                     1589.75
loop_
_atom_site_label
_atom_site_type_symbol
_atom_site_fract_x
_atom_site_fract_y
_atom_site_fract_z
Pt1 Pt 0.49226(6) 0.7500 0.82825(7)
Cl1 Cl 0.6736(3) 0.3776(3) 0.4825(5)
C1 C 0.5989(10) 0.5622(12) 0.7916(15)
H1 H 0.5893(10) 0.5594(12) 0.8920(15)
N1 N 0.5787(8) 0.6466(8) 0.7245(11)
Cl2 Cl 0.3889(3) 0.6322(3) 0.9347(4)
C2 C 0.6328(10) 0.4787(11) 0.7221(16)
H2 H 0.6494(10) 0.4217(11) 0.7733(16)
C3 C 0.6410(10) 0.4836(10) 0.5735(17)
C4 C 0.6223(9) 0.5694(10) 0.4964(16)
C5 C 0.5996(9) 0.6586(10) 0.5779(13)
C6 C 0.6238(10) 0.5752(13) 0.3406(16)
H3 H 0.6329(10) 0.5180(13) 0.2865(16)
C7 C 0.6122(11) 0.6614(12) 0.2708(15)
H4 H 0.6123(11) 0.6628(12) 0.1694(15)
C8 C 0.6001(14) 0.7500 0.3497(21)
C9 C 0.5922(12) 0.7500 0.5060(21)
C5F C 0.5996(9) 0.8414(10) 0.5779(13)
N1F N 0.5787(8) 0.8534(8) 0.7245(11)
Cl2F Cl 0.3889(3) 0.8678(3) 0.9347(4)
C1F C 0.5989(10) 0.9378(12) 0.7916(15)
H1F H 0.5893(10) 0.9406(12) 0.8920(15)
C2F C 0.6328(10) 1.0213(11) 0.7221(16)
H2F H 0.6494(10) 1.0783(11) 0.7733(16)
C3F C 0.6410(10) 1.0164(10) 0.5735(17)
Cl1F Cl 0.6736(3) 1.1224(3) 0.4825(5)
C4F C 0.6223(9) 0.9306(10) 0.4964(16)
C6F C 0.6238(10) 0.9248(13) 0.3406(16)
H3F H 0.6329(10) 0.9820(13) 0.2865(16)
C7F C 0.6122(11) 0.8386(12) 0.2708(15)
H4F H 0.6123(11) 0.8372(12) 0.1694(15)
Pt1 Pt 1.00774(6) 0.2500 0.32825(7)
Cl1 Cl 0.8264(3) 0.6224(3) -0.0175(5)
C1 C 0.9011(10) 0.4378(12) 0.2916(15)
H1 H 0.9107(10) 0.4406(12) 0.3920(15)
N1 N 0.9213(8) 0.3534(8) 0.2245(11)
Cl2 Cl 1.1111(3) 0.3678(3) 0.4347(4)
C2 C 0.8672(10) 0.5213(11) 0.2221(16)
H2 H 0.8506(10) 0.5783(11) 0.2733(16)
C3 C 0.8590(10) 0.5164(10) 0.0735(17)
C4 C 0.8777(9) 0.4306(10) -0.0036(16)
C5 C 0.9004(9) 0.3414(10) 0.0779(13)
C6 C 0.8762(10) 0.4248(13) -0.1594(16)
H3 H 0.8671(10) 0.4820(13) -0.2135(16)
C7 C 0.8878(11) 0.3386(12) -0.2292(15)
H4 H 0.8877(11) 0.3372(12) -0.3306(15)
C8 C 0.8999(14) 0.2500 -0.1503(21)
C9 C 0.9078(12) 0.2500 0.0060(21)
C5F C 0.9004(9) 0.1586(10) 0.0779(13)
N1F N 0.9213(8) 0.1466(8) 0.2245(11)
Cl2F Cl 1.1111(3) 0.1322(3) 0.4347(4)
C1F C 0.9011(10) 0.0622(12) 0.2916(15)
H1F H 0.9107(10) 0.0594(12) 0.3920(15)
C2F C 0.8672(10) -0.0213(11) 0.2221(16)
H2F H 0.8506(10) -0.0783(11) 0.2733(16)
C3F C 0.8590(10) -0.0164(10) 0.0735(17)
Cl1F Cl 0.8264(3) -0.1224(3) -0.0175(5)
C4F C 0.8777(9) 0.0694(10) -0.0036(16)
C6F C 0.8762(10) 0.0752(13) -0.1594(16)
H3F H 0.8671(10) 0.0180(13) -0.2135(16)
C7F C 0.8878(11) 0.1614(12) -0.2292(15)
H4F H 0.8877(11) 0.1628(12) -0.3306(15)
Pt1 Pt 0.50774(6) 0.2500 0.17175(7)
Cl1 Cl 0.3264(3) -0.1224(3) 0.5175(5)
C1 C 0.4011(10) 0.0622(12) 0.2084(15)
H1 H 0.4107(10) 0.0594(12) 0.1080(15)
N1 N 0.4213(8) 0.1466(8) 0.2755(11)
Cl2 Cl 0.6111(3) 0.1322(3) 0.0653(4)
C2 C 0.3672(10) -0.0213(11) 0.2779(16)
H2 H 0.3506(10) -0.0783(11) 0.2267(16)
C3 C 0.3590(10) -0.0164(10) 0.4265(17)
C4 C 0.3777(9) 0.0694(10) 0.5036(16)
C5 C 0.4004(9) 0.1586(10) 0.4221(13)
C6 C 0.3762(10) 0.0752(13) 0.6594(16)
H3 H 0.3671(10) 0.0180(13) 0.7135(16)
C7 C 0.3878(11) 0.1614(12) 0.7292(15)
H4 H 0.3877(11) 0.1628(12) 0.8306(15)
C8 C 0.3999(14) 0.2500 0.6503(21)
C9 C 0.4078(12) 0.2500 0.4940(21)
C5F C 0.4004(9) 0.3414(10) 0.4221(13)
N1F N 0.4213(8) 0.3534(8) 0.2755(11)
Cl2F Cl 0.6111(3) 0.3678(3) 0.0653(4)
C1F C 0.4011(10) 0.4378(12) 0.2084(15)
H1F H 0.4107(10) 0.4406(12) 0.1080(15)
C2F C 0.3672(10) 0.5213(11) 0.2779(16)
H2F H 0.3506(10) 0.5783(11) 0.2267(16)
C3F C 0.3590(10) 0.5164(10) 0.4265(17)
Cl1F Cl 0.3264(3) 0.6224(3) 0.5175(5)
C4F C 0.3777(9) 0.4306(10) 0.5036(16)
C6F C 0.3762(10) 0.4248(13) 0.6594(16)
H3F H 0.3671(10) 0.4820(13) 0.7135(16)
C7F C 0.3878(11) 0.3386(12) 0.7292(15)
H4F H 0.3877(11) 0.3372(12) 0.8306(15)
Pt1 Pt -0.00774(6) 0.7500 0.67175(7)
Cl1 Cl 0.1736(3) 1.1224(3) 1.0175(5)
C1 C 0.0989(10) 0.9378(12) 0.7084(15)
H1 H 0.0893(10) 0.9406(12) 0.6080(15)
N1 N 0.0787(8) 0.8534(8) 0.7755(11)
Cl2 Cl -0.1111(3) 0.8678(3) 0.5653(4)
C2 C 0.1328(10) 1.0213(11) 0.7779(16)
H2 H 0.1494(10) 1.0783(11) 0.7267(16)
C3 C 0.1410(10) 1.0164(10) 0.9265(17)
C4 C 0.1223(9) 0.9306(10) 1.0036(16)
C5 C 0.0996(9) 0.8414(10) 0.9221(13)
C6 C 0.1238(10) 0.9248(13) 1.1594(16)
H3 H 0.1329(10) 0.9820(13) 1.2135(16)
C7 C 0.1122(11) 0.8386(12) 1.2292(15)
H4 H 0.1123(11) 0.8372(12) 1.3306(15)
C8 C 0.1001(14) 0.7500 1.1503(21)
C9 C 0.0922(12) 0.7500 0.9940(21)
C5F C 0.0996(9) 0.6586(10) 0.9221(13)
N1F N 0.0787(8) 0.6466(8) 0.7755(11)
Cl2F Cl -0.1111(3) 0.6322(3) 0.5653(4)
C1F C 0.0989(10) 0.5622(12) 0.7084(15)
H1F H 0.0893(10) 0.5594(12) 0.6080(15)
C2F C 0.1328(10) 0.4787(11) 0.7779(16)
H2F H 0.1494(10) 0.4217(11) 0.7267(16)
C3F C 0.1410(10) 0.4836(10) 0.9265(17)
Cl1F Cl 0.1736(3) 0.3776(3) 1.0175(5)
C4F C 0.1223(9) 0.5694(10) 1.0036(16)
C6F C 0.1238(10) 0.5752(13) 1.1594(16)
H3F H 0.1329(10) 0.5180(13) 1.2135(16)
C7F C 0.1122(11) 0.6614(12) 1.2292(15)
H4F H 0.1123(11) 0.6628(12) 1.3306(15)

#END
