
#######################################################################
#
#                 Cambridge Crystallographic Data Centre
#                                CCDC 
#
#######################################################################
#
# If this CIF has been generated from an entry in the Cambridge 
# Structural Database, then it will include bibliographic, chemical, 
# crystal, experimental, refinement or atomic coordinate data resulting 
# from the CCDC's data processing and validation procedures.
#
#######################################################################

data_ACRTMA
_symmetry_cell_setting           monoclinic
_symmetry_space_group_name_H-M   'P 21/c'
_symmetry_Int_Tables_number      14
_space_group_name_Hall           '-P 2ybc'
loop_
_symmetry_equiv_pos_site_id
_symmetry_equiv_pos_as_xyz
1 x,y,z
2 -x,1/2+y,1/2-z
3 -x,-y,-z
4 x,1/2-y,1/2+z
_cell_length_a                   7.334(5)
_cell_length_b                   18.62(1)
_cell_length_c                   8.426(5)
_cell_angle_alpha                90
_cell_angle_beta                 125.77
_cell_angle_gamma                90
_cell_volume                     933.6
loop_
_atom_site_label
_atom_site_type_symbol
_atom_site_fract_x
_atom_site_fract_y
_atom_site_fract_z
S1 S 0.75220 0.18590 0.11520
C8 C 0.63020 -0.01590 0.20490
C9 C 0.64250 0.04990 0.13580
C10 C 0.78770 0.11020 0.26250
C11 C 0.55600 0.13890 -0.10640
C12 C 0.51530 0.06530 -0.06350
O1 O 0.91500 0.10960 0.43720
O2 O 0.47360 0.16360 -0.26820
H5 H 0.72300 -0.03300 0.35800
S1B S 0.24780 -0.18590 -0.11520
C8B C 0.36980 0.01590 -0.20490
C9B C 0.35750 -0.04990 -0.13580
C10B C 0.21230 -0.11020 -0.26250
C11B C 0.44400 -0.13890 0.10640
C12B C 0.48470 -0.06530 0.06350
O1B O 0.08500 -0.10960 -0.43720
O2B O 0.52640 -0.16360 0.26820
H5B H 0.27700 0.03300 -0.35800
S1 S 0.75220 0.18590 1.11520
C8 C 0.63020 -0.01590 1.20490
C9 C 0.64250 0.04990 1.13580
C10 C 0.78770 0.11020 1.26250
C11 C 0.55600 0.13890 0.89360
C12 C 0.51530 0.06530 0.93650
O1 O 0.91500 0.10960 1.43720
O2 O 0.47360 0.16360 0.73180
H5 H 0.72300 -0.03300 1.35800
S1B S 0.24780 -0.18590 0.88480
C8B C 0.36980 0.01590 0.79510
C9B C 0.35750 -0.04990 0.86420
C10B C 0.21230 -0.11020 0.73750
C11B C 0.44400 -0.13890 1.10640
C12B C 0.48470 -0.06530 1.06350
O1B O 0.08500 -0.10960 0.56280
O2B O 0.52640 -0.16360 1.26820
H5B H 0.27700 0.03300 0.64200
S1 S 0.75220 1.18590 0.11520
C8 C 0.63020 0.98410 0.20490
C9 C 0.64250 1.04990 0.13580
C10 C 0.78770 1.11020 0.26250
C11 C 0.55600 1.13890 -0.10640
C12 C 0.51530 1.06530 -0.06350
O1 O 0.91500 1.10960 0.43720
O2 O 0.47360 1.16360 -0.26820
H5 H 0.72300 0.96700 0.35800
S1B S 0.24780 0.81410 -0.11520
C8B C 0.36980 1.01590 -0.20490
C9B C 0.35750 0.95010 -0.13580
C10B C 0.21230 0.88980 -0.26250
C11B C 0.44400 0.86110 0.10640
C12B C 0.48470 0.93470 0.06350
O1B O 0.08500 0.89040 -0.43720
O2B O 0.52640 0.83640 0.26820
H5B H 0.27700 1.03300 -0.35800
S1 S 0.75220 1.18590 1.11520
C8 C 0.63020 0.98410 1.20490
C9 C 0.64250 1.04990 1.13580
C10 C 0.78770 1.11020 1.26250
C11 C 0.55600 1.13890 0.89360
C12 C 0.51530 1.06530 0.93650
O1 O 0.91500 1.10960 1.43720
O2 O 0.47360 1.16360 0.73180
H5 H 0.72300 0.96700 1.35800
S1B S 0.24780 0.81410 0.88480
C8B C 0.36980 1.01590 0.79510
C9B C 0.35750 0.95010 0.86420
C10B C 0.21230 0.88980 0.73750
C11B C 0.44400 0.86110 1.10640
C12B C 0.48470 0.93470 1.06350
O1B O 0.08500 0.89040 0.56280
O2B O 0.52640 0.83640 1.26820
H5B H 0.27700 1.03300 0.64200
S1 S 0.24780 0.68590 0.38480
C8 C 0.36980 0.48410 0.29510
C9 C 0.35750 0.54990 0.36420
C10 C 0.21230 0.61020 0.23750
C11 C 0.44400 0.63890 0.60640
C12 C 0.48470 0.56530 0.56350
O1 O 0.08500 0.60960 0.06280
O2 O 0.52640 0.66360 0.76820
H5 H 0.27700 0.46700 0.14200
S1B S 0.75220 0.31410 0.61520
C8B C 0.63020 0.51590 0.70490
C9B C 0.64250 0.45010 0.63580
C10B C 0.78770 0.38980 0.76250
C11B C 0.55600 0.36110 0.39360
C12B C 0.51530 0.43470 0.43650
O1B O 0.91500 0.39040 0.93720
O2B O 0.47360 0.33640 0.23180
H5B H 0.72300 0.53300 0.85800
C1 C 0.13010 -0.01810 0.20320
C2 C 0.14880 0.04710 0.14360
C3 C 0.30120 0.09820 0.28950
C4 C 0.32120 0.16450 0.23250
C5 C 0.19080 0.18470 0.03060
C6 C 0.04570 0.13690 -0.11120
C7 C -0.02030 -0.06700 0.05680
H1 H 0.38800 0.08200 0.44300
H2 H 0.44500 0.20200 0.35700
H3 H 0.23400 0.24000 0.00400
H4 H -0.02400 0.15700 -0.24700
C1B C -0.13010 0.01810 -0.20320
C2B C -0.14880 -0.04710 -0.14360
C3B C -0.30120 -0.09820 -0.28950
C4B C -0.32120 -0.16450 -0.23250
C5B C -0.19080 -0.18470 -0.03060
C6B C -0.04570 -0.13690 0.11120
C7B C 0.02030 0.06700 -0.05680
H1B H -0.38800 -0.08200 -0.44300
H2B H -0.44500 -0.20200 -0.35700
H3B H -0.23400 -0.24000 -0.00400
H4B H 0.02400 -0.15700 0.24700
C1 C 0.13010 -0.01810 1.20320
C2 C 0.14880 0.04710 1.14360
C3 C 0.30120 0.09820 1.28950
C4 C 0.32120 0.16450 1.23250
C5 C 0.19080 0.18470 1.03060
C6 C 0.04570 0.13690 0.88880
C7 C -0.02030 -0.06700 1.05680
H1 H 0.38800 0.08200 1.44300
H2 H 0.44500 0.20200 1.35700
H3 H 0.23400 0.24000 1.00400
H4 H -0.02400 0.15700 0.75300
C1B C -0.13010 0.01810 0.79680
C2B C -0.14880 -0.04710 0.85640
C3B C -0.30120 -0.09820 0.71050
C4B C -0.32120 -0.16450 0.76750
C5B C -0.19080 -0.18470 0.96940
C6B C -0.04570 -0.13690 1.11120
C7B C 0.02030 0.06700 0.94320
H1B H -0.38800 -0.08200 0.55700
H2B H -0.44500 -0.20200 0.64300
H3B H -0.23400 -0.24000 0.99600
H4B H 0.02400 -0.15700 1.24700
C1 C 0.13010 0.98190 0.20320
C2 C 0.14880 1.04710 0.14360
C3 C 0.30120 1.09820 0.28950
C4 C 0.32120 1.16450 0.23250
C5 C 0.19080 1.18470 0.03060
C6 C 0.04570 1.13690 -0.11120
C7 C -0.02030 0.93300 0.05680
H1 H 0.38800 1.08200 0.44300
H2 H 0.44500 1.20200 0.35700
H3 H 0.23400 1.24000 0.00400
H4 H -0.02400 1.15700 -0.24700
C1B C -0.13010 1.01810 -0.20320
C2B C -0.14880 0.95290 -0.14360
C3B C -0.30120 0.90180 -0.28950
C4B C -0.32120 0.83550 -0.23250
C5B C -0.19080 0.81530 -0.03060
C6B C -0.04570 0.86310 0.11120
C7B C 0.02030 1.06700 -0.05680
H1B H -0.38800 0.91800 -0.44300
H2B H -0.44500 0.79800 -0.35700
H3B H -0.23400 0.76000 -0.00400
H4B H 0.02400 0.84300 0.24700
C1 C 0.13010 0.98190 1.20320
C2 C 0.14880 1.04710 1.14360
C3 C 0.30120 1.09820 1.28950
C4 C 0.32120 1.16450 1.23250
C5 C 0.19080 1.18470 1.03060
C6 C 0.04570 1.13690 0.88880
C7 C -0.02030 0.93300 1.05680
H1 H 0.38800 1.08200 1.44300
H2 H 0.44500 1.20200 1.35700
H3 H 0.23400 1.24000 1.00400
H4 H -0.02400 1.15700 0.75300
C1B C -0.13010 1.01810 0.79680
C2B C -0.14880 0.95290 0.85640
C3B C -0.30120 0.90180 0.71050
C4B C -0.32120 0.83550 0.76750
C5B C -0.19080 0.81530 0.96940
C6B C -0.04570 0.86310 1.11120
C7B C 0.02030 1.06700 0.94320
H1B H -0.38800 0.91800 0.55700
H2B H -0.44500 0.79800 0.64300
H3B H -0.23400 0.76000 0.99600
H4B H 0.02400 0.84300 1.24700
C1 C 1.13010 -0.01810 0.20320
C2 C 1.14880 0.04710 0.14360
C3 C 1.30120 0.09820 0.28950
C4 C 1.32120 0.16450 0.23250
C5 C 1.19080 0.18470 0.03060
C6 C 1.04570 0.13690 -0.11120
C7 C 0.97970 -0.06700 0.05680
H1 H 1.38800 0.08200 0.44300
H2 H 1.44500 0.20200 0.35700
H3 H 1.23400 0.24000 0.00400
H4 H 0.97600 0.15700 -0.24700
C1B C 0.86990 0.01810 -0.20320
C2B C 0.85120 -0.04710 -0.14360
C3B C 0.69880 -0.09820 -0.28950
C4B C 0.67880 -0.16450 -0.23250
C5B C 0.80920 -0.18470 -0.03060
C6B C 0.95430 -0.13690 0.11120
C7B C 1.02030 0.06700 -0.05680
H1B H 0.61200 -0.08200 -0.44300
H2B H 0.55500 -0.20200 -0.35700
H3B H 0.76600 -0.24000 -0.00400
H4B H 1.02400 -0.15700 0.24700
C1 C 1.13010 -0.01810 1.20320
C2 C 1.14880 0.04710 1.14360
C3 C 1.30120 0.09820 1.28950
C4 C 1.32120 0.16450 1.23250
C5 C 1.19080 0.18470 1.03060
C6 C 1.04570 0.13690 0.88880
C7 C 0.97970 -0.06700 1.05680
H1 H 1.38800 0.08200 1.44300
H2 H 1.44500 0.20200 1.35700
H3 H 1.23400 0.24000 1.00400
H4 H 0.97600 0.15700 0.75300
C1B C 0.86990 0.01810 0.79680
C2B C 0.85120 -0.04710 0.85640
C3B C 0.69880 -0.09820 0.71050
C4B C 0.67880 -0.16450 0.76750
C5B C 0.80920 -0.18470 0.96940
C6B C 0.95430 -0.13690 1.11120
C7B C 1.02030 0.06700 0.94320
H1B H 0.61200 -0.08200 0.55700
H2B H 0.55500 -0.20200 0.64300
H3B H 0.76600 -0.24000 0.99600
H4B H 1.02400 -0.15700 1.24700
C1 C 1.13010 0.98190 0.20320
C2 C 1.14880 1.04710 0.14360
C3 C 1.30120 1.09820 0.28950
C4 C 1.32120 1.16450 0.23250
C5 C 1.19080 1.18470 0.03060
C6 C 1.04570 1.13690 -0.11120
C7 C 0.97970 0.93300 0.05680
H1 H 1.38800 1.08200 0.44300
H2 H 1.44500 1.20200 0.35700
H3 H 1.23400 1.24000 0.00400
H4 H 0.97600 1.15700 -0.24700
C1B C 0.86990 1.01810 -0.20320
C2B C 0.85120 0.95290 -0.14360
C3B C 0.69880 0.90180 -0.28950
C4B C 0.67880 0.83550 -0.23250
C5B C 0.80920 0.81530 -0.03060
C6B C 0.95430 0.86310 0.11120
C7B C 1.02030 1.06700 -0.05680
H1B H 0.61200 0.91800 -0.44300
H2B H 0.55500 0.79800 -0.35700
H3B H 0.76600 0.76000 -0.00400
H4B H 1.02400 0.84300 0.24700
C1 C 1.13010 0.98190 1.20320
C2 C 1.14880 1.04710 1.14360
C3 C 1.30120 1.09820 1.28950
C4 C 1.32120 1.16450 1.23250
C5 C 1.19080 1.18470 1.03060
C6 C 1.04570 1.13690 0.88880
C7 C 0.97970 0.93300 1.05680
H1 H 1.38800 1.08200 1.44300
H2 H 1.44500 1.20200 1.35700
H3 H 1.23400 1.24000 1.00400
H4 H 0.97600 1.15700 0.75300
C1B C 0.86990 1.01810 0.79680
C2B C 0.85120 0.95290 0.85640
C3B C 0.69880 0.90180 0.71050
C4B C 0.67880 0.83550 0.76750
C5B C 0.80920 0.81530 0.96940
C6B C 0.95430 0.86310 1.11120
C7B C 1.02030 1.06700 0.94320
H1B H 0.61200 0.91800 0.55700
H2B H 0.55500 0.79800 0.64300
H3B H 0.76600 0.76000 0.99600
H4B H 1.02400 0.84300 1.24700
C1 C -0.13010 0.48190 0.29680
C2 C -0.14880 0.54710 0.35640
C3 C -0.30120 0.59820 0.21050
C4 C -0.32120 0.66450 0.26750
C5 C -0.19080 0.68470 0.46940
C6 C -0.04570 0.63690 0.61120
C7 C 0.02030 0.43300 0.44320
H1 H -0.38800 0.58200 0.05700
H2 H -0.44500 0.70200 0.14300
H3 H -0.23400 0.74000 0.49600
H4 H 0.02400 0.65700 0.74700
C1B C 0.13010 0.51810 0.70320
C2B C 0.14880 0.45290 0.64360
C3B C 0.30120 0.40180 0.78950
C4B C 0.32120 0.33550 0.73250
C5B C 0.19080 0.31530 0.53060
C6B C 0.04570 0.36310 0.38880
C7B C -0.02030 0.56700 0.55680
H1B H 0.38800 0.41800 0.94300
H2B H 0.44500 0.29800 0.85700
H3B H 0.23400 0.26000 0.50400
H4B H -0.02400 0.34300 0.25300
C1 C 0.86990 0.48190 0.29680
C2 C 0.85120 0.54710 0.35640
C3 C 0.69880 0.59820 0.21050
C4 C 0.67880 0.66450 0.26750
C5 C 0.80920 0.68470 0.46940
C6 C 0.95430 0.63690 0.61120
C7 C 1.02030 0.43300 0.44320
H1 H 0.61200 0.58200 0.05700
H2 H 0.55500 0.70200 0.14300
H3 H 0.76600 0.74000 0.49600
H4 H 1.02400 0.65700 0.74700
C1B C 1.13010 0.51810 0.70320
C2B C 1.14880 0.45290 0.64360
C3B C 1.30120 0.40180 0.78950
C4B C 1.32120 0.33550 0.73250
C5B C 1.19080 0.31530 0.53060
C6B C 1.04570 0.36310 0.38880
C7B C 0.97970 0.56700 0.55680
H1B H 1.38800 0.41800 0.94300
H2B H 1.44500 0.29800 0.85700
H3B H 1.23400 0.26000 0.50400
H4B H 0.97600 0.34300 0.25300

#END
