
#######################################################################
#
#                 Cambridge Crystallographic Data Centre
#                                CCDC 
#
#######################################################################
#
# If this CIF has been generated from an entry in the Cambridge 
# Structural Database, then it will include bibliographic, chemical, 
# crystal, experimental, refinement or atomic coordinate data resulting 
# from the CCDC's data processing and validation procedures.
#
#######################################################################

data_ACSLCB10
_symmetry_cell_setting           triclinic
_symmetry_space_group_name_H-M   'P -1'
_symmetry_Int_Tables_number      2
_space_group_name_Hall           '-P 1'
loop_
_symmetry_equiv_pos_site_id
_symmetry_equiv_pos_as_xyz
1 x,y,z
2 -x,-y,-z
_cell_length_a                   4.566(9)
_cell_length_b                   10.043(8)
_cell_length_c                   9.340(9)
_cell_angle_alpha                94.45(7)
_cell_angle_beta                 94.23(7)
_cell_angle_gamma                97.22(6)
_cell_volume                     422.109
loop_
_atom_site_label
_atom_site_type_symbol
_atom_site_fract_x
_atom_site_fract_y
_atom_site_fract_z
O1 O 0.6847(6) 0.3974(3) 0.6278(3)
O2 O 0.2512(5) 0.0495(2) 0.3901(2)
O3 O 0.0010(6) 0.1613(2) 0.7857(3)
N1 N 0.3151(6) 0.2212(3) 0.6234(3)
C1 C 0.6085(7) 0.2479(3) 0.4162(3)
C2 C 0.4696(7) 0.1315(3) 0.3351(3)
C3 C 0.5532(7) 0.0973(3) 0.1987(3)
C4 C 0.7733(8) 0.1799(4) 0.1425(3)
C5 C 0.9121(8) 0.2962(4) 0.2208(4)
C6 C 0.8280(8) 0.3299(3) 0.3556(3)
C7 C 0.5437(7) 0.2973(3) 0.5629(3)
C8 C 0.2104(7) 0.2413(2) 0.7545(3)
C9 C 0.3396(9) 0.3582(4) 0.8570(4)
H1 H 0.1524 -0.0158 0.3275
H2 H 0.2246 0.1435 0.5692
H3 H 0.4610 0.0174 0.1397
H4 H 0.8350 0.1612 0.0441
H5 H 1.0469 0.3716 0.1771
H6 H 0.9247 0.4022 0.4176
H7 H 0.2649 0.3606 0.9453
H8 H 0.2792 0.4493 0.8122
H9 H 0.5281 0.3430 0.8804
O1 O 0.3153(6) 0.6026(3) 0.3722(3)
O2 O 0.7488(5) 0.9505(2) 0.6099(2)
O3 O 0.9990(6) 0.8387(2) 0.2143(3)
N1 N 0.6849(6) 0.7788(3) 0.3766(3)
C1 C 0.3915(7) 0.7521(3) 0.5838(3)
C2 C 0.5304(7) 0.8685(3) 0.6649(3)
C3 C 0.4468(7) 0.9027(3) 0.8013(3)
C4 C 0.2267(8) 0.8201(4) 0.8575(3)
C5 C 0.0879(8) 0.7038(4) 0.7792(4)
C6 C 0.1720(8) 0.6701(3) 0.6444(3)
C7 C 0.4563(7) 0.7027(3) 0.4371(3)
C8 C 0.7896(7) 0.7587(2) 0.2455(3)
C9 C 0.6604(9) 0.6418(4) 0.1430(4)
H1 H 0.8476 1.0158 0.6725
H2 H 0.7754 0.8565 0.4308
H3 H 0.5390 0.9826 0.8603
H4 H 0.1650 0.8388 0.9559
H5 H -0.0469 0.6284 0.8229
H6 H 0.0753 0.5978 0.5824
H7 H 0.7351 0.6394 0.0547
H8 H 0.7208 0.5507 0.1878
H9 H 0.4719 0.6570 0.1196

#END
