
#######################################################################
#
#                 Cambridge Crystallographic Data Centre
#                                CCDC 
#
#######################################################################
#
# If this CIF has been generated from an entry in the Cambridge 
# Structural Database, then it will include bibliographic, chemical, 
# crystal, experimental, refinement or atomic coordinate data resulting 
# from the CCDC's data processing and validation procedures.
#
#######################################################################

data_ACSLCA10
_symmetry_cell_setting           monoclinic
_symmetry_space_group_name_H-M   'P 21/c'
_symmetry_Int_Tables_number      14
_space_group_name_Hall           '-P 2ybc'
loop_
_symmetry_equiv_pos_site_id
_symmetry_equiv_pos_as_xyz
1 x,y,z
2 -x,1/2+y,1/2-z
3 -x,-y,-z
4 x,1/2-y,1/2+z
_cell_length_a                   8.155(5)
_cell_length_b                   8.571(2)
_cell_length_c                   13.092(3)
_cell_angle_alpha                90
_cell_angle_beta                 99.54(5)
_cell_angle_gamma                90
_cell_volume                     902.43
loop_
_atom_site_label
_atom_site_type_symbol
_atom_site_fract_x
_atom_site_fract_y
_atom_site_fract_z
O1 O 0.2111(3) -0.0127(3) 0.4639(2)
O2 O 0.0600(3) 0.2373(3) 0.2011(2)
O3 O 0.0924(4) -0.0116(4) 0.1590(3)
N1 N 0.0059(4) 0.1575(4) 0.4052(3)
C1 C 0.2735(4) 0.1839(4) 0.3504(2)
C2 C 0.2257(4) 0.2453(4) 0.2510(2)
C3 C 0.3377(5) 0.3226(5) 0.2003(5)
C4 C 0.5005(5) 0.3417(5) 0.2487(4)
C5 C 0.5506(5) 0.2820(6) 0.3465(4)
C6 C 0.4397(4) 0.2019(5) 0.3965(3)
C7 C 0.1601(4) 0.1006(4) 0.4106(2)
C8 C 0.0047(5) 0.0995(4) 0.1579(3)
C9 C -0.1756(5) 0.1071(5) 0.1129(3)
H1 H -0.0713 0.1172 0.4488
H2 H -0.0066 0.2751 0.3647
H3 H 0.3092 0.3587 0.1290
H4 H 0.6015 0.3926 0.2082
H5 H 0.6676 0.2888 0.3769
H6 H 0.4760 0.1525 0.4614
H7 H -0.2161 0.2055 0.0974
H8 H -0.2475 0.0861 0.1750
H9 H -0.2146 0.0584 0.0467
O1 O 0.7889(3) 0.4873(3) 0.0361(2)
O2 O 0.9400(3) 0.7373(3) 0.2989(2)
O3 O 0.9076(4) 0.4884(4) 0.3410(3)
N1 N 0.9941(4) 0.6575(4) 0.0948(3)
C1 C 0.7265(4) 0.6839(4) 0.1496(2)
C2 C 0.7743(4) 0.7453(4) 0.2490(2)
C3 C 0.6623(5) 0.8226(5) 0.2997(5)
C4 C 0.4995(5) 0.8417(5) 0.2513(4)
C5 C 0.4494(5) 0.7820(6) 0.1535(4)
C6 C 0.5603(4) 0.7019(5) 0.1035(3)
C7 C 0.8399(4) 0.6006(4) 0.0894(2)
C8 C 0.9953(5) 0.5995(4) 0.3421(3)
C9 C 1.1756(5) 0.6071(5) 0.3871(3)
H1 H 1.0713 0.6172 0.0512
H2 H 1.0066 0.7751 0.1353
H3 H 0.6908 0.8587 0.3710
H4 H 0.3985 0.8926 0.2918
H5 H 0.3324 0.7888 0.1231
H6 H 0.5240 0.6525 0.0386
H7 H 1.2161 0.7055 0.4026
H8 H 1.2475 0.5861 0.3250
H9 H 1.2146 0.5584 0.4533
O1 O 0.7889(3) 1.0127(3) 0.5361(2)
O2 O 0.9400(3) 0.7627(3) 0.7989(2)
O3 O 0.9076(4) 1.0116(4) 0.8410(3)
N1 N 0.9941(4) 0.8425(4) 0.5948(3)
C1 C 0.7265(4) 0.8161(4) 0.6496(2)
C2 C 0.7743(4) 0.7547(4) 0.7490(2)
C3 C 0.6623(5) 0.6774(5) 0.7997(5)
C4 C 0.4995(5) 0.6583(5) 0.7513(4)
C5 C 0.4494(5) 0.7180(6) 0.6535(4)
C6 C 0.5603(4) 0.7981(5) 0.6035(3)
C7 C 0.8399(4) 0.8994(4) 0.5894(2)
C8 C 0.9953(5) 0.9005(4) 0.8421(3)
C9 C 1.1756(5) 0.8929(5) 0.8871(3)
H1 H 1.0713 0.8828 0.5512
H2 H 1.0066 0.7249 0.6353
H3 H 0.6908 0.6413 0.8710
H4 H 0.3985 0.6074 0.7918
H5 H 0.3324 0.7112 0.6231
H6 H 0.5240 0.8475 0.5386
H7 H 1.2161 0.7945 0.9026
H8 H 1.2475 0.9139 0.8250
H9 H 1.2146 0.9416 0.9533
O1 O 0.2111(3) 0.5127(3) 0.9639(2)
O2 O 0.0600(3) 0.2627(3) 0.7011(2)
O3 O 0.0924(4) 0.5116(4) 0.6590(3)
N1 N 0.0059(4) 0.3425(4) 0.9052(3)
C1 C 0.2735(4) 0.3161(4) 0.8504(2)
C2 C 0.2257(4) 0.2547(4) 0.7510(2)
C3 C 0.3377(5) 0.1774(5) 0.7003(5)
C4 C 0.5005(5) 0.1583(5) 0.7487(4)
C5 C 0.5506(5) 0.2180(6) 0.8465(4)
C6 C 0.4397(4) 0.2981(5) 0.8965(3)
C7 C 0.1601(4) 0.3994(4) 0.9106(2)
C8 C 0.0047(5) 0.4005(4) 0.6579(3)
C9 C -0.1756(5) 0.3929(5) 0.6129(3)
H1 H -0.0713 0.3828 0.9488
H2 H -0.0066 0.2249 0.8647
H3 H 0.3092 0.1413 0.6290
H4 H 0.6015 0.1074 0.7082
H5 H 0.6676 0.2112 0.8769
H6 H 0.4760 0.3475 0.9614
H7 H -0.2161 0.2945 0.5974
H8 H -0.2475 0.4139 0.6750
H9 H -0.2146 0.4416 0.5467

#END
