
#######################################################################
#
#                 Cambridge Crystallographic Data Centre
#                                CCDC 
#
#######################################################################
#
# If this CIF has been generated from an entry in the Cambridge 
# Structural Database, then it will include bibliographic, chemical, 
# crystal, experimental, refinement or atomic coordinate data resulting 
# from the CCDC's data processing and validation procedures.
#
#######################################################################

data_ACTHBZ
_symmetry_cell_setting           triclinic
_symmetry_space_group_name_H-M   'P -1'
_symmetry_Int_Tables_number      2
_space_group_name_Hall           '-P 1'
loop_
_symmetry_equiv_pos_site_id
_symmetry_equiv_pos_as_xyz
1 x,y,z
2 -x,-y,-z
_cell_length_a                   9.702(4)
_cell_length_b                   11.027(7)
_cell_length_c                   7.710(2)
_cell_angle_alpha                72.04(4)
_cell_angle_beta                 100.19(3)
_cell_angle_gamma                97.18(5)
_cell_volume                     770.088
loop_
_atom_site_label
_atom_site_type_symbol
_atom_site_fract_x
_atom_site_fract_y
_atom_site_fract_z
C1 C 0.74605 0.95958 0.42844
C2 C 0.80972 0.84431 0.48253
C3 C 0.80130 0.77031 0.36340
C4 C 0.73001 0.81405 0.18385
C5 C 0.66525 0.92751 0.12974
C6 C 0.67270 0.99939 0.25053
N1 N 0.72866 0.74413 0.05501
C7 C 0.61103 0.69793 -0.03080
C8 C 0.63032 0.62997 -0.16557
O1 O 0.49290 0.70900 -0.00114
S1 S 0.88541 0.62538 0.43740
C9 C 0.73461 0.51085 0.45667
C10 C 0.75632 1.03774 0.55840
C11 C 0.87425 1.03933 0.69050
C12 C 0.88582 1.11302 0.81064
C13 C 0.77642 1.18707 0.80088
C14 C 0.65676 1.18513 0.67129
C15 C 0.64710 1.11218 0.55104
N2 N 0.77652 1.26098 0.92207
C16 C 0.88514 1.29563 1.03814
C17 C 0.84636 1.36689 1.15740
O2 O 1.00747 1.27081 1.04884
H1 H 0.85600 0.81300 0.60300
H2 H 0.62200 0.95600 0.01000
H3 H 0.63100 1.07600 0.21100
H4 H 0.80700 0.72700 0.03900
H5 H 0.58800 0.54000 -0.12800
H6 H 0.72800 0.62800 -0.17200
H7 H 0.58200 0.67400 -0.28700
H8 H 0.67500 0.52900 0.33500
H9 H 0.68400 0.50900 0.55800
H10 H 0.77500 0.42300 0.50100
H11 H 0.95100 0.98700 0.70600
H12 H 0.96600 1.10800 0.90000
H13 H 0.57100 1.24000 0.65900
H14 H 0.56100 1.11000 0.46400
H15 H 0.69600 1.28100 0.92600
H16 H 0.75000 1.37500 1.13500
H17 H 0.89700 1.45200 1.13600
H18 H 0.88300 1.32400 1.28300
C1 C 0.25395 0.04042 0.57156
C2 C 0.19028 0.15569 0.51747
C3 C 0.19870 0.22969 0.63660
C4 C 0.26999 0.18595 0.81615
C5 C 0.33475 0.07249 0.87026
C6 C 0.32730 0.00061 0.74947
N1 N 0.27134 0.25587 0.94499
C7 C 0.38897 0.30207 1.03080
C8 C 0.36968 0.37003 1.16557
O1 O 0.50710 0.29100 1.00114
S1 S 0.11459 0.37462 0.56260
C9 C 0.26539 0.48915 0.54333
C10 C 0.24368 -0.03774 0.44160
C11 C 0.12575 -0.03933 0.30950
C12 C 0.11418 -0.11302 0.18936
C13 C 0.22358 -0.18707 0.19912
C14 C 0.34324 -0.18513 0.32871
C15 C 0.35290 -0.11218 0.44896
N2 N 0.22348 -0.26098 0.07793
C16 C 0.11486 -0.29563 -0.03814
C17 C 0.15364 -0.36689 -0.15740
O2 O -0.00747 -0.27081 -0.04884
H1 H 0.14400 0.18700 0.39700
H2 H 0.37800 0.04400 0.99000
H3 H 0.36900 -0.07600 0.78900
H4 H 0.19300 0.27300 0.96100
H5 H 0.41200 0.46000 1.12800
H6 H 0.27200 0.37200 1.17200
H7 H 0.41800 0.32600 1.28700
H8 H 0.32500 0.47100 0.66500
H9 H 0.31600 0.49100 0.44200
H10 H 0.22500 0.57700 0.49900
H11 H 0.04900 0.01300 0.29400
H12 H 0.03400 -0.10800 0.10000
H13 H 0.42900 -0.24000 0.34100
H14 H 0.43900 -0.11000 0.53600
H15 H 0.30400 -0.28100 0.07400
H16 H 0.25000 -0.37500 -0.13500
H17 H 0.10300 -0.45200 -0.13600
H18 H 0.11700 -0.32400 -0.28300

#END
