./ACTHBZ_from_xyz.cif_generated_by_CrystalShift
_symmetry_cell_setting triclinic
_symmetry_space_group_name_H-M 'P 1'
loop_
_symmetry_equiv_pos_site_id
_symmetry_equiv_pos_as_xyz
1 x,y,z
_cell_length_a 9.702000
_cell_length_b 11.027000
_cell_length_c 7.710000
_cell_angle_alpha 72.040000
_cell_angle_beta 100.190000
_cell_angle_gamma 97.180000
_cell_volume 770.088043
loop_
_atom_site_label
_atom_site_type_symbol
_atom_site_fract_x
_atom_site_fract_y
_atom_site_fract_z
C1 C 0.746050 0.959580 0.428440
C2 C 0.809720 0.844310 0.482530
C3 C 0.801300 0.770310 0.363400
C4 C 0.730010 0.814050 0.183850
C5 C 0.665250 0.927510 0.129740
C6 C 0.672700 0.999390 0.250530
N7 N 0.728660 0.744130 0.055010
C8 C 0.611030 0.697930 -0.030800
C9 C 0.630320 0.629970 -0.165570
O10 O 0.492900 0.709000 -0.001140
S11 S 0.885410 0.625380 0.437400
C12 C 0.734610 0.510850 0.456670
C13 C 0.756320 1.037740 0.558400
C14 C 0.874250 1.039330 0.690500
C15 C 0.885820 1.113020 0.810640
C16 C 0.776420 1.187070 0.800880
C17 C 0.656760 1.185130 0.671290
C18 C 0.647100 1.112180 0.551040
N19 N 0.776520 1.260980 0.922070
C20 C 0.885140 1.295630 1.038140
C21 C 0.846360 1.366890 1.157400
O22 O 1.007470 1.270810 1.048840
H23 H 0.856000 0.813000 0.603000
H24 H 0.622000 0.956000 0.010000
H25 H 0.631000 1.076000 0.211000
H26 H 0.807000 0.727000 0.039000
H27 H 0.588000 0.540000 -0.128000
H28 H 0.728000 0.628000 -0.172000
H29 H 0.582000 0.674000 -0.287000
H30 H 0.675000 0.529000 0.335000
H31 H 0.684000 0.509000 0.558000
H32 H 0.775000 0.423000 0.501000
H33 H 0.951000 0.987000 0.706000
H34 H 0.966000 1.108000 0.900000
H35 H 0.571000 1.240000 0.659000
H36 H 0.561000 1.110000 0.464000
H37 H 0.696000 1.281000 0.926000
H38 H 0.750000 1.375000 1.135000
H39 H 0.897000 1.452000 1.136000
H40 H 0.883000 1.324000 1.283000
C41 C 0.253950 0.040420 0.571560
C42 C 0.190280 0.155690 0.517470
C43 C 0.198700 0.229690 0.636600
C44 C 0.269990 0.185950 0.816150
C45 C 0.334750 0.072490 0.870260
C46 C 0.327300 0.000610 0.749470
N47 N 0.271340 0.255870 0.944990
C48 C 0.388970 0.302070 1.030800
C49 C 0.369680 0.370030 1.165570
O50 O 0.507100 0.291000 1.001140
S51 S 0.114590 0.374620 0.562600
C52 C 0.265390 0.489150 0.543330
C53 C 0.243680 -0.037740 0.441600
C54 C 0.125750 -0.039330 0.309500
C55 C 0.114180 -0.113020 0.189360
C56 C 0.223580 -0.187070 0.199120
C57 C 0.343240 -0.185130 0.328710
C58 C 0.352900 -0.112180 0.448960
N59 N 0.223480 -0.260980 0.077930
C60 C 0.114860 -0.295630 -0.038140
C61 C 0.153640 -0.366890 -0.157400
O62 O -0.007470 -0.270810 -0.048840
H63 H 0.144000 0.187000 0.397000
H64 H 0.378000 0.044000 0.990000
H65 H 0.369000 -0.076000 0.789000
H66 H 0.193000 0.273000 0.961000
H67 H 0.412000 0.460000 1.128000
H68 H 0.272000 0.372000 1.172000
H69 H 0.418000 0.326000 1.287000
H70 H 0.325000 0.471000 0.665000
H71 H 0.316000 0.491000 0.442000
H72 H 0.225000 0.577000 0.499000
H73 H 0.049000 0.013000 0.294000
H74 H 0.034000 -0.108000 0.100000
H75 H 0.429000 -0.240000 0.341000
H76 H 0.439000 -0.110000 0.536000
H77 H 0.304000 -0.281000 0.074000
H78 H 0.250000 -0.375000 -0.135000
H79 H 0.103000 -0.452000 -0.136000
H80 H 0.117000 -0.324000 -0.283000

#END
