./ACTOLD01_from_xyz.cif_generated_by_CrystalShift
_symmetry_cell_setting triclinic
_symmetry_space_group_name_H-M 'P 1'
loop_
_symmetry_equiv_pos_site_id
_symmetry_equiv_pos_as_xyz
1 x,y,z
_cell_length_a 11.740000
_cell_length_b 9.590000
_cell_length_c 7.560000
_cell_angle_alpha 90.000000
_cell_angle_beta 106.000000
_cell_angle_gamma 90.000000
_cell_volume 818.182359
loop_
_atom_site_label
_atom_site_type_symbol
_atom_site_fract_x
_atom_site_fract_y
_atom_site_fract_z
O1 O 0.521200 0.268800 0.339100
N2 N 0.441100 0.054100 0.268400
C3 C 0.324500 0.076000 0.282000
C4 C 0.291600 0.186200 0.376800
C5 C 0.175200 0.197000 0.384100
C6 C 0.088600 0.101500 0.299300
C7 C 0.123500 -0.007900 0.205400
C8 C 0.239100 -0.020800 0.196900
C9 C 0.530200 0.147500 0.295800
C10 C 0.643600 0.091500 0.267100
C11 C -0.039100 0.114800 0.303800
H12 H 0.351000 0.261000 0.446000
H13 H 0.153000 0.280000 0.448000
H14 H 0.067000 -0.085000 0.157000
H15 H 0.259000 -0.097000 0.138000
H16 H 0.454000 -0.030000 0.237000
H17 H 0.636000 -0.005000 0.244000
H18 H 0.697000 0.089000 0.376000
H19 H 0.657000 0.143000 0.166000
H20 H -0.074000 0.187000 0.219000
H21 H -0.037000 0.160000 0.424000
H22 H -0.066000 0.022000 0.294000
O23 O 0.478800 0.768800 0.160900
N24 N 0.558900 0.554100 0.231600
C25 C 0.675500 0.576000 0.218000
C26 C 0.708400 0.686200 0.123200
C27 C 0.824800 0.697000 0.115900
C28 C 0.911400 0.601500 0.200700
C29 C 0.876500 0.492100 0.294600
C30 C 0.760900 0.479200 0.303100
C31 C 0.469800 0.647500 0.204200
C32 C 0.356400 0.591500 0.232900
C33 C 1.039100 0.614800 0.196200
H34 H 0.649000 0.761000 0.054000
H35 H 0.847000 0.780000 0.052000
H36 H 0.933000 0.415000 0.343000
H37 H 0.741000 0.403000 0.362000
H38 H 0.546000 0.470000 0.263000
H39 H 0.364000 0.495000 0.256000
H40 H 0.303000 0.589000 0.124000
H41 H 0.343000 0.643000 0.334000
H42 H 1.074000 0.687000 0.281000
H43 H 1.037000 0.660000 0.076000
H44 H 1.066000 0.522000 0.206000
O45 O 0.478800 0.731200 0.660900
N46 N 0.558900 0.945900 0.731600
C47 C 0.675500 0.924000 0.718000
C48 C 0.708400 0.813800 0.623200
C49 C 0.824800 0.803000 0.615900
C50 C 0.911400 0.898500 0.700700
C51 C 0.876500 1.007900 0.794600
C52 C 0.760900 1.020800 0.803100
C53 C 0.469800 0.852500 0.704200
C54 C 0.356400 0.908500 0.732900
C55 C 1.039100 0.885200 0.696200
H56 H 0.649000 0.739000 0.554000
H57 H 0.847000 0.720000 0.552000
H58 H 0.933000 1.085000 0.843000
H59 H 0.741000 1.097000 0.862000
H60 H 0.546000 1.030000 0.763000
H61 H 0.364000 1.005000 0.756000
H62 H 0.303000 0.911000 0.624000
H63 H 0.343000 0.857000 0.834000
H64 H 1.074000 0.813000 0.781000
H65 H 1.037000 0.840000 0.576000
H66 H 1.066000 0.978000 0.706000
O67 O 0.521200 0.231200 0.839100
N68 N 0.441100 0.445900 0.768400
C69 C 0.324500 0.424000 0.782000
C70 C 0.291600 0.313800 0.876800
C71 C 0.175200 0.303000 0.884100
C72 C 0.088600 0.398500 0.799300
C73 C 0.123500 0.507900 0.705400
C74 C 0.239100 0.520800 0.696900
C75 C 0.530200 0.352500 0.795800
C76 C 0.643600 0.408500 0.767100
C77 C -0.039100 0.385200 0.803800
H78 H 0.351000 0.239000 0.946000
H79 H 0.153000 0.220000 0.948000
H80 H 0.067000 0.585000 0.657000
H81 H 0.259000 0.597000 0.638000
H82 H 0.454000 0.530000 0.737000
H83 H 0.636000 0.505000 0.744000
H84 H 0.697000 0.411000 0.876000
H85 H 0.657000 0.357000 0.666000
H86 H -0.074000 0.313000 0.719000
H87 H -0.037000 0.340000 0.924000
H88 H -0.066000 0.478000 0.794000

#END
