
#######################################################################
#
#                 Cambridge Crystallographic Data Centre
#                                CCDC 
#
#######################################################################
#
# If this CIF has been generated from an entry in the Cambridge 
# Structural Database, then it will include bibliographic, chemical, 
# crystal, experimental, refinement or atomic coordinate data resulting 
# from the CCDC's data processing and validation procedures.
#
#######################################################################

data_ACTOLD02
_symmetry_cell_setting           orthorhombic
_symmetry_space_group_name_H-M   'P n a 21'
_symmetry_Int_Tables_number      33
_space_group_name_Hall           'P 2c -2n'
loop_
_symmetry_equiv_pos_site_id
_symmetry_equiv_pos_as_xyz
1 x,y,z
2 1/2-x,1/2+y,1/2+z
3 1/2+x,1/2-y,z
4 -x,-y,1/2+z
_cell_length_a                   9.899(5)
_cell_length_b                   12.956(6)
_cell_length_c                   6.541(4)
_cell_angle_alpha                90
_cell_angle_beta                 90
_cell_angle_gamma                90
_cell_volume                     838.893
loop_
_atom_site_label
_atom_site_type_symbol
_atom_site_fract_x
_atom_site_fract_y
_atom_site_fract_z
O1 O 0.43040 0.24830 0.55850
N1 N 0.21400 0.28700 0.46960
C1 C 0.23290 0.34360 0.28780
C2 C 0.35720 0.37430 0.21050
C3 C 0.36360 0.42970 0.02990
C4 C 0.24940 0.45880 -0.07630
C5 C 0.12500 0.42780 0.00240
C6 C 0.11680 0.37290 0.18250
C7 C 0.30820 0.24190 0.58980
C8 C 0.25410 0.18420 0.77140
C9 C 0.25990 0.52130 -0.27240
H1 H 0.44300 0.35600 0.29100
H2 H 0.45100 0.45200 -0.02800
H3 H 0.04400 0.44000 -0.05600
H4 H 0.03400 0.35100 0.24000
H5 H 0.12300 0.27900 0.50500
H6 H 0.27900 0.21400 0.92700
H7 H 0.15300 0.17800 0.80300
H8 H 0.32400 0.13200 0.77100
H9 H 0.36000 0.50600 -0.32600
H10 H 0.16800 0.51500 -0.32200
H11 H 0.27400 0.59200 -0.24500
O1 O 0.06960 0.74830 1.05850
N1 N 0.28600 0.78700 0.96960
C1 C 0.26710 0.84360 0.78780
C2 C 0.14280 0.87430 0.71050
C3 C 0.13640 0.92970 0.52990
C4 C 0.25060 0.95880 0.42370
C5 C 0.37500 0.92780 0.50240
C6 C 0.38320 0.87290 0.68250
C7 C 0.19180 0.74190 1.08980
C8 C 0.24590 0.68420 1.27140
C9 C 0.24010 1.02130 0.22760
H1 H 0.05700 0.85600 0.79100
H2 H 0.04900 0.95200 0.47200
H3 H 0.45600 0.94000 0.44400
H4 H 0.46600 0.85100 0.74000
H5 H 0.37700 0.77900 1.00500
H6 H 0.22100 0.71400 1.42700
H7 H 0.34700 0.67800 1.30300
H8 H 0.17600 0.63200 1.27100
H9 H 0.14000 1.00600 0.17400
H10 H 0.33200 1.01500 0.17800
H11 H 0.22600 1.09200 0.25500
O1 O 0.93040 0.25170 0.55850
N1 N 0.71400 0.21300 0.46960
C1 C 0.73290 0.15640 0.28780
C2 C 0.85720 0.12570 0.21050
C3 C 0.86360 0.07030 0.02990
C4 C 0.74940 0.04120 -0.07630
C5 C 0.62500 0.07220 0.00240
C6 C 0.61680 0.12710 0.18250
C7 C 0.80820 0.25810 0.58980
C8 C 0.75410 0.31580 0.77140
C9 C 0.75990 -0.02130 -0.27240
H1 H 0.94300 0.14400 0.29100
H2 H 0.95100 0.04800 -0.02800
H3 H 0.54400 0.06000 -0.05600
H4 H 0.53400 0.14900 0.24000
H5 H 0.62300 0.22100 0.50500
H6 H 0.77900 0.28600 0.92700
H7 H 0.65300 0.32200 0.80300
H8 H 0.82400 0.36800 0.77100
H9 H 0.86000 -0.00600 -0.32600
H10 H 0.66800 -0.01500 -0.32200
H11 H 0.77400 -0.09200 -0.24500
O1 O 0.56960 0.75170 1.05850
N1 N 0.78600 0.71300 0.96960
C1 C 0.76710 0.65640 0.78780
C2 C 0.64280 0.62570 0.71050
C3 C 0.63640 0.57030 0.52990
C4 C 0.75060 0.54120 0.42370
C5 C 0.87500 0.57220 0.50240
C6 C 0.88320 0.62710 0.68250
C7 C 0.69180 0.75810 1.08980
C8 C 0.74590 0.81580 1.27140
C9 C 0.74010 0.47870 0.22760
H1 H 0.55700 0.64400 0.79100
H2 H 0.54900 0.54800 0.47200
H3 H 0.95600 0.56000 0.44400
H4 H 0.96600 0.64900 0.74000
H5 H 0.87700 0.72100 1.00500
H6 H 0.72100 0.78600 1.42700
H7 H 0.84700 0.82200 1.30300
H8 H 0.67600 0.86800 1.27100
H9 H 0.64000 0.49400 0.17400
H10 H 0.83200 0.48500 0.17800
H11 H 0.72600 0.40800 0.25500

#END
