
#######################################################################
#
#                 Cambridge Crystallographic Data Centre
#                                CCDC 
#
#######################################################################
#
# If this CIF has been generated from an entry in the Cambridge 
# Structural Database, then it will include bibliographic, chemical, 
# crystal, experimental, refinement or atomic coordinate data resulting 
# from the CCDC's data processing and validation procedures.
#
#######################################################################

data_ACTOLD
_symmetry_cell_setting           monoclinic
_symmetry_space_group_name_H-M   'P 21/c'
_symmetry_Int_Tables_number      14
_space_group_name_Hall           '-P 2ybc'
loop_
_symmetry_equiv_pos_site_id
_symmetry_equiv_pos_as_xyz
1 x,y,z
2 -x,1/2+y,1/2-z
3 -x,-y,-z
4 x,1/2-y,1/2+z
_cell_length_a                   11.673
_cell_length_b                   9.581
_cell_length_c                   7.557
_cell_angle_alpha                90
_cell_angle_beta                 106.1
_cell_angle_gamma                90
_cell_volume                     812.019
loop_
_atom_site_label
_atom_site_type_symbol
_atom_site_fract_x
_atom_site_fract_y
_atom_site_fract_z
C1 C 0.41120 0.60130 0.20090
C2 C 0.37670 0.49200 0.29440
C3 C 0.26090 0.47940 0.30310
C4 C 0.17590 0.57590 0.21830
C5 C 0.20850 0.68570 0.12280
C6 C 0.32490 0.69660 0.11570
C7 C -0.03010 0.64700 0.20460
C8 C -0.14380 0.59150 0.23310
C9 C 0.53860 0.61470 0.19530
H1 H -0.16300 0.64500 0.32500
H2 H 0.58200 0.52800 0.22000
H3 H 0.58800 0.68100 0.29500
H4 H -0.20900 0.59600 0.12000
H5 H -0.14000 0.49500 0.26200
H6 H 0.43900 0.41900 0.35900
H7 H 0.23700 0.39900 0.36400
H8 H 0.04500 0.46700 0.26600
H9 H 0.14900 0.75600 0.05800
H10 H 0.34800 0.77700 0.04900
H11 H 0.54500 0.65700 0.08400
N1 N 0.05900 0.55410 0.23120
O1 O -0.02120 0.76840 0.16020
C1 C 0.58880 0.10130 0.29910
C2 C 0.62330 -0.00800 0.20560
C3 C 0.73910 -0.02060 0.19690
C4 C 0.82410 0.07590 0.28170
C5 C 0.79150 0.18570 0.37720
C6 C 0.67510 0.19660 0.38430
C7 C 1.03010 0.14700 0.29540
C8 C 1.14380 0.09150 0.26690
C9 C 0.46140 0.11470 0.30470
H1 H 1.16300 0.14500 0.17500
H2 H 0.41800 0.02800 0.28000
H3 H 0.41200 0.18100 0.20500
H4 H 1.20900 0.09600 0.38000
H5 H 1.14000 -0.00500 0.23800
H6 H 0.56100 -0.08100 0.14100
H7 H 0.76300 -0.10100 0.13600
H8 H 0.95500 -0.03300 0.23400
H9 H 0.85100 0.25600 0.44200
H10 H 0.65200 0.27700 0.45100
H11 H 0.45500 0.15700 0.41600
N1 N 0.94100 0.05410 0.26880
O1 O 1.02120 0.26840 0.33980
C1 C 0.58880 0.39870 0.79910
C2 C 0.62330 0.50800 0.70560
C3 C 0.73910 0.52060 0.69690
C4 C 0.82410 0.42410 0.78170
C5 C 0.79150 0.31430 0.87720
C6 C 0.67510 0.30340 0.88430
C7 C 1.03010 0.35300 0.79540
C8 C 1.14380 0.40850 0.76690
C9 C 0.46140 0.38530 0.80470
H1 H 1.16300 0.35500 0.67500
H2 H 0.41800 0.47200 0.78000
H3 H 0.41200 0.31900 0.70500
H4 H 1.20900 0.40400 0.88000
H5 H 1.14000 0.50500 0.73800
H6 H 0.56100 0.58100 0.64100
H7 H 0.76300 0.60100 0.63600
H8 H 0.95500 0.53300 0.73400
H9 H 0.85100 0.24400 0.94200
H10 H 0.65200 0.22300 0.95100
H11 H 0.45500 0.34300 0.91600
N1 N 0.94100 0.44590 0.76880
O1 O 1.02120 0.23160 0.83980
C1 C 0.41120 0.89870 0.70090
C2 C 0.37670 1.00800 0.79440
C3 C 0.26090 1.02060 0.80310
C4 C 0.17590 0.92410 0.71830
C5 C 0.20850 0.81430 0.62280
C6 C 0.32490 0.80340 0.61570
C7 C -0.03010 0.85300 0.70460
C8 C -0.14380 0.90850 0.73310
C9 C 0.53860 0.88530 0.69530
H1 H -0.16300 0.85500 0.82500
H2 H 0.58200 0.97200 0.72000
H3 H 0.58800 0.81900 0.79500
H4 H -0.20900 0.90400 0.62000
H5 H -0.14000 1.00500 0.76200
H6 H 0.43900 1.08100 0.85900
H7 H 0.23700 1.10100 0.86400
H8 H 0.04500 1.03300 0.76600
H9 H 0.14900 0.74400 0.55800
H10 H 0.34800 0.72300 0.54900
H11 H 0.54500 0.84300 0.58400
N1 N 0.05900 0.94590 0.73120
O1 O -0.02120 0.73160 0.66020

#END
