
#######################################################################
#
#                 Cambridge Crystallographic Data Centre
#                                CCDC 
#
#######################################################################
#
# If this CIF has been generated from an entry in the Cambridge 
# Structural Database, then it will include bibliographic, chemical, 
# crystal, experimental, refinement or atomic coordinate data resulting 
# from the CCDC's data processing and validation procedures.
#
#######################################################################

data_ACTOLD01
_symmetry_cell_setting           monoclinic
_symmetry_space_group_name_H-M   'P 21/c'
_symmetry_Int_Tables_number      14
_space_group_name_Hall           '-P 2ybc'
loop_
_symmetry_equiv_pos_site_id
_symmetry_equiv_pos_as_xyz
1 x,y,z
2 -x,1/2+y,1/2-z
3 -x,-y,-z
4 x,1/2-y,1/2+z
_cell_length_a                   11.74(2)
_cell_length_b                   9.59(2)
_cell_length_c                   7.56(1)
_cell_angle_alpha                90
_cell_angle_beta                 106.0(2)
_cell_angle_gamma                90
_cell_volume                     818.182
loop_
_atom_site_label
_atom_site_type_symbol
_atom_site_fract_x
_atom_site_fract_y
_atom_site_fract_z
O1 O 0.52120 0.26880 0.33910
N1 N 0.44110 0.05410 0.26840
C1 C 0.32450 0.07600 0.28200
C2 C 0.29160 0.18620 0.37680
C3 C 0.17520 0.19700 0.38410
C4 C 0.08860 0.10150 0.29930
C5 C 0.12350 -0.00790 0.20540
C6 C 0.23910 -0.02080 0.19690
C7 C 0.53020 0.14750 0.29580
C8 C 0.64360 0.09150 0.26710
C9 C -0.03910 0.11480 0.30380
H1 H 0.35100 0.26100 0.44600
H2 H 0.15300 0.28000 0.44800
H3 H 0.06700 -0.08500 0.15700
H4 H 0.25900 -0.09700 0.13800
H5 H 0.45400 -0.03000 0.23700
H6 H 0.63600 -0.00500 0.24400
H7 H 0.69700 0.08900 0.37600
H8 H 0.65700 0.14300 0.16600
H9 H -0.07400 0.18700 0.21900
H10 H -0.03700 0.16000 0.42400
H11 H -0.06600 0.02200 0.29400
O1 O 0.47880 0.76880 0.16090
N1 N 0.55890 0.55410 0.23160
C1 C 0.67550 0.57600 0.21800
C2 C 0.70840 0.68620 0.12320
C3 C 0.82480 0.69700 0.11590
C4 C 0.91140 0.60150 0.20070
C5 C 0.87650 0.49210 0.29460
C6 C 0.76090 0.47920 0.30310
C7 C 0.46980 0.64750 0.20420
C8 C 0.35640 0.59150 0.23290
C9 C 1.03910 0.61480 0.19620
H1 H 0.64900 0.76100 0.05400
H2 H 0.84700 0.78000 0.05200
H3 H 0.93300 0.41500 0.34300
H4 H 0.74100 0.40300 0.36200
H5 H 0.54600 0.47000 0.26300
H6 H 0.36400 0.49500 0.25600
H7 H 0.30300 0.58900 0.12400
H8 H 0.34300 0.64300 0.33400
H9 H 1.07400 0.68700 0.28100
H10 H 1.03700 0.66000 0.07600
H11 H 1.06600 0.52200 0.20600
O1 O 0.47880 0.73120 0.66090
N1 N 0.55890 0.94590 0.73160
C1 C 0.67550 0.92400 0.71800
C2 C 0.70840 0.81380 0.62320
C3 C 0.82480 0.80300 0.61590
C4 C 0.91140 0.89850 0.70070
C5 C 0.87650 1.00790 0.79460
C6 C 0.76090 1.02080 0.80310
C7 C 0.46980 0.85250 0.70420
C8 C 0.35640 0.90850 0.73290
C9 C 1.03910 0.88520 0.69620
H1 H 0.64900 0.73900 0.55400
H2 H 0.84700 0.72000 0.55200
H3 H 0.93300 1.08500 0.84300
H4 H 0.74100 1.09700 0.86200
H5 H 0.54600 1.03000 0.76300
H6 H 0.36400 1.00500 0.75600
H7 H 0.30300 0.91100 0.62400
H8 H 0.34300 0.85700 0.83400
H9 H 1.07400 0.81300 0.78100
H10 H 1.03700 0.84000 0.57600
H11 H 1.06600 0.97800 0.70600
O1 O 0.52120 0.23120 0.83910
N1 N 0.44110 0.44590 0.76840
C1 C 0.32450 0.42400 0.78200
C2 C 0.29160 0.31380 0.87680
C3 C 0.17520 0.30300 0.88410
C4 C 0.08860 0.39850 0.79930
C5 C 0.12350 0.50790 0.70540
C6 C 0.23910 0.52080 0.69690
C7 C 0.53020 0.35250 0.79580
C8 C 0.64360 0.40850 0.76710
C9 C -0.03910 0.38520 0.80380
H1 H 0.35100 0.23900 0.94600
H2 H 0.15300 0.22000 0.94800
H3 H 0.06700 0.58500 0.65700
H4 H 0.25900 0.59700 0.63800
H5 H 0.45400 0.53000 0.73700
H6 H 0.63600 0.50500 0.74400
H7 H 0.69700 0.41100 0.87600
H8 H 0.65700 0.35700 0.66600
H9 H -0.07400 0.31300 0.71900
H10 H -0.03700 0.34000 0.92400
H11 H -0.06600 0.47800 0.79400

#END
