./ACTOLD_from_xyz.cif_generated_by_CrystalShift
_symmetry_cell_setting triclinic
_symmetry_space_group_name_H-M 'P 1'
loop_
_symmetry_equiv_pos_site_id
_symmetry_equiv_pos_as_xyz
1 x,y,z
_cell_length_a 11.673000
_cell_length_b 9.581000
_cell_length_c 7.557000
_cell_angle_alpha 90.000000
_cell_angle_beta 106.100000
_cell_angle_gamma 90.000000
_cell_volume 812.019232
loop_
_atom_site_label
_atom_site_type_symbol
_atom_site_fract_x
_atom_site_fract_y
_atom_site_fract_z
C1 C 0.411200 0.601300 0.200900
C2 C 0.376700 0.492000 0.294400
C3 C 0.260900 0.479400 0.303100
C4 C 0.175900 0.575900 0.218300
C5 C 0.208500 0.685700 0.122800
C6 C 0.324900 0.696600 0.115700
C7 C -0.030100 0.647000 0.204600
C8 C -0.143800 0.591500 0.233100
C9 C 0.538600 0.614700 0.195300
H10 H -0.163000 0.645000 0.325000
H11 H 0.582000 0.528000 0.220000
H12 H 0.588000 0.681000 0.295000
H13 H -0.209000 0.596000 0.120000
H14 H -0.140000 0.495000 0.262000
H15 H 0.439000 0.419000 0.359000
H16 H 0.237000 0.399000 0.364000
H17 H 0.045000 0.467000 0.266000
H18 H 0.149000 0.756000 0.058000
H19 H 0.348000 0.777000 0.049000
H20 H 0.545000 0.657000 0.084000
N21 N 0.059000 0.554100 0.231200
O22 O -0.021200 0.768400 0.160200
C23 C 0.588800 0.101300 0.299100
C24 C 0.623300 -0.008000 0.205600
C25 C 0.739100 -0.020600 0.196900
C26 C 0.824100 0.075900 0.281700
C27 C 0.791500 0.185700 0.377200
C28 C 0.675100 0.196600 0.384300
C29 C 1.030100 0.147000 0.295400
C30 C 1.143800 0.091500 0.266900
C31 C 0.461400 0.114700 0.304700
H32 H 1.163000 0.145000 0.175000
H33 H 0.418000 0.028000 0.280000
H34 H 0.412000 0.181000 0.205000
H35 H 1.209000 0.096000 0.380000
H36 H 1.140000 -0.005000 0.238000
H37 H 0.561000 -0.081000 0.141000
H38 H 0.763000 -0.101000 0.136000
H39 H 0.955000 -0.033000 0.234000
H40 H 0.851000 0.256000 0.442000
H41 H 0.652000 0.277000 0.451000
H42 H 0.455000 0.157000 0.416000
N43 N 0.941000 0.054100 0.268800
O44 O 1.021200 0.268400 0.339800
C45 C 0.588800 0.398700 0.799100
C46 C 0.623300 0.508000 0.705600
C47 C 0.739100 0.520600 0.696900
C48 C 0.824100 0.424100 0.781700
C49 C 0.791500 0.314300 0.877200
C50 C 0.675100 0.303400 0.884300
C51 C 1.030100 0.353000 0.795400
C52 C 1.143800 0.408500 0.766900
C53 C 0.461400 0.385300 0.804700
H54 H 1.163000 0.355000 0.675000
H55 H 0.418000 0.472000 0.780000
H56 H 0.412000 0.319000 0.705000
H57 H 1.209000 0.404000 0.880000
H58 H 1.140000 0.505000 0.738000
H59 H 0.561000 0.581000 0.641000
H60 H 0.763000 0.601000 0.636000
H61 H 0.955000 0.533000 0.734000
H62 H 0.851000 0.244000 0.942000
H63 H 0.652000 0.223000 0.951000
H64 H 0.455000 0.343000 0.916000
N65 N 0.941000 0.445900 0.768800
O66 O 1.021200 0.231600 0.839800
C67 C 0.411200 0.898700 0.700900
C68 C 0.376700 1.008000 0.794400
C69 C 0.260900 1.020600 0.803100
C70 C 0.175900 0.924100 0.718300
C71 C 0.208500 0.814300 0.622800
C72 C 0.324900 0.803400 0.615700
C73 C -0.030100 0.853000 0.704600
C74 C -0.143800 0.908500 0.733100
C75 C 0.538600 0.885300 0.695300
H76 H -0.163000 0.855000 0.825000
H77 H 0.582000 0.972000 0.720000
H78 H 0.588000 0.819000 0.795000
H79 H -0.209000 0.904000 0.620000
H80 H -0.140000 1.005000 0.762000
H81 H 0.439000 1.081000 0.859000
H82 H 0.237000 1.101000 0.864000
H83 H 0.045000 1.033000 0.766000
H84 H 0.149000 0.744000 0.558000
H85 H 0.348000 0.723000 0.549000
H86 H 0.545000 0.843000 0.584000
N87 N 0.059000 0.945900 0.731200
O88 O -0.021200 0.731600 0.660200

#END
