./ACUDAD_from_xyz.cif_generated_by_CrystalShift
_symmetry_cell_setting triclinic
_symmetry_space_group_name_H-M 'P 1'
loop_
_symmetry_equiv_pos_site_id
_symmetry_equiv_pos_as_xyz
1 x,y,z
_cell_length_a 11.442400
_cell_length_b 11.972000
_cell_length_c 13.962000
_cell_angle_alpha 106.838000
_cell_angle_beta 92.871000
_cell_angle_gamma 100.803000
_cell_volume 1787.072703
loop_
_atom_site_label
_atom_site_type_symbol
_atom_site_fract_x
_atom_site_fract_y
_atom_site_fract_z
Ag1 Ag 0.602810 0.742560 -0.287570
C2 C 0.396700 0.509200 -0.257900
C3 C 0.303000 0.409300 -0.240900
H4 H 0.251600 0.365300 -0.302800
H5 H 0.341800 0.354300 -0.218700
C6 C 0.143100 0.377200 -0.146300
H7 H 0.178700 0.322400 -0.120900
H8 H 0.091800 0.331500 -0.207900
C9 C 0.070700 0.440600 -0.069440
C10 C 0.069500 0.560900 -0.053110
H11 H 0.117100 0.602600 -0.088800
C12 C -0.000300 0.379100 -0.014330
C13 C -0.000700 0.249600 -0.025700
H14 H -0.055300 0.221400 0.017300
H15 H 0.078800 0.241300 -0.005700
C16 C -0.017900 0.062300 -0.151200
H17 H 0.034100 0.048400 -0.204300
H18 H 0.020600 0.051300 -0.092200
C19 C -0.139300 -0.026700 -0.185540
C20 C 0.468500 0.340600 -0.380200
H21 H 0.416700 0.275100 -0.372000
C22 C 0.559200 0.338000 -0.439300
H23 H 0.582000 0.270800 -0.479800
C24 C 0.610600 0.456700 -0.426600
H25 H 0.675200 0.481500 -0.458800
C26 C 0.225200 0.576500 -0.330900
H27 H 0.166000 0.507600 -0.343500
C28 C 0.214500 0.677400 -0.352900
H29 H 0.147100 0.691700 -0.383500
C30 C 0.325100 0.755000 -0.320500
H31 H 0.343100 0.831800 -0.326000
C32 C 0.609400 0.590900 -0.049600
H33 H 0.675500 0.580800 -0.014100
C34 C 0.542200 0.676100 -0.009500
H35 H 0.554000 0.731100 0.054500
C36 C 0.456100 0.660600 -0.085000
H37 H 0.394900 0.702300 -0.082300
C38 C -0.269100 0.020200 0.039000
H39 H -0.271500 0.019200 0.105200
C40 C -0.351300 0.061300 -0.011100
H41 H -0.416000 0.092400 0.014100
C42 C -0.316600 0.046400 -0.105200
H43 H -0.353200 0.066000 -0.157300
C44 C -0.018100 -0.188400 -0.221100
H45 H 0.055900 -0.143500 -0.225700
C46 C -0.045600 -0.308400 -0.233400
H47 H 0.005600 -0.361600 -0.247600
C48 C -0.165800 -0.333900 -0.220300
H49 H -0.208800 -0.409600 -0.224600
C50 C -0.155800 0.060900 -0.329400
H51 H -0.085100 0.118600 -0.312800
C52 C -0.238200 0.038900 -0.409000
H53 H -0.235700 0.077800 -0.457900
C54 C -0.327200 -0.053700 -0.402500
H55 H -0.395800 -0.087300 -0.447900
N56 N 0.556980 0.529700 -0.363700
N57 N 0.468020 0.456810 -0.335540
N58 N 0.401600 0.706100 -0.280800
N59 N 0.338170 0.595060 -0.287010
N60 N 0.475590 0.572890 -0.165200
N61 N 0.569200 0.526300 -0.143520
N62 N -0.218830 -0.002370 -0.108010
N63 N -0.186700 -0.017500 -0.018430
N64 N -0.212100 -0.236870 -0.200720
N65 N -0.119360 -0.147710 -0.201160
N66 N -0.302000 -0.088300 -0.323610
N67 N -0.195140 -0.016390 -0.278230
O68 O 0.235120 0.464170 -0.166040
O69 O -0.037380 0.180550 -0.128380
C70 C 0.000300 0.620900 0.014330
C71 C -0.070700 0.559400 0.069440
C72 C -0.143100 0.622800 0.146300
H73 H -0.178700 0.677600 0.120900
H74 H -0.091800 0.668500 0.207900
O75 O -0.235120 0.535830 0.166040
C76 C -0.303000 0.590700 0.240900
C77 C -0.396700 0.490800 0.257900
N78 N -0.468020 0.543190 0.335540
C79 C -0.468500 0.659400 0.380200
H80 H -0.416700 0.724900 0.372000
C81 C -0.559200 0.662000 0.439300
H82 H -0.582000 0.729200 0.479800
C83 C -0.610600 0.543300 0.426600
H84 H -0.675200 0.518500 0.458800
N85 N -0.556980 0.470300 0.363700
N86 N -0.338170 0.404940 0.287010
C87 C -0.225200 0.423500 0.330900
H88 H -0.166000 0.492400 0.343500
C89 C -0.214500 0.322600 0.352900
H90 H -0.147100 0.308300 0.383500
C91 C -0.325100 0.245000 0.320500
H92 H -0.343100 0.168200 0.326000
N93 N -0.401600 0.293900 0.280800
N94 N -0.475590 0.427110 0.165200
C95 C -0.456100 0.339400 0.085000
C96 C -0.542200 0.323900 0.009500
C97 C -0.609400 0.409100 0.049600
H98 H -0.675500 0.419200 0.014100
N99 N -0.569200 0.473700 0.143520
H100 H -0.554000 0.268900 -0.054500
H101 H -0.394900 0.297700 0.082300
H102 H -0.251600 0.634700 0.302800
H103 H -0.341800 0.645700 0.218700
C104 C -0.069500 0.439100 0.053110
H105 H -0.117100 0.397400 0.088800
C106 C 0.000700 0.750400 0.025700
H107 H 0.055300 0.778600 -0.017300
H108 H -0.078800 0.758700 0.005700
O109 O 0.037380 0.819450 0.128380
C110 C 0.017900 0.937700 0.151200
H111 H -0.034100 0.951600 0.204300
H112 H -0.020600 0.948700 0.092200
C113 C 0.139300 1.026700 0.185540
N114 N 0.218830 1.002370 0.108010
C115 C 0.316600 0.953600 0.105200
C116 C 0.351300 0.938700 0.011100
C117 C 0.269100 0.979800 -0.039000
H118 H 0.271500 0.980800 -0.105200
N119 N 0.186700 1.017500 0.018430
H120 H 0.416000 0.907600 -0.014100
H121 H 0.353200 0.934000 0.157300
N122 N 0.119360 1.147710 0.201160
C123 C 0.018100 1.188400 0.221100
H124 H -0.055900 1.143500 0.225700
C125 C 0.045600 1.308400 0.233400
H126 H -0.005600 1.361600 0.247600
C127 C 0.165800 1.333900 0.220300
H128 H 0.208800 1.409600 0.224600
N129 N 0.212100 1.236870 0.200720
N130 N 0.195140 1.016390 0.278230
C131 C 0.155800 0.939100 0.329400
H132 H 0.085100 0.881400 0.312800
C133 C 0.238200 0.961100 0.409000
H134 H 0.235700 0.922200 0.457900
C135 C 0.327200 1.053700 0.402500
H136 H 0.395800 1.087300 0.447900
N137 N 0.302000 1.088300 0.323610
Ag138 Ag -0.602810 0.257440 0.287570
N139 N 0.787900 0.763130 -0.200720
N140 N 0.698000 0.911700 -0.323610
Ag141 Ag -0.397190 -0.257440 -0.287570
Ag142 Ag 0.397190 1.257440 0.287570
N143 N -0.787900 0.236870 0.200720
N144 N -0.698000 0.088300 0.323610
Ag145 Ag 0.602810 0.742560 0.712430
C146 C 0.396700 0.509200 0.742100
C147 C 0.303000 0.409300 0.759100
H148 H 0.251600 0.365300 0.697200
H149 H 0.341800 0.354300 0.781300
C150 C 0.143100 0.377200 0.853700
H151 H 0.178700 0.322400 0.879100
H152 H 0.091800 0.331500 0.792100
C153 C 0.070700 0.440600 0.930560
C154 C 0.069500 0.560900 0.946890
H155 H 0.117100 0.602600 0.911200
C156 C -0.000300 0.379100 0.985670
C157 C -0.000700 0.249600 0.974300
H158 H -0.055300 0.221400 1.017300
H159 H 0.078800 0.241300 0.994300
C160 C -0.017900 0.062300 0.848800
H161 H 0.034100 0.048400 0.795700
H162 H 0.020600 0.051300 0.907800
C163 C -0.139300 -0.026700 0.814460
C164 C 0.468500 0.340600 0.619800
H165 H 0.416700 0.275100 0.628000
C166 C 0.559200 0.338000 0.560700
H167 H 0.582000 0.270800 0.520200
C168 C 0.610600 0.456700 0.573400
H169 H 0.675200 0.481500 0.541200
C170 C 0.225200 0.576500 0.669100
H171 H 0.166000 0.507600 0.656500
C172 C 0.214500 0.677400 0.647100
H173 H 0.147100 0.691700 0.616500
C174 C 0.325100 0.755000 0.679500
H175 H 0.343100 0.831800 0.674000
C176 C 0.609400 0.590900 0.950400
H177 H 0.675500 0.580800 0.985900
C178 C 0.542200 0.676100 0.990500
H179 H 0.554000 0.731100 1.054500
C180 C 0.456100 0.660600 0.915000
H181 H 0.394900 0.702300 0.917700
C182 C -0.269100 0.020200 1.039000
H183 H -0.271500 0.019200 1.105200
C184 C -0.351300 0.061300 0.988900
H185 H -0.416000 0.092400 1.014100
C186 C -0.316600 0.046400 0.894800
H187 H -0.353200 0.066000 0.842700
C188 C -0.018100 -0.188400 0.778900
H189 H 0.055900 -0.143500 0.774300
C190 C -0.045600 -0.308400 0.766600
H191 H 0.005600 -0.361600 0.752400
C192 C -0.165800 -0.333900 0.779700
H193 H -0.208800 -0.409600 0.775400
C194 C -0.155800 0.060900 0.670600
H195 H -0.085100 0.118600 0.687200
C196 C -0.238200 0.038900 0.591000
H197 H -0.235700 0.077800 0.542100
C198 C -0.327200 -0.053700 0.597500
H199 H -0.395800 -0.087300 0.552100
N200 N 0.556980 0.529700 0.636300
N201 N 0.468020 0.456810 0.664460
N202 N 0.401600 0.706100 0.719200
N203 N 0.338170 0.595060 0.712990
N204 N 0.475590 0.572890 0.834800
N205 N 0.569200 0.526300 0.856480
N206 N -0.218830 -0.002370 0.891990
N207 N -0.186700 -0.017500 0.981570
N208 N -0.212100 -0.236870 0.799280
N209 N -0.119360 -0.147710 0.798840
N210 N -0.302000 -0.088300 0.676390
N211 N -0.195140 -0.016390 0.721770
O212 O 0.235120 0.464170 0.833960
O213 O -0.037380 0.180550 0.871620
C214 C 0.000300 0.620900 1.014330
C215 C -0.070700 0.559400 1.069440
C216 C -0.143100 0.622800 1.146300
H217 H -0.178700 0.677600 1.120900
H218 H -0.091800 0.668500 1.207900
O219 O -0.235120 0.535830 1.166040
C220 C -0.303000 0.590700 1.240900
C221 C -0.396700 0.490800 1.257900
N222 N -0.468020 0.543190 1.335540
C223 C -0.468500 0.659400 1.380200
H224 H -0.416700 0.724900 1.372000
C225 C -0.559200 0.662000 1.439300
H226 H -0.582000 0.729200 1.479800
C227 C -0.610600 0.543300 1.426600
H228 H -0.675200 0.518500 1.458800
N229 N -0.556980 0.470300 1.363700
N230 N -0.338170 0.404940 1.287010
C231 C -0.225200 0.423500 1.330900
H232 H -0.166000 0.492400 1.343500
C233 C -0.214500 0.322600 1.352900
H234 H -0.147100 0.308300 1.383500
C235 C -0.325100 0.245000 1.320500
H236 H -0.343100 0.168200 1.326000
N237 N -0.401600 0.293900 1.280800
N238 N -0.475590 0.427110 1.165200
C239 C -0.456100 0.339400 1.085000
C240 C -0.542200 0.323900 1.009500
C241 C -0.609400 0.409100 1.049600
H242 H -0.675500 0.419200 1.014100
N243 N -0.569200 0.473700 1.143520
H244 H -0.554000 0.268900 0.945500
H245 H -0.394900 0.297700 1.082300
H246 H -0.251600 0.634700 1.302800
H247 H -0.341800 0.645700 1.218700
C248 C -0.069500 0.439100 1.053110
H249 H -0.117100 0.397400 1.088800
C250 C 0.000700 0.750400 1.025700
H251 H 0.055300 0.778600 0.982700
H252 H -0.078800 0.758700 1.005700
O253 O 0.037380 0.819450 1.128380
C254 C 0.017900 0.937700 1.151200
H255 H -0.034100 0.951600 1.204300
H256 H -0.020600 0.948700 1.092200
C257 C 0.139300 1.026700 1.185540
N258 N 0.218830 1.002370 1.108010
C259 C 0.316600 0.953600 1.105200
C260 C 0.351300 0.938700 1.011100
C261 C 0.269100 0.979800 0.961000
H262 H 0.271500 0.980800 0.894800
N263 N 0.186700 1.017500 1.018430
H264 H 0.416000 0.907600 0.985900
H265 H 0.353200 0.934000 1.157300
N266 N 0.119360 1.147710 1.201160
C267 C 0.018100 1.188400 1.221100
H268 H -0.055900 1.143500 1.225700
C269 C 0.045600 1.308400 1.233400
H270 H -0.005600 1.361600 1.247600
C271 C 0.165800 1.333900 1.220300
H272 H 0.208800 1.409600 1.224600
N273 N 0.212100 1.236870 1.200720
N274 N 0.195140 1.016390 1.278230
C275 C 0.155800 0.939100 1.329400
H276 H 0.085100 0.881400 1.312800
C277 C 0.238200 0.961100 1.409000
H278 H 0.235700 0.922200 1.457900
C279 C 0.327200 1.053700 1.402500
H280 H 0.395800 1.087300 1.447900
N281 N 0.302000 1.088300 1.323610
Ag282 Ag -0.602810 0.257440 1.287570
N283 N 0.787900 0.763130 0.799280
N284 N 0.698000 0.911700 0.676390
Ag285 Ag -0.397190 -0.257440 0.712430
Ag286 Ag 0.397190 1.257440 1.287570
N287 N -0.787900 0.236870 1.200720
N288 N -0.698000 0.088300 1.323610
Ag289 Ag 1.602810 0.742560 -0.287570
C290 C 1.396700 0.509200 -0.257900
C291 C 1.303000 0.409300 -0.240900
H292 H 1.251600 0.365300 -0.302800
H293 H 1.341800 0.354300 -0.218700
C294 C 1.143100 0.377200 -0.146300
H295 H 1.178700 0.322400 -0.120900
H296 H 1.091800 0.331500 -0.207900
C297 C 1.070700 0.440600 -0.069440
C298 C 1.069500 0.560900 -0.053110
H299 H 1.117100 0.602600 -0.088800
C300 C 0.999700 0.379100 -0.014330
C301 C 0.999300 0.249600 -0.025700
H302 H 0.944700 0.221400 0.017300
H303 H 1.078800 0.241300 -0.005700
C304 C 0.982100 0.062300 -0.151200
H305 H 1.034100 0.048400 -0.204300
H306 H 1.020600 0.051300 -0.092200
C307 C 0.860700 -0.026700 -0.185540
C308 C 1.468500 0.340600 -0.380200
H309 H 1.416700 0.275100 -0.372000
C310 C 1.559200 0.338000 -0.439300
H311 H 1.582000 0.270800 -0.479800
C312 C 1.610600 0.456700 -0.426600
H313 H 1.675200 0.481500 -0.458800
C314 C 1.225200 0.576500 -0.330900
H315 H 1.166000 0.507600 -0.343500
C316 C 1.214500 0.677400 -0.352900
H317 H 1.147100 0.691700 -0.383500
C318 C 1.325100 0.755000 -0.320500
H319 H 1.343100 0.831800 -0.326000
C320 C 1.609400 0.590900 -0.049600
H321 H 1.675500 0.580800 -0.014100
C322 C 1.542200 0.676100 -0.009500
H323 H 1.554000 0.731100 0.054500
C324 C 1.456100 0.660600 -0.085000
H325 H 1.394900 0.702300 -0.082300
C326 C 0.730900 0.020200 0.039000
H327 H 0.728500 0.019200 0.105200
C328 C 0.648700 0.061300 -0.011100
H329 H 0.584000 0.092400 0.014100
C330 C 0.683400 0.046400 -0.105200
H331 H 0.646800 0.066000 -0.157300
C332 C 0.981900 -0.188400 -0.221100
H333 H 1.055900 -0.143500 -0.225700
C334 C 0.954400 -0.308400 -0.233400
H335 H 1.005600 -0.361600 -0.247600
C336 C 0.834200 -0.333900 -0.220300
H337 H 0.791200 -0.409600 -0.224600
C338 C 0.844200 0.060900 -0.329400
H339 H 0.914900 0.118600 -0.312800
C340 C 0.761800 0.038900 -0.409000
H341 H 0.764300 0.077800 -0.457900
C342 C 0.672800 -0.053700 -0.402500
H343 H 0.604200 -0.087300 -0.447900
N344 N 1.556980 0.529700 -0.363700
N345 N 1.468020 0.456810 -0.335540
N346 N 1.401600 0.706100 -0.280800
N347 N 1.338170 0.595060 -0.287010
N348 N 1.475590 0.572890 -0.165200
N349 N 1.569200 0.526300 -0.143520
N350 N 0.781170 -0.002370 -0.108010
N351 N 0.813300 -0.017500 -0.018430
N352 N 0.787900 -0.236870 -0.200720
N353 N 0.880640 -0.147710 -0.201160
N354 N 0.698000 -0.088300 -0.323610
N355 N 0.804860 -0.016390 -0.278230
O356 O 1.235120 0.464170 -0.166040
O357 O 0.962620 0.180550 -0.128380
C358 C 1.000300 0.620900 0.014330
C359 C 0.929300 0.559400 0.069440
C360 C 0.856900 0.622800 0.146300
H361 H 0.821300 0.677600 0.120900
H362 H 0.908200 0.668500 0.207900
O363 O 0.764880 0.535830 0.166040
C364 C 0.697000 0.590700 0.240900
C365 C 0.603300 0.490800 0.257900
N366 N 0.531980 0.543190 0.335540
C367 C 0.531500 0.659400 0.380200
H368 H 0.583300 0.724900 0.372000
C369 C 0.440800 0.662000 0.439300
H370 H 0.418000 0.729200 0.479800
C371 C 0.389400 0.543300 0.426600
H372 H 0.324800 0.518500 0.458800
N373 N 0.443020 0.470300 0.363700
N374 N 0.661830 0.404940 0.287010
C375 C 0.774800 0.423500 0.330900
H376 H 0.834000 0.492400 0.343500
C377 C 0.785500 0.322600 0.352900
H378 H 0.852900 0.308300 0.383500
C379 C 0.674900 0.245000 0.320500
H380 H 0.656900 0.168200 0.326000
N381 N 0.598400 0.293900 0.280800
N382 N 0.524410 0.427110 0.165200
C383 C 0.543900 0.339400 0.085000
C384 C 0.457800 0.323900 0.009500
C385 C 0.390600 0.409100 0.049600
H386 H 0.324500 0.419200 0.014100
N387 N 0.430800 0.473700 0.143520
H388 H 0.446000 0.268900 -0.054500
H389 H 0.605100 0.297700 0.082300
H390 H 0.748400 0.634700 0.302800
H391 H 0.658200 0.645700 0.218700
C392 C 0.930500 0.439100 0.053110
H393 H 0.882900 0.397400 0.088800
C394 C 1.000700 0.750400 0.025700
H395 H 1.055300 0.778600 -0.017300
H396 H 0.921200 0.758700 0.005700
O397 O 1.037380 0.819450 0.128380
C398 C 1.017900 0.937700 0.151200
H399 H 0.965900 0.951600 0.204300
H400 H 0.979400 0.948700 0.092200
C401 C 1.139300 1.026700 0.185540
N402 N 1.218830 1.002370 0.108010
C403 C 1.316600 0.953600 0.105200
C404 C 1.351300 0.938700 0.011100
C405 C 1.269100 0.979800 -0.039000
H406 H 1.271500 0.980800 -0.105200
N407 N 1.186700 1.017500 0.018430
H408 H 1.416000 0.907600 -0.014100
H409 H 1.353200 0.934000 0.157300
N410 N 1.119360 1.147710 0.201160
C411 C 1.018100 1.188400 0.221100
H412 H 0.944100 1.143500 0.225700
C413 C 1.045600 1.308400 0.233400
H414 H 0.994400 1.361600 0.247600
C415 C 1.165800 1.333900 0.220300
H416 H 1.208800 1.409600 0.224600
N417 N 1.212100 1.236870 0.200720
N418 N 1.195140 1.016390 0.278230
C419 C 1.155800 0.939100 0.329400
H420 H 1.085100 0.881400 0.312800
C421 C 1.238200 0.961100 0.409000
H422 H 1.235700 0.922200 0.457900
C423 C 1.327200 1.053700 0.402500
H424 H 1.395800 1.087300 0.447900
N425 N 1.302000 1.088300 0.323610
Ag426 Ag 0.397190 0.257440 0.287570
N427 N 1.787900 0.763130 -0.200720
N428 N 1.698000 0.911700 -0.323610
Ag429 Ag 0.602810 -0.257440 -0.287570
Ag430 Ag 1.397190 1.257440 0.287570
N431 N 0.212100 0.236870 0.200720
N432 N 0.302000 0.088300 0.323610
Ag433 Ag 1.602810 0.742560 0.712430
C434 C 1.396700 0.509200 0.742100
C435 C 1.303000 0.409300 0.759100
H436 H 1.251600 0.365300 0.697200
H437 H 1.341800 0.354300 0.781300
C438 C 1.143100 0.377200 0.853700
H439 H 1.178700 0.322400 0.879100
H440 H 1.091800 0.331500 0.792100
C441 C 1.070700 0.440600 0.930560
C442 C 1.069500 0.560900 0.946890
H443 H 1.117100 0.602600 0.911200
C444 C 0.999700 0.379100 0.985670
C445 C 0.999300 0.249600 0.974300
H446 H 0.944700 0.221400 1.017300
H447 H 1.078800 0.241300 0.994300
C448 C 0.982100 0.062300 0.848800
H449 H 1.034100 0.048400 0.795700
H450 H 1.020600 0.051300 0.907800
C451 C 0.860700 -0.026700 0.814460
C452 C 1.468500 0.340600 0.619800
H453 H 1.416700 0.275100 0.628000
C454 C 1.559200 0.338000 0.560700
H455 H 1.582000 0.270800 0.520200
C456 C 1.610600 0.456700 0.573400
H457 H 1.675200 0.481500 0.541200
C458 C 1.225200 0.576500 0.669100
H459 H 1.166000 0.507600 0.656500
C460 C 1.214500 0.677400 0.647100
H461 H 1.147100 0.691700 0.616500
C462 C 1.325100 0.755000 0.679500
H463 H 1.343100 0.831800 0.674000
C464 C 1.609400 0.590900 0.950400
H465 H 1.675500 0.580800 0.985900
C466 C 1.542200 0.676100 0.990500
H467 H 1.554000 0.731100 1.054500
C468 C 1.456100 0.660600 0.915000
H469 H 1.394900 0.702300 0.917700
C470 C 0.730900 0.020200 1.039000
H471 H 0.728500 0.019200 1.105200
C472 C 0.648700 0.061300 0.988900
H473 H 0.584000 0.092400 1.014100
C474 C 0.683400 0.046400 0.894800
H475 H 0.646800 0.066000 0.842700
C476 C 0.981900 -0.188400 0.778900
H477 H 1.055900 -0.143500 0.774300
C478 C 0.954400 -0.308400 0.766600
H479 H 1.005600 -0.361600 0.752400
C480 C 0.834200 -0.333900 0.779700
H481 H 0.791200 -0.409600 0.775400
C482 C 0.844200 0.060900 0.670600
H483 H 0.914900 0.118600 0.687200
C484 C 0.761800 0.038900 0.591000
H485 H 0.764300 0.077800 0.542100
C486 C 0.672800 -0.053700 0.597500
H487 H 0.604200 -0.087300 0.552100
N488 N 1.556980 0.529700 0.636300
N489 N 1.468020 0.456810 0.664460
N490 N 1.401600 0.706100 0.719200
N491 N 1.338170 0.595060 0.712990
N492 N 1.475590 0.572890 0.834800
N493 N 1.569200 0.526300 0.856480
N494 N 0.781170 -0.002370 0.891990
N495 N 0.813300 -0.017500 0.981570
N496 N 0.787900 -0.236870 0.799280
N497 N 0.880640 -0.147710 0.798840
N498 N 0.698000 -0.088300 0.676390
N499 N 0.804860 -0.016390 0.721770
O500 O 1.235120 0.464170 0.833960
O501 O 0.962620 0.180550 0.871620
C502 C 1.000300 0.620900 1.014330
C503 C 0.929300 0.559400 1.069440
C504 C 0.856900 0.622800 1.146300
H505 H 0.821300 0.677600 1.120900
H506 H 0.908200 0.668500 1.207900
O507 O 0.764880 0.535830 1.166040
C508 C 0.697000 0.590700 1.240900
C509 C 0.603300 0.490800 1.257900
N510 N 0.531980 0.543190 1.335540
C511 C 0.531500 0.659400 1.380200
H512 H 0.583300 0.724900 1.372000
C513 C 0.440800 0.662000 1.439300
H514 H 0.418000 0.729200 1.479800
C515 C 0.389400 0.543300 1.426600
H516 H 0.324800 0.518500 1.458800
N517 N 0.443020 0.470300 1.363700
N518 N 0.661830 0.404940 1.287010
C519 C 0.774800 0.423500 1.330900
H520 H 0.834000 0.492400 1.343500
C521 C 0.785500 0.322600 1.352900
H522 H 0.852900 0.308300 1.383500
C523 C 0.674900 0.245000 1.320500
H524 H 0.656900 0.168200 1.326000
N525 N 0.598400 0.293900 1.280800
N526 N 0.524410 0.427110 1.165200
C527 C 0.543900 0.339400 1.085000
C528 C 0.457800 0.323900 1.009500
C529 C 0.390600 0.409100 1.049600
H530 H 0.324500 0.419200 1.014100
N531 N 0.430800 0.473700 1.143520
H532 H 0.446000 0.268900 0.945500
H533 H 0.605100 0.297700 1.082300
H534 H 0.748400 0.634700 1.302800
H535 H 0.658200 0.645700 1.218700
C536 C 0.930500 0.439100 1.053110
H537 H 0.882900 0.397400 1.088800
C538 C 1.000700 0.750400 1.025700
H539 H 1.055300 0.778600 0.982700
H540 H 0.921200 0.758700 1.005700
O541 O 1.037380 0.819450 1.128380
C542 C 1.017900 0.937700 1.151200
H543 H 0.965900 0.951600 1.204300
H544 H 0.979400 0.948700 1.092200
C545 C 1.139300 1.026700 1.185540
N546 N 1.218830 1.002370 1.108010
C547 C 1.316600 0.953600 1.105200
C548 C 1.351300 0.938700 1.011100
C549 C 1.269100 0.979800 0.961000
H550 H 1.271500 0.980800 0.894800
N551 N 1.186700 1.017500 1.018430
H552 H 1.416000 0.907600 0.985900
H553 H 1.353200 0.934000 1.157300
N554 N 1.119360 1.147710 1.201160
C555 C 1.018100 1.188400 1.221100
H556 H 0.944100 1.143500 1.225700
C557 C 1.045600 1.308400 1.233400
H558 H 0.994400 1.361600 1.247600
C559 C 1.165800 1.333900 1.220300
H560 H 1.208800 1.409600 1.224600
N561 N 1.212100 1.236870 1.200720
N562 N 1.195140 1.016390 1.278230
C563 C 1.155800 0.939100 1.329400
H564 H 1.085100 0.881400 1.312800
C565 C 1.238200 0.961100 1.409000
H566 H 1.235700 0.922200 1.457900
C567 C 1.327200 1.053700 1.402500
H568 H 1.395800 1.087300 1.447900
N569 N 1.302000 1.088300 1.323610
Ag570 Ag 0.397190 0.257440 1.287570
N571 N 1.787900 0.763130 0.799280
N572 N 1.698000 0.911700 0.676390
Ag573 Ag 0.602810 -0.257440 0.712430
Ag574 Ag 1.397190 1.257440 1.287570
N575 N 0.212100 0.236870 1.200720
N576 N 0.302000 0.088300 1.323610
B577 B 0.271600 0.071400 0.696200
F578 F 0.204900 0.131600 0.653280
F579 F 0.359900 0.040900 0.638400
F580 F 0.313600 0.140800 0.791550
F581 F 0.199940 -0.031710 0.699560
B582 B 0.728400 0.928600 0.303800
F583 F 0.795100 0.868400 0.346720
F584 F 0.640100 0.959100 0.361600
F585 F 0.686400 0.859200 0.208450
F586 F 0.800060 1.031710 0.300440
C587 C 0.876800 0.745400 0.518000
C588 C 0.979800 0.830000 0.510100
H589 H 1.020900 0.872300 0.576000
H590 H 0.954800 0.885700 0.480100
H591 H 1.032500 0.788700 0.468900
N592 N 0.797800 0.678700 0.524100
C593 C 0.123200 0.254600 0.482000
C594 C 0.020200 0.170000 0.489900
H595 H -0.020900 0.127700 0.424000
H596 H 0.045200 0.114300 0.519900
H597 H -0.032500 0.211300 0.531100
N598 N 0.202200 0.321300 0.475900
C599 C 0.842100 0.357600 0.722700
C600 C 0.748000 0.331700 0.787900
H601 H 0.698600 0.254000 0.755900
H602 H 0.699600 0.390700 0.798000
H603 H 0.785200 0.333800 0.851700
N604 N 0.910600 0.374400 0.671500
C605 C 0.157900 0.642400 0.277300
C606 C 0.252000 0.668300 0.212100
H607 H 0.301400 0.746000 0.244100
H608 H 0.300400 0.609300 0.202000
H609 H 0.214800 0.666200 0.148300
N610 N 0.089400 0.625600 0.328500

#END
