./ACUKUE_from_xyz.cif_generated_by_CrystalShift
_symmetry_cell_setting triclinic
_symmetry_space_group_name_H-M 'P 1'
loop_
_symmetry_equiv_pos_site_id
_symmetry_equiv_pos_as_xyz
1 x,y,z
_cell_length_a 9.128000
_cell_length_b 30.712000
_cell_length_c 9.907000
_cell_angle_alpha 90.000000
_cell_angle_beta 114.390000
_cell_angle_gamma 90.000000
_cell_volume 2529.459936
loop_
_atom_site_label
_atom_site_type_symbol
_atom_site_fract_x
_atom_site_fract_y
_atom_site_fract_z
Sn1 Sn 1.030360 0.754600 0.852420
Cl2 Cl 1.265900 0.795500 0.863700
O3 O 0.709000 0.684900 0.871000
N4 N 0.779000 0.726300 0.873000
C5 C 0.919000 0.809600 0.903000
C6 C 0.754000 0.804000 0.909000
C7 C 0.784000 0.819800 1.066000
C8 C 0.815000 0.868400 1.069000
C9 C 0.958000 0.872500 1.068000
C10 C 1.026000 0.827800 1.066000
C11 C 0.953000 0.803200 1.157000
C12 C 0.615000 0.830300 0.785000
C13 C 0.568000 0.815200 0.627000
C14 C 0.452000 0.784400 0.561000
C15 C 0.407000 0.772400 0.412000
C16 C 0.477000 0.794200 0.334000
C17 C 0.595000 0.826500 0.396000
C18 C 0.636000 0.835600 0.542000
C19 C 0.702000 0.758100 0.895000
C20 C 0.781000 0.651000 0.825000
C21 C 1.170000 0.705100 1.003000
C22 C 1.303000 0.688600 0.977000
C23 C 1.388000 0.653300 1.063000
C24 C 1.360000 0.637700 1.175000
C25 C 1.237000 0.653400 1.204000
C26 C 1.146000 0.687700 1.114000
C27 C 0.954000 0.732000 0.625000
C28 C 1.064000 0.727700 0.566000
C29 C 1.014000 0.712500 0.427000
C30 C 0.865000 0.704300 0.337000
C31 C 0.754000 0.708700 0.393000
C32 C 0.795000 0.723600 0.539000
H33 H 0.911300 0.831800 0.834400
H34 H 0.705600 0.811100 1.101800
H35 H 0.744600 0.891100 1.072800
H36 H 1.011000 0.899600 1.068600
H37 H 1.140600 0.825900 1.098900
H38 H 0.963300 0.772500 1.151300
H39 H 0.996600 0.812000 1.257500
H40 H 0.650300 0.859800 0.791500
H41 H 0.523100 0.829200 0.807000
H42 H 0.401100 0.770700 0.613300
H43 H 0.332300 0.749300 0.367200
H44 H 0.445500 0.786100 0.234100
H45 H 0.642300 0.840900 0.336500
H46 H 0.713600 0.857400 0.585400
H47 H 0.605600 0.750900 0.904600
H48 H 0.775900 0.657500 0.732100
H49 H 0.728300 0.625000 0.827000
H50 H 0.891700 0.649300 0.896200
H51 H 1.333500 0.701500 0.906100
H52 H 1.471300 0.641900 1.039000
H53 H 1.431700 0.615800 1.231200
H54 H 1.216700 0.641200 1.280600
H55 H 1.060700 0.699000 1.135200
H56 H 1.172600 0.735100 0.623000
H57 H 1.092700 0.706700 0.389100
H58 H 0.831900 0.696000 0.235900
H59 H 0.644200 0.702100 0.332100
H60 H 0.713000 0.726400 0.575800
Sn61 Sn -0.030360 0.254600 0.147580
Cl62 Cl -0.265900 0.295500 0.136300
O63 O 0.291000 0.184900 0.129000
N64 N 0.221000 0.226300 0.127000
C65 C 0.081000 0.309600 0.097000
C66 C 0.246000 0.304000 0.091000
C67 C 0.216000 0.319800 -0.066000
C68 C 0.185000 0.368400 -0.069000
C69 C 0.042000 0.372500 -0.068000
C70 C -0.026000 0.327800 -0.066000
C71 C 0.047000 0.303200 -0.157000
C72 C 0.385000 0.330300 0.215000
C73 C 0.432000 0.315200 0.373000
C74 C 0.548000 0.284400 0.439000
C75 C 0.593000 0.272400 0.588000
C76 C 0.523000 0.294200 0.666000
C77 C 0.405000 0.326500 0.604000
C78 C 0.364000 0.335600 0.458000
C79 C 0.298000 0.258100 0.105000
C80 C 0.219000 0.151000 0.175000
C81 C -0.170000 0.205100 -0.003000
C82 C -0.303000 0.188600 0.023000
C83 C -0.388000 0.153300 -0.063000
C84 C -0.360000 0.137700 -0.175000
C85 C -0.237000 0.153400 -0.204000
C86 C -0.146000 0.187700 -0.114000
C87 C 0.046000 0.232000 0.375000
C88 C -0.064000 0.227700 0.434000
C89 C -0.014000 0.212500 0.573000
C90 C 0.135000 0.204300 0.663000
C91 C 0.246000 0.208700 0.607000
C92 C 0.205000 0.223600 0.461000
H93 H 0.088700 0.331800 0.165600
H94 H 0.294400 0.311100 -0.101800
H95 H 0.255400 0.391100 -0.072800
H96 H -0.011000 0.399600 -0.068600
H97 H -0.140600 0.325900 -0.098900
H98 H 0.036700 0.272500 -0.151300
H99 H 0.003400 0.312000 -0.257500
H100 H 0.349700 0.359800 0.208500
H101 H 0.476900 0.329200 0.193000
H102 H 0.598900 0.270700 0.386700
H103 H 0.667700 0.249300 0.632800
H104 H 0.554500 0.286100 0.765900
H105 H 0.357700 0.340900 0.663500
H106 H 0.286400 0.357400 0.414600
H107 H 0.394400 0.250900 0.095400
H108 H 0.224100 0.157500 0.267900
H109 H 0.271700 0.125000 0.173000
H110 H 0.108300 0.149300 0.103800
H111 H -0.333500 0.201500 0.093900
H112 H -0.471300 0.141900 -0.039000
H113 H -0.431700 0.115800 -0.231200
H114 H -0.216700 0.141200 -0.280600
H115 H -0.060700 0.199000 -0.135200
H116 H -0.172600 0.235100 0.377000
H117 H -0.092700 0.206700 0.610900
H118 H 0.168100 0.196000 0.764100
H119 H 0.355800 0.202100 0.667900
H120 H 0.287000 0.226400 0.424200
Sn121 Sn -0.059460 0.994800 0.726210
Cl122 Cl -0.302500 0.954300 0.700200
O123 O 0.276000 1.064400 0.754000
N124 N 0.199000 1.022200 0.738000
C125 C 0.055000 0.938800 0.679000
C126 C 0.230000 0.947400 0.683000
C127 C 0.200000 0.934800 0.519000
C128 C 0.169000 0.885200 0.508000
C129 C 0.026000 0.877400 0.509000
C130 C -0.044000 0.921100 0.519000
C131 C 0.024000 0.948700 0.432000
C132 C 0.364000 0.919400 0.796000
C133 C 0.415000 0.931000 0.961000
C134 C 0.526000 0.964400 1.029000
C135 C 0.573000 0.973100 1.175000
C136 C 0.512000 0.950200 1.262000
C137 C 0.403000 0.917900 1.195000
C138 C 0.357000 0.908800 1.052000
C139 C 0.272000 0.995000 0.704000
C140 C 0.228000 1.091800 0.844000
C141 C -0.003000 1.017300 0.946000
C142 C -0.109000 1.038600 0.984000
C143 C -0.072000 1.053000 1.125000
C144 C 0.075000 1.048800 1.233000
C145 C 0.179000 1.024300 1.202000
C146 C 0.152000 1.007400 1.064000
C147 C -0.182000 1.045100 0.568000
C148 C -0.117000 1.070500 0.496000
C149 C -0.193000 1.105600 0.408000
C150 C -0.352000 1.111400 0.380000
C151 C -0.426000 1.086600 0.443000
C152 C -0.347000 1.052600 0.532000
H153 H 0.063900 0.916400 0.748200
H154 H 0.275700 0.945300 0.485100
H155 H 0.240600 0.863900 0.502100
H156 H -0.021700 0.849900 0.503900
H157 H -0.156600 0.922100 0.486700
H158 H 0.008500 0.978800 0.439600
H159 H -0.015900 0.940300 0.331100
H160 H 0.456900 0.922300 0.776400
H161 H 0.329500 0.890100 0.783900
H162 H 0.568400 0.981000 0.970300
H163 H 0.652500 0.995400 1.218400
H164 H 0.542100 0.957000 1.362900
H165 H 0.359500 0.901800 1.250300
H166 H 0.281200 0.885800 1.008200
H167 H 0.365400 1.003900 0.691200
H168 H 0.260200 1.078900 0.938800
H169 H 0.116300 1.095700 0.799200
H170 H 0.281000 1.119300 0.854700
H171 H -0.215600 1.043700 0.909500
H172 H -0.157600 1.066800 1.142400
H173 H 0.099200 1.062900 1.326200
H174 H 0.277100 1.018200 1.281300
H175 H 0.230900 0.991500 1.045600
H176 H -0.010100 1.064000 0.508300
H177 H -0.136200 1.124300 0.367900
H178 H -0.406600 1.134500 0.310800
H179 H -0.533100 1.093400 0.424500
H180 H -0.402100 1.033100 0.565800
Sn181 Sn 1.059460 0.494800 0.273790
Cl182 Cl 1.302500 0.454300 0.299800
O183 O 0.724000 0.564400 0.246000
N184 N 0.801000 0.522200 0.262000
C185 C 0.945000 0.438800 0.321000
C186 C 0.770000 0.447400 0.317000
C187 C 0.800000 0.434800 0.481000
C188 C 0.831000 0.385200 0.492000
C189 C 0.974000 0.377400 0.491000
C190 C 1.044000 0.421100 0.481000
C191 C 0.976000 0.448700 0.568000
C192 C 0.636000 0.419400 0.204000
C193 C 0.585000 0.431000 0.039000
C194 C 0.474000 0.464400 -0.029000
C195 C 0.427000 0.473100 -0.175000
C196 C 0.488000 0.450200 -0.262000
C197 C 0.597000 0.417900 -0.195000
C198 C 0.643000 0.408800 -0.052000
C199 C 0.728000 0.495000 0.296000
C200 C 0.772000 0.591800 0.156000
C201 C 1.003000 0.517300 0.054000
C202 C 1.109000 0.538600 0.016000
C203 C 1.072000 0.553000 -0.125000
C204 C 0.925000 0.548800 -0.233000
C205 C 0.821000 0.524300 -0.202000
C206 C 0.848000 0.507400 -0.064000
C207 C 1.182000 0.545100 0.432000
C208 C 1.117000 0.570500 0.504000
C209 C 1.193000 0.605600 0.592000
C210 C 1.352000 0.611400 0.620000
C211 C 1.426000 0.586600 0.557000
C212 C 1.347000 0.552600 0.468000
H213 H 0.936100 0.416400 0.251800
H214 H 0.724300 0.445300 0.514900
H215 H 0.759400 0.363900 0.497900
H216 H 1.021700 0.349900 0.496100
H217 H 1.156600 0.422100 0.513300
H218 H 0.991500 0.478800 0.560400
H219 H 1.015900 0.440300 0.668900
H220 H 0.543100 0.422300 0.223600
H221 H 0.670500 0.390100 0.216100
H222 H 0.431600 0.481000 0.029700
H223 H 0.347500 0.495400 -0.218400
H224 H 0.457900 0.457000 -0.362900
H225 H 0.640500 0.401800 -0.250300
H226 H 0.718800 0.385800 -0.008200
H227 H 0.634600 0.503900 0.308800
H228 H 0.739800 0.578900 0.061200
H229 H 0.883700 0.595700 0.200800
H230 H 0.719000 0.619300 0.145300
H231 H 1.215600 0.543700 0.090500
H232 H 1.157600 0.566800 -0.142400
H233 H 0.900800 0.562900 -0.326200
H234 H 0.722900 0.518200 -0.281300
H235 H 0.769100 0.491500 -0.045600
H236 H 1.010100 0.564000 0.491700
H237 H 1.136200 0.624300 0.632100
H238 H 1.406600 0.634500 0.689200
H239 H 1.533100 0.593400 0.575500
H240 H 1.402100 0.533100 0.434200

#END
