./ACULER_from_xyz.cif_generated_by_CrystalShift
_symmetry_cell_setting triclinic
_symmetry_space_group_name_H-M 'P 1'
loop_
_symmetry_equiv_pos_site_id
_symmetry_equiv_pos_as_xyz
1 x,y,z
_cell_length_a 11.312000
_cell_length_b 7.372000
_cell_length_c 21.323000
_cell_angle_alpha 90.000000
_cell_angle_beta 94.450000
_cell_angle_gamma 90.000000
_cell_volume 1772.808539
loop_
_atom_site_label
_atom_site_type_symbol
_atom_site_fract_x
_atom_site_fract_y
_atom_site_fract_z
N1 N 0.800800 0.606300 0.159100
N2 N 1.032300 0.153500 0.146500
N3 N 0.332700 0.678900 0.444400
C4 C 0.852400 0.284300 0.198400
C5 C 0.791700 0.188200 0.239100
C6 C 0.822600 0.464500 0.178000
C7 C 0.951200 0.210900 0.169100
C8 C 0.825200 -0.007900 0.250200
C9 C 0.700200 0.434800 0.297800
C10 C 0.696600 0.263000 0.273800
C11 C 0.599400 0.148800 0.286800
C12 C 0.511400 0.205300 0.320800
C13 C 0.421200 0.445900 0.382900
C14 C 0.423800 0.617300 0.408100
C15 C 0.520200 0.732100 0.394900
C16 C 0.609100 0.673400 0.359900
C17 C 0.607900 0.498600 0.334400
C18 C 0.513000 0.382500 0.345300
C19 C 0.352400 0.848500 0.478300
C20 C 0.242800 0.917600 0.505700
C21 C 0.188800 0.779000 0.547400
C22 C 0.076200 0.847000 0.574800
C23 C 0.165700 0.611000 0.508900
C24 C 0.272200 0.540000 0.479100
H25 H 0.769440 0.516230 0.293020
H26 H 0.597910 0.023460 0.271540
H27 H 0.436690 0.136260 0.330050
H28 H 0.349170 0.357390 0.387040
H29 H 0.521340 0.850480 0.412960
H30 H 0.676560 0.760090 0.350850
H31 H 0.421630 0.811040 0.508460
H32 H 0.379190 0.933070 0.448860
H33 H 0.263540 1.020950 0.528210
H34 H 0.188710 0.944300 0.468930
H35 H 0.139370 0.517860 0.533000
H36 H 0.112420 0.680030 0.475180
H37 H 0.336810 0.506350 0.516220
H38 H 0.232020 0.504680 0.442760
H39 H 0.887440 -0.033840 0.230190
H40 H 0.817090 -0.036730 0.293370
H41 H 0.760330 -0.073970 0.244980
H42 H 0.052510 0.781680 0.610470
H43 H 0.103060 0.976290 0.593050
H44 H 0.010620 0.846620 0.538160
N45 N 0.199200 0.106300 0.340900
N46 N -0.032300 -0.346500 0.353500
N47 N 0.667300 0.178900 0.055600
C48 C 0.147600 -0.215700 0.301600
C49 C 0.208300 -0.311800 0.260900
C50 C 0.177400 -0.035500 0.322000
C51 C 0.048800 -0.289100 0.330900
C52 C 0.174800 -0.507900 0.249800
C53 C 0.299800 -0.065200 0.202200
C54 C 0.303400 -0.237000 0.226200
C55 C 0.400600 -0.351200 0.213200
C56 C 0.488600 -0.294700 0.179200
C57 C 0.578800 -0.054100 0.117100
C58 C 0.576200 0.117300 0.091900
C59 C 0.479800 0.232100 0.105100
C60 C 0.390900 0.173400 0.140100
C61 C 0.392100 -0.001400 0.165600
C62 C 0.487000 -0.117500 0.154700
C63 C 0.647600 0.348500 0.021700
C64 C 0.757200 0.417600 -0.005700
C65 C 0.811200 0.279000 -0.047400
C66 C 0.923800 0.347000 -0.074800
C67 C 0.834300 0.111000 -0.008900
C68 C 0.727800 0.040000 0.020900
H69 H 0.230560 0.016230 0.206980
H70 H 0.402090 -0.476540 0.228460
H71 H 0.563310 -0.363740 0.169950
H72 H 0.650830 -0.142610 0.112960
H73 H 0.478660 0.350480 0.087040
H74 H 0.323440 0.260090 0.149150
H75 H 0.578370 0.311040 -0.008460
H76 H 0.620810 0.433070 0.051140
H77 H 0.736460 0.520950 -0.028210
H78 H 0.811290 0.444300 0.031070
H79 H 0.860630 0.017860 -0.033000
H80 H 0.887580 0.180030 0.024820
H81 H 0.663190 0.006350 -0.016220
H82 H 0.767980 0.004680 0.057240
H83 H 0.112560 -0.533840 0.269810
H84 H 0.182910 -0.536730 0.206630
H85 H 0.239670 -0.573970 0.255020
H86 H 0.947490 0.281680 -0.110470
H87 H 0.896940 0.476290 -0.093050
H88 H 0.989380 0.346620 -0.038160
N89 N 0.199200 0.393700 0.840900
N90 N -0.032300 0.846500 0.853500
N91 N 0.667300 0.321100 0.555600
C92 C 0.147600 0.715700 0.801600
C93 C 0.208300 0.811800 0.760900
C94 C 0.177400 0.535500 0.822000
C95 C 0.048800 0.789100 0.830900
C96 C 0.174800 1.007900 0.749800
C97 C 0.299800 0.565200 0.702200
C98 C 0.303400 0.737000 0.726200
C99 C 0.400600 0.851200 0.713200
C100 C 0.488600 0.794700 0.679200
C101 C 0.578800 0.554100 0.617100
C102 C 0.576200 0.382700 0.591900
C103 C 0.479800 0.267900 0.605100
C104 C 0.390900 0.326600 0.640100
C105 C 0.392100 0.501400 0.665600
C106 C 0.487000 0.617500 0.654700
C107 C 0.647600 0.151500 0.521700
C108 C 0.757200 0.082400 0.494300
C109 C 0.811200 0.221000 0.452600
C110 C 0.923800 0.153000 0.425200
C111 C 0.834300 0.389000 0.491100
C112 C 0.727800 0.460000 0.520900
H113 H 0.230560 0.483770 0.706980
H114 H 0.402090 0.976540 0.728460
H115 H 0.563310 0.863740 0.669950
H116 H 0.650830 0.642610 0.612960
H117 H 0.478660 0.149520 0.587040
H118 H 0.323440 0.239910 0.649150
H119 H 0.578370 0.188960 0.491540
H120 H 0.620810 0.066930 0.551140
H121 H 0.736460 -0.020950 0.471790
H122 H 0.811290 0.055700 0.531070
H123 H 0.860630 0.482140 0.467000
H124 H 0.887580 0.319970 0.524820
H125 H 0.663190 0.493650 0.483780
H126 H 0.767980 0.495320 0.557240
H127 H 0.112560 1.033840 0.769810
H128 H 0.182910 1.036730 0.706630
H129 H 0.239670 1.073970 0.755020
H130 H 0.947490 0.218320 0.389530
H131 H 0.896940 0.023710 0.406950
H132 H 0.989380 0.153380 0.461840
N133 N 0.800800 0.893700 0.659100
N134 N 1.032300 1.346500 0.646500
N135 N 0.332700 0.821100 0.944400
C136 C 0.852400 1.215700 0.698400
C137 C 0.791700 1.311800 0.739100
C138 C 0.822600 1.035500 0.678000
C139 C 0.951200 1.289100 0.669100
C140 C 0.825200 1.507900 0.750200
C141 C 0.700200 1.065200 0.797800
C142 C 0.696600 1.237000 0.773800
C143 C 0.599400 1.351200 0.786800
C144 C 0.511400 1.294700 0.820800
C145 C 0.421200 1.054100 0.882900
C146 C 0.423800 0.882700 0.908100
C147 C 0.520200 0.767900 0.894900
C148 C 0.609100 0.826600 0.859900
C149 C 0.607900 1.001400 0.834400
C150 C 0.513000 1.117500 0.845300
C151 C 0.352400 0.651500 0.978300
C152 C 0.242800 0.582400 1.005700
C153 C 0.188800 0.721000 1.047400
C154 C 0.076200 0.653000 1.074800
C155 C 0.165700 0.889000 1.008900
C156 C 0.272200 0.960000 0.979100
H157 H 0.769440 0.983770 0.793020
H158 H 0.597910 1.476540 0.771540
H159 H 0.436690 1.363740 0.830050
H160 H 0.349170 1.142610 0.887040
H161 H 0.521340 0.649520 0.912960
H162 H 0.676560 0.739910 0.850850
H163 H 0.421630 0.688960 1.008460
H164 H 0.379190 0.566930 0.948860
H165 H 0.263540 0.479050 1.028210
H166 H 0.188710 0.555700 0.968930
H167 H 0.139370 0.982140 1.033000
H168 H 0.112420 0.819970 0.975180
H169 H 0.336810 0.993650 1.016220
H170 H 0.232020 0.995320 0.942760
H171 H 0.887440 1.533840 0.730190
H172 H 0.817090 1.536730 0.793370
H173 H 0.760330 1.573970 0.744980
H174 H 0.052510 0.718320 1.110470
H175 H 0.103060 0.523710 1.093050
H176 H 0.010620 0.653380 1.038160

#END
