./ACULIV01_from_xyz.cif_generated_by_CrystalShift
_symmetry_cell_setting triclinic
_symmetry_space_group_name_H-M 'P 1'
loop_
_symmetry_equiv_pos_site_id
_symmetry_equiv_pos_as_xyz
1 x,y,z
_cell_length_a 13.518000
_cell_length_b 15.067000
_cell_length_c 7.419000
_cell_angle_alpha 90.000000
_cell_angle_beta 90.580000
_cell_angle_gamma 90.000000
_cell_volume 1510.992666
loop_
_atom_site_label
_atom_site_type_symbol
_atom_site_fract_x
_atom_site_fract_y
_atom_site_fract_z
N1 N 1.018900 0.645100 -0.164300
N2 N 1.147400 0.622600 0.358900
N3 N 0.367700 0.624400 -0.214000
C4 C 0.716300 0.630400 0.216100
C5 C 0.802700 0.597400 0.145100
C6 C 0.800600 0.554700 -0.027200
C7 C 0.714700 0.548300 -0.123800
C8 C 0.626100 0.586200 -0.061500
C9 C 0.539000 0.585500 -0.167100
C10 C 0.452500 0.623300 -0.109600
C11 C 0.452800 0.663500 0.066200
C12 C 0.536500 0.664400 0.170700
C13 C 0.626900 0.626800 0.113300
C14 C 0.895400 0.603900 0.246400
C15 C 0.883300 0.605400 0.447200
C16 C 0.814400 0.681000 0.491600
C17 C 0.715000 0.670800 0.403000
C18 C 0.985100 0.616000 0.171700
C19 C 1.001900 0.631200 -0.015900
C20 C 1.074600 0.620100 0.280100
C21 C 0.369500 0.586000 -0.391400
C22 C 0.277600 0.664700 -0.156600
H23 H 0.868000 0.531000 -0.074000
H24 H 0.712000 0.514000 -0.242000
H25 H 0.544000 0.550000 -0.290000
H26 H 0.395000 0.688000 0.113000
H27 H 0.536000 0.697000 0.294000
H28 H 0.943000 0.609000 0.492000
H29 H 0.852000 0.545000 0.484000
H30 H 0.859000 0.738000 0.457000
H31 H 0.803000 0.680000 0.623000
H32 H 0.672000 0.633000 0.473000
H33 H 0.676000 0.726000 0.386000
H34 H 0.427000 0.612000 -0.459000
H35 H 0.395000 0.527000 -0.387000
H36 H 0.299000 0.591000 -0.438000
H37 H 0.253000 0.643000 -0.042000
H38 H 0.230000 0.651000 -0.221000
H39 H 0.281000 0.716000 -0.094000
N40 N -0.018900 0.145100 0.664300
N41 N -0.147400 0.122600 0.141100
N42 N 0.632300 0.124400 0.714000
C43 C 0.283700 0.130400 0.283900
C44 C 0.197300 0.097400 0.354900
C45 C 0.199400 0.054700 0.527200
C46 C 0.285300 0.048300 0.623800
C47 C 0.373900 0.086200 0.561500
C48 C 0.461000 0.085500 0.667100
C49 C 0.547500 0.123300 0.609600
C50 C 0.547200 0.163500 0.433800
C51 C 0.463500 0.164400 0.329300
C52 C 0.373100 0.126800 0.386700
C53 C 0.104600 0.103900 0.253600
C54 C 0.116700 0.105400 0.052800
C55 C 0.185600 0.181000 0.008400
C56 C 0.285000 0.170800 0.097000
C57 C 0.014900 0.116000 0.328300
C58 C -0.001900 0.131200 0.515900
C59 C -0.074600 0.120100 0.219900
C60 C 0.630500 0.086000 0.891400
C61 C 0.722400 0.164700 0.656600
H62 H 0.132000 0.031000 0.574000
H63 H 0.288000 0.014000 0.742000
H64 H 0.456000 0.050000 0.790000
H65 H 0.605000 0.188000 0.387000
H66 H 0.464000 0.197000 0.206000
H67 H 0.057000 0.109000 0.008000
H68 H 0.148000 0.045000 0.016000
H69 H 0.141000 0.238000 0.043000
H70 H 0.197000 0.180000 -0.123000
H71 H 0.328000 0.133000 0.027000
H72 H 0.324000 0.226000 0.114000
H73 H 0.573000 0.112000 0.959000
H74 H 0.605000 0.027000 0.887000
H75 H 0.701000 0.091000 0.938000
H76 H 0.747000 0.143000 0.542000
H77 H 0.770000 0.151000 0.721000
H78 H 0.719000 0.216000 0.594000
N79 N -0.018900 0.354900 1.164300
N80 N -0.147400 0.377400 0.641100
N81 N 0.632300 0.375600 1.214000
C82 C 0.283700 0.369600 0.783900
C83 C 0.197300 0.402600 0.854900
C84 C 0.199400 0.445300 1.027200
C85 C 0.285300 0.451700 1.123800
C86 C 0.373900 0.413800 1.061500
C87 C 0.461000 0.414500 1.167100
C88 C 0.547500 0.376700 1.109600
C89 C 0.547200 0.336500 0.933800
C90 C 0.463500 0.335600 0.829300
C91 C 0.373100 0.373200 0.886700
C92 C 0.104600 0.396100 0.753600
C93 C 0.116700 0.394600 0.552800
C94 C 0.185600 0.319000 0.508400
C95 C 0.285000 0.329200 0.597000
C96 C 0.014900 0.384000 0.828300
C97 C -0.001900 0.368800 1.015900
C98 C -0.074600 0.379900 0.719900
C99 C 0.630500 0.414000 1.391400
C100 C 0.722400 0.335300 1.156600
H101 H 0.132000 0.469000 1.074000
H102 H 0.288000 0.486000 1.242000
H103 H 0.456000 0.450000 1.290000
H104 H 0.605000 0.312000 0.887000
H105 H 0.464000 0.303000 0.706000
H106 H 0.057000 0.391000 0.508000
H107 H 0.148000 0.455000 0.516000
H108 H 0.141000 0.262000 0.543000
H109 H 0.197000 0.320000 0.377000
H110 H 0.328000 0.367000 0.527000
H111 H 0.324000 0.274000 0.614000
H112 H 0.573000 0.388000 1.459000
H113 H 0.605000 0.473000 1.387000
H114 H 0.701000 0.409000 1.438000
H115 H 0.747000 0.357000 1.042000
H116 H 0.770000 0.349000 1.221000
H117 H 0.719000 0.284000 1.094000
N118 N 1.018900 0.854900 0.335700
N119 N 1.147400 0.877400 0.858900
N120 N 0.367700 0.875600 0.286000
C121 C 0.716300 0.869600 0.716100
C122 C 0.802700 0.902600 0.645100
C123 C 0.800600 0.945300 0.472800
C124 C 0.714700 0.951700 0.376200
C125 C 0.626100 0.913800 0.438500
C126 C 0.539000 0.914500 0.332900
C127 C 0.452500 0.876700 0.390400
C128 C 0.452800 0.836500 0.566200
C129 C 0.536500 0.835600 0.670700
C130 C 0.626900 0.873200 0.613300
C131 C 0.895400 0.896100 0.746400
C132 C 0.883300 0.894600 0.947200
C133 C 0.814400 0.819000 0.991600
C134 C 0.715000 0.829200 0.903000
C135 C 0.985100 0.884000 0.671700
C136 C 1.001900 0.868800 0.484100
C137 C 1.074600 0.879900 0.780100
C138 C 0.369500 0.914000 0.108600
C139 C 0.277600 0.835300 0.343400
H140 H 0.868000 0.969000 0.426000
H141 H 0.712000 0.986000 0.258000
H142 H 0.544000 0.950000 0.210000
H143 H 0.395000 0.812000 0.613000
H144 H 0.536000 0.803000 0.794000
H145 H 0.943000 0.891000 0.992000
H146 H 0.852000 0.955000 0.984000
H147 H 0.859000 0.762000 0.957000
H148 H 0.803000 0.820000 1.123000
H149 H 0.672000 0.867000 0.973000
H150 H 0.676000 0.774000 0.886000
H151 H 0.427000 0.888000 0.041000
H152 H 0.395000 0.973000 0.113000
H153 H 0.299000 0.909000 0.062000
H154 H 0.253000 0.857000 0.458000
H155 H 0.230000 0.849000 0.279000
H156 H 0.281000 0.784000 0.406000

#END
