./ACUMAN_from_xyz.cif_generated_by_CrystalShift
_symmetry_cell_setting triclinic
_symmetry_space_group_name_H-M 'P 1'
loop_
_symmetry_equiv_pos_site_id
_symmetry_equiv_pos_as_xyz
1 x,y,z
_cell_length_a 24.044000
_cell_length_b 6.335500
_cell_length_c 25.451000
_cell_angle_alpha 90.000000
_cell_angle_beta 115.060000
_cell_angle_gamma 90.000000
_cell_volume 3512.010548
loop_
_atom_site_label
_atom_site_type_symbol
_atom_site_fract_x
_atom_site_fract_y
_atom_site_fract_z
O1 O 0.470770 0.380900 0.150180
N2 N 0.604330 -0.319000 0.324870
C3 C 0.641950 -0.166400 0.359280
C4 C 0.678690 -0.168100 0.417550
H5 H 0.680300 -0.284300 0.440400
C6 C 0.712530 0.006500 0.440350
H7 H 0.738000 0.008900 0.479900
C8 C 0.710840 0.181400 0.407410
H9 H 0.735000 0.298600 0.424700
C10 C 0.673990 0.181700 0.349980
H11 H 0.672500 0.298900 0.327400
C12 C 0.638410 0.006100 0.325070
C13 C 0.595710 -0.045500 0.268060
C14 C 0.576720 -0.243500 0.270030
H15 H 0.548700 -0.317800 0.238400
C16 C 0.574830 0.103100 0.218340
H17 H 0.565400 0.235300 0.232800
C18 C 0.625270 0.156500 0.199880
C19 C 0.628080 0.353100 0.178930
H20 H 0.599100 0.454600 0.176400
C21 C 0.673330 0.401400 0.161690
H22 H 0.674300 0.534900 0.146900
C23 C 0.716310 0.258800 0.165870
H24 H 0.746900 0.293600 0.154100
C25 C 0.715030 0.063600 0.187280
H26 H 0.744600 -0.035900 0.190200
C27 C 0.669550 0.013800 0.204630
H28 H 0.669100 -0.119300 0.219800
C29 C 0.514800 0.033800 0.168670
H30 H 0.490200 -0.029900 0.186900
C31 C 0.517600 -0.129300 0.126150
H32 H 0.558000 -0.132700 0.126400
H33 H 0.507800 -0.268900 0.135500
C34 C 0.470910 -0.057400 0.069350
C35 C 0.449320 0.140400 0.072890
C36 C 0.477230 0.210000 0.132170
C37 C 0.449180 -0.156900 0.017190
H38 H 0.463400 -0.290400 0.013800
C39 C 0.406700 -0.059200 -0.029600
H40 H 0.391200 -0.128700 -0.065100
C41 C 0.385500 0.138600 -0.026690
H42 H 0.357000 0.203000 -0.060100
C43 C 0.406220 0.241200 0.025110
H44 H 0.391800 0.374700 0.028100
H45 H 0.593000 -0.426000 0.336000
O46 O -0.029230 0.880900 0.150180
N47 N 0.104330 0.181000 0.324870
C48 C 0.141950 0.333600 0.359280
C49 C 0.178690 0.331900 0.417550
H50 H 0.180300 0.215700 0.440400
C51 C 0.212530 0.506500 0.440350
H52 H 0.238000 0.508900 0.479900
C53 C 0.210840 0.681400 0.407410
H54 H 0.235000 0.798600 0.424700
C55 C 0.173990 0.681700 0.349980
H56 H 0.172500 0.798900 0.327400
C57 C 0.138410 0.506100 0.325070
C58 C 0.095710 0.454500 0.268060
C59 C 0.076720 0.256500 0.270030
H60 H 0.048700 0.182200 0.238400
C61 C 0.074830 0.603100 0.218340
H62 H 0.065400 0.735300 0.232800
C63 C 0.125270 0.656500 0.199880
C64 C 0.128080 0.853100 0.178930
H65 H 0.099100 0.954600 0.176400
C66 C 0.173330 0.901400 0.161690
H67 H 0.174300 1.034900 0.146900
C68 C 0.216310 0.758800 0.165870
H69 H 0.246900 0.793600 0.154100
C70 C 0.215030 0.563600 0.187280
H71 H 0.244600 0.464100 0.190200
C72 C 0.169550 0.513800 0.204630
H73 H 0.169100 0.380700 0.219800
C74 C 0.014800 0.533800 0.168670
H75 H -0.009800 0.470100 0.186900
C76 C 0.017600 0.370700 0.126150
H77 H 0.058000 0.367300 0.126400
H78 H 0.007800 0.231100 0.135500
C79 C -0.029090 0.442600 0.069350
C80 C -0.050680 0.640400 0.072890
C81 C -0.022770 0.710000 0.132170
C82 C -0.050820 0.343100 0.017190
H83 H -0.036600 0.209600 0.013800
C84 C -0.093300 0.440800 -0.029600
H85 H -0.108800 0.371300 -0.065100
C86 C -0.114500 0.638600 -0.026690
H87 H -0.143000 0.703000 -0.060100
C88 C -0.093780 0.741200 0.025110
H89 H -0.108200 0.874700 0.028100
H90 H 0.093000 0.074000 0.336000
O91 O 0.529230 0.380900 0.349820
N92 N 0.395670 -0.319000 0.175130
C93 C 0.358050 -0.166400 0.140720
C94 C 0.321310 -0.168100 0.082450
H95 H 0.319700 -0.284300 0.059600
C96 C 0.287470 0.006500 0.059650
H97 H 0.262000 0.008900 0.020100
C98 C 0.289160 0.181400 0.092590
H99 H 0.265000 0.298600 0.075300
C100 C 0.326010 0.181700 0.150020
H101 H 0.327500 0.298900 0.172600
C102 C 0.361590 0.006100 0.174930
C103 C 0.404290 -0.045500 0.231940
C104 C 0.423280 -0.243500 0.229970
H105 H 0.451300 -0.317800 0.261600
C106 C 0.425170 0.103100 0.281660
H107 H 0.434600 0.235300 0.267200
C108 C 0.374730 0.156500 0.300120
C109 C 0.371920 0.353100 0.321070
H110 H 0.400900 0.454600 0.323600
C111 C 0.326670 0.401400 0.338310
H112 H 0.325700 0.534900 0.353100
C113 C 0.283690 0.258800 0.334130
H114 H 0.253100 0.293600 0.345900
C115 C 0.284970 0.063600 0.312720
H116 H 0.255400 -0.035900 0.309800
C117 C 0.330450 0.013800 0.295370
H118 H 0.330900 -0.119300 0.280200
C119 C 0.485200 0.033800 0.331330
H120 H 0.509800 -0.029900 0.313100
C121 C 0.482400 -0.129300 0.373850
H122 H 0.442000 -0.132700 0.373600
H123 H 0.492200 -0.268900 0.364500
C124 C 0.529090 -0.057400 0.430650
C125 C 0.550680 0.140400 0.427110
C126 C 0.522770 0.210000 0.367830
C127 C 0.550820 -0.156900 0.482810
H128 H 0.536600 -0.290400 0.486200
C129 C 0.593300 -0.059200 0.529600
H130 H 0.608800 -0.128700 0.565100
C131 C 0.614500 0.138600 0.526690
H132 H 0.643000 0.203000 0.560100
C133 C 0.593780 0.241200 0.474890
H134 H 0.608200 0.374700 0.471900
H135 H 0.407000 -0.426000 0.164000
O136 O 1.029230 0.880900 0.349820
N137 N 0.895670 0.181000 0.175130
C138 C 0.858050 0.333600 0.140720
C139 C 0.821310 0.331900 0.082450
H140 H 0.819700 0.215700 0.059600
C141 C 0.787470 0.506500 0.059650
H142 H 0.762000 0.508900 0.020100
C143 C 0.789160 0.681400 0.092590
H144 H 0.765000 0.798600 0.075300
C145 C 0.826010 0.681700 0.150020
H146 H 0.827500 0.798900 0.172600
C147 C 0.861590 0.506100 0.174930
C148 C 0.904290 0.454500 0.231940
C149 C 0.923280 0.256500 0.229970
H150 H 0.951300 0.182200 0.261600
C151 C 0.925170 0.603100 0.281660
H152 H 0.934600 0.735300 0.267200
C153 C 0.874730 0.656500 0.300120
C154 C 0.871920 0.853100 0.321070
H155 H 0.900900 0.954600 0.323600
C156 C 0.826670 0.901400 0.338310
H157 H 0.825700 1.034900 0.353100
C158 C 0.783690 0.758800 0.334130
H159 H 0.753100 0.793600 0.345900
C160 C 0.784970 0.563600 0.312720
H161 H 0.755400 0.464100 0.309800
C162 C 0.830450 0.513800 0.295370
H163 H 0.830900 0.380700 0.280200
C164 C 0.985200 0.533800 0.331330
H165 H 1.009800 0.470100 0.313100
C166 C 0.982400 0.370700 0.373850
H167 H 0.942000 0.367300 0.373600
H168 H 0.992200 0.231100 0.364500
C169 C 1.029090 0.442600 0.430650
C170 C 1.050680 0.640400 0.427110
C171 C 1.022770 0.710000 0.367830
C172 C 1.050820 0.343100 0.482810
H173 H 1.036600 0.209600 0.486200
C174 C 1.093300 0.440800 0.529600
H175 H 1.108800 0.371300 0.565100
C176 C 1.114500 0.638600 0.526690
H177 H 1.143000 0.703000 0.560100
C178 C 1.093780 0.741200 0.474890
H179 H 1.108200 0.874700 0.471900
H180 H 0.907000 0.074000 0.164000
O181 O 0.529230 0.619100 0.849820
N182 N 0.395670 1.319000 0.675130
C183 C 0.358050 1.166400 0.640720
C184 C 0.321310 1.168100 0.582450
H185 H 0.319700 1.284300 0.559600
C186 C 0.287470 0.993500 0.559650
H187 H 0.262000 0.991100 0.520100
C188 C 0.289160 0.818600 0.592590
H189 H 0.265000 0.701400 0.575300
C190 C 0.326010 0.818300 0.650020
H191 H 0.327500 0.701100 0.672600
C192 C 0.361590 0.993900 0.674930
C193 C 0.404290 1.045500 0.731940
C194 C 0.423280 1.243500 0.729970
H195 H 0.451300 1.317800 0.761600
C196 C 0.425170 0.896900 0.781660
H197 H 0.434600 0.764700 0.767200
C198 C 0.374730 0.843500 0.800120
C199 C 0.371920 0.646900 0.821070
H200 H 0.400900 0.545400 0.823600
C201 C 0.326670 0.598600 0.838310
H202 H 0.325700 0.465100 0.853100
C203 C 0.283690 0.741200 0.834130
H204 H 0.253100 0.706400 0.845900
C205 C 0.284970 0.936400 0.812720
H206 H 0.255400 1.035900 0.809800
C207 C 0.330450 0.986200 0.795370
H208 H 0.330900 1.119300 0.780200
C209 C 0.485200 0.966200 0.831330
H210 H 0.509800 1.029900 0.813100
C211 C 0.482400 1.129300 0.873850
H212 H 0.442000 1.132700 0.873600
H213 H 0.492200 1.268900 0.864500
C214 C 0.529090 1.057400 0.930650
C215 C 0.550680 0.859600 0.927110
C216 C 0.522770 0.790000 0.867830
C217 C 0.550820 1.156900 0.982810
H218 H 0.536600 1.290400 0.986200
C219 C 0.593300 1.059200 1.029600
H220 H 0.608800 1.128700 1.065100
C221 C 0.614500 0.861400 1.026690
H222 H 0.643000 0.797000 1.060100
C223 C 0.593780 0.758800 0.974890
H224 H 0.608200 0.625300 0.971900
H225 H 0.407000 1.426000 0.664000
O226 O 1.029230 0.119100 0.849820
N227 N 0.895670 0.819000 0.675130
C228 C 0.858050 0.666400 0.640720
C229 C 0.821310 0.668100 0.582450
H230 H 0.819700 0.784300 0.559600
C231 C 0.787470 0.493500 0.559650
H232 H 0.762000 0.491100 0.520100
C233 C 0.789160 0.318600 0.592590
H234 H 0.765000 0.201400 0.575300
C235 C 0.826010 0.318300 0.650020
H236 H 0.827500 0.201100 0.672600
C237 C 0.861590 0.493900 0.674930
C238 C 0.904290 0.545500 0.731940
C239 C 0.923280 0.743500 0.729970
H240 H 0.951300 0.817800 0.761600
C241 C 0.925170 0.396900 0.781660
H242 H 0.934600 0.264700 0.767200
C243 C 0.874730 0.343500 0.800120
C244 C 0.871920 0.146900 0.821070
H245 H 0.900900 0.045400 0.823600
C246 C 0.826670 0.098600 0.838310
H247 H 0.825700 -0.034900 0.853100
C248 C 0.783690 0.241200 0.834130
H249 H 0.753100 0.206400 0.845900
C250 C 0.784970 0.436400 0.812720
H251 H 0.755400 0.535900 0.809800
C252 C 0.830450 0.486200 0.795370
H253 H 0.830900 0.619300 0.780200
C254 C 0.985200 0.466200 0.831330
H255 H 1.009800 0.529900 0.813100
C256 C 0.982400 0.629300 0.873850
H257 H 0.942000 0.632700 0.873600
H258 H 0.992200 0.768900 0.864500
C259 C 1.029090 0.557400 0.930650
C260 C 1.050680 0.359600 0.927110
C261 C 1.022770 0.290000 0.867830
C262 C 1.050820 0.656900 0.982810
H263 H 1.036600 0.790400 0.986200
C264 C 1.093300 0.559200 1.029600
H265 H 1.108800 0.628700 1.065100
C266 C 1.114500 0.361400 1.026690
H267 H 1.143000 0.297000 1.060100
C268 C 1.093780 0.258800 0.974890
H269 H 1.108200 0.125300 0.971900
H270 H 0.907000 0.926000 0.664000
O271 O 0.470770 0.619100 0.650180
N272 N 0.604330 1.319000 0.824870
C273 C 0.641950 1.166400 0.859280
C274 C 0.678690 1.168100 0.917550
H275 H 0.680300 1.284300 0.940400
C276 C 0.712530 0.993500 0.940350
H277 H 0.738000 0.991100 0.979900
C278 C 0.710840 0.818600 0.907410
H279 H 0.735000 0.701400 0.924700
C280 C 0.673990 0.818300 0.849980
H281 H 0.672500 0.701100 0.827400
C282 C 0.638410 0.993900 0.825070
C283 C 0.595710 1.045500 0.768060
C284 C 0.576720 1.243500 0.770030
H285 H 0.548700 1.317800 0.738400
C286 C 0.574830 0.896900 0.718340
H287 H 0.565400 0.764700 0.732800
C288 C 0.625270 0.843500 0.699880
C289 C 0.628080 0.646900 0.678930
H290 H 0.599100 0.545400 0.676400
C291 C 0.673330 0.598600 0.661690
H292 H 0.674300 0.465100 0.646900
C293 C 0.716310 0.741200 0.665870
H294 H 0.746900 0.706400 0.654100
C295 C 0.715030 0.936400 0.687280
H296 H 0.744600 1.035900 0.690200
C297 C 0.669550 0.986200 0.704630
H298 H 0.669100 1.119300 0.719800
C299 C 0.514800 0.966200 0.668670
H300 H 0.490200 1.029900 0.686900
C301 C 0.517600 1.129300 0.626150
H302 H 0.558000 1.132700 0.626400
H303 H 0.507800 1.268900 0.635500
C304 C 0.470910 1.057400 0.569350
C305 C 0.449320 0.859600 0.572890
C306 C 0.477230 0.790000 0.632170
C307 C 0.449180 1.156900 0.517190
H308 H 0.463400 1.290400 0.513800
C309 C 0.406700 1.059200 0.470400
H310 H 0.391200 1.128700 0.434900
C311 C 0.385500 0.861400 0.473310
H312 H 0.357000 0.797000 0.439900
C313 C 0.406220 0.758800 0.525110
H314 H 0.391800 0.625300 0.528100
H315 H 0.593000 1.426000 0.836000
O316 O -0.029230 0.119100 0.650180
N317 N 0.104330 0.819000 0.824870
C318 C 0.141950 0.666400 0.859280
C319 C 0.178690 0.668100 0.917550
H320 H 0.180300 0.784300 0.940400
C321 C 0.212530 0.493500 0.940350
H322 H 0.238000 0.491100 0.979900
C323 C 0.210840 0.318600 0.907410
H324 H 0.235000 0.201400 0.924700
C325 C 0.173990 0.318300 0.849980
H326 H 0.172500 0.201100 0.827400
C327 C 0.138410 0.493900 0.825070
C328 C 0.095710 0.545500 0.768060
C329 C 0.076720 0.743500 0.770030
H330 H 0.048700 0.817800 0.738400
C331 C 0.074830 0.396900 0.718340
H332 H 0.065400 0.264700 0.732800
C333 C 0.125270 0.343500 0.699880
C334 C 0.128080 0.146900 0.678930
H335 H 0.099100 0.045400 0.676400
C336 C 0.173330 0.098600 0.661690
H337 H 0.174300 -0.034900 0.646900
C338 C 0.216310 0.241200 0.665870
H339 H 0.246900 0.206400 0.654100
C340 C 0.215030 0.436400 0.687280
H341 H 0.244600 0.535900 0.690200
C342 C 0.169550 0.486200 0.704630
H343 H 0.169100 0.619300 0.719800
C344 C 0.014800 0.466200 0.668670
H345 H -0.009800 0.529900 0.686900
C346 C 0.017600 0.629300 0.626150
H347 H 0.058000 0.632700 0.626400
H348 H 0.007800 0.768900 0.635500
C349 C -0.029090 0.557400 0.569350
C350 C -0.050680 0.359600 0.572890
C351 C -0.022770 0.290000 0.632170
C352 C -0.050820 0.656900 0.517190
H353 H -0.036600 0.790400 0.513800
C354 C -0.093300 0.559200 0.470400
H355 H -0.108800 0.628700 0.434900
C356 C -0.114500 0.361400 0.473310
H357 H -0.143000 0.297000 0.439900
C358 C -0.093780 0.258800 0.525110
H359 H -0.108200 0.125300 0.528100
H360 H 0.093000 0.926000 0.836000

#END
