./ACUNAO_from_xyz.cif_generated_by_CrystalShift
_symmetry_cell_setting triclinic
_symmetry_space_group_name_H-M 'P 1'
loop_
_symmetry_equiv_pos_site_id
_symmetry_equiv_pos_as_xyz
1 x,y,z
_cell_length_a 8.814000
_cell_length_b 9.514000
_cell_length_c 17.606000
_cell_angle_alpha 90.000000
_cell_angle_beta 99.850000
_cell_angle_gamma 90.000000
_cell_volume 1454.612458
loop_
_atom_site_label
_atom_site_type_symbol
_atom_site_fract_x
_atom_site_fract_y
_atom_site_fract_z
O1 O 0.600500 0.293100 0.607830
O2 O 0.334700 -0.133000 0.644220
O3 O 0.706100 0.424700 0.739220
O4 O 0.538500 0.428800 0.812860
O5 O 0.254900 0.001400 0.844670
O6 O 0.335500 -0.182600 0.794890
N7 N 0.596600 0.374500 0.762800
N8 N 0.319900 -0.055000 0.798320
C9 C 0.533300 0.206100 0.653280
C10 C 0.528300 0.244100 0.729600
C11 C 0.455100 0.159600 0.774200
C12 C 0.392600 0.033800 0.746610
C13 C 0.401800 -0.009600 0.672310
C14 C 0.467800 0.079300 0.626090
C15 C 0.416000 -0.206100 0.595120
C16 C 0.546700 -0.278700 0.629000
C17 C 0.632400 -0.351200 0.583600
C18 C 0.584900 -0.351200 0.504100
C19 C 0.550300 0.280600 0.527120
C20 C 0.361800 -0.205300 0.515530
C21 C 0.217900 -0.127700 0.479000
C22 C 0.074500 -0.210000 0.458700
C23 C 0.024100 -0.295700 0.494200
H24 H 0.447900 0.188600 0.825100
H25 H 0.468000 0.053700 0.573900
H26 H 0.642800 -0.399000 0.471300
H27 H 0.723400 -0.399400 0.606100
H28 H 0.575600 -0.278200 0.683500
H29 H 0.241200 -0.082300 0.434300
H30 H 0.197300 -0.058900 0.515000
H31 H 0.086100 -0.257600 0.412600
H32 H -0.006700 -0.143400 0.447800
H33 H -0.071400 -0.334500 0.470000
H34 H 0.011700 -0.253000 0.541500
H35 H 0.098900 -0.368300 0.503900
O36 O 0.399500 -0.293100 0.392170
O37 O 0.665300 0.133000 0.355780
O38 O 0.293900 -0.424700 0.260780
O39 O 0.461500 -0.428800 0.187140
O40 O 0.745100 -0.001400 0.155330
O41 O 0.664500 0.182600 0.205110
N42 N 0.403400 -0.374500 0.237200
N43 N 0.680100 0.055000 0.201680
C44 C 0.466700 -0.206100 0.346720
C45 C 0.471700 -0.244100 0.270400
C46 C 0.544900 -0.159600 0.225800
C47 C 0.607400 -0.033800 0.253390
C48 C 0.598200 0.009600 0.327690
C49 C 0.532200 -0.079300 0.373910
C50 C 0.584000 0.206100 0.404880
C51 C 0.453300 0.278700 0.371000
C52 C 0.367600 0.351200 0.416400
C53 C 0.415100 0.351200 0.495900
C54 C 0.449700 -0.280600 0.472880
C55 C 0.638200 0.205300 0.484470
C56 C 0.782100 0.127700 0.521000
C57 C 0.925500 0.210000 0.541300
C58 C 0.975900 0.295700 0.505800
H59 H 0.552100 -0.188600 0.174900
H60 H 0.532000 -0.053700 0.426100
H61 H 0.357200 0.399000 0.528700
H62 H 0.276600 0.399400 0.393900
H63 H 0.424400 0.278200 0.316500
H64 H 0.758800 0.082300 0.565700
H65 H 0.802700 0.058900 0.485000
H66 H 0.913900 0.257600 0.587400
H67 H 1.006700 0.143400 0.552200
H68 H 1.071400 0.334500 0.530000
H69 H 0.988300 0.253000 0.458500
H70 H 0.901100 0.368300 0.496100
O71 O 0.600500 1.293100 0.607830
O72 O 0.334700 0.867000 0.644220
O73 O 0.706100 1.424700 0.739220
O74 O 0.538500 1.428800 0.812860
O75 O 0.254900 1.001400 0.844670
O76 O 0.335500 0.817400 0.794890
N77 N 0.596600 1.374500 0.762800
N78 N 0.319900 0.945000 0.798320
C79 C 0.533300 1.206100 0.653280
C80 C 0.528300 1.244100 0.729600
C81 C 0.455100 1.159600 0.774200
C82 C 0.392600 1.033800 0.746610
C83 C 0.401800 0.990400 0.672310
C84 C 0.467800 1.079300 0.626090
C85 C 0.416000 0.793900 0.595120
C86 C 0.546700 0.721300 0.629000
C87 C 0.632400 0.648800 0.583600
C88 C 0.584900 0.648800 0.504100
C89 C 0.550300 1.280600 0.527120
C90 C 0.361800 0.794700 0.515530
C91 C 0.217900 0.872300 0.479000
C92 C 0.074500 0.790000 0.458700
C93 C 0.024100 0.704300 0.494200
H94 H 0.447900 1.188600 0.825100
H95 H 0.468000 1.053700 0.573900
H96 H 0.642800 0.601000 0.471300
H97 H 0.723400 0.600600 0.606100
H98 H 0.575600 0.721800 0.683500
H99 H 0.241200 0.917700 0.434300
H100 H 0.197300 0.941100 0.515000
H101 H 0.086100 0.742400 0.412600
H102 H -0.006700 0.856600 0.447800
H103 H -0.071400 0.665500 0.470000
H104 H 0.011700 0.747000 0.541500
H105 H 0.098900 0.631700 0.503900
O106 O 0.399500 0.706900 0.392170
O107 O 0.665300 1.133000 0.355780
O108 O 0.293900 0.575300 0.260780
O109 O 0.461500 0.571200 0.187140
O110 O 0.745100 0.998600 0.155330
O111 O 0.664500 1.182600 0.205110
N112 N 0.403400 0.625500 0.237200
N113 N 0.680100 1.055000 0.201680
C114 C 0.466700 0.793900 0.346720
C115 C 0.471700 0.755900 0.270400
C116 C 0.544900 0.840400 0.225800
C117 C 0.607400 0.966200 0.253390
C118 C 0.598200 1.009600 0.327690
C119 C 0.532200 0.920700 0.373910
C120 C 0.584000 1.206100 0.404880
C121 C 0.453300 1.278700 0.371000
C122 C 0.367600 1.351200 0.416400
C123 C 0.415100 1.351200 0.495900
C124 C 0.449700 0.719400 0.472880
C125 C 0.638200 1.205300 0.484470
C126 C 0.782100 1.127700 0.521000
C127 C 0.925500 1.210000 0.541300
C128 C 0.975900 1.295700 0.505800
H129 H 0.552100 0.811400 0.174900
H130 H 0.532000 0.946300 0.426100
H131 H 0.357200 1.399000 0.528700
H132 H 0.276600 1.399400 0.393900
H133 H 0.424400 1.278200 0.316500
H134 H 0.758800 1.082300 0.565700
H135 H 0.802700 1.058900 0.485000
H136 H 0.913900 1.257600 0.587400
H137 H 1.006700 1.143400 0.552200
H138 H 1.071400 1.334500 0.530000
H139 H 0.988300 1.253000 0.458500
H140 H 0.901100 1.368300 0.496100
O141 O -0.100500 0.793100 -0.107830
O142 O 0.165300 0.367000 -0.144220
O143 O -0.206100 0.924700 -0.239220
O144 O -0.038500 0.928800 -0.312860
O145 O 0.245100 0.501400 -0.344670
O146 O 0.164500 0.317400 -0.294890
N147 N -0.096600 0.874500 -0.262800
N148 N 0.180100 0.445000 -0.298320
C149 C -0.033300 0.706100 -0.153280
C150 C -0.028300 0.744100 -0.229600
C151 C 0.044900 0.659600 -0.274200
C152 C 0.107400 0.533800 -0.246610
C153 C 0.098200 0.490400 -0.172310
C154 C 0.032200 0.579300 -0.126090
C155 C 0.084000 0.293900 -0.095120
C156 C -0.046700 0.221300 -0.129000
C157 C -0.132400 0.148800 -0.083600
C158 C -0.084900 0.148800 -0.004100
C159 C -0.050300 0.780600 -0.027120
C160 C 0.138200 0.294700 -0.015530
C161 C 0.282100 0.372300 0.021000
C162 C 0.425500 0.290000 0.041300
C163 C 0.475900 0.204300 0.005800
H164 H 0.052100 0.688600 -0.325100
H165 H 0.032000 0.553700 -0.073900
H166 H -0.142800 0.101000 0.028700
H167 H -0.223400 0.100600 -0.106100
H168 H -0.075600 0.221800 -0.183500
H169 H 0.258800 0.417700 0.065700
H170 H 0.302700 0.441100 -0.015000
H171 H 0.413900 0.242400 0.087400
H172 H 0.506700 0.356600 0.052200
H173 H 0.571400 0.165500 0.030000
H174 H 0.488300 0.247000 -0.041500
H175 H 0.401100 0.131700 -0.003900
O176 O 0.100500 0.206900 0.107830
O177 O -0.165300 0.633000 0.144220
O178 O 0.206100 0.075300 0.239220
O179 O 0.038500 0.071200 0.312860
O180 O -0.245100 0.498600 0.344670
O181 O -0.164500 0.682600 0.294890
N182 N 0.096600 0.125500 0.262800
N183 N -0.180100 0.555000 0.298320
C184 C 0.033300 0.293900 0.153280
C185 C 0.028300 0.255900 0.229600
C186 C -0.044900 0.340400 0.274200
C187 C -0.107400 0.466200 0.246610
C188 C -0.098200 0.509600 0.172310
C189 C -0.032200 0.420700 0.126090
C190 C -0.084000 0.706100 0.095120
C191 C 0.046700 0.778700 0.129000
C192 C 0.132400 0.851200 0.083600
C193 C 0.084900 0.851200 0.004100
C194 C 0.050300 0.219400 0.027120
C195 C -0.138200 0.705300 0.015530
C196 C -0.282100 0.627700 -0.021000
C197 C -0.425500 0.710000 -0.041300
C198 C -0.475900 0.795700 -0.005800
H199 H -0.052100 0.311400 0.325100
H200 H -0.032000 0.446300 0.073900
H201 H 0.142800 0.899000 -0.028700
H202 H 0.223400 0.899400 0.106100
H203 H 0.075600 0.778200 0.183500
H204 H -0.258800 0.582300 -0.065700
H205 H -0.302700 0.558900 0.015000
H206 H -0.413900 0.757600 -0.087400
H207 H -0.506700 0.643400 -0.052200
H208 H -0.571400 0.834500 -0.030000
H209 H -0.488300 0.753000 0.041500
H210 H -0.401100 0.868300 0.003900
O211 O -0.100500 0.793100 0.892170
O212 O 0.165300 0.367000 0.855780
O213 O -0.206100 0.924700 0.760780
O214 O -0.038500 0.928800 0.687140
O215 O 0.245100 0.501400 0.655330
O216 O 0.164500 0.317400 0.705110
N217 N -0.096600 0.874500 0.737200
N218 N 0.180100 0.445000 0.701680
C219 C -0.033300 0.706100 0.846720
C220 C -0.028300 0.744100 0.770400
C221 C 0.044900 0.659600 0.725800
C222 C 0.107400 0.533800 0.753390
C223 C 0.098200 0.490400 0.827690
C224 C 0.032200 0.579300 0.873910
C225 C 0.084000 0.293900 0.904880
C226 C -0.046700 0.221300 0.871000
C227 C -0.132400 0.148800 0.916400
C228 C -0.084900 0.148800 0.995900
C229 C -0.050300 0.780600 0.972880
C230 C 0.138200 0.294700 0.984470
C231 C 0.282100 0.372300 1.021000
C232 C 0.425500 0.290000 1.041300
C233 C 0.475900 0.204300 1.005800
H234 H 0.052100 0.688600 0.674900
H235 H 0.032000 0.553700 0.926100
H236 H -0.142800 0.101000 1.028700
H237 H -0.223400 0.100600 0.893900
H238 H -0.075600 0.221800 0.816500
H239 H 0.258800 0.417700 1.065700
H240 H 0.302700 0.441100 0.985000
H241 H 0.413900 0.242400 1.087400
H242 H 0.506700 0.356600 1.052200
H243 H 0.571400 0.165500 1.030000
H244 H 0.488300 0.247000 0.958500
H245 H 0.401100 0.131700 0.996100
O246 O 0.100500 0.206900 1.107830
O247 O -0.165300 0.633000 1.144220
O248 O 0.206100 0.075300 1.239220
O249 O 0.038500 0.071200 1.312860
O250 O -0.245100 0.498600 1.344670
O251 O -0.164500 0.682600 1.294890
N252 N 0.096600 0.125500 1.262800
N253 N -0.180100 0.555000 1.298320
C254 C 0.033300 0.293900 1.153280
C255 C 0.028300 0.255900 1.229600
C256 C -0.044900 0.340400 1.274200
C257 C -0.107400 0.466200 1.246610
C258 C -0.098200 0.509600 1.172310
C259 C -0.032200 0.420700 1.126090
C260 C -0.084000 0.706100 1.095120
C261 C 0.046700 0.778700 1.129000
C262 C 0.132400 0.851200 1.083600
C263 C 0.084900 0.851200 1.004100
C264 C 0.050300 0.219400 1.027120
C265 C -0.138200 0.705300 1.015530
C266 C -0.282100 0.627700 0.979000
C267 C -0.425500 0.710000 0.958700
C268 C -0.475900 0.795700 0.994200
H269 H -0.052100 0.311400 1.325100
H270 H -0.032000 0.446300 1.073900
H271 H 0.142800 0.899000 0.971300
H272 H 0.223400 0.899400 1.106100
H273 H 0.075600 0.778200 1.183500
H274 H -0.258800 0.582300 0.934300
H275 H -0.302700 0.558900 1.015000
H276 H -0.413900 0.757600 0.912600
H277 H -0.506700 0.643400 0.947800
H278 H -0.571400 0.834500 0.970000
H279 H -0.488300 0.753000 1.041500
H280 H -0.401100 0.868300 1.003900
O281 O 0.899500 0.793100 -0.107830
O282 O 1.165300 0.367000 -0.144220
O283 O 0.793900 0.924700 -0.239220
O284 O 0.961500 0.928800 -0.312860
O285 O 1.245100 0.501400 -0.344670
O286 O 1.164500 0.317400 -0.294890
N287 N 0.903400 0.874500 -0.262800
N288 N 1.180100 0.445000 -0.298320
C289 C 0.966700 0.706100 -0.153280
C290 C 0.971700 0.744100 -0.229600
C291 C 1.044900 0.659600 -0.274200
C292 C 1.107400 0.533800 -0.246610
C293 C 1.098200 0.490400 -0.172310
C294 C 1.032200 0.579300 -0.126090
C295 C 1.084000 0.293900 -0.095120
C296 C 0.953300 0.221300 -0.129000
C297 C 0.867600 0.148800 -0.083600
C298 C 0.915100 0.148800 -0.004100
C299 C 0.949700 0.780600 -0.027120
C300 C 1.138200 0.294700 -0.015530
C301 C 1.282100 0.372300 0.021000
C302 C 1.425500 0.290000 0.041300
C303 C 1.475900 0.204300 0.005800
H304 H 1.052100 0.688600 -0.325100
H305 H 1.032000 0.553700 -0.073900
H306 H 0.857200 0.101000 0.028700
H307 H 0.776600 0.100600 -0.106100
H308 H 0.924400 0.221800 -0.183500
H309 H 1.258800 0.417700 0.065700
H310 H 1.302700 0.441100 -0.015000
H311 H 1.413900 0.242400 0.087400
H312 H 1.506700 0.356600 0.052200
H313 H 1.571400 0.165500 0.030000
H314 H 1.488300 0.247000 -0.041500
H315 H 1.401100 0.131700 -0.003900
O316 O 1.100500 0.206900 0.107830
O317 O 0.834700 0.633000 0.144220
O318 O 1.206100 0.075300 0.239220
O319 O 1.038500 0.071200 0.312860
O320 O 0.754900 0.498600 0.344670
O321 O 0.835500 0.682600 0.294890
N322 N 1.096600 0.125500 0.262800
N323 N 0.819900 0.555000 0.298320
C324 C 1.033300 0.293900 0.153280
C325 C 1.028300 0.255900 0.229600
C326 C 0.955100 0.340400 0.274200
C327 C 0.892600 0.466200 0.246610
C328 C 0.901800 0.509600 0.172310
C329 C 0.967800 0.420700 0.126090
C330 C 0.916000 0.706100 0.095120
C331 C 1.046700 0.778700 0.129000
C332 C 1.132400 0.851200 0.083600
C333 C 1.084900 0.851200 0.004100
C334 C 1.050300 0.219400 0.027120
C335 C 0.861800 0.705300 0.015530
C336 C 0.717900 0.627700 -0.021000
C337 C 0.574500 0.710000 -0.041300
C338 C 0.524100 0.795700 -0.005800
H339 H 0.947900 0.311400 0.325100
H340 H 0.968000 0.446300 0.073900
H341 H 1.142800 0.899000 -0.028700
H342 H 1.223400 0.899400 0.106100
H343 H 1.075600 0.778200 0.183500
H344 H 0.741200 0.582300 -0.065700
H345 H 0.697300 0.558900 0.015000
H346 H 0.586100 0.757600 -0.087400
H347 H 0.493300 0.643400 -0.052200
H348 H 0.428600 0.834500 -0.030000
H349 H 0.511700 0.753000 0.041500
H350 H 0.598900 0.868300 0.003900
O351 O 0.899500 0.793100 0.892170
O352 O 1.165300 0.367000 0.855780
O353 O 0.793900 0.924700 0.760780
O354 O 0.961500 0.928800 0.687140
O355 O 1.245100 0.501400 0.655330
O356 O 1.164500 0.317400 0.705110
N357 N 0.903400 0.874500 0.737200
N358 N 1.180100 0.445000 0.701680
C359 C 0.966700 0.706100 0.846720
C360 C 0.971700 0.744100 0.770400
C361 C 1.044900 0.659600 0.725800
C362 C 1.107400 0.533800 0.753390
C363 C 1.098200 0.490400 0.827690
C364 C 1.032200 0.579300 0.873910
C365 C 1.084000 0.293900 0.904880
C366 C 0.953300 0.221300 0.871000
C367 C 0.867600 0.148800 0.916400
C368 C 0.915100 0.148800 0.995900
C369 C 0.949700 0.780600 0.972880
C370 C 1.138200 0.294700 0.984470
C371 C 1.282100 0.372300 1.021000
C372 C 1.425500 0.290000 1.041300
C373 C 1.475900 0.204300 1.005800
H374 H 1.052100 0.688600 0.674900
H375 H 1.032000 0.553700 0.926100
H376 H 0.857200 0.101000 1.028700
H377 H 0.776600 0.100600 0.893900
H378 H 0.924400 0.221800 0.816500
H379 H 1.258800 0.417700 1.065700
H380 H 1.302700 0.441100 0.985000
H381 H 1.413900 0.242400 1.087400
H382 H 1.506700 0.356600 1.052200
H383 H 1.571400 0.165500 1.030000
H384 H 1.488300 0.247000 0.958500
H385 H 1.401100 0.131700 0.996100
O386 O 1.100500 0.206900 1.107830
O387 O 0.834700 0.633000 1.144220
O388 O 1.206100 0.075300 1.239220
O389 O 1.038500 0.071200 1.312860
O390 O 0.754900 0.498600 1.344670
O391 O 0.835500 0.682600 1.294890
N392 N 1.096600 0.125500 1.262800
N393 N 0.819900 0.555000 1.298320
C394 C 1.033300 0.293900 1.153280
C395 C 1.028300 0.255900 1.229600
C396 C 0.955100 0.340400 1.274200
C397 C 0.892600 0.466200 1.246610
C398 C 0.901800 0.509600 1.172310
C399 C 0.967800 0.420700 1.126090
C400 C 0.916000 0.706100 1.095120
C401 C 1.046700 0.778700 1.129000
C402 C 1.132400 0.851200 1.083600
C403 C 1.084900 0.851200 1.004100
C404 C 1.050300 0.219400 1.027120
C405 C 0.861800 0.705300 1.015530
C406 C 0.717900 0.627700 0.979000
C407 C 0.574500 0.710000 0.958700
C408 C 0.524100 0.795700 0.994200
H409 H 0.947900 0.311400 1.325100
H410 H 0.968000 0.446300 1.073900
H411 H 1.142800 0.899000 0.971300
H412 H 1.223400 0.899400 1.106100
H413 H 1.075600 0.778200 1.183500
H414 H 0.741200 0.582300 0.934300
H415 H 0.697300 0.558900 1.015000
H416 H 0.586100 0.757600 0.912600
H417 H 0.493300 0.643400 0.947800
H418 H 0.428600 0.834500 0.970000
H419 H 0.511700 0.753000 1.041500
H420 H 0.598900 0.868300 1.003900

#END
