
#######################################################################
#
#                 Cambridge Crystallographic Data Centre
#                                CCDC 
#
#######################################################################
#
# If this CIF has been generated from an entry in the Cambridge 
# Structural Database, then it will include bibliographic, chemical, 
# crystal, experimental, refinement or atomic coordinate data resulting 
# from the CCDC's data processing and validation procedures.
#
#######################################################################

data_ACUPIX
_symmetry_cell_setting           monoclinic
_symmetry_space_group_name_H-M   'P 21/n'
_symmetry_Int_Tables_number      14
_space_group_name_Hall           '-P 2yn'
loop_
_symmetry_equiv_pos_site_id
_symmetry_equiv_pos_as_xyz
1 x,y,z
2 1/2-x,1/2+y,1/2-z
3 -x,-y,-z
4 1/2+x,1/2-y,1/2+z
_cell_length_a                   7.543(4)
_cell_length_b                   25.740(12)
_cell_length_c                   14.221(6)
_cell_angle_alpha                90
_cell_angle_beta                 102.167(12)
_cell_angle_gamma                90
_cell_volume                     2699.08
loop_
_atom_site_label
_atom_site_type_symbol
_atom_site_fract_x
_atom_site_fract_y
_atom_site_fract_z
P1 P 0.6357(2) 0.60757(7) 0.72266(12)
F1 F 0.8319(5) 0.59423(16) 0.7049(3)
F2 F 0.4410(6) 0.6207(2) 0.7408(3)
F3 F 0.6663(6) 0.66691(15) 0.6994(3)
F4 F 0.7228(5) 0.61783(14) 0.8338(3)
F5 F 0.6092(7) 0.54802(15) 0.7461(3)
F6 F 0.5506(5) 0.59811(15) 0.6122(2)
P1 P 0.8643(2) 0.10757(7) 0.77734(12)
F1 F 0.6681(5) 0.09423(16) 0.7951(3)
F2 F 1.0590(6) 0.1207(2) 0.7592(3)
F3 F 0.8337(6) 0.16691(15) 0.8006(3)
F4 F 0.7772(5) 0.11783(14) 0.6662(3)
F5 F 0.8908(7) 0.04802(15) 0.7539(3)
F6 F 0.9494(5) 0.09811(15) 0.8878(2)
P1 P 0.3643(2) 0.39243(7) 0.27734(12)
F1 F 0.1681(5) 0.40577(16) 0.2951(3)
F2 F 0.5590(6) 0.3793(2) 0.2592(3)
F3 F 0.3337(6) 0.33309(15) 0.3006(3)
F4 F 0.2772(5) 0.38217(14) 0.1662(3)
F5 F 0.3908(7) 0.45198(15) 0.2539(3)
F6 F 0.4494(5) 0.40189(15) 0.3878(2)
P1 P 0.1357(2) 0.89243(7) 0.22266(12)
F1 F 0.3319(5) 0.90577(16) 0.2049(3)
F2 F -0.0590(6) 0.8793(2) 0.2408(3)
F3 F 0.1663(6) 0.83309(15) 0.1994(3)
F4 F 0.2228(5) 0.88217(14) 0.3338(3)
F5 F 0.1092(7) 0.95198(15) 0.2461(3)
F6 F 0.0506(5) 0.90189(15) 0.1122(2)
O1 O 0.4331(6) 0.44186(18) -0.2300(3)
O2 O 0.2281(7) 0.49228(18) -0.3158(3)
N1 N 0.3124(8) 0.4747(2) -0.2381(4)
C1 C 0.2647(8) 0.4942(2) -0.1510(4)
C2 C 0.3178(8) 0.4648(2) -0.0665(4)
H1 H 0.3810 0.4329 -0.0665
C3 C 0.2746(8) 0.4840(2) 0.0165(5)
H2 H 0.3034 0.4644 0.0743
C4 C 0.1895(8) 0.5318(2) 0.0161(4)
C5 C 0.1363(8) 0.5605(2) -0.0673(5)
H3 H 0.0768 0.5929 -0.0663
C6 C 0.1717(8) 0.5408(2) -0.1537(4)
H4 H 0.1327 0.5590 -0.2126
N2 N 0.1619(7) 0.54893(19) 0.1078(3)
N3 N 0.1307(7) 0.59655(19) 0.1126(3)
C7 C 0.1051(8) 0.6124(2) 0.2063(5)
C8 C 0.0474(8) 0.6625(2) 0.2146(5)
H5 H 0.0288 0.6849 0.1603
C9 C 0.0163(8) 0.6804(2) 0.3006(4)
H6 H -0.0283 0.7146 0.3057
C10 C 0.0515(8) 0.6476(2) 0.3800(4)
C11 C 0.1173(8) 0.5972(2) 0.3733(4)
C12 C 0.1407(8) 0.5790(2) 0.2840(4)
H7 H 0.1803 0.5445 0.2770
O3 O 0.1492(6) 0.56865(15) 0.4541(3)
C13 C 0.2273(10) 0.5179(2) 0.4503(5)
H8 H 0.2630 0.5039 0.5156
H9 H 0.3344 0.5205 0.4217
H10 H 0.1379 0.4949 0.4111
N4 N 0.0061(7) 0.66773(19) 0.4680(3)
H11 H -0.056(7) 0.706(2) 0.445(4)
C14 C 0.1700(8) 0.6749(2) 0.5506(4)
H12 H 0.1310 0.6923 0.6049
H13 H 0.2194 0.6404 0.5731
C15 C 0.3167(8) 0.7067(2) 0.5209(4)
H14 H 0.4044 0.7183 0.5791
H15 H 0.3828 0.6848 0.4825
O4 O 0.2445(6) 0.75084(17) 0.4658(3)
C16 C 0.1919(9) 0.7925(3) 0.5206(5)
H16 H 0.2819 0.8210 0.5273
H17 H 0.1851 0.7802 0.5857
C17 C 0.0088(10) 0.8116(2) 0.4682(5)
H18 H -0.0258 0.8428 0.5011
H19 H 0.0146 0.8215 0.4017
O5 O -0.1229(6) 0.77221(15) 0.4660(3)
C18 C -0.3033(8) 0.7908(2) 0.4405(4)
H20 H -0.3159 0.8211 0.4814
H21 H -0.3861 0.7633 0.4543
C19 C -0.3625(9) 0.8067(2) 0.3351(4)
H22 H -0.4844 0.8227 0.3254
H23 H -0.2779 0.8336 0.3210
O6 O -0.3686(6) 0.76507(16) 0.2678(3)
C20 C -0.5212(9) 0.7312(2) 0.2609(5)
H24 H -0.5928 0.7311 0.1940
H25 H -0.6002 0.7439 0.3034
C21 C -0.4586(9) 0.6773(2) 0.2896(5)
H26 H -0.5645 0.6538 0.2829
H27 H -0.3800 0.6644 0.2469
O7 O -0.3609(6) 0.67747(15) 0.3862(3)
C22 C -0.2941(9) 0.6281(2) 0.4249(4)
H28 H -0.2567 0.6068 0.3744
H29 H -0.3904 0.6092 0.4485
C23 C -0.1376(9) 0.6372(2) 0.5047(4)
H30 H -0.0869 0.6036 0.5315
H31 H -0.1769 0.6569 0.5566
O1 O 0.0669(6) -0.05814(18) 0.7300(3)
O2 O 0.2719(7) -0.00772(18) 0.8158(3)
N1 N 0.1876(8) -0.0253(2) 0.7381(4)
C1 C 0.2353(8) -0.0058(2) 0.6510(4)
C2 C 0.1822(8) -0.0352(2) 0.5665(4)
H1 H 0.1190 -0.0671 0.5665
C3 C 0.2254(8) -0.0160(2) 0.4835(5)
H2 H 0.1966 -0.0356 0.4257
C4 C 0.3105(8) 0.0318(2) 0.4839(4)
C5 C 0.3637(8) 0.0605(2) 0.5673(5)
H3 H 0.4232 0.0929 0.5663
C6 C 0.3283(8) 0.0408(2) 0.6537(4)
H4 H 0.3673 0.0590 0.7126
N2 N 0.3381(7) 0.04893(19) 0.3922(3)
N3 N 0.3693(7) 0.09655(19) 0.3874(3)
C7 C 0.3949(8) 0.1124(2) 0.2937(5)
C8 C 0.4526(8) 0.1625(2) 0.2854(5)
H5 H 0.4712 0.1849 0.3397
C9 C 0.4837(8) 0.1804(2) 0.1994(4)
H6 H 0.5283 0.2146 0.1943
C10 C 0.4485(8) 0.1476(2) 0.1200(4)
C11 C 0.3827(8) 0.0972(2) 0.1267(4)
C12 C 0.3593(8) 0.0790(2) 0.2160(4)
H7 H 0.3197 0.0445 0.2230
O3 O 0.3508(6) 0.06865(15) 0.0459(3)
C13 C 0.2727(10) 0.0179(2) 0.0497(5)
H8 H 0.2370 0.0039 -0.0156
H9 H 0.1656 0.0205 0.0783
H10 H 0.3621 -0.0051 0.0889
N4 N 0.4939(7) 0.16773(19) 0.0320(3)
H11 H 0.556(7) 0.206(2) 0.055(4)
C14 C 0.3300(8) 0.1749(2) -0.0506(4)
H12 H 0.3690 0.1923 -0.1049
H13 H 0.2806 0.1404 -0.0731
C15 C 0.1833(8) 0.2067(2) -0.0209(4)
H14 H 0.0956 0.2183 -0.0791
H15 H 0.1172 0.1848 0.0175
O4 O 0.2555(6) 0.25084(17) 0.0342(3)
C16 C 0.3081(9) 0.2925(3) -0.0206(5)
H16 H 0.2181 0.3210 -0.0273
H17 H 0.3149 0.2802 -0.0857
C17 C 0.4912(10) 0.3116(2) 0.0318(5)
H18 H 0.5258 0.3428 -0.0011
H19 H 0.4854 0.3215 0.0983
O5 O 0.6229(6) 0.27221(15) 0.0340(3)
C18 C 0.8033(8) 0.2908(2) 0.0595(4)
H20 H 0.8159 0.3211 0.0186
H21 H 0.8861 0.2633 0.0457
C19 C 0.8625(9) 0.3067(2) 0.1649(4)
H22 H 0.9844 0.3227 0.1746
H23 H 0.7779 0.3336 0.1790
O6 O 0.8686(6) 0.26507(16) 0.2322(3)
C20 C 1.0212(9) 0.2312(2) 0.2391(5)
H24 H 1.0928 0.2311 0.3060
H25 H 1.1002 0.2439 0.1966
C21 C 0.9586(9) 0.1773(2) 0.2104(5)
H26 H 1.0645 0.1538 0.2171
H27 H 0.8800 0.1644 0.2531
O7 O 0.8609(6) 0.17747(15) 0.1138(3)
C22 C 0.7941(9) 0.1281(2) 0.0751(4)
H28 H 0.7567 0.1068 0.1256
H29 H 0.8904 0.1092 0.0515
C23 C 0.6376(9) 0.1372(2) -0.0047(4)
H30 H 0.5869 0.1036 -0.0315
H31 H 0.6769 0.1569 -0.0566
O1 O 0.5669(6) 0.55814(18) 1.2300(3)
O2 O 0.7719(7) 0.50772(18) 1.3158(3)
N1 N 0.6876(8) 0.5253(2) 1.2381(4)
C1 C 0.7353(8) 0.5058(2) 1.1510(4)
C2 C 0.6822(8) 0.5352(2) 1.0665(4)
H1 H 0.6190 0.5671 1.0665
C3 C 0.7254(8) 0.5160(2) 0.9835(5)
H2 H 0.6966 0.5356 0.9257
C4 C 0.8105(8) 0.4682(2) 0.9839(4)
C5 C 0.8637(8) 0.4395(2) 1.0673(5)
H3 H 0.9232 0.4071 1.0663
C6 C 0.8283(8) 0.4592(2) 1.1537(4)
H4 H 0.8673 0.4410 1.2126
N2 N 0.8381(7) 0.45107(19) 0.8922(3)
N3 N 0.8693(7) 0.40345(19) 0.8874(3)
C7 C 0.8949(8) 0.3876(2) 0.7937(5)
C8 C 0.9526(8) 0.3375(2) 0.7854(5)
H5 H 0.9712 0.3151 0.8397
C9 C 0.9837(8) 0.3196(2) 0.6994(4)
H6 H 1.0283 0.2854 0.6943
C10 C 0.9485(8) 0.3524(2) 0.6200(4)
C11 C 0.8827(8) 0.4028(2) 0.6267(4)
C12 C 0.8593(8) 0.4210(2) 0.7160(4)
H7 H 0.8197 0.4555 0.7230
O3 O 0.8508(6) 0.43135(15) 0.5459(3)
C13 C 0.7727(10) 0.4821(2) 0.5497(5)
H8 H 0.7370 0.4961 0.4844
H9 H 0.6656 0.4795 0.5783
H10 H 0.8621 0.5051 0.5889
N4 N 0.9939(7) 0.33227(19) 0.5320(3)
H11 H 1.056(7) 0.294(2) 0.555(4)
C14 C 0.8300(8) 0.3251(2) 0.4494(4)
H12 H 0.8690 0.3077 0.3951
H13 H 0.7806 0.3596 0.4269
C15 C 0.6833(8) 0.2933(2) 0.4791(4)
H14 H 0.5956 0.2817 0.4209
H15 H 0.6172 0.3152 0.5175
O4 O 0.7555(6) 0.24916(17) 0.5342(3)
C16 C 0.8081(9) 0.2075(3) 0.4794(5)
H16 H 0.7181 0.1790 0.4727
H17 H 0.8149 0.2198 0.4143
C17 C 0.9912(10) 0.1884(2) 0.5318(5)
H18 H 1.0258 0.1572 0.4989
H19 H 0.9854 0.1785 0.5983
O5 O 1.1229(6) 0.22779(15) 0.5340(3)
C18 C 1.3033(8) 0.2092(2) 0.5595(4)
H20 H 1.3159 0.1789 0.5186
H21 H 1.3861 0.2367 0.5457
C19 C 1.3625(9) 0.1933(2) 0.6649(4)
H22 H 1.4844 0.1773 0.6746
H23 H 1.2779 0.1664 0.6790
O6 O 1.3686(6) 0.23493(16) 0.7322(3)
C20 C 1.5212(9) 0.2688(2) 0.7391(5)
H24 H 1.5928 0.2689 0.8060
H25 H 1.6002 0.2561 0.6966
C21 C 1.4586(9) 0.3227(2) 0.7104(5)
H26 H 1.5645 0.3462 0.7171
H27 H 1.3800 0.3356 0.7531
O7 O 1.3609(6) 0.32253(15) 0.6138(3)
C22 C 1.2941(9) 0.3719(2) 0.5751(4)
H28 H 1.2567 0.3932 0.6256
H29 H 1.3904 0.3908 0.5515
C23 C 1.1376(9) 0.3628(2) 0.4953(4)
H30 H 1.0869 0.3964 0.4685
H31 H 1.1769 0.3431 0.4434
O1 O 0.9331(6) 1.05814(18) 0.2700(3)
O2 O 0.7281(7) 1.00772(18) 0.1842(3)
N1 N 0.8124(8) 1.0253(2) 0.2619(4)
C1 C 0.7647(8) 1.0058(2) 0.3490(4)
C2 C 0.8178(8) 1.0352(2) 0.4335(4)
H1 H 0.8810 1.0671 0.4335
C3 C 0.7746(8) 1.0160(2) 0.5165(5)
H2 H 0.8034 1.0356 0.5743
C4 C 0.6895(8) 0.9682(2) 0.5161(4)
C5 C 0.6363(8) 0.9395(2) 0.4327(5)
H3 H 0.5768 0.9071 0.4337
C6 C 0.6717(8) 0.9592(2) 0.3463(4)
H4 H 0.6327 0.9410 0.2874
N2 N 0.6619(7) 0.95107(19) 0.6078(3)
N3 N 0.6307(7) 0.90345(19) 0.6126(3)
C7 C 0.6051(8) 0.8876(2) 0.7063(5)
C8 C 0.5474(8) 0.8375(2) 0.7146(5)
H5 H 0.5288 0.8151 0.6603
C9 C 0.5163(8) 0.8196(2) 0.8006(4)
H6 H 0.4717 0.7854 0.8057
C10 C 0.5515(8) 0.8524(2) 0.8800(4)
C11 C 0.6173(8) 0.9028(2) 0.8733(4)
C12 C 0.6407(8) 0.9210(2) 0.7840(4)
H7 H 0.6803 0.9555 0.7770
O3 O 0.6492(6) 0.93135(15) 0.9541(3)
C13 C 0.7273(10) 0.9821(2) 0.9503(5)
H8 H 0.7630 0.9961 1.0156
H9 H 0.8344 0.9795 0.9217
H10 H 0.6379 1.0051 0.9111
N4 N 0.5061(7) 0.83227(19) 0.9680(3)
H11 H 0.444(7) 0.794(2) 0.945(4)
C14 C 0.6700(8) 0.8251(2) 1.0506(4)
H12 H 0.6310 0.8077 1.1049
H13 H 0.7194 0.8596 1.0731
C15 C 0.8167(8) 0.7933(2) 1.0209(4)
H14 H 0.9044 0.7817 1.0791
H15 H 0.8828 0.8152 0.9825
O4 O 0.7445(6) 0.74916(17) 0.9658(3)
C16 C 0.6919(9) 0.7075(3) 1.0206(5)
H16 H 0.7819 0.6790 1.0273
H17 H 0.6851 0.7198 1.0857
C17 C 0.5088(10) 0.6884(2) 0.9682(5)
H18 H 0.4742 0.6572 1.0011
H19 H 0.5146 0.6785 0.9017
O5 O 0.3771(6) 0.72779(15) 0.9660(3)
C18 C 0.1967(8) 0.7092(2) 0.9405(4)
H20 H 0.1841 0.6789 0.9814
H21 H 0.1139 0.7367 0.9543
C19 C 0.1375(9) 0.6933(2) 0.8351(4)
H22 H 0.0156 0.6773 0.8254
H23 H 0.2221 0.6664 0.8210
O6 O 0.1314(6) 0.73493(16) 0.7678(3)
C20 C -0.0212(9) 0.7688(2) 0.7609(5)
H24 H -0.0928 0.7689 0.6940
H25 H -0.1002 0.7561 0.8034
C21 C 0.0414(9) 0.8227(2) 0.7896(5)
H26 H -0.0645 0.8462 0.7829
H27 H 0.1200 0.8356 0.7469
O7 O 0.1391(6) 0.82253(15) 0.8862(3)
C22 C 0.2059(9) 0.8719(2) 0.9249(4)
H28 H 0.2433 0.8932 0.8744
H29 H 0.1096 0.8908 0.9485
C23 C 0.3624(9) 0.8628(2) 1.0047(4)
H30 H 0.4131 0.8964 1.0315
H31 H 0.3231 0.8431 1.0566

#END
