./ACUPIX_from_xyz.cif_generated_by_CrystalShift
_symmetry_cell_setting triclinic
_symmetry_space_group_name_H-M 'P 1'
loop_
_symmetry_equiv_pos_site_id
_symmetry_equiv_pos_as_xyz
1 x,y,z
_cell_length_a 7.543000
_cell_length_b 25.740000
_cell_length_c 14.221000
_cell_angle_alpha 90.000000
_cell_angle_beta 102.167000
_cell_angle_gamma 90.000000
_cell_volume 2699.082683
loop_
_atom_site_label
_atom_site_type_symbol
_atom_site_fract_x
_atom_site_fract_y
_atom_site_fract_z
P1 P 0.635700 0.607570 0.722660
F2 F 0.831900 0.594230 0.704900
F3 F 0.441000 0.620700 0.740800
F4 F 0.666300 0.666910 0.699400
F5 F 0.722800 0.617830 0.833800
F6 F 0.609200 0.548020 0.746100
F7 F 0.550600 0.598110 0.612200
P8 P 0.864300 0.107570 0.777340
F9 F 0.668100 0.094230 0.795100
F10 F 1.059000 0.120700 0.759200
F11 F 0.833700 0.166910 0.800600
F12 F 0.777200 0.117830 0.666200
F13 F 0.890800 0.048020 0.753900
F14 F 0.949400 0.098110 0.887800
P15 P 0.364300 0.392430 0.277340
F16 F 0.168100 0.405770 0.295100
F17 F 0.559000 0.379300 0.259200
F18 F 0.333700 0.333090 0.300600
F19 F 0.277200 0.382170 0.166200
F20 F 0.390800 0.451980 0.253900
F21 F 0.449400 0.401890 0.387800
P22 P 0.135700 0.892430 0.222660
F23 F 0.331900 0.905770 0.204900
F24 F -0.059000 0.879300 0.240800
F25 F 0.166300 0.833090 0.199400
F26 F 0.222800 0.882170 0.333800
F27 F 0.109200 0.951980 0.246100
F28 F 0.050600 0.901890 0.112200
O29 O 0.433100 0.441860 -0.230000
O30 O 0.228100 0.492280 -0.315800
N31 N 0.312400 0.474700 -0.238100
C32 C 0.264700 0.494200 -0.151000
C33 C 0.317800 0.464800 -0.066500
H34 H 0.381000 0.432900 -0.066500
C35 C 0.274600 0.484000 0.016500
H36 H 0.303400 0.464400 0.074300
C37 C 0.189500 0.531800 0.016100
C38 C 0.136300 0.560500 -0.067300
H39 H 0.076800 0.592900 -0.066300
C40 C 0.171700 0.540800 -0.153700
H41 H 0.132700 0.559000 -0.212600
N42 N 0.161900 0.548930 0.107800
N43 N 0.130700 0.596550 0.112600
C44 C 0.105100 0.612400 0.206300
C45 C 0.047400 0.662500 0.214600
H46 H 0.028800 0.684900 0.160300
C47 C 0.016300 0.680400 0.300600
H48 H -0.028300 0.714600 0.305700
C49 C 0.051500 0.647600 0.380000
C50 C 0.117300 0.597200 0.373300
C51 C 0.140700 0.579000 0.284000
H52 H 0.180300 0.544500 0.277000
O53 O 0.149200 0.568650 0.454100
C54 C 0.227300 0.517900 0.450300
H55 H 0.263000 0.503900 0.515600
H56 H 0.334400 0.520500 0.421700
H57 H 0.137900 0.494900 0.411100
N58 N 0.006100 0.667730 0.468000
H59 H -0.056000 0.706000 0.445000
C60 C 0.170000 0.674900 0.550600
H61 H 0.131000 0.692300 0.604900
H62 H 0.219400 0.640400 0.573100
C63 C 0.316700 0.706700 0.520900
H64 H 0.404400 0.718300 0.579100
H65 H 0.382800 0.684800 0.482500
O66 O 0.244500 0.750840 0.465800
C67 C 0.191900 0.792500 0.520600
H68 H 0.281900 0.821000 0.527300
H69 H 0.185100 0.780200 0.585700
C70 C 0.008800 0.811600 0.468200
H71 H -0.025800 0.842800 0.501100
H72 H 0.014600 0.821500 0.401700
O73 O -0.122900 0.772210 0.466000
C74 C -0.303300 0.790800 0.440500
H75 H -0.315900 0.821100 0.481400
H76 H -0.386100 0.763300 0.454300
C77 C -0.362500 0.806700 0.335100
H78 H -0.484400 0.822700 0.325400
H79 H -0.277900 0.833600 0.321000
O80 O -0.368600 0.765070 0.267800
C81 C -0.521200 0.731200 0.260900
H82 H -0.592800 0.731100 0.194000
H83 H -0.600200 0.743900 0.303400
C84 C -0.458600 0.677300 0.289600
H85 H -0.564500 0.653800 0.282900
H86 H -0.380000 0.664400 0.246900
O87 O -0.360900 0.677470 0.386200
C88 C -0.294100 0.628100 0.424900
H89 H -0.256700 0.606800 0.374400
H90 H -0.390400 0.609200 0.448500
C91 C -0.137600 0.637200 0.504700
H92 H -0.086900 0.603600 0.531500
H93 H -0.176900 0.656900 0.556600
O94 O 0.066900 -0.058140 0.730000
O95 O 0.271900 -0.007720 0.815800
N96 N 0.187600 -0.025300 0.738100
C97 C 0.235300 -0.005800 0.651000
C98 C 0.182200 -0.035200 0.566500
H99 H 0.119000 -0.067100 0.566500
C100 C 0.225400 -0.016000 0.483500
H101 H 0.196600 -0.035600 0.425700
C102 C 0.310500 0.031800 0.483900
C103 C 0.363700 0.060500 0.567300
H104 H 0.423200 0.092900 0.566300
C105 C 0.328300 0.040800 0.653700
H106 H 0.367300 0.059000 0.712600
N107 N 0.338100 0.048930 0.392200
N108 N 0.369300 0.096550 0.387400
C109 C 0.394900 0.112400 0.293700
C110 C 0.452600 0.162500 0.285400
H111 H 0.471200 0.184900 0.339700
C112 C 0.483700 0.180400 0.199400
H113 H 0.528300 0.214600 0.194300
C114 C 0.448500 0.147600 0.120000
C115 C 0.382700 0.097200 0.126700
C116 C 0.359300 0.079000 0.216000
H117 H 0.319700 0.044500 0.223000
O118 O 0.350800 0.068650 0.045900
C119 C 0.272700 0.017900 0.049700
H120 H 0.237000 0.003900 -0.015600
H121 H 0.165600 0.020500 0.078300
H122 H 0.362100 -0.005100 0.088900
N123 N 0.493900 0.167730 0.032000
H124 H 0.556000 0.206000 0.055000
C125 C 0.330000 0.174900 -0.050600
H126 H 0.369000 0.192300 -0.104900
H127 H 0.280600 0.140400 -0.073100
C128 C 0.183300 0.206700 -0.020900
H129 H 0.095600 0.218300 -0.079100
H130 H 0.117200 0.184800 0.017500
O131 O 0.255500 0.250840 0.034200
C132 C 0.308100 0.292500 -0.020600
H133 H 0.218100 0.321000 -0.027300
H134 H 0.314900 0.280200 -0.085700
C135 C 0.491200 0.311600 0.031800
H136 H 0.525800 0.342800 -0.001100
H137 H 0.485400 0.321500 0.098300
O138 O 0.622900 0.272210 0.034000
C139 C 0.803300 0.290800 0.059500
H140 H 0.815900 0.321100 0.018600
H141 H 0.886100 0.263300 0.045700
C142 C 0.862500 0.306700 0.164900
H143 H 0.984400 0.322700 0.174600
H144 H 0.777900 0.333600 0.179000
O145 O 0.868600 0.265070 0.232200
C146 C 1.021200 0.231200 0.239100
H147 H 1.092800 0.231100 0.306000
H148 H 1.100200 0.243900 0.196600
C149 C 0.958600 0.177300 0.210400
H150 H 1.064500 0.153800 0.217100
H151 H 0.880000 0.164400 0.253100
O152 O 0.860900 0.177470 0.113800
C153 C 0.794100 0.128100 0.075100
H154 H 0.756700 0.106800 0.125600
H155 H 0.890400 0.109200 0.051500
C156 C 0.637600 0.137200 -0.004700
H157 H 0.586900 0.103600 -0.031500
H158 H 0.676900 0.156900 -0.056600
O159 O 0.566900 0.558140 1.230000
O160 O 0.771900 0.507720 1.315800
N161 N 0.687600 0.525300 1.238100
C162 C 0.735300 0.505800 1.151000
C163 C 0.682200 0.535200 1.066500
H164 H 0.619000 0.567100 1.066500
C165 C 0.725400 0.516000 0.983500
H166 H 0.696600 0.535600 0.925700
C167 C 0.810500 0.468200 0.983900
C168 C 0.863700 0.439500 1.067300
H169 H 0.923200 0.407100 1.066300
C170 C 0.828300 0.459200 1.153700
H171 H 0.867300 0.441000 1.212600
N172 N 0.838100 0.451070 0.892200
N173 N 0.869300 0.403450 0.887400
C174 C 0.894900 0.387600 0.793700
C175 C 0.952600 0.337500 0.785400
H176 H 0.971200 0.315100 0.839700
C177 C 0.983700 0.319600 0.699400
H178 H 1.028300 0.285400 0.694300
C179 C 0.948500 0.352400 0.620000
C180 C 0.882700 0.402800 0.626700
C181 C 0.859300 0.421000 0.716000
H182 H 0.819700 0.455500 0.723000
O183 O 0.850800 0.431350 0.545900
C184 C 0.772700 0.482100 0.549700
H185 H 0.737000 0.496100 0.484400
H186 H 0.665600 0.479500 0.578300
H187 H 0.862100 0.505100 0.588900
N188 N 0.993900 0.332270 0.532000
H189 H 1.056000 0.294000 0.555000
C190 C 0.830000 0.325100 0.449400
H191 H 0.869000 0.307700 0.395100
H192 H 0.780600 0.359600 0.426900
C193 C 0.683300 0.293300 0.479100
H194 H 0.595600 0.281700 0.420900
H195 H 0.617200 0.315200 0.517500
O196 O 0.755500 0.249160 0.534200
C197 C 0.808100 0.207500 0.479400
H198 H 0.718100 0.179000 0.472700
H199 H 0.814900 0.219800 0.414300
C200 C 0.991200 0.188400 0.531800
H201 H 1.025800 0.157200 0.498900
H202 H 0.985400 0.178500 0.598300
O203 O 1.122900 0.227790 0.534000
C204 C 1.303300 0.209200 0.559500
H205 H 1.315900 0.178900 0.518600
H206 H 1.386100 0.236700 0.545700
C207 C 1.362500 0.193300 0.664900
H208 H 1.484400 0.177300 0.674600
H209 H 1.277900 0.166400 0.679000
O210 O 1.368600 0.234930 0.732200
C211 C 1.521200 0.268800 0.739100
H212 H 1.592800 0.268900 0.806000
H213 H 1.600200 0.256100 0.696600
C214 C 1.458600 0.322700 0.710400
H215 H 1.564500 0.346200 0.717100
H216 H 1.380000 0.335600 0.753100
O217 O 1.360900 0.322530 0.613800
C218 C 1.294100 0.371900 0.575100
H219 H 1.256700 0.393200 0.625600
H220 H 1.390400 0.390800 0.551500
C221 C 1.137600 0.362800 0.495300
H222 H 1.086900 0.396400 0.468500
H223 H 1.176900 0.343100 0.443400
O224 O 0.933100 1.058140 0.270000
O225 O 0.728100 1.007720 0.184200
N226 N 0.812400 1.025300 0.261900
C227 C 0.764700 1.005800 0.349000
C228 C 0.817800 1.035200 0.433500
H229 H 0.881000 1.067100 0.433500
C230 C 0.774600 1.016000 0.516500
H231 H 0.803400 1.035600 0.574300
C232 C 0.689500 0.968200 0.516100
C233 C 0.636300 0.939500 0.432700
H234 H 0.576800 0.907100 0.433700
C235 C 0.671700 0.959200 0.346300
H236 H 0.632700 0.941000 0.287400
N237 N 0.661900 0.951070 0.607800
N238 N 0.630700 0.903450 0.612600
C239 C 0.605100 0.887600 0.706300
C240 C 0.547400 0.837500 0.714600
H241 H 0.528800 0.815100 0.660300
C242 C 0.516300 0.819600 0.800600
H243 H 0.471700 0.785400 0.805700
C244 C 0.551500 0.852400 0.880000
C245 C 0.617300 0.902800 0.873300
C246 C 0.640700 0.921000 0.784000
H247 H 0.680300 0.955500 0.777000
O248 O 0.649200 0.931350 0.954100
C249 C 0.727300 0.982100 0.950300
H250 H 0.763000 0.996100 1.015600
H251 H 0.834400 0.979500 0.921700
H252 H 0.637900 1.005100 0.911100
N253 N 0.506100 0.832270 0.968000
H254 H 0.444000 0.794000 0.945000
C255 C 0.670000 0.825100 1.050600
H256 H 0.631000 0.807700 1.104900
H257 H 0.719400 0.859600 1.073100
C258 C 0.816700 0.793300 1.020900
H259 H 0.904400 0.781700 1.079100
H260 H 0.882800 0.815200 0.982500
O261 O 0.744500 0.749160 0.965800
C262 C 0.691900 0.707500 1.020600
H263 H 0.781900 0.679000 1.027300
H264 H 0.685100 0.719800 1.085700
C265 C 0.508800 0.688400 0.968200
H266 H 0.474200 0.657200 1.001100
H267 H 0.514600 0.678500 0.901700
O268 O 0.377100 0.727790 0.966000
C269 C 0.196700 0.709200 0.940500
H270 H 0.184100 0.678900 0.981400
H271 H 0.113900 0.736700 0.954300
C272 C 0.137500 0.693300 0.835100
H273 H 0.015600 0.677300 0.825400
H274 H 0.222100 0.666400 0.821000
O275 O 0.131400 0.734930 0.767800
C276 C -0.021200 0.768800 0.760900
H277 H -0.092800 0.768900 0.694000
H278 H -0.100200 0.756100 0.803400
C279 C 0.041400 0.822700 0.789600
H280 H -0.064500 0.846200 0.782900
H281 H 0.120000 0.835600 0.746900
O282 O 0.139100 0.822530 0.886200
C283 C 0.205900 0.871900 0.924900
H284 H 0.243300 0.893200 0.874400
H285 H 0.109600 0.890800 0.948500
C286 C 0.362400 0.862800 1.004700
H287 H 0.413100 0.896400 1.031500
H288 H 0.323100 0.843100 1.056600

#END
