
#######################################################################
#
#                 Cambridge Crystallographic Data Centre
#                                CCDC 
#
#######################################################################
#
# If this CIF has been generated from an entry in the Cambridge 
# Structural Database, then it will include bibliographic, chemical, 
# crystal, experimental, refinement or atomic coordinate data resulting 
# from the CCDC's data processing and validation procedures.
#
#######################################################################

data_ACUQAS
_symmetry_cell_setting           orthorhombic
_symmetry_space_group_name_H-M   'P 21 21 21'
_symmetry_Int_Tables_number      19
_space_group_name_Hall           'P 2ac 2ab'
loop_
_symmetry_equiv_pos_site_id
_symmetry_equiv_pos_as_xyz
1 x,y,z
2 1/2+x,1/2-y,-z
3 -x,1/2+y,1/2-z
4 1/2-x,-y,1/2+z
_cell_length_a                   8.0248(5)
_cell_length_b                   12.4438(8)
_cell_length_c                   20.5847(14)
_cell_angle_alpha                90
_cell_angle_beta                 90
_cell_angle_gamma                90
_cell_volume                     2055.57
loop_
_atom_site_label
_atom_site_type_symbol
_atom_site_fract_x
_atom_site_fract_y
_atom_site_fract_z
C1 C 0.39500(18) 0.51080(12) 0.35065(7)
H1 H 0.4076 0.5176 0.3978
C2 C 0.24205(19) 0.44020(13) 0.33936(8)
H2 H 0.2450 0.3807 0.3698
H3 H 0.1428 0.4820 0.3486
C3 C 0.22873(19) 0.39532(13) 0.27078(8)
H4 H 0.1374 0.3431 0.2695
C4 C 0.3903(2) 0.33820(13) 0.25287(8)
H5 H 0.3829 0.3152 0.2079
H6 H 0.4002 0.2741 0.2794
C5 C 0.54972(18) 0.40537(13) 0.26112(7)
H7 H 0.6429 0.3545 0.2611
C6 C 0.65640(18) 0.29654(13) 0.41080(7)
C7 C 0.72574(19) 0.20745(14) 0.38061(8)
H8 H 0.7866 0.2154 0.3425
C8 C 0.7036(2) 0.10657(13) 0.40766(8)
H9 H 0.7496 0.0469 0.3873
C9 C 0.6138(2) 0.09313(14) 0.46483(8)
C10 C 0.5462(2) 0.18369(15) 0.49450(8)
H10 H 0.4864 0.1759 0.5329
C11 C 0.5661(2) 0.28515(15) 0.46801(8)
H11 H 0.5197 0.3449 0.4882
C12 C 0.5904(2) -0.01704(15) 0.49339(9)
H12 H 0.6900 -0.0381 0.5159
H13 H 0.5677 -0.0675 0.4592
H14 H 0.4986 -0.0159 0.5233
C13 C 0.3816(2) 0.62633(12) 0.32359(8)
H15 H 0.4905 0.6601 0.3252
H16 H 0.3471 0.6232 0.2785
C14 C 0.2591(2) 0.69410(12) 0.36123(7)
C15 C 0.3085(2) 0.74481(13) 0.41800(8)
H17 H 0.4181 0.7378 0.4320
C16 C 0.1976(3) 0.80578(14) 0.45431(8)
H18 H 0.2330 0.8394 0.4922
C17 C 0.0345(3) 0.81629(16) 0.43391(10)
H19 H -0.0404 0.8571 0.4580
C18 C -0.0175(2) 0.76574(15) 0.37735(10)
H20 H -0.1274 0.7724 0.3637
C19 C 0.0942(2) 0.70523(14) 0.34111(8)
H21 H 0.0588 0.6719 0.3031
C20 C 0.58273(19) 0.48476(14) 0.20513(7)
H22 H 0.5258 0.4585 0.1667
H23 H 0.5329 0.5533 0.2165
C21 C 0.76531(19) 0.50419(14) 0.18764(8)
H24 H 0.8187 0.4346 0.1796
C22 C 0.7841(2) 0.57317(15) 0.12763(8)
H25 H 0.7318 0.6415 0.1348
H26 H 0.7321 0.5381 0.0914
H27 H 0.9003 0.5837 0.1186
N1 N 0.54971(16) 0.45821(10) 0.32641(6)
O1 O 0.84647(13) 0.41757(10) 0.34275(6)
O2 O 0.68169(16) 0.50106(10) 0.43140(6)
O3 O 0.19728(14) 0.47678(10) 0.22318(5)
H28 H 0.1015 0.4988 0.2271
O4 O 0.85595(16) 0.55886(11) 0.23798(6)
H29 H 0.8527 0.5232 0.2714
S1 S 0.69268(5) 0.42613(3) 0.378701(19)
C1 C 0.89500(18) -0.01080(12) 0.64935(7)
H1 H 0.9076 -0.0176 0.6022
C2 C 0.74205(19) 0.05980(13) 0.66064(8)
H2 H 0.7450 0.1193 0.6302
H3 H 0.6428 0.0180 0.6514
C3 C 0.72873(19) 0.10468(13) 0.72922(8)
H4 H 0.6374 0.1569 0.7305
C4 C 0.8903(2) 0.16180(13) 0.74713(8)
H5 H 0.8829 0.1848 0.7921
H6 H 0.9002 0.2259 0.7206
C5 C 1.04972(18) 0.09463(13) 0.73888(7)
H7 H 1.1429 0.1455 0.7389
C6 C 1.15640(18) 0.20346(13) 0.58920(7)
C7 C 1.22574(19) 0.29255(14) 0.61939(8)
H8 H 1.2866 0.2846 0.6575
C8 C 1.2036(2) 0.39343(13) 0.59234(8)
H9 H 1.2496 0.4531 0.6127
C9 C 1.1138(2) 0.40687(14) 0.53517(8)
C10 C 1.0462(2) 0.31631(15) 0.50550(8)
H10 H 0.9864 0.3241 0.4671
C11 C 1.0661(2) 0.21485(15) 0.53199(8)
H11 H 1.0197 0.1551 0.5118
C12 C 1.0904(2) 0.51704(15) 0.50661(9)
H12 H 1.1900 0.5381 0.4841
H13 H 1.0677 0.5675 0.5408
H14 H 0.9986 0.5159 0.4767
C13 C 0.8816(2) -0.12633(12) 0.67641(8)
H15 H 0.9905 -0.1601 0.6748
H16 H 0.8471 -0.1232 0.7215
C14 C 0.7591(2) -0.19410(12) 0.63877(7)
C15 C 0.8085(2) -0.24481(13) 0.58200(8)
H17 H 0.9181 -0.2378 0.5680
C16 C 0.6976(3) -0.30578(14) 0.54569(8)
H18 H 0.7330 -0.3394 0.5078
C17 C 0.5345(3) -0.31629(16) 0.56609(10)
H19 H 0.4596 -0.3571 0.5420
C18 C 0.4825(2) -0.26574(15) 0.62265(10)
H20 H 0.3726 -0.2724 0.6363
C19 C 0.5942(2) -0.20523(14) 0.65889(8)
H21 H 0.5588 -0.1719 0.6969
C20 C 1.08273(19) 0.01524(14) 0.79487(7)
H22 H 1.0258 0.0415 0.8333
H23 H 1.0329 -0.0533 0.7835
C21 C 1.26531(19) -0.00419(14) 0.81236(8)
H24 H 1.3187 0.0654 0.8204
C22 C 1.2841(2) -0.07317(15) 0.87237(8)
H25 H 1.2318 -0.1415 0.8652
H26 H 1.2321 -0.0381 0.9086
H27 H 1.4003 -0.0837 0.8814
N1 N 1.04971(16) 0.04179(10) 0.67359(6)
O1 O 1.34647(13) 0.08243(10) 0.65725(6)
O2 O 1.18169(16) -0.00106(10) 0.56860(6)
O3 O 0.69728(14) 0.02322(10) 0.77682(5)
H28 H 0.6015 0.0012 0.7729
O4 O 1.35595(16) -0.05886(11) 0.76202(6)
H29 H 1.3527 -0.0232 0.7286
S1 S 1.19268(5) 0.07387(3) 0.621299(19)
C1 C 0.60500(18) 1.01080(12) 0.14935(7)
H1 H 0.5924 1.0176 0.1022
C2 C 0.75795(19) 0.94020(13) 0.16064(8)
H2 H 0.7550 0.8807 0.1302
H3 H 0.8572 0.9820 0.1514
C3 C 0.77127(19) 0.89532(13) 0.22922(8)
H4 H 0.8626 0.8431 0.2305
C4 C 0.6097(2) 0.83820(13) 0.24713(8)
H5 H 0.6171 0.8152 0.2921
H6 H 0.5998 0.7741 0.2206
C5 C 0.45028(18) 0.90537(13) 0.23888(7)
H7 H 0.3571 0.8545 0.2389
C6 C 0.34360(18) 0.79654(13) 0.08920(7)
C7 C 0.27426(19) 0.70745(14) 0.11939(8)
H8 H 0.2134 0.7154 0.1575
C8 C 0.2964(2) 0.60657(13) 0.09234(8)
H9 H 0.2504 0.5469 0.1127
C9 C 0.3862(2) 0.59313(14) 0.03517(8)
C10 C 0.4538(2) 0.68369(15) 0.00550(8)
H10 H 0.5136 0.6759 -0.0329
C11 C 0.4339(2) 0.78515(15) 0.03199(8)
H11 H 0.4803 0.8449 0.0118
C12 C 0.4096(2) 0.48296(15) 0.00661(9)
H12 H 0.3100 0.4619 -0.0159
H13 H 0.4323 0.4325 0.0408
H14 H 0.5014 0.4841 -0.0233
C13 C 0.6184(2) 1.12633(12) 0.17641(8)
H15 H 0.5095 1.1601 0.1748
H16 H 0.6529 1.1232 0.2215
C14 C 0.7409(2) 1.19410(12) 0.13877(7)
C15 C 0.6915(2) 1.24481(13) 0.08200(8)
H17 H 0.5819 1.2378 0.0680
C16 C 0.8024(3) 1.30578(14) 0.04569(8)
H18 H 0.7670 1.3394 0.0078
C17 C 0.9655(3) 1.31629(16) 0.06609(10)
H19 H 1.0404 1.3571 0.0420
C18 C 1.0175(2) 1.26574(15) 0.12265(10)
H20 H 1.1274 1.2724 0.1363
C19 C 0.9058(2) 1.20523(14) 0.15889(8)
H21 H 0.9412 1.1719 0.1969
C20 C 0.41727(19) 0.98476(14) 0.29487(7)
H22 H 0.4742 0.9585 0.3333
H23 H 0.4671 1.0533 0.2835
C21 C 0.23469(19) 1.00419(14) 0.31236(8)
H24 H 0.1813 0.9346 0.3204
C22 C 0.2159(2) 1.07317(15) 0.37237(8)
H25 H 0.2682 1.1415 0.3652
H26 H 0.2679 1.0381 0.4086
H27 H 0.0997 1.0837 0.3814
N1 N 0.45029(16) 0.95821(10) 0.17359(6)
O1 O 0.15353(13) 0.91757(10) 0.15725(6)
O2 O 0.31831(16) 1.00106(10) 0.06860(6)
O3 O 0.80272(14) 0.97678(10) 0.27682(5)
H28 H 0.8985 0.9988 0.2729
O4 O 0.14405(16) 1.05886(11) 0.26202(6)
H29 H 0.1473 1.0232 0.2286
S1 S 0.30732(5) 0.92613(3) 0.121299(19)
C1 C 0.10500(18) 0.48920(12) 0.85065(7)
H1 H 0.0924 0.4824 0.8978
C2 C 0.25795(19) 0.55980(13) 0.83936(8)
H2 H 0.2550 0.6193 0.8698
H3 H 0.3572 0.5180 0.8486
C3 C 0.27127(19) 0.60468(13) 0.77078(8)
H4 H 0.3626 0.6569 0.7695
C4 C 0.1097(2) 0.66180(13) 0.75287(8)
H5 H 0.1171 0.6848 0.7079
H6 H 0.0998 0.7259 0.7794
C5 C -0.04972(18) 0.59463(13) 0.76112(7)
H7 H -0.1429 0.6455 0.7611
C6 C -0.15640(18) 0.70346(13) 0.91080(7)
C7 C -0.22574(19) 0.79255(14) 0.88061(8)
H8 H -0.2866 0.7846 0.8425
C8 C -0.2036(2) 0.89343(13) 0.90766(8)
H9 H -0.2496 0.9531 0.8873
C9 C -0.1138(2) 0.90687(14) 0.96483(8)
C10 C -0.0462(2) 0.81631(15) 0.99450(8)
H10 H 0.0136 0.8241 1.0329
C11 C -0.0661(2) 0.71485(15) 0.96801(8)
H11 H -0.0197 0.6551 0.9882
C12 C -0.0904(2) 1.01704(15) 0.99339(9)
H12 H -0.1900 1.0381 1.0159
H13 H -0.0677 1.0675 0.9592
H14 H 0.0014 1.0159 1.0233
C13 C 0.1184(2) 0.37367(12) 0.82359(8)
H15 H 0.0095 0.3399 0.8252
H16 H 0.1529 0.3768 0.7785
C14 C 0.2409(2) 0.30590(12) 0.86123(7)
C15 C 0.1915(2) 0.25519(13) 0.91800(8)
H17 H 0.0819 0.2622 0.9320
C16 C 0.3024(3) 0.19422(14) 0.95431(8)
H18 H 0.2670 0.1606 0.9922
C17 C 0.4655(3) 0.18371(16) 0.93391(10)
H19 H 0.5404 0.1429 0.9580
C18 C 0.5175(2) 0.23426(15) 0.87735(10)
H20 H 0.6274 0.2276 0.8637
C19 C 0.4058(2) 0.29477(14) 0.84111(8)
H21 H 0.4412 0.3281 0.8031
C20 C -0.08273(19) 0.51524(14) 0.70513(7)
H22 H -0.0258 0.5415 0.6667
H23 H -0.0329 0.4467 0.7165
C21 C -0.26531(19) 0.49581(14) 0.68764(8)
H24 H -0.3187 0.5654 0.6796
C22 C -0.2841(2) 0.42683(15) 0.62763(8)
H25 H -0.2318 0.3585 0.6348
H26 H -0.2321 0.4619 0.5914
H27 H -0.4003 0.4163 0.6186
N1 N -0.04971(16) 0.54179(10) 0.82641(6)
O1 O -0.34647(13) 0.58243(10) 0.84275(6)
O2 O -0.18169(16) 0.49894(10) 0.93140(6)
O3 O 0.30272(14) 0.52322(10) 0.72318(5)
H28 H 0.3985 0.5012 0.7271
O4 O -0.35595(16) 0.44114(11) 0.73798(6)
H29 H -0.3527 0.4768 0.7714
S1 S -0.19268(5) 0.57387(3) 0.878701(19)

#END
