
#######################################################################
#
#                 Cambridge Crystallographic Data Centre
#                                CCDC 
#
#######################################################################
#
# If this CIF has been generated from an entry in the Cambridge 
# Structural Database, then it will include bibliographic, chemical, 
# crystal, experimental, refinement or atomic coordinate data resulting 
# from the CCDC's data processing and validation procedures.
#
#######################################################################

data_ACURUN
_symmetry_cell_setting           monoclinic
_symmetry_space_group_name_H-M   'P 21/c'
_symmetry_Int_Tables_number      14
_space_group_name_Hall           '-P 2ybc'
loop_
_symmetry_equiv_pos_site_id
_symmetry_equiv_pos_as_xyz
1 x,y,z
2 -x,1/2+y,1/2-z
3 -x,-y,-z
4 x,1/2-y,1/2+z
_cell_length_a                   7.6481(2)
_cell_length_b                   19.5753(6)
_cell_length_c                   18.1746(5)
_cell_angle_alpha                90
_cell_angle_beta                 101.832(3)
_cell_angle_gamma                90
_cell_volume                     2663.18
loop_
_atom_site_label
_atom_site_type_symbol
_atom_site_fract_x
_atom_site_fract_y
_atom_site_fract_z
F1 F 1.9159(2) 0.50051(14) 0.39047(11)
F2 F 1.7807(2) 0.43670(10) 0.45356(12)
F3 F 1.8084(3) 0.54090(11) 0.47924(12)
O1 O 0.9787(2) 0.62085(9) 0.27081(9)
O2 O 0.1529(2) 0.68754(9) 0.12076(9)
O3 O 0.2675(2) 0.53665(8) -0.02342(9)
O4 O -0.0939(2) 0.54502(8) -0.09061(9)
O5 O -0.0157(2) 0.74079(9) -0.06014(10)
N1 N 1.1139(2) 0.53457(10) 0.21904(10)
H1 H 1.1008 0.5071 0.1799
N2 N 0.8276(2) 0.56545(10) 0.16562(10)
H2 H 0.8395 0.5348 0.1315
N3 N 0.0638(2) 0.61470(10) -0.00065(10)
H3 H 0.0502 0.6495 0.0283
C1 C 1.6040(3) 0.51107(12) 0.36886(13)
C2 C 1.5761(3) 0.48526(12) 0.29653(13)
H4 H 1.6688 0.4610 0.2802
C3 C 1.4138(3) 0.49464(12) 0.24815(13)
H5 H 1.3954 0.4767 0.1986
C4 C 1.2762(3) 0.53012(12) 0.27119(12)
C5 C 1.3043(3) 0.55571(13) 0.34396(13)
H6 H 1.2116 0.5797 0.3606
C6 C 1.4678(3) 0.54608(13) 0.39215(14)
H7 H 1.4868 0.5638 0.4418
C7 C 1.7763(3) 0.49732(14) 0.42196(15)
C8 C 0.9738(3) 0.57699(12) 0.22244(12)
C9 C 0.6602(3) 0.59837(11) 0.15709(12)
C10 C 0.6194(3) 0.64686(12) 0.20706(13)
H8 H 0.7072 0.6596 0.2498
C11 C 0.4523(3) 0.67650(12) 0.19493(13)
H9 H 0.4272 0.7098 0.2294
C12 C 0.3201(3) 0.65884(11) 0.13366(12)
C13 C 0.3568(3) 0.60884(11) 0.08324(11)
C14 C 0.5272(3) 0.58019(11) 0.09589(12)
H10 H 0.5534 0.5471 0.0615
C15 C 0.1173(3) 0.74397(13) 0.16616(14)
H11 H 0.2011 0.7820 0.1636
H12 H 0.1302 0.7297 0.2193
C16 C -0.0721(3) 0.76565(12) 0.13425(14)
H13 H -0.0858 0.7709 0.0792
H14 H -0.1528 0.7283 0.1430
C17 C -0.1331(5) 0.8303(2) 0.1648(2)
H15 H -0.0539 0.8678 0.1535
C18 C -0.3235(5) 0.8476(2) 0.1247(3)
H16 H -0.3362 0.8400 0.0706
H17 H -0.3486 0.8956 0.1338
H18 H -0.4079 0.8183 0.1440
C19 C -0.1223(8) 0.8302(3) 0.2446(3)
H19 H -0.1864 0.7904 0.2585
H20 H -0.1765 0.8721 0.2593
H21 H 0.0032 0.8279 0.2706
C20 C 0.2279(3) 0.58244(11) 0.01543(12)
C21 C -0.0805(3) 0.59878(11) -0.05658(11)
C22 C -0.2252(3) 0.65133(12) -0.07163(11)
C23 C -0.4012(3) 0.62849(14) -0.08659(12)
H22 H -0.4253 0.5810 -0.0843
C24 C -0.5423(3) 0.67428(17) -0.10482(14)
H23 H -0.6623 0.6585 -0.1142
C25 C -0.5057(4) 0.74321(17) -0.10911(15)
H24 H -0.6019 0.7746 -0.1222
C26 C -0.3328(4) 0.76731(15) -0.09480(14)
H25 H -0.3104 0.8148 -0.0985
C27 C -0.1911(3) 0.72184(13) -0.07499(12)
C28 C 0.0263(4) 0.81228(14) -0.05961(17)
H26 H -0.0112 0.8308 -0.1105
H27 H 0.1555 0.8185 -0.0426
H28 H -0.0365 0.8363 -0.0254
F1 F -0.9159(2) 0.00051(14) 0.10953(11)
F2 F -0.7807(2) -0.06330(10) 0.04644(12)
F3 F -0.8084(3) 0.04090(11) 0.02076(12)
O1 O 0.0213(2) 0.12085(9) 0.22919(9)
O2 O 0.8471(2) 0.18754(9) 0.37924(9)
O3 O 0.7325(2) 0.03665(8) 0.52342(9)
O4 O 1.0939(2) 0.04502(8) 0.59061(9)
O5 O 1.0157(2) 0.24079(9) 0.56014(10)
N1 N -0.1139(2) 0.03457(10) 0.28096(10)
H1 H -0.1008 0.0071 0.3201
N2 N 0.1724(2) 0.06545(10) 0.33438(10)
H2 H 0.1605 0.0348 0.3685
N3 N 0.9362(2) 0.11470(10) 0.50065(10)
H3 H 0.9498 0.1495 0.4717
C1 C -0.6040(3) 0.01107(12) 0.13114(13)
C2 C -0.5761(3) -0.01474(12) 0.20347(13)
H4 H -0.6688 -0.0390 0.2198
C3 C -0.4138(3) -0.00536(12) 0.25185(13)
H5 H -0.3954 -0.0233 0.3014
C4 C -0.2762(3) 0.03012(12) 0.22881(12)
C5 C -0.3043(3) 0.05571(13) 0.15604(13)
H6 H -0.2116 0.0797 0.1394
C6 C -0.4678(3) 0.04608(13) 0.10785(14)
H7 H -0.4868 0.0638 0.0582
C7 C -0.7763(3) -0.00268(14) 0.07804(15)
C8 C 0.0262(3) 0.07699(12) 0.27756(12)
C9 C 0.3398(3) 0.09837(11) 0.34291(12)
C10 C 0.3806(3) 0.14686(12) 0.29294(13)
H8 H 0.2928 0.1596 0.2502
C11 C 0.5477(3) 0.17650(12) 0.30507(13)
H9 H 0.5728 0.2098 0.2706
C12 C 0.6799(3) 0.15884(11) 0.36634(12)
C13 C 0.6432(3) 0.10884(11) 0.41676(11)
C14 C 0.4728(3) 0.08019(11) 0.40411(12)
H10 H 0.4466 0.0471 0.4385
C15 C 0.8827(3) 0.24397(13) 0.33384(14)
H11 H 0.7989 0.2820 0.3364
H12 H 0.8698 0.2297 0.2807
C16 C 1.0721(3) 0.26565(12) 0.36575(14)
H13 H 1.0858 0.2709 0.4208
H14 H 1.1528 0.2283 0.3570
C17 C 1.1331(5) 0.3303(2) 0.3352(2)
H15 H 1.0539 0.3678 0.3465
C18 C 1.3235(5) 0.3476(2) 0.3753(3)
H16 H 1.3362 0.3400 0.4294
H17 H 1.3486 0.3956 0.3662
H18 H 1.4079 0.3183 0.3560
C19 C 1.1223(8) 0.3302(3) 0.2554(3)
H19 H 1.1864 0.2904 0.2415
H20 H 1.1765 0.3721 0.2407
H21 H 0.9968 0.3279 0.2294
C20 C 0.7721(3) 0.08244(11) 0.48457(12)
C21 C 1.0805(3) 0.09878(11) 0.55658(11)
C22 C 1.2252(3) 0.15133(12) 0.57163(11)
C23 C 1.4012(3) 0.12849(14) 0.58659(12)
H22 H 1.4253 0.0810 0.5843
C24 C 1.5423(3) 0.17428(17) 0.60482(14)
H23 H 1.6623 0.1585 0.6142
C25 C 1.5057(4) 0.24321(17) 0.60911(15)
H24 H 1.6019 0.2746 0.6222
C26 C 1.3328(4) 0.26731(15) 0.59480(14)
H25 H 1.3104 0.3148 0.5985
C27 C 1.1911(3) 0.22184(13) 0.57499(12)
C28 C 0.9737(4) 0.31228(14) 0.55961(17)
H26 H 1.0112 0.3308 0.6105
H27 H 0.8445 0.3185 0.5426
H28 H 1.0365 0.3363 0.5254
F1 F -0.9159(2) 0.49949(14) 0.60953(11)
F2 F -0.7807(2) 0.56330(10) 0.54644(12)
F3 F -0.8084(3) 0.45910(11) 0.52076(12)
O1 O 0.0213(2) 0.37915(9) 0.72919(9)
O2 O 0.8471(2) 0.31246(9) 0.87924(9)
O3 O 0.7325(2) 0.46335(8) 1.02342(9)
O4 O 1.0939(2) 0.45498(8) 1.09061(9)
O5 O 1.0157(2) 0.25921(9) 1.06014(10)
N1 N -0.1139(2) 0.46543(10) 0.78096(10)
H1 H -0.1008 0.4929 0.8201
N2 N 0.1724(2) 0.43455(10) 0.83438(10)
H2 H 0.1605 0.4652 0.8685
N3 N 0.9362(2) 0.38530(10) 1.00065(10)
H3 H 0.9498 0.3505 0.9717
C1 C -0.6040(3) 0.48893(12) 0.63114(13)
C2 C -0.5761(3) 0.51474(12) 0.70347(13)
H4 H -0.6688 0.5390 0.7198
C3 C -0.4138(3) 0.50536(12) 0.75185(13)
H5 H -0.3954 0.5233 0.8014
C4 C -0.2762(3) 0.46988(12) 0.72881(12)
C5 C -0.3043(3) 0.44429(13) 0.65604(13)
H6 H -0.2116 0.4203 0.6394
C6 C -0.4678(3) 0.45392(13) 0.60785(14)
H7 H -0.4868 0.4362 0.5582
C7 C -0.7763(3) 0.50268(14) 0.57804(15)
C8 C 0.0262(3) 0.42301(12) 0.77756(12)
C9 C 0.3398(3) 0.40163(11) 0.84291(12)
C10 C 0.3806(3) 0.35314(12) 0.79294(13)
H8 H 0.2928 0.3404 0.7502
C11 C 0.5477(3) 0.32350(12) 0.80507(13)
H9 H 0.5728 0.2902 0.7706
C12 C 0.6799(3) 0.34116(11) 0.86634(12)
C13 C 0.6432(3) 0.39116(11) 0.91676(11)
C14 C 0.4728(3) 0.41981(11) 0.90411(12)
H10 H 0.4466 0.4529 0.9385
C15 C 0.8827(3) 0.25603(13) 0.83384(14)
H11 H 0.7989 0.2180 0.8364
H12 H 0.8698 0.2703 0.7807
C16 C 1.0721(3) 0.23435(12) 0.86575(14)
H13 H 1.0858 0.2291 0.9208
H14 H 1.1528 0.2717 0.8570
C17 C 1.1331(5) 0.1697(2) 0.8352(2)
H15 H 1.0539 0.1322 0.8465
C18 C 1.3235(5) 0.1524(2) 0.8753(3)
H16 H 1.3362 0.1600 0.9294
H17 H 1.3486 0.1044 0.8662
H18 H 1.4079 0.1817 0.8560
C19 C 1.1223(8) 0.1698(3) 0.7554(3)
H19 H 1.1864 0.2096 0.7415
H20 H 1.1765 0.1279 0.7407
H21 H 0.9968 0.1721 0.7294
C20 C 0.7721(3) 0.41756(11) 0.98457(12)
C21 C 1.0805(3) 0.40122(11) 1.05658(11)
C22 C 1.2252(3) 0.34867(12) 1.07163(11)
C23 C 1.4012(3) 0.37151(14) 1.08659(12)
H22 H 1.4253 0.4190 1.0843
C24 C 1.5423(3) 0.32572(17) 1.10482(14)
H23 H 1.6623 0.3415 1.1142
C25 C 1.5057(4) 0.25679(17) 1.10911(15)
H24 H 1.6019 0.2254 1.1222
C26 C 1.3328(4) 0.23269(15) 1.09480(14)
H25 H 1.3104 0.1852 1.0985
C27 C 1.1911(3) 0.27816(13) 1.07499(12)
C28 C 0.9737(4) 0.18772(14) 1.05961(17)
H26 H 1.0112 0.1692 1.1105
H27 H 0.8445 0.1815 1.0426
H28 H 1.0365 0.1637 1.0254
F1 F 1.9159(2) 0.99949(14) 0.89047(11)
F2 F 1.7807(2) 1.06330(10) 0.95356(12)
F3 F 1.8084(3) 0.95910(11) 0.97924(12)
O1 O 0.9787(2) 0.87915(9) 0.77081(9)
O2 O 0.1529(2) 0.81246(9) 0.62076(9)
O3 O 0.2675(2) 0.96335(8) 0.47658(9)
O4 O -0.0939(2) 0.95498(8) 0.40939(9)
O5 O -0.0157(2) 0.75921(9) 0.43986(10)
N1 N 1.1139(2) 0.96543(10) 0.71904(10)
H1 H 1.1008 0.9929 0.6799
N2 N 0.8276(2) 0.93455(10) 0.66562(10)
H2 H 0.8395 0.9652 0.6315
N3 N 0.0638(2) 0.88530(10) 0.49935(10)
H3 H 0.0502 0.8505 0.5283
C1 C 1.6040(3) 0.98893(12) 0.86886(13)
C2 C 1.5761(3) 1.01474(12) 0.79653(13)
H4 H 1.6688 1.0390 0.7802
C3 C 1.4138(3) 1.00536(12) 0.74815(13)
H5 H 1.3954 1.0233 0.6986
C4 C 1.2762(3) 0.96988(12) 0.77119(12)
C5 C 1.3043(3) 0.94429(13) 0.84396(13)
H6 H 1.2116 0.9203 0.8606
C6 C 1.4678(3) 0.95392(13) 0.89215(14)
H7 H 1.4868 0.9362 0.9418
C7 C 1.7763(3) 1.00268(14) 0.92196(15)
C8 C 0.9738(3) 0.92301(12) 0.72244(12)
C9 C 0.6602(3) 0.90163(11) 0.65709(12)
C10 C 0.6194(3) 0.85314(12) 0.70706(13)
H8 H 0.7072 0.8404 0.7498
C11 C 0.4523(3) 0.82350(12) 0.69493(13)
H9 H 0.4272 0.7902 0.7294
C12 C 0.3201(3) 0.84116(11) 0.63366(12)
C13 C 0.3568(3) 0.89116(11) 0.58324(11)
C14 C 0.5272(3) 0.91981(11) 0.59589(12)
H10 H 0.5534 0.9529 0.5615
C15 C 0.1173(3) 0.75603(13) 0.66616(14)
H11 H 0.2011 0.7180 0.6636
H12 H 0.1302 0.7703 0.7193
C16 C -0.0721(3) 0.73435(12) 0.63425(14)
H13 H -0.0858 0.7291 0.5792
H14 H -0.1528 0.7717 0.6430
C17 C -0.1331(5) 0.6697(2) 0.6648(2)
H15 H -0.0539 0.6322 0.6535
C18 C -0.3235(5) 0.6524(2) 0.6247(3)
H16 H -0.3362 0.6600 0.5706
H17 H -0.3486 0.6044 0.6338
H18 H -0.4079 0.6817 0.6440
C19 C -0.1223(8) 0.6698(3) 0.7446(3)
H19 H -0.1864 0.7096 0.7585
H20 H -0.1765 0.6279 0.7593
H21 H 0.0032 0.6721 0.7706
C20 C 0.2279(3) 0.91756(11) 0.51543(12)
C21 C -0.0805(3) 0.90122(11) 0.44342(11)
C22 C -0.2252(3) 0.84867(12) 0.42837(11)
C23 C -0.4012(3) 0.87151(14) 0.41341(12)
H22 H -0.4253 0.9190 0.4157
C24 C -0.5423(3) 0.82572(17) 0.39518(14)
H23 H -0.6623 0.8415 0.3858
C25 C -0.5057(4) 0.75679(17) 0.39089(15)
H24 H -0.6019 0.7254 0.3778
C26 C -0.3328(4) 0.73269(15) 0.40520(14)
H25 H -0.3104 0.6852 0.4015
C27 C -0.1911(3) 0.77816(13) 0.42501(12)
C28 C 0.0263(4) 0.68772(14) 0.44039(17)
H26 H -0.0112 0.6692 0.3895
H27 H 0.1555 0.6815 0.4574
H28 H -0.0365 0.6637 0.4746
C29? C 0.9581(18) 0.8629(7) 0.2346(6)
H29? H 0.9236 0.8605 0.1320
H30? H 1.0211 0.8282 0.2689
H31? H 0.8701 0.8860 0.2582
H32? H 1.0442 0.8964 0.2234
C29? C 0.0419(18) 0.3629(7) 0.2654(6)
H29? H 0.0764 0.3605 0.3680
H30? H -0.0211 0.3282 0.2311
H31? H 0.1299 0.3860 0.2418
H32? H -0.0442 0.3964 0.2766
C29? C 0.0419(18) 0.1371(7) 0.7654(6)
H29? H 0.0764 0.1395 0.8680
H30? H -0.0211 0.1718 0.7311
H31? H 0.1299 0.1140 0.7418
H32? H -0.0442 0.1036 0.7766
C29? C 0.9581(18) 0.6371(7) 0.7346(6)
H29? H 0.9236 0.6395 0.6320
H30? H 1.0211 0.6718 0.7689
H31? H 0.8701 0.6140 0.7582
H32? H 1.0442 0.6036 0.7234

#END
