./ACURUN_from_xyz.cif_generated_by_CrystalShift
_symmetry_cell_setting triclinic
_symmetry_space_group_name_H-M 'P 1'
loop_
_symmetry_equiv_pos_site_id
_symmetry_equiv_pos_as_xyz
1 x,y,z
_cell_length_a 7.648100
_cell_length_b 19.575300
_cell_length_c 18.174600
_cell_angle_alpha 90.000000
_cell_angle_beta 101.832000
_cell_angle_gamma 90.000000
_cell_volume 2663.176621
loop_
_atom_site_label
_atom_site_type_symbol
_atom_site_fract_x
_atom_site_fract_y
_atom_site_fract_z
F1 F 1.915900 0.500510 0.390470
F2 F 1.780700 0.436700 0.453560
F3 F 1.808400 0.540900 0.479240
O4 O 0.978700 0.620850 0.270810
O5 O 0.152900 0.687540 0.120760
O6 O 0.267500 0.536650 -0.023420
O7 O -0.093900 0.545020 -0.090610
O8 O -0.015700 0.740790 -0.060140
N9 N 1.113900 0.534570 0.219040
H10 H 1.100800 0.507100 0.179900
N11 N 0.827600 0.565450 0.165620
H12 H 0.839500 0.534800 0.131500
N13 N 0.063800 0.614700 -0.000650
H14 H 0.050200 0.649500 0.028300
C15 C 1.604000 0.511070 0.368860
C16 C 1.576100 0.485260 0.296530
H17 H 1.668800 0.461000 0.280200
C18 C 1.413800 0.494640 0.248150
H19 H 1.395400 0.476700 0.198600
C20 C 1.276200 0.530120 0.271190
C21 C 1.304300 0.555710 0.343960
H22 H 1.211600 0.579700 0.360600
C23 C 1.467800 0.546080 0.392150
H24 H 1.486800 0.563800 0.441800
C25 C 1.776300 0.497320 0.421960
C26 C 0.973800 0.576990 0.222440
C27 C 0.660200 0.598370 0.157090
C28 C 0.619400 0.646860 0.207060
H29 H 0.707200 0.659600 0.249800
C30 C 0.452300 0.676500 0.194930
H31 H 0.427200 0.709800 0.229400
C32 C 0.320100 0.658840 0.133660
C33 C 0.356800 0.608840 0.083240
C34 C 0.527200 0.580190 0.095890
H35 H 0.553400 0.547100 0.061500
C36 C 0.117300 0.743970 0.166160
H37 H 0.201100 0.782000 0.163600
H38 H 0.130200 0.729700 0.219300
C39 C -0.072100 0.765650 0.134250
H40 H -0.085800 0.770900 0.079200
H41 H -0.152800 0.728300 0.143000
C42 C -0.133100 0.830300 0.164800
H43 H -0.053900 0.867800 0.153500
C44 C -0.323500 0.847600 0.124700
H45 H -0.336200 0.840000 0.070600
H46 H -0.348600 0.895600 0.133800
H47 H -0.407900 0.818300 0.144000
C48 C -0.122300 0.830200 0.244600
H49 H -0.186400 0.790400 0.258500
H50 H -0.176500 0.872100 0.259300
H51 H 0.003200 0.827900 0.270600
C52 C 0.227900 0.582440 0.015430
C53 C -0.080500 0.598780 -0.056580
C54 C -0.225200 0.651330 -0.071630
C55 C -0.401200 0.628490 -0.086590
H56 H -0.425300 0.581000 -0.084300
C57 C -0.542300 0.674280 -0.104820
H58 H -0.662300 0.658500 -0.114200
C59 C -0.505700 0.743210 -0.109110
H60 H -0.601900 0.774600 -0.122200
C61 C -0.332800 0.767310 -0.094800
H62 H -0.310400 0.814800 -0.098500
C63 C -0.191100 0.721840 -0.074990
C64 C 0.026300 0.812280 -0.059610
H65 H -0.011200 0.830800 -0.110500
H66 H 0.155500 0.818500 -0.042600
H67 H -0.036500 0.836300 -0.025400
F68 F -0.915900 0.000510 0.109530
F69 F -0.780700 -0.063300 0.046440
F70 F -0.808400 0.040900 0.020760
O71 O 0.021300 0.120850 0.229190
O72 O 0.847100 0.187540 0.379240
O73 O 0.732500 0.036650 0.523420
O74 O 1.093900 0.045020 0.590610
O75 O 1.015700 0.240790 0.560140
N76 N -0.113900 0.034570 0.280960
H77 H -0.100800 0.007100 0.320100
N78 N 0.172400 0.065450 0.334380
H79 H 0.160500 0.034800 0.368500
N80 N 0.936200 0.114700 0.500650
H81 H 0.949800 0.149500 0.471700
C82 C -0.604000 0.011070 0.131140
C83 C -0.576100 -0.014740 0.203470
H84 H -0.668800 -0.039000 0.219800
C85 C -0.413800 -0.005360 0.251850
H86 H -0.395400 -0.023300 0.301400
C87 C -0.276200 0.030120 0.228810
C88 C -0.304300 0.055710 0.156040
H89 H -0.211600 0.079700 0.139400
C90 C -0.467800 0.046080 0.107850
H91 H -0.486800 0.063800 0.058200
C92 C -0.776300 -0.002680 0.078040
C93 C 0.026200 0.076990 0.277560
C94 C 0.339800 0.098370 0.342910
C95 C 0.380600 0.146860 0.292940
H96 H 0.292800 0.159600 0.250200
C97 C 0.547700 0.176500 0.305070
H98 H 0.572800 0.209800 0.270600
C99 C 0.679900 0.158840 0.366340
C100 C 0.643200 0.108840 0.416760
C101 C 0.472800 0.080190 0.404110
H102 H 0.446600 0.047100 0.438500
C103 C 0.882700 0.243970 0.333840
H104 H 0.798900 0.282000 0.336400
H105 H 0.869800 0.229700 0.280700
C106 C 1.072100 0.265650 0.365750
H107 H 1.085800 0.270900 0.420800
H108 H 1.152800 0.228300 0.357000
C109 C 1.133100 0.330300 0.335200
H110 H 1.053900 0.367800 0.346500
C111 C 1.323500 0.347600 0.375300
H112 H 1.336200 0.340000 0.429400
H113 H 1.348600 0.395600 0.366200
H114 H 1.407900 0.318300 0.356000
C115 C 1.122300 0.330200 0.255400
H116 H 1.186400 0.290400 0.241500
H117 H 1.176500 0.372100 0.240700
H118 H 0.996800 0.327900 0.229400
C119 C 0.772100 0.082440 0.484570
C120 C 1.080500 0.098780 0.556580
C121 C 1.225200 0.151330 0.571630
C122 C 1.401200 0.128490 0.586590
H123 H 1.425300 0.081000 0.584300
C124 C 1.542300 0.174280 0.604820
H125 H 1.662300 0.158500 0.614200
C126 C 1.505700 0.243210 0.609110
H127 H 1.601900 0.274600 0.622200
C128 C 1.332800 0.267310 0.594800
H129 H 1.310400 0.314800 0.598500
C130 C 1.191100 0.221840 0.574990
C131 C 0.973700 0.312280 0.559610
H132 H 1.011200 0.330800 0.610500
H133 H 0.844500 0.318500 0.542600
H134 H 1.036500 0.336300 0.525400
F135 F -0.915900 0.499490 0.609530
F136 F -0.780700 0.563300 0.546440
F137 F -0.808400 0.459100 0.520760
O138 O 0.021300 0.379150 0.729190
O139 O 0.847100 0.312460 0.879240
O140 O 0.732500 0.463350 1.023420
O141 O 1.093900 0.454980 1.090610
O142 O 1.015700 0.259210 1.060140
N143 N -0.113900 0.465430 0.780960
H144 H -0.100800 0.492900 0.820100
N145 N 0.172400 0.434550 0.834380
H146 H 0.160500 0.465200 0.868500
N147 N 0.936200 0.385300 1.000650
H148 H 0.949800 0.350500 0.971700
C149 C -0.604000 0.488930 0.631140
C150 C -0.576100 0.514740 0.703470
H151 H -0.668800 0.539000 0.719800
C152 C -0.413800 0.505360 0.751850
H153 H -0.395400 0.523300 0.801400
C154 C -0.276200 0.469880 0.728810
C155 C -0.304300 0.444290 0.656040
H156 H -0.211600 0.420300 0.639400
C157 C -0.467800 0.453920 0.607850
H158 H -0.486800 0.436200 0.558200
C159 C -0.776300 0.502680 0.578040
C160 C 0.026200 0.423010 0.777560
C161 C 0.339800 0.401630 0.842910
C162 C 0.380600 0.353140 0.792940
H163 H 0.292800 0.340400 0.750200
C164 C 0.547700 0.323500 0.805070
H165 H 0.572800 0.290200 0.770600
C166 C 0.679900 0.341160 0.866340
C167 C 0.643200 0.391160 0.916760
C168 C 0.472800 0.419810 0.904110
H169 H 0.446600 0.452900 0.938500
C170 C 0.882700 0.256030 0.833840
H171 H 0.798900 0.218000 0.836400
H172 H 0.869800 0.270300 0.780700
C173 C 1.072100 0.234350 0.865750
H174 H 1.085800 0.229100 0.920800
H175 H 1.152800 0.271700 0.857000
C176 C 1.133100 0.169700 0.835200
H177 H 1.053900 0.132200 0.846500
C178 C 1.323500 0.152400 0.875300
H179 H 1.336200 0.160000 0.929400
H180 H 1.348600 0.104400 0.866200
H181 H 1.407900 0.181700 0.856000
C182 C 1.122300 0.169800 0.755400
H183 H 1.186400 0.209600 0.741500
H184 H 1.176500 0.127900 0.740700
H185 H 0.996800 0.172100 0.729400
C186 C 0.772100 0.417560 0.984570
C187 C 1.080500 0.401220 1.056580
C188 C 1.225200 0.348670 1.071630
C189 C 1.401200 0.371510 1.086590
H190 H 1.425300 0.419000 1.084300
C191 C 1.542300 0.325720 1.104820
H192 H 1.662300 0.341500 1.114200
C193 C 1.505700 0.256790 1.109110
H194 H 1.601900 0.225400 1.122200
C195 C 1.332800 0.232690 1.094800
H196 H 1.310400 0.185200 1.098500
C197 C 1.191100 0.278160 1.074990
C198 C 0.973700 0.187720 1.059610
H199 H 1.011200 0.169200 1.110500
H200 H 0.844500 0.181500 1.042600
H201 H 1.036500 0.163700 1.025400
F202 F 1.915900 0.999490 0.890470
F203 F 1.780700 1.063300 0.953560
F204 F 1.808400 0.959100 0.979240
O205 O 0.978700 0.879150 0.770810
O206 O 0.152900 0.812460 0.620760
O207 O 0.267500 0.963350 0.476580
O208 O -0.093900 0.954980 0.409390
O209 O -0.015700 0.759210 0.439860
N210 N 1.113900 0.965430 0.719040
H211 H 1.100800 0.992900 0.679900
N212 N 0.827600 0.934550 0.665620
H213 H 0.839500 0.965200 0.631500
N214 N 0.063800 0.885300 0.499350
H215 H 0.050200 0.850500 0.528300
C216 C 1.604000 0.988930 0.868860
C217 C 1.576100 1.014740 0.796530
H218 H 1.668800 1.039000 0.780200
C219 C 1.413800 1.005360 0.748150
H220 H 1.395400 1.023300 0.698600
C221 C 1.276200 0.969880 0.771190
C222 C 1.304300 0.944290 0.843960
H223 H 1.211600 0.920300 0.860600
C224 C 1.467800 0.953920 0.892150
H225 H 1.486800 0.936200 0.941800
C226 C 1.776300 1.002680 0.921960
C227 C 0.973800 0.923010 0.722440
C228 C 0.660200 0.901630 0.657090
C229 C 0.619400 0.853140 0.707060
H230 H 0.707200 0.840400 0.749800
C231 C 0.452300 0.823500 0.694930
H232 H 0.427200 0.790200 0.729400
C233 C 0.320100 0.841160 0.633660
C234 C 0.356800 0.891160 0.583240
C235 C 0.527200 0.919810 0.595890
H236 H 0.553400 0.952900 0.561500
C237 C 0.117300 0.756030 0.666160
H238 H 0.201100 0.718000 0.663600
H239 H 0.130200 0.770300 0.719300
C240 C -0.072100 0.734350 0.634250
H241 H -0.085800 0.729100 0.579200
H242 H -0.152800 0.771700 0.643000
C243 C -0.133100 0.669700 0.664800
H244 H -0.053900 0.632200 0.653500
C245 C -0.323500 0.652400 0.624700
H246 H -0.336200 0.660000 0.570600
H247 H -0.348600 0.604400 0.633800
H248 H -0.407900 0.681700 0.644000
C249 C -0.122300 0.669800 0.744600
H250 H -0.186400 0.709600 0.758500
H251 H -0.176500 0.627900 0.759300
H252 H 0.003200 0.672100 0.770600
C253 C 0.227900 0.917560 0.515430
C254 C -0.080500 0.901220 0.443420
C255 C -0.225200 0.848670 0.428370
C256 C -0.401200 0.871510 0.413410
H257 H -0.425300 0.919000 0.415700
C258 C -0.542300 0.825720 0.395180
H259 H -0.662300 0.841500 0.385800
C260 C -0.505700 0.756790 0.390890
H261 H -0.601900 0.725400 0.377800
C262 C -0.332800 0.732690 0.405200
H263 H -0.310400 0.685200 0.401500
C264 C -0.191100 0.778160 0.425010
C265 C 0.026300 0.687720 0.440390
H266 H -0.011200 0.669200 0.389500
H267 H 0.155500 0.681500 0.457400
H268 H -0.036500 0.663700 0.474600
C269 C 0.958100 0.862900 0.234600
H270 H 0.923600 0.860500 0.132000
H271 H 1.021100 0.828200 0.268900
H272 H 0.870100 0.886000 0.258200
H273 H 1.044200 0.896400 0.223400
C274 C 0.041900 0.362900 0.265400
H275 H 0.076400 0.360500 0.368000
H276 H -0.021100 0.328200 0.231100
H277 H 0.129900 0.386000 0.241800
H278 H -0.044200 0.396400 0.276600
C279 C 0.041900 0.137100 0.765400
H280 H 0.076400 0.139500 0.868000
H281 H -0.021100 0.171800 0.731100
H282 H 0.129900 0.114000 0.741800
H283 H -0.044200 0.103600 0.776600
C284 C 0.958100 0.637100 0.734600
H285 H 0.923600 0.639500 0.632000
H286 H 1.021100 0.671800 0.768900
H287 H 0.870100 0.614000 0.758200
H288 H 1.044200 0.603600 0.723400

#END
