
#######################################################################
#
#                 Cambridge Crystallographic Data Centre
#                                CCDC 
#
#######################################################################
#
# If this CIF has been generated from an entry in the Cambridge 
# Structural Database, then it will include bibliographic, chemical, 
# crystal, experimental, refinement or atomic coordinate data resulting 
# from the CCDC's data processing and validation procedures.
#
#######################################################################

data_ACUSIC
_symmetry_cell_setting           monoclinic
_symmetry_space_group_name_H-M   'C 2'
_symmetry_Int_Tables_number      5
_space_group_name_Hall           'C 2y'
loop_
_symmetry_equiv_pos_site_id
_symmetry_equiv_pos_as_xyz
1 x,y,z
2 -x,y,-z
3 1/2+x,1/2+y,z
4 1/2-x,1/2+y,-z
_cell_length_a                   29.342(4)
_cell_length_b                   5.0975(5)
_cell_length_c                   10.8993(13)
_cell_angle_alpha                90
_cell_angle_beta                 105.374(5)
_cell_angle_gamma                90
_cell_volume                     1571.88
loop_
_atom_site_label
_atom_site_type_symbol
_atom_site_fract_x
_atom_site_fract_y
_atom_site_fract_z
C1 C 0.63959(8) 0.1581(6) 0.8449(2)
H1 H 0.6457 0.2909 0.9149
C2 C 0.68661(8) 0.0476(6) 0.8360(2)
H2 H 0.7092 0.1944 0.8361
C3 C 0.70698(8) -0.1338(5) 0.9452(2)
H3 H 0.7389 -0.1887 0.9604
C4 C 0.68146(8) -0.2195(6) 1.0211(2)
H4 H 0.6963 -0.3265 1.0918
C5 C 0.62992(8) -0.1534(5) 0.9993(2)
H5 H 0.6130 -0.3227 1.0022
C6 C 0.61909(9) 0.0231(5) 1.1004(2)
C7 C 0.65241(10) 0.1340(6) 1.1928(2)
H6 H 0.6845 0.1084 1.1928
C8 C 0.64228(12) 0.2975(8) 1.2973(3)
H7 H 0.6475 0.4850 1.2814
H8 H 0.6644 0.2482 1.3796
C9 C 0.59118(12) 0.2587(8) 1.3050(3)
H9 H 0.5883 0.0858 1.3437
H10 H 0.5833 0.3958 1.3604
C10 C 0.55708(11) 0.2728(7) 1.1765(3)
H11 H 0.5591 0.4482 1.1393
H12 H 0.5245 0.2499 1.1849
C11 C 0.56707(9) 0.0642(6) 1.0878(3)
H13 H 0.5531 -0.1038 1.1055
H14 H 0.5513 0.1144 0.9989
C12 C 0.61304(8) 0.2895(6) 0.7224(2)
H15 H 0.6340 0.4139 0.6936
H16 H 0.6017 0.1567 0.6549
C13 C 0.55557(8) 0.6233(5) 0.6643(2)
C14 C 0.51566(8) 0.7623(6) 0.6978(3)
H17 H 0.5202 0.9523 0.6936
H18 H 0.5149 0.7135 0.7841
H19 H 0.4858 0.7124 0.6375
O1 O 0.61075(5) -0.0452(4) 0.87374(15)
O2 O 0.57339(6) 0.4278(4) 0.74760(15)
O3 O 0.57029(6) 0.6722(5) 0.57306(17)
C15 C 0.7111(3) -0.088(2) 0.6528(8)
C16 C 0.6985(5) -0.273(3) 0.5427(11)
H20 H 0.7152 -0.2219 0.4795
H21 H 0.6643 -0.2675 0.5041
H22 H 0.7078 -0.4517 0.5725
O4 O 0.6774(5) -0.095(3) 0.7153(11)
O5 O 0.7462(4) 0.044(4) 0.6851(10)
C1 C 0.36041(8) 0.1581(6) 0.1551(2)
H1 H 0.3543 0.2909 0.0851
C2 C 0.31339(8) 0.0476(6) 0.1640(2)
H2 H 0.2908 0.1944 0.1639
C3 C 0.29302(8) -0.1338(5) 0.0548(2)
H3 H 0.2611 -0.1887 0.0396
C4 C 0.31854(8) -0.2195(6) -0.0211(2)
H4 H 0.3037 -0.3265 -0.0918
C5 C 0.37008(8) -0.1534(5) 0.0007(2)
H5 H 0.3870 -0.3227 -0.0022
C6 C 0.38091(9) 0.0231(5) -0.1004(2)
C7 C 0.34759(10) 0.1340(6) -0.1928(2)
H6 H 0.3155 0.1084 -0.1928
C8 C 0.35772(12) 0.2975(8) -0.2973(3)
H7 H 0.3525 0.4850 -0.2814
H8 H 0.3356 0.2482 -0.3796
C9 C 0.40882(12) 0.2587(8) -0.3050(3)
H9 H 0.4117 0.0858 -0.3437
H10 H 0.4167 0.3958 -0.3604
C10 C 0.44292(11) 0.2728(7) -0.1765(3)
H11 H 0.4409 0.4482 -0.1393
H12 H 0.4755 0.2499 -0.1849
C11 C 0.43293(9) 0.0642(6) -0.0878(3)
H13 H 0.4469 -0.1038 -0.1055
H14 H 0.4487 0.1144 0.0011
C12 C 0.38696(8) 0.2895(6) 0.2776(2)
H15 H 0.3660 0.4139 0.3064
H16 H 0.3983 0.1567 0.3451
C13 C 0.44443(8) 0.6233(5) 0.3357(2)
C14 C 0.48434(8) 0.7623(6) 0.3022(3)
H17 H 0.4798 0.9523 0.3064
H18 H 0.4851 0.7135 0.2159
H19 H 0.5142 0.7124 0.3625
O1 O 0.38925(5) -0.0452(4) 0.12626(15)
O2 O 0.42661(6) 0.4278(4) 0.25240(15)
O3 O 0.42971(6) 0.6722(5) 0.42694(17)
C15 C 0.2889(3) -0.088(2) 0.3472(8)
C16 C 0.3015(5) -0.273(3) 0.4573(11)
H20 H 0.2848 -0.2219 0.5205
H21 H 0.3357 -0.2675 0.4959
H22 H 0.2922 -0.4517 0.4275
O4 O 0.3226(5) -0.095(3) 0.2847(11)
O5 O 0.2538(4) 0.044(4) 0.3149(10)
C1 C 0.13959(8) 0.6581(6) 0.8449(2)
H1 H 0.1457 0.7909 0.9149
C2 C 0.18661(8) 0.5476(6) 0.8360(2)
H2 H 0.2092 0.6944 0.8361
C3 C 0.20698(8) 0.3662(5) 0.9452(2)
H3 H 0.2389 0.3113 0.9604
C4 C 0.18146(8) 0.2805(6) 1.0211(2)
H4 H 0.1963 0.1735 1.0918
C5 C 0.12992(8) 0.3466(5) 0.9993(2)
H5 H 0.1130 0.1773 1.0022
C6 C 0.11909(9) 0.5231(5) 1.1004(2)
C7 C 0.15241(10) 0.6340(6) 1.1928(2)
H6 H 0.1845 0.6084 1.1928
C8 C 0.14228(12) 0.7975(8) 1.2973(3)
H7 H 0.1475 0.9850 1.2814
H8 H 0.1644 0.7482 1.3796
C9 C 0.09118(12) 0.7587(8) 1.3050(3)
H9 H 0.0883 0.5858 1.3437
H10 H 0.0833 0.8958 1.3604
C10 C 0.05708(11) 0.7728(7) 1.1765(3)
H11 H 0.0591 0.9482 1.1393
H12 H 0.0245 0.7499 1.1849
C11 C 0.06707(9) 0.5642(6) 1.0878(3)
H13 H 0.0531 0.3962 1.1055
H14 H 0.0513 0.6144 0.9989
C12 C 0.11304(8) 0.7895(6) 0.7224(2)
H15 H 0.1340 0.9139 0.6936
H16 H 0.1017 0.6567 0.6549
C13 C 0.05557(8) 1.1233(5) 0.6643(2)
C14 C 0.01566(8) 1.2623(6) 0.6978(3)
H17 H 0.0202 1.4523 0.6936
H18 H 0.0149 1.2135 0.7841
H19 H -0.0142 1.2124 0.6375
O1 O 0.11075(5) 0.4548(4) 0.87374(15)
O2 O 0.07339(6) 0.9278(4) 0.74760(15)
O3 O 0.07029(6) 1.1722(5) 0.57306(17)
C15 C 0.2111(3) 0.412(2) 0.6528(8)
C16 C 0.1985(5) 0.227(3) 0.5427(11)
H20 H 0.2152 0.2781 0.4795
H21 H 0.1643 0.2325 0.5041
H22 H 0.2078 0.0483 0.5725
O4 O 0.1774(5) 0.405(3) 0.7153(11)
O5 O 0.2462(4) 0.544(4) 0.6851(10)
C1 C 0.86041(8) 0.6581(6) 0.1551(2)
H1 H 0.8543 0.7909 0.0851
C2 C 0.81339(8) 0.5476(6) 0.1640(2)
H2 H 0.7908 0.6944 0.1639
C3 C 0.79302(8) 0.3662(5) 0.0548(2)
H3 H 0.7611 0.3113 0.0396
C4 C 0.81854(8) 0.2805(6) -0.0211(2)
H4 H 0.8037 0.1735 -0.0918
C5 C 0.87008(8) 0.3466(5) 0.0007(2)
H5 H 0.8870 0.1773 -0.0022
C6 C 0.88091(9) 0.5231(5) -0.1004(2)
C7 C 0.84759(10) 0.6340(6) -0.1928(2)
H6 H 0.8155 0.6084 -0.1928
C8 C 0.85772(12) 0.7975(8) -0.2973(3)
H7 H 0.8525 0.9850 -0.2814
H8 H 0.8356 0.7482 -0.3796
C9 C 0.90882(12) 0.7587(8) -0.3050(3)
H9 H 0.9117 0.5858 -0.3437
H10 H 0.9167 0.8958 -0.3604
C10 C 0.94292(11) 0.7728(7) -0.1765(3)
H11 H 0.9409 0.9482 -0.1393
H12 H 0.9755 0.7499 -0.1849
C11 C 0.93293(9) 0.5642(6) -0.0878(3)
H13 H 0.9469 0.3962 -0.1055
H14 H 0.9487 0.6144 0.0011
C12 C 0.88696(8) 0.7895(6) 0.2776(2)
H15 H 0.8660 0.9139 0.3064
H16 H 0.8983 0.6567 0.3451
C13 C 0.94443(8) 1.1233(5) 0.3357(2)
C14 C 0.98434(8) 1.2623(6) 0.3022(3)
H17 H 0.9798 1.4523 0.3064
H18 H 0.9851 1.2135 0.2159
H19 H 1.0142 1.2124 0.3625
O1 O 0.88925(5) 0.4548(4) 0.12626(15)
O2 O 0.92661(6) 0.9278(4) 0.25240(15)
O3 O 0.92971(6) 1.1722(5) 0.42694(17)
C15 C 0.7889(3) 0.412(2) 0.3472(8)
C16 C 0.8015(5) 0.227(3) 0.4573(11)
H20 H 0.7848 0.2781 0.5205
H21 H 0.8357 0.2325 0.4959
H22 H 0.7922 0.0483 0.4275
O4 O 0.8226(5) 0.405(3) 0.2847(11)
O5 O 0.7538(4) 0.544(4) 0.3149(10)
C17? C 0.7046(8) 0.953(4) 0.6393(16)
C18? C 0.6937(12) 0.784(5) 0.523(2)
H23? H 0.7059 0.8668 0.4575
H24? H 0.6594 0.7618 0.4919
H25? H 0.7086 0.6118 0.5448
O6? O 0.6822(12) 0.875(6) 0.725(2)
O7? O 0.7305(12) 1.137(4) 0.654(2)
C17? C 0.2954(8) 0.953(4) 0.3607(16)
C18? C 0.3063(12) 0.784(5) 0.477(2)
H23? H 0.2941 0.8668 0.5425
H24? H 0.3406 0.7618 0.5081
H25? H 0.2914 0.6118 0.4552
O6? O 0.3178(12) 0.875(6) 0.275(2)
O7? O 0.2695(12) 1.137(4) 0.346(2)
C17? C 0.2046(8) 0.453(4) 0.6393(16)
C18? C 0.1937(12) 0.284(5) 0.523(2)
H23? H 0.2059 0.3668 0.4575
H24? H 0.1594 0.2618 0.4919
H25? H 0.2086 0.1118 0.5448
O6? O 0.1822(12) 0.375(6) 0.725(2)
O7? O 0.2305(12) 0.637(4) 0.654(2)
C17? C 0.7954(8) 0.453(4) 0.3607(16)
C18? C 0.8063(12) 0.284(5) 0.477(2)
H23? H 0.7941 0.3668 0.5425
H24? H 0.8406 0.2618 0.5081
H25? H 0.7914 0.1118 0.4552
O6? O 0.8178(12) 0.375(6) 0.275(2)
O7? O 0.7695(12) 0.637(4) 0.346(2)

#END
