./ACUSAT_from_xyz.cif_generated_by_CrystalShift
_symmetry_cell_setting triclinic
_symmetry_space_group_name_H-M 'P 1'
loop_
_symmetry_equiv_pos_site_id
_symmetry_equiv_pos_as_xyz
1 x,y,z
_cell_length_a 10.380000
_cell_length_b 10.971000
_cell_length_c 11.236000
_cell_angle_alpha 93.730000
_cell_angle_beta 95.360000
_cell_angle_gamma 105.830000
_cell_volume 1220.148084
loop_
_atom_site_label
_atom_site_type_symbol
_atom_site_fract_x
_atom_site_fract_y
_atom_site_fract_z
Re1 Re 0.303019 0.209607 0.263755
N2 N 0.432200 0.082300 0.257500
N3 N 0.429900 0.255100 0.436400
C4 C 0.150400 0.094700 0.319200
O5 O 0.056000 0.030700 0.349600
C6 C 0.204600 0.334600 0.277900
O7 O 0.142900 0.405800 0.285500
C8 C 0.215100 0.159500 0.103000
O9 O 0.159300 0.123200 0.008000
C10 C 0.518000 0.353000 0.115400
O11 O 0.483400 0.341500 0.220600
O12 O 0.448900 0.297200 0.023900
C13 C 0.658200 0.443500 0.106100
H14 H 0.643800 0.506300 0.051900
C15 C 0.431100 -0.005200 0.168700
H16 H 0.363400 -0.021600 0.104600
C17 C 0.525000 -0.072100 0.167600
H18 H 0.520100 -0.132500 0.104100
C19 C 0.626100 -0.049500 0.260500
H20 H 0.690900 -0.093700 0.260000
C21 C 0.631500 0.040600 0.356400
C22 C 0.731100 0.069800 0.457800
H23 H 0.798600 0.028700 0.461500
C24 C 0.729800 0.155600 0.548200
H25 H 0.796400 0.172800 0.613300
C26 C 0.627800 0.220900 0.546400
C27 C 0.621800 0.312200 0.637000
H28 H 0.685300 0.332200 0.704500
C29 C 0.522700 0.371600 0.626100
H30 H 0.518400 0.432200 0.686200
C31 C 0.428600 0.341700 0.525700
H32 H 0.361600 0.383400 0.519800
C33 C 0.530900 0.103500 0.351300
C34 C 0.529200 0.195600 0.447100
C35 C 0.735600 0.518000 0.219700
C36 C 0.781100 0.650000 0.224000
H37 H 0.756200 0.691400 0.159800
C38 C 0.864600 0.720900 0.324800
H39 H 0.895600 0.809000 0.326800
C40 C 0.900900 0.660100 0.421100
H41 H 0.957500 0.706900 0.487200
C42 C 0.852900 0.530600 0.418400
H43 H 0.874700 0.489600 0.484000
C44 C 0.773100 0.461000 0.319700
H45 H 0.742900 0.373000 0.319200
C46 C 0.743700 0.370500 0.044500
C47 C 0.811600 0.421300 -0.049800
H48 H 0.800100 0.496100 -0.077600
C49 C 0.896000 0.361800 -0.102500
H50 H 0.941800 0.397200 -0.164900
C51 C 0.912400 0.251600 -0.063800
H52 H 0.967900 0.210800 -0.100700
C53 C 0.846600 0.200400 0.030100
H54 H 0.859400 0.125900 0.057700
C55 C 0.761700 0.258900 0.083500
H56 H 0.716500 0.223100 0.146000
Re57 Re 0.696981 0.790393 0.736245
N58 N 0.567800 0.917700 0.742500
N59 N 0.570100 0.744900 0.563600
C60 C 0.849600 0.905300 0.680800
O61 O 0.944000 0.969300 0.650400
C62 C 0.795400 0.665400 0.722100
O63 O 0.857100 0.594200 0.714500
C64 C 0.784900 0.840500 0.897000
O65 O 0.840700 0.876800 0.992000
C66 C 0.482000 0.647000 0.884600
O67 O 0.516600 0.658500 0.779400
O68 O 0.551100 0.702800 0.976100
C69 C 0.341800 0.556500 0.893900
H70 H 0.356200 0.493700 0.948100
C71 C 0.568900 1.005200 0.831300
H72 H 0.636600 1.021600 0.895400
C73 C 0.475000 1.072100 0.832400
H74 H 0.479900 1.132500 0.895900
C75 C 0.373900 1.049500 0.739500
H76 H 0.309100 1.093700 0.740000
C77 C 0.368500 0.959400 0.643600
C78 C 0.268900 0.930200 0.542200
H79 H 0.201400 0.971300 0.538500
C80 C 0.270200 0.844400 0.451800
H81 H 0.203600 0.827200 0.386700
C82 C 0.372200 0.779100 0.453600
C83 C 0.378200 0.687800 0.363000
H84 H 0.314700 0.667800 0.295500
C85 C 0.477300 0.628400 0.373900
H86 H 0.481600 0.567800 0.313800
C87 C 0.571400 0.658300 0.474300
H88 H 0.638400 0.616600 0.480200
C89 C 0.469100 0.896500 0.648700
C90 C 0.470800 0.804400 0.552900
C91 C 0.264400 0.482000 0.780300
C92 C 0.218900 0.350000 0.776000
H93 H 0.243800 0.308600 0.840200
C94 C 0.135400 0.279100 0.675200
H95 H 0.104400 0.191000 0.673200
C96 C 0.099100 0.339900 0.578900
H97 H 0.042500 0.293100 0.512800
C98 C 0.147100 0.469400 0.581600
H99 H 0.125300 0.510400 0.516000
C100 C 0.226900 0.539000 0.680300
H101 H 0.257100 0.627000 0.680800
C102 C 0.256300 0.629500 0.955500
C103 C 0.188400 0.578700 1.049800
H104 H 0.199900 0.503900 1.077600
C105 C 0.104000 0.638200 1.102500
H106 H 0.058200 0.602800 1.164900
C107 C 0.087600 0.748400 1.063800
H108 H 0.032100 0.789200 1.100700
C109 C 0.153400 0.799600 0.969900
H110 H 0.140600 0.874100 0.942300
C111 C 0.238300 0.741100 0.916500
H112 H 0.283500 0.776900 0.854000

#END
