
#######################################################################
#
#                 Cambridge Crystallographic Data Centre
#                                CCDC 
#
#######################################################################
#
# If this CIF has been generated from an entry in the Cambridge 
# Structural Database, then it will include bibliographic, chemical, 
# crystal, experimental, refinement or atomic coordinate data resulting 
# from the CCDC's data processing and validation procedures.
#
#######################################################################

data_ACUSUO
_symmetry_cell_setting           monoclinic
_symmetry_space_group_name_H-M   'P 21'
_symmetry_Int_Tables_number      4
_space_group_name_Hall           'P 2yb'
loop_
_symmetry_equiv_pos_site_id
_symmetry_equiv_pos_as_xyz
1 x,y,z
2 -x,1/2+y,-z
_cell_length_a                   10.5891(2)
_cell_length_b                   10.1907(2)
_cell_length_c                   20.7473(4)
_cell_angle_alpha                90
_cell_angle_beta                 103.0723(8)
_cell_angle_gamma                90
_cell_volume                     2180.83
loop_
_atom_site_label
_atom_site_type_symbol
_atom_site_fract_x
_atom_site_fract_y
_atom_site_fract_z
O1 O 0.2279(2) 0.4972(2) 0.15718(11)
C1 C 0.1947(3) 0.3837(3) 0.15746(15)
O2 O 0.07908(19) 0.3381(2) 0.12491(10)
C2 C -0.0223(3) 0.4268(4) 0.08710(16)
C3 C 0.0252(3) 0.4952(5) 0.03263(17)
C4 C -0.0633(3) 0.5231(4) 0.13441(19)
C5 C -0.1306(3) 0.3317(5) 0.0595(2)
C6 C 0.2761(3) 0.2757(3) 0.19589(14)
C7 C 0.4055(3) 0.2693(3) 0.17372(13)
N1 N 0.3780(2) 0.2726(3) 0.10027(12)
C8 C 0.4869(3) 0.3169(3) 0.07221(14)
C9 C 0.4354(3) 0.3455(3) -0.00075(14)
C10 C 0.3361(3) 0.4377(3) -0.02019(15)
C11 C 0.2862(3) 0.4639(3) -0.08600(16)
C12 C 0.3347(3) 0.3994(3) -0.13452(15)
O3 O 0.2761(2) 0.4308(2) -0.19891(10)
C13 C 0.3126(3) 0.3549(4) -0.24929(16)
C14 C 0.4345(3) 0.3103(3) -0.11664(16)
C15 C 0.4839(3) 0.2851(3) -0.04901(15)
C16 C 0.5548(3) 0.4382(4) 0.10775(17)
C17 C 0.3251(3) 0.1486(4) 0.06962(16)
C18 C 0.4951(3) 0.1573(4) 0.20417(15)
C19 C 0.5507(3) 0.1708(4) 0.27887(16)
C20 C 0.4566(4) 0.1351(4) 0.31990(17)
C21 C 0.3439(3) 0.1959(4) 0.31495(16)
C22 C 0.2986(3) 0.3112(3) 0.27046(14)
O4 O 0.1805(2) 0.3609(3) 0.28252(11)
H1 H -0.0472 0.5425 0.0057
H2 H 0.0936 0.5552 0.0519
H3 H 0.0583 0.4313 0.0060
H4 H -0.1387 0.5721 0.1099
H5 H 0.0056 0.5832 0.1513
H6 H -0.0866 0.4748 0.1703
H7 H -0.2005 0.3791 0.0315
H8 H -0.1612 0.2894 0.0946
H9 H -0.1007 0.2672 0.0317
H10 H 0.2325 0.1912 0.1866
H11 H 0.4505 0.3521 0.1893
H12 H 0.5515 0.2452 0.0766
H13 H 0.3045 0.4799 0.0128
H14 H 0.2190 0.5237 -0.0988
H15 H 0.2623 0.3884 -0.2908
H16 H 0.4051 0.3656 -0.2468
H17 H 0.2921 0.2648 -0.2424
H18 H 0.4687 0.2671 -0.1493
H19 H 0.5519 0.2239 -0.0355
H20 H 0.6095 0.4758 0.0806
H21 H 0.6086 0.4168 0.1521
H22 H 0.4889 0.5026 0.1121
H23 H 0.2867 0.1631 0.0229
H24 H 0.3935 0.0839 0.0736
H25 H 0.2570 0.1168 0.0910
H26 H 0.5664 0.1569 0.1815
H27 H 0.4483 0.0736 0.1948
H28 H 0.5745 0.2611 0.2880
H29 H 0.6260 0.1156 0.2905
H30 H 0.4778 0.0645 0.3492
H31 H 0.2885 0.1674 0.3414
H32 H 0.3642 0.3811 0.2797
H66 H 0.1904 0.4219 0.3103
O1 O 0.7721(2) 0.9972(2) 0.84282(11)
C1 C 0.8053(3) 0.8837(3) 0.84254(15)
O2 O 0.92092(19) 0.8381(2) 0.87509(10)
C2 C 1.0223(3) 0.9268(4) 0.91290(16)
C3 C 0.9748(3) 0.9952(5) 0.96737(17)
C4 C 1.0633(3) 1.0231(4) 0.86559(19)
C5 C 1.1306(3) 0.8317(5) 0.9405(2)
C6 C 0.7239(3) 0.7757(3) 0.80411(14)
C7 C 0.5945(3) 0.7693(3) 0.82628(13)
N1 N 0.6220(2) 0.7726(3) 0.89973(12)
C8 C 0.5131(3) 0.8169(3) 0.92779(14)
C9 C 0.5646(3) 0.8455(3) 1.00075(14)
C10 C 0.6639(3) 0.9377(3) 1.02019(15)
C11 C 0.7138(3) 0.9639(3) 1.08600(16)
C12 C 0.6653(3) 0.8994(3) 1.13452(15)
O3 O 0.7239(2) 0.9308(2) 1.19891(10)
C13 C 0.6874(3) 0.8549(4) 1.24929(16)
C14 C 0.5655(3) 0.8103(3) 1.11664(16)
C15 C 0.5161(3) 0.7851(3) 1.04901(15)
C16 C 0.4452(3) 0.9382(4) 0.89225(17)
C17 C 0.6749(3) 0.6486(4) 0.93038(16)
C18 C 0.5049(3) 0.6573(4) 0.79583(15)
C19 C 0.4493(3) 0.6708(4) 0.72113(16)
C20 C 0.5434(4) 0.6351(4) 0.68010(17)
C21 C 0.6561(3) 0.6959(4) 0.68505(16)
C22 C 0.7014(3) 0.8112(3) 0.72954(14)
O4 O 0.8195(2) 0.8609(3) 0.71748(11)
H1 H 1.0472 1.0425 0.9943
H2 H 0.9064 1.0552 0.9481
H3 H 0.9417 0.9313 0.9940
H4 H 1.1387 1.0721 0.8901
H5 H 0.9944 1.0832 0.8487
H6 H 1.0866 0.9748 0.8297
H7 H 1.2005 0.8791 0.9685
H8 H 1.1612 0.7894 0.9054
H9 H 1.1007 0.7672 0.9683
H10 H 0.7675 0.6912 0.8134
H11 H 0.5495 0.8521 0.8107
H12 H 0.4485 0.7452 0.9234
H13 H 0.6955 0.9799 0.9872
H14 H 0.7810 1.0237 1.0988
H15 H 0.7377 0.8884 1.2908
H16 H 0.5949 0.8656 1.2468
H17 H 0.7079 0.7648 1.2424
H18 H 0.5313 0.7671 1.1493
H19 H 0.4481 0.7239 1.0355
H20 H 0.3905 0.9758 0.9194
H21 H 0.3914 0.9168 0.8479
H22 H 0.5111 1.0026 0.8879
H23 H 0.7133 0.6631 0.9771
H24 H 0.6065 0.5839 0.9264
H25 H 0.7430 0.6168 0.9090
H26 H 0.4336 0.6569 0.8185
H27 H 0.5517 0.5736 0.8052
H28 H 0.4255 0.7611 0.7120
H29 H 0.3740 0.6156 0.7095
H30 H 0.5222 0.5645 0.6508
H31 H 0.7115 0.6674 0.6586
H32 H 0.6358 0.8811 0.7203
H66 H 0.8096 0.9219 0.6897
O5 O 0.40276(19) 0.6726(2) 0.23224(10)
C23 C 0.3085(3) 0.7693(3) 0.24003(15)
C24 C 0.2283(3) 0.8083(4) 0.17318(16)
C25 C 0.1310(3) 0.8935(4) 0.16170(16)
C26 C 0.0740(3) 0.9624(4) 0.21151(16)
C27 C 0.0344(3) 0.8729(3) 0.26267(15)
C28 C 0.1487(3) 0.8193(3) 0.31515(14)
C29 C 0.2303(3) 0.7161(3) 0.28932(14)
C30 C 0.3250(3) 0.6543(3) 0.34781(14)
O6 O 0.42075(19) 0.7378(2) 0.37384(10)
C31 C 0.5380(3) 0.6910(4) 0.42296(15)
C32 C 0.5022(4) 0.6567(4) 0.48780(16)
C33 C 0.5993(4) 0.5768(5) 0.3939(2)
C34 C 0.6243(3) 0.8122(5) 0.43085(19)
O7 O 0.3148(2) 0.5447(2) 0.36748(11)
N2 N 0.1097(2) 0.7646(3) 0.37373(12)
C35 C 0.0101(3) 0.6609(3) 0.35670(15)
C36 C 0.0715(3) 0.8584(3) 0.41963(14)
C37 C 0.0803(3) 0.7940(3) 0.48676(14)
C38 C 0.0107(3) 0.8457(3) 0.53045(15)
C39 C 0.0253(3) 0.7976(3) 0.59454(15)
C40 C 0.1110(3) 0.6955(3) 0.61546(14)
O8 O 0.1312(2) 0.6379(2) 0.67714(10)
C41 C 0.1106(4) 0.7192(4) 0.72975(16)
C42 C 0.1800(3) 0.6419(3) 0.57216(15)
C43 C 0.1651(3) 0.6911(3) 0.50904(15)
C44 C 0.1563(3) 0.9812(3) 0.42968(17)
H33 H 0.3586 0.8470 0.2610
H34 H 0.2540 0.7677 0.1374
H35 H 0.0916 0.9121 0.1167
H36 H 0.1352 1.0249 0.2360
H37 H -0.0010 1.0107 0.1882
H38 H -0.0205 0.9242 0.2854
H39 H -0.0155 0.7994 0.2406
H40 H 0.2054 0.8954 0.3322
H41 H 0.1709 0.6451 0.2666
H42 H 0.5807 0.6365 0.5199
H43 H 0.4602 0.7307 0.5018
H44 H 0.4453 0.5821 0.4810
H45 H 0.6839 0.5583 0.4221
H46 H 0.6082 0.6002 0.3502
H47 H 0.5435 0.5000 0.3911
H48 H 0.7029 0.7929 0.4641
H49 H 0.5791 0.8868 0.4451
H50 H 0.6457 0.8342 0.3892
H51 H 0.0027 0.6176 0.3977
H52 H -0.0750 0.6989 0.3351
H53 H 0.0372 0.5987 0.3271
H54 H -0.0202 0.8854 0.4026
H55 H -0.0484 0.9144 0.5167
H56 H -0.0230 0.8330 0.6234
H57 H 0.1485 0.6744 0.7716
H58 H 0.1549 0.8025 0.7288
H59 H 0.0189 0.7346 0.7255
H60 H 0.2379 0.5692 0.5859
H61 H 0.2154 0.6553 0.4799
H62 H 0.1400 1.0321 0.4666
H63 H 0.2465 0.9537 0.4401
H64 H 0.1408 1.0369 0.3894
H65 H 0.3616 0.6089 0.2084
O5 O 0.59724(19) 0.1726(2) 0.76776(10)
C23 C 0.6915(3) 0.2693(3) 0.75997(15)
C24 C 0.7717(3) 0.3083(4) 0.82682(16)
C25 C 0.8690(3) 0.3935(4) 0.83830(16)
C26 C 0.9260(3) 0.4624(4) 0.78849(16)
C27 C 0.9656(3) 0.3729(3) 0.73733(15)
C28 C 0.8513(3) 0.3193(3) 0.68485(14)
C29 C 0.7697(3) 0.2161(3) 0.71068(14)
C30 C 0.6750(3) 0.1543(3) 0.65219(14)
O6 O 0.57925(19) 0.2378(2) 0.62616(10)
C31 C 0.4620(3) 0.1910(4) 0.57704(15)
C32 C 0.4978(4) 0.1567(4) 0.51220(16)
C33 C 0.4007(4) 0.0768(5) 0.6061(2)
C34 C 0.3757(3) 0.3122(5) 0.56915(19)
O7 O 0.6852(2) 0.0447(2) 0.63252(11)
N2 N 0.8903(2) 0.2646(3) 0.62627(12)
C35 C 0.9899(3) 0.1609(3) 0.64330(15)
C36 C 0.9285(3) 0.3584(3) 0.58037(14)
C37 C 0.9197(3) 0.2940(3) 0.51324(14)
C38 C 0.9893(3) 0.3457(3) 0.46955(15)
C39 C 0.9747(3) 0.2976(3) 0.40546(15)
C40 C 0.8890(3) 0.1955(3) 0.38454(14)
O8 O 0.8688(2) 0.1379(2) 0.32286(10)
C41 C 0.8894(4) 0.2192(4) 0.27025(16)
C42 C 0.8200(3) 0.1419(3) 0.42784(15)
C43 C 0.8349(3) 0.1911(3) 0.49096(15)
C44 C 0.8437(3) 0.4812(3) 0.57032(17)
H33 H 0.6414 0.3470 0.7390
H34 H 0.7460 0.2677 0.8626
H35 H 0.9084 0.4121 0.8833
H36 H 0.8648 0.5249 0.7640
H37 H 1.0010 0.5107 0.8118
H38 H 1.0205 0.4242 0.7146
H39 H 1.0155 0.2994 0.7594
H40 H 0.7946 0.3954 0.6678
H41 H 0.8291 0.1451 0.7334
H42 H 0.4193 0.1365 0.4801
H43 H 0.5398 0.2307 0.4982
H44 H 0.5547 0.0821 0.5190
H45 H 0.3161 0.0583 0.5779
H46 H 0.3918 0.1002 0.6498
H47 H 0.4565 0.0000 0.6089
H48 H 0.2971 0.2929 0.5359
H49 H 0.4209 0.3868 0.5549
H50 H 0.3543 0.3342 0.6108
H51 H 0.9973 0.1176 0.6023
H52 H 1.0750 0.1989 0.6649
H53 H 0.9628 0.0987 0.6729
H54 H 1.0202 0.3854 0.5974
H55 H 1.0484 0.4144 0.4833
H56 H 1.0230 0.3330 0.3766
H57 H 0.8515 0.1744 0.2284
H58 H 0.8451 0.3025 0.2712
H59 H 0.9811 0.2346 0.2745
H60 H 0.7621 0.0692 0.4141
H61 H 0.7846 0.1553 0.5201
H62 H 0.8600 0.5321 0.5334
H63 H 0.7535 0.4537 0.5599
H64 H 0.8592 0.5369 0.6106
H65 H 0.6384 0.1089 0.7916

#END
