./ACUTID_from_xyz.cif_generated_by_CrystalShift
_symmetry_cell_setting triclinic
_symmetry_space_group_name_H-M 'P 1'
loop_
_symmetry_equiv_pos_site_id
_symmetry_equiv_pos_as_xyz
1 x,y,z
_cell_length_a 6.340200
_cell_length_b 8.249600
_cell_length_c 18.862300
_cell_angle_alpha 90.000000
_cell_angle_beta 90.000000
_cell_angle_gamma 90.000000
_cell_volume 986.575888
loop_
_atom_site_label
_atom_site_type_symbol
_atom_site_fract_x
_atom_site_fract_y
_atom_site_fract_z
O1 O 0.801600 0.592700 0.273650
C2 C 0.777000 0.449200 0.314490
C3 C 0.984200 0.393800 0.348940
C4 C 1.069500 0.522800 0.398190
O5 O 1.271200 0.557900 0.383080
C6 C 1.375700 0.675400 0.428150
O7 O 0.973000 0.585700 0.445900
C8 C 0.948700 0.231900 0.389400
N9 N 0.894900 0.108300 0.335390
C10 C 0.905300 -0.055900 0.365950
C11 C 0.674500 0.153900 0.318220
C12 C 0.681000 0.307900 0.273100
C13 C 0.568900 0.185300 0.391170
C14 C 0.753900 0.237700 0.438950
H15 H 0.679400 0.476000 0.354700
H16 H 1.087500 0.373900 0.310200
H17 H 1.497800 0.717700 0.402200
H18 H 1.422600 0.620700 0.470800
H19 H 1.278700 0.761900 0.439700
H20 H 1.077600 0.201600 0.417100
H21 H 0.859200 -0.139000 0.331900
H22 H 1.048800 -0.079700 0.380800
H23 H 0.813900 -0.059500 0.408600
H24 H 0.601800 0.064600 0.291800
H25 H 0.765300 0.286800 0.230500
H26 H 0.531200 0.336600 0.258100
H27 H 0.502300 0.083900 0.410000
H28 H 0.461100 0.273800 0.386800
H29 H 0.771400 0.156900 0.478100
H30 H 0.732000 0.350300 0.456000
H31 H 0.898900 0.581200 0.242300
O32 O 0.301600 -0.092700 0.726350
C33 C 0.277000 0.050800 0.685510
C34 C 0.484200 0.106200 0.651060
C35 C 0.569500 -0.022800 0.601810
O36 O 0.771200 -0.057900 0.616920
C37 C 0.875700 -0.175400 0.571850
O38 O 0.473000 -0.085700 0.554100
C39 C 0.448700 0.268100 0.610600
N40 N 0.394900 0.391700 0.664610
C41 C 0.405300 0.555900 0.634050
C42 C 0.174500 0.346100 0.681780
C43 C 0.181000 0.192100 0.726900
C44 C 0.068900 0.314700 0.608830
C45 C 0.253900 0.262300 0.561050
H46 H 0.179400 0.024000 0.645300
H47 H 0.587500 0.126100 0.689800
H48 H 0.997800 -0.217700 0.597800
H49 H 0.922600 -0.120700 0.529200
H50 H 0.778700 -0.261900 0.560300
H51 H 0.577600 0.298400 0.582900
H52 H 0.359200 0.639000 0.668100
H53 H 0.548800 0.579700 0.619200
H54 H 0.313900 0.559500 0.591400
H55 H 0.101800 0.435400 0.708200
H56 H 0.265300 0.213200 0.769500
H57 H 0.031200 0.163400 0.741900
H58 H 0.002300 0.416100 0.590000
H59 H -0.038900 0.226200 0.613200
H60 H 0.271400 0.343100 0.521900
H61 H 0.232000 0.149700 0.544000
H62 H 0.398900 -0.081200 0.757700
O63 O 0.198400 1.092700 0.226350
C64 C 0.223000 0.949200 0.185510
C65 C 0.015800 0.893800 0.151060
C66 C -0.069500 1.022800 0.101810
O67 O -0.271200 1.057900 0.116920
C68 C -0.375700 1.175400 0.071850
O69 O 0.027000 1.085700 0.054100
C70 C 0.051300 0.731900 0.110600
N71 N 0.105100 0.608300 0.164610
C72 C 0.094700 0.444100 0.134050
C73 C 0.325500 0.653900 0.181780
C74 C 0.319000 0.807900 0.226900
C75 C 0.431100 0.685300 0.108830
C76 C 0.246100 0.737700 0.061050
H77 H 0.320600 0.976000 0.145300
H78 H -0.087500 0.873900 0.189800
H79 H -0.497800 1.217700 0.097800
H80 H -0.422600 1.120700 0.029200
H81 H -0.278700 1.261900 0.060300
H82 H -0.077600 0.701600 0.082900
H83 H 0.140800 0.361000 0.168100
H84 H -0.048800 0.420300 0.119200
H85 H 0.186100 0.440500 0.091400
H86 H 0.398200 0.564600 0.208200
H87 H 0.234700 0.786800 0.269500
H88 H 0.468800 0.836600 0.241900
H89 H 0.497700 0.583900 0.090000
H90 H 0.538900 0.773800 0.113200
H91 H 0.228600 0.656900 0.021900
H92 H 0.268000 0.850300 0.044000
H93 H 0.101100 1.081200 0.257700
O94 O 0.698400 0.407300 0.773650
C95 C 0.723000 0.550800 0.814490
C96 C 0.515800 0.606200 0.848940
C97 C 0.430500 0.477200 0.898190
O98 O 0.228800 0.442100 0.883080
C99 C 0.124300 0.324600 0.928150
O100 O 0.527000 0.414300 0.945900
C101 C 0.551300 0.768100 0.889400
N102 N 0.605100 0.891700 0.835390
C103 C 0.594700 1.055900 0.865950
C104 C 0.825500 0.846100 0.818220
C105 C 0.819000 0.692100 0.773100
C106 C 0.931100 0.814700 0.891170
C107 C 0.746100 0.762300 0.938950
H108 H 0.820600 0.524000 0.854700
H109 H 0.412500 0.626100 0.810200
H110 H 0.002200 0.282300 0.902200
H111 H 0.077400 0.379300 0.970800
H112 H 0.221300 0.238100 0.939700
H113 H 0.422400 0.798400 0.917100
H114 H 0.640800 1.139000 0.831900
H115 H 0.451200 1.079700 0.880800
H116 H 0.686100 1.059500 0.908600
H117 H 0.898200 0.935400 0.791800
H118 H 0.734700 0.713200 0.730500
H119 H 0.968800 0.663400 0.758100
H120 H 0.997700 0.916100 0.910000
H121 H 1.038900 0.726200 0.886800
H122 H 0.728600 0.843100 0.978100
H123 H 0.768000 0.649700 0.956000
H124 H 0.601100 0.418800 0.742300

#END
