
#######################################################################
#
#                 Cambridge Crystallographic Data Centre
#                                CCDC 
#
#######################################################################
#
# If this CIF has been generated from an entry in the Cambridge 
# Structural Database, then it will include bibliographic, chemical, 
# crystal, experimental, refinement or atomic coordinate data resulting 
# from the CCDC's data processing and validation procedures.
#
#######################################################################

data_ACUTID
_symmetry_cell_setting           orthorhombic
_symmetry_space_group_name_H-M   'P 21 21 21'
_symmetry_Int_Tables_number      19
_space_group_name_Hall           'P 2ac 2ab'
loop_
_symmetry_equiv_pos_site_id
_symmetry_equiv_pos_as_xyz
1 x,y,z
2 1/2+x,1/2-y,-z
3 -x,1/2+y,1/2-z
4 1/2-x,-y,1/2+z
_cell_length_a                   6.3402(2)
_cell_length_b                   8.2496(3)
_cell_length_c                   18.8623(6)
_cell_angle_alpha                90
_cell_angle_beta                 90
_cell_angle_gamma                90
_cell_volume                     986.576
loop_
_atom_site_label
_atom_site_type_symbol
_atom_site_fract_x
_atom_site_fract_y
_atom_site_fract_z
O1 O 0.8016(3) 0.5927(2) 0.27365(9)
C1 C 0.7770(4) 0.4492(2) 0.31449(12)
C2 C 0.9842(3) 0.3938(3) 0.34894(11)
C3 C 1.0695(4) 0.5228(3) 0.39819(11)
O2 O 1.2712(3) 0.5579(2) 0.38308(9)
C4 C 1.3757(4) 0.6754(3) 0.42815(14)
O3 O 0.9730(3) 0.5857(2) 0.44590(10)
C5 C 0.9487(4) 0.2319(3) 0.38940(11)
N1 N 0.8949(3) 0.1083(2) 0.33539(10)
C6 C 0.9053(5) -0.0559(3) 0.36595(14)
C7 C 0.6745(4) 0.1539(3) 0.31822(13)
C8 C 0.6810(4) 0.3079(3) 0.27310(13)
C9 C 0.5689(4) 0.1853(3) 0.39117(15)
C10 C 0.7539(4) 0.2377(3) 0.43895(12)
H1 H 0.6794 0.4760 0.3547
H2 H 1.0875 0.3739 0.3102
H3 H 1.4978 0.7177 0.4022
H4 H 1.4226 0.6207 0.4708
H5 H 1.2787 0.7619 0.4397
H6 H 1.0776 0.2016 0.4171
H7 H 0.8592 -0.1390 0.3319
H8 H 1.0488 -0.0797 0.3808
H9 H 0.8139 -0.0595 0.4086
H10 H 0.6018 0.0646 0.2918
H11 H 0.7653 0.2868 0.2305
H12 H 0.5312 0.3366 0.2581
H13 H 0.5023 0.0839 0.4100
H14 H 0.4611 0.2738 0.3868
H15 H 0.7714 0.1569 0.4781
H16 H 0.7320 0.3503 0.4560
H17 H 0.8989 0.5812 0.2423
O1 O 0.3016(3) -0.0927(2) 0.72635(9)
C1 C 0.2770(4) 0.0508(2) 0.68551(12)
C2 C 0.4842(3) 0.1062(3) 0.65106(11)
C3 C 0.5695(4) -0.0228(3) 0.60181(11)
O2 O 0.7712(3) -0.0579(2) 0.61692(9)
C4 C 0.8757(4) -0.1754(3) 0.57185(14)
O3 O 0.4730(3) -0.0857(2) 0.55410(10)
C5 C 0.4487(4) 0.2681(3) 0.61060(11)
N1 N 0.3949(3) 0.3917(2) 0.66461(10)
C6 C 0.4053(5) 0.5559(3) 0.63405(14)
C7 C 0.1745(4) 0.3461(3) 0.68178(13)
C8 C 0.1810(4) 0.1921(3) 0.72690(13)
C9 C 0.0689(4) 0.3147(3) 0.60883(15)
C10 C 0.2539(4) 0.2623(3) 0.56105(12)
H1 H 0.1794 0.0240 0.6453
H2 H 0.5875 0.1261 0.6898
H3 H 0.9978 -0.2177 0.5978
H4 H 0.9226 -0.1207 0.5292
H5 H 0.7787 -0.2619 0.5603
H6 H 0.5776 0.2984 0.5829
H7 H 0.3592 0.6390 0.6681
H8 H 0.5488 0.5797 0.6192
H9 H 0.3139 0.5595 0.5914
H10 H 0.1018 0.4354 0.7082
H11 H 0.2653 0.2132 0.7695
H12 H 0.0312 0.1634 0.7419
H13 H 0.0023 0.4161 0.5900
H14 H -0.0389 0.2262 0.6132
H15 H 0.2714 0.3431 0.5219
H16 H 0.2320 0.1497 0.5440
H17 H 0.3989 -0.0812 0.7577
O1 O 0.1984(3) 1.0927(2) 0.22635(9)
C1 C 0.2230(4) 0.9492(2) 0.18551(12)
C2 C 0.0158(3) 0.8938(3) 0.15106(11)
C3 C -0.0695(4) 1.0228(3) 0.10181(11)
O2 O -0.2712(3) 1.0579(2) 0.11692(9)
C4 C -0.3757(4) 1.1754(3) 0.07185(14)
O3 O 0.0270(3) 1.0857(2) 0.05410(10)
C5 C 0.0513(4) 0.7319(3) 0.11060(11)
N1 N 0.1051(3) 0.6083(2) 0.16461(10)
C6 C 0.0947(5) 0.4441(3) 0.13405(14)
C7 C 0.3255(4) 0.6539(3) 0.18178(13)
C8 C 0.3190(4) 0.8079(3) 0.22690(13)
C9 C 0.4311(4) 0.6853(3) 0.10883(15)
C10 C 0.2461(4) 0.7377(3) 0.06105(12)
H1 H 0.3206 0.9760 0.1453
H2 H -0.0875 0.8739 0.1898
H3 H -0.4978 1.2177 0.0978
H4 H -0.4226 1.1207 0.0292
H5 H -0.2787 1.2619 0.0603
H6 H -0.0776 0.7016 0.0829
H7 H 0.1408 0.3610 0.1681
H8 H -0.0488 0.4203 0.1192
H9 H 0.1861 0.4405 0.0914
H10 H 0.3982 0.5646 0.2082
H11 H 0.2347 0.7868 0.2695
H12 H 0.4688 0.8366 0.2419
H13 H 0.4977 0.5839 0.0900
H14 H 0.5389 0.7738 0.1132
H15 H 0.2286 0.6569 0.0219
H16 H 0.2680 0.8503 0.0440
H17 H 0.1011 1.0812 0.2577
O1 O 0.6984(3) 0.4073(2) 0.77365(9)
C1 C 0.7230(4) 0.5508(2) 0.81449(12)
C2 C 0.5158(3) 0.6062(3) 0.84894(11)
C3 C 0.4305(4) 0.4772(3) 0.89819(11)
O2 O 0.2288(3) 0.4421(2) 0.88308(9)
C4 C 0.1243(4) 0.3246(3) 0.92815(14)
O3 O 0.5270(3) 0.4143(2) 0.94590(10)
C5 C 0.5513(4) 0.7681(3) 0.88940(11)
N1 N 0.6051(3) 0.8917(2) 0.83539(10)
C6 C 0.5947(5) 1.0559(3) 0.86595(14)
C7 C 0.8255(4) 0.8461(3) 0.81822(13)
C8 C 0.8190(4) 0.6921(3) 0.77310(13)
C9 C 0.9311(4) 0.8147(3) 0.89117(15)
C10 C 0.7461(4) 0.7623(3) 0.93895(12)
H1 H 0.8206 0.5240 0.8547
H2 H 0.4125 0.6261 0.8102
H3 H 0.0022 0.2823 0.9022
H4 H 0.0774 0.3793 0.9708
H5 H 0.2213 0.2381 0.9397
H6 H 0.4224 0.7984 0.9171
H7 H 0.6408 1.1390 0.8319
H8 H 0.4512 1.0797 0.8808
H9 H 0.6861 1.0595 0.9086
H10 H 0.8982 0.9354 0.7918
H11 H 0.7347 0.7132 0.7305
H12 H 0.9688 0.6634 0.7581
H13 H 0.9977 0.9161 0.9100
H14 H 1.0389 0.7262 0.8868
H15 H 0.7286 0.8431 0.9781
H16 H 0.7680 0.6497 0.9560
H17 H 0.6011 0.4188 0.7423

#END
