
#######################################################################
#
#                 Cambridge Crystallographic Data Centre
#                                CCDC 
#
#######################################################################
#
# If this CIF has been generated from an entry in the Cambridge 
# Structural Database, then it will include bibliographic, chemical, 
# crystal, experimental, refinement or atomic coordinate data resulting 
# from the CCDC's data processing and validation procedures.
#
#######################################################################

data_ACUTOJ
_symmetry_cell_setting           monoclinic
_symmetry_space_group_name_H-M   'P 21/n'
_symmetry_Int_Tables_number      14
_space_group_name_Hall           '-P 2yn'
loop_
_symmetry_equiv_pos_site_id
_symmetry_equiv_pos_as_xyz
1 x,y,z
2 1/2-x,1/2+y,1/2-z
3 -x,-y,-z
4 1/2+x,1/2-y,1/2+z
_cell_length_a                   9.807(4)
_cell_length_b                   23.295(10)
_cell_length_c                   21.312(9)
_cell_angle_alpha                90
_cell_angle_beta                 90.032(9)
_cell_angle_gamma                90
_cell_volume                     4868.81
loop_
_atom_site_label
_atom_site_type_symbol
_atom_site_fract_x
_atom_site_fract_y
_atom_site_fract_z
O1 O 0.4412(3) 0.08654(12) 0.25594(12)
O2 O 0.4335(3) 0.18215(12) 0.27603(13)
N1 N 0.2797(3) 0.14068(15) 0.20988(15)
C1 C 0.9584(5) -0.0384(2) 0.4137(2)
H1 H 0.8984 -0.0097 0.4328
H2 H 1.0411 -0.0425 0.4392
H3 H 0.9109 -0.0754 0.4117
C2 C 0.9966(4) -0.0196(2) 0.34861(19)
H4 H 1.0645 -0.0467 0.3313
H5 H 1.0398 0.0187 0.3509
C3 C 0.8736(4) -0.01663(19) 0.30383(19)
H6 H 0.9070 -0.0110 0.2604
H7 H 0.8243 -0.0537 0.3052
C4 C 0.7748(4) 0.03139(18) 0.31988(18)
H8 H 0.8238 0.0685 0.3169
H9 H 0.7452 0.0266 0.3640
C5 C 0.6457(4) 0.03431(18) 0.27740(18)
H10 H 0.5945 -0.0025 0.2822
C6 C 0.6834(4) 0.04108(18) 0.20911(18)
C7 C 0.6650(4) -0.00363(19) 0.16656(19)
H11 H 0.6277 -0.0389 0.1811
C8 C 0.6990(4) 0.0016(2) 0.1041(2)
H12 H 0.6846 -0.0296 0.0761
C9 C 0.7544(4) 0.0526(2) 0.0824(2)
H13 H 0.7802 0.0564 0.0396
C10 C 0.7717(4) 0.0978(2) 0.12340(19)
H14 H 0.8072 0.1332 0.1084
C11 C 0.7381(4) 0.09215(19) 0.18562(19)
H15 H 0.7524 0.1236 0.2133
C12 C 0.5550(4) 0.08300(18) 0.30084(18)
H16 H 0.6077 0.1197 0.2994
C13 C 0.4993(4) 0.07500(18) 0.36565(19)
C14 C 0.5524(4) 0.1062(2) 0.4161(2)
H17 H 0.6226 0.1335 0.4090
C15 C 0.5039(4) 0.0978(2) 0.4763(2)
H18 H 0.5409 0.1193 0.5102
C16 C 0.4017(5) 0.0582(2) 0.4874(2)
H19 H 0.3690 0.0523 0.5288
C17 C 0.3476(4) 0.0276(2) 0.4383(2)
H20 H 0.2763 0.0008 0.4458
C18 C 0.3968(4) 0.03555(19) 0.3779(2)
H21 H 0.3597 0.0136 0.3444
C19 C 0.3887(4) 0.1399(2) 0.2498(2)
C20 C 0.2465(4) 0.09163(18) 0.17273(18)
C21 C 0.3336(4) 0.07153(19) 0.12673(18)
H22 H 0.4191 0.0898 0.1206
C22 C 0.2982(4) 0.02527(19) 0.08956(19)
H23 H 0.3604 0.0108 0.0593
C23 C 0.1714(5) 0.0002(2) 0.09676(19)
H24 H 0.1447 -0.0302 0.0698
C24 C 0.0838(4) 0.01901(19) 0.14261(19)
H25 H -0.0022 0.0009 0.1479
C25 C 0.1206(4) 0.06435(18) 0.18118(19)
H26 H 0.0605 0.0769 0.2133
C26 C 0.2197(4) 0.19750(19) 0.1940(2)
H27 H 0.2492 0.2246 0.2278
C27 C 0.0660(4) 0.1972(2) 0.1947(2)
H28 H 0.0321 0.1724 0.1610
H29 H 0.0321 0.2364 0.1883
H30 H 0.0338 0.1828 0.2353
C28 C 0.2762(5) 0.2206(2) 0.1338(2)
H31 H 0.3760 0.2198 0.1354
H32 H 0.2452 0.2603 0.1280
H33 H 0.2442 0.1970 0.0987
O1 O 1.0588(3) 0.58654(12) 0.24406(12)
O2 O 1.0665(3) 0.68215(12) 0.22397(13)
N1 N 1.2203(3) 0.64068(15) 0.29012(15)
C1 C 0.5416(5) 0.4616(2) 0.0863(2)
H1 H 0.6016 0.4903 0.0672
H2 H 0.4589 0.4575 0.0608
H3 H 0.5891 0.4246 0.0883
C2 C 0.5034(4) 0.4804(2) 0.15139(19)
H4 H 0.4355 0.4533 0.1687
H5 H 0.4602 0.5187 0.1491
C3 C 0.6264(4) 0.48337(19) 0.19617(19)
H6 H 0.5930 0.4890 0.2396
H7 H 0.6757 0.4463 0.1948
C4 C 0.7252(4) 0.53139(18) 0.18012(18)
H8 H 0.6762 0.5685 0.1831
H9 H 0.7548 0.5266 0.1360
C5 C 0.8543(4) 0.53431(18) 0.22260(18)
H10 H 0.9055 0.4975 0.2178
C6 C 0.8166(4) 0.54108(18) 0.29089(18)
C7 C 0.8350(4) 0.49637(19) 0.33344(19)
H11 H 0.8723 0.4611 0.3189
C8 C 0.8010(4) 0.5016(2) 0.3959(2)
H12 H 0.8154 0.4704 0.4239
C9 C 0.7456(4) 0.5526(2) 0.4176(2)
H13 H 0.7198 0.5564 0.4604
C10 C 0.7283(4) 0.5978(2) 0.37660(19)
H14 H 0.6928 0.6332 0.3916
C11 C 0.7619(4) 0.59215(19) 0.31438(19)
H15 H 0.7476 0.6236 0.2867
C12 C 0.9450(4) 0.58300(18) 0.19916(18)
H16 H 0.8923 0.6197 0.2006
C13 C 1.0007(4) 0.57500(18) 0.13435(19)
C14 C 0.9476(4) 0.6062(2) 0.0839(2)
H17 H 0.8774 0.6335 0.0910
C15 C 0.9961(4) 0.5978(2) 0.0237(2)
H18 H 0.9591 0.6193 -0.0102
C16 C 1.0983(5) 0.5582(2) 0.0126(2)
H19 H 1.1310 0.5523 -0.0288
C17 C 1.1524(4) 0.5276(2) 0.0617(2)
H20 H 1.2237 0.5008 0.0542
C18 C 1.1032(4) 0.53555(19) 0.1221(2)
H21 H 1.1403 0.5136 0.1556
C19 C 1.1113(4) 0.6399(2) 0.2502(2)
C20 C 1.2535(4) 0.59163(18) 0.32727(18)
C21 C 1.1664(4) 0.57153(19) 0.37327(18)
H22 H 1.0809 0.5898 0.3794
C22 C 1.2018(4) 0.52527(19) 0.41044(19)
H23 H 1.1396 0.5108 0.4407
C23 C 1.3286(5) 0.5002(2) 0.40324(19)
H24 H 1.3553 0.4698 0.4302
C24 C 1.4162(4) 0.51901(19) 0.35739(19)
H25 H 1.5022 0.5009 0.3521
C25 C 1.3794(4) 0.56435(18) 0.31882(19)
H26 H 1.4395 0.5769 0.2867
C26 C 1.2803(4) 0.69750(19) 0.3060(2)
H27 H 1.2508 0.7246 0.2722
C27 C 1.4340(4) 0.6972(2) 0.3053(2)
H28 H 1.4679 0.6724 0.3390
H29 H 1.4679 0.7364 0.3117
H30 H 1.4662 0.6828 0.2647
C28 C 1.2238(5) 0.7206(2) 0.3662(2)
H31 H 1.1240 0.7198 0.3646
H32 H 1.2548 0.7603 0.3720
H33 H 1.2558 0.6970 0.4013
O1 O 0.5588(3) 0.91346(12) 0.74406(12)
O2 O 0.5665(3) 0.81785(12) 0.72397(13)
N1 N 0.7203(3) 0.85932(15) 0.79012(15)
C1 C 0.0416(5) 1.0384(2) 0.5863(2)
H1 H 0.1016 1.0097 0.5672
H2 H -0.0411 1.0425 0.5608
H3 H 0.0891 1.0754 0.5883
C2 C 0.0034(4) 1.0196(2) 0.65139(19)
H4 H -0.0645 1.0467 0.6687
H5 H -0.0398 0.9813 0.6491
C3 C 0.1264(4) 1.01663(19) 0.69617(19)
H6 H 0.0930 1.0110 0.7396
H7 H 0.1757 1.0537 0.6948
C4 C 0.2252(4) 0.96861(18) 0.68012(18)
H8 H 0.1762 0.9315 0.6831
H9 H 0.2548 0.9734 0.6360
C5 C 0.3543(4) 0.96569(18) 0.72260(18)
H10 H 0.4055 1.0025 0.7178
C6 C 0.3166(4) 0.95892(18) 0.79089(18)
C7 C 0.3350(4) 1.00363(19) 0.83344(19)
H11 H 0.3723 1.0389 0.8189
C8 C 0.3010(4) 0.9984(2) 0.8959(2)
H12 H 0.3154 1.0296 0.9239
C9 C 0.2456(4) 0.9474(2) 0.9176(2)
H13 H 0.2198 0.9436 0.9604
C10 C 0.2283(4) 0.9022(2) 0.87660(19)
H14 H 0.1928 0.8668 0.8916
C11 C 0.2619(4) 0.90785(19) 0.81438(19)
H15 H 0.2476 0.8764 0.7867
C12 C 0.4450(4) 0.91700(18) 0.69916(18)
H16 H 0.3923 0.8803 0.7006
C13 C 0.5007(4) 0.92500(18) 0.63435(19)
C14 C 0.4476(4) 0.8938(2) 0.5839(2)
H17 H 0.3774 0.8665 0.5910
C15 C 0.4961(4) 0.9022(2) 0.5237(2)
H18 H 0.4591 0.8807 0.4898
C16 C 0.5983(5) 0.9418(2) 0.5126(2)
H19 H 0.6310 0.9477 0.4712
C17 C 0.6524(4) 0.9724(2) 0.5617(2)
H20 H 0.7237 0.9992 0.5542
C18 C 0.6032(4) 0.96445(19) 0.6221(2)
H21 H 0.6403 0.9864 0.6556
C19 C 0.6113(4) 0.8601(2) 0.7502(2)
C20 C 0.7535(4) 0.90837(18) 0.82727(18)
C21 C 0.6664(4) 0.92847(19) 0.87327(18)
H22 H 0.5809 0.9102 0.8794
C22 C 0.7018(4) 0.97473(19) 0.91044(19)
H23 H 0.6396 0.9892 0.9407
C23 C 0.8286(5) 0.9998(2) 0.90324(19)
H24 H 0.8553 1.0302 0.9302
C24 C 0.9162(4) 0.98099(19) 0.85739(19)
H25 H 1.0022 0.9991 0.8521
C25 C 0.8794(4) 0.93565(18) 0.81882(19)
H26 H 0.9395 0.9231 0.7867
C26 C 0.7803(4) 0.80250(19) 0.8060(2)
H27 H 0.7508 0.7754 0.7722
C27 C 0.9340(4) 0.8028(2) 0.8053(2)
H28 H 0.9679 0.8276 0.8390
H29 H 0.9679 0.7636 0.8117
H30 H 0.9662 0.8172 0.7647
C28 C 0.7238(5) 0.7794(2) 0.8662(2)
H31 H 0.6240 0.7802 0.8646
H32 H 0.7548 0.7397 0.8720
H33 H 0.7558 0.8030 0.9013
O1 O -0.0588(3) 0.41346(12) 0.75594(12)
O2 O -0.0665(3) 0.31785(12) 0.77603(13)
N1 N -0.2203(3) 0.35932(15) 0.70988(15)
C1 C 0.4584(5) 0.5384(2) 0.9137(2)
H1 H 0.3984 0.5097 0.9328
H2 H 0.5411 0.5425 0.9392
H3 H 0.4109 0.5754 0.9117
C2 C 0.4966(4) 0.5196(2) 0.84861(19)
H4 H 0.5645 0.5467 0.8313
H5 H 0.5398 0.4813 0.8509
C3 C 0.3736(4) 0.51663(19) 0.80383(19)
H6 H 0.4070 0.5110 0.7604
H7 H 0.3243 0.5537 0.8052
C4 C 0.2748(4) 0.46861(18) 0.81988(18)
H8 H 0.3238 0.4315 0.8169
H9 H 0.2452 0.4734 0.8640
C5 C 0.1457(4) 0.46569(18) 0.77740(18)
H10 H 0.0945 0.5025 0.7822
C6 C 0.1834(4) 0.45892(18) 0.70911(18)
C7 C 0.1650(4) 0.50363(19) 0.66656(19)
H11 H 0.1277 0.5389 0.6811
C8 C 0.1990(4) 0.4984(2) 0.6041(2)
H12 H 0.1846 0.5296 0.5761
C9 C 0.2544(4) 0.4474(2) 0.5824(2)
H13 H 0.2802 0.4436 0.5396
C10 C 0.2717(4) 0.4022(2) 0.62340(19)
H14 H 0.3072 0.3668 0.6084
C11 C 0.2381(4) 0.40785(19) 0.68562(19)
H15 H 0.2524 0.3764 0.7133
C12 C 0.0550(4) 0.41700(18) 0.80084(18)
H16 H 0.1077 0.3803 0.7994
C13 C -0.0007(4) 0.42500(18) 0.86565(19)
C14 C 0.0524(4) 0.3938(2) 0.9161(2)
H17 H 0.1226 0.3665 0.9090
C15 C 0.0039(4) 0.4022(2) 0.9763(2)
H18 H 0.0409 0.3807 1.0102
C16 C -0.0983(5) 0.4418(2) 0.9874(2)
H19 H -0.1310 0.4477 1.0288
C17 C -0.1524(4) 0.4724(2) 0.9383(2)
H20 H -0.2237 0.4992 0.9458
C18 C -0.1032(4) 0.46445(19) 0.8779(2)
H21 H -0.1403 0.4864 0.8444
C19 C -0.1113(4) 0.3601(2) 0.7498(2)
C20 C -0.2535(4) 0.40837(18) 0.67273(18)
C21 C -0.1664(4) 0.42847(19) 0.62673(18)
H22 H -0.0809 0.4102 0.6206
C22 C -0.2018(4) 0.47473(19) 0.58956(19)
H23 H -0.1396 0.4892 0.5593
C23 C -0.3286(5) 0.4998(2) 0.59676(19)
H24 H -0.3553 0.5302 0.5698
C24 C -0.4162(4) 0.48099(19) 0.64261(19)
H25 H -0.5022 0.4991 0.6479
C25 C -0.3794(4) 0.43565(18) 0.68118(19)
H26 H -0.4395 0.4231 0.7133
C26 C -0.2803(4) 0.30250(19) 0.6940(2)
H27 H -0.2508 0.2754 0.7278
C27 C -0.4340(4) 0.3028(2) 0.6947(2)
H28 H -0.4679 0.3276 0.6610
H29 H -0.4679 0.2636 0.6883
H30 H -0.4662 0.3172 0.7353
C28 C -0.2238(5) 0.2794(2) 0.6338(2)
H31 H -0.1240 0.2802 0.6354
H32 H -0.2548 0.2397 0.6280
H33 H -0.2558 0.3030 0.5987
O3 O 0.8076(3) 0.27702(12) 0.32060(11)
O4 O 0.8130(3) 0.18008(12) 0.30954(13)
N2 N 0.9650(3) 0.22654(16) 0.37353(15)
C29 C 0.1389(4) 0.42255(18) 0.26090(19)
H34 H 0.1064 0.4150 0.3036
H35 H 0.0612 0.4230 0.2320
H36 H 0.1851 0.4598 0.2597
C30 C 0.2377(4) 0.37590(18) 0.24149(19)
H37 H 0.2627 0.3814 0.1969
H38 H 0.1923 0.3381 0.2453
C31 C 0.3680(4) 0.37590(18) 0.28164(18)
H39 H 0.4136 0.4136 0.2776
H40 H 0.3429 0.3706 0.3262
C32 C 0.4661(4) 0.32953(18) 0.26287(19)
H41 H 0.4915 0.3352 0.2184
H42 H 0.4194 0.2920 0.2661
C33 C 0.5979(4) 0.32757(18) 0.30290(17)
H43 H 0.6476 0.3646 0.2967
C34 C 0.5656(4) 0.32176(19) 0.37189(19)
C35 C 0.5808(4) 0.36771(19) 0.41331(19)
H44 H 0.6141 0.4033 0.3979
C36 C 0.5486(4) 0.3628(2) 0.4759(2)
H45 H 0.5583 0.3949 0.5029
C37 C 0.5018(4) 0.3107(2) 0.4996(2)
H46 H 0.4811 0.3069 0.5429
C38 C 0.4860(4) 0.2649(2) 0.45944(18)
H47 H 0.4536 0.2293 0.4751
C39 C 0.5166(4) 0.2703(2) 0.39713(19)
H48 H 0.5044 0.2382 0.3702
C40 C 0.6889(4) 0.27911(19) 0.27875(17)
H49 H 0.6384 0.2419 0.2813
C41 C 0.7363(4) 0.28854(17) 0.21258(18)
C42 C 0.8255(4) 0.33255(19) 0.19781(19)
H50 H 0.8635 0.3552 0.2305
C43 C 0.8596(5) 0.3439(2) 0.1369(2)
H51 H 0.9227 0.3736 0.1277
C44 C 0.8034(5) 0.3126(2) 0.0889(2)
H52 H 0.8250 0.3217 0.0466
C45 C 0.7156(5) 0.2679(2) 0.1021(2)
H53 H 0.6776 0.2457 0.0690
C46 C 0.6831(4) 0.25558(19) 0.16423(18)
H54 H 0.6241 0.2244 0.1736
C47 C 0.8570(4) 0.22398(19) 0.33255(18)
C48 C 0.9899(4) 0.27763(19) 0.40879(18)
C49 C 0.8949(4) 0.29741(19) 0.45132(18)
H55 H 0.8128 0.2765 0.4575
C50 C 0.9170(4) 0.3468(2) 0.48475(19)
H56 H 0.8491 0.3605 0.5127
C51 C 1.0384(5) 0.3768(2) 0.4779(2)
H57 H 1.0548 0.4106 0.5016
C52 C 1.1351(5) 0.3566(2) 0.4360(2)
H58 H 1.2186 0.3768 0.4313
C53 C 1.1123(4) 0.30754(19) 0.40100(19)
H59 H 1.1789 0.2943 0.3720
C54 C 1.0260(5) 0.1710(2) 0.3935(2)
H60 H 1.0033 0.1417 0.3609
C55 C 1.1800(4) 0.1747(2) 0.3981(2)
H61 H 1.2173 0.1874 0.3578
H62 H 1.2170 0.1368 0.4086
H63 H 1.2051 0.2022 0.4309
C56 C 0.9638(5) 0.1514(2) 0.4549(2)
H64 H 0.9798 0.1806 0.4872
H65 H 1.0059 0.1151 0.4678
H66 H 0.8655 0.1458 0.4494
O3 O 0.6924(3) 0.77702(12) 0.17940(11)
O4 O 0.6870(3) 0.68008(12) 0.19046(13)
N2 N 0.5350(3) 0.72654(16) 0.12647(15)
C29 C 1.3611(4) 0.92255(18) 0.23910(19)
H34 H 1.3936 0.9150 0.1964
H35 H 1.4388 0.9230 0.2680
H36 H 1.3149 0.9598 0.2403
C30 C 1.2623(4) 0.87590(18) 0.25851(19)
H37 H 1.2373 0.8814 0.3031
H38 H 1.3077 0.8381 0.2547
C31 C 1.1320(4) 0.87590(18) 0.21836(18)
H39 H 1.0864 0.9136 0.2224
H40 H 1.1571 0.8706 0.1738
C32 C 1.0339(4) 0.82953(18) 0.23713(19)
H41 H 1.0085 0.8352 0.2816
H42 H 1.0806 0.7920 0.2339
C33 C 0.9021(4) 0.82757(18) 0.19710(17)
H43 H 0.8524 0.8646 0.2033
C34 C 0.9344(4) 0.82176(19) 0.12811(19)
C35 C 0.9192(4) 0.86771(19) 0.08669(19)
H44 H 0.8859 0.9033 0.1021
C36 C 0.9514(4) 0.8628(2) 0.0241(2)
H45 H 0.9417 0.8949 -0.0029
C37 C 0.9982(4) 0.8107(2) 0.0004(2)
H46 H 1.0189 0.8069 -0.0429
C38 C 1.0140(4) 0.7649(2) 0.04056(18)
H47 H 1.0464 0.7293 0.0249
C39 C 0.9834(4) 0.7703(2) 0.10287(19)
H48 H 0.9956 0.7382 0.1298
C40 C 0.8111(4) 0.77911(19) 0.22125(17)
H49 H 0.8616 0.7419 0.2187
C41 C 0.7637(4) 0.78854(17) 0.28742(18)
C42 C 0.6745(4) 0.83255(19) 0.30219(19)
H50 H 0.6365 0.8552 0.2695
C43 C 0.6404(5) 0.8439(2) 0.3631(2)
H51 H 0.5773 0.8736 0.3723
C44 C 0.6966(5) 0.8126(2) 0.4111(2)
H52 H 0.6750 0.8217 0.4534
C45 C 0.7844(5) 0.7679(2) 0.3979(2)
H53 H 0.8224 0.7457 0.4310
C46 C 0.8169(4) 0.75558(19) 0.33577(18)
H54 H 0.8759 0.7244 0.3264
C47 C 0.6430(4) 0.72398(19) 0.16745(18)
C48 C 0.5101(4) 0.77763(19) 0.09121(18)
C49 C 0.6051(4) 0.79741(19) 0.04868(18)
H55 H 0.6872 0.7765 0.0425
C50 C 0.5830(4) 0.8468(2) 0.01525(19)
H56 H 0.6509 0.8605 -0.0127
C51 C 0.4616(5) 0.8768(2) 0.0221(2)
H57 H 0.4452 0.9106 -0.0016
C52 C 0.3649(5) 0.8566(2) 0.0640(2)
H58 H 0.2814 0.8768 0.0687
C53 C 0.3877(4) 0.80754(19) 0.09900(19)
H59 H 0.3211 0.7943 0.1280
C54 C 0.4740(5) 0.6710(2) 0.1065(2)
H60 H 0.4967 0.6417 0.1391
C55 C 0.3200(4) 0.6747(2) 0.1019(2)
H61 H 0.2827 0.6874 0.1422
H62 H 0.2830 0.6368 0.0914
H63 H 0.2949 0.7022 0.0691
C56 C 0.5362(5) 0.6514(2) 0.0451(2)
H64 H 0.5202 0.6806 0.0128
H65 H 0.4941 0.6151 0.0322
H66 H 0.6345 0.6458 0.0506
O3 O 0.1924(3) 0.72298(12) 0.67940(11)
O4 O 0.1870(3) 0.81992(12) 0.69046(13)
N2 N 0.0350(3) 0.77346(16) 0.62647(15)
C29 C 0.8611(4) 0.57745(18) 0.73910(19)
H34 H 0.8936 0.5850 0.6964
H35 H 0.9388 0.5770 0.7680
H36 H 0.8149 0.5402 0.7403
C30 C 0.7623(4) 0.62410(18) 0.75851(19)
H37 H 0.7373 0.6186 0.8031
H38 H 0.8077 0.6619 0.7547
C31 C 0.6320(4) 0.62410(18) 0.71836(18)
H39 H 0.5864 0.5864 0.7224
H40 H 0.6571 0.6294 0.6738
C32 C 0.5339(4) 0.67047(18) 0.73713(19)
H41 H 0.5085 0.6648 0.7816
H42 H 0.5806 0.7080 0.7339
C33 C 0.4021(4) 0.67243(18) 0.69710(17)
H43 H 0.3524 0.6354 0.7033
C34 C 0.4344(4) 0.67824(19) 0.62811(19)
C35 C 0.4192(4) 0.63229(19) 0.58669(19)
H44 H 0.3859 0.5967 0.6021
C36 C 0.4514(4) 0.6372(2) 0.5241(2)
H45 H 0.4417 0.6051 0.4971
C37 C 0.4982(4) 0.6893(2) 0.5004(2)
H46 H 0.5189 0.6931 0.4571
C38 C 0.5140(4) 0.7351(2) 0.54056(18)
H47 H 0.5464 0.7707 0.5249
C39 C 0.4834(4) 0.7297(2) 0.60287(19)
H48 H 0.4956 0.7618 0.6298
C40 C 0.3111(4) 0.72089(19) 0.72125(17)
H49 H 0.3616 0.7581 0.7187
C41 C 0.2637(4) 0.71146(17) 0.78742(18)
C42 C 0.1745(4) 0.66745(19) 0.80219(19)
H50 H 0.1365 0.6448 0.7695
C43 C 0.1404(5) 0.6561(2) 0.8631(2)
H51 H 0.0773 0.6264 0.8723
C44 C 0.1966(5) 0.6874(2) 0.9111(2)
H52 H 0.1750 0.6783 0.9534
C45 C 0.2844(5) 0.7321(2) 0.8979(2)
H53 H 0.3224 0.7543 0.9310
C46 C 0.3169(4) 0.74442(19) 0.83577(18)
H54 H 0.3759 0.7756 0.8264
C47 C 0.1430(4) 0.77602(19) 0.66745(18)
C48 C 0.0101(4) 0.72237(19) 0.59121(18)
C49 C 0.1051(4) 0.70259(19) 0.54868(18)
H55 H 0.1872 0.7235 0.5425
C50 C 0.0830(4) 0.6532(2) 0.51525(19)
H56 H 0.1509 0.6395 0.4873
C51 C -0.0384(5) 0.6232(2) 0.5221(2)
H57 H -0.0548 0.5894 0.4984
C52 C -0.1351(5) 0.6434(2) 0.5640(2)
H58 H -0.2186 0.6232 0.5687
C53 C -0.1123(4) 0.69246(19) 0.59900(19)
H59 H -0.1789 0.7057 0.6280
C54 C -0.0260(5) 0.8290(2) 0.6065(2)
H60 H -0.0033 0.8583 0.6391
C55 C -0.1800(4) 0.8253(2) 0.6019(2)
H61 H -0.2173 0.8126 0.6422
H62 H -0.2170 0.8632 0.5914
H63 H -0.2051 0.7978 0.5691
C56 C 0.0362(5) 0.8486(2) 0.5451(2)
H64 H 0.0202 0.8194 0.5128
H65 H -0.0059 0.8849 0.5322
H66 H 0.1345 0.8542 0.5506
O3 O 0.3076(3) 0.22298(12) 0.82060(11)
O4 O 0.3130(3) 0.31992(12) 0.80954(13)
N2 N 0.4650(3) 0.27346(16) 0.87353(15)
C29 C -0.3611(4) 0.07745(18) 0.76090(19)
H34 H -0.3936 0.0850 0.8036
H35 H -0.4388 0.0770 0.7320
H36 H -0.3149 0.0402 0.7597
C30 C -0.2623(4) 0.12410(18) 0.74149(19)
H37 H -0.2373 0.1186 0.6969
H38 H -0.3077 0.1619 0.7453
C31 C -0.1320(4) 0.12410(18) 0.78164(18)
H39 H -0.0864 0.0864 0.7776
H40 H -0.1571 0.1294 0.8262
C32 C -0.0339(4) 0.17047(18) 0.76287(19)
H41 H -0.0085 0.1648 0.7184
H42 H -0.0806 0.2080 0.7661
C33 C 0.0979(4) 0.17243(18) 0.80290(17)
H43 H 0.1476 0.1354 0.7967
C34 C 0.0656(4) 0.17824(19) 0.87189(19)
C35 C 0.0808(4) 0.13229(19) 0.91331(19)
H44 H 0.1141 0.0967 0.8979
C36 C 0.0486(4) 0.1372(2) 0.9759(2)
H45 H 0.0583 0.1051 1.0029
C37 C 0.0018(4) 0.1893(2) 0.9996(2)
H46 H -0.0189 0.1931 1.0429
C38 C -0.0140(4) 0.2351(2) 0.95944(18)
H47 H -0.0464 0.2707 0.9751
C39 C 0.0166(4) 0.2297(2) 0.89713(19)
H48 H 0.0044 0.2618 0.8702
C40 C 0.1889(4) 0.22089(19) 0.77875(17)
H49 H 0.1384 0.2581 0.7813
C41 C 0.2363(4) 0.21146(17) 0.71258(18)
C42 C 0.3255(4) 0.16745(19) 0.69781(19)
H50 H 0.3635 0.1448 0.7305
C43 C 0.3596(5) 0.1561(2) 0.6369(2)
H51 H 0.4227 0.1264 0.6277
C44 C 0.3034(5) 0.1874(2) 0.5889(2)
H52 H 0.3250 0.1783 0.5466
C45 C 0.2156(5) 0.2321(2) 0.6021(2)
H53 H 0.1776 0.2543 0.5690
C46 C 0.1831(4) 0.24442(19) 0.66423(18)
H54 H 0.1241 0.2756 0.6736
C47 C 0.3570(4) 0.27602(19) 0.83255(18)
C48 C 0.4899(4) 0.22237(19) 0.90879(18)
C49 C 0.3949(4) 0.20259(19) 0.95132(18)
H55 H 0.3128 0.2235 0.9575
C50 C 0.4170(4) 0.1532(2) 0.98475(19)
H56 H 0.3491 0.1395 1.0127
C51 C 0.5384(5) 0.1232(2) 0.9779(2)
H57 H 0.5548 0.0894 1.0016
C52 C 0.6351(5) 0.1434(2) 0.9360(2)
H58 H 0.7186 0.1232 0.9313
C53 C 0.6123(4) 0.19246(19) 0.90100(19)
H59 H 0.6789 0.2057 0.8720
C54 C 0.5260(5) 0.3290(2) 0.8935(2)
H60 H 0.5033 0.3583 0.8609
C55 C 0.6800(4) 0.3253(2) 0.8981(2)
H61 H 0.7173 0.3126 0.8578
H62 H 0.7170 0.3632 0.9086
H63 H 0.7051 0.2978 0.9309
C56 C 0.4638(5) 0.3486(2) 0.9549(2)
H64 H 0.4798 0.3194 0.9872
H65 H 0.5059 0.3849 0.9678
H66 H 0.3655 0.3542 0.9494

#END
