./ACUZED_from_xyz.cif_generated_by_CrystalShift
_symmetry_cell_setting triclinic
_symmetry_space_group_name_H-M 'P 1'
loop_
_symmetry_equiv_pos_site_id
_symmetry_equiv_pos_as_xyz
1 x,y,z
_cell_length_a 15.101000
_cell_length_b 13.303000
_cell_length_c 15.842000
_cell_angle_alpha 90.000000
_cell_angle_beta 97.290000
_cell_angle_gamma 90.000000
_cell_volume 3156.752057
loop_
_atom_site_label
_atom_site_type_symbol
_atom_site_fract_x
_atom_site_fract_y
_atom_site_fract_z
Sb1 Sb 0.281423 1.023100 0.139643
Sb2 Sb 0.432121 0.845630 0.080359
Sb3 Sb 0.247438 0.766970 0.181256
N4 N 0.307700 0.874800 0.114900
C5 C 0.298900 1.079400 0.015600
C6 C 0.309200 1.182900 0.004500
H7 H 0.318600 1.225800 0.052800
C8 C 0.305800 1.223400 -0.076900
H9 H 0.313000 1.293700 -0.083900
C10 C 0.292100 1.161600 -0.147600
H11 H 0.289100 1.189500 -0.203100
C12 C 0.282700 1.060100 -0.137200
H13 H 0.273800 1.017600 -0.185700
C14 C 0.286100 1.019100 -0.056400
H15 H 0.279500 0.948500 -0.050200
C16 C 0.412300 1.062300 0.202300
C17 C 0.429100 1.045600 0.290400
H18 H 0.382100 1.023000 0.320300
C19 C 0.512700 1.061700 0.334000
H20 H 0.523600 1.047900 0.393200
C21 C 0.580800 1.097500 0.291900
H22 H 0.638300 1.108800 0.322300
C23 C 0.565500 1.117100 0.205900
H24 H 0.612200 1.143200 0.177400
C25 C 0.482600 1.098900 0.161000
H26 H 0.473000 1.111200 0.101400
C27 C 0.484200 0.751300 0.186100
C28 C 0.534100 0.796300 0.255500
H29 H 0.543000 0.867000 0.255700
C30 C 0.571400 0.739500 0.325000
H31 H 0.604300 0.771500 0.372600
C32 C 0.560400 0.637300 0.324300
H33 H 0.587600 0.598000 0.370600
C34 C 0.509800 0.591100 0.256600
H35 H 0.501400 0.520400 0.256800
C36 C 0.471500 0.647700 0.188300
H37 H 0.436100 0.615500 0.142300
C38 C 0.394000 0.721700 -0.005200
C39 C 0.307100 0.703700 -0.042000
H40 H 0.259600 0.744200 -0.027000
C41 C 0.289400 0.626300 -0.101000
H42 H 0.229700 0.614300 -0.125700
C43 C 0.356600 0.567400 -0.123800
H44 H 0.343900 0.514600 -0.163900
C45 C 0.443100 0.585400 -0.088000
H46 H 0.490200 0.544700 -0.103400
C47 C 0.462100 0.662500 -0.029400
H48 H 0.522200 0.674900 -0.005900
C49 C 0.265200 0.834600 0.306200
C50 C 0.338500 0.801800 0.363000
H51 H 0.374800 0.748700 0.346800
C52 C 0.358600 0.845700 0.442300
H53 H 0.408200 0.822500 0.480200
C54 C 0.306800 0.922900 0.466000
H55 H 0.321600 0.953700 0.520000
C56 C 0.233300 0.956500 0.412500
H57 H 0.196900 1.008700 0.430000
C58 C 0.213700 0.912400 0.332400
H59 H 0.163900 0.936000 0.295000
C60 C 0.113800 0.820800 0.144000
C61 C 0.047900 0.811100 0.198500
H62 H 0.063700 0.787900 0.255100
C63 C -0.040400 0.835500 0.170000
H64 H -0.084500 0.829100 0.207400
C65 C -0.064300 0.868800 0.088100
H66 H -0.124400 0.887000 0.069400
C67 C -0.000800 0.875500 0.033400
H68 H -0.017500 0.895800 -0.023900
C69 C 0.088100 0.852500 0.062100
H70 H 0.131800 0.858900 0.024200
Sb71 Sb 0.781423 0.476900 0.639643
Sb72 Sb 0.932121 0.654370 0.580359
Sb73 Sb 0.747438 0.733030 0.681256
N74 N 0.807700 0.625200 0.614900
C75 C 0.798900 0.420600 0.515600
C76 C 0.809200 0.317100 0.504500
H77 H 0.818600 0.274200 0.552800
C78 C 0.805800 0.276600 0.423100
H79 H 0.813000 0.206300 0.416100
C80 C 0.792100 0.338400 0.352400
H81 H 0.789100 0.310500 0.296900
C82 C 0.782700 0.439900 0.362800
H83 H 0.773800 0.482400 0.314300
C84 C 0.786100 0.480900 0.443600
H85 H 0.779500 0.551500 0.449800
C86 C 0.912300 0.437700 0.702300
C87 C 0.929100 0.454400 0.790400
H88 H 0.882100 0.477000 0.820300
C89 C 1.012700 0.438300 0.834000
H90 H 1.023600 0.452100 0.893200
C91 C 1.080800 0.402500 0.791900
H92 H 1.138300 0.391200 0.822300
C93 C 1.065500 0.382900 0.705900
H94 H 1.112200 0.356800 0.677400
C95 C 0.982600 0.401100 0.661000
H96 H 0.973000 0.388800 0.601400
C97 C 0.984200 0.748700 0.686100
C98 C 1.034100 0.703700 0.755500
H99 H 1.043000 0.633000 0.755700
C100 C 1.071400 0.760500 0.825000
H101 H 1.104300 0.728500 0.872600
C102 C 1.060400 0.862700 0.824300
H103 H 1.087600 0.902000 0.870600
C104 C 1.009800 0.908900 0.756600
H105 H 1.001400 0.979600 0.756800
C106 C 0.971500 0.852300 0.688300
H107 H 0.936100 0.884500 0.642300
C108 C 0.894000 0.778300 0.494800
C109 C 0.807100 0.796300 0.458000
H110 H 0.759600 0.755800 0.473000
C111 C 0.789400 0.873700 0.399000
H112 H 0.729700 0.885700 0.374300
C113 C 0.856600 0.932600 0.376200
H114 H 0.843900 0.985400 0.336100
C115 C 0.943100 0.914600 0.412000
H116 H 0.990200 0.955300 0.396600
C117 C 0.962100 0.837500 0.470600
H118 H 1.022200 0.825100 0.494100
C119 C 0.765200 0.665400 0.806200
C120 C 0.838500 0.698200 0.863000
H121 H 0.874800 0.751300 0.846800
C122 C 0.858600 0.654300 0.942300
H123 H 0.908200 0.677500 0.980200
C124 C 0.806800 0.577100 0.966000
H125 H 0.821600 0.546300 1.020000
C126 C 0.733300 0.543500 0.912500
H127 H 0.696900 0.491300 0.930000
C128 C 0.713700 0.587600 0.832400
H129 H 0.663900 0.564000 0.795000
C130 C 0.613800 0.679200 0.644000
C131 C 0.547900 0.688900 0.698500
H132 H 0.563700 0.712100 0.755100
C133 C 0.459600 0.664500 0.670000
H134 H 0.415500 0.670900 0.707400
C135 C 0.435700 0.631200 0.588100
H136 H 0.375600 0.613000 0.569400
C137 C 0.499200 0.624500 0.533400
H138 H 0.482500 0.604200 0.476100
C139 C 0.588100 0.647500 0.562100
H140 H 0.631800 0.641100 0.524200
Sb141 Sb 0.718577 -0.023100 0.860357
Sb142 Sb 0.567879 0.154370 0.919641
Sb143 Sb 0.752562 0.233030 0.818744
N144 N 0.692300 0.125200 0.885100
C145 C 0.701100 -0.079400 0.984400
C146 C 0.690800 -0.182900 0.995500
H147 H 0.681400 -0.225800 0.947200
C148 C 0.694200 -0.223400 1.076900
H149 H 0.687000 -0.293700 1.083900
C150 C 0.707900 -0.161600 1.147600
H151 H 0.710900 -0.189500 1.203100
C152 C 0.717300 -0.060100 1.137200
H153 H 0.726200 -0.017600 1.185700
C154 C 0.713900 -0.019100 1.056400
H155 H 0.720500 0.051500 1.050200
C156 C 0.587700 -0.062300 0.797700
C157 C 0.570900 -0.045600 0.709600
H158 H 0.617900 -0.023000 0.679700
C159 C 0.487300 -0.061700 0.666000
H160 H 0.476400 -0.047900 0.606800
C161 C 0.419200 -0.097500 0.708100
H162 H 0.361700 -0.108800 0.677700
C163 C 0.434500 -0.117100 0.794100
H164 H 0.387800 -0.143200 0.822600
C165 C 0.517400 -0.098900 0.839000
H166 H 0.527000 -0.111200 0.898600
C167 C 0.515800 0.248700 0.813900
C168 C 0.465900 0.203700 0.744500
H169 H 0.457000 0.133000 0.744300
C170 C 0.428600 0.260500 0.675000
H171 H 0.395700 0.228500 0.627400
C172 C 0.439600 0.362700 0.675700
H173 H 0.412400 0.402000 0.629400
C174 C 0.490200 0.408900 0.743400
H175 H 0.498600 0.479600 0.743200
C176 C 0.528500 0.352300 0.811700
H177 H 0.563900 0.384500 0.857700
C178 C 0.606000 0.278300 1.005200
C179 C 0.692900 0.296300 1.042000
H180 H 0.740400 0.255800 1.027000
C181 C 0.710600 0.373700 1.101000
H182 H 0.770300 0.385700 1.125700
C183 C 0.643400 0.432600 1.123800
H184 H 0.656100 0.485400 1.163900
C185 C 0.556900 0.414600 1.088000
H186 H 0.509800 0.455300 1.103400
C187 C 0.537900 0.337500 1.029400
H188 H 0.477800 0.325100 1.005900
C189 C 0.734800 0.165400 0.693800
C190 C 0.661500 0.198200 0.637000
H191 H 0.625200 0.251300 0.653200
C192 C 0.641400 0.154300 0.557700
H193 H 0.591800 0.177500 0.519800
C194 C 0.693200 0.077100 0.534000
H195 H 0.678400 0.046300 0.480000
C196 C 0.766700 0.043500 0.587500
H197 H 0.803100 -0.008700 0.570000
C198 C 0.786300 0.087600 0.667600
H199 H 0.836100 0.064000 0.705000
C200 C 0.886200 0.179200 0.856000
C201 C 0.952100 0.188900 0.801500
H202 H 0.936300 0.212100 0.744900
C203 C 1.040400 0.164500 0.830000
H204 H 1.084500 0.170900 0.792600
C205 C 1.064300 0.131200 0.911900
H206 H 1.124400 0.113000 0.930600
C207 C 1.000800 0.124500 0.966600
H208 H 1.017500 0.104200 1.023900
C209 C 0.911900 0.147500 0.937900
H210 H 0.868200 0.141100 0.975800
Sb211 Sb 0.218577 0.523100 0.360357
Sb212 Sb 0.067879 0.345630 0.419641
Sb213 Sb 0.252562 0.266970 0.318744
N214 N 0.192300 0.374800 0.385100
C215 C 0.201100 0.579400 0.484400
C216 C 0.190800 0.682900 0.495500
H217 H 0.181400 0.725800 0.447200
C218 C 0.194200 0.723400 0.576900
H219 H 0.187000 0.793700 0.583900
C220 C 0.207900 0.661600 0.647600
H221 H 0.210900 0.689500 0.703100
C222 C 0.217300 0.560100 0.637200
H223 H 0.226200 0.517600 0.685700
C224 C 0.213900 0.519100 0.556400
H225 H 0.220500 0.448500 0.550200
C226 C 0.087700 0.562300 0.297700
C227 C 0.070900 0.545600 0.209600
H228 H 0.117900 0.523000 0.179700
C229 C -0.012700 0.561700 0.166000
H230 H -0.023600 0.547900 0.106800
C231 C -0.080800 0.597500 0.208100
H232 H -0.138300 0.608800 0.177700
C233 C -0.065500 0.617100 0.294100
H234 H -0.112200 0.643200 0.322600
C235 C 0.017400 0.598900 0.339000
H236 H 0.027000 0.611200 0.398600
C237 C 0.015800 0.251300 0.313900
C238 C -0.034100 0.296300 0.244500
H239 H -0.043000 0.367000 0.244300
C240 C -0.071400 0.239500 0.175000
H241 H -0.104300 0.271500 0.127400
C242 C -0.060400 0.137300 0.175700
H243 H -0.087600 0.098000 0.129400
C244 C -0.009800 0.091100 0.243400
H245 H -0.001400 0.020400 0.243200
C246 C 0.028500 0.147700 0.311700
H247 H 0.063900 0.115500 0.357700
C248 C 0.106000 0.221700 0.505200
C249 C 0.192900 0.203700 0.542000
H250 H 0.240400 0.244200 0.527000
C251 C 0.210600 0.126300 0.601000
H252 H 0.270300 0.114300 0.625700
C253 C 0.143400 0.067400 0.623800
H254 H 0.156100 0.014600 0.663900
C255 C 0.056900 0.085400 0.588000
H256 H 0.009800 0.044700 0.603400
C257 C 0.037900 0.162500 0.529400
H258 H -0.022200 0.174900 0.505900
C259 C 0.234800 0.334600 0.193800
C260 C 0.161500 0.301800 0.137000
H261 H 0.125200 0.248700 0.153200
C262 C 0.141400 0.345700 0.057700
H263 H 0.091800 0.322500 0.019800
C264 C 0.193200 0.422900 0.034000
H265 H 0.178400 0.453700 -0.020000
C266 C 0.266700 0.456500 0.087500
H267 H 0.303100 0.508700 0.070000
C268 C 0.286300 0.412400 0.167600
H269 H 0.336100 0.436000 0.205000
C270 C 0.386200 0.320800 0.356000
C271 C 0.452100 0.311100 0.301500
H272 H 0.436300 0.287900 0.244900
C273 C 0.540400 0.335500 0.330000
H274 H 0.584500 0.329100 0.292600
C275 C 0.564300 0.368800 0.411900
H276 H 0.624400 0.387000 0.430600
C277 C 0.500800 0.375500 0.466600
H278 H 0.517500 0.395800 0.523900
C279 C 0.411900 0.352500 0.437900
H280 H 0.368200 0.358900 0.475800

#END
