./ACXGLU10_from_xyz.cif_generated_by_CrystalShift
_symmetry_cell_setting triclinic
_symmetry_space_group_name_H-M 'P 1'
loop_
_symmetry_equiv_pos_site_id
_symmetry_equiv_pos_as_xyz
1 x,y,z
_cell_length_a 9.880000
_cell_length_b 11.447000
_cell_length_c 7.619000
_cell_angle_alpha 90.000000
_cell_angle_beta 90.000000
_cell_angle_gamma 90.000000
_cell_volume 861.681167
loop_
_atom_site_label
_atom_site_type_symbol
_atom_site_fract_x
_atom_site_fract_y
_atom_site_fract_z
O1 O -0.029700 1.192700 0.368700
O2 O -0.126700 1.020300 0.363400
N3 N 0.207900 0.703800 0.373000
C4 C 0.366400 0.864300 0.340800
C5 C 0.217800 0.825700 0.317700
C6 C 0.121800 0.904100 0.393400
C7 C 0.113600 1.028300 0.340300
C8 C -0.025400 1.084400 0.362000
C9 C 0.226100 1.107100 0.384300
O10 O 0.403000 0.936600 0.210900
O11 O 0.436100 0.824700 0.447200
O12 O 0.261200 1.190100 0.277300
O13 O 0.278100 1.096400 0.536000
H14 H 0.250000 0.708000 0.467000
H15 H 0.253000 0.647000 0.263000
H16 H 0.111000 0.681000 0.360000
H17 H 0.250000 0.783000 0.175000
H18 H 0.158000 0.917000 0.517000
H19 H 0.342000 1.233000 0.317000
O20 O 0.529700 0.692700 0.868700
O21 O 0.626700 0.520300 0.863400
N22 N 0.292100 0.203800 0.873000
C23 C 0.133600 0.364300 0.840800
C24 C 0.282200 0.325700 0.817700
C25 C 0.378200 0.404100 0.893400
C26 C 0.386400 0.528300 0.840300
C27 C 0.525400 0.584400 0.862000
C28 C 0.273900 0.607100 0.884300
O29 O 0.097000 0.436600 0.710900
O30 O 0.063900 0.324700 0.947200
O31 O 0.238800 0.690100 0.777300
O32 O 0.221900 0.596400 1.036000
H33 H 0.250000 0.208000 0.967000
H34 H 0.247000 0.147000 0.763000
H35 H 0.389000 0.181000 0.860000
H36 H 0.250000 0.283000 0.675000
H37 H 0.342000 0.417000 1.017000
H38 H 0.158000 0.733000 0.817000
O39 O 0.470300 0.307300 0.368700
O40 O 0.373300 0.479700 0.363400
N41 N 0.707900 0.796200 0.373000
C42 C 0.866400 0.635700 0.340800
C43 C 0.717800 0.674300 0.317700
C44 C 0.621800 0.595900 0.393400
C45 C 0.613600 0.471700 0.340300
C46 C 0.474600 0.415600 0.362000
C47 C 0.726100 0.392900 0.384300
O48 O 0.903000 0.563400 0.210900
O49 O 0.936100 0.675300 0.447200
O50 O 0.761200 0.309900 0.277300
O51 O 0.778100 0.403600 0.536000
H52 H 0.750000 0.792000 0.467000
H53 H 0.753000 0.853000 0.263000
H54 H 0.611000 0.819000 0.360000
H55 H 0.750000 0.717000 0.175000
H56 H 0.658000 0.583000 0.517000
H57 H 0.842000 0.267000 0.317000
O58 O 1.029700 -0.192700 0.868700
O59 O 1.126700 -0.020300 0.863400
N60 N 0.792100 0.296200 0.873000
C61 C 0.633600 0.135700 0.840800
C62 C 0.782200 0.174300 0.817700
C63 C 0.878200 0.095900 0.893400
C64 C 0.886400 -0.028300 0.840300
C65 C 1.025400 -0.084400 0.862000
C66 C 0.773900 -0.107100 0.884300
O67 O 0.597000 0.063400 0.710900
O68 O 0.563900 0.175300 0.947200
O69 O 0.738800 -0.190100 0.777300
O70 O 0.721900 -0.096400 1.036000
H71 H 0.750000 0.292000 0.967000
H72 H 0.747000 0.353000 0.763000
H73 H 0.889000 0.319000 0.860000
H74 H 0.750000 0.217000 0.675000
H75 H 0.842000 0.083000 1.017000
H76 H 0.658000 -0.233000 0.817000
N77 N 0.098400 0.412100 0.351000
H78 H 0.175000 0.458000 0.333000
H79 H 0.100000 0.342000 0.333000
H80 H 0.026000 0.437000 0.407000
H81 H 0.059000 0.421000 0.199000
N82 N 0.401600 0.912100 0.851000
H83 H 0.325000 0.958000 0.833000
H84 H 0.400000 0.842000 0.833000
H85 H 0.474000 0.937000 0.907000
H86 H 0.441000 0.921000 0.699000
N87 N 0.598400 0.087900 0.351000
H88 H 0.675000 0.042000 0.333000
H89 H 0.600000 0.158000 0.333000
H90 H 0.526000 0.063000 0.407000
H91 H 0.559000 0.079000 0.199000
N92 N 0.901600 0.587900 0.851000
H93 H 0.825000 0.542000 0.833000
H94 H 0.900000 0.658000 0.833000
H95 H 0.974000 0.563000 0.907000
H96 H 0.941000 0.579000 0.699000

#END
