
#######################################################################
#
#                 Cambridge Crystallographic Data Centre
#                                CCDC 
#
#######################################################################
#
# If this CIF has been generated from an entry in the Cambridge 
# Structural Database, then it will include bibliographic, chemical, 
# crystal, experimental, refinement or atomic coordinate data resulting 
# from the CCDC's data processing and validation procedures.
#
#######################################################################

data_ACXGLU10
_symmetry_cell_setting           orthorhombic
_symmetry_space_group_name_H-M   'P n a 21'
_symmetry_Int_Tables_number      33
_space_group_name_Hall           'P 2c -2n'
loop_
_symmetry_equiv_pos_site_id
_symmetry_equiv_pos_as_xyz
1 x,y,z
2 1/2-x,1/2+y,1/2+z
3 1/2+x,1/2-y,z
4 -x,-y,1/2+z
_cell_length_a                   9.880(2)
_cell_length_b                   11.447(3)
_cell_length_c                   7.619(2)
_cell_angle_alpha                90
_cell_angle_beta                 90
_cell_angle_gamma                90
_cell_volume                     861.681
loop_
_atom_site_label
_atom_site_type_symbol
_atom_site_fract_x
_atom_site_fract_y
_atom_site_fract_z
O1 O -0.02970 1.19270 0.36870
O2 O -0.12670 1.02030 0.36340
N1 N 0.20790 0.70380 0.37300
C1 C 0.36640 0.86430 0.34080
C2 C 0.21780 0.82570 0.31770
C3 C 0.12180 0.90410 0.39340
C4 C 0.11360 1.02830 0.34030
C5 C -0.02540 1.08440 0.36200
C6 C 0.22610 1.10710 0.38430
O3 O 0.40300 0.93660 0.21090
O4 O 0.43610 0.82470 0.44720
O5 O 0.26120 1.19010 0.27730
O6 O 0.27810 1.09640 0.53600
H1 H 0.25000 0.70800 0.46700
H2 H 0.25300 0.64700 0.26300
H3 H 0.11100 0.68100 0.36000
H4 H 0.25000 0.78300 0.17500
H5 H 0.15800 0.91700 0.51700
H6 H 0.34200 1.23300 0.31700
O1 O 0.52970 0.69270 0.86870
O2 O 0.62670 0.52030 0.86340
N1 N 0.29210 0.20380 0.87300
C1 C 0.13360 0.36430 0.84080
C2 C 0.28220 0.32570 0.81770
C3 C 0.37820 0.40410 0.89340
C4 C 0.38640 0.52830 0.84030
C5 C 0.52540 0.58440 0.86200
C6 C 0.27390 0.60710 0.88430
O3 O 0.09700 0.43660 0.71090
O4 O 0.06390 0.32470 0.94720
O5 O 0.23880 0.69010 0.77730
O6 O 0.22190 0.59640 1.03600
H1 H 0.25000 0.20800 0.96700
H2 H 0.24700 0.14700 0.76300
H3 H 0.38900 0.18100 0.86000
H4 H 0.25000 0.28300 0.67500
H5 H 0.34200 0.41700 1.01700
H6 H 0.15800 0.73300 0.81700
O1 O 0.47030 0.30730 0.36870
O2 O 0.37330 0.47970 0.36340
N1 N 0.70790 0.79620 0.37300
C1 C 0.86640 0.63570 0.34080
C2 C 0.71780 0.67430 0.31770
C3 C 0.62180 0.59590 0.39340
C4 C 0.61360 0.47170 0.34030
C5 C 0.47460 0.41560 0.36200
C6 C 0.72610 0.39290 0.38430
O3 O 0.90300 0.56340 0.21090
O4 O 0.93610 0.67530 0.44720
O5 O 0.76120 0.30990 0.27730
O6 O 0.77810 0.40360 0.53600
H1 H 0.75000 0.79200 0.46700
H2 H 0.75300 0.85300 0.26300
H3 H 0.61100 0.81900 0.36000
H4 H 0.75000 0.71700 0.17500
H5 H 0.65800 0.58300 0.51700
H6 H 0.84200 0.26700 0.31700
O1 O 1.02970 -0.19270 0.86870
O2 O 1.12670 -0.02030 0.86340
N1 N 0.79210 0.29620 0.87300
C1 C 0.63360 0.13570 0.84080
C2 C 0.78220 0.17430 0.81770
C3 C 0.87820 0.09590 0.89340
C4 C 0.88640 -0.02830 0.84030
C5 C 1.02540 -0.08440 0.86200
C6 C 0.77390 -0.10710 0.88430
O3 O 0.59700 0.06340 0.71090
O4 O 0.56390 0.17530 0.94720
O5 O 0.73880 -0.19010 0.77730
O6 O 0.72190 -0.09640 1.03600
H1 H 0.75000 0.29200 0.96700
H2 H 0.74700 0.35300 0.76300
H3 H 0.88900 0.31900 0.86000
H4 H 0.75000 0.21700 0.67500
H5 H 0.84200 0.08300 1.01700
H6 H 0.65800 -0.23300 0.81700
N2 N 0.09840 0.41210 0.35100
H7 H 0.17500 0.45800 0.33300
H8 H 0.10000 0.34200 0.33300
H9 H 0.02600 0.43700 0.40700
H10 H 0.05900 0.42100 0.19900
N2 N 0.40160 0.91210 0.85100
H7 H 0.32500 0.95800 0.83300
H8 H 0.40000 0.84200 0.83300
H9 H 0.47400 0.93700 0.90700
H10 H 0.44100 0.92100 0.69900
N2 N 0.59840 0.08790 0.35100
H7 H 0.67500 0.04200 0.33300
H8 H 0.60000 0.15800 0.33300
H9 H 0.52600 0.06300 0.40700
H10 H 0.55900 0.07900 0.19900
N2 N 0.90160 0.58790 0.85100
H7 H 0.82500 0.54200 0.83300
H8 H 0.90000 0.65800 0.83300
H9 H 0.97400 0.56300 0.90700
H10 H 0.94100 0.57900 0.69900

#END
