./ACYHXA_from_xyz.cif_generated_by_CrystalShift
_symmetry_cell_setting triclinic
_symmetry_space_group_name_H-M 'P 1'
loop_
_symmetry_equiv_pos_site_id
_symmetry_equiv_pos_as_xyz
1 x,y,z
_cell_length_a 10.880000
_cell_length_b 6.540000
_cell_length_c 11.070000
_cell_angle_alpha 90.000000
_cell_angle_beta 95.800000
_cell_angle_gamma 90.000000
_cell_volume 783.655628
loop_
_atom_site_label
_atom_site_type_symbol
_atom_site_fract_x
_atom_site_fract_y
_atom_site_fract_z
C1 C 0.657000 0.214700 0.095400
C2 C 0.749200 0.391500 0.110500
C3 C 0.874700 0.326400 0.073300
C4 C 0.926200 0.139800 0.145500
C5 C 0.835400 -0.038300 0.128100
C6 C 0.707200 0.022800 0.160200
C7 C 0.614100 0.180800 -0.041800
H8 H 0.461000 0.203000 0.158000
H9 H 0.872000 -0.164000 0.178000
H10 H 0.833000 -0.089000 0.039000
H11 H 0.656000 -0.097000 0.133000
H12 H 0.717000 0.069000 0.261000
H13 H 0.561000 0.294000 0.219000
H14 H 0.500000 0.433000 0.119000
H15 H 0.722000 0.506000 0.069000
H16 H 0.758000 0.431000 0.211000
H17 H 0.872000 0.289000 -0.019000
H18 H 0.911000 0.444000 0.086000
H19 H 1.011000 0.097000 0.111000
H20 H 0.961000 0.156000 0.239000
N21 N 0.540800 0.281200 0.149900
O22 O 0.555100 0.324400 -0.095200
O23 O 0.639700 0.014600 -0.090600
C24 C 0.343000 0.714700 0.404600
C25 C 0.250800 0.891500 0.389500
C26 C 0.125300 0.826400 0.426700
C27 C 0.073800 0.639800 0.354500
C28 C 0.164600 0.461700 0.371900
C29 C 0.292800 0.522800 0.339800
C30 C 0.385900 0.680800 0.541800
H31 H 0.539000 0.703000 0.342000
H32 H 0.128000 0.336000 0.322000
H33 H 0.167000 0.411000 0.461000
H34 H 0.344000 0.403000 0.367000
H35 H 0.283000 0.569000 0.239000
H36 H 0.439000 0.794000 0.281000
H37 H 0.500000 0.933000 0.381000
H38 H 0.278000 1.006000 0.431000
H39 H 0.242000 0.931000 0.289000
H40 H 0.128000 0.789000 0.519000
H41 H 0.089000 0.944000 0.414000
H42 H -0.011000 0.597000 0.389000
H43 H 0.039000 0.656000 0.261000
N44 N 0.459200 0.781200 0.350100
O45 O 0.444900 0.824400 0.595200
O46 O 0.360300 0.514600 0.590600
C47 C 0.343000 0.785300 0.904600
C48 C 0.250800 0.608500 0.889500
C49 C 0.125300 0.673600 0.926700
C50 C 0.073800 0.860200 0.854500
C51 C 0.164600 1.038300 0.871900
C52 C 0.292800 0.977200 0.839800
C53 C 0.385900 0.819200 1.041800
H54 H 0.539000 0.797000 0.842000
H55 H 0.128000 1.164000 0.822000
H56 H 0.167000 1.089000 0.961000
H57 H 0.344000 1.097000 0.867000
H58 H 0.283000 0.931000 0.739000
H59 H 0.439000 0.706000 0.781000
H60 H 0.500000 0.567000 0.881000
H61 H 0.278000 0.494000 0.931000
H62 H 0.242000 0.569000 0.789000
H63 H 0.128000 0.711000 1.019000
H64 H 0.089000 0.556000 0.914000
H65 H -0.011000 0.903000 0.889000
H66 H 0.039000 0.844000 0.761000
N67 N 0.459200 0.718800 0.850100
O68 O 0.444900 0.675600 1.095200
O69 O 0.360300 0.985400 1.090600
C70 C 0.657000 0.285300 0.595400
C71 C 0.749200 0.108500 0.610500
C72 C 0.874700 0.173600 0.573300
C73 C 0.926200 0.360200 0.645500
C74 C 0.835400 0.538300 0.628100
C75 C 0.707200 0.477200 0.660200
C76 C 0.614100 0.319200 0.458200
H77 H 0.461000 0.297000 0.658000
H78 H 0.872000 0.664000 0.678000
H79 H 0.833000 0.589000 0.539000
H80 H 0.656000 0.597000 0.633000
H81 H 0.717000 0.431000 0.761000
H82 H 0.561000 0.206000 0.719000
H83 H 0.500000 0.067000 0.619000
H84 H 0.722000 -0.006000 0.569000
H85 H 0.758000 0.069000 0.711000
H86 H 0.872000 0.211000 0.481000
H87 H 0.911000 0.056000 0.586000
H88 H 1.011000 0.403000 0.611000
H89 H 0.961000 0.344000 0.739000
N90 N 0.540800 0.218800 0.649900
O91 O 0.555100 0.175600 0.404800
O92 O 0.639700 0.485400 0.409400

#END
