
#######################################################################
#
#                 Cambridge Crystallographic Data Centre
#                                CCDC 
#
#######################################################################
#
# If this CIF has been generated from an entry in the Cambridge 
# Structural Database, then it will include bibliographic, chemical, 
# crystal, experimental, refinement or atomic coordinate data resulting 
# from the CCDC's data processing and validation procedures.
#
#######################################################################

data_ADABEN
_symmetry_cell_setting           monoclinic
_symmetry_space_group_name_H-M   'P 21/n'
_symmetry_Int_Tables_number      14
_space_group_name_Hall           '-P 2yn'
loop_
_symmetry_equiv_pos_site_id
_symmetry_equiv_pos_as_xyz
1 x,y,z
2 1/2-x,1/2+y,1/2-z
3 -x,-y,-z
4 1/2+x,1/2-y,1/2+z
_cell_length_a                   7.152(4)
_cell_length_b                   12.154(7)
_cell_length_c                   11.240(6)
_cell_angle_alpha                90
_cell_angle_beta                 91.959(13)
_cell_angle_gamma                90
_cell_volume                     976.471
loop_
_atom_site_label
_atom_site_type_symbol
_atom_site_fract_x
_atom_site_fract_y
_atom_site_fract_z
Mo1 Mo 0.07145(11) 0.12284(7) 0.43232(6)
O1 O 0.2481(8) 0.2204(5) 0.5045(5)
O2 O 0.1338(8) -0.0050(5) 0.5631(5)
N1 N -0.0799(10) 0.2125(6) 0.6028(6)
C1 C 0.2069(14) 0.3137(8) 0.5733(8)
H1 H 0.2666 0.3045 0.6525
C2 C -0.0019(14) 0.3230(8) 0.5874(8)
H2 H -0.0276 0.3681 0.6562
H3 H -0.0594 0.3576 0.5175
C3 C 0.3121(13) -0.0116(8) 0.6254(7)
H4 H 0.3124 -0.0728 0.6793
H5 H 0.3345 0.0552 0.6693
H6 H 0.4088 -0.0214 0.5691
C4 C 0.2889(17) 0.4151(8) 0.5162(9)
H7 H 0.4204 0.4043 0.5061
H8 H 0.2705 0.4778 0.5665
H9 H 0.2279 0.4274 0.4400
C5 C -0.0286(15) 0.1717(8) 0.7250(7)
H10 H -0.0944 0.2135 0.7827
H11 H 0.1037 0.1797 0.7397
H12 H -0.0621 0.0954 0.7312
C6 C -0.2833(15) 0.2152(9) 0.5915(9)
H13 H -0.3326 0.2514 0.6595
H14 H -0.3306 0.1413 0.5870
H15 H -0.3208 0.2545 0.5206
O3 O 0.2179(9) 0.0677(5) 0.3339(5)
O4 O -0.0698(9) 0.2066(5) 0.3497(5)
Mo1B Mo -0.07145(11) -0.12284(7) 0.56768(6)
O1B O -0.2481(8) -0.2204(5) 0.4955(5)
O2B O -0.1338(8) 0.0050(5) 0.4369(5)
N1B N 0.0799(10) -0.2125(6) 0.3972(6)
C1B C -0.2069(14) -0.3137(8) 0.4267(8)
H1B H -0.2666 -0.3045 0.3475
C2B C 0.0019(14) -0.3230(8) 0.4126(8)
H2B H 0.0276 -0.3681 0.3438
H3B H 0.0594 -0.3576 0.4825
C3B C -0.3121(13) 0.0116(8) 0.3746(7)
H4B H -0.3124 0.0728 0.3207
H5B H -0.3345 -0.0552 0.3307
H6B H -0.4088 0.0214 0.4309
C4B C -0.2889(17) -0.4151(8) 0.4838(9)
H7B H -0.4204 -0.4043 0.4939
H8B H -0.2705 -0.4778 0.4335
H9B H -0.2279 -0.4274 0.5600
C5B C 0.0286(15) -0.1717(8) 0.2750(7)
H10B H 0.0944 -0.2135 0.2173
H11B H -0.1037 -0.1797 0.2603
H12B H 0.0621 -0.0954 0.2688
C6B C 0.2833(15) -0.2152(9) 0.4085(9)
H13B H 0.3326 -0.2514 0.3405
H14B H 0.3306 -0.1413 0.4130
H15B H 0.3208 -0.2545 0.4794
O3B O -0.2179(9) -0.0677(5) 0.6661(5)
O4B O 0.0698(9) -0.2066(5) 0.6503(5)
Mo1 Mo 0.07145(11) 1.12284(7) 0.43232(6)
O1 O 0.2481(8) 1.2204(5) 0.5045(5)
O2 O 0.1338(8) 0.9950(5) 0.5631(5)
N1 N -0.0799(10) 1.2125(6) 0.6028(6)
C1 C 0.2069(14) 1.3137(8) 0.5733(8)
H1 H 0.2666 1.3045 0.6525
C2 C -0.0019(14) 1.3230(8) 0.5874(8)
H2 H -0.0276 1.3681 0.6562
H3 H -0.0594 1.3576 0.5175
C3 C 0.3121(13) 0.9884(8) 0.6254(7)
H4 H 0.3124 0.9272 0.6793
H5 H 0.3345 1.0552 0.6693
H6 H 0.4088 0.9786 0.5691
C4 C 0.2889(17) 1.4151(8) 0.5162(9)
H7 H 0.4204 1.4043 0.5061
H8 H 0.2705 1.4778 0.5665
H9 H 0.2279 1.4274 0.4400
C5 C -0.0286(15) 1.1717(8) 0.7250(7)
H10 H -0.0944 1.2135 0.7827
H11 H 0.1037 1.1797 0.7397
H12 H -0.0621 1.0954 0.7312
C6 C -0.2833(15) 1.2152(9) 0.5915(9)
H13 H -0.3326 1.2514 0.6595
H14 H -0.3306 1.1413 0.5870
H15 H -0.3208 1.2545 0.5206
O3 O 0.2179(9) 1.0677(5) 0.3339(5)
O4 O -0.0698(9) 1.2066(5) 0.3497(5)
Mo1B Mo -0.07145(11) 0.87716(7) 0.56768(6)
O1B O -0.2481(8) 0.7796(5) 0.4955(5)
O2B O -0.1338(8) 1.0050(5) 0.4369(5)
N1B N 0.0799(10) 0.7875(6) 0.3972(6)
C1B C -0.2069(14) 0.6863(8) 0.4267(8)
H1B H -0.2666 0.6955 0.3475
C2B C 0.0019(14) 0.6770(8) 0.4126(8)
H2B H 0.0276 0.6319 0.3438
H3B H 0.0594 0.6424 0.4825
C3B C -0.3121(13) 1.0116(8) 0.3746(7)
H4B H -0.3124 1.0728 0.3207
H5B H -0.3345 0.9448 0.3307
H6B H -0.4088 1.0214 0.4309
C4B C -0.2889(17) 0.5849(8) 0.4838(9)
H7B H -0.4204 0.5957 0.4939
H8B H -0.2705 0.5222 0.4335
H9B H -0.2279 0.5726 0.5600
C5B C 0.0286(15) 0.8283(8) 0.2750(7)
H10B H 0.0944 0.7865 0.2173
H11B H -0.1037 0.8203 0.2603
H12B H 0.0621 0.9046 0.2688
C6B C 0.2833(15) 0.7848(9) 0.4085(9)
H13B H 0.3326 0.7486 0.3405
H14B H 0.3306 0.8587 0.4130
H15B H 0.3208 0.7455 0.4794
O3B O -0.2179(9) 0.9323(5) 0.6661(5)
O4B O 0.0698(9) 0.7934(5) 0.6503(5)
Mo1 Mo 1.07145(11) 0.12284(7) 0.43232(6)
O1 O 1.2481(8) 0.2204(5) 0.5045(5)
O2 O 1.1338(8) -0.0050(5) 0.5631(5)
N1 N 0.9201(10) 0.2125(6) 0.6028(6)
C1 C 1.2069(14) 0.3137(8) 0.5733(8)
H1 H 1.2666 0.3045 0.6525
C2 C 0.9981(14) 0.3230(8) 0.5874(8)
H2 H 0.9724 0.3681 0.6562
H3 H 0.9406 0.3576 0.5175
C3 C 1.3121(13) -0.0116(8) 0.6254(7)
H4 H 1.3124 -0.0728 0.6793
H5 H 1.3345 0.0552 0.6693
H6 H 1.4088 -0.0214 0.5691
C4 C 1.2889(17) 0.4151(8) 0.5162(9)
H7 H 1.4204 0.4043 0.5061
H8 H 1.2705 0.4778 0.5665
H9 H 1.2279 0.4274 0.4400
C5 C 0.9714(15) 0.1717(8) 0.7250(7)
H10 H 0.9056 0.2135 0.7827
H11 H 1.1037 0.1797 0.7397
H12 H 0.9379 0.0954 0.7312
C6 C 0.7167(15) 0.2152(9) 0.5915(9)
H13 H 0.6674 0.2514 0.6595
H14 H 0.6694 0.1413 0.5870
H15 H 0.6792 0.2545 0.5206
O3 O 1.2179(9) 0.0677(5) 0.3339(5)
O4 O 0.9302(9) 0.2066(5) 0.3497(5)
Mo1B Mo 0.92855(11) -0.12284(7) 0.56768(6)
O1B O 0.7519(8) -0.2204(5) 0.4955(5)
O2B O 0.8662(8) 0.0050(5) 0.4369(5)
N1B N 1.0799(10) -0.2125(6) 0.3972(6)
C1B C 0.7931(14) -0.3137(8) 0.4267(8)
H1B H 0.7334 -0.3045 0.3475
C2B C 1.0019(14) -0.3230(8) 0.4126(8)
H2B H 1.0276 -0.3681 0.3438
H3B H 1.0594 -0.3576 0.4825
C3B C 0.6879(13) 0.0116(8) 0.3746(7)
H4B H 0.6876 0.0728 0.3207
H5B H 0.6655 -0.0552 0.3307
H6B H 0.5912 0.0214 0.4309
C4B C 0.7111(17) -0.4151(8) 0.4838(9)
H7B H 0.5796 -0.4043 0.4939
H8B H 0.7295 -0.4778 0.4335
H9B H 0.7721 -0.4274 0.5600
C5B C 1.0286(15) -0.1717(8) 0.2750(7)
H10B H 1.0944 -0.2135 0.2173
H11B H 0.8963 -0.1797 0.2603
H12B H 1.0621 -0.0954 0.2688
C6B C 1.2833(15) -0.2152(9) 0.4085(9)
H13B H 1.3326 -0.2514 0.3405
H14B H 1.3306 -0.1413 0.4130
H15B H 1.3208 -0.2545 0.4794
O3B O 0.7821(9) -0.0677(5) 0.6661(5)
O4B O 1.0698(9) -0.2066(5) 0.6503(5)
Mo1 Mo 1.07145(11) 1.12284(7) 0.43232(6)
O1 O 1.2481(8) 1.2204(5) 0.5045(5)
O2 O 1.1338(8) 0.9950(5) 0.5631(5)
N1 N 0.9201(10) 1.2125(6) 0.6028(6)
C1 C 1.2069(14) 1.3137(8) 0.5733(8)
H1 H 1.2666 1.3045 0.6525
C2 C 0.9981(14) 1.3230(8) 0.5874(8)
H2 H 0.9724 1.3681 0.6562
H3 H 0.9406 1.3576 0.5175
C3 C 1.3121(13) 0.9884(8) 0.6254(7)
H4 H 1.3124 0.9272 0.6793
H5 H 1.3345 1.0552 0.6693
H6 H 1.4088 0.9786 0.5691
C4 C 1.2889(17) 1.4151(8) 0.5162(9)
H7 H 1.4204 1.4043 0.5061
H8 H 1.2705 1.4778 0.5665
H9 H 1.2279 1.4274 0.4400
C5 C 0.9714(15) 1.1717(8) 0.7250(7)
H10 H 0.9056 1.2135 0.7827
H11 H 1.1037 1.1797 0.7397
H12 H 0.9379 1.0954 0.7312
C6 C 0.7167(15) 1.2152(9) 0.5915(9)
H13 H 0.6674 1.2514 0.6595
H14 H 0.6694 1.1413 0.5870
H15 H 0.6792 1.2545 0.5206
O3 O 1.2179(9) 1.0677(5) 0.3339(5)
O4 O 0.9302(9) 1.2066(5) 0.3497(5)
Mo1B Mo 0.92855(11) 0.87716(7) 0.56768(6)
O1B O 0.7519(8) 0.7796(5) 0.4955(5)
O2B O 0.8662(8) 1.0050(5) 0.4369(5)
N1B N 1.0799(10) 0.7875(6) 0.3972(6)
C1B C 0.7931(14) 0.6863(8) 0.4267(8)
H1B H 0.7334 0.6955 0.3475
C2B C 1.0019(14) 0.6770(8) 0.4126(8)
H2B H 1.0276 0.6319 0.3438
H3B H 1.0594 0.6424 0.4825
C3B C 0.6879(13) 1.0116(8) 0.3746(7)
H4B H 0.6876 1.0728 0.3207
H5B H 0.6655 0.9448 0.3307
H6B H 0.5912 1.0214 0.4309
C4B C 0.7111(17) 0.5849(8) 0.4838(9)
H7B H 0.5796 0.5957 0.4939
H8B H 0.7295 0.5222 0.4335
H9B H 0.7721 0.5726 0.5600
C5B C 1.0286(15) 0.8283(8) 0.2750(7)
H10B H 1.0944 0.7865 0.2173
H11B H 0.8963 0.8203 0.2603
H12B H 1.0621 0.9046 0.2688
C6B C 1.2833(15) 0.7848(9) 0.4085(9)
H13B H 1.3326 0.7486 0.3405
H14B H 1.3306 0.8587 0.4130
H15B H 1.3208 0.7455 0.4794
O3B O 0.7821(9) 0.9323(5) 0.6661(5)
O4B O 1.0698(9) 0.7934(5) 0.6503(5)
Mo1 Mo 0.42855(11) 0.62284(7) 0.06768(6)
O1 O 0.2519(8) 0.7204(5) -0.0045(5)
O2 O 0.3662(8) 0.4950(5) -0.0631(5)
N1 N 0.5799(10) 0.7125(6) -0.1028(6)
C1 C 0.2931(14) 0.8137(8) -0.0733(8)
H1 H 0.2334 0.8045 -0.1525
C2 C 0.5019(14) 0.8230(8) -0.0874(8)
H2 H 0.5276 0.8681 -0.1562
H3 H 0.5594 0.8576 -0.0175
C3 C 0.1879(13) 0.4884(8) -0.1254(7)
H4 H 0.1876 0.4272 -0.1793
H5 H 0.1655 0.5552 -0.1693
H6 H 0.0912 0.4786 -0.0691
C4 C 0.2111(17) 0.9151(8) -0.0162(9)
H7 H 0.0796 0.9043 -0.0061
H8 H 0.2295 0.9778 -0.0665
H9 H 0.2721 0.9274 0.0600
C5 C 0.5286(15) 0.6717(8) -0.2250(7)
H10 H 0.5944 0.7135 -0.2827
H11 H 0.3963 0.6797 -0.2397
H12 H 0.5621 0.5954 -0.2312
C6 C 0.7833(15) 0.7152(9) -0.0915(9)
H13 H 0.8326 0.7514 -0.1595
H14 H 0.8306 0.6413 -0.0870
H15 H 0.8208 0.7545 -0.0206
O3 O 0.2821(9) 0.5677(5) 0.1661(5)
O4 O 0.5698(9) 0.7066(5) 0.1503(5)
Mo1B Mo 0.57145(11) 0.37716(7) -0.06768(6)
O1B O 0.7481(8) 0.2796(5) 0.0045(5)
O2B O 0.6338(8) 0.5050(5) 0.0631(5)
N1B N 0.4201(10) 0.2875(6) 0.1028(6)
C1B C 0.7069(14) 0.1863(8) 0.0733(8)
H1B H 0.7666 0.1955 0.1525
C2B C 0.4981(14) 0.1770(8) 0.0874(8)
H2B H 0.4724 0.1319 0.1562
H3B H 0.4406 0.1424 0.0175
C3B C 0.8121(13) 0.5116(8) 0.1254(7)
H4B H 0.8124 0.5728 0.1793
H5B H 0.8345 0.4448 0.1693
H6B H 0.9088 0.5214 0.0691
C4B C 0.7889(17) 0.0849(8) 0.0162(9)
H7B H 0.9204 0.0957 0.0061
H8B H 0.7705 0.0222 0.0665
H9B H 0.7279 0.0726 -0.0600
C5B C 0.4714(15) 0.3283(8) 0.2250(7)
H10B H 0.4056 0.2865 0.2827
H11B H 0.6037 0.3203 0.2397
H12B H 0.4379 0.4046 0.2312
C6B C 0.2167(15) 0.2848(9) 0.0915(9)
H13B H 0.1674 0.2486 0.1595
H14B H 0.1694 0.3587 0.0870
H15B H 0.1792 0.2455 0.0206
O3B O 0.7179(9) 0.4323(5) -0.1661(5)
O4B O 0.4302(9) 0.2934(5) -0.1503(5)
Mo1 Mo 0.42855(11) 0.62284(7) 1.06768(6)
O1 O 0.2519(8) 0.7204(5) 0.9955(5)
O2 O 0.3662(8) 0.4950(5) 0.9369(5)
N1 N 0.5799(10) 0.7125(6) 0.8972(6)
C1 C 0.2931(14) 0.8137(8) 0.9267(8)
H1 H 0.2334 0.8045 0.8475
C2 C 0.5019(14) 0.8230(8) 0.9126(8)
H2 H 0.5276 0.8681 0.8438
H3 H 0.5594 0.8576 0.9825
C3 C 0.1879(13) 0.4884(8) 0.8746(7)
H4 H 0.1876 0.4272 0.8207
H5 H 0.1655 0.5552 0.8307
H6 H 0.0912 0.4786 0.9309
C4 C 0.2111(17) 0.9151(8) 0.9838(9)
H7 H 0.0796 0.9043 0.9939
H8 H 0.2295 0.9778 0.9335
H9 H 0.2721 0.9274 1.0600
C5 C 0.5286(15) 0.6717(8) 0.7750(7)
H10 H 0.5944 0.7135 0.7173
H11 H 0.3963 0.6797 0.7603
H12 H 0.5621 0.5954 0.7688
C6 C 0.7833(15) 0.7152(9) 0.9085(9)
H13 H 0.8326 0.7514 0.8405
H14 H 0.8306 0.6413 0.9130
H15 H 0.8208 0.7545 0.9794
O3 O 0.2821(9) 0.5677(5) 1.1661(5)
O4 O 0.5698(9) 0.7066(5) 1.1503(5)
Mo1B Mo 0.57145(11) 0.37716(7) 0.93232(6)
O1B O 0.7481(8) 0.2796(5) 1.0045(5)
O2B O 0.6338(8) 0.5050(5) 1.0631(5)
N1B N 0.4201(10) 0.2875(6) 1.1028(6)
C1B C 0.7069(14) 0.1863(8) 1.0733(8)
H1B H 0.7666 0.1955 1.1525
C2B C 0.4981(14) 0.1770(8) 1.0874(8)
H2B H 0.4724 0.1319 1.1562
H3B H 0.4406 0.1424 1.0175
C3B C 0.8121(13) 0.5116(8) 1.1254(7)
H4B H 0.8124 0.5728 1.1793
H5B H 0.8345 0.4448 1.1693
H6B H 0.9088 0.5214 1.0691
C4B C 0.7889(17) 0.0849(8) 1.0162(9)
H7B H 0.9204 0.0957 1.0061
H8B H 0.7705 0.0222 1.0665
H9B H 0.7279 0.0726 0.9400
C5B C 0.4714(15) 0.3283(8) 1.2250(7)
H10B H 0.4056 0.2865 1.2827
H11B H 0.6037 0.3203 1.2397
H12B H 0.4379 0.4046 1.2312
C6B C 0.2167(15) 0.2848(9) 1.0915(9)
H13B H 0.1674 0.2486 1.1595
H14B H 0.1694 0.3587 1.0870
H15B H 0.1792 0.2455 1.0206
O3B O 0.7179(9) 0.4323(5) 0.8339(5)
O4B O 0.4302(9) 0.2934(5) 0.8497(5)

#END
