./ADABIR_from_xyz.cif_generated_by_CrystalShift
_symmetry_cell_setting triclinic
_symmetry_space_group_name_H-M 'P 1'
loop_
_symmetry_equiv_pos_site_id
_symmetry_equiv_pos_as_xyz
1 x,y,z
_cell_length_a 8.465800
_cell_length_b 9.000100
_cell_length_c 11.991400
_cell_angle_alpha 90.000000
_cell_angle_beta 103.192000
_cell_angle_gamma 90.000000
_cell_volume 889.550466
loop_
_atom_site_label
_atom_site_type_symbol
_atom_site_fract_x
_atom_site_fract_y
_atom_site_fract_z
F1 F 0.791320 0.431100 0.940990
C2 C 0.668740 0.438480 0.845640
C3 C 0.593030 0.308750 0.800320
H4 H 0.625000 0.215600 0.835600
C5 C 0.469700 0.317480 0.702590
H6 H 0.417000 0.229400 0.669700
C7 C 0.422240 0.454930 0.652020
C8 C 0.497070 0.584020 0.700330
H9 H 0.462600 0.677900 0.667400
C10 C 0.623500 0.574770 0.797780
H11 H 0.677800 0.662100 0.830700
O12 O 0.300210 0.450340 0.553540
C13 C 0.258030 0.588670 0.496870
H14 H 0.354300 0.633600 0.476300
H15 H 0.217300 0.658400 0.547700
C16 C 0.125850 0.558260 0.388550
O17 O 0.090140 0.708780 0.347590
C18 C -0.260280 0.844130 0.064760
C19 C -0.144310 0.941900 0.128060
C20 C -0.031720 0.891070 0.222100
H21 H 0.045000 0.958100 0.265600
C22 C -0.029660 0.741520 0.253930
C23 C -0.144910 0.643870 0.192750
H24 H -0.145300 0.542500 0.214900
C25 C -0.259410 0.696260 0.098950
H26 H -0.338600 0.629900 0.057300
C27 C -0.378820 0.893360 -0.035030
N28 N -0.470730 0.931300 -0.115970
C29 C -0.140260 1.101760 0.090860
F30 F -0.113210 1.111560 -0.014810
F31 F -0.281490 1.170880 0.087580
F32 F -0.023660 1.179580 0.159840
C33 C -0.021660 0.486690 0.423390
N34 N -0.109180 0.578310 0.472630
H35 H -0.077600 0.670900 0.486800
C36 C -0.256500 0.526240 0.503170
H37 H -0.335200 0.495500 0.433800
H38 H -0.302800 0.606600 0.540800
H39 H -0.230700 0.441600 0.555600
O40 O -0.052310 0.354680 0.405970
C41 C 0.189990 0.463370 0.303950
H42 H 0.105100 0.451000 0.233800
H43 H 0.221900 0.365700 0.337900
H44 H 0.284400 0.512100 0.285500
F45 F 0.208680 -0.068900 0.059010
C46 C 0.331260 -0.061520 0.154360
C47 C 0.406970 -0.191250 0.199680
H48 H 0.375000 -0.284400 0.164400
C49 C 0.530300 -0.182520 0.297410
H50 H 0.583000 -0.270600 0.330300
C51 C 0.577760 -0.045070 0.347980
C52 C 0.502930 0.084020 0.299670
H53 H 0.537400 0.177900 0.332600
C54 C 0.376500 0.074770 0.202220
H55 H 0.322200 0.162100 0.169300
O56 O 0.699790 -0.049660 0.446460
C57 C 0.741970 0.088670 0.503130
H58 H 0.645700 0.133600 0.523700
H59 H 0.782700 0.158400 0.452300
C60 C 0.874150 0.058260 0.611450
O61 O 0.909860 0.208780 0.652410
C62 C 1.260280 0.344130 0.935240
C63 C 1.144310 0.441900 0.871940
C64 C 1.031720 0.391070 0.777900
H65 H 0.955000 0.458100 0.734400
C66 C 1.029660 0.241520 0.746070
C67 C 1.144910 0.143870 0.807250
H68 H 1.145300 0.042500 0.785100
C69 C 1.259410 0.196260 0.901050
H70 H 1.338600 0.129900 0.942700
C71 C 1.378820 0.393360 1.035030
N72 N 1.470730 0.431300 1.115970
C73 C 1.140260 0.601760 0.909140
F74 F 1.113210 0.611560 1.014810
F75 F 1.281490 0.670880 0.912420
F76 F 1.023660 0.679580 0.840160
C77 C 1.021660 -0.013310 0.576610
N78 N 1.109180 0.078310 0.527370
H79 H 1.077600 0.170900 0.513200
C80 C 1.256500 0.026240 0.496830
H81 H 1.335200 -0.004500 0.566200
H82 H 1.302800 0.106600 0.459200
H83 H 1.230700 -0.058400 0.444400
O84 O 1.052310 -0.145320 0.594030
C85 C 0.810010 -0.036630 0.696050
H86 H 0.894900 -0.049000 0.766200
H87 H 0.778100 -0.134300 0.662100
H88 H 0.715600 0.012100 0.714500

#END
