./ADABAI_from_xyz.cif_generated_by_CrystalShift
_symmetry_cell_setting triclinic
_symmetry_space_group_name_H-M 'P 1'
loop_
_symmetry_equiv_pos_site_id
_symmetry_equiv_pos_as_xyz
1 x,y,z
_cell_length_a 13.162900
_cell_length_b 7.800300
_cell_length_c 16.960500
_cell_angle_alpha 90.000000
_cell_angle_beta 90.000000
_cell_angle_gamma 90.000000
_cell_volume 1741.412025
loop_
_atom_site_label
_atom_site_type_symbol
_atom_site_fract_x
_atom_site_fract_y
_atom_site_fract_z
Cu1 Cu 0.000000 0.000000 0.500000
O2 O 0.029530 -0.215670 0.553820
O3 O 0.073040 0.176800 0.605040
O4 O 0.049050 0.023200 0.709730
O5 O 0.140880 0.250100 0.714930
N6 N 0.116390 -0.230300 0.592040
N7 N 0.140160 -0.005640 0.454630
N8 N 0.086700 0.149300 0.677030
C9 C 0.201210 -0.162200 0.569970
H10 H 0.257900 -0.183300 0.605800
C11 C 0.109200 -0.342100 0.661370
H12 H 0.094900 -0.461700 0.642800
H13 H 0.172100 -0.347300 0.685800
H14 H 0.055200 -0.300800 0.691900
C15 C 0.219040 -0.069000 0.497680
C16 C 0.318730 -0.053400 0.472400
H17 H 0.371800 -0.101900 0.504600
C18 C 0.338900 0.020800 0.400170
H19 H 0.407400 0.027900 0.378900
C20 C 0.258560 0.077200 0.355210
H21 H 0.268500 0.118800 0.303500
C22 C 0.161120 0.063900 0.384550
H23 H 0.105400 0.108400 0.354700
O24 O -0.029530 0.215670 0.446180
N25 N -0.116390 0.230300 0.407960
C26 C -0.201210 0.162200 0.430030
H27 H -0.257900 0.183300 0.394200
C28 C -0.219040 0.069000 0.502320
N29 N -0.140160 0.005640 0.545370
O30 O -0.073040 -0.176800 0.394960
N31 N -0.086700 -0.149300 0.322970
O32 O -0.049050 -0.023200 0.290270
O33 O -0.140880 -0.250100 0.285070
C34 C -0.161120 -0.063900 0.615450
C35 C -0.258560 -0.077200 0.644790
C36 C -0.338900 -0.020800 0.599830
C37 C -0.318730 0.053400 0.527600
H38 H -0.371800 0.101900 0.495400
H39 H -0.407400 -0.027900 0.621100
H40 H -0.268500 -0.118800 0.696500
H41 H -0.105400 -0.108400 0.645300
C42 C -0.109200 0.342100 0.338630
H43 H -0.094900 0.461700 0.357200
H44 H -0.172100 0.347300 0.314200
H45 H -0.055200 0.300800 0.308100
Cu46 Cu 0.000000 1.000000 0.500000
O47 O 0.029530 0.784330 0.553820
O48 O 0.073040 1.176800 0.605040
O49 O 0.049050 1.023200 0.709730
O50 O 0.140880 1.250100 0.714930
N51 N 0.116390 0.769700 0.592040
N52 N 0.140160 0.994360 0.454630
N53 N 0.086700 1.149300 0.677030
C54 C 0.201210 0.837800 0.569970
H55 H 0.257900 0.816700 0.605800
C56 C 0.109200 0.657900 0.661370
H57 H 0.094900 0.538300 0.642800
H58 H 0.172100 0.652700 0.685800
H59 H 0.055200 0.699200 0.691900
C60 C 0.219040 0.931000 0.497680
C61 C 0.318730 0.946600 0.472400
H62 H 0.371800 0.898100 0.504600
C63 C 0.338900 1.020800 0.400170
H64 H 0.407400 1.027900 0.378900
C65 C 0.258560 1.077200 0.355210
H66 H 0.268500 1.118800 0.303500
C67 C 0.161120 1.063900 0.384550
H68 H 0.105400 1.108400 0.354700
O69 O -0.029530 1.215670 0.446180
N70 N -0.116390 1.230300 0.407960
C71 C -0.201210 1.162200 0.430030
H72 H -0.257900 1.183300 0.394200
C73 C -0.219040 1.069000 0.502320
N74 N -0.140160 1.005640 0.545370
O75 O -0.073040 0.823200 0.394960
N76 N -0.086700 0.850700 0.322970
O77 O -0.049050 0.976800 0.290270
O78 O -0.140880 0.749900 0.285070
C79 C -0.161120 0.936100 0.615450
C80 C -0.258560 0.922800 0.644790
C81 C -0.338900 0.979200 0.599830
C82 C -0.318730 1.053400 0.527600
H83 H -0.371800 1.101900 0.495400
H84 H -0.407400 0.972100 0.621100
H85 H -0.268500 0.881200 0.696500
H86 H -0.105400 0.891600 0.645300
C87 C -0.109200 1.342100 0.338630
H88 H -0.094900 1.461700 0.357200
H89 H -0.172100 1.347300 0.314200
H90 H -0.055200 1.300800 0.308100
Cu91 Cu 1.000000 0.000000 0.500000
O92 O 1.029530 -0.215670 0.553820
O93 O 1.073040 0.176800 0.605040
O94 O 1.049050 0.023200 0.709730
O95 O 1.140880 0.250100 0.714930
N96 N 1.116390 -0.230300 0.592040
N97 N 1.140160 -0.005640 0.454630
N98 N 1.086700 0.149300 0.677030
C99 C 1.201210 -0.162200 0.569970
H100 H 1.257900 -0.183300 0.605800
C101 C 1.109200 -0.342100 0.661370
H102 H 1.094900 -0.461700 0.642800
H103 H 1.172100 -0.347300 0.685800
H104 H 1.055200 -0.300800 0.691900
C105 C 1.219040 -0.069000 0.497680
C106 C 1.318730 -0.053400 0.472400
H107 H 1.371800 -0.101900 0.504600
C108 C 1.338900 0.020800 0.400170
H109 H 1.407400 0.027900 0.378900
C110 C 1.258560 0.077200 0.355210
H111 H 1.268500 0.118800 0.303500
C112 C 1.161120 0.063900 0.384550
H113 H 1.105400 0.108400 0.354700
O114 O 0.970470 0.215670 0.446180
N115 N 0.883610 0.230300 0.407960
C116 C 0.798790 0.162200 0.430030
H117 H 0.742100 0.183300 0.394200
C118 C 0.780960 0.069000 0.502320
N119 N 0.859840 0.005640 0.545370
O120 O 0.926960 -0.176800 0.394960
N121 N 0.913300 -0.149300 0.322970
O122 O 0.950950 -0.023200 0.290270
O123 O 0.859120 -0.250100 0.285070
C124 C 0.838880 -0.063900 0.615450
C125 C 0.741440 -0.077200 0.644790
C126 C 0.661100 -0.020800 0.599830
C127 C 0.681270 0.053400 0.527600
H128 H 0.628200 0.101900 0.495400
H129 H 0.592600 -0.027900 0.621100
H130 H 0.731500 -0.118800 0.696500
H131 H 0.894600 -0.108400 0.645300
C132 C 0.890800 0.342100 0.338630
H133 H 0.905100 0.461700 0.357200
H134 H 0.827900 0.347300 0.314200
H135 H 0.944800 0.300800 0.308100
Cu136 Cu 1.000000 1.000000 0.500000
O137 O 1.029530 0.784330 0.553820
O138 O 1.073040 1.176800 0.605040
O139 O 1.049050 1.023200 0.709730
O140 O 1.140880 1.250100 0.714930
N141 N 1.116390 0.769700 0.592040
N142 N 1.140160 0.994360 0.454630
N143 N 1.086700 1.149300 0.677030
C144 C 1.201210 0.837800 0.569970
H145 H 1.257900 0.816700 0.605800
C146 C 1.109200 0.657900 0.661370
H147 H 1.094900 0.538300 0.642800
H148 H 1.172100 0.652700 0.685800
H149 H 1.055200 0.699200 0.691900
C150 C 1.219040 0.931000 0.497680
C151 C 1.318730 0.946600 0.472400
H152 H 1.371800 0.898100 0.504600
C153 C 1.338900 1.020800 0.400170
H154 H 1.407400 1.027900 0.378900
C155 C 1.258560 1.077200 0.355210
H156 H 1.268500 1.118800 0.303500
C157 C 1.161120 1.063900 0.384550
H158 H 1.105400 1.108400 0.354700
O159 O 0.970470 1.215670 0.446180
N160 N 0.883610 1.230300 0.407960
C161 C 0.798790 1.162200 0.430030
H162 H 0.742100 1.183300 0.394200
C163 C 0.780960 1.069000 0.502320
N164 N 0.859840 1.005640 0.545370
O165 O 0.926960 0.823200 0.394960
N166 N 0.913300 0.850700 0.322970
O167 O 0.950950 0.976800 0.290270
O168 O 0.859120 0.749900 0.285070
C169 C 0.838880 0.936100 0.615450
C170 C 0.741440 0.922800 0.644790
C171 C 0.661100 0.979200 0.599830
C172 C 0.681270 1.053400 0.527600
H173 H 0.628200 1.101900 0.495400
H174 H 0.592600 0.972100 0.621100
H175 H 0.731500 0.881200 0.696500
H176 H 0.894600 0.891600 0.645300
C177 C 0.890800 1.342100 0.338630
H178 H 0.905100 1.461700 0.357200
H179 H 0.827900 1.347300 0.314200
H180 H 0.944800 1.300800 0.308100
Cu181 Cu 0.500000 0.000000 0.000000
O182 O 0.529530 -0.215670 -0.053820
O183 O 0.573040 0.176800 -0.105040
O184 O 0.549050 0.023200 -0.209730
O185 O 0.640880 0.250100 -0.214930
N186 N 0.616390 -0.230300 -0.092040
N187 N 0.640160 -0.005640 0.045370
N188 N 0.586700 0.149300 -0.177030
C189 C 0.701210 -0.162200 -0.069970
H190 H 0.757900 -0.183300 -0.105800
C191 C 0.609200 -0.342100 -0.161370
H192 H 0.594900 -0.461700 -0.142800
H193 H 0.672100 -0.347300 -0.185800
H194 H 0.555200 -0.300800 -0.191900
C195 C 0.719040 -0.069000 0.002320
C196 C 0.818730 -0.053400 0.027600
H197 H 0.871800 -0.101900 -0.004600
C198 C 0.838900 0.020800 0.099830
H199 H 0.907400 0.027900 0.121100
C200 C 0.758560 0.077200 0.144790
H201 H 0.768500 0.118800 0.196500
C202 C 0.661120 0.063900 0.115450
H203 H 0.605400 0.108400 0.145300
O204 O 0.470470 0.215670 0.053820
N205 N 0.383610 0.230300 0.092040
C206 C 0.298790 0.162200 0.069970
H207 H 0.242100 0.183300 0.105800
C208 C 0.280960 0.069000 -0.002320
N209 N 0.359840 0.005640 -0.045370
O210 O 0.426960 -0.176800 0.105040
N211 N 0.413300 -0.149300 0.177030
O212 O 0.450950 -0.023200 0.209730
O213 O 0.359120 -0.250100 0.214930
C214 C 0.338880 -0.063900 -0.115450
C215 C 0.241440 -0.077200 -0.144790
C216 C 0.161100 -0.020800 -0.099830
C217 C 0.181270 0.053400 -0.027600
H218 H 0.128200 0.101900 0.004600
H219 H 0.092600 -0.027900 -0.121100
H220 H 0.231500 -0.118800 -0.196500
H221 H 0.394600 -0.108400 -0.145300
C222 C 0.390800 0.342100 0.161370
H223 H 0.405100 0.461700 0.142800
H224 H 0.327900 0.347300 0.185800
H225 H 0.444800 0.300800 0.191900
Cu226 Cu 0.500000 0.000000 1.000000
O227 O 0.529530 -0.215670 0.946180
O228 O 0.573040 0.176800 0.894960
O229 O 0.549050 0.023200 0.790270
O230 O 0.640880 0.250100 0.785070
N231 N 0.616390 -0.230300 0.907960
N232 N 0.640160 -0.005640 1.045370
N233 N 0.586700 0.149300 0.822970
C234 C 0.701210 -0.162200 0.930030
H235 H 0.757900 -0.183300 0.894200
C236 C 0.609200 -0.342100 0.838630
H237 H 0.594900 -0.461700 0.857200
H238 H 0.672100 -0.347300 0.814200
H239 H 0.555200 -0.300800 0.808100
C240 C 0.719040 -0.069000 1.002320
C241 C 0.818730 -0.053400 1.027600
H242 H 0.871800 -0.101900 0.995400
C243 C 0.838900 0.020800 1.099830
H244 H 0.907400 0.027900 1.121100
C245 C 0.758560 0.077200 1.144790
H246 H 0.768500 0.118800 1.196500
C247 C 0.661120 0.063900 1.115450
H248 H 0.605400 0.108400 1.145300
O249 O 0.470470 0.215670 1.053820
N250 N 0.383610 0.230300 1.092040
C251 C 0.298790 0.162200 1.069970
H252 H 0.242100 0.183300 1.105800
C253 C 0.280960 0.069000 0.997680
N254 N 0.359840 0.005640 0.954630
O255 O 0.426960 -0.176800 1.105040
N256 N 0.413300 -0.149300 1.177030
O257 O 0.450950 -0.023200 1.209730
O258 O 0.359120 -0.250100 1.214930
C259 C 0.338880 -0.063900 0.884550
C260 C 0.241440 -0.077200 0.855210
C261 C 0.161100 -0.020800 0.900170
C262 C 0.181270 0.053400 0.972400
H263 H 0.128200 0.101900 1.004600
H264 H 0.092600 -0.027900 0.878900
H265 H 0.231500 -0.118800 0.803500
H266 H 0.394600 -0.108400 0.854700
C267 C 0.390800 0.342100 1.161370
H268 H 0.405100 0.461700 1.142800
H269 H 0.327900 0.347300 1.185800
H270 H 0.444800 0.300800 1.191900
Cu271 Cu 0.500000 1.000000 0.000000
O272 O 0.529530 0.784330 -0.053820
O273 O 0.573040 1.176800 -0.105040
O274 O 0.549050 1.023200 -0.209730
O275 O 0.640880 1.250100 -0.214930
N276 N 0.616390 0.769700 -0.092040
N277 N 0.640160 0.994360 0.045370
N278 N 0.586700 1.149300 -0.177030
C279 C 0.701210 0.837800 -0.069970
H280 H 0.757900 0.816700 -0.105800
C281 C 0.609200 0.657900 -0.161370
H282 H 0.594900 0.538300 -0.142800
H283 H 0.672100 0.652700 -0.185800
H284 H 0.555200 0.699200 -0.191900
C285 C 0.719040 0.931000 0.002320
C286 C 0.818730 0.946600 0.027600
H287 H 0.871800 0.898100 -0.004600
C288 C 0.838900 1.020800 0.099830
H289 H 0.907400 1.027900 0.121100
C290 C 0.758560 1.077200 0.144790
H291 H 0.768500 1.118800 0.196500
C292 C 0.661120 1.063900 0.115450
H293 H 0.605400 1.108400 0.145300
O294 O 0.470470 1.215670 0.053820
N295 N 0.383610 1.230300 0.092040
C296 C 0.298790 1.162200 0.069970
H297 H 0.242100 1.183300 0.105800
C298 C 0.280960 1.069000 -0.002320
N299 N 0.359840 1.005640 -0.045370
O300 O 0.426960 0.823200 0.105040
N301 N 0.413300 0.850700 0.177030
O302 O 0.450950 0.976800 0.209730
O303 O 0.359120 0.749900 0.214930
C304 C 0.338880 0.936100 -0.115450
C305 C 0.241440 0.922800 -0.144790
C306 C 0.161100 0.979200 -0.099830
C307 C 0.181270 1.053400 -0.027600
H308 H 0.128200 1.101900 0.004600
H309 H 0.092600 0.972100 -0.121100
H310 H 0.231500 0.881200 -0.196500
H311 H 0.394600 0.891600 -0.145300
C312 C 0.390800 1.342100 0.161370
H313 H 0.405100 1.461700 0.142800
H314 H 0.327900 1.347300 0.185800
H315 H 0.444800 1.300800 0.191900
Cu316 Cu 0.500000 1.000000 1.000000
O317 O 0.529530 0.784330 0.946180
O318 O 0.573040 1.176800 0.894960
O319 O 0.549050 1.023200 0.790270
O320 O 0.640880 1.250100 0.785070
N321 N 0.616390 0.769700 0.907960
N322 N 0.640160 0.994360 1.045370
N323 N 0.586700 1.149300 0.822970
C324 C 0.701210 0.837800 0.930030
H325 H 0.757900 0.816700 0.894200
C326 C 0.609200 0.657900 0.838630
H327 H 0.594900 0.538300 0.857200
H328 H 0.672100 0.652700 0.814200
H329 H 0.555200 0.699200 0.808100
C330 C 0.719040 0.931000 1.002320
C331 C 0.818730 0.946600 1.027600
H332 H 0.871800 0.898100 0.995400
C333 C 0.838900 1.020800 1.099830
H334 H 0.907400 1.027900 1.121100
C335 C 0.758560 1.077200 1.144790
H336 H 0.768500 1.118800 1.196500
C337 C 0.661120 1.063900 1.115450
H338 H 0.605400 1.108400 1.145300
O339 O 0.470470 1.215670 1.053820
N340 N 0.383610 1.230300 1.092040
C341 C 0.298790 1.162200 1.069970
H342 H 0.242100 1.183300 1.105800
C343 C 0.280960 1.069000 0.997680
N344 N 0.359840 1.005640 0.954630
O345 O 0.426960 0.823200 1.105040
N346 N 0.413300 0.850700 1.177030
O347 O 0.450950 0.976800 1.209730
O348 O 0.359120 0.749900 1.214930
C349 C 0.338880 0.936100 0.884550
C350 C 0.241440 0.922800 0.855210
C351 C 0.161100 0.979200 0.900170
C352 C 0.181270 1.053400 0.972400
H353 H 0.128200 1.101900 1.004600
H354 H 0.092600 0.972100 0.878900
H355 H 0.231500 0.881200 0.803500
H356 H 0.394600 0.891600 0.854700
C357 C 0.390800 1.342100 1.161370
H358 H 0.405100 1.461700 1.142800
H359 H 0.327900 1.347300 1.185800
H360 H 0.444800 1.300800 1.191900
Cu361 Cu 0.000000 0.500000 0.000000
O362 O 0.029530 0.715670 0.053820
O363 O 0.073040 0.323200 0.105040
O364 O 0.049050 0.476800 0.209730
O365 O 0.140880 0.249900 0.214930
N366 N 0.116390 0.730300 0.092040
N367 N 0.140160 0.505640 -0.045370
N368 N 0.086700 0.350700 0.177030
C369 C 0.201210 0.662200 0.069970
H370 H 0.257900 0.683300 0.105800
C371 C 0.109200 0.842100 0.161370
H372 H 0.094900 0.961700 0.142800
H373 H 0.172100 0.847300 0.185800
H374 H 0.055200 0.800800 0.191900
C375 C 0.219040 0.569000 -0.002320
C376 C 0.318730 0.553400 -0.027600
H377 H 0.371800 0.601900 0.004600
C378 C 0.338900 0.479200 -0.099830
H379 H 0.407400 0.472100 -0.121100
C380 C 0.258560 0.422800 -0.144790
H381 H 0.268500 0.381200 -0.196500
C382 C 0.161120 0.436100 -0.115450
H383 H 0.105400 0.391600 -0.145300
O384 O -0.029530 0.284330 -0.053820
N385 N -0.116390 0.269700 -0.092040
C386 C -0.201210 0.337800 -0.069970
H387 H -0.257900 0.316700 -0.105800
C388 C -0.219040 0.431000 0.002320
N389 N -0.140160 0.494360 0.045370
O390 O -0.073040 0.676800 -0.105040
N391 N -0.086700 0.649300 -0.177030
O392 O -0.049050 0.523200 -0.209730
O393 O -0.140880 0.750100 -0.214930
C394 C -0.161120 0.563900 0.115450
C395 C -0.258560 0.577200 0.144790
C396 C -0.338900 0.520800 0.099830
C397 C -0.318730 0.446600 0.027600
H398 H -0.371800 0.398100 -0.004600
H399 H -0.407400 0.527900 0.121100
H400 H -0.268500 0.618800 0.196500
H401 H -0.105400 0.608400 0.145300
C402 C -0.109200 0.157900 -0.161370
H403 H -0.094900 0.038300 -0.142800
H404 H -0.172100 0.152700 -0.185800
H405 H -0.055200 0.199200 -0.191900
Cu406 Cu 0.000000 0.500000 1.000000
O407 O 0.029530 0.715670 1.053820
O408 O 0.073040 0.323200 1.105040
O409 O 0.049050 0.476800 1.209730
O410 O 0.140880 0.249900 1.214930
N411 N 0.116390 0.730300 1.092040
N412 N 0.140160 0.505640 0.954630
N413 N 0.086700 0.350700 1.177030
C414 C 0.201210 0.662200 1.069970
H415 H 0.257900 0.683300 1.105800
C416 C 0.109200 0.842100 1.161370
H417 H 0.094900 0.961700 1.142800
H418 H 0.172100 0.847300 1.185800
H419 H 0.055200 0.800800 1.191900
C420 C 0.219040 0.569000 0.997680
C421 C 0.318730 0.553400 0.972400
H422 H 0.371800 0.601900 1.004600
C423 C 0.338900 0.479200 0.900170
H424 H 0.407400 0.472100 0.878900
C425 C 0.258560 0.422800 0.855210
H426 H 0.268500 0.381200 0.803500
C427 C 0.161120 0.436100 0.884550
H428 H 0.105400 0.391600 0.854700
O429 O -0.029530 0.284330 0.946180
N430 N -0.116390 0.269700 0.907960
C431 C -0.201210 0.337800 0.930030
H432 H -0.257900 0.316700 0.894200
C433 C -0.219040 0.431000 1.002320
N434 N -0.140160 0.494360 1.045370
O435 O -0.073040 0.676800 0.894960
N436 N -0.086700 0.649300 0.822970
O437 O -0.049050 0.523200 0.790270
O438 O -0.140880 0.750100 0.785070
C439 C -0.161120 0.563900 1.115450
C440 C -0.258560 0.577200 1.144790
C441 C -0.338900 0.520800 1.099830
C442 C -0.318730 0.446600 1.027600
H443 H -0.371800 0.398100 0.995400
H444 H -0.407400 0.527900 1.121100
H445 H -0.268500 0.618800 1.196500
H446 H -0.105400 0.608400 1.145300
C447 C -0.109200 0.157900 0.838630
H448 H -0.094900 0.038300 0.857200
H449 H -0.172100 0.152700 0.814200
H450 H -0.055200 0.199200 0.808100
Cu451 Cu 1.000000 0.500000 0.000000
O452 O 1.029530 0.715670 0.053820
O453 O 1.073040 0.323200 0.105040
O454 O 1.049050 0.476800 0.209730
O455 O 1.140880 0.249900 0.214930
N456 N 1.116390 0.730300 0.092040
N457 N 1.140160 0.505640 -0.045370
N458 N 1.086700 0.350700 0.177030
C459 C 1.201210 0.662200 0.069970
H460 H 1.257900 0.683300 0.105800
C461 C 1.109200 0.842100 0.161370
H462 H 1.094900 0.961700 0.142800
H463 H 1.172100 0.847300 0.185800
H464 H 1.055200 0.800800 0.191900
C465 C 1.219040 0.569000 -0.002320
C466 C 1.318730 0.553400 -0.027600
H467 H 1.371800 0.601900 0.004600
C468 C 1.338900 0.479200 -0.099830
H469 H 1.407400 0.472100 -0.121100
C470 C 1.258560 0.422800 -0.144790
H471 H 1.268500 0.381200 -0.196500
C472 C 1.161120 0.436100 -0.115450
H473 H 1.105400 0.391600 -0.145300
O474 O 0.970470 0.284330 -0.053820
N475 N 0.883610 0.269700 -0.092040
C476 C 0.798790 0.337800 -0.069970
H477 H 0.742100 0.316700 -0.105800
C478 C 0.780960 0.431000 0.002320
N479 N 0.859840 0.494360 0.045370
O480 O 0.926960 0.676800 -0.105040
N481 N 0.913300 0.649300 -0.177030
O482 O 0.950950 0.523200 -0.209730
O483 O 0.859120 0.750100 -0.214930
C484 C 0.838880 0.563900 0.115450
C485 C 0.741440 0.577200 0.144790
C486 C 0.661100 0.520800 0.099830
C487 C 0.681270 0.446600 0.027600
H488 H 0.628200 0.398100 -0.004600
H489 H 0.592600 0.527900 0.121100
H490 H 0.731500 0.618800 0.196500
H491 H 0.894600 0.608400 0.145300
C492 C 0.890800 0.157900 -0.161370
H493 H 0.905100 0.038300 -0.142800
H494 H 0.827900 0.152700 -0.185800
H495 H 0.944800 0.199200 -0.191900
Cu496 Cu 1.000000 0.500000 1.000000
O497 O 1.029530 0.715670 1.053820
O498 O 1.073040 0.323200 1.105040
O499 O 1.049050 0.476800 1.209730
O500 O 1.140880 0.249900 1.214930
N501 N 1.116390 0.730300 1.092040
N502 N 1.140160 0.505640 0.954630
N503 N 1.086700 0.350700 1.177030
C504 C 1.201210 0.662200 1.069970
H505 H 1.257900 0.683300 1.105800
C506 C 1.109200 0.842100 1.161370
H507 H 1.094900 0.961700 1.142800
H508 H 1.172100 0.847300 1.185800
H509 H 1.055200 0.800800 1.191900
C510 C 1.219040 0.569000 0.997680
C511 C 1.318730 0.553400 0.972400
H512 H 1.371800 0.601900 1.004600
C513 C 1.338900 0.479200 0.900170
H514 H 1.407400 0.472100 0.878900
C515 C 1.258560 0.422800 0.855210
H516 H 1.268500 0.381200 0.803500
C517 C 1.161120 0.436100 0.884550
H518 H 1.105400 0.391600 0.854700
O519 O 0.970470 0.284330 0.946180
N520 N 0.883610 0.269700 0.907960
C521 C 0.798790 0.337800 0.930030
H522 H 0.742100 0.316700 0.894200
C523 C 0.780960 0.431000 1.002320
N524 N 0.859840 0.494360 1.045370
O525 O 0.926960 0.676800 0.894960
N526 N 0.913300 0.649300 0.822970
O527 O 0.950950 0.523200 0.790270
O528 O 0.859120 0.750100 0.785070
C529 C 0.838880 0.563900 1.115450
C530 C 0.741440 0.577200 1.144790
C531 C 0.661100 0.520800 1.099830
C532 C 0.681270 0.446600 1.027600
H533 H 0.628200 0.398100 0.995400
H534 H 0.592600 0.527900 1.121100
H535 H 0.731500 0.618800 1.196500
H536 H 0.894600 0.608400 1.145300
C537 C 0.890800 0.157900 0.838630
H538 H 0.905100 0.038300 0.857200
H539 H 0.827900 0.152700 0.814200
H540 H 0.944800 0.199200 0.808100
Cu541 Cu 0.500000 0.500000 0.500000
O542 O 0.470470 0.284330 0.553820
O543 O 0.426960 0.676800 0.605040
O544 O 0.450950 0.523200 0.709730
O545 O 0.359120 0.750100 0.714930
N546 N 0.383610 0.269700 0.592040
N547 N 0.359840 0.494360 0.454630
N548 N 0.413300 0.649300 0.677030
C549 C 0.298790 0.337800 0.569970
H550 H 0.242100 0.316700 0.605800
C551 C 0.390800 0.157900 0.661370
H552 H 0.405100 0.038300 0.642800
H553 H 0.327900 0.152700 0.685800
H554 H 0.444800 0.199200 0.691900
C555 C 0.280960 0.431000 0.497680
C556 C 0.181270 0.446600 0.472400
H557 H 0.128200 0.398100 0.504600
C558 C 0.161100 0.520800 0.400170
H559 H 0.092600 0.527900 0.378900
C560 C 0.241440 0.577200 0.355210
H561 H 0.231500 0.618800 0.303500
C562 C 0.338880 0.563900 0.384550
H563 H 0.394600 0.608400 0.354700
O564 O 0.529530 0.715670 0.446180
N565 N 0.616390 0.730300 0.407960
C566 C 0.701210 0.662200 0.430030
H567 H 0.757900 0.683300 0.394200
C568 C 0.719040 0.569000 0.502320
N569 N 0.640160 0.505640 0.545370
O570 O 0.573040 0.323200 0.394960
N571 N 0.586700 0.350700 0.322970
O572 O 0.549050 0.476800 0.290270
O573 O 0.640880 0.249900 0.285070
C574 C 0.661120 0.436100 0.615450
C575 C 0.758560 0.422800 0.644790
C576 C 0.838900 0.479200 0.599830
C577 C 0.818730 0.553400 0.527600
H578 H 0.871800 0.601900 0.495400
H579 H 0.907400 0.472100 0.621100
H580 H 0.768500 0.381200 0.696500
H581 H 0.605400 0.391600 0.645300
C582 C 0.609200 0.842100 0.338630
H583 H 0.594900 0.961700 0.357200
H584 H 0.672100 0.847300 0.314200
H585 H 0.555200 0.800800 0.308100

#END
