./ADAFUG_from_xyz.cif_generated_by_CrystalShift
_symmetry_cell_setting triclinic
_symmetry_space_group_name_H-M 'P 1'
loop_
_symmetry_equiv_pos_site_id
_symmetry_equiv_pos_as_xyz
1 x,y,z
_cell_length_a 8.908400
_cell_length_b 15.503000
_cell_length_c 12.717000
_cell_angle_alpha 90.000000
_cell_angle_beta 97.790000
_cell_angle_gamma 90.000000
_cell_volume 1740.097677
loop_
_atom_site_label
_atom_site_type_symbol
_atom_site_fract_x
_atom_site_fract_y
_atom_site_fract_z
Sn1 Sn 0.472767 0.041131 0.359632
Fe2 Fe 0.621290 0.099720 0.099310
Fe3 Fe 0.278150 -0.039200 0.593150
Cl4 Cl 0.597960 0.140940 0.489430
Cl5 Cl 0.680110 -0.061670 0.374230
Cl6 Cl -0.114290 -0.236630 0.243570
Cl7 Cl 0.078780 0.321810 0.047570
N8 N 0.335150 -0.037690 0.202000
N9 N 0.236370 0.126690 0.365780
C10 C 0.685800 -0.013000 0.034000
H11 H 0.622500 -0.063400 0.012500
C12 C 0.712700 0.058000 -0.027800
H13 H 0.668700 0.066800 -0.101900
C14 C 0.811500 0.111400 0.028500
H15 H 0.852400 0.165000 0.002900
C16 C 0.844300 0.077000 0.129300
H17 H 0.913900 0.101900 0.187800
C18 C 0.769100 0.003000 0.132500
H19 H 0.773900 -0.035100 0.194300
C20 C 0.416700 0.153900 0.046100
H21 H 0.365600 0.154600 -0.027100
C22 C 0.516300 0.216700 0.095200
H23 H 0.549300 0.268300 0.060200
C24 C 0.563500 0.193900 0.201000
H25 H 0.634600 0.226600 0.251600
C26 C 0.494600 0.114220 0.222000
C27 C 0.403300 0.089770 0.124500
C28 C 0.326400 0.006110 0.115800
C29 C 0.243600 -0.021600 0.010400
H30 H 0.199400 -0.077400 0.017400
H31 H 0.313300 -0.024300 -0.040800
H32 H 0.165100 0.019400 -0.012600
C33 C 0.275400 -0.122600 0.208000
C34 C 0.375500 -0.191600 0.218400
H35 H 0.477400 -0.182800 0.212900
C36 C 0.323000 -0.273700 0.237200
H37 H 0.391100 -0.319400 0.245300
C38 C 0.173500 -0.288900 0.244100
H39 H 0.138800 -0.344000 0.256800
C40 C 0.076900 -0.219800 0.231500
C41 C 0.123700 -0.136200 0.214300
H42 H 0.054900 -0.090700 0.207200
C43 C 0.204100 0.016600 0.722200
H44 H 0.100900 0.036500 0.727300
C45 C 0.263100 -0.067700 0.747200
H46 H 0.207500 -0.116200 0.772600
C47 C 0.415500 -0.068100 0.731200
H48 H 0.484200 -0.117600 0.742200
C49 C 0.452800 0.013290 0.695600
H50 H 0.551800 0.030500 0.677200
C51 C 0.323200 0.066050 0.689000
H52 H 0.316700 0.126500 0.666200
C53 C 0.094100 -0.069050 0.487800
H54 H -0.011800 -0.064800 0.500300
C55 C 0.187300 -0.142700 0.505200
H56 H 0.158300 -0.198200 0.533400
C57 C 0.331100 -0.121580 0.477200
H58 H 0.419000 -0.160200 0.483700
C59 C 0.329400 -0.035310 0.440980
C60 C 0.181300 -0.001770 0.447100
C61 C 0.139500 0.086590 0.415500
C62 C -0.007800 0.124900 0.437800
H63 H -0.016000 0.183100 0.411700
H64 H -0.011100 0.124900 0.513000
H65 H -0.090500 0.091300 0.403100
C66 C 0.210700 0.213520 0.328300
C67 C 0.163100 0.226200 0.221700
H68 H 0.145600 0.179100 0.176300
C69 C 0.141300 0.308900 0.182200
C70 C 0.171600 0.378200 0.245200
H71 H 0.159100 0.433600 0.217400
C72 C 0.221900 0.365600 0.352500
H73 H 0.242200 0.413100 0.396800
C74 C 0.242000 0.284150 0.393700
H75 H 0.276600 0.276500 0.465400
Sn76 Sn 0.527233 0.541131 0.640368
Fe77 Fe 0.378710 0.599720 0.900690
Fe78 Fe 0.721850 0.460800 0.406850
Cl79 Cl 0.402040 0.640940 0.510570
Cl80 Cl 0.319890 0.438330 0.625770
Cl81 Cl 1.114290 0.263370 0.756430
Cl82 Cl 0.921220 0.821810 0.952430
N83 N 0.664850 0.462310 0.798000
N84 N 0.763630 0.626690 0.634220
C85 C 0.314200 0.487000 0.966000
H86 H 0.377500 0.436600 0.987500
C87 C 0.287300 0.558000 1.027800
H88 H 0.331300 0.566800 1.101900
C89 C 0.188500 0.611400 0.971500
H90 H 0.147600 0.665000 0.997100
C91 C 0.155700 0.577000 0.870700
H92 H 0.086100 0.601900 0.812200
C93 C 0.230900 0.503000 0.867500
H94 H 0.226100 0.464900 0.805700
C95 C 0.583300 0.653900 0.953900
H96 H 0.634400 0.654600 1.027100
C97 C 0.483700 0.716700 0.904800
H98 H 0.450700 0.768300 0.939800
C99 C 0.436500 0.693900 0.799000
H100 H 0.365400 0.726600 0.748400
C101 C 0.505400 0.614220 0.778000
C102 C 0.596700 0.589770 0.875500
C103 C 0.673600 0.506110 0.884200
C104 C 0.756400 0.478400 0.989600
H105 H 0.800600 0.422600 0.982600
H106 H 0.686700 0.475700 1.040800
H107 H 0.834900 0.519400 1.012600
C108 C 0.724600 0.377400 0.792000
C109 C 0.624500 0.308400 0.781600
H110 H 0.522600 0.317200 0.787100
C111 C 0.677000 0.226300 0.762800
H112 H 0.608900 0.180600 0.754700
C113 C 0.826500 0.211100 0.755900
H114 H 0.861200 0.156000 0.743200
C115 C 0.923100 0.280200 0.768500
C116 C 0.876300 0.363800 0.785700
H117 H 0.945100 0.409300 0.792800
C118 C 0.795900 0.516600 0.277800
H119 H 0.899100 0.536500 0.272700
C120 C 0.736900 0.432300 0.252800
H121 H 0.792500 0.383800 0.227400
C122 C 0.584500 0.431900 0.268800
H123 H 0.515800 0.382400 0.257800
C124 C 0.547200 0.513290 0.304400
H125 H 0.448200 0.530500 0.322800
C126 C 0.676800 0.566050 0.311000
H127 H 0.683300 0.626500 0.333800
C128 C 0.905900 0.430950 0.512200
H129 H 1.011800 0.435200 0.499700
C130 C 0.812700 0.357300 0.494800
H131 H 0.841700 0.301800 0.466600
C132 C 0.668900 0.378420 0.522800
H133 H 0.581000 0.339800 0.516300
C134 C 0.670600 0.464690 0.559020
C135 C 0.818700 0.498230 0.552900
C136 C 0.860500 0.586590 0.584500
C137 C 1.007800 0.624900 0.562200
H138 H 1.016000 0.683100 0.588300
H139 H 1.011100 0.624900 0.487000
H140 H 1.090500 0.591300 0.596900
C141 C 0.789300 0.713520 0.671700
C142 C 0.836900 0.726200 0.778300
H143 H 0.854400 0.679100 0.823700
C144 C 0.858700 0.808900 0.817800
C145 C 0.828400 0.878200 0.754800
H146 H 0.840900 0.933600 0.782600
C147 C 0.778100 0.865600 0.647500
H148 H 0.757800 0.913100 0.603200
C149 C 0.758000 0.784150 0.606300
H150 H 0.723400 0.776500 0.534600

#END
