./ADAJUK01_from_xyz.cif_generated_by_CrystalShift
_symmetry_cell_setting triclinic
_symmetry_space_group_name_H-M 'P 1'
loop_
_symmetry_equiv_pos_site_id
_symmetry_equiv_pos_as_xyz
1 x,y,z
_cell_length_a 9.345000
_cell_length_b 10.092000
_cell_length_c 12.695000
_cell_angle_alpha 88.110000
_cell_angle_beta 69.930000
_cell_angle_gamma 83.130000
_cell_volume 1116.441354
loop_
_atom_site_label
_atom_site_type_symbol
_atom_site_fract_x
_atom_site_fract_y
_atom_site_fract_z
P1 P 0.206570 0.054550 0.399240
O2 O 0.298160 0.155500 0.433430
O3 O 0.299210 0.019230 0.273790
O4 O 0.191490 -0.064800 0.472630
O5 O 0.056740 0.131790 0.401210
C6 C 0.453300 0.333600 0.361450
C7 C 0.568400 0.100100 0.337880
C8 C 0.442800 0.196400 0.374130
C9 C 0.712200 0.143200 0.288120
H10 H 0.798000 0.080200 0.263400
C11 C 0.730900 0.277100 0.274490
C12 C 0.555200 -0.047400 0.354070
H13 H 0.468300 -0.059300 0.421100
H14 H 0.646500 -0.089900 0.366800
C15 C 0.648500 -0.217700 0.198320
H16 H 0.735300 -0.238600 0.218400
C17 C 0.407800 -0.090000 0.224500
C18 C 0.535800 -0.118200 0.257260
C19 C 0.601400 0.368700 0.310480
H20 H 0.613600 0.458900 0.300100
C21 C 0.312900 0.439600 0.397600
C22 C 0.383600 -0.159100 0.139750
C23 C 0.501900 -0.256400 0.084700
H24 H 0.491300 -0.304500 0.027000
C25 C 0.888600 0.321300 0.223200
H26 H 0.925300 0.305500 0.143700
H27 H 0.957300 0.271800 0.255600
H28 H 0.883700 0.414800 0.237700
C29 C 0.634400 -0.286200 0.110500
C30 C 0.361100 0.581300 0.389300
H31 H 0.420100 0.588700 0.437200
H32 H 0.271300 0.645300 0.412300
H33 H 0.422100 0.598100 0.313200
C34 C 0.237500 -0.131500 0.108900
C35 C 0.222600 0.431500 0.317900
H36 H 0.288300 0.443300 0.242200
H37 H 0.137300 0.500300 0.337000
H38 H 0.185500 0.345800 0.324700
C39 C 0.211400 0.422100 0.519600
H40 H 0.156400 0.346300 0.524900
H41 H 0.139800 0.500700 0.544700
H42 H 0.274400 0.408400 0.565800
C43 C 0.240400 -0.225900 0.016100
H44 H 0.149500 -0.204000 -0.003000
H45 H 0.244100 -0.316300 0.042000
H46 H 0.329200 -0.216700 -0.048800
C47 C 0.221600 0.010600 0.066500
H48 H 0.133200 0.024500 0.043600
H49 H 0.311700 0.024200 0.003900
H50 H 0.209900 0.072600 0.125500
C51 C 0.760700 -0.390900 0.045100
H52 H 0.728900 -0.478000 0.065200
H53 H 0.851800 -0.383600 0.062300
H54 H 0.781500 -0.377600 -0.033800
C55 C 0.096300 -0.154800 0.210700
H56 H 0.084600 -0.091700 0.268900
H57 H 0.109200 -0.243800 0.237700
H58 H 0.006600 -0.143300 0.189100
H59 H -0.039000 0.107000 0.446000
P60 P 0.793430 0.945450 0.600760
O61 O 0.701840 0.844500 0.566570
O62 O 0.700790 0.980770 0.726210
O63 O 0.808510 1.064800 0.527370
O64 O 0.943260 0.868210 0.598790
C65 C 0.546700 0.666400 0.638550
C66 C 0.431600 0.899900 0.662120
C67 C 0.557200 0.803600 0.625870
C68 C 0.287800 0.856800 0.711880
H69 H 0.202000 0.919800 0.736600
C70 C 0.269100 0.722900 0.725510
C71 C 0.444800 1.047400 0.645930
H72 H 0.531700 1.059300 0.578900
H73 H 0.353500 1.089900 0.633200
C74 C 0.351500 1.217700 0.801680
H75 H 0.264700 1.238600 0.781600
C76 C 0.592200 1.090000 0.775500
C77 C 0.464200 1.118200 0.742740
C78 C 0.398600 0.631300 0.689520
H79 H 0.386400 0.541100 0.699900
C80 C 0.687100 0.560400 0.602400
C81 C 0.616400 1.159100 0.860250
C82 C 0.498100 1.256400 0.915300
H83 H 0.508700 1.304500 0.973000
C84 C 0.111400 0.678700 0.776800
H85 H 0.074700 0.694500 0.856300
H86 H 0.042700 0.728200 0.744400
H87 H 0.116300 0.585200 0.762300
C88 C 0.365600 1.286200 0.889500
C89 C 0.638900 0.418700 0.610700
H90 H 0.579900 0.411300 0.562800
H91 H 0.728700 0.354700 0.587700
H92 H 0.577900 0.401900 0.686800
C93 C 0.762500 1.131500 0.891100
C94 C 0.777400 0.568500 0.682100
H95 H 0.711700 0.556700 0.757800
H96 H 0.862700 0.499700 0.663000
H97 H 0.814500 0.654200 0.675300
C98 C 0.788600 0.577900 0.480400
H99 H 0.843600 0.653700 0.475100
H100 H 0.860200 0.499300 0.455300
H101 H 0.725600 0.591600 0.434200
C102 C 0.759600 1.225900 0.983900
H103 H 0.850500 1.204000 1.003000
H104 H 0.755900 1.316300 0.958000
H105 H 0.670800 1.216700 1.048800
C106 C 0.778400 0.989400 0.933500
H107 H 0.866800 0.975500 0.956400
H108 H 0.688300 0.975800 0.996100
H109 H 0.790100 0.927400 0.874500
C110 C 0.239300 1.390900 0.954900
H111 H 0.271100 1.478000 0.934800
H112 H 0.148200 1.383600 0.937700
H113 H 0.218500 1.377600 1.033800
C114 C 0.903700 1.154800 0.789300
H115 H 0.915400 1.091700 0.731100
H116 H 0.890800 1.243800 0.762300
H117 H 0.993400 1.143300 0.810900
H118 H 1.039000 0.893000 0.554000

#END
