
#######################################################################
#
#                 Cambridge Crystallographic Data Centre
#                                CCDC 
#
#######################################################################
#
# If this CIF has been generated from an entry in the Cambridge 
# Structural Database, then it will include bibliographic, chemical, 
# crystal, experimental, refinement or atomic coordinate data resulting 
# from the CCDC's data processing and validation procedures.
#
#######################################################################

data_ADAJEW
_symmetry_cell_setting           monoclinic
_symmetry_space_group_name_H-M   'P 21/c'
_symmetry_Int_Tables_number      14
_space_group_name_Hall           '-P 2ybc'
loop_
_symmetry_equiv_pos_site_id
_symmetry_equiv_pos_as_xyz
1 x,y,z
2 -x,1/2+y,1/2-z
3 -x,-y,-z
4 x,1/2-y,1/2+z
_cell_length_a                   13.6446(11)
_cell_length_b                   8.1742(6)
_cell_length_c                   14.8796(13)
_cell_angle_alpha                90
_cell_angle_beta                 112.454(5)
_cell_angle_gamma                90
_cell_volume                     1533.76
loop_
_atom_site_label
_atom_site_type_symbol
_atom_site_fract_x
_atom_site_fract_y
_atom_site_fract_z
B1 B 0.30999(17) 0.0508(3) 0.08864(16)
Cl1 Cl 0.41638(4) -0.00137(6) 0.20944(4)
Cl2 Cl 0.26669(4) -0.15200(5) 0.02023(4)
C1 C 0.35701(14) 0.1449(2) 0.01734(13)
N1 N 0.45609(12) 0.18974(19) 0.02748(12)
C2 C 0.45353(18) 0.2670(2) -0.05580(16)
H1 H 0.5126 0.3111 -0.0664
C3 C 0.35284(18) 0.2685(2) -0.11873(15)
H2 H 0.3267 0.3131 -0.1825
N2 N 0.29420(12) 0.19272(19) -0.07326(11)
C4 C 0.55488(15) 0.1708(3) 0.11272(15)
H3 H 0.5496 0.2309 0.1677
H4 H 0.6141 0.2141 0.0981
H5 H 0.5670 0.0546 0.1295
C5 C 0.17968(15) 0.1654(3) -0.12141(15)
H6 H 0.1495 0.2449 -0.1741
H7 H 0.1463 0.1785 -0.0741
H8 H 0.1667 0.0543 -0.1482
C6 C 0.21685(14) 0.1491(2) 0.10749(13)
C7 C 0.22033(14) 0.3230(2) 0.11300(13)
C8 C 0.13646(15) 0.4111(2) 0.12084(13)
H9 H 0.1404 0.5271 0.1233
C9 C 0.04760(15) 0.3353(2) 0.12510(13)
C10 C 0.04774(15) 0.1661(2) 0.12777(14)
H10 H -0.0107 0.1114 0.1342
C11 C 0.13057(14) 0.0728(2) 0.12141(13)
C12 C 0.31532(15) 0.4216(2) 0.11547(15)
H11 H 0.3806 0.3634 0.1542
H12 H 0.3146 0.5288 0.1447
H13 H 0.3122 0.4364 0.0491
C13 C -0.04323(16) 0.4339(3) 0.13067(15)
H14 H -0.0970 0.3598 0.1364
H15 H -0.0746 0.5001 0.0717
H16 H -0.0171 0.5059 0.1876
C14 C 0.12361(16) -0.1104(2) 0.13462(15)
H17 H 0.0772 -0.1322 0.1698
H18 H 0.1946 -0.1539 0.1718
H19 H 0.0946 -0.1635 0.0708
B1 B 0.69001(17) 0.5508(3) 0.41136(16)
Cl1 Cl 0.58362(4) 0.49863(6) 0.29056(4)
Cl2 Cl 0.73331(4) 0.34800(5) 0.47977(4)
C1 C 0.64299(14) 0.6449(2) 0.48266(13)
N1 N 0.54391(12) 0.68974(19) 0.47252(12)
C2 C 0.54647(18) 0.7670(2) 0.55580(16)
H1 H 0.4874 0.8111 0.5664
C3 C 0.64716(18) 0.7685(2) 0.61873(15)
H2 H 0.6733 0.8131 0.6825
N2 N 0.70580(12) 0.69272(19) 0.57326(11)
C4 C 0.44512(15) 0.6708(3) 0.38728(15)
H3 H 0.4504 0.7309 0.3323
H4 H 0.3859 0.7141 0.4019
H5 H 0.4330 0.5546 0.3705
C5 C 0.82032(15) 0.6654(3) 0.62141(15)
H6 H 0.8505 0.7449 0.6741
H7 H 0.8537 0.6785 0.5741
H8 H 0.8333 0.5543 0.6482
C6 C 0.78315(14) 0.6491(2) 0.39251(13)
C7 C 0.77967(14) 0.8230(2) 0.38700(13)
C8 C 0.86354(15) 0.9111(2) 0.37916(13)
H9 H 0.8596 1.0271 0.3767
C9 C 0.95240(15) 0.8353(2) 0.37490(13)
C10 C 0.95226(15) 0.6661(2) 0.37223(14)
H10 H 1.0107 0.6114 0.3658
C11 C 0.86943(14) 0.5728(2) 0.37859(13)
C12 C 0.68468(15) 0.9216(2) 0.38453(15)
H11 H 0.6194 0.8634 0.3458
H12 H 0.6854 1.0288 0.3553
H13 H 0.6878 0.9364 0.4509
C13 C 1.04323(16) 0.9339(3) 0.36933(15)
H14 H 1.0970 0.8598 0.3636
H15 H 1.0746 1.0001 0.4283
H16 H 1.0171 1.0059 0.3124
C14 C 0.87639(16) 0.3896(2) 0.36538(15)
H17 H 0.9228 0.3678 0.3302
H18 H 0.8054 0.3461 0.3282
H19 H 0.9054 0.3365 0.4292
B1 B 0.69001(17) 0.9492(3) 0.91136(16)
Cl1 Cl 0.58362(4) 1.00137(6) 0.79056(4)
Cl2 Cl 0.73331(4) 1.15200(5) 0.97977(4)
C1 C 0.64299(14) 0.8551(2) 0.98266(13)
N1 N 0.54391(12) 0.81026(19) 0.97252(12)
C2 C 0.54647(18) 0.7330(2) 1.05580(16)
H1 H 0.4874 0.6889 1.0664
C3 C 0.64716(18) 0.7315(2) 1.11873(15)
H2 H 0.6733 0.6869 1.1825
N2 N 0.70580(12) 0.80728(19) 1.07326(11)
C4 C 0.44512(15) 0.8292(3) 0.88728(15)
H3 H 0.4504 0.7691 0.8323
H4 H 0.3859 0.7859 0.9019
H5 H 0.4330 0.9454 0.8705
C5 C 0.82032(15) 0.8346(3) 1.12141(15)
H6 H 0.8505 0.7551 1.1741
H7 H 0.8537 0.8215 1.0741
H8 H 0.8333 0.9457 1.1482
C6 C 0.78315(14) 0.8509(2) 0.89251(13)
C7 C 0.77967(14) 0.6770(2) 0.88700(13)
C8 C 0.86354(15) 0.5889(2) 0.87916(13)
H9 H 0.8596 0.4729 0.8767
C9 C 0.95240(15) 0.6647(2) 0.87490(13)
C10 C 0.95226(15) 0.8339(2) 0.87223(14)
H10 H 1.0107 0.8886 0.8658
C11 C 0.86943(14) 0.9272(2) 0.87859(13)
C12 C 0.68468(15) 0.5784(2) 0.88453(15)
H11 H 0.6194 0.6366 0.8458
H12 H 0.6854 0.4712 0.8553
H13 H 0.6878 0.5636 0.9509
C13 C 1.04323(16) 0.5661(3) 0.86933(15)
H14 H 1.0970 0.6402 0.8636
H15 H 1.0746 0.4999 0.9283
H16 H 1.0171 0.4941 0.8124
C14 C 0.87639(16) 1.1104(2) 0.86538(15)
H17 H 0.9228 1.1322 0.8302
H18 H 0.8054 1.1539 0.8282
H19 H 0.9054 1.1635 0.9292
B1 B 0.30999(17) 0.4492(3) 0.58864(16)
Cl1 Cl 0.41638(4) 0.50137(6) 0.70944(4)
Cl2 Cl 0.26669(4) 0.65200(5) 0.52023(4)
C1 C 0.35701(14) 0.3551(2) 0.51734(13)
N1 N 0.45609(12) 0.31026(19) 0.52748(12)
C2 C 0.45353(18) 0.2330(2) 0.44420(16)
H1 H 0.5126 0.1889 0.4336
C3 C 0.35284(18) 0.2315(2) 0.38127(15)
H2 H 0.3267 0.1869 0.3175
N2 N 0.29420(12) 0.30728(19) 0.42674(11)
C4 C 0.55488(15) 0.3292(3) 0.61272(15)
H3 H 0.5496 0.2691 0.6677
H4 H 0.6141 0.2859 0.5981
H5 H 0.5670 0.4454 0.6295
C5 C 0.17968(15) 0.3346(3) 0.37859(15)
H6 H 0.1495 0.2551 0.3259
H7 H 0.1463 0.3215 0.4259
H8 H 0.1667 0.4457 0.3518
C6 C 0.21685(14) 0.3509(2) 0.60749(13)
C7 C 0.22033(14) 0.1770(2) 0.61300(13)
C8 C 0.13646(15) 0.0889(2) 0.62084(13)
H9 H 0.1404 -0.0271 0.6233
C9 C 0.04760(15) 0.1647(2) 0.62510(13)
C10 C 0.04774(15) 0.3339(2) 0.62777(14)
H10 H -0.0107 0.3886 0.6342
C11 C 0.13057(14) 0.4272(2) 0.62141(13)
C12 C 0.31532(15) 0.0784(2) 0.61547(15)
H11 H 0.3806 0.1366 0.6542
H12 H 0.3146 -0.0288 0.6447
H13 H 0.3122 0.0636 0.5491
C13 C -0.04323(16) 0.0661(3) 0.63067(15)
H14 H -0.0970 0.1402 0.6364
H15 H -0.0746 -0.0001 0.5717
H16 H -0.0171 -0.0059 0.6876
C14 C 0.12361(16) 0.6104(2) 0.63462(15)
H17 H 0.0772 0.6322 0.6698
H18 H 0.1946 0.6539 0.6718
H19 H 0.0946 0.6635 0.5708

#END
