
#######################################################################
#
#                 Cambridge Crystallographic Data Centre
#                                CCDC 
#
#######################################################################
#
# If this CIF has been generated from an entry in the Cambridge 
# Structural Database, then it will include bibliographic, chemical, 
# crystal, experimental, refinement or atomic coordinate data resulting 
# from the CCDC's data processing and validation procedures.
#
#######################################################################

data_ADAJEV
_symmetry_cell_setting           orthorhombic
_symmetry_space_group_name_H-M   'C m c 21'
_symmetry_Int_Tables_number      36
_space_group_name_Hall           'C 2n -2'
loop_
_symmetry_equiv_pos_site_id
_symmetry_equiv_pos_as_xyz
1 x,y,z
2 -x,-y,1/2+z
3 x,-y,1/2+z
4 -x,y,z
5 1/2+x,1/2+y,z
6 1/2-x,1/2-y,1/2+z
7 1/2+x,1/2-y,1/2+z
8 1/2-x,1/2+y,z
_cell_length_a                   29.875(6)
_cell_length_b                   6.0270(12)
_cell_length_c                   7.2560(15)
_cell_angle_alpha                90
_cell_angle_beta                 90
_cell_angle_gamma                90
_cell_volume                     1306.49
loop_
_atom_site_label
_atom_site_type_symbol
_atom_site_fract_x
_atom_site_fract_y
_atom_site_fract_z
O1 O 0.17114(5) -0.1266(3) 0.1160(5)
O2 O 0.0000 0.4390(3) -0.1025(3)
C1 C 0.12308(6) 0.1729(3) 0.0456(3)
C2 C 0.11922(7) 0.3845(3) -0.0292(3)
H1 H 0.1447 0.4704 -0.0472
C3 C 0.07776(7) 0.4680(3) -0.0768(3)
H2 H 0.0754 0.6091 -0.1277
C4 C 0.03987(6) 0.3413(3) -0.0487(3)
C5 C 0.04197(6) 0.1272(3) 0.0262(3)
C6 C 0.08396(6) 0.0465(3) 0.0721(3)
H3 H 0.0864 -0.0952 0.1219
C7 C 0.16732(7) 0.0715(4) 0.0911(4)
C8 C 0.20751(8) 0.2214(5) 0.1045(7)
H4 H 0.2337 0.1342 0.1304
H5 H 0.2030 0.3270 0.2017
H6 H 0.2115 0.2984 -0.0102
C9 C 0.0000 -0.0111(5) 0.0458(5)
H7 H 0.0000 -0.0826 0.1656
H8 H 0.0000 -0.1264 -0.0475
O1C O -0.17114(5) -0.1266(3) 0.1160(5)
C1C C -0.12308(6) 0.1729(3) 0.0456(3)
C2C C -0.11922(7) 0.3845(3) -0.0292(3)
H1C H -0.1447 0.4704 -0.0472
C3C C -0.07776(7) 0.4680(3) -0.0768(3)
H2C H -0.0754 0.6091 -0.1277
C4C C -0.03987(6) 0.3413(3) -0.0487(3)
C5C C -0.04197(6) 0.1272(3) 0.0262(3)
C6C C -0.08396(6) 0.0465(3) 0.0721(3)
H3C H -0.0864 -0.0952 0.1219
C7C C -0.16732(7) 0.0715(4) 0.0911(4)
C8C C -0.20751(8) 0.2214(5) 0.1045(7)
H4C H -0.2337 0.1342 0.1304
H5C H -0.2030 0.3270 0.2017
H6C H -0.2115 0.2984 -0.0102
O1 O 1.17114(5) -0.1266(3) 0.1160(5)
O2 O 1.0000 0.4390(3) -0.1025(3)
C1 C 1.12308(6) 0.1729(3) 0.0456(3)
C2 C 1.11922(7) 0.3845(3) -0.0292(3)
H1 H 1.1447 0.4704 -0.0472
C3 C 1.07776(7) 0.4680(3) -0.0768(3)
H2 H 1.0754 0.6091 -0.1277
C4 C 1.03987(6) 0.3413(3) -0.0487(3)
C5 C 1.04197(6) 0.1272(3) 0.0262(3)
C6 C 1.08396(6) 0.0465(3) 0.0721(3)
H3 H 1.0864 -0.0952 0.1219
C7 C 1.16732(7) 0.0715(4) 0.0911(4)
C8 C 1.20751(8) 0.2214(5) 0.1045(7)
H4 H 1.2337 0.1342 0.1304
H5 H 1.2030 0.3270 0.2017
H6 H 1.2115 0.2984 -0.0102
C9 C 1.0000 -0.0111(5) 0.0458(5)
H7 H 1.0000 -0.0826 0.1656
H8 H 1.0000 -0.1264 -0.0475
O1C O 0.82886(5) -0.1266(3) 0.1160(5)
C1C C 0.87692(6) 0.1729(3) 0.0456(3)
C2C C 0.88078(7) 0.3845(3) -0.0292(3)
H1C H 0.8553 0.4704 -0.0472
C3C C 0.92224(7) 0.4680(3) -0.0768(3)
H2C H 0.9246 0.6091 -0.1277
C4C C 0.96013(6) 0.3413(3) -0.0487(3)
C5C C 0.95803(6) 0.1272(3) 0.0262(3)
C6C C 0.91604(6) 0.0465(3) 0.0721(3)
H3C H 0.9136 -0.0952 0.1219
C7C C 0.83268(7) 0.0715(4) 0.0911(4)
C8C C 0.79249(8) 0.2214(5) 0.1045(7)
H4C H 0.7663 0.1342 0.1304
H5C H 0.7970 0.3270 0.2017
H6C H 0.7885 0.2984 -0.0102
O1 O -0.17114(5) 1.1266(3) 0.6160(5)
O2 O 0.0000 0.5610(3) 0.3975(3)
C1 C -0.12308(6) 0.8271(3) 0.5456(3)
C2 C -0.11922(7) 0.6155(3) 0.4708(3)
H1 H -0.1447 0.5296 0.4528
C3 C -0.07776(7) 0.5320(3) 0.4232(3)
H2 H -0.0754 0.3909 0.3723
C4 C -0.03987(6) 0.6587(3) 0.4513(3)
C5 C -0.04197(6) 0.8728(3) 0.5262(3)
C6 C -0.08396(6) 0.9535(3) 0.5721(3)
H3 H -0.0864 1.0952 0.6219
C7 C -0.16732(7) 0.9285(4) 0.5911(4)
C8 C -0.20751(8) 0.7786(5) 0.6045(7)
H4 H -0.2337 0.8658 0.6304
H5 H -0.2030 0.6730 0.7017
H6 H -0.2115 0.7016 0.4898
C9 C 0.0000 1.0111(5) 0.5458(5)
H7 H 0.0000 1.0826 0.6656
H8 H 0.0000 1.1264 0.4525
O1C O 0.17114(5) 1.1266(3) 0.6160(5)
C1C C 0.12308(6) 0.8271(3) 0.5456(3)
C2C C 0.11922(7) 0.6155(3) 0.4708(3)
H1C H 0.1447 0.5296 0.4528
C3C C 0.07776(7) 0.5320(3) 0.4232(3)
H2C H 0.0754 0.3909 0.3723
C4C C 0.03987(6) 0.6587(3) 0.4513(3)
C5C C 0.04197(6) 0.8728(3) 0.5262(3)
C6C C 0.08396(6) 0.9535(3) 0.5721(3)
H3C H 0.0864 1.0952 0.6219
C7C C 0.16732(7) 0.9285(4) 0.5911(4)
C8C C 0.20751(8) 0.7786(5) 0.6045(7)
H4C H 0.2337 0.8658 0.6304
H5C H 0.2030 0.6730 0.7017
H6C H 0.2115 0.7016 0.4898
O1 O 0.82886(5) 1.1266(3) 0.6160(5)
O2 O 1.0000 0.5610(3) 0.3975(3)
C1 C 0.87692(6) 0.8271(3) 0.5456(3)
C2 C 0.88078(7) 0.6155(3) 0.4708(3)
H1 H 0.8553 0.5296 0.4528
C3 C 0.92224(7) 0.5320(3) 0.4232(3)
H2 H 0.9246 0.3909 0.3723
C4 C 0.96013(6) 0.6587(3) 0.4513(3)
C5 C 0.95803(6) 0.8728(3) 0.5262(3)
C6 C 0.91604(6) 0.9535(3) 0.5721(3)
H3 H 0.9136 1.0952 0.6219
C7 C 0.83268(7) 0.9285(4) 0.5911(4)
C8 C 0.79249(8) 0.7786(5) 0.6045(7)
H4 H 0.7663 0.8658 0.6304
H5 H 0.7970 0.6730 0.7017
H6 H 0.7885 0.7016 0.4898
C9 C 1.0000 1.0111(5) 0.5458(5)
H7 H 1.0000 1.0826 0.6656
H8 H 1.0000 1.1264 0.4525
O1C O 1.17114(5) 1.1266(3) 0.6160(5)
C1C C 1.12308(6) 0.8271(3) 0.5456(3)
C2C C 1.11922(7) 0.6155(3) 0.4708(3)
H1C H 1.1447 0.5296 0.4528
C3C C 1.07776(7) 0.5320(3) 0.4232(3)
H2C H 1.0754 0.3909 0.3723
C4C C 1.03987(6) 0.6587(3) 0.4513(3)
C5C C 1.04197(6) 0.8728(3) 0.5262(3)
C6C C 1.08396(6) 0.9535(3) 0.5721(3)
H3C H 1.0864 1.0952 0.6219
C7C C 1.16732(7) 0.9285(4) 0.5911(4)
C8C C 1.20751(8) 0.7786(5) 0.6045(7)
H4C H 1.2337 0.8658 0.6304
H5C H 1.2030 0.6730 0.7017
H6C H 1.2115 0.7016 0.4898
O1 O 0.67114(5) 0.3734(3) 0.1160(5)
O2 O 0.5000 0.9390(3) -0.1025(3)
C1 C 0.62308(6) 0.6729(3) 0.0456(3)
C2 C 0.61922(7) 0.8845(3) -0.0292(3)
H1 H 0.6447 0.9704 -0.0472
C3 C 0.57776(7) 0.9680(3) -0.0768(3)
H2 H 0.5754 1.1091 -0.1277
C4 C 0.53987(6) 0.8413(3) -0.0487(3)
C5 C 0.54197(6) 0.6272(3) 0.0262(3)
C6 C 0.58396(6) 0.5465(3) 0.0721(3)
H3 H 0.5864 0.4048 0.1219
C7 C 0.66732(7) 0.5715(4) 0.0911(4)
C8 C 0.70751(8) 0.7214(5) 0.1045(7)
H4 H 0.7337 0.6342 0.1304
H5 H 0.7030 0.8270 0.2017
H6 H 0.7115 0.7984 -0.0102
C9 C 0.5000 0.4889(5) 0.0458(5)
H7 H 0.5000 0.4174 0.1656
H8 H 0.5000 0.3736 -0.0475
O1C O 0.32886(5) 0.3734(3) 0.1160(5)
C1C C 0.37692(6) 0.6729(3) 0.0456(3)
C2C C 0.38078(7) 0.8845(3) -0.0292(3)
H1C H 0.3553 0.9704 -0.0472
C3C C 0.42224(7) 0.9680(3) -0.0768(3)
H2C H 0.4246 1.1091 -0.1277
C4C C 0.46013(6) 0.8413(3) -0.0487(3)
C5C C 0.45803(6) 0.6272(3) 0.0262(3)
C6C C 0.41604(6) 0.5465(3) 0.0721(3)
H3C H 0.4136 0.4048 0.1219
C7C C 0.33268(7) 0.5715(4) 0.0911(4)
C8C C 0.29249(8) 0.7214(5) 0.1045(7)
H4C H 0.2663 0.6342 0.1304
H5C H 0.2970 0.8270 0.2017
H6C H 0.2885 0.7984 -0.0102
O1 O 0.32886(5) 0.6266(3) 0.6160(5)
O2 O 0.5000 0.0610(3) 0.3975(3)
C1 C 0.37692(6) 0.3271(3) 0.5456(3)
C2 C 0.38078(7) 0.1155(3) 0.4708(3)
H1 H 0.3553 0.0296 0.4528
C3 C 0.42224(7) 0.0320(3) 0.4232(3)
H2 H 0.4246 -0.1091 0.3723
C4 C 0.46013(6) 0.1587(3) 0.4513(3)
C5 C 0.45803(6) 0.3728(3) 0.5262(3)
C6 C 0.41604(6) 0.4535(3) 0.5721(3)
H3 H 0.4136 0.5952 0.6219
C7 C 0.33268(7) 0.4285(4) 0.5911(4)
C8 C 0.29249(8) 0.2786(5) 0.6045(7)
H4 H 0.2663 0.3658 0.6304
H5 H 0.2970 0.1730 0.7017
H6 H 0.2885 0.2016 0.4898
C9 C 0.5000 0.5111(5) 0.5458(5)
H7 H 0.5000 0.5826 0.6656
H8 H 0.5000 0.6264 0.4525
O1C O 0.67114(5) 0.6266(3) 0.6160(5)
C1C C 0.62308(6) 0.3271(3) 0.5456(3)
C2C C 0.61922(7) 0.1155(3) 0.4708(3)
H1C H 0.6447 0.0296 0.4528
C3C C 0.57776(7) 0.0320(3) 0.4232(3)
H2C H 0.5754 -0.1091 0.3723
C4C C 0.53987(6) 0.1587(3) 0.4513(3)
C5C C 0.54197(6) 0.3728(3) 0.5262(3)
C6C C 0.58396(6) 0.4535(3) 0.5721(3)
H3C H 0.5864 0.5952 0.6219
C7C C 0.66732(7) 0.4285(4) 0.5911(4)
C8C C 0.70751(8) 0.2786(5) 0.6045(7)
H4C H 0.7337 0.3658 0.6304
H5C H 0.7030 0.1730 0.7017
H6C H 0.7115 0.2016 0.4898

#END
