./ADAMAN02_from_xyz.cif_generated_by_CrystalShift
_symmetry_cell_setting triclinic
_symmetry_space_group_name_H-M 'P 1'
loop_
_symmetry_equiv_pos_site_id
_symmetry_equiv_pos_as_xyz
1 x,y,z
_cell_length_a 6.600000
_cell_length_b 6.600000
_cell_length_c 8.810000
_cell_angle_alpha 90.000000
_cell_angle_beta 90.000000
_cell_angle_gamma 90.000000
_cell_volume 383.763600
loop_
_atom_site_label
_atom_site_type_symbol
_atom_site_fract_x
_atom_site_fract_y
_atom_site_fract_z
C1 C -0.029600 0.187000 0.099000
C2 C 0.158000 0.218700 -0.000900
C3 C 0.000000 0.000000 0.200600
H4 H -0.054000 0.317000 0.164000
H5 H 0.141000 0.017000 0.267000
H6 H 0.290000 0.237000 0.070000
H7 H 0.129000 0.354000 -0.064000
C8 C -0.187000 -0.029600 -0.099000
C9 C 0.029600 -0.187000 0.099000
C10 C 0.187000 0.029600 -0.099000
C11 C -0.218700 0.158000 0.000900
C12 C -0.158000 -0.218700 -0.000900
C13 C 0.218700 -0.158000 0.000900
C14 C -0.000000 -0.000000 -0.200600
H15 H -0.317000 -0.054000 -0.164000
H16 H 0.054000 -0.317000 0.164000
H17 H 0.317000 0.054000 -0.164000
H18 H -0.017000 0.141000 -0.267000
H19 H -0.141000 -0.017000 0.267000
H20 H 0.017000 -0.141000 -0.267000
H21 H -0.237000 0.290000 -0.070000
H22 H -0.290000 -0.237000 0.070000
H23 H 0.237000 -0.290000 -0.070000
H24 H -0.354000 0.129000 0.064000
H25 H -0.129000 -0.354000 -0.064000
H26 H 0.354000 -0.129000 0.064000
C27 C -0.029600 0.187000 1.099000
C28 C 0.158000 0.218700 0.999100
C29 C 0.000000 0.000000 1.200600
H30 H -0.054000 0.317000 1.164000
H31 H 0.141000 0.017000 1.267000
H32 H 0.290000 0.237000 1.070000
H33 H 0.129000 0.354000 0.936000
C34 C -0.187000 -0.029600 0.901000
C35 C 0.029600 -0.187000 1.099000
C36 C 0.187000 0.029600 0.901000
C37 C -0.218700 0.158000 1.000900
C38 C -0.158000 -0.218700 0.999100
C39 C 0.218700 -0.158000 1.000900
C40 C 0.000000 0.000000 0.799400
H41 H -0.317000 -0.054000 0.836000
H42 H 0.054000 -0.317000 1.164000
H43 H 0.317000 0.054000 0.836000
H44 H -0.017000 0.141000 0.733000
H45 H -0.141000 -0.017000 1.267000
H46 H 0.017000 -0.141000 0.733000
H47 H -0.237000 0.290000 0.930000
H48 H -0.290000 -0.237000 1.070000
H49 H 0.237000 -0.290000 0.930000
H50 H -0.354000 0.129000 1.064000
H51 H -0.129000 -0.354000 0.936000
H52 H 0.354000 -0.129000 1.064000
C53 C -0.029600 1.187000 0.099000
C54 C 0.158000 1.218700 -0.000900
C55 C 0.000000 1.000000 0.200600
H56 H -0.054000 1.317000 0.164000
H57 H 0.141000 1.017000 0.267000
H58 H 0.290000 1.237000 0.070000
H59 H 0.129000 1.354000 -0.064000
C60 C -0.187000 0.970400 -0.099000
C61 C 0.029600 0.813000 0.099000
C62 C 0.187000 1.029600 -0.099000
C63 C -0.218700 1.158000 0.000900
C64 C -0.158000 0.781300 -0.000900
C65 C 0.218700 0.842000 0.000900
C66 C 0.000000 1.000000 -0.200600
H67 H -0.317000 0.946000 -0.164000
H68 H 0.054000 0.683000 0.164000
H69 H 0.317000 1.054000 -0.164000
H70 H -0.017000 1.141000 -0.267000
H71 H -0.141000 0.983000 0.267000
H72 H 0.017000 0.859000 -0.267000
H73 H -0.237000 1.290000 -0.070000
H74 H -0.290000 0.763000 0.070000
H75 H 0.237000 0.710000 -0.070000
H76 H -0.354000 1.129000 0.064000
H77 H -0.129000 0.646000 -0.064000
H78 H 0.354000 0.871000 0.064000
C79 C -0.029600 1.187000 1.099000
C80 C 0.158000 1.218700 0.999100
C81 C 0.000000 1.000000 1.200600
H82 H -0.054000 1.317000 1.164000
H83 H 0.141000 1.017000 1.267000
H84 H 0.290000 1.237000 1.070000
H85 H 0.129000 1.354000 0.936000
C86 C -0.187000 0.970400 0.901000
C87 C 0.029600 0.813000 1.099000
C88 C 0.187000 1.029600 0.901000
C89 C -0.218700 1.158000 1.000900
C90 C -0.158000 0.781300 0.999100
C91 C 0.218700 0.842000 1.000900
C92 C 0.000000 1.000000 0.799400
H93 H -0.317000 0.946000 0.836000
H94 H 0.054000 0.683000 1.164000
H95 H 0.317000 1.054000 0.836000
H96 H -0.017000 1.141000 0.733000
H97 H -0.141000 0.983000 1.267000
H98 H 0.017000 0.859000 0.733000
H99 H -0.237000 1.290000 0.930000
H100 H -0.290000 0.763000 1.070000
H101 H 0.237000 0.710000 0.930000
H102 H -0.354000 1.129000 1.064000
H103 H -0.129000 0.646000 0.936000
H104 H 0.354000 0.871000 1.064000
C105 C 0.970400 0.187000 0.099000
C106 C 1.158000 0.218700 -0.000900
C107 C 1.000000 0.000000 0.200600
H108 H 0.946000 0.317000 0.164000
H109 H 1.141000 0.017000 0.267000
H110 H 1.290000 0.237000 0.070000
H111 H 1.129000 0.354000 -0.064000
C112 C 0.813000 -0.029600 -0.099000
C113 C 1.029600 -0.187000 0.099000
C114 C 1.187000 0.029600 -0.099000
C115 C 0.781300 0.158000 0.000900
C116 C 0.842000 -0.218700 -0.000900
C117 C 1.218700 -0.158000 0.000900
C118 C 1.000000 0.000000 -0.200600
H119 H 0.683000 -0.054000 -0.164000
H120 H 1.054000 -0.317000 0.164000
H121 H 1.317000 0.054000 -0.164000
H122 H 0.983000 0.141000 -0.267000
H123 H 0.859000 -0.017000 0.267000
H124 H 1.017000 -0.141000 -0.267000
H125 H 0.763000 0.290000 -0.070000
H126 H 0.710000 -0.237000 0.070000
H127 H 1.237000 -0.290000 -0.070000
H128 H 0.646000 0.129000 0.064000
H129 H 0.871000 -0.354000 -0.064000
H130 H 1.354000 -0.129000 0.064000
C131 C 0.970400 0.187000 1.099000
C132 C 1.158000 0.218700 0.999100
C133 C 1.000000 0.000000 1.200600
H134 H 0.946000 0.317000 1.164000
H135 H 1.141000 0.017000 1.267000
H136 H 1.290000 0.237000 1.070000
H137 H 1.129000 0.354000 0.936000
C138 C 0.813000 -0.029600 0.901000
C139 C 1.029600 -0.187000 1.099000
C140 C 1.187000 0.029600 0.901000
C141 C 0.781300 0.158000 1.000900
C142 C 0.842000 -0.218700 0.999100
C143 C 1.218700 -0.158000 1.000900
C144 C 1.000000 0.000000 0.799400
H145 H 0.683000 -0.054000 0.836000
H146 H 1.054000 -0.317000 1.164000
H147 H 1.317000 0.054000 0.836000
H148 H 0.983000 0.141000 0.733000
H149 H 0.859000 -0.017000 1.267000
H150 H 1.017000 -0.141000 0.733000
H151 H 0.763000 0.290000 0.930000
H152 H 0.710000 -0.237000 1.070000
H153 H 1.237000 -0.290000 0.930000
H154 H 0.646000 0.129000 1.064000
H155 H 0.871000 -0.354000 0.936000
H156 H 1.354000 -0.129000 1.064000
C157 C 0.970400 1.187000 0.099000
C158 C 1.158000 1.218700 -0.000900
C159 C 1.000000 1.000000 0.200600
H160 H 0.946000 1.317000 0.164000
H161 H 1.141000 1.017000 0.267000
H162 H 1.290000 1.237000 0.070000
H163 H 1.129000 1.354000 -0.064000
C164 C 0.813000 0.970400 -0.099000
C165 C 1.029600 0.813000 0.099000
C166 C 1.187000 1.029600 -0.099000
C167 C 0.781300 1.158000 0.000900
C168 C 0.842000 0.781300 -0.000900
C169 C 1.218700 0.842000 0.000900
C170 C 1.000000 1.000000 -0.200600
H171 H 0.683000 0.946000 -0.164000
H172 H 1.054000 0.683000 0.164000
H173 H 1.317000 1.054000 -0.164000
H174 H 0.983000 1.141000 -0.267000
H175 H 0.859000 0.983000 0.267000
H176 H 1.017000 0.859000 -0.267000
H177 H 0.763000 1.290000 -0.070000
H178 H 0.710000 0.763000 0.070000
H179 H 1.237000 0.710000 -0.070000
H180 H 0.646000 1.129000 0.064000
H181 H 0.871000 0.646000 -0.064000
H182 H 1.354000 0.871000 0.064000
C183 C 0.970400 1.187000 1.099000
C184 C 1.158000 1.218700 0.999100
C185 C 1.000000 1.000000 1.200600
H186 H 0.946000 1.317000 1.164000
H187 H 1.141000 1.017000 1.267000
H188 H 1.290000 1.237000 1.070000
H189 H 1.129000 1.354000 0.936000
C190 C 0.813000 0.970400 0.901000
C191 C 1.029600 0.813000 1.099000
C192 C 1.187000 1.029600 0.901000
C193 C 0.781300 1.158000 1.000900
C194 C 0.842000 0.781300 0.999100
C195 C 1.218700 0.842000 1.000900
C196 C 1.000000 1.000000 0.799400
H197 H 0.683000 0.946000 0.836000
H198 H 1.054000 0.683000 1.164000
H199 H 1.317000 1.054000 0.836000
H200 H 0.983000 1.141000 0.733000
H201 H 0.859000 0.983000 1.267000
H202 H 1.017000 0.859000 0.733000
H203 H 0.763000 1.290000 0.930000
H204 H 0.710000 0.763000 1.070000
H205 H 1.237000 0.710000 0.930000
H206 H 0.646000 1.129000 1.064000
H207 H 0.871000 0.646000 0.936000
H208 H 1.354000 0.871000 1.064000
C209 C 0.529600 0.687000 0.401000
C210 C 0.342000 0.718700 0.500900
C211 C 0.500000 0.500000 0.299400
H212 H 0.554000 0.817000 0.336000
H213 H 0.359000 0.517000 0.233000
H214 H 0.210000 0.737000 0.430000
H215 H 0.371000 0.854000 0.564000
C216 C 0.687000 0.470400 0.599000
C217 C 0.470400 0.313000 0.401000
C218 C 0.313000 0.529600 0.599000
C219 C 0.718700 0.658000 0.499100
C220 C 0.658000 0.281300 0.500900
C221 C 0.281300 0.342000 0.499100
C222 C 0.500000 0.500000 0.700600
H223 H 0.817000 0.446000 0.664000
H224 H 0.446000 0.183000 0.336000
H225 H 0.183000 0.554000 0.664000
H226 H 0.517000 0.641000 0.767000
H227 H 0.641000 0.483000 0.233000
H228 H 0.483000 0.359000 0.767000
H229 H 0.737000 0.790000 0.570000
H230 H 0.790000 0.263000 0.430000
H231 H 0.263000 0.210000 0.570000
H232 H 0.854000 0.629000 0.436000
H233 H 0.629000 0.146000 0.564000
H234 H 0.146000 0.371000 0.436000

#END
