./ADAVEH_from_xyz.cif_generated_by_CrystalShift
_symmetry_cell_setting triclinic
_symmetry_space_group_name_H-M 'P 1'
loop_
_symmetry_equiv_pos_site_id
_symmetry_equiv_pos_as_xyz
1 x,y,z
_cell_length_a 6.047000
_cell_length_b 7.591000
_cell_length_c 17.112000
_cell_angle_alpha 94.460000
_cell_angle_beta 94.220000
_cell_angle_gamma 98.860000
_cell_volume 770.840933
loop_
_atom_site_label
_atom_site_type_symbol
_atom_site_fract_x
_atom_site_fract_y
_atom_site_fract_z
O1 O 0.464900 0.498500 0.369250
C2 C 0.402800 0.501500 0.289080
C3 C 0.557700 0.613200 0.255390
C4 C 0.733900 0.684100 0.316370
C5 C 0.668700 0.610600 0.384370
C6 C 0.195800 0.381800 0.259610
C7 C 0.021200 0.342200 0.307100
H8 H 0.035400 0.391400 0.359000
C9 C -0.173800 0.229500 0.277200
H10 H -0.290000 0.203700 0.309300
C11 C -0.197400 0.155000 0.200100
H12 H -0.329600 0.080600 0.180200
C13 C -0.024400 0.191500 0.153100
H14 H -0.038900 0.140000 0.101500
C15 C 0.170600 0.304100 0.182000
H16 H 0.286200 0.328500 0.149500
C17 C 0.549100 0.661700 0.173280
C18 C 0.373900 0.739900 0.142300
H19 H 0.257300 0.758800 0.172900
C20 C 0.370700 0.790200 0.066700
H21 H 0.252400 0.843400 0.046800
C22 C 0.538900 0.762800 0.020600
H23 H 0.534100 0.796200 -0.030600
C24 C 0.714500 0.686300 0.049500
H25 H 0.829500 0.667800 0.018100
C26 C 0.720900 0.636100 0.126340
H27 H 0.841100 0.585000 0.146200
C28 C 0.937900 0.800900 0.319730
H29 H 0.983300 0.853500 0.275000
C30 C 1.072000 0.837900 0.390200
C31 C 0.996800 0.760500 0.456900
H32 H 1.086700 0.787000 0.504100
C33 C 0.794300 0.646000 0.455940
H34 H 0.746100 0.596100 0.500900
C35 C 1.295600 0.961400 0.394600
H36 H 1.315400 1.008100 0.344600
H37 H 1.414900 0.895800 0.407600
H38 H 1.298200 1.058400 0.434300
O39 O 0.535100 0.501500 0.630750
C40 C 0.597200 0.498500 0.710920
C41 C 0.442300 0.386800 0.744610
C42 C 0.266100 0.315900 0.683630
C43 C 0.331300 0.389400 0.615630
C44 C 0.804200 0.618200 0.740390
C45 C 0.978800 0.657800 0.692900
H46 H 0.964600 0.608600 0.641000
C47 C 1.173800 0.770500 0.722800
H48 H 1.290000 0.796300 0.690700
C49 C 1.197400 0.845000 0.799900
H50 H 1.329600 0.919400 0.819800
C51 C 1.024400 0.808500 0.846900
H52 H 1.038900 0.860000 0.898500
C53 C 0.829400 0.695900 0.818000
H54 H 0.713800 0.671500 0.850500
C55 C 0.450900 0.338300 0.826720
C56 C 0.626100 0.260100 0.857700
H57 H 0.742700 0.241200 0.827100
C58 C 0.629300 0.209800 0.933300
H59 H 0.747600 0.156600 0.953200
C60 C 0.461100 0.237200 0.979400
H61 H 0.465900 0.203800 1.030600
C62 C 0.285500 0.313700 0.950500
H63 H 0.170500 0.332200 0.981900
C64 C 0.279100 0.363900 0.873660
H65 H 0.158900 0.415000 0.853800
C66 C 0.062100 0.199100 0.680270
H67 H 0.016700 0.146500 0.725000
C68 C -0.072000 0.162100 0.609800
C69 C 0.003200 0.239500 0.543100
H70 H -0.086700 0.213000 0.495900
C71 C 0.205700 0.354000 0.544060
H72 H 0.253900 0.403900 0.499100
C73 C -0.295600 0.038600 0.605400
H74 H -0.315400 -0.008100 0.655400
H75 H -0.414900 0.104200 0.592400
H76 H -0.298200 -0.058400 0.565700

#END
