
#######################################################################
#
#                 Cambridge Crystallographic Data Centre
#                                CCDC 
#
#######################################################################
#
# If this CIF has been generated from an entry in the Cambridge 
# Structural Database, then it will include bibliographic, chemical, 
# crystal, experimental, refinement or atomic coordinate data resulting 
# from the CCDC's data processing and validation procedures.
#
#######################################################################

data_ADEDAP
_symmetry_cell_setting           monoclinic
_symmetry_space_group_name_H-M   'P 21/c'
_symmetry_Int_Tables_number      14
_space_group_name_Hall           '-P 2ybc'
loop_
_symmetry_equiv_pos_site_id
_symmetry_equiv_pos_as_xyz
1 x,y,z
2 -x,1/2+y,1/2-z
3 -x,-y,-z
4 x,1/2-y,1/2+z
_cell_length_a                   15.998(4)
_cell_length_b                   5.2993(14)
_cell_length_c                   12.336(3)
_cell_angle_alpha                90
_cell_angle_beta                 111.215(4)
_cell_angle_gamma                90
_cell_volume                     974.947
loop_
_atom_site_label
_atom_site_type_symbol
_atom_site_fract_x
_atom_site_fract_y
_atom_site_fract_z
Cl1 Cl 0.05523(5) 1.49304(13) -0.15980(6)
O1 O 0.44627(11) 0.2076(3) 0.20020(13)
O2 O 0.36922(13) 0.2906(4) 0.31415(15)
C1 C 0.24359(16) 0.9711(4) -0.0265(2)
H1 H 0.2912 0.9050 -0.0438
C2 C 0.19131(17) 1.1567(5) -0.0966(2)
H2 H 0.2033 1.2143 -0.1606
C3 C 0.12096(17) 1.2569(4) -0.0712(2)
C4 C 0.10320(18) 1.1741(5) 0.0235(2)
H3 H 0.0560 1.2432 0.0407
C5 C 0.15578(17) 0.9878(5) 0.0930(2)
H4 H 0.1435 0.9324 0.1572
C6 C 0.22721(16) 0.8797(4) 0.06944(19)
C7 C 0.27884(16) 0.6817(5) 0.14657(19)
H5 H 0.2621 0.6482 0.2099
C8 C 0.34635(15) 0.5402(4) 0.14129(18)
C9 C 0.39502(17) 0.5345(4) 0.0578(2)
H6 H 0.4275 0.6905 0.0611
H7 H 0.3536 0.5082 -0.0212
C10 C 0.45929(17) 0.3123(4) 0.09916(19)
H8 H 0.4466 0.1861 0.0383
H9 H 0.5208 0.3686 0.1192
C11 C 0.38542(17) 0.3419(5) 0.2286(2)
Cl1 Cl 0.94477(5) 0.99304(13) 0.65980(6)
O1 O 0.55373(11) -0.2924(3) 0.29980(13)
O2 O 0.63078(13) -0.2094(4) 0.18585(15)
C1 C 0.75641(16) 0.4711(4) 0.5265(2)
H1 H 0.7088 0.4050 0.5438
C2 C 0.80869(17) 0.6567(5) 0.5966(2)
H2 H 0.7967 0.7143 0.6606
C3 C 0.87904(17) 0.7569(4) 0.5712(2)
C4 C 0.89680(18) 0.6741(5) 0.4765(2)
H3 H 0.9440 0.7432 0.4593
C5 C 0.84422(17) 0.4878(5) 0.4070(2)
H4 H 0.8565 0.4324 0.3428
C6 C 0.77279(16) 0.3797(4) 0.43056(19)
C7 C 0.72116(16) 0.1817(5) 0.35343(19)
H5 H 0.7379 0.1482 0.2901
C8 C 0.65365(15) 0.0402(4) 0.35871(18)
C9 C 0.60498(17) 0.0345(4) 0.4422(2)
H6 H 0.5725 0.1905 0.4389
H7 H 0.6464 0.0082 0.5212
C10 C 0.54071(17) -0.1877(4) 0.40084(19)
H8 H 0.5534 -0.3139 0.4617
H9 H 0.4792 -0.1314 0.3808
C11 C 0.61458(17) -0.1581(5) 0.2714(2)
Cl1 Cl 0.94477(5) -0.49304(13) 1.15980(6)
O1 O 0.55373(11) 0.7924(3) 0.79980(13)
O2 O 0.63078(13) 0.7094(4) 0.68585(15)
C1 C 0.75641(16) 0.0289(4) 1.0265(2)
H1 H 0.7088 0.0950 1.0438
C2 C 0.80869(17) -0.1567(5) 1.0966(2)
H2 H 0.7967 -0.2143 1.1606
C3 C 0.87904(17) -0.2569(4) 1.0712(2)
C4 C 0.89680(18) -0.1741(5) 0.9765(2)
H3 H 0.9440 -0.2432 0.9593
C5 C 0.84422(17) 0.0122(5) 0.9070(2)
H4 H 0.8565 0.0676 0.8428
C6 C 0.77279(16) 0.1203(4) 0.93056(19)
C7 C 0.72116(16) 0.3183(5) 0.85343(19)
H5 H 0.7379 0.3518 0.7901
C8 C 0.65365(15) 0.4598(4) 0.85871(18)
C9 C 0.60498(17) 0.4655(4) 0.9422(2)
H6 H 0.5725 0.3095 0.9389
H7 H 0.6464 0.4918 1.0212
C10 C 0.54071(17) 0.6877(4) 0.90084(19)
H8 H 0.5534 0.8139 0.9617
H9 H 0.4792 0.6314 0.8808
C11 C 0.61458(17) 0.6581(5) 0.7714(2)
Cl1 Cl 0.05523(5) 0.00696(13) 0.34020(6)
O1 O 0.44627(11) 1.2924(3) 0.70020(13)
O2 O 0.36922(13) 1.2094(4) 0.81415(15)
C1 C 0.24359(16) 0.5289(4) 0.4735(2)
H1 H 0.2912 0.5950 0.4562
C2 C 0.19131(17) 0.3433(5) 0.4034(2)
H2 H 0.2033 0.2857 0.3394
C3 C 0.12096(17) 0.2431(4) 0.4288(2)
C4 C 0.10320(18) 0.3259(5) 0.5235(2)
H3 H 0.0560 0.2568 0.5407
C5 C 0.15578(17) 0.5122(5) 0.5930(2)
H4 H 0.1435 0.5676 0.6572
C6 C 0.22721(16) 0.6203(4) 0.56944(19)
C7 C 0.27884(16) 0.8183(5) 0.64657(19)
H5 H 0.2621 0.8518 0.7099
C8 C 0.34635(15) 0.9598(4) 0.64129(18)
C9 C 0.39502(17) 0.9655(4) 0.5578(2)
H6 H 0.4275 0.8095 0.5611
H7 H 0.3536 0.9918 0.4788
C10 C 0.45929(17) 1.1877(4) 0.59916(19)
H8 H 0.4466 1.3139 0.5383
H9 H 0.5208 1.1314 0.6192
C11 C 0.38542(17) 1.1581(5) 0.7286(2)

#END
