./ADEFEV_from_xyz.cif_generated_by_CrystalShift
_symmetry_cell_setting triclinic
_symmetry_space_group_name_H-M 'P 1'
loop_
_symmetry_equiv_pos_site_id
_symmetry_equiv_pos_as_xyz
1 x,y,z
_cell_length_a 7.895000
_cell_length_b 10.704000
_cell_length_c 14.046000
_cell_angle_alpha 105.881000
_cell_angle_beta 100.025000
_cell_angle_gamma 99.190000
_cell_volume 1096.993731
loop_
_atom_site_label
_atom_site_type_symbol
_atom_site_fract_x
_atom_site_fract_y
_atom_site_fract_z
S1 S 0.221670 0.205740 0.327560
Cl2 Cl 0.685340 0.046130 0.211420
Cl3 Cl 0.648260 0.332800 -0.045250
O4 O 0.239900 0.073100 0.319770
O5 O 0.098500 0.261300 0.379930
O6 O 0.626600 0.436400 0.600470
N7 N 0.410400 0.303000 0.384780
H8 H 0.407000 0.379000 0.399000
N9 N 0.740700 0.256800 0.585790
C10 C 0.647800 0.191400 0.187800
C11 C 0.663200 0.204600 0.094200
H12 H 0.692500 0.137600 0.046200
C13 C 0.634700 0.317600 0.073800
C14 C 0.597200 0.418000 0.144400
H15 H 0.582000 0.496100 0.130400
C16 C 0.581700 0.402800 0.237300
H17 H 0.555200 0.471400 0.285300
C18 C 0.604400 0.288700 0.261110
C19 C 0.576300 0.272500 0.362150
H20 H 0.574700 0.179800 0.359100
C21 C 0.171300 0.217000 0.203100
C22 C 0.196100 0.121500 0.122500
H23 H 0.230000 0.045400 0.131600
C24 C 0.170600 0.138800 0.027800
H25 H 0.187700 0.073500 -0.026700
C26 C 0.120700 0.249400 0.011600
C27 C 0.093800 0.343200 0.093200
H28 H 0.058500 0.418600 0.083800
C29 C 0.117900 0.328100 0.188500
H30 H 0.098200 0.392400 0.242700
C31 C 0.096300 0.266600 -0.093000
H32 H 0.206500 0.310200 -0.101100
H33 H 0.010600 0.319500 -0.100500
H34 H 0.056300 0.180800 -0.143700
C35 C 0.728800 0.361900 0.449900
H36 H 0.837700 0.334600 0.440400
H37 H 0.741300 0.453300 0.449100
C38 C 0.697900 0.354500 0.551410
C39 C 0.838300 0.160800 0.539300
H40 H 0.828600 0.156800 0.468600
H41 H 0.785300 0.073200 0.540600
C42 C 1.029700 0.195400 0.592300
H43 H 1.080900 0.284500 0.595600
H44 H 1.090000 0.134500 0.555300
H45 H 1.040600 0.189300 0.660000
C46 C 0.690500 0.245800 0.679400
H47 H 0.712500 0.334000 0.727900
H48 H 0.763100 0.194900 0.709000
C49 C 0.501700 0.180200 0.660300
H50 H 0.429200 0.231200 0.632000
H51 H 0.473900 0.175100 0.723200
H52 H 0.479900 0.092200 0.613400
S53 S 0.778330 0.794260 0.672440
Cl54 Cl 0.314660 0.953870 0.788580
Cl55 Cl 0.351740 0.667200 1.045250
O56 O 0.760100 0.926900 0.680230
O57 O 0.901500 0.738700 0.620070
O58 O 0.373400 0.563600 0.399530
N59 N 0.589600 0.697000 0.615220
H60 H 0.593000 0.621000 0.601000
N61 N 0.259300 0.743200 0.414210
C62 C 0.352200 0.808600 0.812200
C63 C 0.336800 0.795400 0.905800
H64 H 0.307500 0.862400 0.953800
C65 C 0.365300 0.682400 0.926200
C66 C 0.402800 0.582000 0.855600
H67 H 0.418000 0.503900 0.869600
C68 C 0.418300 0.597200 0.762700
H69 H 0.444800 0.528600 0.714700
C70 C 0.395600 0.711300 0.738890
C71 C 0.423700 0.727500 0.637850
H72 H 0.425300 0.820200 0.640900
C73 C 0.828700 0.783000 0.796900
C74 C 0.803900 0.878500 0.877500
H75 H 0.770000 0.954600 0.868400
C76 C 0.829400 0.861200 0.972200
H77 H 0.812300 0.926500 1.026700
C78 C 0.879300 0.750600 0.988400
C79 C 0.906200 0.656800 0.906800
H80 H 0.941500 0.581400 0.916200
C81 C 0.882100 0.671900 0.811500
H82 H 0.901800 0.607600 0.757300
C83 C 0.903700 0.733400 1.093000
H84 H 0.793500 0.689800 1.101100
H85 H 0.989400 0.680500 1.100500
H86 H 0.943700 0.819200 1.143700
C87 C 0.271200 0.638100 0.550100
H88 H 0.162300 0.665400 0.559600
H89 H 0.258700 0.546700 0.550900
C90 C 0.302100 0.645500 0.448590
C91 C 0.161700 0.839200 0.460700
H92 H 0.171400 0.843200 0.531400
H93 H 0.214700 0.926800 0.459400
C94 C -0.029700 0.804600 0.407700
H95 H -0.080900 0.715500 0.404400
H96 H -0.090000 0.865500 0.444700
H97 H -0.040600 0.810700 0.340000
C98 C 0.309500 0.754200 0.320600
H99 H 0.287500 0.666000 0.272100
H100 H 0.236900 0.805100 0.291000
C101 C 0.498300 0.819800 0.339700
H102 H 0.570800 0.768800 0.368000
H103 H 0.526100 0.824900 0.276800
H104 H 0.520100 0.907800 0.386600

#END
