
#######################################################################
#
#                 Cambridge Crystallographic Data Centre
#                                CCDC 
#
#######################################################################
#
# If this CIF has been generated from an entry in the Cambridge 
# Structural Database, then it will include bibliographic, chemical, 
# crystal, experimental, refinement or atomic coordinate data resulting 
# from the CCDC's data processing and validation procedures.
#
#######################################################################

data_ADEKAW01
_symmetry_cell_setting           monoclinic
_symmetry_space_group_name_H-M   'P 21/n'
_symmetry_Int_Tables_number      14
_space_group_name_Hall           '-P 2yn'
loop_
_symmetry_equiv_pos_site_id
_symmetry_equiv_pos_as_xyz
1 x,y,z
2 1/2-x,1/2+y,1/2-z
3 -x,-y,-z
4 1/2+x,1/2-y,1/2+z
_cell_length_a                   7.4524(3)
_cell_length_b                   11.2367(4)
_cell_length_c                   14.3949(3)
_cell_angle_alpha                90
_cell_angle_beta                 102.701(2)
_cell_angle_gamma                90
_cell_volume                     1175.94
loop_
_atom_site_label
_atom_site_type_symbol
_atom_site_fract_x
_atom_site_fract_y
_atom_site_fract_z
N1 N 0.33989(19) 0.02209(12) 0.21775(9)
C1 C 0.2546(2) 0.12766(15) 0.21030(11)
C2 C 0.2716(2) 0.20830(14) 0.28515(10)
C3 C 0.3828(2) 0.17859(13) 0.37300(10)
C4 C 0.4760(2) 0.07098(15) 0.38044(10)
C5 C 0.4504(2) -0.00387(15) 0.30272(11)
C6 C 0.4036(2) 0.25233(14) 0.46237(10)
O1 O 0.49112(18) 0.21469(11) 0.53817(7)
N2 N 0.31632(18) 0.36002(12) 0.45326(8)
N3 N 0.32877(19) 0.42603(12) 0.53490(9)
C7 C 0.2404(2) 0.52468(14) 0.52636(10)
C8 C 0.2506(2) 0.60117(14) 0.61006(10)
C9 C 0.3610(2) 0.57045(14) 0.69811(10)
C10 C 0.3677(2) 0.64497(16) 0.77489(11)
Cl1 Cl 0.50652(7) 0.60557(4) 0.88451(3)
C11 C 0.2685(2) 0.75100(15) 0.76697(12)
C12 C 0.1614(2) 0.78112(15) 0.67912(12)
C13 C 0.1511(2) 0.70700(15) 0.60082(11)
H1 H 0.1783 0.1487 0.1506
H2 H 0.2084 0.2823 0.2764
H3 H 0.5569 0.0490 0.4386
H4 H 0.5140 -0.0777 0.3094
H5 H 0.2549 0.3860 0.3976
H6 H 0.1686 0.5482 0.4662
H7 H 0.4308 0.4990 0.7051
H8 H 0.2745 0.8013 0.8206
H9 H 0.0938 0.8535 0.6721
H10 H 0.0761 0.7286 0.5409
N1 N 0.16011(19) 0.52209(12) 1.28225(9)
C1 C 0.2454(2) 0.62766(15) 1.28970(11)
C2 C 0.2284(2) 0.70830(14) 1.21485(10)
C3 C 0.1172(2) 0.67859(13) 1.12700(10)
C4 C 0.0240(2) 0.57098(15) 1.11956(10)
C5 C 0.0496(2) 0.49613(15) 1.19728(11)
C6 C 0.0964(2) 0.75233(14) 1.03763(10)
O1 O 0.00888(18) 0.71469(11) 0.96183(7)
N2 N 0.18368(18) 0.86002(12) 1.04674(8)
N3 N 0.17123(19) 0.92603(12) 0.96510(9)
C7 C 0.2596(2) 1.02468(14) 0.97364(10)
C8 C 0.2494(2) 1.10117(14) 0.88994(10)
C9 C 0.1390(2) 1.07045(14) 0.80189(10)
C10 C 0.1323(2) 1.14497(16) 0.72511(11)
Cl1 Cl -0.00652(7) 1.10557(4) 0.61549(3)
C11 C 0.2315(2) 1.25100(15) 0.73303(12)
C12 C 0.3386(2) 1.28112(15) 0.82088(12)
C13 C 0.3489(2) 1.20700(15) 0.89918(11)
H1 H 0.3217 0.6487 1.3494
H2 H 0.2916 0.7823 1.2236
H3 H -0.0569 0.5490 1.0614
H4 H -0.0140 0.4223 1.1906
H5 H 0.2451 0.8860 1.1024
H6 H 0.3314 1.0482 1.0338
H7 H 0.0692 0.9990 0.7949
H8 H 0.2255 1.3013 0.6794
H9 H 0.4062 1.3535 0.8279
H10 H 0.4239 1.2286 0.9591
N1 N 0.66011(19) 0.97791(12) 0.78225(9)
C1 C 0.7454(2) 0.87234(15) 0.78970(11)
C2 C 0.7284(2) 0.79170(14) 0.71485(10)
C3 C 0.6172(2) 0.82141(13) 0.62700(10)
C4 C 0.5240(2) 0.92902(15) 0.61956(10)
C5 C 0.5496(2) 1.00387(15) 0.69728(11)
C6 C 0.5964(2) 0.74767(14) 0.53763(10)
O1 O 0.50888(18) 0.78531(11) 0.46183(7)
N2 N 0.68368(18) 0.63998(12) 0.54674(8)
N3 N 0.67123(19) 0.57397(12) 0.46510(9)
C7 C 0.7596(2) 0.47532(14) 0.47364(10)
C8 C 0.7494(2) 0.39883(14) 0.38994(10)
C9 C 0.6390(2) 0.42955(14) 0.30189(10)
C10 C 0.6323(2) 0.35503(16) 0.22511(11)
Cl1 Cl 0.49348(7) 0.39443(4) 0.11549(3)
C11 C 0.7315(2) 0.24900(15) 0.23303(12)
C12 C 0.8386(2) 0.21888(15) 0.32088(12)
C13 C 0.8489(2) 0.29300(15) 0.39918(11)
H1 H 0.8217 0.8513 0.8494
H2 H 0.7916 0.7177 0.7236
H3 H 0.4431 0.9510 0.5614
H4 H 0.4860 1.0777 0.6906
H5 H 0.7451 0.6140 0.6024
H6 H 0.8314 0.4518 0.5338
H7 H 0.5692 0.5010 0.2949
H8 H 0.7255 0.1987 0.1794
H9 H 0.9062 0.1465 0.3279
H10 H 0.9239 0.2714 0.4591
N1 N 0.83989(19) 0.47791(12) -0.28225(9)
C1 C 0.7546(2) 0.37234(15) -0.28970(11)
C2 C 0.7716(2) 0.29170(14) -0.21485(10)
C3 C 0.8828(2) 0.32141(13) -0.12700(10)
C4 C 0.9760(2) 0.42902(15) -0.11956(10)
C5 C 0.9504(2) 0.50387(15) -0.19728(11)
C6 C 0.9036(2) 0.24767(14) -0.03763(10)
O1 O 0.99112(18) 0.28531(11) 0.03817(7)
N2 N 0.81632(18) 0.13998(12) -0.04674(8)
N3 N 0.82877(19) 0.07397(12) 0.03490(9)
C7 C 0.7404(2) -0.02468(14) 0.02636(10)
C8 C 0.7506(2) -0.10117(14) 0.11006(10)
C9 C 0.8610(2) -0.07045(14) 0.19811(10)
C10 C 0.8677(2) -0.14497(16) 0.27489(11)
Cl1 Cl 1.00652(7) -0.10557(4) 0.38451(3)
C11 C 0.7685(2) -0.25100(15) 0.26697(12)
C12 C 0.6614(2) -0.28112(15) 0.17912(12)
C13 C 0.6511(2) -0.20700(15) 0.10082(11)
H1 H 0.6783 0.3513 -0.3494
H2 H 0.7084 0.2177 -0.2236
H3 H 1.0569 0.4510 -0.0614
H4 H 1.0140 0.5777 -0.1906
H5 H 0.7549 0.1140 -0.1024
H6 H 0.6686 -0.0482 -0.0338
H7 H 0.9308 0.0010 0.2051
H8 H 0.7745 -0.3013 0.3206
H9 H 0.5938 -0.3535 0.1721
H10 H 0.5761 -0.2286 0.0409

#END
