
#######################################################################
#
#                 Cambridge Crystallographic Data Centre
#                                CCDC 
#
#######################################################################
#
# If this CIF has been generated from an entry in the Cambridge 
# Structural Database, then it will include bibliographic, chemical, 
# crystal, experimental, refinement or atomic coordinate data resulting 
# from the CCDC's data processing and validation procedures.
#
#######################################################################

data_ADEKUQ
_symmetry_cell_setting           orthorhombic
_symmetry_space_group_name_H-M   'P 21 21 21'
_symmetry_Int_Tables_number      19
_space_group_name_Hall           'P 2ac 2ab'
loop_
_symmetry_equiv_pos_site_id
_symmetry_equiv_pos_as_xyz
1 x,y,z
2 1/2-x,-y,1/2+z
3 1/2+x,1/2-y,-z
4 -x,1/2+y,1/2-z
_cell_length_a                   11.249(2)
_cell_length_b                   10.506(2)
_cell_length_c                   10.376(2)
_cell_angle_alpha                90
_cell_angle_beta                 90
_cell_angle_gamma                90
_cell_volume                     1226.26
loop_
_atom_site_label
_atom_site_type_symbol
_atom_site_fract_x
_atom_site_fract_y
_atom_site_fract_z
S1 S 0.16955(6) 0.58156(9) 1.06940(6)
O1 O 0.54099(17) 0.5478(3) 0.8619(3)
O2 O 0.5025(2) 0.3352(3) 0.9541(3)
N1 N 0.15784(17) 0.4859(2) 0.83058(19)
H1 H 0.1999 0.4576 0.7676
C1 C -0.0449(2) 0.5711(3) 0.8645(3)
H2 H -0.0202 0.6229 0.9321
C2 C -0.1633(2) 0.5720(3) 0.8240(4)
H3 H -0.2174 0.6257 0.8645
C3 C -0.2008(2) 0.4954(3) 0.7262(3)
H4 H -0.2800 0.4969 0.7004
C4 C -0.1210(3) 0.4156(4) 0.6653(3)
H5 H -0.1463 0.3625 0.5991
C5 C -0.0051(2) 0.4153(3) 0.7029(3)
H6 H 0.0487 0.3624 0.6609
C6 C 0.0345(2) 0.4927(2) 0.8031(2)
C7 C 0.22133(18) 0.5149(2) 0.9355(2)
C8 C 0.3500(2) 0.4823(3) 0.9221(2)
C9 C 0.4301(2) 0.5731(4) 0.8716(3)
C10 C 0.3910(3) 0.7012(4) 0.8276(4)
H7 H 0.4584 0.7481 0.7965
H8 H 0.3556 0.7462 0.8985
H9 H 0.3338 0.6921 0.7596
C11 C 0.3930(3) 0.3631(3) 0.9603(3)
C12 C 0.3130(4) 0.2610(4) 1.0124(5)
H10 H 0.3594 0.1870 1.0331
H11 H 0.2545 0.2393 0.9487
H12 H 0.2740 0.2914 1.0887
H13 H 0.535(4) 0.400(3) 0.918(5)
S1 S 0.33045(6) 0.41844(9) 0.56940(6)
O1 O -0.04099(17) 0.4522(3) 0.3619(3)
O2 O -0.0025(2) 0.6648(3) 0.4541(3)
N1 N 0.34216(17) 0.5141(2) 0.33058(19)
H1 H 0.3001 0.5424 0.2676
C1 C 0.5449(2) 0.4289(3) 0.3645(3)
H2 H 0.5202 0.3771 0.4321
C2 C 0.6633(2) 0.4280(3) 0.3240(4)
H3 H 0.7174 0.3743 0.3645
C3 C 0.7008(2) 0.5046(3) 0.2262(3)
H4 H 0.7800 0.5031 0.2004
C4 C 0.6210(3) 0.5844(4) 0.1653(3)
H5 H 0.6463 0.6375 0.0991
C5 C 0.5051(2) 0.5847(3) 0.2029(3)
H6 H 0.4513 0.6376 0.1609
C6 C 0.4655(2) 0.5073(2) 0.3031(2)
C7 C 0.27867(18) 0.4851(2) 0.4355(2)
C8 C 0.1500(2) 0.5177(3) 0.4221(2)
C9 C 0.0699(2) 0.4269(4) 0.3716(3)
C10 C 0.1090(3) 0.2988(4) 0.3276(4)
H7 H 0.0416 0.2519 0.2965
H8 H 0.1444 0.2538 0.3985
H9 H 0.1662 0.3079 0.2596
C11 C 0.1070(3) 0.6369(3) 0.4603(3)
C12 C 0.1870(4) 0.7390(4) 0.5124(5)
H10 H 0.1406 0.8130 0.5331
H11 H 0.2455 0.7607 0.4487
H12 H 0.2260 0.7086 0.5887
H13 H -0.035(4) 0.600(3) 0.418(5)
S1 S 0.66955(6) -0.08156(9) -0.06940(6)
O1 O 1.04099(17) -0.0478(3) 0.1381(3)
O2 O 1.0025(2) 0.1648(3) 0.0459(3)
N1 N 0.65784(17) 0.0141(2) 0.16942(19)
H1 H 0.6999 0.0424 0.2324
C1 C 0.4551(2) -0.0711(3) 0.1355(3)
H2 H 0.4798 -0.1229 0.0679
C2 C 0.3367(2) -0.0720(3) 0.1760(4)
H3 H 0.2826 -0.1257 0.1355
C3 C 0.2992(2) 0.0046(3) 0.2738(3)
H4 H 0.2200 0.0031 0.2996
C4 C 0.3790(3) 0.0844(4) 0.3347(3)
H5 H 0.3537 0.1375 0.4009
C5 C 0.4949(2) 0.0847(3) 0.2971(3)
H6 H 0.5487 0.1376 0.3391
C6 C 0.5345(2) 0.0073(2) 0.1969(2)
C7 C 0.72133(18) -0.0149(2) 0.0645(2)
C8 C 0.8500(2) 0.0177(3) 0.0779(2)
C9 C 0.9301(2) -0.0731(4) 0.1284(3)
C10 C 0.8910(3) -0.2012(4) 0.1724(4)
H7 H 0.9584 -0.2481 0.2035
H8 H 0.8556 -0.2462 0.1015
H9 H 0.8338 -0.1921 0.2404
C11 C 0.8930(3) 0.1369(3) 0.0397(3)
C12 C 0.8130(4) 0.2390(4) -0.0124(5)
H10 H 0.8594 0.3130 -0.0331
H11 H 0.7545 0.2607 0.0513
H12 H 0.7740 0.2086 -0.0887
H13 H 1.035(4) 0.100(3) 0.082(5)
S1 S 0.83045(6) 1.08156(9) 0.43060(6)
O1 O 0.45901(17) 1.0478(3) 0.6381(3)
O2 O 0.4975(2) 0.8352(3) 0.5459(3)
N1 N 0.84216(17) 0.9859(2) 0.66942(19)
H1 H 0.8001 0.9576 0.7324
C1 C 1.0449(2) 1.0711(3) 0.6355(3)
H2 H 1.0202 1.1229 0.5679
C2 C 1.1633(2) 1.0720(3) 0.6760(4)
H3 H 1.2174 1.1257 0.6355
C3 C 1.2008(2) 0.9954(3) 0.7738(3)
H4 H 1.2800 0.9969 0.7996
C4 C 1.1210(3) 0.9156(4) 0.8347(3)
H5 H 1.1463 0.8625 0.9009
C5 C 1.0051(2) 0.9153(3) 0.7971(3)
H6 H 0.9513 0.8624 0.8391
C6 C 0.9655(2) 0.9927(2) 0.6969(2)
C7 C 0.77867(18) 1.0149(2) 0.5645(2)
C8 C 0.6500(2) 0.9823(3) 0.5779(2)
C9 C 0.5699(2) 1.0731(4) 0.6284(3)
C10 C 0.6090(3) 1.2012(4) 0.6724(4)
H7 H 0.5416 1.2481 0.7035
H8 H 0.6444 1.2462 0.6015
H9 H 0.6662 1.1921 0.7404
C11 C 0.6070(3) 0.8631(3) 0.5397(3)
C12 C 0.6870(4) 0.7610(4) 0.4876(5)
H10 H 0.6406 0.6870 0.4669
H11 H 0.7455 0.7393 0.5513
H12 H 0.7260 0.7914 0.4113
H13 H 0.465(4) 0.900(3) 0.582(5)

#END
