./ADEKAW01_from_xyz.cif_generated_by_CrystalShift
_symmetry_cell_setting triclinic
_symmetry_space_group_name_H-M 'P 1'
loop_
_symmetry_equiv_pos_site_id
_symmetry_equiv_pos_as_xyz
1 x,y,z
_cell_length_a 7.452400
_cell_length_b 11.236700
_cell_length_c 14.394900
_cell_angle_alpha 90.000000
_cell_angle_beta 102.701000
_cell_angle_gamma 90.000000
_cell_volume 1175.938314
loop_
_atom_site_label
_atom_site_type_symbol
_atom_site_fract_x
_atom_site_fract_y
_atom_site_fract_z
N1 N 0.339890 0.022090 0.217750
C2 C 0.254600 0.127660 0.210300
C3 C 0.271600 0.208300 0.285150
C4 C 0.382800 0.178590 0.373000
C5 C 0.476000 0.070980 0.380440
C6 C 0.450400 -0.003870 0.302720
C7 C 0.403600 0.252330 0.462370
O8 O 0.491120 0.214690 0.538170
N9 N 0.316320 0.360020 0.453260
N10 N 0.328770 0.426030 0.534900
C11 C 0.240400 0.524680 0.526360
C12 C 0.250600 0.601170 0.610060
C13 C 0.361000 0.570450 0.698110
C14 C 0.367700 0.644970 0.774890
Cl15 Cl 0.506520 0.605570 0.884510
C16 C 0.268500 0.751000 0.766970
C17 C 0.161400 0.781120 0.679120
C18 C 0.151100 0.707000 0.600820
H19 H 0.178300 0.148700 0.150600
H20 H 0.208400 0.282300 0.276400
H21 H 0.556900 0.049000 0.438600
H22 H 0.514000 -0.077700 0.309400
H23 H 0.254900 0.386000 0.397600
H24 H 0.168600 0.548200 0.466200
H25 H 0.430800 0.499000 0.705100
H26 H 0.274500 0.801300 0.820600
H27 H 0.093800 0.853500 0.672100
H28 H 0.076100 0.728600 0.540900
N29 N 0.160110 0.522090 1.282250
C30 C 0.245400 0.627660 1.289700
C31 C 0.228400 0.708300 1.214850
C32 C 0.117200 0.678590 1.127000
C33 C 0.024000 0.570980 1.119560
C34 C 0.049600 0.496130 1.197280
C35 C 0.096400 0.752330 1.037630
O36 O 0.008880 0.714690 0.961830
N37 N 0.183680 0.860020 1.046740
N38 N 0.171230 0.926030 0.965100
C39 C 0.259600 1.024680 0.973640
C40 C 0.249400 1.101170 0.889940
C41 C 0.139000 1.070450 0.801890
C42 C 0.132300 1.144970 0.725110
Cl43 Cl -0.006520 1.105570 0.615490
C44 C 0.231500 1.251000 0.733030
C45 C 0.338600 1.281120 0.820880
C46 C 0.348900 1.207000 0.899180
H47 H 0.321700 0.648700 1.349400
H48 H 0.291600 0.782300 1.223600
H49 H -0.056900 0.549000 1.061400
H50 H -0.014000 0.422300 1.190600
H51 H 0.245100 0.886000 1.102400
H52 H 0.331400 1.048200 1.033800
H53 H 0.069200 0.999000 0.794900
H54 H 0.225500 1.301300 0.679400
H55 H 0.406200 1.353500 0.827900
H56 H 0.423900 1.228600 0.959100
N57 N 0.660110 0.977910 0.782250
C58 C 0.745400 0.872340 0.789700
C59 C 0.728400 0.791700 0.714850
C60 C 0.617200 0.821410 0.627000
C61 C 0.524000 0.929020 0.619560
C62 C 0.549600 1.003870 0.697280
C63 C 0.596400 0.747670 0.537630
O64 O 0.508880 0.785310 0.461830
N65 N 0.683680 0.639980 0.546740
N66 N 0.671230 0.573970 0.465100
C67 C 0.759600 0.475320 0.473640
C68 C 0.749400 0.398830 0.389940
C69 C 0.639000 0.429550 0.301890
C70 C 0.632300 0.355030 0.225110
Cl71 Cl 0.493480 0.394430 0.115490
C72 C 0.731500 0.249000 0.233030
C73 C 0.838600 0.218880 0.320880
C74 C 0.848900 0.293000 0.399180
H75 H 0.821700 0.851300 0.849400
H76 H 0.791600 0.717700 0.723600
H77 H 0.443100 0.951000 0.561400
H78 H 0.486000 1.077700 0.690600
H79 H 0.745100 0.614000 0.602400
H80 H 0.831400 0.451800 0.533800
H81 H 0.569200 0.501000 0.294900
H82 H 0.725500 0.198700 0.179400
H83 H 0.906200 0.146500 0.327900
H84 H 0.923900 0.271400 0.459100
N85 N 0.839890 0.477910 -0.282250
C86 C 0.754600 0.372340 -0.289700
C87 C 0.771600 0.291700 -0.214850
C88 C 0.882800 0.321410 -0.127000
C89 C 0.976000 0.429020 -0.119560
C90 C 0.950400 0.503870 -0.197280
C91 C 0.903600 0.247670 -0.037630
O92 O 0.991120 0.285310 0.038170
N93 N 0.816320 0.139980 -0.046740
N94 N 0.828770 0.073970 0.034900
C95 C 0.740400 -0.024680 0.026360
C96 C 0.750600 -0.101170 0.110060
C97 C 0.861000 -0.070450 0.198110
C98 C 0.867700 -0.144970 0.274890
Cl99 Cl 1.006520 -0.105570 0.384510
C100 C 0.768500 -0.251000 0.266970
C101 C 0.661400 -0.281120 0.179120
C102 C 0.651100 -0.207000 0.100820
H103 H 0.678300 0.351300 -0.349400
H104 H 0.708400 0.217700 -0.223600
H105 H 1.056900 0.451000 -0.061400
H106 H 1.014000 0.577700 -0.190600
H107 H 0.754900 0.114000 -0.102400
H108 H 0.668600 -0.048200 -0.033800
H109 H 0.930800 0.001000 0.205100
H110 H 0.774500 -0.301300 0.320600
H111 H 0.593800 -0.353500 0.172100
H112 H 0.576100 -0.228600 0.040900

#END
