./ADEMIG_from_xyz.cif_generated_by_CrystalShift
_symmetry_cell_setting triclinic
_symmetry_space_group_name_H-M 'P 1'
loop_
_symmetry_equiv_pos_site_id
_symmetry_equiv_pos_as_xyz
1 x,y,z
_cell_length_a 7.428000
_cell_length_b 14.202000
_cell_length_c 8.805000
_cell_angle_alpha 90.000000
_cell_angle_beta 106.760000
_cell_angle_gamma 90.000000
_cell_volume 889.404048
loop_
_atom_site_label
_atom_site_type_symbol
_atom_site_fract_x
_atom_site_fract_y
_atom_site_fract_z
Cl1 Cl 0.989740 0.604670 1.253900
O2 O 0.604900 0.608450 0.427100
H3 H 0.554200 0.561500 0.379200
O4 O 0.676300 0.688650 0.787600
N5 N 0.607100 0.538920 0.761800
N6 N 0.756800 0.647530 0.938000
C7 C 0.496500 0.643000 0.523100
H8 H 0.372100 0.615100 0.490300
H9 H 0.483000 0.710800 0.511000
C10 C 0.590900 0.619330 0.692500
C11 C 0.712700 0.558800 0.915200
C12 C 0.765100 0.484670 1.037000
C13 C 0.885400 0.497100 1.189800
C14 C 0.927900 0.422800 1.295900
H15 H 1.008900 0.432000 1.397200
C16 C 0.850100 0.334800 1.251400
H17 H 0.878200 0.285000 1.323100
C18 C 0.731900 0.321030 1.102200
H19 H 0.679500 0.262000 1.072300
C20 C 0.690500 0.394460 0.996500
H21 H 0.610700 0.384000 0.895100
Cl22 Cl 0.510260 0.104670 0.246100
O23 O 0.895100 0.108450 1.072900
H24 H 0.945800 0.061500 1.120800
O25 O 0.823700 0.188650 0.712400
N26 N 0.892900 0.038920 0.738200
N27 N 0.743200 0.147530 0.562000
C28 C 1.003500 0.143000 0.976900
H29 H 1.127900 0.115100 1.009700
H30 H 1.017000 0.210800 0.989000
C31 C 0.909100 0.119330 0.807500
C32 C 0.787300 0.058800 0.584800
C33 C 0.734900 -0.015330 0.463000
C34 C 0.614600 -0.002900 0.310200
C35 C 0.572100 -0.077200 0.204100
H36 H 0.491100 -0.068000 0.102800
C37 C 0.649900 -0.165200 0.248600
H38 H 0.621800 -0.215000 0.176900
C39 C 0.768100 -0.178970 0.397800
H40 H 0.820500 -0.238000 0.427700
C41 C 0.809500 -0.105540 0.503500
H42 H 0.889300 -0.116000 0.604900
Cl43 Cl 0.010260 0.395330 -0.253900
O44 O 0.395100 0.391550 0.572900
H45 H 0.445800 0.438500 0.620800
O46 O 0.323700 0.311350 0.212400
N47 N 0.392900 0.461080 0.238200
N48 N 0.243200 0.352470 0.062000
C49 C 0.503500 0.357000 0.476900
H50 H 0.627900 0.384900 0.509700
H51 H 0.517000 0.289200 0.489000
C52 C 0.409100 0.380670 0.307500
C53 C 0.287300 0.441200 0.084800
C54 C 0.234900 0.515330 -0.037000
C55 C 0.114600 0.502900 -0.189800
C56 C 0.072100 0.577200 -0.295900
H57 H -0.008900 0.568000 -0.397200
C58 C 0.149900 0.665200 -0.251400
H59 H 0.121800 0.715000 -0.323100
C60 C 0.268100 0.678970 -0.102200
H61 H 0.320500 0.738000 -0.072300
C62 C 0.309500 0.605540 0.003500
H63 H 0.389300 0.616000 0.104900
Cl64 Cl 0.489740 0.895330 0.753900
O65 O 0.104900 0.891550 -0.072900
H66 H 0.054200 0.938500 -0.120800
O67 O 0.176300 0.811350 0.287600
N68 N 0.107100 0.961080 0.261800
N69 N 0.256800 0.852470 0.438000
C70 C -0.003500 0.857000 0.023100
H71 H -0.127900 0.884900 -0.009700
H72 H -0.017000 0.789200 0.011000
C73 C 0.090900 0.880670 0.192500
C74 C 0.212700 0.941200 0.415200
C75 C 0.265100 1.015330 0.537000
C76 C 0.385400 1.002900 0.689800
C77 C 0.427900 1.077200 0.795900
H78 H 0.508900 1.068000 0.897200
C79 C 0.350100 1.165200 0.751400
H80 H 0.378200 1.215000 0.823100
C81 C 0.231900 1.178970 0.602200
H82 H 0.179500 1.238000 0.572300
C83 C 0.190500 1.105540 0.496500
H84 H 0.110700 1.116000 0.395100

#END
