./ADERIL_from_xyz.cif_generated_by_CrystalShift
_symmetry_cell_setting triclinic
_symmetry_space_group_name_H-M 'P 1'
loop_
_symmetry_equiv_pos_site_id
_symmetry_equiv_pos_as_xyz
1 x,y,z
_cell_length_a 6.422000
_cell_length_b 7.472000
_cell_length_c 17.181000
_cell_angle_alpha 79.480000
_cell_angle_beta 82.160000
_cell_angle_gamma 85.450000
_cell_volume 801.744648
loop_
_atom_site_label
_atom_site_type_symbol
_atom_site_fract_x
_atom_site_fract_y
_atom_site_fract_z
O1 O 0.758500 0.479900 0.494710
H2 H 0.823200 0.456200 0.533600
C3 C 1.292500 0.925500 0.071320
H4 H 1.414300 0.974900 0.084300
H5 H 1.211100 1.020700 0.041600
H6 H 1.336200 0.832300 0.039800
N7 N 0.593300 0.567700 0.366610
H8 H 0.522700 0.517500 0.410200
H9 H 0.534100 0.595900 0.323700
C10 C 1.159700 0.844400 0.147510
C11 C 1.221200 0.847700 0.221040
H12 H 1.345000 0.902000 0.223500
C13 C 1.103700 0.772500 0.291180
H14 H 1.148800 0.778100 0.339800
N15 N 0.893800 0.563600 0.427070
C16 C 0.918200 0.688300 0.289890
C17 C 0.854300 0.687200 0.216070
H18 H 0.729500 0.634500 0.213400
C19 C 0.973500 0.763300 0.146190
H20 H 0.927800 0.760000 0.097400
C21 C 0.797300 0.602100 0.365500
O22 O 0.241500 0.520100 0.505290
H23 H 0.176800 0.543800 0.466400
C24 C -0.292500 0.074500 0.928680
H25 H -0.414300 0.025100 0.915700
H26 H -0.211100 -0.020700 0.958400
H27 H -0.336200 0.167700 0.960200
N28 N 0.406700 0.432300 0.633390
H29 H 0.477300 0.482500 0.589800
H30 H 0.465900 0.404100 0.676300
C31 C -0.159700 0.155600 0.852490
C32 C -0.221200 0.152300 0.778960
H33 H -0.345000 0.098000 0.776500
C34 C -0.103700 0.227500 0.708820
H35 H -0.148800 0.221900 0.660200
N36 N 0.106200 0.436400 0.572930
C37 C 0.081800 0.311700 0.710110
C38 C 0.145700 0.312800 0.783930
H39 H 0.270500 0.365500 0.786600
C40 C 0.026500 0.236700 0.853810
H41 H 0.072200 0.240000 0.902600
C42 C 0.202700 0.397900 0.634500
O43 O 0.746500 0.490100 0.001340
H44 H 0.678600 0.548900 -0.032800
N45 N 0.607300 0.429700 0.072060
N46 N 0.920400 0.299900 0.114580
H47 H 0.991000 0.338700 0.069200
H48 H 0.983500 0.237300 0.152600
C49 C 0.235300 0.080400 0.434830
H50 H 0.097300 0.140400 0.437200
H51 H 0.306900 0.108400 0.476300
H52 H 0.223400 -0.049000 0.442000
C53 C 0.358900 0.145800 0.354500
C54 C 0.271800 0.275000 0.297600
H55 H 0.134200 0.320800 0.309000
C56 C 0.383400 0.337700 0.224450
H57 H 0.321200 0.425900 0.187900
C58 C 0.589700 0.269200 0.204950
C59 C 0.677000 0.140200 0.261390
H60 H 0.813600 0.092600 0.249700
C61 C 0.565100 0.080500 0.335010
H62 H 0.628800 -0.005000 0.372200
C63 C 0.709800 0.337400 0.126220
O64 O 0.253500 0.509900 0.998660
H65 H 0.321400 0.451100 1.032800
N66 N 0.392700 0.570300 0.927940
N67 N 0.079600 0.700100 0.885420
H68 H 0.009000 0.661300 0.930800
H69 H 0.016500 0.762700 0.847400
C70 C 0.764700 0.919600 0.565170
H71 H 0.902700 0.859600 0.562800
H72 H 0.693100 0.891600 0.523700
H73 H 0.776600 1.049000 0.558000
C74 C 0.641100 0.854200 0.645500
C75 C 0.728200 0.725000 0.702400
H76 H 0.865800 0.679200 0.691000
C77 C 0.616600 0.662300 0.775550
H78 H 0.678800 0.574100 0.812100
C79 C 0.410300 0.730800 0.795050
C80 C 0.323000 0.859800 0.738610
H81 H 0.186400 0.907400 0.750300
C82 C 0.434900 0.919500 0.664990
H83 H 0.371200 1.005000 0.627800
C84 C 0.290200 0.662600 0.873780

#END
