
#######################################################################
#
#                 Cambridge Crystallographic Data Centre
#                                CCDC 
#
#######################################################################
#
# If this CIF has been generated from an entry in the Cambridge 
# Structural Database, then it will include bibliographic, chemical, 
# crystal, experimental, refinement or atomic coordinate data resulting 
# from the CCDC's data processing and validation procedures.
#
#######################################################################

data_ADETUZ
_symmetry_cell_setting           monoclinic
_symmetry_space_group_name_H-M   'P 21/c'
_symmetry_Int_Tables_number      14
_space_group_name_Hall           '-P 2ybc'
loop_
_symmetry_equiv_pos_site_id
_symmetry_equiv_pos_as_xyz
1 x,y,z
2 -x,1/2+y,1/2-z
3 -x,-y,-z
4 x,1/2-y,1/2+z
_cell_length_a                   9.644(3)
_cell_length_b                   11.937(3)
_cell_length_c                   17.998(5)
_cell_angle_alpha                90
_cell_angle_beta                 90.691(5)
_cell_angle_gamma                90
_cell_volume                     2071.79
loop_
_atom_site_label
_atom_site_type_symbol
_atom_site_fract_x
_atom_site_fract_y
_atom_site_fract_z
O1 O 0.13057(18) 0.18207(13) 0.21161(10)
O2 O -0.0139(2) 0.3301(2) 0.07953(12)
O3 O -0.07965(18) 0.48644(15) 0.13681(10)
O4 O 0.41284(19) 0.58361(13) 0.05505(9)
N1 N 0.4428(2) 0.35943(15) 0.07719(10)
H1 H 0.4888 0.4099 0.0539
N2 N 0.29353(19) 0.28279(13) 0.15303(10)
C1 C 0.3423(2) 0.38338(16) 0.12450(11)
C2 C 0.4678(3) 0.24087(19) 0.06844(15)
H2 H 0.5638 0.2225 0.0797
H3 H 0.4458 0.2167 0.0182
C3 C 0.3711(3) 0.18695(19) 0.12408(14)
H4 H 0.3097 0.1334 0.1000
H5 H 0.4229 0.1495 0.1634
C4 C 0.1700(2) 0.27249(18) 0.18969(12)
C5 C 0.0899(2) 0.38039(17) 0.19750(12)
H6 H 0.0318 0.3737 0.2416
C6 C -0.0058(3) 0.3936(2) 0.13050(14)
C7 C -0.1759(3) 0.5165(3) 0.07798(18)
H7 H -0.2532 0.4645 0.0766
H8 H -0.1301 0.5142 0.0303
C8 C -0.2246(5) 0.6290(4) 0.0933(3)
H9 H -0.2558 0.6331 0.1437
H10 H -0.2999 0.6470 0.0601
H11 H -0.1503 0.6813 0.0863
C9 C 0.1842(2) 0.48469(16) 0.20823(11)
H12 H 0.1258 0.5511 0.2013
C10 C 0.2405(2) 0.48772(16) 0.28776(11)
C11 C 0.3613(2) 0.43534(19) 0.31019(13)
H13 H 0.4146 0.3984 0.2751
C12 C 0.4052(3) 0.4364(2) 0.38372(14)
H14 H 0.4865 0.3995 0.3977
C13 C 0.3288(3) 0.4918(2) 0.43595(14)
H15 H 0.3578 0.4928 0.4854
C14 C 0.2093(3) 0.5457(2) 0.41466(14)
H16 H 0.1573 0.5837 0.4498
C15 C 0.1655(2) 0.5440(2) 0.34132(13)
H17 H 0.0843 0.5811 0.3277
C16 C 0.2916(2) 0.48565(16) 0.14706(11)
C17 C 0.3366(2) 0.58482(17) 0.11048(11)
C18 C 0.2899(2) 0.69692(17) 0.13845(12)
C19 C 0.3279(3) 0.73248(19) 0.20950(14)
H18 H 0.3787 0.6850 0.2405
C20 C 0.2908(3) 0.8378(2) 0.23438(16)
H19 H 0.3176 0.8615 0.2816
C21 C 0.2144(3) 0.9072(2) 0.18922(17)
H20 H 0.1891 0.9780 0.2059
C22 C 0.1754(3) 0.8727(2) 0.11968(17)
H21 H 0.1229 0.9200 0.0894
C23 C 0.2135(3) 0.7677(2) 0.09386(14)
H22 H 0.1873 0.7453 0.0463
O1 O 0.86943(18) -0.31793(13) 0.28839(10)
O2 O 1.0139(2) -0.1699(2) 0.42047(12)
O3 O 1.07965(18) -0.01356(15) 0.36319(10)
O4 O 0.58716(19) 0.08361(13) 0.44495(9)
N1 N 0.5572(2) -0.14057(15) 0.42281(10)
H1 H 0.5112 -0.0901 0.4461
N2 N 0.70647(19) -0.21721(13) 0.34697(10)
C1 C 0.6577(2) -0.11662(16) 0.37550(11)
C2 C 0.5322(3) -0.25913(19) 0.43156(15)
H2 H 0.4362 -0.2775 0.4203
H3 H 0.5542 -0.2833 0.4818
C3 C 0.6289(3) -0.31305(19) 0.37592(14)
H4 H 0.6903 -0.3666 0.4000
H5 H 0.5771 -0.3505 0.3366
C4 C 0.8300(2) -0.22751(18) 0.31031(12)
C5 C 0.9101(2) -0.11961(17) 0.30250(12)
H6 H 0.9682 -0.1263 0.2584
C6 C 1.0058(3) -0.1064(2) 0.36950(14)
C7 C 1.1759(3) 0.0165(3) 0.42202(18)
H7 H 1.2532 -0.0355 0.4234
H8 H 1.1301 0.0142 0.4697
C8 C 1.2246(5) 0.1290(4) 0.4067(3)
H9 H 1.2558 0.1331 0.3563
H10 H 1.2999 0.1470 0.4399
H11 H 1.1503 0.1813 0.4137
C9 C 0.8158(2) -0.01531(16) 0.29177(11)
H12 H 0.8742 0.0511 0.2987
C10 C 0.7595(2) -0.01228(16) 0.21224(11)
C11 C 0.6387(2) -0.06466(19) 0.18981(13)
H13 H 0.5854 -0.1016 0.2249
C12 C 0.5948(3) -0.0636(2) 0.11628(14)
H14 H 0.5135 -0.1005 0.1023
C13 C 0.6712(3) -0.0082(2) 0.06405(14)
H15 H 0.6422 -0.0072 0.0146
C14 C 0.7907(3) 0.0457(2) 0.08534(14)
H16 H 0.8427 0.0837 0.0502
C15 C 0.8345(2) 0.0440(2) 0.15868(13)
H17 H 0.9157 0.0811 0.1723
C16 C 0.7084(2) -0.01435(16) 0.35294(11)
C17 C 0.6634(2) 0.08482(17) 0.38952(11)
C18 C 0.7101(2) 0.19692(17) 0.36155(12)
C19 C 0.6721(3) 0.23248(19) 0.29050(14)
H18 H 0.6213 0.1850 0.2595
C20 C 0.7092(3) 0.3378(2) 0.26562(16)
H19 H 0.6824 0.3615 0.2184
C21 C 0.7856(3) 0.4072(2) 0.31078(17)
H20 H 0.8109 0.4780 0.2941
C22 C 0.8246(3) 0.3727(2) 0.38032(17)
H21 H 0.8771 0.4200 0.4106
C23 C 0.7865(3) 0.2677(2) 0.40614(14)
H22 H 0.8127 0.2453 0.4537
O1 O 0.86943(18) 0.81793(13) 0.78839(10)
O2 O 1.0139(2) 0.6699(2) 0.92047(12)
O3 O 1.07965(18) 0.51356(15) 0.86319(10)
O4 O 0.58716(19) 0.41639(13) 0.94495(9)
N1 N 0.5572(2) 0.64057(15) 0.92281(10)
H1 H 0.5112 0.5901 0.9461
N2 N 0.70647(19) 0.71721(13) 0.84697(10)
C1 C 0.6577(2) 0.61662(16) 0.87550(11)
C2 C 0.5322(3) 0.75913(19) 0.93156(15)
H2 H 0.4362 0.7775 0.9203
H3 H 0.5542 0.7833 0.9818
C3 C 0.6289(3) 0.81305(19) 0.87592(14)
H4 H 0.6903 0.8666 0.9000
H5 H 0.5771 0.8505 0.8366
C4 C 0.8300(2) 0.72751(18) 0.81031(12)
C5 C 0.9101(2) 0.61961(17) 0.80250(12)
H6 H 0.9682 0.6263 0.7584
C6 C 1.0058(3) 0.6064(2) 0.86950(14)
C7 C 1.1759(3) 0.4835(3) 0.92202(18)
H7 H 1.2532 0.5355 0.9234
H8 H 1.1301 0.4858 0.9697
C8 C 1.2246(5) 0.3710(4) 0.9067(3)
H9 H 1.2558 0.3669 0.8563
H10 H 1.2999 0.3530 0.9399
H11 H 1.1503 0.3187 0.9137
C9 C 0.8158(2) 0.51531(16) 0.79177(11)
H12 H 0.8742 0.4489 0.7987
C10 C 0.7595(2) 0.51228(16) 0.71224(11)
C11 C 0.6387(2) 0.56466(19) 0.68981(13)
H13 H 0.5854 0.6016 0.7249
C12 C 0.5948(3) 0.5636(2) 0.61628(14)
H14 H 0.5135 0.6005 0.6023
C13 C 0.6712(3) 0.5082(2) 0.56405(14)
H15 H 0.6422 0.5072 0.5146
C14 C 0.7907(3) 0.4543(2) 0.58534(14)
H16 H 0.8427 0.4163 0.5502
C15 C 0.8345(2) 0.4560(2) 0.65868(13)
H17 H 0.9157 0.4189 0.6723
C16 C 0.7084(2) 0.51435(16) 0.85294(11)
C17 C 0.6634(2) 0.41518(17) 0.88952(11)
C18 C 0.7101(2) 0.30308(17) 0.86155(12)
C19 C 0.6721(3) 0.26752(19) 0.79050(14)
H18 H 0.6213 0.3150 0.7595
C20 C 0.7092(3) 0.1622(2) 0.76562(16)
H19 H 0.6824 0.1385 0.7184
C21 C 0.7856(3) 0.0928(2) 0.81078(17)
H20 H 0.8109 0.0220 0.7941
C22 C 0.8246(3) 0.1273(2) 0.88032(17)
H21 H 0.8771 0.0800 0.9106
C23 C 0.7865(3) 0.2323(2) 0.90614(14)
H22 H 0.8127 0.2547 0.9537
O1 O 0.13057(18) 1.31793(13) 0.71161(10)
O2 O -0.0139(2) 1.1699(2) 0.57953(12)
O3 O -0.07965(18) 1.01356(15) 0.63681(10)
O4 O 0.41284(19) 0.91639(13) 0.55505(9)
N1 N 0.4428(2) 1.14057(15) 0.57719(10)
H1 H 0.4888 1.0901 0.5539
N2 N 0.29353(19) 1.21721(13) 0.65303(10)
C1 C 0.3423(2) 1.11662(16) 0.62450(11)
C2 C 0.4678(3) 1.25913(19) 0.56844(15)
H2 H 0.5638 1.2775 0.5797
H3 H 0.4458 1.2833 0.5182
C3 C 0.3711(3) 1.31305(19) 0.62408(14)
H4 H 0.3097 1.3666 0.6000
H5 H 0.4229 1.3505 0.6634
C4 C 0.1700(2) 1.22751(18) 0.68969(12)
C5 C 0.0899(2) 1.11961(17) 0.69750(12)
H6 H 0.0318 1.1263 0.7416
C6 C -0.0058(3) 1.1064(2) 0.63050(14)
C7 C -0.1759(3) 0.9835(3) 0.57798(18)
H7 H -0.2532 1.0355 0.5766
H8 H -0.1301 0.9858 0.5303
C8 C -0.2246(5) 0.8710(4) 0.5933(3)
H9 H -0.2558 0.8669 0.6437
H10 H -0.2999 0.8530 0.5601
H11 H -0.1503 0.8187 0.5863
C9 C 0.1842(2) 1.01531(16) 0.70823(11)
H12 H 0.1258 0.9489 0.7013
C10 C 0.2405(2) 1.01228(16) 0.78776(11)
C11 C 0.3613(2) 1.06466(19) 0.81019(13)
H13 H 0.4146 1.1016 0.7751
C12 C 0.4052(3) 1.0636(2) 0.88372(14)
H14 H 0.4865 1.1005 0.8977
C13 C 0.3288(3) 1.0082(2) 0.93595(14)
H15 H 0.3578 1.0072 0.9854
C14 C 0.2093(3) 0.9543(2) 0.91466(14)
H16 H 0.1573 0.9163 0.9498
C15 C 0.1655(2) 0.9560(2) 0.84132(13)
H17 H 0.0843 0.9189 0.8277
C16 C 0.2916(2) 1.01435(16) 0.64706(11)
C17 C 0.3366(2) 0.91518(17) 0.61048(11)
C18 C 0.2899(2) 0.80308(17) 0.63845(12)
C19 C 0.3279(3) 0.76752(19) 0.70950(14)
H18 H 0.3787 0.8150 0.7405
C20 C 0.2908(3) 0.6622(2) 0.73438(16)
H19 H 0.3176 0.6385 0.7816
C21 C 0.2144(3) 0.5928(2) 0.68922(17)
H20 H 0.1891 0.5220 0.7059
C22 C 0.1754(3) 0.6273(2) 0.61968(17)
H21 H 0.1229 0.5800 0.5894
C23 C 0.2135(3) 0.7323(2) 0.59386(14)
H22 H 0.1873 0.7547 0.5463

#END
