
#######################################################################
#
#                 Cambridge Crystallographic Data Centre
#                                CCDC 
#
#######################################################################
#
# If this CIF has been generated from an entry in the Cambridge 
# Structural Database, then it will include bibliographic, chemical, 
# crystal, experimental, refinement or atomic coordinate data resulting 
# from the CCDC's data processing and validation procedures.
#
#######################################################################

data_ADEYEO
_symmetry_cell_setting           monoclinic
_symmetry_space_group_name_H-M   'P 21/c'
_symmetry_Int_Tables_number      14
_space_group_name_Hall           '-P 2ybc'
loop_
_symmetry_equiv_pos_site_id
_symmetry_equiv_pos_as_xyz
1 x,y,z
2 -x,1/2+y,1/2-z
3 -x,-y,-z
4 x,1/2-y,1/2+z
_cell_length_a                   9.7327(13)
_cell_length_b                   7.2600(7)
_cell_length_c                   12.394(2)
_cell_angle_alpha                90
_cell_angle_beta                 129.395(11)
_cell_angle_gamma                90
_cell_volume                     676.772
loop_
_atom_site_label
_atom_site_type_symbol
_atom_site_fract_x
_atom_site_fract_y
_atom_site_fract_z
O1 O 0.3597(2) 0.5043(2) 0.03568(18)
O2 O 0.4902(2) 0.2614(2) 0.02229(19)
O3 O 0.0839(2) 0.2475(2) 0.22587(19)
O4 O 0.1959(3) 0.4490(2) 0.1528(2)
C1 C 0.3920(3) 0.3348(3) 0.0469(2)
C2 C 0.3175(3) 0.2086(3) 0.0916(2)
C3 C 0.3351(3) 0.0164(3) 0.0898(2)
C4 C 0.2642(3) -0.1031(4) 0.1308(3)
C5 C 0.1765(3) -0.0377(3) 0.1783(2)
C6 C 0.1621(3) 0.1500(3) 0.1819(2)
C7 C 0.2295(3) 0.2715(3) 0.1388(2)
C8 C 0.1013(4) 0.4384(3) 0.2058(3)
H1 H 0.52920 0.34410 0.00070
H2 H 0.395(3) -0.039(4) 0.057(2)
H3 H 0.270(3) -0.222(4) 0.125(3)
H4 H 0.121(4) -0.115(4) 0.205(3)
H5 H -0.020(4) 0.482(4) 0.134(3)
H6 H 0.164(4) 0.501(5) 0.290(4)
O1 O 0.6403(2) 1.0043(2) 0.46432(18)
O2 O 0.5098(2) 0.7614(2) 0.47771(19)
O3 O 0.9161(2) 0.7475(2) 0.27413(19)
O4 O 0.8041(3) 0.9490(2) 0.3472(2)
C1 C 0.6080(3) 0.8348(3) 0.4531(2)
C2 C 0.6825(3) 0.7086(3) 0.4084(2)
C3 C 0.6649(3) 0.5164(3) 0.4102(2)
C4 C 0.7358(3) 0.3969(4) 0.3692(3)
C5 C 0.8235(3) 0.4623(3) 0.3217(2)
C6 C 0.8379(3) 0.6500(3) 0.3181(2)
C7 C 0.7705(3) 0.7715(3) 0.3612(2)
C8 C 0.8987(4) 0.9384(3) 0.2942(3)
H1 H 0.47080 0.84410 0.49930
H2 H 0.605(3) 0.461(4) 0.443(2)
H3 H 0.730(3) 0.278(4) 0.375(3)
H4 H 0.879(4) 0.385(4) 0.295(3)
H5 H 1.020(4) 0.982(4) 0.366(3)
H6 H 0.836(4) 1.001(5) 0.210(4)
O1 O 0.6403(2) 0.4957(2) 0.96432(18)
O2 O 0.5098(2) 0.7386(2) 0.97771(19)
O3 O 0.9161(2) 0.7525(2) 0.77413(19)
O4 O 0.8041(3) 0.5510(2) 0.8472(2)
C1 C 0.6080(3) 0.6652(3) 0.9531(2)
C2 C 0.6825(3) 0.7914(3) 0.9084(2)
C3 C 0.6649(3) 0.9836(3) 0.9102(2)
C4 C 0.7358(3) 1.1031(4) 0.8692(3)
C5 C 0.8235(3) 1.0377(3) 0.8217(2)
C6 C 0.8379(3) 0.8500(3) 0.8181(2)
C7 C 0.7705(3) 0.7285(3) 0.8612(2)
C8 C 0.8987(4) 0.5616(3) 0.7942(3)
H1 H 0.47080 0.65590 0.99930
H2 H 0.605(3) 1.039(4) 0.943(2)
H3 H 0.730(3) 1.222(4) 0.875(3)
H4 H 0.879(4) 1.115(4) 0.795(3)
H5 H 1.020(4) 0.518(4) 0.866(3)
H6 H 0.836(4) 0.499(5) 0.710(4)
O1 O 0.3597(2) -0.0043(2) 0.53568(18)
O2 O 0.4902(2) 0.2386(2) 0.52229(19)
O3 O 0.0839(2) 0.2525(2) 0.72587(19)
O4 O 0.1959(3) 0.0510(2) 0.6528(2)
C1 C 0.3920(3) 0.1652(3) 0.5469(2)
C2 C 0.3175(3) 0.2914(3) 0.5916(2)
C3 C 0.3351(3) 0.4836(3) 0.5898(2)
C4 C 0.2642(3) 0.6031(4) 0.6308(3)
C5 C 0.1765(3) 0.5377(3) 0.6783(2)
C6 C 0.1621(3) 0.3500(3) 0.6819(2)
C7 C 0.2295(3) 0.2285(3) 0.6388(2)
C8 C 0.1013(4) 0.0616(3) 0.7058(3)
H1 H 0.52920 0.15590 0.50070
H2 H 0.395(3) 0.539(4) 0.557(2)
H3 H 0.270(3) 0.722(4) 0.625(3)
H4 H 0.121(4) 0.615(4) 0.705(3)
H5 H -0.020(4) 0.018(4) 0.634(3)
H6 H 0.164(4) -0.001(5) 0.790(4)

#END
