
#######################################################################
#
#                 Cambridge Crystallographic Data Centre
#                                CCDC 
#
#######################################################################
#
# If this CIF has been generated from an entry in the Cambridge 
# Structural Database, then it will include bibliographic, chemical, 
# crystal, experimental, refinement or atomic coordinate data resulting 
# from the CCDC's data processing and validation procedures.
#
#######################################################################

data_ADEZAL02
_symmetry_cell_setting           triclinic
_symmetry_space_group_name_H-M   'P -1'
_symmetry_Int_Tables_number      2
_space_group_name_Hall           '-P 1'
loop_
_symmetry_equiv_pos_site_id
_symmetry_equiv_pos_as_xyz
1 x,y,z
2 -x,-y,-z
_cell_length_a                   5.8162(5)
_cell_length_b                   9.8481(10)
_cell_length_c                   11.1495(9)
_cell_angle_alpha                71.429(8)
_cell_angle_beta                 83.206(7)
_cell_angle_gamma                88.717(8)
_cell_volume                     601.043
loop_
_atom_site_label
_atom_site_type_symbol
_atom_site_fract_x
_atom_site_fract_y
_atom_site_fract_z
S1 S 1.5086(1) 0.6189(1) 0.6378(1)
N1 N 1.2046(4) 0.4337(2) 0.6234(2)
H1 H 1.3011 0.4205 0.5636
N2 N 1.0027(3) 0.3552(2) 0.6629(2)
C1 C 1.2519(4) 0.5317(2) 0.6784(2)
N3 N 1.0815(4) 0.5528(2) 0.7620(2)
H2 H 0.9526 0.5084 0.7687
C2 C 1.0898(4) 0.6405(2) 0.8413(2)
C3 C 0.9746(5) 0.2593(3) 0.6105(2)
H3 H 1.0860 0.2490 0.5471
C4 C 1.2658(5) 0.6279(3) 0.9171(2)
H4 H 1.3873 0.5658 0.9132
C5 C 0.7734(5) 0.1680(3) 0.6487(2)
C6 C 1.2595(5) 0.7087(3) 0.9992(2)
H5 H 1.3777 0.7008 1.0503
C7 C 1.0811(5) 0.7997(3) 1.0057(3)
H6 H 1.0781 0.8533 1.0611
C8 C 0.9071(5) 0.8120(3) 0.9307(3)
H7 H 0.7857 0.8739 0.9351
O1 O 0.5997(4) 0.1796(3) 0.7357(2)
C9 C 0.9113(5) 0.7315(3) 0.8475(3)
H8 H 0.7929 0.7398 0.7964
C10 C 0.5206(7) -0.0013(4) 0.6709(4)
H9 H 0.4469 -0.0798 0.6619
C11 C 0.7374(6) 0.0583(3) 0.6052(3)
H10 H 0.8329 0.0284 0.5457
C12 C 0.4418(7) 0.0707(5) 0.7451(4)
H11 H 0.3011 0.0528 0.7970
S1 S -0.5086(1) 0.3811(1) 0.3622(1)
N1 N -0.2046(4) 0.5663(2) 0.3766(2)
H1 H -0.3011 0.5795 0.4364
N2 N -0.0027(3) 0.6448(2) 0.3371(2)
C1 C -0.2519(4) 0.4683(2) 0.3216(2)
N3 N -0.0815(4) 0.4472(2) 0.2380(2)
H2 H 0.0474 0.4916 0.2313
C2 C -0.0898(4) 0.3595(2) 0.1587(2)
C3 C 0.0254(5) 0.7407(3) 0.3895(2)
H3 H -0.0860 0.7510 0.4529
C4 C -0.2658(5) 0.3721(3) 0.0829(2)
H4 H -0.3873 0.4342 0.0868
C5 C 0.2266(5) 0.8320(3) 0.3513(2)
C6 C -0.2595(5) 0.2913(3) 0.0008(2)
H5 H -0.3777 0.2992 -0.0503
C7 C -0.0811(5) 0.2003(3) -0.0057(3)
H6 H -0.0781 0.1467 -0.0611
C8 C 0.0929(5) 0.1880(3) 0.0693(3)
H7 H 0.2143 0.1261 0.0649
O1 O 0.4003(4) 0.8204(3) 0.2643(2)
C9 C 0.0887(5) 0.2685(3) 0.1525(3)
H8 H 0.2071 0.2602 0.2036
C10 C 0.4794(7) 1.0013(4) 0.3291(4)
H9 H 0.5531 1.0798 0.3381
C11 C 0.2626(6) 0.9417(3) 0.3948(3)
H10 H 0.1671 0.9716 0.4543
C12 C 0.5582(7) 0.9293(5) 0.2549(4)
H11 H 0.6989 0.9472 0.2030

#END
