./ADEZAL02_from_xyz.cif_generated_by_CrystalShift
_symmetry_cell_setting triclinic
_symmetry_space_group_name_H-M 'P 1'
loop_
_symmetry_equiv_pos_site_id
_symmetry_equiv_pos_as_xyz
1 x,y,z
_cell_length_a 5.816200
_cell_length_b 9.848100
_cell_length_c 11.149500
_cell_angle_alpha 71.429000
_cell_angle_beta 83.206000
_cell_angle_gamma 88.717000
_cell_volume 601.043124
loop_
_atom_site_label
_atom_site_type_symbol
_atom_site_fract_x
_atom_site_fract_y
_atom_site_fract_z
S1 S 1.508600 0.618900 0.637800
N2 N 1.204600 0.433700 0.623400
H3 H 1.301100 0.420500 0.563600
N4 N 1.002700 0.355200 0.662900
C5 C 1.251900 0.531700 0.678400
N6 N 1.081500 0.552800 0.762000
H7 H 0.952600 0.508400 0.768700
C8 C 1.089800 0.640500 0.841300
C9 C 0.974600 0.259300 0.610500
H10 H 1.086000 0.249000 0.547100
C11 C 1.265800 0.627900 0.917100
H12 H 1.387300 0.565800 0.913200
C13 C 0.773400 0.168000 0.648700
C14 C 1.259500 0.708700 0.999200
H15 H 1.377700 0.700800 1.050300
C16 C 1.081100 0.799700 1.005700
H17 H 1.078100 0.853300 1.061100
C18 C 0.907100 0.812000 0.930700
H19 H 0.785700 0.873900 0.935100
O20 O 0.599700 0.179600 0.735700
C21 C 0.911300 0.731500 0.847500
H22 H 0.792900 0.739800 0.796400
C23 C 0.520600 -0.001300 0.670900
H24 H 0.446900 -0.079800 0.661900
C25 C 0.737400 0.058300 0.605200
H26 H 0.832900 0.028400 0.545700
C27 C 0.441800 0.070700 0.745100
H28 H 0.301100 0.052800 0.797000
S29 S -0.508600 0.381100 0.362200
N30 N -0.204600 0.566300 0.376600
H31 H -0.301100 0.579500 0.436400
N32 N -0.002700 0.644800 0.337100
C33 C -0.251900 0.468300 0.321600
N34 N -0.081500 0.447200 0.238000
H35 H 0.047400 0.491600 0.231300
C36 C -0.089800 0.359500 0.158700
C37 C 0.025400 0.740700 0.389500
H38 H -0.086000 0.751000 0.452900
C39 C -0.265800 0.372100 0.082900
H40 H -0.387300 0.434200 0.086800
C41 C 0.226600 0.832000 0.351300
C42 C -0.259500 0.291300 0.000800
H43 H -0.377700 0.299200 -0.050300
C44 C -0.081100 0.200300 -0.005700
H45 H -0.078100 0.146700 -0.061100
C46 C 0.092900 0.188000 0.069300
H47 H 0.214300 0.126100 0.064900
O48 O 0.400300 0.820400 0.264300
C49 C 0.088700 0.268500 0.152500
H50 H 0.207100 0.260200 0.203600
C51 C 0.479400 1.001300 0.329100
H52 H 0.553100 1.079800 0.338100
C53 C 0.262600 0.941700 0.394800
H54 H 0.167100 0.971600 0.454300
C55 C 0.558200 0.929300 0.254900
H56 H 0.698900 0.947200 0.203000

#END
