
#######################################################################
#
#                 Cambridge Crystallographic Data Centre
#                                CCDC 
#
#######################################################################
#
# If this CIF has been generated from an entry in the Cambridge 
# Structural Database, then it will include bibliographic, chemical, 
# crystal, experimental, refinement or atomic coordinate data resulting 
# from the CCDC's data processing and validation procedures.
#
#######################################################################

data_ADIBAS
_symmetry_cell_setting           monoclinic
_symmetry_space_group_name_H-M   'P 21/c'
_symmetry_Int_Tables_number      14
_space_group_name_Hall           '-P 2ybc'
loop_
_symmetry_equiv_pos_site_id
_symmetry_equiv_pos_as_xyz
1 x,y,z
2 -x,1/2+y,1/2-z
3 -x,-y,-z
4 x,1/2-y,1/2+z
_cell_length_a                   9.3754(18)
_cell_length_b                   11.161(2)
_cell_length_c                   11.962(2)
_cell_angle_alpha                90
_cell_angle_beta                 105.572(2)
_cell_angle_gamma                90
_cell_volume                     1205.75
loop_
_atom_site_label
_atom_site_type_symbol
_atom_site_fract_x
_atom_site_fract_y
_atom_site_fract_z
C1 C 0.15517(11) 1.08655(10) 0.13226(9)
C2 C 0.14143(11) 0.87756(10) 0.17414(9)
C3 C 0.24503(11) 0.94212(10) 0.01520(9)
C4 C 0.22025(11) 1.05837(10) 0.04178(9)
C5 C 0.11472(11) 1.00123(10) 0.19824(9)
C6 C 0.25177(12) 1.17094(10) -0.01088(10)
C7 C 0.04842(13) 1.02517(11) 0.29708(10)
H1 H 0.0328 1.1115 0.3030
H2 H 0.1158 0.9963 0.3695
H3 H -0.0466 0.9834 0.2833
C8 C 0.14921(13) 1.22078(10) 0.14011(10)
H4 H 0.0464 1.2485 0.1308
H5 H 0.2120 1.2494 0.2157
C9 C 0.21914(12) 0.72572(10) 0.05481(9)
H6 H 0.2158 0.7168 -0.0282
H7 H 0.1341 0.6810 0.0683
C10 C 0.31627(13) 0.90820(11) -0.07817(10)
H8 H 0.3457 0.9809 -0.1123
H9 H 0.2458 0.8625 -0.1384
H10 H 0.4040 0.8590 -0.0449
C11 C 0.35913(13) 0.53460(10) 0.10954(10)
H11 H 0.2737 0.5007 0.1327
H12 H 0.3438 0.5183 0.0258
C12 C 0.36260(12) 0.66977(10) 0.12842(9)
H13 H 0.4483 0.7047 0.1065
H14 H 0.3739 0.6874 0.2115
C13 C 0.49964(14) 0.47124(12) 0.17732(11)
H15 H 0.5851 0.5048 0.1557
H16 H 0.4918 0.3855 0.1592
H17 H 0.5124 0.4827 0.2607
O1 O 0.11448(9) 0.79258(7) 0.23126(7)
O2 O 0.30835(10) 1.18975(8) -0.08879(7)
O3 O 0.20537(9) 1.26355(7) 0.04526(7)
N1 N 0.20249(10) 0.85411(8) 0.07967(8)
C1 C 0.84483(11) 0.58655(10) 0.36774(9)
C2 C 0.85857(11) 0.37756(10) 0.32586(9)
C3 C 0.75497(11) 0.44212(10) 0.48480(9)
C4 C 0.77975(11) 0.55837(10) 0.45822(9)
C5 C 0.88528(11) 0.50123(10) 0.30176(9)
C6 C 0.74823(12) 0.67094(10) 0.51088(10)
C7 C 0.95158(13) 0.52517(11) 0.20292(10)
H1 H 0.9672 0.6115 0.1970
H2 H 0.8842 0.4963 0.1305
H3 H 1.0466 0.4834 0.2167
C8 C 0.85079(13) 0.72078(10) 0.35989(10)
H4 H 0.9536 0.7485 0.3692
H5 H 0.7880 0.7494 0.2843
C9 C 0.78086(12) 0.22572(10) 0.44519(9)
H6 H 0.7842 0.2168 0.5282
H7 H 0.8659 0.1810 0.4317
C10 C 0.68373(13) 0.40820(11) 0.57817(10)
H8 H 0.6543 0.4809 0.6123
H9 H 0.7542 0.3625 0.6384
H10 H 0.5960 0.3590 0.5449
C11 C 0.64087(13) 0.03460(10) 0.39046(10)
H11 H 0.7263 0.0007 0.3673
H12 H 0.6562 0.0183 0.4742
C12 C 0.63740(12) 0.16977(10) 0.37158(9)
H13 H 0.5517 0.2047 0.3935
H14 H 0.6261 0.1874 0.2885
C13 C 0.50036(14) -0.02876(12) 0.32268(11)
H15 H 0.4149 0.0048 0.3443
H16 H 0.5082 -0.1145 0.3408
H17 H 0.4876 -0.0173 0.2393
O1 O 0.88552(9) 0.29258(7) 0.26874(7)
O2 O 0.69165(10) 0.68975(8) 0.58879(7)
O3 O 0.79463(9) 0.76355(7) 0.45474(7)
N1 N 0.79751(10) 0.35411(8) 0.42033(8)
C1 C 0.84483(11) -0.08655(10) 0.86774(9)
C2 C 0.85857(11) 0.12244(10) 0.82586(9)
C3 C 0.75497(11) 0.05788(10) 0.98480(9)
C4 C 0.77975(11) -0.05837(10) 0.95822(9)
C5 C 0.88528(11) -0.00123(10) 0.80176(9)
C6 C 0.74823(12) -0.17094(10) 1.01088(10)
C7 C 0.95158(13) -0.02517(11) 0.70292(10)
H1 H 0.9672 -0.1115 0.6970
H2 H 0.8842 0.0037 0.6305
H3 H 1.0466 0.0166 0.7167
C8 C 0.85079(13) -0.22078(10) 0.85989(10)
H4 H 0.9536 -0.2485 0.8692
H5 H 0.7880 -0.2494 0.7843
C9 C 0.78086(12) 0.27428(10) 0.94519(9)
H6 H 0.7842 0.2832 1.0282
H7 H 0.8659 0.3190 0.9317
C10 C 0.68373(13) 0.09180(11) 1.07817(10)
H8 H 0.6543 0.0191 1.1123
H9 H 0.7542 0.1375 1.1384
H10 H 0.5960 0.1410 1.0449
C11 C 0.64087(13) 0.46540(10) 0.89046(10)
H11 H 0.7263 0.4993 0.8673
H12 H 0.6562 0.4817 0.9742
C12 C 0.63740(12) 0.33023(10) 0.87158(9)
H13 H 0.5517 0.2953 0.8935
H14 H 0.6261 0.3126 0.7885
C13 C 0.50036(14) 0.52876(12) 0.82268(11)
H15 H 0.4149 0.4952 0.8443
H16 H 0.5082 0.6145 0.8408
H17 H 0.4876 0.5173 0.7393
O1 O 0.88552(9) 0.20742(7) 0.76874(7)
O2 O 0.69165(10) -0.18975(8) 1.08879(7)
O3 O 0.79463(9) -0.26355(7) 0.95474(7)
N1 N 0.79751(10) 0.14589(8) 0.92033(8)
C1 C 0.15517(11) 0.41345(10) 0.63226(9)
C2 C 0.14143(11) 0.62244(10) 0.67414(9)
C3 C 0.24503(11) 0.55788(10) 0.51520(9)
C4 C 0.22025(11) 0.44163(10) 0.54178(9)
C5 C 0.11472(11) 0.49877(10) 0.69824(9)
C6 C 0.25177(12) 0.32906(10) 0.48912(10)
C7 C 0.04842(13) 0.47483(11) 0.79708(10)
H1 H 0.0328 0.3885 0.8030
H2 H 0.1158 0.5037 0.8695
H3 H -0.0466 0.5166 0.7833
C8 C 0.14921(13) 0.27922(10) 0.64011(10)
H4 H 0.0464 0.2515 0.6308
H5 H 0.2120 0.2506 0.7157
C9 C 0.21914(12) 0.77428(10) 0.55481(9)
H6 H 0.2158 0.7832 0.4718
H7 H 0.1341 0.8190 0.5683
C10 C 0.31627(13) 0.59180(11) 0.42183(10)
H8 H 0.3457 0.5191 0.3877
H9 H 0.2458 0.6375 0.3616
H10 H 0.4040 0.6410 0.4551
C11 C 0.35913(13) 0.96540(10) 0.60954(10)
H11 H 0.2737 0.9993 0.6327
H12 H 0.3438 0.9817 0.5258
C12 C 0.36260(12) 0.83023(10) 0.62842(9)
H13 H 0.4483 0.7953 0.6065
H14 H 0.3739 0.8126 0.7115
C13 C 0.49964(14) 1.02876(12) 0.67732(11)
H15 H 0.5851 0.9952 0.6557
H16 H 0.4918 1.1145 0.6592
H17 H 0.5124 1.0173 0.7607
O1 O 0.11448(9) 0.70742(7) 0.73126(7)
O2 O 0.30835(10) 0.31025(8) 0.41121(7)
O3 O 0.20537(9) 0.23645(7) 0.54526(7)
N1 N 0.20249(10) 0.64589(8) 0.57967(8)

#END
