./ADICIB_from_xyz.cif_generated_by_CrystalShift
_symmetry_cell_setting triclinic
_symmetry_space_group_name_H-M 'P 1'
loop_
_symmetry_equiv_pos_site_id
_symmetry_equiv_pos_as_xyz
1 x,y,z
_cell_length_a 8.374600
_cell_length_b 5.691000
_cell_length_c 15.669700
_cell_angle_alpha 90.000000
_cell_angle_beta 101.539000
_cell_angle_gamma 90.000000
_cell_volume 731.721465
loop_
_atom_site_label
_atom_site_type_symbol
_atom_site_fract_x
_atom_site_fract_y
_atom_site_fract_z
Br1 Br 0.819220 0.744500 0.790245
O2 O 0.464100 1.167400 0.643840
O3 O 0.458400 1.416800 0.536570
C4 C 0.694500 0.916000 0.691100
H5 H 0.641200 0.800400 0.646300
C6 C 0.562600 1.059100 0.721670
H7 H 0.616000 1.186300 0.761300
C8 C 0.540500 1.293000 0.590480
C9 C 0.720100 1.268200 0.602270
C10 C 0.807400 1.429500 0.563310
H11 H 0.752800 1.556700 0.530500
C12 C 0.974500 1.404400 0.572460
H13 H 1.035400 1.517000 0.547600
C14 C 1.052500 1.214600 0.617940
H15 H 1.166700 1.195700 0.622800
C16 C 0.965800 1.051200 0.656640
H17 H 1.020800 0.921100 0.687300
C18 C 0.799400 1.077800 0.650560
C19 C 0.451000 0.924900 0.766920
C20 C 0.372500 0.717300 0.730060
H21 H 0.382200 0.670500 0.673100
C22 C 0.282500 0.583500 0.775970
H23 H 0.231900 0.443500 0.750900
C24 C 0.264100 0.652700 0.861170
C25 C 0.173700 0.515800 0.910520
H26 H 0.124200 0.373600 0.887000
C27 C 0.157200 0.586300 0.991200
H28 H 0.097300 0.492700 1.024000
C29 C 0.229000 0.798400 1.026160
H30 H 0.215600 0.847600 1.082200
C31 C 0.317600 0.934500 0.980660
H32 H 0.366100 1.076100 1.005500
C33 C 0.337300 0.864600 0.896600
C34 C 0.431400 0.996400 0.847680
H35 H 0.482000 1.137700 0.871500
Br36 Br 0.180780 0.244500 0.209755
O37 O 0.535900 0.667400 0.356160
O38 O 0.541600 0.916800 0.463430
C39 C 0.305500 0.416000 0.308900
H40 H 0.358800 0.300400 0.353700
C41 C 0.437400 0.559100 0.278330
H42 H 0.384000 0.686300 0.238700
C43 C 0.459500 0.793000 0.409520
C44 C 0.279900 0.768200 0.397730
C45 C 0.192600 0.929500 0.436690
H46 H 0.247200 1.056700 0.469500
C47 C 0.025500 0.904400 0.427540
H48 H -0.035400 1.017000 0.452400
C49 C -0.052500 0.714600 0.382060
H50 H -0.166700 0.695700 0.377200
C51 C 0.034200 0.551200 0.343360
H52 H -0.020800 0.421100 0.312700
C53 C 0.200600 0.577800 0.349440
C54 C 0.549000 0.424900 0.233080
C55 C 0.627500 0.217300 0.269940
H56 H 0.617800 0.170500 0.326900
C57 C 0.717500 0.083500 0.224030
H58 H 0.768100 -0.056500 0.249100
C59 C 0.735900 0.152700 0.138830
C60 C 0.826300 0.015800 0.089480
H61 H 0.875800 -0.126400 0.113000
C62 C 0.842800 0.086300 0.008800
H63 H 0.902700 -0.007300 -0.024000
C64 C 0.771000 0.298400 -0.026160
H65 H 0.784400 0.347600 -0.082200
C66 C 0.682400 0.434500 0.019340
H67 H 0.633900 0.576100 -0.005500
C68 C 0.662700 0.364600 0.103400
C69 C 0.568600 0.496400 0.152320
H70 H 0.518000 0.637700 0.128500

#END
