./ADIDAT_from_xyz.cif_generated_by_CrystalShift
_symmetry_cell_setting triclinic
_symmetry_space_group_name_H-M 'P 1'
loop_
_symmetry_equiv_pos_site_id
_symmetry_equiv_pos_as_xyz
1 x,y,z
_cell_length_a 10.340000
_cell_length_b 14.433000
_cell_length_c 15.185000
_cell_angle_alpha 90.000000
_cell_angle_beta 105.920000
_cell_angle_gamma 90.000000
_cell_volume 2179.249787
loop_
_atom_site_label
_atom_site_type_symbol
_atom_site_fract_x
_atom_site_fract_y
_atom_site_fract_z
N1 N 0.245090 0.764840 -0.002150
N2 N 0.176810 0.562830 -0.138890
N3 N 0.221110 0.983890 0.094850
C4 C 0.172680 0.704160 -0.062260
C5 C 0.035440 0.714030 -0.101350
H6 H -0.012800 0.669500 -0.141400
C7 C -0.027890 0.791250 -0.079610
H8 H -0.119500 0.800200 -0.105800
C9 C 0.045900 0.855060 -0.018570
H10 H 0.005100 0.907700 -0.003100
C11 C 0.182270 0.839200 0.019410
C12 C 0.246240 0.622040 -0.084620
C13 C 0.394310 0.615890 -0.039640
H14 H 0.429300 0.560300 -0.059200
H15 H 0.409900 0.614600 0.025700
H16 H 0.438500 0.668800 -0.056500
C17 C 0.266100 0.902730 0.089770
C18 C 0.393380 0.864470 0.149830
H19 H 0.438400 0.911300 0.192000
H20 H 0.450400 0.844900 0.113000
H21 H 0.373500 0.812400 0.183300
C22 C 0.234720 0.479410 -0.160910
C23 C 0.237200 0.401440 -0.106910
C24 C 0.283300 0.318380 -0.134850
H25 H 0.286300 0.265500 -0.099400
C26 C 0.323900 0.313250 -0.213010
H27 H 0.353400 0.257200 -0.230800
C28 C 0.321200 0.390620 -0.264850
H29 H 0.350000 0.386800 -0.317700
C30 C 0.276570 0.475100 -0.240660
C31 C 0.189200 0.406810 -0.022650
H32 H 0.161700 0.469100 -0.014800
H33 H 0.260700 0.389200 0.029700
H34 H 0.114300 0.365600 -0.028800
C35 C 0.274400 0.559960 -0.298470
H36 H 0.306400 0.544300 -0.350200
H37 H 0.331300 0.606700 -0.262700
H38 H 0.184000 0.583000 -0.319400
C39 C 0.288570 1.046970 0.164360
C40 C 0.382580 1.108930 0.148520
C41 C 0.433500 1.176110 0.214380
H42 H 0.496600 1.218200 0.205200
C43 C 0.392200 1.181640 0.292940
H44 H 0.427200 1.227100 0.336300
C45 C 0.300400 1.120700 0.306820
H46 H 0.272900 1.125200 0.360100
C47 C 0.246000 1.051730 0.244070
C48 C 0.427600 1.103610 0.063000
H49 H 0.382300 1.053400 0.025600
H50 H 0.523000 1.093400 0.078800
H51 H 0.406500 1.160700 0.029700
C52 C 0.144800 0.983700 0.259990
H53 H 0.127300 0.996700 0.317700
H54 H 0.179600 0.922000 0.260800
H55 H 0.062700 0.989000 0.211700
N56 N 0.254910 0.264840 0.502150
N57 N 0.323190 0.062830 0.638890
N58 N 0.278890 0.483890 0.405150
C59 C 0.327320 0.204160 0.562260
C60 C 0.464560 0.214030 0.601350
H61 H 0.512800 0.169500 0.641400
C62 C 0.527890 0.291250 0.579610
H63 H 0.619500 0.300200 0.605800
C64 C 0.454100 0.355060 0.518570
H65 H 0.494900 0.407700 0.503100
C66 C 0.317730 0.339200 0.480590
C67 C 0.253760 0.122040 0.584620
C68 C 0.105690 0.115890 0.539640
H69 H 0.070700 0.060300 0.559200
H70 H 0.090100 0.114600 0.474300
H71 H 0.061500 0.168800 0.556500
C72 C 0.233900 0.402730 0.410230
C73 C 0.106620 0.364470 0.350170
H74 H 0.061600 0.411300 0.308000
H75 H 0.049600 0.344900 0.387000
H76 H 0.126500 0.312400 0.316700
C77 C 0.265280 -0.020590 0.660910
C78 C 0.262800 -0.098560 0.606910
C79 C 0.216700 -0.181620 0.634850
H80 H 0.213700 -0.234500 0.599400
C81 C 0.176100 -0.186750 0.713010
H82 H 0.146600 -0.242800 0.730800
C83 C 0.178800 -0.109380 0.764850
H84 H 0.150000 -0.113200 0.817700
C85 C 0.223430 -0.024900 0.740660
C86 C 0.310800 -0.093190 0.522650
H87 H 0.338300 -0.030900 0.514800
H88 H 0.239300 -0.110800 0.470300
H89 H 0.385700 -0.134400 0.528800
C90 C 0.225600 0.059960 0.798470
H91 H 0.193600 0.044300 0.850200
H92 H 0.168700 0.106700 0.762700
H93 H 0.316000 0.083000 0.819400
C94 C 0.211430 0.546970 0.335640
C95 C 0.117420 0.608930 0.351480
C96 C 0.066500 0.676110 0.285620
H97 H 0.003400 0.718200 0.294800
C98 C 0.107800 0.681640 0.207060
H99 H 0.072800 0.727100 0.163700
C100 C 0.199600 0.620700 0.193180
H101 H 0.227100 0.625200 0.139900
C102 C 0.254000 0.551730 0.255930
C103 C 0.072400 0.603610 0.437000
H104 H 0.117700 0.553400 0.474400
H105 H -0.023000 0.593400 0.421200
H106 H 0.093500 0.660700 0.470300
C107 C 0.355200 0.483700 0.240010
H108 H 0.372700 0.496700 0.182300
H109 H 0.320400 0.422000 0.239200
H110 H 0.437300 0.489000 0.288300
N111 N 0.754910 0.235160 1.002150
N112 N 0.823190 0.437170 1.138890
N113 N 0.778890 0.016110 0.905150
C114 C 0.827320 0.295840 1.062260
C115 C 0.964560 0.285970 1.101350
H116 H 1.012800 0.330500 1.141400
C117 C 1.027890 0.208750 1.079610
H118 H 1.119500 0.199800 1.105800
C119 C 0.954100 0.144940 1.018570
H120 H 0.994900 0.092300 1.003100
C121 C 0.817730 0.160800 0.980590
C122 C 0.753760 0.377960 1.084620
C123 C 0.605690 0.384110 1.039640
H124 H 0.570700 0.439700 1.059200
H125 H 0.590100 0.385400 0.974300
H126 H 0.561500 0.331200 1.056500
C127 C 0.733900 0.097270 0.910230
C128 C 0.606620 0.135530 0.850170
H129 H 0.561600 0.088700 0.808000
H130 H 0.549600 0.155100 0.887000
H131 H 0.626500 0.187600 0.816700
C132 C 0.765280 0.520590 1.160910
C133 C 0.762800 0.598560 1.106910
C134 C 0.716700 0.681620 1.134850
H135 H 0.713700 0.734500 1.099400
C136 C 0.676100 0.686750 1.213010
H137 H 0.646600 0.742800 1.230800
C138 C 0.678800 0.609380 1.264850
H139 H 0.650000 0.613200 1.317700
C140 C 0.723430 0.524900 1.240660
C141 C 0.810800 0.593190 1.022650
H142 H 0.838300 0.530900 1.014800
H143 H 0.739300 0.610800 0.970300
H144 H 0.885700 0.634400 1.028800
C145 C 0.725600 0.440040 1.298470
H146 H 0.693600 0.455700 1.350200
H147 H 0.668700 0.393300 1.262700
H148 H 0.816000 0.417000 1.319400
C149 C 0.711430 -0.046970 0.835640
C150 C 0.617420 -0.108930 0.851480
C151 C 0.566500 -0.176110 0.785620
H152 H 0.503400 -0.218200 0.794800
C153 C 0.607800 -0.181640 0.707060
H154 H 0.572800 -0.227100 0.663700
C155 C 0.699600 -0.120700 0.693180
H156 H 0.727100 -0.125200 0.639900
C157 C 0.754000 -0.051730 0.755930
C158 C 0.572400 -0.103610 0.937000
H159 H 0.617700 -0.053400 0.974400
H160 H 0.477000 -0.093400 0.921200
H161 H 0.593500 -0.160700 0.970300
C162 C 0.855200 0.016300 0.740010
H163 H 0.872700 0.003300 0.682300
H164 H 0.820400 0.078000 0.739200
H165 H 0.937300 0.011000 0.788300
N166 N 0.745090 0.735160 0.497850
N167 N 0.676810 0.937170 0.361110
N168 N 0.721110 0.516110 0.594850
C169 C 0.672680 0.795840 0.437740
C170 C 0.535440 0.785970 0.398650
H171 H 0.487200 0.830500 0.358600
C172 C 0.472110 0.708750 0.420390
H173 H 0.380500 0.699800 0.394200
C174 C 0.545900 0.644940 0.481430
H175 H 0.505100 0.592300 0.496900
C176 C 0.682270 0.660800 0.519410
C177 C 0.746240 0.877960 0.415380
C178 C 0.894310 0.884110 0.460360
H179 H 0.929300 0.939700 0.440800
H180 H 0.909900 0.885400 0.525700
H181 H 0.938500 0.831200 0.443500
C182 C 0.766100 0.597270 0.589770
C183 C 0.893380 0.635530 0.649830
H184 H 0.938400 0.588700 0.692000
H185 H 0.950400 0.655100 0.613000
H186 H 0.873500 0.687600 0.683300
C187 C 0.734720 1.020590 0.339090
C188 C 0.737200 1.098560 0.393090
C189 C 0.783300 1.181620 0.365150
H190 H 0.786300 1.234500 0.400600
C191 C 0.823900 1.186750 0.286990
H192 H 0.853400 1.242800 0.269200
C193 C 0.821200 1.109380 0.235150
H194 H 0.850000 1.113200 0.182300
C195 C 0.776570 1.024900 0.259340
C196 C 0.689200 1.093190 0.477350
H197 H 0.661700 1.030900 0.485200
H198 H 0.760700 1.110800 0.529700
H199 H 0.614300 1.134400 0.471200
C200 C 0.774400 0.940040 0.201530
H201 H 0.806400 0.955700 0.149800
H202 H 0.831300 0.893300 0.237300
H203 H 0.684000 0.917000 0.180600
C204 C 0.788570 0.453030 0.664360
C205 C 0.882580 0.391070 0.648520
C206 C 0.933500 0.323890 0.714380
H207 H 0.996600 0.281800 0.705200
C208 C 0.892200 0.318360 0.792940
H209 H 0.927200 0.272900 0.836300
C210 C 0.800400 0.379300 0.806820
H211 H 0.772900 0.374800 0.860100
C212 C 0.746000 0.448270 0.744070
C213 C 0.927600 0.396390 0.563000
H214 H 0.882300 0.446600 0.525600
H215 H 1.023000 0.406600 0.578800
H216 H 0.906500 0.339300 0.529700
C217 C 0.644800 0.516300 0.759990
H218 H 0.627300 0.503300 0.817700
H219 H 0.679600 0.578000 0.760800
H220 H 0.562700 0.511000 0.711700

#END
