
#######################################################################
#
#                 Cambridge Crystallographic Data Centre
#                                CCDC 
#
#######################################################################
#
# If this CIF has been generated from an entry in the Cambridge 
# Structural Database, then it will include bibliographic, chemical, 
# crystal, experimental, refinement or atomic coordinate data resulting 
# from the CCDC's data processing and validation procedures.
#
#######################################################################

data_ADIJEE
_symmetry_cell_setting           monoclinic
_symmetry_space_group_name_H-M   'P 21/n'
_symmetry_Int_Tables_number      14
_space_group_name_Hall           '-P 2yn'
loop_
_symmetry_equiv_pos_site_id
_symmetry_equiv_pos_as_xyz
1 x,y,z
2 1/2-x,1/2+y,1/2-z
3 -x,-y,-z
4 1/2+x,1/2-y,1/2+z
_cell_length_a                   9.5898(11)
_cell_length_b                   15.6530(15)
_cell_length_c                   11.0541(13)
_cell_angle_alpha                90
_cell_angle_beta                 115.637(14)
_cell_angle_gamma                90
_cell_volume                     1495.97
loop_
_atom_site_label
_atom_site_type_symbol
_atom_site_fract_x
_atom_site_fract_y
_atom_site_fract_z
O1 O 0.90593(10) 0.42518(7) 0.07505(9)
C1 C 0.82438(14) 0.44677(9) 0.14528(13)
N1 N 0.69765(12) 0.48796(7) 0.08139(11)
C2 C 0.67735(14) 0.49991(9) -0.05606(13)
C3 C 0.81372(14) 0.44933(9) -0.06202(13)
H1 H 0.8743 0.4867 -0.0953
C4 C 0.89015(14) 0.41998(8) 0.28517(13)
C5 C 1.02246(15) 0.36925(9) 0.33758(14)
H2 H 1.0718 0.3539 0.2825
C6 C 1.08302(15) 0.34085(9) 0.46942(14)
H3 H 1.1729 0.3059 0.5041
C7 C 1.01142(15) 0.36384(9) 0.55039(13)
C8 C 0.87980(15) 0.41588(9) 0.49917(14)
H4 H 0.8320 0.4322 0.5550
C9 C 0.81951(14) 0.44338(9) 0.36817(13)
H5 H 0.7297 0.4784 0.3337
O2 O 1.06054(12) 0.33927(7) 0.68012(10)
C10 C 1.19439(18) 0.28525(11) 0.73539(16)
H6 H 1.1776 0.2348 0.6782
H7 H 1.2122 0.2672 0.8258
H8 H 1.2848 0.3168 0.7399
O3 O 0.53601(10) 0.47021(7) -0.15089(10)
H9 H 0.4664 0.4828 -0.1270
C11 C 0.69373(17) 0.59517(10) -0.07877(15)
F1 F 0.68427(12) 0.60992(6) -0.20109(9)
F2 F 0.58514(10) 0.64172(6) -0.06481(10)
F3 F 0.83203(10) 0.62511(6) 0.00945(9)
C12 C 0.75760(14) 0.36992(9) -0.14854(14)
O4 O 0.76015(12) 0.29951(7) -0.10489(11)
O5 O 0.70552(11) 0.39163(6) -0.27683(10)
C13 C 0.6242(2) 0.32537(11) -0.37471(15)
H10 H 0.5741 0.2848 -0.3371
H11 H 0.6977 0.2933 -0.3986
C14 C 0.5050(2) 0.36859(13) -0.49627(18)
H12 H 0.4468 0.3255 -0.5636
H13 H 0.5560 0.4077 -0.5336
H14 H 0.4339 0.4009 -0.4711
O1 O 0.59407(10) 0.92518(7) 0.42495(9)
C1 C 0.67562(14) 0.94677(9) 0.35472(13)
N1 N 0.80235(12) 0.98796(7) 0.41861(11)
C2 C 0.82265(14) 0.99991(9) 0.55606(13)
C3 C 0.68628(14) 0.94933(9) 0.56202(13)
H1 H 0.6257 0.9867 0.5953
C4 C 0.60985(14) 0.91998(8) 0.21483(13)
C5 C 0.47754(15) 0.86925(9) 0.16242(14)
H2 H 0.4282 0.8539 0.2175
C6 C 0.41698(15) 0.84085(9) 0.03058(14)
H3 H 0.3271 0.8059 -0.0041
C7 C 0.48858(15) 0.86384(9) -0.05039(13)
C8 C 0.62020(15) 0.91588(9) 0.00083(14)
H4 H 0.6680 0.9322 -0.0550
C9 C 0.68049(14) 0.94338(9) 0.13183(13)
H5 H 0.7703 0.9784 0.1663
O2 O 0.43946(12) 0.83927(7) -0.18012(10)
C10 C 0.30561(18) 0.78525(11) -0.23539(16)
H6 H 0.3224 0.7348 -0.1782
H7 H 0.2878 0.7672 -0.3258
H8 H 0.2152 0.8168 -0.2399
O3 O 0.96399(10) 0.97021(7) 0.65089(10)
H9 H 1.0336 0.9828 0.6270
C11 C 0.80627(17) 1.09517(10) 0.57877(15)
F1 F 0.81573(12) 1.10992(6) 0.70109(9)
F2 F 0.91486(10) 1.14172(6) 0.56481(10)
F3 F 0.66797(10) 1.12511(6) 0.49055(9)
C12 C 0.74240(14) 0.86992(9) 0.64854(14)
O4 O 0.73985(12) 0.79951(7) 0.60489(11)
O5 O 0.79448(11) 0.89163(6) 0.77683(10)
C13 C 0.8758(2) 0.82537(11) 0.87471(15)
H10 H 0.9259 0.7848 0.8371
H11 H 0.8023 0.7933 0.8986
C14 C 0.9950(2) 0.86859(13) 0.99627(18)
H12 H 1.0532 0.8255 1.0636
H13 H 0.9440 0.9077 1.0336
H14 H 1.0661 0.9009 0.9711
O1 O 0.09407(10) 0.57482(7) 0.92495(9)
C1 C 0.17562(14) 0.55323(9) 0.85472(13)
N1 N 0.30235(12) 0.51204(7) 0.91861(11)
C2 C 0.32265(14) 0.50009(9) 1.05606(13)
C3 C 0.18628(14) 0.55067(9) 1.06202(13)
H1 H 0.1257 0.5133 1.0953
C4 C 0.10985(14) 0.58002(8) 0.71483(13)
C5 C -0.02246(15) 0.63075(9) 0.66242(14)
H2 H -0.0718 0.6461 0.7175
C6 C -0.08302(15) 0.65915(9) 0.53058(14)
H3 H -0.1729 0.6941 0.4959
C7 C -0.01142(15) 0.63616(9) 0.44961(13)
C8 C 0.12020(15) 0.58412(9) 0.50083(14)
H4 H 0.1680 0.5678 0.4450
C9 C 0.18049(14) 0.55662(9) 0.63183(13)
H5 H 0.2703 0.5216 0.6663
O2 O -0.06054(12) 0.66073(7) 0.31988(10)
C10 C -0.19439(18) 0.71475(11) 0.26461(16)
H6 H -0.1776 0.7652 0.3218
H7 H -0.2122 0.7328 0.1742
H8 H -0.2848 0.6832 0.2601
O3 O 0.46399(10) 0.52979(7) 1.15089(10)
H9 H 0.5336 0.5172 1.1270
C11 C 0.30627(17) 0.40483(10) 1.07877(15)
F1 F 0.31573(12) 0.39008(6) 1.20109(9)
F2 F 0.41486(10) 0.35828(6) 1.06481(10)
F3 F 0.16797(10) 0.37489(6) 0.99055(9)
C12 C 0.24240(14) 0.63008(9) 1.14854(14)
O4 O 0.23985(12) 0.70049(7) 1.10489(11)
O5 O 0.29448(11) 0.60837(6) 1.27683(10)
C13 C 0.3758(2) 0.67463(11) 1.37471(15)
H10 H 0.4259 0.7152 1.3371
H11 H 0.3023 0.7067 1.3986
C14 C 0.4950(2) 0.63141(13) 1.49627(18)
H12 H 0.5532 0.6745 1.5636
H13 H 0.4440 0.5923 1.5336
H14 H 0.5661 0.5991 1.4711
O1 O 0.40593(10) 0.07482(7) 0.57505(9)
C1 C 0.32438(14) 0.05323(9) 0.64528(13)
N1 N 0.19765(12) 0.01204(7) 0.58139(11)
C2 C 0.17735(14) 0.00009(9) 0.44394(13)
C3 C 0.31372(14) 0.05067(9) 0.43798(13)
H1 H 0.3743 0.0133 0.4047
C4 C 0.39015(14) 0.08002(8) 0.78517(13)
C5 C 0.52246(15) 0.13075(9) 0.83758(14)
H2 H 0.5718 0.1461 0.7825
C6 C 0.58302(15) 0.15915(9) 0.96942(14)
H3 H 0.6729 0.1941 1.0041
C7 C 0.51142(15) 0.13616(9) 1.05039(13)
C8 C 0.37980(15) 0.08412(9) 0.99917(14)
H4 H 0.3320 0.0678 1.0550
C9 C 0.31951(14) 0.05662(9) 0.86817(13)
H5 H 0.2297 0.0216 0.8337
O2 O 0.56054(12) 0.16073(7) 1.18012(10)
C10 C 0.69439(18) 0.21475(11) 1.23539(16)
H6 H 0.6776 0.2652 1.1782
H7 H 0.7122 0.2328 1.3258
H8 H 0.7848 0.1832 1.2399
O3 O 0.03601(10) 0.02979(7) 0.34911(10)
H9 H -0.0336 0.0172 0.3730
C11 C 0.19373(17) -0.09517(10) 0.42123(15)
F1 F 0.18427(12) -0.10992(6) 0.29891(9)
F2 F 0.08514(10) -0.14172(6) 0.43519(10)
F3 F 0.33203(10) -0.12511(6) 0.50945(9)
C12 C 0.25760(14) 0.13008(9) 0.35146(14)
O4 O 0.26015(12) 0.20049(7) 0.39511(11)
O5 O 0.20552(11) 0.10837(6) 0.22317(10)
C13 C 0.1242(2) 0.17463(11) 0.12529(15)
H10 H 0.0741 0.2152 0.1629
H11 H 0.1977 0.2067 0.1014
C14 C 0.0050(2) 0.13141(13) 0.00373(18)
H12 H -0.0532 0.1745 -0.0636
H13 H 0.0560 0.0923 -0.0336
H14 H -0.0661 0.0991 0.0289

#END
