
#######################################################################
#
#                 Cambridge Crystallographic Data Centre
#                                CCDC 
#
#######################################################################
#
# If this CIF has been generated from an entry in the Cambridge 
# Structural Database, then it will include bibliographic, chemical, 
# crystal, experimental, refinement or atomic coordinate data resulting 
# from the CCDC's data processing and validation procedures.
#
#######################################################################

data_ADINOQ
_symmetry_cell_setting           triclinic
_symmetry_space_group_name_H-M   'P 1'
_symmetry_Int_Tables_number      1
_space_group_name_Hall           'P 1'
loop_
_symmetry_equiv_pos_site_id
_symmetry_equiv_pos_as_xyz
1 x,y,z
_cell_length_a                   12.4178(8)
_cell_length_b                   12.8828(8)
_cell_length_c                   15.7080(10)
_cell_angle_alpha                103.931(2)
_cell_angle_beta                 110.1920(10)
_cell_angle_gamma                100.0100(10)
_cell_volume                     2196.16
loop_
_atom_site_label
_atom_site_type_symbol
_atom_site_fract_x
_atom_site_fract_y
_atom_site_fract_z
Zn1 Zn 0.42164(13) 0.81433(13) 0.66587(12)
O1 O 0.5832(9) 0.8832(9) 0.7651(8)
O2 O 0.6071(10) 1.0071(10) 0.6945(8)
O3 O 1.2014(11) 1.0169(11) 1.0080(10)
O4 O 1.2174(11) 1.1408(15) 0.9408(11)
O5 O 0.3575(10) 0.6732(9) 0.6686(8)
O6 O 0.1697(10) 0.6697(9) 0.5801(9)
O7 O 0.1416(14) 0.1622(10) 0.7066(11)
O8 O -0.0341(13) 0.1829(12) 0.6502(11)
N1 N 0.3250(9) 0.8818(9) 0.5709(10)
N2 N 0.3360(12) 0.9209(11) 0.7430(10)
N3 N 0.4662(12) 0.7569(12) 0.5411(11)
N4 N 1.1548(13) 1.0637(16) 0.9534(10)
N5 N 0.0761(19) 0.2126(15) 0.6764(15)
C1 C 0.2537(13) 0.9434(11) 0.5919(13)
C2 C 0.1839(12) 0.9857(14) 0.5232(14)
H1 H 0.1390 1.0323 0.5380
C3 C 0.1857(16) 0.9548(15) 0.4343(15)
H2 H 0.1365 0.9781 0.3875
C4 C 0.2592(15) 0.8883(15) 0.4083(14)
H3 H 0.2615 0.8700 0.3481
C5 C 0.3261(14) 0.8545(14) 0.4825(14)
C6 C 0.2696(13) 0.9614(11) 0.6887(10)
H4 H 0.2284 1.0056 0.7130
C7 C 0.3572(19) 0.9334(16) 0.8372(15)
H5 H 0.2956 0.9627 0.8502
H6 H 0.4326 0.9905 0.8763
C8 C 0.3626(8) 0.8363(7) 0.8726(6)
C9 C 0.4725(10) 0.8140(10) 0.9080(7)
H7 H 0.5416 0.8640 0.9157
C10 C 0.4794(13) 0.7188(13) 0.9316(10)
H8 H 0.5533 0.7042 0.9522
C11 C 0.3824(12) 0.6448(13) 0.9261(12)
C12 C 0.3820(13) 0.5415(13) 0.9458(12)
H9 H 0.4537 0.5228 0.9615
C13 C 0.2885(14) 0.4695(14) 0.9437(14)
H10 H 0.2991 0.4119 0.9690
C14 C 0.1689(13) 0.4836(10) 0.9007(12)
C15 C 0.0735(13) 0.4127(11) 0.8964(11)
H11 H 0.0823 0.3534 0.9198
C16 C -0.0418(14) 0.4281(13) 0.8561(13)
H12 H -0.1100 0.3787 0.8506
C17 C -0.0478(15) 0.5220(15) 0.8247(14)
H13 H -0.1231 0.5303 0.7945
C18 C 0.0480(14) 0.6001(14) 0.8355(12)
C19 C 0.0463(13) 0.6975(13) 0.8083(11)
H14 H -0.0281 0.7086 0.7798
C20 C 0.1440(12) 0.7762(12) 0.8202(9)
H15 H 0.1361 0.8413 0.8061
C21 C 0.2622(9) 0.7560(8) 0.8559(8)
C22 C 0.2632(10) 0.6582(8) 0.8826(9)
C23 C 0.1667(12) 0.5808(9) 0.8757(10)
C24 C 0.4068(13) 0.7866(13) 0.4683(11)
H16 H 0.4150 0.7658 0.4105
C25 C 0.5436(15) 0.6928(15) 0.5197(13)
H17 H 0.6257 0.7328 0.5635
H18 H 0.5370 0.6864 0.4551
C26 C 0.5150(11) 0.5757(12) 0.5272(10)
C27 C 0.4460(10) 0.4928(13) 0.4408(10)
H19 H 0.4236 0.5110 0.3846
C28 C 0.4096(11) 0.3833(13) 0.4358(9)
H20 H 0.3677 0.3283 0.3762
C29 C 0.4341(14) 0.3546(11) 0.5168(10)
C30 C 0.4025(15) 0.2378(12) 0.5113(12)
H21 H 0.3573 0.1817 0.4529
C31 C 0.4408(16) 0.2145(11) 0.5930(12)
H22 H 0.4235 0.1398 0.5889
C32 C 0.5063(15) 0.2952(11) 0.6863(11)
C33 C 0.5432(18) 0.2655(15) 0.7662(14)
H23 H 0.5226 0.1906 0.7612
C34 C 0.6111(19) 0.3450(16) 0.8552(13)
H24 H 0.6318 0.3241 0.9101
C35 C 0.6491(17) 0.4583(15) 0.8627(12)
H25 H 0.6930 0.5121 0.9227
C36 C 0.6211(14) 0.4890(11) 0.7809(10)
C37 C 0.6494(13) 0.6030(11) 0.7840(10)
H26 H 0.6907 0.6585 0.8434
C38 C 0.6191(13) 0.6330(10) 0.7049(9)
H27 H 0.6452 0.7073 0.7099
C39 C 0.5464(12) 0.5512(9) 0.6124(9)
C40 C 0.5116(12) 0.4376(10) 0.6067(9)
C41 C 0.5413(14) 0.4077(11) 0.6922(10)
C42 C 0.6478(14) 0.9697(13) 0.7583(10)
C43 C 0.7778(13) 0.9954(11) 0.8160(10)
C44 C 0.8298(13) 0.9378(12) 0.8772(10)
H28 H 0.7819 0.8837 0.8888
C45 C 0.9518(15) 0.9620(15) 0.9196(12)
H29 H 0.9867 0.9223 0.9584
C46 C 1.0233(16) 1.0445(17) 0.9052(13)
C47 C 0.9826(18) 1.1021(17) 0.8514(14)
H30 H 1.0343 1.1534 0.8403
C48 C 0.8579(18) 1.0859(13) 0.8098(13)
H31 H 0.8274 1.1336 0.7783
C49 C 0.2398(15) 0.6253(14) 0.6289(12)
C50 C 0.1953(13) 0.5154(13) 0.6394(11)
C51 C 0.2779(13) 0.4693(11) 0.6843(11)
H32 H 0.3591 0.5034 0.7056
C52 C 0.2390(14) 0.3713(13) 0.6976(12)
H33 H 0.2923 0.3390 0.7324
C53 C 0.1145(17) 0.3207(13) 0.6565(12)
C54 C 0.0310(12) 0.3706(14) 0.6118(11)
H34 H -0.0505 0.3365 0.5887
C55 C 0.0715(12) 0.4704(12) 0.6029(12)
H35 H 0.0192 0.5073 0.5737
Zn2 Zn 0.72788(13) -0.06775(12) 0.33641(11)
O9 O 0.5617(9) -0.1301(9) 0.2388(8)
O10 O 0.5414(9) -0.2672(10) 0.3030(9)
O11 O -0.0403(12) -0.2604(13) 0.0001(10)
O12 O -0.0649(12) -0.3956(13) 0.0556(12)
O13 O 0.7996(9) 0.0795(9) 0.3348(9)
O14 O 0.9808(9) 0.0801(10) 0.4228(8)
O15 O 1.0106(10) 0.5847(10) 0.3021(9)
O16 O 1.1918(13) 0.5781(11) 0.3601(11)
N6 N 0.8184(12) -0.1265(11) 0.4391(11)
N7 N 0.8178(14) -0.1715(11) 0.2645(11)
N8 N 0.6815(11) -0.0080(10) 0.4666(9)
N9 N -0.0056(18) -0.3232(15) 0.0442(15)
N10 N 1.0854(13) 0.5400(13) 0.3367(11)
C56 C 0.8842(16) -0.1915(15) 0.4154(14)
C57 C 0.9583(14) -0.2307(13) 0.4814(15)
H36 H 1.0074 -0.2717 0.4656
C58 C 0.9563(15) -0.2062(14) 0.5719(14)
H37 H 1.0007 -0.2338 0.6176
C59 C 0.8908(13) -0.1438(14) 0.5904(12)
H38 H 0.8915 -0.1227 0.6516
C60 C 0.8191(13) -0.1076(12) 0.5200(12)
C61 C 0.8817(14) -0.2173(14) 0.3166(16)
H39 H 0.9236 -0.2633 0.2953
C62 C 0.8100(17) -0.1961(14) 0.1622(14)
H40 H 0.7297 -0.2046 0.1175
H41 H 0.8327 -0.2632 0.1425
C63 C 0.9070(12) -0.0839(14) 0.1681(8)
C64 C 1.0287(12) -0.0706(13) 0.1964(8)
H42 H 1.0553 -0.1275 0.2163
C65 C 1.1177(13) 0.0155(14) 0.1997(10)
H43 H 1.1962 0.0116 0.2184
C66 C 1.0897(14) 0.1043(16) 0.1756(16)
C67 C 1.1795(15) 0.1959(15) 0.1760(13)
H44 H 1.2594 0.1962 0.1962
C68 C 1.1447(17) 0.2795(17) 0.1467(14)
H45 H 1.1970 0.3414 0.1477
C69 C 1.0152(17) 0.2618(18) 0.113(2)
C70 C 0.9788(18) 0.3451(16) 0.0900(15)
H46 H 1.0324 0.4077 0.0935
C71 C 0.8580(19) 0.3360(18) 0.0603(18)
H47 H 0.8316 0.3939 0.0424
C72 C 0.7722(18) 0.2449(18) 0.0555(16)
H48 H 0.6921 0.2440 0.0317
C73 C 0.8011(16) 0.1593(16) 0.0839(17)
C74 C 0.7103(14) 0.0705(15) 0.0832(12)
H49 H 0.6307 0.0712 0.0608
C75 C 0.7415(11) -0.0129(13) 0.1149(9)
H50 H 0.6912 -0.0675 0.1243
C76 C 0.8703(13) -0.0036(15) 0.1328(14)
C77 C 0.9621(12) 0.0894(14) 0.1434(13)
C78 C 0.9309(16) 0.1806(17) 0.1222(19)
C79 C 0.7374(13) -0.0387(11) 0.5337(13)
H51 H 0.7286 -0.0193 0.5914
C80 C 0.5947(12) 0.0576(12) 0.4754(11)
H52 H 0.5171 0.0198 0.4228
H53 H 0.5856 0.0619 0.5349
C81 C 0.6371(10) 0.1723(11) 0.4738(9)
C82 C 0.7086(10) 0.2575(13) 0.5590(10)
H54 H 0.7340 0.2414 0.6161
C83 C 0.7430(11) 0.3674(12) 0.5604(10)
H55 H 0.7934 0.4226 0.6183
C84 C 0.7046(13) 0.3955(10) 0.4793(9)
C85 C 0.7438(15) 0.5097(11) 0.4782(11)
H56 H 0.7935 0.5663 0.5354
C86 C 0.7088(16) 0.5331(13) 0.3958(12)
H57 H 0.7376 0.6051 0.3967
C87 C 0.6281(14) 0.4501(11) 0.3067(11)
C88 C 0.5957(14) 0.4760(12) 0.2247(11)
H58 H 0.6214 0.5492 0.2268
C89 C 0.5239(18) 0.3934(15) 0.1373(12)
H59 H 0.4988 0.4117 0.0812
C90 C 0.4898(14) 0.2830(13) 0.1341(9)
H60 H 0.4402 0.2283 0.0757
C91 C 0.5285(14) 0.2536(11) 0.2161(9)
C92 C 0.4857(14) 0.1417(11) 0.2160(10)
H61 H 0.4312 0.0863 0.1597
C93 C 0.5257(13) 0.1191(10) 0.2984(9)
H62 H 0.5037 0.0451 0.2955
C94 C 0.5992(12) 0.1994(9) 0.3899(8)
C95 C 0.6363(12) 0.3112(8) 0.3917(7)
C96 C 0.5938(12) 0.3388(9) 0.3060(8)
C97 C 0.5020(16) -0.2102(13) 0.2518(13)
C98 C 0.3651(14) -0.2480(12) 0.1876(10)
C99 C 0.3226(14) -0.1911(15) 0.1316(13)
H63 H 0.3754 -0.1336 0.1276
C100 C 0.1994(17) -0.2146(12) 0.0774(12)
H64 H 0.1687 -0.1783 0.0340
C101 C 0.1280(15) -0.2947(13) 0.0932(11)
C102 C 0.1717(17) -0.3540(13) 0.1524(12)
H65 H 0.1210 -0.4115 0.1582
C103 C 0.2936(14) -0.3249(13) 0.2029(10)
H66 H 0.3263 -0.3589 0.2478
C104 C 0.9110(12) 0.1183(10) 0.3795(9)
C105 C 0.9544(12) 0.2300(12) 0.3671(10)
C106 C 0.8781(12) 0.2874(14) 0.3246(11)
H67 H 0.7960 0.2552 0.3004
C107 C 0.9191(14) 0.3916(11) 0.3164(11)
H68 H 0.8649 0.4285 0.2898
C108 C 1.0376(15) 0.4381(12) 0.3473(11)
C109 C 1.1143(15) 0.3868(13) 0.3893(12)
H69 H 1.1960 0.4195 0.4113
C110 C 1.0737(12) 0.2823(12) 0.4011(9)
H70 H 1.1294 0.2496 0.4324

#END
