./ADIPAC05_from_xyz.cif_generated_by_CrystalShift
_symmetry_cell_setting triclinic
_symmetry_space_group_name_H-M 'P 1'
loop_
_symmetry_equiv_pos_site_id
_symmetry_equiv_pos_as_xyz
1 x,y,z
_cell_length_a 7.428200
_cell_length_b 14.992500
_cell_length_c 10.100000
_cell_angle_alpha 90.000000
_cell_angle_beta 111.450000
_cell_angle_gamma 90.000000
_cell_volume 1046.901959
loop_
_atom_site_label
_atom_site_type_symbol
_atom_site_fract_x
_atom_site_fract_y
_atom_site_fract_z
O1 O 0.568840 -0.036300 0.868070
O2 O 0.389690 0.084790 0.867850
C3 C 0.469640 0.027770 0.805620
C4 C 0.429280 0.050100 0.651160
C5 C 0.527920 -0.011760 0.578790
H6 H 0.413300 0.063200 0.960600
H7 H 0.285600 0.048100 0.600700
H8 H 0.471700 0.112200 0.649200
H9 H 0.669900 -0.009100 0.628100
H10 H 0.488400 -0.073800 0.585100
O11 O 0.431160 0.036300 0.131930
O12 O 0.610310 -0.084790 0.132150
C13 C 0.530360 -0.027770 0.194380
C14 C 0.570720 -0.050100 0.348840
C15 C 0.472080 0.011760 0.421210
H16 H 0.586700 -0.063200 0.039400
H17 H 0.714400 -0.048100 0.399300
H18 H 0.528300 -0.112200 0.350800
H19 H 0.330100 0.009100 0.371900
H20 H 0.511600 0.073800 0.414900
O21 O 0.568840 0.963700 0.868070
O22 O 0.389690 1.084790 0.867850
C23 C 0.469640 1.027770 0.805620
C24 C 0.429280 1.050100 0.651160
C25 C 0.527920 0.988240 0.578790
H26 H 0.413300 1.063200 0.960600
H27 H 0.285600 1.048100 0.600700
H28 H 0.471700 1.112200 0.649200
H29 H 0.669900 0.990900 0.628100
H30 H 0.488400 0.926200 0.585100
O31 O 0.431160 1.036300 0.131930
O32 O 0.610310 0.915210 0.132150
C33 C 0.530360 0.972230 0.194380
C34 C 0.570720 0.949900 0.348840
C35 C 0.472080 1.011760 0.421210
H36 H 0.586700 0.936800 0.039400
H37 H 0.714400 0.951900 0.399300
H38 H 0.528300 0.887800 0.350800
H39 H 0.330100 1.009100 0.371900
H40 H 0.511600 1.073800 0.414900
O41 O -0.068840 0.463700 -0.368070
O42 O 0.110310 0.584790 -0.367850
C43 C 0.030360 0.527770 -0.305620
C44 C 0.070720 0.550100 -0.151160
C45 C -0.027920 0.488240 -0.078790
H46 H 0.086700 0.563200 -0.460600
H47 H 0.214400 0.548100 -0.100700
H48 H 0.028300 0.612200 -0.149200
H49 H -0.169900 0.490900 -0.128100
H50 H 0.011600 0.426200 -0.085100
O51 O 0.068840 0.536300 0.368070
O52 O -0.110310 0.415210 0.367850
C53 C -0.030360 0.472230 0.305620
C54 C -0.070720 0.449900 0.151160
C55 C 0.027920 0.511760 0.078790
H56 H -0.086700 0.436800 0.460600
H57 H -0.214400 0.451900 0.100700
H58 H -0.028300 0.387800 0.149200
H59 H 0.169900 0.509100 0.128100
H60 H -0.011600 0.573800 0.085100
O61 O -0.068840 0.463700 0.631930
O62 O 0.110310 0.584790 0.632150
C63 C 0.030360 0.527770 0.694380
C64 C 0.070720 0.550100 0.848840
C65 C -0.027920 0.488240 0.921210
H66 H 0.086700 0.563200 0.539400
H67 H 0.214400 0.548100 0.899300
H68 H 0.028300 0.612200 0.850800
H69 H -0.169900 0.490900 0.871900
H70 H 0.011600 0.426200 0.914900
O71 O 0.068840 0.536300 1.368070
O72 O -0.110310 0.415210 1.367850
C73 C -0.030360 0.472230 1.305620
C74 C -0.070720 0.449900 1.151160
C75 C 0.027920 0.511760 1.078790
H76 H -0.086700 0.436800 1.460600
H77 H -0.214400 0.451900 1.100700
H78 H -0.028300 0.387800 1.149200
H79 H 0.169900 0.509100 1.128100
H80 H -0.011600 0.573800 1.085100
O81 O 0.931160 0.463700 -0.368070
O82 O 1.110310 0.584790 -0.367850
C83 C 1.030360 0.527770 -0.305620
C84 C 1.070720 0.550100 -0.151160
C85 C 0.972080 0.488240 -0.078790
H86 H 1.086700 0.563200 -0.460600
H87 H 1.214400 0.548100 -0.100700
H88 H 1.028300 0.612200 -0.149200
H89 H 0.830100 0.490900 -0.128100
H90 H 1.011600 0.426200 -0.085100
O91 O 1.068840 0.536300 0.368070
O92 O 0.889690 0.415210 0.367850
C93 C 0.969640 0.472230 0.305620
C94 C 0.929280 0.449900 0.151160
C95 C 1.027920 0.511760 0.078790
H96 H 0.913300 0.436800 0.460600
H97 H 0.785600 0.451900 0.100700
H98 H 0.971700 0.387800 0.149200
H99 H 1.169900 0.509100 0.128100
H100 H 0.988400 0.573800 0.085100
O101 O 0.931160 0.463700 0.631930
O102 O 1.110310 0.584790 0.632150
C103 C 1.030360 0.527770 0.694380
C104 C 1.070720 0.550100 0.848840
C105 C 0.972080 0.488240 0.921210
H106 H 1.086700 0.563200 0.539400
H107 H 1.214400 0.548100 0.899300
H108 H 1.028300 0.612200 0.850800
H109 H 0.830100 0.490900 0.871900
H110 H 1.011600 0.426200 0.914900
O111 O 1.068840 0.536300 1.368070
O112 O 0.889690 0.415210 1.367850
C113 C 0.969640 0.472230 1.305620
C114 C 0.929280 0.449900 1.151160
C115 C 1.027920 0.511760 1.078790
H116 H 0.913300 0.436800 1.460600
H117 H 0.785600 0.451900 1.100700
H118 H 0.971700 0.387800 1.149200
H119 H 1.169900 0.509100 1.128100
H120 H 0.988400 0.573800 1.085100
O121 O 1.061220 0.210220 1.304310
O122 O 0.899990 0.083600 1.307980
O123 O 0.924980 0.135560 0.566790
O124 O 1.100210 0.258300 0.568190
C125 C 0.979090 0.141480 1.246240
C126 C 0.958440 0.113910 1.097380
C127 C 1.016380 0.185930 1.013710
C128 C 0.966840 0.158760 0.857100
C129 C 1.039320 0.228370 0.777940
C130 C 1.015000 0.201940 0.628020
H131 H 0.910900 0.103200 1.399400
H132 H 1.083200 0.236700 0.478300
H133 H 0.822100 0.092500 1.053700
H134 H 1.041500 0.058500 1.107700
H135 H 1.161900 0.196500 1.058900
H136 H 0.950700 0.243000 1.017700
H137 H 0.825500 0.149300 0.809800
H138 H 1.028000 0.098000 0.852500
H139 H 0.968800 0.285200 0.772500
H140 H 1.175900 0.237800 0.826700
O141 O 0.438780 0.710220 0.195690
O142 O 0.600010 0.583600 0.192020
O143 O 0.575020 0.635560 0.933210
O144 O 0.399790 0.758300 0.931810
C145 C 0.520910 0.641480 0.253760
C146 C 0.541560 0.613910 0.402620
C147 C 0.483620 0.685930 0.486290
C148 C 0.533160 0.658760 0.642900
C149 C 0.460680 0.728370 0.722060
C150 C 0.485000 0.701940 0.871980
H151 H 0.589100 0.603200 0.100600
H152 H 0.416800 0.736700 1.021700
H153 H 0.677900 0.592500 0.446300
H154 H 0.458500 0.558500 0.392300
H155 H 0.338100 0.696500 0.441100
H156 H 0.549300 0.743000 0.482300
H157 H 0.674500 0.649300 0.690200
H158 H 0.472000 0.598000 0.647500
H159 H 0.531200 0.785200 0.727500
H160 H 0.324100 0.737800 0.673300
O161 O -0.061220 0.789780 -0.304310
O162 O 0.100010 0.916400 -0.307980
O163 O 0.075020 0.864440 0.433210
O164 O -0.100210 0.741700 0.431810
C165 C 0.020910 0.858520 -0.246240
C166 C 0.041560 0.886090 -0.097380
C167 C -0.016380 0.814070 -0.013710
C168 C 0.033160 0.841240 0.142900
C169 C -0.039320 0.771630 0.222060
C170 C -0.015000 0.798060 0.371980
H171 H 0.089100 0.896800 -0.399400
H172 H -0.083200 0.763300 0.521700
H173 H 0.177900 0.907500 -0.053700
H174 H -0.041500 0.941500 -0.107700
H175 H -0.161900 0.803500 -0.058900
H176 H 0.049300 0.757000 -0.017700
H177 H 0.174500 0.850700 0.190200
H178 H -0.028000 0.902000 0.147500
H179 H 0.031200 0.714800 0.227500
H180 H -0.175900 0.762200 0.173300
O181 O 0.561220 0.289780 0.804310
O182 O 0.399990 0.416400 0.807980
O183 O 0.424980 0.364440 0.066790
O184 O 0.600210 0.241700 0.068190
C185 C 0.479090 0.358520 0.746240
C186 C 0.458440 0.386090 0.597380
C187 C 0.516380 0.314070 0.513710
C188 C 0.466840 0.341240 0.357100
C189 C 0.539320 0.271630 0.277940
C190 C 0.515000 0.298060 0.128020
H191 H 0.410900 0.396800 0.899400
H192 H 0.583200 0.263300 -0.021700
H193 H 0.322100 0.407500 0.553700
H194 H 0.541500 0.441500 0.607700
H195 H 0.661900 0.303500 0.558900
H196 H 0.450700 0.257000 0.517700
H197 H 0.325500 0.350700 0.309800
H198 H 0.528000 0.402000 0.352500
H199 H 0.468800 0.214800 0.272500
H200 H 0.675900 0.262200 0.326700

#END
