
#######################################################################
#
#                 Cambridge Crystallographic Data Centre
#                                CCDC 
#
#######################################################################
#
# If this CIF has been generated from an entry in the Cambridge 
# Structural Database, then it will include bibliographic, chemical, 
# crystal, experimental, refinement or atomic coordinate data resulting 
# from the CCDC's data processing and validation procedures.
#
#######################################################################

data_ADIPAC05
_symmetry_cell_setting           monoclinic
_symmetry_space_group_name_H-M   'P 21/n'
_symmetry_Int_Tables_number      14
_space_group_name_Hall           '-P 2yn'
loop_
_symmetry_equiv_pos_site_id
_symmetry_equiv_pos_as_xyz
1 x,y,z
2 1/2-x,1/2+y,1/2-z
3 -x,-y,-z
4 1/2+x,1/2-y,1/2+z
_cell_length_a                   7.4282(2)
_cell_length_b                   14.9925(1)
_cell_length_c                   10.1000(3)
_cell_angle_alpha                90
_cell_angle_beta                 111.45(1)
_cell_angle_gamma                90
_cell_volume                     1046.9
loop_
_atom_site_label
_atom_site_type_symbol
_atom_site_fract_x
_atom_site_fract_y
_atom_site_fract_z
O1 O 0.56884(25) -0.03630(13) 0.86807(18)
O2 O 0.38969(26) 0.08479(13) 0.86785(19)
C1 C 0.46964(33) 0.02777(17) 0.80562(25)
C2 C 0.42928(37) 0.05010(19) 0.65116(25)
C3 C 0.52792(38) -0.01176(19) 0.57879(26)
H1 H 0.4133(50) 0.0632(25) 0.9606(43)
H2 H 0.2856(38) 0.0481(18) 0.6007(28)
H3 H 0.4717(40) 0.1122(21) 0.6492(31)
H4 H 0.6699(43) -0.0091(20) 0.6281(32)
H5 H 0.4884(43) -0.0738(21) 0.5851(33)
O1B O 0.43116(25) 0.03630(13) 0.13193(18)
O2B O 0.61031(26) -0.08479(13) 0.13215(19)
C1B C 0.53036(33) -0.02777(17) 0.19438(25)
C2B C 0.57072(37) -0.05010(19) 0.34884(25)
C3B C 0.47208(38) 0.01176(19) 0.42121(26)
H1B H 0.5867(50) -0.0632(25) 0.0394(43)
H2B H 0.7144(38) -0.0481(18) 0.3993(28)
H3B H 0.5283(40) -0.1122(21) 0.3508(31)
H4B H 0.3301(43) 0.0091(20) 0.3719(32)
H5B H 0.5116(43) 0.0738(21) 0.4149(33)
O1 O 0.56884(25) 0.96370(13) 0.86807(18)
O2 O 0.38969(26) 1.08479(13) 0.86785(19)
C1 C 0.46964(33) 1.02777(17) 0.80562(25)
C2 C 0.42928(37) 1.05010(19) 0.65116(25)
C3 C 0.52792(38) 0.98824(19) 0.57879(26)
H1 H 0.4133(50) 1.0632(25) 0.9606(43)
H2 H 0.2856(38) 1.0481(18) 0.6007(28)
H3 H 0.4717(40) 1.1122(21) 0.6492(31)
H4 H 0.6699(43) 0.9909(20) 0.6281(32)
H5 H 0.4884(43) 0.9262(21) 0.5851(33)
O1B O 0.43116(25) 1.03630(13) 0.13193(18)
O2B O 0.61031(26) 0.91521(13) 0.13215(19)
C1B C 0.53036(33) 0.97223(17) 0.19438(25)
C2B C 0.57072(37) 0.94990(19) 0.34884(25)
C3B C 0.47208(38) 1.01176(19) 0.42121(26)
H1B H 0.5867(50) 0.9368(25) 0.0394(43)
H2B H 0.7144(38) 0.9519(18) 0.3993(28)
H3B H 0.5283(40) 0.8878(21) 0.3508(31)
H4B H 0.3301(43) 1.0091(20) 0.3719(32)
H5B H 0.5116(43) 1.0738(21) 0.4149(33)
O1 O -0.06884(25) 0.46370(13) -0.36807(18)
O2 O 0.11031(26) 0.58479(13) -0.36785(19)
C1 C 0.03036(33) 0.52777(17) -0.30562(25)
C2 C 0.07072(37) 0.55010(19) -0.15116(25)
C3 C -0.02792(38) 0.48824(19) -0.07879(26)
H1 H 0.0867(50) 0.5632(25) -0.4606(43)
H2 H 0.2144(38) 0.5481(18) -0.1007(28)
H3 H 0.0283(40) 0.6122(21) -0.1492(31)
H4 H -0.1699(43) 0.4909(20) -0.1281(32)
H5 H 0.0116(43) 0.4262(21) -0.0851(33)
O1B O 0.06884(25) 0.53630(13) 0.36807(18)
O2B O -0.11031(26) 0.41521(13) 0.36785(19)
C1B C -0.03036(33) 0.47223(17) 0.30562(25)
C2B C -0.07072(37) 0.44990(19) 0.15116(25)
C3B C 0.02792(38) 0.51176(19) 0.07879(26)
H1B H -0.0867(50) 0.4368(25) 0.4606(43)
H2B H -0.2144(38) 0.4519(18) 0.1007(28)
H3B H -0.0283(40) 0.3878(21) 0.1492(31)
H4B H 0.1699(43) 0.5091(20) 0.1281(32)
H5B H -0.0116(43) 0.5738(21) 0.0851(33)
O1 O -0.06884(25) 0.46370(13) 0.63193(18)
O2 O 0.11031(26) 0.58479(13) 0.63215(19)
C1 C 0.03036(33) 0.52777(17) 0.69438(25)
C2 C 0.07072(37) 0.55010(19) 0.84884(25)
C3 C -0.02792(38) 0.48824(19) 0.92121(26)
H1 H 0.0867(50) 0.5632(25) 0.5394(43)
H2 H 0.2144(38) 0.5481(18) 0.8993(28)
H3 H 0.0283(40) 0.6122(21) 0.8508(31)
H4 H -0.1699(43) 0.4909(20) 0.8719(32)
H5 H 0.0116(43) 0.4262(21) 0.9149(33)
O1B O 0.06884(25) 0.53630(13) 1.36807(18)
O2B O -0.11031(26) 0.41521(13) 1.36785(19)
C1B C -0.03036(33) 0.47223(17) 1.30562(25)
C2B C -0.07072(37) 0.44990(19) 1.15116(25)
C3B C 0.02792(38) 0.51176(19) 1.07879(26)
H1B H -0.0867(50) 0.4368(25) 1.4606(43)
H2B H -0.2144(38) 0.4519(18) 1.1007(28)
H3B H -0.0283(40) 0.3878(21) 1.1492(31)
H4B H 0.1699(43) 0.5091(20) 1.1281(32)
H5B H -0.0116(43) 0.5738(21) 1.0851(33)
O1 O 0.93116(25) 0.46370(13) -0.36807(18)
O2 O 1.11031(26) 0.58479(13) -0.36785(19)
C1 C 1.03036(33) 0.52777(17) -0.30562(25)
C2 C 1.07072(37) 0.55010(19) -0.15116(25)
C3 C 0.97208(38) 0.48824(19) -0.07879(26)
H1 H 1.0867(50) 0.5632(25) -0.4606(43)
H2 H 1.2144(38) 0.5481(18) -0.1007(28)
H3 H 1.0283(40) 0.6122(21) -0.1492(31)
H4 H 0.8301(43) 0.4909(20) -0.1281(32)
H5 H 1.0116(43) 0.4262(21) -0.0851(33)
O1B O 1.06884(25) 0.53630(13) 0.36807(18)
O2B O 0.88969(26) 0.41521(13) 0.36785(19)
C1B C 0.96964(33) 0.47223(17) 0.30562(25)
C2B C 0.92928(37) 0.44990(19) 0.15116(25)
C3B C 1.02792(38) 0.51176(19) 0.07879(26)
H1B H 0.9133(50) 0.4368(25) 0.4606(43)
H2B H 0.7856(38) 0.4519(18) 0.1007(28)
H3B H 0.9717(40) 0.3878(21) 0.1492(31)
H4B H 1.1699(43) 0.5091(20) 0.1281(32)
H5B H 0.9884(43) 0.5738(21) 0.0851(33)
O1 O 0.93116(25) 0.46370(13) 0.63193(18)
O2 O 1.11031(26) 0.58479(13) 0.63215(19)
C1 C 1.03036(33) 0.52777(17) 0.69438(25)
C2 C 1.07072(37) 0.55010(19) 0.84884(25)
C3 C 0.97208(38) 0.48824(19) 0.92121(26)
H1 H 1.0867(50) 0.5632(25) 0.5394(43)
H2 H 1.2144(38) 0.5481(18) 0.8993(28)
H3 H 1.0283(40) 0.6122(21) 0.8508(31)
H4 H 0.8301(43) 0.4909(20) 0.8719(32)
H5 H 1.0116(43) 0.4262(21) 0.9149(33)
O1B O 1.06884(25) 0.53630(13) 1.36807(18)
O2B O 0.88969(26) 0.41521(13) 1.36785(19)
C1B C 0.96964(33) 0.47223(17) 1.30562(25)
C2B C 0.92928(37) 0.44990(19) 1.15116(25)
C3B C 1.02792(38) 0.51176(19) 1.07879(26)
H1B H 0.9133(50) 0.4368(25) 1.4606(43)
H2B H 0.7856(38) 0.4519(18) 1.1007(28)
H3B H 0.9717(40) 0.3878(21) 1.1492(31)
H4B H 1.1699(43) 0.5091(20) 1.1281(32)
H5B H 0.9884(43) 0.5738(21) 1.0851(33)
O3 O 1.06122(27) 0.21022(13) 1.30431(18)
O4 O 0.89999(28) 0.08360(13) 1.30798(20)
O5 O 0.92498(26) 0.13556(13) 0.56679(18)
O6 O 1.10021(27) 0.25830(13) 0.56819(19)
C4 C 0.97909(35) 0.14148(18) 1.24624(26)
C5 C 0.95844(38) 0.11391(18) 1.09738(26)
C6 C 1.01638(38) 0.18593(19) 1.01371(26)
C7 C 0.96684(37) 0.15876(18) 0.85710(26)
C8 C 1.03932(36) 0.22837(19) 0.77794(26)
C9 C 1.01500(34) 0.20194(17) 0.62802(25)
H6 H 0.9109(52) 0.1032(26) 1.3994(43)
H7 H 1.0832(56) 0.2367(28) 0.4783(47)
H8 H 0.8221(41) 0.0925(20) 1.0537(31)
H9 H 1.0415(43) 0.0585(21) 1.1077(32)
H10 H 1.1619(45) 0.1965(21) 1.0589(33)
H11 H 0.9507(46) 0.2430(23) 1.0177(35)
H12 H 0.8255(43) 0.1493(20) 0.8098(32)
H13 H 1.0280(41) 0.0980(21) 0.8525(32)
H14 H 0.9688(40) 0.2852(20) 0.7725(30)
H15 H 1.1759(44) 0.2378(20) 0.8267(33)
O3 O 0.43878(27) 0.71022(13) 0.19569(18)
O4 O 0.60001(28) 0.58360(13) 0.19202(20)
O5 O 0.57502(26) 0.63556(13) 0.93321(18)
O6 O 0.39979(27) 0.75830(13) 0.93181(19)
C4 C 0.52091(35) 0.64148(18) 0.25376(26)
C5 C 0.54156(38) 0.61391(18) 0.40262(26)
C6 C 0.48362(38) 0.68593(19) 0.48629(26)
C7 C 0.53316(37) 0.65876(18) 0.64290(26)
C8 C 0.46068(36) 0.72837(19) 0.72206(26)
C9 C 0.48500(34) 0.70194(17) 0.87198(25)
H6 H 0.5891(52) 0.6032(26) 0.1006(43)
H7 H 0.4168(56) 0.7367(28) 1.0217(47)
H8 H 0.6779(41) 0.5925(20) 0.4463(31)
H9 H 0.4585(43) 0.5585(21) 0.3923(32)
H10 H 0.3381(45) 0.6965(21) 0.4411(33)
H11 H 0.5493(46) 0.7430(23) 0.4823(35)
H12 H 0.6745(43) 0.6493(20) 0.6902(32)
H13 H 0.4720(41) 0.5980(21) 0.6475(32)
H14 H 0.5312(40) 0.7852(20) 0.7275(30)
H15 H 0.3241(44) 0.7378(20) 0.6733(33)
O3 O -0.06122(27) 0.78978(13) -0.30431(18)
O4 O 0.10001(28) 0.91640(13) -0.30798(20)
O5 O 0.07502(26) 0.86444(13) 0.43321(18)
O6 O -0.10021(27) 0.74170(13) 0.43181(19)
C4 C 0.02091(35) 0.85852(18) -0.24624(26)
C5 C 0.04156(38) 0.88609(18) -0.09738(26)
C6 C -0.01638(38) 0.81407(19) -0.01371(26)
C7 C 0.03316(37) 0.84124(18) 0.14290(26)
C8 C -0.03932(36) 0.77163(19) 0.22206(26)
C9 C -0.01500(34) 0.79806(17) 0.37198(25)
H6 H 0.0891(52) 0.8968(26) -0.3994(43)
H7 H -0.0832(56) 0.7633(28) 0.5217(47)
H8 H 0.1779(41) 0.9075(20) -0.0537(31)
H9 H -0.0415(43) 0.9415(21) -0.1077(32)
H10 H -0.1619(45) 0.8035(21) -0.0589(33)
H11 H 0.0493(46) 0.7570(23) -0.0177(35)
H12 H 0.1745(43) 0.8507(20) 0.1902(32)
H13 H -0.0280(41) 0.9020(21) 0.1475(32)
H14 H 0.0312(40) 0.7148(20) 0.2275(30)
H15 H -0.1759(44) 0.7622(20) 0.1733(33)
O3 O 0.56122(27) 0.28978(13) 0.80431(18)
O4 O 0.39999(28) 0.41640(13) 0.80798(20)
O5 O 0.42498(26) 0.36444(13) 0.06679(18)
O6 O 0.60021(27) 0.24170(13) 0.06819(19)
C4 C 0.47909(35) 0.35852(18) 0.74624(26)
C5 C 0.45844(38) 0.38609(18) 0.59738(26)
C6 C 0.51638(38) 0.31407(19) 0.51371(26)
C7 C 0.46684(37) 0.34124(18) 0.35710(26)
C8 C 0.53932(36) 0.27163(19) 0.27794(26)
C9 C 0.51500(34) 0.29806(17) 0.12802(25)
H6 H 0.4109(52) 0.3968(26) 0.8994(43)
H7 H 0.5832(56) 0.2633(28) -0.0217(47)
H8 H 0.3221(41) 0.4075(20) 0.5537(31)
H9 H 0.5415(43) 0.4415(21) 0.6077(32)
H10 H 0.6619(45) 0.3035(21) 0.5589(33)
H11 H 0.4507(46) 0.2570(23) 0.5177(35)
H12 H 0.3255(43) 0.3507(20) 0.3098(32)
H13 H 0.5280(41) 0.4020(21) 0.3525(32)
H14 H 0.4688(40) 0.2148(20) 0.2725(30)
H15 H 0.6759(44) 0.2622(20) 0.3267(33)

#END
