
#######################################################################
#
#                 Cambridge Crystallographic Data Centre
#                                CCDC 
#
#######################################################################
#
# If this CIF has been generated from an entry in the Cambridge 
# Structural Database, then it will include bibliographic, chemical, 
# crystal, experimental, refinement or atomic coordinate data resulting 
# from the CCDC's data processing and validation procedures.
#
#######################################################################

data_ADIPAM10
_symmetry_cell_setting           monoclinic
_symmetry_space_group_name_H-M   'P 21/c'
_symmetry_Int_Tables_number      14
_space_group_name_Hall           '-P 2ybc'
loop_
_symmetry_equiv_pos_site_id
_symmetry_equiv_pos_as_xyz
1 x,y,z
2 -x,1/2+y,1/2-z
3 -x,-y,-z
4 x,1/2-y,1/2+z
_cell_length_a                   6.890(10)
_cell_length_b                   5.150(10)
_cell_length_c                   10.670(10)
_cell_angle_alpha                90
_cell_angle_beta                 111.0
_cell_angle_gamma                90
_cell_volume                     353.462
loop_
_atom_site_label
_atom_site_type_symbol
_atom_site_fract_x
_atom_site_fract_y
_atom_site_fract_z
C1 C 0.58310 0.02670 0.47070
C2 C 0.64840 -0.22450 0.42490
C3 C 0.80120 -0.19230 0.35620
H1 H 0.71360 0.08760 0.54330
H2 H 0.52570 0.10450 0.39300
H3 H 0.70760 -0.28820 0.49200
H4 H 0.53450 -0.27240 0.36470
H5 H 0.95300 -0.31200 0.29300
H6 H 0.86200 -0.58480 0.33380
N1 N 0.88300 -0.41080 0.33060
O1 O 0.84420 0.02310 0.32440
C1B C 0.41690 -0.02670 0.52930
C2B C 0.35160 0.22450 0.57510
H1B H 0.28640 -0.08760 0.45670
H2B H 0.47430 -0.10450 0.60700
C3B C 0.19880 0.19230 0.64380
H3B H 0.29240 0.28820 0.50800
H4B H 0.46550 0.27240 0.63530
N1B N 0.11700 0.41080 0.66940
O1B O 0.15580 -0.02310 0.67560
H5B H 0.04700 0.31200 0.70700
H6B H 0.13800 0.58480 0.66620
C1 C 0.58310 1.02670 0.47070
C2 C 0.64840 0.77550 0.42490
C3 C 0.80120 0.80770 0.35620
H1 H 0.71360 1.08760 0.54330
H2 H 0.52570 1.10450 0.39300
H3 H 0.70760 0.71180 0.49200
H4 H 0.53450 0.72760 0.36470
H5 H 0.95300 0.68800 0.29300
H6 H 0.86200 0.41520 0.33380
N1 N 0.88300 0.58920 0.33060
O1 O 0.84420 1.02310 0.32440
C1B C 0.41690 0.97330 0.52930
C2B C 0.35160 1.22450 0.57510
H1B H 0.28640 0.91240 0.45670
H2B H 0.47430 0.89550 0.60700
C3B C 0.19880 1.19230 0.64380
H3B H 0.29240 1.28820 0.50800
H4B H 0.46550 1.27240 0.63530
N1B N 0.11700 1.41080 0.66940
O1B O 0.15580 0.97690 0.67560
H5B H 0.04700 1.31200 0.70700
H6B H 0.13800 1.58480 0.66620
C1 C 0.41690 0.52670 0.02930
C2 C 0.35160 0.27550 0.07510
C3 C 0.19880 0.30770 0.14380
H1 H 0.28640 0.58760 -0.04330
H2 H 0.47430 0.60450 0.10700
H3 H 0.29240 0.21180 0.00800
H4 H 0.46550 0.22760 0.13530
H5 H 0.04700 0.18800 0.20700
H6 H 0.13800 -0.08480 0.16620
N1 N 0.11700 0.08920 0.16940
O1 O 0.15580 0.52310 0.17560
C1B C 0.58310 0.47330 -0.02930
C2B C 0.64840 0.72450 -0.07510
H1B H 0.71360 0.41240 0.04330
H2B H 0.52570 0.39550 -0.10700
C3B C 0.80120 0.69230 -0.14380
H3B H 0.70760 0.78820 -0.00800
H4B H 0.53450 0.77240 -0.13530
N1B N 0.88300 0.91080 -0.16940
O1B O 0.84420 0.47690 -0.17560
H5B H 0.95300 0.81200 -0.20700
H6B H 0.86200 1.08480 -0.16620
C1 C 0.41690 0.52670 1.02930
C2 C 0.35160 0.27550 1.07510
C3 C 0.19880 0.30770 1.14380
H1 H 0.28640 0.58760 0.95670
H2 H 0.47430 0.60450 1.10700
H3 H 0.29240 0.21180 1.00800
H4 H 0.46550 0.22760 1.13530
H5 H 0.04700 0.18800 1.20700
H6 H 0.13800 -0.08480 1.16620
N1 N 0.11700 0.08920 1.16940
O1 O 0.15580 0.52310 1.17560
C1B C 0.58310 0.47330 0.97070
C2B C 0.64840 0.72450 0.92490
H1B H 0.71360 0.41240 1.04330
H2B H 0.52570 0.39550 0.89300
C3B C 0.80120 0.69230 0.85620
H3B H 0.70760 0.78820 0.99200
H4B H 0.53450 0.77240 0.86470
N1B N 0.88300 0.91080 0.83060
O1B O 0.84420 0.47690 0.82440
H5B H 0.95300 0.81200 0.79300
H6B H 0.86200 1.08480 0.83380

#END
