
#######################################################################
#
#                 Cambridge Crystallographic Data Centre
#                                CCDC 
#
#######################################################################
#
# If this CIF has been generated from an entry in the Cambridge 
# Structural Database, then it will include bibliographic, chemical, 
# crystal, experimental, refinement or atomic coordinate data resulting 
# from the CCDC's data processing and validation procedures.
#
#######################################################################

data_ADISEL
_symmetry_cell_setting           monoclinic
_symmetry_space_group_name_H-M   'P 21/c'
_symmetry_Int_Tables_number      14
_space_group_name_Hall           '-P 2ybc'
loop_
_symmetry_equiv_pos_site_id
_symmetry_equiv_pos_as_xyz
1 x,y,z
2 x,1/2-y,1/2+z
3 -x,-y,-z
4 -x,1/2+y,1/2-z
_cell_length_a                   10.178(1)
_cell_length_b                   10.610(1)
_cell_length_c                   19.318(2)
_cell_angle_alpha                90
_cell_angle_beta                 101.75(1)
_cell_angle_gamma                90
_cell_volume                     2042.41
loop_
_atom_site_label
_atom_site_type_symbol
_atom_site_fract_x
_atom_site_fract_y
_atom_site_fract_z
O1 O 0.95042(11) 0.50474(11) 0.16659(6)
C1 C 0.81189(16) 0.48077(15) 0.13805(8)
H1 H 0.7584 0.5105 0.1723
N1 N 0.80124(14) 0.34016(13) 0.13297(8)
C2 C 0.93803(17) 0.28927(16) 0.16124(10)
H2 H 0.9499 0.2784 0.2130
C3 C 1.02209(17) 0.39890(16) 0.14635(9)
H3 H 1.0205 0.4031 0.0950
C4 C 1.16474(19) 0.3859(2) 0.18605(11)
H4 H 1.1680 0.3841 0.2371
H5 H 1.2186 0.4572 0.1755
C5 C 1.2193(2) 0.2623(2) 0.16222(14)
H6 H 1.2295 0.2712 0.1131
H7 H 1.3084 0.2463 0.1914
C6 C 1.1289(2) 0.1496(2) 0.16760(14)
H8 H 1.1311 0.1320 0.2176
H9 H 1.1645 0.0755 0.1473
C7 C 0.9828(2) 0.17014(19) 0.12966(13)
H10 H 0.9767 0.1801 0.0787
H11 H 0.9269 0.0985 0.1376
C8 C 0.76257(16) 0.55075(16) 0.06636(8)
C9 C 0.85428(18) 0.66495(17) 0.06589(9)
C10 C 0.8420(2) 0.77145(18) 0.11573(11)
H12 H 0.8972 0.8425 0.1062
H13 H 0.8759 0.7438 0.1645
C11 C 0.6970(2) 0.81476(19) 0.10791(13)
H14 H 0.6911 0.8787 0.1438
H15 H 0.6663 0.8528 0.0612
C12 C 0.6079(2) 0.7033(2) 0.11659(12)
H16 H 0.6348 0.6693 0.1645
H17 H 0.5145 0.7316 0.1102
C13 C 0.61821(18) 0.60070(19) 0.06324(10)
H18 H 0.5831 0.6335 0.0157
H19 H 0.5611 0.5299 0.0710
C14 C 0.7630(2) 0.46763(18) 0.00172(9)
H20 H 0.7340 0.5168 -0.0410
H21 H 0.7023 0.3972 0.0019
H22 H 0.8531 0.4362 0.0033
O2 O 0.93061(16) 0.67212(16) 0.02512(8)
S1 S 0.67406(5) 0.27146(4) 0.15818(3)
O3 O 0.70039(17) 0.13884(13) 0.15808(9)
O4 O 0.55484(14) 0.32118(16) 0.11489(8)
C15 C 0.67441(18) 0.31793(17) 0.24571(10)
C16 C 0.76229(19) 0.26108(19) 0.30193(11)
H23 H 0.8201 0.1964 0.2934
C17 C 0.7637(2) 0.3006(2) 0.37037(11)
H24 H 0.8238 0.2630 0.4081
C18 C 0.6785(2) 0.3942(2) 0.38415(12)
C19 C 0.5913(2) 0.4485(2) 0.32830(12)
H25 H 0.5326 0.5120 0.3373
C20 C 0.58821(19) 0.41175(18) 0.25917(11)
H26 H 0.5281 0.4501 0.2217
C21 C 0.6818(3) 0.4370(3) 0.45915(14)
H27 H 0.6738 0.3643 0.4885
H28 H 0.6078 0.4943 0.4597
H29 H 0.7660 0.4797 0.4773
O1 O 0.95042(11) -0.00474(11) 0.66659(6)
C1 C 0.81189(16) 0.01923(15) 0.63805(8)
H1 H 0.7584 -0.0105 0.6723
N1 N 0.80124(14) 0.15984(13) 0.63297(8)
C2 C 0.93803(17) 0.21073(16) 0.66124(10)
H2 H 0.9499 0.2216 0.7130
C3 C 1.02209(17) 0.10110(16) 0.64635(9)
H3 H 1.0205 0.0969 0.5950
C4 C 1.16474(19) 0.1141(2) 0.68605(11)
H4 H 1.1680 0.1159 0.7371
H5 H 1.2186 0.0428 0.6755
C5 C 1.2193(2) 0.2377(2) 0.66222(14)
H6 H 1.2295 0.2288 0.6131
H7 H 1.3084 0.2537 0.6914
C6 C 1.1289(2) 0.3504(2) 0.66760(14)
H8 H 1.1311 0.3680 0.7176
H9 H 1.1645 0.4245 0.6473
C7 C 0.9828(2) 0.32986(19) 0.62966(13)
H10 H 0.9767 0.3199 0.5787
H11 H 0.9269 0.4015 0.6376
C8 C 0.76257(16) -0.05075(16) 0.56636(8)
C9 C 0.85428(18) -0.16495(17) 0.56589(9)
C10 C 0.8420(2) -0.27145(18) 0.61573(11)
H12 H 0.8972 -0.3425 0.6062
H13 H 0.8759 -0.2438 0.6645
C11 C 0.6970(2) -0.31476(19) 0.60791(13)
H14 H 0.6911 -0.3787 0.6438
H15 H 0.6663 -0.3528 0.5612
C12 C 0.6079(2) -0.2033(2) 0.61659(12)
H16 H 0.6348 -0.1693 0.6645
H17 H 0.5145 -0.2316 0.6102
C13 C 0.61821(18) -0.10070(19) 0.56324(10)
H18 H 0.5831 -0.1335 0.5157
H19 H 0.5611 -0.0299 0.5710
C14 C 0.7630(2) 0.03237(18) 0.50172(9)
H20 H 0.7340 -0.0168 0.4590
H21 H 0.7023 0.1028 0.5019
H22 H 0.8531 0.0638 0.5033
O2 O 0.93061(16) -0.17212(16) 0.52512(8)
S1 S 0.67406(5) 0.22854(4) 0.65818(3)
O3 O 0.70039(17) 0.36116(13) 0.65808(9)
O4 O 0.55484(14) 0.17882(16) 0.61489(8)
C15 C 0.67441(18) 0.18207(17) 0.74571(10)
C16 C 0.76229(19) 0.23892(19) 0.80193(11)
H23 H 0.8201 0.3036 0.7934
C17 C 0.7637(2) 0.1994(2) 0.87037(11)
H24 H 0.8238 0.2370 0.9081
C18 C 0.6785(2) 0.1058(2) 0.88415(12)
C19 C 0.5913(2) 0.0515(2) 0.82830(12)
H25 H 0.5326 -0.0120 0.8373
C20 C 0.58821(19) 0.08825(18) 0.75917(11)
H26 H 0.5281 0.0499 0.7217
C21 C 0.6818(3) 0.0630(3) 0.95915(14)
H27 H 0.6738 0.1357 0.9885
H28 H 0.6078 0.0057 0.9597
H29 H 0.7660 0.0203 0.9773
O1 O 0.04958(11) 0.49526(11) 0.83341(6)
C1 C 0.18811(16) 0.51923(15) 0.86195(8)
H1 H 0.2416 0.4895 0.8277
N1 N 0.19876(14) 0.65984(13) 0.86703(8)
C2 C 0.06197(17) 0.71073(16) 0.83876(10)
H2 H 0.0501 0.7216 0.7870
C3 C -0.02209(17) 0.60110(16) 0.85365(9)
H3 H -0.0205 0.5969 0.9050
C4 C -0.16474(19) 0.6141(2) 0.81395(11)
H4 H -0.1680 0.6159 0.7629
H5 H -0.2186 0.5428 0.8245
C5 C -0.2193(2) 0.7377(2) 0.83778(14)
H6 H -0.2295 0.7288 0.8869
H7 H -0.3084 0.7537 0.8086
C6 C -0.1289(2) 0.8504(2) 0.83240(14)
H8 H -0.1311 0.8680 0.7824
H9 H -0.1645 0.9245 0.8527
C7 C 0.0172(2) 0.82986(19) 0.87034(13)
H10 H 0.0233 0.8199 0.9213
H11 H 0.0731 0.9015 0.8624
C8 C 0.23743(16) 0.44925(16) 0.93364(8)
C9 C 0.14572(18) 0.33505(17) 0.93411(9)
C10 C 0.1580(2) 0.22855(18) 0.88427(11)
H12 H 0.1028 0.1575 0.8938
H13 H 0.1241 0.2562 0.8355
C11 C 0.3030(2) 0.18524(19) 0.89209(13)
H14 H 0.3089 0.1213 0.8562
H15 H 0.3337 0.1472 0.9388
C12 C 0.3921(2) 0.2967(2) 0.88341(12)
H16 H 0.3652 0.3307 0.8355
H17 H 0.4855 0.2684 0.8898
C13 C 0.38179(18) 0.39930(19) 0.93676(10)
H18 H 0.4169 0.3665 0.9843
H19 H 0.4389 0.4701 0.9290
C14 C 0.2370(2) 0.53237(18) 0.99828(9)
H20 H 0.2660 0.4832 1.0410
H21 H 0.2977 0.6028 0.9981
H22 H 0.1469 0.5638 0.9967
O2 O 0.06939(16) 0.32788(16) 0.97488(8)
S1 S 0.32594(5) 0.72854(4) 0.84182(3)
O3 O 0.29961(17) 0.86116(13) 0.84192(9)
O4 O 0.44516(14) 0.67882(16) 0.88511(8)
C15 C 0.32559(18) 0.68207(17) 0.75429(10)
C16 C 0.23771(19) 0.73892(19) 0.69807(11)
H23 H 0.1799 0.8036 0.7066
C17 C 0.2363(2) 0.6994(2) 0.62963(11)
H24 H 0.1762 0.7370 0.5919
C18 C 0.3215(2) 0.6058(2) 0.61585(12)
C19 C 0.4087(2) 0.5515(2) 0.67170(12)
H25 H 0.4674 0.4880 0.6627
C20 C 0.41179(19) 0.58825(18) 0.74083(11)
H26 H 0.4719 0.5499 0.7783
C21 C 0.3182(3) 0.5630(3) 0.54085(14)
H27 H 0.3262 0.6357 0.5115
H28 H 0.3922 0.5057 0.5403
H29 H 0.2340 0.5203 0.5227
O1 O 0.04958(11) 1.00474(11) 0.33341(6)
C1 C 0.18811(16) 0.98077(15) 0.36195(8)
H1 H 0.2416 1.0105 0.3277
N1 N 0.19876(14) 0.84016(13) 0.36703(8)
C2 C 0.06197(17) 0.78927(16) 0.33876(10)
H2 H 0.0501 0.7784 0.2870
C3 C -0.02209(17) 0.89890(16) 0.35365(9)
H3 H -0.0205 0.9031 0.4050
C4 C -0.16474(19) 0.8859(2) 0.31395(11)
H4 H -0.1680 0.8841 0.2629
H5 H -0.2186 0.9572 0.3245
C5 C -0.2193(2) 0.7623(2) 0.33778(14)
H6 H -0.2295 0.7712 0.3869
H7 H -0.3084 0.7463 0.3086
C6 C -0.1289(2) 0.6496(2) 0.33240(14)
H8 H -0.1311 0.6320 0.2824
H9 H -0.1645 0.5755 0.3527
C7 C 0.0172(2) 0.67014(19) 0.37034(13)
H10 H 0.0233 0.6801 0.4213
H11 H 0.0731 0.5985 0.3624
C8 C 0.23743(16) 1.05075(16) 0.43364(8)
C9 C 0.14572(18) 1.16495(17) 0.43411(9)
C10 C 0.1580(2) 1.27145(18) 0.38427(11)
H12 H 0.1028 1.3425 0.3938
H13 H 0.1241 1.2438 0.3355
C11 C 0.3030(2) 1.31476(19) 0.39209(13)
H14 H 0.3089 1.3787 0.3562
H15 H 0.3337 1.3528 0.4388
C12 C 0.3921(2) 1.2033(2) 0.38341(12)
H16 H 0.3652 1.1693 0.3355
H17 H 0.4855 1.2316 0.3898
C13 C 0.38179(18) 1.10070(19) 0.43676(10)
H18 H 0.4169 1.1335 0.4843
H19 H 0.4389 1.0299 0.4290
C14 C 0.2370(2) 0.96763(18) 0.49828(9)
H20 H 0.2660 1.0168 0.5410
H21 H 0.2977 0.8972 0.4981
H22 H 0.1469 0.9362 0.4967
O2 O 0.06939(16) 1.17212(16) 0.47488(8)
S1 S 0.32594(5) 0.77146(4) 0.34182(3)
O3 O 0.29961(17) 0.63884(13) 0.34192(9)
O4 O 0.44516(14) 0.82118(16) 0.38511(8)
C15 C 0.32559(18) 0.81793(17) 0.25429(10)
C16 C 0.23771(19) 0.76108(19) 0.19807(11)
H23 H 0.1799 0.6964 0.2066
C17 C 0.2363(2) 0.8006(2) 0.12963(11)
H24 H 0.1762 0.7630 0.0919
C18 C 0.3215(2) 0.8942(2) 0.11585(12)
C19 C 0.4087(2) 0.9485(2) 0.17170(12)
H25 H 0.4674 1.0120 0.1627
C20 C 0.41179(19) 0.91175(18) 0.24083(11)
H26 H 0.4719 0.9501 0.2783
C21 C 0.3182(3) 0.9370(3) 0.04085(14)
H27 H 0.3262 0.8643 0.0115
H28 H 0.3922 0.9943 0.0403
H29 H 0.2340 0.9797 0.0227

#END
