
#######################################################################
#
#                 Cambridge Crystallographic Data Centre
#                                CCDC 
#
#######################################################################
#
# If this CIF has been generated from an entry in the Cambridge 
# Structural Database, then it will include bibliographic, chemical, 
# crystal, experimental, refinement or atomic coordinate data resulting 
# from the CCDC's data processing and validation procedures.
#
#######################################################################

data_ADISIR
_symmetry_cell_setting           triclinic
_symmetry_space_group_name_H-M   'P -1'
_symmetry_Int_Tables_number      2
_space_group_name_Hall           '-P 1'
loop_
_symmetry_equiv_pos_site_id
_symmetry_equiv_pos_as_xyz
1 x,y,z
2 -x,-y,-z
_cell_length_a                   5.4234(3)
_cell_length_b                   10.6842(5)
_cell_length_c                   14.7858(7)
_cell_angle_alpha                77.839(2)
_cell_angle_beta                 81.951(3)
_cell_angle_gamma                87.250(2)
_cell_volume                     829.131
loop_
_atom_site_label
_atom_site_type_symbol
_atom_site_fract_x
_atom_site_fract_y
_atom_site_fract_z
C1 C 1.2040(4) 0.0512(2) 0.56615(15)
H1 H 1.2197 0.051 0.5007
H2 H 1.1755 -0.0344 0.6014
H3 H 1.3544 0.0822 0.5803
C2 C 0.9779(4) 0.25712(19) 0.55050(13)
C3 C 0.3641(4) 0.45938(18) 0.65269(14)
H4 H 0.4231 0.5085 0.6925
H5 H 0.1878 0.4731 0.653
H6 H 0.447 0.4858 0.5902
C4 C 0.4179(4) 0.32013(17) 0.68759(12)
C5 C 0.2378(3) 0.24246(17) 0.76004(12)
C6 C 0.2709(4) 0.10858(17) 0.78613(13)
H7 H 0.4116 0.0689 0.7602
C7 C 0.0965(4) 0.03647(18) 0.84972(13)
H8 H 0.1184 -0.0519 0.8654
C8 C -0.1127(4) 0.09436(17) 0.89086(13)
H9 H -0.2294 0.0443 0.9336
C9 C -0.1485(3) 0.22666(17) 0.86845(12)
C10 C 0.0293(3) 0.29877(17) 0.80264(12)
H10 H 0.0071 0.3872 0.787
C11 C -0.5443(4) 0.21635(17) 0.98972(12)
H11 H -0.6017 0.2703 1.033
H12 H -0.4569 0.1431 1.0208
H13 H -0.6843 0.1885 0.9664
C12 C -0.3729(3) 0.28984(17) 0.91014(12)
C13 C -0.6582(4) 0.59543(17) 0.86413(12)
C14 C -0.4720(4) 0.78372(18) 0.75484(14)
H14 H -0.6325 0.8051 0.7348
H15 H -0.3463 0.7946 0.7013
H16 H -0.4392 0.8389 0.7951
S1 S 1.17758(10) 0.33081(5) 0.45994(4)
S2 S -0.93251(9) 0.66815(4) 0.89128(3)
N1 N 0.9963(3) 0.13364(16) 0.59039(12)
H17 H 0.901(4) 0.1089(19) 0.6388(12)
N2 N 0.7821(3) 0.32357(17) 0.58753(11)
H18 H 0.770(5) 0.407(3) 0.5640(17)
N3 N 0.6113(3) 0.25872(15) 0.65695(10)
N4 N -0.4089(3) 0.40831(14) 0.87194(10)
N5 N -0.6198(3) 0.47017(15) 0.90423(11)
H19 H -0.732(4) 0.4370(19) 0.9445(15)
N6 N -0.4691(3) 0.65184(15) 0.80500(11)
H20 H -0.335(4) 0.606(2) 0.8030(14)
C1 C -0.2040(4) 0.9488(2) 0.43385(15)
H1 H -0.2197 0.949 0.4993
H2 H -0.1755 1.0344 0.3986
H3 H -0.3544 0.9178 0.4197
C2 C 0.0221(4) 0.74288(19) 0.44950(13)
C3 C 0.6359(4) 0.54062(18) 0.34731(14)
H4 H 0.5769 0.4915 0.3075
H5 H 0.8122 0.5269 0.347
H6 H 0.553 0.5142 0.4098
C4 C 0.5821(4) 0.67987(17) 0.31241(12)
C5 C 0.7622(3) 0.75754(17) 0.23996(12)
C6 C 0.7291(4) 0.89142(17) 0.21387(13)
H7 H 0.5884 0.9311 0.2398
C7 C 0.9035(4) 0.96353(18) 0.15028(13)
H8 H 0.8816 1.0519 0.1346
C8 C 1.1127(4) 0.90564(17) 0.10914(13)
H9 H 1.2294 0.9557 0.0664
C9 C 1.1485(3) 0.77334(17) 0.13155(12)
C10 C 0.9707(3) 0.70123(17) 0.19736(12)
H10 H 0.9929 0.6128 0.213
C11 C 1.5443(4) 0.78365(17) 0.01028(12)
H11 H 1.6017 0.7297 -0.033
H12 H 1.4569 0.8569 -0.0208
H13 H 1.6843 0.8115 0.0336
C12 C 1.3729(3) 0.71016(17) 0.08986(12)
C13 C 1.6582(4) 0.40457(17) 0.13587(12)
C14 C 1.4720(4) 0.21628(18) 0.24516(14)
H14 H 1.6325 0.1949 0.2652
H15 H 1.3463 0.2054 0.2987
H16 H 1.4392 0.1611 0.2049
S1 S -0.17758(10) 0.66919(5) 0.54006(4)
S2 S 1.93251(9) 0.33185(4) 0.10872(3)
N1 N 0.0037(3) 0.86636(16) 0.40961(12)
H17 H 0.099(4) 0.8911(19) 0.3612(12)
N2 N 0.2179(3) 0.67643(17) 0.41247(11)
H18 H 0.230(5) 0.593(3) 0.4360(17)
N3 N 0.3887(3) 0.74128(15) 0.34305(10)
N4 N 1.4089(3) 0.59169(14) 0.12806(10)
N5 N 1.6198(3) 0.52983(15) 0.09577(11)
H19 H 1.732(4) 0.5630(19) 0.0555(15)
N6 N 1.4691(3) 0.34816(15) 0.19500(11)
H20 H 1.335(4) 0.394(2) 0.1970(14)

#END
