./ADISEL_from_xyz.cif_generated_by_CrystalShift
_symmetry_cell_setting triclinic
_symmetry_space_group_name_H-M 'P 1'
loop_
_symmetry_equiv_pos_site_id
_symmetry_equiv_pos_as_xyz
1 x,y,z
_cell_length_a 10.178000
_cell_length_b 10.610000
_cell_length_c 19.318000
_cell_angle_alpha 90.000000
_cell_angle_beta 101.750000
_cell_angle_gamma 90.000000
_cell_volume 2042.409611
loop_
_atom_site_label
_atom_site_type_symbol
_atom_site_fract_x
_atom_site_fract_y
_atom_site_fract_z
O1 O 0.950420 0.504740 0.166590
C2 C 0.811890 0.480770 0.138050
H3 H 0.758400 0.510500 0.172300
N4 N 0.801240 0.340160 0.132970
C5 C 0.938030 0.289270 0.161240
H6 H 0.949900 0.278400 0.213000
C7 C 1.022090 0.398900 0.146350
H8 H 1.020500 0.403100 0.095000
C9 C 1.164740 0.385900 0.186050
H10 H 1.168000 0.384100 0.237100
H11 H 1.218600 0.457200 0.175500
C12 C 1.219300 0.262300 0.162220
H13 H 1.229500 0.271200 0.113100
H14 H 1.308400 0.246300 0.191400
C15 C 1.128900 0.149600 0.167600
H16 H 1.131100 0.132000 0.217600
H17 H 1.164500 0.075500 0.147300
C18 C 0.982800 0.170140 0.129660
H19 H 0.976700 0.180100 0.078700
H20 H 0.926900 0.098500 0.137600
C21 C 0.762570 0.550750 0.066360
C22 C 0.854280 0.664950 0.065890
C23 C 0.842000 0.771450 0.115730
H24 H 0.897200 0.842500 0.106200
H25 H 0.875900 0.743800 0.164500
C26 C 0.697000 0.814760 0.107910
H27 H 0.691100 0.878700 0.143800
H28 H 0.666300 0.852800 0.061200
C29 C 0.607900 0.703300 0.116590
H30 H 0.634800 0.669300 0.164500
H31 H 0.514500 0.731600 0.110200
C32 C 0.618210 0.600700 0.063240
H33 H 0.583100 0.633500 0.015700
H34 H 0.561100 0.529900 0.071000
C35 C 0.763000 0.467630 0.001720
H36 H 0.734000 0.516800 -0.041000
H37 H 0.702300 0.397200 0.001900
H38 H 0.853100 0.436200 0.003300
O39 O 0.930610 0.672120 0.025120
S40 S 0.674060 0.271460 0.158180
O41 O 0.700390 0.138840 0.158080
O42 O 0.554840 0.321180 0.114890
C43 C 0.674410 0.317930 0.245710
C44 C 0.762290 0.261080 0.301930
H45 H 0.820100 0.196400 0.293400
C46 C 0.763700 0.300600 0.370370
H47 H 0.823800 0.263000 0.408100
C48 C 0.678500 0.394200 0.384150
C49 C 0.591300 0.448500 0.328300
H50 H 0.532600 0.512000 0.337300
C51 C 0.588210 0.411750 0.259170
H52 H 0.528100 0.450100 0.221700
C53 C 0.681800 0.437000 0.459150
H54 H 0.673800 0.364300 0.488500
H55 H 0.607800 0.494300 0.459700
H56 H 0.766000 0.479700 0.477300
O57 O 0.950420 -0.004740 0.666590
C58 C 0.811890 0.019230 0.638050
H59 H 0.758400 -0.010500 0.672300
N60 N 0.801240 0.159840 0.632970
C61 C 0.938030 0.210730 0.661240
H62 H 0.949900 0.221600 0.713000
C63 C 1.022090 0.101100 0.646350
H64 H 1.020500 0.096900 0.595000
C65 C 1.164740 0.114100 0.686050
H66 H 1.168000 0.115900 0.737100
H67 H 1.218600 0.042800 0.675500
C68 C 1.219300 0.237700 0.662220
H69 H 1.229500 0.228800 0.613100
H70 H 1.308400 0.253700 0.691400
C71 C 1.128900 0.350400 0.667600
H72 H 1.131100 0.368000 0.717600
H73 H 1.164500 0.424500 0.647300
C74 C 0.982800 0.329860 0.629660
H75 H 0.976700 0.319900 0.578700
H76 H 0.926900 0.401500 0.637600
C77 C 0.762570 -0.050750 0.566360
C78 C 0.854280 -0.164950 0.565890
C79 C 0.842000 -0.271450 0.615730
H80 H 0.897200 -0.342500 0.606200
H81 H 0.875900 -0.243800 0.664500
C82 C 0.697000 -0.314760 0.607910
H83 H 0.691100 -0.378700 0.643800
H84 H 0.666300 -0.352800 0.561200
C85 C 0.607900 -0.203300 0.616590
H86 H 0.634800 -0.169300 0.664500
H87 H 0.514500 -0.231600 0.610200
C88 C 0.618210 -0.100700 0.563240
H89 H 0.583100 -0.133500 0.515700
H90 H 0.561100 -0.029900 0.571000
C91 C 0.763000 0.032370 0.501720
H92 H 0.734000 -0.016800 0.459000
H93 H 0.702300 0.102800 0.501900
H94 H 0.853100 0.063800 0.503300
O95 O 0.930610 -0.172120 0.525120
S96 S 0.674060 0.228540 0.658180
O97 O 0.700390 0.361160 0.658080
O98 O 0.554840 0.178820 0.614890
C99 C 0.674410 0.182070 0.745710
C100 C 0.762290 0.238920 0.801930
H101 H 0.820100 0.303600 0.793400
C102 C 0.763700 0.199400 0.870370
H103 H 0.823800 0.237000 0.908100
C104 C 0.678500 0.105800 0.884150
C105 C 0.591300 0.051500 0.828300
H106 H 0.532600 -0.012000 0.837300
C107 C 0.588210 0.088250 0.759170
H108 H 0.528100 0.049900 0.721700
C109 C 0.681800 0.063000 0.959150
H110 H 0.673800 0.135700 0.988500
H111 H 0.607800 0.005700 0.959700
H112 H 0.766000 0.020300 0.977300
O113 O 0.049580 0.495260 0.833410
C114 C 0.188110 0.519230 0.861950
H115 H 0.241600 0.489500 0.827700
N116 N 0.198760 0.659840 0.867030
C117 C 0.061970 0.710730 0.838760
H118 H 0.050100 0.721600 0.787000
C119 C -0.022090 0.601100 0.853650
H120 H -0.020500 0.596900 0.905000
C121 C -0.164740 0.614100 0.813950
H122 H -0.168000 0.615900 0.762900
H123 H -0.218600 0.542800 0.824500
C124 C -0.219300 0.737700 0.837780
H125 H -0.229500 0.728800 0.886900
H126 H -0.308400 0.753700 0.808600
C127 C -0.128900 0.850400 0.832400
H128 H -0.131100 0.868000 0.782400
H129 H -0.164500 0.924500 0.852700
C130 C 0.017200 0.829860 0.870340
H131 H 0.023300 0.819900 0.921300
H132 H 0.073100 0.901500 0.862400
C133 C 0.237430 0.449250 0.933640
C134 C 0.145720 0.335050 0.934110
C135 C 0.158000 0.228550 0.884270
H136 H 0.102800 0.157500 0.893800
H137 H 0.124100 0.256200 0.835500
C138 C 0.303000 0.185240 0.892090
H139 H 0.308900 0.121300 0.856200
H140 H 0.333700 0.147200 0.938800
C141 C 0.392100 0.296700 0.883410
H142 H 0.365200 0.330700 0.835500
H143 H 0.485500 0.268400 0.889800
C144 C 0.381790 0.399300 0.936760
H145 H 0.416900 0.366500 0.984300
H146 H 0.438900 0.470100 0.929000
C147 C 0.237000 0.532370 0.998280
H148 H 0.266000 0.483200 1.041000
H149 H 0.297700 0.602800 0.998100
H150 H 0.146900 0.563800 0.996700
O151 O 0.069390 0.327880 0.974880
S152 S 0.325940 0.728540 0.841820
O153 O 0.299610 0.861160 0.841920
O154 O 0.445160 0.678820 0.885110
C155 C 0.325590 0.682070 0.754290
C156 C 0.237710 0.738920 0.698070
H157 H 0.179900 0.803600 0.706600
C158 C 0.236300 0.699400 0.629630
H159 H 0.176200 0.737000 0.591900
C160 C 0.321500 0.605800 0.615850
C161 C 0.408700 0.551500 0.671700
H162 H 0.467400 0.488000 0.662700
C163 C 0.411790 0.588250 0.740830
H164 H 0.471900 0.549900 0.778300
C165 C 0.318200 0.563000 0.540850
H166 H 0.326200 0.635700 0.511500
H167 H 0.392200 0.505700 0.540300
H168 H 0.234000 0.520300 0.522700
O169 O 0.049580 1.004740 0.333410
C170 C 0.188110 0.980770 0.361950
H171 H 0.241600 1.010500 0.327700
N172 N 0.198760 0.840160 0.367030
C173 C 0.061970 0.789270 0.338760
H174 H 0.050100 0.778400 0.287000
C175 C -0.022090 0.898900 0.353650
H176 H -0.020500 0.903100 0.405000
C177 C -0.164740 0.885900 0.313950
H178 H -0.168000 0.884100 0.262900
H179 H -0.218600 0.957200 0.324500
C180 C -0.219300 0.762300 0.337780
H181 H -0.229500 0.771200 0.386900
H182 H -0.308400 0.746300 0.308600
C183 C -0.128900 0.649600 0.332400
H184 H -0.131100 0.632000 0.282400
H185 H -0.164500 0.575500 0.352700
C186 C 0.017200 0.670140 0.370340
H187 H 0.023300 0.680100 0.421300
H188 H 0.073100 0.598500 0.362400
C189 C 0.237430 1.050750 0.433640
C190 C 0.145720 1.164950 0.434110
C191 C 0.158000 1.271450 0.384270
H192 H 0.102800 1.342500 0.393800
H193 H 0.124100 1.243800 0.335500
C194 C 0.303000 1.314760 0.392090
H195 H 0.308900 1.378700 0.356200
H196 H 0.333700 1.352800 0.438800
C197 C 0.392100 1.203300 0.383410
H198 H 0.365200 1.169300 0.335500
H199 H 0.485500 1.231600 0.389800
C200 C 0.381790 1.100700 0.436760
H201 H 0.416900 1.133500 0.484300
H202 H 0.438900 1.029900 0.429000
C203 C 0.237000 0.967630 0.498280
H204 H 0.266000 1.016800 0.541000
H205 H 0.297700 0.897200 0.498100
H206 H 0.146900 0.936200 0.496700
O207 O 0.069390 1.172120 0.474880
S208 S 0.325940 0.771460 0.341820
O209 O 0.299610 0.638840 0.341920
O210 O 0.445160 0.821180 0.385110
C211 C 0.325590 0.817930 0.254290
C212 C 0.237710 0.761080 0.198070
H213 H 0.179900 0.696400 0.206600
C214 C 0.236300 0.800600 0.129630
H215 H 0.176200 0.763000 0.091900
C216 C 0.321500 0.894200 0.115850
C217 C 0.408700 0.948500 0.171700
H218 H 0.467400 1.012000 0.162700
C219 C 0.411790 0.911750 0.240830
H220 H 0.471900 0.950100 0.278300
C221 C 0.318200 0.937000 0.040850
H222 H 0.326200 0.864300 0.011500
H223 H 0.392200 0.994300 0.040300
H224 H 0.234000 0.979700 0.022700

#END
