./ADIWOB_from_xyz.cif_generated_by_CrystalShift
_symmetry_cell_setting triclinic
_symmetry_space_group_name_H-M 'P 1'
loop_
_symmetry_equiv_pos_site_id
_symmetry_equiv_pos_as_xyz
1 x,y,z
_cell_length_a 11.968500
_cell_length_b 14.850000
_cell_length_c 23.338800
_cell_angle_alpha 90.000000
_cell_angle_beta 96.174000
_cell_angle_gamma 90.000000
_cell_volume 4123.997597
loop_
_atom_site_label
_atom_site_type_symbol
_atom_site_fract_x
_atom_site_fract_y
_atom_site_fract_z
Zn1 Zn 0.087740 0.190800 0.030688
Cl2 Cl 0.251660 0.252590 0.069420
O3 O 0.326700 -0.108310 0.227390
O4 O 0.372890 -0.009190 0.299220
N5 N 0.118530 0.106530 -0.039400
N6 N -0.019020 0.264270 -0.022340
N7 N -0.018960 0.209030 0.096330
N8 N 0.246300 0.034660 0.155630
C9 C 0.180100 0.027040 -0.041890
C10 C 0.187000 0.002420 -0.101110
H11 H 0.223200 -0.049200 -0.114500
C12 C 0.132400 0.066450 -0.133770
H13 H 0.122700 0.068300 -0.174700
C14 C 0.090900 0.131940 -0.095400
C15 C 0.029900 0.209980 -0.115600
C16 C -0.020500 0.270570 -0.081070
C17 C -0.088400 0.347760 -0.101430
H18 H -0.101400 0.368400 -0.140100
C19 C -0.129300 0.384540 -0.055320
H20 H -0.176300 0.436100 -0.055300
C21 C -0.087700 0.330230 -0.005330
C22 C -0.124200 0.338270 0.049400
C23 C -0.097100 0.276280 0.094850
C24 C -0.144600 0.280700 0.149500
H25 H -0.202000 0.320400 0.159000
C26 C -0.091500 0.217480 0.184280
H27 H -0.105100 0.204300 0.222800
C28 C -0.010400 0.173740 0.152000
C29 C 0.066600 0.110010 0.175330
C30 C 0.134200 0.061230 0.139740
C31 C 0.109500 0.037820 0.081800
H32 H 0.040000 0.038000 0.061900
C33 C 0.206800 -0.000100 0.062600
C34 C 0.288300 -0.000770 0.110570
H35 H 0.362600 -0.023300 0.110700
C36 C 0.230100 -0.021070 0.005220
C37 C 0.013800 0.225000 -0.179830
C38 C 0.103400 0.246400 -0.210110
H39 H 0.176400 0.252600 -0.190200
C40 C 0.087500 0.258900 -0.269670
H41 H 0.149800 0.273100 -0.290000
C42 C -0.018200 0.250700 -0.299140
H43 H -0.028900 0.259100 -0.339700
C44 C -0.108300 0.230400 -0.269350
H45 H -0.181300 0.224900 -0.289500
C46 C -0.093100 0.217700 -0.209640
H47 H -0.155700 0.204100 -0.189400
C48 C -0.200700 0.415800 0.058550
C49 C -0.163900 0.504100 0.052680
H50 H -0.088500 0.514900 0.045300
C51 C -0.235900 0.576700 0.057450
H52 H -0.209900 0.636500 0.053400
C53 C -0.345900 0.561100 0.068190
H54 H -0.395700 0.610300 0.071100
C55 C -0.383000 0.474100 0.074700
H56 H -0.458300 0.463800 0.082500
C57 C -0.311500 0.401800 0.069950
H58 H -0.338100 0.342300 0.074500
C59 C 0.081800 0.096020 0.238680
C60 C 0.102700 0.169000 0.276190
H61 H 0.104400 0.228400 0.261300
C62 C 0.121200 0.154500 0.335310
H63 H 0.136500 0.204100 0.360600
C64 C 0.117500 0.068700 0.357330
H65 H 0.128800 0.059400 0.397800
C66 C 0.097400 -0.004200 0.320620
H67 H 0.094900 -0.063300 0.335900
C68 C 0.080800 0.009440 0.261270
H69 H 0.068800 -0.040700 0.236100
C70 C 0.315600 -0.090790 -0.001620
C71 C 0.312300 -0.172700 0.028120
H72 H 0.253300 -0.184300 0.051300
C73 C 0.395200 -0.236900 0.023730
H74 H 0.391400 -0.292900 0.043200
C75 C 0.483600 -0.220400 -0.008760
H76 H 0.540900 -0.264200 -0.010800
C77 C 0.487600 -0.139400 -0.038190
H78 H 0.547800 -0.127800 -0.060600
C79 C 0.404400 -0.075500 -0.035060
H80 H 0.407500 -0.020700 -0.055800
C81 C 0.318600 0.051800 0.208890
H82 H 0.283700 0.098600 0.231400
H83 H 0.391900 0.075100 0.199400
C84 C 0.337700 -0.032200 0.245200
C85 C 0.396100 -0.083200 0.338710
H86 H 0.421100 -0.059700 0.377200
H87 H 0.455300 -0.121100 0.325500
H88 H 0.327800 -0.119000 0.340200
Zn89 Zn 0.412260 0.690800 0.469312
Cl90 Cl 0.248340 0.752590 0.430580
O91 O 0.173300 0.391690 0.272610
O92 O 0.127110 0.490810 0.200780
N93 N 0.381470 0.606530 0.539400
N94 N 0.519020 0.764270 0.522340
N95 N 0.518960 0.709030 0.403670
N96 N 0.253700 0.534660 0.344370
C97 C 0.319900 0.527040 0.541890
C98 C 0.313000 0.502420 0.601110
H99 H 0.276800 0.450800 0.614500
C100 C 0.367600 0.566450 0.633770
H101 H 0.377300 0.568300 0.674700
C102 C 0.409100 0.631940 0.595400
C103 C 0.470100 0.709980 0.615600
C104 C 0.520500 0.770570 0.581070
C105 C 0.588400 0.847760 0.601430
H106 H 0.601400 0.868400 0.640100
C107 C 0.629300 0.884540 0.555320
H108 H 0.676300 0.936100 0.555300
C109 C 0.587700 0.830230 0.505330
C110 C 0.624200 0.838270 0.450600
C111 C 0.597100 0.776280 0.405150
C112 C 0.644600 0.780700 0.350500
H113 H 0.702000 0.820400 0.341000
C114 C 0.591500 0.717480 0.315720
H115 H 0.605100 0.704300 0.277200
C116 C 0.510400 0.673740 0.348000
C117 C 0.433400 0.610010 0.324670
C118 C 0.365800 0.561230 0.360260
C119 C 0.390500 0.537820 0.418200
H120 H 0.460000 0.538000 0.438100
C121 C 0.293200 0.499900 0.437400
C122 C 0.211700 0.499230 0.389430
H123 H 0.137400 0.476700 0.389300
C124 C 0.269900 0.478930 0.494780
C125 C 0.486200 0.725000 0.679830
C126 C 0.396600 0.746400 0.710110
H127 H 0.323600 0.752600 0.690200
C128 C 0.412500 0.758900 0.769670
H129 H 0.350200 0.773100 0.790000
C130 C 0.518200 0.750700 0.799140
H131 H 0.528900 0.759100 0.839700
C132 C 0.608300 0.730400 0.769350
H133 H 0.681300 0.724900 0.789500
C134 C 0.593100 0.717700 0.709640
H135 H 0.655700 0.704100 0.689400
C136 C 0.700700 0.915800 0.441450
C137 C 0.663900 1.004100 0.447320
H138 H 0.588500 1.014900 0.454700
C139 C 0.735900 1.076700 0.442550
H140 H 0.709900 1.136500 0.446600
C141 C 0.845900 1.061100 0.431810
H142 H 0.895700 1.110300 0.428900
C143 C 0.883000 0.974100 0.425300
H144 H 0.958300 0.963800 0.417500
C145 C 0.811500 0.901800 0.430050
H146 H 0.838100 0.842300 0.425500
C147 C 0.418200 0.596020 0.261320
C148 C 0.397300 0.669000 0.223810
H149 H 0.395600 0.728400 0.238700
C150 C 0.378800 0.654500 0.164690
H151 H 0.363500 0.704100 0.139400
C152 C 0.382500 0.568700 0.142670
H153 H 0.371200 0.559400 0.102200
C154 C 0.402600 0.495800 0.179380
H155 H 0.405100 0.436700 0.164100
C156 C 0.419200 0.509440 0.238730
H157 H 0.431200 0.459300 0.263900
C158 C 0.184400 0.409210 0.501620
C159 C 0.187700 0.327300 0.471880
H160 H 0.246700 0.315700 0.448700
C161 C 0.104800 0.263100 0.476270
H162 H 0.108600 0.207100 0.456800
C163 C 0.016400 0.279600 0.508760
H164 H -0.040900 0.235800 0.510800
C165 C 0.012400 0.360600 0.538190
H166 H -0.047800 0.372200 0.560600
C167 C 0.095600 0.424500 0.535060
H168 H 0.092500 0.479300 0.555800
C169 C 0.181400 0.551800 0.291110
H170 H 0.216300 0.598600 0.268600
H171 H 0.108100 0.575100 0.300600
C172 C 0.162300 0.467800 0.254800
C173 C 0.103900 0.416800 0.161290
H174 H 0.078900 0.440300 0.122800
H175 H 0.044700 0.378900 0.174500
H176 H 0.172200 0.381000 0.159800
Zn177 Zn 0.912260 0.809200 0.969312
Cl178 Cl 0.748340 0.747410 0.930580
O179 O 0.673300 1.108310 0.772610
O180 O 0.627110 1.009190 0.700780
N181 N 0.881470 0.893470 1.039400
N182 N 1.019020 0.735730 1.022340
N183 N 1.018960 0.790970 0.903670
N184 N 0.753700 0.965340 0.844370
C185 C 0.819900 0.972960 1.041890
C186 C 0.813000 0.997580 1.101110
H187 H 0.776800 1.049200 1.114500
C188 C 0.867600 0.933550 1.133770
H189 H 0.877300 0.931700 1.174700
C190 C 0.909100 0.868060 1.095400
C191 C 0.970100 0.790020 1.115600
C192 C 1.020500 0.729430 1.081070
C193 C 1.088400 0.652240 1.101430
H194 H 1.101400 0.631600 1.140100
C195 C 1.129300 0.615460 1.055320
H196 H 1.176300 0.563900 1.055300
C197 C 1.087700 0.669770 1.005330
C198 C 1.124200 0.661730 0.950600
C199 C 1.097100 0.723720 0.905150
C200 C 1.144600 0.719300 0.850500
H201 H 1.202000 0.679600 0.841000
C202 C 1.091500 0.782520 0.815720
H203 H 1.105100 0.795700 0.777200
C204 C 1.010400 0.826260 0.848000
C205 C 0.933400 0.889990 0.824670
C206 C 0.865800 0.938770 0.860260
C207 C 0.890500 0.962180 0.918200
H208 H 0.960000 0.962000 0.938100
C209 C 0.793200 1.000100 0.937400
C210 C 0.711700 1.000770 0.889430
H211 H 0.637400 1.023300 0.889300
C212 C 0.769900 1.021070 0.994780
C213 C 0.986200 0.775000 1.179830
C214 C 0.896600 0.753600 1.210110
H215 H 0.823600 0.747400 1.190200
C216 C 0.912500 0.741100 1.269670
H217 H 0.850200 0.726900 1.290000
C218 C 1.018200 0.749300 1.299140
H219 H 1.028900 0.740900 1.339700
C220 C 1.108300 0.769600 1.269350
H221 H 1.181300 0.775100 1.289500
C222 C 1.093100 0.782300 1.209640
H223 H 1.155700 0.795900 1.189400
C224 C 1.200700 0.584200 0.941450
C225 C 1.163900 0.495900 0.947320
H226 H 1.088500 0.485100 0.954700
C227 C 1.235900 0.423300 0.942550
H228 H 1.209900 0.363500 0.946600
C229 C 1.345900 0.438900 0.931810
H230 H 1.395700 0.389700 0.928900
C231 C 1.383000 0.525900 0.925300
H232 H 1.458300 0.536200 0.917500
C233 C 1.311500 0.598200 0.930050
H234 H 1.338100 0.657700 0.925500
C235 C 0.918200 0.903980 0.761320
C236 C 0.897300 0.831000 0.723810
H237 H 0.895600 0.771600 0.738700
C238 C 0.878800 0.845500 0.664690
H239 H 0.863500 0.795900 0.639400
C240 C 0.882500 0.931300 0.642670
H241 H 0.871200 0.940600 0.602200
C242 C 0.902600 1.004200 0.679380
H243 H 0.905100 1.063300 0.664100
C244 C 0.919200 0.990560 0.738730
H245 H 0.931200 1.040700 0.763900
C246 C 0.684400 1.090790 1.001620
C247 C 0.687700 1.172700 0.971880
H248 H 0.746700 1.184300 0.948700
C249 C 0.604800 1.236900 0.976270
H250 H 0.608600 1.292900 0.956800
C251 C 0.516400 1.220400 1.008760
H252 H 0.459100 1.264200 1.010800
C253 C 0.512400 1.139400 1.038190
H254 H 0.452200 1.127800 1.060600
C255 C 0.595600 1.075500 1.035060
H256 H 0.592500 1.020700 1.055800
C257 C 0.681400 0.948200 0.791110
H258 H 0.716300 0.901400 0.768600
H259 H 0.608100 0.924900 0.800600
C260 C 0.662300 1.032200 0.754800
C261 C 0.603900 1.083200 0.661290
H262 H 0.578900 1.059700 0.622800
H263 H 0.544700 1.121100 0.674500
H264 H 0.672200 1.119000 0.659800
Zn265 Zn 0.587740 0.309200 0.530688
Cl266 Cl 0.751660 0.247410 0.569420
O267 O 0.826700 0.608310 0.727390
O268 O 0.872890 0.509190 0.799220
N269 N 0.618530 0.393470 0.460600
N270 N 0.480980 0.235730 0.477660
N271 N 0.481040 0.290970 0.596330
N272 N 0.746300 0.465340 0.655630
C273 C 0.680100 0.472960 0.458110
C274 C 0.687000 0.497580 0.398890
H275 H 0.723200 0.549200 0.385500
C276 C 0.632400 0.433550 0.366230
H277 H 0.622700 0.431700 0.325300
C278 C 0.590900 0.368060 0.404600
C279 C 0.529900 0.290020 0.384400
C280 C 0.479500 0.229430 0.418930
C281 C 0.411600 0.152240 0.398570
H282 H 0.398600 0.131600 0.359900
C283 C 0.370700 0.115460 0.444680
H284 H 0.323700 0.063900 0.444700
C285 C 0.412300 0.169770 0.494670
C286 C 0.375800 0.161730 0.549400
C287 C 0.402900 0.223720 0.594850
C288 C 0.355400 0.219300 0.649500
H289 H 0.298000 0.179600 0.659000
C290 C 0.408500 0.282520 0.684280
H291 H 0.394900 0.295700 0.722800
C292 C 0.489600 0.326260 0.652000
C293 C 0.566600 0.389990 0.675330
C294 C 0.634200 0.438770 0.639740
C295 C 0.609500 0.462180 0.581800
H296 H 0.540000 0.462000 0.561900
C297 C 0.706800 0.500100 0.562600
C298 C 0.788300 0.500770 0.610570
H299 H 0.862600 0.523300 0.610700
C300 C 0.730100 0.521070 0.505220
C301 C 0.513800 0.275000 0.320170
C302 C 0.603400 0.253600 0.289890
H303 H 0.676400 0.247400 0.309800
C304 C 0.587500 0.241100 0.230330
H305 H 0.649800 0.226900 0.210000
C306 C 0.481800 0.249300 0.200860
H307 H 0.471100 0.240900 0.160300
C308 C 0.391700 0.269600 0.230650
H309 H 0.318700 0.275100 0.210500
C310 C 0.406900 0.282300 0.290360
H311 H 0.344300 0.295900 0.310600
C312 C 0.299300 0.084200 0.558550
C313 C 0.336100 -0.004100 0.552680
H314 H 0.411500 -0.014900 0.545300
C315 C 0.264100 -0.076700 0.557450
H316 H 0.290100 -0.136500 0.553400
C317 C 0.154100 -0.061100 0.568190
H318 H 0.104300 -0.110300 0.571100
C319 C 0.117000 0.025900 0.574700
H320 H 0.041700 0.036200 0.582500
C321 C 0.188500 0.098200 0.569950
H322 H 0.161900 0.157700 0.574500
C323 C 0.581800 0.403980 0.738680
C324 C 0.602700 0.331000 0.776190
H325 H 0.604400 0.271600 0.761300
C326 C 0.621200 0.345500 0.835310
H327 H 0.636500 0.295900 0.860600
C328 C 0.617500 0.431300 0.857330
H329 H 0.628800 0.440600 0.897800
C330 C 0.597400 0.504200 0.820620
H331 H 0.594900 0.563300 0.835900
C332 C 0.580800 0.490560 0.761270
H333 H 0.568800 0.540700 0.736100
C334 C 0.815600 0.590790 0.498380
C335 C 0.812300 0.672700 0.528120
H336 H 0.753300 0.684300 0.551300
C337 C 0.895200 0.736900 0.523730
H338 H 0.891400 0.792900 0.543200
C339 C 0.983600 0.720400 0.491240
H340 H 1.040900 0.764200 0.489200
C341 C 0.987600 0.639400 0.461810
H342 H 1.047800 0.627800 0.439400
C343 C 0.904400 0.575500 0.464940
H344 H 0.907500 0.520700 0.444200
C345 C 0.818600 0.448200 0.708890
H346 H 0.783700 0.401400 0.731400
H347 H 0.891900 0.424900 0.699400
C348 C 0.837700 0.532200 0.745200
C349 C 0.896100 0.583200 0.838710
H350 H 0.921100 0.559700 0.877200
H351 H 0.955300 0.621100 0.825500
H352 H 0.827800 0.619000 0.840200

#END
