
#######################################################################
#
#                 Cambridge Crystallographic Data Centre
#                                CCDC 
#
#######################################################################
#
# If this CIF has been generated from an entry in the Cambridge 
# Structural Database, then it will include bibliographic, chemical, 
# crystal, experimental, refinement or atomic coordinate data resulting 
# from the CCDC's data processing and validation procedures.
#
#######################################################################

data_ADOXOG
_symmetry_cell_setting           orthorhombic
_symmetry_space_group_name_H-M   'P 21 21 21'
_symmetry_Int_Tables_number      19
_space_group_name_Hall           'P 2ac 2ab'
loop_
_symmetry_equiv_pos_site_id
_symmetry_equiv_pos_as_xyz
1 x,y,z
2 1/2-x,-y,1/2+z
3 1/2+x,1/2-y,-z
4 -x,1/2+y,1/2-z
_cell_length_a                   9.058(5)
_cell_length_b                   14.522(7)
_cell_length_c                   15.355(10)
_cell_angle_alpha                90
_cell_angle_beta                 90
_cell_angle_gamma                90
_cell_volume                     2019.8
loop_
_atom_site_label
_atom_site_type_symbol
_atom_site_fract_x
_atom_site_fract_y
_atom_site_fract_z
C1 C 1.06950(58) 0.51789(34) 1.04378(32)
H1 H 1.12234(58) 0.54228(34) 1.09283(32)
C2 C 0.99789(56) 0.57660(33) 0.98645(31)
H2 H 0.99686(56) 0.64166(33) 0.99749(31)
C3 C 1.06948(55) 0.42324(35) 1.02836(30)
H3 H 1.11644(55) 0.38191(35) 1.06853(30)
C4 C 0.92511(54) 0.54201(30) 0.91427(30)
H4 H 0.87512(54) 0.58263(30) 0.87473(30)
C5 C 0.99829(51) 0.38915(29) 0.95533(27)
H5 H 1.00002(51) 0.32417(29) 0.94390(27)
C6 C 0.92550(50) 0.44741(27) 0.89871(27)
C7 C 0.85461(49) 0.41474(29) 0.81601(29)
N1 N 0.82616(41) 0.32367(22) 0.81032(22)
H6 H 0.83242(41) 0.28916(22) 0.85886(22)
C8 C 0.78339(52) 0.27835(28) 0.72888(25)
C9 C 0.78813(48) 0.17488(29) 0.75049(30)
O1 O 0.75144(37) 0.12443(21) 0.68226(20)
C10 C 0.74553(67) 0.02479(29) 0.69768(35)
H7 H 0.71740(67) -0.00597(29) 0.64489(35)
H8 H 0.67443(67) 0.01171(29) 0.74236(35)
H9 H 0.84101(67) 0.00342(29) 0.71579(35)
O2 O 0.82714(42) 0.46849(20) 0.75560(21)
C11 C 0.89681(52) 0.29912(27) 0.65741(28)
C12 C 0.85902(53) 0.33552(30) 0.57703(28)
H10 H 0.75732(53) 0.34876(30) 0.56468(28)
C13 C 0.96688(57) 0.35275(32) 0.51469(29)
H11 H 0.93741(57) 0.37596(32) 0.45879(29)
C14 C 1.11226(57) 0.33514(32) 0.53172(32)
H12 H 1.18636(57) 0.34916(32) 0.48903(32)
C15 C 1.15094(57) 0.29901(32) 0.61252(34)
H13 H 1.25228(57) 0.28533(32) 0.62546(34)
C16 C 1.04416(53) 0.28124(30) 0.67429(30)
H14 H 1.07169(53) 0.25673(30) 0.73004(30)
C17 C 0.62183(50) 0.30241(31) 0.70246(28)
H15 H 0.61366(50) 0.36781(31) 0.69471(28)
H16 H 0.60099(50) 0.27368(31) 0.64751(28)
C18 C 0.50740(50) 0.27119(30) 0.76684(27)
C19 C 0.47235(53) 0.32178(29) 0.84047(29)
H17 H 0.52384(53) 0.37842(29) 0.85127(29)
C20 C 0.36751(53) 0.29169(29) 0.89906(30)
H18 H 0.34242(53) 0.32905(29) 0.94847(30)
C21 C 0.29356(52) 0.20875(29) 0.88530(29)
C22 C 0.32508(50) 0.15779(30) 0.81079(30)
H19 H 0.27362(50) 0.10122(30) 0.79961(30)
C23 C 0.43120(52) 0.18905(30) 0.75400(30)
H20 H 0.45365(52) 0.15296(30) 0.70332(30)
O3 O 0.19324(38) 0.18345(21) 0.94753(21)
C24 C 0.13345(55) 0.09165(33) 0.94003(34)
H21 H 0.06544(55) 0.08121(33) 0.98694(34)
H22 H 0.21115(55) 0.04677(33) 0.94253(34)
H23 H 0.08242(55) 0.08634(33) 0.88546(34)
O4 O 0.81990(36) 0.14422(20) 0.82018(20)
C1 C 0.43050(58) 0.48211(34) 0.54378(32)
H1 H 0.37766(58) 0.45772(34) 0.59283(32)
C2 C 0.50211(56) 0.42340(33) 0.48645(31)
H2 H 0.50314(56) 0.35834(33) 0.49749(31)
C3 C 0.43052(55) 0.57676(35) 0.52836(30)
H3 H 0.38356(55) 0.61809(35) 0.56853(30)
C4 C 0.57489(54) 0.45799(30) 0.41427(30)
H4 H 0.62488(54) 0.41737(30) 0.37473(30)
C5 C 0.50171(51) 0.61085(29) 0.45533(27)
H5 H 0.49998(51) 0.67583(29) 0.44390(27)
C6 C 0.57450(50) 0.55259(27) 0.39871(27)
C7 C 0.64539(49) 0.58526(29) 0.31601(29)
N1 N 0.67384(41) 0.67633(22) 0.31032(22)
H6 H 0.66758(41) 0.71084(22) 0.35886(22)
C8 C 0.71661(52) 0.72165(28) 0.22888(25)
C9 C 0.71187(48) 0.82512(29) 0.25049(30)
O1 O 0.74856(37) 0.87557(21) 0.18226(20)
C10 C 0.75447(67) 0.97521(29) 0.19768(35)
H7 H 0.78260(67) 1.00597(29) 0.14489(35)
H8 H 0.82557(67) 0.98829(29) 0.24236(35)
H9 H 0.65899(67) 0.99658(29) 0.21579(35)
O2 O 0.67286(42) 0.53151(20) 0.25560(21)
C11 C 0.60319(52) 0.70088(27) 0.15741(28)
C12 C 0.64098(53) 0.66448(30) 0.07703(28)
H10 H 0.74268(53) 0.65124(30) 0.06468(28)
C13 C 0.53312(57) 0.64725(32) 0.01469(29)
H11 H 0.56259(57) 0.62404(32) -0.04121(29)
C14 C 0.38774(57) 0.66486(32) 0.03172(32)
H12 H 0.31364(57) 0.65084(32) -0.01097(32)
C15 C 0.34906(57) 0.70099(32) 0.11252(34)
H13 H 0.24772(57) 0.71467(32) 0.12546(34)
C16 C 0.45584(53) 0.71876(30) 0.17429(30)
H14 H 0.42831(53) 0.74327(30) 0.23004(30)
C17 C 0.87817(50) 0.69759(31) 0.20246(28)
H15 H 0.88634(50) 0.63219(31) 0.19471(28)
H16 H 0.89901(50) 0.72632(31) 0.14751(28)
C18 C 0.99260(50) 0.72881(30) 0.26684(27)
C19 C 1.02765(53) 0.67822(29) 0.34047(29)
H17 H 0.97616(53) 0.62158(29) 0.35127(29)
C20 C 1.13249(53) 0.70831(29) 0.39906(30)
H18 H 1.15758(53) 0.67095(29) 0.44847(30)
C21 C 1.20644(52) 0.79125(29) 0.38530(29)
C22 C 1.17492(50) 0.84221(30) 0.31079(30)
H19 H 1.22638(50) 0.89878(30) 0.29961(30)
C23 C 1.06880(52) 0.81095(30) 0.25400(30)
H20 H 1.04635(52) 0.84704(30) 0.20332(30)
O3 O 1.30676(38) 0.81655(21) 0.44753(21)
C24 C 1.36655(55) 0.90835(33) 0.44003(34)
H21 H 1.43456(55) 0.91879(33) 0.48694(34)
H22 H 1.28885(55) 0.95323(33) 0.44253(34)
H23 H 1.41758(55) 0.91366(33) 0.38546(34)
O4 O 0.68010(36) 0.85578(20) 0.32018(20)
C1 C 0.56950(58) -0.01789(34) -0.04378(32)
H1 H 0.62234(58) -0.04228(34) -0.09283(32)
C2 C 0.49789(56) -0.07660(33) 0.01355(31)
H2 H 0.49686(56) -0.14166(33) 0.00251(31)
C3 C 0.56948(55) 0.07676(35) -0.02836(30)
H3 H 0.61644(55) 0.11809(35) -0.06853(30)
C4 C 0.42511(54) -0.04201(30) 0.08573(30)
H4 H 0.37512(54) -0.08263(30) 0.12527(30)
C5 C 0.49829(51) 0.11085(29) 0.04467(27)
H5 H 0.50002(51) 0.17583(29) 0.05610(27)
C6 C 0.42550(50) 0.05259(27) 0.10129(27)
C7 C 0.35461(49) 0.08526(29) 0.18399(29)
N1 N 0.32616(41) 0.17633(22) 0.18968(22)
H6 H 0.33242(41) 0.21084(22) 0.14114(22)
C8 C 0.28339(52) 0.22165(28) 0.27112(25)
C9 C 0.28813(48) 0.32512(29) 0.24951(30)
O1 O 0.25144(37) 0.37557(21) 0.31774(20)
C10 C 0.24553(67) 0.47521(29) 0.30232(35)
H7 H 0.21740(67) 0.50597(29) 0.35511(35)
H8 H 0.17443(67) 0.48829(29) 0.25764(35)
H9 H 0.34101(67) 0.49658(29) 0.28421(35)
O2 O 0.32714(42) 0.03151(20) 0.24440(21)
C11 C 0.39681(52) 0.20088(27) 0.34259(28)
C12 C 0.35902(53) 0.16448(30) 0.42297(28)
H10 H 0.25732(53) 0.15124(30) 0.43532(28)
C13 C 0.46688(57) 0.14725(32) 0.48531(29)
H11 H 0.43741(57) 0.12404(32) 0.54121(29)
C14 C 0.61226(57) 0.16486(32) 0.46828(32)
H12 H 0.68636(57) 0.15084(32) 0.51097(32)
C15 C 0.65094(57) 0.20099(32) 0.38748(34)
H13 H 0.75228(57) 0.21467(32) 0.37454(34)
C16 C 0.54416(53) 0.21876(30) 0.32571(30)
H14 H 0.57169(53) 0.24327(30) 0.26996(30)
C17 C 0.12183(50) 0.19759(31) 0.29754(28)
H15 H 0.11366(50) 0.13219(31) 0.30529(28)
H16 H 0.10099(50) 0.22632(31) 0.35249(28)
C18 C 0.00740(50) 0.22881(30) 0.23316(27)
C19 C -0.02765(53) 0.17822(29) 0.15953(29)
H17 H 0.02384(53) 0.12158(29) 0.14873(29)
C20 C -0.13249(53) 0.20831(29) 0.10094(30)
H18 H -0.15758(53) 0.17095(29) 0.05153(30)
C21 C -0.20644(52) 0.29125(29) 0.11470(29)
C22 C -0.17492(50) 0.34221(30) 0.18921(30)
H19 H -0.22638(50) 0.39878(30) 0.20039(30)
C23 C -0.06880(52) 0.31095(30) 0.24600(30)
H20 H -0.04635(52) 0.34704(30) 0.29668(30)
O3 O -0.30676(38) 0.31655(21) 0.05247(21)
C24 C -0.36655(55) 0.40835(33) 0.05997(34)
H21 H -0.43456(55) 0.41879(33) 0.01306(34)
H22 H -0.28885(55) 0.45323(33) 0.05747(34)
H23 H -0.41758(55) 0.41366(33) 0.11454(34)
O4 O 0.31990(36) 0.35578(20) 0.17982(20)
C1 C -0.06950(58) 1.01789(34) 0.45622(32)
H1 H -0.12234(58) 1.04228(34) 0.40717(32)
C2 C 0.00211(56) 1.07660(33) 0.51355(31)
H2 H 0.00314(56) 1.14166(33) 0.50251(31)
C3 C -0.06948(55) 0.92324(35) 0.47164(30)
H3 H -0.11644(55) 0.88191(35) 0.43147(30)
C4 C 0.07489(54) 1.04201(30) 0.58573(30)
H4 H 0.12488(54) 1.08263(30) 0.62527(30)
C5 C 0.00171(51) 0.88915(29) 0.54467(27)
H5 H -0.00002(51) 0.82417(29) 0.55610(27)
C6 C 0.07450(50) 0.94741(27) 0.60129(27)
C7 C 0.14539(49) 0.91474(29) 0.68399(29)
N1 N 0.17384(41) 0.82367(22) 0.68968(22)
H6 H 0.16758(41) 0.78916(22) 0.64114(22)
C8 C 0.21661(52) 0.77835(28) 0.77112(25)
C9 C 0.21187(48) 0.67488(29) 0.74951(30)
O1 O 0.24856(37) 0.62443(21) 0.81774(20)
C10 C 0.25447(67) 0.52479(29) 0.80232(35)
H7 H 0.28260(67) 0.49403(29) 0.85511(35)
H8 H 0.32557(67) 0.51171(29) 0.75764(35)
H9 H 0.15899(67) 0.50342(29) 0.78421(35)
O2 O 0.17286(42) 0.96849(20) 0.74440(21)
C11 C 0.10319(52) 0.79912(27) 0.84259(28)
C12 C 0.14098(53) 0.83552(30) 0.92297(28)
H10 H 0.24268(53) 0.84876(30) 0.93532(28)
C13 C 0.03312(57) 0.85275(32) 0.98531(29)
H11 H 0.06259(57) 0.87596(32) 1.04121(29)
C14 C -0.11226(57) 0.83514(32) 0.96828(32)
H12 H -0.18636(57) 0.84916(32) 1.01097(32)
C15 C -0.15094(57) 0.79901(32) 0.88748(34)
H13 H -0.25228(57) 0.78533(32) 0.87454(34)
C16 C -0.04416(53) 0.78124(30) 0.82571(30)
H14 H -0.07169(53) 0.75673(30) 0.76996(30)
C17 C 0.37817(50) 0.80241(31) 0.79754(28)
H15 H 0.38634(50) 0.86781(31) 0.80529(28)
H16 H 0.39901(50) 0.77368(31) 0.85249(28)
C18 C 0.49260(50) 0.77119(30) 0.73316(27)
C19 C 0.52765(53) 0.82178(29) 0.65953(29)
H17 H 0.47616(53) 0.87842(29) 0.64873(29)
C20 C 0.63249(53) 0.79169(29) 0.60094(30)
H18 H 0.65758(53) 0.82905(29) 0.55153(30)
C21 C 0.70644(52) 0.70875(29) 0.61470(29)
C22 C 0.67492(50) 0.65779(30) 0.68921(30)
H19 H 0.72638(50) 0.60122(30) 0.70039(30)
C23 C 0.56880(52) 0.68905(30) 0.74600(30)
H20 H 0.54635(52) 0.65296(30) 0.79668(30)
O3 O 0.80676(38) 0.68345(21) 0.55247(21)
C24 C 0.86655(55) 0.59165(33) 0.55997(34)
H21 H 0.93456(55) 0.58121(33) 0.51306(34)
H22 H 0.78885(55) 0.54677(33) 0.55747(34)
H23 H 0.91758(55) 0.58634(33) 0.61454(34)
O4 O 0.18010(36) 0.64422(20) 0.67982(20)

#END
