./ADUPIY_from_xyz.cif_generated_by_CrystalShift
_symmetry_cell_setting triclinic
_symmetry_space_group_name_H-M 'P 1'
loop_
_symmetry_equiv_pos_site_id
_symmetry_equiv_pos_as_xyz
1 x,y,z
_cell_length_a 10.915900
_cell_length_b 7.222200
_cell_length_c 11.261900
_cell_angle_alpha 90.000000
_cell_angle_beta 117.252000
_cell_angle_gamma 90.000000
_cell_volume 789.301715
loop_
_atom_site_label
_atom_site_type_symbol
_atom_site_fract_x
_atom_site_fract_y
_atom_site_fract_z
C1 C 0.026280 0.833260 0.168890
H2 H -0.059000 0.898600 0.107000
C3 C 0.059270 0.878100 0.312580
H4 H 0.120100 0.986000 0.345400
H5 H -0.025000 0.902400 0.320500
C6 C 0.130730 0.705000 0.388420
H7 H 0.109600 0.681600 0.463700
C8 C 0.073670 0.550600 0.283790
H9 H 0.151300 0.476400 0.286700
C10 C 0.211650 0.751920 0.103690
H11 H 0.191700 0.626400 0.108700
C12 C 0.307390 0.796000 0.064190
H13 H 0.354300 0.703900 0.041900
C14 C 0.334590 0.986800 0.057560
C15 C 0.159430 1.071040 0.128750
C16 C 0.392900 1.257100 0.037680
H17 H 0.439100 1.354200 0.019400
C18 C 0.359070 0.597400 0.515890
C19 C 0.507940 0.645400 0.571500
H20 H 0.532800 0.731700 0.644900
H21 H 0.525000 0.701900 0.502300
H22 H 0.563000 0.533900 0.603500
C23 C -0.027710 0.424000 0.297780
H24 H -0.071100 0.343200 0.219400
H25 H 0.019200 0.346100 0.377300
C26 C -0.244690 0.448400 0.296200
C27 C -0.343300 0.578200 0.308730
H28 H -0.432900 0.519500 0.275100
H29 H -0.350900 0.689300 0.257400
H30 H -0.310700 0.610800 0.401900
N31 N 0.141990 0.884480 0.136980
N32 N 0.262660 1.112260 0.092610
N33 N 0.418800 1.076230 0.022570
N34 N 0.300190 1.288850 0.079030
O35 O 0.004490 0.642820 0.155290
O36 O 0.093840 1.189490 0.150870
O37 O 0.277420 0.731550 0.435340
O38 O 0.313310 0.457560 0.537130
O39 O -0.130710 0.537110 0.309500
O40 O -0.260200 0.285960 0.278760
C41 C 0.973720 0.333260 0.831110
H42 H 1.059000 0.398600 0.893000
C43 C 0.940730 0.378100 0.687420
H44 H 0.879900 0.486000 0.654600
H45 H 1.025000 0.402400 0.679500
C46 C 0.869270 0.205000 0.611580
H47 H 0.890400 0.181600 0.536300
C48 C 0.926330 0.050600 0.716210
H49 H 0.848700 -0.023600 0.713300
C50 C 0.788350 0.251920 0.896310
H51 H 0.808300 0.126400 0.891300
C52 C 0.692610 0.296000 0.935810
H53 H 0.645700 0.203900 0.958100
C54 C 0.665410 0.486800 0.942440
C55 C 0.840570 0.571040 0.871250
C56 C 0.607100 0.757100 0.962320
H57 H 0.560900 0.854200 0.980600
C58 C 0.640930 0.097400 0.484110
C59 C 0.492060 0.145400 0.428500
H60 H 0.467200 0.231700 0.355100
H61 H 0.475000 0.201900 0.497700
H62 H 0.437000 0.033900 0.396500
C63 C 1.027710 -0.076000 0.702220
H64 H 1.071100 -0.156800 0.780600
H65 H 0.980800 -0.153900 0.622700
C66 C 1.244690 -0.051600 0.703800
C67 C 1.343300 0.078200 0.691270
H68 H 1.432900 0.019500 0.724900
H69 H 1.350900 0.189300 0.742600
H70 H 1.310700 0.110800 0.598100
N71 N 0.858010 0.384480 0.863020
N72 N 0.737340 0.612260 0.907390
N73 N 0.581200 0.576230 0.977430
N74 N 0.699810 0.788850 0.920970
O75 O 0.995510 0.142820 0.844710
O76 O 0.906160 0.689490 0.849130
O77 O 0.722580 0.231550 0.564660
O78 O 0.686690 -0.042440 0.462870
O79 O 1.130710 0.037110 0.690500
O80 O 1.260200 -0.214040 0.721240

#END
