./ADUQOF_from_xyz.cif_generated_by_CrystalShift
_symmetry_cell_setting triclinic
_symmetry_space_group_name_H-M 'P 1'
loop_
_symmetry_equiv_pos_site_id
_symmetry_equiv_pos_as_xyz
1 x,y,z
_cell_length_a 7.980000
_cell_length_b 7.219000
_cell_length_c 12.818000
_cell_angle_alpha 90.000000
_cell_angle_beta 90.000000
_cell_angle_gamma 90.000000
_cell_volume 738.414473
loop_
_atom_site_label
_atom_site_type_symbol
_atom_site_fract_x
_atom_site_fract_y
_atom_site_fract_z
C1 C 0.580300 0.129500 0.797400
C2 C 0.751100 0.241900 0.924000
C3 C 0.768300 0.029900 0.924000
C4 C 0.710700 -0.051400 1.026100
C5 C 0.948900 -0.024600 0.900900
C6 C 1.026500 0.064500 0.808100
N7 N 0.656600 -0.016600 0.837700
N8 N 0.640900 0.285800 0.846700
O9 O 0.476200 0.131700 0.727540
O10 O 0.821300 0.347700 0.981180
H11 H 0.625400 -0.141700 0.825300
H12 H 0.590000 0.403300 0.843500
H13 H 0.721300 -0.188800 1.025700
H14 H 0.777300 0.001600 1.085000
H15 H 0.588300 -0.018200 1.037400
H16 H 1.019700 0.013800 0.962900
H17 H 0.956200 -0.161200 0.892500
H18 H 1.144700 0.022500 0.796900
H19 H 1.023500 0.202700 0.812500
H20 H 0.959900 0.027600 0.742200
C21 C 0.080300 0.370500 0.202600
C22 C 0.251100 0.258100 0.076000
C23 C 0.268300 0.470100 0.076000
C24 C 0.210700 0.551400 -0.026100
C25 C 0.448900 0.524600 0.099100
C26 C 0.526500 0.435500 0.191900
N27 N 0.156600 0.516600 0.162300
N28 N 0.140900 0.214200 0.153300
O29 O -0.023800 0.368300 0.272460
O30 O 0.321300 0.152300 0.018820
H31 H 0.125400 0.641700 0.174700
H32 H 0.090000 0.096700 0.156500
H33 H 0.221300 0.688800 -0.025700
H34 H 0.277300 0.498400 -0.085000
H35 H 0.088300 0.518200 -0.037400
H36 H 0.519700 0.486200 0.037100
H37 H 0.456200 0.661200 0.107500
H38 H 0.644700 0.477500 0.203100
H39 H 0.523500 0.297300 0.187500
H40 H 0.459900 0.472400 0.257800
C41 C 0.419700 0.629500 0.702600
C42 C 0.248900 0.741900 0.576000
C43 C 0.231700 0.529900 0.576000
C44 C 0.289300 0.448600 0.473900
C45 C 0.051100 0.475400 0.599100
C46 C -0.026500 0.564500 0.691900
N47 N 0.343400 0.483400 0.662300
N48 N 0.359100 0.785800 0.653300
O49 O 0.523800 0.631700 0.772460
O50 O 0.178700 0.847700 0.518820
H51 H 0.374600 0.358300 0.674700
H52 H 0.410000 0.903300 0.656500
H53 H 0.278700 0.311200 0.474300
H54 H 0.222700 0.501600 0.415000
H55 H 0.411700 0.481800 0.462600
H56 H -0.019700 0.513800 0.537100
H57 H 0.043800 0.338800 0.607500
H58 H -0.144700 0.522500 0.703100
H59 H -0.023500 0.702700 0.687500
H60 H 0.040100 0.527600 0.757800
C61 C 0.919700 0.870500 0.297400
C62 C 0.748900 0.758100 0.424000
C63 C 0.731700 0.970100 0.424000
C64 C 0.789300 1.051400 0.526100
C65 C 0.551100 1.024600 0.400900
C66 C 0.473500 0.935500 0.308100
N67 N 0.843400 1.016600 0.337700
N68 N 0.859100 0.714200 0.346700
O69 O 1.023800 0.868300 0.227540
O70 O 0.678700 0.652300 0.481180
H71 H 0.874600 1.141700 0.325300
H72 H 0.910000 0.596700 0.343500
H73 H 0.778700 1.188800 0.525700
H74 H 0.722700 0.998400 0.585000
H75 H 0.911700 1.018200 0.537400
H76 H 0.480300 0.986200 0.462900
H77 H 0.543800 1.161200 0.392500
H78 H 0.355300 0.977500 0.296900
H79 H 0.476500 0.797300 0.312500
H80 H 0.540100 0.972400 0.242200

#END
