./KABBUK_from_POSCAR.cif_generated_by_CrystalShift
_symmetry_cell_setting triclinic
_symmetry_space_group_name_H-M 'P 1'
loop_
_symmetry_equiv_pos_site_id
_symmetry_equiv_pos_as_xyz
1 x,y,z
_cell_length_a 7.339400
_cell_length_b 8.571900
_cell_length_c 23.061700
_cell_angle_alpha 90.000000
_cell_angle_beta 96.466000
_cell_angle_gamma 90.000000
_cell_volume 1441.642372
loop_
_atom_site_label
_atom_site_type_symbol
_atom_site_fract_x
_atom_site_fract_y
_atom_site_fract_z
H1 H 0.316700 -0.122800 0.819200
H2 H 0.014100 -0.061500 0.912400
H3 H 0.220400 -0.120000 0.910400
H4 H 0.349400 -0.017400 0.764100
H5 H 0.171100 -0.009900 0.962500
H6 H 0.147100 -0.075900 0.772700
H7 H 0.683300 0.377200 0.680800
H8 H 0.346800 0.239100 0.729600
H9 H 0.650600 0.482600 0.735900
H10 H 0.852900 0.424100 0.727300
H11 H 0.653200 0.739100 0.770400
H12 H 0.686900 0.916800 0.753200
H13 H 0.855800 0.810700 0.779300
H14 H 0.790500 1.076400 0.682800
H15 H 0.840400 1.081100 0.617000
H16 H 0.996400 1.043700 0.669400
H17 H 0.880800 0.926800 0.536300
H18 H 0.879400 0.751100 0.512800
H19 H 0.568000 -0.078000 0.400000
H20 H 0.014100 0.561500 0.412400
H21 H 0.220400 0.620000 0.410400
H22 H 0.171100 0.509900 0.462500
H23 H -0.058200 0.181100 0.449400
H24 H 0.120600 0.248900 0.487200
H25 H 0.119200 0.073200 0.463700
H26 H 0.003600 -0.043700 0.330600
H27 H 0.159600 -0.081100 0.383000
H28 H 0.209500 -0.076400 0.317200
H29 H 0.144200 0.189300 0.220700
H30 H 0.313100 0.083200 0.246800
H31 H 0.346800 0.260900 0.229600
H32 H 0.147100 0.575900 0.272700
H33 H 0.349400 0.517400 0.264100
H34 H 0.316700 0.622800 0.319200
H35 H 0.313100 0.416800 0.746800
H36 H 1.058200 0.818900 0.550600
H37 H 0.828900 0.490100 0.537500
H38 H 0.144200 0.310700 0.720700
H39 H 0.779600 0.380000 0.589600
H40 H 0.209500 0.576400 0.817200
H41 H 0.985900 0.438500 0.587600
H42 H 0.159600 0.581100 0.883000
H43 H 0.432000 1.078000 0.600000
H44 H -0.058200 0.318900 0.949400
H45 H 0.120600 0.251100 0.987200
H46 H 0.119200 0.426800 0.963700
H47 H 0.003600 0.543700 0.830600
H48 H 0.683300 1.122800 0.180800
H49 H 0.650600 1.017400 0.235900
H50 H 0.852900 1.075900 0.227300
H51 H 0.653200 0.760900 0.270400
H52 H 0.686900 0.583200 0.253200
H53 H 0.432000 0.422000 0.100000
H54 H 0.985900 1.061500 0.087600
H55 H 0.779600 1.120000 0.089600
H56 H 0.828900 1.009900 0.037500
H57 H 1.058200 0.681100 0.050600
H58 H 0.879400 0.748900 0.012800
H59 H 0.880800 0.573200 0.036300
H60 H 0.996400 0.456300 0.169400
H61 H 0.840400 0.418900 0.117000
H62 H 0.790500 0.423600 0.182800
H63 H 0.855800 0.689300 0.279300
H64 H 0.568000 0.578000 0.900000
C65 C 0.738400 0.688700 0.254400
C66 C 0.866600 0.470100 0.155000
C67 C 0.923800 0.679700 0.045200
C68 C 0.856300 1.033100 0.079200
C69 C 0.433500 0.805300 0.535500
C70 C 0.445000 0.546400 0.126800
C71 C 0.434200 0.541000 0.583100
C72 C 0.765100 0.896200 0.172600
C73 C 0.331100 0.701400 0.662500
C74 C 0.768100 0.739200 0.193800
C75 C 0.824300 0.640600 0.148700
C76 C 0.852100 0.734700 0.099900
C77 C 0.817600 0.607600 0.614000
C78 C 0.852100 0.765300 0.599900
C79 C 0.824300 0.859400 0.648700
C80 C 0.768100 0.760800 0.693800
C81 C 0.765100 0.603800 0.672600
C82 C 0.856300 0.466900 0.579200
C83 C 0.923800 0.820300 0.545200
C84 C 0.866600 1.029900 0.655000
C85 C 0.738400 0.811300 0.754400
C86 C 0.735400 0.459400 0.707100
C87 C 0.817600 0.892400 0.114000
C88 C 0.433500 0.694700 0.035500
C89 C 0.331100 0.798600 0.162500
C90 C 0.434200 0.959000 0.083100
C91 C 0.445000 0.953600 0.626800
C92 C 0.264600 0.540600 0.292900
C93 C 0.261600 0.188700 0.245600
C94 C 0.133400 -0.029900 0.345000
C95 C 0.076200 0.179700 0.454800
C96 C 0.143700 0.533100 0.420800
C97 C 0.234900 0.396200 0.327400
C98 C 0.231900 0.239200 0.306200
C99 C 0.175700 0.140600 0.351300
C100 C 0.147900 0.234700 0.400100
C101 C 0.182400 0.392400 0.386000
C102 C 0.566500 0.194700 0.464500
C103 C 0.668900 0.298600 0.337500
C104 C 0.555000 0.046400 0.373200
C105 C 0.565800 0.041000 0.916900
C106 C 0.565800 0.459000 0.416900
C107 C 0.668900 0.201400 0.837500
C108 C 0.555000 0.453600 0.873200
C109 C 0.566500 0.305300 0.964500
C110 C 0.735400 1.040600 0.207100
C111 C 0.182400 0.107600 0.886000
C112 C 0.147900 0.265300 0.900100
C113 C 0.175700 0.359400 0.851300
C114 C 0.231900 0.260800 0.806200
C115 C 0.234900 0.103800 0.827400
C116 C 0.143700 -0.033100 0.920800
C117 C 0.076200 0.320300 0.954800
C118 C 0.133400 0.529900 0.845000
C119 C 0.261600 0.311300 0.745600
C120 C 0.264600 -0.040600 0.792900
O121 O 0.620700 0.344500 1.010500
O122 O 0.785300 0.178300 0.808400
O123 O 0.628000 -0.074300 0.935700
O124 O 0.609000 -0.078000 0.367000
O125 O 0.379300 0.844500 0.489500
O126 O 0.609000 0.578000 0.867000
O127 O 0.214700 0.678300 0.691600
O128 O 0.372000 0.425700 0.564300
O129 O 0.379300 0.655500 -0.010500
O130 O 0.214700 0.821700 0.191600
O131 O 0.372000 1.074300 0.064300
O132 O 0.391000 1.078000 0.633000
O133 O 0.620700 0.155500 0.510500
O134 O 0.785300 0.321700 0.308400
O135 O 0.628000 0.574300 0.435700
O136 O 0.391000 0.422000 0.133000
S137 S 0.599700 0.512700 0.424600
S138 S 0.591300 0.506000 0.865800
S139 S 0.591300 -0.006000 0.365800
S140 S 0.400300 1.012700 0.075400
S141 S 0.408700 1.006000 0.634200
S142 S 0.599700 -0.012700 0.924600
S143 S 0.400300 0.487300 0.575400
S144 S 0.408700 0.494000 0.134200
W145 W 0.537800 0.739800 0.615900
W146 W 0.462200 0.239800 0.884100
W147 W 0.462200 0.260200 0.384100
W148 W 0.537800 0.760200 0.115900

#END
