
#######################################################################
#
#                 Cambridge Crystallographic Data Centre
#                                CCDC 
#
#######################################################################
#
# If this CIF has been generated from an entry in the Cambridge 
# Structural Database, then it will include bibliographic, chemical, 
# crystal, experimental, refinement or atomic coordinate data resulting 
# from the CCDC's data processing and validation procedures.
#
#######################################################################

data_KABCIB
_symmetry_cell_setting           orthorhombic
_symmetry_space_group_name_H-M   'P 21 21 2'
_symmetry_Int_Tables_number      18
_space_group_name_Hall           'P 2 2ab'
loop_
_symmetry_equiv_pos_site_id
_symmetry_equiv_pos_as_xyz
1 x,y,z
2 -x,-y,z
3 1/2-x,1/2+y,-z
4 1/2+x,1/2-y,-z
_cell_length_a                   5.9529(2)
_cell_length_b                   18.3846(5)
_cell_length_c                   8.9704(3)
_cell_angle_alpha                90
_cell_angle_beta                 90
_cell_angle_gamma                90
_cell_volume                     981.736
loop_
_atom_site_label
_atom_site_type_symbol
_atom_site_fract_x
_atom_site_fract_y
_atom_site_fract_z
Cl1 Cl 0.56453(8) 0.22892(2) 0.85004(4)
O1 O 0.99889(19) 0.41865(6) 0.41066(13)
N1 N 0.59603(9) 0.44360(5) 0.29542(10)
C1 C 0.50000 0.50000 0.39535(12)
C2 C 0.5511(3) 0.36844(7) 0.34499(16)
C3 C 0.6738(3) 0.34996(7) 0.48640(16)
C4 C 0.8923(2) 0.37633(8) 0.51184(18)
C5 C 1.0043(3) 0.35815(8) 0.64297(17)
C6 C 0.9061(3) 0.31220(8) 0.74665(18)
C7 C 0.6930(3) 0.28560(8) 0.71952(17)
C8 C 0.5774(3) 0.30421(7) 0.59086(16)
C9 C 0.5027(2) 0.45884(7) 0.14700(16)
C10 C 0.6300(3) 0.43023(9) 0.01323(18)
C11 C 0.5134(3) 0.45859(9) -0.12729(18)
H1 H 0.382262 0.478981 0.454451
H2 H 0.392563 0.362122 0.359869
H3 H 0.594229 0.335034 0.267886
H4 H 1.151137 0.37767 0.661739
H5 H 0.984963 0.299065 0.836016
H6 H 0.429374 0.285198 0.574125
H7 H 0.361614 0.434259 0.134648
H8 H 0.626351 0.378021 0.013612
H9 H 0.781744 0.447839 0.016012
H10 H 0.368381 0.436182 -0.136609
H11 H 0.597131 0.443924 -0.213654
H12 H 0.893(3) 0.4356(10) 0.347(2)
Cl1A Cl 0.43547(8) 0.77108(2) 0.85004(4)
O1A O 0.00111(19) 0.58135(6) 0.41066(13)
N1A N 0.40397(9) 0.55640(5) 0.29542(10)
C2A C 0.4489(3) 0.63156(7) 0.34499(16)
C3A C 0.3262(3) 0.65004(7) 0.48640(16)
C4A C 0.1077(2) 0.62367(8) 0.51184(18)
C5A C -0.0043(3) 0.64185(8) 0.64297(17)
C6A C 0.0939(3) 0.68780(8) 0.74665(18)
C7A C 0.3070(3) 0.71440(8) 0.71952(17)
C8A C 0.4226(3) 0.69579(7) 0.59086(16)
C9A C 0.4973(2) 0.54116(7) 0.14700(16)
C10A C 0.3700(3) 0.56977(9) 0.01323(18)
C11A C 0.4866(3) 0.54141(9) -0.12729(18)
H1A H 0.617738 0.521019 0.454451
H2A H 0.607437 0.637878 0.359869
H3A H 0.405771 0.664966 0.267886
H4A H -0.151137 0.62233 0.661739
H5A H 0.015037 0.700935 0.836016
H6A H 0.570626 0.714802 0.574125
H7A H 0.638386 0.565741 0.134648
H8A H 0.373649 0.621979 0.013612
H9A H 0.218256 0.552161 0.016012
H10A H 0.631619 0.563818 -0.136609
H11A H 0.402869 0.556076 -0.213654
H12A H 0.107(3) 0.5644(10) 0.347(2)
Cl1 Cl -0.06453(8) -0.27108(2) 0.14996(4)
O1 O -0.49889(19) -0.08135(6) 0.58934(13)
N1 N -0.09603(9) -0.05640(5) 0.70458(10)
C1 C 0.00000 0.00000 0.60465(12)
C2 C -0.0511(3) -0.13156(7) 0.65501(16)
C3 C -0.1738(3) -0.15004(7) 0.51360(16)
C4 C -0.3923(2) -0.12367(8) 0.48816(18)
C5 C -0.5043(3) -0.14185(8) 0.35703(17)
C6 C -0.4061(3) -0.18780(8) 0.25335(18)
C7 C -0.1930(3) -0.21440(8) 0.28048(17)
C8 C -0.0774(3) -0.19579(7) 0.40914(16)
C9 C -0.0027(2) -0.04116(7) 0.85300(16)
C10 C -0.1300(3) -0.06977(9) 0.98677(18)
C11 C -0.0134(3) -0.04141(9) 1.12729(18)
H1 H 0.117738 -0.021019 0.545549
H2 H 0.107437 -0.137878 0.640131
H3 H -0.094229 -0.164966 0.732114
H4 H -0.651137 -0.12233 0.338261
H5 H -0.484963 -0.200935 0.163984
H6 H 0.070626 -0.214802 0.425875
H7 H 0.138386 -0.065741 0.865352
H8 H -0.126351 -0.121979 0.986388
H9 H -0.281744 -0.052161 0.983988
H10 H 0.131619 -0.063818 1.136609
H11 H -0.097131 -0.056076 1.213654
H12 H -0.393(3) -0.0644(10) 0.653(2)
Cl1A Cl 0.06453(8) 0.27108(2) 0.14996(4)
O1A O 0.49889(19) 0.08135(6) 0.58934(13)
N1A N 0.09603(9) 0.05640(5) 0.70458(10)
C2A C 0.0511(3) 0.13156(7) 0.65501(16)
C3A C 0.1738(3) 0.15004(7) 0.51360(16)
C4A C 0.3923(2) 0.12367(8) 0.48816(18)
C5A C 0.5043(3) 0.14185(8) 0.35703(17)
C6A C 0.4061(3) 0.18780(8) 0.25335(18)
C7A C 0.1930(3) 0.21440(8) 0.28048(17)
C8A C 0.0774(3) 0.19579(7) 0.40914(16)
C9A C 0.0027(2) 0.04116(7) 0.85300(16)
C10A C 0.1300(3) 0.06977(9) 0.98677(18)
C11A C 0.0134(3) 0.04141(9) 1.12729(18)
H1A H -0.117738 0.021019 0.545549
H2A H -0.107437 0.137878 0.640131
H3A H 0.094229 0.164966 0.732114
H4A H 0.651137 0.12233 0.338261
H5A H 0.484963 0.200935 0.163984
H6A H -0.070626 0.214802 0.425875
H7A H -0.138386 0.065741 0.865352
H8A H 0.126351 0.121979 0.986388
H9A H 0.281744 0.052161 0.983988
H10A H -0.131619 0.063818 1.136609
H11A H 0.097131 0.056076 1.213654
H12A H 0.393(3) 0.0644(10) 0.653(2)
Cl1 Cl -0.06453(8) 0.72892(2) 0.14996(4)
O1 O -0.49889(19) 0.91865(6) 0.58934(13)
N1 N -0.09603(9) 0.94360(5) 0.70458(10)
C1 C 0.00000 1.00000 0.60465(12)
C2 C -0.0511(3) 0.86844(7) 0.65501(16)
C3 C -0.1738(3) 0.84996(7) 0.51360(16)
C4 C -0.3923(2) 0.87633(8) 0.48816(18)
C5 C -0.5043(3) 0.85815(8) 0.35703(17)
C6 C -0.4061(3) 0.81220(8) 0.25335(18)
C7 C -0.1930(3) 0.78560(8) 0.28048(17)
C8 C -0.0774(3) 0.80421(7) 0.40914(16)
C9 C -0.0027(2) 0.95884(7) 0.85300(16)
C10 C -0.1300(3) 0.93023(9) 0.98677(18)
C11 C -0.0134(3) 0.95859(9) 1.12729(18)
H1 H 0.117738 0.978981 0.545549
H2 H 0.107437 0.862122 0.640131
H3 H -0.094229 0.835034 0.732114
H4 H -0.651137 0.87767 0.338261
H5 H -0.484963 0.799065 0.163984
H6 H 0.070626 0.785198 0.425875
H7 H 0.138386 0.934259 0.865352
H8 H -0.126351 0.878021 0.986388
H9 H -0.281744 0.947839 0.983988
H10 H 0.131619 0.936182 1.136609
H11 H -0.097131 0.943924 1.213654
H12 H -0.393(3) 0.9356(10) 0.653(2)
Cl1A Cl 0.06453(8) 1.27108(2) 0.14996(4)
O1A O 0.49889(19) 1.08135(6) 0.58934(13)
N1A N 0.09603(9) 1.05640(5) 0.70458(10)
C2A C 0.0511(3) 1.13156(7) 0.65501(16)
C3A C 0.1738(3) 1.15004(7) 0.51360(16)
C4A C 0.3923(2) 1.12367(8) 0.48816(18)
C5A C 0.5043(3) 1.14185(8) 0.35703(17)
C6A C 0.4061(3) 1.18780(8) 0.25335(18)
C7A C 0.1930(3) 1.21440(8) 0.28048(17)
C8A C 0.0774(3) 1.19579(7) 0.40914(16)
C9A C 0.0027(2) 1.04116(7) 0.85300(16)
C10A C 0.1300(3) 1.06977(9) 0.98677(18)
C11A C 0.0134(3) 1.04141(9) 1.12729(18)
H1A H -0.117738 1.021019 0.545549
H2A H -0.107437 1.137878 0.640131
H3A H 0.094229 1.164966 0.732114
H4A H 0.651137 1.12233 0.338261
H5A H 0.484963 1.200935 0.163984
H6A H -0.070626 1.214802 0.425875
H7A H -0.138386 1.065741 0.865352
H8A H 0.126351 1.121979 0.986388
H9A H 0.281744 1.052161 0.983988
H10A H -0.131619 1.063818 1.136609
H11A H 0.097131 1.056076 1.213654
H12A H 0.393(3) 1.0644(10) 0.653(2)
Cl1 Cl 0.93547(8) -0.27108(2) 0.14996(4)
O1 O 0.50111(19) -0.08135(6) 0.58934(13)
N1 N 0.90397(9) -0.05640(5) 0.70458(10)
C1 C 1.00000 0.00000 0.60465(12)
C2 C 0.9489(3) -0.13156(7) 0.65501(16)
C3 C 0.8262(3) -0.15004(7) 0.51360(16)
C4 C 0.6077(2) -0.12367(8) 0.48816(18)
C5 C 0.4957(3) -0.14185(8) 0.35703(17)
C6 C 0.5939(3) -0.18780(8) 0.25335(18)
C7 C 0.8070(3) -0.21440(8) 0.28048(17)
C8 C 0.9226(3) -0.19579(7) 0.40914(16)
C9 C 0.9973(2) -0.04116(7) 0.85300(16)
C10 C 0.8700(3) -0.06977(9) 0.98677(18)
C11 C 0.9866(3) -0.04141(9) 1.12729(18)
H1 H 1.117738 -0.021019 0.545549
H2 H 1.107437 -0.137878 0.640131
H3 H 0.905771 -0.164966 0.732114
H4 H 0.348863 -0.12233 0.338261
H5 H 0.515037 -0.200935 0.163984
H6 H 1.070626 -0.214802 0.425875
H7 H 1.138386 -0.065741 0.865352
H8 H 0.873649 -0.121979 0.986388
H9 H 0.718256 -0.052161 0.983988
H10 H 1.131619 -0.063818 1.136609
H11 H 0.902869 -0.056076 1.213654
H12 H 0.607(3) -0.0644(10) 0.653(2)
Cl1A Cl 1.06453(8) 0.27108(2) 0.14996(4)
O1A O 1.49889(19) 0.08135(6) 0.58934(13)
N1A N 1.09603(9) 0.05640(5) 0.70458(10)
C2A C 1.0511(3) 0.13156(7) 0.65501(16)
C3A C 1.1738(3) 0.15004(7) 0.51360(16)
C4A C 1.3923(2) 0.12367(8) 0.48816(18)
C5A C 1.5043(3) 0.14185(8) 0.35703(17)
C6A C 1.4061(3) 0.18780(8) 0.25335(18)
C7A C 1.1930(3) 0.21440(8) 0.28048(17)
C8A C 1.0774(3) 0.19579(7) 0.40914(16)
C9A C 1.0027(2) 0.04116(7) 0.85300(16)
C10A C 1.1300(3) 0.06977(9) 0.98677(18)
C11A C 1.0134(3) 0.04141(9) 1.12729(18)
H1A H 0.882262 0.021019 0.545549
H2A H 0.892563 0.137878 0.640131
H3A H 1.094229 0.164966 0.732114
H4A H 1.651137 0.12233 0.338261
H5A H 1.484963 0.200935 0.163984
H6A H 0.929374 0.214802 0.425875
H7A H 0.861614 0.065741 0.865352
H8A H 1.126351 0.121979 0.986388
H9A H 1.281744 0.052161 0.983988
H10A H 0.868381 0.063818 1.136609
H11A H 1.097131 0.056076 1.213654
H12A H 1.393(3) 0.0644(10) 0.653(2)
Cl1 Cl 0.93547(8) 0.72892(2) 0.14996(4)
O1 O 0.50111(19) 0.91865(6) 0.58934(13)
N1 N 0.90397(9) 0.94360(5) 0.70458(10)
C1 C 1.00000 1.00000 0.60465(12)
C2 C 0.9489(3) 0.86844(7) 0.65501(16)
C3 C 0.8262(3) 0.84996(7) 0.51360(16)
C4 C 0.6077(2) 0.87633(8) 0.48816(18)
C5 C 0.4957(3) 0.85815(8) 0.35703(17)
C6 C 0.5939(3) 0.81220(8) 0.25335(18)
C7 C 0.8070(3) 0.78560(8) 0.28048(17)
C8 C 0.9226(3) 0.80421(7) 0.40914(16)
C9 C 0.9973(2) 0.95884(7) 0.85300(16)
C10 C 0.8700(3) 0.93023(9) 0.98677(18)
C11 C 0.9866(3) 0.95859(9) 1.12729(18)
H1 H 1.117738 0.978981 0.545549
H2 H 1.107437 0.862122 0.640131
H3 H 0.905771 0.835034 0.732114
H4 H 0.348863 0.87767 0.338261
H5 H 0.515037 0.799065 0.163984
H6 H 1.070626 0.785198 0.425875
H7 H 1.138386 0.934259 0.865352
H8 H 0.873649 0.878021 0.986388
H9 H 0.718256 0.947839 0.983988
H10 H 1.131619 0.936182 1.136609
H11 H 0.902869 0.943924 1.213654
H12 H 0.607(3) 0.9356(10) 0.653(2)
Cl1A Cl 1.06453(8) 1.27108(2) 0.14996(4)
O1A O 1.49889(19) 1.08135(6) 0.58934(13)
N1A N 1.09603(9) 1.05640(5) 0.70458(10)
C2A C 1.0511(3) 1.13156(7) 0.65501(16)
C3A C 1.1738(3) 1.15004(7) 0.51360(16)
C4A C 1.3923(2) 1.12367(8) 0.48816(18)
C5A C 1.5043(3) 1.14185(8) 0.35703(17)
C6A C 1.4061(3) 1.18780(8) 0.25335(18)
C7A C 1.1930(3) 1.21440(8) 0.28048(17)
C8A C 1.0774(3) 1.19579(7) 0.40914(16)
C9A C 1.0027(2) 1.04116(7) 0.85300(16)
C10A C 1.1300(3) 1.06977(9) 0.98677(18)
C11A C 1.0134(3) 1.04141(9) 1.12729(18)
H1A H 0.882262 1.021019 0.545549
H2A H 0.892563 1.137878 0.640131
H3A H 1.094229 1.164966 0.732114
H4A H 1.651137 1.12233 0.338261
H5A H 1.484963 1.200935 0.163984
H6A H 0.929374 1.214802 0.425875
H7A H 0.861614 1.065741 0.865352
H8A H 1.126351 1.121979 0.986388
H9A H 1.281744 1.052161 0.983988
H10A H 0.868381 1.063818 1.136609
H11A H 1.097131 1.056076 1.213654
H12A H 1.393(3) 1.0644(10) 0.653(2)

#END
