./KABDAS_from_POSCAR.cif_generated_by_CrystalShift
_symmetry_cell_setting triclinic
_symmetry_space_group_name_H-M 'P 1'
loop_
_symmetry_equiv_pos_site_id
_symmetry_equiv_pos_as_xyz
1 x,y,z
_cell_length_a 12.029000
_cell_length_b 5.990000
_cell_length_c 33.500000
_cell_angle_alpha 90.000000
_cell_angle_beta 108.350000
_cell_angle_gamma 90.000000
_cell_volume 2291.060261
loop_
_atom_site_label
_atom_site_type_symbol
_atom_site_fract_x
_atom_site_fract_y
_atom_site_fract_z
H1 H 0.654000 0.345300 0.461200
H2 H 0.125200 0.474000 0.039800
H3 H 0.060700 0.151900 -0.000200
H4 H 0.300600 0.242900 -0.060300
H5 H 0.898900 0.961800 0.353900
H6 H 0.966300 1.157200 0.382500
H7 H 1.035300 0.949800 0.374100
H8 H 0.975700 0.977800 0.266600
H9 H 0.938600 0.829100 0.298700
H10 H 1.067500 0.820100 0.297400
H11 H 1.114500 1.352300 0.353100
H12 H 0.874800 -0.026000 0.460200
H13 H 0.939300 -0.348100 0.500200
H14 H 1.128800 1.279500 0.310100
H15 H 1.169400 1.119600 0.349000
H16 H 0.648600 1.021600 0.166700
H17 H 0.708100 1.256900 0.170900
H18 H 0.627800 1.173200 0.126900
H19 H 0.699400 -0.257100 0.560300
H20 H 0.101100 0.461800 0.146100
H21 H 0.781400 1.577900 0.271400
H22 H 0.613900 1.612200 0.224100
H23 H 0.581600 1.142600 0.224600
H24 H 0.478400 1.314200 0.216400
H25 H 0.300800 1.266500 0.170700
H26 H 0.163400 1.014500 0.125800
H27 H 0.033700 0.657200 0.117500
H28 H -0.035300 0.449800 0.125900
H29 H 0.024300 0.477800 0.233400
H30 H 0.061400 0.329100 0.201300
H31 H -0.067500 0.320100 0.202600
H32 H -0.114500 0.852300 0.146900
H33 H 0.500300 -0.512300 0.883500
H34 H 0.559600 -0.577200 0.849600
H35 H 0.606200 -0.166000 0.928400
H36 H 0.539000 0.027800 0.899300
H37 H 0.836600 -0.014500 0.874200
H38 H 0.699200 -0.266500 0.829300
H39 H 0.521600 -0.314200 0.783600
H40 H 0.418400 -0.142600 0.775400
H41 H 0.386100 -0.612200 0.775900
H42 H 0.218600 -0.577900 0.728600
H43 H 0.372200 -0.173200 0.873100
H44 H 0.291900 -0.256900 0.829100
H45 H 0.351400 -0.021600 0.833300
H46 H -0.169400 -0.119600 0.651000
H47 H -0.128800 -0.279500 0.689900
H48 H -0.114500 -0.352300 0.646900
H49 H -0.067500 0.179900 0.702600
H50 H 0.061400 0.170900 0.701300
H51 H 0.024300 0.022200 0.733400
H52 H -0.035300 0.050200 0.625900
H53 H 0.033700 -0.157200 0.617500
H54 H 0.101100 0.038200 0.646100
H55 H 0.699400 0.757100 1.060300
H56 H 0.939300 0.848100 1.000200
H57 H 0.874800 0.526000 0.960200
H58 H 0.654000 0.154700 0.961200
H59 H 0.461000 0.972200 0.100700
H60 H 0.393800 1.166000 0.071600
H61 H 0.440400 1.577200 0.150400
H62 H 0.499700 1.512300 0.116500
H63 H 0.500300 1.012300 0.383500
H64 H 0.559600 1.077200 0.349600
H65 H 0.606200 0.666000 0.428400
H66 H 0.539000 0.472200 0.399300
H67 H 0.836600 0.514500 0.374200
H68 H 0.346000 0.654700 0.538800
H69 H 0.125200 1.026000 0.539800
H70 H -0.128800 0.779500 0.189900
H71 H -0.169400 0.619600 0.151000
H72 H 0.060700 1.348100 0.499800
H73 H 0.300600 1.257100 0.439700
H74 H 0.898900 0.538200 0.853900
H75 H 0.966300 0.342800 0.882500
H76 H 1.035300 0.550200 0.874100
H77 H 0.351400 0.521600 0.333300
H78 H 0.291900 0.756900 0.329100
H79 H 0.975700 0.522200 0.766600
H80 H 0.938600 0.670900 0.798700
H81 H 1.067500 0.679900 0.797400
H82 H 1.114500 0.147700 0.853100
H83 H 1.128800 0.220500 0.810100
H84 H 1.169400 0.380400 0.849000
H85 H 0.372200 0.673200 0.373100
H86 H 0.218600 1.077900 0.228600
H87 H 0.386100 1.112200 0.275900
H88 H 0.418400 0.642600 0.275400
H89 H 0.521600 0.814200 0.283600
H90 H 0.699200 0.766500 0.329300
H91 H 0.499700 -0.012300 0.616500
H92 H 0.440400 -0.077200 0.650400
H93 H 0.393800 0.334000 0.571600
H94 H 0.461000 0.527800 0.600700
H95 H 0.163400 0.485500 0.625800
H96 H 0.300800 0.233500 0.670700
H97 H 0.478400 0.185800 0.716400
H98 H 0.581600 0.357400 0.724600
H99 H 0.613900 -0.112200 0.724100
H100 H 0.781400 -0.077900 0.771400
H101 H 0.627800 0.326800 0.626900
H102 H 0.708100 0.243100 0.670900
H103 H 0.648600 0.478400 0.666700
H104 H 0.346000 0.845300 0.038800
C105 C 0.123400 1.261700 0.495700
C106 C 0.175100 1.328800 0.466500
C107 C 0.263800 1.206600 0.459700
C108 C 0.299800 1.010900 0.481600
C109 C 0.250500 0.937000 0.513500
C110 C 0.970000 0.452700 0.862100
C111 C 1.001100 0.585000 0.794400
C112 C 1.112000 0.271700 0.834700
C113 C 0.997700 0.392800 0.823300
C114 C 0.639200 0.327400 0.656600
C115 C 0.800000 0.263600 0.781300
C116 C 0.740000 0.058800 0.761800
C117 C 0.536300 1.276600 0.165900
C118 C 0.472300 1.456400 0.138500
C119 C 0.416300 1.227200 0.134400
C120 C 0.398600 1.078700 0.096100
C121 C 0.283200 0.963000 0.091700
C122 C 0.238000 1.052100 0.122800
C123 C 0.313200 1.193100 0.147000
C124 C 0.552500 1.284200 0.212300
C125 C 0.637500 1.462300 0.232900
C126 C 0.740000 1.441200 0.261800
C127 C 0.800000 1.236400 0.281300
C128 C 0.637500 0.037700 0.732900
C129 C 0.552500 0.215800 0.712300
C130 C 0.639200 1.172600 0.156600
C131 C 0.997700 1.107200 0.323300
C132 C 1.112000 1.228300 0.334700
C133 C 1.001100 0.915000 0.294400
C134 C 0.970000 1.047300 0.362100
C135 C 0.313200 0.306900 0.647000
C136 C 0.238000 0.447900 0.622800
C137 C 0.250500 0.563000 0.013500
C138 C 0.299800 0.489100 -0.018400
C139 C 0.263800 0.293400 -0.040300
C140 C 0.175100 0.171200 -0.033500
C141 C 0.123400 0.238300 -0.004300
C142 C 0.161400 0.430900 0.019100
C143 C 0.283200 0.537000 0.591700
C144 C 0.838600 -0.069100 0.480900
C145 C 0.876600 -0.261700 0.504300
C146 C 0.824900 -0.328800 0.533500
C147 C 0.736200 -0.206600 0.540300
C148 C 0.700200 -0.010900 0.518400
C149 C 0.398600 0.421300 0.596100
C150 C 0.416300 0.272800 0.634400
C151 C 0.472300 0.043600 0.638500
C152 C 0.536300 0.223400 0.665900
C153 C 0.838600 0.569100 0.980900
C154 C 0.876600 0.761700 1.004300
C155 C 0.824900 0.828800 1.033500
C156 C 0.736200 0.706600 1.040300
C157 C 0.700200 0.510900 1.018400
C158 C 0.749500 0.437000 0.986500
C159 C 0.030000 -0.047300 0.637900
C160 C -0.001100 0.085000 0.705600
C161 C -0.112000 -0.228300 0.665300
C162 C 0.002300 -0.107200 0.676700
C163 C 0.360800 -0.172600 0.843400
C164 C 0.200000 -0.236400 0.718700
C165 C 0.260000 -0.441200 0.738200
C166 C 0.362500 -0.462300 0.767100
C167 C 0.447500 -0.284200 0.787700
C168 C 0.686800 -0.193100 0.853000
C169 C 0.762000 -0.052100 0.877200
C170 C 0.716800 0.037000 0.908300
C171 C 0.601400 -0.078700 0.903900
C172 C 0.583700 -0.227200 0.865600
C173 C 0.527700 -0.456400 0.861500
C174 C 0.161400 1.069100 0.519100
C175 C 0.463700 0.776600 0.334100
C176 C 0.527700 0.956400 0.361500
C177 C 0.583700 0.727200 0.365600
C178 C 0.601400 0.578700 0.403900
C179 C 0.716800 0.463000 0.408300
C180 C 0.762000 0.552100 0.377200
C181 C 0.686800 0.693100 0.353000
C182 C 0.447500 0.784200 0.287700
C183 C 0.362500 0.962300 0.267100
C184 C 0.260000 0.941200 0.238200
C185 C 0.200000 0.736400 0.218700
C186 C 0.749500 0.063000 0.486500
C187 C 0.030000 0.547300 0.137900
C188 C 0.360800 0.672600 0.343400
C189 C 0.002300 0.607200 0.176700
C190 C -0.112000 0.728300 0.165300
C191 C -0.001100 0.415000 0.205600
C192 C 0.463700 -0.276600 0.834100
N193 N 0.768000 0.308100 0.434700
N194 N 0.711900 0.244000 0.463100
N195 N 0.711900 0.256000 0.963100
N196 N 0.611000 0.383700 1.028300
N197 N 0.862600 1.030100 1.057300
N198 N 0.137400 -0.030100 -0.057300
N199 N 0.232000 0.691900 0.565300
N200 N 0.288100 0.756000 0.536900
N201 N 0.611000 0.116300 0.528300
N202 N 0.389000 0.883700 0.471700
N203 N 0.137400 1.530100 0.442700
N204 N 0.862600 -0.530100 0.557300
N205 N 0.768000 0.191900 0.934700
N206 N 0.232000 0.808100 0.065300
N207 N 0.389000 0.616300 -0.028300
N208 N 0.288100 0.744000 0.036900
O209 O 0.947700 -0.632100 0.552500
O210 O 0.913900 1.275400 0.300700
O211 O 0.810700 -0.596800 0.580700
O212 O 0.052300 1.632100 0.447500
O213 O 0.189300 1.596800 0.419300
O214 O 0.572400 0.045600 0.555700
O215 O 0.427600 0.954400 0.444300
O216 O 0.425700 0.709900 0.490100
O217 O 0.574300 0.290100 0.509900
O218 O 0.425700 0.790100 -0.009900
O219 O 0.427600 0.545600 -0.055700
O220 O 0.913900 0.224600 0.800700
O221 O 0.753800 0.442800 0.781700
O222 O 0.947700 1.132100 1.052500
O223 O 0.810700 1.096800 1.080700
O224 O 0.189300 -0.096800 -0.080700
O225 O 0.572400 0.454400 1.055700
O226 O 0.574300 0.209900 1.009900
O227 O 0.052300 -0.132100 -0.052500
O228 O 0.246200 0.557200 0.218300
O229 O 0.753800 1.057200 0.281700
O230 O 0.086100 -0.275400 0.699300
O231 O 0.246200 -0.057200 0.718300
O232 O 0.086100 0.775400 0.199300

#END
