
#######################################################################
#
#                 Cambridge Crystallographic Data Centre
#                                CCDC 
#
#######################################################################
#
# If this CIF has been generated from an entry in the Cambridge 
# Structural Database, then it will include bibliographic, chemical, 
# crystal, experimental, refinement or atomic coordinate data resulting 
# from the CCDC's data processing and validation procedures.
#
#######################################################################

data_KABDIC
_symmetry_cell_setting           monoclinic
_symmetry_space_group_name_H-M   'P 21/c'
_symmetry_Int_Tables_number      14
_space_group_name_Hall           '-P 2ybc'
loop_
_symmetry_equiv_pos_site_id
_symmetry_equiv_pos_as_xyz
1 x,y,z
2 -x,1/2+y,1/2-z
3 -x,-y,-z
4 x,1/2-y,1/2+z
_cell_length_a                   7.9737(7)
_cell_length_b                   6.2591(6)
_cell_length_c                   33.265(3)
_cell_angle_alpha                90
_cell_angle_beta                 93.805(8)
_cell_angle_gamma                90
_cell_volume                     1656.54
loop_
_atom_site_label
_atom_site_type_symbol
_atom_site_fract_x
_atom_site_fract_y
_atom_site_fract_z
N1 N 0.15014(12) 0.10641(19) 0.07667(3)
N2 N 0.26374(14) -0.2162(2) 0.07143(3)
C1 C -0.10284(15) 0.3342(2) 0.07936(4)
C2 C -0.21816(16) 0.1678(2) 0.08086(4)
C3 C -0.38706(16) 0.2022(2) 0.06900(4)
C4 C -0.44051(16) 0.4013(3) 0.05515(4)
C5 C -0.32601(17) 0.5661(2) 0.05271(4)
C6 C -0.15719(16) 0.5331(2) 0.06485(4)
C7 C 0.08225(15) 0.3066(2) 0.09321(4)
C8 C 0.12033(15) 0.3155(2) 0.13881(4)
C9 C 0.02747(16) 0.2044(2) 0.16633(4)
C10 C 0.07544(16) 0.2074(2) 0.20723(4)
C11 C 0.21664(15) 0.3221(2) 0.22243(4)
C12 C 0.30588(16) 0.4380(2) 0.19481(4)
C13 C 0.25869(16) 0.4334(2) 0.15381(4)
C14 C 0.27240(15) 0.3177(2) 0.26618(4)
C15 C 0.36722(17) 0.4845(2) 0.28421(4)
C16 C 0.42239(18) 0.4754(3) 0.32482(4)
C17 C 0.38402(17) 0.3018(2) 0.34818(4)
C18 C 0.28887(17) 0.1358(3) 0.33100(4)
C19 C 0.23430(17) 0.1436(2) 0.29038(4)
C20 C 0.21208(16) -0.0692(2) 0.09636(4)
C21 C 0.23282(16) -0.1299(2) 0.03361(4)
C22 C 0.16304(17) 0.0681(2) 0.03627(4)
H1 H -0.1817 0.0306 0.0900
H2 H -0.4657 0.0888 0.0704
H3 H -0.5558 0.4246 0.0473
H4 H -0.3624 0.7018 0.0428
H5 H -0.0789 0.6467 0.0632
H6 H 0.1445 0.4277 0.0814
H7 H -0.0694 0.1261 0.1569
H8 H 0.0110 0.1299 0.2253
H9 H 0.4002 0.5210 0.2042
H10 H 0.3221 0.5123 0.1357
H11 H 0.3942 0.6052 0.2686
H12 H 0.4870 0.5896 0.3366
H13 H 0.4225 0.2962 0.3758
H14 H 0.2609 0.0167 0.3469
H15 H 0.1699 0.0286 0.2789
H16 H 0.2177 -0.0849 0.1248
H17 H 0.2567 -0.1985 0.0092
H18 H 0.1300 0.1609 0.0146
N1 N 0.84986(12) 0.60641(19) 0.42333(3)
N2 N 0.73626(14) 0.2838(2) 0.42857(3)
C1 C 1.10284(15) 0.8342(2) 0.42064(4)
C2 C 1.21816(16) 0.6678(2) 0.41914(4)
C3 C 1.38706(16) 0.7022(2) 0.43100(4)
C4 C 1.44051(16) 0.9013(3) 0.44485(4)
C5 C 1.32601(17) 1.0661(2) 0.44729(4)
C6 C 1.15719(16) 1.0331(2) 0.43515(4)
C7 C 0.91775(15) 0.8066(2) 0.40679(4)
C8 C 0.87967(15) 0.8155(2) 0.36119(4)
C9 C 0.97253(16) 0.7044(2) 0.33367(4)
C10 C 0.92456(16) 0.7074(2) 0.29277(4)
C11 C 0.78336(15) 0.8221(2) 0.27757(4)
C12 C 0.69412(16) 0.9380(2) 0.30519(4)
C13 C 0.74131(16) 0.9334(2) 0.34619(4)
C14 C 0.72760(15) 0.8177(2) 0.23382(4)
C15 C 0.63278(17) 0.9845(2) 0.21579(4)
C16 C 0.57761(18) 0.9754(3) 0.17518(4)
C17 C 0.61598(17) 0.8018(2) 0.15182(4)
C18 C 0.71113(17) 0.6358(3) 0.16900(4)
C19 C 0.76570(17) 0.6436(2) 0.20962(4)
C20 C 0.78792(16) 0.4308(2) 0.40364(4)
C21 C 0.76718(16) 0.3701(2) 0.46639(4)
C22 C 0.83696(17) 0.5681(2) 0.46373(4)
H1 H 1.1817 0.5306 0.4100
H2 H 1.4657 0.5888 0.4296
H3 H 1.5558 0.9246 0.4527
H4 H 1.3624 1.2018 0.4572
H5 H 1.0789 1.1467 0.4368
H6 H 0.8555 0.9277 0.4186
H7 H 1.0694 0.6261 0.3431
H8 H 0.9890 0.6299 0.2747
H9 H 0.5998 1.0210 0.2958
H10 H 0.6779 1.0123 0.3643
H11 H 0.6058 1.1052 0.2314
H12 H 0.5130 1.0896 0.1634
H13 H 0.5775 0.7962 0.1242
H14 H 0.7391 0.5167 0.1531
H15 H 0.8301 0.5286 0.2211
H16 H 0.7823 0.4151 0.3752
H17 H 0.7433 0.3015 0.4908
H18 H 0.8700 0.6609 0.4854
N1 N 0.84986(12) 0.89359(19) 0.92333(3)
N2 N 0.73626(14) 1.2162(2) 0.92857(3)
C1 C 1.10284(15) 0.6658(2) 0.92064(4)
C2 C 1.21816(16) 0.8322(2) 0.91914(4)
C3 C 1.38706(16) 0.7978(2) 0.93100(4)
C4 C 1.44051(16) 0.5987(3) 0.94485(4)
C5 C 1.32601(17) 0.4339(2) 0.94729(4)
C6 C 1.15719(16) 0.4669(2) 0.93515(4)
C7 C 0.91775(15) 0.6934(2) 0.90679(4)
C8 C 0.87967(15) 0.6845(2) 0.86119(4)
C9 C 0.97253(16) 0.7956(2) 0.83367(4)
C10 C 0.92456(16) 0.7926(2) 0.79277(4)
C11 C 0.78336(15) 0.6779(2) 0.77757(4)
C12 C 0.69412(16) 0.5620(2) 0.80519(4)
C13 C 0.74131(16) 0.5666(2) 0.84619(4)
C14 C 0.72760(15) 0.6823(2) 0.73382(4)
C15 C 0.63278(17) 0.5155(2) 0.71579(4)
C16 C 0.57761(18) 0.5246(3) 0.67518(4)
C17 C 0.61598(17) 0.6982(2) 0.65182(4)
C18 C 0.71113(17) 0.8642(3) 0.66900(4)
C19 C 0.76570(17) 0.8564(2) 0.70962(4)
C20 C 0.78792(16) 1.0692(2) 0.90364(4)
C21 C 0.76718(16) 1.1299(2) 0.96639(4)
C22 C 0.83696(17) 0.9319(2) 0.96373(4)
H1 H 1.1817 0.9694 0.9100
H2 H 1.4657 0.9112 0.9296
H3 H 1.5558 0.5754 0.9527
H4 H 1.3624 0.2982 0.9572
H5 H 1.0789 0.3533 0.9368
H6 H 0.8555 0.5723 0.9186
H7 H 1.0694 0.8739 0.8431
H8 H 0.9890 0.8701 0.7747
H9 H 0.5998 0.4790 0.7958
H10 H 0.6779 0.4877 0.8643
H11 H 0.6058 0.3948 0.7314
H12 H 0.5130 0.4104 0.6634
H13 H 0.5775 0.7038 0.6242
H14 H 0.7391 0.9833 0.6531
H15 H 0.8301 0.9714 0.7211
H16 H 0.7823 1.0849 0.8752
H17 H 0.7433 1.1985 0.9908
H18 H 0.8700 0.8391 0.9854
N1 N 0.15014(12) 0.39359(19) 0.57667(3)
N2 N 0.26374(14) 0.7162(2) 0.57143(3)
C1 C -0.10284(15) 0.1658(2) 0.57936(4)
C2 C -0.21816(16) 0.3322(2) 0.58086(4)
C3 C -0.38706(16) 0.2978(2) 0.56900(4)
C4 C -0.44051(16) 0.0987(3) 0.55515(4)
C5 C -0.32601(17) -0.0661(2) 0.55271(4)
C6 C -0.15719(16) -0.0331(2) 0.56485(4)
C7 C 0.08225(15) 0.1934(2) 0.59321(4)
C8 C 0.12033(15) 0.1845(2) 0.63881(4)
C9 C 0.02747(16) 0.2956(2) 0.66633(4)
C10 C 0.07544(16) 0.2926(2) 0.70723(4)
C11 C 0.21664(15) 0.1779(2) 0.72243(4)
C12 C 0.30588(16) 0.0620(2) 0.69481(4)
C13 C 0.25869(16) 0.0666(2) 0.65381(4)
C14 C 0.27240(15) 0.1823(2) 0.76618(4)
C15 C 0.36722(17) 0.0155(2) 0.78421(4)
C16 C 0.42239(18) 0.0246(3) 0.82482(4)
C17 C 0.38402(17) 0.1982(2) 0.84818(4)
C18 C 0.28887(17) 0.3642(3) 0.83100(4)
C19 C 0.23430(17) 0.3564(2) 0.79038(4)
C20 C 0.21208(16) 0.5692(2) 0.59636(4)
C21 C 0.23282(16) 0.6299(2) 0.53361(4)
C22 C 0.16304(17) 0.4319(2) 0.53627(4)
H1 H -0.1817 0.4694 0.5900
H2 H -0.4657 0.4112 0.5704
H3 H -0.5558 0.0754 0.5473
H4 H -0.3624 -0.2018 0.5428
H5 H -0.0789 -0.1467 0.5632
H6 H 0.1445 0.0723 0.5814
H7 H -0.0694 0.3739 0.6569
H8 H 0.0110 0.3701 0.7253
H9 H 0.4002 -0.0210 0.7042
H10 H 0.3221 -0.0123 0.6357
H11 H 0.3942 -0.1052 0.7686
H12 H 0.4870 -0.0896 0.8366
H13 H 0.4225 0.2038 0.8758
H14 H 0.2609 0.4833 0.8469
H15 H 0.1699 0.4714 0.7789
H16 H 0.2177 0.5849 0.6248
H17 H 0.2567 0.6985 0.5092
H18 H 0.1300 0.3391 0.5146

#END
