
#######################################################################
#
#                 Cambridge Crystallographic Data Centre
#                                CCDC 
#
#######################################################################
#
# If this CIF has been generated from an entry in the Cambridge 
# Structural Database, then it will include bibliographic, chemical, 
# crystal, experimental, refinement or atomic coordinate data resulting 
# from the CCDC's data processing and validation procedures.
#
#######################################################################

data_KABGAX
_symmetry_cell_setting           monoclinic
_symmetry_space_group_name_H-M   'P 21/n'
_symmetry_Int_Tables_number      14
_space_group_name_Hall           '-P 2yn'
loop_
_symmetry_equiv_pos_site_id
_symmetry_equiv_pos_as_xyz
1 x,y,z
2 1/2-x,1/2+y,1/2-z
3 -x,-y,-z
4 1/2+x,1/2-y,1/2+z
_cell_length_a                   23.4356(4)
_cell_length_b                   7.84115(14)
_cell_length_c                   26.7438(5)
_cell_angle_alpha                90
_cell_angle_beta                 111.7860(10)
_cell_angle_gamma                90
_cell_volume                     4563.49
loop_
_atom_site_label
_atom_site_type_symbol
_atom_site_fract_x
_atom_site_fract_y
_atom_site_fract_z
O1 O 0.51486(4) 0.16611(14) 0.04957(4)
O2 O 0.20220(5) 0.45515(18) -0.08565(4)
O3 O 0.39690(5) 0.04069(13) 0.06125(4)
C1 C 0.41405(6) 0.25521(18) 0.00606(5)
C2 C 0.47190(6) 0.23724(18) 0.00467(5)
C3 C 0.48429(7) 0.2895(2) -0.04072(6)
H1 H 0.5240 0.2738 -0.0417
C4 C 0.43877(7) 0.3629(2) -0.08315(6)
H2 H 0.4474 0.3988 -0.1135
C5 C 0.37912(7) 0.38701(19) -0.08315(5)
C6 C 0.33197(8) 0.4678(2) -0.12600(6)
H3 H 0.3403 0.5080 -0.1561
C7 C 0.27523(8) 0.4887(2) -0.12489(6)
H4 H 0.2443 0.5443 -0.1540
C8 C 0.26156(7) 0.4287(2) -0.08090(6)
C9 C 0.30564(6) 0.3513(2) -0.03811(5)
H5 H 0.2959 0.3118 -0.0086
C10 C 0.36631(6) 0.32983(18) -0.03778(5)
C11 C 0.40345(6) 0.19262(19) 0.05519(5)
C12 C 0.40215(6) 0.32003(18) 0.09617(5)
C13 C 0.40109(6) 0.2633(2) 0.14507(5)
H6 H 0.3999 0.1446 0.1516
C14 C 0.40184(8) 0.3792(2) 0.18399(6)
H7 H 0.4016 0.3401 0.2176
C15 C 0.40288(8) 0.5516(2) 0.17444(7)
H8 H 0.4033 0.6307 0.2015
C16 C 0.40328(8) 0.6104(2) 0.12605(6)
H9 H 0.4036 0.7294 0.1195
C17 C 0.40328(6) 0.49406(19) 0.08707(6)
H10 H 0.4041 0.5338 0.0538
C18 C 0.57707(7) 0.1598(2) 0.05318(7)
H11 H 0.6028 0.1091 0.0877
H12 H 0.5915 0.2756 0.0507
H13 H 0.5797 0.0904 0.0236
C19 C 0.18576(8) 0.4047(3) -0.04158(7)
H14 H 0.1441 0.4446 -0.0476
H15 H 0.2147 0.4547 -0.0082
H16 H 0.1872 0.2801 -0.0386
O1 O -0.01486(4) 0.66611(14) 0.45043(4)
O2 O 0.29780(5) 0.95515(18) 0.58565(4)
O3 O 0.10310(5) 0.54069(13) 0.43875(4)
C1 C 0.08595(6) 0.75521(18) 0.49394(5)
C2 C 0.02810(6) 0.73724(18) 0.49533(5)
C3 C 0.01571(7) 0.7895(2) 0.54072(6)
H1 H -0.0240 0.7738 0.5417
C4 C 0.06123(7) 0.8629(2) 0.58315(6)
H2 H 0.0526 0.8988 0.6135
C5 C 0.12088(7) 0.88701(19) 0.58315(5)
C6 C 0.16803(8) 0.9678(2) 0.62600(6)
H3 H 0.1597 1.0080 0.6561
C7 C 0.22477(8) 0.9887(2) 0.62489(6)
H4 H 0.2557 1.0443 0.6540
C8 C 0.23844(7) 0.9287(2) 0.58090(6)
C9 C 0.19436(6) 0.8513(2) 0.53811(5)
H5 H 0.2041 0.8118 0.5086
C10 C 0.13369(6) 0.82983(18) 0.53778(5)
C11 C 0.09655(6) 0.69262(19) 0.44481(5)
C12 C 0.09785(6) 0.82003(18) 0.40383(5)
C13 C 0.09891(6) 0.7633(2) 0.35493(5)
H6 H 0.1001 0.6446 0.3484
C14 C 0.09816(8) 0.8792(2) 0.31601(6)
H7 H 0.0984 0.8401 0.2824
C15 C 0.09712(8) 1.0516(2) 0.32556(7)
H8 H 0.0967 1.1307 0.2985
C16 C 0.09672(8) 1.1104(2) 0.37395(6)
H9 H 0.0964 1.2294 0.3805
C17 C 0.09672(6) 0.99406(19) 0.41293(6)
H10 H 0.0959 1.0338 0.4462
C18 C -0.07707(7) 0.6598(2) 0.44682(7)
H11 H -0.1028 0.6091 0.4123
H12 H -0.0915 0.7756 0.4493
H13 H -0.0797 0.5904 0.4764
C19 C 0.31424(8) 0.9047(3) 0.54158(7)
H14 H 0.3559 0.9446 0.5476
H15 H 0.2853 0.9547 0.5082
H16 H 0.3128 0.7801 0.5386
O1 O 0.48514(4) 0.83389(14) 0.95043(4)
O2 O 0.79780(5) 0.54485(18) 1.08565(4)
O3 O 0.60310(5) 0.95931(13) 0.93875(4)
C1 C 0.58595(6) 0.74479(18) 0.99394(5)
C2 C 0.52810(6) 0.76276(18) 0.99533(5)
C3 C 0.51571(7) 0.7105(2) 1.04072(6)
H1 H 0.4760 0.7262 1.0417
C4 C 0.56123(7) 0.6371(2) 1.08315(6)
H2 H 0.5526 0.6012 1.1135
C5 C 0.62088(7) 0.61299(19) 1.08315(5)
C6 C 0.66803(8) 0.5322(2) 1.12600(6)
H3 H 0.6597 0.4920 1.1561
C7 C 0.72477(8) 0.5113(2) 1.12489(6)
H4 H 0.7557 0.4557 1.1540
C8 C 0.73844(7) 0.5713(2) 1.08090(6)
C9 C 0.69436(6) 0.6487(2) 1.03811(5)
H5 H 0.7041 0.6882 1.0086
C10 C 0.63369(6) 0.67017(18) 1.03778(5)
C11 C 0.59655(6) 0.80738(19) 0.94481(5)
C12 C 0.59785(6) 0.67997(18) 0.90383(5)
C13 C 0.59891(6) 0.7367(2) 0.85493(5)
H6 H 0.6001 0.8554 0.8484
C14 C 0.59816(8) 0.6208(2) 0.81601(6)
H7 H 0.5984 0.6599 0.7824
C15 C 0.59712(8) 0.4484(2) 0.82556(7)
H8 H 0.5967 0.3693 0.7985
C16 C 0.59672(8) 0.3896(2) 0.87395(6)
H9 H 0.5964 0.2706 0.8805
C17 C 0.59672(6) 0.50594(19) 0.91293(6)
H10 H 0.5959 0.4662 0.9462
C18 C 0.42293(7) 0.8402(2) 0.94682(7)
H11 H 0.3972 0.8909 0.9123
H12 H 0.4085 0.7244 0.9493
H13 H 0.4203 0.9096 0.9764
C19 C 0.81424(8) 0.5953(3) 1.04158(7)
H14 H 0.8559 0.5554 1.0476
H15 H 0.7853 0.5453 1.0082
H16 H 0.8128 0.7199 1.0386
O1 O 1.01486(4) 0.33389(14) 0.54957(4)
O2 O 0.70220(5) 0.04485(18) 0.41435(4)
O3 O 0.89690(5) 0.45931(13) 0.56125(4)
C1 C 0.91405(6) 0.24479(18) 0.50606(5)
C2 C 0.97190(6) 0.26276(18) 0.50467(5)
C3 C 0.98429(7) 0.2105(2) 0.45928(6)
H1 H 1.0240 0.2262 0.4583
C4 C 0.93877(7) 0.1371(2) 0.41685(6)
H2 H 0.9474 0.1012 0.3865
C5 C 0.87912(7) 0.11299(19) 0.41685(5)
C6 C 0.83197(8) 0.0322(2) 0.37400(6)
H3 H 0.8403 -0.0080 0.3439
C7 C 0.77523(8) 0.0113(2) 0.37511(6)
H4 H 0.7443 -0.0443 0.3460
C8 C 0.76156(7) 0.0713(2) 0.41910(6)
C9 C 0.80564(6) 0.1487(2) 0.46189(5)
H5 H 0.7959 0.1882 0.4914
C10 C 0.86631(6) 0.17017(18) 0.46222(5)
C11 C 0.90345(6) 0.30738(19) 0.55519(5)
C12 C 0.90215(6) 0.17997(18) 0.59617(5)
C13 C 0.90109(6) 0.2367(2) 0.64507(5)
H6 H 0.8999 0.3554 0.6516
C14 C 0.90184(8) 0.1208(2) 0.68399(6)
H7 H 0.9016 0.1599 0.7176
C15 C 0.90288(8) -0.0516(2) 0.67444(7)
H8 H 0.9033 -0.1307 0.7015
C16 C 0.90328(8) -0.1104(2) 0.62605(6)
H9 H 0.9036 -0.2294 0.6195
C17 C 0.90328(6) 0.00594(19) 0.58707(6)
H10 H 0.9041 -0.0338 0.5538
C18 C 1.07707(7) 0.3402(2) 0.55318(7)
H11 H 1.1028 0.3909 0.5877
H12 H 1.0915 0.2244 0.5507
H13 H 1.0797 0.4096 0.5236
C19 C 0.68576(8) 0.0953(3) 0.45842(7)
H14 H 0.6441 0.0554 0.4524
H15 H 0.7147 0.0453 0.4918
H16 H 0.6872 0.2199 0.4614
O4 O 0.22870(5) 0.15222(16) 0.76495(4)
O5 O 0.00579(5) -0.09657(16) 0.87951(4)
O6 O 0.08863(5) 0.01795(14) 0.71223(4)
C20 C 0.15701(6) 0.06924(18) 0.80110(5)
C21 C 0.21794(7) 0.0817(2) 0.80740(6)
C22 C 0.26461(7) 0.0244(2) 0.85476(7)
H17 H 0.3065 0.0315 0.8585
C23 C 0.24920(8) -0.0414(2) 0.89516(7)
H18 H 0.2809 -0.0801 0.9271
C24 C 0.18744(8) -0.0538(2) 0.89106(6)
C25 C 0.17046(9) -0.1199(2) 0.93278(7)
H19 H 0.2017 -0.1580 0.9651
C26 C 0.11109(9) -0.1306(2) 0.92800(6)
H20 H 0.1010 -0.1749 0.9567
C27 C 0.06410(8) -0.0755(2) 0.87998(6)
C28 C 0.07786(7) -0.00943(18) 0.83870(5)
H21 H 0.0458 0.0285 0.8069
C29 C 0.14004(7) 0.00297(18) 0.84305(5)
C30 C 0.10937(6) 0.12284(18) 0.74798(5)
C31 C 0.08962(6) 0.30293(18) 0.74001(5)
C32 C 0.05343(7) 0.3591(2) 0.68843(6)
H22 H 0.0416 0.2817 0.6590
C33 C 0.03497(8) 0.5264(3) 0.68028(8)
H23 H 0.0108 0.5648 0.6451
C34 C 0.05123(8) 0.6386(2) 0.72272(9)
H24 H 0.0379 0.7539 0.7168
C35 C 0.08686(7) 0.5846(2) 0.77408(8)
H25 H 0.0980 0.6627 0.8033
C36 C 0.10630(6) 0.41692(18) 0.78287(6)
H26 H 0.1310 0.3797 0.8181
C37 C 0.29031(7) 0.1551(3) 0.76654(7)
H27 H 0.2911 0.2093 0.7338
H28 H 0.3058 0.0380 0.7688
H29 H 0.3164 0.2198 0.7981
C38 C -0.04394(8) -0.0657(2) 0.83044(6)
H30 H -0.0824 -0.1006 0.8340
H31 H -0.0381 -0.1314 0.8015
H32 H -0.0458 0.0561 0.8218
O4 O 0.27130(5) 0.65222(16) 0.73505(4)
O5 O 0.49421(5) 0.40343(16) 0.62049(4)
O6 O 0.41137(5) 0.51795(14) 0.78777(4)
C20 C 0.34299(6) 0.56924(18) 0.69890(5)
C21 C 0.28206(7) 0.5817(2) 0.69260(6)
C22 C 0.23539(7) 0.5244(2) 0.64524(7)
H17 H 0.1935 0.5315 0.6415
C23 C 0.25080(8) 0.4586(2) 0.60484(7)
H18 H 0.2191 0.4199 0.5729
C24 C 0.31256(8) 0.4462(2) 0.60894(6)
C25 C 0.32954(9) 0.3801(2) 0.56722(7)
H19 H 0.2983 0.3420 0.5349
C26 C 0.38891(9) 0.3694(2) 0.57200(6)
H20 H 0.3990 0.3251 0.5433
C27 C 0.43590(8) 0.4245(2) 0.62002(6)
C28 C 0.42214(7) 0.49057(18) 0.66130(5)
H21 H 0.4542 0.5285 0.6931
C29 C 0.35996(7) 0.50297(18) 0.65695(5)
C30 C 0.39063(6) 0.62284(18) 0.75202(5)
C31 C 0.41038(6) 0.80293(18) 0.75999(5)
C32 C 0.44657(7) 0.8591(2) 0.81157(6)
H22 H 0.4584 0.7817 0.8410
C33 C 0.46503(8) 1.0264(3) 0.81972(8)
H23 H 0.4892 1.0648 0.8549
C34 C 0.44877(8) 1.1386(2) 0.77728(9)
H24 H 0.4621 1.2539 0.7832
C35 C 0.41314(7) 1.0846(2) 0.72592(8)
H25 H 0.4020 1.1627 0.6967
C36 C 0.39370(6) 0.91692(18) 0.71713(6)
H26 H 0.3690 0.8797 0.6819
C37 C 0.20969(7) 0.6551(3) 0.73346(7)
H27 H 0.2089 0.7093 0.7662
H28 H 0.1942 0.5380 0.7312
H29 H 0.1836 0.7198 0.7019
C38 C 0.54394(8) 0.4343(2) 0.66956(6)
H30 H 0.5824 0.3994 0.6660
H31 H 0.5381 0.3686 0.6985
H32 H 0.5458 0.5561 0.6782
O4 O 0.77130(5) 0.84778(16) 0.23505(4)
O5 O 0.99421(5) 1.09657(16) 0.12049(4)
O6 O 0.91137(5) 0.98205(14) 0.28777(4)
C20 C 0.84299(6) 0.93076(18) 0.19890(5)
C21 C 0.78206(7) 0.9183(2) 0.19260(6)
C22 C 0.73539(7) 0.9756(2) 0.14524(7)
H17 H 0.6935 0.9685 0.1415
C23 C 0.75080(8) 1.0414(2) 0.10484(7)
H18 H 0.7191 1.0801 0.0729
C24 C 0.81256(8) 1.0538(2) 0.10894(6)
C25 C 0.82954(9) 1.1199(2) 0.06722(7)
H19 H 0.7983 1.1580 0.0349
C26 C 0.88891(9) 1.1306(2) 0.07200(6)
H20 H 0.8990 1.1749 0.0433
C27 C 0.93590(8) 1.0755(2) 0.12002(6)
C28 C 0.92214(7) 1.00943(18) 0.16130(5)
H21 H 0.9542 0.9715 0.1931
C29 C 0.85996(7) 0.99703(18) 0.15695(5)
C30 C 0.89063(6) 0.87716(18) 0.25202(5)
C31 C 0.91038(6) 0.69707(18) 0.25999(5)
C32 C 0.94657(7) 0.6409(2) 0.31157(6)
H22 H 0.9584 0.7183 0.3410
C33 C 0.96503(8) 0.4736(3) 0.31972(8)
H23 H 0.9892 0.4352 0.3549
C34 C 0.94877(8) 0.3614(2) 0.27728(9)
H24 H 0.9621 0.2461 0.2832
C35 C 0.91314(7) 0.4154(2) 0.22592(8)
H25 H 0.9020 0.3373 0.1967
C36 C 0.89370(6) 0.58308(18) 0.21713(6)
H26 H 0.8690 0.6203 0.1819
C37 C 0.70969(7) 0.8449(3) 0.23346(7)
H27 H 0.7089 0.7907 0.2662
H28 H 0.6942 0.9620 0.2312
H29 H 0.6836 0.7802 0.2019
C38 C 1.04394(8) 1.0657(2) 0.16956(6)
H30 H 1.0824 1.1006 0.1660
H31 H 1.0381 1.1314 0.1985
H32 H 1.0458 0.9439 0.1782
O4 O 0.72870(5) 0.34778(16) 0.26495(4)
O5 O 0.50579(5) 0.59657(16) 0.37951(4)
O6 O 0.58863(5) 0.48205(14) 0.21223(4)
C20 C 0.65701(6) 0.43076(18) 0.30110(5)
C21 C 0.71794(7) 0.4183(2) 0.30740(6)
C22 C 0.76461(7) 0.4756(2) 0.35476(7)
H17 H 0.8065 0.4685 0.3585
C23 C 0.74920(8) 0.5414(2) 0.39516(7)
H18 H 0.7809 0.5801 0.4271
C24 C 0.68744(8) 0.5538(2) 0.39106(6)
C25 C 0.67046(9) 0.6199(2) 0.43278(7)
H19 H 0.7017 0.6580 0.4651
C26 C 0.61109(9) 0.6306(2) 0.42800(6)
H20 H 0.6010 0.6749 0.4567
C27 C 0.56410(8) 0.5755(2) 0.37998(6)
C28 C 0.57786(7) 0.50943(18) 0.33870(5)
H21 H 0.5458 0.4715 0.3069
C29 C 0.64004(7) 0.49703(18) 0.34305(5)
C30 C 0.60937(6) 0.37716(18) 0.24798(5)
C31 C 0.58962(6) 0.19707(18) 0.24001(5)
C32 C 0.55343(7) 0.1409(2) 0.18843(6)
H22 H 0.5416 0.2183 0.1590
C33 C 0.53497(8) -0.0264(3) 0.18028(8)
H23 H 0.5108 -0.0648 0.1451
C34 C 0.55123(8) -0.1386(2) 0.22272(9)
H24 H 0.5379 -0.2539 0.2168
C35 C 0.58686(7) -0.0846(2) 0.27408(8)
H25 H 0.5980 -0.1627 0.3033
C36 C 0.60630(6) 0.08308(18) 0.28287(6)
H26 H 0.6310 0.1203 0.3181
C37 C 0.79031(7) 0.3449(3) 0.26654(7)
H27 H 0.7911 0.2907 0.2338
H28 H 0.8058 0.4620 0.2688
H29 H 0.8164 0.2802 0.2981
C38 C 0.45606(8) 0.5657(2) 0.33044(6)
H30 H 0.4176 0.6006 0.3340
H31 H 0.4619 0.6314 0.3015
H32 H 0.4542 0.4439 0.3218
O7 O 0.03065(4) 0.71601(15) 0.02183(4)
O8 O 0.24498(5) 0.39304(15) 0.27448(4)
O9 O 0.16772(5) 0.50304(14) 0.06449(5)
C39 C 0.09947(6) 0.61155(17) 0.10299(5)
C40 C 0.04007(6) 0.65911(19) 0.07253(5)
C41 C -0.00646(7) 0.6483(2) 0.09395(6)
H33 H -0.0474 0.6806 0.0727
C42 C 0.00761(7) 0.5913(2) 0.14520(6)
H34 H -0.0240 0.5848 0.1593
C43 C 0.06762(7) 0.54153(18) 0.17787(6)
C44 C 0.08383(8) 0.4859(2) 0.23198(6)
H35 H 0.0531 0.4809 0.2472
C45 C 0.14218(8) 0.4399(2) 0.26228(6)
H36 H 0.1521 0.4049 0.2985
C46 C 0.18824(7) 0.44396(19) 0.24015(6)
C47 C 0.17515(6) 0.49750(17) 0.18847(5)
H37 H 0.2066 0.5004 0.1741
C48 C 0.11454(6) 0.54875(17) 0.15616(5)
C49 C 0.14990(6) 0.62845(18) 0.08130(5)
C50 C 0.17969(6) 0.79661(18) 0.08434(5)
C51 C 0.23651(6) 0.8059(2) 0.07907(5)
H38 H 0.2557 0.7051 0.0733
C52 C 0.26507(7) 0.9625(2) 0.08230(6)
H39 H 0.3040 0.9689 0.0790
C53 C 0.23724(8) 1.1088(2) 0.09031(7)
H40 H 0.2568 1.2158 0.0920
C54 C 0.18128(7) 1.1013(2) 0.09587(7)
H41 H 0.1624 1.2028 0.1016
C55 C 0.15267(6) 0.94555(18) 0.09310(6)
H42 H 0.1142 0.9403 0.0972
C56 C -0.02987(7) 0.7708(2) -0.01110(6)
H43 H -0.0303 0.8070 -0.0463
H44 H -0.0420 0.8666 0.0063
H45 H -0.0588 0.6763 -0.0159
C57 C 0.29362(8) 0.4032(2) 0.25505(7)
H46 H 0.3319 0.3647 0.2831
H47 H 0.2983 0.5215 0.2454
H48 H 0.2842 0.3305 0.2232
O7 O 0.46935(4) 0.21601(15) 0.47817(4)
O8 O 0.25502(5) -0.10696(15) 0.22552(4)
O9 O 0.33228(5) 0.00304(14) 0.43551(5)
C39 C 0.40053(6) 0.11155(17) 0.39701(5)
C40 C 0.45993(6) 0.15911(19) 0.42747(5)
C41 C 0.50646(7) 0.1483(2) 0.40605(6)
H33 H 0.5474 0.1806 0.4273
C42 C 0.49239(7) 0.0913(2) 0.35480(6)
H34 H 0.5240 0.0848 0.3407
C43 C 0.43238(7) 0.04153(18) 0.32213(6)
C44 C 0.41617(8) -0.0141(2) 0.26802(6)
H35 H 0.4469 -0.0191 0.2528
C45 C 0.35782(8) -0.0601(2) 0.23772(6)
H36 H 0.3479 -0.0951 0.2015
C46 C 0.31176(7) -0.05604(19) 0.25985(6)
C47 C 0.32485(6) -0.00250(17) 0.31153(5)
H37 H 0.2934 0.0004 0.3259
C48 C 0.38546(6) 0.04875(17) 0.34384(5)
C49 C 0.35010(6) 0.12845(18) 0.41870(5)
C50 C 0.32031(6) 0.29661(18) 0.41566(5)
C51 C 0.26349(6) 0.3059(2) 0.42093(5)
H38 H 0.2443 0.2051 0.4267
C52 C 0.23493(7) 0.4625(2) 0.41770(6)
H39 H 0.1960 0.4689 0.4210
C53 C 0.26276(8) 0.6088(2) 0.40969(7)
H40 H 0.2432 0.7158 0.4080
C54 C 0.31872(7) 0.6013(2) 0.40413(7)
H41 H 0.3376 0.7028 0.3984
C55 C 0.34733(6) 0.44555(18) 0.40690(6)
H42 H 0.3858 0.4403 0.4028
C56 C 0.52987(7) 0.2708(2) 0.51110(6)
H43 H 0.5303 0.3070 0.5463
H44 H 0.5420 0.3666 0.4937
H45 H 0.5588 0.1763 0.5159
C57 C 0.20638(8) -0.0968(2) 0.24495(7)
H46 H 0.1681 -0.1353 0.2169
H47 H 0.2017 0.0215 0.2546
H48 H 0.2158 -0.1695 0.2768
O7 O 0.96935(4) 0.28399(15) 0.97817(4)
O8 O 0.75502(5) 0.60696(15) 0.72552(4)
O9 O 0.83228(5) 0.49696(14) 0.93551(5)
C39 C 0.90053(6) 0.38845(17) 0.89701(5)
C40 C 0.95993(6) 0.34089(19) 0.92747(5)
C41 C 1.00646(7) 0.3517(2) 0.90605(6)
H33 H 1.0474 0.3194 0.9273
C42 C 0.99239(7) 0.4087(2) 0.85480(6)
H34 H 1.0240 0.4152 0.8407
C43 C 0.93238(7) 0.45847(18) 0.82213(6)
C44 C 0.91617(8) 0.5141(2) 0.76802(6)
H35 H 0.9469 0.5191 0.7528
C45 C 0.85782(8) 0.5601(2) 0.73772(6)
H36 H 0.8479 0.5951 0.7015
C46 C 0.81176(7) 0.55604(19) 0.75985(6)
C47 C 0.82485(6) 0.50250(17) 0.81153(5)
H37 H 0.7934 0.4996 0.8259
C48 C 0.88546(6) 0.45125(17) 0.84384(5)
C49 C 0.85010(6) 0.37155(18) 0.91870(5)
C50 C 0.82031(6) 0.20339(18) 0.91566(5)
C51 C 0.76349(6) 0.1941(2) 0.92093(5)
H38 H 0.7443 0.2949 0.9267
C52 C 0.73493(7) 0.0375(2) 0.91770(6)
H39 H 0.6960 0.0311 0.9210
C53 C 0.76276(8) -0.1088(2) 0.90969(7)
H40 H 0.7432 -0.2158 0.9080
C54 C 0.81872(7) -0.1013(2) 0.90413(7)
H41 H 0.8376 -0.2028 0.8984
C55 C 0.84733(6) 0.05445(18) 0.90690(6)
H42 H 0.8858 0.0597 0.9028
C56 C 1.02987(7) 0.2292(2) 1.01110(6)
H43 H 1.0303 0.1930 1.0463
H44 H 1.0420 0.1334 0.9937
H45 H 1.0588 0.3237 1.0159
C57 C 0.70638(8) 0.5968(2) 0.74495(7)
H46 H 0.6681 0.6353 0.7169
H47 H 0.7017 0.4785 0.7546
H48 H 0.7158 0.6695 0.7768
O7 O 0.53065(4) 0.78399(15) 0.52183(4)
O8 O 0.74498(5) 1.10696(15) 0.77448(4)
O9 O 0.66772(5) 0.99696(14) 0.56449(5)
C39 C 0.59947(6) 0.88845(17) 0.60299(5)
C40 C 0.54007(6) 0.84089(19) 0.57253(5)
C41 C 0.49354(7) 0.8517(2) 0.59395(6)
H33 H 0.4526 0.8194 0.5727
C42 C 0.50761(7) 0.9087(2) 0.64520(6)
H34 H 0.4760 0.9152 0.6593
C43 C 0.56762(7) 0.95847(18) 0.67787(6)
C44 C 0.58383(8) 1.0141(2) 0.73198(6)
H35 H 0.5531 1.0191 0.7472
C45 C 0.64218(8) 1.0601(2) 0.76228(6)
H36 H 0.6521 1.0951 0.7985
C46 C 0.68824(7) 1.05604(19) 0.74015(6)
C47 C 0.67515(6) 1.00250(17) 0.68847(5)
H37 H 0.7066 0.9996 0.6741
C48 C 0.61454(6) 0.95125(17) 0.65616(5)
C49 C 0.64990(6) 0.87155(18) 0.58130(5)
C50 C 0.67969(6) 0.70339(18) 0.58434(5)
C51 C 0.73651(6) 0.6941(2) 0.57907(5)
H38 H 0.7557 0.7949 0.5733
C52 C 0.76507(7) 0.5375(2) 0.58230(6)
H39 H 0.8040 0.5311 0.5790
C53 C 0.73724(8) 0.3912(2) 0.59031(7)
H40 H 0.7568 0.2842 0.5920
C54 C 0.68128(7) 0.3987(2) 0.59587(7)
H41 H 0.6624 0.2972 0.6016
C55 C 0.65267(6) 0.55445(18) 0.59310(6)
H42 H 0.6142 0.5597 0.5972
C56 C 0.47013(7) 0.7292(2) 0.48890(6)
H43 H 0.4697 0.6930 0.4537
H44 H 0.4580 0.6334 0.5063
H45 H 0.4412 0.8237 0.4841
C57 C 0.79362(8) 1.0968(2) 0.75505(7)
H46 H 0.8319 1.1353 0.7831
H47 H 0.7983 0.9785 0.7454
H48 H 0.7842 1.1695 0.7232

#END
