
#######################################################################
#
#                 Cambridge Crystallographic Data Centre
#                                CCDC 
#
#######################################################################
#
# If this CIF has been generated from an entry in the Cambridge 
# Structural Database, then it will include bibliographic, chemical, 
# crystal, experimental, refinement or atomic coordinate data resulting 
# from the CCDC's data processing and validation procedures.
#
#######################################################################

data_KABHON
_symmetry_cell_setting           orthorhombic
_symmetry_space_group_name_H-M   'P n m a'
_symmetry_Int_Tables_number      62
_space_group_name_Hall           '-P 2ac 2n'
loop_
_symmetry_equiv_pos_site_id
_symmetry_equiv_pos_as_xyz
1 x,y,z
2 1/2-x,-y,1/2+z
3 -x,1/2+y,-z
4 1/2+x,1/2-y,1/2-z
5 -x,-y,-z
6 1/2+x,y,1/2-z
7 x,1/2-y,z
8 1/2-x,1/2+y,1/2+z
_cell_length_a                   12.7114(10)
_cell_length_b                   7.4836(6)
_cell_length_c                   10.6854(8)
_cell_angle_alpha                90
_cell_angle_beta                 90
_cell_angle_gamma                90
_cell_volume                     1016.47
loop_
_atom_site_label
_atom_site_type_symbol
_atom_site_fract_x
_atom_site_fract_y
_atom_site_fract_z
Br1 Br 0.34117(3) 0.2500 -0.20284(3)
S1 S 0.32500(7) 0.2500 0.45990(10)
N1 N 0.5268(2) 0.2500 0.4005(2)
C1 C 0.5546(3) 0.2500 0.5338(3)
H1 H 0.4957 0.2500 0.5899
H2 H 0.6096 0.1550 0.5499
C2 C 0.6174(3) 0.2500 0.3154(4)
H3 H 0.603(4) 0.2500 0.241(5)
H4 H 0.661(5) 0.341(10) 0.336(8)
C3 C 0.4279(2) 0.2500 0.3638(3)
C4 C 0.4075(2) 0.2500 0.2260(3)
C5 C 0.3966(2) 0.0915(4) 0.1618(2)
H5 H 0.4031 -0.0162 0.2045
C6 C 0.3759(2) 0.0904(4) 0.0342(2)
H6 H 0.3687 -0.0169 -0.0087
C7 C 0.3663(2) 0.2500 -0.0272(3)
H2F H 0.6096 0.3450 0.5499
H4F H 0.661(5) 0.159(10) 0.336(8)
C5F C 0.3966(2) 0.4085(4) 0.1618(2)
H5F H 0.4031 0.5162 0.2045
C6F C 0.3759(2) 0.4096(4) 0.0342(2)
H6F H 0.3687 0.5169 -0.0087
Br1 Br 0.15883(3) 0.7500 0.29716(3)
S1 S 0.17500(7) 0.7500 0.95990(10)
N1 N -0.0268(2) 0.7500 0.9005(2)
C1 C -0.0546(3) 0.7500 1.0338(3)
H1 H 0.0043 0.7500 1.0899
H2 H -0.1096 0.8450 1.0499
C2 C -0.1174(3) 0.7500 0.8154(4)
H3 H -0.103(4) 0.7500 0.741(5)
H4 H -0.161(5) 0.659(10) 0.836(8)
C3 C 0.0721(2) 0.7500 0.8638(3)
C4 C 0.0925(2) 0.7500 0.7260(3)
C5 C 0.1034(2) 0.9085(4) 0.6618(2)
H5 H 0.0969 1.0162 0.7045
C6 C 0.1241(2) 0.9096(4) 0.5342(2)
H6 H 0.1313 1.0169 0.4913
C7 C 0.1337(2) 0.7500 0.4728(3)
H2F H -0.1096 0.6550 1.0499
H4F H -0.161(5) 0.841(10) 0.836(8)
C5F C 0.1034(2) 0.5915(4) 0.6618(2)
H5F H 0.0969 0.4838 0.7045
C6F C 0.1241(2) 0.5904(4) 0.5342(2)
H6F H 0.1313 0.4831 0.4913
Br1 Br 0.65883(3) 0.7500 1.20284(3)
S1 S 0.67500(7) 0.7500 0.54010(10)
N1 N 0.4732(2) 0.7500 0.5995(2)
C1 C 0.4454(3) 0.7500 0.4662(3)
H1 H 0.5043 0.7500 0.4101
H2 H 0.3904 0.6550 0.4501
C2 C 0.3826(3) 0.7500 0.6846(4)
H3 H 0.397(4) 0.7500 0.759(5)
H4 H 0.339(5) 0.841(10) 0.664(8)
C3 C 0.5721(2) 0.7500 0.6362(3)
C4 C 0.5925(2) 0.7500 0.7740(3)
C5 C 0.6034(2) 0.5915(4) 0.8382(2)
H5 H 0.5969 0.4838 0.7955
C6 C 0.6241(2) 0.5904(4) 0.9658(2)
H6 H 0.6313 0.4831 1.0087
C7 C 0.6337(2) 0.7500 1.0272(3)
H2F H 0.3904 0.8450 0.4501
H4F H 0.339(5) 0.659(10) 0.664(8)
C5F C 0.6034(2) 0.9085(4) 0.8382(2)
H5F H 0.5969 1.0162 0.7955
C6F C 0.6241(2) 0.9096(4) 0.9658(2)
H6F H 0.6313 1.0169 1.0087
Br1 Br 0.84117(3) 0.2500 0.70284(3)
S1 S 0.82500(7) 0.2500 0.04010(10)
N1 N 1.0268(2) 0.2500 0.0995(2)
C1 C 1.0546(3) 0.2500 -0.0338(3)
H1 H 0.9957 0.2500 -0.0899
H2 H 1.1096 0.3450 -0.0499
C2 C 1.1174(3) 0.2500 0.1846(4)
H3 H 1.103(4) 0.2500 0.259(5)
H4 H 1.161(5) 0.159(10) 0.164(8)
C3 C 0.9279(2) 0.2500 0.1362(3)
C4 C 0.9075(2) 0.2500 0.2740(3)
C5 C 0.8966(2) 0.4085(4) 0.3382(2)
H5 H 0.9031 0.5162 0.2955
C6 C 0.8759(2) 0.4096(4) 0.4658(2)
H6 H 0.8687 0.5169 0.5087
C7 C 0.8663(2) 0.2500 0.5272(3)
H2F H 1.1096 0.1550 -0.0499
H4F H 1.161(5) 0.341(10) 0.164(8)
C5F C 0.8966(2) 0.0915(4) 0.3382(2)
H5F H 0.9031 -0.0162 0.2955
C6F C 0.8759(2) 0.0904(4) 0.4658(2)
H6F H 0.8687 -0.0169 0.5087

#END
