
#######################################################################
#
#                 Cambridge Crystallographic Data Centre
#                                CCDC 
#
#######################################################################
#
# If this CIF has been generated from an entry in the Cambridge 
# Structural Database, then it will include bibliographic, chemical, 
# crystal, experimental, refinement or atomic coordinate data resulting 
# from the CCDC's data processing and validation procedures.
#
#######################################################################

data_KABJEE
_symmetry_cell_setting           orthorhombic
_symmetry_space_group_name_H-M   'P n a 21'
_symmetry_Int_Tables_number      33
_space_group_name_Hall           'P 2c -2n'
loop_
_symmetry_equiv_pos_site_id
_symmetry_equiv_pos_as_xyz
1 x,y,z
2 -x,-y,1/2+z
3 1/2-x,1/2+y,1/2+z
4 1/2+x,1/2-y,z
_cell_length_a                   22.884(2)
_cell_length_b                   3.9402(4)
_cell_length_c                   13.5696(13)
_cell_angle_alpha                90
_cell_angle_beta                 90
_cell_angle_gamma                90
_cell_volume                     1223.54
loop_
_atom_site_label
_atom_site_type_symbol
_atom_site_fract_x
_atom_site_fract_y
_atom_site_fract_z
O1 O 0.51893(16) 0.1333(11) 0.1270(2)
O2 O 0.60847(16) 0.3309(12) 0.1082(3)
O3 O 0.28294(13) -0.2221(9) 0.0939(2)
O4 O 0.22350(12) -0.5110(9) 0.2031(3)
N1 N 0.47183(15) 0.1225(8) 0.2968(3)
C1 C 0.5677(2) 0.2642(12) 0.1623(3)
C2 C 0.56974(18) 0.3361(10) 0.2714(3)
C3 C 0.62059(19) 0.4809(11) 0.3079(4)
C4 C 0.6268(2) 0.5551(12) 0.4064(4)
C5 C 0.5811(2) 0.4898(11) 0.4697(4)
C6 C 0.53019(19) 0.3494(11) 0.4360(3)
C7 C 0.52366(16) 0.2630(10) 0.3363(3)
C8 C 0.43348(17) -0.0263(9) 0.3505(3)
C9 C 0.37893(17) -0.1565(9) 0.3122(3)
C10 C 0.36230(17) -0.1111(11) 0.2122(3)
C11 C 0.30981(17) -0.2372(11) 0.1848(3)
C12 C 0.27312(17) -0.4075(11) 0.2501(3)
C13 C 0.28753(18) -0.4521(11) 0.3468(4)
C14 C 0.34183(19) -0.3234(11) 0.3770(3)
C15 C 0.2282(2) -0.3962(14) 0.1039(4)
H1 H 0.491(3) 0.140(15) 0.166(5)
H2 H 0.65112 0.52880 0.26487
H3 H 0.66140 0.64831 0.43000
H4 H 0.58489 0.54176 0.53624
H5 H 0.49957 0.31078 0.47961
H6 H 0.44114 -0.05185 0.41734
H7 H 0.38644 0.00051 0.16763
H8 H 0.26261 -0.56229 0.39043
H9 H 0.35328 -0.35079 0.44231
H10 H 0.19620 -0.24411 0.08841
H11 H 0.22671 -0.58749 0.05902
O1 O 0.48107(16) 0.8667(11) 0.6270(2)
O2 O 0.39153(16) 0.6691(12) 0.6082(3)
O3 O 0.71706(13) 1.2221(9) 0.5939(2)
O4 O 0.77650(12) 1.5110(9) 0.7031(3)
N1 N 0.52817(15) 0.8775(8) 0.7968(3)
C1 C 0.4323(2) 0.7358(12) 0.6623(3)
C2 C 0.43026(18) 0.6639(10) 0.7714(3)
C3 C 0.37941(19) 0.5191(11) 0.8079(4)
C4 C 0.3732(2) 0.4449(12) 0.9064(4)
C5 C 0.4189(2) 0.5102(11) 0.9697(4)
C6 C 0.46981(19) 0.6506(11) 0.9360(3)
C7 C 0.47634(16) 0.7370(10) 0.8363(3)
C8 C 0.56652(17) 1.0263(9) 0.8505(3)
C9 C 0.62107(17) 1.1565(9) 0.8122(3)
C10 C 0.63770(17) 1.1111(11) 0.7122(3)
C11 C 0.69019(17) 1.2372(11) 0.6848(3)
C12 C 0.72688(17) 1.4075(11) 0.7501(3)
C13 C 0.71247(18) 1.4521(11) 0.8468(4)
C14 C 0.65817(19) 1.3234(11) 0.8770(3)
C15 C 0.7718(2) 1.3962(14) 0.6039(4)
H1 H 0.509(3) 0.860(15) 0.666(5)
H2 H 0.34888 0.47120 0.76487
H3 H 0.33860 0.35169 0.93000
H4 H 0.41511 0.45824 1.03624
H5 H 0.50043 0.68922 0.97961
H6 H 0.55886 1.05185 0.91734
H7 H 0.61356 0.99949 0.66763
H8 H 0.73739 1.56229 0.89043
H9 H 0.64672 1.35079 0.94231
H10 H 0.80380 1.24411 0.58841
H11 H 0.77329 1.58749 0.55902
O1 O -0.01893(16) 0.6333(11) 0.6270(2)
O2 O -0.10847(16) 0.8309(12) 0.6082(3)
O3 O 0.21706(13) 0.2779(9) 0.5939(2)
O4 O 0.27650(12) -0.0110(9) 0.7031(3)
N1 N 0.02817(15) 0.6225(8) 0.7968(3)
C1 C -0.0677(2) 0.7642(12) 0.6623(3)
C2 C -0.06974(18) 0.8361(10) 0.7714(3)
C3 C -0.12059(19) 0.9809(11) 0.8079(4)
C4 C -0.1268(2) 1.0551(12) 0.9064(4)
C5 C -0.0811(2) 0.9898(11) 0.9697(4)
C6 C -0.03019(19) 0.8494(11) 0.9360(3)
C7 C -0.02366(16) 0.7630(10) 0.8363(3)
C8 C 0.06652(17) 0.4737(9) 0.8505(3)
C9 C 0.12107(17) 0.3435(9) 0.8122(3)
C10 C 0.13770(17) 0.3889(11) 0.7122(3)
C11 C 0.19019(17) 0.2628(11) 0.6848(3)
C12 C 0.22688(17) 0.0925(11) 0.7501(3)
C13 C 0.21247(18) 0.0479(11) 0.8468(4)
C14 C 0.15817(19) 0.1766(11) 0.8770(3)
C15 C 0.2718(2) 0.1038(14) 0.6039(4)
H1 H 0.009(3) 0.640(15) 0.666(5)
H2 H -0.15112 1.02880 0.76487
H3 H -0.16140 1.14831 0.93000
H4 H -0.08489 1.04176 1.03624
H5 H 0.00043 0.81078 0.97961
H6 H 0.05886 0.44815 0.91734
H7 H 0.11356 0.50051 0.66763
H8 H 0.23739 -0.06229 0.89043
H9 H 0.14672 0.14921 0.94231
H10 H 0.30380 0.25589 0.58841
H11 H 0.27329 -0.08749 0.55902
O1 O 1.01893(16) 0.3667(11) 0.1270(2)
O2 O 1.10847(16) 0.1691(12) 0.1082(3)
O3 O 0.78294(13) 0.7221(9) 0.0939(2)
O4 O 0.72350(12) 1.0110(9) 0.2031(3)
N1 N 0.97183(15) 0.3775(8) 0.2968(3)
C1 C 1.0677(2) 0.2358(12) 0.1623(3)
C2 C 1.06974(18) 0.1639(10) 0.2714(3)
C3 C 1.12059(19) 0.0191(11) 0.3079(4)
C4 C 1.1268(2) -0.0551(12) 0.4064(4)
C5 C 1.0811(2) 0.0102(11) 0.4697(4)
C6 C 1.03019(19) 0.1506(11) 0.4360(3)
C7 C 1.02366(16) 0.2370(10) 0.3363(3)
C8 C 0.93348(17) 0.5263(9) 0.3505(3)
C9 C 0.87893(17) 0.6565(9) 0.3122(3)
C10 C 0.86230(17) 0.6111(11) 0.2122(3)
C11 C 0.80981(17) 0.7372(11) 0.1848(3)
C12 C 0.77312(17) 0.9075(11) 0.2501(3)
C13 C 0.78753(18) 0.9521(11) 0.3468(4)
C14 C 0.84183(19) 0.8234(11) 0.3770(3)
C15 C 0.7282(2) 0.8962(14) 0.1039(4)
H1 H 0.991(3) 0.360(15) 0.166(5)
H2 H 1.15112 -0.02880 0.26487
H3 H 1.16140 -0.14831 0.43000
H4 H 1.08489 -0.04176 0.53624
H5 H 0.99957 0.18922 0.47961
H6 H 0.94114 0.55185 0.41734
H7 H 0.88644 0.49949 0.16763
H8 H 0.76261 1.06229 0.39043
H9 H 0.85328 0.85079 0.44231
H10 H 0.69620 0.74411 0.08841
H11 H 0.72671 1.08749 0.05902

#END
