./KABKAB_from_POSCAR.cif_generated_by_CrystalShift
_symmetry_cell_setting triclinic
_symmetry_space_group_name_H-M 'P 1'
loop_
_symmetry_equiv_pos_site_id
_symmetry_equiv_pos_as_xyz
1 x,y,z
_cell_length_a 7.354300
_cell_length_b 6.261700
_cell_length_c 31.387200
_cell_angle_alpha 90.000000
_cell_angle_beta 90.000000
_cell_angle_gamma 90.000000
_cell_volume 1445.393752
loop_
_atom_site_label
_atom_site_type_symbol
_atom_site_fract_x
_atom_site_fract_y
_atom_site_fract_z
H1 H 0.299000 -0.250300 1.204300
H2 H 0.474600 -0.382400 1.194000
H3 H 0.577700 0.547200 1.040200
H4 H 0.134100 -0.745700 0.131000
H5 H 0.423100 0.172900 1.013300
H6 H 0.138600 -0.601200 0.063600
H7 H 0.650100 0.260500 1.171600
H8 H 0.641100 0.405600 1.104600
H9 H -0.141100 -0.094400 0.104600
H10 H 0.361400 -0.101200 1.063600
H11 H -0.150100 -0.239500 0.171600
H12 H 0.365900 -0.245700 1.131000
H13 H 0.076900 -0.327100 0.013300
H14 H 0.701000 1.250300 0.795700
H15 H -0.077700 0.047200 0.040200
H16 H 0.557700 1.295000 0.759800
H17 H 0.025400 -0.882400 0.194000
H18 H 0.057700 -0.795000 0.240200
H19 H 0.201000 -0.750300 0.204300
H20 H 0.525400 1.382400 0.806000
H21 H 0.422300 0.452800 0.959800
H22 H 0.576900 0.827100 0.986700
H23 H -0.134100 0.745700 -0.131000
H24 H 0.349900 0.739500 0.828400
H25 H -0.138600 0.601200 -0.063600
H26 H 0.358900 0.594400 0.895400
H27 H 0.638600 1.101200 0.936400
H28 H 0.141100 0.094400 -0.104600
H29 H 0.634100 1.245700 0.869000
H30 H 0.150100 0.239500 -0.171600
H31 H 0.299000 -0.250300 0.204300
H32 H -0.076900 0.327100 -0.013300
H33 H 0.442300 -0.295000 0.240200
H34 H 0.077700 -0.047200 -0.040200
H35 H 0.474600 -0.382400 0.194000
H36 H -0.025400 0.882400 -0.194000
H37 H -0.057700 0.795000 -0.240200
H38 H -0.201000 0.750300 -0.204300
H39 H 0.577700 0.547200 0.040200
H40 H 0.423100 0.172900 0.013300
H41 H 0.650100 0.260500 0.171600
H42 H 0.134100 -0.745700 1.131000
H43 H 0.641100 0.405600 0.104600
H44 H 0.138600 -0.601200 1.063600
H45 H 0.361400 -0.101200 0.063600
H46 H 0.365900 -0.245700 0.131000
H47 H -0.141100 -0.094400 1.104600
H48 H 0.701000 1.250300 -0.204300
H49 H -0.150100 -0.239500 1.171600
H50 H 0.557700 1.295000 -0.240200
H51 H 0.076900 -0.327100 1.013300
H52 H 0.525400 1.382400 -0.194000
H53 H -0.077700 0.047200 1.040200
H54 H 0.422300 0.452800 -0.040200
H55 H 0.025400 -0.882400 1.194000
H56 H 0.057700 -0.795000 1.240200
H57 H 0.201000 -0.750300 1.204300
H58 H 0.576900 0.827100 -0.013300
H59 H 0.349900 0.739500 -0.171600
H60 H 0.358900 0.594400 -0.104600
H61 H -0.134100 0.745700 0.869000
H62 H 0.638600 1.101200 -0.063600
H63 H -0.138600 0.601200 0.936400
H64 H 0.634100 1.245700 -0.131000
H65 H 1.201000 1.250300 0.704300
H66 H 0.141100 0.094400 0.895400
H67 H 1.057700 1.295000 0.740200
H68 H 0.150100 0.239500 0.828400
H69 H 1.025400 1.382400 0.694000
H70 H -0.076900 0.327100 0.986700
H71 H 0.922300 0.452800 0.540200
H72 H 0.077700 -0.047200 0.959800
H73 H 1.076900 0.827100 0.513300
H74 H -0.025400 0.882400 0.806000
H75 H -0.057700 0.795000 0.759800
H76 H -0.201000 0.750300 0.795700
H77 H 0.849900 0.739500 0.671600
H78 H 0.858900 0.594400 0.604600
H79 H 1.138600 1.101200 0.563600
H80 H 0.134100 0.254300 0.131000
H81 H 1.134100 1.245700 0.631000
H82 H 0.138600 0.398800 0.063600
H83 H 0.799000 -0.250300 0.295700
H84 H 0.942300 -0.295000 0.259800
H85 H -0.141100 0.905600 0.104600
H86 H 0.974600 -0.382400 0.306000
H87 H -0.150100 0.760500 0.171600
H88 H 1.077700 0.547200 0.459800
H89 H 0.076900 0.672900 0.013300
H90 H 0.923100 0.172900 0.486700
H91 H -0.077700 1.047200 0.040200
H92 H 1.150100 0.260500 0.328400
H93 H 0.025400 0.117600 0.194000
H94 H 0.057700 0.205000 0.240200
H95 H 0.201000 0.249700 0.204300
H96 H 1.141100 0.405600 0.395400
H97 H 0.861400 -0.101200 0.436400
H98 H 0.865900 -0.245700 0.369000
H99 H -0.134100 1.745700 -0.131000
H100 H 0.201000 1.250300 0.704300
H101 H -0.138600 1.601200 -0.063600
H102 H 0.057700 1.295000 0.740200
H103 H 0.025400 1.382400 0.694000
H104 H 0.141100 1.094400 -0.104600
H105 H -0.077700 0.452800 0.540200
H106 H 0.150100 1.239500 -0.171600
H107 H 0.076900 0.827100 0.513300
H108 H -0.076900 1.327100 -0.013300
H109 H -0.150100 0.739500 0.671600
H110 H 0.077700 0.952800 -0.040200
H111 H -0.141100 0.594400 0.604600
H112 H -0.025400 1.882400 -0.194000
H113 H -0.057700 1.795000 -0.240200
H114 H -0.201000 1.750300 -0.204300
H115 H 0.138600 1.101200 0.563600
H116 H 0.134100 1.245700 0.631000
H117 H -0.201000 -0.250300 0.295700
H118 H 0.134100 0.254300 1.131000
H119 H -0.057700 -0.295000 0.259800
H120 H 0.138600 0.398800 1.063600
H121 H -0.025400 -0.382400 0.306000
H122 H 0.077700 0.547200 0.459800
H123 H -0.141100 0.905600 1.104600
H124 H -0.076900 0.172900 0.486700
H125 H -0.150100 0.760500 1.171600
H126 H 0.150100 0.260500 0.328400
H127 H 0.076900 0.672900 1.013300
H128 H 0.141100 0.405600 0.395400
H129 H -0.077700 1.047200 1.040200
H130 H -0.138600 -0.101200 0.436400
H131 H 0.025400 0.117600 1.194000
H132 H 0.057700 0.205000 1.240200
H133 H 0.201000 0.249700 1.204300
H134 H -0.134100 -0.245700 0.369000
H135 H 0.701000 0.249700 0.295700
H136 H 0.557700 0.205000 0.259800
H137 H -0.134100 1.745700 0.869000
H138 H 0.525400 0.117600 0.306000
H139 H -0.138600 1.601200 0.936400
H140 H 0.422300 1.047200 0.459800
H141 H 0.576900 0.672900 0.486700
H142 H 0.141100 1.094400 0.895400
H143 H 0.349900 0.760500 0.328400
H144 H 0.150100 1.239500 0.828400
H145 H 0.358900 0.905600 0.395400
H146 H -0.076900 1.327100 0.986700
H147 H 0.638600 0.398800 0.436400
H148 H 0.077700 0.952800 0.959800
H149 H 0.634100 0.254300 0.369000
H150 H -0.025400 1.882400 0.806000
H151 H -0.057700 1.795000 0.759800
H152 H -0.201000 1.750300 0.795700
H153 H 0.299000 1.750300 0.704300
H154 H 0.442300 1.795000 0.740200
H155 H 0.474600 1.882400 0.694000
H156 H 1.134100 -0.745700 0.131000
H157 H 0.577700 0.952800 0.540200
H158 H 1.138600 -0.601200 0.063600
H159 H 0.423100 1.327100 0.513300
H160 H 0.650100 1.239500 0.671600
H161 H 0.858900 -0.094400 0.104600
H162 H 0.641100 1.094400 0.604600
H163 H 0.849900 -0.239500 0.171600
H164 H 0.361400 1.601200 0.563600
H165 H 1.076900 -0.327100 0.013300
H166 H 0.365900 1.745700 0.631000
H167 H 0.922300 0.047200 0.040200
H168 H 0.701000 -0.750300 0.295700
H169 H 1.025400 -0.882400 0.194000
H170 H 1.057700 -0.795000 0.240200
H171 H 1.201000 -0.750300 0.204300
H172 H 0.557700 -0.795000 0.259800
H173 H 0.525400 -0.882400 0.306000
H174 H 0.422300 0.047200 0.459800
H175 H 0.865900 0.745700 -0.131000
H176 H 0.576900 -0.327100 0.486700
H177 H 0.861400 0.601200 -0.063600
H178 H 0.349900 -0.239500 0.328400
H179 H 0.358900 -0.094400 0.395400
H180 H 1.141100 0.094400 -0.104600
H181 H 0.638600 -0.601200 0.436400
H182 H 1.150100 0.239500 -0.171600
H183 H 0.634100 -0.745700 0.369000
H184 H 0.923100 0.327100 -0.013300
H185 H 0.299000 0.750300 0.704300
H186 H 1.077700 -0.047200 -0.040200
H187 H 0.442300 0.795000 0.740200
H188 H 0.974600 0.882400 -0.194000
H189 H 0.942300 0.795000 -0.240200
H190 H 0.799000 0.750300 -0.204300
H191 H 0.474600 0.882400 0.694000
H192 H 0.577700 -0.047200 0.540200
H193 H 0.423100 0.327100 0.513300
H194 H 1.134100 -0.745700 1.131000
H195 H 0.650100 0.239500 0.671600
H196 H 1.138600 -0.601200 1.063600
H197 H 0.641100 0.094400 0.604600
H198 H 0.361400 0.601200 0.563600
H199 H 0.858900 -0.094400 1.104600
H200 H 0.365900 0.745700 0.631000
H201 H 0.849900 -0.239500 1.171600
H202 H 0.799000 1.750300 0.795700
H203 H 1.076900 -0.327100 1.013300
H204 H 0.942300 1.795000 0.759800
H205 H 0.922300 0.047200 1.040200
H206 H 0.974600 1.882400 0.806000
H207 H 1.025400 -0.882400 1.194000
H208 H 1.057700 -0.795000 1.240200
H209 H 1.201000 -0.750300 1.204300
H210 H 1.077700 0.952800 0.959800
H211 H 0.923100 1.327100 0.986700
H212 H 1.150100 1.239500 0.828400
H213 H 0.865900 0.745700 0.869000
H214 H 1.141100 1.094400 0.895400
H215 H 0.861400 0.601200 0.936400
H216 H 0.861400 1.601200 0.936400
H217 H 0.865900 1.745700 0.869000
H218 H 1.141100 0.094400 0.895400
H219 H 1.201000 0.249700 1.204300
H220 H 1.150100 0.239500 0.828400
H221 H 1.057700 0.205000 1.240200
H222 H 0.923100 0.327100 0.986700
H223 H 1.025400 0.117600 1.194000
H224 H 1.077700 -0.047200 0.959800
H225 H 0.922300 1.047200 1.040200
H226 H 0.974600 0.882400 0.806000
H227 H 0.942300 0.795000 0.759800
H228 H 0.799000 0.750300 0.795700
H229 H 1.076900 0.672900 1.013300
H230 H 0.849900 0.760500 1.171600
H231 H 0.858900 0.905600 1.104600
H232 H 1.134100 0.254300 0.131000
H233 H 1.138600 0.398800 1.063600
H234 H 1.138600 0.398800 0.063600
H235 H 1.134100 0.254300 1.131000
H236 H 0.799000 1.750300 -0.204300
H237 H 0.858900 0.905600 0.104600
H238 H 0.942300 1.795000 -0.240200
H239 H 0.849900 0.760500 0.171600
H240 H 0.974600 1.882400 -0.194000
H241 H 1.076900 0.672900 0.013300
H242 H 1.077700 0.952800 -0.040200
H243 H 0.922300 1.047200 0.040200
H244 H 0.923100 1.327100 -0.013300
H245 H 1.025400 0.117600 0.194000
H246 H 1.057700 0.205000 0.240200
H247 H 1.201000 0.249700 0.204300
H248 H 1.150100 1.239500 -0.171600
H249 H 1.141100 1.094400 -0.104600
H250 H 0.861400 1.601200 -0.063600
H251 H 0.865900 1.745700 -0.131000
H252 H 0.442300 -0.295000 1.240200
C253 C 0.920920 1.614500 -0.125800
C254 C 0.995780 1.329300 -0.076230
C255 C 1.084650 1.224800 -0.109630
C256 C 1.006670 1.505600 -0.158180
C257 C 1.090020 1.311600 -0.149800
C258 C -0.006670 -0.505600 0.158180
C259 C 0.974060 1.238000 -0.033820
C260 C 1.073800 0.233900 0.210390
C261 C 1.018630 1.041600 -0.020860
C262 C 0.981370 0.958400 0.020860
C263 C 0.926200 1.766100 -0.210390
C264 C 1.025940 0.762000 0.033820
C265 C 0.909980 0.688400 0.149800
C266 C 0.915350 0.775200 0.109630
C267 C 0.426200 -0.266100 1.210390
C268 C 0.993330 0.494400 1.158180
C269 C 1.079080 0.385500 1.125800
C270 C 1.004220 0.670700 0.076230
C271 C 1.082110 0.474000 1.085470
C272 C 1.082110 0.474000 0.085470
C273 C 1.004220 0.670700 1.076230
C274 C 0.915350 0.775200 1.109630
C275 C 1.079080 0.385500 0.125800
C276 C 0.909980 0.688400 1.149800
C277 C 0.993330 0.494400 0.158180
C278 C 1.025940 0.762000 1.033820
C279 C 0.079080 -0.614500 0.125800
C280 C 0.981370 0.958400 1.020860
C281 C 0.926200 0.766100 0.789610
C282 C 1.073800 0.233900 1.210390
C283 C 1.018630 0.041600 0.979140
C284 C 0.974060 0.238000 0.966180
C285 C 1.090020 0.311600 0.850200
C286 C 0.518630 0.458400 1.020860
C287 C 1.006670 1.505600 0.841820
C288 C 0.920920 1.614500 0.874200
C289 C 1.084650 0.224800 0.890370
C290 C 0.917890 1.526000 0.914530
C291 C 0.995780 0.329300 0.923770
C292 C 0.995780 1.329300 0.923770
C293 C 1.084650 1.224800 0.890370
C294 C 0.917890 0.526000 0.914530
C295 C 1.090020 1.311600 0.850200
C296 C 0.920920 0.614500 0.874200
C297 C 0.974060 1.238000 0.966180
C298 C 1.006670 0.505600 0.841820
C299 C 1.018630 1.041600 0.979140
C300 C 0.082110 -0.526000 0.085470
C301 C 0.926200 1.766100 0.789610
C302 C 1.073800 -0.766100 1.210390
C303 C 0.981370 -0.041600 1.020860
C304 C 1.025940 -0.238000 1.033820
C305 C 0.474060 0.262000 1.033820
C306 C 0.506670 0.505600 0.658180
C307 C 0.420920 0.614500 0.625800
C308 C 0.909980 -0.311600 1.149800
C309 C 0.417890 0.526000 0.585470
C310 C 0.915350 -0.224800 1.109630
C311 C 0.495780 0.329300 0.576230
C312 C 0.584650 0.224800 0.609630
C313 C 1.004220 -0.329300 1.076230
C314 C 0.590020 0.311600 0.649800
C315 C 1.082110 -0.526000 1.085470
C316 C 0.474060 0.238000 0.533820
C317 C 1.079080 -0.614500 1.125800
C318 C 0.518630 0.041600 0.520860
C319 C 0.993330 -0.505600 1.158180
C320 C 0.426200 0.766100 0.710390
C321 C 0.004220 -0.329300 0.076230
C322 C 0.926200 0.766100 -0.210390
C323 C 1.018630 0.041600 -0.020860
C324 C 0.590020 0.188400 1.149800
C325 C 0.493330 -0.505600 0.341820
C326 C 0.579080 -0.614500 0.374200
C327 C 0.974060 0.238000 -0.033820
C328 C 0.582110 -0.526000 0.414530
C329 C 1.090020 0.311600 -0.149800
C330 C 0.504220 -0.329300 0.423770
C331 C 0.415350 -0.224800 0.390370
C332 C 1.084650 0.224800 -0.109630
C333 C 0.409980 -0.311600 0.350200
C334 C 0.995780 0.329300 -0.076230
C335 C 0.525940 -0.238000 0.466180
C336 C 0.917890 0.526000 -0.085470
C337 C 0.481370 -0.041600 0.479140
C338 C 0.920920 0.614500 -0.125800
C339 C 0.573800 -0.766100 0.289610
C340 C 1.006670 0.505600 -0.158180
C341 C -0.084650 -0.224800 0.109630
C342 C 1.073800 -0.766100 0.210390
C343 C 0.584650 0.275200 1.109630
C344 C 0.506670 1.505600 0.658180
C345 C 0.420920 1.614500 0.625800
C346 C 0.981370 -0.041600 0.020860
C347 C 0.417890 1.526000 0.585470
C348 C 1.025940 -0.238000 0.033820
C349 C 0.495780 1.329300 0.576230
C350 C 0.584650 1.224800 0.609630
C351 C 0.909980 -0.311600 0.149800
C352 C 0.590020 1.311600 0.649800
C353 C 0.915350 -0.224800 0.109630
C354 C 0.474060 1.238000 0.533820
C355 C 1.004220 -0.329300 0.076230
C356 C 0.518630 1.041600 0.520860
C357 C 1.082110 -0.526000 0.085470
C358 C 0.426200 1.766100 0.710390
C359 C 1.079080 -0.614500 0.125800
C360 C 0.993330 -0.505600 0.158180
C361 C 0.495780 0.170700 1.076230
C362 C -0.090020 -0.311600 0.149800
C363 C 0.493330 0.494400 0.341820
C364 C 0.579080 0.385500 0.374200
C365 C -0.073800 1.766100 0.789610
C366 C 0.582110 0.474000 0.414530
C367 C 0.018630 1.041600 0.979140
C368 C 0.504220 0.670700 0.423770
C369 C 0.415350 0.775200 0.390370
C370 C -0.025940 1.238000 0.966180
C371 C 0.409980 0.688400 0.350200
C372 C 0.090020 1.311600 0.850200
C373 C 0.525940 0.762000 0.466180
C374 C 0.084650 1.224800 0.890370
C375 C 0.481370 0.958400 0.479140
C376 C -0.004220 1.329300 0.923770
C377 C 0.573800 0.233900 0.289610
C378 C -0.082110 1.526000 0.914530
C379 C -0.079080 1.614500 0.874200
C380 C 0.006670 1.505600 0.841820
C381 C 0.417890 -0.026000 1.085470
C382 C 0.006670 -0.005600 0.341820
C383 C -0.079080 -0.114500 0.374200
C384 C 0.025940 -0.238000 0.033820
C385 C -0.082110 -0.026000 0.414530
C386 C 0.073800 0.233900 1.210390
C387 C -0.004220 0.170700 0.423770
C388 C 0.084650 0.275200 0.390370
C389 C -0.018630 0.958400 1.020860
C390 C 0.090020 0.188400 0.350200
C391 C 0.025940 0.762000 1.033820
C392 C -0.025940 0.262000 0.466180
C393 C -0.090020 0.688400 1.149800
C394 C 0.018630 0.458400 0.479140
C395 C -0.084650 0.775200 1.109630
C396 C -0.073800 -0.266100 0.289610
C397 C 0.004220 0.670700 1.076230
C398 C 0.082110 0.474000 1.085470
C399 C 0.079080 0.385500 1.125800
C400 C 0.420920 -0.114500 1.125800
C401 C -0.006670 1.005600 0.658180
C402 C 0.079080 1.114500 0.625800
C403 C -0.006670 0.494400 1.158180
C404 C 0.082110 1.026000 0.585470
C405 C 0.506670 -0.005600 1.158180
C406 C 0.004220 0.829300 0.576230
C407 C -0.084650 0.724800 0.609630
C408 C -0.073800 1.766100 -0.210390
C409 C -0.090020 0.811600 0.649800
C410 C 0.018630 1.041600 -0.020860
C411 C 0.025940 0.738000 0.533820
C412 C -0.025940 1.238000 -0.033820
C413 C -0.018630 0.541600 0.520860
C414 C 0.090020 1.311600 -0.149800
C415 C 0.073800 1.266100 0.710390
C416 C 0.084650 1.224800 -0.109630
C417 C -0.004220 1.329300 -0.076230
C418 C -0.082110 1.526000 -0.085470
C419 C -0.018630 -0.041600 0.020860
C420 C 1.006670 -0.005600 0.341820
C421 C 0.920920 -0.114500 0.374200
C422 C -0.079080 1.614500 -0.125800
C423 C 0.917890 -0.026000 0.414530
C424 C 0.006670 1.505600 -0.158180
C425 C 0.995780 0.170700 0.423770
C426 C 1.084650 0.275200 0.390370
C427 C 0.073800 -0.766100 0.210390
C428 C 1.090020 0.188400 0.350200
C429 C 0.073800 0.233900 0.210390
C430 C 0.974060 0.262000 0.466180
C431 C -0.018630 0.958400 0.020860
C432 C 1.018630 0.458400 0.479140
C433 C 0.025940 0.762000 0.033820
C434 C 0.926200 -0.266100 0.289610
C435 C -0.090020 0.688400 0.149800
C436 C -0.084650 0.775200 0.109630
C437 C 0.004220 0.670700 0.076230
C438 C 0.573800 1.266100 0.789610
C439 C 0.993330 1.005600 0.658180
C440 C 1.079080 1.114500 0.625800
C441 C 0.082110 0.474000 0.085470
C442 C 1.082110 1.026000 0.585470
C443 C 0.079080 0.385500 0.125800
C444 C 1.004220 0.829300 0.576230
C445 C 0.915350 0.724800 0.609630
C446 C -0.006670 0.494400 0.158180
C447 C 0.909980 0.811600 0.649800
C448 C 0.006670 0.505600 -0.158180
C449 C 1.025940 0.738000 0.533820
C450 C -0.073800 0.766100 0.789610
C451 C 0.981370 0.541600 0.520860
C452 C 0.018630 0.041600 0.979140
C453 C 1.073800 1.266100 0.710390
C454 C -0.025940 0.238000 0.966180
C455 C 0.090020 0.311600 0.850200
C456 C 0.084650 0.224800 0.890370
C457 C 0.481370 0.541600 0.979140
C458 C 0.493330 1.005600 -0.158180
C459 C 0.579080 1.114500 -0.125800
C460 C -0.004220 0.329300 0.923770
C461 C 0.582110 1.026000 -0.085470
C462 C -0.082110 0.526000 0.914530
C463 C 0.504220 0.829300 -0.076230
C464 C 0.415350 0.724800 -0.109630
C465 C -0.079080 0.614500 0.874200
C466 C 0.409980 0.811600 -0.149800
C467 C 0.006670 0.505600 0.841820
C468 C 0.525940 0.738000 -0.033820
C469 C -0.079080 0.614500 -0.125800
C470 C 0.481370 0.541600 -0.020860
C471 C 0.073800 -0.766100 1.210390
C472 C 0.573800 1.266100 -0.210390
C473 C -0.018630 -0.041600 1.020860
C474 C 0.025940 -0.238000 1.033820
C475 C -0.090020 -0.311600 1.149800
C476 C 0.525940 0.738000 0.966180
C477 C 0.506670 -0.005600 0.158180
C478 C 0.420920 -0.114500 0.125800
C479 C -0.084650 -0.224800 1.109630
C480 C 0.417890 -0.026000 0.085470
C481 C 0.004220 -0.329300 1.076230
C482 C 0.495780 0.170700 0.076230
C483 C 0.584650 0.275200 0.109630
C484 C 0.082110 -0.526000 1.085470
C485 C 0.590020 0.188400 0.149800
C486 C 0.079080 -0.614500 1.125800
C487 C 0.474060 0.262000 0.033820
C488 C -0.006670 -0.505600 1.158180
C489 C 0.518630 0.458400 0.020860
C490 C -0.082110 0.526000 -0.085470
C491 C 0.426200 -0.266100 0.210390
C492 C -0.073800 0.766100 -0.210390
C493 C 0.018630 0.041600 -0.020860
C494 C -0.025940 0.238000 -0.033820
C495 C 0.409980 0.811600 0.850200
C496 C 0.493330 1.005600 0.841820
C497 C 0.579080 1.114500 0.874200
C498 C 0.090020 0.311600 -0.149800
C499 C 0.582110 1.026000 0.914530
C500 C 0.084650 0.224800 -0.109630
C501 C 0.504220 0.829300 0.923770
C502 C 0.415350 0.724800 0.890370
C503 C -0.004220 0.329300 -0.076230
C504 C 0.917890 1.526000 -0.085470
O505 O -0.018840 -0.574910 1.199550
O506 O 0.518840 -0.074910 0.199550
O507 O 0.018840 0.574910 0.800450
O508 O 0.481160 1.074910 -0.199550
O509 O -0.018840 0.425090 0.199550
O510 O 0.981160 1.074910 0.699550
O511 O 0.018840 0.574910 -0.199550
O512 O 0.018840 1.574910 -0.199550
O513 O 1.018840 -0.074910 0.300450
O514 O 0.518840 -0.074910 1.199550
O515 O -0.018840 0.425090 1.199550
O516 O -0.018840 1.074910 0.699550
O517 O 0.018840 1.574910 0.800450
O518 O 0.018840 -0.074910 0.300450
O519 O 0.481160 0.425090 0.300450
O520 O 0.981160 -0.574910 0.199550
O521 O 0.518840 1.574910 0.699550
O522 O 1.018840 0.574910 -0.199550
O523 O 0.481160 -0.574910 0.300450
O524 O 0.981160 -0.574910 1.199550
O525 O 0.518840 0.574910 0.699550
O526 O 1.018840 0.574910 0.800450
O527 O 1.018840 1.574910 0.800450
O528 O 0.981160 0.425090 0.199550
O529 O 0.981160 0.425090 1.199550
O530 O 1.018840 1.574910 -0.199550
O531 O 0.481160 1.074910 0.800450
O532 O -0.018840 -0.574910 0.199550

#END
