
#######################################################################
#
#                 Cambridge Crystallographic Data Centre
#                                CCDC 
#
#######################################################################
#
# If this CIF has been generated from an entry in the Cambridge 
# Structural Database, then it will include bibliographic, chemical, 
# crystal, experimental, refinement or atomic coordinate data resulting 
# from the CCDC's data processing and validation procedures.
#
#######################################################################

data_KABMEH
_symmetry_cell_setting           orthorhombic
_symmetry_space_group_name_H-M   'P 21 21 21'
_symmetry_Int_Tables_number      19
_space_group_name_Hall           'P 2ac 2ab'
loop_
_symmetry_equiv_pos_site_id
_symmetry_equiv_pos_as_xyz
1 x,y,z
2 1/2-x,-y,1/2+z
3 -x,1/2+y,1/2-z
4 1/2+x,1/2-y,-z
_cell_length_a                   7.5388(9)
_cell_length_b                   12.2452(11)
_cell_length_c                   14.2440(16)
_cell_angle_alpha                90
_cell_angle_beta                 90
_cell_angle_gamma                90
_cell_volume                     1314.92
loop_
_atom_site_label
_atom_site_type_symbol
_atom_site_fract_x
_atom_site_fract_y
_atom_site_fract_z
Br1 Br 0.04915(6) 0.84654(3) -0.29615(2)
Cl1 Cl 0.26999(17) 1.17472(7) -0.05785(7)
N1 N 0.1302(3) 0.6835(2) 0.05868(17)
O1 O 0.0835(3) 0.71558(18) -0.11917(15)
H1 H 0.0929 0.6804 -0.0704
C1 C 0.1777(5) 0.7832(3) 0.0667(2)
H2 H 0.2136 0.8093 0.1250
C2 C 0.1770(4) 0.8568(3) -0.0137(2)
C3 C 0.1263(4) 0.8203(3) -0.1027(2)
C4 C 0.1196(5) 0.8952(3) -0.1764(2)
C5 C 0.1624(5) 1.0029(3) -0.1627(2)
H3 H 0.1554 1.0522 -0.2122
C6 C 0.2160(5) 1.0382(3) -0.0746(2)
C7 C 0.2229(5) 0.9665(3) -0.0010(2)
H4 H 0.2583 0.9909 0.0579
C8 C 0.1220(5) 0.6153(3) 0.1403(2)
C9 C 0.1705(5) 0.5059(3) 0.1305(2)
C10 C 0.1639(5) 0.4404(3) 0.2096(3)
H5 H 0.1993 0.3678 0.2053
C11 C 0.1059(5) 0.4805(3) 0.2947(3)
H6 H 0.1014 0.4348 0.3467
C12 C 0.0553(5) 0.5866(3) 0.3027(2)
H7 H 0.0163 0.6133 0.3602
C13 C 0.0618(5) 0.6549(3) 0.22552(19)
H8 H 0.0259 0.7273 0.2309
C14 C 0.2313(6) 0.4607(3) 0.0376(2)
H9 H 0.2589 0.3845 0.0445
H10 H 0.3352 0.4993 0.0171
H11 H 0.1387 0.4692 -0.0081
Br1 Br 0.45085(6) 0.15346(3) 0.20385(2)
Cl1 Cl 0.23001(17) -0.17472(7) 0.44215(7)
N1 N 0.3698(3) 0.3165(2) 0.55868(17)
O1 O 0.4165(3) 0.28442(18) 0.38083(15)
H1 H 0.4071 0.3196 0.4296
C1 C 0.3223(5) 0.2168(3) 0.5667(2)
H2 H 0.2864 0.1907 0.6250
C2 C 0.3230(4) 0.1432(3) 0.4863(2)
C3 C 0.3737(4) 0.1797(3) 0.3973(2)
C4 C 0.3804(5) 0.1048(3) 0.3236(2)
C5 C 0.3376(5) -0.0029(3) 0.3373(2)
H3 H 0.3446 -0.0522 0.2878
C6 C 0.2840(5) -0.0382(3) 0.4254(2)
C7 C 0.2771(5) 0.0335(3) 0.4990(2)
H4 H 0.2417 0.0091 0.5579
C8 C 0.3780(5) 0.3847(3) 0.6403(2)
C9 C 0.3295(5) 0.4941(3) 0.6305(2)
C10 C 0.3361(5) 0.5596(3) 0.7096(3)
H5 H 0.3007 0.6322 0.7053
C11 C 0.3941(5) 0.5195(3) 0.7947(3)
H6 H 0.3986 0.5652 0.8467
C12 C 0.4447(5) 0.4134(3) 0.8027(2)
H7 H 0.4837 0.3867 0.8602
C13 C 0.4382(5) 0.3451(3) 0.72552(19)
H8 H 0.4741 0.2727 0.7309
C14 C 0.2687(6) 0.5393(3) 0.5376(2)
H9 H 0.2411 0.6155 0.5445
H10 H 0.1648 0.5007 0.5171
H11 H 0.3613 0.5308 0.4919
Br1 Br 0.95085(6) 0.34654(3) 0.79615(2)
Cl1 Cl 0.73001(17) 0.67472(7) 0.55785(7)
N1 N 0.8698(3) 0.1835(2) 0.44132(17)
O1 O 0.9165(3) 0.21558(18) 0.61917(15)
H1 H 0.9071 0.1804 0.5704
C1 C 0.8223(5) 0.2832(3) 0.4333(2)
H2 H 0.7864 0.3093 0.3750
C2 C 0.8230(4) 0.3568(3) 0.5137(2)
C3 C 0.8737(4) 0.3203(3) 0.6027(2)
C4 C 0.8804(5) 0.3952(3) 0.6764(2)
C5 C 0.8376(5) 0.5029(3) 0.6627(2)
H3 H 0.8446 0.5522 0.7122
C6 C 0.7840(5) 0.5382(3) 0.5746(2)
C7 C 0.7771(5) 0.4665(3) 0.5010(2)
H4 H 0.7417 0.4909 0.4421
C8 C 0.8780(5) 0.1153(3) 0.3597(2)
C9 C 0.8295(5) 0.0059(3) 0.3695(2)
C10 C 0.8361(5) -0.0596(3) 0.2904(3)
H5 H 0.8007 -0.1322 0.2947
C11 C 0.8941(5) -0.0195(3) 0.2053(3)
H6 H 0.8986 -0.0652 0.1533
C12 C 0.9447(5) 0.0866(3) 0.1973(2)
H7 H 0.9837 0.1133 0.1398
C13 C 0.9382(5) 0.1549(3) 0.27448(19)
H8 H 0.9741 0.2273 0.2691
C14 C 0.7687(6) -0.0393(3) 0.4624(2)
H9 H 0.7411 -0.1155 0.4555
H10 H 0.6648 -0.0007 0.4829
H11 H 0.8613 -0.0308 0.5081
Br1 Br 0.54915(6) 0.65346(3) 1.29615(2)
Cl1 Cl 0.76999(17) 0.32528(7) 1.05785(7)
N1 N 0.6302(3) 0.8165(2) 0.94132(17)
O1 O 0.5835(3) 0.78442(18) 1.11917(15)
H1 H 0.5929 0.8196 1.0704
C1 C 0.6777(5) 0.7168(3) 0.9333(2)
H2 H 0.7136 0.6907 0.8750
C2 C 0.6770(4) 0.6432(3) 1.0137(2)
C3 C 0.6263(4) 0.6797(3) 1.1027(2)
C4 C 0.6196(5) 0.6048(3) 1.1764(2)
C5 C 0.6624(5) 0.4971(3) 1.1627(2)
H3 H 0.6554 0.4478 1.2122
C6 C 0.7160(5) 0.4618(3) 1.0746(2)
C7 C 0.7229(5) 0.5335(3) 1.0010(2)
H4 H 0.7583 0.5091 0.9421
C8 C 0.6220(5) 0.8847(3) 0.8597(2)
C9 C 0.6705(5) 0.9941(3) 0.8695(2)
C10 C 0.6639(5) 1.0596(3) 0.7904(3)
H5 H 0.6993 1.1322 0.7947
C11 C 0.6059(5) 1.0195(3) 0.7053(3)
H6 H 0.6014 1.0652 0.6533
C12 C 0.5553(5) 0.9134(3) 0.6973(2)
H7 H 0.5163 0.8867 0.6398
C13 C 0.5618(5) 0.8451(3) 0.77448(19)
H8 H 0.5259 0.7727 0.7691
C14 C 0.7313(6) 1.0393(3) 0.9624(2)
H9 H 0.7589 1.1155 0.9555
H10 H 0.8352 1.0007 0.9829
H11 H 0.6387 1.0308 1.0081

#END
