
#######################################################################
#
#                 Cambridge Crystallographic Data Centre
#                                CCDC 
#
#######################################################################
#
# If this CIF has been generated from an entry in the Cambridge 
# Structural Database, then it will include bibliographic, chemical, 
# crystal, experimental, refinement or atomic coordinate data resulting 
# from the CCDC's data processing and validation procedures.
#
#######################################################################

data_KABMOR
_symmetry_cell_setting           monoclinic
_symmetry_space_group_name_H-M   'P 21/c'
_symmetry_Int_Tables_number      14
_space_group_name_Hall           '-P 2ybc'
loop_
_symmetry_equiv_pos_site_id
_symmetry_equiv_pos_as_xyz
1 x,y,z
2 -x,1/2+y,1/2-z
3 -x,-y,-z
4 x,1/2-y,1/2+z
_cell_length_a                   9.7744(8)
_cell_length_b                   7.3163(7)
_cell_length_c                   28.2761(3)
_cell_angle_alpha                90
_cell_angle_beta                 90.7960(10)
_cell_angle_gamma                90
_cell_volume                     2021.9
loop_
_atom_site_label
_atom_site_type_symbol
_atom_site_fract_x
_atom_site_fract_y
_atom_site_fract_z
O1 O 0.8472(3) 0.1813(5) 0.45497(9)
N1 N 0.6814(3) 0.3386(5) 0.55616(12)
N2 N 0.7850(3) 0.3042(5) 0.52501(12)
H1 H 0.8681 0.3330 0.5320
N3 N 0.6226(3) 0.1926(5) 0.47282(11)
H2 H 0.5607 0.2305 0.4918
N4 N 0.5831(3) 0.0984(6) 0.43144(11)
H3 H 0.6347 0.1350 0.4075
H4 H 0.5948 -0.0210 0.4360
C10 C 0.7539(4) 0.2242(6) 0.48324(16)
C11 C 0.7111(4) 0.4054(6) 0.59662(15)
C12 C 0.5943(5) 0.4406(6) 0.62839(16)
C13 C 0.4626(5) 0.4533(7) 0.60913(17)
H17 H 0.4496 0.4393 0.5767
C14 C 0.3502(6) 0.4868(8) 0.6376(2)
H18 H 0.2631 0.4944 0.6241
C15 C 0.3676(7) 0.5084(9) 0.6855(2)
H19 H 0.2926 0.5326 0.7045
C16 C 0.4968(8) 0.4940(8) 0.7055(2)
H20 H 0.5093 0.5049 0.7381
C17 C 0.6091(6) 0.4628(6) 0.67616(17)
H21 H 0.6963 0.4571 0.6897
C18 C 0.8554(4) 0.4505(6) 0.61330(15)
H22 H 0.9043 0.3393 0.6198
H23 H 0.8517 0.5230 0.6416
H24 H 0.9015 0.5178 0.5891
O1 O 0.1528(3) 0.6813(5) 1.04503(9)
N1 N 0.3186(3) 0.8386(5) 0.94384(12)
N2 N 0.2150(3) 0.8042(5) 0.97499(12)
H1 H 0.1319 0.8330 0.9680
N3 N 0.3774(3) 0.6926(5) 1.02718(11)
H2 H 0.4393 0.7305 1.0082
N4 N 0.4169(3) 0.5984(6) 1.06856(11)
H3 H 0.3653 0.6350 1.0925
H4 H 0.4052 0.4790 1.0640
C10 C 0.2461(4) 0.7242(6) 1.01676(16)
C11 C 0.2889(4) 0.9054(6) 0.90338(15)
C12 C 0.4057(5) 0.9406(6) 0.87161(16)
C13 C 0.5374(5) 0.9533(7) 0.89087(17)
H17 H 0.5504 0.9393 0.9233
C14 C 0.6498(6) 0.9868(8) 0.8624(2)
H18 H 0.7369 0.9944 0.8759
C15 C 0.6324(7) 1.0084(9) 0.8145(2)
H19 H 0.7074 1.0326 0.7955
C16 C 0.5032(8) 0.9940(8) 0.7945(2)
H20 H 0.4907 1.0049 0.7619
C17 C 0.3909(6) 0.9628(6) 0.82384(17)
H21 H 0.3037 0.9571 0.8103
C18 C 0.1446(4) 0.9505(6) 0.88670(15)
H22 H 0.0957 0.8393 0.8802
H23 H 0.1483 1.0230 0.8584
H24 H 0.0985 1.0178 0.9109
O1 O 0.1528(3) 0.8187(5) 0.54503(9)
N1 N 0.3186(3) 0.6614(5) 0.44384(12)
N2 N 0.2150(3) 0.6958(5) 0.47499(12)
H1 H 0.1319 0.6670 0.4680
N3 N 0.3774(3) 0.8074(5) 0.52718(11)
H2 H 0.4393 0.7695 0.5082
N4 N 0.4169(3) 0.9016(6) 0.56856(11)
H3 H 0.3653 0.8650 0.5925
H4 H 0.4052 1.0210 0.5640
C10 C 0.2461(4) 0.7758(6) 0.51676(16)
C11 C 0.2889(4) 0.5946(6) 0.40338(15)
C12 C 0.4057(5) 0.5594(6) 0.37161(16)
C13 C 0.5374(5) 0.5467(7) 0.39087(17)
H17 H 0.5504 0.5607 0.4233
C14 C 0.6498(6) 0.5132(8) 0.3624(2)
H18 H 0.7369 0.5056 0.3759
C15 C 0.6324(7) 0.4916(9) 0.3145(2)
H19 H 0.7074 0.4674 0.2955
C16 C 0.5032(8) 0.5060(8) 0.2945(2)
H20 H 0.4907 0.4951 0.2619
C17 C 0.3909(6) 0.5372(6) 0.32384(17)
H21 H 0.3037 0.5429 0.3103
C18 C 0.1446(4) 0.5495(6) 0.38670(15)
H22 H 0.0957 0.6607 0.3802
H23 H 0.1483 0.4770 0.3584
H24 H 0.0985 0.4822 0.4109
O1 O 0.8472(3) 0.3187(5) -0.04503(9)
N1 N 0.6814(3) 0.1614(5) 0.05616(12)
N2 N 0.7850(3) 0.1958(5) 0.02501(12)
H1 H 0.8681 0.1670 0.0320
N3 N 0.6226(3) 0.3074(5) -0.02718(11)
H2 H 0.5607 0.2695 -0.0082
N4 N 0.5831(3) 0.4016(6) -0.06856(11)
H3 H 0.6347 0.3650 -0.0925
H4 H 0.5948 0.5210 -0.0640
C10 C 0.7539(4) 0.2758(6) -0.01676(16)
C11 C 0.7111(4) 0.0946(6) 0.09662(15)
C12 C 0.5943(5) 0.0594(6) 0.12839(16)
C13 C 0.4626(5) 0.0467(7) 0.10913(17)
H17 H 0.4496 0.0607 0.0767
C14 C 0.3502(6) 0.0132(8) 0.1376(2)
H18 H 0.2631 0.0056 0.1241
C15 C 0.3676(7) -0.0084(9) 0.1855(2)
H19 H 0.2926 -0.0326 0.2045
C16 C 0.4968(8) 0.0060(8) 0.2055(2)
H20 H 0.5093 -0.0049 0.2381
C17 C 0.6091(6) 0.0372(6) 0.17616(17)
H21 H 0.6963 0.0429 0.1897
C18 C 0.8554(4) 0.0495(6) 0.11330(15)
H22 H 0.9043 0.1607 0.1198
H23 H 0.8517 -0.0230 0.1416
H24 H 0.9015 -0.0178 0.0891
O2 O 0.3489(2) 0.2384(4) 0.50884(9)
N5 N 0.1757(3) 0.0963(5) 0.40633(11)
N6 N 0.2815(3) 0.1455(5) 0.43539(11)
H5 H 0.3642 0.1413 0.4254
N7 N 0.1225(3) 0.2228(5) 0.49114(11)
H6 H 0.0802 0.1160 0.4849
N8 N 0.0871(3) 0.2698(6) 0.53820(12)
H7 H 0.1197 0.1869 0.5584
H8 H 0.1239 0.3782 0.5448
C1 C 0.2557(4) 0.2014(6) 0.48027(15)
C2 C 0.2023(4) 0.0482(5) 0.36361(14)
C3 C 0.0833(4) -0.0052(6) 0.33345(14)
C4 C 0.0951(5) -0.0984(6) 0.29212(15)
H9 H 0.1824 -0.1264 0.2817
C5 C -0.0154(6) -0.1537(7) 0.26486(17)
H10 H -0.0020 -0.2153 0.2365
C6 C -0.1446(6) -0.1168(8) 0.27995(18)
H11 H -0.2203 -0.1574 0.2626
C7 C -0.1616(5) -0.0192(8) 0.32097(18)
H12 H -0.2494 0.0110 0.3306
C8 C -0.0505(5) 0.0345(7) 0.34802(15)
H13 H -0.0639 0.0976 0.3761
C9 C 0.3434(4) 0.0465(6) 0.34318(14)
H14 H 0.3935 0.1513 0.3543
H15 H 0.3368 0.0498 0.3093
H16 H 0.3903 -0.0629 0.3529
O2 O 0.6511(2) 0.7384(4) -0.00884(9)
N5 N 0.8243(3) 0.5963(5) 0.09367(11)
N6 N 0.7185(3) 0.6455(5) 0.06461(11)
H5 H 0.6358 0.6413 0.0746
N7 N 0.8775(3) 0.7228(5) 0.00886(11)
H6 H 0.9198 0.6160 0.0151
N8 N 0.9129(3) 0.7698(6) -0.03820(12)
H7 H 0.8803 0.6869 -0.0584
H8 H 0.8761 0.8782 -0.0448
C1 C 0.7443(4) 0.7014(6) 0.01973(15)
C2 C 0.7977(4) 0.5482(5) 0.13639(14)
C3 C 0.9167(4) 0.4948(6) 0.16655(14)
C4 C 0.9049(5) 0.4016(6) 0.20788(15)
H9 H 0.8176 0.3736 0.2183
C5 C 1.0154(6) 0.3463(7) 0.23514(17)
H10 H 1.0020 0.2847 0.2635
C6 C 1.1446(6) 0.3832(8) 0.22005(18)
H11 H 1.2203 0.3426 0.2374
C7 C 1.1616(5) 0.4808(8) 0.17903(18)
H12 H 1.2494 0.5110 0.1694
C8 C 1.0505(5) 0.5345(7) 0.15198(15)
H13 H 1.0639 0.5976 0.1239
C9 C 0.6566(4) 0.5465(6) 0.15682(14)
H14 H 0.6065 0.6513 0.1457
H15 H 0.6632 0.5498 0.1907
H16 H 0.6097 0.4371 0.1471
O2 O 0.6511(2) 0.7616(4) 0.49116(9)
N5 N 0.8243(3) 0.9037(5) 0.59367(11)
N6 N 0.7185(3) 0.8545(5) 0.56461(11)
H5 H 0.6358 0.8587 0.5746
N7 N 0.8775(3) 0.7772(5) 0.50886(11)
H6 H 0.9198 0.8840 0.5151
N8 N 0.9129(3) 0.7302(6) 0.46180(12)
H7 H 0.8803 0.8131 0.4416
H8 H 0.8761 0.6218 0.4552
C1 C 0.7443(4) 0.7986(6) 0.51973(15)
C2 C 0.7977(4) 0.9518(5) 0.63639(14)
C3 C 0.9167(4) 1.0052(6) 0.66655(14)
C4 C 0.9049(5) 1.0984(6) 0.70788(15)
H9 H 0.8176 1.1264 0.7183
C5 C 1.0154(6) 1.1537(7) 0.73514(17)
H10 H 1.0020 1.2153 0.7635
C6 C 1.1446(6) 1.1168(8) 0.72005(18)
H11 H 1.2203 1.1574 0.7374
C7 C 1.1616(5) 1.0192(8) 0.67903(18)
H12 H 1.2494 0.9890 0.6694
C8 C 1.0505(5) 0.9655(7) 0.65198(15)
H13 H 1.0639 0.9024 0.6239
C9 C 0.6566(4) 0.9535(6) 0.65682(14)
H14 H 0.6065 0.8487 0.6457
H15 H 0.6632 0.9502 0.6907
H16 H 0.6097 1.0629 0.6471
O2 O 0.3489(2) 0.2616(4) 1.00884(9)
N5 N 0.1757(3) 0.4037(5) 0.90633(11)
N6 N 0.2815(3) 0.3545(5) 0.93539(11)
H5 H 0.3642 0.3587 0.9254
N7 N 0.1225(3) 0.2772(5) 0.99114(11)
H6 H 0.0802 0.3840 0.9849
N8 N 0.0871(3) 0.2302(6) 1.03820(12)
H7 H 0.1197 0.3131 1.0584
H8 H 0.1239 0.1218 1.0448
C1 C 0.2557(4) 0.2986(6) 0.98027(15)
C2 C 0.2023(4) 0.4518(5) 0.86361(14)
C3 C 0.0833(4) 0.5052(6) 0.83345(14)
C4 C 0.0951(5) 0.5984(6) 0.79212(15)
H9 H 0.1824 0.6264 0.7817
C5 C -0.0154(6) 0.6537(7) 0.76486(17)
H10 H -0.0020 0.7153 0.7365
C6 C -0.1446(6) 0.6168(8) 0.77995(18)
H11 H -0.2203 0.6574 0.7626
C7 C -0.1616(5) 0.5192(8) 0.82097(18)
H12 H -0.2494 0.4890 0.8306
C8 C -0.0505(5) 0.4655(7) 0.84802(15)
H13 H -0.0639 0.4024 0.8761
C9 C 0.3434(4) 0.4535(6) 0.84318(14)
H14 H 0.3935 0.3487 0.8543
H15 H 0.3368 0.4502 0.8093
H16 H 0.3903 0.5629 0.8529

#END
