
#######################################################################
#
#                 Cambridge Crystallographic Data Centre
#                                CCDC 
#
#######################################################################
#
# If this CIF has been generated from an entry in the Cambridge 
# Structural Database, then it will include bibliographic, chemical, 
# crystal, experimental, refinement or atomic coordinate data resulting 
# from the CCDC's data processing and validation procedures.
#
#######################################################################

data_KACTOY
_symmetry_cell_setting           monoclinic
_symmetry_space_group_name_H-M   'P 21/m'
_symmetry_Int_Tables_number      11
_space_group_name_Hall           '-P 2yb'
loop_
_symmetry_equiv_pos_site_id
_symmetry_equiv_pos_as_xyz
1 x,y,z
2 x,1/2-y,z
3 -x,-y,-z
4 -x,1/2+y,-z
_cell_length_a                   7.9488(8)
_cell_length_b                   6.4023(7)
_cell_length_c                   8.0844(8)
_cell_angle_alpha                90
_cell_angle_beta                 112.987(2)
_cell_angle_gamma                90
_cell_volume                     378.751
loop_
_atom_site_label
_atom_site_type_symbol
_atom_site_fract_x
_atom_site_fract_y
_atom_site_fract_z
Cl1 Cl 0.90446(5) 0.7500 0.67935(5)
Cl1 Cl 0.09554(5) 0.2500 0.32065(5)
N1 N 0.93162(18) 0.2500 0.77477(18)
N2 N 0.5521(2) 0.2500 0.1525(2)
C1 C 1.1327(2) 0.2500 0.8729(2)
H1 H 1.1793 0.1280 0.8427
H2 H 1.1623 0.2500 1.0052
C2 C 0.8639(2) 0.2500 0.5946(2)
H3 H 0.9360 0.2500 0.5453
C3 C 0.6773(2) 0.2500 0.4999(2)
C4 C 0.5589(2) 0.2500 0.5890(2)
H4 H 0.4427 0.2500 0.5328
C5 C 0.6347(2) 0.2500 0.7755(2)
H5 H 0.5684 0.2500 0.8435
C6 C 0.8220(2) 0.2500 0.8661(2)
H6 H 0.8859 0.2500 0.9966
C7 C 0.6081(2) 0.2500 0.3062(2)
H1A H 1.1793 0.3720 0.8427
N1 N 0.06838(18) 0.7500 0.22523(18)
N2 N 0.4479(2) 0.7500 0.8475(2)
C1 C -0.1327(2) 0.7500 0.1271(2)
H1 H -0.1793 0.8720 0.1573
H2 H -0.1623 0.7500 -0.0052
C2 C 0.1361(2) 0.7500 0.4054(2)
H3 H 0.0640 0.7500 0.4547
C3 C 0.3227(2) 0.7500 0.5001(2)
C4 C 0.4411(2) 0.7500 0.4110(2)
H4 H 0.5573 0.7500 0.4672
C5 C 0.3653(2) 0.7500 0.2245(2)
H5 H 0.4316 0.7500 0.1565
C6 C 0.1780(2) 0.7500 0.1339(2)
H6 H 0.1141 0.7500 0.0034
C7 C 0.3919(2) 0.7500 0.6938(2)
H1A H -0.1793 0.6280 0.1573

#END
