./KADPOU_from_POSCAR.cif_generated_by_CrystalShift
_symmetry_cell_setting triclinic
_symmetry_space_group_name_H-M 'P 1'
loop_
_symmetry_equiv_pos_site_id
_symmetry_equiv_pos_as_xyz
1 x,y,z
_cell_length_a 10.055000
_cell_length_b 10.055000
_cell_length_c 24.311000
_cell_angle_alpha 90.000000
_cell_angle_beta 90.000000
_cell_angle_gamma 90.000000
_cell_volume 2457.915641
loop_
_atom_site_label
_atom_site_type_symbol
_atom_site_fract_x
_atom_site_fract_y
_atom_site_fract_z
H1 H -0.179000 0.344000 0.700000
H2 H -0.099000 0.466000 0.735000
H3 H -0.152000 0.320000 0.825000
H4 H -0.238000 0.217000 0.785000
H5 H -0.117000 0.166000 0.827000
H6 H -0.065000 0.149000 0.646000
H7 H 0.009000 -0.092000 0.631000
H8 H 0.017000 -0.341000 0.793000
H9 H -0.034000 -0.198000 0.817000
H10 H -0.083000 -0.312000 0.759000
H11 H 0.166000 -0.280000 0.666000
H12 H 0.134000 -0.394000 0.703000
H13 H 0.013000 -0.319000 0.675000
H14 H 0.204000 -0.239000 0.846000
H15 H 0.445000 -0.183000 0.857000
H16 H 0.607000 -0.268000 0.727000
H17 H 0.707000 -0.157000 0.701000
H18 H 0.562000 -0.198000 0.684000
H19 H 0.761000 -0.054000 0.785000
H20 H 0.620000 -0.017000 0.829000
H21 H 0.669000 -0.166000 0.825000
H22 H 0.595000 0.041000 0.647000
H23 H 0.526000 0.277000 0.644000
H24 H 0.493000 0.519000 0.818000
H25 H 0.556000 0.363000 0.824000
H26 H 0.612000 0.460000 0.774000
H27 H 0.335000 0.452000 0.675000
H28 H 0.376000 0.572000 0.722000
H29 H 0.494000 0.496000 0.688000
H30 H 0.320000 0.391000 0.869000
H31 H 0.058000 0.328000 0.860000
H32 H 0.344000 1.179000 0.450000
H33 H 0.672000 0.058000 0.110000
H34 H 0.609000 0.320000 0.119000
H35 H 0.504000 0.494000 -0.062000
H36 H 0.428000 0.376000 -0.028000
H37 H 0.548000 0.335000 -0.075000
H38 H 0.540000 0.612000 0.024000
H39 H 0.637000 0.556000 0.074000
H40 H 0.481000 0.493000 0.068000
H41 H 0.723000 0.526000 -0.106000
H42 H 0.959000 0.595000 -0.103000
H43 H 1.166000 0.669000 0.075000
H44 H 1.017000 0.620000 0.079000
H45 H 1.054000 0.761000 0.035000
H46 H 1.198000 0.562000 -0.066000
H47 H 1.157000 0.707000 -0.049000
H48 H 1.268000 0.607000 -0.023000
H49 H 1.183000 0.445000 0.107000
H50 H 1.239000 0.204000 0.096000
H51 H 1.319000 0.013000 -0.075000
H52 H 1.394000 0.134000 -0.047000
H53 H 1.280000 0.166000 -0.084000
H54 H 1.312000 -0.083000 0.009000
H55 H 1.198000 -0.034000 0.067000
H56 H 1.341000 0.017000 0.043000
H57 H 1.092000 0.009000 -0.119000
H58 H 0.851000 -0.065000 -0.104000
H59 H 0.834000 -0.117000 0.077000
H60 H 0.783000 -0.238000 0.035000
H61 H 0.680000 -0.152000 0.075000
H62 H 0.534000 -0.099000 -0.015000
H63 H 0.626000 -0.027000 -0.063000
H64 H 0.656000 -0.179000 -0.050000
H65 H 0.374000 1.027000 0.437000
H66 H 0.466000 1.099000 0.485000
H67 H 0.320000 1.152000 0.575000
H68 H 0.217000 1.238000 0.535000
H69 H 0.166000 1.117000 0.577000
H70 H 0.149000 1.065000 0.396000
H71 H -0.092000 0.991000 0.381000
H72 H -0.341000 0.983000 0.543000
H73 H -0.198000 1.034000 0.567000
H74 H -0.312000 1.083000 0.509000
H75 H -0.280000 0.834000 0.416000
H76 H -0.394000 0.866000 0.453000
H77 H -0.319000 0.987000 0.425000
H78 H -0.239000 0.796000 0.596000
H79 H -0.183000 0.555000 0.607000
H80 H -0.268000 0.393000 0.477000
H81 H -0.157000 0.293000 0.451000
H82 H -0.198000 0.438000 0.434000
H83 H -0.054000 0.239000 0.535000
H84 H -0.017000 0.380000 0.579000
H85 H -0.166000 0.331000 0.575000
H86 H 0.041000 0.405000 0.397000
H87 H 0.277000 0.474000 0.394000
H88 H 0.519000 0.507000 0.568000
H89 H 0.363000 0.444000 0.574000
H90 H 0.460000 0.388000 0.524000
H91 H 0.452000 0.665000 0.425000
H92 H 0.572000 0.624000 0.472000
H93 H 0.496000 0.506000 0.438000
H94 H 0.391000 0.680000 0.619000
H95 H 0.328000 0.942000 0.610000
H96 H 1.179000 0.656000 0.200000
H97 H 0.942000 0.672000 0.360000
H98 H 0.680000 0.609000 0.369000
H99 H 0.506000 0.504000 0.188000
H100 H 0.624000 0.428000 0.222000
H101 H 0.665000 0.548000 0.175000
H102 H 0.388000 0.540000 0.274000
H103 H 0.444000 0.637000 0.324000
H104 H 0.507000 0.481000 0.318000
H105 H 0.474000 0.723000 0.144000
H106 H 0.405000 0.959000 0.147000
H107 H 0.331000 1.166000 0.325000
H108 H 0.380000 1.017000 0.329000
H109 H 0.239000 1.054000 0.285000
H110 H 0.438000 1.198000 0.184000
H111 H 0.293000 1.157000 0.201000
H112 H 0.393000 1.268000 0.227000
H113 H 0.555000 1.183000 0.357000
H114 H 0.796000 1.239000 0.346000
H115 H 0.987000 1.319000 0.175000
H116 H 0.866000 1.394000 0.203000
H117 H 0.834000 1.280000 0.166000
H118 H 1.083000 1.312000 0.259000
H119 H 1.034000 1.198000 0.317000
H120 H 0.983000 1.341000 0.293000
H121 H 0.991000 1.092000 0.131000
H122 H 1.065000 0.851000 0.146000
H123 H 1.117000 0.834000 0.327000
H124 H 1.238000 0.783000 0.285000
H125 H 1.152000 0.680000 0.325000
H126 H 1.099000 0.534000 0.235000
H127 H 1.027000 0.626000 0.187000
H128 H -0.027000 0.374000 0.687000
C129 C 0.698300 0.087200 0.033100
C130 C 0.301700 0.912800 0.533100
C131 C 0.331600 0.877100 0.585300
C132 C 0.370800 0.739800 0.584400
C133 C 0.361600 0.704300 0.531100
C134 C 0.384200 0.572700 0.501700
C135 C 0.493100 0.592000 0.457200
C136 C 0.434700 0.469800 0.544200
C137 C 0.668400 0.122900 0.085300
C138 C 0.261700 0.521500 0.474500
C139 C 0.229900 0.482400 0.424000
C140 C 0.094300 0.444700 0.425300
C141 C 0.047500 0.465200 0.476200
C142 C -0.083200 0.442800 0.504300
C143 C -0.068100 0.342700 0.551500
C144 C -0.181100 0.387700 0.462100
C145 C 0.629200 0.260200 0.084400
C146 C -0.132900 0.573900 0.527100
C147 C -0.180100 0.610200 0.576700
C148 C -0.218300 0.746500 0.572700
C149 C -0.192100 0.784900 0.521300
C150 C -0.208300 0.915700 0.491000
C151 C -0.308400 0.899500 0.444000
C152 C -0.262000 1.020900 0.532200
C153 C 0.638400 0.295700 0.031100
C154 C -0.080100 0.961500 0.467800
C155 C -0.037700 0.995700 0.417800
C156 C 0.098900 1.033100 0.423300
C157 C 0.136300 1.021300 0.475700
C158 C 0.259400 1.042400 0.508100
C159 C 0.240000 1.145100 0.553300
C160 C 0.366300 1.091500 0.468300
C161 C 1.145100 0.760000 0.303300
C162 C 1.042400 0.740600 0.258100
C163 C 1.021300 0.863700 0.225700
C164 C 1.033100 0.901100 0.173300
C165 C 0.995700 1.037700 0.167800
C166 C 0.961500 1.080100 0.217800
C167 C 0.615800 0.427300 0.001700
C168 C 1.020900 1.262000 0.282200
C169 C 0.899500 1.308400 0.194000
C170 C 0.915700 1.208300 0.241000
C171 C 0.784900 1.192100 0.271300
C172 C 0.746500 1.218300 0.322700
C173 C 0.610200 1.180100 0.326700
C174 C 0.573900 1.132900 0.277100
C175 C 0.506900 0.408000 -0.042800
C176 C 0.387700 1.181100 0.212100
C177 C 0.342700 1.068100 0.301500
C178 C 0.442800 1.083200 0.254300
C179 C 0.465200 0.952500 0.226200
C180 C 0.444700 0.905700 0.175300
C181 C 0.482400 0.770100 0.174000
C182 C 0.521500 0.738300 0.224500
C183 C 0.565300 0.530200 0.044200
C184 C 0.469800 0.565300 0.294200
C185 C 0.592000 0.506900 0.207200
C186 C 0.572700 0.615800 0.251700
C187 C 0.704300 0.638400 0.281100
C188 C 0.739800 0.629200 0.334400
C189 C 0.877100 0.668400 0.335300
C190 C 0.912800 0.698300 0.283100
C191 C 0.738300 0.478500 -0.025500
C192 C 0.633700 -0.091500 -0.031700
C193 C 0.770100 0.517600 -0.076000
C194 C 0.087200 0.301700 0.783100
C195 C 0.122900 0.331600 0.835300
C196 C 0.260200 0.370800 0.834400
C197 C 0.295700 0.361600 0.781100
C198 C 0.427300 0.384200 0.751700
C199 C 0.408000 0.493100 0.707200
C200 C 0.530200 0.434700 0.794200
C201 C 0.905700 0.555300 -0.074700
C202 C 0.478500 0.261700 0.724500
C203 C 0.517600 0.229900 0.674000
C204 C 0.555300 0.094300 0.675300
C205 C 0.534800 0.047500 0.726200
C206 C 0.557200 -0.083200 0.754300
C207 C 0.657300 -0.068100 0.801500
C208 C 0.612300 -0.181100 0.712100
C209 C 0.952500 0.534800 -0.023800
C210 C 0.426100 -0.132900 0.777100
C211 C 0.389800 -0.180100 0.826700
C212 C 0.253500 -0.218300 0.822700
C213 C 0.215100 -0.192100 0.771300
C214 C 0.084300 -0.208300 0.741000
C215 C 0.100500 -0.308400 0.694000
C216 C -0.020900 -0.262000 0.782200
C217 C 1.083200 0.557200 0.004300
C218 C 0.038500 -0.080100 0.717800
C219 C 0.004300 -0.037700 0.667800
C220 C -0.033100 0.098900 0.673300
C221 C -0.021300 0.136300 0.725700
C222 C -0.042400 0.259400 0.758100
C223 C -0.145100 0.240000 0.803300
C224 C -0.091500 0.366300 0.718300
C225 C 0.760000 -0.145100 0.053300
C226 C 0.740600 -0.042400 0.008100
C227 C 0.863700 -0.021300 -0.024300
C228 C 0.901100 -0.033100 -0.076700
C229 C 1.037700 0.004300 -0.082200
C230 C 1.080100 0.038500 -0.032200
C231 C 1.068100 0.657300 0.051500
C232 C 1.262000 -0.020900 0.032200
C233 C 1.308400 0.100500 -0.056000
C234 C 1.208300 0.084300 -0.009000
C235 C 1.192100 0.215100 0.021300
C236 C 1.218300 0.253500 0.072700
C237 C 1.180100 0.389800 0.076700
C238 C 1.132900 0.426100 0.027100
C239 C 1.181100 0.612300 -0.037900
C240 C 1.091500 0.633700 0.218300
O241 O 0.976000 0.023600 0.004800
O242 O 0.023600 0.024000 0.754800
O243 O 0.320700 -0.141100 0.741500
O244 O 0.486500 0.150200 0.757500
O245 O 0.193400 0.319900 0.748700
O246 O 0.806600 0.680100 0.248700
O247 O 0.849800 0.486500 0.007500
O248 O 0.513500 0.849800 0.257500
O249 O 0.679300 1.141100 0.241500
O250 O 0.976400 0.976000 0.254800
O251 O 0.024000 0.976400 0.504800
O252 O -0.141100 0.679300 0.491500
O253 O 0.150200 0.513500 0.507500
O254 O 0.319900 0.806600 0.498700
O255 O 1.141100 0.320700 -0.008500
O256 O 0.680100 0.193400 -0.001300

#END
