
#######################################################################
#
#                 Cambridge Crystallographic Data Centre
#                                CCDC 
#
#######################################################################
#
# If this CIF has been generated from an entry in the Cambridge 
# Structural Database, then it will include bibliographic, chemical, 
# crystal, experimental, refinement or atomic coordinate data resulting 
# from the CCDC's data processing and validation procedures.
#
#######################################################################

data_KAFMOU
_symmetry_cell_setting           triclinic
_symmetry_space_group_name_H-M   'P -1'
_symmetry_Int_Tables_number      2
_space_group_name_Hall           '-P 1'
loop_
_symmetry_equiv_pos_site_id
_symmetry_equiv_pos_as_xyz
1 x,y,z
2 -x,-y,-z
_cell_length_a                   8.8570(3)
_cell_length_b                   8.8560(4)
_cell_length_c                   22.9240(13)
_cell_angle_alpha                89.4270(13)
_cell_angle_beta                 89.4150(14)
_cell_angle_gamma                62.973(3)
_cell_volume                     1601.62
loop_
_atom_site_label
_atom_site_type_symbol
_atom_site_fract_x
_atom_site_fract_y
_atom_site_fract_z
O1 O -0.2033(5) 0.4834(5) 0.19160(18)
N1 N 0.0668(6) 0.2869(6) 0.0723(2)
C3 C 0.1999(7) -0.0133(7) 0.1073(2)
C5 C 0.3411(7) 0.1776(7) 0.1181(3)
C6 C 0.1724(6) 0.1679(7) 0.1190(2)
C7 C -0.0640(7) 0.4036(8) 0.0973(3)
C8 C 0.0711(7) 0.2330(7) 0.1740(2)
C10 C -0.0687(7) 0.3737(8) 0.1598(3)
C11 C 0.3304(8) -0.1510(9) 0.1353(3)
C12 C 0.4071(7) 0.2139(8) 0.1676(3)
C14 C 0.0972(7) -0.0481(8) 0.0708(3)
C18 C -0.1973(8) 0.5523(9) 0.0647(3)
C21 C -0.2003(8) 0.4424(8) 0.2528(3)
C23 C 0.5583(9) 0.2236(9) 0.1650(4)
C27 C 0.4309(8) 0.1488(8) 0.0666(3)
C31 C 0.3532(8) -0.3139(8) 0.1271(3)
C32 C 0.1207(9) -0.2127(9) 0.0624(3)
C34 C -0.3564(10) 0.5737(11) 0.2817(3)
C35 C 0.2480(11) -0.3429(9) 0.0909(4)
C36 C 0.6474(9) 0.1948(9) 0.1147(5)
C38 C 0.5859(10) 0.1589(10) 0.0649(4)
H6 H 0.391700 0.122800 0.029700
H7 H 0.660600 0.136600 0.028900
H8 H 0.766400 0.197300 0.116000
H9 H 0.608600 0.257500 0.200200
H10 H 0.351600 0.231100 0.203800
H11 H 0.011100 0.046700 0.049600
H12 H 0.032000 -0.234000 0.037500
H13 H 0.241000 -0.457200 0.085000
H14 H 0.429300 -0.409400 0.149700
H15 H 0.400900 -0.123000 0.160700
H22 H 0.096300 0.195900 0.213900
H23 H -0.143300 0.548100 0.025400
H24 H -0.175000 0.657600 0.082000
H25 H -0.280300 0.553700 0.070300
H26 H -0.178400 0.330900 0.257600
H27 H -0.074400 0.434600 0.271600
H28 H -0.336800 0.555700 0.323900
H29 H -0.429900 0.583000 0.264400
H30 H -0.325800 0.686800 0.278300
O1 O 1.2033(5) 0.5166(5) 0.80840(18)
N1 N 0.9332(6) 0.7131(6) 0.9277(2)
C3 C 0.8001(7) 1.0133(7) 0.8927(2)
C5 C 0.6589(7) 0.8224(7) 0.8819(3)
C6 C 0.8276(6) 0.8321(7) 0.8810(2)
C7 C 1.0640(7) 0.5964(8) 0.9027(3)
C8 C 0.9289(7) 0.7670(7) 0.8260(2)
C10 C 1.0687(7) 0.6263(8) 0.8402(3)
C11 C 0.6696(8) 1.1510(9) 0.8647(3)
C12 C 0.5929(7) 0.7861(8) 0.8324(3)
C14 C 0.9028(7) 1.0481(8) 0.9292(3)
C18 C 1.1973(8) 0.4477(9) 0.9353(3)
C21 C 1.2003(8) 0.5576(8) 0.7472(3)
C23 C 0.4417(9) 0.7764(9) 0.8350(4)
C27 C 0.5691(8) 0.8512(8) 0.9334(3)
C31 C 0.6468(8) 1.3139(8) 0.8729(3)
C32 C 0.8793(9) 1.2127(9) 0.9376(3)
C34 C 1.3564(10) 0.4263(11) 0.7183(3)
C35 C 0.7520(11) 1.3429(9) 0.9091(4)
C36 C 0.3526(9) 0.8052(9) 0.8853(5)
C38 C 0.4141(10) 0.8411(10) 0.9351(4)
H6 H 0.608300 0.877200 0.970300
H7 H 0.339400 0.863400 0.971100
H8 H 0.233600 0.802700 0.884000
H9 H 0.391400 0.742500 0.799800
H10 H 0.648400 0.768900 0.796200
H11 H 0.988900 0.953300 0.950400
H12 H 0.968000 1.234000 0.962500
H13 H 0.759000 1.457200 0.915000
H14 H 0.570700 1.409400 0.850300
H15 H 0.599100 1.123000 0.839300
H22 H 0.903700 0.804100 0.786100
H23 H 1.143300 0.451900 0.974600
H24 H 1.175000 0.342400 0.918000
H25 H 1.280300 0.446300 0.929700
H26 H 1.178400 0.669100 0.742400
H27 H 1.074400 0.565400 0.728400
H28 H 1.336800 0.444300 0.676100
H29 H 1.429900 0.417000 0.735600
H30 H 1.325800 0.313200 0.721700
O2 O 0.0161(5) 0.7036(5) 0.30828(18)
N2 N 0.2132(6) 0.4330(6) 0.4275(2)
C1 C 0.5128(7) 0.2985(7) 0.3922(2)
C2 C 0.3334(7) 0.3281(7) 0.3808(2)
C4 C 0.2683(7) 0.4295(7) 0.3249(3)
C9 C 0.5466(7) 0.4008(8) 0.4289(3)
C13 C 0.0973(7) 0.5648(8) 0.4029(3)
C15 C 0.3246(7) 0.1586(7) 0.3820(3)
C16 C 0.2865(8) 0.0943(8) 0.3331(3)
C17 C 0.1267(7) 0.5687(7) 0.3402(3)
C19 C 0.6464(8) 0.1705(8) 0.3642(3)
C20 C 0.0580(8) 0.7003(8) 0.2478(3)
C22 C 0.7120(9) 0.3804(9) 0.4372(3)
C24 C -0.0552(8) 0.7011(8) 0.4356(3)
C25 C 0.3510(8) 0.0694(9) 0.4332(3)
C26 C -0.0818(9) 0.8563(9) 0.2184(3)
C28 C 0.8135(8) 0.1453(9) 0.3719(3)
C29 C 0.2767(8) -0.0580(10) 0.3362(4)
C30 C 0.3038(9) -0.1465(9) 0.3863(5)
C33 C 0.8451(8) 0.2509(9) 0.4081(3)
C37 C 0.3404(10) -0.0827(10) 0.4354(4)
H1 H 0.628300 0.095100 0.337800
H2 H 0.912700 0.052200 0.352100
H3 H 0.973500 0.231800 0.415000
H4 H 0.756400 0.457200 0.463800
H5 H 0.479600 0.491300 0.448900
H16 H 0.275400 0.156800 0.295500
H17 H 0.243400 -0.101000 0.298500
H18 H 0.289000 -0.254000 0.385900
H19 H 0.350700 -0.145600 0.472000
H20 H 0.380800 0.114200 0.469200
H21 H 0.325500 0.415300 0.284800
H31 H 0.206700 0.693400 0.242900
H32 H 0.101100 0.590300 0.230200
O2 O 0.9839(5) 0.2964(5) 0.69172(18)
N2 N 0.7868(6) 0.5670(6) 0.5725(2)
C1 C 0.4872(7) 0.7015(7) 0.6078(2)
C2 C 0.6666(7) 0.6719(7) 0.6192(2)
C4 C 0.7317(7) 0.5705(7) 0.6751(3)
C9 C 0.4534(7) 0.5992(8) 0.5711(3)
C13 C 0.9027(7) 0.4352(8) 0.5971(3)
C15 C 0.6754(7) 0.8414(7) 0.6180(3)
C16 C 0.7135(8) 0.9057(8) 0.6669(3)
C17 C 0.8733(7) 0.4313(7) 0.6598(3)
C19 C 0.3536(8) 0.8295(8) 0.6358(3)
C20 C 0.9420(8) 0.2997(8) 0.7522(3)
C22 C 0.2880(9) 0.6196(9) 0.5628(3)
C24 C 1.0552(8) 0.2989(8) 0.5644(3)
C25 C 0.6490(8) 0.9306(9) 0.5668(3)
C26 C 1.0818(9) 0.1437(9) 0.7816(3)
C28 C 0.1865(8) 0.8547(9) 0.6281(3)
C29 C 0.7233(8) 1.0580(10) 0.6638(4)
C30 C 0.6962(9) 1.1465(9) 0.6137(5)
C33 C 0.1549(8) 0.7491(9) 0.5919(3)
C37 C 0.6596(10) 1.0827(10) 0.5646(4)
H1 H 0.371700 0.904900 0.662200
H2 H 0.087300 0.947800 0.647900
H3 H 0.026500 0.768200 0.585000
H4 H 0.243600 0.542800 0.536200
H5 H 0.520400 0.508700 0.551100
H16 H 0.724600 0.843200 0.704500
H17 H 0.756600 1.101000 0.701500
H18 H 0.711000 1.254000 0.614100
H19 H 0.649300 1.145600 0.528000
H20 H 0.619200 0.885800 0.530800
H21 H 0.674500 0.584700 0.715200
H31 H 0.793300 0.306600 0.757100
H32 H 0.898900 0.409700 0.769800

#END
