
#######################################################################
#
#                 Cambridge Crystallographic Data Centre
#                                CCDC 
#
#######################################################################
#
# If this CIF has been generated from an entry in the Cambridge 
# Structural Database, then it will include bibliographic, chemical, 
# crystal, experimental, refinement or atomic coordinate data resulting 
# from the CCDC's data processing and validation procedures.
#
#######################################################################

data_KAFXIY
_symmetry_cell_setting           triclinic
_symmetry_space_group_name_H-M   'P -1'
_symmetry_Int_Tables_number      2
_space_group_name_Hall           '-P 1'
loop_
_symmetry_equiv_pos_site_id
_symmetry_equiv_pos_as_xyz
1 x,y,z
2 -x,-y,-z
_cell_length_a                   7.183(2)
_cell_length_b                   7.230(3)
_cell_length_c                   11.534(4)
_cell_angle_alpha                91.68(3)
_cell_angle_beta                 102.72(3)
_cell_angle_gamma                117.69(3)
_cell_volume                     511.335
loop_
_atom_site_label
_atom_site_type_symbol
_atom_site_fract_x
_atom_site_fract_y
_atom_site_fract_z
Cl1 Cl 0.3518(1) 0.3426(1) 0.3635(1)
Cl2 Cl 0.1803(1) 0.0805(1) 0.1320(1)
O1 O 0.2568(3) -0.1568(3) 0.3739(2)
C1 C 0.7282(4) -0.0773(4) 0.3362(2)
C2 C 0.5863(4) -0.1641(4) 0.2111(2)
C3 C 0.5737(4) 0.0042(3) 0.2848(2)
C4 C 0.3764(4) -0.0323(3) 0.3233(2)
C5 C 0.3855(4) 0.1670(3) 0.2716(2)
C6 C 0.6223(4) 0.2293(3) 0.2589(2)
C7 C 0.6595(4) 0.2766(3) 0.1371(2)
C8 C 0.7612(4) 0.4970(4) 0.1070(2)
C9 C 0.8837(5) 0.3749(4) 0.1166(2)
C10 C 0.7954(4) 0.3945(4) 0.3639(2)
H1 H 0.879(4) 0.025(4) 0.348(2)
H2 H 0.697(4) -0.160(4) 0.391(2)
H3 H 0.650(4) -0.120(4) 0.144(2)
H4 H 0.463(4) -0.297(4) 0.191(2)
H5 H 0.552(4) 0.181(4) 0.076(2)
H6 H 0.703(4) 0.517(4) 0.035(2)
H7 H 0.814(4) 0.606(4) 0.173(3)
H8 H 0.892(4) 0.318(4) 0.042(2)
H9 H 0.999(4) 0.416(4) 0.184(2)
H10 H 0.766(4) 0.355(3) 0.442(2)
H11 H 0.922(4) 0.404(4) 0.363(2)
H12 H 0.807(4) 0.535(4) 0.359(2)
Cl1 Cl 0.6482(1) 0.6574(1) 0.6365(1)
Cl2 Cl 0.8197(1) 0.9195(1) 0.8680(1)
O1 O 0.7432(3) 1.1568(3) 0.6261(2)
C1 C 0.2718(4) 1.0773(4) 0.6638(2)
C2 C 0.4137(4) 1.1641(4) 0.7889(2)
C3 C 0.4263(4) 0.9958(3) 0.7152(2)
C4 C 0.6236(4) 1.0323(3) 0.6767(2)
C5 C 0.6145(4) 0.8330(3) 0.7284(2)
C6 C 0.3777(4) 0.7707(3) 0.7411(2)
C7 C 0.3405(4) 0.7234(3) 0.8629(2)
C8 C 0.2388(4) 0.5030(4) 0.8930(2)
C9 C 0.1163(5) 0.6251(4) 0.8834(2)
C10 C 0.2046(4) 0.6055(4) 0.6361(2)
H1 H 0.121(4) 0.975(4) 0.652(2)
H2 H 0.303(4) 1.160(4) 0.609(2)
H3 H 0.350(4) 1.120(4) 0.856(2)
H4 H 0.537(4) 1.297(4) 0.809(2)
H5 H 0.448(4) 0.819(4) 0.924(2)
H6 H 0.297(4) 0.483(4) 0.965(2)
H7 H 0.186(4) 0.394(4) 0.827(3)
H8 H 0.108(4) 0.682(4) 0.958(2)
H9 H 0.001(4) 0.584(4) 0.816(2)
H10 H 0.234(4) 0.645(3) 0.558(2)
H11 H 0.078(4) 0.596(4) 0.637(2)
H12 H 0.193(4) 0.465(4) 0.641(2)

#END
