./KAGRUG_from_POSCAR.cif_generated_by_CrystalShift
_symmetry_cell_setting triclinic
_symmetry_space_group_name_H-M 'P 1'
loop_
_symmetry_equiv_pos_site_id
_symmetry_equiv_pos_as_xyz
1 x,y,z
_cell_length_a 9.737000
_cell_length_b 11.435000
_cell_length_c 14.962000
_cell_angle_alpha 91.454000
_cell_angle_beta 102.707000
_cell_angle_gamma 112.455000
_cell_volume 1490.792964
loop_
_atom_site_label
_atom_site_type_symbol
_atom_site_fract_x
_atom_site_fract_y
_atom_site_fract_z
H1 H 0.871200 1.278000 0.459600
H2 H 0.065500 0.421500 0.747100
H3 H -0.038600 0.286700 0.686200
H4 H 0.342700 -0.259800 0.488900
H5 H 1.038600 0.713300 0.313800
H6 H 0.128800 -0.278000 0.540400
H7 H 0.934500 0.578500 0.252900
H8 H 0.003500 -0.140500 0.498000
H9 H 0.308000 0.916200 0.970800
H10 H 0.090400 0.012700 0.403600
H11 H 0.472400 0.916400 1.109800
H12 H 0.520100 0.734500 1.141500
H13 H 0.286100 0.122400 0.312100
H14 H 0.408100 0.555200 1.031500
H15 H 0.498900 0.132500 0.262100
H16 H 0.241400 0.552800 0.892900
H17 H -0.019600 1.020500 0.830800
H18 H 0.705100 -0.071100 0.316000
H19 H -0.207100 1.026700 0.902200
H20 H -0.321100 0.862500 0.985100
H21 H -0.249700 0.689400 0.995700
H22 H -0.064900 0.679600 0.922800
H23 H -0.329200 0.361500 0.317600
H24 H -0.527400 0.350000 0.195000
H25 H -0.653400 0.488700 0.198200
H26 H 1.027000 0.481700 0.378400
H27 H -0.576400 0.642100 0.322800
H28 H -0.408700 0.738600 0.484400
H29 H 1.226800 0.271400 0.389300
H30 H -0.226800 0.728600 0.610700
H31 H 1.408700 0.261400 0.515600
H32 H -0.027000 0.518300 0.621600
H33 H 0.294900 1.071100 0.684000
H34 H 1.576400 0.357900 0.677200
H35 H 0.501100 0.867500 0.737900
H36 H 1.653400 0.511300 0.801800
H37 H 0.713900 0.877600 0.687900
H38 H 1.527400 0.650000 0.805000
H39 H 0.909600 0.987300 0.596400
H40 H 1.329200 0.638500 0.682400
H41 H 0.996500 1.140500 0.502000
H42 H 0.657300 1.259800 0.511100
H43 H 0.692000 0.083800 0.029200
H44 H 0.527600 0.083600 -0.109800
H45 H 1.064900 0.320400 0.077200
H46 H 0.479900 0.265500 -0.141500
H47 H 1.249700 0.310600 0.004300
H48 H 0.591900 0.444800 -0.031500
H49 H 1.321100 0.137500 0.014900
H50 H 0.758600 0.447200 0.107100
H51 H 1.207100 -0.026700 0.097800
H52 H 1.019600 -0.020500 0.169200
C53 C 1.066600 0.047300 0.136130
C54 C 0.744500 0.265850 0.082170
C55 C 0.712400 0.373100 0.063200
C56 C 1.177400 0.043500 0.093390
C57 C 0.613500 0.371600 -0.019380
C58 C 1.245400 0.141000 0.044330
C59 C 0.545800 0.265000 -0.084480
C60 C 1.203200 0.243800 0.038150
C61 C 0.574900 0.157700 -0.065880
C62 C 1.093100 0.249480 0.081300
C63 C 0.673100 0.158100 0.016830
C64 C 1.023800 0.151360 0.130620
C65 C 0.350100 -0.109420 0.414410
C66 C 0.649900 1.109420 0.585590
C67 C 0.707000 1.203800 0.528490
C68 C 0.293000 -0.203800 0.471510
C69 C 0.833700 1.214700 0.498120
C70 C 0.166300 -0.214700 0.501880
C71 C 0.908900 1.132400 0.523640
C72 C 1.336700 0.494610 0.600500
C73 C 0.857100 1.041400 0.579130
C74 C 1.380500 0.583100 0.679750
C75 C 0.725700 1.026570 0.611280
C76 C 0.666500 0.934890 0.669300
C77 C 1.496800 0.588900 0.752630
C78 C 0.541600 0.928620 0.698610
C79 C 1.571900 0.505300 0.750970
C80 C 0.472500 1.014930 0.669540
C81 C 0.339600 1.011920 0.701680
C82 C 1.528000 0.416000 0.676740
C83 C 0.091100 -0.132400 0.476360
C84 C 0.979900 0.671700 0.250580
C85 C 0.097400 0.846750 0.825780
C86 C 0.142800 0.733680 0.833830
C87 C 0.142900 -0.041400 0.420870
C88 C 0.326900 0.841900 0.983170
C89 C -0.072900 0.577350 0.626430
C90 C 1.410900 0.409110 0.598900
C91 C -0.189600 0.583490 0.548270
C92 C -0.256700 0.672890 0.555360
C93 C 1.364900 0.322310 0.518400
C94 C -0.364900 0.677690 0.481600
C95 C 1.256700 0.327110 0.444640
C96 C -0.410900 0.590890 0.401100
C97 C -0.528000 0.584000 0.323260
C98 C 1.189600 0.416510 0.451730
C99 C -0.571900 0.494700 0.249030
C100 C 1.072900 0.422650 0.373570
C101 C -0.496800 0.411100 0.247370
C102 C 0.274300 -0.026570 0.388720
C103 C -0.380500 0.416900 0.320250
C104 C 0.425100 0.842300 1.065880
C105 C -0.336700 0.505390 0.399500
C106 C 0.333500 0.065110 0.330700
C107 C -0.023800 0.848640 0.869380
C108 C -0.093100 0.750520 0.918700
C109 C 0.857200 0.266320 0.166170
C110 C -0.203200 0.756200 0.961850
C111 C 0.902600 0.153250 0.174220
C112 C -0.245400 0.859000 0.955670
C113 C 0.454200 0.735000 1.084480
C114 C -0.177400 0.956500 0.906610
C115 C 0.458400 0.071380 0.301390
C116 C -0.066600 0.952700 0.863870
C117 C 0.660400 -0.011920 0.298320
C118 C 0.255500 0.734150 0.917830
C119 C 0.287600 0.626900 0.936800
C120 C 0.527500 -0.014930 0.330460
C121 C 0.386500 0.628400 1.019380
C122 C 0.020100 0.328300 0.749420
N123 N 0.835430 0.058190 0.215470
N124 N -0.224950 0.503790 0.473120
N125 N 0.920860 0.363630 0.228680
N126 N 1.033030 0.348290 0.299070
N127 N -0.033030 0.651710 0.700930
N128 N 0.079140 0.636370 0.771320
N129 N 0.164570 0.941810 0.784530
N130 N 0.284820 0.928810 0.753700
N131 N 0.476440 -0.102820 0.384960
N132 N 1.224950 0.496210 0.526880
N133 N 0.523560 1.102820 0.615040
N134 N 0.715180 0.071190 0.246300
Cl135 Cl 0.831760 0.724770 0.213370
Cl136 Cl 0.168240 0.275230 0.786630
Cl137 Cl -0.106030 0.294760 0.822390
Cl138 Cl 1.106030 0.705240 0.177610

#END
