
#######################################################################
#
#                 Cambridge Crystallographic Data Centre
#                                CCDC 
#
#######################################################################
#
# If this CIF has been generated from an entry in the Cambridge 
# Structural Database, then it will include bibliographic, chemical, 
# crystal, experimental, refinement or atomic coordinate data resulting 
# from the CCDC's data processing and validation procedures.
#
#######################################################################

data_KAGRAO
_symmetry_cell_setting           monoclinic
_symmetry_space_group_name_H-M   'P 21/n'
_symmetry_Int_Tables_number      14
_space_group_name_Hall           '-P 2yn'
loop_
_symmetry_equiv_pos_site_id
_symmetry_equiv_pos_as_xyz
1 x,y,z
2 1/2-x,1/2+y,1/2-z
3 -x,-y,-z
4 1/2+x,1/2-y,1/2+z
_cell_length_a                   11.4222(6)
_cell_length_b                   5.4888(3)
_cell_length_c                   19.7338(12)
_cell_angle_alpha                90
_cell_angle_beta                 100.562(2)
_cell_angle_gamma                90
_cell_volume                     1216.23
loop_
_atom_site_label
_atom_site_type_symbol
_atom_site_fract_x
_atom_site_fract_y
_atom_site_fract_z
C1 C 0.44878(11) -0.1182(2) 0.70950(6)
H1 H 0.4407 -0.256 0.6799
C2 C 0.38098(12) -0.0693(3) 0.75799(7)
H2 H 0.3175 -0.1662 0.7682
C3 C 0.42263(12) 0.1525(3) 0.79028(7)
H3 H 0.3923 0.2316 0.8262
C4 C 0.51414(12) 0.2321(2) 0.76046(6)
H4 H 0.5587 0.3772 0.772
N1 N 0.53097(9) 0.06617(18) 0.71071(5)
C5 C 0.61830(11) 0.0807(2) 0.66793(6)
C6 C 0.71766(11) 0.2289(2) 0.68629(6)
H5 H 0.7256 0.3256 0.7268
C7 C 0.80552(11) 0.2375(2) 0.64605(6)
H6 H 0.8722 0.342 0.6588
C8 C 0.79634(11) 0.0939(2) 0.58729(6)
O1 O 0.88016(8) 0.08312(18) 0.54635(5)
C9 C 0.97973(15) 0.2436(3) 0.56298(9)
H7 H 0.9515 0.4123 0.5624
H8 H 1.0317 0.2243 0.529
H9 H 1.0243 0.2042 0.609
C10 C 0.69471(11) -0.0522(2) 0.56828(6)
C11 C 0.60592(11) -0.0567(2) 0.60756(6)
H10 H 0.5367 -0.1531 0.5934
N2 N 0.68208(9) -0.20133(18) 0.50809(5)
C12 C 0.70124(11) -0.1364(2) 0.44324(6)
H11 H 0.7284 0.0163 0.4296
C13 C 0.67320(11) -0.3362(2) 0.40346(6)
H12 H 0.6775 -0.3451 0.3559
N3 N 0.63744(10) -0.5255(2) 0.44096(5)
C14 C 0.64359(12) -0.4369(2) 0.50325(6)
H13 H 0.6235 -0.5265 0.5407
C1 C 1.05122(11) 0.3818(2) 0.79050(6)
H1 H 1.0593 0.244 0.8201
C2 C 1.11902(12) 0.4307(3) 0.74201(7)
H2 H 1.1825 0.3338 0.7318
C3 C 1.07737(12) 0.6525(3) 0.70972(7)
H3 H 1.1077 0.7316 0.6738
C4 C 0.98586(12) 0.7321(2) 0.73954(6)
H4 H 0.9413 0.8772 0.728
N1 N 0.96903(9) 0.56617(18) 0.78929(5)
C5 C 0.88170(11) 0.5807(2) 0.83207(6)
C6 C 0.78234(11) 0.7289(2) 0.81371(6)
H5 H 0.7744 0.8256 0.7732
C7 C 0.69448(11) 0.7375(2) 0.85395(6)
H6 H 0.6278 0.842 0.8412
C8 C 0.70366(11) 0.5939(2) 0.91271(6)
O1 O 0.61984(8) 0.58312(18) 0.95365(5)
C9 C 0.52027(15) 0.7436(3) 0.93702(9)
H7 H 0.5485 0.9123 0.9376
H8 H 0.4683 0.7243 0.971
H9 H 0.4757 0.7042 0.891
C10 C 0.80529(11) 0.4478(2) 0.93172(6)
C11 C 0.89408(11) 0.4433(2) 0.89244(6)
H10 H 0.9633 0.3469 0.9066
N2 N 0.81792(9) 0.29867(18) 0.99191(5)
C12 C 0.79876(11) 0.3636(2) 1.05676(6)
H11 H 0.7716 0.5163 1.0704
C13 C 0.82680(11) 0.1638(2) 1.09654(6)
H12 H 0.8225 0.1549 1.1441
N3 N 0.86256(10) -0.0255(2) 1.05904(5)
C14 C 0.85641(12) 0.0631(2) 0.99675(6)
H13 H 0.8765 -0.0265 0.9593
C1 C 0.55122(11) 1.1182(2) 0.29050(6)
H1 H 0.5593 1.256 0.3201
C2 C 0.61902(12) 1.0693(3) 0.24201(7)
H2 H 0.6825 1.1662 0.2318
C3 C 0.57737(12) 0.8475(3) 0.20972(7)
H3 H 0.6077 0.7684 0.1738
C4 C 0.48586(12) 0.7679(2) 0.23954(6)
H4 H 0.4413 0.6228 0.228
N1 N 0.46903(9) 0.93383(18) 0.28929(5)
C5 C 0.38170(11) 0.9193(2) 0.33207(6)
C6 C 0.28234(11) 0.7711(2) 0.31371(6)
H5 H 0.2744 0.6744 0.2732
C7 C 0.19448(11) 0.7625(2) 0.35395(6)
H6 H 0.1278 0.658 0.3412
C8 C 0.20366(11) 0.9061(2) 0.41271(6)
O1 O 0.11984(8) 0.91688(18) 0.45365(5)
C9 C 0.02027(15) 0.7564(3) 0.43702(9)
H7 H 0.0485 0.5877 0.4376
H8 H -0.0317 0.7757 0.471
H9 H -0.0243 0.7958 0.391
C10 C 0.30529(11) 1.0522(2) 0.43172(6)
C11 C 0.39408(11) 1.0567(2) 0.39244(6)
H10 H 0.4633 1.1531 0.4066
N2 N 0.31792(9) 1.20133(18) 0.49191(5)
C12 C 0.29876(11) 1.1364(2) 0.55676(6)
H11 H 0.2716 0.9837 0.5704
C13 C 0.32680(11) 1.3362(2) 0.59654(6)
H12 H 0.3225 1.3451 0.6441
N3 N 0.36256(10) 1.5255(2) 0.55904(5)
C14 C 0.35641(12) 1.4369(2) 0.49675(6)
H13 H 0.3765 1.5265 0.4593
C1 C -0.05122(11) 0.6182(2) 0.20950(6)
H1 H -0.0593 0.756 0.1799
C2 C -0.11902(12) 0.5693(3) 0.25799(7)
H2 H -0.1825 0.6662 0.2682
C3 C -0.07737(12) 0.3475(3) 0.29028(7)
H3 H -0.1077 0.2684 0.3262
C4 C 0.01414(12) 0.2679(2) 0.26046(6)
H4 H 0.0587 0.1228 0.272
N1 N 0.03097(9) 0.43383(18) 0.21071(5)
C5 C 0.11830(11) 0.4193(2) 0.16793(6)
C6 C 0.21766(11) 0.2711(2) 0.18629(6)
H5 H 0.2256 0.1744 0.2268
C7 C 0.30552(11) 0.2625(2) 0.14605(6)
H6 H 0.3722 0.158 0.1588
C8 C 0.29634(11) 0.4061(2) 0.08729(6)
O1 O 0.38016(8) 0.41688(18) 0.04635(5)
C9 C 0.47973(15) 0.2564(3) 0.06298(9)
H7 H 0.4515 0.0877 0.0624
H8 H 0.5317 0.2757 0.029
H9 H 0.5243 0.2958 0.109
C10 C 0.19471(11) 0.5522(2) 0.06828(6)
C11 C 0.10592(11) 0.5567(2) 0.10756(6)
H10 H 0.0367 0.6531 0.0934
N2 N 0.18208(9) 0.70133(18) 0.00809(5)
C12 C 0.20124(11) 0.6364(2) -0.05676(6)
H11 H 0.2284 0.4837 -0.0704
C13 C 0.17320(11) 0.8362(2) -0.09654(6)
H12 H 0.1775 0.8451 -0.1441
N3 N 0.13744(10) 1.0255(2) -0.05904(5)
C14 C 0.14359(12) 0.9369(2) 0.00325(6)
H13 H 0.1235 1.0265 0.0407

#END
