
#######################################################################
#
#                 Cambridge Crystallographic Data Centre
#                                CCDC 
#
#######################################################################
#
# If this CIF has been generated from an entry in the Cambridge 
# Structural Database, then it will include bibliographic, chemical, 
# crystal, experimental, refinement or atomic coordinate data resulting 
# from the CCDC's data processing and validation procedures.
#
#######################################################################

data_MAPXOR
_symmetry_cell_setting           monoclinic
_symmetry_space_group_name_H-M   'P 21/c'
_symmetry_Int_Tables_number      14
_space_group_name_Hall           '-P 2ybc'
loop_
_symmetry_equiv_pos_site_id
_symmetry_equiv_pos_as_xyz
1 x,y,z
2 -x,1/2+y,1/2-z
3 -x,-y,-z
4 x,1/2-y,1/2+z
_cell_length_a                   8.9200(10)
_cell_length_b                   16.524(2)
_cell_length_c                   9.8570(10)
_cell_angle_alpha                90
_cell_angle_beta                 93.836(10)
_cell_angle_gamma                90
_cell_volume                     1449.61
loop_
_atom_site_label
_atom_site_type_symbol
_atom_site_fract_x
_atom_site_fract_y
_atom_site_fract_z
O1 O 1.04586 0.24999 0.49624
N1 N 1.21200 0.11261 0.59280
H1 H 1.12135 0.07897 0.56285
H2 H 1.23975 0.13413 0.50202
N2 N 0.99093 0.28325 0.71113
H3 H 1.01740 0.27310 0.81080
C1 C 1.17670 0.17884 0.68120
H4 H 1.27976 0.21074 0.71096
H5 H 1.13396 0.15387 0.77258
C2 C 1.06300 0.23984 0.62068
C3 C 0.88810 0.35104 0.67619
C4 C 0.83230 0.38151 0.81130
H6 H 0.77272 0.33331 0.85916
H7 H 0.75750 0.43243 0.79185
H8 H 0.92743 0.40028 0.87792
C5 C 0.75130 0.32013 0.58836
C6 C 0.67910 0.36569 0.48439
H9 H 0.72588 0.42332 0.45633
C7 C 0.54760 0.33775 0.41640
H10 H 0.49298 0.37384 0.33577
C8 C 0.48570 0.26421 0.45070
H11 H 0.38320 0.24276 0.39745
C9 C 0.55640 0.21864 0.55380
H12 H 0.50920 0.16102 0.58139
C10 C 0.68720 0.24636 0.62179
H13 H 0.74088 0.21005 0.70261
C11 C 0.97220 0.41937 0.60447
H14 H 0.99332 0.39960 0.50275
H15 H 0.90005 0.47206 0.59509
C12 C 1.11980 0.44360 0.67756
C13 C 1.25330 0.40637 0.64760
H16 H 1.25159 0.36069 0.56872
C14 C 1.38860 0.42656 0.71650
H17 H 1.49089 0.39627 0.69164
C15 C 1.39360 0.48532 0.81720
H18 H 1.49908 0.50069 0.87193
C16 C 1.26180 0.52415 0.84710
H19 H 1.26442 0.57060 0.92473
C17 C 1.12650 0.50368 0.77760
H20 H 1.02459 0.53471 0.80142
O1 O -0.04586 0.74999 1.00376
N1 N -0.21200 0.61261 0.90720
H1 H -0.12135 0.57897 0.93715
H2 H -0.23975 0.63413 0.99798
N2 N 0.00907 0.78325 0.78887
H3 H -0.01740 0.77310 0.68920
C1 C -0.17670 0.67884 0.81880
H4 H -0.27976 0.71074 0.78904
H5 H -0.13396 0.65387 0.72742
C2 C -0.06300 0.73984 0.87932
C3 C 0.11190 0.85104 0.82381
C4 C 0.16770 0.88151 0.68870
H6 H 0.22728 0.83331 0.64084
H7 H 0.24250 0.93243 0.70815
H8 H 0.07257 0.90028 0.62208
C5 C 0.24870 0.82013 0.91164
C6 C 0.32090 0.86569 1.01561
H9 H 0.27412 0.92332 1.04367
C7 C 0.45240 0.83775 1.08360
H10 H 0.50702 0.87384 1.16423
C8 C 0.51430 0.76421 1.04930
H11 H 0.61680 0.74276 1.10255
C9 C 0.44360 0.71864 0.94620
H12 H 0.49080 0.66102 0.91861
C10 C 0.31280 0.74636 0.87821
H13 H 0.25912 0.71005 0.79739
C11 C 0.02780 0.91937 0.89553
H14 H 0.00668 0.89960 0.99725
H15 H 0.09995 0.97206 0.90491
C12 C -0.11980 0.94360 0.82244
C13 C -0.25330 0.90637 0.85240
H16 H -0.25159 0.86069 0.93128
C14 C -0.38860 0.92656 0.78350
H17 H -0.49089 0.89627 0.80836
C15 C -0.39360 0.98532 0.68280
H18 H -0.49908 1.00069 0.62807
C16 C -0.26180 1.02415 0.65290
H19 H -0.26442 1.07060 0.57527
C17 C -0.12650 1.00368 0.72240
H20 H -0.02459 1.03471 0.69858
O1 O -0.04586 0.75001 0.50376
N1 N -0.21200 0.88739 0.40720
H1 H -0.12135 0.92103 0.43715
H2 H -0.23975 0.86587 0.49798
N2 N 0.00907 0.71675 0.28887
H3 H -0.01740 0.72690 0.18920
C1 C -0.17670 0.82116 0.31880
H4 H -0.27976 0.78926 0.28904
H5 H -0.13396 0.84613 0.22742
C2 C -0.06300 0.76016 0.37932
C3 C 0.11190 0.64896 0.32381
C4 C 0.16770 0.61849 0.18870
H6 H 0.22728 0.66669 0.14084
H7 H 0.24250 0.56757 0.20815
H8 H 0.07257 0.59972 0.12208
C5 C 0.24870 0.67987 0.41164
C6 C 0.32090 0.63431 0.51561
H9 H 0.27412 0.57668 0.54367
C7 C 0.45240 0.66225 0.58360
H10 H 0.50702 0.62616 0.66423
C8 C 0.51430 0.73579 0.54930
H11 H 0.61680 0.75724 0.60255
C9 C 0.44360 0.78136 0.44620
H12 H 0.49080 0.83898 0.41861
C10 C 0.31280 0.75364 0.37821
H13 H 0.25912 0.78995 0.29739
C11 C 0.02780 0.58063 0.39553
H14 H 0.00668 0.60040 0.49725
H15 H 0.09995 0.52794 0.40491
C12 C -0.11980 0.55640 0.32244
C13 C -0.25330 0.59363 0.35240
H16 H -0.25159 0.63931 0.43128
C14 C -0.38860 0.57344 0.28350
H17 H -0.49089 0.60373 0.30836
C15 C -0.39360 0.51468 0.18280
H18 H -0.49908 0.49931 0.12807
C16 C -0.26180 0.47585 0.15290
H19 H -0.26442 0.42940 0.07527
C17 C -0.12650 0.49632 0.22240
H20 H -0.02459 0.46529 0.19858
O1 O 1.04586 0.25001 -0.00376
N1 N 1.21200 0.38739 0.09280
H1 H 1.12135 0.42103 0.06285
H2 H 1.23975 0.36587 0.00202
N2 N 0.99093 0.21675 0.21113
H3 H 1.01740 0.22690 0.31080
C1 C 1.17670 0.32116 0.18120
H4 H 1.27976 0.28926 0.21096
H5 H 1.13396 0.34613 0.27258
C2 C 1.06300 0.26016 0.12068
C3 C 0.88810 0.14896 0.17619
C4 C 0.83230 0.11849 0.31130
H6 H 0.77272 0.16669 0.35916
H7 H 0.75750 0.06757 0.29185
H8 H 0.92743 0.09972 0.37792
C5 C 0.75130 0.17987 0.08836
C6 C 0.67910 0.13431 -0.01561
H9 H 0.72588 0.07668 -0.04367
C7 C 0.54760 0.16225 -0.08360
H10 H 0.49298 0.12616 -0.16423
C8 C 0.48570 0.23579 -0.04930
H11 H 0.38320 0.25724 -0.10255
C9 C 0.55640 0.28136 0.05380
H12 H 0.50920 0.33898 0.08139
C10 C 0.68720 0.25364 0.12179
H13 H 0.74088 0.28995 0.20261
C11 C 0.97220 0.08063 0.10447
H14 H 0.99332 0.10040 0.00275
H15 H 0.90005 0.02794 0.09509
C12 C 1.11980 0.05640 0.17756
C13 C 1.25330 0.09363 0.14760
H16 H 1.25159 0.13931 0.06872
C14 C 1.38860 0.07344 0.21650
H17 H 1.49089 0.10373 0.19164
C15 C 1.39360 0.01468 0.31720
H18 H 1.49908 -0.00069 0.37193
C16 C 1.26180 -0.02415 0.34710
H19 H 1.26442 -0.07060 0.42473
C17 C 1.12650 -0.00368 0.27760
H20 H 1.02459 -0.03471 0.30142

#END
