./MAPYNM_from_xyz.cif_generated_by_CrystalShift
_symmetry_cell_setting triclinic
_symmetry_space_group_name_H-M 'P 1'
loop_
_symmetry_equiv_pos_site_id
_symmetry_equiv_pos_as_xyz
1 x,y,z
_cell_length_a 8.886000
_cell_length_b 8.235000
_cell_length_c 7.871000
_cell_angle_alpha 90.380000
_cell_angle_beta 79.780000
_cell_angle_gamma 63.220000
_cell_volume 503.572087
loop_
_atom_site_label
_atom_site_type_symbol
_atom_site_fract_x
_atom_site_fract_y
_atom_site_fract_z
O1 O 0.097500 0.221400 0.438600
O2 O 0.279000 0.275300 0.550600
O3 O 0.170300 0.161900 0.100200
O4 O 0.381200 0.211800 -0.028600
N5 N 0.468400 0.266200 0.258100
N6 N 0.304600 0.575400 0.239400
N7 N 0.227300 0.244100 0.421900
N8 N 0.288400 0.200900 0.105600
C9 C 0.620400 0.117800 0.270500
C10 C 0.759200 0.140600 0.279500
C11 C 0.749000 0.314500 0.275400
C12 C 0.600000 0.461200 0.263400
C13 C 0.453200 0.439700 0.253100
C14 C 0.271400 0.764000 0.236700
C15 C 0.323500 0.237800 0.261300
H16 H 0.610000 -0.004000 0.274000
H17 H 0.861000 0.030000 0.290000
H18 H 0.853000 0.331000 0.286000
H19 H 0.591000 0.580000 0.268000
H20 H 0.202000 0.558000 0.223000
H21 H 0.153000 0.846000 0.240000
H22 H 0.303000 0.803000 0.335000
H23 H 0.338000 0.782000 0.134000
O24 O 0.902500 0.778600 0.561400
O25 O 0.721000 0.724700 0.449400
O26 O 0.829700 0.838100 0.899800
O27 O 0.618800 0.788200 1.028600
N28 N 0.531600 0.733800 0.741900
N29 N 0.695400 0.424600 0.760600
N30 N 0.772700 0.755900 0.578100
N31 N 0.711600 0.799100 0.894400
C32 C 0.379600 0.882200 0.729500
C33 C 0.240800 0.859400 0.720500
C34 C 0.251000 0.685500 0.724600
C35 C 0.400000 0.538800 0.736600
C36 C 0.546800 0.560300 0.746900
C37 C 0.728600 0.236000 0.763300
C38 C 0.676500 0.762200 0.738700
H39 H 0.390000 1.004000 0.726000
H40 H 0.139000 0.970000 0.710000
H41 H 0.147000 0.669000 0.714000
H42 H 0.409000 0.420000 0.732000
H43 H 0.798000 0.442000 0.777000
H44 H 0.847000 0.154000 0.760000
H45 H 0.697000 0.197000 0.665000
H46 H 0.662000 0.218000 0.866000
O47 O 1.002800 0.599300 0.163100
H48 H 0.901000 0.644000 0.265000
H49 H 0.943000 0.680000 0.076000
O50 O -0.002800 0.400700 0.836900
H51 H 0.099000 0.356000 0.735000
H52 H 0.057000 0.320000 0.924000

#END
