./MAQCIR_from_xyz.cif_generated_by_CrystalShift
_symmetry_cell_setting triclinic
_symmetry_space_group_name_H-M 'P 1'
loop_
_symmetry_equiv_pos_site_id
_symmetry_equiv_pos_as_xyz
1 x,y,z
_cell_length_a 6.947000
_cell_length_b 6.246000
_cell_length_c 10.760000
_cell_angle_alpha 90.000000
_cell_angle_beta 104.230000
_cell_angle_gamma 90.000000
_cell_volume 452.561138
loop_
_atom_site_label
_atom_site_type_symbol
_atom_site_fract_x
_atom_site_fract_y
_atom_site_fract_z
O1 O 0.652360 0.250000 0.151440
C2 C 0.623600 0.250000 0.411450
N3 N 0.543000 0.250000 0.508000
O4 O 0.339500 0.250000 0.456940
N5 N 0.293700 0.250000 0.326130
C6 C 0.463900 0.250000 0.298950
N7 N 0.481170 0.250000 0.168100
N8 N 0.316360 0.250000 0.082940
C9 C 0.326600 0.250000 -0.044150
N10 N 0.484000 0.250000 -0.091390
O11 O 0.406800 0.250000 -0.222150
N12 N 0.199500 0.250000 -0.253900
C13 C 0.148900 0.250000 -0.146030
C14 C 0.841300 0.250000 0.427700
H15 H 0.879000 0.129000 0.383000
H16 H 0.896000 0.250000 0.526000
C17 C -0.060300 0.250000 -0.135800
H18 H -0.142000 0.250000 -0.212000
H19 H -0.092000 0.131300 -0.088000
H20 H 0.879000 0.371000 0.383000
H21 H -0.092000 0.368700 -0.088000
O22 O 0.347640 0.750000 0.848560
C23 C 0.376400 0.750000 0.588550
N24 N 0.457000 0.750000 0.492000
O25 O 0.660500 0.750000 0.543060
N26 N 0.706300 0.750000 0.673870
C27 C 0.536100 0.750000 0.701050
N28 N 0.518830 0.750000 0.831900
N29 N 0.683640 0.750000 0.917060
C30 C 0.673400 0.750000 1.044150
N31 N 0.516000 0.750000 1.091390
O32 O 0.593200 0.750000 1.222150
N33 N 0.800500 0.750000 1.253900
C34 C 0.851100 0.750000 1.146030
C35 C 0.158700 0.750000 0.572300
H36 H 0.121000 0.629000 0.617000
H37 H 0.104000 0.750000 0.474000
C38 C 1.060300 0.750000 1.135800
H39 H 1.142000 0.750000 1.212000
H40 H 1.092000 0.631300 1.088000
H41 H 0.121000 0.871000 0.617000
H42 H 1.092000 0.868700 1.088000

#END
