./MAQCEN_from_xyz.cif_generated_by_CrystalShift
_symmetry_cell_setting triclinic
_symmetry_space_group_name_H-M 'P 1'
loop_
_symmetry_equiv_pos_site_id
_symmetry_equiv_pos_as_xyz
1 x,y,z
_cell_length_a 6.720200
_cell_length_b 8.400200
_cell_length_c 13.938000
_cell_angle_alpha 94.599000
_cell_angle_beta 101.385000
_cell_angle_gamma 94.682000
_cell_volume 765.015519
loop_
_atom_site_label
_atom_site_type_symbol
_atom_site_fract_x
_atom_site_fract_y
_atom_site_fract_z
C1 C 0.567400 0.277970 0.145820
O2 O 0.539700 -0.015220 0.254870
N3 N 0.496500 0.416320 0.127110
O4 O 0.437920 0.475300 0.212850
N5 N 0.477500 0.374620 0.285120
C6 C 0.554900 0.256720 0.245170
N7 N 0.596460 0.120440 0.300360
N8 N 0.681890 0.156210 0.390890
C9 C 0.710500 0.032060 0.450110
N10 N 0.669000 -0.123400 0.423970
O11 O 0.724010 -0.194640 0.508520
N12 N 0.801400 -0.081380 0.590390
C13 C 0.795000 0.059190 0.554750
N14 N 0.627190 0.178560 0.077020
C15 C 0.615900 0.233500 -0.021260
H16 H 0.500000 0.299000 -0.033400
H17 H 0.596000 0.140000 -0.070900
C18 C 0.812600 0.327800 -0.027350
H19 H 0.833000 0.420000 0.018200
H20 H 0.812000 0.347000 -0.093700
O21 O 0.980380 0.233500 -0.004590
C22 C 0.999100 0.189600 0.092910
H23 H 1.113000 0.125000 0.106700
H24 H 1.029000 0.286000 0.141900
C25 C 0.808000 0.091900 0.105160
H26 H 0.784000 -0.014000 0.059600
H27 H 0.822000 0.073000 0.170600
N28 N 0.870300 0.197980 0.611440
C29 C 0.797500 0.354040 0.590810
H30 H 0.765000 0.363000 0.521200
H31 H 0.676000 0.365000 0.625100
C32 C 0.966300 0.483500 0.637070
H33 H 0.905000 0.582000 0.629300
H34 H 1.086000 0.474000 0.605100
O35 O 1.028940 0.475480 0.740210
C36 C 1.101700 0.324600 0.758410
H37 H 1.223000 0.316000 0.728000
H38 H 1.136000 0.326000 0.826800
C39 C 0.942200 0.187000 0.716490
H40 H 1.004000 0.085000 0.724100
H41 H 0.832000 0.191000 0.749500
C42 C 0.432600 0.722030 0.854180
O43 O 0.460300 1.015220 0.745130
N44 N 0.503500 0.583680 0.872890
O45 O 0.562080 0.524700 0.787150
N46 N 0.522500 0.625380 0.714880
C47 C 0.445100 0.743280 0.754830
N48 N 0.403540 0.879560 0.699640
N49 N 0.318110 0.843790 0.609110
C50 C 0.289500 0.967940 0.549890
N51 N 0.331000 1.123400 0.576030
O52 O 0.275990 1.194640 0.491480
N53 N 0.198600 1.081380 0.409610
C54 C 0.205000 0.940810 0.445250
N55 N 0.372810 0.821440 0.922980
C56 C 0.384100 0.766500 1.021260
H57 H 0.500000 0.701000 1.033400
H58 H 0.404000 0.860000 1.070900
C59 C 0.187400 0.672200 1.027350
H60 H 0.167000 0.580000 0.981800
H61 H 0.188000 0.653000 1.093700
O62 O 0.019620 0.766500 1.004590
C63 C 0.000900 0.810400 0.907090
H64 H -0.113000 0.875000 0.893300
H65 H -0.029000 0.714000 0.858100
C66 C 0.192000 0.908100 0.894840
H67 H 0.216000 1.014000 0.940400
H68 H 0.178000 0.927000 0.829400
N69 N 0.129700 0.802020 0.388560
C70 C 0.202500 0.645960 0.409190
H71 H 0.235000 0.637000 0.478800
H72 H 0.324000 0.635000 0.374900
C73 C 0.033700 0.516500 0.362930
H74 H 0.095000 0.418000 0.370700
H75 H -0.086000 0.526000 0.394900
O76 O -0.028940 0.524520 0.259790
C77 C -0.101700 0.675400 0.241590
H78 H -0.223000 0.684000 0.272000
H79 H -0.136000 0.674000 0.173200
C80 C 0.057800 0.813000 0.283510
H81 H -0.004000 0.915000 0.275900
H82 H 0.168000 0.809000 0.250500

#END
