
#######################################################################
#
#                 Cambridge Crystallographic Data Centre
#                                CCDC 
#
#######################################################################
#
# If this CIF has been generated from an entry in the Cambridge 
# Structural Database, then it will include bibliographic, chemical, 
# crystal, experimental, refinement or atomic coordinate data resulting 
# from the CCDC's data processing and validation procedures.
#
#######################################################################

data_MAQCEP
_symmetry_cell_setting           monoclinic
_symmetry_space_group_name_H-M   'P 21/c'
_symmetry_Int_Tables_number      14
_space_group_name_Hall           '-P 2ybc'
loop_
_symmetry_equiv_pos_site_id
_symmetry_equiv_pos_as_xyz
1 x,y,z
2 -x,1/2+y,1/2-z
3 -x,-y,-z
4 x,1/2-y,1/2+z
_cell_length_a                   16.296(2)
_cell_length_b                   7.8412(15)
_cell_length_c                   14.255(2)
_cell_angle_alpha                90
_cell_angle_beta                 113.171(6)
_cell_angle_gamma                90
_cell_volume                     1674.57
loop_
_atom_site_label
_atom_site_type_symbol
_atom_site_fract_x
_atom_site_fract_y
_atom_site_fract_z
O1 O 0.12167(8) 0.13995(18) 0.31375(9)
O2 O 0.49887(7) -0.05889(15) 0.66744(9)
O3 O 0.64993(7) 0.28210(15) 0.69380(9)
O4 O 0.52987(7) 0.54553(15) 0.62877(9)
O5 O 0.62100(8) 0.71633(16) 0.75222(9)
H1 H 0.5740(14) 0.803(3) 0.7221(16)
N1 N -0.10307(10) 0.1219(2) 0.24878(12)
N2 N -0.20251(12) 0.2013(2) -0.04946(13)
N3 N 0.47775(9) 0.19789(19) 0.58606(10)
H2 H 0.4970(12) 0.310(2) 0.5904(13)
C1 C 0.09517(11) 0.1789(2) 0.21295(13)
C2 C 0.00307(11) 0.1805(2) 0.15719(13)
C3 C -0.03112(12) 0.2176(2) 0.05152(13)
C4 C 0.02628(13) 0.2554(3) 0.00495(14)
H3 H 0.0035 0.2820 -0.0657
C5 C 0.11792(13) 0.2544(3) 0.06216(14)
H4 H 0.1574 0.2816 0.0300
C6 C 0.15244(12) 0.2144(2) 0.16476(14)
H5 H 0.2152 0.2112 0.2022
C7 C -0.05615(11) 0.1465(2) 0.20825(13)
C8 C -0.12707(13) 0.2114(3) -0.00564(14)
C9 C 0.21361(11) 0.1544(2) 0.37759(12)
C10 C 0.26293(11) 0.0077(2) 0.40790(13)
H6 H 0.2372 -0.0998 0.3817
C11 C 0.35146(11) 0.0183(2) 0.47768(12)
H7 H 0.3865 -0.0821 0.4996
C12 C 0.38802(10) 0.1767(2) 0.51488(12)
C13 C 0.33726(11) 0.3244(2) 0.48262(13)
H8 H 0.3628 0.4324 0.5081
C14 C 0.24888(11) 0.3133(2) 0.41283(13)
H9 H 0.2136 0.4131 0.3900
C15 C 0.52504(10) 0.0857(2) 0.65741(12)
C16 C 0.61519(11) 0.1471(2) 0.73318(13)
H10 H 0.6090 0.1861 0.7961
H11 H 0.6578 0.0507 0.7516
C17 C 0.67001(11) 0.4360(2) 0.75069(13)
H12 H 0.7281 0.4804 0.7545
H13 H 0.6753 0.4127 0.8211
C18 C 0.59865(11) 0.5692(2) 0.70271(13)
O1 O 0.87833(8) 0.63995(18) 0.18625(9)
O2 O 0.50113(7) 0.44111(15) -0.16744(9)
O3 O 0.35007(7) 0.78210(15) -0.19380(9)
O4 O 0.47013(7) 1.04553(15) -0.12877(9)
O5 O 0.37900(8) 1.21633(16) -0.25222(9)
H1 H 0.4260(14) 1.303(3) -0.2221(16)
N1 N 1.10307(10) 0.6219(2) 0.25122(12)
N2 N 1.20251(12) 0.7013(2) 0.54946(13)
N3 N 0.52225(9) 0.69789(19) -0.08606(10)
H2 H 0.5030(12) 0.810(2) -0.0904(13)
C1 C 0.90483(11) 0.6789(2) 0.28705(13)
C2 C 0.99693(11) 0.6805(2) 0.34281(13)
C3 C 1.03112(12) 0.7176(2) 0.44848(13)
C4 C 0.97372(13) 0.7554(3) 0.49505(14)
H3 H 0.9965 0.7820 0.5657
C5 C 0.88208(13) 0.7544(3) 0.43784(14)
H4 H 0.8426 0.7816 0.4700
C6 C 0.84756(12) 0.7144(2) 0.33524(14)
H5 H 0.7848 0.7112 0.2978
C7 C 1.05615(11) 0.6465(2) 0.29175(13)
C8 C 1.12707(13) 0.7114(3) 0.50564(14)
C9 C 0.78639(11) 0.6544(2) 0.12241(12)
C10 C 0.73707(11) 0.5077(2) 0.09210(13)
H6 H 0.7628 0.4002 0.1183
C11 C 0.64854(11) 0.5183(2) 0.02232(12)
H7 H 0.6135 0.4179 0.0004
C12 C 0.61198(10) 0.6767(2) -0.01488(12)
C13 C 0.66274(11) 0.8244(2) 0.01738(13)
H8 H 0.6372 0.9324 -0.0081
C14 C 0.75112(11) 0.8133(2) 0.08717(13)
H9 H 0.7864 0.9131 0.1100
C15 C 0.47496(10) 0.5857(2) -0.15741(12)
C16 C 0.38481(11) 0.6471(2) -0.23318(13)
H10 H 0.3910 0.6861 -0.2961
H11 H 0.3422 0.5507 -0.2516
C17 C 0.32999(11) 0.9360(2) -0.25069(13)
H12 H 0.2719 0.9804 -0.2545
H13 H 0.3247 0.9127 -0.3211
C18 C 0.40135(11) 1.0692(2) -0.20271(13)
O1 O 0.87833(8) 0.86005(18) 0.68625(9)
O2 O 0.50113(7) 1.05889(15) 0.33256(9)
O3 O 0.35007(7) 0.71790(15) 0.30620(9)
O4 O 0.47013(7) 0.45447(15) 0.37123(9)
O5 O 0.37900(8) 0.28367(16) 0.24778(9)
H1 H 0.4260(14) 0.197(3) 0.2779(16)
N1 N 1.10307(10) 0.8781(2) 0.75122(12)
N2 N 1.20251(12) 0.7987(2) 1.04946(13)
N3 N 0.52225(9) 0.80211(19) 0.41394(10)
H2 H 0.5030(12) 0.690(2) 0.4096(13)
C1 C 0.90483(11) 0.8211(2) 0.78705(13)
C2 C 0.99693(11) 0.8195(2) 0.84281(13)
C3 C 1.03112(12) 0.7824(2) 0.94848(13)
C4 C 0.97372(13) 0.7446(3) 0.99505(14)
H3 H 0.9965 0.7180 1.0657
C5 C 0.88208(13) 0.7456(3) 0.93784(14)
H4 H 0.8426 0.7184 0.9700
C6 C 0.84756(12) 0.7856(2) 0.83524(14)
H5 H 0.7848 0.7888 0.7978
C7 C 1.05615(11) 0.8535(2) 0.79175(13)
C8 C 1.12707(13) 0.7886(3) 1.00564(14)
C9 C 0.78639(11) 0.8456(2) 0.62241(12)
C10 C 0.73707(11) 0.9923(2) 0.59210(13)
H6 H 0.7628 1.0998 0.6183
C11 C 0.64854(11) 0.9817(2) 0.52232(12)
H7 H 0.6135 1.0821 0.5004
C12 C 0.61198(10) 0.8233(2) 0.48512(12)
C13 C 0.66274(11) 0.6756(2) 0.51738(13)
H8 H 0.6372 0.5676 0.4919
C14 C 0.75112(11) 0.6867(2) 0.58717(13)
H9 H 0.7864 0.5869 0.6100
C15 C 0.47496(10) 0.9143(2) 0.34259(12)
C16 C 0.38481(11) 0.8529(2) 0.26682(13)
H10 H 0.3910 0.8139 0.2039
H11 H 0.3422 0.9493 0.2484
C17 C 0.32999(11) 0.5640(2) 0.24931(13)
H12 H 0.2719 0.5196 0.2455
H13 H 0.3247 0.5873 0.1789
C18 C 0.40135(11) 0.4308(2) 0.29729(13)
O1 O 0.12167(8) 0.36005(18) 0.81375(9)
O2 O 0.49887(7) 0.55889(15) 1.16744(9)
O3 O 0.64993(7) 0.21790(15) 1.19380(9)
O4 O 0.52987(7) -0.04553(15) 1.12877(9)
O5 O 0.62100(8) -0.21633(16) 1.25222(9)
H1 H 0.5740(14) -0.303(3) 1.2221(16)
N1 N -0.10307(10) 0.3781(2) 0.74878(12)
N2 N -0.20251(12) 0.2987(2) 0.45054(13)
N3 N 0.47775(9) 0.30211(19) 1.08606(10)
H2 H 0.4970(12) 0.190(2) 1.0904(13)
C1 C 0.09517(11) 0.3211(2) 0.71295(13)
C2 C 0.00307(11) 0.3195(2) 0.65719(13)
C3 C -0.03112(12) 0.2824(2) 0.55152(13)
C4 C 0.02628(13) 0.2446(3) 0.50495(14)
H3 H 0.0035 0.2180 0.4343
C5 C 0.11792(13) 0.2456(3) 0.56216(14)
H4 H 0.1574 0.2184 0.5300
C6 C 0.15244(12) 0.2856(2) 0.66476(14)
H5 H 0.2152 0.2888 0.7022
C7 C -0.05615(11) 0.3535(2) 0.70825(13)
C8 C -0.12707(13) 0.2886(3) 0.49436(14)
C9 C 0.21361(11) 0.3456(2) 0.87759(12)
C10 C 0.26293(11) 0.4923(2) 0.90790(13)
H6 H 0.2372 0.5998 0.8817
C11 C 0.35146(11) 0.4817(2) 0.97768(12)
H7 H 0.3865 0.5821 0.9996
C12 C 0.38802(10) 0.3233(2) 1.01488(12)
C13 C 0.33726(11) 0.1756(2) 0.98262(13)
H8 H 0.3628 0.0676 1.0081
C14 C 0.24888(11) 0.1867(2) 0.91283(13)
H9 H 0.2136 0.0869 0.8900
C15 C 0.52504(10) 0.4143(2) 1.15741(12)
C16 C 0.61519(11) 0.3529(2) 1.23318(13)
H10 H 0.6090 0.3139 1.2961
H11 H 0.6578 0.4493 1.2516
C17 C 0.67001(11) 0.0640(2) 1.25069(13)
H12 H 0.7281 0.0196 1.2545
H13 H 0.6753 0.0873 1.3211
C18 C 0.59865(11) -0.0692(2) 1.20271(13)

#END
