./MAQCEP_from_xyz.cif_generated_by_CrystalShift
_symmetry_cell_setting triclinic
_symmetry_space_group_name_H-M 'P 1'
loop_
_symmetry_equiv_pos_site_id
_symmetry_equiv_pos_as_xyz
1 x,y,z
_cell_length_a 16.296000
_cell_length_b 7.841200
_cell_length_c 14.255000
_cell_angle_alpha 90.000000
_cell_angle_beta 113.171000
_cell_angle_gamma 90.000000
_cell_volume 1674.574153
loop_
_atom_site_label
_atom_site_type_symbol
_atom_site_fract_x
_atom_site_fract_y
_atom_site_fract_z
O1 O 0.121670 0.139950 0.313750
O2 O 0.498870 -0.058890 0.667440
O3 O 0.649930 0.282100 0.693800
O4 O 0.529870 0.545530 0.628770
O5 O 0.621000 0.716330 0.752220
H6 H 0.574000 0.803000 0.722100
N7 N -0.103070 0.121900 0.248780
N8 N -0.202510 0.201300 -0.049460
N9 N 0.477750 0.197890 0.586060
H10 H 0.497000 0.310000 0.590400
C11 C 0.095170 0.178900 0.212950
C12 C 0.003070 0.180500 0.157190
C13 C -0.031120 0.217600 0.051520
C14 C 0.026280 0.255400 0.004950
H15 H 0.003500 0.282000 -0.065700
C16 C 0.117920 0.254400 0.062160
H17 H 0.157400 0.281600 0.030000
C18 C 0.152440 0.214400 0.164760
H19 H 0.215200 0.211200 0.202200
C20 C -0.056150 0.146500 0.208250
C21 C -0.127070 0.211400 -0.005640
C22 C 0.213610 0.154400 0.377590
C23 C 0.262930 0.007700 0.407900
H24 H 0.237200 -0.099800 0.381700
C25 C 0.351460 0.018300 0.477680
H26 H 0.386500 -0.082100 0.499600
C27 C 0.388020 0.176700 0.514880
C28 C 0.337260 0.324400 0.482620
H29 H 0.362800 0.432400 0.508100
C30 C 0.248880 0.313300 0.412830
H31 H 0.213600 0.413100 0.390000
C32 C 0.525040 0.085700 0.657410
C33 C 0.615190 0.147100 0.733180
H34 H 0.609000 0.186100 0.796100
H35 H 0.657800 0.050700 0.751600
C36 C 0.670010 0.436000 0.750690
H37 H 0.728100 0.480400 0.754500
H38 H 0.675300 0.412700 0.821100
C39 C 0.598650 0.569200 0.702710
O40 O 0.878330 0.639950 0.186250
O41 O 0.501130 0.441110 -0.167440
O42 O 0.350070 0.782100 -0.193800
O43 O 0.470130 1.045530 -0.128770
O44 O 0.379000 1.216330 -0.252220
H45 H 0.426000 1.303000 -0.222100
N46 N 1.103070 0.621900 0.251220
N47 N 1.202510 0.701300 0.549460
N48 N 0.522250 0.697890 -0.086060
H49 H 0.503000 0.810000 -0.090400
C50 C 0.904830 0.678900 0.287050
C51 C 0.996930 0.680500 0.342810
C52 C 1.031120 0.717600 0.448480
C53 C 0.973720 0.755400 0.495050
H54 H 0.996500 0.782000 0.565700
C55 C 0.882080 0.754400 0.437840
H56 H 0.842600 0.781600 0.470000
C57 C 0.847560 0.714400 0.335240
H58 H 0.784800 0.711200 0.297800
C59 C 1.056150 0.646500 0.291750
C60 C 1.127070 0.711400 0.505640
C61 C 0.786390 0.654400 0.122410
C62 C 0.737070 0.507700 0.092100
H63 H 0.762800 0.400200 0.118300
C64 C 0.648540 0.518300 0.022320
H65 H 0.613500 0.417900 0.000400
C66 C 0.611980 0.676700 -0.014880
C67 C 0.662740 0.824400 0.017380
H68 H 0.637200 0.932400 -0.008100
C69 C 0.751120 0.813300 0.087170
H70 H 0.786400 0.913100 0.110000
C71 C 0.474960 0.585700 -0.157410
C72 C 0.384810 0.647100 -0.233180
H73 H 0.391000 0.686100 -0.296100
H74 H 0.342200 0.550700 -0.251600
C75 C 0.329990 0.936000 -0.250690
H76 H 0.271900 0.980400 -0.254500
H77 H 0.324700 0.912700 -0.321100
C78 C 0.401350 1.069200 -0.202710
O79 O 0.878330 0.860050 0.686250
O80 O 0.501130 1.058890 0.332560
O81 O 0.350070 0.717900 0.306200
O82 O 0.470130 0.454470 0.371230
O83 O 0.379000 0.283670 0.247780
H84 H 0.426000 0.197000 0.277900
N85 N 1.103070 0.878100 0.751220
N86 N 1.202510 0.798700 1.049460
N87 N 0.522250 0.802110 0.413940
H88 H 0.503000 0.690000 0.409600
C89 C 0.904830 0.821100 0.787050
C90 C 0.996930 0.819500 0.842810
C91 C 1.031120 0.782400 0.948480
C92 C 0.973720 0.744600 0.995050
H93 H 0.996500 0.718000 1.065700
C94 C 0.882080 0.745600 0.937840
H95 H 0.842600 0.718400 0.970000
C96 C 0.847560 0.785600 0.835240
H97 H 0.784800 0.788800 0.797800
C98 C 1.056150 0.853500 0.791750
C99 C 1.127070 0.788600 1.005640
C100 C 0.786390 0.845600 0.622410
C101 C 0.737070 0.992300 0.592100
H102 H 0.762800 1.099800 0.618300
C103 C 0.648540 0.981700 0.522320
H104 H 0.613500 1.082100 0.500400
C105 C 0.611980 0.823300 0.485120
C106 C 0.662740 0.675600 0.517380
H107 H 0.637200 0.567600 0.491900
C108 C 0.751120 0.686700 0.587170
H109 H 0.786400 0.586900 0.610000
C110 C 0.474960 0.914300 0.342590
C111 C 0.384810 0.852900 0.266820
H112 H 0.391000 0.813900 0.203900
H113 H 0.342200 0.949300 0.248400
C114 C 0.329990 0.564000 0.249310
H115 H 0.271900 0.519600 0.245500
H116 H 0.324700 0.587300 0.178900
C117 C 0.401350 0.430800 0.297290
O118 O 0.121670 0.360050 0.813750
O119 O 0.498870 0.558890 1.167440
O120 O 0.649930 0.217900 1.193800
O121 O 0.529870 -0.045530 1.128770
O122 O 0.621000 -0.216330 1.252220
H123 H 0.574000 -0.303000 1.222100
N124 N -0.103070 0.378100 0.748780
N125 N -0.202510 0.298700 0.450540
N126 N 0.477750 0.302110 1.086060
H127 H 0.497000 0.190000 1.090400
C128 C 0.095170 0.321100 0.712950
C129 C 0.003070 0.319500 0.657190
C130 C -0.031120 0.282400 0.551520
C131 C 0.026280 0.244600 0.504950
H132 H 0.003500 0.218000 0.434300
C133 C 0.117920 0.245600 0.562160
H134 H 0.157400 0.218400 0.530000
C135 C 0.152440 0.285600 0.664760
H136 H 0.215200 0.288800 0.702200
C137 C -0.056150 0.353500 0.708250
C138 C -0.127070 0.288600 0.494360
C139 C 0.213610 0.345600 0.877590
C140 C 0.262930 0.492300 0.907900
H141 H 0.237200 0.599800 0.881700
C142 C 0.351460 0.481700 0.977680
H143 H 0.386500 0.582100 0.999600
C144 C 0.388020 0.323300 1.014880
C145 C 0.337260 0.175600 0.982620
H146 H 0.362800 0.067600 1.008100
C147 C 0.248880 0.186700 0.912830
H148 H 0.213600 0.086900 0.890000
C149 C 0.525040 0.414300 1.157410
C150 C 0.615190 0.352900 1.233180
H151 H 0.609000 0.313900 1.296100
H152 H 0.657800 0.449300 1.251600
C153 C 0.670010 0.064000 1.250690
H154 H 0.728100 0.019600 1.254500
H155 H 0.675300 0.087300 1.321100
C156 C 0.598650 -0.069200 1.202710

#END
