
#######################################################################
#
#                 Cambridge Crystallographic Data Centre
#                                CCDC 
#
#######################################################################
#
# If this CIF has been generated from an entry in the Cambridge 
# Structural Database, then it will include bibliographic, chemical, 
# crystal, experimental, refinement or atomic coordinate data resulting 
# from the CCDC's data processing and validation procedures.
#
#######################################################################

data_MAQFAO
_symmetry_cell_setting           triclinic
_symmetry_space_group_name_H-M   'P -1'
_symmetry_Int_Tables_number      2
_space_group_name_Hall           '-P 1'
loop_
_symmetry_equiv_pos_site_id
_symmetry_equiv_pos_as_xyz
1 x,y,z
2 -x,-y,-z
_cell_length_a                   6.0216(8)
_cell_length_b                   8.0091(11)
_cell_length_c                   24.370(3)
_cell_angle_alpha                82.837(2)
_cell_angle_beta                 82.968(2)
_cell_angle_gamma                81.082(3)
_cell_volume                     1145.65
loop_
_atom_site_label
_atom_site_type_symbol
_atom_site_fract_x
_atom_site_fract_y
_atom_site_fract_z
C1 C 0.6640(3) 0.7236(2) 0.75325(7)
C2 C 0.4407(3) 0.7890(3) 0.74735(8)
H1 H 0.3284 0.7644 0.7756
C3 C 0.3839(3) 0.8905(3) 0.69982(8)
H2 H 0.2337 0.9353 0.6963
C4 C 0.5502(3) 0.9262(2) 0.65709(7)
C5 C 0.7736(4) 0.8624(3) 0.66318(8)
H3 H 0.8859 0.8875 0.6349
C6 C 0.8311(3) 0.7613(3) 0.71108(8)
H4 H 0.9817 0.7188 0.7150
C7 C 0.4964(4) 1.0316(3) 0.60436(8)
C8 C 0.2060(5) 1.1694(3) 0.55048(10)
H5 H 0.2607 1.2771 0.5462
H6 H 0.0441 1.1874 0.5523
H7 H 0.2678 1.1082 0.5193
C9 C 0.7202(3) 0.6096(2) 0.80430(7)
C10 C 1.0125(4) 0.4793(3) 0.85907(8)
H8 H 1.1757 0.4507 0.8541
H9 H 0.9484 0.3745 0.8611
C11 C 1.1318(4) 0.7159(3) 0.91875(12)
H10 H 1.2825 0.6585 0.9108
H11 H 1.1197 0.7635 0.9534
H12 H 1.0989 0.8052 0.8895
O1 O 0.6365(3) 1.0740(3) 0.56800(6)
O2 O 0.2749(3) 1.0717(2) 0.60134(6)
O3 O 0.5838(2) 0.5415(2) 0.83585(6)
O4 O 0.9408(2) 0.58969(18) 0.81075(5)
S1 S 0.93426(10) 0.56727(8) 0.92332(2)
C1 C 0.3360(3) 0.2764(2) 0.24675(7)
C2 C 0.5593(3) 0.2110(3) 0.25265(8)
H1 H 0.6716 0.2356 0.2244
C3 C 0.6161(3) 0.1095(3) 0.30018(8)
H2 H 0.7663 0.0647 0.3037
C4 C 0.4498(3) 0.0738(2) 0.34291(7)
C5 C 0.2264(4) 0.1376(3) 0.33682(8)
H3 H 0.1141 0.1125 0.3651
C6 C 0.1689(3) 0.2387(3) 0.28892(8)
H4 H 0.0183 0.2812 0.2850
C7 C 0.5036(4) -0.0316(3) 0.39564(8)
C8 C 0.7940(5) -0.1694(3) 0.44952(10)
H5 H 0.7393 -0.2771 0.4538
H6 H 0.9559 -0.1874 0.4477
H7 H 0.7322 -0.1082 0.4807
C9 C 0.2798(3) 0.3904(2) 0.19570(7)
C10 C -0.0125(4) 0.5207(3) 0.14093(8)
H8 H -0.1757 0.5493 0.1459
H9 H 0.0516 0.6255 0.1389
C11 C -0.1318(4) 0.2841(3) 0.08125(12)
H10 H -0.2825 0.3415 0.0892
H11 H -0.1197 0.2365 0.0466
H12 H -0.0989 0.1948 0.1105
O1 O 0.3635(3) -0.0740(3) 0.43200(6)
O2 O 0.7251(3) -0.0717(2) 0.39866(6)
O3 O 0.4162(2) 0.4585(2) 0.16415(6)
O4 O 0.0592(2) 0.41031(18) 0.18925(5)
S1 S 0.06574(10) 0.43273(8) 0.07668(2)
C12 C 0.3516(3) 0.7768(2) 0.24625(8)
C13 C 0.5742(4) 0.7113(3) 0.25381(8)
H13 H 0.6895 0.7345 0.2262
C14 C 0.6246(4) 0.6113(3) 0.30238(8)
H14 H 0.7741 0.5679 0.3073
C15 C 0.4539(3) 0.5753(3) 0.34379(8)
C16 C 0.2318(4) 0.6411(3) 0.33598(9)
H15 H 0.1160 0.6171 0.3634
C17 C 0.1818(4) 0.7419(3) 0.28782(10)
H16 H 0.0326 0.7869 0.2832
C18 C 0.5018(4) 0.4691(3) 0.39658(8)
C19 C 0.7875(5) 0.3290(4) 0.45151(10)
H17 H 0.7248 0.3900 0.4826
H18 H 0.9494 0.3102 0.4502
H19 H 0.7320 0.2216 0.4554
C20 C 0.2882(4) 0.8846(3) 0.19480(9)
C21 C 0.4201(5) 0.9912(3) 0.10346(10)
H20 H 0.5619 1.0199 0.0840
H21 H 0.3243 1.0967 0.1109
C22 C 0.5166(5) 0.7256(3) 0.04001(11)
H22 H 0.6481 0.7783 0.0262
H23 H 0.4758 0.6668 0.0116
H24 H 0.5489 0.6462 0.0719
O5 O 0.3591(3) 0.4276(3) 0.43225(7)
O6 O 0.7220(3) 0.4271(2) 0.40067(6)
O7 O 0.0995(3) 0.9554(2) 0.18859(8)
O8 O 0.4647(3) 0.8929(2) 0.15583(6)
S2 S 0.28745(11) 0.88504(7) 0.05940(2)
C12 C 0.6484(3) 0.2232(2) 0.75375(8)
C13 C 0.4258(4) 0.2887(3) 0.74619(8)
H13 H 0.3105 0.2655 0.7738
C14 C 0.3754(4) 0.3887(3) 0.69762(8)
H14 H 0.2259 0.4321 0.6927
C15 C 0.5461(3) 0.4247(3) 0.65621(8)
C16 C 0.7682(4) 0.3589(3) 0.66402(9)
H15 H 0.8840 0.3829 0.6366
C17 C 0.8182(4) 0.2581(3) 0.71218(10)
H16 H 0.9674 0.2131 0.7168
C18 C 0.4982(4) 0.5309(3) 0.60342(8)
C19 C 0.2125(5) 0.6710(4) 0.54849(10)
H17 H 0.2752 0.6100 0.5174
H18 H 0.0506 0.6898 0.5498
H19 H 0.2680 0.7784 0.5446
C20 C 0.7118(4) 0.1154(3) 0.80520(9)
C21 C 0.5799(5) 0.0088(3) 0.89654(10)
H20 H 0.4381 -0.0199 0.9160
H21 H 0.6757 -0.0967 0.8891
C22 C 0.4834(5) 0.2744(3) 0.95999(11)
H22 H 0.3519 0.2217 0.9738
H23 H 0.5242 0.3332 0.9884
H24 H 0.4511 0.3538 0.9281
O5 O 0.6409(3) 0.5724(3) 0.56775(7)
O6 O 0.2780(3) 0.5729(2) 0.59933(6)
O7 O 0.9005(3) 0.0446(2) 0.81141(8)
O8 O 0.5353(3) 0.1071(2) 0.84417(6)
S2 S 0.71255(11) 0.11496(7) 0.94060(2)

#END
