
#######################################################################
#
#                 Cambridge Crystallographic Data Centre
#                                CCDC 
#
#######################################################################
#
# If this CIF has been generated from an entry in the Cambridge 
# Structural Database, then it will include bibliographic, chemical, 
# crystal, experimental, refinement or atomic coordinate data resulting 
# from the CCDC's data processing and validation procedures.
#
#######################################################################

data_MAQGAM
_symmetry_cell_setting           orthorhombic
_symmetry_space_group_name_H-M   'P 21 21 21'
_symmetry_Int_Tables_number      19
_space_group_name_Hall           'P 2ac 2ab'
loop_
_symmetry_equiv_pos_site_id
_symmetry_equiv_pos_as_xyz
1 x,y,z
2 1/2-x,-y,1/2+z
3 -x,1/2+y,1/2-z
4 1/2+x,1/2-y,-z
_cell_length_a                   14.241(2)
_cell_length_b                   9.4401(9)
_cell_length_c                   11.648(2)
_cell_angle_alpha                90
_cell_angle_beta                 90
_cell_angle_gamma                90
_cell_volume                     1565.92
loop_
_atom_site_label
_atom_site_type_symbol
_atom_site_fract_x
_atom_site_fract_y
_atom_site_fract_z
C1 C 0.11952(16) 0.6349(2) 0.4163(2)
H1 H 0.1084 0.6056 0.4950
H2 H 0.0600 0.6305 0.3760
O1 O 0.18402(12) 0.53601(14) 0.36346(15)
C2 C 0.21884(15) 0.5714(2) 0.2612(2)
O2 O 0.25854(15) 0.4797(2) 0.20574(16)
C3 C 0.21500(15) 0.7181(2) 0.22666(17)
H3 H 0.2292 0.7412 0.1510
C4 C 0.19175(13) 0.8218(2) 0.29920(16)
C5 C 0.20792(16) 0.9744(2) 0.2710(2)
H4 H 0.2197 0.9833 0.1893
H5 H 0.2635 1.0070 0.3112
C6 C 0.12539(16) 1.0687(2) 0.30335(19)
H6 H 0.0735 1.0503 0.2516
H7 H 0.1434 1.1672 0.2944
C7 C 0.09342(13) 1.04366(17) 0.42640(16)
H8 H 0.1450 1.0675 0.4786
C8 C 0.06817(12) 0.88581(18) 0.44190(15)
H9 H 0.0215 0.8645 0.3826
C9 C 0.15385(13) 0.78763(17) 0.41638(15)
C10 C 0.02079(17) 0.8523(2) 0.55675(19)
H10 H -0.0029 0.7560 0.5547
H11 H 0.0673 0.8577 0.6174
C11 C -0.06016(14) 0.9529(2) 0.58509(19)
H12 H -0.1112 0.9374 0.5314
H13 H -0.0833 0.9327 0.6617
C12 C -0.02915(13) 1.10649(18) 0.57877(16)
C13 C 0.00826(13) 1.13264(18) 0.45747(16)
H14 H -0.0419 1.1044 0.4046
C14 C 0.01574(18) 1.2947(2) 0.4492(2)
H15 H 0.0082 1.3265 0.3705
H16 H 0.0758 1.3278 0.4781
C15 C -0.06548(18) 1.3475(2) 0.5251(2)
H17 H -0.0422 1.4120 0.5833
H18 H -0.1119 1.3967 0.4790
C16 C -0.10878(14) 1.2162(2) 0.58098(19)
H19 H -0.1603 1.1822 0.5324
O3 O -0.14533(12) 1.25201(18) 0.69021(15)
H20 H -0.182(2) 1.178(3) 0.716(3)
C17 C 0.23351(15) 0.8038(2) 0.50425(18)
H21 H 0.2099 0.7842 0.5798
H22 H 0.2574 0.8989 0.5017
H23 H 0.2830 0.7385 0.4862
C18 C 0.04137(16) 1.1407(3) 0.67298(19)
H24 H 0.0614 1.2374 0.6657
H25 H 0.0947 1.0792 0.6661
H26 H 0.0125 1.1271 0.7466
C1 C 0.38048(16) 0.3651(2) 0.9163(2)
H1 H 0.3916 0.3944 0.9950
H2 H 0.4400 0.3695 0.8760
O1 O 0.31598(12) 0.46399(14) 0.86346(15)
C2 C 0.28116(15) 0.4286(2) 0.7612(2)
O2 O 0.24146(15) 0.5203(2) 0.70574(16)
C3 C 0.28500(15) 0.2819(2) 0.72666(17)
H3 H 0.2708 0.2588 0.6510
C4 C 0.30825(13) 0.1782(2) 0.79920(16)
C5 C 0.29208(16) 0.0256(2) 0.7710(2)
H4 H 0.2803 0.0167 0.6893
H5 H 0.2365 -0.0070 0.8112
C6 C 0.37461(16) -0.0687(2) 0.80335(19)
H6 H 0.4265 -0.0503 0.7516
H7 H 0.3566 -0.1672 0.7944
C7 C 0.40658(13) -0.04366(17) 0.92640(16)
H8 H 0.3550 -0.0675 0.9786
C8 C 0.43183(12) 0.11419(18) 0.94190(15)
H9 H 0.4785 0.1355 0.8826
C9 C 0.34615(13) 0.21237(17) 0.91638(15)
C10 C 0.47921(17) 0.1477(2) 1.05675(19)
H10 H 0.5029 0.2440 1.0547
H11 H 0.4327 0.1423 1.1174
C11 C 0.56016(14) 0.0471(2) 1.08509(19)
H12 H 0.6112 0.0626 1.0314
H13 H 0.5833 0.0673 1.1617
C12 C 0.52915(13) -0.10649(18) 1.07877(16)
C13 C 0.49174(13) -0.13264(18) 0.95747(16)
H14 H 0.5419 -0.1044 0.9046
C14 C 0.48426(18) -0.2947(2) 0.9492(2)
H15 H 0.4918 -0.3265 0.8705
H16 H 0.4242 -0.3278 0.9781
C15 C 0.56548(18) -0.3475(2) 1.0251(2)
H17 H 0.5422 -0.4120 1.0833
H18 H 0.6119 -0.3967 0.9790
C16 C 0.60878(14) -0.2162(2) 1.08098(19)
H19 H 0.6603 -0.1822 1.0324
O3 O 0.64533(12) -0.25201(18) 1.19021(15)
H20 H 0.682(2) -0.178(3) 1.216(3)
C17 C 0.26649(15) 0.1962(2) 1.00425(18)
H21 H 0.2901 0.2158 1.0798
H22 H 0.2426 0.1011 1.0017
H23 H 0.2170 0.2615 0.9862
C18 C 0.45863(16) -0.1407(3) 1.17298(19)
H24 H 0.4386 -0.2374 1.1657
H25 H 0.4053 -0.0792 1.1661
H26 H 0.4875 -0.1271 1.2466
C1 C 0.88048(16) 0.1349(2) 0.0837(2)
H1 H 0.8916 0.1056 0.0050
H2 H 0.9400 0.1305 0.1240
O1 O 0.81598(12) 0.03601(14) 0.13654(15)
C2 C 0.78116(15) 0.0714(2) 0.2388(2)
O2 O 0.74146(15) -0.0203(2) 0.29426(16)
C3 C 0.78500(15) 0.2181(2) 0.27334(17)
H3 H 0.7708 0.2412 0.3490
C4 C 0.80825(13) 0.3218(2) 0.20080(16)
C5 C 0.79208(16) 0.4744(2) 0.2290(2)
H4 H 0.7803 0.4833 0.3107
H5 H 0.7365 0.5070 0.1888
C6 C 0.87461(16) 0.5687(2) 0.19665(19)
H6 H 0.9265 0.5503 0.2484
H7 H 0.8566 0.6672 0.2056
C7 C 0.90658(13) 0.54366(17) 0.07360(16)
H8 H 0.8550 0.5675 0.0214
C8 C 0.93183(12) 0.38581(18) 0.05810(15)
H9 H 0.9785 0.3645 0.1174
C9 C 0.84615(13) 0.28763(17) 0.08362(15)
C10 C 0.97921(17) 0.3523(2) -0.05675(19)
H10 H 1.0029 0.2560 -0.0547
H11 H 0.9327 0.3577 -0.1174
C11 C 1.06016(14) 0.4529(2) -0.08509(19)
H12 H 1.1112 0.4374 -0.0314
H13 H 1.0833 0.4327 -0.1617
C12 C 1.02915(13) 0.60649(18) -0.07877(16)
C13 C 0.99174(13) 0.63264(18) 0.04253(16)
H14 H 1.0419 0.6044 0.0954
C14 C 0.98426(18) 0.7947(2) 0.0508(2)
H15 H 0.9918 0.8265 0.1295
H16 H 0.9242 0.8278 0.0219
C15 C 1.06548(18) 0.8475(2) -0.0251(2)
H17 H 1.0422 0.9120 -0.0833
H18 H 1.1119 0.8967 0.0210
C16 C 1.10878(14) 0.7162(2) -0.08098(19)
H19 H 1.1603 0.6822 -0.0324
O3 O 1.14533(12) 0.75201(18) -0.19021(15)
H20 H 1.182(2) 0.678(3) -0.216(3)
C17 C 0.76649(15) 0.3038(2) -0.00425(18)
H21 H 0.7901 0.2842 -0.0798
H22 H 0.7426 0.3989 -0.0017
H23 H 0.7170 0.2385 0.0138
C18 C 0.95863(16) 0.6407(3) -0.17298(19)
H24 H 0.9386 0.7374 -0.1657
H25 H 0.9053 0.5792 -0.1661
H26 H 0.9875 0.6271 -0.2466
C1 C 0.61952(16) 0.8651(2) 0.5837(2)
H1 H 0.6084 0.8944 0.5050
H2 H 0.5600 0.8695 0.6240
O1 O 0.68402(12) 0.96399(14) 0.63654(15)
C2 C 0.71884(15) 0.9286(2) 0.7388(2)
O2 O 0.75854(15) 1.0203(2) 0.79426(16)
C3 C 0.71500(15) 0.7819(2) 0.77334(17)
H3 H 0.7292 0.7588 0.8490
C4 C 0.69175(13) 0.6782(2) 0.70080(16)
C5 C 0.70792(16) 0.5256(2) 0.7290(2)
H4 H 0.7197 0.5167 0.8107
H5 H 0.7635 0.4930 0.6888
C6 C 0.62539(16) 0.4313(2) 0.69665(19)
H6 H 0.5735 0.4497 0.7484
H7 H 0.6434 0.3328 0.7056
C7 C 0.59342(13) 0.45634(17) 0.57360(16)
H8 H 0.6450 0.4325 0.5214
C8 C 0.56817(12) 0.61419(18) 0.55810(15)
H9 H 0.5215 0.6355 0.6174
C9 C 0.65385(13) 0.71237(17) 0.58362(15)
C10 C 0.52079(17) 0.6477(2) 0.44325(19)
H10 H 0.4971 0.7440 0.4453
H11 H 0.5673 0.6423 0.3826
C11 C 0.43984(14) 0.5471(2) 0.41491(19)
H12 H 0.3888 0.5626 0.4686
H13 H 0.4167 0.5673 0.3383
C12 C 0.47085(13) 0.39351(18) 0.42123(16)
C13 C 0.50826(13) 0.36736(18) 0.54253(16)
H14 H 0.4581 0.3956 0.5954
C14 C 0.51574(18) 0.2053(2) 0.5508(2)
H15 H 0.5082 0.1735 0.6295
H16 H 0.5758 0.1722 0.5219
C15 C 0.43452(18) 0.1525(2) 0.4749(2)
H17 H 0.4578 0.0880 0.4167
H18 H 0.3881 0.1033 0.5210
C16 C 0.39122(14) 0.2838(2) 0.41902(19)
H19 H 0.3397 0.3178 0.4676
O3 O 0.35467(12) 0.24799(18) 0.30979(15)
H20 H 0.318(2) 0.322(3) 0.284(3)
C17 C 0.73351(15) 0.6962(2) 0.49575(18)
H21 H 0.7099 0.7158 0.4202
H22 H 0.7574 0.6011 0.4983
H23 H 0.7830 0.7615 0.5138
C18 C 0.54137(16) 0.3593(3) 0.32702(19)
H24 H 0.5614 0.2626 0.3343
H25 H 0.5947 0.4208 0.3339
H26 H 0.5125 0.3729 0.2534

#END
