./MAQHUK_from_xyz.cif_generated_by_CrystalShift
_symmetry_cell_setting triclinic
_symmetry_space_group_name_H-M 'P 1'
loop_
_symmetry_equiv_pos_site_id
_symmetry_equiv_pos_as_xyz
1 x,y,z
_cell_length_a 9.124500
_cell_length_b 18.508000
_cell_length_c 10.520900
_cell_angle_alpha 90.000000
_cell_angle_beta 115.544000
_cell_angle_gamma 90.000000
_cell_volume 1603.062494
loop_
_atom_site_label
_atom_site_type_symbol
_atom_site_fract_x
_atom_site_fract_y
_atom_site_fract_z
O1 O -0.151400 0.436470 0.493600
N2 N 0.007700 0.430000 0.379400
H3 H 0.058800 0.468100 0.422800
N4 N 0.050400 0.320200 0.287400
C5 C -0.083800 0.289100 0.298400
C6 C -0.136800 0.220100 0.257100
H7 H -0.085000 0.191800 0.215700
C8 C -0.266300 0.191700 0.276000
H9 H -0.301700 0.145000 0.245800
C10 C -0.343100 0.232100 0.339200
H11 H -0.429000 0.212600 0.353100
C12 C -0.293100 0.300000 0.380800
H13 H -0.345700 0.327300 0.423000
C14 C -0.163700 0.330400 0.361900
C15 C -0.106200 0.402400 0.414700
C16 C 0.049900 0.398800 0.271100
C17 C -0.086200 0.422700 0.118000
H18 H -0.065500 0.399000 0.046100
H19 H -0.082200 0.474100 0.107700
H20 H -0.191700 0.409100 0.109000
C21 C 0.207600 0.430100 0.291400
H22 H 0.230600 0.413400 0.214500
H23 H 0.194100 0.482100 0.281900
C24 C 0.334600 0.417400 0.407300
H25 H 0.427600 0.439800 0.403800
H26 H 0.352000 0.366200 0.419100
H27 H 0.318700 0.436600 0.485100
C28 C 0.124200 0.276800 0.212000
H29 H 0.194800 0.307700 0.188400
H30 H 0.038700 0.259400 0.124500
C31 C 0.220400 0.213600 0.295200
C32 C 0.301900 0.214900 0.442000
H33 H 0.293600 0.255700 0.490200
C34 C 0.394200 0.157500 0.516900
H35 H 0.448600 0.158900 0.614600
C36 C 0.403700 0.098000 0.443000
H37 H 0.466100 0.058600 0.491500
C38 C 0.321500 0.095500 0.296900
H39 H 0.327000 0.054400 0.248200
C40 C 0.233100 0.153600 0.226100
H41 H 0.180200 0.152300 0.128200
O42 O 1.151400 0.936470 0.006400
N43 N 0.992300 0.930000 0.120600
H44 H 0.941200 0.968100 0.077200
N45 N 0.949600 0.820200 0.212600
C46 C 1.083800 0.789100 0.201600
C47 C 1.136800 0.720100 0.242900
H48 H 1.085000 0.691800 0.284300
C49 C 1.266300 0.691700 0.224000
H50 H 1.301700 0.645000 0.254200
C51 C 1.343100 0.732100 0.160800
H52 H 1.429000 0.712600 0.146900
C53 C 1.293100 0.800000 0.119200
H54 H 1.345700 0.827300 0.077000
C55 C 1.163700 0.830400 0.138100
C56 C 1.106200 0.902400 0.085300
C57 C 0.950100 0.898800 0.228900
C58 C 1.086200 0.922700 0.382000
H59 H 1.065500 0.899000 0.453900
H60 H 1.082200 0.974100 0.392300
H61 H 1.191700 0.909100 0.391000
C62 C 0.792400 0.930100 0.208600
H63 H 0.769400 0.913400 0.285500
H64 H 0.805900 0.982100 0.218100
C65 C 0.665400 0.917400 0.092700
H66 H 0.572400 0.939800 0.096200
H67 H 0.648000 0.866200 0.080900
H68 H 0.681300 0.936600 0.014900
C69 C 0.875800 0.776800 0.288000
H70 H 0.805200 0.807700 0.311600
H71 H 0.961300 0.759400 0.375500
C72 C 0.779600 0.713600 0.204800
C73 C 0.698100 0.714900 0.058000
H74 H 0.706400 0.755700 0.009800
C75 C 0.605800 0.657500 -0.016900
H76 H 0.551400 0.658900 -0.114600
C77 C 0.596300 0.598000 0.057000
H78 H 0.533900 0.558600 0.008500
C79 C 0.678500 0.595500 0.203100
H80 H 0.673000 0.554400 0.251800
C81 C 0.766900 0.653600 0.273900
H82 H 0.819800 0.652300 0.371800
O83 O 1.151400 0.563530 0.506400
N84 N 0.992300 0.570000 0.620600
H85 H 0.941200 0.531900 0.577200
N86 N 0.949600 0.679800 0.712600
C87 C 1.083800 0.710900 0.701600
C88 C 1.136800 0.779900 0.742900
H89 H 1.085000 0.808200 0.784300
C90 C 1.266300 0.808300 0.724000
H91 H 1.301700 0.855000 0.754200
C92 C 1.343100 0.767900 0.660800
H93 H 1.429000 0.787400 0.646900
C94 C 1.293100 0.700000 0.619200
H95 H 1.345700 0.672700 0.577000
C96 C 1.163700 0.669600 0.638100
C97 C 1.106200 0.597600 0.585300
C98 C 0.950100 0.601200 0.728900
C99 C 1.086200 0.577300 0.882000
H100 H 1.065500 0.601000 0.953900
H101 H 1.082200 0.525900 0.892300
H102 H 1.191700 0.590900 0.891000
C103 C 0.792400 0.569900 0.708600
H104 H 0.769400 0.586600 0.785500
H105 H 0.805900 0.517900 0.718100
C106 C 0.665400 0.582600 0.592700
H107 H 0.572400 0.560200 0.596200
H108 H 0.648000 0.633800 0.580900
H109 H 0.681300 0.563400 0.514900
C110 C 0.875800 0.723200 0.788000
H111 H 0.805200 0.692300 0.811600
H112 H 0.961300 0.740600 0.875500
C113 C 0.779600 0.786400 0.704800
C114 C 0.698100 0.785100 0.558000
H115 H 0.706400 0.744300 0.509800
C116 C 0.605800 0.842500 0.483100
H117 H 0.551400 0.841100 0.385400
C118 C 0.596300 0.902000 0.557000
H119 H 0.533900 0.941400 0.508500
C120 C 0.678500 0.904500 0.703100
H121 H 0.673000 0.945600 0.751800
C122 C 0.766900 0.846400 0.773900
H123 H 0.819800 0.847700 0.871800
O124 O -0.151400 0.063530 0.993600
N125 N 0.007700 0.070000 0.879400
H126 H 0.058800 0.031900 0.922800
N127 N 0.050400 0.179800 0.787400
C128 C -0.083800 0.210900 0.798400
C129 C -0.136800 0.279900 0.757100
H130 H -0.085000 0.308200 0.715700
C131 C -0.266300 0.308300 0.776000
H132 H -0.301700 0.355000 0.745800
C133 C -0.343100 0.267900 0.839200
H134 H -0.429000 0.287400 0.853100
C135 C -0.293100 0.200000 0.880800
H136 H -0.345700 0.172700 0.923000
C137 C -0.163700 0.169600 0.861900
C138 C -0.106200 0.097600 0.914700
C139 C 0.049900 0.101200 0.771100
C140 C -0.086200 0.077300 0.618000
H141 H -0.065500 0.101000 0.546100
H142 H -0.082200 0.025900 0.607700
H143 H -0.191700 0.090900 0.609000
C144 C 0.207600 0.069900 0.791400
H145 H 0.230600 0.086600 0.714500
H146 H 0.194100 0.017900 0.781900
C147 C 0.334600 0.082600 0.907300
H148 H 0.427600 0.060200 0.903800
H149 H 0.352000 0.133800 0.919100
H150 H 0.318700 0.063400 0.985100
C151 C 0.124200 0.223200 0.712000
H152 H 0.194800 0.192300 0.688400
H153 H 0.038700 0.240600 0.624500
C154 C 0.220400 0.286400 0.795200
C155 C 0.301900 0.285100 0.942000
H156 H 0.293600 0.244300 0.990200
C157 C 0.394200 0.342500 1.016900
H158 H 0.448600 0.341100 1.114600
C159 C 0.403700 0.402000 0.943000
H160 H 0.466100 0.441400 0.991500
C161 C 0.321500 0.404500 0.796900
H162 H 0.327000 0.445600 0.748200
C163 C 0.233100 0.346400 0.726100
H164 H 0.180200 0.347700 0.628200

#END
