./MAQLIC_from_xyz.cif_generated_by_CrystalShift
_symmetry_cell_setting triclinic
_symmetry_space_group_name_H-M 'P 1'
loop_
_symmetry_equiv_pos_site_id
_symmetry_equiv_pos_as_xyz
1 x,y,z
_cell_length_a 12.917300
_cell_length_b 6.479600
_cell_length_c 18.102000
_cell_angle_alpha 90.000000
_cell_angle_beta 90.800000
_cell_angle_gamma 90.000000
_cell_volume 1514.970430
loop_
_atom_site_label
_atom_site_type_symbol
_atom_site_fract_x
_atom_site_fract_y
_atom_site_fract_z
O1 O 0.260980 0.186800 0.660830
O2 O 0.415790 0.511800 0.735720
N3 N 0.364610 0.255600 0.819080
C4 C 0.175300 -0.280500 0.515060
H5 H 0.155900 -0.382500 0.481500
C6 C 0.242700 -0.324700 0.573180
H7 H 0.268300 -0.458100 0.578800
C8 C 0.272200 -0.173900 0.622810
H9 H 0.316900 -0.206100 0.661800
C10 C 0.235510 0.024900 0.614700
C11 C 0.342910 0.153600 0.712020
H12 H 0.400600 0.080900 0.689000
C13 C 0.319400 0.063000 0.789610
H14 H 0.362900 -0.057100 0.801100
C15 C 0.207700 0.025200 0.808030
C16 C 0.167600 -0.172000 0.803640
H17 H 0.210300 -0.281100 0.790300
C18 C 0.064100 -0.209400 0.818890
H19 H 0.037500 -0.342300 0.814700
C20 C 0.000900 -0.050000 0.840150
H21 H -0.068200 -0.075200 0.850800
C22 C 0.380200 0.345200 0.752970
C23 C 0.143100 0.183800 0.829410
H24 H 0.169000 0.317400 0.833000
C25 C 0.040100 0.146100 0.845600
H26 H -0.002500 0.254100 0.860100
C27 C 0.397100 0.306900 0.894200
H28 H 0.471000 0.304300 0.882700
C29 C 0.397100 0.523800 0.911800
H30 H 0.424300 0.543600 0.960900
H31 H 0.327600 0.575900 0.908800
H32 H 0.439600 0.596400 0.877300
C33 C 0.404800 0.151900 0.944100
H34 H 0.336900 0.100400 0.954700
H35 H 0.436800 0.202600 0.988700
H36 H 0.446100 0.042600 0.924100
C37 C 0.166900 0.070900 0.556570
H38 H 0.141200 0.204100 0.550800
C39 C 0.137800 -0.082300 0.508020
H40 H 0.091700 -0.051500 0.469600
O41 O 0.739020 0.686800 0.839170
O42 O 0.584210 1.011800 0.764280
N43 N 0.635390 0.755600 0.680920
C44 C 0.824700 0.219500 0.984940
H45 H 0.844100 0.117500 1.018500
C46 C 0.757300 0.175300 0.926820
H47 H 0.731700 0.041900 0.921200
C48 C 0.727800 0.326100 0.877190
H49 H 0.683100 0.293900 0.838200
C50 C 0.764490 0.524900 0.885300
C51 C 0.657090 0.653600 0.787980
H52 H 0.599400 0.580900 0.811000
C53 C 0.680600 0.563000 0.710390
H54 H 0.637100 0.442900 0.698900
C55 C 0.792300 0.525200 0.691970
C56 C 0.832400 0.328000 0.696360
H57 H 0.789700 0.218900 0.709700
C58 C 0.935900 0.290600 0.681110
H59 H 0.962500 0.157700 0.685300
C60 C 0.999100 0.450000 0.659850
H61 H 1.068200 0.424800 0.649200
C62 C 0.619800 0.845200 0.747030
C63 C 0.856900 0.683800 0.670590
H64 H 0.831000 0.817400 0.667000
C65 C 0.959900 0.646100 0.654400
H66 H 1.002500 0.754100 0.639900
C67 C 0.602900 0.806900 0.605800
H68 H 0.529000 0.804300 0.617300
C69 C 0.602900 1.023800 0.588200
H70 H 0.575700 1.043600 0.539100
H71 H 0.672400 1.075900 0.591200
H72 H 0.560400 1.096400 0.622700
C73 C 0.595200 0.651900 0.555900
H74 H 0.663100 0.600400 0.545300
H75 H 0.563200 0.702600 0.511300
H76 H 0.553900 0.542600 0.575900
C77 C 0.833100 0.570900 0.943430
H78 H 0.858800 0.704100 0.949200
C79 C 0.862200 0.417700 0.991980
H80 H 0.908300 0.448500 1.030400
O81 O 0.739020 0.813200 0.339170
O82 O 0.584210 0.488200 0.264280
N83 N 0.635390 0.744400 0.180920
C84 C 0.824700 1.280500 0.484940
H85 H 0.844100 1.382500 0.518500
C86 C 0.757300 1.324700 0.426820
H87 H 0.731700 1.458100 0.421200
C88 C 0.727800 1.173900 0.377190
H89 H 0.683100 1.206100 0.338200
C90 C 0.764490 0.975100 0.385300
C91 C 0.657090 0.846400 0.287980
H92 H 0.599400 0.919100 0.311000
C93 C 0.680600 0.937000 0.210390
H94 H 0.637100 1.057100 0.198900
C95 C 0.792300 0.974800 0.191970
C96 C 0.832400 1.172000 0.196360
H97 H 0.789700 1.281100 0.209700
C98 C 0.935900 1.209400 0.181110
H99 H 0.962500 1.342300 0.185300
C100 C 0.999100 1.050000 0.159850
H101 H 1.068200 1.075200 0.149200
C102 C 0.619800 0.654800 0.247030
C103 C 0.856900 0.816200 0.170590
H104 H 0.831000 0.682600 0.167000
C105 C 0.959900 0.853900 0.154400
H106 H 1.002500 0.745900 0.139900
C107 C 0.602900 0.693100 0.105800
H108 H 0.529000 0.695700 0.117300
C109 C 0.602900 0.476200 0.088200
H110 H 0.575700 0.456400 0.039100
H111 H 0.672400 0.424100 0.091200
H112 H 0.560400 0.403600 0.122700
C113 C 0.595200 0.848100 0.055900
H114 H 0.663100 0.899600 0.045300
H115 H 0.563200 0.797400 0.011300
H116 H 0.553900 0.957400 0.075900
C117 C 0.833100 0.929100 0.443430
H118 H 0.858800 0.795900 0.449200
C119 C 0.862200 1.082300 0.491980
H120 H 0.908300 1.051500 0.530400
O121 O 0.260980 0.313200 0.160830
O122 O 0.415790 -0.011800 0.235720
N123 N 0.364610 0.244400 0.319080
C124 C 0.175300 0.780500 0.015060
H125 H 0.155900 0.882500 -0.018500
C126 C 0.242700 0.824700 0.073180
H127 H 0.268300 0.958100 0.078800
C128 C 0.272200 0.673900 0.122810
H129 H 0.316900 0.706100 0.161800
C130 C 0.235510 0.475100 0.114700
C131 C 0.342910 0.346400 0.212020
H132 H 0.400600 0.419100 0.189000
C133 C 0.319400 0.437000 0.289610
H134 H 0.362900 0.557100 0.301100
C135 C 0.207700 0.474800 0.308030
C136 C 0.167600 0.672000 0.303640
H137 H 0.210300 0.781100 0.290300
C138 C 0.064100 0.709400 0.318890
H139 H 0.037500 0.842300 0.314700
C140 C 0.000900 0.550000 0.340150
H141 H -0.068200 0.575200 0.350800
C142 C 0.380200 0.154800 0.252970
C143 C 0.143100 0.316200 0.329410
H144 H 0.169000 0.182600 0.333000
C145 C 0.040100 0.353900 0.345600
H146 H -0.002500 0.245900 0.360100
C147 C 0.397100 0.193100 0.394200
H148 H 0.471000 0.195700 0.382700
C149 C 0.397100 -0.023800 0.411800
H150 H 0.424300 -0.043600 0.460900
H151 H 0.327600 -0.075900 0.408800
H152 H 0.439600 -0.096400 0.377300
C153 C 0.404800 0.348100 0.444100
H154 H 0.336900 0.399600 0.454700
H155 H 0.436800 0.297400 0.488700
H156 H 0.446100 0.457400 0.424100
C157 C 0.166900 0.429100 0.056570
H158 H 0.141200 0.295900 0.050800
C159 C 0.137800 0.582300 0.008020
H160 H 0.091700 0.551500 -0.030400

#END
