./MAQMUP_from_xyz.cif_generated_by_CrystalShift
_symmetry_cell_setting triclinic
_symmetry_space_group_name_H-M 'P 1'
loop_
_symmetry_equiv_pos_site_id
_symmetry_equiv_pos_as_xyz
1 x,y,z
_cell_length_a 7.636300
_cell_length_b 8.284800
_cell_length_c 27.736000
_cell_angle_alpha 90.000000
_cell_angle_beta 90.000000
_cell_angle_gamma 90.000000
_cell_volume 1754.724093
loop_
_atom_site_label
_atom_site_type_symbol
_atom_site_fract_x
_atom_site_fract_y
_atom_site_fract_z
C1 C -0.497500 0.426800 0.396500
H2 H -0.558800 0.323900 0.400700
H3 H -0.450300 0.433200 0.363700
H4 H -0.579500 0.516100 0.401800
C5 C 0.558400 0.763300 0.241200
H6 H 0.623100 0.723500 0.213100
H7 H 0.537800 0.674000 0.263700
H8 H 0.626900 0.847500 0.257400
O9 O 0.396000 0.827900 0.226130
O10 O -0.357000 0.437600 0.430520
O11 O -0.079100 0.439400 0.484810
O12 O 0.119100 0.972400 0.195170
C13 C 0.091100 0.985600 0.428700
H14 H 0.132500 1.005200 0.462400
C15 C -0.256800 0.575200 0.429000
C16 C -0.293200 0.707600 0.400800
H17 H -0.395200 0.706700 0.381200
C18 C 0.000300 0.709400 0.458300
H19 H 0.101300 0.710000 0.478200
C20 C 0.207000 0.953400 0.343600
C21 C -0.106600 0.577000 0.458300
C22 C 0.287900 0.890300 0.261300
C23 C -0.077200 1.102500 0.361300
H24 H -0.122400 1.205500 0.347200
C25 C 0.321200 0.884700 0.309800
H26 H 0.424700 0.832700 0.320800
C27 C 0.005200 1.138800 0.410000
H28 H 0.093800 1.225300 0.406700
H29 H -0.085700 1.175800 0.433000
C30 C -0.230600 0.987000 0.368500
H31 H -0.329200 1.046400 0.383400
H32 H -0.270000 0.947000 0.336700
C33 C 0.136500 0.969400 0.244400
C34 C 0.249900 0.946700 0.397000
H35 H 0.344700 1.024800 0.404100
H36 H 0.293500 0.837500 0.405100
C37 C -0.036300 0.845500 0.429100
C38 C -0.183700 0.844400 0.400100
C39 C 0.056400 1.030800 0.327100
C40 C 0.093200 0.421600 0.505600
H41 H 0.099300 0.319800 0.523500
H42 H 0.116200 0.511900 0.527500
H43 H 0.181000 0.421000 0.479800
C44 C 0.024000 1.037300 0.277100
H45 H -0.078500 1.090100 0.265700
C46 C -0.034800 1.050100 0.176700
H47 H -0.033500 1.046000 0.141400
H48 H -0.036800 1.162900 0.187300
H49 H -0.139200 0.994400 0.188800
C50 C 0.997500 0.573200 0.896500
H51 H 1.058800 0.676100 0.900700
H52 H 0.950300 0.566800 0.863700
H53 H 1.079500 0.483900 0.901800
C54 C -0.058400 0.236700 0.741200
H55 H -0.123100 0.276500 0.713100
H56 H -0.037800 0.326000 0.763700
H57 H -0.126900 0.152500 0.757400
O58 O 0.104000 0.172100 0.726130
O59 O 0.857000 0.562400 0.930520
O60 O 0.579100 0.560600 0.984810
O61 O 0.380900 0.027600 0.695170
C62 C 0.408900 0.014400 0.928700
H63 H 0.367500 -0.005200 0.962400
C64 C 0.756800 0.424800 0.929000
C65 C 0.793200 0.292400 0.900800
H66 H 0.895200 0.293300 0.881200
C67 C 0.499700 0.290600 0.958300
H68 H 0.398700 0.290000 0.978200
C69 C 0.293000 0.046600 0.843600
C70 C 0.606600 0.423000 0.958300
C71 C 0.212100 0.109700 0.761300
C72 C 0.577200 -0.102500 0.861300
H73 H 0.622400 -0.205500 0.847200
C74 C 0.178800 0.115300 0.809800
H75 H 0.075300 0.167300 0.820800
C76 C 0.494800 -0.138800 0.910000
H77 H 0.406200 -0.225300 0.906700
H78 H 0.585700 -0.175800 0.933000
C79 C 0.730600 0.013000 0.868500
H80 H 0.829200 -0.046400 0.883400
H81 H 0.770000 0.053000 0.836700
C82 C 0.363500 0.030600 0.744400
C83 C 0.250100 0.053300 0.897000
H84 H 0.155300 -0.024800 0.904100
H85 H 0.206500 0.162500 0.905100
C86 C 0.536300 0.154500 0.929100
C87 C 0.683700 0.155600 0.900100
C88 C 0.443600 -0.030800 0.827100
C89 C 0.406800 0.578400 1.005600
H90 H 0.400700 0.680200 1.023500
H91 H 0.383800 0.488100 1.027500
H92 H 0.319000 0.579000 0.979800
C93 C 0.476000 -0.037300 0.777100
H94 H 0.578500 -0.090100 0.765700
C95 C 0.534800 -0.050100 0.676700
H96 H 0.533500 -0.046000 0.641400
H97 H 0.536800 -0.162900 0.687300
H98 H 0.639200 0.005600 0.688800
C99 C 0.002500 1.073200 0.603500
H100 H -0.058800 1.176100 0.599300
H101 H 0.049700 1.066800 0.636300
H102 H -0.079500 0.983900 0.598200
C103 C 1.058400 0.736700 0.758800
H104 H 1.123100 0.776500 0.786900
H105 H 1.037800 0.826000 0.736300
H106 H 1.126900 0.652500 0.742600
O107 O 0.896000 0.672100 0.773870
O108 O 0.143000 1.062400 0.569480
O109 O 0.420900 1.060600 0.515190
O110 O 0.619100 0.527600 0.804830
C111 C 0.591100 0.514400 0.571300
H112 H 0.632500 0.494800 0.537600
C113 C 0.243200 0.924800 0.571000
C114 C 0.206800 0.792400 0.599200
H115 H 0.104800 0.793300 0.618800
C116 C 0.500300 0.790600 0.541700
H117 H 0.601300 0.790000 0.521800
C118 C 0.707000 0.546600 0.656400
C119 C 0.393400 0.923000 0.541700
C120 C 0.787900 0.609700 0.738700
C121 C 0.422800 0.397500 0.638700
H122 H 0.377600 0.294500 0.652800
C123 C 0.821200 0.615300 0.690200
H124 H 0.924700 0.667300 0.679200
C125 C 0.505200 0.361200 0.590000
H126 H 0.593800 0.274700 0.593300
H127 H 0.414300 0.324200 0.567000
C128 C 0.269400 0.513000 0.631500
H129 H 0.170800 0.453600 0.616600
H130 H 0.230000 0.553000 0.663300
C131 C 0.636500 0.530600 0.755600
C132 C 0.749900 0.553300 0.603000
H133 H 0.844700 0.475200 0.595900
H134 H 0.793500 0.662500 0.594900
C135 C 0.463700 0.654500 0.570900
C136 C 0.316300 0.655600 0.599900
C137 C 0.556400 0.469200 0.672900
C138 C 0.593200 1.078400 0.494400
H139 H 0.599300 1.180200 0.476500
H140 H 0.616200 0.988100 0.472500
H141 H 0.681000 1.079000 0.520200
C142 C 0.524000 0.462700 0.722900
H143 H 0.421500 0.409900 0.734300
C144 C 0.465200 0.449900 0.823300
H145 H 0.466500 0.454000 0.858600
H146 H 0.463200 0.337100 0.812700
H147 H 0.360800 0.505600 0.811200
C148 C 1.497500 -0.073200 0.103500
H149 H 1.558800 -0.176100 0.099300
H150 H 1.450300 -0.066800 0.136300
H151 H 1.579500 0.016100 0.098200
C152 C 0.441600 0.263300 0.258800
H153 H 0.376900 0.223500 0.286900
H154 H 0.462200 0.174000 0.236300
H155 H 0.373100 0.347500 0.242600
O156 O 0.604000 0.327900 0.273870
O157 O 1.357000 -0.062400 0.069480
O158 O 1.079100 -0.060600 0.015190
O159 O 0.880900 0.472400 0.304830
C160 C 0.908900 0.485600 0.071300
H161 H 0.867500 0.505200 0.037600
C162 C 1.256800 0.075200 0.071000
C163 C 1.293200 0.207600 0.099200
H164 H 1.395200 0.206700 0.118800
C165 C 0.999700 0.209400 0.041700
H166 H 0.898700 0.210000 0.021800
C167 C 0.793000 0.453400 0.156400
C168 C 1.106600 0.077000 0.041700
C169 C 0.712100 0.390300 0.238700
C170 C 1.077200 0.602500 0.138700
H171 H 1.122400 0.705500 0.152800
C172 C 0.678800 0.384700 0.190200
H173 H 0.575300 0.332700 0.179200
C174 C 0.994800 0.638800 0.090000
H175 H 0.906200 0.725300 0.093300
H176 H 1.085700 0.675800 0.067000
C177 C 1.230600 0.487000 0.131500
H178 H 1.329200 0.546400 0.116600
H179 H 1.270000 0.447000 0.163300
C180 C 0.863500 0.469400 0.255600
C181 C 0.750100 0.446700 0.103000
H182 H 0.655300 0.524800 0.095900
H183 H 0.706500 0.337500 0.094900
C184 C 1.036300 0.345500 0.070900
C185 C 1.183700 0.344400 0.099900
C186 C 0.943600 0.530800 0.172900
C187 C 0.906800 -0.078400 -0.005600
H188 H 0.900700 -0.180200 -0.023500
H189 H 0.883800 0.011900 -0.027500
H190 H 0.819000 -0.079000 0.020200
C191 C 0.976000 0.537300 0.222900
H192 H 1.078500 0.590100 0.234300
C193 C 1.034800 0.550100 0.323300
H194 H 1.033500 0.546000 0.358600
H195 H 1.036800 0.662900 0.312700
H196 H 1.139200 0.494400 0.311200

#END
