
#######################################################################
#
#                 Cambridge Crystallographic Data Centre
#                                CCDC 
#
#######################################################################
#
# If this CIF has been generated from an entry in the Cambridge 
# Structural Database, then it will include bibliographic, chemical, 
# crystal, experimental, refinement or atomic coordinate data resulting 
# from the CCDC's data processing and validation procedures.
#
#######################################################################

data_MAQQUT
_symmetry_cell_setting           monoclinic
_symmetry_space_group_name_H-M   'C 2/c'
_symmetry_Int_Tables_number      15
_space_group_name_Hall           '-C 2yn'
loop_
_symmetry_equiv_pos_site_id
_symmetry_equiv_pos_as_xyz
1 x,y,z
2 -x,y,1/2-z
3 1/2+x,1/2+y,z
4 1/2-x,1/2+y,1/2-z
5 -x,-y,-z
6 x,-y,1/2+z
7 1/2-x,1/2-y,-z
8 1/2+x,1/2-y,1/2+z
_cell_length_a                   17.066(5)
_cell_length_b                   9.071(3)
_cell_length_c                   20.595(6)
_cell_angle_alpha                90
_cell_angle_beta                 97.132(6)
_cell_angle_gamma                90
_cell_volume                     3163.56
loop_
_atom_site_label
_atom_site_type_symbol
_atom_site_fract_x
_atom_site_fract_y
_atom_site_fract_z
O1 O 0.03071(9) 0.50114(16) 0.41600(7)
N1 N 0.05202(10) 0.66467(18) 0.50385(8)
H1 H 0.0239(16) 0.620(3) 0.5357(13)
N2 N 0.10085(9) 0.72073(18) 0.41472(8)
C1 C 0.05824(11) 0.6159(2) 0.44290(9)
C2 C 0.08890(11) 0.8017(2) 0.51409(9)
C3 C 0.11981(11) 0.8361(2) 0.45873(9)
C4 C 0.08546(11) 0.8828(2) 0.57497(9)
C5 C 0.07975(11) 0.8065(2) 0.63299(9)
H2 H 0.0802 0.7018 0.6331
C6 C 0.07338(13) 0.8824(3) 0.69030(10)
H3 H 0.0696 0.8297 0.7296
C7 C 0.07258(13) 1.0343(3) 0.69055(11)
H4 H 0.0683 1.0861 0.7300
C8 C 0.07802(12) 1.1109(3) 0.63349(11)
H5 H 0.0778 1.2156 0.6338
C9 C 0.08383(11) 1.0359(2) 0.57587(10)
H6 H 0.0867 1.0894 0.5366
C10 C 0.16437(11) 0.9660(2) 0.44102(9)
C11 C 0.12579(12) 1.0768(2) 0.40328(11)
H7 H 0.0711 1.0670 0.3884
C12 C 0.16582(13) 1.2013(2) 0.38704(11)
H8 H 0.1386 1.2770 0.3616
C13 C 0.24525(12) 1.2149(2) 0.40789(11)
H9 H 0.2731 1.2999 0.3965
C14 C 0.28443(12) 1.1056(2) 0.44531(11)
H10 H 0.3392 1.1157 0.4599
C15 C 0.24424(11) 0.9809(2) 0.46170(10)
H11 H 0.2716 0.9055 0.4872
C16 C 0.11772(12) 0.7105(2) 0.34745(9)
H12 H 0.1158 0.8107 0.3282
H13 H 0.0759 0.6511 0.3221
C17 C 0.19687(13) 0.6425(3) 0.34040(10)
H14 H 0.1999 0.5438 0.3610
H15 H 0.2391 0.7043 0.3638
C18 C 0.21063(13) 0.6279(3) 0.26935(11)
H16 H 0.2015 0.7250 0.2478
H17 H 0.2666 0.6011 0.2677
C19 C 0.15896(19) 0.5153(3) 0.23123(12)
H18 H 0.1733 0.5085 0.1867
H19 H 0.1035 0.5451 0.2294
H20 H 0.1664 0.4191 0.2528
O1 O 0.96929(9) 0.50114(16) 0.08400(7)
N1 N 0.94798(10) 0.66467(18) -0.00385(8)
H1 H 0.9761(16) 0.620(3) -0.0357(13)
N2 N 0.89915(9) 0.72073(18) 0.08528(8)
C1 C 0.94176(11) 0.6159(2) 0.05710(9)
C2 C 0.91110(11) 0.8017(2) -0.01409(9)
C3 C 0.88019(11) 0.8361(2) 0.04127(9)
C4 C 0.91454(11) 0.8828(2) -0.07497(9)
C5 C 0.92025(11) 0.8065(2) -0.13299(9)
H2 H 0.9198 0.7018 -0.1331
C6 C 0.92662(13) 0.8824(3) -0.19030(10)
H3 H 0.9304 0.8297 -0.2296
C7 C 0.92742(13) 1.0343(3) -0.19055(11)
H4 H 0.9317 1.0861 -0.2300
C8 C 0.92198(12) 1.1109(3) -0.13349(11)
H5 H 0.9222 1.2156 -0.1338
C9 C 0.91617(11) 1.0359(2) -0.07587(10)
H6 H 0.9133 1.0894 -0.0366
C10 C 0.83563(11) 0.9660(2) 0.05898(9)
C11 C 0.87421(12) 1.0768(2) 0.09672(11)
H7 H 0.9289 1.0670 0.1116
C12 C 0.83418(13) 1.2013(2) 0.11296(11)
H8 H 0.8614 1.2770 0.1384
C13 C 0.75475(12) 1.2149(2) 0.09211(11)
H9 H 0.7269 1.2999 0.1035
C14 C 0.71557(12) 1.1056(2) 0.05469(11)
H10 H 0.6608 1.1157 0.0401
C15 C 0.75576(11) 0.9809(2) 0.03830(10)
H11 H 0.7284 0.9055 0.0128
C16 C 0.88228(12) 0.7105(2) 0.15255(9)
H12 H 0.8842 0.8107 0.1718
H13 H 0.9241 0.6511 0.1779
C17 C 0.80313(13) 0.6425(3) 0.15960(10)
H14 H 0.8001 0.5438 0.1390
H15 H 0.7609 0.7043 0.1362
C18 C 0.78937(13) 0.6279(3) 0.23065(11)
H16 H 0.7985 0.7250 0.2522
H17 H 0.7334 0.6011 0.2323
C19 C 0.84104(19) 0.5153(3) 0.26877(12)
H18 H 0.8267 0.5085 0.3133
H19 H 0.8965 0.5451 0.2706
H20 H 0.8336 0.4191 0.2472
O1 O 0.53071(9) 0.00114(16) 0.41600(7)
N1 N 0.55202(10) 0.16467(18) 0.50385(8)
H1 H 0.5239(16) 0.120(3) 0.5357(13)
N2 N 0.60085(9) 0.22073(18) 0.41472(8)
C1 C 0.55824(11) 0.1159(2) 0.44290(9)
C2 C 0.58890(11) 0.3017(2) 0.51409(9)
C3 C 0.61981(11) 0.3361(2) 0.45873(9)
C4 C 0.58546(11) 0.3828(2) 0.57497(9)
C5 C 0.57975(11) 0.3065(2) 0.63299(9)
H2 H 0.5802 0.2018 0.6331
C6 C 0.57338(13) 0.3824(3) 0.69030(10)
H3 H 0.5696 0.3297 0.7296
C7 C 0.57258(13) 0.5343(3) 0.69055(11)
H4 H 0.5683 0.5861 0.7300
C8 C 0.57802(12) 0.6109(3) 0.63349(11)
H5 H 0.5778 0.7156 0.6338
C9 C 0.58383(11) 0.5359(2) 0.57587(10)
H6 H 0.5867 0.5894 0.5366
C10 C 0.66437(11) 0.4660(2) 0.44102(9)
C11 C 0.62579(12) 0.5768(2) 0.40328(11)
H7 H 0.5711 0.5670 0.3884
C12 C 0.66582(13) 0.7013(2) 0.38704(11)
H8 H 0.6386 0.7770 0.3616
C13 C 0.74525(12) 0.7149(2) 0.40789(11)
H9 H 0.7731 0.7999 0.3965
C14 C 0.78443(12) 0.6056(2) 0.44531(11)
H10 H 0.8392 0.6157 0.4599
C15 C 0.74424(11) 0.4809(2) 0.46170(10)
H11 H 0.7716 0.4055 0.4872
C16 C 0.61772(12) 0.2105(2) 0.34745(9)
H12 H 0.6158 0.3107 0.3282
H13 H 0.5759 0.1511 0.3221
C17 C 0.69687(13) 0.1425(3) 0.34040(10)
H14 H 0.6999 0.0438 0.3610
H15 H 0.7391 0.2043 0.3638
C18 C 0.71063(13) 0.1279(3) 0.26935(11)
H16 H 0.7015 0.2250 0.2478
H17 H 0.7666 0.1011 0.2677
C19 C 0.65896(19) 0.0153(3) 0.23123(12)
H18 H 0.6733 0.0085 0.1867
H19 H 0.6035 0.0451 0.2294
H20 H 0.6664 -0.0809 0.2528
O1 O 0.46929(9) 0.00114(16) 0.08400(7)
N1 N 0.44798(10) 0.16467(18) -0.00385(8)
H1 H 0.4761(16) 0.120(3) -0.0357(13)
N2 N 0.39915(9) 0.22073(18) 0.08528(8)
C1 C 0.44176(11) 0.1159(2) 0.05710(9)
C2 C 0.41110(11) 0.3017(2) -0.01409(9)
C3 C 0.38019(11) 0.3361(2) 0.04127(9)
C4 C 0.41454(11) 0.3828(2) -0.07497(9)
C5 C 0.42025(11) 0.3065(2) -0.13299(9)
H2 H 0.4198 0.2018 -0.1331
C6 C 0.42662(13) 0.3824(3) -0.19030(10)
H3 H 0.4304 0.3297 -0.2296
C7 C 0.42742(13) 0.5343(3) -0.19055(11)
H4 H 0.4317 0.5861 -0.2300
C8 C 0.42198(12) 0.6109(3) -0.13349(11)
H5 H 0.4222 0.7156 -0.1338
C9 C 0.41617(11) 0.5359(2) -0.07587(10)
H6 H 0.4133 0.5894 -0.0366
C10 C 0.33563(11) 0.4660(2) 0.05898(9)
C11 C 0.37421(12) 0.5768(2) 0.09672(11)
H7 H 0.4289 0.5670 0.1116
C12 C 0.33418(13) 0.7013(2) 0.11296(11)
H8 H 0.3614 0.7770 0.1384
C13 C 0.25475(12) 0.7149(2) 0.09211(11)
H9 H 0.2269 0.7999 0.1035
C14 C 0.21557(12) 0.6056(2) 0.05469(11)
H10 H 0.1608 0.6157 0.0401
C15 C 0.25576(11) 0.4809(2) 0.03830(10)
H11 H 0.2284 0.4055 0.0128
C16 C 0.38228(12) 0.2105(2) 0.15255(9)
H12 H 0.3842 0.3107 0.1718
H13 H 0.4241 0.1511 0.1779
C17 C 0.30313(13) 0.1425(3) 0.15960(10)
H14 H 0.3001 0.0438 0.1390
H15 H 0.2609 0.2043 0.1362
C18 C 0.28937(13) 0.1279(3) 0.23065(11)
H16 H 0.2985 0.2250 0.2522
H17 H 0.2334 0.1011 0.2323
C19 C 0.34104(19) 0.0153(3) 0.26877(12)
H18 H 0.3267 0.0085 0.3133
H19 H 0.3965 0.0451 0.2706
H20 H 0.3336 -0.0809 0.2472
O1 O 0.96929(9) 0.49886(16) 0.58400(7)
N1 N 0.94798(10) 0.33533(18) 0.49615(8)
H1 H 0.9761(16) 0.380(3) 0.4643(13)
N2 N 0.89915(9) 0.27927(18) 0.58528(8)
C1 C 0.94176(11) 0.3841(2) 0.55710(9)
C2 C 0.91110(11) 0.1983(2) 0.48591(9)
C3 C 0.88019(11) 0.1639(2) 0.54127(9)
C4 C 0.91454(11) 0.1172(2) 0.42503(9)
C5 C 0.92025(11) 0.1935(2) 0.36701(9)
H2 H 0.9198 0.2982 0.3669
C6 C 0.92662(13) 0.1176(3) 0.30970(10)
H3 H 0.9304 0.1703 0.2704
C7 C 0.92742(13) -0.0343(3) 0.30945(11)
H4 H 0.9317 -0.0861 0.2700
C8 C 0.92198(12) -0.1109(3) 0.36651(11)
H5 H 0.9222 -0.2156 0.3662
C9 C 0.91617(11) -0.0359(2) 0.42413(10)
H6 H 0.9133 -0.0894 0.4634
C10 C 0.83563(11) 0.0340(2) 0.55898(9)
C11 C 0.87421(12) -0.0768(2) 0.59672(11)
H7 H 0.9289 -0.0670 0.6116
C12 C 0.83418(13) -0.2013(2) 0.61296(11)
H8 H 0.8614 -0.2770 0.6384
C13 C 0.75475(12) -0.2149(2) 0.59211(11)
H9 H 0.7269 -0.2999 0.6035
C14 C 0.71557(12) -0.1056(2) 0.55469(11)
H10 H 0.6608 -0.1157 0.5401
C15 C 0.75576(11) 0.0191(2) 0.53830(10)
H11 H 0.7284 0.0945 0.5128
C16 C 0.88228(12) 0.2895(2) 0.65255(9)
H12 H 0.8842 0.1893 0.6718
H13 H 0.9241 0.3489 0.6779
C17 C 0.80313(13) 0.3575(3) 0.65960(10)
H14 H 0.8001 0.4562 0.6390
H15 H 0.7609 0.2957 0.6362
C18 C 0.78937(13) 0.3721(3) 0.73065(11)
H16 H 0.7985 0.2750 0.7522
H17 H 0.7334 0.3989 0.7323
C19 C 0.84104(19) 0.4847(3) 0.76877(12)
H18 H 0.8267 0.4915 0.8133
H19 H 0.8965 0.4549 0.7706
H20 H 0.8336 0.5809 0.7472
O1 O 0.03071(9) 0.49886(16) 0.91600(7)
N1 N 0.05202(10) 0.33533(18) 1.00385(8)
H1 H 0.0239(16) 0.380(3) 1.0357(13)
N2 N 0.10085(9) 0.27927(18) 0.91472(8)
C1 C 0.05824(11) 0.3841(2) 0.94290(9)
C2 C 0.08890(11) 0.1983(2) 1.01409(9)
C3 C 0.11981(11) 0.1639(2) 0.95873(9)
C4 C 0.08546(11) 0.1172(2) 1.07497(9)
C5 C 0.07975(11) 0.1935(2) 1.13299(9)
H2 H 0.0802 0.2982 1.1331
C6 C 0.07338(13) 0.1176(3) 1.19030(10)
H3 H 0.0696 0.1703 1.2296
C7 C 0.07258(13) -0.0343(3) 1.19055(11)
H4 H 0.0683 -0.0861 1.2300
C8 C 0.07802(12) -0.1109(3) 1.13349(11)
H5 H 0.0778 -0.2156 1.1338
C9 C 0.08383(11) -0.0359(2) 1.07587(10)
H6 H 0.0867 -0.0894 1.0366
C10 C 0.16437(11) 0.0340(2) 0.94102(9)
C11 C 0.12579(12) -0.0768(2) 0.90328(11)
H7 H 0.0711 -0.0670 0.8884
C12 C 0.16582(13) -0.2013(2) 0.88704(11)
H8 H 0.1386 -0.2770 0.8616
C13 C 0.24525(12) -0.2149(2) 0.90789(11)
H9 H 0.2731 -0.2999 0.8965
C14 C 0.28443(12) -0.1056(2) 0.94531(11)
H10 H 0.3392 -0.1157 0.9599
C15 C 0.24424(11) 0.0191(2) 0.96170(10)
H11 H 0.2716 0.0945 0.9872
C16 C 0.11772(12) 0.2895(2) 0.84745(9)
H12 H 0.1158 0.1893 0.8282
H13 H 0.0759 0.3489 0.8221
C17 C 0.19687(13) 0.3575(3) 0.84040(10)
H14 H 0.1999 0.4562 0.8610
H15 H 0.2391 0.2957 0.8638
C18 C 0.21063(13) 0.3721(3) 0.76935(11)
H16 H 0.2015 0.2750 0.7478
H17 H 0.2666 0.3989 0.7677
C19 C 0.15896(19) 0.4847(3) 0.73123(12)
H18 H 0.1733 0.4915 0.6867
H19 H 0.1035 0.4549 0.7294
H20 H 0.1664 0.5809 0.7528
O1 O 0.46929(9) 0.99886(16) 0.58400(7)
N1 N 0.44798(10) 0.83533(18) 0.49615(8)
H1 H 0.4761(16) 0.880(3) 0.4643(13)
N2 N 0.39915(9) 0.77927(18) 0.58528(8)
C1 C 0.44176(11) 0.8841(2) 0.55710(9)
C2 C 0.41110(11) 0.6983(2) 0.48591(9)
C3 C 0.38019(11) 0.6639(2) 0.54127(9)
C4 C 0.41454(11) 0.6172(2) 0.42503(9)
C5 C 0.42025(11) 0.6935(2) 0.36701(9)
H2 H 0.4198 0.7982 0.3669
C6 C 0.42662(13) 0.6176(3) 0.30970(10)
H3 H 0.4304 0.6703 0.2704
C7 C 0.42742(13) 0.4657(3) 0.30945(11)
H4 H 0.4317 0.4139 0.2700
C8 C 0.42198(12) 0.3891(3) 0.36651(11)
H5 H 0.4222 0.2844 0.3662
C9 C 0.41617(11) 0.4641(2) 0.42413(10)
H6 H 0.4133 0.4106 0.4634
C10 C 0.33563(11) 0.5340(2) 0.55898(9)
C11 C 0.37421(12) 0.4232(2) 0.59672(11)
H7 H 0.4289 0.4330 0.6116
C12 C 0.33418(13) 0.2987(2) 0.61296(11)
H8 H 0.3614 0.2230 0.6384
C13 C 0.25475(12) 0.2851(2) 0.59211(11)
H9 H 0.2269 0.2001 0.6035
C14 C 0.21557(12) 0.3944(2) 0.55469(11)
H10 H 0.1608 0.3843 0.5401
C15 C 0.25576(11) 0.5191(2) 0.53830(10)
H11 H 0.2284 0.5945 0.5128
C16 C 0.38228(12) 0.7895(2) 0.65255(9)
H12 H 0.3842 0.6893 0.6718
H13 H 0.4241 0.8489 0.6779
C17 C 0.30313(13) 0.8575(3) 0.65960(10)
H14 H 0.3001 0.9562 0.6390
H15 H 0.2609 0.7957 0.6362
C18 C 0.28937(13) 0.8721(3) 0.73065(11)
H16 H 0.2985 0.7750 0.7522
H17 H 0.2334 0.8989 0.7323
C19 C 0.34104(19) 0.9847(3) 0.76877(12)
H18 H 0.3267 0.9915 0.8133
H19 H 0.3965 0.9549 0.7706
H20 H 0.3336 1.0809 0.7472
O1 O 0.53071(9) 0.99886(16) 0.91600(7)
N1 N 0.55202(10) 0.83533(18) 1.00385(8)
H1 H 0.5239(16) 0.880(3) 1.0357(13)
N2 N 0.60085(9) 0.77927(18) 0.91472(8)
C1 C 0.55824(11) 0.8841(2) 0.94290(9)
C2 C 0.58890(11) 0.6983(2) 1.01409(9)
C3 C 0.61981(11) 0.6639(2) 0.95873(9)
C4 C 0.58546(11) 0.6172(2) 1.07497(9)
C5 C 0.57975(11) 0.6935(2) 1.13299(9)
H2 H 0.5802 0.7982 1.1331
C6 C 0.57338(13) 0.6176(3) 1.19030(10)
H3 H 0.5696 0.6703 1.2296
C7 C 0.57258(13) 0.4657(3) 1.19055(11)
H4 H 0.5683 0.4139 1.2300
C8 C 0.57802(12) 0.3891(3) 1.13349(11)
H5 H 0.5778 0.2844 1.1338
C9 C 0.58383(11) 0.4641(2) 1.07587(10)
H6 H 0.5867 0.4106 1.0366
C10 C 0.66437(11) 0.5340(2) 0.94102(9)
C11 C 0.62579(12) 0.4232(2) 0.90328(11)
H7 H 0.5711 0.4330 0.8884
C12 C 0.66582(13) 0.2987(2) 0.88704(11)
H8 H 0.6386 0.2230 0.8616
C13 C 0.74525(12) 0.2851(2) 0.90789(11)
H9 H 0.7731 0.2001 0.8965
C14 C 0.78443(12) 0.3944(2) 0.94531(11)
H10 H 0.8392 0.3843 0.9599
C15 C 0.74424(11) 0.5191(2) 0.96170(10)
H11 H 0.7716 0.5945 0.9872
C16 C 0.61772(12) 0.7895(2) 0.84745(9)
H12 H 0.6158 0.6893 0.8282
H13 H 0.5759 0.8489 0.8221
C17 C 0.69687(13) 0.8575(3) 0.84040(10)
H14 H 0.6999 0.9562 0.8610
H15 H 0.7391 0.7957 0.8638
C18 C 0.71063(13) 0.8721(3) 0.76935(11)
H16 H 0.7015 0.7750 0.7478
H17 H 0.7666 0.8989 0.7677
C19 C 0.65896(19) 0.9847(3) 0.73123(12)
H18 H 0.6733 0.9915 0.6867
H19 H 0.6035 0.9549 0.7294
H20 H 0.6664 1.0809 0.7528

#END
