./MAQQUT_from_xyz.cif_generated_by_CrystalShift
_symmetry_cell_setting triclinic
_symmetry_space_group_name_H-M 'P 1'
loop_
_symmetry_equiv_pos_site_id
_symmetry_equiv_pos_as_xyz
1 x,y,z
_cell_length_a 17.066000
_cell_length_b 9.071000
_cell_length_c 20.595000
_cell_angle_alpha 90.000000
_cell_angle_beta 97.132000
_cell_angle_gamma 90.000000
_cell_volume 3163.554972
loop_
_atom_site_label
_atom_site_type_symbol
_atom_site_fract_x
_atom_site_fract_y
_atom_site_fract_z
O1 O 0.030710 0.501140 0.416000
N2 N 0.052020 0.664670 0.503850
H3 H 0.023900 0.620000 0.535700
N4 N 0.100850 0.720730 0.414720
C5 C 0.058240 0.615900 0.442900
C6 C 0.088900 0.801700 0.514090
C7 C 0.119810 0.836100 0.458730
C8 C 0.085460 0.882800 0.574970
C9 C 0.079750 0.806500 0.632990
H10 H 0.080200 0.701800 0.633100
C11 C 0.073380 0.882400 0.690300
H12 H 0.069600 0.829700 0.729600
C13 C 0.072580 1.034300 0.690550
H14 H 0.068300 1.086100 0.730000
C15 C 0.078020 1.110900 0.633490
H16 H 0.077800 1.215600 0.633800
C17 C 0.083830 1.035900 0.575870
H18 H 0.086700 1.089400 0.536600
C19 C 0.164370 0.966000 0.441020
C20 C 0.125790 1.076800 0.403280
H21 H 0.071100 1.067000 0.388400
C22 C 0.165820 1.201300 0.387040
H23 H 0.138600 1.277000 0.361600
C24 C 0.245250 1.214900 0.407890
H25 H 0.273100 1.299900 0.396500
C26 C 0.284430 1.105600 0.445310
H27 H 0.339200 1.115700 0.459900
C28 C 0.244240 0.980900 0.461700
H29 H 0.271600 0.905500 0.487200
C30 C 0.117720 0.710500 0.347450
H31 H 0.115800 0.810700 0.328200
H32 H 0.075900 0.651100 0.322100
C33 C 0.196870 0.642500 0.340400
H34 H 0.199900 0.543800 0.361000
H35 H 0.239100 0.704300 0.363800
C36 C 0.210630 0.627900 0.269350
H37 H 0.201500 0.725000 0.247800
H38 H 0.266600 0.601100 0.267700
C39 C 0.158960 0.515300 0.231230
H40 H 0.173300 0.508500 0.186700
H41 H 0.103500 0.545100 0.229400
H42 H 0.166400 0.419100 0.252800
O43 O 0.969290 0.501140 0.084000
N44 N 0.947980 0.664670 -0.003850
H45 H 0.976100 0.620000 -0.035700
N46 N 0.899150 0.720730 0.085280
C47 C 0.941760 0.615900 0.057100
C48 C 0.911100 0.801700 -0.014090
C49 C 0.880190 0.836100 0.041270
C50 C 0.914540 0.882800 -0.074970
C51 C 0.920250 0.806500 -0.132990
H52 H 0.919800 0.701800 -0.133100
C53 C 0.926620 0.882400 -0.190300
H54 H 0.930400 0.829700 -0.229600
C55 C 0.927420 1.034300 -0.190550
H56 H 0.931700 1.086100 -0.230000
C57 C 0.921980 1.110900 -0.133490
H58 H 0.922200 1.215600 -0.133800
C59 C 0.916170 1.035900 -0.075870
H60 H 0.913300 1.089400 -0.036600
C61 C 0.835630 0.966000 0.058980
C62 C 0.874210 1.076800 0.096720
H63 H 0.928900 1.067000 0.111600
C64 C 0.834180 1.201300 0.112960
H65 H 0.861400 1.277000 0.138400
C66 C 0.754750 1.214900 0.092110
H67 H 0.726900 1.299900 0.103500
C68 C 0.715570 1.105600 0.054690
H69 H 0.660800 1.115700 0.040100
C70 C 0.755760 0.980900 0.038300
H71 H 0.728400 0.905500 0.012800
C72 C 0.882280 0.710500 0.152550
H73 H 0.884200 0.810700 0.171800
H74 H 0.924100 0.651100 0.177900
C75 C 0.803130 0.642500 0.159600
H76 H 0.800100 0.543800 0.139000
H77 H 0.760900 0.704300 0.136200
C78 C 0.789370 0.627900 0.230650
H79 H 0.798500 0.725000 0.252200
H80 H 0.733400 0.601100 0.232300
C81 C 0.841040 0.515300 0.268770
H82 H 0.826700 0.508500 0.313300
H83 H 0.896500 0.545100 0.270600
H84 H 0.833600 0.419100 0.247200
O85 O 0.530710 0.001140 0.416000
N86 N 0.552020 0.164670 0.503850
H87 H 0.523900 0.120000 0.535700
N88 N 0.600850 0.220730 0.414720
C89 C 0.558240 0.115900 0.442900
C90 C 0.588900 0.301700 0.514090
C91 C 0.619810 0.336100 0.458730
C92 C 0.585460 0.382800 0.574970
C93 C 0.579750 0.306500 0.632990
H94 H 0.580200 0.201800 0.633100
C95 C 0.573380 0.382400 0.690300
H96 H 0.569600 0.329700 0.729600
C97 C 0.572580 0.534300 0.690550
H98 H 0.568300 0.586100 0.730000
C99 C 0.578020 0.610900 0.633490
H100 H 0.577800 0.715600 0.633800
C101 C 0.583830 0.535900 0.575870
H102 H 0.586700 0.589400 0.536600
C103 C 0.664370 0.466000 0.441020
C104 C 0.625790 0.576800 0.403280
H105 H 0.571100 0.567000 0.388400
C106 C 0.665820 0.701300 0.387040
H107 H 0.638600 0.777000 0.361600
C108 C 0.745250 0.714900 0.407890
H109 H 0.773100 0.799900 0.396500
C110 C 0.784430 0.605600 0.445310
H111 H 0.839200 0.615700 0.459900
C112 C 0.744240 0.480900 0.461700
H113 H 0.771600 0.405500 0.487200
C114 C 0.617720 0.210500 0.347450
H115 H 0.615800 0.310700 0.328200
H116 H 0.575900 0.151100 0.322100
C117 C 0.696870 0.142500 0.340400
H118 H 0.699900 0.043800 0.361000
H119 H 0.739100 0.204300 0.363800
C120 C 0.710630 0.127900 0.269350
H121 H 0.701500 0.225000 0.247800
H122 H 0.766600 0.101100 0.267700
C123 C 0.658960 0.015300 0.231230
H124 H 0.673300 0.008500 0.186700
H125 H 0.603500 0.045100 0.229400
H126 H 0.666400 -0.080900 0.252800
O127 O 0.469290 0.001140 0.084000
N128 N 0.447980 0.164670 -0.003850
H129 H 0.476100 0.120000 -0.035700
N130 N 0.399150 0.220730 0.085280
C131 C 0.441760 0.115900 0.057100
C132 C 0.411100 0.301700 -0.014090
C133 C 0.380190 0.336100 0.041270
C134 C 0.414540 0.382800 -0.074970
C135 C 0.420250 0.306500 -0.132990
H136 H 0.419800 0.201800 -0.133100
C137 C 0.426620 0.382400 -0.190300
H138 H 0.430400 0.329700 -0.229600
C139 C 0.427420 0.534300 -0.190550
H140 H 0.431700 0.586100 -0.230000
C141 C 0.421980 0.610900 -0.133490
H142 H 0.422200 0.715600 -0.133800
C143 C 0.416170 0.535900 -0.075870
H144 H 0.413300 0.589400 -0.036600
C145 C 0.335630 0.466000 0.058980
C146 C 0.374210 0.576800 0.096720
H147 H 0.428900 0.567000 0.111600
C148 C 0.334180 0.701300 0.112960
H149 H 0.361400 0.777000 0.138400
C150 C 0.254750 0.714900 0.092110
H151 H 0.226900 0.799900 0.103500
C152 C 0.215570 0.605600 0.054690
H153 H 0.160800 0.615700 0.040100
C154 C 0.255760 0.480900 0.038300
H155 H 0.228400 0.405500 0.012800
C156 C 0.382280 0.210500 0.152550
H157 H 0.384200 0.310700 0.171800
H158 H 0.424100 0.151100 0.177900
C159 C 0.303130 0.142500 0.159600
H160 H 0.300100 0.043800 0.139000
H161 H 0.260900 0.204300 0.136200
C162 C 0.289370 0.127900 0.230650
H163 H 0.298500 0.225000 0.252200
H164 H 0.233400 0.101100 0.232300
C165 C 0.341040 0.015300 0.268770
H166 H 0.326700 0.008500 0.313300
H167 H 0.396500 0.045100 0.270600
H168 H 0.333600 -0.080900 0.247200
O169 O 0.969290 0.498860 0.584000
N170 N 0.947980 0.335330 0.496150
H171 H 0.976100 0.380000 0.464300
N172 N 0.899150 0.279270 0.585280
C173 C 0.941760 0.384100 0.557100
C174 C 0.911100 0.198300 0.485910
C175 C 0.880190 0.163900 0.541270
C176 C 0.914540 0.117200 0.425030
C177 C 0.920250 0.193500 0.367010
H178 H 0.919800 0.298200 0.366900
C179 C 0.926620 0.117600 0.309700
H180 H 0.930400 0.170300 0.270400
C181 C 0.927420 -0.034300 0.309450
H182 H 0.931700 -0.086100 0.270000
C183 C 0.921980 -0.110900 0.366510
H184 H 0.922200 -0.215600 0.366200
C185 C 0.916170 -0.035900 0.424130
H186 H 0.913300 -0.089400 0.463400
C187 C 0.835630 0.034000 0.558980
C188 C 0.874210 -0.076800 0.596720
H189 H 0.928900 -0.067000 0.611600
C190 C 0.834180 -0.201300 0.612960
H191 H 0.861400 -0.277000 0.638400
C192 C 0.754750 -0.214900 0.592110
H193 H 0.726900 -0.299900 0.603500
C194 C 0.715570 -0.105600 0.554690
H195 H 0.660800 -0.115700 0.540100
C196 C 0.755760 0.019100 0.538300
H197 H 0.728400 0.094500 0.512800
C198 C 0.882280 0.289500 0.652550
H199 H 0.884200 0.189300 0.671800
H200 H 0.924100 0.348900 0.677900
C201 C 0.803130 0.357500 0.659600
H202 H 0.800100 0.456200 0.639000
H203 H 0.760900 0.295700 0.636200
C204 C 0.789370 0.372100 0.730650
H205 H 0.798500 0.275000 0.752200
H206 H 0.733400 0.398900 0.732300
C207 C 0.841040 0.484700 0.768770
H208 H 0.826700 0.491500 0.813300
H209 H 0.896500 0.454900 0.770600
H210 H 0.833600 0.580900 0.747200
O211 O 0.030710 0.498860 0.916000
N212 N 0.052020 0.335330 1.003850
H213 H 0.023900 0.380000 1.035700
N214 N 0.100850 0.279270 0.914720
C215 C 0.058240 0.384100 0.942900
C216 C 0.088900 0.198300 1.014090
C217 C 0.119810 0.163900 0.958730
C218 C 0.085460 0.117200 1.074970
C219 C 0.079750 0.193500 1.132990
H220 H 0.080200 0.298200 1.133100
C221 C 0.073380 0.117600 1.190300
H222 H 0.069600 0.170300 1.229600
C223 C 0.072580 -0.034300 1.190550
H224 H 0.068300 -0.086100 1.230000
C225 C 0.078020 -0.110900 1.133490
H226 H 0.077800 -0.215600 1.133800
C227 C 0.083830 -0.035900 1.075870
H228 H 0.086700 -0.089400 1.036600
C229 C 0.164370 0.034000 0.941020
C230 C 0.125790 -0.076800 0.903280
H231 H 0.071100 -0.067000 0.888400
C232 C 0.165820 -0.201300 0.887040
H233 H 0.138600 -0.277000 0.861600
C234 C 0.245250 -0.214900 0.907890
H235 H 0.273100 -0.299900 0.896500
C236 C 0.284430 -0.105600 0.945310
H237 H 0.339200 -0.115700 0.959900
C238 C 0.244240 0.019100 0.961700
H239 H 0.271600 0.094500 0.987200
C240 C 0.117720 0.289500 0.847450
H241 H 0.115800 0.189300 0.828200
H242 H 0.075900 0.348900 0.822100
C243 C 0.196870 0.357500 0.840400
H244 H 0.199900 0.456200 0.861000
H245 H 0.239100 0.295700 0.863800
C246 C 0.210630 0.372100 0.769350
H247 H 0.201500 0.275000 0.747800
H248 H 0.266600 0.398900 0.767700
C249 C 0.158960 0.484700 0.731230
H250 H 0.173300 0.491500 0.686700
H251 H 0.103500 0.454900 0.729400
H252 H 0.166400 0.580900 0.752800
O253 O 0.469290 0.998860 0.584000
N254 N 0.447980 0.835330 0.496150
H255 H 0.476100 0.880000 0.464300
N256 N 0.399150 0.779270 0.585280
C257 C 0.441760 0.884100 0.557100
C258 C 0.411100 0.698300 0.485910
C259 C 0.380190 0.663900 0.541270
C260 C 0.414540 0.617200 0.425030
C261 C 0.420250 0.693500 0.367010
H262 H 0.419800 0.798200 0.366900
C263 C 0.426620 0.617600 0.309700
H264 H 0.430400 0.670300 0.270400
C265 C 0.427420 0.465700 0.309450
H266 H 0.431700 0.413900 0.270000
C267 C 0.421980 0.389100 0.366510
H268 H 0.422200 0.284400 0.366200
C269 C 0.416170 0.464100 0.424130
H270 H 0.413300 0.410600 0.463400
C271 C 0.335630 0.534000 0.558980
C272 C 0.374210 0.423200 0.596720
H273 H 0.428900 0.433000 0.611600
C274 C 0.334180 0.298700 0.612960
H275 H 0.361400 0.223000 0.638400
C276 C 0.254750 0.285100 0.592110
H277 H 0.226900 0.200100 0.603500
C278 C 0.215570 0.394400 0.554690
H279 H 0.160800 0.384300 0.540100
C280 C 0.255760 0.519100 0.538300
H281 H 0.228400 0.594500 0.512800
C282 C 0.382280 0.789500 0.652550
H283 H 0.384200 0.689300 0.671800
H284 H 0.424100 0.848900 0.677900
C285 C 0.303130 0.857500 0.659600
H286 H 0.300100 0.956200 0.639000
H287 H 0.260900 0.795700 0.636200
C288 C 0.289370 0.872100 0.730650
H289 H 0.298500 0.775000 0.752200
H290 H 0.233400 0.898900 0.732300
C291 C 0.341040 0.984700 0.768770
H292 H 0.326700 0.991500 0.813300
H293 H 0.396500 0.954900 0.770600
H294 H 0.333600 1.080900 0.747200
O295 O 0.530710 0.998860 0.916000
N296 N 0.552020 0.835330 1.003850
H297 H 0.523900 0.880000 1.035700
N298 N 0.600850 0.779270 0.914720
C299 C 0.558240 0.884100 0.942900
C300 C 0.588900 0.698300 1.014090
C301 C 0.619810 0.663900 0.958730
C302 C 0.585460 0.617200 1.074970
C303 C 0.579750 0.693500 1.132990
H304 H 0.580200 0.798200 1.133100
C305 C 0.573380 0.617600 1.190300
H306 H 0.569600 0.670300 1.229600
C307 C 0.572580 0.465700 1.190550
H308 H 0.568300 0.413900 1.230000
C309 C 0.578020 0.389100 1.133490
H310 H 0.577800 0.284400 1.133800
C311 C 0.583830 0.464100 1.075870
H312 H 0.586700 0.410600 1.036600
C313 C 0.664370 0.534000 0.941020
C314 C 0.625790 0.423200 0.903280
H315 H 0.571100 0.433000 0.888400
C316 C 0.665820 0.298700 0.887040
H317 H 0.638600 0.223000 0.861600
C318 C 0.745250 0.285100 0.907890
H319 H 0.773100 0.200100 0.896500
C320 C 0.784430 0.394400 0.945310
H321 H 0.839200 0.384300 0.959900
C322 C 0.744240 0.519100 0.961700
H323 H 0.771600 0.594500 0.987200
C324 C 0.617720 0.789500 0.847450
H325 H 0.615800 0.689300 0.828200
H326 H 0.575900 0.848900 0.822100
C327 C 0.696870 0.857500 0.840400
H328 H 0.699900 0.956200 0.861000
H329 H 0.739100 0.795700 0.863800
C330 C 0.710630 0.872100 0.769350
H331 H 0.701500 0.775000 0.747800
H332 H 0.766600 0.898900 0.767700
C333 C 0.658960 0.984700 0.731230
H334 H 0.673300 0.991500 0.686700
H335 H 0.603500 0.954900 0.729400
H336 H 0.666400 1.080900 0.752800

#END
