./MAQQON_from_xyz.cif_generated_by_CrystalShift
_symmetry_cell_setting triclinic
_symmetry_space_group_name_H-M 'P 1'
loop_
_symmetry_equiv_pos_site_id
_symmetry_equiv_pos_as_xyz
1 x,y,z
_cell_length_a 8.753400
_cell_length_b 9.302900
_cell_length_c 10.266200
_cell_angle_alpha 89.203000
_cell_angle_beta 78.281000
_cell_angle_gamma 66.468000
_cell_volume 748.391964
loop_
_atom_site_label
_atom_site_type_symbol
_atom_site_fract_x
_atom_site_fract_y
_atom_site_fract_z
O1 O -0.507120 0.451720 0.178850
N2 N -0.280730 0.397400 -0.006210
H3 H -0.345000 0.447800 -0.066200
N4 N -0.218980 0.309650 0.182580
C5 C -0.352460 0.392260 0.123060
C6 C -0.102400 0.322200 -0.028160
C7 C -0.064320 0.266550 0.089290
C8 C 0.005680 0.321300 -0.157370
C9 C -0.051620 0.323600 -0.275780
H10 H -0.158600 0.318800 -0.272900
C11 C 0.046780 0.332810 -0.396640
H12 H 0.006500 0.334600 -0.476100
C13 C 0.203840 0.339410 -0.403190
H14 H 0.270700 0.345900 -0.486600
C15 C 0.262430 0.336420 -0.286790
H16 H 0.370000 0.340400 -0.290600
C17 C 0.164310 0.327650 -0.165050
H18 H 0.205300 0.325900 -0.085900
C19 C 0.102940 0.178030 0.125240
C20 C 0.194830 0.018580 0.087350
H21 H 0.149200 -0.035600 0.039400
C22 C 0.352820 -0.062010 0.119150
H23 H 0.414200 -0.171200 0.094000
C24 C 0.420900 0.016680 0.187440
H25 H 0.529500 -0.038200 0.208300
C26 C 0.330650 0.175390 0.225300
H27 H 0.377600 0.229600 0.271800
C28 C 0.171670 0.255490 0.195520
H29 H 0.109200 0.364000 0.223300
C30 C -0.242330 0.279230 0.323540
H31 H -0.356600 0.354500 0.371000
H32 H -0.156400 0.298800 0.361400
C33 C -0.226700 0.114050 0.349290
H34 H -0.111500 0.037800 0.304600
H35 H -0.311500 0.092900 0.311200
C36 C -0.255800 0.092500 0.498150
H37 H -0.248900 -0.014100 0.512700
H38 H -0.369000 0.169300 0.542700
H39 H -0.168400 0.108300 0.535000
O40 O 1.507120 0.548280 0.821150
N41 N 1.280730 0.602600 1.006210
H42 H 1.345000 0.552200 1.066200
N43 N 1.218980 0.690350 0.817420
C44 C 1.352460 0.607740 0.876940
C45 C 1.102400 0.677800 1.028160
C46 C 1.064320 0.733450 0.910710
C47 C 0.994320 0.678700 1.157370
C48 C 1.051620 0.676400 1.275780
H49 H 1.158600 0.681200 1.272900
C50 C 0.953220 0.667190 1.396640
H51 H 0.993500 0.665400 1.476100
C52 C 0.796160 0.660590 1.403190
H53 H 0.729300 0.654100 1.486600
C54 C 0.737570 0.663580 1.286790
H55 H 0.630000 0.659600 1.290600
C56 C 0.835690 0.672350 1.165050
H57 H 0.794700 0.674100 1.085900
C58 C 0.897060 0.821970 0.874760
C59 C 0.805170 0.981420 0.912650
H60 H 0.850800 1.035600 0.960600
C61 C 0.647180 1.062010 0.880850
H62 H 0.585800 1.171200 0.906000
C63 C 0.579100 0.983320 0.812560
H64 H 0.470500 1.038200 0.791700
C65 C 0.669350 0.824610 0.774700
H66 H 0.622400 0.770400 0.728200
C67 C 0.828330 0.744510 0.804480
H68 H 0.890800 0.636000 0.776700
C69 C 1.242330 0.720770 0.676460
H70 H 1.356600 0.645500 0.629000
H71 H 1.156400 0.701200 0.638600
C72 C 1.226700 0.885950 0.650710
H73 H 1.111500 0.962200 0.695400
H74 H 1.311500 0.907100 0.688800
C75 C 1.255800 0.907500 0.501850
H76 H 1.248900 1.014100 0.487300
H77 H 1.369000 0.830700 0.457300
H78 H 1.168400 0.891700 0.465000

#END
