
#######################################################################
#
#                 Cambridge Crystallographic Data Centre
#                                CCDC 
#
#######################################################################
#
# If this CIF has been generated from an entry in the Cambridge 
# Structural Database, then it will include bibliographic, chemical, 
# crystal, experimental, refinement or atomic coordinate data resulting 
# from the CCDC's data processing and validation procedures.
#
#######################################################################

data_MAQVOP
_symmetry_cell_setting           triclinic
_symmetry_space_group_name_H-M   'P -1'
_symmetry_Int_Tables_number      2
_space_group_name_Hall           '-P 1'
loop_
_symmetry_equiv_pos_site_id
_symmetry_equiv_pos_as_xyz
1 x,y,z
2 -x,-y,-z
_cell_length_a                   6.1214(6)
_cell_length_b                   11.9365(10)
_cell_length_c                   14.1702(11)
_cell_angle_alpha                68.010(6)
_cell_angle_beta                 79.031(6)
_cell_angle_gamma                86.674(7)
_cell_volume                     942.424
loop_
_atom_site_label
_atom_site_type_symbol
_atom_site_fract_x
_atom_site_fract_y
_atom_site_fract_z
C1 C 0.0055(3) 0.91084(17) 0.79378(15)
C2 C 0.1474(3) 0.87505(17) 0.72171(15)
H1 H 0.1473 0.9179 0.6517
C3 C 0.2897(3) 0.77772(17) 0.74976(14)
C4 C 0.2906(3) 0.71906(17) 0.85625(15)
C5 C 0.1550(3) 0.75342(17) 0.93236(14)
C6 C 0.0120(3) 0.84888(17) 0.89774(15)
H2 H -0.0834 0.8721 0.9464
C7 C 0.4379(3) 0.73771(19) 0.66727(16)
C8 C 0.6850(4) 0.7536(3) 0.6672(2)
H3 H 0.7174 0.7075 0.7347
H4 H 0.7174 0.8375 0.6498
H5 H 0.7748 0.7259 0.6172
C9 C 0.3972(5) 0.8132(3) 0.55805(17)
H6 H 0.4918 0.7858 0.5090
H7 H 0.4299 0.8967 0.5422
H8 H 0.2444 0.8045 0.5546
C10 C 0.3831(5) 0.6068(2) 0.6850(2)
H9 H 0.4054 0.5547 0.7528
H10 H 0.4789 0.5828 0.6340
H11 H 0.2308 0.6008 0.6793
O1 O 0.4286(3) 0.62265(16) 0.89055(13)
H12 H 0.510(5) 0.614(3) 0.854(2)
C11 C 0.1662(3) 0.69119(19) 1.04841(15)
C12 C 0.1002(4) 0.5571(2) 1.08908(17)
H13 H 0.1976 0.5175 1.0501
H14 H -0.0505 0.5498 1.0818
H15 H 0.1121 0.5202 1.1608
C13 C 0.0056(4) 0.7487(3) 1.11431(17)
H16 H 0.0416 0.8331 1.0914
H17 H 0.0194 0.7094 1.1857
H18 H -0.1443 0.7395 1.1070
C14 C 0.4025(4) 0.7044(2) 1.06674(18)
H19 H 0.5081 0.6693 1.0268
H20 H 0.4081 0.6637 1.1389
H21 H 0.4381 0.7885 1.0460
C15 C -0.1475(3) 1.01383(17) 0.76111(15)
C16 C -0.0702(3) 1.12553(18) 0.68747(15)
H22 H 0.0790 1.1352 0.6560
C17 C -0.2117(3) 1.22271(18) 0.66022(15)
C18 C -0.4362(4) 1.2092(2) 0.70474(17)
H23 H -0.5320 1.2739 0.6860
C19 C -0.5151(4) 1.0984(2) 0.77707(18)
H24 H -0.6652 1.0882 0.8069
C20 C -0.3726(3) 1.0027(2) 0.80539(17)
H25 H -0.4280 0.9291 0.8552
O2 O -0.2570(3) 1.42841(16) 0.56254(15)
H26 H -0.190(5) 1.511(3) 0.515(2)
C21 C -0.1193(4) 1.34257(19) 0.58778(16)
O3 O 0.0858(3) 1.35627(15) 0.55391(15)
C1 C 0.9945(3) 0.08916(17) 0.20622(15)
C2 C 0.8526(3) 0.12495(17) 0.27829(15)
H1 H 0.8527 0.0821 0.3483
C3 C 0.7103(3) 0.22228(17) 0.25024(14)
C4 C 0.7094(3) 0.28094(17) 0.14375(15)
C5 C 0.8450(3) 0.24658(17) 0.06764(14)
C6 C 0.9880(3) 0.15112(17) 0.10226(15)
H2 H 1.0834 0.1279 0.0536
C7 C 0.5621(3) 0.26229(19) 0.33273(16)
C8 C 0.3150(4) 0.2464(3) 0.3328(2)
H3 H 0.2826 0.2925 0.2653
H4 H 0.2826 0.1625 0.3502
H5 H 0.2252 0.2741 0.3828
C9 C 0.6028(5) 0.1868(3) 0.44195(17)
H6 H 0.5082 0.2142 0.4910
H7 H 0.5701 0.1033 0.4578
H8 H 0.7556 0.1955 0.4454
C10 C 0.6169(5) 0.3932(2) 0.3150(2)
H9 H 0.5946 0.4453 0.2472
H10 H 0.5211 0.4172 0.3660
H11 H 0.7692 0.3992 0.3207
O1 O 0.5714(3) 0.37735(16) 0.10945(13)
H12 H 0.490(5) 0.386(3) 0.146(2)
C11 C 0.8338(3) 0.30881(19) -0.04841(15)
C12 C 0.8998(4) 0.4429(2) -0.08908(17)
H13 H 0.8024 0.4825 -0.0501
H14 H 1.0505 0.4502 -0.0818
H15 H 0.8879 0.4798 -0.1608
C13 C 0.9944(4) 0.2513(3) -0.11431(17)
H16 H 0.9584 0.1669 -0.0914
H17 H 0.9806 0.2906 -0.1857
H18 H 1.1443 0.2605 -0.1070
C14 C 0.5975(4) 0.2956(2) -0.06674(18)
H19 H 0.4919 0.3307 -0.0268
H20 H 0.5919 0.3363 -0.1389
H21 H 0.5619 0.2115 -0.0460
C15 C 1.1475(3) -0.01383(17) 0.23889(15)
C16 C 1.0702(3) -0.12553(18) 0.31253(15)
H22 H 0.9210 -0.1352 0.3440
C17 C 1.2117(3) -0.22271(18) 0.33978(15)
C18 C 1.4362(4) -0.2092(2) 0.29526(17)
H23 H 1.5320 -0.2739 0.3140
C19 C 1.5151(4) -0.0984(2) 0.22293(18)
H24 H 1.6652 -0.0882 0.1931
C20 C 1.3726(3) -0.0027(2) 0.19461(17)
H25 H 1.4280 0.0709 0.1448
O2 O 1.2570(3) -0.42841(16) 0.43746(15)
H26 H 1.190(5) -0.511(3) 0.485(2)
C21 C 1.1193(4) -0.34257(19) 0.41222(16)
O3 O 0.9142(3) -0.35627(15) 0.44609(15)

#END
