./MAQVIJ_from_xyz.cif_generated_by_CrystalShift
_symmetry_cell_setting triclinic
_symmetry_space_group_name_H-M 'P 1'
loop_
_symmetry_equiv_pos_site_id
_symmetry_equiv_pos_as_xyz
1 x,y,z
_cell_length_a 8.212000
_cell_length_b 8.781000
_cell_length_c 17.153000
_cell_angle_alpha 76.400000
_cell_angle_beta 82.760000
_cell_angle_gamma 82.980000
_cell_volume 1187.118443
loop_
_atom_site_label
_atom_site_type_symbol
_atom_site_fract_x
_atom_site_fract_y
_atom_site_fract_z
C1 C 0.598100 0.502300 0.754140
C2 C 0.743800 0.410600 0.773910
H3 H 0.782000 0.331100 0.746700
C4 C 0.834500 0.433200 0.832870
C5 C 0.771500 0.553300 0.872590
C6 C 0.624500 0.649300 0.855440
C7 C 0.541800 0.620100 0.795230
H8 H 0.444700 0.682100 0.782000
C9 C 0.995500 0.327300 0.853670
C10 C 0.972900 0.230400 0.940560
H11 H 0.880700 0.169700 0.946800
H12 H 0.953100 0.300000 0.977100
H13 H 1.070900 0.161000 0.952200
C14 C 1.038100 0.210100 0.798880
H15 H 0.948700 0.146000 0.804600
H16 H 1.136500 0.144100 0.813900
H17 H 1.055900 0.266600 0.743800
C18 C 1.142900 0.425000 0.841710
H19 H 1.154400 0.485400 0.787200
H20 H 1.241500 0.356000 0.852400
H21 H 1.124900 0.494800 0.878100
O22 O 0.859000 0.577900 0.931590
H23 H 0.851000 0.670500 0.936900
C24 C 0.558400 0.782900 0.899160
C25 C 0.679700 0.911100 0.877910
H26 H 0.694500 0.949000 0.820500
H27 H 0.783900 0.867400 0.897200
H28 H 0.636000 0.996600 0.902800
C29 C 0.391600 0.862800 0.872190
H30 H 0.312400 0.786500 0.884200
H31 H 0.403600 0.906600 0.815200
H32 H 0.354400 0.945200 0.900300
C33 C 0.531500 0.721100 0.990750
H34 H 0.455200 0.642200 1.003000
H35 H 0.487700 0.806400 1.015800
H36 H 0.634700 0.676100 1.010800
C37 C 0.504900 0.474900 0.690290
C38 C 0.491100 0.324000 0.681690
H39 H 0.541700 0.238500 0.716300
C40 C 0.403600 0.297000 0.622650
C41 C 0.326400 0.424000 0.570970
H42 H 0.267100 0.407100 0.531500
C43 C 0.338300 0.575500 0.578580
C44 C 0.428500 0.600700 0.637450
H45 H 0.437600 0.703100 0.641400
C46 C 0.394100 0.132700 0.616370
O47 O 0.327300 0.125200 0.551400
H48 H 0.318000 0.019000 0.550800
O49 O 0.442300 0.017620 0.664350
C50 C 0.260800 0.714800 0.523690
O51 O 0.185200 0.680750 0.467750
H52 H 0.152000 0.774000 0.432500
O53 O 0.263000 0.848180 0.529810
C54 C 0.401900 0.497700 0.245860
C55 C 0.256200 0.589400 0.226090
H56 H 0.218000 0.668900 0.253300
C57 C 0.165500 0.566800 0.167130
C58 C 0.228500 0.446700 0.127410
C59 C 0.375500 0.350700 0.144560
C60 C 0.458200 0.379900 0.204770
H61 H 0.555300 0.317900 0.218000
C62 C 0.004500 0.672700 0.146330
C63 C 0.027100 0.769600 0.059440
H64 H 0.119300 0.830300 0.053200
H65 H 0.046900 0.700000 0.022900
H66 H -0.070900 0.839000 0.047800
C67 C -0.038100 0.789900 0.201120
H68 H 0.051300 0.854000 0.195400
H69 H -0.136500 0.855900 0.186100
H70 H -0.055900 0.733400 0.256200
C71 C -0.142900 0.575000 0.158290
H72 H -0.154400 0.514600 0.212800
H73 H -0.241500 0.644000 0.147600
H74 H -0.124900 0.505200 0.121900
O75 O 0.141000 0.422100 0.068410
H76 H 0.149000 0.329500 0.063100
C77 C 0.441600 0.217100 0.100840
C78 C 0.320300 0.088900 0.122090
H79 H 0.305500 0.051000 0.179500
H80 H 0.216100 0.132600 0.102800
H81 H 0.364000 0.003400 0.097200
C82 C 0.608400 0.137200 0.127810
H83 H 0.687600 0.213500 0.115800
H84 H 0.596400 0.093400 0.184800
H85 H 0.645600 0.054800 0.099700
C86 C 0.468500 0.278900 0.009250
H87 H 0.544800 0.357800 -0.003000
H88 H 0.512300 0.193600 -0.015800
H89 H 0.365300 0.323900 -0.010800
C90 C 0.495100 0.525100 0.309710
C91 C 0.508900 0.676000 0.318310
H92 H 0.458300 0.761500 0.283700
C93 C 0.596400 0.703000 0.377350
C94 C 0.673600 0.576000 0.429030
H95 H 0.732900 0.592900 0.468500
C96 C 0.661700 0.424500 0.421420
C97 C 0.571500 0.399300 0.362550
H98 H 0.562400 0.296900 0.358600
C99 C 0.605900 0.867300 0.383630
O100 O 0.672700 0.874800 0.448600
H101 H 0.682000 0.981000 0.449200
O102 O 0.557700 0.982380 0.335650
C103 C 0.739200 0.285200 0.476310
O104 O 0.814800 0.319250 0.532250
H105 H 0.848000 0.226000 0.567500
O106 O 0.737000 0.151820 0.470190
O107 O 0.936700 1.076200 0.641010
C108 C 0.840400 0.844200 0.625800
H109 H 0.774300 0.915700 0.588100
H110 H 0.769800 0.785500 0.668300
H111 H 0.910600 0.772900 0.598600
C112 C 0.942200 0.933400 0.660150
C113 C 1.053600 0.844800 0.720640
H114 H 1.112800 0.917200 0.737600
H115 H 1.130400 0.772600 0.697100
H116 H 0.989600 0.787400 0.766400
O117 O 0.063300 -0.076200 0.358990
C118 C 0.159600 0.155800 0.374200
H119 H 0.225700 0.084300 0.411900
H120 H 0.230200 0.214500 0.331700
H121 H 0.089400 0.227100 0.401400
C122 C 0.057800 0.066600 0.339850
C123 C -0.053600 0.155200 0.279360
H124 H -0.112800 0.082800 0.262400
H125 H -0.130400 0.227400 0.302900
H126 H 0.010400 0.212600 0.233600

#END
