./MAQVOP_from_xyz.cif_generated_by_CrystalShift
_symmetry_cell_setting triclinic
_symmetry_space_group_name_H-M 'P 1'
loop_
_symmetry_equiv_pos_site_id
_symmetry_equiv_pos_as_xyz
1 x,y,z
_cell_length_a 6.121400
_cell_length_b 11.936500
_cell_length_c 14.170200
_cell_angle_alpha 68.010000
_cell_angle_beta 79.031000
_cell_angle_gamma 86.674000
_cell_volume 942.424418
loop_
_atom_site_label
_atom_site_type_symbol
_atom_site_fract_x
_atom_site_fract_y
_atom_site_fract_z
C1 C 0.005500 0.910840 0.793780
C2 C 0.147400 0.875050 0.721710
H3 H 0.147300 0.917900 0.651700
C4 C 0.289700 0.777720 0.749760
C5 C 0.290600 0.719060 0.856250
C6 C 0.155000 0.753420 0.932360
C7 C 0.012000 0.848880 0.897740
H8 H -0.083400 0.872100 0.946400
C9 C 0.437900 0.737710 0.667270
C10 C 0.685000 0.753600 0.667200
H11 H 0.717400 0.707500 0.734700
H12 H 0.717400 0.837500 0.649800
H13 H 0.774800 0.725900 0.617200
C14 C 0.397200 0.813200 0.558050
H15 H 0.491800 0.785800 0.509000
H16 H 0.429900 0.896700 0.542200
H17 H 0.244400 0.804500 0.554600
C18 C 0.383100 0.606800 0.685000
H19 H 0.405400 0.554700 0.752800
H20 H 0.478900 0.582800 0.634000
H21 H 0.230800 0.600800 0.679300
O22 O 0.428600 0.622650 0.890550
H23 H 0.510000 0.614000 0.854000
C24 C 0.166200 0.691190 1.048410
C25 C 0.100200 0.557100 1.089080
H26 H 0.197600 0.517500 1.050100
H27 H -0.050500 0.549800 1.081800
H28 H 0.112100 0.520200 1.160800
C29 C 0.005600 0.748700 1.114310
H30 H 0.041600 0.833100 1.091400
H31 H 0.019400 0.709400 1.185700
H32 H -0.144300 0.739500 1.107000
C33 C 0.402500 0.704400 1.066740
H34 H 0.508100 0.669300 1.026800
H35 H 0.408100 0.663700 1.138900
H36 H 0.438100 0.788500 1.046000
C37 C -0.147500 1.013830 0.761110
C38 C -0.070200 1.125530 0.687470
H39 H 0.079000 1.135200 0.656000
C40 C -0.211700 1.222710 0.660220
C41 C -0.436200 1.209200 0.704740
H42 H -0.532000 1.273900 0.686000
C43 C -0.515100 1.098400 0.777070
H44 H -0.665200 1.088200 0.806900
C45 C -0.372600 1.002700 0.805390
H46 H -0.428000 0.929100 0.855200
O47 O -0.257000 1.428410 0.562540
H48 H -0.190000 1.511000 0.515000
C49 C -0.119300 1.342570 0.587780
O50 O 0.085800 1.356270 0.553910
C51 C 0.994500 0.089160 0.206220
C52 C 0.852600 0.124950 0.278290
H53 H 0.852700 0.082100 0.348300
C54 C 0.710300 0.222280 0.250240
C55 C 0.709400 0.280940 0.143750
C56 C 0.845000 0.246580 0.067640
C57 C 0.988000 0.151120 0.102260
H58 H 1.083400 0.127900 0.053600
C59 C 0.562100 0.262290 0.332730
C60 C 0.315000 0.246400 0.332800
H61 H 0.282600 0.292500 0.265300
H62 H 0.282600 0.162500 0.350200
H63 H 0.225200 0.274100 0.382800
C64 C 0.602800 0.186800 0.441950
H65 H 0.508200 0.214200 0.491000
H66 H 0.570100 0.103300 0.457800
H67 H 0.755600 0.195500 0.445400
C68 C 0.616900 0.393200 0.315000
H69 H 0.594600 0.445300 0.247200
H70 H 0.521100 0.417200 0.366000
H71 H 0.769200 0.399200 0.320700
O72 O 0.571400 0.377350 0.109450
H73 H 0.490000 0.386000 0.146000
C74 C 0.833800 0.308810 -0.048410
C75 C 0.899800 0.442900 -0.089080
H76 H 0.802400 0.482500 -0.050100
H77 H 1.050500 0.450200 -0.081800
H78 H 0.887900 0.479800 -0.160800
C79 C 0.994400 0.251300 -0.114310
H80 H 0.958400 0.166900 -0.091400
H81 H 0.980600 0.290600 -0.185700
H82 H 1.144300 0.260500 -0.107000
C83 C 0.597500 0.295600 -0.066740
H84 H 0.491900 0.330700 -0.026800
H85 H 0.591900 0.336300 -0.138900
H86 H 0.561900 0.211500 -0.046000
C87 C 1.147500 -0.013830 0.238890
C88 C 1.070200 -0.125530 0.312530
H89 H 0.921000 -0.135200 0.344000
C90 C 1.211700 -0.222710 0.339780
C91 C 1.436200 -0.209200 0.295260
H92 H 1.532000 -0.273900 0.314000
C93 C 1.515100 -0.098400 0.222930
H94 H 1.665200 -0.088200 0.193100
C95 C 1.372600 -0.002700 0.194610
H96 H 1.428000 0.070900 0.144800
O97 O 1.257000 -0.428410 0.437460
H98 H 1.190000 -0.511000 0.485000
C99 C 1.119300 -0.342570 0.412220
O100 O 0.914200 -0.356270 0.446090

#END
