./MAQVAB_from_xyz.cif_generated_by_CrystalShift
_symmetry_cell_setting triclinic
_symmetry_space_group_name_H-M 'P 1'
loop_
_symmetry_equiv_pos_site_id
_symmetry_equiv_pos_as_xyz
1 x,y,z
_cell_length_a 4.970000
_cell_length_b 16.180000
_cell_length_c 10.130000
_cell_angle_alpha 90.000000
_cell_angle_beta 106.400000
_cell_angle_gamma 90.000000
_cell_volume 781.457101
loop_
_atom_site_label
_atom_site_type_symbol
_atom_site_fract_x
_atom_site_fract_y
_atom_site_fract_z
N1 N 0.471600 0.767440 -0.033700
C2 C 0.538200 0.826030 -0.117100
O3 O 0.720600 0.876570 -0.077300
N4 N 0.378300 0.823400 -0.251100
H5 H 0.410000 0.860000 -0.295000
C6 C 0.161300 0.769640 -0.308000
O7 O 0.038500 0.774830 -0.430300
C8 C 0.104900 0.711700 -0.214200
H9 H -0.050000 0.672000 -0.249000
C10 C 0.260000 0.711390 -0.082800
H11 H 0.212000 0.672000 -0.017000
C12 C 0.647100 0.759690 0.107300
H13 H 0.775000 0.800100 0.125000
C14 C 0.490400 0.765640 0.217200
H15 H 0.298000 0.773600 0.179000
O16 O 0.616600 0.831120 0.303850
C17 C 0.549400 0.681590 0.289500
H18 H 0.395000 0.640700 0.248000
O19 O 0.575800 0.683140 0.431760
H20 H 0.718000 0.717000 0.468000
C21 C 0.811000 0.651150 0.255500
H22 H 0.960000 0.677000 0.311000
O23 O 0.779000 0.681530 0.119180
C24 C 0.829200 0.559240 0.255900
H25 H 0.827000 0.541000 0.344000
H26 H 0.660000 0.536000 0.185000
O27 O 1.078700 0.529740 0.230900
H28 H 1.065000 0.527000 0.148000
C29 C 0.445800 0.870010 0.375500
H30 H 0.360000 0.833000 0.423000
C31 C 0.633600 0.932200 0.467900
H32 H 0.823000 0.914000 0.504000
O33 O 0.513800 0.953430 0.574700
H34 H 0.645000 0.980000 0.630000
C35 C 0.619300 1.002790 0.366700
H36 H 0.733000 0.988000 0.311000
O37 O 0.704900 1.080680 0.424600
H38 H 0.594000 1.095000 0.467000
C39 C 0.317500 0.998590 0.277100
H40 H 0.207000 1.035000 0.310000
O41 O 0.227000 0.915220 0.285520
C42 C 0.282400 1.020200 0.129300
H43 H 0.347000 1.073000 0.118000
H44 H 0.408000 0.985000 0.099000
O45 O -0.002100 1.018090 0.048600
H46 H -0.055000 0.967000 0.045000
N47 N 0.528400 0.267440 1.033700
C48 C 0.461800 0.326030 1.117100
O49 O 0.279400 0.376570 1.077300
N50 N 0.621700 0.323400 1.251100
H51 H 0.590000 0.360000 1.295000
C52 C 0.838700 0.269640 1.308000
O53 O 0.961500 0.274830 1.430300
C54 C 0.895100 0.211700 1.214200
H55 H 1.050000 0.172000 1.249000
C56 C 0.740000 0.211390 1.082800
H57 H 0.788000 0.172000 1.017000
C58 C 0.352900 0.259690 0.892700
H59 H 0.225000 0.300100 0.875000
C60 C 0.509600 0.265640 0.782800
H61 H 0.702000 0.273600 0.821000
O62 O 0.383400 0.331120 0.696150
C63 C 0.450600 0.181590 0.710500
H64 H 0.605000 0.140700 0.752000
O65 O 0.424200 0.183140 0.568240
H66 H 0.282000 0.217000 0.532000
C67 C 0.189000 0.151150 0.744500
H68 H 0.040000 0.177000 0.689000
O69 O 0.221000 0.181530 0.880820
C70 C 0.170800 0.059240 0.744100
H71 H 0.173000 0.041000 0.656000
H72 H 0.340000 0.036000 0.815000
O73 O -0.078700 0.029740 0.769100
H74 H -0.065000 0.027000 0.852000
C75 C 0.554200 0.370010 0.624500
H76 H 0.640000 0.333000 0.577000
C77 C 0.366400 0.432200 0.532100
H78 H 0.177000 0.414000 0.496000
O79 O 0.486200 0.453430 0.425300
H80 H 0.355000 0.480000 0.370000
C81 C 0.380700 0.502790 0.633300
H82 H 0.267000 0.488000 0.689000
O83 O 0.295100 0.580680 0.575400
H84 H 0.406000 0.595000 0.533000
C85 C 0.682500 0.498590 0.722900
H86 H 0.793000 0.535000 0.690000
O87 O 0.773000 0.415220 0.714480
C88 C 0.717600 0.520200 0.870700
H89 H 0.653000 0.573000 0.882000
H90 H 0.592000 0.485000 0.901000
O91 O 1.002100 0.518090 0.951400
H92 H 1.055000 0.467000 0.955000

#END
