
#######################################################################
#
#                 Cambridge Crystallographic Data Centre
#                                CCDC 
#
#######################################################################
#
# If this CIF has been generated from an entry in the Cambridge 
# Structural Database, then it will include bibliographic, chemical, 
# crystal, experimental, refinement or atomic coordinate data resulting 
# from the CCDC's data processing and validation procedures.
#
#######################################################################

data_MAQVAB
_symmetry_cell_setting           monoclinic
_symmetry_space_group_name_H-M   'P 21'
_symmetry_Int_Tables_number      4
_space_group_name_Hall           'P 2yb'
loop_
_symmetry_equiv_pos_site_id
_symmetry_equiv_pos_as_xyz
1 x,y,z
2 -x,1/2+y,-z
_cell_length_a                   4.97(2)
_cell_length_b                   16.18(3)
_cell_length_c                   10.13(2)
_cell_angle_alpha                90.00
_cell_angle_beta                 106.40(10)
_cell_angle_gamma                90.00
_cell_volume                     781.457
loop_
_atom_site_label
_atom_site_type_symbol
_atom_site_fract_x
_atom_site_fract_y
_atom_site_fract_z
N1 N 0.4716(5) 0.76744(14) -0.0337(2)
C1 C 0.5382(6) 0.82603(18) -0.1171(3)
O1 O 0.7206(6) 0.87657(18) -0.0773(2)
N2 N 0.3783(6) 0.82340(16) -0.2511(3)
H1 H 0.410(9) 0.860(3) -0.295(4)
C2 C 0.1613(6) 0.76964(19) -0.3080(3)
O2 O 0.0385(5) 0.77483(15) -0.4303(2)
C3 C 0.1049(7) 0.7117(2) -0.2142(3)
H2 H -0.050(8) 0.672(3) -0.249(4)
C4 C 0.2600(6) 0.71139(18) -0.0828(3)
H3 H 0.212(7) 0.672(2) -0.017(4)
C5 C 0.6471(5) 0.75969(18) 0.1073(3)
H4 H 0.775(5) 0.8001(19) 0.125(2)
C6 C 0.4904(5) 0.76564(17) 0.2172(3)
H5 H 0.298(6) 0.7736(17) 0.179(3)
O3 O 0.6166(4) 0.83112(11) 0.30385(18)
C7 C 0.5494(6) 0.68159(16) 0.2895(3)
H6 H 0.395(6) 0.6407(19) 0.248(3)
O4 O 0.5758(5) 0.68314(12) 0.43176(19)
H7 H 0.718(8) 0.717(2) 0.468(4)
C8 C 0.8110(6) 0.65115(17) 0.2555(3)
H8 H 0.960(6) 0.677(2) 0.311(3)
O5 O 0.7790(4) 0.68153(12) 0.11918(18)
C9 C 0.8292(6) 0.55924(18) 0.2559(3)
H9 H 0.827(7) 0.541(2) 0.344(4)
H10 H 0.660(7) 0.536(2) 0.185(3)
O6 O 1.0787(4) 0.52974(13) 0.2309(2)
H11 H 1.065(7) 0.527(2) 0.148(4)
C10 C 0.4458(5) 0.87001(17) 0.3755(3)
H12 H 0.360(6) 0.833(2) 0.423(3)
C11 C 0.6336(6) 0.93220(17) 0.4679(3)
H13 H 0.823(7) 0.914(2) 0.504(3)
O7 O 0.5138(5) 0.95343(13) 0.5747(2)
H14 H 0.645(7) 0.980(3) 0.630(4)
C12 C 0.6193(6) 1.00279(17) 0.3667(3)
H15 H 0.733(6) 0.988(2) 0.311(3)
O8 O 0.7049(5) 1.08068(13) 0.4246(2)
H16 H 0.594(9) 1.095(3) 0.467(5)
C13 C 0.3175(6) 0.99859(18) 0.2771(3)
H17 H 0.207(7) 1.035(2) 0.310(3)
O9 O 0.2270(4) 0.91522(12) 0.28552(19)
C14 C 0.2824(7) 1.0202(2) 0.1293(3)
H18 H 0.347(7) 1.073(3) 0.118(4)
H19 H 0.408(7) 0.985(2) 0.099(4)
O10 O -0.0021(5) 1.01809(16) 0.0486(2)
H20 H -0.055(12) 0.967(4) 0.045(7)
N1 N 0.5284(5) 0.26744(14) 1.0337(2)
C1 C 0.4618(6) 0.32603(18) 1.1171(3)
O1 O 0.2794(6) 0.37657(18) 1.0773(2)
N2 N 0.6217(6) 0.32340(16) 1.2511(3)
H1 H 0.590(9) 0.360(3) 1.295(4)
C2 C 0.8387(6) 0.26964(19) 1.3080(3)
O2 O 0.9615(5) 0.27483(15) 1.4303(2)
C3 C 0.8951(7) 0.2117(2) 1.2142(3)
H2 H 1.050(8) 0.172(3) 1.249(4)
C4 C 0.7400(6) 0.21139(18) 1.0828(3)
H3 H 0.788(7) 0.172(2) 1.017(4)
C5 C 0.3529(5) 0.25969(18) 0.8927(3)
H4 H 0.225(5) 0.3001(19) 0.875(2)
C6 C 0.5096(5) 0.26564(17) 0.7828(3)
H5 H 0.702(6) 0.2736(17) 0.821(3)
O3 O 0.3834(4) 0.33112(11) 0.69615(18)
C7 C 0.4506(6) 0.18159(16) 0.7105(3)
H6 H 0.605(6) 0.1407(19) 0.752(3)
O4 O 0.4242(5) 0.18314(12) 0.56824(19)
H7 H 0.282(8) 0.217(2) 0.532(4)
C8 C 0.1890(6) 0.15115(17) 0.7445(3)
H8 H 0.040(6) 0.177(2) 0.689(3)
O5 O 0.2210(4) 0.18153(12) 0.88082(18)
C9 C 0.1708(6) 0.05924(18) 0.7441(3)
H9 H 0.173(7) 0.041(2) 0.656(4)
H10 H 0.340(7) 0.036(2) 0.815(3)
O6 O -0.0787(4) 0.02974(13) 0.7691(2)
H11 H -0.065(7) 0.027(2) 0.852(4)
C10 C 0.5542(5) 0.37001(17) 0.6245(3)
H12 H 0.640(6) 0.333(2) 0.577(3)
C11 C 0.3664(6) 0.43220(17) 0.5321(3)
H13 H 0.177(7) 0.414(2) 0.496(3)
O7 O 0.4862(5) 0.45343(13) 0.4253(2)
H14 H 0.355(7) 0.480(3) 0.370(4)
C12 C 0.3807(6) 0.50279(17) 0.6333(3)
H15 H 0.267(6) 0.488(2) 0.689(3)
O8 O 0.2951(5) 0.58068(13) 0.5754(2)
H16 H 0.406(9) 0.595(3) 0.533(5)
C13 C 0.6825(6) 0.49859(18) 0.7229(3)
H17 H 0.793(7) 0.535(2) 0.690(3)
O9 O 0.7730(4) 0.41522(12) 0.71448(19)
C14 C 0.7176(7) 0.5202(2) 0.8707(3)
H18 H 0.653(7) 0.573(3) 0.882(4)
H19 H 0.592(7) 0.485(2) 0.901(4)
O10 O 1.0021(5) 0.51809(16) 0.9514(2)
H20 H 1.055(12) 0.467(4) 0.955(7)

#END
