
#######################################################################
#
#                 Cambridge Crystallographic Data Centre
#                                CCDC 
#
#######################################################################
#
# If this CIF has been generated from an entry in the Cambridge 
# Structural Database, then it will include bibliographic, chemical, 
# crystal, experimental, refinement or atomic coordinate data resulting 
# from the CCDC's data processing and validation procedures.
#
#######################################################################

data_MAQWAF
_symmetry_cell_setting           orthorhombic
_symmetry_space_group_name_H-M   'P 21 21 21'
_symmetry_Int_Tables_number      19
_space_group_name_Hall           'P 2ac 2ab'
loop_
_symmetry_equiv_pos_site_id
_symmetry_equiv_pos_as_xyz
1 x,y,z
2 1/2-x,-y,1/2+z
3 1/2+x,1/2-y,-z
4 -x,1/2+y,1/2-z
_cell_length_a                   8.0533(3)
_cell_length_b                   15.9577(6)
_cell_length_c                   22.2592(9)
_cell_angle_alpha                90
_cell_angle_beta                 90
_cell_angle_gamma                90
_cell_volume                     2860.58
loop_
_atom_site_label
_atom_site_type_symbol
_atom_site_fract_x
_atom_site_fract_y
_atom_site_fract_z
Br1 Br -0.02330(10) 1.12833(5) -0.02345(4)
O1 O -0.0108(7) 0.6377(3) 0.1400(2)
N1 N 0.4688(8) 0.7606(4) 0.1659(2)
C1 C 0.5449(10) 0.8864(5) 0.0292(4)
H1 H 0.5084 0.9375 0.0117
O2 O 0.0160(8) 0.5767(3) 0.2260(2)
O3 O 0.1882(6) 0.7948(3) 0.1513(2)
C2 C 0.4820(10) 0.8625(5) 0.0849(3)
H2 H 0.4049 0.8968 0.1058
N2 N 0.0064(8) 0.6388(4) 0.1943(3)
C3 C 0.5353(9) 0.7872(4) 0.1088(3)
C4 C 0.0326(9) 0.7921(4) 0.1796(3)
C5 C 0.4739(10) 0.7103(4) 0.2553(3)
C6 C 0.0082(9) 0.7259(4) 0.2257(3)
H3 H -0.1021 0.7349 0.2453
C7 C -0.0825(9) 0.8481(4) 0.1641(3)
H4 H -0.1850 0.8451 0.1851
C8 C 0.6524(9) 0.7375(5) 0.0803(4)
H5 H 0.6906 0.6870 0.0981
C9 C 0.6570(10) 0.5986(5) 0.4149(4)
H6 H 0.6978 0.5731 0.4506
N3 N 0.5706(7) 0.7253(4) 0.2086(3)
C10 C -0.0544(11) 0.8219(6) 0.4123(4)
H7 H -0.1309 0.8061 0.4428
C11 C 0.1671(9) 0.8687(5) 0.3238(3)
H8 H 0.2409 0.8857 0.2928
C12 C 0.4819(10) 0.6998(4) 0.3664(3)
H9 H 0.4029 0.7438 0.3689
C13 C 0.7128(10) 0.7638(5) 0.0247(4)
H10 H 0.7924 0.7305 0.0041
C14 C 0.5374(10) 0.6724(4) 0.3104(3)
C15 C 0.1428(9) 0.7240(5) 0.2751(3)
H11 H 0.1418 0.6673 0.2943
C16 C 0.0998(9) 0.7889(5) 0.3230(3)
C17 C 0.6576(10) 0.8382(6) -0.0009(4)
H12 H 0.6981 0.8555 -0.0390
C18 C 0.3059(10) 0.7350(4) 0.2430(3)
C19 C 0.6532(10) 0.6086(5) 0.3068(3)
H13 H 0.6917 0.5901 0.2687
C20 C 0.3135(9) 0.7657(5) 0.1870(3)
C21 C 0.7134(10) 0.5713(5) 0.3592(4)
H14 H 0.7927 0.5273 0.3568
C22 C 0.1271(11) 0.9239(6) 0.3697(4)
H15 H 0.1786 0.9774 0.3715
C23 C 0.0127(12) 0.9012(5) 0.4126(3)
H16 H -0.0200 0.9403 0.4426
C24 C 0.5417(10) 0.6628(5) 0.4187(3)
H17 H 0.5036 0.6814 0.4568
C25 C -0.0119(9) 0.7650(5) 0.3683(3)
H18 H -0.0578 0.7101 0.3686
C26 C 0.0340(9) 0.9649(4) 0.0229(3)
H19 H 0.0956 0.9567 -0.0130
C27 C 0.0247(9) 0.9026(4) 0.0656(3)
H20 H 0.0823 0.8514 0.0593
C28 C -0.0689(9) 0.9137(5) 0.1183(3)
C29 C -0.0469(10) 1.0389(5) 0.0332(3)
C30 C -0.1542(9) 0.9890(5) 0.1253(4)
H21 H -0.2213 0.9970 0.1599
C31 C -0.1438(10) 1.0519(5) 0.0834(4)
H22 H -0.2019 1.1032 0.0889
Br1 Br 0.52330(10) -0.12833(5) 0.47655(4)
O1 O 0.5108(7) 0.3623(3) 0.6400(2)
N1 N 0.0312(8) 0.2394(4) 0.6659(2)
C1 C -0.0449(10) 0.1136(5) 0.5292(4)
H1 H -0.0084 0.0625 0.5117
O2 O 0.4840(8) 0.4233(3) 0.7260(2)
O3 O 0.3118(6) 0.2052(3) 0.6513(2)
C2 C 0.0180(10) 0.1375(5) 0.5849(3)
H2 H 0.0951 0.1032 0.6058
N2 N 0.4936(8) 0.3612(4) 0.6943(3)
C3 C -0.0353(9) 0.2128(4) 0.6088(3)
C4 C 0.4674(9) 0.2079(4) 0.6796(3)
C5 C 0.0261(10) 0.2897(4) 0.7553(3)
C6 C 0.4918(9) 0.2741(4) 0.7257(3)
H3 H 0.6021 0.2651 0.7453
C7 C 0.5825(9) 0.1519(4) 0.6641(3)
H4 H 0.6850 0.1549 0.6851
C8 C -0.1524(9) 0.2625(5) 0.5803(4)
H5 H -0.1906 0.3130 0.5981
C9 C -0.1570(10) 0.4014(5) 0.9149(4)
H6 H -0.1978 0.4269 0.9506
N3 N -0.0706(7) 0.2747(4) 0.7086(3)
C10 C 0.5544(11) 0.1781(6) 0.9123(4)
H7 H 0.6309 0.1939 0.9428
C11 C 0.3329(9) 0.1313(5) 0.8238(3)
H8 H 0.2591 0.1143 0.7928
C12 C 0.0181(10) 0.3002(4) 0.8664(3)
H9 H 0.0971 0.2562 0.8689
C13 C -0.2128(10) 0.2362(5) 0.5247(4)
H10 H -0.2924 0.2695 0.5041
C14 C -0.0374(10) 0.3276(4) 0.8104(3)
C15 C 0.3572(9) 0.2760(5) 0.7751(3)
H11 H 0.3582 0.3327 0.7943
C16 C 0.4002(9) 0.2111(5) 0.8230(3)
C17 C -0.1576(10) 0.1618(6) 0.4991(4)
H12 H -0.1981 0.1445 0.4610
C18 C 0.1941(10) 0.2650(4) 0.7430(3)
C19 C -0.1532(10) 0.3914(5) 0.8068(3)
H13 H -0.1917 0.4099 0.7687
C20 C 0.1865(9) 0.2343(5) 0.6870(3)
C21 C -0.2134(10) 0.4287(5) 0.8592(4)
H14 H -0.2927 0.4727 0.8568
C22 C 0.3729(11) 0.0761(6) 0.8697(4)
H15 H 0.3214 0.0226 0.8715
C23 C 0.4873(12) 0.0988(5) 0.9126(3)
H16 H 0.5200 0.0597 0.9426
C24 C -0.0417(10) 0.3372(5) 0.9187(3)
H17 H -0.0036 0.3186 0.9568
C25 C 0.5119(9) 0.2350(5) 0.8683(3)
H18 H 0.5578 0.2899 0.8686
C26 C 0.4660(9) 0.0351(4) 0.5229(3)
H19 H 0.4044 0.0433 0.4870
C27 C 0.4753(9) 0.0974(4) 0.5656(3)
H20 H 0.4177 0.1486 0.5593
C28 C 0.5689(9) 0.0863(5) 0.6183(3)
C29 C 0.5469(10) -0.0389(5) 0.5332(3)
C30 C 0.6542(9) 0.0110(5) 0.6253(4)
H21 H 0.7213 0.0030 0.6599
C31 C 0.6438(10) -0.0519(5) 0.5834(4)
H22 H 0.7019 -0.1032 0.5889
Br1 Br 0.47670(10) 0.37167(5) 1.02345(4)
O1 O 0.4892(7) 0.8623(3) 0.8600(2)
N1 N 0.9688(8) 0.7394(4) 0.8341(2)
C1 C 1.0449(10) 0.6136(5) 0.9708(4)
H1 H 1.0084 0.5625 0.9883
O2 O 0.5160(8) 0.9233(3) 0.7740(2)
O3 O 0.6882(6) 0.7052(3) 0.8487(2)
C2 C 0.9820(10) 0.6375(5) 0.9151(3)
H2 H 0.9049 0.6032 0.8942
N2 N 0.5064(8) 0.8612(4) 0.8057(3)
C3 C 1.0353(9) 0.7128(4) 0.8912(3)
C4 C 0.5326(9) 0.7079(4) 0.8204(3)
C5 C 0.9739(10) 0.7897(4) 0.7447(3)
C6 C 0.5082(9) 0.7741(4) 0.7743(3)
H3 H 0.3979 0.7651 0.7547
C7 C 0.4175(9) 0.6519(4) 0.8359(3)
H4 H 0.3150 0.6549 0.8149
C8 C 1.1524(9) 0.7625(5) 0.9197(4)
H5 H 1.1906 0.8130 0.9019
C9 C 1.1570(10) 0.9014(5) 0.5851(4)
H6 H 1.1978 0.9269 0.5494
N3 N 1.0706(7) 0.7747(4) 0.7914(3)
C10 C 0.4456(11) 0.6781(6) 0.5877(4)
H7 H 0.3691 0.6939 0.5572
C11 C 0.6671(9) 0.6313(5) 0.6762(3)
H8 H 0.7409 0.6143 0.7072
C12 C 0.9819(10) 0.8002(4) 0.6336(3)
H9 H 0.9029 0.7562 0.6311
C13 C 1.2128(10) 0.7362(5) 0.9753(4)
H10 H 1.2924 0.7695 0.9959
C14 C 1.0374(10) 0.8276(4) 0.6896(3)
C15 C 0.6428(9) 0.7760(5) 0.7249(3)
H11 H 0.6418 0.8327 0.7057
C16 C 0.5998(9) 0.7111(5) 0.6770(3)
C17 C 1.1576(10) 0.6618(6) 1.0009(4)
H12 H 1.1981 0.6445 1.0390
C18 C 0.8059(10) 0.7650(4) 0.7570(3)
C19 C 1.1532(10) 0.8914(5) 0.6932(3)
H13 H 1.1917 0.9099 0.7313
C20 C 0.8135(9) 0.7343(5) 0.8130(3)
C21 C 1.2134(10) 0.9287(5) 0.6408(4)
H14 H 1.2927 0.9727 0.6432
C22 C 0.6271(11) 0.5761(6) 0.6303(4)
H15 H 0.6786 0.5226 0.6285
C23 C 0.5127(12) 0.5988(5) 0.5874(3)
H16 H 0.4800 0.5597 0.5574
C24 C 1.0417(10) 0.8372(5) 0.5813(3)
H17 H 1.0036 0.8186 0.5432
C25 C 0.4881(9) 0.7350(5) 0.6317(3)
H18 H 0.4422 0.7899 0.6314
C26 C 0.5340(9) 0.5351(4) 0.9771(3)
H19 H 0.5956 0.5433 1.0130
C27 C 0.5247(9) 0.5974(4) 0.9344(3)
H20 H 0.5823 0.6486 0.9407
C28 C 0.4311(9) 0.5863(5) 0.8817(3)
C29 C 0.4531(10) 0.4611(5) 0.9668(3)
C30 C 0.3458(9) 0.5110(5) 0.8747(4)
H21 H 0.2787 0.5030 0.8401
C31 C 0.3562(10) 0.4481(5) 0.9166(4)
H22 H 0.2981 0.3968 0.9111
Br1 Br 1.02330(10) 0.62833(5) 0.52345(4)
O1 O 1.0108(7) 0.1377(3) 0.3600(2)
N1 N 0.5312(8) 0.2606(4) 0.3341(2)
C1 C 0.4551(10) 0.3864(5) 0.4708(4)
H1 H 0.4916 0.4375 0.4883
O2 O 0.9840(8) 0.0767(3) 0.2740(2)
O3 O 0.8118(6) 0.2948(3) 0.3487(2)
C2 C 0.5180(10) 0.3625(5) 0.4151(3)
H2 H 0.5951 0.3968 0.3942
N2 N 0.9936(8) 0.1388(4) 0.3057(3)
C3 C 0.4647(9) 0.2872(4) 0.3912(3)
C4 C 0.9674(9) 0.2921(4) 0.3204(3)
C5 C 0.5261(10) 0.2103(4) 0.2447(3)
C6 C 0.9918(9) 0.2259(4) 0.2743(3)
H3 H 1.1021 0.2349 0.2547
C7 C 1.0825(9) 0.3481(4) 0.3359(3)
H4 H 1.1850 0.3451 0.3149
C8 C 0.3476(9) 0.2375(5) 0.4197(4)
H5 H 0.3094 0.1870 0.4019
C9 C 0.3430(10) 0.0986(5) 0.0851(4)
H6 H 0.3022 0.0731 0.0494
N3 N 0.4294(7) 0.2253(4) 0.2914(3)
C10 C 1.0544(11) 0.3219(6) 0.0877(4)
H7 H 1.1309 0.3061 0.0572
C11 C 0.8329(9) 0.3687(5) 0.1762(3)
H8 H 0.7591 0.3857 0.2072
C12 C 0.5181(10) 0.1998(4) 0.1336(3)
H9 H 0.5971 0.2438 0.1311
C13 C 0.2872(10) 0.2638(5) 0.4753(4)
H10 H 0.2076 0.2305 0.4959
C14 C 0.4626(10) 0.1724(4) 0.1896(3)
C15 C 0.8572(9) 0.2240(5) 0.2249(3)
H11 H 0.8582 0.1673 0.2057
C16 C 0.9002(9) 0.2889(5) 0.1770(3)
C17 C 0.3424(10) 0.3382(6) 0.5009(4)
H12 H 0.3019 0.3555 0.5390
C18 C 0.6941(10) 0.2350(4) 0.2570(3)
C19 C 0.3468(10) 0.1086(5) 0.1932(3)
H13 H 0.3083 0.0901 0.2313
C20 C 0.6865(9) 0.2657(5) 0.3130(3)
C21 C 0.2866(10) 0.0713(5) 0.1408(4)
H14 H 0.2073 0.0273 0.1432
C22 C 0.8729(11) 0.4239(6) 0.1303(4)
H15 H 0.8214 0.4774 0.1285
C23 C 0.9873(12) 0.4012(5) 0.0874(3)
H16 H 1.0200 0.4403 0.0574
C24 C 0.4583(10) 0.1628(5) 0.0813(3)
H17 H 0.4964 0.1814 0.0432
C25 C 1.0119(9) 0.2650(5) 0.1317(3)
H18 H 1.0578 0.2101 0.1314
C26 C 0.9660(9) 0.4649(4) 0.4771(3)
H19 H 0.9044 0.4567 0.5130
C27 C 0.9753(9) 0.4026(4) 0.4344(3)
H20 H 0.9177 0.3514 0.4407
C28 C 1.0689(9) 0.4137(5) 0.3817(3)
C29 C 1.0469(10) 0.5389(5) 0.4668(3)
C30 C 1.1542(9) 0.4890(5) 0.3747(4)
H21 H 1.2213 0.4970 0.3401
C31 C 1.1438(10) 0.5519(5) 0.4166(4)
H22 H 1.2019 0.6032 0.4111

#END
