./MAQWAF_from_xyz.cif_generated_by_CrystalShift
_symmetry_cell_setting triclinic
_symmetry_space_group_name_H-M 'P 1'
loop_
_symmetry_equiv_pos_site_id
_symmetry_equiv_pos_as_xyz
1 x,y,z
_cell_length_a 8.053300
_cell_length_b 15.957700
_cell_length_c 22.259200
_cell_angle_alpha 90.000000
_cell_angle_beta 90.000000
_cell_angle_gamma 90.000000
_cell_volume 2860.577547
loop_
_atom_site_label
_atom_site_type_symbol
_atom_site_fract_x
_atom_site_fract_y
_atom_site_fract_z
Br1 Br -0.023300 1.128330 -0.023450
O2 O -0.010800 0.637700 0.140000
N3 N 0.468800 0.760600 0.165900
C4 C 0.544900 0.886400 0.029200
H5 H 0.508400 0.937500 0.011700
O6 O 0.016000 0.576700 0.226000
O7 O 0.188200 0.794800 0.151300
C8 C 0.482000 0.862500 0.084900
H9 H 0.404900 0.896800 0.105800
N10 N 0.006400 0.638800 0.194300
C11 C 0.535300 0.787200 0.108800
C12 C 0.032600 0.792100 0.179600
C13 C 0.473900 0.710300 0.255300
C14 C 0.008200 0.725900 0.225700
H15 H -0.102100 0.734900 0.245300
C16 C -0.082500 0.848100 0.164100
H17 H -0.185000 0.845100 0.185100
C18 C 0.652400 0.737500 0.080300
H19 H 0.690600 0.687000 0.098100
C20 C 0.657000 0.598600 0.414900
H21 H 0.697800 0.573100 0.450600
N22 N 0.570600 0.725300 0.208600
C23 C -0.054400 0.821900 0.412300
H24 H -0.130900 0.806100 0.442800
C25 C 0.167100 0.868700 0.323800
H26 H 0.240900 0.885700 0.292800
C27 C 0.481900 0.699800 0.366400
H28 H 0.402900 0.743800 0.368900
C29 C 0.712800 0.763800 0.024700
H30 H 0.792400 0.730500 0.004100
C31 C 0.537400 0.672400 0.310400
C32 C 0.142800 0.724000 0.275100
H33 H 0.141800 0.667300 0.294300
C34 C 0.099800 0.788900 0.323000
C35 C 0.657600 0.838200 -0.000900
H36 H 0.698100 0.855500 -0.039000
C37 C 0.305900 0.735000 0.243000
C38 C 0.653200 0.608600 0.306800
H39 H 0.691700 0.590100 0.268700
C40 C 0.313500 0.765700 0.187000
C41 C 0.713400 0.571300 0.359200
H42 H 0.792700 0.527300 0.356800
C43 C 0.127100 0.923900 0.369700
H44 H 0.178600 0.977400 0.371500
C45 C 0.012700 0.901200 0.412600
H46 H -0.020000 0.940300 0.442600
C47 C 0.541700 0.662800 0.418700
H48 H 0.503600 0.681400 0.456800
C49 C -0.011900 0.765000 0.368300
H50 H -0.057800 0.710100 0.368600
C51 C 0.034000 0.964900 0.022900
H52 H 0.095600 0.956700 -0.013000
C53 C 0.024700 0.902600 0.065600
H54 H 0.082300 0.851400 0.059300
C55 C -0.068900 0.913700 0.118300
C56 C -0.046900 1.038900 0.033200
C57 C -0.154200 0.989000 0.125300
H58 H -0.221300 0.997000 0.159900
C59 C -0.143800 1.051900 0.083400
H60 H -0.201900 1.103200 0.088900
Br61 Br 0.523300 -0.128330 0.476550
O62 O 0.510800 0.362300 0.640000
N63 N 0.031200 0.239400 0.665900
C64 C -0.044900 0.113600 0.529200
H65 H -0.008400 0.062500 0.511700
O66 O 0.484000 0.423300 0.726000
O67 O 0.311800 0.205200 0.651300
C68 C 0.018000 0.137500 0.584900
H69 H 0.095100 0.103200 0.605800
N70 N 0.493600 0.361200 0.694300
C71 C -0.035300 0.212800 0.608800
C72 C 0.467400 0.207900 0.679600
C73 C 0.026100 0.289700 0.755300
C74 C 0.491800 0.274100 0.725700
H75 H 0.602100 0.265100 0.745300
C76 C 0.582500 0.151900 0.664100
H77 H 0.685000 0.154900 0.685100
C78 C -0.152400 0.262500 0.580300
H79 H -0.190600 0.313000 0.598100
C80 C -0.157000 0.401400 0.914900
H81 H -0.197800 0.426900 0.950600
N82 N -0.070600 0.274700 0.708600
C83 C 0.554400 0.178100 0.912300
H84 H 0.630900 0.193900 0.942800
C85 C 0.332900 0.131300 0.823800
H86 H 0.259100 0.114300 0.792800
C87 C 0.018100 0.300200 0.866400
H88 H 0.097100 0.256200 0.868900
C89 C -0.212800 0.236200 0.524700
H90 H -0.292400 0.269500 0.504100
C91 C -0.037400 0.327600 0.810400
C92 C 0.357200 0.276000 0.775100
H93 H 0.358200 0.332700 0.794300
C94 C 0.400200 0.211100 0.823000
C95 C -0.157600 0.161800 0.499100
H96 H -0.198100 0.144500 0.461000
C97 C 0.194100 0.265000 0.743000
C98 C -0.153200 0.391400 0.806800
H99 H -0.191700 0.409900 0.768700
C100 C 0.186500 0.234300 0.687000
C101 C -0.213400 0.428700 0.859200
H102 H -0.292700 0.472700 0.856800
C103 C 0.372900 0.076100 0.869700
H104 H 0.321400 0.022600 0.871500
C105 C 0.487300 0.098800 0.912600
H106 H 0.520000 0.059700 0.942600
C107 C -0.041700 0.337200 0.918700
H108 H -0.003600 0.318600 0.956800
C109 C 0.511900 0.235000 0.868300
H110 H 0.557800 0.289900 0.868600
C111 C 0.466000 0.035100 0.522900
H112 H 0.404400 0.043300 0.487000
C113 C 0.475300 0.097400 0.565600
H114 H 0.417700 0.148600 0.559300
C115 C 0.568900 0.086300 0.618300
C116 C 0.546900 -0.038900 0.533200
C117 C 0.654200 0.011000 0.625300
H118 H 0.721300 0.003000 0.659900
C119 C 0.643800 -0.051900 0.583400
H120 H 0.701900 -0.103200 0.588900
Br121 Br 0.476700 0.371670 1.023450
O122 O 0.489200 0.862300 0.860000
N123 N 0.968800 0.739400 0.834100
C124 C 1.044900 0.613600 0.970800
H125 H 1.008400 0.562500 0.988300
O126 O 0.516000 0.923300 0.774000
O127 O 0.688200 0.705200 0.848700
C128 C 0.982000 0.637500 0.915100
H129 H 0.904900 0.603200 0.894200
N130 N 0.506400 0.861200 0.805700
C131 C 1.035300 0.712800 0.891200
C132 C 0.532600 0.707900 0.820400
C133 C 0.973900 0.789700 0.744700
C134 C 0.508200 0.774100 0.774300
H135 H 0.397900 0.765100 0.754700
C136 C 0.417500 0.651900 0.835900
H137 H 0.315000 0.654900 0.814900
C138 C 1.152400 0.762500 0.919700
H139 H 1.190600 0.813000 0.901900
C140 C 1.157000 0.901400 0.585100
H141 H 1.197800 0.926900 0.549400
N142 N 1.070600 0.774700 0.791400
C143 C 0.445600 0.678100 0.587700
H144 H 0.369100 0.693900 0.557200
C145 C 0.667100 0.631300 0.676200
H146 H 0.740900 0.614300 0.707200
C147 C 0.981900 0.800200 0.633600
H148 H 0.902900 0.756200 0.631100
C149 C 1.212800 0.736200 0.975300
H150 H 1.292400 0.769500 0.995900
C151 C 1.037400 0.827600 0.689600
C152 C 0.642800 0.776000 0.724900
H153 H 0.641800 0.832700 0.705700
C154 C 0.599800 0.711100 0.677000
C155 C 1.157600 0.661800 1.000900
H156 H 1.198100 0.644500 1.039000
C157 C 0.805900 0.765000 0.757000
C158 C 1.153200 0.891400 0.693200
H159 H 1.191700 0.909900 0.731300
C160 C 0.813500 0.734300 0.813000
C161 C 1.213400 0.928700 0.640800
H162 H 1.292700 0.972700 0.643200
C163 C 0.627100 0.576100 0.630300
H164 H 0.678600 0.522600 0.628500
C165 C 0.512700 0.598800 0.587400
H166 H 0.480000 0.559700 0.557400
C167 C 1.041700 0.837200 0.581300
H168 H 1.003600 0.818600 0.543200
C169 C 0.488100 0.735000 0.631700
H170 H 0.442200 0.789900 0.631400
C171 C 0.534000 0.535100 0.977100
H172 H 0.595600 0.543300 1.013000
C173 C 0.524700 0.597400 0.934400
H174 H 0.582300 0.648600 0.940700
C175 C 0.431100 0.586300 0.881700
C176 C 0.453100 0.461100 0.966800
C177 C 0.345800 0.511000 0.874700
H178 H 0.278700 0.503000 0.840100
C179 C 0.356200 0.448100 0.916600
H180 H 0.298100 0.396800 0.911100
Br181 Br 1.023300 0.628330 0.523450
O182 O 1.010800 0.137700 0.360000
N183 N 0.531200 0.260600 0.334100
C184 C 0.455100 0.386400 0.470800
H185 H 0.491600 0.437500 0.488300
O186 O 0.984000 0.076700 0.274000
O187 O 0.811800 0.294800 0.348700
C188 C 0.518000 0.362500 0.415100
H189 H 0.595100 0.396800 0.394200
N190 N 0.993600 0.138800 0.305700
C191 C 0.464700 0.287200 0.391200
C192 C 0.967400 0.292100 0.320400
C193 C 0.526100 0.210300 0.244700
C194 C 0.991800 0.225900 0.274300
H195 H 1.102100 0.234900 0.254700
C196 C 1.082500 0.348100 0.335900
H197 H 1.185000 0.345100 0.314900
C198 C 0.347600 0.237500 0.419700
H199 H 0.309400 0.187000 0.401900
C200 C 0.343000 0.098600 0.085100
H201 H 0.302200 0.073100 0.049400
N202 N 0.429400 0.225300 0.291400
C203 C 1.054400 0.321900 0.087700
H204 H 1.130900 0.306100 0.057200
C205 C 0.832900 0.368700 0.176200
H206 H 0.759100 0.385700 0.207200
C207 C 0.518100 0.199800 0.133600
H208 H 0.597100 0.243800 0.131100
C209 C 0.287200 0.263800 0.475300
H210 H 0.207600 0.230500 0.495900
C211 C 0.462600 0.172400 0.189600
C212 C 0.857200 0.224000 0.224900
H213 H 0.858200 0.167300 0.205700
C214 C 0.900200 0.288900 0.177000
C215 C 0.342400 0.338200 0.500900
H216 H 0.301900 0.355500 0.539000
C217 C 0.694100 0.235000 0.257000
C218 C 0.346800 0.108600 0.193200
H219 H 0.308300 0.090100 0.231300
C220 C 0.686500 0.265700 0.313000
C221 C 0.286600 0.071300 0.140800
H222 H 0.207300 0.027300 0.143200
C223 C 0.872900 0.423900 0.130300
H224 H 0.821400 0.477400 0.128500
C225 C 0.987300 0.401200 0.087400
H226 H 1.020000 0.440300 0.057400
C227 C 0.458300 0.162800 0.081300
H228 H 0.496400 0.181400 0.043200
C229 C 1.011900 0.265000 0.131700
H230 H 1.057800 0.210100 0.131400
C231 C 0.966000 0.464900 0.477100
H232 H 0.904400 0.456700 0.513000
C233 C 0.975300 0.402600 0.434400
H234 H 0.917700 0.351400 0.440700
C235 C 1.068900 0.413700 0.381700
C236 C 1.046900 0.538900 0.466800
C237 C 1.154200 0.489000 0.374700
H238 H 1.221300 0.497000 0.340100
C239 C 1.143800 0.551900 0.416600
H240 H 1.201900 0.603200 0.411100

#END
