
#######################################################################
#
#                 Cambridge Crystallographic Data Centre
#                                CCDC 
#
#######################################################################
#
# If this CIF has been generated from an entry in the Cambridge 
# Structural Database, then it will include bibliographic, chemical, 
# crystal, experimental, refinement or atomic coordinate data resulting 
# from the CCDC's data processing and validation procedures.
#
#######################################################################

data_MAQWIM05
_symmetry_cell_setting           monoclinic
_symmetry_space_group_name_H-M   'P 21/c'
_symmetry_Int_Tables_number      14
_space_group_name_Hall           '-P 2ybc'
loop_
_symmetry_equiv_pos_site_id
_symmetry_equiv_pos_as_xyz
1 x,y,z
2 -x,1/2+y,1/2-z
3 -x,-y,-z
4 x,1/2-y,1/2+z
_cell_length_a                   7.6315(11)
_cell_length_b                   12.0996(17)
_cell_length_c                   10.2473(14)
_cell_angle_alpha                90
_cell_angle_beta                 97.950(2)
_cell_angle_gamma                90
_cell_volume                     937.122
loop_
_atom_site_label
_atom_site_type_symbol
_atom_site_fract_x
_atom_site_fract_y
_atom_site_fract_z
O1 O -0.37970(12) 0.38857(8) 0.16362(9)
H1 H -0.4056 0.3639 0.0889
O2 O 0.33920(12) 0.26236(8) 0.51872(8)
C1 C 0.12141(15) 0.28556(9) 0.33031(11)
C2 C 0.64083(15) 0.07973(10) 0.31861(12)
C3 C 0.29529(15) 0.24698(9) 0.39958(11)
C4 C -0.21604(15) 0.35404(10) 0.21368(11)
C5 C 0.04195(15) 0.23933(10) 0.21162(12)
H2 H 0.1012 0.1845 0.1714
C6 C -0.12398(16) 0.27389(10) 0.15273(12)
H3 H -0.1736 0.2436 0.0727
C7 C -0.13733(16) 0.40128(10) 0.33204(11)
H4 H -0.1969 0.4556 0.3727
C8 C 0.79964(17) 0.02188(11) 0.39002(13)
H5 H 0.8119 0.0402 0.4820
H6 H 0.9036 0.0449 0.3543
H7 H 0.7851 -0.0566 0.3795
C9 C 0.02920(16) 0.36727(10) 0.38875(11)
H8 H 0.0805 0.3995 0.4672
C10 C 0.59795(17) 0.05482(11) 0.17434(12)
H9 H 0.5360 -0.0143 0.1628
H10 H 0.7055 0.0502 0.1359
H11 H 0.5248 0.1126 0.1320
N1 N 0.55273(13) 0.14145(9) 0.38771(10)
N2 N 0.39932(13) 0.19098(9) 0.32456(10)
H12 H 0.3712 0.1863 0.2405
O1 O 1.37970(12) 0.88857(8) 0.33638(9)
H1 H 1.4056 0.8639 0.4111
O2 O 0.66080(12) 0.76236(8) -0.01872(8)
C1 C 0.87859(15) 0.78556(9) 0.16969(11)
C2 C 0.35917(15) 0.57973(10) 0.18139(12)
C3 C 0.70471(15) 0.74698(9) 0.10042(11)
C4 C 1.21604(15) 0.85404(10) 0.28632(11)
C5 C 0.95805(15) 0.73933(10) 0.28838(12)
H2 H 0.8988 0.6845 0.3286
C6 C 1.12398(16) 0.77389(10) 0.34727(12)
H3 H 1.1736 0.7436 0.4273
C7 C 1.13733(16) 0.90128(10) 0.16796(11)
H4 H 1.1969 0.9556 0.1273
C8 C 0.20036(17) 0.52188(11) 0.10998(13)
H5 H 0.1881 0.5402 0.0180
H6 H 0.0964 0.5449 0.1457
H7 H 0.2149 0.4434 0.1205
C9 C 0.97080(16) 0.86727(10) 0.11125(11)
H8 H 0.9195 0.8995 0.0328
C10 C 0.40205(17) 0.55482(11) 0.32566(12)
H9 H 0.4640 0.4857 0.3372
H10 H 0.2945 0.5502 0.3641
H11 H 0.4752 0.6126 0.3680
N1 N 0.44727(13) 0.64145(9) 0.11229(10)
N2 N 0.60068(13) 0.69098(9) 0.17544(10)
H12 H 0.6288 0.6863 0.2595
O1 O 1.37970(12) 0.61143(8) 0.83638(9)
H1 H 1.4056 0.6361 0.9111
O2 O 0.66080(12) 0.73764(8) 0.48128(8)
C1 C 0.87859(15) 0.71444(9) 0.66969(11)
C2 C 0.35917(15) 0.92027(10) 0.68139(12)
C3 C 0.70471(15) 0.75302(9) 0.60042(11)
C4 C 1.21604(15) 0.64596(10) 0.78632(11)
C5 C 0.95805(15) 0.76067(10) 0.78838(12)
H2 H 0.8988 0.8155 0.8286
C6 C 1.12398(16) 0.72611(10) 0.84727(12)
H3 H 1.1736 0.7564 0.9273
C7 C 1.13733(16) 0.59872(10) 0.66796(11)
H4 H 1.1969 0.5444 0.6273
C8 C 0.20036(17) 0.97812(11) 0.60998(13)
H5 H 0.1881 0.9598 0.5180
H6 H 0.0964 0.9551 0.6457
H7 H 0.2149 1.0566 0.6205
C9 C 0.97080(16) 0.63273(10) 0.61125(11)
H8 H 0.9195 0.6005 0.5328
C10 C 0.40205(17) 0.94518(11) 0.82566(12)
H9 H 0.4640 1.0143 0.8372
H10 H 0.2945 0.9498 0.8641
H11 H 0.4752 0.8874 0.8680
N1 N 0.44727(13) 0.85855(9) 0.61229(10)
N2 N 0.60068(13) 0.80902(9) 0.67544(10)
H12 H 0.6288 0.8137 0.7595
O1 O -0.37970(12) 0.11143(8) 0.66362(9)
H1 H -0.4056 0.1361 0.5889
O2 O 0.33920(12) 0.23764(8) 1.01872(8)
C1 C 0.12141(15) 0.21444(9) 0.83031(11)
C2 C 0.64083(15) 0.42027(10) 0.81861(12)
C3 C 0.29529(15) 0.25302(9) 0.89958(11)
C4 C -0.21604(15) 0.14596(10) 0.71368(11)
C5 C 0.04195(15) 0.26067(10) 0.71162(12)
H2 H 0.1012 0.3155 0.6714
C6 C -0.12398(16) 0.22611(10) 0.65273(12)
H3 H -0.1736 0.2564 0.5727
C7 C -0.13733(16) 0.09872(10) 0.83204(11)
H4 H -0.1969 0.0444 0.8727
C8 C 0.79964(17) 0.47812(11) 0.89002(13)
H5 H 0.8119 0.4598 0.9820
H6 H 0.9036 0.4551 0.8543
H7 H 0.7851 0.5566 0.8795
C9 C 0.02920(16) 0.13273(10) 0.88875(11)
H8 H 0.0805 0.1005 0.9672
C10 C 0.59795(17) 0.44518(11) 0.67434(12)
H9 H 0.5360 0.5143 0.6628
H10 H 0.7055 0.4498 0.6359
H11 H 0.5248 0.3874 0.6320
N1 N 0.55273(13) 0.35855(9) 0.88771(10)
N2 N 0.39932(13) 0.30902(9) 0.82456(10)
H12 H 0.3712 0.3137 0.7405

#END
