
#######################################################################
#
#                 Cambridge Crystallographic Data Centre
#                                CCDC 
#
#######################################################################
#
# If this CIF has been generated from an entry in the Cambridge 
# Structural Database, then it will include bibliographic, chemical, 
# crystal, experimental, refinement or atomic coordinate data resulting 
# from the CCDC's data processing and validation procedures.
#
#######################################################################

data_MAQWEJ
_symmetry_cell_setting           monoclinic
_symmetry_space_group_name_H-M   'P 21'
_symmetry_Int_Tables_number      4
_space_group_name_Hall           'P 2yb'
loop_
_symmetry_equiv_pos_site_id
_symmetry_equiv_pos_as_xyz
1 x,y,z
2 -x,1/2+y,-z
_cell_length_a                   5.9739(3)
_cell_length_b                   8.1803(4)
_cell_length_c                   23.5716(13)
_cell_angle_alpha                90
_cell_angle_beta                 97.029(2)
_cell_angle_gamma                90
_cell_volume                     1143.25
loop_
_atom_site_label
_atom_site_type_symbol
_atom_site_fract_x
_atom_site_fract_y
_atom_site_fract_z
Br1 Br 0.55628(8) 0.09581(8) 0.98078(2)
Cl1 Cl 0.9697(2) 0.6074(2) 0.92459(5)
N1 N -0.5079(8) 0.2022(6) 0.6751(2)
O1 O -0.5021(7) 0.0549(5) 0.6844(2)
O2 O 0.0368(6) 0.3425(4) 0.74950(14)
C1 C -0.1492(8) 0.2482(6) 0.7317(2)
C2 C 0.0432(9) 0.4893(6) 0.7237(2)
C3 C -0.1030(9) 0.5526(6) 0.6816(2)
O3 O -0.6773(6) 0.2732(5) 0.65276(18)
C4 C -0.3117(9) 0.4612(6) 0.6567(2)
H1 H -0.4471 0.5258 0.6642
C5 C -0.3087(9) 0.3036(6) 0.6901(2)
H2 H -0.2305 0.2473 0.6604
N2 N 0.2120(6) 0.5992(7) 0.73849(15)
C6 C 0.3388(8) 0.0910(9) 0.91458(19)
C7 C 0.3985(7) 0.5921(9) 0.78253(18)
C8 C 0.0290(7) 0.0922(8) 0.81796(18)
N3 N 0.1776(8) 0.7349(5) 0.70475(19)
C9 C 0.3914(9) 0.0140(7) 0.8661(2)
H3 H 0.5320 -0.0403 0.8662
C10 C 0.3880(9) 0.4963(7) 0.8305(2)
H4 H 0.2602 0.4294 0.8336
C11 C 0.2376(9) 0.0164(7) 0.8173(2)
H5 H 0.2741 -0.0337 0.7833
C12 C 0.5673(9) 0.4997(7) 0.8738(2)
H6 H 0.5645 0.4340 0.9070
C13 C 0.1328(9) 0.1663(7) 0.9164(2)
H7 H 0.0976 0.2170 0.9504
C14 C -0.0129(9) 0.7074(7) 0.6706(2)
C15 C -0.1386(8) 0.0906(9) 0.7644(2)
C16 C 0.7502(7) 0.5996(9) 0.86837(19)
C17 C 0.7617(9) 0.6912(7) 0.8207(2)
H8 H 0.8907 0.7566 0.8172
C18 C -0.0202(9) 0.1663(7) 0.8678(2)
H9 H -0.1623 0.2180 0.8685
C19 C 0.5839(9) 0.6881(7) 0.7774(2)
H10 H 0.5895 0.7524 0.7441
C20 C -0.3186(9) 0.4390(6) 0.5922(2)
C21 C -0.1449(10) 0.3610(8) 0.5701(2)
H11 H -0.0270 0.3124 0.5953
C22 C -0.4867(12) 0.4972(8) 0.4967(3)
H12 H -0.6057 0.5441 0.4715
C23 C -0.4912(10) 0.5062(7) 0.5553(3)
H13 H -0.6136 0.5587 0.5701
C24 C -0.1396(10) 0.3524(9) 0.5118(3)
H14 H -0.0177 0.2993 0.4970
C25 C -0.1047(10) 0.8316(7) 0.6281(2)
H15 H -0.0111 0.9303 0.6325
H16 H -0.2596 0.8589 0.6343
H17 H -0.1042 0.7877 0.5895
C26 C -0.3110(10) 0.4209(8) 0.4750(2)
H18 H -0.3077 0.4153 0.4349
H19 H -0.283(9) 0.072(8) 0.776(2)
Br1 Br 0.44372(8) 0.59581(8) 0.01922(2)
Cl1 Cl 0.0303(2) 1.1074(2) 0.07541(5)
N1 N 1.5079(8) 0.7022(6) 0.3249(2)
O1 O 1.5021(7) 0.5549(5) 0.3156(2)
O2 O 0.9632(6) 0.8425(4) 0.25050(14)
C1 C 1.1492(8) 0.7482(6) 0.2683(2)
C2 C 0.9568(9) 0.9893(6) 0.2763(2)
C3 C 1.1030(9) 1.0526(6) 0.3184(2)
O3 O 1.6773(6) 0.7732(5) 0.34724(18)
C4 C 1.3117(9) 0.9612(6) 0.3433(2)
H1 H 1.4471 1.0258 0.3358
C5 C 1.3087(9) 0.8036(6) 0.3099(2)
H2 H 1.2305 0.7473 0.3396
N2 N 0.7880(6) 1.0992(7) 0.26151(15)
C6 C 0.6612(8) 0.5910(9) 0.08542(19)
C7 C 0.6015(7) 1.0921(9) 0.21747(18)
C8 C 0.9710(7) 0.5922(8) 0.18204(18)
N3 N 0.8224(8) 1.2349(5) 0.29525(19)
C9 C 0.6086(9) 0.5140(7) 0.1339(2)
H3 H 0.4680 0.4597 0.1338
C10 C 0.6120(9) 0.9963(7) 0.1695(2)
H4 H 0.7398 0.9294 0.1664
C11 C 0.7624(9) 0.5164(7) 0.1827(2)
H5 H 0.7259 0.4663 0.2167
C12 C 0.4327(9) 0.9997(7) 0.1262(2)
H6 H 0.4355 0.9340 0.0930
C13 C 0.8672(9) 0.6663(7) 0.0836(2)
H7 H 0.9024 0.7170 0.0496
C14 C 1.0129(9) 1.2074(7) 0.3294(2)
C15 C 1.1386(8) 0.5906(9) 0.2356(2)
C16 C 0.2498(7) 1.0996(9) 0.13163(19)
C17 C 0.2383(9) 1.1912(7) 0.1793(2)
H8 H 0.1093 1.2566 0.1828
C18 C 1.0202(9) 0.6663(7) 0.1322(2)
H9 H 1.1623 0.7180 0.1315
C19 C 0.4161(9) 1.1881(7) 0.2226(2)
H10 H 0.4105 1.2524 0.2559
C20 C 1.3186(9) 0.9390(6) 0.4078(2)
C21 C 1.1449(10) 0.8610(8) 0.4299(2)
H11 H 1.0270 0.8124 0.4047
C22 C 1.4867(12) 0.9972(8) 0.5033(3)
H12 H 1.6057 1.0441 0.5285
C23 C 1.4912(10) 1.0062(7) 0.4447(3)
H13 H 1.6136 1.0587 0.4299
C24 C 1.1396(10) 0.8524(9) 0.4882(3)
H14 H 1.0177 0.7993 0.5030
C25 C 1.1047(10) 1.3316(7) 0.3719(2)
H15 H 1.0111 1.4303 0.3675
H16 H 1.2596 1.3589 0.3657
H17 H 1.1042 1.2877 0.4105
C26 C 1.3110(10) 0.9209(8) 0.5250(2)
H18 H 1.3077 0.9153 0.5651
H19 H 1.283(9) 0.572(8) 0.224(2)

#END
