./MAQWIM_from_xyz.cif_generated_by_CrystalShift
_symmetry_cell_setting triclinic
_symmetry_space_group_name_H-M 'P 1'
loop_
_symmetry_equiv_pos_site_id
_symmetry_equiv_pos_as_xyz
1 x,y,z
_cell_length_a 9.968000
_cell_length_b 8.082000
_cell_length_c 13.267000
_cell_angle_alpha 90.000000
_cell_angle_beta 90.000000
_cell_angle_gamma 90.000000
_cell_volume 1068.807775
loop_
_atom_site_label
_atom_site_type_symbol
_atom_site_fract_x
_atom_site_fract_y
_atom_site_fract_z
C1 C 0.169600 1.140300 0.016000
C2 C 0.030400 1.121500 0.012700
H3 H -0.019500 1.177300 -0.035800
C4 C -0.032300 1.020900 0.080800
H5 H -0.125300 1.011400 0.079300
C6 C 0.039800 0.933400 0.151800
C7 C 0.178900 0.955200 0.153400
H8 H 0.229400 0.898500 0.201100
C9 C 0.243100 1.058100 0.086300
H10 H 0.335700 1.071300 0.089000
C11 C -0.035000 0.823900 0.220900
C12 C 0.008700 0.450400 0.344000
C13 C 0.118700 0.370800 0.288400
H14 H 0.105100 0.385300 0.217300
H15 H 0.120500 0.254800 0.304000
H16 H 0.202500 0.420200 0.307600
C17 C -0.061100 0.354900 0.423500
H18 H -0.125700 0.424500 0.456400
H19 H 0.003100 0.316300 0.472000
H20 H -0.106100 0.261900 0.393600
N21 N 0.031000 0.691000 0.257300
N22 N -0.035300 0.597100 0.329100
O23 O 0.235200 1.240100 -0.049900
O24 O -0.153700 0.850500 0.242000
H25 H 0.114000 0.679000 0.241000
H26 H 0.167000 1.293000 -0.098000
C27 C 0.830400 -0.140300 0.516000
C28 C 0.969600 -0.121500 0.512700
H29 H 1.019500 -0.177300 0.464200
C30 C 1.032300 -0.020900 0.580800
H31 H 1.125300 -0.011400 0.579300
C32 C 0.960200 0.066600 0.651800
C33 C 0.821100 0.044800 0.653400
H34 H 0.770600 0.101500 0.701100
C35 C 0.756900 -0.058100 0.586300
H36 H 0.664300 -0.071300 0.589000
C37 C 1.035000 0.176100 0.720900
C38 C 0.991300 0.549600 0.844000
C39 C 0.881300 0.629200 0.788400
H40 H 0.894900 0.614700 0.717300
H41 H 0.879500 0.745200 0.804000
H42 H 0.797500 0.579800 0.807600
C43 C 1.061100 0.645100 0.923500
H44 H 1.125700 0.575500 0.956400
H45 H 0.996900 0.683700 0.972000
H46 H 1.106100 0.738100 0.893600
N47 N 0.969000 0.309000 0.757300
N48 N 1.035300 0.402900 0.829100
O49 O 0.764800 -0.240100 0.450100
O50 O 1.153700 0.149500 0.742000
H51 H 0.886000 0.321000 0.741000
H52 H 0.833000 -0.293000 0.402000
C53 C 0.330400 0.640300 0.516000
C54 C 0.469600 0.621500 0.512700
H55 H 0.519500 0.677300 0.464200
C56 C 0.532300 0.520900 0.580800
H57 H 0.625300 0.511400 0.579300
C58 C 0.460200 0.433400 0.651800
C59 C 0.321100 0.455200 0.653400
H60 H 0.270600 0.398500 0.701100
C61 C 0.256900 0.558100 0.586300
H62 H 0.164300 0.571300 0.589000
C63 C 0.535000 0.323900 0.720900
C64 C 0.491300 -0.049600 0.844000
C65 C 0.381300 -0.129200 0.788400
H66 H 0.394900 -0.114700 0.717300
H67 H 0.379500 -0.245200 0.804000
H68 H 0.297500 -0.079800 0.807600
C69 C 0.561100 -0.145100 0.923500
H70 H 0.625700 -0.075500 0.956400
H71 H 0.496900 -0.183700 0.972000
H72 H 0.606100 -0.238100 0.893600
N73 N 0.469000 0.191000 0.757300
N74 N 0.535300 0.097100 0.829100
O75 O 0.264800 0.740100 0.450100
O76 O 0.653700 0.350500 0.742000
H77 H 0.386000 0.179000 0.741000
H78 H 0.333000 0.793000 0.402000
C79 C 0.669600 0.359700 0.016000
C80 C 0.530400 0.378500 0.012700
H81 H 0.480500 0.322700 -0.035800
C82 C 0.467700 0.479100 0.080800
H83 H 0.374700 0.488600 0.079300
C84 C 0.539800 0.566600 0.151800
C85 C 0.678900 0.544800 0.153400
H86 H 0.729400 0.601500 0.201100
C87 C 0.743100 0.441900 0.086300
H88 H 0.835700 0.428700 0.089000
C89 C 0.465000 0.676100 0.220900
C90 C 0.508700 1.049600 0.344000
C91 C 0.618700 1.129200 0.288400
H92 H 0.605100 1.114700 0.217300
H93 H 0.620500 1.245200 0.304000
H94 H 0.702500 1.079800 0.307600
C95 C 0.438900 1.145100 0.423500
H96 H 0.374300 1.075500 0.456400
H97 H 0.503100 1.183700 0.472000
H98 H 0.393900 1.238100 0.393600
N99 N 0.531000 0.809000 0.257300
N100 N 0.464700 0.902900 0.329100
O101 O 0.735200 0.259900 -0.049900
O102 O 0.346300 0.649500 0.242000
H103 H 0.614000 0.821000 0.241000
H104 H 0.667000 0.207000 -0.098000

#END
