
#######################################################################
#
#                 Cambridge Crystallographic Data Centre
#                                CCDC 
#
#######################################################################
#
# If this CIF has been generated from an entry in the Cambridge 
# Structural Database, then it will include bibliographic, chemical, 
# crystal, experimental, refinement or atomic coordinate data resulting 
# from the CCDC's data processing and validation procedures.
#
#######################################################################

data_MAQXAF
_symmetry_cell_setting           orthorhombic
_symmetry_space_group_name_H-M   'P n a 21'
_symmetry_Int_Tables_number      33
_space_group_name_Hall           'P 2c -2n'
loop_
_symmetry_equiv_pos_site_id
_symmetry_equiv_pos_as_xyz
1 x,y,z
2 -x,-y,1/2+z
3 1/2-x,1/2+y,1/2+z
4 1/2+x,1/2-y,z
_cell_length_a                   9.818(6)
_cell_length_b                   10.485(8)
_cell_length_c                   11.333(8)
_cell_angle_alpha                90
_cell_angle_beta                 90
_cell_angle_gamma                90
_cell_volume                     1166.64
loop_
_atom_site_label
_atom_site_type_symbol
_atom_site_fract_x
_atom_site_fract_y
_atom_site_fract_z
C1 C 0.1526(3) 1.1253(3) 0.2003(3)
C2 C 0.0156(3) 1.0982(3) 0.1854(3)
H1 H -0.0379 1.1496 0.1373
C3 C -0.0408(3) 0.9953(3) 0.2421(4)
H2 H -0.1325 0.9771 0.2304
C4 C 0.0343(3) 0.9181(3) 0.3156(3)
C5 C 0.1717(3) 0.9473(3) 0.3316(3)
H3 H 0.2250 0.8967 0.3807
C6 C 0.2287(3) 1.0500(3) 0.2753(3)
H4 H 0.3200 1.0692 0.2879
C7 C -0.0364(3) 0.8134(3) 0.3762(3)
C8 C 0.0205(3) 0.5301(3) 0.5285(3)
C9 C 0.1402(4) 0.4678(3) 0.4713(4)
H5 H 0.2135 0.4593 0.5281
H6 H 0.1724 0.5205 0.4067
C10 C 0.1008(4) 0.3377(3) 0.4252(4)
H7 H 0.0398 0.3479 0.3586
H8 H 0.1819 0.2941 0.3975
C11 C 0.0321(5) 0.2568(3) 0.5179(5)
H9 H 0.0964 0.2383 0.5807
H10 H 0.0040 0.1765 0.4831
C12 C -0.0909(4) 0.3239(3) 0.5689(4)
H11 H -0.1593 0.3341 0.5079
H12 H -0.1297 0.2720 0.6313
C13 C -0.0532(4) 0.4526(3) 0.6176(4)
H13 H -0.1352 0.4972 0.6417
H14 H 0.0039 0.4416 0.6867
N1 N 0.0395(3) 0.7191(2) 0.4257(3)
H15 H 0.127(4) 0.715(3) 0.416(4)
N2 N -0.0283(3) 0.6407(2) 0.5067(3)
O1 O 0.2158(3) 1.2240(2) 0.1468(3)
H16 H 0.162(4) 1.268(4) 0.108(4)
O2 O -0.1613(2) 0.8091(2) 0.3805(2)
C1 C 0.8474(3) -0.1253(3) 0.7003(3)
C2 C 0.9844(3) -0.0982(3) 0.6854(3)
H1 H 1.0379 -0.1496 0.6373
C3 C 1.0408(3) 0.0047(3) 0.7421(4)
H2 H 1.1325 0.0229 0.7304
C4 C 0.9657(3) 0.0819(3) 0.8156(3)
C5 C 0.8283(3) 0.0527(3) 0.8316(3)
H3 H 0.7750 0.1033 0.8807
C6 C 0.7713(3) -0.0500(3) 0.7753(3)
H4 H 0.6800 -0.0692 0.7879
C7 C 1.0364(3) 0.1866(3) 0.8762(3)
C8 C 0.9795(3) 0.4699(3) 1.0285(3)
C9 C 0.8598(4) 0.5322(3) 0.9713(4)
H5 H 0.7865 0.5407 1.0281
H6 H 0.8276 0.4795 0.9067
C10 C 0.8992(4) 0.6623(3) 0.9252(4)
H7 H 0.9602 0.6521 0.8586
H8 H 0.8181 0.7059 0.8975
C11 C 0.9679(5) 0.7432(3) 1.0179(5)
H9 H 0.9036 0.7617 1.0807
H10 H 0.9960 0.8235 0.9831
C12 C 1.0909(4) 0.6761(3) 1.0689(4)
H11 H 1.1593 0.6659 1.0079
H12 H 1.1297 0.7280 1.1313
C13 C 1.0532(4) 0.5474(3) 1.1176(4)
H13 H 1.1352 0.5028 1.1417
H14 H 0.9961 0.5584 1.1867
N1 N 0.9605(3) 0.2809(2) 0.9257(3)
H15 H 0.873(4) 0.285(3) 0.916(4)
N2 N 1.0283(3) 0.3593(2) 1.0067(3)
O1 O 0.7842(3) -0.2240(2) 0.6468(3)
H16 H 0.838(4) -0.268(4) 0.608(4)
O2 O 1.1613(2) 0.1909(2) 0.8805(2)
C1 C 0.3474(3) 0.6253(3) 0.7003(3)
C2 C 0.4844(3) 0.5982(3) 0.6854(3)
H1 H 0.5379 0.6496 0.6373
C3 C 0.5408(3) 0.4953(3) 0.7421(4)
H2 H 0.6325 0.4771 0.7304
C4 C 0.4657(3) 0.4181(3) 0.8156(3)
C5 C 0.3283(3) 0.4473(3) 0.8316(3)
H3 H 0.2750 0.3967 0.8807
C6 C 0.2713(3) 0.5500(3) 0.7753(3)
H4 H 0.1800 0.5692 0.7879
C7 C 0.5364(3) 0.3134(3) 0.8762(3)
C8 C 0.4795(3) 0.0301(3) 1.0285(3)
C9 C 0.3598(4) -0.0322(3) 0.9713(4)
H5 H 0.2865 -0.0407 1.0281
H6 H 0.3276 0.0205 0.9067
C10 C 0.3992(4) -0.1623(3) 0.9252(4)
H7 H 0.4602 -0.1521 0.8586
H8 H 0.3181 -0.2059 0.8975
C11 C 0.4679(5) -0.2432(3) 1.0179(5)
H9 H 0.4036 -0.2617 1.0807
H10 H 0.4960 -0.3235 0.9831
C12 C 0.5909(4) -0.1761(3) 1.0689(4)
H11 H 0.6593 -0.1659 1.0079
H12 H 0.6297 -0.2280 1.1313
C13 C 0.5532(4) -0.0474(3) 1.1176(4)
H13 H 0.6352 -0.0028 1.1417
H14 H 0.4961 -0.0584 1.1867
N1 N 0.4605(3) 0.2191(2) 0.9257(3)
H15 H 0.373(4) 0.215(3) 0.916(4)
N2 N 0.5283(3) 0.1407(2) 1.0067(3)
O1 O 0.2842(3) 0.7240(2) 0.6468(3)
H16 H 0.338(4) 0.768(4) 0.608(4)
O2 O 0.6613(2) 0.3091(2) 0.8805(2)
C1 C 0.6526(3) 0.3747(3) 0.2003(3)
C2 C 0.5156(3) 0.4018(3) 0.1854(3)
H1 H 0.4621 0.3504 0.1373
C3 C 0.4592(3) 0.5047(3) 0.2421(4)
H2 H 0.3675 0.5229 0.2304
C4 C 0.5343(3) 0.5819(3) 0.3156(3)
C5 C 0.6717(3) 0.5527(3) 0.3316(3)
H3 H 0.7250 0.6033 0.3807
C6 C 0.7287(3) 0.4500(3) 0.2753(3)
H4 H 0.8200 0.4308 0.2879
C7 C 0.4636(3) 0.6866(3) 0.3762(3)
C8 C 0.5205(3) 0.9699(3) 0.5285(3)
C9 C 0.6402(4) 1.0322(3) 0.4713(4)
H5 H 0.7135 1.0407 0.5281
H6 H 0.6724 0.9795 0.4067
C10 C 0.6008(4) 1.1623(3) 0.4252(4)
H7 H 0.5398 1.1521 0.3586
H8 H 0.6819 1.2059 0.3975
C11 C 0.5321(5) 1.2432(3) 0.5179(5)
H9 H 0.5964 1.2617 0.5807
H10 H 0.5040 1.3235 0.4831
C12 C 0.4091(4) 1.1761(3) 0.5689(4)
H11 H 0.3407 1.1659 0.5079
H12 H 0.3703 1.2280 0.6313
C13 C 0.4468(4) 1.0474(3) 0.6176(4)
H13 H 0.3648 1.0028 0.6417
H14 H 0.5039 1.0584 0.6867
N1 N 0.5395(3) 0.7809(2) 0.4257(3)
H15 H 0.627(4) 0.785(3) 0.416(4)
N2 N 0.4717(3) 0.8593(2) 0.5067(3)
O1 O 0.7158(3) 0.2760(2) 0.1468(3)
H16 H 0.662(4) 0.232(4) 0.108(4)
O2 O 0.3387(2) 0.6909(2) 0.3805(2)

#END
