./MAQXAF_from_xyz.cif_generated_by_CrystalShift
_symmetry_cell_setting triclinic
_symmetry_space_group_name_H-M 'P 1'
loop_
_symmetry_equiv_pos_site_id
_symmetry_equiv_pos_as_xyz
1 x,y,z
_cell_length_a 9.818000
_cell_length_b 10.485000
_cell_length_c 11.333000
_cell_angle_alpha 90.000000
_cell_angle_beta 90.000000
_cell_angle_gamma 90.000000
_cell_volume 1166.638626
loop_
_atom_site_label
_atom_site_type_symbol
_atom_site_fract_x
_atom_site_fract_y
_atom_site_fract_z
C1 C 0.152600 1.125300 0.200300
C2 C 0.015600 1.098200 0.185400
H3 H -0.037900 1.149600 0.137300
C4 C -0.040800 0.995300 0.242100
H5 H -0.132500 0.977100 0.230400
C6 C 0.034300 0.918100 0.315600
C7 C 0.171700 0.947300 0.331600
H8 H 0.225000 0.896700 0.380700
C9 C 0.228700 1.050000 0.275300
H10 H 0.320000 1.069200 0.287900
C11 C -0.036400 0.813400 0.376200
C12 C 0.020500 0.530100 0.528500
C13 C 0.140200 0.467800 0.471300
H14 H 0.213500 0.459300 0.528100
H15 H 0.172400 0.520500 0.406700
C16 C 0.100800 0.337700 0.425200
H17 H 0.039800 0.347900 0.358600
H18 H 0.181900 0.294100 0.397500
C19 C 0.032100 0.256800 0.517900
H20 H 0.096400 0.238300 0.580700
H21 H 0.004000 0.176500 0.483100
C22 C -0.090900 0.323900 0.568900
H23 H -0.159300 0.334100 0.507900
H24 H -0.129700 0.272000 0.631300
C25 C -0.053200 0.452600 0.617600
H26 H -0.135200 0.497200 0.641700
H27 H 0.003900 0.441600 0.686700
N28 N 0.039500 0.719100 0.425700
H29 H 0.127000 0.715000 0.416000
N30 N -0.028300 0.640700 0.506700
O31 O 0.215800 1.224000 0.146800
H32 H 0.162000 1.268000 0.108000
O33 O -0.161300 0.809100 0.380500
C34 C 0.847400 -0.125300 0.700300
C35 C 0.984400 -0.098200 0.685400
H36 H 1.037900 -0.149600 0.637300
C37 C 1.040800 0.004700 0.742100
H38 H 1.132500 0.022900 0.730400
C39 C 0.965700 0.081900 0.815600
C40 C 0.828300 0.052700 0.831600
H41 H 0.775000 0.103300 0.880700
C42 C 0.771300 -0.050000 0.775300
H43 H 0.680000 -0.069200 0.787900
C44 C 1.036400 0.186600 0.876200
C45 C 0.979500 0.469900 1.028500
C46 C 0.859800 0.532200 0.971300
H47 H 0.786500 0.540700 1.028100
H48 H 0.827600 0.479500 0.906700
C49 C 0.899200 0.662300 0.925200
H50 H 0.960200 0.652100 0.858600
H51 H 0.818100 0.705900 0.897500
C52 C 0.967900 0.743200 1.017900
H53 H 0.903600 0.761700 1.080700
H54 H 0.996000 0.823500 0.983100
C55 C 1.090900 0.676100 1.068900
H56 H 1.159300 0.665900 1.007900
H57 H 1.129700 0.728000 1.131300
C58 C 1.053200 0.547400 1.117600
H59 H 1.135200 0.502800 1.141700
H60 H 0.996100 0.558400 1.186700
N61 N 0.960500 0.280900 0.925700
H62 H 0.873000 0.285000 0.916000
N63 N 1.028300 0.359300 1.006700
O64 O 0.784200 -0.224000 0.646800
H65 H 0.838000 -0.268000 0.608000
O66 O 1.161300 0.190900 0.880500
C67 C 0.347400 0.625300 0.700300
C68 C 0.484400 0.598200 0.685400
H69 H 0.537900 0.649600 0.637300
C70 C 0.540800 0.495300 0.742100
H71 H 0.632500 0.477100 0.730400
C72 C 0.465700 0.418100 0.815600
C73 C 0.328300 0.447300 0.831600
H74 H 0.275000 0.396700 0.880700
C75 C 0.271300 0.550000 0.775300
H76 H 0.180000 0.569200 0.787900
C77 C 0.536400 0.313400 0.876200
C78 C 0.479500 0.030100 1.028500
C79 C 0.359800 -0.032200 0.971300
H80 H 0.286500 -0.040700 1.028100
H81 H 0.327600 0.020500 0.906700
C82 C 0.399200 -0.162300 0.925200
H83 H 0.460200 -0.152100 0.858600
H84 H 0.318100 -0.205900 0.897500
C85 C 0.467900 -0.243200 1.017900
H86 H 0.403600 -0.261700 1.080700
H87 H 0.496000 -0.323500 0.983100
C88 C 0.590900 -0.176100 1.068900
H89 H 0.659300 -0.165900 1.007900
H90 H 0.629700 -0.228000 1.131300
C91 C 0.553200 -0.047400 1.117600
H92 H 0.635200 -0.002800 1.141700
H93 H 0.496100 -0.058400 1.186700
N94 N 0.460500 0.219100 0.925700
H95 H 0.373000 0.215000 0.916000
N96 N 0.528300 0.140700 1.006700
O97 O 0.284200 0.724000 0.646800
H98 H 0.338000 0.768000 0.608000
O99 O 0.661300 0.309100 0.880500
C100 C 0.652600 0.374700 0.200300
C101 C 0.515600 0.401800 0.185400
H102 H 0.462100 0.350400 0.137300
C103 C 0.459200 0.504700 0.242100
H104 H 0.367500 0.522900 0.230400
C105 C 0.534300 0.581900 0.315600
C106 C 0.671700 0.552700 0.331600
H107 H 0.725000 0.603300 0.380700
C108 C 0.728700 0.450000 0.275300
H109 H 0.820000 0.430800 0.287900
C110 C 0.463600 0.686600 0.376200
C111 C 0.520500 0.969900 0.528500
C112 C 0.640200 1.032200 0.471300
H113 H 0.713500 1.040700 0.528100
H114 H 0.672400 0.979500 0.406700
C115 C 0.600800 1.162300 0.425200
H116 H 0.539800 1.152100 0.358600
H117 H 0.681900 1.205900 0.397500
C118 C 0.532100 1.243200 0.517900
H119 H 0.596400 1.261700 0.580700
H120 H 0.504000 1.323500 0.483100
C121 C 0.409100 1.176100 0.568900
H122 H 0.340700 1.165900 0.507900
H123 H 0.370300 1.228000 0.631300
C124 C 0.446800 1.047400 0.617600
H125 H 0.364800 1.002800 0.641700
H126 H 0.503900 1.058400 0.686700
N127 N 0.539500 0.780900 0.425700
H128 H 0.627000 0.785000 0.416000
N129 N 0.471700 0.859300 0.506700
O130 O 0.715800 0.276000 0.146800
H131 H 0.662000 0.232000 0.108000
O132 O 0.338700 0.690900 0.380500

#END
