
#######################################################################
#
#                 Cambridge Crystallographic Data Centre
#                                CCDC 
#
#######################################################################
#
# If this CIF has been generated from an entry in the Cambridge 
# Structural Database, then it will include bibliographic, chemical, 
# crystal, experimental, refinement or atomic coordinate data resulting 
# from the CCDC's data processing and validation procedures.
#
#######################################################################

data_MAQYEJ
_symmetry_cell_setting           triclinic
_symmetry_space_group_name_H-M   'P -1'
_symmetry_Int_Tables_number      2
_space_group_name_Hall           '-P 1'
loop_
_symmetry_equiv_pos_site_id
_symmetry_equiv_pos_as_xyz
1 x,y,z
2 -x,-y,-z
_cell_length_a                   9.4368(16)
_cell_length_b                   9.9806(17)
_cell_length_c                   13.572(2)
_cell_angle_alpha                100.051(4)
_cell_angle_beta                 91.247(4)
_cell_angle_gamma                98.309(4)
_cell_volume                     1244
loop_
_atom_site_label
_atom_site_type_symbol
_atom_site_fract_x
_atom_site_fract_y
_atom_site_fract_z
O1 O 0.4028(3) 0.6907(3) 0.67898(18)
O2 O -0.3350(3) 0.8684(3) 0.76231(19)
O3 O -0.3468(2) 0.5648(3) 0.6821(2)
O4 O 0.4155(2) 0.9405(3) 0.85264(17)
C1 C 0.3005(3) 0.6354(3) 0.7361(2)
C2 C 0.3013(4) 0.5058(4) 0.7603(3)
C3 C 0.1949(4) 0.4526(4) 0.8169(3)
C4 C 0.0860(4) 0.5261(4) 0.8477(3)
C5 C -0.0481(4) 0.7725(4) 0.9611(3)
C6 C -0.1539(4) 0.8463(4) 0.9972(3)
C7 C -0.2493(4) 0.8824(4) 0.9320(3)
C8 C -0.2417(3) 0.8410(3) 0.8299(3)
C9 C -0.2348(3) 0.6205(4) 0.6288(3)
C10 C -0.2314(4) 0.5738(4) 0.5269(3)
C11 C -0.1187(4) 0.6280(5) 0.4752(3)
C12 C -0.0137(4) 0.7289(4) 0.5245(3)
C13 C 0.1163(4) 1.0120(4) 0.6489(3)
C14 C 0.2293(4) 1.1113(4) 0.6874(3)
C15 C 0.3272(4) 1.0855(4) 0.7550(3)
C16 C 0.3122(3) 0.9581(3) 0.7838(2)
C25 C 0.1934(3) 0.7126(3) 0.7685(2)
C26 C 0.0834(3) 0.6555(3) 0.8231(2)
C27 C -0.0345(3) 0.7341(3) 0.8586(2)
C28 C -0.1329(3) 0.7657(3) 0.7916(2)
C29 C -0.1283(3) 0.7202(3) 0.6815(2)
C30 C -0.0167(3) 0.7758(3) 0.6275(2)
C31 C 0.1003(3) 0.8838(3) 0.6763(2)
C32 C 0.2001(3) 0.8539(3) 0.7440(2)
H1 H 0.376(3) 0.455(3) 0.743(2)
H2 H 0.194(3) 0.359(3) 0.833(2)
H3 H 0.005(3) 0.485(3) 0.885(2)
H4 H 0.018(3) 0.745(3) 1.004(2)
H5 H -0.156(3) 0.874(3) 1.066(2)
H6 H -0.327(3) 0.932(3) 0.958(2)
H7 H -0.303(4) 0.491(4) 0.492(3)
H8 H -0.114(3) 0.599(3) 0.407(2)
H9 H 0.068(3) 0.774(3) 0.484(2)
H10 H 0.042(3) 1.028(3) 0.597(2)
H11 H 0.248(3) 1.194(3) 0.668(2)
H12 H 0.401(3) 1.160(3) 0.781(2)
H13 H 0.482(4) 0.662(4) 0.680(3)
H14 H -0.405(4) 0.896(4) 0.791(3)
H15 H -0.377(4) 0.485(4) 0.655(3)
H16 H 0.394(4) 0.868(4) 0.892(3)
O1 O 0.5972(3) 0.3093(3) 0.32102(18)
O2 O 1.3350(3) 0.1316(3) 0.23769(19)
O3 O 1.3468(2) 0.4352(3) 0.3179(2)
O4 O 0.5845(2) 0.0595(3) 0.14736(17)
C1 C 0.6995(3) 0.3646(3) 0.2639(2)
C2 C 0.6987(4) 0.4942(4) 0.2397(3)
C3 C 0.8051(4) 0.5474(4) 0.1831(3)
C4 C 0.9140(4) 0.4739(4) 0.1523(3)
C5 C 1.0481(4) 0.2275(4) 0.0389(3)
C6 C 1.1539(4) 0.1537(4) 0.0028(3)
C7 C 1.2493(4) 0.1176(4) 0.0680(3)
C8 C 1.2417(3) 0.1590(3) 0.1701(3)
C9 C 1.2348(3) 0.3795(4) 0.3712(3)
C10 C 1.2314(4) 0.4262(4) 0.4731(3)
C11 C 1.1187(4) 0.3720(5) 0.5248(3)
C12 C 1.0137(4) 0.2711(4) 0.4755(3)
C13 C 0.8837(4) -0.0120(4) 0.3511(3)
C14 C 0.7707(4) -0.1113(4) 0.3126(3)
C15 C 0.6728(4) -0.0855(4) 0.2450(3)
C16 C 0.6878(3) 0.0419(3) 0.2162(2)
C25 C 0.8066(3) 0.2874(3) 0.2315(2)
C26 C 0.9166(3) 0.3445(3) 0.1769(2)
C27 C 1.0345(3) 0.2659(3) 0.1414(2)
C28 C 1.1329(3) 0.2343(3) 0.2084(2)
C29 C 1.1283(3) 0.2798(3) 0.3185(2)
C30 C 1.0167(3) 0.2242(3) 0.3725(2)
C31 C 0.8997(3) 0.1162(3) 0.3237(2)
C32 C 0.7999(3) 0.1461(3) 0.2560(2)
H1 H 0.624(3) 0.545(3) 0.257(2)
H2 H 0.806(3) 0.641(3) 0.167(2)
H3 H 0.995(3) 0.515(3) 0.115(2)
H4 H 0.982(3) 0.255(3) -0.004(2)
H5 H 1.156(3) 0.126(3) -0.066(2)
H6 H 1.327(3) 0.068(3) 0.042(2)
H7 H 1.303(4) 0.509(4) 0.508(3)
H8 H 1.114(3) 0.401(3) 0.593(2)
H9 H 0.932(3) 0.226(3) 0.516(2)
H10 H 0.958(3) -0.028(3) 0.403(2)
H11 H 0.752(3) -0.194(3) 0.332(2)
H12 H 0.599(3) -0.160(3) 0.219(2)
H13 H 0.518(4) 0.338(4) 0.320(3)
H14 H 1.405(4) 0.104(4) 0.209(3)
H15 H 1.377(4) 0.515(4) 0.345(3)
H16 H 0.606(4) 0.132(4) 0.108(3)
N1 N 0.2855(4) 0.6534(4) 0.1201(3)
N2 N 0.3829(3) 0.7680(3) -0.0071(2)
C17 C 0.3003(5) 0.7565(5) 0.0705(3)
C18 C 0.4603(4) 0.6666(4) -0.0330(3)
C19 C 0.4560(4) 0.5550(4) 0.0160(3)
C20 C 0.3611(5) 0.5547(5) 0.0907(3)
H17 H 0.254(4) 0.837(4) 0.102(2)
H18 H 0.529(4) 0.663(4) -0.093(3)
H19 H 0.342(4) 0.474(4) 0.122(3)
N1A N 0.7145(4) 0.3466(4) -0.1201(3)
N2A N 0.6171(3) 0.2320(3) 0.0071(2)
C17A C 0.6997(5) 0.2435(5) -0.0705(3)
C18A C 0.5397(4) 0.3334(4) 0.0330(3)
C19A C 0.5440(4) 0.4450(4) -0.0160(3)
C20A C 0.6389(5) 0.4453(5) -0.0907(3)
H17A H 0.746(4) 0.163(4) -0.102(2)
H18A H 0.471(4) 0.337(4) 0.093(3)
H19A H 0.658(4) 0.526(4) -0.122(3)
N1 N 0.2855(4) 0.6534(4) 1.1201(3)
N2 N 0.3829(3) 0.7680(3) 0.9929(2)
C17 C 0.3003(5) 0.7565(5) 1.0705(3)
C18 C 0.4603(4) 0.6666(4) 0.9670(3)
C19 C 0.4560(4) 0.5550(4) 1.0160(3)
C20 C 0.3611(5) 0.5547(5) 1.0907(3)
H17 H 0.254(4) 0.837(4) 1.102(2)
H18 H 0.529(4) 0.663(4) 0.907(3)
H19 H 0.342(4) 0.474(4) 1.122(3)
N1A N 0.7145(4) 0.3466(4) 0.8799(3)
N2A N 0.6171(3) 0.2320(3) 1.0071(2)
C17A C 0.6997(5) 0.2435(5) 0.9295(3)
C18A C 0.5397(4) 0.3334(4) 1.0330(3)
C19A C 0.5440(4) 0.4450(4) 0.9840(3)
C20A C 0.6389(5) 0.4453(5) 0.9093(3)
H17A H 0.746(4) 0.163(4) 0.898(2)
H18A H 0.471(4) 0.337(4) 1.093(3)
H19A H 0.658(4) 0.526(4) 0.878(3)
N3 N 0.6216(4) 0.2882(4) 0.6108(3)
N4 N 0.7630(4) 0.1224(4) 0.6403(3)
C21 C 0.7305(6) 0.2483(5) 0.6518(4)
C22 C 0.5321(5) 0.1906(4) 0.5505(4)
C23 C 0.5501(4) 0.0541(4) 0.5327(3)
C24 C 0.6706(6) 0.0267(5) 0.5810(4)
H20 H 0.786(4) 0.319(4) 0.692(3)
H21 H 0.447(5) 0.213(5) 0.514(3)
H22 H 0.685(3) -0.061(4) 0.577(2)
N3A N 0.3784(4) -0.2882(4) 0.3892(3)
N4A N 0.2370(4) -0.1224(4) 0.3597(3)
C21A C 0.2695(6) -0.2483(5) 0.3482(4)
C22A C 0.4679(5) -0.1906(4) 0.4495(4)
C23A C 0.4499(4) -0.0541(4) 0.4673(3)
C24A C 0.3294(6) -0.0267(5) 0.4190(4)
H20A H 0.214(4) -0.319(4) 0.308(3)
H21A H 0.553(5) -0.213(5) 0.486(3)
H22A H 0.315(3) 0.061(4) 0.423(2)
N3 N 0.6216(4) 1.2882(4) 0.6108(3)
N4 N 0.7630(4) 1.1224(4) 0.6403(3)
C21 C 0.7305(6) 1.2483(5) 0.6518(4)
C22 C 0.5321(5) 1.1906(4) 0.5505(4)
C23 C 0.5501(4) 1.0541(4) 0.5327(3)
C24 C 0.6706(6) 1.0267(5) 0.5810(4)
H20 H 0.786(4) 1.319(4) 0.692(3)
H21 H 0.447(5) 1.213(5) 0.514(3)
H22 H 0.685(3) 0.939(4) 0.577(2)
N3A N 0.3784(4) 0.7118(4) 0.3892(3)
N4A N 0.2370(4) 0.8776(4) 0.3597(3)
C21A C 0.2695(6) 0.7517(5) 0.3482(4)
C22A C 0.4679(5) 0.8094(4) 0.4495(4)
C23A C 0.4499(4) 0.9459(4) 0.4673(3)
C24A C 0.3294(6) 0.9733(5) 0.4190(4)
H20A H 0.214(4) 0.681(4) 0.308(3)
H21A H 0.553(5) 0.787(5) 0.486(3)
H22A H 0.315(3) 1.061(4) 0.423(2)

#END
