./MAQYAF_from_xyz.cif_generated_by_CrystalShift
_symmetry_cell_setting triclinic
_symmetry_space_group_name_H-M 'P 1'
loop_
_symmetry_equiv_pos_site_id
_symmetry_equiv_pos_as_xyz
1 x,y,z
_cell_length_a 9.047400
_cell_length_b 18.257900
_cell_length_c 9.080700
_cell_angle_alpha 90.000000
_cell_angle_beta 117.088000
_cell_angle_gamma 90.000000
_cell_volume 1335.470610
loop_
_atom_site_label
_atom_site_type_symbol
_atom_site_fract_x
_atom_site_fract_y
_atom_site_fract_z
O1 O -0.104900 0.407770 0.093900
O2 O 0.588800 0.312740 0.927200
O3 O 0.695500 0.442700 0.774100
O4 O -0.113900 0.249540 0.171600
C5 C 0.059500 0.396990 0.136000
C6 C 0.132700 0.424790 0.044000
C7 C 0.298400 0.412090 0.091600
C8 C 0.390400 0.372090 0.233200
C9 C 0.480200 0.232550 0.463300
C10 C 0.574000 0.190920 0.602100
C11 C 0.610800 0.216450 0.757100
C12 C 0.557400 0.284720 0.776200
C13 C 0.532400 0.458490 0.732900
C14 C 0.488600 0.526980 0.761100
C15 C 0.325800 0.543570 0.719100
C16 C 0.205000 0.490070 0.646400
C17 C 0.026000 0.344600 0.627600
C18 C -0.104400 0.296450 0.561600
C19 C -0.148000 0.266160 0.409200
C20 C -0.061400 0.283210 0.322900
C21 C 0.152200 0.358650 0.284100
C22 C 0.320300 0.345090 0.329900
C23 C 0.422600 0.300830 0.480400
C24 C 0.463400 0.328350 0.637500
C25 C 0.412500 0.403180 0.661400
C26 C 0.246500 0.420530 0.615500
C27 C 0.113800 0.363880 0.541800
C28 C 0.069500 0.333530 0.384300
H29 H 0.066000 0.457600 -0.054000
H30 H 0.351000 0.433700 0.027000
H31 H 0.514000 0.358600 0.260000
H32 H 0.088000 0.498900 0.623000
H33 H 0.285000 0.593100 0.746000
H34 H 0.567000 0.562900 0.810000
H35 H 0.672000 0.185200 0.860000
H36 H 0.612000 0.140700 0.585000
H37 H 0.460000 0.212500 0.353000
H38 H 0.058000 0.363300 0.733000
H39 H -0.157000 0.281200 0.623000
H40 H -0.236000 0.228000 0.366000
H41 H -0.156000 0.421500 -0.008000
H42 H 0.656000 0.289000 0.996000
H43 H 0.729000 0.474100 0.713000
H44 H -0.042000 0.237400 0.136000
O45 O 1.104900 0.907770 0.906100
O46 O 0.411200 0.812740 0.072800
O47 O 0.304500 0.942700 0.225900
O48 O 1.113900 0.749540 0.828400
C49 C 0.940500 0.896990 0.864000
C50 C 0.867300 0.924790 0.956000
C51 C 0.701600 0.912090 0.908400
C52 C 0.609600 0.872090 0.766800
C53 C 0.519800 0.732550 0.536700
C54 C 0.426000 0.690920 0.397900
C55 C 0.389200 0.716450 0.242900
C56 C 0.442600 0.784720 0.223800
C57 C 0.467600 0.958490 0.267100
C58 C 0.511400 1.026980 0.238900
C59 C 0.674200 1.043570 0.280900
C60 C 0.795000 0.990070 0.353600
C61 C 0.974000 0.844600 0.372400
C62 C 1.104400 0.796450 0.438400
C63 C 1.148000 0.766160 0.590800
C64 C 1.061400 0.783210 0.677100
C65 C 0.847800 0.858650 0.715900
C66 C 0.679700 0.845090 0.670100
C67 C 0.577400 0.800830 0.519600
C68 C 0.536600 0.828350 0.362500
C69 C 0.587500 0.903180 0.338600
C70 C 0.753500 0.920530 0.384500
C71 C 0.886200 0.863880 0.458200
C72 C 0.930500 0.833530 0.615700
H73 H 0.934000 0.957600 1.054000
H74 H 0.649000 0.933700 0.973000
H75 H 0.486000 0.858600 0.740000
H76 H 0.912000 0.998900 0.377000
H77 H 0.715000 1.093100 0.254000
H78 H 0.433000 1.062900 0.190000
H79 H 0.328000 0.685200 0.140000
H80 H 0.388000 0.640700 0.415000
H81 H 0.540000 0.712500 0.647000
H82 H 0.942000 0.863300 0.267000
H83 H 1.157000 0.781200 0.377000
H84 H 1.236000 0.728000 0.634000
H85 H 1.156000 0.921500 1.008000
H86 H 0.344000 0.789000 0.004000
H87 H 0.271000 0.974100 0.287000
H88 H 1.042000 0.737400 0.864000
N89 N 0.073200 0.192300 1.035000
N90 N 0.237600 0.024910 0.426200
C91 C 0.220700 0.191700 0.873600
C92 C 0.175600 0.222900 0.985300
C93 C 0.012600 0.126670 0.971000
C94 C 0.050000 0.090860 0.858700
C95 C 0.155500 0.124320 0.806600
C96 C 0.191500 0.089510 0.678500
C97 C 0.227500 0.015850 0.683000
C98 C 0.250600 -0.013470 0.556200
C99 C 0.206100 0.096000 0.424000
C100 C 0.182800 0.129750 0.547200
H101 H 0.296000 0.215900 0.840000
H102 H 0.233000 0.268900 1.040000
H103 H -0.061000 0.102400 1.010000
H104 H -0.008000 0.044100 0.811000
H105 H 0.226000 -0.017400 0.774000
H106 H 0.273000 -0.064100 0.557000
H107 H 0.194000 0.124100 0.322000
H108 H 0.160000 0.180700 0.542000
N109 N 0.926800 0.692300 -0.035000
N110 N 0.762400 0.524910 0.573800
C111 C 0.779300 0.691700 0.126400
C112 C 0.824400 0.722900 0.014700
C113 C 0.987400 0.626670 0.029000
C114 C 0.950000 0.590860 0.141300
C115 C 0.844500 0.624320 0.193400
C116 C 0.808500 0.589510 0.321500
C117 C 0.772500 0.515850 0.317000
C118 C 0.749400 0.486530 0.443800
C119 C 0.793900 0.596000 0.576000
C120 C 0.817200 0.629750 0.452800
H121 H 0.704000 0.715900 0.160000
H122 H 0.767000 0.768900 -0.040000
H123 H 1.061000 0.602400 -0.010000
H124 H 1.008000 0.544100 0.189000
H125 H 0.774000 0.482600 0.226000
H126 H 0.727000 0.435900 0.443000
H127 H 0.806000 0.624100 0.678000
H128 H 0.840000 0.680700 0.458000

#END
