./MAQYEL_from_xyz.cif_generated_by_CrystalShift
_symmetry_cell_setting triclinic
_symmetry_space_group_name_H-M 'P 1'
loop_
_symmetry_equiv_pos_site_id
_symmetry_equiv_pos_as_xyz
1 x,y,z
_cell_length_a 11.158700
_cell_length_b 13.047900
_cell_length_c 13.143100
_cell_angle_alpha 111.784000
_cell_angle_beta 110.740000
_cell_angle_gamma 97.685000
_cell_volume 1582.447894
loop_
_atom_site_label
_atom_site_type_symbol
_atom_site_fract_x
_atom_site_fract_y
_atom_site_fract_z
C1 C 0.813900 0.545600 0.001300
H2 H 0.884700 0.588500 -0.004700
C3 C 0.695000 0.476200 -0.104300
H4 H 0.685500 0.473100 -0.180200
C5 C 0.592100 0.412800 -0.098300
H6 H 0.510200 0.365800 -0.169300
C7 C 0.610000 0.418500 0.014800
C8 C 0.731100 0.490100 0.117100
C9 C 0.512400 0.353000 0.033000
C10 C 0.537900 0.359600 0.146700
C11 C 0.660500 0.432000 0.253200
C12 C 0.756300 0.498000 0.235700
C13 C 0.695000 0.442400 0.371400
H14 H 0.634200 0.399400 0.387200
C15 C 0.819000 0.516500 0.463700
H16 H 0.844500 0.524200 0.543900
C17 C 0.907000 0.580000 0.440200
H18 H 0.990600 0.632300 0.505800
C19 C 0.339900 0.233300 0.004100
C20 C 0.211900 0.140300 -0.053300
C21 C 0.103000 0.158900 -0.028600
H22 H 0.110400 0.232900 0.028800
C23 C -0.016200 0.069000 -0.087800
H24 H -0.092100 0.082400 -0.074300
C25 C -0.024500 -0.041600 -0.167700
H26 H -0.104800 -0.104100 -0.205800
C27 C 0.084300 -0.059700 -0.190900
C28 C 0.202500 0.030800 -0.135700
C29 C 0.300500 0.011500 -0.269700
H30 H 0.210900 -0.038000 -0.334900
H31 H 0.369000 -0.018900 -0.289900
H32 H 0.313900 0.090500 -0.261200
C33 C 0.166400 -0.224100 -0.225500
H34 H 0.249400 -0.199000 -0.231600
H35 H 0.127900 -0.308600 -0.272600
H36 H 0.186700 -0.201500 -0.139900
C37 C 0.403000 0.250200 0.214900
C38 C 0.425500 0.149800 0.218000
H39 H 0.452500 0.101100 0.161700
C40 C 0.408100 0.121000 0.304200
H41 H 0.422600 0.051300 0.305600
C42 C 0.370000 0.191100 0.389200
C43 C 0.345200 0.290100 0.381100
H44 H 0.316800 0.338600 0.436300
C45 C 0.360600 0.320000 0.294900
H46 H 0.342300 0.387800 0.290700
C47 C 0.358600 0.159400 0.487700
C48 C 0.273600 0.032400 0.430600
H49 H 0.274100 0.012000 0.495400
H50 H 0.311500 -0.017900 0.383000
H51 H 0.180900 0.022300 0.377200
C52 C 0.292100 0.234900 0.557400
H53 H 0.285300 0.210700 0.617900
H54 H 0.201900 0.225700 0.499900
H55 H 0.346800 0.316300 0.598700
C56 C 0.501100 0.177500 0.578100
H57 H 0.555100 0.258600 0.614400
H58 H 0.542700 0.126900 0.535200
H59 H 0.496700 0.158700 0.642500
C60 C 1.122900 0.710300 0.212800
C61 C 0.969600 0.793600 0.323200
C62 C 1.170700 0.717500 0.431300
Br63 Br 1.068810 0.452510 0.217520
N64 N 0.831900 0.553800 0.109800
N65 N 0.877800 0.570000 0.328300
N66 N 0.389400 0.275000 -0.055100
N67 N 0.424300 0.282600 0.127500
O68 O 1.185300 0.746900 0.174100
O69 O 0.948000 0.878800 0.353200
O70 O 1.263500 0.754300 0.524700
O71 O 0.311600 0.012600 -0.156800
O72 O 0.071100 -0.170100 -0.273400
Re73 Re 1.015610 0.651400 0.277960
C74 C 0.186100 0.454400 0.998700
H75 H 0.115300 0.411500 1.004700
C76 C 0.305000 0.523800 1.104300
H77 H 0.314500 0.526900 1.180200
C78 C 0.407900 0.587200 1.098300
H79 H 0.489800 0.634200 1.169300
C80 C 0.390000 0.581500 0.985200
C81 C 0.268900 0.509900 0.882900
C82 C 0.487600 0.647000 0.967000
C83 C 0.462100 0.640400 0.853300
C84 C 0.339500 0.568000 0.746800
C85 C 0.243700 0.502000 0.764300
C86 C 0.305000 0.557600 0.628600
H87 H 0.365800 0.600600 0.612800
C88 C 0.181000 0.483500 0.536300
H89 H 0.155500 0.475800 0.456100
C90 C 0.093000 0.420000 0.559800
H91 H 0.009400 0.367700 0.494200
C92 C 0.660100 0.766700 0.995900
C93 C 0.788100 0.859700 1.053300
C94 C 0.897000 0.841100 1.028600
H95 H 0.889600 0.767100 0.971200
C96 C 1.016200 0.931000 1.087800
H97 H 1.092100 0.917600 1.074300
C98 C 1.024500 1.041600 1.167700
H99 H 1.104800 1.104100 1.205800
C100 C 0.915700 1.059700 1.190900
C101 C 0.797500 0.969200 1.135700
C102 C 0.699500 0.988500 1.269700
H103 H 0.789100 1.038000 1.334900
H104 H 0.631000 1.018900 1.289900
H105 H 0.686100 0.909500 1.261200
C106 C 0.833600 1.224100 1.225500
H107 H 0.750600 1.199000 1.231600
H108 H 0.872100 1.308600 1.272600
H109 H 0.813300 1.201500 1.139900
C110 C 0.597000 0.749800 0.785100
C111 C 0.574500 0.850200 0.782000
H112 H 0.547500 0.898900 0.838300
C113 C 0.591900 0.879000 0.695800
H114 H 0.577400 0.948700 0.694400
C115 C 0.630000 0.808900 0.610800
C116 C 0.654800 0.709900 0.618900
H117 H 0.683200 0.661400 0.563700
C118 C 0.639400 0.680000 0.705100
H119 H 0.657700 0.612200 0.709300
C120 C 0.641400 0.840600 0.512300
C121 C 0.726400 0.967600 0.569400
H122 H 0.725900 0.988000 0.504600
H123 H 0.688500 1.017900 0.617000
H124 H 0.819100 0.977700 0.622800
C125 C 0.707900 0.765100 0.442600
H126 H 0.714700 0.789300 0.382100
H127 H 0.798100 0.774300 0.500100
H128 H 0.653200 0.683700 0.401300
C129 C 0.498900 0.822500 0.421900
H130 H 0.444900 0.741400 0.385600
H131 H 0.457300 0.873100 0.464800
H132 H 0.503300 0.841300 0.357500
C133 C -0.122900 0.289700 0.787200
C134 C 0.030400 0.206400 0.676800
C135 C -0.170700 0.282500 0.568700
Br136 Br -0.068810 0.547490 0.782480
N137 N 0.168100 0.446200 0.890200
N138 N 0.122200 0.430000 0.671700
N139 N 0.610600 0.725000 1.055100
N140 N 0.575700 0.717400 0.872500
O141 O -0.185300 0.253100 0.825900
O142 O 0.052000 0.121200 0.646800
O143 O -0.263500 0.245700 0.475300
O144 O 0.688400 0.987400 1.156800
O145 O 0.928900 1.170100 1.273400
Re146 Re -0.015610 0.348600 0.722040

#END
