
#######################################################################
#
#                 Cambridge Crystallographic Data Centre
#                                CCDC 
#
#######################################################################
#
# If this CIF has been generated from an entry in the Cambridge 
# Structural Database, then it will include bibliographic, chemical, 
# crystal, experimental, refinement or atomic coordinate data resulting 
# from the CCDC's data processing and validation procedures.
#
#######################################################################

data_MAQYAF
_symmetry_cell_setting           monoclinic
_symmetry_space_group_name_H-M   'P 21'
_symmetry_Int_Tables_number      4
_space_group_name_Hall           'P 2yb'
loop_
_symmetry_equiv_pos_site_id
_symmetry_equiv_pos_as_xyz
1 x,y,z
2 -x,1/2+y,-z
_cell_length_a                   9.0474(8)
_cell_length_b                   18.2579(16)
_cell_length_c                   9.0807(9)
_cell_angle_alpha                90
_cell_angle_beta                 117.088(2)
_cell_angle_gamma                90
_cell_volume                     1335.47
loop_
_atom_site_label
_atom_site_type_symbol
_atom_site_fract_x
_atom_site_fract_y
_atom_site_fract_z
O1 O -0.1049(2) 0.40777(11) 0.0939(2)
O2 O 0.5888(3) 0.31274(12) 0.9272(3)
O3 O 0.6955(2) 0.44270(11) 0.7741(2)
O4 O -0.1139(2) 0.24954(11) 0.1716(2)
C1 C 0.0595(3) 0.39699(14) 0.1360(3)
C2 C 0.1327(4) 0.42479(15) 0.0440(3)
C3 C 0.2984(4) 0.41209(17) 0.0916(3)
C4 C 0.3904(3) 0.37209(17) 0.2332(3)
C5 C 0.4802(3) 0.23255(17) 0.4633(4)
C6 C 0.5740(4) 0.19092(18) 0.6021(4)
C7 C 0.6108(4) 0.21645(17) 0.7571(4)
C8 C 0.5574(3) 0.28472(16) 0.7762(3)
C9 C 0.5324(3) 0.45849(16) 0.7329(3)
C10 C 0.4886(4) 0.52698(18) 0.7611(4)
C11 C 0.3258(4) 0.54357(18) 0.7191(4)
C12 C 0.2050(4) 0.49007(17) 0.6464(4)
C13 C 0.0260(3) 0.34460(17) 0.6276(4)
C14 C -0.1044(4) 0.29645(17) 0.5616(4)
C15 C -0.1480(3) 0.26616(16) 0.4092(3)
C16 C -0.0614(3) 0.28321(14) 0.3229(3)
C27 C 0.1522(3) 0.35865(14) 0.2841(3)
C28 C 0.3203(3) 0.34509(15) 0.3299(3)
C29 C 0.4226(3) 0.30083(15) 0.4804(3)
C30 C 0.4634(3) 0.32835(15) 0.6375(3)
C31 C 0.4125(3) 0.40318(14) 0.6614(3)
C32 C 0.2465(3) 0.42053(14) 0.6155(3)
C33 C 0.1138(3) 0.36388(14) 0.5418(3)
C34 C 0.0695(3) 0.33353(14) 0.3843(3)
H1 H 0.066(3) 0.4576(13) -0.054(3)
H2 H 0.351(4) 0.4337(18) 0.027(4)
H3 H 0.514(4) 0.3586(16) 0.260(4)
H4 H 0.088(3) 0.4989(13) 0.623(3)
H5 H 0.285(4) 0.5931(18) 0.746(4)
H6 H 0.567(4) 0.5629(18) 0.810(4)
H7 H 0.672(3) 0.1852(14) 0.860(3)
H8 H 0.612(3) 0.1407(17) 0.585(3)
H9 H 0.460(3) 0.2125(13) 0.353(3)
H10 H 0.058(3) 0.3633(14) 0.733(3)
H11 H -0.157(3) 0.2812(14) 0.623(3)
H12 H -0.236(3) 0.2280(14) 0.366(3)
H13 H -0.156(4) 0.4215(17) -0.008(4)
H14 H 0.656(6) 0.289(3) 0.996(6)
H15 H 0.729(4) 0.4741(17) 0.713(4)
H16 H -0.042(4) 0.2374(19) 0.136(4)
O1 O 1.1049(2) 0.90777(11) 0.9061(2)
O2 O 0.4112(3) 0.81274(12) 0.0728(3)
O3 O 0.3045(2) 0.94270(11) 0.2259(2)
O4 O 1.1139(2) 0.74954(11) 0.8284(2)
C1 C 0.9405(3) 0.89699(14) 0.8640(3)
C2 C 0.8673(4) 0.92479(15) 0.9560(3)
C3 C 0.7016(4) 0.91209(17) 0.9084(3)
C4 C 0.6096(3) 0.87209(17) 0.7668(3)
C5 C 0.5198(3) 0.73255(17) 0.5367(4)
C6 C 0.4260(4) 0.69092(18) 0.3979(4)
C7 C 0.3892(4) 0.71645(17) 0.2429(4)
C8 C 0.4426(3) 0.78472(16) 0.2238(3)
C9 C 0.4676(3) 0.95849(16) 0.2671(3)
C10 C 0.5114(4) 1.02698(18) 0.2389(4)
C11 C 0.6742(4) 1.04357(18) 0.2809(4)
C12 C 0.7950(4) 0.99007(17) 0.3536(4)
C13 C 0.9740(3) 0.84460(17) 0.3724(4)
C14 C 1.1044(4) 0.79645(17) 0.4384(4)
C15 C 1.1480(3) 0.76616(16) 0.5908(3)
C16 C 1.0614(3) 0.78321(14) 0.6771(3)
C27 C 0.8478(3) 0.85865(14) 0.7159(3)
C28 C 0.6797(3) 0.84509(15) 0.6701(3)
C29 C 0.5774(3) 0.80083(15) 0.5196(3)
C30 C 0.5366(3) 0.82835(15) 0.3625(3)
C31 C 0.5875(3) 0.90318(14) 0.3386(3)
C32 C 0.7535(3) 0.92053(14) 0.3845(3)
C33 C 0.8862(3) 0.86388(14) 0.4582(3)
C34 C 0.9305(3) 0.83353(14) 0.6157(3)
H1 H 0.934(3) 0.9576(13) 1.054(3)
H2 H 0.649(4) 0.9337(18) 0.973(4)
H3 H 0.486(4) 0.8586(16) 0.740(4)
H4 H 0.912(3) 0.9989(13) 0.377(3)
H5 H 0.715(4) 1.0931(18) 0.254(4)
H6 H 0.433(4) 1.0629(18) 0.190(4)
H7 H 0.328(3) 0.6852(14) 0.140(3)
H8 H 0.388(3) 0.6407(17) 0.415(3)
H9 H 0.540(3) 0.7125(13) 0.647(3)
H10 H 0.942(3) 0.8633(14) 0.267(3)
H11 H 1.157(3) 0.7812(14) 0.377(3)
H12 H 1.236(3) 0.7280(14) 0.634(3)
H13 H 1.156(4) 0.9215(17) 1.008(4)
H14 H 0.344(6) 0.789(3) 0.004(6)
H15 H 0.271(4) 0.9741(17) 0.287(4)
H16 H 1.042(4) 0.7374(19) 0.864(4)
N1 N 0.0732(3) 0.19230(15) 1.0350(3)
N2 N 0.2376(3) 0.02491(15) 0.4262(3)
C17 C 0.2207(4) 0.19170(18) 0.8736(4)
C18 C 0.1756(5) 0.2229(2) 0.9853(4)
C19 C 0.0126(4) 0.12667(19) 0.9710(4)
C20 C 0.0500(4) 0.09086(18) 0.8587(4)
C21 C 0.1555(3) 0.12432(15) 0.8066(3)
C22 C 0.1915(3) 0.08951(15) 0.6785(3)
C23 C 0.2275(4) 0.01585(17) 0.6830(4)
C24 C 0.2506(4) -0.01347(19) 0.5562(4)
C25 C 0.2061(4) 0.0960(2) 0.4240(4)
C26 C 0.1828(4) 0.12975(19) 0.5472(4)
H17 H 0.296(4) 0.2159(16) 0.840(4)
H18 H 0.233(4) 0.2689(19) 1.040(4)
H19 H -0.061(4) 0.1024(16) 1.010(4)
H20 H -0.008(4) 0.0441(17) 0.811(4)
H21 H 0.226(3) -0.0174(16) 0.774(4)
H22 H 0.273(3) -0.0641(18) 0.557(4)
H23 H 0.194(3) 0.1241(14) 0.322(3)
H24 H 0.160(4) 0.1807(19) 0.542(4)
N1 N 0.9268(3) 0.69230(15) -0.0350(3)
N2 N 0.7624(3) 0.52491(15) 0.5738(3)
C17 C 0.7793(4) 0.69170(18) 0.1264(4)
C18 C 0.8244(5) 0.7229(2) 0.0147(4)
C19 C 0.9874(4) 0.62667(19) 0.0290(4)
C20 C 0.9500(4) 0.59086(18) 0.1413(4)
C21 C 0.8445(3) 0.62432(15) 0.1934(3)
C22 C 0.8085(3) 0.58951(15) 0.3215(3)
C23 C 0.7725(4) 0.51585(17) 0.3170(4)
C24 C 0.7494(4) 0.48653(19) 0.4438(4)
C25 C 0.7939(4) 0.5960(2) 0.5760(4)
C26 C 0.8172(4) 0.62975(19) 0.4528(4)
H17 H 0.704(4) 0.7159(16) 0.160(4)
H18 H 0.767(4) 0.7689(19) -0.040(4)
H19 H 1.061(4) 0.6024(16) -0.010(4)
H20 H 1.008(4) 0.5441(17) 0.189(4)
H21 H 0.774(3) 0.4826(16) 0.226(4)
H22 H 0.727(3) 0.4359(18) 0.443(4)
H23 H 0.806(3) 0.6241(14) 0.678(3)
H24 H 0.840(4) 0.6807(19) 0.458(4)

#END
