
#######################################################################
#
#                 Cambridge Crystallographic Data Centre
#                                CCDC 
#
#######################################################################
#
# If this CIF has been generated from an entry in the Cambridge 
# Structural Database, then it will include bibliographic, chemical, 
# crystal, experimental, refinement or atomic coordinate data resulting 
# from the CCDC's data processing and validation procedures.
#
#######################################################################

data_MAQZEK01
_symmetry_cell_setting           monoclinic
_symmetry_space_group_name_H-M   'I 2/a'
_symmetry_Int_Tables_number      15
_space_group_name_Hall           '-I 2ya'
loop_
_symmetry_equiv_pos_site_id
_symmetry_equiv_pos_as_xyz
1 x,y,z
2 1/2+x,1/2+y,1/2+z
3 -x,1/2+y,1/2-z
4 1/2-x,y,-z
5 -x,-y,-z
6 1/2-x,1/2-y,1/2-z
7 x,1/2-y,1/2+z
8 1/2+x,-y,z
_cell_length_a                   13.652(12)
_cell_length_b                   8.691(8)
_cell_length_c                   18.893(17)
_cell_angle_alpha                90
_cell_angle_beta                 103.219(15)
_cell_angle_gamma                90
_cell_volume                     2182.25
loop_
_atom_site_label
_atom_site_type_symbol
_atom_site_fract_x
_atom_site_fract_y
_atom_site_fract_z
O1 O 0.16734 0.25625 0.67386
O2 O 0.39762 0.16315 0.70270
C1 C 0.1570 0.1358 0.6253
C2 C 0.0850 0.0209 0.6205
C3 C 0.0786 -0.0934 0.5688
C4 C 0.1432 -0.0942 0.5216
C5 C 0.3826 0.2689 0.6469
C6 C 0.4535 0.3868 0.6530
C7 C 0.4456 0.4953 0.5981
C8 C 0.3666 0.4892 0.5376
C9 C 0.2243 0.1366 0.5791
C10 C 0.2160 0.0204 0.5260
C11 C 0.3018 0.2604 0.5863
C12 C 0.2940 0.3737 0.5320
H1 H 0.132 0.247 0.7074
H2 H 0.039 0.027 0.6534
H3 H 0.027 -0.178 0.5634
H4 H 0.138 -0.171 0.4834
H5 H 0.357 0.076 0.6983
H6 H 0.510 0.386 0.6974
H7 H 0.498 0.572 0.6026
H8 H 0.360 0.568 0.4962
O1C O 0.33266 0.25625 0.32614
O2C O 0.10238 0.16315 0.29730
C1C C 0.3430 0.1358 0.3747
C2C C 0.4150 0.0209 0.3795
C3C C 0.4214 -0.0934 0.4312
C4C C 0.3568 -0.0942 0.4784
C5C C 0.1174 0.2689 0.3531
C6C C 0.0465 0.3868 0.3470
C7C C 0.0544 0.4953 0.4019
C8C C 0.1334 0.4892 0.4624
C9C C 0.2757 0.1366 0.4209
C10C C 0.2840 0.0204 0.4740
C11C C 0.1982 0.2604 0.4137
C12C C 0.2060 0.3737 0.4680
H1C H 0.368 0.247 0.2926
H2C H 0.461 0.027 0.3466
H3C H 0.473 -0.178 0.4366
H4C H 0.362 -0.171 0.5166
H5C H 0.143 0.076 0.3017
H6C H -0.010 0.386 0.3026
H7C H 0.002 0.572 0.3974
H8C H 0.140 0.568 0.5038
O1 O 0.66734 0.75625 0.17386
O2 O 0.89762 0.66315 0.20270
C1 C 0.6570 0.6358 0.1253
C2 C 0.5850 0.5209 0.1205
C3 C 0.5786 0.4066 0.0688
C4 C 0.6432 0.4058 0.0216
C5 C 0.8826 0.7689 0.1469
C6 C 0.9535 0.8868 0.1530
C7 C 0.9456 0.9953 0.0981
C8 C 0.8666 0.9892 0.0376
C9 C 0.7243 0.6366 0.0791
C10 C 0.7160 0.5204 0.0260
C11 C 0.8018 0.7604 0.0863
C12 C 0.7940 0.8737 0.0320
H1 H 0.632 0.747 0.2074
H2 H 0.539 0.527 0.1534
H3 H 0.527 0.322 0.0634
H4 H 0.638 0.329 -0.0166
H5 H 0.857 0.576 0.1983
H6 H 1.010 0.886 0.1974
H7 H 0.998 1.072 0.1026
H8 H 0.860 1.068 -0.0038
O1C O 0.83266 0.75625 -0.17386
O2C O 0.60238 0.66315 -0.20270
C1C C 0.8430 0.6358 -0.1253
C2C C 0.9150 0.5209 -0.1205
C3C C 0.9214 0.4066 -0.0688
C4C C 0.8568 0.4058 -0.0216
C5C C 0.6174 0.7689 -0.1469
C6C C 0.5465 0.8868 -0.1530
C7C C 0.5544 0.9953 -0.0981
C8C C 0.6334 0.9892 -0.0376
C9C C 0.7757 0.6366 -0.0791
C10C C 0.7840 0.5204 -0.0260
C11C C 0.6982 0.7604 -0.0863
C12C C 0.7060 0.8737 -0.0320
H1C H 0.868 0.747 -0.2074
H2C H 0.961 0.527 -0.1534
H3C H 0.973 0.322 -0.0634
H4C H 0.862 0.329 0.0166
H5C H 0.643 0.576 -0.1983
H6C H 0.490 0.886 -0.1974
H7C H 0.502 1.072 -0.1026
H8C H 0.640 1.068 0.0038
O1 O 0.66734 0.75625 1.17386
O2 O 0.89762 0.66315 1.20270
C1 C 0.6570 0.6358 1.1253
C2 C 0.5850 0.5209 1.1205
C3 C 0.5786 0.4066 1.0688
C4 C 0.6432 0.4058 1.0216
C5 C 0.8826 0.7689 1.1469
C6 C 0.9535 0.8868 1.1530
C7 C 0.9456 0.9953 1.0981
C8 C 0.8666 0.9892 1.0376
C9 C 0.7243 0.6366 1.0791
C10 C 0.7160 0.5204 1.0260
C11 C 0.8018 0.7604 1.0863
C12 C 0.7940 0.8737 1.0320
H1 H 0.632 0.747 1.2074
H2 H 0.539 0.527 1.1534
H3 H 0.527 0.322 1.0634
H4 H 0.638 0.329 0.9834
H5 H 0.857 0.576 1.1983
H6 H 1.010 0.886 1.1974
H7 H 0.998 1.072 1.1026
H8 H 0.860 1.068 0.9962
O1C O 0.83266 0.75625 0.82614
O2C O 0.60238 0.66315 0.79730
C1C C 0.8430 0.6358 0.8747
C2C C 0.9150 0.5209 0.8795
C3C C 0.9214 0.4066 0.9312
C4C C 0.8568 0.4058 0.9784
C5C C 0.6174 0.7689 0.8531
C6C C 0.5465 0.8868 0.8470
C7C C 0.5544 0.9953 0.9019
C8C C 0.6334 0.9892 0.9624
C9C C 0.7757 0.6366 0.9209
C10C C 0.7840 0.5204 0.9740
C11C C 0.6982 0.7604 0.9137
C12C C 0.7060 0.8737 0.9680
H1C H 0.868 0.747 0.7926
H2C H 0.961 0.527 0.8466
H3C H 0.973 0.322 0.9366
H4C H 0.862 0.329 1.0166
H5C H 0.643 0.576 0.8017
H6C H 0.490 0.886 0.8026
H7C H 0.502 1.072 0.8974
H8C H 0.640 1.068 1.0038
O1 O 0.83266 0.74375 0.32614
O2 O 0.60238 0.83685 0.29730
C1 C 0.8430 0.8642 0.3747
C2 C 0.9150 0.9791 0.3795
C3 C 0.9214 1.0934 0.4312
C4 C 0.8568 1.0942 0.4784
C5 C 0.6174 0.7311 0.3531
C6 C 0.5465 0.6132 0.3470
C7 C 0.5544 0.5047 0.4019
C8 C 0.6334 0.5108 0.4624
C9 C 0.7757 0.8634 0.4209
C10 C 0.7840 0.9796 0.4740
C11 C 0.6982 0.7396 0.4137
C12 C 0.7060 0.6263 0.4680
H1 H 0.868 0.753 0.2926
H2 H 0.961 0.973 0.3466
H3 H 0.973 1.178 0.4366
H4 H 0.862 1.171 0.5166
H5 H 0.643 0.924 0.3017
H6 H 0.490 0.614 0.3026
H7 H 0.502 0.428 0.3974
H8 H 0.640 0.432 0.5038
O1C O 0.66734 0.74375 0.67386
O2C O 0.89762 0.83685 0.70270
C1C C 0.6570 0.8642 0.6253
C2C C 0.5850 0.9791 0.6205
C3C C 0.5786 1.0934 0.5688
C4C C 0.6432 1.0942 0.5216
C5C C 0.8826 0.7311 0.6469
C6C C 0.9535 0.6132 0.6530
C7C C 0.9456 0.5047 0.5981
C8C C 0.8666 0.5108 0.5376
C9C C 0.7243 0.8634 0.5791
C10C C 0.7160 0.9796 0.5260
C11C C 0.8018 0.7396 0.5863
C12C C 0.7940 0.6263 0.5320
H1C H 0.632 0.753 0.7074
H2C H 0.539 0.973 0.6534
H3C H 0.527 1.178 0.5634
H4C H 0.638 1.171 0.4834
H5C H 0.857 0.924 0.6983
H6C H 1.010 0.614 0.6974
H7C H 0.998 0.428 0.6026
H8C H 0.860 0.432 0.4962
O1 O 0.33266 0.24375 -0.17386
O2 O 0.10238 0.33685 -0.20270
C1 C 0.3430 0.3642 -0.1253
C2 C 0.4150 0.4791 -0.1205
C3 C 0.4214 0.5934 -0.0688
C4 C 0.3568 0.5942 -0.0216
C5 C 0.1174 0.2311 -0.1469
C6 C 0.0465 0.1132 -0.1530
C7 C 0.0544 0.0047 -0.0981
C8 C 0.1334 0.0108 -0.0376
C9 C 0.2757 0.3634 -0.0791
C10 C 0.2840 0.4796 -0.0260
C11 C 0.1982 0.2396 -0.0863
C12 C 0.2060 0.1263 -0.0320
H1 H 0.368 0.253 -0.2074
H2 H 0.461 0.473 -0.1534
H3 H 0.473 0.678 -0.0634
H4 H 0.362 0.671 0.0166
H5 H 0.143 0.424 -0.1983
H6 H -0.010 0.114 -0.1974
H7 H 0.002 -0.072 -0.1026
H8 H 0.140 -0.068 0.0038
O1C O 0.16734 0.24375 0.17386
O2C O 0.39762 0.33685 0.20270
C1C C 0.1570 0.3642 0.1253
C2C C 0.0850 0.4791 0.1205
C3C C 0.0786 0.5934 0.0688
C4C C 0.1432 0.5942 0.0216
C5C C 0.3826 0.2311 0.1469
C6C C 0.4535 0.1132 0.1530
C7C C 0.4456 0.0047 0.0981
C8C C 0.3666 0.0108 0.0376
C9C C 0.2243 0.3634 0.0791
C10C C 0.2160 0.4796 0.0260
C11C C 0.3018 0.2396 0.0863
C12C C 0.2940 0.1263 0.0320
H1C H 0.132 0.253 0.2074
H2C H 0.039 0.473 0.1534
H3C H 0.027 0.678 0.0634
H4C H 0.138 0.671 -0.0166
H5C H 0.357 0.424 0.1983
H6C H 0.510 0.114 0.1974
H7C H 0.498 -0.072 0.1026
H8C H 0.360 -0.068 -0.0038
O1 O 0.33266 0.24375 0.82614
O2 O 0.10238 0.33685 0.79730
C1 C 0.3430 0.3642 0.8747
C2 C 0.4150 0.4791 0.8795
C3 C 0.4214 0.5934 0.9312
C4 C 0.3568 0.5942 0.9784
C5 C 0.1174 0.2311 0.8531
C6 C 0.0465 0.1132 0.8470
C7 C 0.0544 0.0047 0.9019
C8 C 0.1334 0.0108 0.9624
C9 C 0.2757 0.3634 0.9209
C10 C 0.2840 0.4796 0.9740
C11 C 0.1982 0.2396 0.9137
C12 C 0.2060 0.1263 0.9680
H1 H 0.368 0.253 0.7926
H2 H 0.461 0.473 0.8466
H3 H 0.473 0.678 0.9366
H4 H 0.362 0.671 1.0166
H5 H 0.143 0.424 0.8017
H6 H -0.010 0.114 0.8026
H7 H 0.002 -0.072 0.8974
H8 H 0.140 -0.068 1.0038
O1C O 0.16734 0.24375 1.17386
O2C O 0.39762 0.33685 1.20270
C1C C 0.1570 0.3642 1.1253
C2C C 0.0850 0.4791 1.1205
C3C C 0.0786 0.5934 1.0688
C4C C 0.1432 0.5942 1.0216
C5C C 0.3826 0.2311 1.1469
C6C C 0.4535 0.1132 1.1530
C7C C 0.4456 0.0047 1.0981
C8C C 0.3666 0.0108 1.0376
C9C C 0.2243 0.3634 1.0791
C10C C 0.2160 0.4796 1.0260
C11C C 0.3018 0.2396 1.0863
C12C C 0.2940 0.1263 1.0320
H1C H 0.132 0.253 1.2074
H2C H 0.039 0.473 1.1534
H3C H 0.027 0.678 1.0634
H4C H 0.138 0.671 0.9834
H5C H 0.357 0.424 1.1983
H6C H 0.510 0.114 1.1974
H7C H 0.498 -0.072 1.1026
H8C H 0.360 -0.068 0.9962
N1 N 0.2962 0.6170 0.2302
C13 C 0.2928 0.7500 0.1942
C14 C 0.2526 0.6192 0.2868
H9 H 0.326 0.750 0.1554
H10 H 0.253 0.524 0.3128
N1E N 0.2038 0.8830 0.2698
C13E C 0.2072 0.7500 0.3058
C14E C 0.2474 0.8808 0.2132
H9E H 0.174 0.750 0.3446
H10E H 0.247 0.976 0.1872
N1 N 0.7962 0.1170 0.7302
C13 C 0.7928 0.2500 0.6942
C14 C 0.7526 0.1192 0.7868
H9 H 0.826 0.250 0.6554
H10 H 0.753 0.024 0.8128
N1E N 0.7038 0.3830 0.7698
C13E C 0.7072 0.2500 0.8058
C14E C 0.7474 0.3808 0.7132
H9E H 0.674 0.250 0.8446
H10E H 0.747 0.476 0.6872
N1 N 0.7038 0.1170 0.2698
C13 C 0.7072 0.2500 0.3058
C14 C 0.7474 0.1192 0.2132
H9 H 0.674 0.250 0.3446
H10 H 0.747 0.024 0.1872
N1E N 0.7962 0.3830 0.2302
C13E C 0.7928 0.2500 0.1942
C14E C 0.7526 0.3808 0.2868
H9E H 0.826 0.250 0.1554
H10E H 0.753 0.476 0.3128
N1 N 0.2038 0.6170 0.7698
C13 C 0.2072 0.7500 0.8058
C14 C 0.2474 0.6192 0.7132
H9 H 0.174 0.750 0.8446
H10 H 0.247 0.524 0.6872
N1E N 0.2962 0.8830 0.7302
C13E C 0.2928 0.7500 0.6942
C14E C 0.2526 0.8808 0.7868
H9E H 0.326 0.750 0.6554
H10E H 0.253 0.976 0.8128

#END
