
#######################################################################
#
#                 Cambridge Crystallographic Data Centre
#                                CCDC 
#
#######################################################################
#
# If this CIF has been generated from an entry in the Cambridge 
# Structural Database, then it will include bibliographic, chemical, 
# crystal, experimental, refinement or atomic coordinate data resulting 
# from the CCDC's data processing and validation procedures.
#
#######################################################################

data_MARBEM
_symmetry_cell_setting           monoclinic
_symmetry_space_group_name_H-M   'P 21/c'
_symmetry_Int_Tables_number      14
_space_group_name_Hall           '-P 2ybc'
loop_
_symmetry_equiv_pos_site_id
_symmetry_equiv_pos_as_xyz
1 x,y,z
2 x,1/2-y,1/2+z
3 -x,-y,-z
4 -x,1/2+y,1/2-z
_cell_length_a                   15.200(2)
_cell_length_b                   7.802(1)
_cell_length_c                   11.432(1)
_cell_angle_alpha                90
_cell_angle_beta                 91.10(1)
_cell_angle_gamma                90
_cell_volume                     1355.48
loop_
_atom_site_label
_atom_site_type_symbol
_atom_site_fract_x
_atom_site_fract_y
_atom_site_fract_z
N1 N 0.5311(3) 0.7021(5) 1.1063(3)
C1 C 0.5844(3) 0.6551(7) 1.0209(4)
H1 H 0.5789 0.5419 0.9964
N2 N 0.6447(2) 0.7483(5) 0.9653(3)
C2 C 0.6452(3) 0.9115(6) 1.0059(4)
C3 C 0.5928(3) 0.9789(6) 1.0924(4)
C4 C 0.5341(3) 0.8647(6) 1.1455(4)
N3 N 0.6145(3) 1.1485(5) 1.1135(3)
C5 C 0.6784(3) 1.1786(7) 1.0398(4)
H2 H 0.7066 1.2841 1.0344
N4 N 0.6993(2) 1.0410(5) 0.9723(3)
N5 N 0.4818(3) 0.9075(6) 1.2332(4)
H3 H 0.452(3) 0.829(7) 1.265(5)
H4 H 0.492(4) 1.005(8) 1.266(5)
C6 C 0.7721(3) 1.0254(7) 0.8942(4)
C7 C 0.8562(3) 0.9495(7) 0.9455(4)
H5 H 0.8396 0.8513 0.9938
C8 C 0.9077(3) 0.8792(8) 0.8403(5)
H6 H 0.9388 0.7740 0.8632
C9 C 0.8362(3) 0.8375(8) 0.7461(4)
H7 H 0.8593 0.8632 0.6685
C10 C 0.7605(3) 0.9599(8) 0.7715(4)
H8 H 0.704(4) 0.938(7) 0.751(4)
C11 C 0.7798(4) 1.1456(8) 0.7919(4)
H9 H 0.839(4) 1.189(7) 0.777(4)
H10 H 0.730(4) 1.233(7) 0.788(4)
O1 O 0.9036(2) 1.0670(6) 1.0194(3)
H11 H 0.919(5) 1.148(10) 0.970(7)
O2 O 0.9682(3) 1.0006(7) 0.7992(4)
H12 H 1.008(5) 1.008(11) 0.836(7)
C12 C 0.8073(4) 0.6507(8) 0.7496(5)
H13 H 0.7552 0.6369 0.7001
H14 H 0.8535 0.5799 0.7176
O3 O 0.7884(3) 0.5917(6) 0.8640(4)
H15 H 0.736(5) 0.640(9) 0.885(6)
N1 N 0.5311(3) 0.7979(5) 0.6063(3)
C1 C 0.5844(3) 0.8449(7) 0.5209(4)
H1 H 0.5789 0.9581 0.4964
N2 N 0.6447(2) 0.7517(5) 0.4653(3)
C2 C 0.6452(3) 0.5885(6) 0.5059(4)
C3 C 0.5928(3) 0.5211(6) 0.5924(4)
C4 C 0.5341(3) 0.6353(6) 0.6455(4)
N3 N 0.6145(3) 0.3515(5) 0.6135(3)
C5 C 0.6784(3) 0.3214(7) 0.5398(4)
H2 H 0.7066 0.2159 0.5344
N4 N 0.6993(2) 0.4590(5) 0.4723(3)
N5 N 0.4818(3) 0.5925(6) 0.7332(4)
H3 H 0.452(3) 0.671(7) 0.765(5)
H4 H 0.492(4) 0.495(8) 0.766(5)
C6 C 0.7721(3) 0.4746(7) 0.3942(4)
C7 C 0.8562(3) 0.5505(7) 0.4455(4)
H5 H 0.8396 0.6487 0.4938
C8 C 0.9077(3) 0.6208(8) 0.3403(5)
H6 H 0.9388 0.7260 0.3632
C9 C 0.8362(3) 0.6625(8) 0.2461(4)
H7 H 0.8593 0.6368 0.1685
C10 C 0.7605(3) 0.5401(8) 0.2715(4)
H8 H 0.704(4) 0.562(7) 0.251(4)
C11 C 0.7798(4) 0.3544(8) 0.2919(4)
H9 H 0.839(4) 0.311(7) 0.277(4)
H10 H 0.730(4) 0.267(7) 0.288(4)
O1 O 0.9036(2) 0.4330(6) 0.5194(3)
H11 H 0.919(5) 0.352(10) 0.470(7)
O2 O 0.9682(3) 0.4994(7) 0.2992(4)
H12 H 1.008(5) 0.492(11) 0.336(7)
C12 C 0.8073(4) 0.8493(8) 0.2496(5)
H13 H 0.7552 0.8631 0.2001
H14 H 0.8535 0.9201 0.2176
O3 O 0.7884(3) 0.9083(6) 0.3640(4)
H15 H 0.736(5) 0.860(9) 0.385(6)
N1 N 0.4689(3) 0.2979(5) -0.1063(3)
C1 C 0.4156(3) 0.3449(7) -0.0209(4)
H1 H 0.4211 0.4581 0.0036
N2 N 0.3553(2) 0.2517(5) 0.0347(3)
C2 C 0.3548(3) 0.0885(6) -0.0059(4)
C3 C 0.4072(3) 0.0211(6) -0.0924(4)
C4 C 0.4659(3) 0.1353(6) -0.1455(4)
N3 N 0.3855(3) -0.1485(5) -0.1135(3)
C5 C 0.3216(3) -0.1786(7) -0.0398(4)
H2 H 0.2934 -0.2841 -0.0344
N4 N 0.3007(2) -0.0410(5) 0.0277(3)
N5 N 0.5182(3) 0.0925(6) -0.2332(4)
H3 H 0.548(3) 0.171(7) -0.265(5)
H4 H 0.508(4) -0.005(8) -0.266(5)
C6 C 0.2279(3) -0.0254(7) 0.1058(4)
C7 C 0.1438(3) 0.0505(7) 0.0545(4)
H5 H 0.1604 0.1487 0.0062
C8 C 0.0923(3) 0.1208(8) 0.1597(5)
H6 H 0.0612 0.2260 0.1368
C9 C 0.1638(3) 0.1625(8) 0.2539(4)
H7 H 0.1407 0.1368 0.3315
C10 C 0.2395(3) 0.0401(8) 0.2285(4)
H8 H 0.296(4) 0.062(7) 0.249(4)
C11 C 0.2202(4) -0.1456(8) 0.2081(4)
H9 H 0.161(4) -0.189(7) 0.223(4)
H10 H 0.270(4) -0.233(7) 0.212(4)
O1 O 0.0964(2) -0.0670(6) -0.0194(3)
H11 H 0.081(5) -0.148(10) 0.030(7)
O2 O 0.0318(3) -0.0006(7) 0.2008(4)
H12 H -0.008(5) -0.008(11) 0.164(7)
C12 C 0.1927(4) 0.3493(8) 0.2504(5)
H13 H 0.2448 0.3631 0.2999
H14 H 0.1465 0.4201 0.2824
O3 O 0.2116(3) 0.4083(6) 0.1360(4)
H15 H 0.264(5) 0.360(9) 0.115(6)
N1 N 0.4689(3) 0.2021(5) 0.3937(3)
C1 C 0.4156(3) 0.1551(7) 0.4791(4)
H1 H 0.4211 0.0419 0.5036
N2 N 0.3553(2) 0.2483(5) 0.5347(3)
C2 C 0.3548(3) 0.4115(6) 0.4941(4)
C3 C 0.4072(3) 0.4789(6) 0.4076(4)
C4 C 0.4659(3) 0.3647(6) 0.3545(4)
N3 N 0.3855(3) 0.6485(5) 0.3865(3)
C5 C 0.3216(3) 0.6786(7) 0.4602(4)
H2 H 0.2934 0.7841 0.4656
N4 N 0.3007(2) 0.5410(5) 0.5277(3)
N5 N 0.5182(3) 0.4075(6) 0.2668(4)
H3 H 0.548(3) 0.329(7) 0.235(5)
H4 H 0.508(4) 0.505(8) 0.234(5)
C6 C 0.2279(3) 0.5254(7) 0.6058(4)
C7 C 0.1438(3) 0.4495(7) 0.5545(4)
H5 H 0.1604 0.3513 0.5062
C8 C 0.0923(3) 0.3792(8) 0.6597(5)
H6 H 0.0612 0.2740 0.6368
C9 C 0.1638(3) 0.3375(8) 0.7539(4)
H7 H 0.1407 0.3632 0.8315
C10 C 0.2395(3) 0.4599(8) 0.7285(4)
H8 H 0.296(4) 0.438(7) 0.749(4)
C11 C 0.2202(4) 0.6456(8) 0.7081(4)
H9 H 0.161(4) 0.689(7) 0.723(4)
H10 H 0.270(4) 0.733(7) 0.712(4)
O1 O 0.0964(2) 0.5670(6) 0.4806(3)
H11 H 0.081(5) 0.648(10) 0.530(7)
O2 O 0.0318(3) 0.5006(7) 0.7008(4)
H12 H -0.008(5) 0.508(11) 0.664(7)
C12 C 0.1927(4) 0.1507(8) 0.7504(5)
H13 H 0.2448 0.1369 0.7999
H14 H 0.1465 0.0799 0.7824
O3 O 0.2116(3) 0.0917(6) 0.6360(4)
H15 H 0.264(5) 0.140(9) 0.615(6)
O4 O 0.9406(5) 0.4037(10) 0.9305(7)
H16 H 0.904(6) 0.398(15) 1.001(7)
H17 H 0.994(3) 0.353(13) 0.940(9)
O4 O 0.9406(5) 0.0963(10) 0.4305(7)
H16 H 0.904(6) 0.102(15) 0.501(7)
H17 H 0.994(3) 0.147(13) 0.440(9)
O4 O 0.0594(5) 0.5963(10) 0.0695(7)
H16 H 0.096(6) 0.602(15) -0.001(7)
H17 H 0.006(3) 0.647(13) 0.060(9)
O4 O 0.0594(5) 0.9037(10) 0.5695(7)
H16 H 0.096(6) 0.898(15) 0.499(7)
H17 H 0.006(3) 0.853(13) 0.560(9)

#END
