
#######################################################################
#
#                 Cambridge Crystallographic Data Centre
#                                CCDC 
#
#######################################################################
#
# If this CIF has been generated from an entry in the Cambridge 
# Structural Database, then it will include bibliographic, chemical, 
# crystal, experimental, refinement or atomic coordinate data resulting 
# from the CCDC's data processing and validation procedures.
#
#######################################################################

data_MARGUK
_symmetry_cell_setting           monoclinic
_symmetry_space_group_name_H-M   'P 21/n'
_symmetry_Int_Tables_number      14
_space_group_name_Hall           '-P 2yn'
loop_
_symmetry_equiv_pos_site_id
_symmetry_equiv_pos_as_xyz
1 x,y,z
2 1/2-x,1/2+y,1/2-z
3 -x,-y,-z
4 1/2+x,1/2-y,1/2+z
_cell_length_a                   6.2352(3)
_cell_length_b                   17.6644(8)
_cell_length_c                   15.4536(8)
_cell_angle_alpha                90
_cell_angle_beta                 97.454(3)
_cell_angle_gamma                90
_cell_volume                     1687.69
loop_
_atom_site_label
_atom_site_type_symbol
_atom_site_fract_x
_atom_site_fract_y
_atom_site_fract_z
N1 N 0.46983(15) 0.11984(5) 0.50843(6)
C1 C 0.52186(19) 0.14912(6) 0.43398(7)
H1 H 0.4131 0.1757 0.3973
C2 C 0.72553(19) 0.14296(6) 0.40717(7)
H2 H 0.7546 0.1648 0.3537
C3 C 0.88565(18) 0.10407(7) 0.46041(7)
H3 H 1.0272 0.0993 0.4445
C4 C 0.83407(17) 0.07229(6) 0.53758(7)
H4 H 0.9394 0.0448 0.5750
C5 C 0.62488(16) 0.08150(6) 0.55909(6)
C6 C 0.56186(16) 0.05036(6) 0.64181(6)
C7 C 0.38316(16) 0.08023(6) 0.67616(7)
H5 H 0.2996 0.1196 0.6465
C8 C 0.32927(16) 0.05148(6) 0.75464(6)
C9 C 0.45148(16) -0.00844(6) 0.79385(7)
H6 H 0.4166 -0.0305 0.8463
C10 C 0.62641(16) -0.03543(6) 0.75444(7)
N2 N 0.68509(14) -0.00562(5) 0.68080(6)
C11 C 0.76173(16) -0.09890(6) 0.79506(6)
C12 C 0.97444(16) -0.10869(6) 0.77776(7)
H7 H 1.0322 -0.0773 0.7365
C13 C 1.10006(17) -0.16502(6) 0.82171(7)
H8 H 1.2466 -0.1717 0.8126
C14 C 1.00762(18) -0.21161(6) 0.87944(7)
H9 H 1.0894 -0.2505 0.9107
C15 C 0.79187(18) -0.19954(6) 0.89009(7)
H10 H 0.7274 -0.2325 0.9279
N3 N 0.66994(15) -0.14410(5) 0.85009(6)
C16 C 0.14817(16) 0.08267(6) 0.79583(7)
S1 S 0.00550(4) 0.162592(15) 0.751568(17)
C17 C -0.16240(16) 0.15517(6) 0.83225(7)
C18 C -0.34321(17) 0.19911(6) 0.84478(7)
H11 H -0.3877 0.2405 0.8074
C19 C -0.45481(18) 0.18002(7) 0.91368(7)
H12 H -0.5778 0.2089 0.9236
C20 C -0.39023(18) 0.11903(7) 0.96909(7)
H13 H -0.4703 0.1073 1.0156
C21 C -0.21121(18) 0.07559(6) 0.95699(7)
H14 H -0.1675 0.0345 0.9949
C22 C -0.09586(16) 0.09368(6) 0.88743(7)
N4 N 0.08165(14) 0.05386(5) 0.86534(6)
N1 N 0.03017(15) 0.61984(5) 0.99157(6)
C1 C -0.02186(19) 0.64912(6) 1.06602(7)
H1 H 0.0869 0.6757 1.1027
C2 C -0.22553(19) 0.64296(6) 1.09283(7)
H2 H -0.2546 0.6648 1.1463
C3 C -0.38565(18) 0.60407(7) 1.03959(7)
H3 H -0.5272 0.5993 1.0555
C4 C -0.33407(17) 0.57229(6) 0.96242(7)
H4 H -0.4394 0.5448 0.9250
C5 C -0.12488(16) 0.58150(6) 0.94091(6)
C6 C -0.06186(16) 0.55036(6) 0.85819(6)
C7 C 0.11684(16) 0.58023(6) 0.82384(7)
H5 H 0.2004 0.6196 0.8535
C8 C 0.17073(16) 0.55148(6) 0.74536(6)
C9 C 0.04852(16) 0.49156(6) 0.70615(7)
H6 H 0.0834 0.4695 0.6537
C10 C -0.12641(16) 0.46457(6) 0.74556(7)
N2 N -0.18509(14) 0.49438(5) 0.81920(6)
C11 C -0.26173(16) 0.40110(6) 0.70494(6)
C12 C -0.47444(16) 0.39131(6) 0.72224(7)
H7 H -0.5322 0.4227 0.7635
C13 C -0.60006(17) 0.33498(6) 0.67829(7)
H8 H -0.7466 0.3283 0.6874
C14 C -0.50762(18) 0.28839(6) 0.62056(7)
H9 H -0.5894 0.2495 0.5893
C15 C -0.29187(18) 0.30046(6) 0.60991(7)
H10 H -0.2274 0.2675 0.5721
N3 N -0.16994(15) 0.35590(5) 0.64991(6)
C16 C 0.35183(16) 0.58267(6) 0.70417(7)
S1 S 0.49450(4) 0.662592(15) 0.748432(17)
C17 C 0.66240(16) 0.65517(6) 0.66775(7)
C18 C 0.84321(17) 0.69911(6) 0.65522(7)
H11 H 0.8877 0.7405 0.6926
C19 C 0.95481(18) 0.68002(7) 0.58632(7)
H12 H 1.0778 0.7089 0.5764
C20 C 0.89023(18) 0.61903(7) 0.53091(7)
H13 H 0.9703 0.6073 0.4844
C21 C 0.71121(18) 0.57559(6) 0.54301(7)
H14 H 0.6675 0.5345 0.5051
C22 C 0.59586(16) 0.59368(6) 0.61257(7)
N4 N 0.41835(14) 0.55386(5) 0.63466(6)
N1 N 0.53017(15) 0.88016(5) 0.49157(6)
C1 C 0.47814(19) 0.85088(6) 0.56602(7)
H1 H 0.5869 0.8243 0.6027
C2 C 0.27447(19) 0.85704(6) 0.59283(7)
H2 H 0.2454 0.8352 0.6463
C3 C 0.11435(18) 0.89593(7) 0.53959(7)
H3 H -0.0272 0.9007 0.5555
C4 C 0.16593(17) 0.92771(6) 0.46242(7)
H4 H 0.0606 0.9552 0.4250
C5 C 0.37512(16) 0.91850(6) 0.44091(6)
C6 C 0.43814(16) 0.94964(6) 0.35819(6)
C7 C 0.61684(16) 0.91977(6) 0.32384(7)
H5 H 0.7004 0.8804 0.3535
C8 C 0.67073(16) 0.94852(6) 0.24536(6)
C9 C 0.54852(16) 1.00844(6) 0.20615(7)
H6 H 0.5834 1.0305 0.1537
C10 C 0.37359(16) 1.03543(6) 0.24556(7)
N2 N 0.31491(14) 1.00562(5) 0.31920(6)
C11 C 0.23827(16) 1.09890(6) 0.20494(6)
C12 C 0.02556(16) 1.10869(6) 0.22224(7)
H7 H -0.0322 1.0773 0.2635
C13 C -0.10006(17) 1.16502(6) 0.17829(7)
H8 H -0.2466 1.1717 0.1874
C14 C -0.00762(18) 1.21161(6) 0.12056(7)
H9 H -0.0894 1.2505 0.0893
C15 C 0.20813(18) 1.19954(6) 0.10991(7)
H10 H 0.2726 1.2325 0.0721
N3 N 0.33006(15) 1.14410(5) 0.14991(6)
C16 C 0.85183(16) 0.91733(6) 0.20417(7)
S1 S 0.99450(4) 0.837408(15) 0.248432(17)
C17 C 1.16240(16) 0.84483(6) 0.16775(7)
C18 C 1.34321(17) 0.80089(6) 0.15522(7)
H11 H 1.3877 0.7595 0.1926
C19 C 1.45481(18) 0.81998(7) 0.08632(7)
H12 H 1.5778 0.7911 0.0764
C20 C 1.39023(18) 0.88097(7) 0.03091(7)
H13 H 1.4703 0.8927 -0.0156
C21 C 1.21121(18) 0.92441(6) 0.04301(7)
H14 H 1.1675 0.9655 0.0051
C22 C 1.09586(16) 0.90632(6) 0.11257(7)
N4 N 0.91835(14) 0.94614(5) 0.13466(6)
N1 N 0.96983(15) 0.38016(5) 0.00843(6)
C1 C 1.02186(19) 0.35088(6) -0.06602(7)
H1 H 0.9131 0.3243 -0.1027
C2 C 1.22553(19) 0.35704(6) -0.09283(7)
H2 H 1.2546 0.3352 -0.1463
C3 C 1.38565(18) 0.39593(7) -0.03959(7)
H3 H 1.5272 0.4007 -0.0555
C4 C 1.33407(17) 0.42771(6) 0.03758(7)
H4 H 1.4394 0.4552 0.0750
C5 C 1.12488(16) 0.41850(6) 0.05909(6)
C6 C 1.06186(16) 0.44964(6) 0.14181(6)
C7 C 0.88316(16) 0.41977(6) 0.17616(7)
H5 H 0.7996 0.3804 0.1465
C8 C 0.82927(16) 0.44852(6) 0.25464(6)
C9 C 0.95148(16) 0.50844(6) 0.29385(7)
H6 H 0.9166 0.5305 0.3463
C10 C 1.12641(16) 0.53543(6) 0.25444(7)
N2 N 1.18509(14) 0.50562(5) 0.18080(6)
C11 C 1.26173(16) 0.59890(6) 0.29506(6)
C12 C 1.47444(16) 0.60869(6) 0.27776(7)
H7 H 1.5322 0.5773 0.2365
C13 C 1.60006(17) 0.66502(6) 0.32171(7)
H8 H 1.7466 0.6717 0.3126
C14 C 1.50762(18) 0.71161(6) 0.37944(7)
H9 H 1.5894 0.7505 0.4107
C15 C 1.29187(18) 0.69954(6) 0.39009(7)
H10 H 1.2274 0.7325 0.4279
N3 N 1.16994(15) 0.64410(5) 0.35009(6)
C16 C 0.64817(16) 0.41733(6) 0.29583(7)
S1 S 0.50550(4) 0.337408(15) 0.251568(17)
C17 C 0.33760(16) 0.34483(6) 0.33225(7)
C18 C 0.15679(17) 0.30089(6) 0.34478(7)
H11 H 0.1123 0.2595 0.3074
C19 C 0.04519(18) 0.31998(7) 0.41368(7)
H12 H -0.0778 0.2911 0.4236
C20 C 0.10977(18) 0.38097(7) 0.46909(7)
H13 H 0.0297 0.3927 0.5156
C21 C 0.28879(18) 0.42441(6) 0.45699(7)
H14 H 0.3325 0.4655 0.4949
C22 C 0.40414(16) 0.40632(6) 0.38743(7)
N4 N 0.58165(14) 0.44614(5) 0.36534(6)

#END
