./MARHUK_from_xyz.cif_generated_by_CrystalShift
_symmetry_cell_setting triclinic
_symmetry_space_group_name_H-M 'P 1'
loop_
_symmetry_equiv_pos_site_id
_symmetry_equiv_pos_as_xyz
1 x,y,z
_cell_length_a 7.332400
_cell_length_b 7.338300
_cell_length_c 37.984000
_cell_angle_alpha 89.627000
_cell_angle_beta 89.836000
_cell_angle_gamma 85.628000
_cell_volume 2037.822102
loop_
_atom_site_label
_atom_site_type_symbol
_atom_site_fract_x
_atom_site_fract_y
_atom_site_fract_z
C1 C 0.625800 0.539000 0.026520
C2 C 0.872300 0.562800 0.148120
C3 C 1.007100 0.624500 0.171740
C4 C 0.916300 0.562300 0.111030
C5 C 0.654000 0.585400 -0.008410
H6 H 0.757700 0.644200 -0.014500
C7 C 0.764000 0.579900 0.053150
H8 H 0.851900 0.658000 0.046300
C9 C 1.085700 0.599900 0.100100
H10 H 1.114900 0.588300 0.076300
C11 C 0.705200 0.523900 0.162590
H12 H 0.614700 0.486100 0.147800
C13 C 0.773700 0.515700 0.085670
H14 H 0.687100 0.437400 0.093100
C15 C 1.180000 0.667400 0.158500
H16 H 1.268500 0.704000 0.173900
C17 C 1.217300 0.655300 0.123210
H18 H 1.330700 0.684100 0.114700
C19 C 0.469400 0.454100 0.034430
H20 H 0.445900 0.422700 0.057700
C21 C 0.669200 0.539300 0.197810
H22 H 0.556400 0.510200 0.206600
C23 C 0.960400 0.639500 0.208250
H24 H 1.045800 0.679600 0.223900
C25 C 0.798700 0.597700 0.220440
H26 H 0.772900 0.607900 0.244400
C27 C 0.374200 0.461000 -0.026520
C28 C 0.127700 0.437200 -0.148120
C29 C -0.007100 0.375500 -0.171740
C30 C 0.083700 0.437700 -0.111030
C31 C 0.346000 0.414600 0.008410
H32 H 0.242300 0.355800 0.014500
C33 C 0.236000 0.420100 -0.053150
H34 H 0.148100 0.342000 -0.046300
C35 C -0.085700 0.400100 -0.100100
H36 H -0.114900 0.411700 -0.076300
C37 C 0.294800 0.476100 -0.162590
H38 H 0.385300 0.513900 -0.147800
C39 C 0.226300 0.484300 -0.085670
H40 H 0.312900 0.562600 -0.093100
C41 C -0.180000 0.332600 -0.158500
H42 H -0.268500 0.296000 -0.173900
C43 C -0.217300 0.344700 -0.123210
H44 H -0.330700 0.315900 -0.114700
C45 C 0.530600 0.545900 -0.034430
H46 H 0.554100 0.577300 -0.057700
C47 C 0.330800 0.460700 -0.197810
H48 H 0.443600 0.489800 -0.206600
C49 C 0.039600 0.360500 -0.208250
H50 H -0.045800 0.320400 -0.223900
C51 C 0.201300 0.402300 -0.220440
H52 H 0.227100 0.392100 -0.244400
C53 C 0.625800 0.539000 1.026520
C54 C 0.872300 0.562800 1.148120
C55 C 1.007100 0.624500 1.171740
C56 C 0.916300 0.562300 1.111030
C57 C 0.654000 0.585400 0.991590
H58 H 0.757700 0.644200 0.985500
C59 C 0.764000 0.579900 1.053150
H60 H 0.851900 0.658000 1.046300
C61 C 1.085700 0.599900 1.100100
H62 H 1.114900 0.588300 1.076300
C63 C 0.705200 0.523900 1.162590
H64 H 0.614700 0.486100 1.147800
C65 C 0.773700 0.515700 1.085670
H66 H 0.687100 0.437400 1.093100
C67 C 1.180000 0.667400 1.158500
H68 H 1.268500 0.704000 1.173900
C69 C 1.217300 0.655300 1.123210
H70 H 1.330700 0.684100 1.114700
C71 C 0.469400 0.454100 1.034430
H72 H 0.445900 0.422700 1.057700
C73 C 0.669200 0.539300 1.197810
H74 H 0.556400 0.510200 1.206600
C75 C 0.960400 0.639500 1.208250
H76 H 1.045800 0.679600 1.223900
C77 C 0.798700 0.597700 1.220440
H78 H 0.772900 0.607900 1.244400
C79 C 0.374200 0.461000 0.973480
C80 C 0.127700 0.437200 0.851880
C81 C -0.007100 0.375500 0.828260
C82 C 0.083700 0.437700 0.888970
C83 C 0.346000 0.414600 1.008410
H84 H 0.242300 0.355800 1.014500
C85 C 0.236000 0.420100 0.946850
H86 H 0.148100 0.342000 0.953700
C87 C -0.085700 0.400100 0.899900
H88 H -0.114900 0.411700 0.923700
C89 C 0.294800 0.476100 0.837410
H90 H 0.385300 0.513900 0.852200
C91 C 0.226300 0.484300 0.914330
H92 H 0.312900 0.562600 0.906900
C93 C -0.180000 0.332600 0.841500
H94 H -0.268500 0.296000 0.826100
C95 C -0.217300 0.344700 0.876790
H96 H -0.330700 0.315900 0.885300
C97 C 0.530600 0.545900 0.965570
H98 H 0.554100 0.577300 0.942300
C99 C 0.330800 0.460700 0.802190
H100 H 0.443600 0.489800 0.793400
C101 C 0.039600 0.360500 0.791750
H102 H -0.045800 0.320400 0.776100
C103 C 0.201300 0.402300 0.779560
H104 H 0.227100 0.392100 0.755600
C105 C 0.379200 0.102900 0.146190
C106 C 0.276700 -0.006700 0.054040
H107 H 0.379400 -0.086600 0.050200
C108 C 0.273100 0.092000 0.083070
H109 H 0.172600 0.174600 0.087000
C110 C 0.201200 0.156400 0.159180
H111 H 0.106000 0.179300 0.143300
C112 C 0.130600 -0.000500 0.027030
C113 C 0.421100 0.077400 0.109560
C114 C 0.165900 -0.099000 -0.003530
H115 H 0.277600 -0.166400 -0.006300
C116 C -0.035700 0.097800 0.030010
H117 H -0.061700 0.165400 0.050300
C118 C 0.520300 0.073600 0.171060
C119 C 0.599200 0.032800 0.099620
H120 H 0.627300 0.020600 0.075800
C121 C 0.702200 0.021900 0.159400
H122 H 0.794800 -0.000500 0.175900
C123 C 0.166300 0.174900 0.193910
H124 H 0.048200 0.209300 0.201600
C125 C 0.741300 0.005000 0.124900
H126 H 0.861000 -0.024700 0.117500
C127 C 0.306300 0.142700 0.218200
H128 H 0.281300 0.157900 0.242100
C129 C 0.478500 0.089300 0.207700
H130 H 0.569700 0.063000 0.224300
C131 C -0.379200 -0.102900 -0.146190
C132 C -0.276700 0.006700 -0.054040
H133 H -0.379400 0.086600 -0.050200
C134 C -0.273100 -0.092000 -0.083070
H135 H -0.172600 -0.174600 -0.087000
C136 C -0.201200 -0.156400 -0.159180
H137 H -0.106000 -0.179300 -0.143300
C138 C -0.130600 0.000500 -0.027030
C139 C -0.421100 -0.077400 -0.109560
C140 C -0.165900 0.099000 0.003530
H141 H -0.277600 0.166400 0.006300
C142 C 0.035700 -0.097800 -0.030010
H143 H 0.061700 -0.165400 -0.050300
C144 C -0.520300 -0.073600 -0.171060
C145 C -0.599200 -0.032800 -0.099620
H146 H -0.627300 -0.020600 -0.075800
C147 C -0.702200 -0.021900 -0.159400
H148 H -0.794800 0.000500 -0.175900
C149 C -0.166300 -0.174900 -0.193910
H150 H -0.048200 -0.209300 -0.201600
C151 C -0.741300 -0.005000 -0.124900
H152 H -0.861000 0.024700 -0.117500
C153 C -0.306300 -0.142700 -0.218200
H154 H -0.281300 -0.157900 -0.242100
C155 C -0.478500 -0.089300 -0.207700
H156 H -0.569700 -0.063000 -0.224300
C157 C 0.379200 0.102900 1.146190
C158 C 0.276700 -0.006700 1.054040
H159 H 0.379400 -0.086600 1.050200
C160 C 0.273100 0.092000 1.083070
H161 H 0.172600 0.174600 1.087000
C162 C 0.201200 0.156400 1.159180
H163 H 0.106000 0.179300 1.143300
C164 C 0.130600 -0.000500 1.027030
C165 C 0.421100 0.077400 1.109560
C166 C 0.165900 -0.099000 0.996470
H167 H 0.277600 -0.166400 0.993700
C168 C -0.035700 0.097800 1.030010
H169 H -0.061700 0.165400 1.050300
C170 C 0.520300 0.073600 1.171060
C171 C 0.599200 0.032800 1.099620
H172 H 0.627300 0.020600 1.075800
C173 C 0.702200 0.021900 1.159400
H174 H 0.794800 -0.000500 1.175900
C175 C 0.166300 0.174900 1.193910
H176 H 0.048200 0.209300 1.201600
C177 C 0.741300 0.005000 1.124900
H178 H 0.861000 -0.024700 1.117500
C179 C 0.306300 0.142700 1.218200
H180 H 0.281300 0.157900 1.242100
C181 C 0.478500 0.089300 1.207700
H182 H 0.569700 0.063000 1.224300
C183 C -0.379200 -0.102900 0.853810
C184 C -0.276700 0.006700 0.945960
H185 H -0.379400 0.086600 0.949800
C186 C -0.273100 -0.092000 0.916930
H187 H -0.172600 -0.174600 0.913000
C188 C -0.201200 -0.156400 0.840820
H189 H -0.106000 -0.179300 0.856700
C190 C -0.130600 0.000500 0.972970
C191 C -0.421100 -0.077400 0.890440
C192 C -0.165900 0.099000 1.003530
H193 H -0.277600 0.166400 1.006300
C194 C 0.035700 -0.097800 0.969990
H195 H 0.061700 -0.165400 0.949700
C196 C -0.520300 -0.073600 0.828940
C197 C -0.599200 -0.032800 0.900380
H198 H -0.627300 -0.020600 0.924200
C199 C -0.702200 -0.021900 0.840600
H200 H -0.794800 0.000500 0.824100
C201 C -0.166300 -0.174900 0.806090
H202 H -0.048200 -0.209300 0.798400
C203 C -0.741300 -0.005000 0.875100
H204 H -0.861000 0.024700 0.882500
C205 C -0.306300 -0.142700 0.781800
H206 H -0.281300 -0.157900 0.757900
C207 C -0.478500 -0.089300 0.792300
H208 H -0.569700 -0.063000 0.775700
C209 C 0.379200 1.102900 0.146190
C210 C 0.276700 0.993300 0.054040
H211 H 0.379400 0.913400 0.050200
C212 C 0.273100 1.092000 0.083070
H213 H 0.172600 1.174600 0.087000
C214 C 0.201200 1.156400 0.159180
H215 H 0.106000 1.179300 0.143300
C216 C 0.130600 0.999500 0.027030
C217 C 0.421100 1.077400 0.109560
C218 C 0.165900 0.901000 -0.003530
H219 H 0.277600 0.833600 -0.006300
C220 C -0.035700 1.097800 0.030010
H221 H -0.061700 1.165400 0.050300
C222 C 0.520300 1.073600 0.171060
C223 C 0.599200 1.032800 0.099620
H224 H 0.627300 1.020600 0.075800
C225 C 0.702200 1.021900 0.159400
H226 H 0.794800 0.999500 0.175900
C227 C 0.166300 1.174900 0.193910
H228 H 0.048200 1.209300 0.201600
C229 C 0.741300 1.005000 0.124900
H230 H 0.861000 0.975300 0.117500
C231 C 0.306300 1.142700 0.218200
H232 H 0.281300 1.157900 0.242100
C233 C 0.478500 1.089300 0.207700
H234 H 0.569700 1.063000 0.224300
C235 C -0.379200 0.897100 -0.146190
C236 C -0.276700 1.006700 -0.054040
H237 H -0.379400 1.086600 -0.050200
C238 C -0.273100 0.908000 -0.083070
H239 H -0.172600 0.825400 -0.087000
C240 C -0.201200 0.843600 -0.159180
H241 H -0.106000 0.820700 -0.143300
C242 C -0.130600 1.000500 -0.027030
C243 C -0.421100 0.922600 -0.109560
C244 C -0.165900 1.099000 0.003530
H245 H -0.277600 1.166400 0.006300
C246 C 0.035700 0.902200 -0.030010
H247 H 0.061700 0.834600 -0.050300
C248 C -0.520300 0.926400 -0.171060
C249 C -0.599200 0.967200 -0.099620
H250 H -0.627300 0.979400 -0.075800
C251 C -0.702200 0.978100 -0.159400
H252 H -0.794800 1.000500 -0.175900
C253 C -0.166300 0.825100 -0.193910
H254 H -0.048200 0.790700 -0.201600
C255 C -0.741300 0.995000 -0.124900
H256 H -0.861000 1.024700 -0.117500
C257 C -0.306300 0.857300 -0.218200
H258 H -0.281300 0.842100 -0.242100
C259 C -0.478500 0.910700 -0.207700
H260 H -0.569700 0.937000 -0.224300
C261 C 0.379200 1.102900 1.146190
C262 C 0.276700 0.993300 1.054040
H263 H 0.379400 0.913400 1.050200
C264 C 0.273100 1.092000 1.083070
H265 H 0.172600 1.174600 1.087000
C266 C 0.201200 1.156400 1.159180
H267 H 0.106000 1.179300 1.143300
C268 C 0.130600 0.999500 1.027030
C269 C 0.421100 1.077400 1.109560
C270 C 0.165900 0.901000 0.996470
H271 H 0.277600 0.833600 0.993700
C272 C -0.035700 1.097800 1.030010
H273 H -0.061700 1.165400 1.050300
C274 C 0.520300 1.073600 1.171060
C275 C 0.599200 1.032800 1.099620
H276 H 0.627300 1.020600 1.075800
C277 C 0.702200 1.021900 1.159400
H278 H 0.794800 0.999500 1.175900
C279 C 0.166300 1.174900 1.193910
H280 H 0.048200 1.209300 1.201600
C281 C 0.741300 1.005000 1.124900
H282 H 0.861000 0.975300 1.117500
C283 C 0.306300 1.142700 1.218200
H284 H 0.281300 1.157900 1.242100
C285 C 0.478500 1.089300 1.207700
H286 H 0.569700 1.063000 1.224300
C287 C -0.379200 0.897100 0.853810
C288 C -0.276700 1.006700 0.945960
H289 H -0.379400 1.086600 0.949800
C290 C -0.273100 0.908000 0.916930
H291 H -0.172600 0.825400 0.913000
C292 C -0.201200 0.843600 0.840820
H293 H -0.106000 0.820700 0.856700
C294 C -0.130600 1.000500 0.972970
C295 C -0.421100 0.922600 0.890440
C296 C -0.165900 1.099000 1.003530
H297 H -0.277600 1.166400 1.006300
C298 C 0.035700 0.902200 0.969990
H299 H 0.061700 0.834600 0.949700
C300 C -0.520300 0.926400 0.828940
C301 C -0.599200 0.967200 0.900380
H302 H -0.627300 0.979400 0.924200
C303 C -0.702200 0.978100 0.840600
H304 H -0.794800 1.000500 0.824100
C305 C -0.166300 0.825100 0.806090
H306 H -0.048200 0.790700 0.798400
C307 C -0.741300 0.995000 0.875100
H308 H -0.861000 1.024700 0.882500
C309 C -0.306300 0.857300 0.781800
H310 H -0.281300 0.842100 0.757900
C311 C -0.478500 0.910700 0.792300
H312 H -0.569700 0.937000 0.775700
C313 C 1.379200 0.102900 0.146190
C314 C 1.276700 -0.006700 0.054040
H315 H 1.379400 -0.086600 0.050200
C316 C 1.273100 0.092000 0.083070
H317 H 1.172600 0.174600 0.087000
C318 C 1.201200 0.156400 0.159180
H319 H 1.106000 0.179300 0.143300
C320 C 1.130600 -0.000500 0.027030
C321 C 1.421100 0.077400 0.109560
C322 C 1.165900 -0.099000 -0.003530
H323 H 1.277600 -0.166400 -0.006300
C324 C 0.964300 0.097800 0.030010
H325 H 0.938300 0.165400 0.050300
C326 C 1.520300 0.073600 0.171060
C327 C 1.599200 0.032800 0.099620
H328 H 1.627300 0.020600 0.075800
C329 C 1.702200 0.021900 0.159400
H330 H 1.794800 -0.000500 0.175900
C331 C 1.166300 0.174900 0.193910
H332 H 1.048200 0.209300 0.201600
C333 C 1.741300 0.005000 0.124900
H334 H 1.861000 -0.024700 0.117500
C335 C 1.306300 0.142700 0.218200
H336 H 1.281300 0.157900 0.242100
C337 C 1.478500 0.089300 0.207700
H338 H 1.569700 0.063000 0.224300
C339 C 0.620800 -0.102900 -0.146190
C340 C 0.723300 0.006700 -0.054040
H341 H 0.620600 0.086600 -0.050200
C342 C 0.726900 -0.092000 -0.083070
H343 H 0.827400 -0.174600 -0.087000
C344 C 0.798800 -0.156400 -0.159180
H345 H 0.894000 -0.179300 -0.143300
C346 C 0.869400 0.000500 -0.027030
C347 C 0.578900 -0.077400 -0.109560
C348 C 0.834100 0.099000 0.003530
H349 H 0.722400 0.166400 0.006300
C350 C 1.035700 -0.097800 -0.030010
H351 H 1.061700 -0.165400 -0.050300
C352 C 0.479700 -0.073600 -0.171060
C353 C 0.400800 -0.032800 -0.099620
H354 H 0.372700 -0.020600 -0.075800
C355 C 0.297800 -0.021900 -0.159400
H356 H 0.205200 0.000500 -0.175900
C357 C 0.833700 -0.174900 -0.193910
H358 H 0.951800 -0.209300 -0.201600
C359 C 0.258700 -0.005000 -0.124900
H360 H 0.139000 0.024700 -0.117500
C361 C 0.693700 -0.142700 -0.218200
H362 H 0.718700 -0.157900 -0.242100
C363 C 0.521500 -0.089300 -0.207700
H364 H 0.430300 -0.063000 -0.224300
C365 C 1.379200 0.102900 1.146190
C366 C 1.276700 -0.006700 1.054040
H367 H 1.379400 -0.086600 1.050200
C368 C 1.273100 0.092000 1.083070
H369 H 1.172600 0.174600 1.087000
C370 C 1.201200 0.156400 1.159180
H371 H 1.106000 0.179300 1.143300
C372 C 1.130600 -0.000500 1.027030
C373 C 1.421100 0.077400 1.109560
C374 C 1.165900 -0.099000 0.996470
H375 H 1.277600 -0.166400 0.993700
C376 C 0.964300 0.097800 1.030010
H377 H 0.938300 0.165400 1.050300
C378 C 1.520300 0.073600 1.171060
C379 C 1.599200 0.032800 1.099620
H380 H 1.627300 0.020600 1.075800
C381 C 1.702200 0.021900 1.159400
H382 H 1.794800 -0.000500 1.175900
C383 C 1.166300 0.174900 1.193910
H384 H 1.048200 0.209300 1.201600
C385 C 1.741300 0.005000 1.124900
H386 H 1.861000 -0.024700 1.117500
C387 C 1.306300 0.142700 1.218200
H388 H 1.281300 0.157900 1.242100
C389 C 1.478500 0.089300 1.207700
H390 H 1.569700 0.063000 1.224300
C391 C 0.620800 -0.102900 0.853810
C392 C 0.723300 0.006700 0.945960
H393 H 0.620600 0.086600 0.949800
C394 C 0.726900 -0.092000 0.916930
H395 H 0.827400 -0.174600 0.913000
C396 C 0.798800 -0.156400 0.840820
H397 H 0.894000 -0.179300 0.856700
C398 C 0.869400 0.000500 0.972970
C399 C 0.578900 -0.077400 0.890440
C400 C 0.834100 0.099000 1.003530
H401 H 0.722400 0.166400 1.006300
C402 C 1.035700 -0.097800 0.969990
H403 H 1.061700 -0.165400 0.949700
C404 C 0.479700 -0.073600 0.828940
C405 C 0.400800 -0.032800 0.900380
H406 H 0.372700 -0.020600 0.924200
C407 C 0.297800 -0.021900 0.840600
H408 H 0.205200 0.000500 0.824100
C409 C 0.833700 -0.174900 0.806090
H410 H 0.951800 -0.209300 0.798400
C411 C 0.258700 -0.005000 0.875100
H412 H 0.139000 0.024700 0.882500
C413 C 0.693700 -0.142700 0.781800
H414 H 0.718700 -0.157900 0.757900
C415 C 0.521500 -0.089300 0.792300
H416 H 0.430300 -0.063000 0.775700
C417 C 1.379200 1.102900 0.146190
C418 C 1.276700 0.993300 0.054040
H419 H 1.379400 0.913400 0.050200
C420 C 1.273100 1.092000 0.083070
H421 H 1.172600 1.174600 0.087000
C422 C 1.201200 1.156400 0.159180
H423 H 1.106000 1.179300 0.143300
C424 C 1.130600 0.999500 0.027030
C425 C 1.421100 1.077400 0.109560
C426 C 1.165900 0.901000 -0.003530
H427 H 1.277600 0.833600 -0.006300
C428 C 0.964300 1.097800 0.030010
H429 H 0.938300 1.165400 0.050300
C430 C 1.520300 1.073600 0.171060
C431 C 1.599200 1.032800 0.099620
H432 H 1.627300 1.020600 0.075800
C433 C 1.702200 1.021900 0.159400
H434 H 1.794800 0.999500 0.175900
C435 C 1.166300 1.174900 0.193910
H436 H 1.048200 1.209300 0.201600
C437 C 1.741300 1.005000 0.124900
H438 H 1.861000 0.975300 0.117500
C439 C 1.306300 1.142700 0.218200
H440 H 1.281300 1.157900 0.242100
C441 C 1.478500 1.089300 0.207700
H442 H 1.569700 1.063000 0.224300
C443 C 0.620800 0.897100 -0.146190
C444 C 0.723300 1.006700 -0.054040
H445 H 0.620600 1.086600 -0.050200
C446 C 0.726900 0.908000 -0.083070
H447 H 0.827400 0.825400 -0.087000
C448 C 0.798800 0.843600 -0.159180
H449 H 0.894000 0.820700 -0.143300
C450 C 0.869400 1.000500 -0.027030
C451 C 0.578900 0.922600 -0.109560
C452 C 0.834100 1.099000 0.003530
H453 H 0.722400 1.166400 0.006300
C454 C 1.035700 0.902200 -0.030010
H455 H 1.061700 0.834600 -0.050300
C456 C 0.479700 0.926400 -0.171060
C457 C 0.400800 0.967200 -0.099620
H458 H 0.372700 0.979400 -0.075800
C459 C 0.297800 0.978100 -0.159400
H460 H 0.205200 1.000500 -0.175900
C461 C 0.833700 0.825100 -0.193910
H462 H 0.951800 0.790700 -0.201600
C463 C 0.258700 0.995000 -0.124900
H464 H 0.139000 1.024700 -0.117500
C465 C 0.693700 0.857300 -0.218200
H466 H 0.718700 0.842100 -0.242100
C467 C 0.521500 0.910700 -0.207700
H468 H 0.430300 0.937000 -0.224300
C469 C 1.379200 1.102900 1.146190
C470 C 1.276700 0.993300 1.054040
H471 H 1.379400 0.913400 1.050200
C472 C 1.273100 1.092000 1.083070
H473 H 1.172600 1.174600 1.087000
C474 C 1.201200 1.156400 1.159180
H475 H 1.106000 1.179300 1.143300
C476 C 1.130600 0.999500 1.027030
C477 C 1.421100 1.077400 1.109560
C478 C 1.165900 0.901000 0.996470
H479 H 1.277600 0.833600 0.993700
C480 C 0.964300 1.097800 1.030010
H481 H 0.938300 1.165400 1.050300
C482 C 1.520300 1.073600 1.171060
C483 C 1.599200 1.032800 1.099620
H484 H 1.627300 1.020600 1.075800
C485 C 1.702200 1.021900 1.159400
H486 H 1.794800 0.999500 1.175900
C487 C 1.166300 1.174900 1.193910
H488 H 1.048200 1.209300 1.201600
C489 C 1.741300 1.005000 1.124900
H490 H 1.861000 0.975300 1.117500
C491 C 1.306300 1.142700 1.218200
H492 H 1.281300 1.157900 1.242100
C493 C 1.478500 1.089300 1.207700
H494 H 1.569700 1.063000 1.224300
C495 C 0.620800 0.897100 0.853810
C496 C 0.723300 1.006700 0.945960
H497 H 0.620600 1.086600 0.949800
C498 C 0.726900 0.908000 0.916930
H499 H 0.827400 0.825400 0.913000
C500 C 0.798800 0.843600 0.840820
H501 H 0.894000 0.820700 0.856700
C502 C 0.869400 1.000500 0.972970
C503 C 0.578900 0.922600 0.890440
C504 C 0.834100 1.099000 1.003530
H505 H 0.722400 1.166400 1.006300
C506 C 1.035700 0.902200 0.969990
H507 H 1.061700 0.834600 0.949700
C508 C 0.479700 0.926400 0.828940
C509 C 0.400800 0.967200 0.900380
H510 H 0.372700 0.979400 0.924200
C511 C 0.297800 0.978100 0.840600
H512 H 0.205200 1.000500 0.824100
C513 C 0.833700 0.825100 0.806090
H514 H 0.951800 0.790700 0.798400
C515 C 0.258700 0.995000 0.875100
H516 H 0.139000 1.024700 0.882500
C517 C 0.693700 0.857300 0.781800
H518 H 0.718700 0.842100 0.757900
C519 C 0.521500 0.910700 0.792300
H520 H 0.430300 0.937000 0.775700
C521 C -0.040900 0.373100 0.473130
C522 C -0.057700 0.076800 0.389480
C523 C -0.078000 0.236700 0.447490
H524 H -0.155200 0.149100 0.454900
C525 C -0.122700 -0.024100 0.330010
C526 C -0.064000 0.114600 0.352740
C527 C -0.015300 0.220000 0.414340
H528 H 0.061800 0.306700 0.406400
C529 C -0.024500 0.281500 0.337800
H530 H 0.013200 0.372400 0.352500
C531 C -0.149600 -0.230000 0.378300
H532 H -0.176900 -0.343600 0.387000
C533 C -0.039100 0.316400 0.302800
H534 H -0.007300 0.427400 0.293600
C535 C -0.085900 0.349600 0.508470
H536 H -0.143000 0.245400 0.514900
C537 C -0.159600 -0.190700 0.343690
H538 H -0.193000 -0.280600 0.328400
C539 C 0.051000 0.529800 0.465960
H540 H 0.089200 0.551700 0.443100
C541 C -0.096200 -0.092000 0.401100
H542 H -0.086900 -0.117600 0.425100
C543 C -0.141600 0.021200 0.293490
H544 H -0.182500 -0.065500 0.278200
C545 C -0.103100 0.181900 0.280540
H546 H -0.118400 0.206300 0.256600
C547 C 0.040900 0.626900 0.526870
C548 C 0.057700 0.923200 0.610520
C549 C 0.078000 0.763300 0.552510
H550 H 0.155200 0.850900 0.545100
C551 C 0.122700 1.024100 0.669990
C552 C 0.064000 0.885400 0.647260
C553 C 0.015300 0.780000 0.585660
H554 H -0.061800 0.693300 0.593600
C555 C 0.024500 0.718500 0.662200
H556 H -0.013200 0.627600 0.647500
C557 C 0.149600 1.230000 0.621700
H558 H 0.176900 1.343600 0.613000
C559 C 0.039100 0.683600 0.697200
H560 H 0.007300 0.572600 0.706400
C561 C 0.085900 0.650400 0.491530
H562 H 0.143000 0.754600 0.485100
C563 C 0.159600 1.190700 0.656310
H564 H 0.193000 1.280600 0.671600
C565 C -0.051000 0.470200 0.534040
H566 H -0.089200 0.448300 0.556900
C567 C 0.096200 1.092000 0.598900
H568 H 0.086900 1.117600 0.574900
C569 C 0.141600 0.978800 0.706510
H570 H 0.182500 1.065500 0.721800
C571 C 0.103100 0.818100 0.719460
H572 H 0.118400 0.793700 0.743400
C573 C 0.959100 0.373100 0.473130
C574 C 0.942300 0.076800 0.389480
C575 C 0.922000 0.236700 0.447490
H576 H 0.844800 0.149100 0.454900
C577 C 0.877300 -0.024100 0.330010
C578 C 0.936000 0.114600 0.352740
C579 C 0.984700 0.220000 0.414340
H580 H 1.061800 0.306700 0.406400
C581 C 0.975500 0.281500 0.337800
H582 H 1.013200 0.372400 0.352500
C583 C 0.850400 -0.230000 0.378300
H584 H 0.823100 -0.343600 0.387000
C585 C 0.960900 0.316400 0.302800
H586 H 0.992700 0.427400 0.293600
C587 C 0.914100 0.349600 0.508470
H588 H 0.857000 0.245400 0.514900
C589 C 0.840400 -0.190700 0.343690
H590 H 0.807000 -0.280600 0.328400
C591 C 1.051000 0.529800 0.465960
H592 H 1.089200 0.551700 0.443100
C593 C 0.903800 -0.092000 0.401100
H594 H 0.913100 -0.117600 0.425100
C595 C 0.858400 0.021200 0.293490
H596 H 0.817500 -0.065500 0.278200
C597 C 0.896900 0.181900 0.280540
H598 H 0.881600 0.206300 0.256600
C599 C 1.040900 0.626900 0.526870
C600 C 1.057700 0.923200 0.610520
C601 C 1.078000 0.763300 0.552510
H602 H 1.155200 0.850900 0.545100
C603 C 1.122700 1.024100 0.669990
C604 C 1.064000 0.885400 0.647260
C605 C 1.015300 0.780000 0.585660
H606 H 0.938200 0.693300 0.593600
C607 C 1.024500 0.718500 0.662200
H608 H 0.986800 0.627600 0.647500
C609 C 1.149600 1.230000 0.621700
H610 H 1.176900 1.343600 0.613000
C611 C 1.039100 0.683600 0.697200
H612 H 1.007300 0.572600 0.706400
C613 C 1.085900 0.650400 0.491530
H614 H 1.143000 0.754600 0.485100
C615 C 1.159600 1.190700 0.656310
H616 H 1.193000 1.280600 0.671600
C617 C 0.949000 0.470200 0.534040
H618 H 0.910800 0.448300 0.556900
C619 C 1.096200 1.092000 0.598900
H620 H 1.086900 1.117600 0.574900
C621 C 1.141600 0.978800 0.706510
H622 H 1.182500 1.065500 0.721800
C623 C 1.103100 0.818100 0.719460
H624 H 1.118400 0.793700 0.743400
C625 C 0.500600 -0.127900 0.472680
C626 C 0.420700 -0.418700 0.389460
C627 C 0.429000 -0.519800 0.328300
C628 C 0.399500 -0.378400 0.353330
C629 C 0.506900 -0.271300 0.445770
H630 H 0.588000 -0.373000 0.449800
C631 C 0.348600 -0.203100 0.340530
H632 H 0.324600 -0.108200 0.356400
C633 C 0.400800 0.040100 0.469690
H634 H 0.333700 0.068100 0.449400
C635 C 0.407200 -0.271600 0.415720
H636 H 0.324400 -0.171600 0.411400
C637 C 0.467200 -0.598300 0.399400
H638 H 0.480400 -0.626100 0.423300
C639 C 0.480000 -0.697600 0.340600
H640 H 0.504300 -0.790600 0.324300
C641 C 0.599700 -0.166600 0.503360
H642 H 0.667100 -0.278500 0.505800
C643 C 0.419300 -0.480300 0.292500
H644 H 0.445500 -0.573100 0.276300
C645 C 0.494700 -0.737300 0.375200
H646 H 0.523000 -0.857000 0.382700
C647 C 0.333100 -0.167300 0.305020
H648 H 0.296600 -0.049800 0.297200
C649 C 0.371800 -0.306400 0.280700
H650 H 0.365300 -0.281400 0.256700
C651 C 0.499400 0.127900 0.527320
C652 C 0.579300 0.418700 0.610540
C653 C 0.571000 0.519800 0.671700
C654 C 0.600500 0.378400 0.646670
C655 C 0.493100 0.271300 0.554230
H656 H 0.412000 0.373000 0.550200
C657 C 0.651400 0.203100 0.659470
H658 H 0.675400 0.108200 0.643600
C659 C 0.599200 -0.040100 0.530310
H660 H 0.666300 -0.068100 0.550600
C661 C 0.592800 0.271600 0.584280
H662 H 0.675600 0.171600 0.588600
C663 C 0.532800 0.598300 0.600600
H664 H 0.519600 0.626100 0.576700
C665 C 0.520000 0.697600 0.659400
H666 H 0.495700 0.790600 0.675700
C667 C 0.400300 0.166600 0.496640
H668 H 0.332900 0.278500 0.494200
C669 C 0.580700 0.480300 0.707500
H670 H 0.554500 0.573100 0.723700
C671 C 0.505300 0.737300 0.624800
H672 H 0.477000 0.857000 0.617300
C673 C 0.666900 0.167300 0.694980
H674 H 0.703400 0.049800 0.702800
C675 C 0.628200 0.306400 0.719300
H676 H 0.634700 0.281400 0.743300
C677 C 0.500600 0.872100 0.472680
C678 C 0.420700 0.581300 0.389460
C679 C 0.429000 0.480200 0.328300
C680 C 0.399500 0.621600 0.353330
C681 C 0.506900 0.728700 0.445770
H682 H 0.588000 0.627000 0.449800
C683 C 0.348600 0.796900 0.340530
H684 H 0.324600 0.891800 0.356400
C685 C 0.400800 1.040100 0.469690
H686 H 0.333700 1.068100 0.449400
C687 C 0.407200 0.728400 0.415720
H688 H 0.324400 0.828400 0.411400
C689 C 0.467200 0.401700 0.399400
H690 H 0.480400 0.373900 0.423300
C691 C 0.480000 0.302400 0.340600
H692 H 0.504300 0.209400 0.324300
C693 C 0.599700 0.833400 0.503360
H694 H 0.667100 0.721500 0.505800
C695 C 0.419300 0.519700 0.292500
H696 H 0.445500 0.426900 0.276300
C697 C 0.494700 0.262700 0.375200
H698 H 0.523000 0.143000 0.382700
C699 C 0.333100 0.832700 0.305020
H700 H 0.296600 0.950200 0.297200
C701 C 0.371800 0.693600 0.280700
H702 H 0.365300 0.718600 0.256700
C703 C 0.499400 1.127900 0.527320
C704 C 0.579300 1.418700 0.610540
C705 C 0.571000 1.519800 0.671700
C706 C 0.600500 1.378400 0.646670
C707 C 0.493100 1.271300 0.554230
H708 H 0.412000 1.373000 0.550200
C709 C 0.651400 1.203100 0.659470
H710 H 0.675400 1.108200 0.643600
C711 C 0.599200 0.959900 0.530310
H712 H 0.666300 0.931900 0.550600
C713 C 0.592800 1.271600 0.584280
H714 H 0.675600 1.171600 0.588600
C715 C 0.532800 1.598300 0.600600
H716 H 0.519600 1.626100 0.576700
C717 C 0.520000 1.697600 0.659400
H718 H 0.495700 1.790600 0.675700
C719 C 0.400300 1.166600 0.496640
H720 H 0.332900 1.278500 0.494200
C721 C 0.580700 1.480300 0.707500
H722 H 0.554500 1.573100 0.723700
C723 C 0.505300 1.737300 0.624800
H724 H 0.477000 1.857000 0.617300
C725 C 0.666900 1.167300 0.694980
H726 H 0.703400 1.049800 0.702800
C727 C 0.628200 1.306400 0.719300
H728 H 0.634700 1.281400 0.743300

#END
