
#######################################################################
#
#                 Cambridge Crystallographic Data Centre
#                                CCDC 
#
#######################################################################
#
# If this CIF has been generated from an entry in the Cambridge 
# Structural Database, then it will include bibliographic, chemical, 
# crystal, experimental, refinement or atomic coordinate data resulting 
# from the CCDC's data processing and validation procedures.
#
#######################################################################

data_AADRIB
_symmetry_cell_setting           monoclinic
_symmetry_space_group_name_H-M   'P 21'
_symmetry_Int_Tables_number      4
_space_group_name_Hall           'P 2yb'
loop_
_symmetry_equiv_pos_site_id
_symmetry_equiv_pos_as_xyz
1 x,y,z
2 -x,1/2+y,-z
_cell_length_a                   17.125(5)
_cell_length_b                   11.453(5)
_cell_length_c                   8.590(5)
_cell_angle_alpha                90
_cell_angle_beta                 109.18(5)
_cell_angle_gamma                90
_cell_volume                     1591.26
loop_
_atom_site_label
_atom_site_type_symbol
_atom_site_fract_x
_atom_site_fract_y
_atom_site_fract_z
O1 O 0.06010 0.32740 0.71510
O2 O 0.16740 0.38110 1.02960
O3 O 0.20860 0.44220 0.75600
O4 O 0.30340 0.31040 0.64020
O5 O 0.13200 0.15470 0.71390
O6 O -0.05530 0.22790 0.69130
O7 O 0.18630 0.25670 1.23800
O8 O 0.31560 0.55430 0.88370
O9 O 0.37530 0.15800 0.62580
C1 C 0.11080 0.23620 0.81550
C2 C 0.18730 0.29050 0.93310
C3 C 0.24600 0.34190 0.85050
C4 C 0.26080 0.25190 0.73560
C5 C 0.18040 0.20340 0.62070
C6 C -0.02230 0.30900 0.65210
C7 C -0.06140 0.39880 0.53320
C8 C 0.17130 0.35400 1.18390
C9 C 0.15340 0.45680 1.27190
C10 C 0.24900 0.54440 0.78220
C11 C 0.20460 0.63550 0.67180
C12 C 0.36140 0.25800 0.60050
C13 C 0.39810 0.32910 0.50020
H1 H 0.07330 0.19230 0.86520
H2 H 0.22280 0.23070 1.00880
H3 H 0.29460 0.35980 0.93360
H4 H 0.28600 0.18440 0.78260
H5 H 0.18840 0.14100 0.56050
H6 H 0.14630 0.26480 0.55590
H7 H -0.03590 0.46360 0.52880
H8 H -0.11270 0.41570 0.54600
H9 H -0.07350 0.37180 0.42450
H10 H 0.11590 0.50440 1.21190
H11 H 0.19310 0.50330 1.29550
H12 H 0.14150 0.43030 1.37600
H13 H 0.14810 0.63710 0.64290
H14 H 0.21280 0.62130 0.55640
H15 H 0.23640 0.70930 0.72720
H16 H 0.39810 0.30420 0.41400
H17 H 0.45040 0.33640 0.54930
H18 H 0.37400 0.41040 0.48490
O1 O 0.93990 0.82740 0.28490
O2 O 0.83260 0.88110 -0.02960
O3 O 0.79140 0.94220 0.24400
O4 O 0.69660 0.81040 0.35980
O5 O 0.86800 0.65470 0.28610
O6 O 1.05530 0.72790 0.30870
O7 O 0.81370 0.75670 -0.23800
O8 O 0.68440 1.05430 0.11630
O9 O 0.62470 0.65800 0.37420
C1 C 0.88920 0.73620 0.18450
C2 C 0.81270 0.79050 0.06690
C3 C 0.75400 0.84190 0.14950
C4 C 0.73920 0.75190 0.26440
C5 C 0.81960 0.70340 0.37930
C6 C 1.02230 0.80900 0.34790
C7 C 1.06140 0.89880 0.46680
C8 C 0.82870 0.85400 -0.18390
C9 C 0.84660 0.95680 -0.27190
C10 C 0.75100 1.04440 0.21780
C11 C 0.79540 1.13550 0.32820
C12 C 0.63860 0.75800 0.39950
C13 C 0.60190 0.82910 0.49980
H1 H 0.92670 0.69230 0.13480
H2 H 0.77720 0.73070 -0.00880
H3 H 0.70540 0.85980 0.06640
H4 H 0.71400 0.68440 0.21740
H5 H 0.81160 0.64100 0.43950
H6 H 0.85370 0.76480 0.44410
H7 H 1.03590 0.96360 0.47120
H8 H 1.11270 0.91570 0.45400
H9 H 1.07350 0.87180 0.57550
H10 H 0.88410 1.00440 -0.21190
H11 H 0.80690 1.00330 -0.29550
H12 H 0.85850 0.93030 -0.37600
H13 H 0.85190 1.13710 0.35710
H14 H 0.78720 1.12130 0.44360
H15 H 0.76360 1.20930 0.27280
H16 H 0.60190 0.80420 0.58600
H17 H 0.54960 0.83640 0.45070
H18 H 0.62600 0.91040 0.51510
O10 O 0.61920 0.48750 0.80600
O11 O 0.64510 0.41580 0.52950
O12 O 0.69030 0.25430 0.78800
O13 O 0.85620 0.24070 0.98670
O14 O 0.75890 0.52940 0.93540
O15 O 0.60020 0.67570 0.85670
O16 O 0.72540 0.41240 0.36860
O17 O 0.66590 0.14470 0.56090
O18 O 0.97850 0.32860 1.08200
C14 C 0.69550 0.52120 0.78320
C15 C 0.71730 0.43560 0.66990
C16 C 0.75320 0.32010 0.75020
C17 C 0.82000 0.34870 0.90820
C18 C 0.78790 0.42050 1.01760
C19 C 0.57450 0.57580 0.83980
C20 C 0.49470 0.53670 0.85140
C21 C 0.65900 0.40330 0.38210
C22 C 0.58060 0.37380 0.24850
C23 C 0.65040 0.16980 0.68290
C24 C 0.58590 0.11490 0.73530
C25 C 0.93740 0.24130 1.06830
C26 C 0.97010 0.12610 1.13160
H19 H 0.69370 0.59250 0.73210
H20 H 0.76780 0.48560 0.63460
H21 H 0.77170 0.27050 0.68130
H22 H 0.85630 0.40010 0.90380
H23 H 0.83330 0.45100 1.10560
H24 H 0.74170 0.38620 1.04120
H25 H 0.49100 0.57620 0.94220
H26 H 0.43650 0.52760 0.77860
H27 H 0.49900 0.46520 0.88360
H28 H 0.55530 0.45150 0.18870
H29 H 0.59170 0.32440 0.18380
H30 H 0.54160 0.33060 0.27440
H31 H 0.56180 0.17080 0.79140
H32 H 0.61130 0.06850 0.82340
H33 H 0.54340 0.07260 0.64810
H34 H 1.02070 0.12970 1.20640
H35 H 0.93770 0.08200 1.17040
H36 H 0.98340 0.07720 1.04860
O10 O 0.38080 0.98750 0.19400
O11 O 0.35490 0.91580 0.47050
O12 O 0.30970 0.75430 0.21200
O13 O 0.14380 0.74070 0.01330
O14 O 0.24110 1.02940 0.06460
O15 O 0.39980 1.17570 0.14330
O16 O 0.27460 0.91240 0.63140
O17 O 0.33410 0.64470 0.43910
O18 O 0.02150 0.82860 -0.08200
C14 C 0.30450 1.02120 0.21680
C15 C 0.28270 0.93560 0.33010
C16 C 0.24680 0.82010 0.24980
C17 C 0.18000 0.84870 0.09180
C18 C 0.21210 0.92050 -0.01760
C19 C 0.42550 1.07580 0.16020
C20 C 0.50530 1.03670 0.14860
C21 C 0.34100 0.90330 0.61790
C22 C 0.41940 0.87380 0.75150
C23 C 0.34960 0.66980 0.31710
C24 C 0.41410 0.61490 0.26470
C25 C 0.06260 0.74130 -0.06830
C26 C 0.02990 0.62610 -0.13160
H19 H 0.30630 1.09250 0.26790
H20 H 0.23220 0.98560 0.36540
H21 H 0.22830 0.77050 0.31870
H22 H 0.14370 0.90010 0.09620
H23 H 0.16670 0.95100 -0.10560
H24 H 0.25830 0.88620 -0.04120
H25 H 0.50900 1.07620 0.05780
H26 H 0.56350 1.02760 0.22140
H27 H 0.50100 0.96520 0.11640
H28 H 0.44470 0.95150 0.81130
H29 H 0.40830 0.82440 0.81620
H30 H 0.45840 0.83060 0.72560
H31 H 0.43820 0.67080 0.20860
H32 H 0.38870 0.56850 0.17660
H33 H 0.45660 0.57260 0.35190
H34 H -0.02070 0.62970 -0.20640
H35 H 0.06230 0.58200 -0.17040
H36 H 0.01660 0.57720 -0.04860

#END
