
#######################################################################
#
#                 Cambridge Crystallographic Data Centre
#                                CCDC 
#
#######################################################################
#
# If this CIF has been generated from an entry in the Cambridge 
# Structural Database, then it will include bibliographic, chemical, 
# crystal, experimental, refinement or atomic coordinate data resulting 
# from the CCDC's data processing and validation procedures.
#
#######################################################################

data_ABADIS01
_symmetry_cell_setting           orthorhombic
_symmetry_space_group_name_H-M   'P 21 21 21'
_symmetry_Int_Tables_number      19
_space_group_name_Hall           'P 2ac 2ab'
loop_
_symmetry_equiv_pos_site_id
_symmetry_equiv_pos_as_xyz
1 x,y,z
2 1/2-x,-y,1/2+z
3 1/2+x,1/2-y,-z
4 -x,1/2+y,1/2-z
_cell_length_a                   5.6969(15)
_cell_length_b                   12.657(3)
_cell_length_c                   17.604(5)
_cell_angle_alpha                90
_cell_angle_beta                 90
_cell_angle_gamma                90
_cell_volume                     1269.35
loop_
_atom_site_label
_atom_site_type_symbol
_atom_site_fract_x
_atom_site_fract_y
_atom_site_fract_z
O1 O 0.3871(4) 0.37836(13) 1.03801(9)
H1 H 0.3280 0.3376 1.0688
O2 O 0.0975(4) 0.48320(13) 1.07621(9)
N1 N 0.4456(3) 0.78681(13) 0.75703(9)
N2 N 0.2556(4) 0.74457(14) 0.65069(10)
C1 C 0.3625(4) 0.54619(16) 0.98240(11)
C2 C 0.6074(4) 0.77548(17) 0.82087(11)
H2 H 0.6262 0.8434 0.8456
H3 H 0.7598 0.7537 0.8019
C3 C 0.1428(4) 0.83025(16) 0.68400(11)
C4 C 0.2622(4) 0.85805(15) 0.75045(11)
C5 C 0.6520(4) 0.60602(17) 0.89316(11)
H4 H 0.7940 0.5954 0.8682
C6 C 0.5733(4) 0.53174(17) 0.94491(11)
H5 H 0.6627 0.4717 0.9545
C7 C 0.2678(5) 0.46665(17) 1.03690(11)
C8 C 0.1919(4) 0.94228(17) 0.79536(12)
H6 H 0.2725 0.9610 0.8393
C9 C 0.5221(4) 0.69567(16) 0.87823(11)
C10 C -0.1262(5) 0.9687(2) 0.70573(13)
H7 H -0.2587 1.0071 0.6920
C11 C 0.4308(5) 0.72183(17) 0.69610(12)
H8 H 0.5348 0.6665 0.6873
C12 C -0.0036(5) 0.99675(19) 0.77139(13)
H9 H -0.0557 1.0541 0.7998
C13 C 0.3115(4) 0.71014(16) 0.91701(11)
H10 H 0.2224 0.7704 0.9081
C14 C 0.2344(4) 0.63641(15) 0.96819(11)
H11 H 0.0936 0.6474 0.9937
C15 C -0.0555(4) 0.88605(18) 0.66126(13)
H12 H -0.1370 0.8678 0.6174
O1 O 0.1129(4) 0.62164(13) 0.53801(9)
H1 H 0.1720 0.6624 0.5688
O2 O 0.4025(4) 0.51680(13) 0.57621(9)
N1 N 0.0544(3) 0.21319(13) 0.25703(9)
N2 N 0.2444(4) 0.25543(14) 0.15069(10)
C1 C 0.1375(4) 0.45381(16) 0.48240(11)
C2 C -0.1074(4) 0.22452(17) 0.32087(11)
H2 H -0.1262 0.1566 0.3456
H3 H -0.2598 0.2463 0.3019
C3 C 0.3572(4) 0.16975(16) 0.18400(11)
C4 C 0.2378(4) 0.14195(15) 0.25045(11)
C5 C -0.1520(4) 0.39398(17) 0.39316(11)
H4 H -0.2940 0.4046 0.3682
C6 C -0.0733(4) 0.46826(17) 0.44491(11)
H5 H -0.1627 0.5283 0.4545
C7 C 0.2322(5) 0.53335(17) 0.53690(11)
C8 C 0.3081(4) 0.05772(17) 0.29536(12)
H6 H 0.2275 0.0390 0.3393
C9 C -0.0221(4) 0.30433(16) 0.37823(11)
C10 C 0.6262(5) 0.0313(2) 0.20573(13)
H7 H 0.7587 -0.0071 0.1920
C11 C 0.0692(5) 0.27817(17) 0.19610(12)
H8 H -0.0348 0.3335 0.1873
C12 C 0.5036(5) 0.00325(19) 0.27139(13)
H9 H 0.5557 -0.0541 0.2998
C13 C 0.1885(4) 0.28986(16) 0.41701(11)
H10 H 0.2776 0.2296 0.4081
C14 C 0.2656(4) 0.36359(15) 0.46819(11)
H11 H 0.4064 0.3526 0.4937
C15 C 0.5555(4) 0.11395(18) 0.16126(13)
H12 H 0.6370 0.1322 0.1174
O1 O 0.8871(4) 1.12164(13) -0.03801(9)
H1 H 0.8280 1.1624 -0.0688
O2 O 0.5975(4) 1.01680(13) -0.07621(9)
N1 N 0.9456(3) 0.71319(13) 0.24297(9)
N2 N 0.7556(4) 0.75543(14) 0.34931(10)
C1 C 0.8625(4) 0.95381(16) 0.01760(11)
C2 C 1.1074(4) 0.72452(17) 0.17913(11)
H2 H 1.1262 0.6566 0.1544
H3 H 1.2598 0.7463 0.1981
C3 C 0.6428(4) 0.66975(16) 0.31600(11)
C4 C 0.7622(4) 0.64195(15) 0.24955(11)
C5 C 1.1520(4) 0.89398(17) 0.10684(11)
H4 H 1.2940 0.9046 0.1318
C6 C 1.0733(4) 0.96826(17) 0.05509(11)
H5 H 1.1627 1.0283 0.0455
C7 C 0.7678(5) 1.03335(17) -0.03690(11)
C8 C 0.6919(4) 0.55772(17) 0.20464(12)
H6 H 0.7725 0.5390 0.1607
C9 C 1.0221(4) 0.80433(16) 0.12177(11)
C10 C 0.3738(5) 0.5313(2) 0.29427(13)
H7 H 0.2413 0.4929 0.3080
C11 C 0.9308(5) 0.77817(17) 0.30390(12)
H8 H 1.0348 0.8335 0.3127
C12 C 0.4964(5) 0.50325(19) 0.22861(13)
H9 H 0.4443 0.4459 0.2002
C13 C 0.8115(4) 0.78986(16) 0.08299(11)
H10 H 0.7224 0.7296 0.0919
C14 C 0.7344(4) 0.86359(15) 0.03181(11)
H11 H 0.5936 0.8526 0.0063
C15 C 0.4445(4) 0.61395(18) 0.33874(13)
H12 H 0.3630 0.6322 0.3826
O1 O 0.6129(4) -0.12164(13) 0.46199(9)
H1 H 0.6720 -0.1624 0.4312
O2 O 0.9025(4) -0.01680(13) 0.42379(9)
N1 N 0.5544(3) 0.28681(13) 0.74297(9)
N2 N 0.7444(4) 0.24457(14) 0.84931(10)
C1 C 0.6375(4) 0.04619(16) 0.51760(11)
C2 C 0.3926(4) 0.27548(17) 0.67913(11)
H2 H 0.3738 0.3434 0.6544
H3 H 0.2402 0.2537 0.6981
C3 C 0.8572(4) 0.33025(16) 0.81600(11)
C4 C 0.7378(4) 0.35805(15) 0.74955(11)
C5 C 0.3480(4) 0.10602(17) 0.60684(11)
H4 H 0.2060 0.0954 0.6318
C6 C 0.4267(4) 0.03174(17) 0.55509(11)
H5 H 0.3373 -0.0283 0.5455
C7 C 0.7322(5) -0.03335(17) 0.46310(11)
C8 C 0.8081(4) 0.44228(17) 0.70464(12)
H6 H 0.7275 0.4610 0.6607
C9 C 0.4779(4) 0.19567(16) 0.62177(11)
C10 C 1.1262(5) 0.4687(2) 0.79427(13)
H7 H 1.2587 0.5071 0.8080
C11 C 0.5692(5) 0.22183(17) 0.80390(12)
H8 H 0.4652 0.1665 0.8127
C12 C 1.0036(5) 0.49675(19) 0.72861(13)
H9 H 1.0557 0.5541 0.7002
C13 C 0.6885(4) 0.21014(16) 0.58299(11)
H10 H 0.7776 0.2704 0.5919
C14 C 0.7656(4) 0.13641(15) 0.53181(11)
H11 H 0.9064 0.1474 0.5063
C15 C 1.0555(4) 0.38605(18) 0.83874(13)
H12 H 1.1370 0.3678 0.8826

#END
