
#######################################################################
#
#                 Cambridge Crystallographic Data Centre
#                                CCDC 
#
#######################################################################
#
# If this CIF has been generated from an entry in the Cambridge 
# Structural Database, then it will include bibliographic, chemical, 
# crystal, experimental, refinement or atomic coordinate data resulting 
# from the CCDC's data processing and validation procedures.
#
#######################################################################

data_ABALAS
_symmetry_cell_setting           monoclinic
_symmetry_space_group_name_H-M   'P 21/c'
_symmetry_Int_Tables_number      14
_space_group_name_Hall           '-P 2ybc'
loop_
_symmetry_equiv_pos_site_id
_symmetry_equiv_pos_as_xyz
1 x,y,z
2 -x,1/2+y,1/2-z
3 -x,-y,-z
4 x,1/2-y,1/2+z
_cell_length_a                   6.8048(4)
_cell_length_b                   8.6071(5)
_cell_length_c                   15.8244(8)
_cell_angle_alpha                90
_cell_angle_beta                 99.445(5)
_cell_angle_gamma                90
_cell_volume                     914.264
loop_
_atom_site_label
_atom_site_type_symbol
_atom_site_fract_x
_atom_site_fract_y
_atom_site_fract_z
H1 H -0.004(4) 0.093(3) 1.0660(17)
S1 S 0.42981(8) 0.29415(6) 1.04155(3)
N1 N 0.2087(2) 0.08399(18) 0.95281(10)
N2 N 0.0971(3) 0.1551(2) 1.07821(11)
C1 C 0.2251(3) 0.1665(2) 1.02239(12)
C2 C 0.3657(3) 0.1159(2) 0.90922(12)
C3 C -0.0017(3) 0.3891(3) 1.14573(12)
C4 C 0.5014(3) 0.2280(2) 0.94741(13)
C5 C 0.1095(3) 0.2429(3) 1.15623(14)
H2 H 0.250(2) 0.2658(4) 1.1781(3)
H3 H 0.0582(7) 0.1790(9) 1.1993(6)
C6 C 0.6662(4) 0.2711(3) 0.91091(17)
H4 H 0.750(2) 0.3410(19) 0.9350(7)
C7 C 0.3948(3) 0.0473(3) 0.83287(14)
H5 H 0.306(2) -0.0263(18) 0.8065(7)
C8 C 0.6923(4) 0.2005(3) 0.83610(17)
H6 H 0.805(3) 0.2274(8) 0.8105(7)
C9 C 0.5588(4) 0.0906(3) 0.79659(16)
H7 H 0.5794(6) 0.0458(12) 0.7456(14)
C10 C -0.0941(4) 0.5029(3) 1.13609(15)
H8 H -0.165(2) 0.591(2) 1.1287(3)
H1 H 1.004(4) 0.593(3) 0.4340(17)
S1 S 0.57019(8) 0.79415(6) 0.45845(3)
N1 N 0.7913(2) 0.58399(18) 0.54719(10)
N2 N 0.9029(3) 0.6551(2) 0.42179(11)
C1 C 0.7749(3) 0.6665(2) 0.47761(12)
C2 C 0.6343(3) 0.6159(2) 0.59078(12)
C3 C 1.0017(3) 0.8891(3) 0.35427(12)
C4 C 0.4986(3) 0.7280(2) 0.55259(13)
C5 C 0.8905(3) 0.7429(3) 0.34377(14)
H2 H 0.750(2) 0.7658(4) 0.3219(3)
H3 H 0.9418(7) 0.6790(9) 0.3007(6)
C6 C 0.3338(4) 0.7711(3) 0.58909(17)
H4 H 0.250(2) 0.8410(19) 0.5650(7)
C7 C 0.6052(3) 0.5473(3) 0.66713(14)
H5 H 0.694(2) 0.4737(18) 0.6935(7)
C8 C 0.3077(4) 0.7005(3) 0.66390(17)
H6 H 0.195(3) 0.7274(8) 0.6895(7)
C9 C 0.4412(4) 0.5906(3) 0.70341(16)
H7 H 0.4206(6) 0.5458(12) 0.7544(14)
C10 C 1.0941(4) 1.0029(3) 0.36391(15)
H8 H 1.165(2) 1.091(2) 0.3713(3)
H1 H 1.004(4) 0.907(3) -0.0660(17)
S1 S 0.57019(8) 0.70585(6) -0.04155(3)
N1 N 0.7913(2) 0.91601(18) 0.04719(10)
N2 N 0.9029(3) 0.8449(2) -0.07821(11)
C1 C 0.7749(3) 0.8335(2) -0.02239(12)
C2 C 0.6343(3) 0.8841(2) 0.09078(12)
C3 C 1.0017(3) 0.6109(3) -0.14573(12)
C4 C 0.4986(3) 0.7720(2) 0.05259(13)
C5 C 0.8905(3) 0.7571(3) -0.15623(14)
H2 H 0.750(2) 0.7342(4) -0.1781(3)
H3 H 0.9418(7) 0.8210(9) -0.1993(6)
C6 C 0.3338(4) 0.7289(3) 0.08909(17)
H4 H 0.250(2) 0.6590(19) 0.0650(7)
C7 C 0.6052(3) 0.9527(3) 0.16713(14)
H5 H 0.694(2) 1.0263(18) 0.1935(7)
C8 C 0.3077(4) 0.7995(3) 0.16390(17)
H6 H 0.195(3) 0.7726(8) 0.1895(7)
C9 C 0.4412(4) 0.9094(3) 0.20341(16)
H7 H 0.4206(6) 0.9542(12) 0.2544(14)
C10 C 1.0941(4) 0.4971(3) -0.13609(15)
H8 H 1.165(2) 0.409(2) -0.1287(3)
H1 H -0.004(4) 0.407(3) 0.5660(17)
S1 S 0.42981(8) 0.20585(6) 0.54155(3)
N1 N 0.2087(2) 0.41601(18) 0.45281(10)
N2 N 0.0971(3) 0.3449(2) 0.57821(11)
C1 C 0.2251(3) 0.3335(2) 0.52239(12)
C2 C 0.3657(3) 0.3841(2) 0.40922(12)
C3 C -0.0017(3) 0.1109(3) 0.64573(12)
C4 C 0.5014(3) 0.2720(2) 0.44741(13)
C5 C 0.1095(3) 0.2571(3) 0.65623(14)
H2 H 0.250(2) 0.2342(4) 0.6781(3)
H3 H 0.0582(7) 0.3210(9) 0.6993(6)
C6 C 0.6662(4) 0.2289(3) 0.41091(17)
H4 H 0.750(2) 0.1590(19) 0.4350(7)
C7 C 0.3948(3) 0.4527(3) 0.33287(14)
H5 H 0.306(2) 0.5263(18) 0.3065(7)
C8 C 0.6923(4) 0.2995(3) 0.33610(17)
H6 H 0.805(3) 0.2726(8) 0.3105(7)
C9 C 0.5588(4) 0.4094(3) 0.29659(16)
H7 H 0.5794(6) 0.4542(12) 0.2456(14)
C10 C -0.0941(4) -0.0029(3) 0.63609(15)
H8 H -0.165(2) -0.091(2) 0.6287(3)

#END
