
#######################################################################
#
#                 Cambridge Crystallographic Data Centre
#                                CCDC 
#
#######################################################################
#
# If this CIF has been generated from an entry in the Cambridge 
# Structural Database, then it will include bibliographic, chemical, 
# crystal, experimental, refinement or atomic coordinate data resulting 
# from the CCDC's data processing and validation procedures.
#
#######################################################################

data_ABAXUZ
_symmetry_cell_setting           triclinic
_symmetry_space_group_name_H-M   'P -1'
_symmetry_Int_Tables_number      2
_space_group_name_Hall           '-P 1'
loop_
_symmetry_equiv_pos_site_id
_symmetry_equiv_pos_as_xyz
1 x,y,z
2 -x,-y,-z
_cell_length_a                   9.997(8)
_cell_length_b                   10.946(11)
_cell_length_c                   12.103(10)
_cell_angle_alpha                104.479(8)
_cell_angle_beta                 101.153(7)
_cell_angle_gamma                109.891(8)
_cell_volume                     1148.04
loop_
_atom_site_label
_atom_site_type_symbol
_atom_site_fract_x
_atom_site_fract_y
_atom_site_fract_z
C1 C 0.3284(6) 0.7490(6) -0.0317(5)
C2 C 0.2427(6) 0.6034(6) -0.0428(5)
C3 C 0.3052(7) 0.5399(6) 0.0250(5)
H1 H 0.4021 0.5916 0.0814
C4 C 0.2297(7) 0.4044(6) 0.0117(5)
H2 H 0.2743 0.3625 0.0587
C5 C 0.0885(7) 0.3283(6) -0.0699(5)
H3 H 0.0359 0.2345 -0.0779
C6 C 0.0226(6) 0.3876(6) -0.1406(4)
C7 C 0.1003(6) 0.5247(6) -0.1262(5)
H4 H 0.0562 0.5664 -0.1737
C8 C -0.1283(6) 0.3038(6) -0.2260(5)
C9 C -0.3700(6) 0.2106(6) -0.3746(5)
H5 H -0.4595 0.1893 -0.4344
C10 C -0.3444(6) 0.1216(6) -0.3253(5)
H6 H -0.4155 0.0289 -0.3491
C11 C 0.3600(6) 1.0971(5) 0.1313(4)
C12 C 0.2678(6) 1.1548(5) 0.1935(4)
C13 C 0.1321(6) 1.1434(5) 0.1273(5)
H7 H 0.0962 1.0953 0.0433
C14 C 0.0486(6) 1.2011(6) 0.1819(5)
H8 H -0.0454 1.1908 0.1355
C15 C 0.1009(6) 1.2744(6) 0.3046(5)
H9 H 0.044 1.3157 0.3417
C16 C 0.2365(6) 1.2866(6) 0.3718(5)
C17 C 0.3193(6) 1.2253(6) 0.3168(5)
H10 H 0.4111 1.2317 0.3634
C18 C 0.2994(7) 1.3674(6) 0.5011(5)
C19 C 0.4513(9) 1.4600(8) 0.6851(6)
H11 H 0.535 1.4755 0.748
C20 C 0.3588(9) 1.5221(8) 0.7029(6)
H12 H 0.3681 1.5843 0.7774
C21 C 0.7753(6) 1.0899(6) 0.3698(5)
H13 H 0.7287 1.1522 0.3843
C22 C 0.8754(6) 1.0900(6) 0.4658(5)
H14 H 0.8969 1.1523 0.5438
C23 C 0.9445(7) 1.0003(6) 0.4492(5)
C24 C 0.9074(12) 0.9158(10) 0.3334(6)
H15 H 0.9519 0.8521 0.3159
C25 C 0.8071(12) 0.9219(9) 0.2426(6)
H16 H 0.7838 0.8611 0.1636
N1 N -0.2087(5) 0.1716(4) -0.2377(4)
N2 N 0.4184(7) 1.3728(6) 0.5708(4)
N3 N 0.7411(5) 1.0080(4) 0.2594(4)
O1 O 0.4424(4) 0.8207(4) 0.0600(4)
O2 O 0.2838(4) 0.7910(4) -0.1135(3)
O3 O 0.4740(4) 1.0947(4) 0.1943(3)
O4 O 0.3146(5) 1.0559(4) 0.0183(3)
S1 S -0.22215(18) 0.36725(16) -0.31685(13)
S2 S 0.2219(2) 1.4728(2) 0.57197(17)
Zn1 Zn 0.60232(7) 1.01610(7) 0.11492(6)
C21A C 1.2247(6) 0.9101(6) 0.6302(5)
H13A H 1.2713 0.8478 0.6157
C22A C 1.1246(6) 0.9100(6) 0.5342(5)
H14A H 1.1031 0.8477 0.4562
C23A C 1.0555(7) 0.9997(6) 0.5508(5)
C24A C 1.0926(12) 1.0842(10) 0.6666(6)
H15A H 1.0481 1.1479 0.6841
C25A C 1.1929(12) 1.0781(9) 0.7574(6)
H16A H 1.2162 1.1389 0.8364
N3A N 1.2589(5) 0.9920(4) 0.7406(4)
C1A C 0.6716(6) 1.2510(6) 0.0317(5)
C2A C 0.7573(6) 1.3966(6) 0.0428(5)
C3A C 0.6948(7) 1.4601(6) -0.0250(5)
H1A H 0.5979 1.4084 -0.0814
C4A C 0.7703(7) 1.5956(6) -0.0117(5)
H2A H 0.7257 1.6375 -0.0587
C5A C 0.9115(7) 1.6717(6) 0.0699(5)
H3A H 0.9641 1.7655 0.0779
C6A C 0.9774(6) 1.6124(6) 0.1406(4)
C7A C 0.8997(6) 1.4753(6) 0.1262(5)
H4A H 0.9438 1.4336 0.1737
C8A C 1.1283(6) 1.6962(6) 0.2260(5)
C9A C 1.3700(6) 1.7894(6) 0.3746(5)
H5A H 1.4595 1.8107 0.4344
C10A C 1.3444(6) 1.8784(6) 0.3253(5)
H6A H 1.4155 1.9711 0.3491
C11A C 0.6400(6) 0.9029(5) -0.1313(4)
C12A C 0.7322(6) 0.8452(5) -0.1935(4)
C13A C 0.8679(6) 0.8566(5) -0.1273(5)
H7A H 0.9038 0.9047 -0.0433
C14A C 0.9514(6) 0.7989(6) -0.1819(5)
H8A H 1.0454 0.8092 -0.1355
C15A C 0.8991(6) 0.7256(6) -0.3046(5)
H9A H 0.956 0.6843 -0.3417
C16A C 0.7635(6) 0.7134(6) -0.3718(5)
C17A C 0.6807(6) 0.7747(6) -0.3168(5)
H10A H 0.5889 0.7683 -0.3634
C18A C 0.7006(7) 0.6326(6) -0.5011(5)
C19A C 0.5487(9) 0.5400(8) -0.6851(6)
H11A H 0.465 0.5245 -0.748
C20A C 0.6412(9) 0.4779(8) -0.7029(6)
H12A H 0.6319 0.4157 -0.7774
N1A N 1.2087(5) 1.8284(4) 0.2377(4)
N2A N 0.5816(7) 0.6272(6) -0.5708(4)
O1A O 0.5576(4) 1.1793(4) -0.0600(4)
O2A O 0.7162(4) 1.2090(4) 0.1135(3)
O3A O 0.5260(4) 0.9053(4) -0.1943(3)
O4A O 0.6854(5) 0.9441(4) -0.0183(3)
S1A S 1.22215(18) 1.63275(16) 0.31685(13)
S2A S 0.7781(2) 0.5272(2) -0.57197(17)
Zn1A Zn 0.39768(7) 0.98390(7) -0.11492(6)
N3A N 0.2589(5) 0.9920(4) -0.2594(4)
Zn1A Zn 1.39768(7) 0.98390(7) 0.88508(6)
C1 C 0.6716(6) 0.2510(6) 1.0317(5)
C2 C 0.7573(6) 0.3966(6) 1.0428(5)
C3 C 0.6948(7) 0.4601(6) 0.9750(5)
H1 H 0.5979 0.4084 0.9186
C4 C 0.7703(7) 0.5956(6) 0.9883(5)
H2 H 0.7257 0.6375 0.9413
C5 C 0.9115(7) 0.6717(6) 1.0699(5)
H3 H 0.9641 0.7655 1.0779
C6 C 0.9774(6) 0.6124(6) 1.1406(4)
C7 C 0.8997(6) 0.4753(6) 1.1262(5)
H4 H 0.9438 0.4336 1.1737
C8 C 1.1283(6) 0.6962(6) 1.2260(5)
C9 C 1.3700(6) 0.7894(6) 1.3746(5)
H5 H 1.4595 0.8107 1.4344
C10 C 1.3444(6) 0.8784(6) 1.3253(5)
H6 H 1.4155 0.9711 1.3491
C11 C 0.6400(6) -0.0971(5) 0.8687(4)
C12 C 0.7322(6) -0.1548(5) 0.8065(4)
C13 C 0.8679(6) -0.1434(5) 0.8727(5)
H7 H 0.9038 -0.0953 0.9567
C14 C 0.9514(6) -0.2011(6) 0.8181(5)
H8 H 1.0454 -0.1908 0.8645
C15 C 0.8991(6) -0.2744(6) 0.6954(5)
H9 H 0.956 -0.3157 0.6583
C16 C 0.7635(6) -0.2866(6) 0.6282(5)
C17 C 0.6807(6) -0.2253(6) 0.6832(5)
H10 H 0.5889 -0.2317 0.6366
C18 C 0.7006(7) -0.3674(6) 0.4989(5)
C19 C 0.5487(9) -0.4600(8) 0.3149(6)
H11 H 0.465 -0.4755 0.252
C20 C 0.6412(9) -0.5221(8) 0.2971(6)
H12 H 0.6319 -0.5843 0.2226
C21 C 0.2247(6) -0.0899(6) 0.6302(5)
H13 H 0.2713 -0.1522 0.6157
C22 C 0.1246(6) -0.0900(6) 0.5342(5)
H14 H 0.1031 -0.1523 0.4562
C23 C 0.0555(7) -0.0003(6) 0.5508(5)
C24 C 0.0926(12) 0.0842(10) 0.6666(6)
H15 H 0.0481 0.1479 0.6841
C25 C 0.1929(12) 0.0781(9) 0.7574(6)
H16 H 0.2162 0.1389 0.8364
N1 N 1.2087(5) 0.8284(4) 1.2377(4)
N2 N 0.5816(7) -0.3728(6) 0.4292(4)
N3 N 0.2589(5) -0.0080(4) 0.7406(4)
O1 O 0.5576(4) 0.1793(4) 0.9400(4)
O2 O 0.7162(4) 0.2090(4) 1.1135(3)
O3 O 0.5260(4) -0.0947(4) 0.8057(3)
O4 O 0.6854(5) -0.0559(4) 0.9817(3)
S1 S 1.22215(18) 0.63275(16) 1.31685(13)
S2 S 0.7781(2) -0.4728(2) 0.42803(17)
Zn1 Zn 0.39768(7) -0.01610(7) 0.88508(6)
C21A C -0.2247(6) 0.0899(6) 0.3698(5)
H13A H -0.2713 0.1522 0.3843
C22A C -0.1246(6) 0.0900(6) 0.4658(5)
H14A H -0.1031 0.1523 0.5438
C23A C -0.0555(7) 0.0003(6) 0.4492(5)
C24A C -0.0926(12) -0.0842(10) 0.3334(6)
H15A H -0.0481 -0.1479 0.3159
C25A C -0.1929(12) -0.0781(9) 0.2426(6)
H16A H -0.2162 -0.1389 0.1636
N3A N -0.2589(5) 0.0080(4) 0.2594(4)
C1A C 0.3284(6) -0.2510(6) 0.9683(5)
C2A C 0.2427(6) -0.3966(6) 0.9572(5)
C3A C 0.3052(7) -0.4601(6) 1.0250(5)
H1A H 0.4021 -0.4084 1.0814
C4A C 0.2297(7) -0.5956(6) 1.0117(5)
H2A H 0.2743 -0.6375 1.0587
C5A C 0.0885(7) -0.6717(6) 0.9301(5)
H3A H 0.0359 -0.7655 0.9221
C6A C 0.0226(6) -0.6124(6) 0.8594(4)
C7A C 0.1003(6) -0.4753(6) 0.8738(5)
H4A H 0.0562 -0.4336 0.8263
C8A C -0.1283(6) -0.6962(6) 0.7740(5)
C9A C -0.3700(6) -0.7894(6) 0.6254(5)
H5A H -0.4595 -0.8107 0.5656
C10A C -0.3444(6) -0.8784(6) 0.6747(5)
H6A H -0.4155 -0.9711 0.6509
C11A C 0.3600(6) 0.0971(5) 1.1313(4)
C12A C 0.2678(6) 0.1548(5) 1.1935(4)
C13A C 0.1321(6) 0.1434(5) 1.1273(5)
H7A H 0.0962 0.0953 1.0433
C14A C 0.0486(6) 0.2011(6) 1.1819(5)
H8A H -0.0454 0.1908 1.1355
C15A C 0.1009(6) 0.2744(6) 1.3046(5)
H9A H 0.044 0.3157 1.3417
C16A C 0.2365(6) 0.2866(6) 1.3718(5)
C17A C 0.3193(6) 0.2253(6) 1.3168(5)
H10A H 0.4111 0.2317 1.3634
C18A C 0.2994(7) 0.3674(6) 1.5011(5)
C19A C 0.4513(9) 0.4600(8) 1.6851(6)
H11A H 0.535 0.4755 1.748
C20A C 0.3588(9) 0.5221(8) 1.7029(6)
H12A H 0.3681 0.5843 1.7774
N1A N -0.2087(5) -0.8284(4) 0.7623(4)
N2A N 0.4184(7) 0.3728(6) 1.5708(4)
O1A O 0.4424(4) -0.1793(4) 1.0600(4)
O2A O 0.2838(4) -0.2090(4) 0.8865(3)
O3A O 0.4740(4) 0.0947(4) 1.1943(3)
O4A O 0.3146(5) 0.0559(4) 1.0183(3)
S1A S -0.22215(18) -0.63275(16) 0.68315(13)
S2A S 0.2219(2) 0.4728(2) 1.57197(17)
Zn1A Zn 0.60232(7) 0.01610(7) 1.11492(6)
N3A N 0.7411(5) 0.0080(4) 1.2594(4)
Zn1A Zn -0.39768(7) 0.01610(7) 0.11492(6)

#END
