
#######################################################################
#
#                 Cambridge Crystallographic Data Centre
#                                CCDC 
#
#######################################################################
#
# If this CIF has been generated from an entry in the Cambridge 
# Structural Database, then it will include bibliographic, chemical, 
# crystal, experimental, refinement or atomic coordinate data resulting 
# from the CCDC's data processing and validation procedures.
#
#######################################################################

data_ABOSAL
_symmetry_cell_setting           monoclinic
_symmetry_space_group_name_H-M   'P 21/n'
_symmetry_Int_Tables_number      14
_space_group_name_Hall           '-P 2yn'
loop_
_symmetry_equiv_pos_site_id
_symmetry_equiv_pos_as_xyz
1 x,y,z
2 1/2+x,1/2-y,1/2+z
3 -x,-y,-z
4 1/2-x,1/2+y,1/2-z
_cell_length_a                   12.4750(10)
_cell_length_b                   10.0560(10)
_cell_length_c                   15.402(2)
_cell_angle_alpha                90.0
_cell_angle_beta                 104.150(10)
_cell_angle_gamma                90.0
_cell_volume                     1873.54
loop_
_atom_site_label
_atom_site_type_symbol
_atom_site_fract_x
_atom_site_fract_y
_atom_site_fract_z
N1 N 0.7144(3) 0.0454(4) 0.0247(2)
N2 N 0.7061(3) 0.1576(3) 0.0715(2)
N3 N 0.5656(2) 0.1751(3) 0.2519(2)
N4 N 0.5243(3) 0.2391(4) 0.4662(2)
N5 N 0.4497(3) 0.1763(4) 0.5044(2)
C1 C 0.7788(4) 0.0480(5) -0.0431(3)
H1 H 0.7664(18) 0.1308(12) -0.0750(12)
H2 H 0.7561(16) -0.0242(17) -0.0842(11)
H3 H 0.8559(4) 0.039(3) -0.0144(3)
C2 C 0.6585(3) -0.0591(4) 0.0481(2)
C3 C 0.6553(3) -0.1958(4) 0.0118(3)
H4 H 0.7283(3) -0.2214(4) 0.0062(3)
H5 H 0.6049(3) -0.1997(4) -0.0470(3)
C4 C 0.6172(5) -0.2897(5) 0.0751(4)
H6 H 0.5899(5) -0.3703(5) 0.0425(4)
H7 H 0.6808(5) -0.3139(5) 0.1226(4)
C5 C 0.5321(4) -0.2392(5) 0.1155(4)
H8 H 0.5205(4) -0.3047(5) 0.1585(4)
H9 H 0.4641(4) -0.2338(5) 0.0689(4)
C6 C 0.5495(3) -0.1070(4) 0.1621(3)
H10 H 0.5909(3) -0.1194(4) 0.2236(3)
H11 H 0.4784(3) -0.0685(4) 0.1628(3)
C7 C 0.6114(3) -0.0134(4) 0.1154(2)
C8 C 0.6427(3) 0.1211(4) 0.1274(2)
C9 C 0.6192(3) 0.2200(4) 0.1914(2)
C10 C 0.6524(3) 0.3516(4) 0.1894(3)
H12 H 0.6870(3) 0.3803(4) 0.1456(3)
C11 C 0.6336(3) 0.4391(4) 0.2525(3)
H13 H 0.6566(3) 0.5271(4) 0.2529(3)
C12 C 0.5801(3) 0.3943(4) 0.3153(3)
H14 H 0.5659(3) 0.4520(4) 0.3584(3)
C13 C 0.5480(3) 0.2632(4) 0.3135(2)
C14 C 0.4882(3) 0.2092(4) 0.3785(2)
C15 C 0.3932(3) 0.1300(4) 0.3613(2)
C16 C 0.3199(3) 0.0791(5) 0.2760(3)
H15 H 0.3528(3) 0.0011(5) 0.2560(3)
H16 H 0.3113(3) 0.1466(5) 0.2298(3)
C17 C 0.2080(4) 0.0438(6) 0.2916(3)
H17 H 0.1669(4) 0.1254(6) 0.2930(3)
H18 H 0.1676(4) -0.0084(6) 0.2412(3)
C18 C 0.2120(4) -0.0313(6) 0.3748(3)
H19 H 0.2468(4) -0.1165(6) 0.3708(3)
H20 H 0.1368(4) -0.0485(6) 0.3787(3)
C19 C 0.2738(4) 0.0373(5) 0.4613(3)
H21 H 0.2250(4) 0.0990(5) 0.4812(3)
H22 H 0.2990(4) -0.0283(5) 0.5080(3)
C20 C 0.3714(3) 0.1110(4) 0.4433(3)
C21 C 0.4625(4) 0.1845(5) 0.6010(2)
H23 H 0.5299(12) 0.230(2) 0.6279(3)
H24 H 0.465(2) 0.0965(5) 0.6255(3)
H25 H 0.4010(12) 0.232(2) 0.6132(2)
N1 N 0.2144(3) 0.4546(4) 0.5247(2)
N2 N 0.2061(3) 0.3424(3) 0.5715(2)
N3 N 0.0656(2) 0.3249(3) 0.7519(2)
N4 N 0.0243(3) 0.2609(4) 0.9662(2)
N5 N -0.0503(3) 0.3237(4) 1.0044(2)
C1 C 0.2788(4) 0.4520(5) 0.4569(3)
H1 H 0.2664(18) 0.3692(12) 0.4250(12)
H2 H 0.2561(16) 0.5242(17) 0.4158(11)
H3 H 0.3559(4) 0.461(3) 0.4856(3)
C2 C 0.1585(3) 0.5591(4) 0.5481(2)
C3 C 0.1553(3) 0.6958(4) 0.5118(3)
H4 H 0.2283(3) 0.7214(4) 0.5062(3)
H5 H 0.1049(3) 0.6997(4) 0.4530(3)
C4 C 0.1172(5) 0.7897(5) 0.5751(4)
H6 H 0.0899(5) 0.8703(5) 0.5425(4)
H7 H 0.1808(5) 0.8139(5) 0.6226(4)
C5 C 0.0321(4) 0.7392(5) 0.6155(4)
H8 H 0.0205(4) 0.8047(5) 0.6585(4)
H9 H -0.0359(4) 0.7338(5) 0.5689(4)
C6 C 0.0495(3) 0.6070(4) 0.6621(3)
H10 H 0.0909(3) 0.6194(4) 0.7236(3)
H11 H -0.0216(3) 0.5685(4) 0.6628(3)
C7 C 0.1114(3) 0.5134(4) 0.6154(2)
C8 C 0.1427(3) 0.3789(4) 0.6274(2)
C9 C 0.1192(3) 0.2800(4) 0.6914(2)
C10 C 0.1524(3) 0.1484(4) 0.6894(3)
H12 H 0.1870(3) 0.1197(4) 0.6456(3)
C11 C 0.1336(3) 0.0609(4) 0.7525(3)
H13 H 0.1566(3) -0.0271(4) 0.7529(3)
C12 C 0.0801(3) 0.1057(4) 0.8153(3)
H14 H 0.0659(3) 0.0480(4) 0.8584(3)
C13 C 0.0480(3) 0.2368(4) 0.8135(2)
C14 C -0.0118(3) 0.2908(4) 0.8785(2)
C15 C -0.1068(3) 0.3700(4) 0.8613(2)
C16 C -0.1801(3) 0.4209(5) 0.7760(3)
H15 H -0.1472(3) 0.4989(5) 0.7560(3)
H16 H -0.1887(3) 0.3534(5) 0.7298(3)
C17 C -0.2920(4) 0.4562(6) 0.7916(3)
H17 H -0.3331(4) 0.3746(6) 0.7930(3)
H18 H -0.3324(4) 0.5084(6) 0.7412(3)
C18 C -0.2880(4) 0.5313(6) 0.8748(3)
H19 H -0.2532(4) 0.6165(6) 0.8708(3)
H20 H -0.3632(4) 0.5485(6) 0.8787(3)
C19 C -0.2262(4) 0.4627(5) 0.9613(3)
H21 H -0.2750(4) 0.4010(5) 0.9812(3)
H22 H -0.2010(4) 0.5283(5) 1.0080(3)
C20 C -0.1286(3) 0.3890(4) 0.9433(3)
C21 C -0.0375(4) 0.3155(5) 1.1010(2)
H23 H 0.0299(12) 0.270(2) 1.1279(3)
H24 H -0.035(2) 0.4035(5) 1.1255(3)
H25 H -0.0990(12) 0.268(2) 1.1132(2)
N1 N 0.2856(3) 0.9546(4) 0.9753(2)
N2 N 0.2939(3) 0.8424(3) 0.9285(2)
N3 N 0.4344(2) 0.8249(3) 0.7481(2)
N4 N 0.4757(3) 0.7609(4) 0.5338(2)
N5 N 0.5503(3) 0.8237(4) 0.4956(2)
C1 C 0.2212(4) 0.9520(5) 1.0431(3)
H1 H 0.2336(18) 0.8692(12) 1.0750(12)
H2 H 0.2439(16) 1.0242(17) 1.0842(11)
H3 H 0.1441(4) 0.961(3) 1.0144(3)
C2 C 0.3415(3) 1.0591(4) 0.9519(2)
C3 C 0.3447(3) 1.1958(4) 0.9882(3)
H4 H 0.2717(3) 1.2214(4) 0.9938(3)
H5 H 0.3951(3) 1.1997(4) 1.0470(3)
C4 C 0.3828(5) 1.2897(5) 0.9249(4)
H6 H 0.4101(5) 1.3703(5) 0.9575(4)
H7 H 0.3192(5) 1.3139(5) 0.8774(4)
C5 C 0.4679(4) 1.2392(5) 0.8845(4)
H8 H 0.4795(4) 1.3047(5) 0.8415(4)
H9 H 0.5359(4) 1.2338(5) 0.9311(4)
C6 C 0.4505(3) 1.1070(4) 0.8379(3)
H10 H 0.4091(3) 1.1194(4) 0.7764(3)
H11 H 0.5216(3) 1.0685(4) 0.8372(3)
C7 C 0.3886(3) 1.0134(4) 0.8846(2)
C8 C 0.3573(3) 0.8789(4) 0.8726(2)
C9 C 0.3808(3) 0.7800(4) 0.8086(2)
C10 C 0.3476(3) 0.6484(4) 0.8106(3)
H12 H 0.3130(3) 0.6197(4) 0.8544(3)
C11 C 0.3664(3) 0.5609(4) 0.7475(3)
H13 H 0.3434(3) 0.4729(4) 0.7471(3)
C12 C 0.4199(3) 0.6057(4) 0.6847(3)
H14 H 0.4341(3) 0.5480(4) 0.6416(3)
C13 C 0.4520(3) 0.7368(4) 0.6865(2)
C14 C 0.5118(3) 0.7908(4) 0.6215(2)
C15 C 0.6068(3) 0.8700(4) 0.6387(2)
C16 C 0.6801(3) 0.9209(5) 0.7240(3)
H15 H 0.6472(3) 0.9989(5) 0.7440(3)
H16 H 0.6887(3) 0.8534(5) 0.7702(3)
C17 C 0.7920(4) 0.9562(6) 0.7084(3)
H17 H 0.8331(4) 0.8746(6) 0.7070(3)
H18 H 0.8324(4) 1.0084(6) 0.7588(3)
C18 C 0.7880(4) 1.0313(6) 0.6252(3)
H19 H 0.7532(4) 1.1165(6) 0.6292(3)
H20 H 0.8632(4) 1.0485(6) 0.6213(3)
C19 C 0.7262(4) 0.9627(5) 0.5387(3)
H21 H 0.7750(4) 0.9010(5) 0.5188(3)
H22 H 0.7010(4) 1.0283(5) 0.4920(3)
C20 C 0.6286(3) 0.8890(4) 0.5567(3)
C21 C 0.5375(4) 0.8155(5) 0.3990(2)
H23 H 0.4701(12) 0.770(2) 0.3721(3)
H24 H 0.535(2) 0.9035(5) 0.3745(3)
H25 H 0.5990(12) 0.768(2) 0.3868(2)
N1 N 0.7856(3) 0.5454(4) 0.4753(2)
N2 N 0.7939(3) 0.6576(3) 0.4285(2)
N3 N 0.9344(2) 0.6751(3) 0.2481(2)
N4 N 0.9757(3) 0.7391(4) 0.0338(2)
N5 N 1.0503(3) 0.6763(4) -0.0044(2)
C1 C 0.7212(4) 0.5480(5) 0.5431(3)
H1 H 0.7336(18) 0.6308(12) 0.5750(12)
H2 H 0.7439(16) 0.4758(17) 0.5842(11)
H3 H 0.6441(4) 0.539(3) 0.5144(3)
C2 C 0.8415(3) 0.4409(4) 0.4519(2)
C3 C 0.8447(3) 0.3042(4) 0.4882(3)
H4 H 0.7717(3) 0.2786(4) 0.4938(3)
H5 H 0.8951(3) 0.3003(4) 0.5470(3)
C4 C 0.8828(5) 0.2103(5) 0.4249(4)
H6 H 0.9101(5) 0.1297(5) 0.4575(4)
H7 H 0.8192(5) 0.1861(5) 0.3774(4)
C5 C 0.9679(4) 0.2608(5) 0.3845(4)
H8 H 0.9795(4) 0.1953(5) 0.3415(4)
H9 H 1.0359(4) 0.2662(5) 0.4311(4)
C6 C 0.9505(3) 0.3930(4) 0.3379(3)
H10 H 0.9091(3) 0.3806(4) 0.2764(3)
H11 H 1.0216(3) 0.4315(4) 0.3372(3)
C7 C 0.8886(3) 0.4866(4) 0.3846(2)
C8 C 0.8573(3) 0.6211(4) 0.3726(2)
C9 C 0.8808(3) 0.7200(4) 0.3086(2)
C10 C 0.8476(3) 0.8516(4) 0.3106(3)
H12 H 0.8130(3) 0.8803(4) 0.3544(3)
C11 C 0.8664(3) 0.9391(4) 0.2475(3)
H13 H 0.8434(3) 1.0271(4) 0.2471(3)
C12 C 0.9199(3) 0.8943(4) 0.1847(3)
H14 H 0.9341(3) 0.9520(4) 0.1416(3)
C13 C 0.9520(3) 0.7632(4) 0.1865(2)
C14 C 1.0118(3) 0.7092(4) 0.1215(2)
C15 C 1.1068(3) 0.6300(4) 0.1387(2)
C16 C 1.1801(3) 0.5791(5) 0.2240(3)
H15 H 1.1472(3) 0.5011(5) 0.2440(3)
H16 H 1.1887(3) 0.6466(5) 0.2702(3)
C17 C 1.2920(4) 0.5438(6) 0.2084(3)
H17 H 1.3331(4) 0.6254(6) 0.2070(3)
H18 H 1.3324(4) 0.4916(6) 0.2588(3)
C18 C 1.2880(4) 0.4687(6) 0.1252(3)
H19 H 1.2532(4) 0.3835(6) 0.1292(3)
H20 H 1.3632(4) 0.4515(6) 0.1213(3)
C19 C 1.2262(4) 0.5373(5) 0.0387(3)
H21 H 1.2750(4) 0.5990(5) 0.0188(3)
H22 H 1.2010(4) 0.4717(5) -0.0080(3)
C20 C 1.1286(3) 0.6110(4) 0.0567(3)
C21 C 1.0375(4) 0.6845(5) -0.1010(2)
H23 H 0.9701(12) 0.730(2) -0.1279(3)
H24 H 1.035(2) 0.5965(5) -0.1255(3)
H25 H 1.0990(12) 0.732(2) -0.1132(2)

#END
