./ABOSOB_from_POSCAR.cif_generated_by_CrystalShift
_symmetry_cell_setting triclinic
_symmetry_space_group_name_H-M 'P 1'
loop_
_symmetry_equiv_pos_site_id
_symmetry_equiv_pos_as_xyz
1 x,y,z
_cell_length_a 9.792000
_cell_length_b 9.792000
_cell_length_c 15.788000
_cell_angle_alpha 90.000000
_cell_angle_beta 90.000000
_cell_angle_gamma 90.000000
_cell_volume 1513.804972
loop_
_atom_site_label
_atom_site_type_symbol
_atom_site_fract_x
_atom_site_fract_y
_atom_site_fract_z
H1 H 0.537000 0.410000 0.908500
H2 H 0.368700 0.988900 1.052300
H3 H 0.799500 -0.137700 1.073500
H4 H 0.646300 -0.183100 1.084300
H5 H 0.342800 0.713100 0.728500
H6 H 0.568300 0.236000 0.973200
H7 H 0.240600 0.916400 0.691800
H8 H 0.186000 1.072500 0.794100
H9 H 0.232600 1.028400 0.934200
H10 H -0.028400 0.232600 0.184200
H11 H 0.223600 0.923800 1.063100
H12 H -0.072500 0.186000 0.044100
H13 H 0.454400 0.610800 0.933300
H14 H 0.083600 0.240600 -0.058200
H15 H 0.463000 0.590000 0.408500
H16 H 0.286900 0.342800 -0.021500
H17 H 0.200500 1.137700 0.573500
H18 H 0.011100 0.368700 0.302300
H19 H 0.131600 0.347000 0.366200
H20 H 0.076200 0.223600 0.313100
H21 H 0.353700 1.183100 0.584300
H22 H 0.389200 0.454400 0.183300
H23 H 0.431700 0.764000 0.473200
H24 H 0.345000 1.139800 0.296800
H25 H 0.433300 0.937300 0.241700
H26 H 0.937300 0.566700 -0.008300
H27 H 0.545600 0.389200 0.433300
H28 H 1.139800 0.655000 0.046800
H29 H 0.776400 0.076200 0.563100
H30 H 0.653000 0.131600 0.616200
H31 H 0.631300 0.011100 0.552300
H32 H 0.764000 0.568300 0.223200
H33 H 0.657200 0.286900 0.228500
H34 H 1.183100 0.646300 0.334300
H35 H 1.137700 0.799500 0.323500
H36 H 0.590000 0.537000 0.158500
H37 H 0.759400 0.083600 0.191800
H38 H 0.814000 -0.072500 0.294100
H39 H 0.767400 -0.028400 0.434200
H40 H 0.566700 0.062700 0.741700
H41 H 0.410000 0.463000 0.658500
H42 H 0.655000 -0.139800 0.796800
H43 H -0.137700 0.200500 0.823500
H44 H -0.183100 0.353700 0.834300
H45 H 0.236000 0.431700 0.723200
H46 H 1.028400 0.767400 0.684200
H47 H -0.139800 0.345000 0.546800
H48 H 1.072500 0.814000 0.544100
H49 H 0.062700 0.433300 0.491700
H50 H 0.916400 0.759400 0.441800
H51 H 0.610800 0.545600 0.683300
H52 H 0.713100 0.657200 0.478500
H53 H 0.923800 0.776400 0.813100
H54 H 0.988900 0.631300 0.802300
H55 H 0.868400 0.653000 0.866200
H56 H 0.347000 0.868400 1.116200
C57 C 0.620100 0.580400 0.628770
C58 C 0.776300 0.678700 0.520500
C59 C 0.293300 0.498400 0.558890
C60 C 0.168800 0.440100 0.599900
C61 C 0.056700 0.414800 0.549400
C62 C 0.897900 0.740100 0.498300
C63 C -0.065100 0.362700 0.581400
C64 C 0.990700 0.772400 0.559200
C65 C -0.068400 0.339300 0.666400
C66 C 0.042200 0.364000 0.717170
C67 C 0.162300 0.414700 0.687580
C68 C 0.964700 0.744300 0.642900
C69 C -0.129200 0.291700 0.800000
C70 C 0.843800 0.681800 0.665750
C71 C 0.746600 0.648200 0.604400
C72 C 0.660700 -0.068400 0.916400
C73 C 0.319900 0.905500 1.062500
C74 C 0.708300 -0.129200 1.050000
C75 C 0.637300 -0.065100 0.831400
C76 C 0.636000 0.042200 0.967170
C77 C 0.585200 0.056700 0.799400
C78 C 0.559900 0.168800 0.849900
C79 C 0.648200 0.253400 0.354400
C80 C 0.681800 0.156200 0.415750
C81 C 0.744300 0.035300 0.392900
C82 C 0.585300 0.162300 0.937580
C83 C 0.772400 0.009300 0.309200
C84 C 0.321300 0.776300 0.770500
C85 C 0.740100 0.102100 0.248300
C86 C 0.253400 0.351800 0.104400
C87 C 0.678700 0.223700 0.270500
C88 C 1.129200 0.708300 0.300000
C89 C 0.680100 0.094500 0.562500
C90 C 0.837700 0.585300 0.187580
C91 C 0.957800 0.636000 0.217170
C92 C 1.068400 0.660700 0.166400
C93 C 0.580400 0.379900 0.378770
C94 C 1.065100 0.637300 0.081400
C95 C 0.498400 0.706700 0.308890
C96 C 0.440100 0.831200 0.349900
C97 C 0.414800 0.943300 0.299400
C98 C 0.943300 0.585200 0.049400
C99 C 0.362700 1.065100 0.331400
C100 C 0.831200 0.559900 0.099900
C101 C 0.339300 1.068400 0.416400
C102 C 0.364000 0.957800 0.467170
C103 C 0.414700 0.837700 0.437580
C104 C 0.706700 0.501600 0.058890
C105 C 0.291700 1.129200 0.550000
C106 C 0.379900 0.419600 0.128770
C107 C 0.094500 0.319900 0.312500
C108 C 0.223700 0.321300 0.020500
C109 C 0.259900 0.897900 0.748300
C110 C 0.156200 0.318200 0.165750
C111 C 0.501600 0.293300 0.808890
C112 C 0.102100 0.259900 -0.001700
C113 C 0.419600 0.620100 0.878770
C114 C 0.009300 0.227600 0.059200
C115 C 0.351800 0.746600 0.854400
C116 C 0.318200 0.843800 0.915750
C117 C 0.255700 0.964700 0.892900
C118 C 0.035300 0.255700 0.142900
C119 C 0.227600 0.990700 0.809200
C120 C 0.905500 0.680100 0.812500
N121 N 0.521700 0.568100 0.576110
N122 N 0.406800 0.502400 0.607220
N123 N 0.502400 0.593200 0.357220
N124 N 0.568100 0.478300 0.326110
N125 N 0.593200 0.497600 0.107220
N126 N 0.431900 0.521700 0.826110
N127 N 0.497600 0.406800 0.857220
N128 N 0.478300 0.431900 0.076110
O129 O 0.667000 0.009800 1.049820
O130 O 0.458400 0.291230 0.735690
O131 O 0.350100 0.810000 0.997200
O132 O 0.293300 1.176500 0.464490
O133 O 0.333000 0.990200 0.549820
O134 O 0.541600 0.708770 0.235690
O135 O 0.649900 0.190000 0.497200
O136 O -0.176500 0.293300 0.714490
O137 O 0.009800 0.333000 0.799820
O138 O 0.291230 0.541600 0.485690
O139 O 0.810000 0.649900 0.747200
O140 O 1.176500 0.706700 0.214490
O141 O 0.990200 0.667000 0.299820
O142 O 0.708770 0.458400 -0.014310
O143 O 0.190000 0.350100 0.247200
O144 O 0.706700 -0.176500 0.964490

#END
