./ABPZCU_from_POSCAR.cif_generated_by_CrystalShift
_symmetry_cell_setting triclinic
_symmetry_space_group_name_H-M 'P 1'
loop_
_symmetry_equiv_pos_site_id
_symmetry_equiv_pos_as_xyz
1 x,y,z
_cell_length_a 15.136000
_cell_length_b 12.464000
_cell_length_c 6.999000
_cell_angle_alpha 90.000000
_cell_angle_beta 105.970000
_cell_angle_gamma 90.000000
_cell_volume 1269.437520
loop_
_atom_site_label
_atom_site_type_symbol
_atom_site_fract_x
_atom_site_fract_y
_atom_site_fract_z
C1 C 0.050600 0.443300 0.261000
C2 C 1.050600 0.443300 0.261000
C3 C 1.179700 0.340600 0.298000
C4 C 1.236200 0.426000 0.314000
C5 C 1.195800 0.529000 0.305000
C6 C 1.102900 0.538300 0.279000
C7 C 1.179700 0.659400 0.798000
C8 C 1.236200 0.574000 0.814000
C9 C 0.679700 0.159400 0.798000
C10 C 0.736200 0.074000 0.814000
C11 C 0.695800 -0.029000 0.805000
C12 C 0.949400 0.443300 0.239000
C13 C 0.897100 0.538300 0.221000
C14 C 0.804200 0.529000 0.195000
C15 C 0.763800 0.426000 0.186000
C16 C 0.820300 0.340600 0.202000
C17 C 0.602900 -0.038300 0.779000
C18 C 0.550600 0.056700 0.761000
C19 C 1.195800 0.471000 0.805000
C20 C 0.397100 -0.038300 0.721000
C21 C 0.304200 -0.029000 0.695000
C22 C 0.263800 0.074000 0.686000
C23 C 0.320300 0.159400 0.702000
C24 C 0.550600 0.943300 0.261000
C25 C 0.679700 0.840600 0.298000
C26 C 0.736200 0.926000 0.314000
C27 C 0.695800 1.029000 0.305000
C28 C 0.602900 1.038300 0.279000
C29 C 0.449400 0.056700 0.739000
C30 C 1.102900 0.461700 0.779000
C31 C 0.179700 0.659400 0.798000
C32 C 0.236200 0.574000 0.814000
C33 C 0.820300 0.659400 0.702000
C34 C 0.449400 0.943300 0.239000
C35 C 0.397100 1.038300 0.221000
C36 C 0.304200 1.029000 0.195000
C37 C 0.263800 0.926000 0.186000
C38 C 0.320300 0.840600 0.202000
C39 C 0.195800 0.471000 0.805000
C40 C 0.102900 0.461700 0.779000
C41 C 0.050600 0.556700 0.761000
C42 C -0.102900 0.461700 0.721000
C43 C -0.195800 0.471000 0.695000
C44 C 0.763800 0.574000 0.686000
C45 C -0.236200 0.574000 0.686000
C46 C 0.804200 0.471000 0.695000
C47 C -0.179700 0.659400 0.702000
C48 C -0.050600 0.556700 0.739000
C49 C 0.897100 0.461700 0.721000
C50 C 0.949400 0.556700 0.739000
C51 C -0.050600 0.443300 0.239000
C52 C -0.179700 0.340600 0.202000
C53 C -0.236200 0.426000 0.186000
C54 C -0.195800 0.529000 0.195000
C55 C -0.102900 0.538300 0.221000
C56 C 0.179700 0.340600 0.298000
C57 C 0.236200 0.426000 0.314000
C58 C 0.195800 0.529000 0.305000
C59 C 0.102900 0.538300 0.279000
C60 C 1.050600 0.556700 0.761000
N61 N 1.088300 0.347800 0.274000
N62 N 0.911700 0.347800 0.226000
N63 N 0.411700 0.152200 0.726000
N64 N 0.911700 0.652200 0.726000
N65 N -0.088300 0.347800 0.226000
N66 N 0.088300 0.347800 0.274000
N67 N 0.588300 0.847800 0.274000
N68 N 1.088300 0.652200 0.774000
N69 N 0.088300 0.652200 0.774000
N70 N 0.588300 0.152200 0.774000
N71 N 0.411700 0.847800 0.226000
N72 N -0.088300 0.652200 0.726000
O73 O 0.534100 0.718500 -0.389000
O74 O 0.574600 0.583900 -0.131000
O75 O 0.425400 0.583900 -0.369000
O76 O 0.465900 0.718500 -0.111000
O77 O 0.405800 0.616600 0.255000
O78 O 1.034100 0.781500 1.111000
O79 O -0.074600 0.916100 0.131000
O80 O -0.034100 0.781500 0.389000
O81 O -0.094200 0.883400 0.755000
O82 O 1.074600 0.916100 1.369000
O83 O 0.465900 0.718500 0.889000
O84 O 0.425400 0.583900 0.631000
O85 O 0.905800 0.883400 0.755000
O86 O 0.034100 0.218500 0.611000
O87 O 0.534100 0.718500 0.611000
O88 O 0.094200 0.116600 0.245000
O89 O 0.074600 0.916100 0.369000
O90 O 0.034100 0.781500 0.111000
O91 O 0.094200 0.883400 0.745000
O92 O 0.034100 0.781500 1.111000
O93 O 0.034100 0.218500 -0.389000
O94 O 0.574600 0.583900 0.869000
O95 O 0.074600 0.083900 -0.131000
O96 O -0.074600 0.083900 -0.369000
O97 O 0.925400 0.916100 1.131000
O98 O 0.965900 0.218500 -0.111000
O99 O 0.905800 0.116600 0.255000
O100 O -0.034100 0.218500 -0.111000
O101 O 0.425400 0.416100 0.131000
O102 O 0.465900 0.281500 0.389000
O103 O 0.405800 0.383400 0.755000
O104 O 0.965900 0.218500 0.889000
O105 O 0.925400 0.083900 0.631000
O106 O -0.094200 0.116600 0.255000
O107 O 0.965900 0.781500 1.389000
O108 O 1.094200 0.116600 0.245000
O109 O 1.034100 0.218500 0.611000
O110 O 0.594200 0.616600 0.245000
O111 O 0.574600 0.416100 0.369000
O112 O 0.534100 0.281500 0.111000
O113 O 0.594200 0.383400 0.745000
O114 O 0.534100 0.281500 1.111000
O115 O 1.074600 0.083900 0.869000
O116 O 0.574600 0.416100 1.369000
O117 O 1.094200 0.883400 0.745000
O118 O 0.425400 0.416100 1.131000
O119 O 0.465900 0.281500 1.389000
O120 O 0.965900 0.781500 0.389000
S121 S 1.000000 0.845600 1.250000
S122 S 0.500000 0.654400 0.750000
S123 S 0.500000 0.345600 1.250000
S124 S 0.500000 0.654400 -0.250000
S125 S 0.500000 0.345600 0.250000
S126 S 0.000000 0.154400 -0.250000
S127 S 0.000000 0.845600 0.250000
S128 S 1.000000 0.154400 0.750000
Cu129 Cu 0.000000 0.774600 0.750000
Cu130 Cu 0.500000 0.274600 0.750000
Cu131 Cu 1.000000 0.774600 0.750000
Cu132 Cu 0.000000 0.225400 0.250000
Cu133 Cu 0.500000 0.725400 -0.750000
Cu134 Cu 0.500000 0.274600 -0.250000
Cu135 Cu 0.500000 0.725400 1.250000
Cu136 Cu 0.500000 0.274600 1.750000
Cu137 Cu 0.500000 0.725400 0.250000
Cu138 Cu 1.000000 0.225400 1.250000
Cu139 Cu 0.000000 0.774600 -0.250000
Cu140 Cu 0.000000 0.225400 -0.750000
Cu141 Cu 1.000000 0.225400 0.250000
Cu142 Cu 1.000000 0.774600 1.750000

#END
