./ABRBPH_from_POSCAR.cif_generated_by_CrystalShift
_symmetry_cell_setting triclinic
_symmetry_space_group_name_H-M 'P 1'
loop_
_symmetry_equiv_pos_site_id
_symmetry_equiv_pos_as_xyz
1 x,y,z
_cell_length_a 3.910000
_cell_length_b 9.060000
_cell_length_c 32.760000
_cell_angle_alpha 90.000000
_cell_angle_beta 98.100000
_cell_angle_gamma 90.000000
_cell_volume 1148.932252
loop_
_atom_site_label
_atom_site_type_symbol
_atom_site_fract_x
_atom_site_fract_y
_atom_site_fract_z
H1 H 0.317000 0.490000 0.524000
H2 H 0.355000 0.581000 0.704000
H3 H 0.461000 -0.012000 0.539000
H4 H 0.099000 0.024000 0.563000
H5 H 0.512000 0.056000 0.590000
H6 H 0.060000 0.401000 0.666000
H7 H 0.176000 0.192000 0.621000
H8 H -0.275000 1.025000 0.647000
H9 H 0.683000 -0.010000 0.976000
H10 H 0.777000 0.199000 0.929000
H11 H 1.185000 0.325000 0.898000
H12 H 1.275000 0.525000 0.853000
H13 H 1.011000 0.534000 0.777000
H14 H 0.645000 0.081000 0.796000
H15 H 0.539000 -0.512000 0.961000
H16 H 0.176000 1.308000 0.121000
H17 H 0.060000 1.099000 0.166000
H18 H 0.512000 1.444000 0.090000
H19 H 0.099000 1.476000 0.063000
H20 H 0.461000 1.512000 0.039000
H21 H 0.355000 0.919000 0.204000
H22 H -0.011000 0.466000 0.223000
H23 H -0.275000 0.475000 0.147000
H24 H -0.185000 0.675000 0.102000
H25 H 0.223000 0.801000 0.071000
H26 H 0.317000 1.010000 0.024000
H27 H 0.901000 -0.476000 0.937000
H28 H 0.223000 0.699000 0.571000
H29 H 0.488000 -0.444000 0.910000
H30 H 0.940000 -0.099000 0.834000
H31 H 0.824000 -0.308000 0.879000
H32 H -0.185000 0.825000 0.602000
H33 H 0.683000 0.510000 0.476000
H34 H 0.777000 0.301000 0.429000
H35 H 1.185000 0.175000 0.398000
H36 H 1.275000 -0.025000 0.353000
H37 H 1.011000 -0.034000 0.277000
H38 H 0.645000 0.419000 0.296000
H39 H 0.539000 1.012000 0.461000
H40 H 0.901000 0.976000 0.437000
H41 H 0.488000 0.944000 0.410000
H42 H 0.940000 0.599000 0.334000
H43 H 0.824000 0.808000 0.379000
H44 H -0.011000 1.034000 0.723000
C45 C 0.790900 0.410400 0.418200
C46 C 0.867600 0.434100 0.378500
C47 C 1.085300 0.182400 0.365800
C48 C 1.130300 0.067000 0.340600
C49 C 0.987800 0.066900 0.298300
C50 C 0.817700 0.196900 0.284700
C51 C 0.778300 0.318400 0.309100
C52 C 0.648700 0.932100 0.441100
C53 C 0.657200 0.792100 0.456200
C54 C 0.090400 0.810400 0.149400
C55 C 0.879700 0.578300 0.364500
C56 C 0.909600 0.189600 0.850600
C57 C 0.737700 -0.168300 0.928800
C58 C 0.814300 -0.196800 0.890000
C59 C 0.879700 -0.078300 0.864500
C60 C 0.657200 -0.292100 0.956200
C61 C 0.648700 -0.432100 0.941100
C62 C 0.778300 0.181600 0.809100
C63 C 0.817700 0.303100 0.784700
C64 C 0.987800 0.433100 0.798300
C65 C 1.130300 0.433000 0.840600
C66 C 1.085300 0.317600 0.865800
C67 C 0.867600 0.065900 0.878500
C68 C 0.790900 0.089600 0.918200
C69 C 0.732500 -0.029200 0.943800
C70 C 0.814300 0.696800 0.390000
C71 C 0.737700 0.668300 0.428800
C72 C 0.909600 0.310400 0.350600
C73 C 0.262300 1.168300 0.071200
C74 C 0.267500 1.029200 0.056200
C75 C 0.209100 0.910400 0.081800
C76 C 0.132400 0.934100 0.121500
C77 C -0.085300 0.682400 0.134200
C78 C -0.130300 0.567000 0.159400
C79 C 0.012200 0.566900 0.201700
C80 C 0.182300 0.696900 0.215300
C81 C 0.185700 1.196800 0.110000
C82 C 0.221700 0.818400 0.190900
C83 C 0.090400 0.689600 0.649400
C84 C 0.262300 0.331700 0.571200
C85 C 0.185700 0.303200 0.610000
C86 C 0.120300 0.421700 0.635500
C87 C 0.342800 0.207900 0.543800
C88 C 0.351300 0.067900 0.558900
C89 C 0.221700 0.681600 0.690900
C90 C 0.182300 0.803100 0.715300
C91 C 0.012200 0.933100 0.701700
C92 C -0.130300 0.933000 0.659400
C93 C -0.085300 0.817600 0.634200
C94 C 0.132400 0.565900 0.621500
C95 C 0.209100 0.589600 0.581800
C96 C 0.267500 0.470800 0.556200
C97 C 0.351300 1.432100 0.058900
C98 C 0.342800 1.292100 0.043800
C99 C 0.120300 1.078300 0.135500
C100 C 0.732500 0.529200 0.443800
O101 O 0.585500 0.764600 0.494400
O102 O 0.414500 1.264600 0.005600
O103 O 0.585500 -0.264600 0.994400
O104 O 0.414500 0.235400 0.505600
Br105 Br 0.624300 0.204800 0.228900
Br106 Br 0.624300 0.295200 0.728900
Br107 Br 0.375700 0.795200 0.771100
Br108 Br 0.375700 0.704800 0.271100

#END
