
#######################################################################
#
#                 Cambridge Crystallographic Data Centre
#                                CCDC 
#
#######################################################################
#
# If this CIF has been generated from an entry in the Cambridge 
# Structural Database, then it will include bibliographic, chemical, 
# crystal, experimental, refinement or atomic coordinate data resulting 
# from the CCDC's data processing and validation procedures.
#
#######################################################################

data_ABUDAD
_symmetry_cell_setting           monoclinic
_symmetry_space_group_name_H-M   'P 21/c'
_symmetry_Int_Tables_number      14
_space_group_name_Hall           '-P 2ybc'
loop_
_symmetry_equiv_pos_site_id
_symmetry_equiv_pos_as_xyz
1 x,y,z
2 x,1/2-y,1/2+z
3 -x,-y,-z
4 -x,1/2+y,1/2-z
_cell_length_a                   5.962(1)
_cell_length_b                   7.267(1)
_cell_length_c                   28.689(1)
_cell_angle_alpha                90
_cell_angle_beta                 94.90(1)
_cell_angle_gamma                90
_cell_volume                     1238.43
loop_
_atom_site_label
_atom_site_type_symbol
_atom_site_fract_x
_atom_site_fract_y
_atom_site_fract_z
O1 O 0.8733(4) 0.7074(2) 0.20653(6)
N1 N 0.8832(4) 0.3878(3) 0.21443(7)
H1 H 0.9830 0.3565 0.2364
C1 C 0.6566(4) 0.4636(3) 0.15839(7)
H2 H 0.4994 0.4974 0.1615
C2 C 0.7249(5) 0.4936(3) 0.10903(7)
H3 H 0.6867 0.6189 0.0998
H4 H 0.8872 0.4819 0.1098
C3 C 0.6191(5) 0.3641(3) 0.07140(8)
H5 H 0.6461 0.2384 0.0818
H6 H 0.6956 0.3812 0.0432
C4 C 0.3686(5) 0.3884(3) 0.05915(8)
H7 H 0.2918 0.3781 0.0875
H8 H 0.3415 0.5112 0.0467
C5 C 0.2675(5) 0.2476(3) 0.02338(8)
H9 H 0.3510 0.2525 -0.0042
H10 H 0.1133 0.2827 0.0139
C6 C 0.2690(5) 0.0493(3) 0.04141(8)
H11 H 0.4209 0.0184 0.0537
H12 H 0.2287 -0.0323 0.0153
C7 C 0.1102(5) 0.0137(4) 0.07927(9)
H13 H -0.0312 -0.0323 0.0645
H14 H 0.0794 0.1299 0.0941
C8 C 0.1975(6) -0.1216(3) 0.11678(9)
H15 H 0.0765 -0.1500 0.1362
H16 H 0.2383 -0.2348 0.1017
C9 C 0.3999(6) -0.0546(3) 0.14832(9)
H17 H 0.5189 -0.0203 0.1290
H18 H 0.4554 -0.1552 0.1684
C10 C 0.3479(5) 0.1087(3) 0.17878(8)
H19 H 0.2316 0.0723 0.1986
H20 H 0.2868 0.2068 0.1586
C11 C 0.5442(5) 0.1840(3) 0.20947(8)
H21 H 0.4877 0.2707 0.2314
H22 H 0.6148 0.0835 0.2275
C12 C 0.7226(4) 0.2798(3) 0.18328(7)
H23 H 0.7985 0.1953 0.1631
C13 C 0.8188(4) 0.5510(3) 0.19649(7)
O1 O 0.8733(4) -0.2074(2) 0.70653(6)
N1 N 0.8832(4) 0.1122(3) 0.71443(7)
H1 H 0.9830 0.1435 0.7364
C1 C 0.6566(4) 0.0364(3) 0.65839(7)
H2 H 0.4994 0.0026 0.6615
C2 C 0.7249(5) 0.0064(3) 0.60903(7)
H3 H 0.6867 -0.1189 0.5998
H4 H 0.8872 0.0181 0.6098
C3 C 0.6191(5) 0.1359(3) 0.57140(8)
H5 H 0.6461 0.2616 0.5818
H6 H 0.6956 0.1188 0.5432
C4 C 0.3686(5) 0.1116(3) 0.55915(8)
H7 H 0.2918 0.1219 0.5875
H8 H 0.3415 -0.0112 0.5467
C5 C 0.2675(5) 0.2524(3) 0.52338(8)
H9 H 0.3510 0.2475 0.4958
H10 H 0.1133 0.2173 0.5139
C6 C 0.2690(5) 0.4507(3) 0.54141(8)
H11 H 0.4209 0.4816 0.5537
H12 H 0.2287 0.5323 0.5153
C7 C 0.1102(5) 0.4863(4) 0.57927(9)
H13 H -0.0312 0.5323 0.5645
H14 H 0.0794 0.3701 0.5941
C8 C 0.1975(6) 0.6216(3) 0.61678(9)
H15 H 0.0765 0.6500 0.6362
H16 H 0.2383 0.7348 0.6017
C9 C 0.3999(6) 0.5546(3) 0.64832(9)
H17 H 0.5189 0.5203 0.6290
H18 H 0.4554 0.6552 0.6684
C10 C 0.3479(5) 0.3913(3) 0.67878(8)
H19 H 0.2316 0.4277 0.6986
H20 H 0.2868 0.2932 0.6586
C11 C 0.5442(5) 0.3160(3) 0.70947(8)
H21 H 0.4877 0.2293 0.7314
H22 H 0.6148 0.4165 0.7275
C12 C 0.7226(4) 0.2202(3) 0.68328(7)
H23 H 0.7985 0.3047 0.6631
C13 C 0.8188(4) -0.0510(3) 0.69649(7)
O1 O 0.1267(4) 0.2926(2) 0.79347(6)
N1 N 0.1168(4) 0.6122(3) 0.78557(7)
H1 H 0.0170 0.6435 0.7636
C1 C 0.3434(4) 0.5364(3) 0.84161(7)
H2 H 0.5006 0.5026 0.8385
C2 C 0.2751(5) 0.5064(3) 0.89097(7)
H3 H 0.3133 0.3811 0.9002
H4 H 0.1128 0.5181 0.8902
C3 C 0.3809(5) 0.6359(3) 0.92860(8)
H5 H 0.3539 0.7616 0.9182
H6 H 0.3044 0.6188 0.9568
C4 C 0.6314(5) 0.6116(3) 0.94085(8)
H7 H 0.7082 0.6219 0.9125
H8 H 0.6585 0.4888 0.9533
C5 C 0.7325(5) 0.7524(3) 0.97662(8)
H9 H 0.6490 0.7475 1.0042
H10 H 0.8867 0.7173 0.9861
C6 C 0.7310(5) 0.9507(3) 0.95859(8)
H11 H 0.5791 0.9816 0.9463
H12 H 0.7713 1.0323 0.9847
C7 C 0.8898(5) 0.9863(4) 0.92073(9)
H13 H 1.0312 1.0323 0.9355
H14 H 0.9206 0.8701 0.9059
C8 C 0.8025(6) 1.1216(3) 0.88322(9)
H15 H 0.9235 1.1500 0.8638
H16 H 0.7617 1.2348 0.8983
C9 C 0.6001(6) 1.0546(3) 0.85168(9)
H17 H 0.4811 1.0203 0.8710
H18 H 0.5446 1.1552 0.8316
C10 C 0.6521(5) 0.8913(3) 0.82122(8)
H19 H 0.7684 0.9277 0.8014
H20 H 0.7132 0.7932 0.8414
C11 C 0.4558(5) 0.8160(3) 0.79053(8)
H21 H 0.5123 0.7293 0.7686
H22 H 0.3852 0.9165 0.7725
C12 C 0.2774(4) 0.7202(3) 0.81672(7)
H23 H 0.2015 0.8047 0.8369
C13 C 0.1812(4) 0.4490(3) 0.80351(7)
O1 O 0.1267(4) 1.2074(2) 0.29347(6)
N1 N 0.1168(4) 0.8878(3) 0.28557(7)
H1 H 0.0170 0.8565 0.2636
C1 C 0.3434(4) 0.9636(3) 0.34161(7)
H2 H 0.5006 0.9974 0.3385
C2 C 0.2751(5) 0.9936(3) 0.39097(7)
H3 H 0.3133 1.1189 0.4002
H4 H 0.1128 0.9819 0.3902
C3 C 0.3809(5) 0.8641(3) 0.42860(8)
H5 H 0.3539 0.7384 0.4182
H6 H 0.3044 0.8812 0.4568
C4 C 0.6314(5) 0.8884(3) 0.44085(8)
H7 H 0.7082 0.8781 0.4125
H8 H 0.6585 1.0112 0.4533
C5 C 0.7325(5) 0.7476(3) 0.47662(8)
H9 H 0.6490 0.7525 0.5042
H10 H 0.8867 0.7827 0.4861
C6 C 0.7310(5) 0.5493(3) 0.45859(8)
H11 H 0.5791 0.5184 0.4463
H12 H 0.7713 0.4677 0.4847
C7 C 0.8898(5) 0.5137(4) 0.42073(9)
H13 H 1.0312 0.4677 0.4355
H14 H 0.9206 0.6299 0.4059
C8 C 0.8025(6) 0.3784(3) 0.38322(9)
H15 H 0.9235 0.3500 0.3638
H16 H 0.7617 0.2652 0.3983
C9 C 0.6001(6) 0.4454(3) 0.35168(9)
H17 H 0.4811 0.4797 0.3710
H18 H 0.5446 0.3448 0.3316
C10 C 0.6521(5) 0.6087(3) 0.32122(8)
H19 H 0.7684 0.5723 0.3014
H20 H 0.7132 0.7068 0.3414
C11 C 0.4558(5) 0.6840(3) 0.29053(8)
H21 H 0.5123 0.7707 0.2686
H22 H 0.3852 0.5835 0.2725
C12 C 0.2774(4) 0.7798(3) 0.31672(7)
H23 H 0.2015 0.6953 0.3369
C13 C 0.1812(4) 1.0510(3) 0.30351(7)

#END
