
#######################################################################
#
#                 Cambridge Crystallographic Data Centre
#                                CCDC 
#
#######################################################################
#
# If this CIF has been generated from an entry in the Cambridge 
# Structural Database, then it will include bibliographic, chemical, 
# crystal, experimental, refinement or atomic coordinate data resulting 
# from the CCDC's data processing and validation procedures.
#
#######################################################################

data_ABUHIR
_symmetry_cell_setting           orthorhombic
_symmetry_space_group_name_H-M   'P 21 21 21'
_symmetry_Int_Tables_number      19
_space_group_name_Hall           'P 2ac 2ab'
loop_
_symmetry_equiv_pos_site_id
_symmetry_equiv_pos_as_xyz
1 x,y,z
2 1/2-x,-y,1/2+z
3 1/2+x,1/2-y,-z
4 -x,1/2+y,1/2-z
_cell_length_a                   3.85960(10)
_cell_length_b                   15.4984(2)
_cell_length_c                   24.3541(3)
_cell_angle_alpha                90
_cell_angle_beta                 90
_cell_angle_gamma                90
_cell_volume                     1456.8
loop_
_atom_site_label
_atom_site_type_symbol
_atom_site_fract_x
_atom_site_fract_y
_atom_site_fract_z
Br1 Br -0.6451(2) 1.08480(5) 0.85981(4)
O1 O 0.0769(18) 0.7655(4) 0.6207(2)
O2 O 0.3836(18) 1.0999(3) 0.6432(3)
N1 N -0.206(2) 0.7349(4) 0.7834(3)
H1 H -0.2295 0.6839 0.7968
C1 C 0.321(2) 1.0224(5) 0.6380(4)
C2 C -0.055(2) 0.7534(5) 0.7353(3)
H2 H 0.0415 0.713 0.7116
C3 C -0.234(2) 0.8788(5) 0.7739(4)
C4 C 0.162(3) 0.9744(5) 0.6821(3)
H3 H 0.1031 1.0042 0.7139
C5 C -0.320(2) 0.8097(5) 0.8084(3)
C6 C -0.331(3) 0.9632(5) 0.7898(3)
H4 H -0.2793 1.0108 0.7681
C7 C 0.412(2) 0.9761(5) 0.5870(3)
C8 C 0.092(2) 0.8877(5) 0.6803(3)
C9 C 0.339(3) 0.8875(5) 0.5818(3)
C10 C -0.064(2) 0.8427(5) 0.7260(3)
C11 C 0.427(2) 0.8442(5) 0.5343(4)
H5 H 0.3862 0.7853 0.5314
C12 C 0.578(3) 0.8890(5) 0.4902(4)
H6 H 0.6314 0.8602 0.4577
C13 C 0.164(3) 0.8399(5) 0.6272(3)
C14 C -0.590(2) 0.9029(5) 0.8732(3)
H7 H -0.708 0.9126 0.9059
C15 C -0.504(2) 0.9717(5) 0.8389(4)
C16 C -0.498(2) 0.8195(5) 0.8578(4)
H8 H -0.5526 0.7722 0.8797
C17 C 0.568(2) 1.0191(5) 0.5430(4)
H9 H 0.6195 1.0776 0.546
C18 C 0.647(3) 0.9754(5) 0.4953(3)
H10 H 0.749 1.005 0.4663
Br1 Br 1.1451(2) -0.08480(5) 0.35981(4)
O1 O 0.4231(18) 0.2345(4) 0.1207(2)
O2 O 0.1164(18) -0.0999(3) 0.1432(3)
N1 N 0.706(2) 0.2651(4) 0.2834(3)
H1 H 0.7295 0.3161 0.2968
C1 C 0.179(2) -0.0224(5) 0.1380(4)
C2 C 0.555(2) 0.2466(5) 0.2353(3)
H2 H 0.4585 0.287 0.2116
C3 C 0.734(2) 0.1212(5) 0.2739(4)
C4 C 0.338(3) 0.0256(5) 0.1821(3)
H3 H 0.3969 -0.0042 0.2139
C5 C 0.820(2) 0.1903(5) 0.3084(3)
C6 C 0.831(3) 0.0368(5) 0.2898(3)
H4 H 0.7793 -0.0108 0.2681
C7 C 0.088(2) 0.0239(5) 0.0870(3)
C8 C 0.408(2) 0.1123(5) 0.1803(3)
C9 C 0.161(3) 0.1125(5) 0.0818(3)
C10 C 0.564(2) 0.1573(5) 0.2260(3)
C11 C 0.073(2) 0.1558(5) 0.0343(4)
H5 H 0.1138 0.2147 0.0314
C12 C -0.078(3) 0.1110(5) -0.0098(4)
H6 H -0.1314 0.1398 -0.0423
C13 C 0.336(3) 0.1601(5) 0.1272(3)
C14 C 1.090(2) 0.0971(5) 0.3732(3)
H7 H 1.208 0.0874 0.4059
C15 C 1.004(2) 0.0283(5) 0.3389(4)
C16 C 0.998(2) 0.1805(5) 0.3578(4)
H8 H 1.0526 0.2278 0.3797
C17 C -0.068(2) -0.0191(5) 0.0430(4)
H9 H -0.1195 -0.0776 0.046
C18 C -0.147(3) 0.0246(5) -0.0047(3)
H10 H -0.249 -0.005 -0.0337
Br1 Br -0.1451(2) 0.41520(5) 0.14019(4)
O1 O 0.5769(18) 0.7345(4) 0.3793(2)
O2 O 0.8836(18) 0.4001(3) 0.3568(3)
N1 N 0.294(2) 0.7651(4) 0.2166(3)
H1 H 0.2705 0.8161 0.2032
C1 C 0.821(2) 0.4776(5) 0.3620(4)
C2 C 0.445(2) 0.7466(5) 0.2647(3)
H2 H 0.5415 0.787 0.2884
C3 C 0.266(2) 0.6212(5) 0.2261(4)
C4 C 0.662(3) 0.5256(5) 0.3179(3)
H3 H 0.6031 0.4958 0.2861
C5 C 0.180(2) 0.6903(5) 0.1916(3)
C6 C 0.169(3) 0.5368(5) 0.2102(3)
H4 H 0.2207 0.4892 0.2319
C7 C 0.912(2) 0.5239(5) 0.4130(3)
C8 C 0.592(2) 0.6123(5) 0.3197(3)
C9 C 0.839(3) 0.6125(5) 0.4182(3)
C10 C 0.436(2) 0.6573(5) 0.2740(3)
C11 C 0.927(2) 0.6558(5) 0.4657(4)
H5 H 0.8862 0.7147 0.4686
C12 C 1.078(3) 0.6110(5) 0.5098(4)
H6 H 1.1314 0.6398 0.5423
C13 C 0.664(3) 0.6601(5) 0.3728(3)
C14 C -0.090(2) 0.5971(5) 0.1268(3)
H7 H -0.208 0.5874 0.0941
C15 C -0.004(2) 0.5283(5) 0.1611(4)
C16 C 0.002(2) 0.6805(5) 0.1422(4)
H8 H -0.0526 0.7278 0.1203
C17 C 1.068(2) 0.4809(5) 0.4570(4)
H9 H 1.1195 0.4224 0.454
C18 C 1.147(3) 0.5246(5) 0.5047(3)
H10 H 1.249 0.495 0.5337
Br1 Br 1.6451(2) 0.58480(5) 0.64019(4)
O1 O 0.9231(18) 0.2655(4) 0.8793(2)
O2 O 0.6164(18) 0.5999(3) 0.8568(3)
N1 N 1.206(2) 0.2349(4) 0.7166(3)
H1 H 1.2295 0.1839 0.7032
C1 C 0.679(2) 0.5224(5) 0.8620(4)
C2 C 1.055(2) 0.2534(5) 0.7647(3)
H2 H 0.9585 0.213 0.7884
C3 C 1.234(2) 0.3788(5) 0.7261(4)
C4 C 0.838(3) 0.4744(5) 0.8179(3)
H3 H 0.8969 0.5042 0.7861
C5 C 1.320(2) 0.3097(5) 0.6916(3)
C6 C 1.331(3) 0.4632(5) 0.7102(3)
H4 H 1.2793 0.5108 0.7319
C7 C 0.588(2) 0.4761(5) 0.9130(3)
C8 C 0.908(2) 0.3877(5) 0.8197(3)
C9 C 0.661(3) 0.3875(5) 0.9182(3)
C10 C 1.064(2) 0.3427(5) 0.7740(3)
C11 C 0.573(2) 0.3442(5) 0.9657(4)
H5 H 0.6138 0.2853 0.9686
C12 C 0.422(3) 0.3890(5) 1.0098(4)
H6 H 0.3686 0.3602 1.0423
C13 C 0.836(3) 0.3399(5) 0.8728(3)
C14 C 1.590(2) 0.4029(5) 0.6268(3)
H7 H 1.708 0.4126 0.5941
C15 C 1.504(2) 0.4717(5) 0.6611(4)
C16 C 1.498(2) 0.3195(5) 0.6422(4)
H8 H 1.5526 0.2722 0.6203
C17 C 0.432(2) 0.5191(5) 0.9570(4)
H9 H 0.3805 0.5776 0.954
C18 C 0.353(3) 0.4754(5) 1.0047(3)
H10 H 0.251 0.505 1.0337

#END
