
#######################################################################
#
#                 Cambridge Crystallographic Data Centre
#                                CCDC 
#
#######################################################################
#
# If this CIF has been generated from an entry in the Cambridge 
# Structural Database, then it will include bibliographic, chemical, 
# crystal, experimental, refinement or atomic coordinate data resulting 
# from the CCDC's data processing and validation procedures.
#
#######################################################################

data_ABULUE
_symmetry_cell_setting           monoclinic
_symmetry_space_group_name_H-M   'P 21/n'
_symmetry_Int_Tables_number      14
_space_group_name_Hall           '-P 2yn'
loop_
_symmetry_equiv_pos_site_id
_symmetry_equiv_pos_as_xyz
1 x,y,z
2 1/2+x,1/2-y,1/2+z
3 -x,-y,-z
4 1/2-x,1/2+y,1/2-z
_cell_length_a                   13.969(4)
_cell_length_b                   8.744(3)
_cell_length_c                   20.803(2)
_cell_angle_alpha                90
_cell_angle_beta                 95.57(1)
_cell_angle_gamma                90
_cell_volume                     2528.98
loop_
_atom_site_label
_atom_site_type_symbol
_atom_site_fract_x
_atom_site_fract_y
_atom_site_fract_z
O1 O 0.5230(1) 0.1763(2) 0.99763(9)
O2 O 0.5243(1) 0.0821(2) 0.89691(9)
O3 O 0.6762(1) 0.3022(3) 1.11100(9)
O4 O 0.6718(1) 0.4055(2) 1.01152(9)
C1 C 0.8776(2) -0.0176(3) 0.9548(1)
C2 C 0.8197(2) 0.0355(3) 0.9050(1)
C3 C 0.7164(2) 0.0566(3) 0.9088(1)
C4 C 0.6737(2) 0.1074(3) 0.9599(1)
C5 C 0.7246(2) 0.1527(3) 1.0224(1)
C6 C 0.8018(2) 0.0767(3) 1.0508(1)
C7 C 0.8572(2) 0.1198(4) 1.1132(1)
C8 C 0.8677(2) 0.0176(4) 1.1618(1)
C9 C 0.8350(2) -0.1386(4) 1.1621(1)
C10 C 0.8307(2) -0.2324(4) 1.1105(1)
C11 C 0.8540(2) -0.1964(4) 1.0455(1)
C12 C 0.8440(2) -0.0557(3) 1.0188(1)
C13 C 0.8556(2) 0.0696(3) 0.8405(1)
C14 C 0.8580(2) -0.0472(3) 0.7945(1)
C15 C 0.8901(2) -0.0114(4) 0.7344(1)
C16 C 0.9162(2) 0.1375(4) 0.7201(1)
C17 C 0.9147(2) 0.2516(4) 0.7666(1)
C18 C 0.8828(2) 0.2188(3) 0.8268(1)
C19 C 0.8271(2) -0.2073(4) 0.8098(1)
C20 C 0.8996(3) -0.1359(4) 0.6862(2)
C21 C 0.9428(2) 0.1754(4) 0.6523(1)
C22 C 0.9457(3) 0.4149(4) 0.7537(2)
C23 C 0.8773(2) 0.3469(4) 0.8754(1)
C24 C 0.5664(2) 0.1277(3) 0.9545(1)
C25 C 0.4204(2) 0.0919(4) 0.8873(1)
C26 C 0.6875(2) 0.2907(4) 1.0544(1)
C27 C 0.6268(2) 0.5407(4) 1.0352(2)
C28 C 0.9019(2) 0.2769(4) 1.1193(1)
C29 C 0.8120(2) -0.2009(5) 1.2271(2)
C30 C 0.8883(2) -0.3294(4) 1.0067(2)
H1 H 0.944 -0.032 0.949
H2 H 0.675 0.032 0.871
H3 H 0.901 0.053 1.201
H4 H 0.810 -0.334 1.117
H5 H 0.789 -0.205 0.845
H6 H 0.791 -0.249 0.773
H7 H 0.882 -0.269 0.821
H8 H 0.912 -0.230 0.708
H9 H 0.951 -0.113 0.661
H10 H 0.841 -0.144 0.659
H11 H 1.010 0.168 0.651
H12 H 0.912 0.105 0.622
H13 H 0.922 0.276 0.641
H14 H 0.989 0.449 0.789
H15 H 0.891 0.479 0.749
H16 H 0.977 0.418 0.715
H17 H 0.940 0.389 0.886
H18 H 0.835 0.424 0.857
H19 H 0.854 0.308 0.913
H20 H 0.395 0.101 0.928
H21 H 0.395 0.002 0.866
H22 H 0.402 0.179 0.861
H23 H 0.625 0.619 1.003
H24 H 0.563 0.517 1.044
H25 H 0.663 0.576 1.073
H26 H 0.940 0.294 1.084
H27 H 0.853 0.352 1.118
H28 H 0.941 0.284 1.159
H29 H 0.758 -0.149 1.241
H30 H 0.866 -0.186 1.258
H31 H 0.798 -0.307 1.223
H32 H 0.879 -0.306 0.962
H33 H 0.853 -0.419 1.015
H34 H 0.955 -0.347 1.019
O1 O 0.0230(1) 0.3237(2) 0.49763(9)
O2 O 0.0243(1) 0.4179(2) 0.39691(9)
O3 O 0.1762(1) 0.1978(3) 0.61100(9)
O4 O 0.1718(1) 0.0945(2) 0.51152(9)
C1 C 0.3776(2) 0.5176(3) 0.4548(1)
C2 C 0.3197(2) 0.4645(3) 0.4050(1)
C3 C 0.2164(2) 0.4434(3) 0.4088(1)
C4 C 0.1737(2) 0.3926(3) 0.4599(1)
C5 C 0.2246(2) 0.3473(3) 0.5224(1)
C6 C 0.3018(2) 0.4233(3) 0.5508(1)
C7 C 0.3572(2) 0.3802(4) 0.6132(1)
C8 C 0.3677(2) 0.4824(4) 0.6618(1)
C9 C 0.3350(2) 0.6386(4) 0.6621(1)
C10 C 0.3307(2) 0.7324(4) 0.6105(1)
C11 C 0.3540(2) 0.6964(4) 0.5455(1)
C12 C 0.3440(2) 0.5557(3) 0.5188(1)
C13 C 0.3556(2) 0.4304(3) 0.3405(1)
C14 C 0.3580(2) 0.5472(3) 0.2945(1)
C15 C 0.3901(2) 0.5114(4) 0.2344(1)
C16 C 0.4162(2) 0.3625(4) 0.2201(1)
C17 C 0.4147(2) 0.2484(4) 0.2666(1)
C18 C 0.3828(2) 0.2812(3) 0.3268(1)
C19 C 0.3271(2) 0.7073(4) 0.3098(1)
C20 C 0.3996(3) 0.6359(4) 0.1862(2)
C21 C 0.4428(2) 0.3246(4) 0.1523(1)
C22 C 0.4457(3) 0.0851(4) 0.2537(2)
C23 C 0.3773(2) 0.1531(4) 0.3754(1)
C24 C 0.0664(2) 0.3723(3) 0.4545(1)
C25 C -0.0796(2) 0.4081(4) 0.3873(1)
C26 C 0.1875(2) 0.2093(4) 0.5544(1)
C27 C 0.1268(2) -0.0407(4) 0.5352(2)
C28 C 0.4019(2) 0.2231(4) 0.6193(1)
C29 C 0.3120(2) 0.7009(5) 0.7271(2)
C30 C 0.3883(2) 0.8294(4) 0.5067(2)
H1 H 0.444 0.532 0.449
H2 H 0.175 0.468 0.371
H3 H 0.401 0.447 0.701
H4 H 0.310 0.834 0.617
H5 H 0.289 0.705 0.345
H6 H 0.291 0.749 0.273
H7 H 0.382 0.769 0.321
H8 H 0.412 0.730 0.208
H9 H 0.451 0.613 0.161
H10 H 0.341 0.644 0.159
H11 H 0.510 0.332 0.151
H12 H 0.412 0.395 0.122
H13 H 0.422 0.224 0.141
H14 H 0.489 0.051 0.289
H15 H 0.391 0.021 0.249
H16 H 0.477 0.082 0.215
H17 H 0.440 0.111 0.386
H18 H 0.335 0.076 0.357
H19 H 0.354 0.192 0.413
H20 H -0.105 0.399 0.428
H21 H -0.105 0.498 0.366
H22 H -0.098 0.321 0.361
H23 H 0.125 -0.119 0.503
H24 H 0.063 -0.017 0.544
H25 H 0.163 -0.076 0.573
H26 H 0.440 0.206 0.584
H27 H 0.353 0.148 0.618
H28 H 0.441 0.216 0.659
H29 H 0.258 0.649 0.741
H30 H 0.366 0.686 0.758
H31 H 0.298 0.807 0.723
H32 H 0.379 0.806 0.462
H33 H 0.353 0.919 0.515
H34 H 0.455 0.847 0.519
O1 O 0.4770(1) 0.8237(2) 0.00237(9)
O2 O 0.4757(1) 0.9179(2) 0.10309(9)
O3 O 0.3238(1) 0.6978(3) -0.11100(9)
O4 O 0.3282(1) 0.5945(2) -0.01152(9)
C1 C 0.1224(2) 1.0176(3) 0.0452(1)
C2 C 0.1803(2) 0.9645(3) 0.0950(1)
C3 C 0.2836(2) 0.9434(3) 0.0912(1)
C4 C 0.3263(2) 0.8926(3) 0.0401(1)
C5 C 0.2754(2) 0.8473(3) -0.0224(1)
C6 C 0.1982(2) 0.9233(3) -0.0508(1)
C7 C 0.1428(2) 0.8802(4) -0.1132(1)
C8 C 0.1323(2) 0.9824(4) -0.1618(1)
C9 C 0.1650(2) 1.1386(4) -0.1621(1)
C10 C 0.1693(2) 1.2324(4) -0.1105(1)
C11 C 0.1460(2) 1.1964(4) -0.0455(1)
C12 C 0.1560(2) 1.0557(3) -0.0188(1)
C13 C 0.1444(2) 0.9304(3) 0.1595(1)
C14 C 0.1420(2) 1.0472(3) 0.2055(1)
C15 C 0.1099(2) 1.0114(4) 0.2656(1)
C16 C 0.0838(2) 0.8625(4) 0.2799(1)
C17 C 0.0853(2) 0.7484(4) 0.2334(1)
C18 C 0.1172(2) 0.7812(3) 0.1732(1)
C19 C 0.1729(2) 1.2073(4) 0.1902(1)
C20 C 0.1004(3) 1.1359(4) 0.3138(2)
C21 C 0.0572(2) 0.8246(4) 0.3477(1)
C22 C 0.0543(3) 0.5851(4) 0.2463(2)
C23 C 0.1227(2) 0.6531(4) 0.1246(1)
C24 C 0.4336(2) 0.8723(3) 0.0455(1)
C25 C 0.5796(2) 0.9081(4) 0.1127(1)
C26 C 0.3125(2) 0.7093(4) -0.0544(1)
C27 C 0.3732(2) 0.4593(4) -0.0352(2)
C28 C 0.0981(2) 0.7231(4) -0.1193(1)
C29 C 0.1880(2) 1.2009(5) -0.2271(2)
C30 C 0.1117(2) 1.3294(4) -0.0067(2)
H1 H 0.056 1.032 0.051
H2 H 0.325 0.968 0.129
H3 H 0.099 0.947 -0.201
H4 H 0.190 1.334 -0.117
H5 H 0.211 1.205 0.155
H6 H 0.209 1.249 0.227
H7 H 0.118 1.269 0.179
H8 H 0.088 1.230 0.292
H9 H 0.049 1.113 0.339
H10 H 0.159 1.144 0.341
H11 H -0.010 0.832 0.349
H12 H 0.088 0.895 0.378
H13 H 0.078 0.724 0.359
H14 H 0.011 0.551 0.211
H15 H 0.109 0.521 0.251
H16 H 0.023 0.582 0.285
H17 H 0.060 0.611 0.114
H18 H 0.165 0.576 0.143
H19 H 0.146 0.692 0.087
H20 H 0.605 0.899 0.072
H21 H 0.605 0.998 0.134
H22 H 0.598 0.821 0.139
H23 H 0.375 0.381 -0.003
H24 H 0.437 0.483 -0.044
H25 H 0.337 0.424 -0.073
H26 H 0.060 0.706 -0.084
H27 H 0.147 0.648 -0.118
H28 H 0.059 0.716 -0.159
H29 H 0.242 1.149 -0.241
H30 H 0.134 1.186 -0.258
H31 H 0.202 1.307 -0.223
H32 H 0.121 1.306 0.038
H33 H 0.147 1.419 -0.015
H34 H 0.045 1.347 -0.019
O1 O 0.9770(1) 0.6763(2) 0.50237(9)
O2 O 0.9757(1) 0.5821(2) 0.60309(9)
O3 O 0.8238(1) 0.8022(3) 0.38900(9)
O4 O 0.8282(1) 0.9055(2) 0.48848(9)
C1 C 0.6224(2) 0.4824(3) 0.5452(1)
C2 C 0.6803(2) 0.5355(3) 0.5950(1)
C3 C 0.7836(2) 0.5566(3) 0.5912(1)
C4 C 0.8263(2) 0.6074(3) 0.5401(1)
C5 C 0.7754(2) 0.6527(3) 0.4776(1)
C6 C 0.6982(2) 0.5767(3) 0.4492(1)
C7 C 0.6428(2) 0.6198(4) 0.3868(1)
C8 C 0.6323(2) 0.5176(4) 0.3382(1)
C9 C 0.6650(2) 0.3614(4) 0.3379(1)
C10 C 0.6693(2) 0.2676(4) 0.3895(1)
C11 C 0.6460(2) 0.3036(4) 0.4545(1)
C12 C 0.6560(2) 0.4443(3) 0.4812(1)
C13 C 0.6444(2) 0.5696(3) 0.6595(1)
C14 C 0.6420(2) 0.4528(3) 0.7055(1)
C15 C 0.6099(2) 0.4886(4) 0.7656(1)
C16 C 0.5838(2) 0.6375(4) 0.7799(1)
C17 C 0.5853(2) 0.7516(4) 0.7334(1)
C18 C 0.6172(2) 0.7188(3) 0.6732(1)
C19 C 0.6729(2) 0.2927(4) 0.6902(1)
C20 C 0.6004(3) 0.3641(4) 0.8138(2)
C21 C 0.5572(2) 0.6754(4) 0.8477(1)
C22 C 0.5543(3) 0.9149(4) 0.7463(2)
C23 C 0.6227(2) 0.8469(4) 0.6246(1)
C24 C 0.9336(2) 0.6277(3) 0.5455(1)
C25 C 1.0796(2) 0.5919(4) 0.6127(1)
C26 C 0.8125(2) 0.7907(4) 0.4456(1)
C27 C 0.8732(2) 1.0407(4) 0.4648(2)
C28 C 0.5981(2) 0.7769(4) 0.3807(1)
C29 C 0.6880(2) 0.2991(5) 0.2729(2)
C30 C 0.6117(2) 0.1706(4) 0.4933(2)
H1 H 0.556 0.468 0.551
H2 H 0.825 0.532 0.629
H3 H 0.599 0.553 0.299
H4 H 0.690 0.166 0.383
H5 H 0.711 0.295 0.655
H6 H 0.709 0.251 0.727
H7 H 0.618 0.231 0.679
H8 H 0.588 0.270 0.792
H9 H 0.549 0.387 0.839
H10 H 0.659 0.356 0.841
H11 H 0.490 0.668 0.849
H12 H 0.588 0.605 0.878
H13 H 0.578 0.776 0.859
H14 H 0.511 0.949 0.711
H15 H 0.609 0.979 0.751
H16 H 0.523 0.918 0.785
H17 H 0.560 0.889 0.614
H18 H 0.665 0.924 0.643
H19 H 0.646 0.808 0.587
H20 H 1.105 0.601 0.572
H21 H 1.105 0.502 0.634
H22 H 1.098 0.679 0.639
H23 H 0.875 1.119 0.497
H24 H 0.937 1.017 0.456
H25 H 0.837 1.076 0.427
H26 H 0.560 0.794 0.416
H27 H 0.647 0.852 0.382
H28 H 0.559 0.784 0.341
H29 H 0.742 0.351 0.259
H30 H 0.634 0.314 0.242
H31 H 0.702 0.193 0.277
H32 H 0.621 0.194 0.538
H33 H 0.647 0.081 0.485
H34 H 0.545 0.153 0.481

#END
