
#######################################################################
#
#                 Cambridge Crystallographic Data Centre
#                                CCDC 
#
#######################################################################
#
# If this CIF has been generated from an entry in the Cambridge 
# Structural Database, then it will include bibliographic, chemical, 
# crystal, experimental, refinement or atomic coordinate data resulting 
# from the CCDC's data processing and validation procedures.
#
#######################################################################

data_ABUNIU
_symmetry_cell_setting           triclinic
_symmetry_space_group_name_H-M   'P -1'
_symmetry_Int_Tables_number      2
_space_group_name_Hall           '-P 1'
loop_
_symmetry_equiv_pos_site_id
_symmetry_equiv_pos_as_xyz
1 x,y,z
2 -x,-y,-z
_cell_length_a                   8.1295(3)
_cell_length_b                   18.0448(5)
_cell_length_c                   18.0007(7)
_cell_angle_alpha                75.014(2)
_cell_angle_beta                 81.732(1)
_cell_angle_gamma                86.523(2)
_cell_volume                     2523.53
loop_
_atom_site_label
_atom_site_type_symbol
_atom_site_fract_x
_atom_site_fract_y
_atom_site_fract_z
C1 C 0.66870(30) 0.17472(12) 0.44579(12)
O1 O 0.69700(20) 0.41615(9) 0.27250(9)
C4 C 0.69540(20) 0.29373(11) 0.35335(11)
C5 C 0.59990(30) 0.23138(13) 0.39128(13)
C8 C 0.85440(20) 0.30073(13) 0.36801(12)
C12 C 0.82500(30) 0.17865(13) 0.46388(13)
O2 O 1.16720(20) 0.30202(11) 0.40377(11)
N1 N 0.62160(20) 0.35672(11) 0.29752(10)
N2 N 1.08210(20) 0.24959(12) 0.44341(13)
O3 O 0.42950(20) 0.10506(10) 0.47015(12)
C17 C 0.91490(20) 0.24244(12) 0.42364(12)
O5 O 0.48820(20) 0.34599(11) 0.27955(11)
N4 N 0.56750(30) 0.10799(12) 0.48804(13)
O6 O 0.62780(30) 0.05966(10) 0.53855(11)
O8 O 1.12380(30) 0.20283(12) 0.49973(14)
H3 H 0.4990(30) 0.2281(10) 0.3810(11)
H5 H 0.9180(20) 0.3444(11) 0.3432(11)
H6 H 0.8640(30) 0.1387(14) 0.5041(14)
C1 C 0.33130(30) 0.82528(12) 0.55421(12)
O1 O 0.30300(20) 0.58385(9) 0.72750(9)
C4 C 0.30460(20) 0.70627(11) 0.64665(11)
C5 C 0.40010(30) 0.76862(13) 0.60872(13)
C8 C 0.14560(20) 0.69927(13) 0.63199(12)
C12 C 0.17500(30) 0.82135(13) 0.53612(13)
O2 O -0.16720(20) 0.69798(11) 0.59623(11)
N1 N 0.37840(20) 0.64328(11) 0.70248(10)
N2 N -0.08210(20) 0.75041(12) 0.55659(13)
O3 O 0.57050(20) 0.89494(10) 0.52985(12)
C17 C 0.08510(20) 0.75756(12) 0.57636(12)
O5 O 0.51180(20) 0.65401(11) 0.72045(11)
N4 N 0.43250(30) 0.89201(12) 0.51196(13)
O6 O 0.37220(30) 0.94034(10) 0.46145(11)
O8 O -0.12380(30) 0.79717(12) 0.50027(14)
H3 H 0.5010(30) 0.7719(10) 0.6190(11)
H5 H 0.0820(20) 0.6556(11) 0.6568(11)
H6 H 0.1360(30) 0.8613(14) 0.4959(14)
C2 C 0.92160(20) 0.13474(11) 0.26866(11)
C10 C 0.95620(30) 0.20741(11) 0.21200(11)
C13 C 0.72680(30) 0.21043(12) 0.12676(11)
C14 C 0.61730(30) 0.09981(15) 0.09422(13)
C16 C 0.76440(30) 0.10081(12) 0.28616(12)
C18 C 0.75140(30) 0.13456(12) 0.11323(11)
C19 C 1.04540(30) 0.09842(14) 0.31539(13)
C20 C 0.73430(40) 0.03409(13) 0.34337(14)
C23 C 1.10100(30) 0.24513(14) 0.21743(14)
C24 C 0.84510(30) 0.24664(11) 0.15833(11)
C25 C 0.58660(30) 0.25427(16) 0.10174(12)
C40 C 1.00900(40) 0.02933(17) 0.37282(16)
C43 C 0.85120(40) 0.32800(13) 0.13539(13)
C44 C 0.90720(30) 0.09608(12) 0.11129(12)
C47 C 0.45550(40) 0.21790(20) 0.08187(15)
C51 C 1.19880(30) 0.13380(20) 0.30803(18)
C52 C 1.22270(30) 0.20460(20) 0.26328(18)
C53 C 0.58230(50) 0.33606(19) 0.09370(15)
C54 C 0.85870(40) -0.00204(16) 0.38632(16)
C55 C 0.64030(60) 0.02570(20) 0.08257(17)
C57 C 0.92710(40) 0.02538(14) 0.09543(14)
C59 C 1.11780(50) 0.32370(20) 0.18040(19)
C60 C 0.99420(50) 0.36472(19) 0.14636(18)
C61 C 0.79070(60) -0.01074(18) 0.08324(17)
C62 C 0.46540(40) 0.14370(30) 0.08191(16)
C63 C 0.71660(50) 0.37029(18) 0.10422(16)
H1 H 1.0040(20) 0.1199(11) 0.1188(11)
H10 H 0.6730(20) 0.1257(11) 0.2579(11)
H13 H 0.6210(30) 0.0146(13) 0.3538(13)
H18 H 1.2290(40) 0.3461(15) 0.1851(15)
H19 H 0.9980(30) 0.4173(18) 0.1286(16)
H24 H 0.4850(40) 0.3601(15) 0.0764(16)
H25 H 0.3590(40) 0.2522(18) 0.0651(18)
H26 H 0.5460(40) 0.0037(17) 0.0715(17)
H28 H 1.2900(40) 0.1051(16) 0.3408(18)
H29 H 0.3780(40) 0.1134(16) 0.0720(17)
H30 H 1.3240(40) 0.2289(15) 0.2622(16)
H32 H 1.1020(40) 0.0068(16) 0.4029(17)
H33 H 0.8060(40) -0.0602(18) 0.0756(17)
H34 H 0.7250(40) 0.4285(19) 0.0909(17)
H36 H 0.8340(30) -0.0507(17) 0.4269(17)
H37 H 1.0450(30) 0.0049(15) 0.0944(15)
C2 C 0.07840(20) 0.86526(11) 0.73134(11)
C10 C 0.04380(30) 0.79259(11) 0.78800(11)
C13 C 0.27320(30) 0.78957(12) 0.87324(11)
C14 C 0.38270(30) 0.90019(15) 0.90578(13)
C16 C 0.23560(30) 0.89919(12) 0.71384(12)
C18 C 0.24860(30) 0.86544(12) 0.88677(11)
C19 C -0.04540(30) 0.90158(14) 0.68461(13)
C20 C 0.26570(40) 0.96591(13) 0.65663(14)
C23 C -0.10100(30) 0.75487(14) 0.78257(14)
C24 C 0.15490(30) 0.75336(11) 0.84167(11)
C25 C 0.41340(30) 0.74573(16) 0.89826(12)
C40 C -0.00900(40) 0.97067(17) 0.62718(16)
C43 C 0.14880(40) 0.67200(13) 0.86461(13)
C44 C 0.09280(30) 0.90392(12) 0.88871(12)
C47 C 0.54450(40) 0.78210(20) 0.91813(15)
C51 C -0.19880(30) 0.86620(20) 0.69197(18)
C52 C -0.22270(30) 0.79540(20) 0.73672(18)
C53 C 0.41770(50) 0.66394(19) 0.90630(15)
C54 C 0.14130(40) 1.00204(16) 0.61368(16)
C55 C 0.35970(60) 0.97430(20) 0.91743(17)
C57 C 0.07290(40) 0.97462(14) 0.90457(14)
C59 C -0.11780(50) 0.67630(20) 0.81960(19)
C60 C 0.00580(50) 0.63528(19) 0.85364(18)
C61 C 0.20930(60) 1.01074(18) 0.91676(17)
C62 C 0.53460(40) 0.85630(30) 0.91809(16)
C63 C 0.28340(50) 0.62971(18) 0.89578(16)
H1 H -0.0040(20) 0.8801(11) 0.8812(11)
H10 H 0.3270(20) 0.8743(11) 0.7421(11)
H13 H 0.3790(30) 0.9854(13) 0.6462(13)
H18 H -0.2290(40) 0.6539(15) 0.8149(15)
H19 H 0.0020(30) 0.5827(18) 0.8714(16)
H24 H 0.5150(40) 0.6399(15) 0.9236(16)
H25 H 0.6410(40) 0.7478(18) 0.9349(18)
H26 H 0.4540(40) 0.9963(17) 0.9285(17)
H28 H -0.2900(40) 0.8949(16) 0.6592(18)
H29 H 0.6220(40) 0.8866(16) 0.9280(17)
H30 H -0.3240(40) 0.7711(15) 0.7378(16)
H32 H -0.1020(40) 0.9932(16) 0.5971(17)
H33 H 0.1940(40) 1.0602(18) 0.9244(17)
H34 H 0.2750(40) 0.5715(19) 0.9091(17)
H36 H 0.1660(30) 1.0507(17) 0.5731(17)
H37 H -0.0450(30) 0.9951(15) 0.9056(15)
C3 C 0.71230(30) 0.32668(12) 0.56753(11)
C6 C 0.88360(20) 0.36066(11) 0.70961(10)
C9 C 0.72130(30) 0.39185(12) 0.70363(11)
C11 C 1.00040(30) 0.40746(14) 0.72728(12)
C15 C 0.70390(30) 0.25726(12) 0.63032(12)
C21 C 0.68040(30) 0.46488(13) 0.70915(13)
C26 C 0.93190(30) 0.28294(12) 0.70562(11)
C27 C 0.82850(30) 0.23311(12) 0.68182(12)
C28 C 0.85830(30) 0.36864(13) 0.53882(12)
C29 C 0.86210(40) 0.43280(14) 0.47806(13)
C31 C 0.57160(30) 0.35082(14) 0.52856(13)
C32 C 1.08140(30) 0.25248(15) 0.73513(13)
C33 C 0.57740(40) 0.41885(17) 0.46852(15)
C35 C 0.85170(40) 0.15282(14) 0.71327(14)
C36 C 0.95280(40) 0.48258(15) 0.73150(14)
C37 C 0.57260(30) 0.20749(15) 0.63725(14)
C39 C 1.19490(30) 0.30250(20) 0.75057(14)
C42 C 0.43500(40) 0.23330(20) 0.59672(17)
C45 C 0.71820(40) 0.45890(17) 0.44408(15)
C46 C 1.11450(50) 0.17280(20) 0.75204(16)
C48 C 0.42900(40) 0.30300(20) 0.54762(18)
C49 C 1.15830(30) 0.37660(20) 0.74465(14)
C50 C 0.58520(50) 0.12948(18) 0.68282(18)
C56 C 0.79820(40) 0.51162(15) 0.72165(15)
C58 C 0.72440(50) 0.10299(18) 0.71329(18)
C64 C 0.99930(50) 0.12530(20) 0.74632(16)
H2 H 0.6350(20) 0.3595(10) 0.7002(10)
H4 H 0.9580(20) 0.3504(11) 0.5622(11)
H7 H 1.0360(30) 0.5121(14) 0.7426(14)
H8 H 1.3010(30) 0.2797(14) 0.7659(15)
H9 H 0.5730(30) 0.4834(12) 0.7063(12)
H14 H 0.9650(30) 0.4573(13) 0.4591(13)
H15 H 0.3410(30) 0.1963(15) 0.6069(15)
H17 H 0.3400(40) 0.3193(16) 0.5219(17)
H20 H 1.0130(30) 0.0729(17) 0.7627(16)
H21 H 0.4760(30) 0.4337(14) 0.4462(15)
H22 H 0.4900(30) 0.1013(15) 0.6845(15)
H23 H 0.7640(30) 0.5655(16) 0.7248(15)
H27 H 0.7180(30) 0.5042(16) 0.4056(16)
H31 H 1.2410(30) 0.4119(15) 0.7574(16)
H35 H 1.2260(40) 0.1529(16) 0.7710(17)
H38 H 0.7490(40) 0.0476(19) 0.7411(18)
C3 C 0.28770(30) 0.67332(12) 0.43247(11)
C6 C 0.11640(20) 0.63934(11) 0.29039(10)
C9 C 0.27870(30) 0.60815(12) 0.29637(11)
C11 C -0.00040(30) 0.59254(14) 0.27272(12)
C15 C 0.29610(30) 0.74274(12) 0.36968(12)
C21 C 0.31960(30) 0.53512(13) 0.29085(13)
C26 C 0.06810(30) 0.71706(12) 0.29438(11)
C27 C 0.17150(30) 0.76689(12) 0.31818(12)
C28 C 0.14170(30) 0.63136(13) 0.46118(12)
C29 C 0.13790(40) 0.56720(14) 0.52194(13)
C31 C 0.42840(30) 0.64918(14) 0.47144(13)
C32 C -0.08140(30) 0.74752(15) 0.26487(13)
C33 C 0.42260(40) 0.58115(17) 0.53148(15)
C35 C 0.14830(40) 0.84718(14) 0.28673(14)
C36 C 0.04720(40) 0.51742(15) 0.26850(14)
C37 C 0.42740(30) 0.79251(15) 0.36275(14)
C39 C -0.19490(30) 0.69750(20) 0.24943(14)
C42 C 0.56500(40) 0.76670(20) 0.40328(17)
C45 C 0.28180(40) 0.54110(17) 0.55592(15)
C46 C -0.11450(50) 0.82720(20) 0.24796(16)
C48 C 0.57100(40) 0.69700(20) 0.45238(18)
C49 C -0.15830(30) 0.62340(20) 0.25535(14)
C50 C 0.41480(50) 0.87052(18) 0.31718(18)
C56 C 0.20180(40) 0.48838(15) 0.27835(15)
C58 C 0.27560(50) 0.89701(18) 0.28671(18)
C64 C 0.00070(50) 0.87470(20) 0.25368(16)
H2 H 0.3650(20) 0.6405(10) 0.2998(10)
H4 H 0.0420(20) 0.6496(11) 0.4378(11)
H7 H -0.0360(30) 0.4879(14) 0.2574(14)
H8 H -0.3010(30) 0.7203(14) 0.2341(15)
H9 H 0.4270(30) 0.5166(12) 0.2937(12)
H14 H 0.0350(30) 0.5427(13) 0.5409(13)
H15 H 0.6590(30) 0.8037(15) 0.3931(15)
H17 H 0.6600(40) 0.6807(16) 0.4781(17)
H20 H -0.0130(30) 0.9271(17) 0.2373(16)
H21 H 0.5240(30) 0.5663(14) 0.5538(15)
H22 H 0.5100(30) 0.8987(15) 0.3155(15)
H23 H 0.2360(30) 0.4345(16) 0.2752(15)
H27 H 0.2820(30) 0.4958(16) 0.5944(16)
H31 H -0.2410(30) 0.5881(15) 0.2426(16)
H35 H -0.2260(40) 0.8471(16) 0.2290(17)
H38 H 0.2510(40) 0.9524(19) 0.2589(18)
C7 C 0.69520(30) 0.23903(12) 0.89772(11)
C22 C 0.92640(30) 0.28848(15) 0.92898(12)
O4 O 0.68350(30) 0.11099(11) 0.89875(11)
N3 N 0.61330(30) 0.17348(14) 0.88379(12)
C30 C 0.68860(30) 0.36700(13) 0.90499(13)
C34 C 0.85320(30) 0.22748(15) 0.91697(12)
C38 C 0.60910(30) 0.30775(15) 0.89183(13)
O7 O 0.48250(30) 0.18621(13) 0.85779(14)
C41 C 0.84900(40) 0.35929(16) 0.92294(13)
N5 N 0.59720(40) 0.44078(15) 0.90197(15)
N6 N 1.09710(30) 0.27762(19) 0.95074(13)
O9 O 1.16210(30) 0.33298(17) 0.95782(15)
O10 O 0.45590(30) 0.44524(13) 0.88681(16)
O11 O 1.16060(30) 0.21322(17) 0.95895(15)
O12 O 0.67200(40) 0.49194(13) 0.91548(14)
H11 H 0.9050(30) 0.1766(13) 0.9227(13)
H12 H 0.5020(30) 0.3141(11) 0.8811(12)
H16 H 0.8990(30) 0.4014(15) 0.9315(15)
C7 C 0.30480(30) 0.76097(12) 0.10228(11)
C22 C 0.07360(30) 0.71152(15) 0.07102(12)
O4 O 0.31650(30) 0.88901(11) 0.10125(11)
N3 N 0.38670(30) 0.82652(14) 0.11621(12)
C30 C 0.31140(30) 0.63300(13) 0.09501(13)
C34 C 0.14680(30) 0.77252(15) 0.08303(12)
C38 C 0.39090(30) 0.69225(15) 0.10817(13)
O7 O 0.51750(30) 0.81379(13) 0.14221(14)
C41 C 0.15100(40) 0.64071(16) 0.07706(13)
N5 N 0.40280(40) 0.55922(15) 0.09803(15)
N6 N -0.09710(30) 0.72238(19) 0.04926(13)
O9 O -0.16210(30) 0.66702(17) 0.04218(15)
O10 O 0.54410(30) 0.55476(13) 0.11319(16)
O11 O -0.16060(30) 0.78678(17) 0.04105(15)
O12 O 0.32800(40) 0.50806(13) 0.08452(14)
H11 H 0.0950(30) 0.8234(13) 0.0773(13)
H12 H 0.4980(30) 0.6859(11) 0.1189(12)
H16 H 0.1010(30) 0.5986(15) 0.0685(15)

#END
