./ABUPES_from_POSCAR.cif_generated_by_CrystalShift
_symmetry_cell_setting triclinic
_symmetry_space_group_name_H-M 'P 1'
loop_
_symmetry_equiv_pos_site_id
_symmetry_equiv_pos_as_xyz
1 x,y,z
_cell_length_a 7.230600
_cell_length_b 15.251300
_cell_length_c 16.516500
_cell_angle_alpha 90.700000
_cell_angle_beta 94.497000
_cell_angle_gamma 93.702000
_cell_volume 1811.704979
loop_
_atom_site_label
_atom_site_type_symbol
_atom_site_fract_x
_atom_site_fract_y
_atom_site_fract_z
H1 H 0.612000 0.326000 0.483000
H2 H 0.182000 0.436000 0.470000
H3 H 0.166000 0.366000 0.340000
H4 H 0.301000 0.466000 0.095000
H5 H 0.499000 0.727000 0.114000
H6 H 0.612000 0.848000 1.047000
H7 H 0.694000 1.041000 0.598000
H8 H 0.744000 1.097000 0.732000
H9 H 0.780000 0.611000 0.805000
H10 H 0.578000 0.386000 0.966000
H11 H 0.565000 0.311000 0.632000
H12 H 0.533000 0.290000 0.737000
H13 H 0.769000 0.458000 0.435000
H14 H 0.818000 0.564000 0.530000
H15 H 0.834000 0.634000 0.660000
H16 H 1.029000 0.760000 0.206000
H17 H 0.828000 0.549000 0.324000
H18 H 0.858000 0.536000 0.081000
H19 H 0.994000 0.698000 -0.064000
H20 H 0.971000 0.712000 0.486000
H21 H 0.751000 1.080000 0.873000
H22 H 0.521000 0.747000 0.817000
H23 H 0.547000 0.763000 0.699000
H24 H 0.635000 0.930000 0.503000
H25 H 0.552000 0.787000 0.560000
H26 H 0.711000 0.990000 0.979000
H27 H 0.523000 0.732000 0.966000
H28 H 0.388000 0.152000 -0.047000
H29 H 0.699000 0.534000 0.905000
H30 H 0.501000 0.273000 0.886000
H31 H 0.306000 -0.041000 0.402000
H32 H 0.256000 -0.097000 0.268000
H33 H 0.249000 -0.080000 0.127000
H34 H 0.479000 0.253000 0.183000
H35 H 0.453000 0.237000 0.301000
H36 H -0.029000 0.240000 0.794000
H37 H 0.172000 0.451000 0.676000
H38 H 0.142000 0.464000 0.919000
H39 H 0.006000 0.302000 1.064000
H40 H 0.029000 0.288000 0.514000
H41 H 0.365000 0.070000 0.497000
H42 H 0.448000 0.213000 0.440000
H43 H 0.289000 0.010000 0.021000
H44 H 0.477000 0.268000 0.034000
H45 H 0.069000 0.830000 0.429000
H46 H 0.089000 0.826000 0.981000
H47 H 0.190000 0.995000 0.594000
H48 H 0.041000 0.772000 0.710000
H49 H 0.203000 0.992000 0.838000
H50 H 0.467000 0.710000 0.263000
H51 H 0.435000 0.689000 0.368000
H52 H 0.422000 0.614000 0.034000
H53 H 0.220000 0.389000 0.195000
H54 H 0.388000 0.674000 0.517000
H55 H 0.931000 0.170000 0.571000
H56 H 0.797000 0.008000 0.162000
H57 H 0.959000 0.228000 0.290000
H58 H 0.810000 0.005000 0.406000
H59 H 0.911000 0.174000 0.019000
H60 H 0.231000 0.542000 0.565000
C61 C 0.114000 0.875180 0.785300
C62 C 0.079100 0.831950 0.710770
C63 C 0.105500 0.876550 0.639180
C64 C 0.169400 0.964080 0.641950
C65 C 0.205600 1.005380 0.716980
C66 C 0.177300 0.963120 0.788670
C67 C 0.083600 0.826780 0.861040
C68 C 0.065500 0.830130 0.559720
C69 C 0.655100 0.428130 0.662140
C70 C 0.609700 0.361000 0.603780
C71 C 0.563200 0.338910 0.780960
C72 C 0.546200 0.330500 0.860800
C73 C 0.595800 0.402300 0.913000
C74 C 0.660100 0.480000 0.884500
C75 C 0.680800 0.490830 0.799810
C76 C 0.753600 0.571670 0.765800
C77 C 0.934500 0.169870 0.440280
C78 C 0.916400 0.173220 0.138960
C79 C 0.822700 0.036880 0.211330
C80 C 0.794400 -0.005380 0.283020
C81 C 0.419500 0.183500 0.323040
C82 C 0.379300 0.113880 0.266920
C83 C 0.380800 0.123540 0.180560
C84 C 0.433300 0.203920 0.144630
C85 C 0.431700 0.212200 0.063500
C86 C 0.377100 0.141200 0.013200
C87 C 0.327600 0.062100 0.043550
C88 C 0.330000 0.050430 0.129180
C89 C 0.282900 -0.031930 0.164300
C90 C 0.285200 -0.041760 0.243900
C91 C 0.332800 0.030770 0.298550
C92 C 0.332200 0.019600 0.382900
C93 C 0.371800 0.088100 0.434100
C94 C 0.412700 0.169700 0.405400
C95 C 0.830600 0.035920 0.358050
C96 C 0.894500 0.123450 0.360820
C97 C 0.920900 0.168050 0.289230
C98 C 0.886000 0.124820 0.214700
C99 C 0.778000 0.577700 0.686900
C100 C 0.732200 0.507370 0.633310
C101 C 0.765000 0.515400 0.549900
C102 C 0.721700 0.448200 0.498300
C103 C 0.645000 0.372000 0.523500
C104 C 0.004800 0.298430 0.944540
C105 C 0.580500 0.816500 0.676960
C106 C 0.620700 0.886120 0.733080
C107 C 0.619200 0.876460 0.819440
C108 C 0.566700 0.796080 0.855370
C109 C 0.568300 0.787800 0.936500
C110 C 0.622900 0.858800 0.986800
C111 C 0.672400 0.937900 0.956450
C112 C 0.670000 0.949570 0.870820
C113 C 0.717100 1.031930 0.835700
C114 C 0.714800 1.041760 0.756100
C115 C 0.667200 0.969230 0.701450
C116 C 0.667800 0.980400 0.617100
C117 C 0.628200 0.911900 0.565900
C118 C 0.587300 0.830300 0.594600
C119 C 0.036500 0.288640 0.645570
C120 C 0.141600 0.424100 0.725570
C121 C 0.167000 0.468660 0.799100
C122 C 0.123600 0.430290 0.871180
C123 C 0.051300 0.343520 0.869070
C124 C 0.022500 0.297810 0.795380
C125 C 0.068000 0.337830 0.723710
C126 C 0.995200 0.701570 0.055460
C127 C 0.963500 0.711360 0.354430
C128 C 0.858400 0.575900 0.274430
C129 C 0.390300 0.639000 0.396220
C130 C 0.344900 0.571870 0.337860
C131 C 0.369100 0.581140 0.251820
C132 C 0.436800 0.661090 0.219040
C133 C 0.453800 0.669500 0.139200
C134 C 0.404200 0.597700 0.087000
C135 C 0.339900 0.520000 0.115500
C136 C 0.319200 0.509170 0.200190
C137 C 0.246400 0.428330 0.234200
C138 C 0.222000 0.422300 0.313100
C139 C 0.267800 0.492630 0.366690
C140 C 0.235000 0.484600 0.450100
C141 C 0.278300 0.551800 0.501700
C142 C 0.355000 0.628000 0.476500
C143 C 0.833000 0.531340 0.200900
C144 C 0.876400 0.569710 0.128820
C145 C 0.948700 0.656480 0.130930
C146 C 0.977500 0.702190 0.204620
C147 C 0.630900 0.418860 0.748180
C148 C 0.932000 0.662170 0.276290
N149 N 0.245100 0.560210 0.801140
N150 N 0.754900 0.439790 0.198860
N151 N 0.722000 -0.097800 0.279710
N152 N 0.278000 1.097800 0.720290
O153 O 0.025100 0.747990 0.856570
O154 O 0.119800 0.869720 0.928070
O155 O 0.712800 -0.136640 0.214450
O156 O 0.673200 -0.131020 0.342400
O157 O 0.909600 0.127370 0.504260
O158 O 0.992900 0.249690 0.440450
O159 O 0.880200 0.130280 0.071930
O160 O 0.974900 0.252010 0.143430
O161 O 0.007100 0.750310 0.559550
O162 O 0.090400 0.872630 0.495740
O163 O 0.280400 0.596380 0.867340
O164 O 0.038100 0.342630 1.011340
O165 O -0.061300 0.220960 0.940680
O166 O -0.047500 0.212820 0.644960
O167 O 0.093700 0.324380 0.582840
O168 O 0.326800 1.131020 0.657600
O169 O 0.726900 0.404930 0.263300
O170 O 0.719600 0.403620 0.132660
O171 O 0.961900 0.657370 -0.011340
O172 O 1.061300 0.779040 0.059320
O173 O 1.047500 0.787180 0.355040
O174 O 0.906300 0.675620 0.417160
O175 O 0.273100 0.595070 0.736700
O176 O 0.287200 1.136640 0.785550

#END
