
#######################################################################
#
#                 Cambridge Crystallographic Data Centre
#                                CCDC 
#
#######################################################################
#
# If this CIF has been generated from an entry in the Cambridge 
# Structural Database, then it will include bibliographic, chemical, 
# crystal, experimental, refinement or atomic coordinate data resulting 
# from the CCDC's data processing and validation procedures.
#
#######################################################################

data_ABUQAR
_symmetry_cell_setting           monoclinic
_symmetry_space_group_name_H-M   'P 21'
_symmetry_Int_Tables_number      4
_space_group_name_Hall           'P 2yb'
loop_
_symmetry_equiv_pos_site_id
_symmetry_equiv_pos_as_xyz
1 x,y,z
2 -x,1/2+y,-z
_cell_length_a                   6.0832(4)
_cell_length_b                   10.0184(7)
_cell_length_c                   12.8934(9)
_cell_angle_alpha                90
_cell_angle_beta                 102.3990(10)
_cell_angle_gamma                90
_cell_volume                     767.447
loop_
_atom_site_label
_atom_site_type_symbol
_atom_site_fract_x
_atom_site_fract_y
_atom_site_fract_z
C1 C 0.5145(3) 0.1570(2) 0.27921(15)
H1 H 0.4041 0.1161 0.3172
C2 C 0.4292(3) -0.0184(2) 0.14174(16)
H2 H 0.3595 -0.0357 0.0662
H3 H 0.3367 -0.0632 0.1859
C3 C 0.6660(3) -0.0758(2) 0.16729(16)
H4 H 0.6586 -0.1745 0.1694
H5 H 0.7464 -0.0501 0.1112
C4 C 0.9899(3) -0.0748(2) 0.32570(16)
H6 H 1.0646 -0.1522 0.3083
C5 C 1.0643(3) 0.0069(2) 0.41060(16)
H7 H 1.1987 -0.0040 0.4632
C6 C 0.9044(3) 0.1111(2) 0.40612(15)
H8 H 0.9120 0.1830 0.4548
C7 C 0.7364(3) 0.08818(19) 0.31788(15)
C8 C 0.5179(3) 0.3047(2) 0.30013(15)
C9 C 0.6792(3) 0.3879(2) 0.27294(16)
H9 H 0.7890 0.3522 0.2382
C10 C 0.6803(3) 0.5241(2) 0.29652(15)
H10 H 0.7897 0.5816 0.2777
C11 C 0.5203(3) 0.5738(2) 0.34756(15)
C12 C 0.3563(3) 0.4930(2) 0.37382(15)
H11 H 0.2462 0.5291 0.4082
C13 C 0.3558(3) 0.3585(2) 0.34902(15)
H12 H 0.2427 0.3021 0.3657
N1 N 0.4329(3) 0.12819(17) 0.16223(12)
H13 H 0.2904 0.1625 0.1394
H14 H 0.5263 0.1692 0.1246
N2 N 0.7878(3) -0.02565(17) 0.26968(13)
Cl1 Cl 0.52990(8) 0.74184(5) 0.38411(4)
C1 C 0.4855(3) 0.6570(2) 0.72079(15)
H1 H 0.5959 0.6161 0.6828
C2 C 0.5708(3) 0.4816(2) 0.85826(16)
H2 H 0.6405 0.4643 0.9338
H3 H 0.6633 0.4368 0.8141
C3 C 0.3340(3) 0.4242(2) 0.83271(16)
H4 H 0.3414 0.3255 0.8306
H5 H 0.2536 0.4499 0.8888
C4 C 0.0101(3) 0.4252(2) 0.67430(16)
H6 H -0.0646 0.3478 0.6917
C5 C -0.0643(3) 0.5069(2) 0.58940(16)
H7 H -0.1987 0.4960 0.5368
C6 C 0.0956(3) 0.6111(2) 0.59388(15)
H8 H 0.0880 0.6830 0.5452
C7 C 0.2636(3) 0.58818(19) 0.68212(15)
C8 C 0.4821(3) 0.8047(2) 0.69987(15)
C9 C 0.3208(3) 0.8879(2) 0.72706(16)
H9 H 0.2110 0.8522 0.7618
C10 C 0.3197(3) 1.0241(2) 0.70348(15)
H10 H 0.2103 1.0816 0.7223
C11 C 0.4797(3) 1.0738(2) 0.65244(15)
C12 C 0.6437(3) 0.9930(2) 0.62618(15)
H11 H 0.7538 1.0291 0.5918
C13 C 0.6442(3) 0.8585(2) 0.65098(15)
H12 H 0.7573 0.8021 0.6343
N1 N 0.5671(3) 0.62819(17) 0.83777(12)
H13 H 0.7096 0.6625 0.8606
H14 H 0.4737 0.6692 0.8754
N2 N 0.2122(3) 0.47435(17) 0.73032(13)
Cl1 Cl 0.47010(8) 1.24184(5) 0.61589(4)
C14 C 0.8503(3) 0.1906(2) 1.02954(15)
C15 C 0.9347(3) 0.1392(2) 0.93183(16)
O1 O 0.9890(2) 0.18744(15) 1.11559(10)
O2 O 0.6487(2) 0.22201(16) 1.01120(11)
F1 F 0.8392(2) 0.20067(14) 0.84198(9)
F2 F 1.1570(2) 0.15457(17) 0.94227(10)
F3 F 0.8935(3) 0.00925(15) 0.91779(12)
C14 C 0.1497(3) 0.6906(2) -0.02954(15)
C15 C 0.0653(3) 0.6392(2) 0.06817(16)
O1 O 0.0110(2) 0.68744(15) -0.11559(10)
O2 O 0.3513(2) 0.72201(16) -0.01120(11)
F1 F 0.1608(2) 0.70067(14) 0.15802(9)
F2 F -0.1570(2) 0.65457(17) 0.05773(10)
F3 F 0.1065(3) 0.50925(15) 0.08221(12)

#END
