./ABUREW_from_POSCAR.cif_generated_by_CrystalShift
_symmetry_cell_setting triclinic
_symmetry_space_group_name_H-M 'P 1'
loop_
_symmetry_equiv_pos_site_id
_symmetry_equiv_pos_as_xyz
1 x,y,z
_cell_length_a 5.004100
_cell_length_b 9.438800
_cell_length_c 14.045100
_cell_angle_alpha 101.515000
_cell_angle_beta 96.482000
_cell_angle_gamma 97.466000
_cell_volume 637.910698
loop_
_atom_site_label
_atom_site_type_symbol
_atom_site_fract_x
_atom_site_fract_y
_atom_site_fract_z
H1 H -0.027200 1.054800 0.790100
H2 H 0.131100 1.339800 1.054800
H3 H 1.027200 0.945200 1.209900
H4 H 1.116900 0.740000 1.102500
H5 H 0.868900 0.660200 0.945200
H6 H -0.027200 1.054800 -0.209900
H7 H -0.116900 1.260000 -0.102500
H8 H 0.131100 1.339800 0.054800
H9 H 1.027200 0.945200 0.209900
H10 H 1.116900 0.740000 0.102500
H11 H 0.868900 0.660200 -0.054800
H12 H -0.027200 0.054800 0.790100
H13 H -0.116900 0.260000 0.897500
H14 H 0.131100 0.339800 1.054800
H15 H 1.027200 -0.054800 1.209900
H16 H 1.116900 -0.260000 1.102500
H17 H 0.868900 -0.339800 0.945200
H18 H -0.027200 0.054800 -0.209900
H19 H -0.116900 0.260000 -0.102500
H20 H 0.131100 0.339800 0.054800
H21 H 1.027200 -0.054800 0.209900
H22 H 1.116900 -0.260000 0.102500
H23 H 0.868900 -0.339800 -0.054800
H24 H -0.116900 1.260000 0.897500
C25 C 0.184300 -0.565300 -0.307140
C26 C 0.678700 0.127490 0.176510
C27 C 0.492800 -0.212820 -0.143030
C28 C 0.381100 0.776900 0.559960
C29 C 0.815700 1.565300 1.307140
C30 C 0.321300 0.872510 0.823490
C31 C 0.507200 1.212820 1.143030
C32 C 0.263800 1.001460 0.885770
C33 C 0.069700 1.083530 0.854790
C34 C 0.018800 1.206800 0.918470
C35 C 0.163200 1.253380 1.012730
C36 C 0.357200 1.172550 1.045510
C37 C 0.405300 1.043210 0.983150
C38 C 0.618900 1.223100 1.440040
C39 C 0.184300 0.434700 0.692860
C40 C 0.678700 1.127490 1.176510
C41 C 0.492800 0.787180 0.856970
C42 C 0.405300 0.043210 -0.016850
C43 C 0.357200 0.172550 0.045510
C44 C 0.163200 0.253380 0.012730
C45 C 0.018800 0.206800 -0.081530
C46 C 0.069700 0.083530 -0.145210
C47 C 0.263800 0.001460 -0.114230
C48 C 0.507200 0.212820 0.143030
C49 C 0.321300 -0.127490 -0.176510
C50 C 0.815700 0.565300 0.307140
C51 C 0.381100 -0.223100 -0.440040
C52 C 0.736200 -0.001460 0.114230
C53 C 0.930300 -0.083530 0.145210
C54 C 0.981200 -0.206800 0.081530
C55 C 0.736200 0.998540 1.114230
C56 C 0.930300 0.916470 1.145210
C57 C 0.981200 0.793200 1.081530
C58 C 0.836800 0.746620 0.987270
C59 C 0.642800 0.827450 0.954490
C60 C 0.594700 0.956790 1.016850
C61 C 0.381100 0.776900 -0.440040
C62 C 0.815700 1.565300 0.307140
C63 C 0.321300 0.872510 -0.176510
C64 C 0.507200 1.212820 0.143030
C65 C 0.263800 1.001460 -0.114230
C66 C 0.069700 1.083530 -0.145210
C67 C 0.018800 1.206800 -0.081530
C68 C 0.163200 1.253380 0.012730
C69 C 0.594700 -0.043210 1.016850
C70 C 0.642800 -0.172550 0.954490
C71 C 0.836800 -0.253380 0.987270
C72 C 0.981200 -0.206800 1.081530
C73 C 0.930300 -0.083530 1.145210
C74 C 0.736200 -0.001460 1.114230
C75 C 0.492800 -0.212820 0.856970
C76 C 0.678700 0.127490 1.176510
C77 C 0.184300 -0.565300 0.692860
C78 C 0.618900 0.223100 1.440040
C79 C 0.836800 -0.253380 -0.012730
C80 C 0.642800 -0.172550 -0.045510
C81 C 0.594700 -0.043210 0.016850
C82 C 0.357200 1.172550 0.045510
C83 C 0.405300 1.043210 -0.016850
C84 C 0.618900 1.223100 0.440040
C85 C 0.184300 0.434700 -0.307140
C86 C 0.678700 1.127490 0.176510
C87 C 0.492800 0.787180 -0.143030
C88 C 0.736200 0.998540 0.114230
C89 C 0.930300 0.916470 0.145210
C90 C 0.981200 0.793200 0.081530
C91 C 0.836800 0.746620 -0.012730
C92 C 0.642800 0.827450 -0.045510
C93 C 0.594700 0.956790 0.016850
C94 C 0.618900 0.223100 0.440040
C95 C 0.381100 -0.223100 0.559960
C96 C 0.405300 0.043210 0.983150
C97 C 0.357200 0.172550 1.045510
C98 C 0.163200 0.253380 1.012730
C99 C 0.018800 0.206800 0.918470
C100 C 0.069700 0.083530 0.854790
C101 C 0.263800 0.001460 0.885770
C102 C 0.507200 0.212820 1.143030
C103 C 0.321300 -0.127490 0.823490
C104 C 0.815700 0.565300 1.307140
O105 O 0.039800 -0.039590 0.601300
O106 O 0.960200 0.039590 0.398700
O107 O 0.489200 -0.027960 0.308500
O108 O 0.814100 0.170010 0.273390
O109 O 0.462800 0.341240 0.205920
O110 O 0.393700 0.585800 0.186790
O111 O 0.039800 0.960410 0.601300
O112 O 0.510800 1.027960 0.691500
O113 O 0.185900 0.829990 0.726610
O114 O 0.766700 1.473200 1.114020
O115 O 0.393700 1.585800 1.186790
O116 O 0.462800 1.341240 1.205920
O117 O 0.537200 0.658760 -0.205920
O118 O 0.606300 0.414200 -0.186790
O119 O 0.233300 0.526800 -0.114020
O120 O 0.510800 0.027960 0.691500
O121 O 0.489200 0.972040 0.308500
O122 O 0.960200 1.039590 0.398700
O123 O 0.185900 -0.170010 0.726610
O124 O 0.766700 0.473200 1.114020
O125 O 0.393700 0.585800 1.186790
O126 O 0.462800 0.341240 1.205920
O127 O 0.766700 0.473200 0.114020
O128 O 0.185900 -0.170010 -0.273390
O129 O 0.510800 0.027960 -0.308500
O130 O 0.039800 -0.039590 -0.398700
O131 O 0.960200 1.039590 1.398700
O132 O 0.489200 0.972040 1.308500
O133 O 0.233300 -0.473200 -0.114020
O134 O 0.606300 -0.585800 -0.186790
O135 O 0.537200 -0.341240 -0.205920
O136 O 0.814100 1.170010 1.273390
O137 O 0.233300 0.526800 0.885980
O138 O 0.606300 0.414200 0.813210
O139 O 0.537200 0.658760 0.794080
O140 O 0.814100 1.170010 0.273390
O141 O 0.537200 -0.341240 0.794080
O142 O 0.606300 -0.585800 0.813210
O143 O 0.233300 -0.473200 0.885980
O144 O 0.462800 1.341240 0.205920
O145 O 0.393700 1.585800 0.186790
O146 O 0.766700 1.473200 0.114020
O147 O 0.185900 0.829990 -0.273390
O148 O 0.510800 1.027960 -0.308500
O149 O 0.039800 0.960410 -0.398700
O150 O 0.814100 0.170010 1.273390
O151 O 0.489200 -0.027960 1.308500
O152 O 0.960200 0.039590 1.398700
F153 F 0.583700 -0.276740 0.601570
F154 F 1.001200 0.480180 0.319350
F155 F 0.171700 0.670360 -0.473950
F156 F 0.458500 0.833010 -0.513260
F157 F 0.583700 0.723260 -0.398430
F158 F 0.828300 0.329640 1.473950
F159 F 0.541500 0.166990 1.513260
F160 F 0.665200 1.570430 0.378870
F161 F 0.541500 0.166990 0.513260
F162 F 0.416300 0.276740 0.398430
F163 F 0.938200 0.699040 0.308280
F164 F 0.665200 0.570430 0.378870
F165 F -0.001200 0.519820 0.680650
F166 F 0.061800 0.300960 0.691720
F167 F 0.334800 0.429570 0.621130
F168 F 0.416300 1.276740 1.398430
F169 F 0.541500 1.166990 1.513260
F170 F 0.828300 1.329640 1.473950
F171 F 0.938200 1.699040 0.308280
F172 F 1.001200 1.480180 0.319350
F173 F 0.583700 -0.276740 -0.398430
F174 F 0.458500 -0.166990 -0.513260
F175 F 1.001200 0.480180 1.319350
F176 F 0.938200 0.699040 1.308280
F177 F 0.416300 0.276740 1.398430
F178 F 0.334800 -0.570430 0.621130
F179 F 0.061800 -0.699040 0.691720
F180 F -0.001200 -0.480180 0.680650
F181 F 0.171700 -0.329640 -0.473950
F182 F -0.001200 0.519820 -0.319350
F183 F 0.665200 0.570430 1.378870
F184 F 0.828300 0.329640 0.473950
F185 F 0.458500 -0.166990 0.486740
F186 F 0.171700 -0.329640 0.526050
F187 F 0.334800 -0.570430 -0.378870
F188 F 0.061800 -0.699040 -0.308280
F189 F -0.001200 -0.480180 -0.319350
F190 F 0.061800 0.300960 -0.308280
F191 F 0.334800 0.429570 -0.378870
F192 F 1.001200 1.480180 1.319350
F193 F 0.938200 1.699040 1.308280
F194 F 0.665200 1.570430 1.378870
F195 F 0.583700 0.723260 0.601570
F196 F 0.458500 0.833010 0.486740
F197 F 0.171700 0.670360 0.526050
F198 F 0.828300 1.329640 0.473950
F199 F 0.541500 1.166990 0.513260
F200 F 0.416300 1.276740 0.398430
S201 S 0.277070 0.923840 0.648790
S202 S 0.597700 1.495690 1.188110
S203 S 0.402300 -0.495690 0.811890
S204 S 0.722930 1.076160 0.351210
S205 S 0.402300 0.504310 -0.188110
S206 S 0.722930 0.076160 1.351210
S207 S 0.597700 1.495690 0.188110
S208 S 0.277070 0.923840 -0.351210
S209 S 0.722930 1.076160 1.351210
S210 S 0.402300 0.504310 0.811890
S211 S 0.277070 -0.076160 0.648790
S212 S 0.277070 -0.076160 -0.351210
S213 S 0.597700 0.495690 0.188110
S214 S 0.722930 0.076160 0.351210
S215 S 0.597700 0.495690 1.188110
S216 S 0.402300 -0.495690 -0.188110

#END
