
#######################################################################
#
#                 Cambridge Crystallographic Data Centre
#                                CCDC 
#
#######################################################################
#
# If this CIF has been generated from an entry in the Cambridge 
# Structural Database, then it will include bibliographic, chemical, 
# crystal, experimental, refinement or atomic coordinate data resulting 
# from the CCDC's data processing and validation procedures.
#
#######################################################################

data_ACANIL
_symmetry_cell_setting           orthorhombic
_symmetry_space_group_name_H-M   'P b c a'
_symmetry_Int_Tables_number      61
_space_group_name_Hall           '-P 2ac 2ab'
loop_
_symmetry_equiv_pos_site_id
_symmetry_equiv_pos_as_xyz
1 x,y,z
2 1/2-x,-y,1/2+z
3 1/2+x,1/2-y,-z
4 -x,1/2+y,1/2-z
5 -x,-y,-z
6 1/2+x,y,1/2-z
7 1/2-x,1/2+y,z
8 x,1/2-y,1/2+z
_cell_length_a                   19.640
_cell_length_b                   9.483
_cell_length_c                   7.979
_cell_angle_alpha                90
_cell_angle_beta                 90
_cell_angle_gamma                90
_cell_volume                     1486.06
loop_
_atom_site_label
_atom_site_type_symbol
_atom_site_fract_x
_atom_site_fract_y
_atom_site_fract_z
C1 C 0.40760 0.07590 0.12940
C2 C 0.35530 -0.01830 0.16910
C3 C 0.29020 0.00520 0.11100
C4 C 0.27610 0.12130 0.01040
C5 C 0.32830 0.21150 -0.03130
C6 C 0.39410 0.19010 0.02510
C7 C 0.52530 0.13670 0.21680
C8 C 0.58640 0.07700 0.30350
H1 H 0.47360 -0.05930 0.24780
H2 H 0.36600 -0.10970 0.24540
H3 H 0.24980 -0.06710 0.14380
H4 H 0.22500 0.14040 -0.03440
H5 H 0.31760 0.30150 -0.11010
H6 H 0.43450 0.26110 -0.01140
H7 H 0.58980 0.12020 0.42850
H8 H 0.63170 0.10400 0.23400
H9 H 0.58170 -0.03630 0.31080
N1 N 0.47240 0.04660 0.19810
O1 O 0.52430 0.25800 0.16640
C1 C 0.09240 0.92410 0.62940
C2 C 0.14470 1.01830 0.66910
C3 C 0.20980 0.99480 0.61100
C4 C 0.22390 0.87870 0.51040
C5 C 0.17170 0.78850 0.46870
C6 C 0.10590 0.80990 0.52510
C7 C -0.02530 0.86330 0.71680
C8 C -0.08640 0.92300 0.80350
H1 H 0.02640 1.05930 0.74780
H2 H 0.13400 1.10970 0.74540
H3 H 0.25020 1.06710 0.64380
H4 H 0.27500 0.85960 0.46560
H5 H 0.18240 0.69850 0.38990
H6 H 0.06550 0.73890 0.48860
H7 H -0.08980 0.87980 0.92850
H8 H -0.13170 0.89600 0.73400
H9 H -0.08170 1.03630 0.81080
N1 N 0.02760 0.95340 0.69810
O1 O -0.02430 0.74200 0.66640
C1 C 0.90760 0.42410 0.87060
C2 C 0.85530 0.51830 0.83090
C3 C 0.79020 0.49480 0.88900
C4 C 0.77610 0.37870 0.98960
C5 C 0.82830 0.28850 1.03130
C6 C 0.89410 0.30990 0.97490
C7 C 1.02530 0.36330 0.78320
C8 C 1.08640 0.42300 0.69650
H1 H 0.97360 0.55930 0.75220
H2 H 0.86600 0.60970 0.75460
H3 H 0.74980 0.56710 0.85620
H4 H 0.72500 0.35960 1.03440
H5 H 0.81760 0.19850 1.11010
H6 H 0.93450 0.23890 1.01140
H7 H 1.08980 0.37980 0.57150
H8 H 1.13170 0.39600 0.76600
H9 H 1.08170 0.53630 0.68920
N1 N 0.97240 0.45340 0.80190
O1 O 1.02430 0.24200 0.83360
C1 C 0.59240 0.57590 0.37060
C2 C 0.64470 0.48170 0.33090
C3 C 0.70980 0.50520 0.38900
C4 C 0.72390 0.62130 0.48960
C5 C 0.67170 0.71150 0.53130
C6 C 0.60590 0.69010 0.47490
C7 C 0.47470 0.63670 0.28320
C8 C 0.41360 0.57700 0.19650
H1 H 0.52640 0.44070 0.25220
H2 H 0.63400 0.39030 0.25460
H3 H 0.75020 0.43290 0.35620
H4 H 0.77500 0.64040 0.53440
H5 H 0.68240 0.80150 0.61010
H6 H 0.56550 0.76110 0.51140
H7 H 0.41020 0.62020 0.07150
H8 H 0.36830 0.60400 0.26600
H9 H 0.41830 0.46370 0.18920
N1 N 0.52760 0.54660 0.30190
O1 O 0.47570 0.75800 0.33360
C1 C 0.59240 0.92410 0.87060
C2 C 0.64470 1.01830 0.83090
C3 C 0.70980 0.99480 0.88900
C4 C 0.72390 0.87870 0.98960
C5 C 0.67170 0.78850 1.03130
C6 C 0.60590 0.80990 0.97490
C7 C 0.47470 0.86330 0.78320
C8 C 0.41360 0.92300 0.69650
H1 H 0.52640 1.05930 0.75220
H2 H 0.63400 1.10970 0.75460
H3 H 0.75020 1.06710 0.85620
H4 H 0.77500 0.85960 1.03440
H5 H 0.68240 0.69850 1.11010
H6 H 0.56550 0.73890 1.01140
H7 H 0.41020 0.87980 0.57150
H8 H 0.36830 0.89600 0.76600
H9 H 0.41830 1.03630 0.68920
N1 N 0.52760 0.95340 0.80190
O1 O 0.47570 0.74200 0.83360
C1 C 0.90760 0.07590 0.37060
C2 C 0.85530 -0.01830 0.33090
C3 C 0.79020 0.00520 0.38900
C4 C 0.77610 0.12130 0.48960
C5 C 0.82830 0.21150 0.53130
C6 C 0.89410 0.19010 0.47490
C7 C 1.02530 0.13670 0.28320
C8 C 1.08640 0.07700 0.19650
H1 H 0.97360 -0.05930 0.25220
H2 H 0.86600 -0.10970 0.25460
H3 H 0.74980 -0.06710 0.35620
H4 H 0.72500 0.14040 0.53440
H5 H 0.81760 0.30150 0.61010
H6 H 0.93450 0.26110 0.51140
H7 H 1.08980 0.12020 0.07150
H8 H 1.13170 0.10400 0.26600
H9 H 1.08170 -0.03630 0.18920
N1 N 0.97240 0.04660 0.30190
O1 O 1.02430 0.25800 0.33360
C1 C 0.09240 0.57590 0.12940
C2 C 0.14470 0.48170 0.16910
C3 C 0.20980 0.50520 0.11100
C4 C 0.22390 0.62130 0.01040
C5 C 0.17170 0.71150 -0.03130
C6 C 0.10590 0.69010 0.02510
C7 C -0.02530 0.63670 0.21680
C8 C -0.08640 0.57700 0.30350
H1 H 0.02640 0.44070 0.24780
H2 H 0.13400 0.39030 0.24540
H3 H 0.25020 0.43290 0.14380
H4 H 0.27500 0.64040 -0.03440
H5 H 0.18240 0.80150 -0.11010
H6 H 0.06550 0.76110 -0.01140
H7 H -0.08980 0.62020 0.42850
H8 H -0.13170 0.60400 0.23400
H9 H -0.08170 0.46370 0.31080
N1 N 0.02760 0.54660 0.19810
O1 O -0.02430 0.75800 0.16640
C1 C 0.40760 0.42410 0.62940
C2 C 0.35530 0.51830 0.66910
C3 C 0.29020 0.49480 0.61100
C4 C 0.27610 0.37870 0.51040
C5 C 0.32830 0.28850 0.46870
C6 C 0.39410 0.30990 0.52510
C7 C 0.52530 0.36330 0.71680
C8 C 0.58640 0.42300 0.80350
H1 H 0.47360 0.55930 0.74780
H2 H 0.36600 0.60970 0.74540
H3 H 0.24980 0.56710 0.64380
H4 H 0.22500 0.35960 0.46560
H5 H 0.31760 0.19850 0.38990
H6 H 0.43450 0.23890 0.48860
H7 H 0.58980 0.37980 0.92850
H8 H 0.63170 0.39600 0.73400
H9 H 0.58170 0.53630 0.81080
N1 N 0.47240 0.45340 0.69810
O1 O 0.52430 0.24200 0.66640

#END
