./ACAQGD_from_POSCAR.cif_generated_by_CrystalShift
_symmetry_cell_setting triclinic
_symmetry_space_group_name_H-M 'P 1'
loop_
_symmetry_equiv_pos_site_id
_symmetry_equiv_pos_as_xyz
1 x,y,z
_cell_length_a 10.790000
_cell_length_b 9.395000
_cell_length_c 8.941000
_cell_angle_alpha 60.980000
_cell_angle_beta 88.500000
_cell_angle_gamma 62.310000
_cell_volume 678.169943
loop_
_atom_site_label
_atom_site_type_symbol
_atom_site_fract_x
_atom_site_fract_y
_atom_site_fract_z
H1 H 1.186000 0.788000 -0.146000
H2 H 0.606000 0.589000 0.408000
H3 H 0.418000 0.558000 0.577000
H4 H 0.394000 0.411000 0.592000
H5 H 0.458000 0.764000 0.557000
H6 H 0.340000 0.560000 -0.120000
H7 H 0.186000 0.788000 -0.146000
H8 H 0.364000 0.605000 -0.007000
H9 H 0.557000 0.632000 0.671000
H10 H 0.542000 0.236000 0.443000
H11 H 0.443000 0.368000 0.329000
H12 H 0.628000 0.928000 0.152000
H13 H 0.148000 -0.037000 0.048000
H14 H 0.324000 -0.254000 0.221000
H15 H 0.182000 -0.221000 0.229000
H16 H 0.518000 1.016000 0.234000
H17 H 0.583000 1.141000 0.157000
H18 H 0.818000 1.221000 0.771000
H19 H 0.676000 1.254000 0.779000
H20 H 0.417000 -0.141000 0.843000
H21 H 0.482000 -0.016000 0.766000
H22 H 0.372000 0.072000 0.848000
H23 H 0.852000 1.037000 0.952000
H24 H -0.084000 0.199000 0.499000
H25 H -0.170000 0.375000 0.402000
H26 H 0.636000 0.395000 1.007000
H27 H -0.127000 0.713000 0.120000
H28 H -0.122000 0.738000 0.268000
H29 H 0.814000 0.212000 1.146000
H30 H 0.660000 0.440000 1.120000
H31 H 1.122000 0.262000 0.732000
H32 H 1.127000 0.287000 0.880000
H33 H 1.170000 0.625000 0.598000
H34 H 1.084000 0.801000 0.501000
H35 H 0.878000 0.738000 1.268000
H36 H 0.873000 0.713000 1.120000
H37 H 0.830000 0.375000 1.402000
H38 H 0.916000 0.199000 1.499000
H39 H 1.372000 0.072000 1.848000
H40 H 1.482000 -0.016000 1.766000
H41 H 0.084000 0.801000 -0.499000
H42 H 0.170000 0.625000 -0.402000
H43 H 0.127000 0.287000 -0.120000
H44 H 0.122000 0.262000 -0.268000
H45 H 1.417000 -0.141000 1.843000
H46 H 1.182000 -0.221000 1.229000
H47 H 1.324000 -0.254000 1.221000
H48 H -0.340000 0.440000 0.120000
H49 H -0.186000 0.212000 0.146000
H50 H -0.364000 0.395000 0.007000
H51 H -0.148000 1.037000 -0.048000
H52 H -0.324000 1.254000 -0.221000
H53 H -0.182000 1.221000 -0.229000
H54 H -0.417000 1.141000 -0.843000
H55 H -0.482000 1.016000 -0.766000
H56 H -0.372000 0.928000 -0.848000
H57 H 1.148000 -0.037000 1.048000
H58 H 1.364000 0.605000 0.993000
H59 H 1.186000 0.788000 0.854000
H60 H 1.340000 0.560000 0.880000
H61 H 0.628000 0.928000 -0.848000
H62 H 0.340000 0.560000 0.880000
H63 H 0.186000 0.788000 0.854000
H64 H 0.364000 0.605000 0.993000
H65 H 0.518000 1.016000 -0.766000
H66 H 0.583000 1.141000 -0.843000
H67 H 0.818000 1.221000 -0.229000
H68 H 0.676000 1.254000 -0.221000
H69 H 0.148000 -0.037000 1.048000
H70 H 0.324000 -0.254000 1.221000
H71 H 0.182000 -0.221000 1.229000
H72 H 0.852000 1.037000 -0.048000
H73 H 0.636000 0.395000 0.007000
H74 H 0.814000 0.212000 0.146000
H75 H 0.660000 0.440000 0.120000
H76 H 0.417000 -0.141000 1.843000
H77 H 0.482000 -0.016000 1.766000
H78 H 0.372000 0.072000 1.848000
H79 H 1.122000 0.262000 -0.268000
H80 H -0.084000 0.199000 1.499000
H81 H -0.170000 0.375000 1.402000
H82 H 1.127000 0.287000 -0.120000
H83 H -0.127000 0.713000 1.120000
H84 H -0.122000 0.738000 1.268000
H85 H 1.170000 0.625000 -0.402000
H86 H 1.084000 0.801000 -0.499000
H87 H 0.878000 0.738000 0.268000
H88 H 0.873000 0.713000 0.120000
H89 H 0.830000 0.375000 0.402000
H90 H 0.916000 0.199000 0.499000
H91 H 1.372000 0.072000 0.848000
H92 H 1.482000 -0.016000 0.766000
H93 H 1.417000 -0.141000 0.843000
H94 H 1.182000 -0.221000 0.229000
H95 H 1.324000 -0.254000 0.221000
H96 H 1.148000 -0.037000 0.048000
H97 H 0.084000 0.801000 0.501000
H98 H 0.170000 0.625000 0.598000
H99 H 0.127000 0.287000 0.880000
H100 H 0.122000 0.262000 0.732000
H101 H 1.364000 0.605000 -0.007000
H102 H 0.582000 0.442000 0.423000
H103 H 1.340000 0.560000 -0.120000
H104 H -0.340000 0.440000 1.120000
H105 H -0.186000 0.212000 1.146000
H106 H -0.364000 0.395000 1.007000
H107 H -0.148000 1.037000 0.952000
H108 H -0.324000 1.254000 0.779000
H109 H -0.182000 1.221000 0.771000
H110 H -0.417000 1.141000 0.157000
H111 H -0.482000 1.016000 0.234000
H112 H -0.372000 0.928000 0.152000
C113 C 0.167400 0.018500 0.213000
C114 C 0.294700 0.112900 0.601100
C115 C 0.408500 0.004800 0.770500
C116 C 1.214100 0.528300 0.038600
C117 C 1.282100 0.632800 -0.076700
C118 C -0.408500 0.995200 0.229500
C119 C -0.204800 1.133500 0.827300
C120 C -0.282100 0.367200 1.076700
C121 C 0.591500 0.995200 0.229500
C122 C 0.795200 1.133500 0.827300
C123 C 1.167400 0.018500 0.213000
C124 C 1.204800 -0.133500 0.172700
C125 C -0.294700 0.887100 0.398900
C126 C -0.167400 0.981500 0.787000
C127 C -0.214100 0.471700 0.961400
C128 C 0.717900 0.367200 1.076700
C129 C 0.705300 0.887100 0.398900
C130 C 1.294700 0.112900 0.601100
C131 C 1.408500 0.004800 0.770500
C132 C 0.832600 0.981500 0.787000
C133 C 0.785900 0.471700 0.961400
C134 C -0.214100 0.471700 -0.038600
C135 C -0.167400 0.981500 -0.213000
C136 C -0.294700 0.887100 -0.601100
C137 C -0.282100 0.367200 0.076700
C138 C 1.408500 0.004800 1.770500
C139 C 1.294700 0.112900 1.601100
C140 C -0.204800 1.133500 -0.172700
C141 C -0.408500 0.995200 -0.770500
C142 C 1.204800 -0.133500 1.172700
C143 C 1.167400 0.018500 1.213000
C144 C 0.282100 0.632800 -0.076700
C145 C 0.214100 0.528300 1.038600
C146 C 1.282100 0.632800 0.923300
C147 C 1.214100 0.528300 1.038600
C148 C 0.204800 -0.133500 0.172700
C149 C 0.282100 0.632800 0.923300
C150 C 0.785900 0.471700 -0.038600
C151 C 0.832600 0.981500 -0.213000
C152 C 0.705300 0.887100 -0.601100
C153 C 0.167400 0.018500 1.213000
C154 C 0.214100 0.528300 0.038600
C155 C 0.204800 -0.133500 1.172700
C156 C 0.294700 0.112900 1.601100
C157 C 0.717900 0.367200 0.076700
C158 C 0.795200 1.133500 -0.172700
C159 C 0.591500 0.995200 -0.770500
C160 C 0.408500 0.004800 1.770500
O161 O -0.082500 0.284900 1.438400
O162 O 0.306700 0.042300 1.508900
O163 O 0.186300 0.274900 1.550300
O164 O -0.067400 0.624600 1.221700
O165 O -0.099600 0.450800 1.027400
O166 O 0.208700 0.134000 1.134500
O167 O 0.095200 0.027800 1.325100
O168 O 1.067400 0.375400 -0.221700
O169 O 1.082500 0.715100 -0.438400
O170 O 0.371600 0.459600 0.645500
O171 O 1.267900 0.418100 1.202800
O172 O 0.693300 0.957700 -0.508900
O173 O 0.813700 0.725100 -0.550300
O174 O 0.791300 0.866000 -0.134500
O175 O 0.267900 0.418100 1.202800
O176 O 0.904800 0.972200 -0.325100
O177 O 1.095200 0.027800 1.325100
O178 O 1.208700 0.134000 1.134500
O179 O 0.732100 0.581900 -0.202800
O180 O 0.900400 0.450800 0.027400
O181 O 0.099600 0.549200 0.972600
O182 O 0.267900 0.418100 0.202800
O183 O -0.267900 0.581900 0.797200
O184 O 1.186300 0.274900 1.550300
O185 O 1.306700 0.042300 1.508900
O186 O -0.095200 0.972200 0.674900
O187 O 0.932600 0.624600 0.221700
O188 O -0.208700 0.866000 0.865500
O189 O -0.186300 0.725100 0.449700
O190 O 0.917500 0.284900 0.438400
O191 O 0.917500 0.284900 1.438400
O192 O -0.306700 0.957700 0.491100
O193 O 0.067400 0.375400 -0.221700
O194 O 0.932600 0.624600 1.221700
O195 O 0.082500 0.715100 -0.438400
O196 O -0.306700 0.957700 -0.508900
O197 O 0.095200 0.027800 0.325100
O198 O 0.900400 0.450800 1.027400
O199 O 0.732100 0.581900 0.797200
O200 O 0.904800 0.972200 0.674900
O201 O 0.791300 0.866000 0.865500
O202 O 0.813700 0.725100 0.449700
O203 O 0.693300 0.957700 0.491100
O204 O 1.082500 0.715100 0.561600
O205 O 1.067400 0.375400 0.778300
O206 O 0.082500 0.715100 0.561600
O207 O 0.067400 0.375400 0.778300
O208 O 1.306700 0.042300 0.508900
O209 O -0.186300 0.725100 -0.550300
O210 O -0.208700 0.866000 -0.134500
O211 O -0.095200 0.972200 -0.325100
O212 O -0.267900 0.581900 -0.202800
O213 O 1.186300 0.274900 0.550300
O214 O 1.208700 0.134000 0.134500
O215 O 1.095200 0.027800 0.325100
O216 O -0.099600 0.450800 0.027400
O217 O 0.496000 0.680600 0.576200
O218 O -0.067400 0.624600 0.221700
O219 O -0.082500 0.284900 0.438400
O220 O 1.267900 0.418100 0.202800
O221 O 0.628400 0.540400 0.354500
O222 O 0.306700 0.042300 0.508900
O223 O 0.186300 0.274900 0.550300
O224 O 1.099600 0.549200 0.972600
O225 O 0.504000 0.319400 0.423800
O226 O 1.099600 0.549200 -0.027400
O227 O 0.208700 0.134000 0.134500
O228 O 0.099600 0.549200 -0.027400
Gd229 Gd 0.910210 0.685840 0.724910
Gd230 Gd 0.089790 0.314160 1.275090
Gd231 Gd 1.089790 0.314160 1.275090
Gd232 Gd -0.089790 0.685840 0.724910
Gd233 Gd 0.910210 0.685840 -0.275090
Gd234 Gd 1.089790 0.314160 0.275090
Gd235 Gd 0.089790 0.314160 0.275090
Gd236 Gd -0.089790 0.685840 -0.275090

#END
