
#######################################################################
#
#                 Cambridge Crystallographic Data Centre
#                                CCDC 
#
#######################################################################
#
# If this CIF has been generated from an entry in the Cambridge 
# Structural Database, then it will include bibliographic, chemical, 
# crystal, experimental, refinement or atomic coordinate data resulting 
# from the CCDC's data processing and validation procedures.
#
#######################################################################

data_ACAWOQ
_symmetry_cell_setting           monoclinic
_symmetry_space_group_name_H-M   'P 21/n'
_symmetry_Int_Tables_number      14
_space_group_name_Hall           '-P 2yn'
loop_
_symmetry_equiv_pos_site_id
_symmetry_equiv_pos_as_xyz
1 x,y,z
2 1/2-x,1/2+y,1/2-z
3 -x,-y,-z
4 1/2+x,1/2-y,1/2+z
_cell_length_a                   8.823(2)
_cell_length_b                   16.955(3)
_cell_length_c                   9.594(2)
_cell_angle_alpha                90
_cell_angle_beta                 113.90(2)
_cell_angle_gamma                90
_cell_volume                     1312.14
loop_
_atom_site_label
_atom_site_type_symbol
_atom_site_fract_x
_atom_site_fract_y
_atom_site_fract_z
Br1 Br 1.03277(5) 0.20655(3) 1.24005(4)
O1 O 0.8964(4) 0.3617(2) 1.2392(3)
O2 O 0.8096(4) 0.3944(2) 1.0018(3)
N1 N 0.8853(4) 0.3498(2) 1.1085(3)
N2 N 0.9916(4) 0.3195(2) 0.8543(3)
C1 C 0.9554(5) 0.2798(2) 1.0794(4)
C2 C 0.9633(4) 0.2635(2) 0.9396(4)
C3 C 0.9224(5) 0.3162(3) 0.6868(4)
C4 C 1.0494(5) 0.3352(3) 0.6236(4)
C5 C 1.1320(6) 0.4137(3) 0.6856(5)
C6 C 1.2034(6) 0.4141(3) 0.8569(5)
C7 C 1.0703(5) 0.3955(2) 0.9157(4)
C8 C 0.9508(5) 0.1810(2) 0.8847(4)
C9 C 0.8259(5) 0.1320(3) 0.8875(4)
C10 C 0.8125(6) 0.0558(3) 0.8338(5)
C11 C 0.9258(7) 0.0274(3) 0.7805(5)
C12 C 1.0502(6) 0.0752(3) 0.7783(5)
C13 C 1.0638(5) 0.1517(2) 0.8310(4)
H1 H 0.757(4) 0.148(2) 0.913(4)
H2 H 0.723(5) 0.024(2) 0.838(4)
H3 H 0.909(6) -0.020(3) 0.741(4)
H4 H 1.131(6) 0.057(3) 0.750(5)
H5 H 1.152(5) 0.182(2) 0.826(4)
H6 H 0.874(5) 0.274(2) 0.659(4)
H7 H 0.840(4) 0.356(2) 0.656(4)
H8 H 1.131(5) 0.294(2) 0.661(4)
H9 H 0.988(6) 0.341(3) 0.512(5)
H10 H 1.215(5) 0.427(3) 0.659(4)
H11 H 1.041(6) 0.460(3) 0.639(5)
H12 H 1.289(5) 0.376(2) 0.899(4)
H13 H 1.248(5) 0.463(2) 0.902(5)
H14 H 1.111(5) 0.392(2) 1.019(4)
H15 H 0.983(5) 0.439(2) 0.891(4)
Br1 Br 0.46723(5) 0.70655(3) 0.25995(4)
O1 O 0.6036(4) 0.8617(2) 0.2608(3)
O2 O 0.6904(4) 0.8944(2) 0.4982(3)
N1 N 0.6147(4) 0.8498(2) 0.3915(3)
N2 N 0.5084(4) 0.8195(2) 0.6457(3)
C1 C 0.5446(5) 0.7798(2) 0.4206(4)
C2 C 0.5367(4) 0.7635(2) 0.5604(4)
C3 C 0.5776(5) 0.8162(3) 0.8132(4)
C4 C 0.4506(5) 0.8352(3) 0.8764(4)
C5 C 0.3680(6) 0.9137(3) 0.8144(5)
C6 C 0.2966(6) 0.9141(3) 0.6431(5)
C7 C 0.4297(5) 0.8955(2) 0.5843(4)
C8 C 0.5492(5) 0.6810(2) 0.6153(4)
C9 C 0.6741(5) 0.6320(3) 0.6125(4)
C10 C 0.6875(6) 0.5558(3) 0.6662(5)
C11 C 0.5742(7) 0.5274(3) 0.7195(5)
C12 C 0.4498(6) 0.5752(3) 0.7217(5)
C13 C 0.4362(5) 0.6517(2) 0.6690(4)
H1 H 0.743(4) 0.648(2) 0.587(4)
H2 H 0.777(5) 0.524(2) 0.662(4)
H3 H 0.591(6) 0.480(3) 0.759(4)
H4 H 0.369(6) 0.557(3) 0.750(5)
H5 H 0.348(5) 0.682(2) 0.674(4)
H6 H 0.626(5) 0.774(2) 0.841(4)
H7 H 0.660(4) 0.856(2) 0.844(4)
H8 H 0.369(5) 0.794(2) 0.839(4)
H9 H 0.512(6) 0.841(3) 0.988(5)
H10 H 0.285(5) 0.927(3) 0.841(4)
H11 H 0.459(6) 0.960(3) 0.861(5)
H12 H 0.211(5) 0.876(2) 0.601(4)
H13 H 0.252(5) 0.963(2) 0.598(5)
H14 H 0.389(5) 0.892(2) 0.481(4)
H15 H 0.517(5) 0.939(2) 0.609(4)
Br1 Br -0.03277(5) 0.79345(3) -0.24005(4)
O1 O 0.1036(4) 0.6383(2) -0.2392(3)
O2 O 0.1904(4) 0.6056(2) -0.0018(3)
N1 N 0.1147(4) 0.6502(2) -0.1085(3)
N2 N 0.0084(4) 0.6805(2) 0.1457(3)
C1 C 0.0446(5) 0.7202(2) -0.0794(4)
C2 C 0.0367(4) 0.7365(2) 0.0604(4)
C3 C 0.0776(5) 0.6838(3) 0.3132(4)
C4 C -0.0494(5) 0.6648(3) 0.3764(4)
C5 C -0.1320(6) 0.5863(3) 0.3144(5)
C6 C -0.2034(6) 0.5859(3) 0.1431(5)
C7 C -0.0703(5) 0.6045(2) 0.0843(4)
C8 C 0.0492(5) 0.8190(2) 0.1153(4)
C9 C 0.1741(5) 0.8680(3) 0.1125(4)
C10 C 0.1875(6) 0.9442(3) 0.1662(5)
C11 C 0.0742(7) 0.9726(3) 0.2195(5)
C12 C -0.0502(6) 0.9248(3) 0.2217(5)
C13 C -0.0638(5) 0.8483(2) 0.1690(4)
H1 H 0.243(4) 0.852(2) 0.087(4)
H2 H 0.277(5) 0.976(2) 0.162(4)
H3 H 0.091(6) 1.020(3) 0.259(4)
H4 H -0.131(6) 0.943(3) 0.250(5)
H5 H -0.152(5) 0.818(2) 0.174(4)
H6 H 0.126(5) 0.726(2) 0.341(4)
H7 H 0.160(4) 0.644(2) 0.344(4)
H8 H -0.131(5) 0.706(2) 0.339(4)
H9 H 0.012(6) 0.659(3) 0.488(5)
H10 H -0.215(5) 0.573(3) 0.341(4)
H11 H -0.041(6) 0.540(3) 0.361(5)
H12 H -0.289(5) 0.624(2) 0.101(4)
H13 H -0.248(5) 0.537(2) 0.098(5)
H14 H -0.111(5) 0.608(2) -0.019(4)
H15 H 0.017(5) 0.561(2) 0.109(4)
Br1 Br 0.53277(5) 0.29345(3) 0.74005(4)
O1 O 0.3964(4) 0.1383(2) 0.7392(3)
O2 O 0.3096(4) 0.1056(2) 0.5018(3)
N1 N 0.3853(4) 0.1502(2) 0.6085(3)
N2 N 0.4916(4) 0.1805(2) 0.3543(3)
C1 C 0.4554(5) 0.2202(2) 0.5794(4)
C2 C 0.4633(4) 0.2365(2) 0.4396(4)
C3 C 0.4224(5) 0.1838(3) 0.1868(4)
C4 C 0.5494(5) 0.1648(3) 0.1236(4)
C5 C 0.6320(6) 0.0863(3) 0.1856(5)
C6 C 0.7034(6) 0.0859(3) 0.3569(5)
C7 C 0.5703(5) 0.1045(2) 0.4157(4)
C8 C 0.4508(5) 0.3190(2) 0.3847(4)
C9 C 0.3259(5) 0.3680(3) 0.3875(4)
C10 C 0.3125(6) 0.4442(3) 0.3338(5)
C11 C 0.4258(7) 0.4726(3) 0.2805(5)
C12 C 0.5502(6) 0.4248(3) 0.2783(5)
C13 C 0.5638(5) 0.3483(2) 0.3310(4)
H1 H 0.257(4) 0.352(2) 0.413(4)
H2 H 0.223(5) 0.476(2) 0.338(4)
H3 H 0.409(6) 0.520(3) 0.241(4)
H4 H 0.631(6) 0.443(3) 0.250(5)
H5 H 0.652(5) 0.318(2) 0.326(4)
H6 H 0.374(5) 0.226(2) 0.159(4)
H7 H 0.340(4) 0.144(2) 0.156(4)
H8 H 0.631(5) 0.206(2) 0.161(4)
H9 H 0.488(6) 0.159(3) 0.012(5)
H10 H 0.715(5) 0.073(3) 0.159(4)
H11 H 0.541(6) 0.040(3) 0.139(5)
H12 H 0.789(5) 0.124(2) 0.399(4)
H13 H 0.748(5) 0.037(2) 0.402(5)
H14 H 0.611(5) 0.108(2) 0.519(4)
H15 H 0.483(5) 0.061(2) 0.391(4)

#END
