
#######################################################################
#
#                 Cambridge Crystallographic Data Centre
#                                CCDC 
#
#######################################################################
#
# If this CIF has been generated from an entry in the Cambridge 
# Structural Database, then it will include bibliographic, chemical, 
# crystal, experimental, refinement or atomic coordinate data resulting 
# from the CCDC's data processing and validation procedures.
#
#######################################################################

data_ACBIPH
_symmetry_cell_setting           monoclinic
_symmetry_space_group_name_H-M   'P 21/c'
_symmetry_Int_Tables_number      14
_space_group_name_Hall           '-P 2ybc'
loop_
_symmetry_equiv_pos_site_id
_symmetry_equiv_pos_as_xyz
1 x,y,z
2 -x,1/2+y,1/2-z
3 -x,-y,-z
4 x,1/2-y,1/2+z
_cell_length_a                   4.0(10)
_cell_length_b                   38.510(10)
_cell_length_c                   7.520(10)
_cell_angle_alpha                90
_cell_angle_beta                 100.07(8)
_cell_angle_gamma                90
_cell_volume                     1140.54
loop_
_atom_site_label
_atom_site_type_symbol
_atom_site_fract_x
_atom_site_fract_y
_atom_site_fract_z
Cl1 Cl -0.18907 0.20279 0.01677
C1 C 0.16935 0.15425 0.24745
C2 C -0.12472 0.07210 -0.13468
C3 C -0.15937 0.06916 0.04215
C4 C -0.07067 0.09546 0.16532
C5 C -0.23332 0.04375 -0.27142
C6 C -0.35322 0.01253 -0.21390
C7 C 0.07235 0.18997 0.21539
C8 C 0.17685 0.21429 0.34840
C9 C 0.38075 0.20597 0.51015
C10 C 0.47030 0.17151 0.54434
C11 C 0.36535 0.14631 0.41136
C12 C 0.06412 0.12641 0.11153
C13 C 0.11242 0.12976 -0.06626
C14 C 0.01997 0.10264 -0.19003
H1 H -0.25752 0.04611 0.08539
H2 H -0.10540 0.09216 0.30407
H3 H -0.54510 0.01865 -0.14122
H4 H -0.14862 0.00049 -0.13195
H5 H -0.44015 -0.00212 -0.32961
H6 H 0.09847 0.23994 0.32560
H7 H 0.47117 0.22636 0.61068
H8 H 0.62135 0.16404 0.67375
H9 H 0.43895 0.12058 0.43799
H10 H 0.22145 0.15331 -0.10938
H11 H 0.06020 0.10526 -0.32823
O1 O -0.23987 0.05061 -0.44098
Cl1 Cl 1.18907 0.70279 0.48323
C1 C 0.83065 0.65425 0.25255
C2 C 1.12472 0.57210 0.63468
C3 C 1.15937 0.56916 0.45785
C4 C 1.07067 0.59546 0.33468
C5 C 1.23332 0.54375 0.77142
C6 C 1.35322 0.51253 0.71390
C7 C 0.92765 0.68997 0.28461
C8 C 0.82315 0.71429 0.15160
C9 C 0.61925 0.70597 -0.01015
C10 C 0.52970 0.67151 -0.04434
C11 C 0.63465 0.64631 0.08864
C12 C 0.93588 0.62641 0.38847
C13 C 0.88758 0.62976 0.56626
C14 C 0.98003 0.60264 0.69003
H1 H 1.25752 0.54611 0.41461
H2 H 1.10540 0.59216 0.19593
H3 H 1.54510 0.51865 0.64122
H4 H 1.14862 0.50049 0.63195
H5 H 1.44015 0.49788 0.82961
H6 H 0.90153 0.73994 0.17440
H7 H 0.52883 0.72636 -0.11068
H8 H 0.37865 0.66404 -0.17375
H9 H 0.56105 0.62058 0.06201
H10 H 0.77855 0.65331 0.60938
H11 H 0.93980 0.60526 0.82823
O1 O 1.23987 0.55061 0.94098
Cl1 Cl 1.18907 0.79721 0.98323
C1 C 0.83065 0.84575 0.75255
C2 C 1.12472 0.92790 1.13468
C3 C 1.15937 0.93084 0.95785
C4 C 1.07067 0.90454 0.83468
C5 C 1.23332 0.95625 1.27142
C6 C 1.35322 0.98747 1.21390
C7 C 0.92765 0.81003 0.78461
C8 C 0.82315 0.78571 0.65160
C9 C 0.61925 0.79403 0.48985
C10 C 0.52970 0.82849 0.45566
C11 C 0.63465 0.85369 0.58864
C12 C 0.93588 0.87359 0.88847
C13 C 0.88758 0.87024 1.06626
C14 C 0.98003 0.89736 1.19003
H1 H 1.25752 0.95389 0.91461
H2 H 1.10540 0.90784 0.69593
H3 H 1.54510 0.98135 1.14122
H4 H 1.14862 0.99951 1.13195
H5 H 1.44015 1.00212 1.32961
H6 H 0.90153 0.76006 0.67440
H7 H 0.52883 0.77364 0.38932
H8 H 0.37865 0.83596 0.32625
H9 H 0.56105 0.87942 0.56201
H10 H 0.77855 0.84669 1.10938
H11 H 0.93980 0.89474 1.32823
O1 O 1.23987 0.94939 1.44098
Cl1 Cl -0.18907 0.29721 0.51677
C1 C 0.16935 0.34575 0.74745
C2 C -0.12472 0.42790 0.36532
C3 C -0.15937 0.43084 0.54215
C4 C -0.07067 0.40454 0.66532
C5 C -0.23332 0.45625 0.22858
C6 C -0.35322 0.48747 0.28610
C7 C 0.07235 0.31003 0.71539
C8 C 0.17685 0.28571 0.84840
C9 C 0.38075 0.29403 1.01015
C10 C 0.47030 0.32849 1.04434
C11 C 0.36535 0.35369 0.91136
C12 C 0.06412 0.37359 0.61153
C13 C 0.11242 0.37024 0.43374
C14 C 0.01997 0.39736 0.30997
H1 H -0.25752 0.45389 0.58539
H2 H -0.10540 0.40784 0.80407
H3 H -0.54510 0.48135 0.35878
H4 H -0.14862 0.49951 0.36805
H5 H -0.44015 0.50212 0.17039
H6 H 0.09847 0.26006 0.82560
H7 H 0.47117 0.27364 1.11068
H8 H 0.62135 0.33596 1.17375
H9 H 0.43895 0.37942 0.93799
H10 H 0.22145 0.34669 0.39062
H11 H 0.06020 0.39474 0.17177
O1 O -0.23987 0.44939 0.05902

#END
