
#######################################################################
#
#                 Cambridge Crystallographic Data Centre
#                                CCDC 
#
#######################################################################
#
# If this CIF has been generated from an entry in the Cambridge 
# Structural Database, then it will include bibliographic, chemical, 
# crystal, experimental, refinement or atomic coordinate data resulting 
# from the CCDC's data processing and validation procedures.
#
#######################################################################

data_ACEPUT
_symmetry_cell_setting           triclinic
_symmetry_space_group_name_H-M   'P -1'
_symmetry_Int_Tables_number      2
_space_group_name_Hall           '-P 1'
loop_
_symmetry_equiv_pos_site_id
_symmetry_equiv_pos_as_xyz
1 x,y,z
2 -x,-y,-z
_cell_length_a                   10.0761(8)
_cell_length_b                   10.5232(8)
_cell_length_c                   10.8435(9)
_cell_angle_alpha                62.9390(10)
_cell_angle_beta                 86.7640(10)
_cell_angle_gamma                67.8710(10)
_cell_volume                     939.222
loop_
_atom_site_label
_atom_site_type_symbol
_atom_site_fract_x
_atom_site_fract_y
_atom_site_fract_z
Re1 Re 0.78858(5) 1.13404(5) 0.68662(6)
Br1 Br 0.5444(2) 1.29762(15) 0.7337(2)
Cl1 Cl 0.8240(3) 0.4434(3) 1.1496(3)
N1 N 0.7398(8) 0.9296(9) 0.8137(9)
C1 C 0.5920(11) 1.2783(14) 0.4223(12)
H1 H 0.5681(11) 1.3622(14) 0.4401(12)
O1 O 0.9482(12) 1.1623(10) 0.8991(11)
Cl2 Cl 0.5785(3) 1.2187(4) 0.0884(3)
N2 N 0.6590(9) 1.1387(10) 0.5274(10)
O2 O 0.8698(10) 1.3983(10) 0.4757(10)
C2 C 0.5537(11) 1.3111(13) 0.2861(13)
H2 H 0.5020(11) 1.4119(13) 0.2167(13)
C3 C 0.5973(10) 1.1835(13) 0.2599(13)
O3 O 1.0713(9) 0.9091(10) 0.6579(11)
C4 C 0.6551(10) 1.0329(13) 0.3728(13)
C5 C 0.6865(10) 1.0107(12) 0.5073(12)
C6 C 0.6911(13) 0.9002(15) 0.3524(15)
H3 H 0.6753(13) 0.9122(15) 0.2634(15)
C7 C 0.7474(14) 0.7592(16) 0.4609(16)
H4 H 0.7705(14) 0.6743(16) 0.4447(16)
C8 C 0.7741(11) 0.7306(13) 0.5984(13)
C9 C 0.7443(10) 0.8557(12) 0.6273(13)
C10 C 0.8193(13) 0.5773(14) 0.7039(15)
H5 H 0.8466(13) 0.4975(14) 0.6799(15)
C11 C 0.8242(13) 0.5430(14) 0.8381(15)
H6 H 0.8496(13) 0.4403(14) 0.9063(15)
C12 C 0.7906(10) 0.6625(12) 0.8792(12)
C13 C 0.7571(10) 0.8185(12) 0.7716(12)
C14 C 0.7871(11) 0.6324(12) 1.0172(12)
C15 C 0.7541(12) 0.7467(14) 1.0540(13)
H7 H 0.7464(12) 0.7276(14) 1.1462(13)
C16 C 0.7326(11) 0.8930(13) 0.9479(13)
H8 H 0.7115(11) 0.9721(13) 0.9721(13)
C17 C 0.8879(15) 1.1462(13) 0.8193(15)
C18 C 0.8358(12) 1.2987(14) 0.5581(13)
C19 C 0.9672(14) 0.9939(14) 0.6666(14)
Re1 Re 0.21142(5) -0.13404(5) 0.31338(6)
Br1 Br 0.4556(2) -0.29762(15) 0.2663(2)
Cl1 Cl 0.1760(3) 0.5566(3) -0.1496(3)
N1 N 0.2602(8) 0.0704(9) 0.1863(9)
C1 C 0.4080(11) -0.2783(14) 0.5777(12)
H1 H 0.4319(11) -0.3622(14) 0.5599(12)
O1 O 0.0518(12) -0.1623(10) 0.1009(11)
Cl2 Cl 0.4215(3) -0.2187(4) 0.9116(3)
N2 N 0.3410(9) -0.1387(10) 0.4726(10)
O2 O 0.1302(10) -0.3983(10) 0.5243(10)
C2 C 0.4463(11) -0.3111(13) 0.7139(13)
H2 H 0.4980(11) -0.4119(13) 0.7833(13)
C3 C 0.4027(10) -0.1835(13) 0.7401(13)
O3 O -0.0713(9) 0.0909(10) 0.3421(11)
C4 C 0.3449(10) -0.0329(13) 0.6272(13)
C5 C 0.3135(10) -0.0107(12) 0.4927(12)
C6 C 0.3089(13) 0.0998(15) 0.6476(15)
H3 H 0.3247(13) 0.0878(15) 0.7366(15)
C7 C 0.2526(14) 0.2408(16) 0.5391(16)
H4 H 0.2295(14) 0.3257(16) 0.5553(16)
C8 C 0.2259(11) 0.2694(13) 0.4016(13)
C9 C 0.2557(10) 0.1443(12) 0.3727(13)
C10 C 0.1807(13) 0.4227(14) 0.2961(15)
H5 H 0.1534(13) 0.5025(14) 0.3201(15)
C11 C 0.1758(13) 0.4570(14) 0.1619(15)
H6 H 0.1504(13) 0.5597(14) 0.0937(15)
C12 C 0.2094(10) 0.3375(12) 0.1208(12)
C13 C 0.2429(10) 0.1815(12) 0.2284(12)
C14 C 0.2129(11) 0.3676(12) -0.0172(12)
C15 C 0.2459(12) 0.2533(14) -0.0540(13)
H7 H 0.2536(12) 0.2724(14) -0.1462(13)
C16 C 0.2674(11) 0.1070(13) 0.0521(13)
H8 H 0.2885(11) 0.0279(13) 0.0279(13)
C17 C 0.1121(15) -0.1462(13) 0.1807(15)
C18 C 0.1642(12) -0.2987(14) 0.4419(13)
C19 C 0.0328(14) 0.0061(14) 0.3334(14)

#END
