./ACEPUU_from_POSCAR.cif_generated_by_CrystalShift
_symmetry_cell_setting triclinic
_symmetry_space_group_name_H-M 'P 1'
loop_
_symmetry_equiv_pos_site_id
_symmetry_equiv_pos_as_xyz
1 x,y,z
_cell_length_a 11.010500
_cell_length_b 13.659600
_cell_length_c 26.883200
_cell_angle_alpha 90.000000
_cell_angle_beta 90.000000
_cell_angle_gamma 90.000000
_cell_volume 4043.207090
loop_
_atom_site_label
_atom_site_type_symbol
_atom_site_fract_x
_atom_site_fract_y
_atom_site_fract_z
H1 H 0.776600 0.716700 0.566900
H2 H 0.723400 0.283300 0.066900
H3 H 0.898100 0.601400 0.524900
H4 H 0.601900 0.398600 0.024900
H5 H 1.088900 0.646600 0.496200
H6 H 0.411100 0.353400 -0.003800
H7 H 0.332800 0.199200 0.012900
H8 H 0.364900 0.742400 0.266400
H9 H 0.275600 0.031600 0.035100
H10 H 0.394200 0.745200 0.180600
H11 H 0.254000 -0.131600 0.057400
H12 H 0.276000 0.646700 0.129700
H13 H 0.410000 -0.217700 0.093900
H14 H 0.131400 0.541800 0.162500
H15 H 0.595800 -0.141300 0.109900
H16 H 0.978700 -0.023600 0.119000
H17 H 1.108800 -0.141100 0.152900
H18 H -0.009200 0.436300 0.208200
H19 H 1.123900 -0.159700 0.238600
H20 H -0.123900 0.340300 0.261400
H21 H 1.009200 -0.063700 0.291800
H22 H -0.108800 0.358900 0.347100
H23 H 0.868600 0.041800 0.337500
H24 H 0.021300 0.476400 0.381000
H25 H 0.724000 0.146700 0.370300
H26 H 0.605800 0.245200 0.319400
H27 H 0.635100 0.242400 0.233600
H28 H 0.404200 0.358700 0.390100
H29 H 0.894200 0.754800 0.819400
H30 H 0.590000 0.282300 0.406100
H31 H 0.776000 0.853300 0.870300
H32 H 0.746000 0.368400 0.442600
H33 H 0.631400 0.958200 0.837500
H34 H 0.724400 0.531600 0.464900
H35 H 0.223400 0.216700 0.933100
H36 H 0.101900 0.101400 0.975100
H37 H -0.088900 0.146600 1.003800
H38 H 0.667200 0.699200 0.487100
H39 H -0.167200 0.300800 0.987100
H40 H 0.588900 0.853400 0.503800
H41 H -0.224400 0.468400 0.964900
H42 H 0.398100 0.898600 0.475100
H43 H -0.246000 0.631600 0.942600
H44 H 0.276600 0.783300 0.433100
H45 H -0.090000 0.717700 0.906100
H46 H 0.095800 0.641300 0.890100
H47 H 1.167200 0.800800 0.512900
H48 H 0.478700 0.523600 0.881000
H49 H 0.608800 0.641100 0.847100
H50 H 0.623900 0.659700 0.761400
H51 H 0.509200 0.563700 0.708200
H52 H 0.368600 0.458200 0.662500
H53 H 0.864900 0.742400 0.233600
H54 H 0.224000 0.353300 0.629700
H55 H 0.894200 0.745200 0.319400
H56 H 0.105800 0.254800 0.680600
H57 H 0.776000 0.646700 0.370300
H58 H 0.135100 0.257600 0.766400
H59 H 0.631400 0.541800 0.337500
H60 H 0.490800 1.063700 0.791800
H61 H 0.723400 0.216700 0.566900
H62 H 0.601900 0.101400 0.524900
H63 H 0.490800 0.436300 0.291800
H64 H 0.411100 0.146600 0.496200
H65 H 0.376100 0.340300 0.238600
H66 H 0.332800 0.300800 0.512900
H67 H 0.391200 0.358900 0.152900
H68 H 0.275600 0.468400 0.535100
H69 H 0.521300 0.476400 0.119000
H70 H 0.254000 0.631600 0.557400
H71 H 0.410000 0.717700 0.593900
H72 H 0.595800 0.641300 0.609900
H73 H 0.904200 0.358700 0.109900
H74 H 0.978700 0.523600 0.619000
H75 H 1.090000 0.282300 0.093900
H76 H 1.108800 0.641100 0.652900
H77 H 1.246000 0.368400 0.057400
H78 H 1.123900 0.659700 0.738600
H79 H 1.224400 0.531600 0.035100
H80 H 1.009200 0.563700 0.791800
H81 H 0.868600 0.458200 0.837500
H82 H 0.724000 0.353300 0.870300
H83 H 1.167200 0.699200 0.012900
H84 H 0.605800 0.254800 0.819400
H85 H 1.088900 0.853400 -0.003800
H86 H 0.635100 0.257600 0.733600
H87 H 0.898100 0.898600 0.024900
H88 H 0.376100 1.159700 0.738600
H89 H 0.776600 0.783300 0.066900
H90 H 0.391200 1.141100 0.652900
H91 H 1.224400 0.968400 0.535100
H92 H 0.521300 1.023600 0.619000
H93 H 1.246000 1.131600 0.557400
H94 H 0.223400 0.283300 0.433100
H95 H 1.090000 1.217700 0.593900
H96 H 0.101900 0.398600 0.475100
H97 H -0.088900 0.353400 0.503800
H98 H 0.364900 0.757600 0.766400
H99 H -0.167200 0.199200 0.487100
H100 H 0.394200 0.754800 0.680600
H101 H -0.224400 0.031600 0.464900
H102 H 0.276000 0.853300 0.629700
H103 H -0.246000 -0.131600 0.442600
H104 H 0.131400 0.958200 0.662500
H105 H -0.090000 -0.217700 0.406100
H106 H 0.095800 -0.141300 0.390100
H107 H 0.478700 -0.023600 0.381000
H108 H -0.009200 1.063700 0.708200
H109 H 0.608800 -0.141100 0.347100
H110 H -0.123900 1.159700 0.761400
H111 H 0.623900 -0.159700 0.261400
H112 H -0.108800 1.141100 0.847100
H113 H 0.509200 -0.063700 0.208200
H114 H 0.021300 1.023600 0.881000
H115 H 0.368600 0.041800 0.162500
H116 H 0.224000 0.146700 0.129700
H117 H 0.105800 0.245200 0.180600
H118 H 0.404200 1.141300 0.890100
H119 H 0.135100 0.242400 0.266400
H120 H 0.590000 1.217700 0.906100
H121 H 0.904200 1.141300 0.609900
H122 H 0.746000 1.131600 0.942600
H123 H 0.276600 0.716700 0.933100
H124 H 0.724400 0.968400 0.964900
H125 H 0.398100 0.601400 0.975100
H126 H 0.588900 0.646600 1.003800
H127 H 0.667200 0.800800 0.987100
H128 H 0.864900 0.757600 0.733600
C129 C 0.541200 0.692600 0.985880
C130 C 0.516600 0.853400 0.952460
C131 C 0.427300 0.665900 0.969540
C132 C 0.548700 0.955500 0.941020
C133 C 0.355100 0.734400 0.944690
C134 C 0.658800 1.002500 0.949880
C135 C 0.398600 0.827500 0.937240
C136 C 1.078400 1.151000 0.585250
C137 C 0.670900 1.099400 0.936490
C138 C 0.968700 1.106200 0.594600
C139 C 0.954800 1.009100 0.581230
C140 C 0.585400 0.975100 0.685780
C141 C 0.268600 0.139200 0.265020
C142 C 0.182100 0.201500 0.245310
C143 C 0.578400 1.151000 0.914750
C144 C 0.165400 0.203300 0.194830
C145 C 0.468700 1.106200 0.905400
C146 C 0.235400 0.144200 0.164670
C147 C 0.454800 1.009100 0.918770
C148 C 0.321300 0.081800 0.183960
C149 C 0.085400 0.975100 0.814220
C150 C 0.338200 0.077700 0.234790
C151 C 0.421400 0.013000 0.262960
C152 C 0.501900 -0.056000 0.243170
C153 C 0.015900 1.031900 0.845950
C154 C 0.569900 -0.112200 0.274710
C155 C -0.061300 1.101000 0.825800
C156 C 0.561300 -0.101000 0.325800
C157 C -0.069900 1.112200 0.774710
C158 C 0.484100 -0.031900 0.345950
C159 C -0.001900 1.056000 0.743170
C160 C 0.414600 0.024900 0.314220
C161 C 0.045200 -0.009100 0.418770
C162 C 0.031300 -0.106200 0.405400
C163 C 0.078600 0.987000 0.762960
C164 C -0.078400 -0.151000 0.414750
C165 C 0.161800 0.922300 0.734790
C166 C -0.170900 -0.099400 0.436490
C167 C 0.178700 0.918200 0.683960
C168 C -0.158800 -0.002500 0.449880
C169 C 0.264600 0.855800 0.664670
C170 C -0.048700 0.044500 0.441020
C171 C -0.016600 0.146600 0.452460
C172 C -0.087200 0.215400 0.476770
C173 C 0.334600 0.796700 0.694830
C174 C -0.041200 0.307400 0.485880
C175 C 0.317900 0.798500 0.745310
C176 C 0.072700 0.334100 0.469540
C177 C 0.231400 0.860800 0.765020
C178 C 0.144900 0.265600 0.444690
C179 C 1.170900 1.099400 0.563510
C180 C 0.101400 0.172500 0.437240
C181 C 1.158800 1.002500 0.550120
C182 C 0.515900 1.031900 0.654050
C183 C 0.898600 0.672500 0.062760
C184 C 0.438700 1.101000 0.674200
C185 C 0.855100 0.765600 0.055310
C186 C 0.768600 0.360800 0.734980
C187 C 0.682100 0.298500 0.754690
C188 C 0.927300 0.834100 0.030460
C189 C 0.665400 0.296700 0.805170
C190 C 1.041200 0.807400 0.014120
C191 C 0.735400 0.355800 0.835330
C192 C 1.087200 0.715400 0.023230
C193 C 0.821300 0.418200 0.816040
C194 C 1.016600 0.646600 0.047540
C195 C 0.838200 0.422300 0.765210
C196 C 0.921400 0.487000 0.737040
C197 C 1.001900 0.556000 0.756830
C198 C 1.048700 0.544500 0.058980
C199 C 1.069900 0.612200 0.725290
C200 C 1.158800 0.497500 0.050120
C201 C 1.061300 0.601000 0.674200
C202 C 1.170900 0.400600 0.063510
C203 C 0.984100 0.531900 0.654050
C204 C 1.078400 0.349000 0.085250
C205 C 0.914600 0.475100 0.685780
C206 C 0.545200 0.509100 0.581230
C207 C 0.531300 0.606200 0.594600
C208 C 0.968700 0.393800 0.094600
C209 C 0.421600 0.651000 0.585250
C210 C 0.954800 0.490900 0.081230
C211 C 0.329100 0.599400 0.563510
C212 C 0.585400 0.524900 0.185780
C213 C 0.341200 0.502500 0.550120
C214 C 0.515900 0.468100 0.154050
C215 C 0.451300 0.455500 0.558980
C216 C 0.483400 0.353400 0.547540
C217 C 0.412800 0.284600 0.523230
C218 C 0.438700 0.399000 0.174200
C219 C 0.458800 0.192600 0.514120
C220 C 0.430100 0.387800 0.225290
C221 C 0.572700 0.165900 0.530460
C222 C 0.498100 0.444000 0.256830
C223 C 0.644900 0.234400 0.555310
C224 C 0.578600 0.513000 0.237040
C225 C 0.601400 0.327500 0.562760
C226 C 0.430100 1.112200 0.725290
C227 C 0.661800 0.577700 0.265210
C228 C 0.498100 1.056000 0.756830
C229 C 0.578600 0.987000 0.737040
C230 C 0.661800 0.922300 0.765210
C231 C 0.268600 0.360800 0.765020
C232 C 0.182100 0.298500 0.745310
C233 C 0.678700 0.581800 0.316040
C234 C 0.165400 0.296700 0.694830
C235 C 0.764600 0.644200 0.335330
C236 C 0.235400 0.355800 0.664670
C237 C 0.834600 0.703300 0.305170
C238 C 0.321300 0.418200 0.683960
C239 C 0.817900 0.701500 0.254690
C240 C 0.338200 0.422300 0.734790
C241 C 0.421400 0.487000 0.762960
C242 C 0.501900 0.556000 0.743170
C243 C 0.731400 0.639200 0.234980
C244 C 0.569900 0.612200 0.774710
C245 C 1.048700 0.955500 0.558980
C246 C 0.561300 0.601000 0.825800
C247 C 1.016600 0.853400 0.547540
C248 C 0.484100 0.531900 0.845950
C249 C 1.087200 0.784600 0.523230
C250 C 0.414600 0.475100 0.814220
C251 C 0.045200 0.509100 0.918770
C252 C 0.031300 0.606200 0.905400
C253 C 1.041200 0.692600 0.514120
C254 C -0.078400 0.651000 0.914750
C255 C 0.398600 0.672500 0.437240
C256 C -0.170900 0.599400 0.936490
C257 C 0.355100 0.765600 0.444690
C258 C -0.158800 0.502500 0.949880
C259 C 0.427300 0.834100 0.469540
C260 C -0.048700 0.455500 0.941020
C261 C -0.016600 0.353400 0.952460
C262 C -0.087200 0.284600 0.976770
C263 C 0.541200 0.807400 0.485880
C264 C -0.041200 0.192600 0.985880
C265 C 0.587200 0.715400 0.476770
C266 C 0.072700 0.165900 0.969540
C267 C 0.516600 0.646600 0.452460
C268 C 0.144900 0.234400 0.944690
C269 C 0.548700 0.544500 0.441020
C270 C 0.101400 0.327500 0.937240
C271 C 0.658800 0.497500 0.449880
C272 C 0.678700 0.918200 0.816040
C273 C 0.670900 0.400600 0.436490
C274 C 0.764600 0.855800 0.835330
C275 C 0.578400 0.349000 0.414750
C276 C 0.768600 0.139200 0.234980
C277 C 0.682100 0.201500 0.254690
C278 C 0.468700 0.393800 0.405400
C279 C 0.665400 0.203300 0.305170
C280 C 0.454800 0.490900 0.418770
C281 C 0.735400 0.144200 0.335330
C282 C 0.085400 0.524900 0.314220
C283 C 0.821300 0.081800 0.316040
C284 C 0.015900 0.468100 0.345950
C285 C 0.838200 0.077700 0.265210
C286 C 0.921400 0.013000 0.237040
C287 C 1.001900 -0.056000 0.256830
C288 C -0.061300 0.399000 0.325800
C289 C 1.069900 -0.112200 0.225290
C290 C -0.069900 0.387800 0.274710
C291 C 1.061300 -0.101000 0.174200
C292 C -0.001900 0.444000 0.243170
C293 C 0.984100 -0.031900 0.154050
C294 C 0.078600 0.513000 0.262960
C295 C 0.914600 0.024900 0.185780
C296 C 0.545200 -0.009100 0.081230
C297 C 0.531300 -0.106200 0.094600
C298 C 0.161800 0.577700 0.234790
C299 C 0.421600 -0.151000 0.085250
C300 C 0.178700 0.581800 0.183960
C301 C 0.329100 -0.099400 0.063510
C302 C 0.264600 0.644200 0.164670
C303 C 0.341200 -0.002500 0.050120
C304 C 0.334600 0.703300 0.194830
C305 C 0.451300 0.044500 0.058980
C306 C 0.483400 0.146600 0.047540
C307 C 0.412800 0.215400 0.023230
C308 C 0.317900 0.701500 0.245310
C309 C 0.458800 0.307400 0.014120
C310 C 0.231400 0.639200 0.265020
C311 C 0.572700 0.334100 0.030460
C312 C 0.927300 0.665900 0.530460
C313 C 0.644900 0.265600 0.055310
C314 C 0.855100 0.734400 0.555310
C315 C 0.601400 0.172500 0.062760
C316 C 0.834600 0.796700 0.805170
C317 C 0.587200 0.784600 0.976770
C318 C 0.817900 0.798500 0.754690
C319 C 0.731400 0.860800 0.734980
C320 C 0.898600 0.827500 0.562760
O321 O 0.709610 0.964350 0.562650
O322 O 0.640300 0.792020 0.644390
O323 O 0.140300 0.707980 0.355610
O324 O 0.209610 0.535650 0.437350
O325 O 0.693130 0.078530 0.145880
O326 O 0.790390 0.035650 0.062650
O327 O 0.859700 0.207980 0.144390
O328 O 0.306870 0.578530 0.354120
O329 O 0.640300 0.707980 0.144390
O330 O 0.193130 0.421470 0.854120
O331 O 0.290390 0.464350 0.937350
O332 O 0.359700 0.292020 0.855610
O333 O 0.709610 0.535650 0.062650
O334 O 0.806870 0.578530 0.145880
O335 O 0.693130 0.421470 0.645880
O336 O 0.790390 0.464350 0.562650
O337 O 0.859700 0.292020 0.644390
O338 O 0.140300 0.792020 0.855610
O339 O 0.209610 0.964350 0.937350
O340 O 0.193130 0.078530 0.354120
O341 O 0.290390 0.035650 0.437350
O342 O 0.359700 0.207980 0.355610
O343 O 0.306870 0.921470 0.854120
O344 O 0.806870 0.921470 0.645880
P345 P 0.176540 0.066500 0.413390
P346 P 0.813220 0.376380 0.672000
P347 P 0.676540 0.433500 0.586610
P348 P 0.323460 0.933500 0.913390
P349 P 0.186780 0.876380 0.828000
P350 P 0.313220 0.376380 0.828000
P351 P 0.176540 0.433500 0.913390
P352 P 0.813220 0.123620 0.172000
P353 P 0.823460 0.566500 0.086610
P354 P 0.686780 0.623620 0.172000
P355 P 0.676540 0.066500 0.086610
P356 P 0.686780 0.876380 0.672000
P357 P 0.823460 0.933500 0.586610
P358 P 0.323460 0.566500 0.413390
P359 P 0.313220 0.123620 0.328000
P360 P 0.186780 0.623620 0.328000

#END
