./ACETYL10_from_POSCAR.cif_generated_by_CrystalShift
_symmetry_cell_setting triclinic
_symmetry_space_group_name_H-M 'P 1'
loop_
_symmetry_equiv_pos_site_id
_symmetry_equiv_pos_as_xyz
1 x,y,z
_cell_length_a 6.102000
_cell_length_b 6.102000
_cell_length_c 6.102000
_cell_angle_alpha 90.000000
_cell_angle_beta 90.000000
_cell_angle_gamma 90.000000
_cell_volume 227.204333
loop_
_atom_site_label
_atom_site_type_symbol
_atom_site_fract_x
_atom_site_fract_y
_atom_site_fract_z
D1 D 1.151900 0.348100 0.651900
D2 D 0.151900 0.151900 0.151900
D3 D 0.151900 0.348100 0.651900
D4 D -0.151900 -0.151900 -0.151900
D5 D -0.151900 0.651900 0.348100
D6 D 0.151900 0.151900 1.151900
D7 D 0.651900 0.348100 0.848100
D8 D -0.151900 -0.151900 0.848100
D9 D 0.348100 0.651900 1.151900
D10 D 0.151900 1.151900 0.151900
D11 D 0.651900 0.348100 -0.151900
D12 D -0.151900 0.848100 -0.151900
D13 D 0.348100 0.651900 0.151900
D14 D 0.151900 1.151900 1.151900
D15 D 0.348100 0.848100 0.651900
D16 D -0.151900 0.848100 0.848100
D17 D 0.651900 1.151900 0.348100
D18 D 1.151900 0.151900 0.151900
D19 D 0.348100 -0.151900 0.651900
D20 D 0.848100 -0.151900 -0.151900
D21 D 0.651900 0.151900 0.348100
D22 D 1.151900 0.151900 1.151900
D23 D 0.848100 0.848100 0.848100
D24 D 0.848100 -0.151900 0.848100
D25 D 1.151900 1.151900 1.151900
D26 D 1.151900 1.151900 0.151900
D27 D 0.848100 0.848100 -0.151900
D28 D 0.848100 0.651900 0.348100
C29 C 1.053800 1.053800 1.053800
C30 C 1.053800 1.053800 0.053800
C31 C 0.946200 0.946200 0.946200
C32 C 0.946200 -0.053800 0.946200
C33 C 0.553800 0.053800 0.446200
C34 C 1.053800 0.053800 1.053800
C35 C 0.446200 -0.053800 0.553800
C36 C 0.946200 -0.053800 -0.053800
C37 C 0.553800 1.053800 0.446200
C38 C 1.053800 0.053800 0.053800
C39 C 0.446200 0.946200 0.553800
C40 C -0.053800 0.946200 0.946200
C41 C 0.446200 0.553800 0.053800
C42 C 0.053800 1.053800 1.053800
C43 C 0.553800 0.446200 -0.053800
C44 C -0.053800 0.946200 -0.053800
C45 C 0.446200 0.553800 1.053800
C46 C 0.053800 1.053800 0.053800
C47 C 0.553800 0.446200 0.946200
C48 C -0.053800 -0.053800 0.946200
C49 C -0.053800 0.553800 0.446200
C50 C 0.053800 0.053800 1.053800
C51 C 0.053800 0.446200 0.553800
C52 C -0.053800 -0.053800 -0.053800
C53 C 0.946200 0.553800 0.446200
C54 C 0.946200 0.946200 -0.053800
C55 C 1.053800 0.446200 0.553800
C56 C 0.053800 0.053800 0.053800

#END
