
#######################################################################
#
#                 Cambridge Crystallographic Data Centre
#                                CCDC 
#
#######################################################################
#
# If this CIF has been generated from an entry in the Cambridge 
# Structural Database, then it will include bibliographic, chemical, 
# crystal, experimental, refinement or atomic coordinate data resulting 
# from the CCDC's data processing and validation procedures.
#
#######################################################################

data_AABHTZ
_symmetry_cell_setting           triclinic
_symmetry_space_group_name_H-M   'P -1'
_symmetry_Int_Tables_number      2
_space_group_name_Hall           '-P 1'
loop_
_symmetry_equiv_pos_site_id
_symmetry_equiv_pos_as_xyz
1 x,y,z
2 -x,-y,-z
_cell_length_a                   11.372(9)
_cell_length_b                   10.272(5)
_cell_length_c                   7.359(9)
_cell_angle_alpha                108.75(6)
_cell_angle_beta                 71.07(4)
_cell_angle_gamma                96.16(8)
_cell_volume                     769.978
loop_
_atom_site_label
_atom_site_type_symbol
_atom_site_fract_x
_atom_site_fract_y
_atom_site_fract_z
Cl1 Cl 0.66450 1.09980 0.10610
Cl2 Cl 0.35930 0.69160 0.32700
C1 C 0.52250 1.03880 0.23070
C2 C 0.42730 1.13370 0.34240
C3 C 0.31550 1.09160 0.44830
C4 C 0.29790 0.95550 0.44470
C5 C 0.39310 0.86130 0.32950
C6 C 0.50960 0.89930 0.21810
C7 C 0.61560 0.80620 0.08860
N1 N 0.63320 0.70230 0.13510
N2 N 0.73710 0.62000 0.00990
C8 C 0.81430 0.63470 -0.17520
N3 N 0.78040 0.61410 -0.33470
N4 N 0.88520 0.63960 -0.48430
C9 C 0.97460 0.67440 -0.40600
N5 N 0.93580 0.67320 -0.21040
N6 N 1.00230 0.71630 -0.07410
C10 C 0.96950 0.83940 0.07440
C11 C 1.04050 0.87560 0.22150
O1 O 0.88980 0.91170 0.07930
C12 C 0.76060 0.51400 0.07180
C13 C 0.66930 0.49070 0.25480
O2 O 0.85460 0.44580 -0.02960
H1 H 0.44200 1.23200 0.34700
H2 H 0.24800 1.15700 0.53100
H3 H 0.21600 0.92200 0.53000
H4 H 0.67400 0.82500 -0.03200
H5 H 1.05700 0.70400 -0.46900
H6 H 1.04600 0.66000 -0.05700
H7 H 1.08100 0.96400 0.21700
H8 H 1.10500 0.80200 0.18900
H9 H 0.99400 0.89300 0.33300
H10 H 0.68700 0.40200 0.27500
H11 H 0.67100 0.54900 0.37400
H12 H 0.58700 0.47500 0.24300
Cl1 Cl 0.33550 -0.09980 0.89390
Cl2 Cl 0.64070 0.30840 0.67300
C1 C 0.47750 -0.03880 0.76930
C2 C 0.57270 -0.13370 0.65760
C3 C 0.68450 -0.09160 0.55170
C4 C 0.70210 0.04450 0.55530
C5 C 0.60690 0.13870 0.67050
C6 C 0.49040 0.10070 0.78190
C7 C 0.38440 0.19380 0.91140
N1 N 0.36680 0.29770 0.86490
N2 N 0.26290 0.38000 0.99010
C8 C 0.18570 0.36530 1.17520
N3 N 0.21960 0.38590 1.33470
N4 N 0.11480 0.36040 1.48430
C9 C 0.02540 0.32560 1.40600
N5 N 0.06420 0.32680 1.21040
N6 N -0.00230 0.28370 1.07410
C10 C 0.03050 0.16060 0.92560
C11 C -0.04050 0.12440 0.77850
O1 O 0.11020 0.08830 0.92070
C12 C 0.23940 0.48600 0.92820
C13 C 0.33070 0.50930 0.74520
O2 O 0.14540 0.55420 1.02960
H1 H 0.55800 -0.23200 0.65300
H2 H 0.75200 -0.15700 0.46900
H3 H 0.78400 0.07800 0.47000
H4 H 0.32600 0.17500 1.03200
H5 H -0.05700 0.29600 1.46900
H6 H -0.04600 0.34000 1.05700
H7 H -0.08100 0.03600 0.78300
H8 H -0.10500 0.19800 0.81100
H9 H 0.00600 0.10700 0.66700
H10 H 0.31300 0.59800 0.72500
H11 H 0.32900 0.45100 0.62600
H12 H 0.41300 0.52500 0.75700

#END
