./AAPUNI_from_POSCAR.cif_generated_by_CrystalShift
_symmetry_cell_setting triclinic
_symmetry_space_group_name_H-M 'P 1'
loop_
_symmetry_equiv_pos_site_id
_symmetry_equiv_pos_as_xyz
1 x,y,z
_cell_length_a 20.650000
_cell_length_b 8.580000
_cell_length_c 14.680000
_cell_angle_alpha 90.000000
_cell_angle_beta 97.780000
_cell_angle_gamma 90.000000
_cell_volume 2577.016938
loop_
_atom_site_label
_atom_site_type_symbol
_atom_site_fract_x
_atom_site_fract_y
_atom_site_fract_z
C1 C 0.834100 0.284300 -0.079200
C2 C 0.690600 0.403600 0.586400
C3 C 0.740000 0.288300 0.619300
C4 C 0.503000 0.393900 0.225000
C5 C 0.470800 0.469200 0.149600
C6 C 0.497500 0.446900 0.066700
C7 C 0.555400 0.363900 0.060300
C8 C 0.586200 0.300500 0.142400
C9 C 0.563600 0.328300 0.226800
C10 C 0.602600 0.265900 0.312600
C11 C 0.567900 0.326100 0.374100
C12 C 0.564200 0.491700 0.514100
C13 C 0.328600 0.166800 0.562100
C14 C 0.366200 0.179300 0.661000
C15 C 0.364600 0.099600 0.490900
C16 C 0.338600 0.087100 0.398700
C17 C 0.379600 0.025000 0.334100
C18 C 0.385400 0.098400 0.249300
C19 C 0.426000 0.047300 0.188400
C20 C 0.459600 -0.084600 0.218200
C21 C 0.458400 -0.183900 0.296200
C22 C 0.414600 -0.116400 0.356600
C23 C 0.101500 0.112000 0.455900
C24 C 0.064200 0.008300 0.514100
C25 C 0.067900 0.173900 0.374100
C26 C 0.102600 0.234100 0.312600
C27 C 0.063600 0.171700 0.226800
C28 C 0.086200 0.199500 0.142400
C29 C 0.055400 0.136100 0.060300
C30 C -0.002500 0.053100 0.066700
C31 C -0.029200 0.030800 0.149600
C32 C 0.003000 0.106100 0.225000
C33 C 0.240000 0.211700 0.619300
C34 C 0.190600 0.096400 0.586400
C35 C 0.200500 0.261400 -0.104500
C36 C 0.334100 0.215700 -0.079200
C37 C 0.601500 0.388000 0.455900
C38 C 0.914600 0.616400 0.356600
C39 C 0.958400 0.683900 0.296200
C40 C 0.959600 0.584600 0.218200
C41 C 0.926000 0.452700 0.188400
C42 C 0.885400 0.401600 0.249300
C43 C 0.879600 0.475000 0.334100
C44 C 0.838600 0.412900 0.398700
C45 C 0.864600 0.400400 0.490900
C46 C 0.866200 0.320700 0.661000
C47 C 0.828600 0.333200 0.562100
C48 C 0.665900 0.784300 1.079200
C49 C 0.171400 0.666800 0.437900
C50 C 0.133800 0.679300 0.339000
C51 C 0.135400 0.599600 0.509100
C52 C 0.161400 0.587100 0.601300
C53 C 0.120400 0.525000 0.665900
C54 C 0.114600 0.598400 0.750700
C55 C 0.074000 0.547300 0.811600
C56 C 0.040400 0.415400 0.781800
C57 C 0.041600 0.316100 0.703800
C58 C 0.085400 0.383600 0.643400
C59 C 0.398500 0.612000 0.544100
C60 C 0.435800 0.508300 0.485900
C61 C 0.432100 0.673900 0.625900
C62 C 0.397400 0.734100 0.687400
C63 C 0.436400 0.671700 0.773200
C64 C 0.413800 0.699500 0.857600
C65 C 0.444600 0.636100 0.939700
C66 C 0.502500 0.553100 0.933300
C67 C 0.529200 0.530800 0.850400
C68 C 0.497000 0.606100 0.775000
C69 C 0.260000 0.711700 0.380700
C70 C 0.309400 0.596400 0.413600
C71 C 0.299500 0.761400 1.104500
C72 C 0.165900 0.715700 1.079200
C73 C 0.799500 0.738600 1.104500
C74 C 0.809400 0.903600 0.413600
C75 C 0.760000 0.788300 0.380700
C76 C 0.997000 0.893900 0.775000
C77 C 1.029200 0.969200 0.850400
C78 C 1.002500 0.946900 0.933300
C79 C 0.944600 0.863900 0.939700
C80 C 0.913800 0.800500 0.857600
C81 C 0.936400 0.828300 0.773200
C82 C 0.897400 0.765900 0.687400
C83 C 0.932100 0.826100 0.625900
C84 C 0.935800 0.991700 0.485900
C85 C 0.671400 0.833200 0.437900
C86 C 0.633800 0.820700 0.339000
C87 C 0.635400 0.900400 0.509100
C88 C 0.661400 0.912900 0.601300
C89 C 0.620400 0.975000 0.665900
C90 C 0.614600 0.901600 0.750700
C91 C 0.574000 0.952700 0.811600
C92 C 0.540400 1.084600 0.781800
C93 C 0.541600 1.183900 0.703800
C94 C 0.585400 1.116400 0.643400
C95 C 0.898500 0.888000 0.544100
C96 C 0.700500 0.238600 -0.104500
N97 N 0.726700 0.771400 0.457100
N98 N 0.273300 0.228600 0.542900
N99 N 0.159200 0.147800 0.494500
N100 N 0.226700 0.728600 0.457100
N101 N 0.659200 0.352200 0.494500
N102 N 0.773300 0.271400 0.542900
N103 N 0.340800 0.647800 0.505500
N104 N 0.840800 0.852200 0.505500
O105 O 0.248200 0.460800 0.173900
O106 O 0.235600 0.057300 0.233900
O107 O 0.348400 0.210100 0.220400
O108 O 0.764400 0.942700 0.766100
O109 O 0.142400 0.286300 0.129900
O110 O 0.165000 0.281300 0.321500
O111 O 0.280700 0.151500 0.367100
O112 O 0.748200 0.039200 0.173900
O113 O 0.735600 0.442700 0.233900
O114 O 0.848400 0.289900 0.220400
O115 O 0.642400 0.213700 0.129900
O116 O 0.665000 0.218700 0.321500
O117 O 0.780700 0.348500 0.367100
O118 O 0.765300 0.194600 0.060500
O119 O 0.651600 0.789900 0.779600
O120 O 0.857600 0.713700 0.870100
O121 O 0.835000 0.718700 0.678500
O122 O 0.234700 0.805400 0.939500
O123 O 0.219300 0.651500 0.632900
O124 O 0.335000 0.781300 0.678500
O125 O 0.357600 0.786300 0.870100
O126 O 0.151600 0.710100 0.779600
O127 O 0.264400 0.557300 0.766100
O128 O 0.251800 0.960800 0.826100
O129 O 0.265300 0.305400 0.060500
O130 O 0.734700 0.694600 0.939500
O131 O 0.719300 0.848500 0.632900
O132 O 0.751800 0.539200 0.826100
S133 S 0.270200 0.258700 -0.024200
S134 S 0.229800 0.758700 1.024200
S135 S 0.770200 0.241300 -0.024200
S136 S 0.729800 0.741300 1.024200
Ni137 Ni 0.280800 0.751200 0.566100
Ni138 Ni 0.780800 0.748800 0.566100
Ni139 Ni 0.719200 0.248800 0.433900
Ni140 Ni 0.219200 0.251200 0.433900
U141 U 0.742700 0.238400 0.205600
U142 U 0.757300 0.738400 0.794400
U143 U 0.257300 0.761600 0.794400
U144 U 0.242700 0.261600 0.205600

#END
