./AAPYPE_from_POSCAR.cif_generated_by_CrystalShift
_symmetry_cell_setting triclinic
_symmetry_space_group_name_H-M 'P 1'
loop_
_symmetry_equiv_pos_site_id
_symmetry_equiv_pos_as_xyz
1 x,y,z
_cell_length_a 7.024000
_cell_length_b 12.420000
_cell_length_c 12.280000
_cell_angle_alpha 90.000000
_cell_angle_beta 108.400000
_cell_angle_gamma 90.000000
_cell_volume 1016.515331
loop_
_atom_site_label
_atom_site_type_symbol
_atom_site_fract_x
_atom_site_fract_y
_atom_site_fract_z
C1 C 0.439100 0.682100 0.457200
C2 C 0.352400 0.611700 0.530800
C3 C 0.467200 0.587900 0.645300
C4 C 0.404600 0.524400 0.718800
C5 C 0.542700 0.500600 0.840300
C6 C 0.148600 0.409800 0.756800
C7 C 0.094900 0.445500 0.851000
C8 C 0.015700 0.273000 0.883400
C9 C 0.119200 0.302700 0.729000
C10 C 0.119200 0.197300 0.229000
C11 C 0.015700 0.227000 0.383400
C12 C 0.094900 0.054500 0.351000
C13 C 0.148600 0.090200 0.256800
C14 C 0.542700 -0.000600 0.340300
C15 C 0.560900 1.182100 1.042800
C16 C 0.647600 1.111700 0.969200
C17 C 0.532800 1.087900 0.854700
C18 C 0.595400 1.024400 0.781200
C19 C 0.457300 1.000600 0.659700
C20 C 0.851400 0.909800 0.743200
C21 C 0.905100 0.945500 0.649000
C22 C 0.984300 0.773000 0.616600
C23 C 0.880800 0.802700 0.771000
C24 C 0.404600 -0.024400 0.218800
C25 C 0.467200 -0.087900 0.145300
C26 C 0.352400 -0.111700 0.030800
C27 C 0.439100 -0.182100 -0.042800
C28 C 0.880800 0.697300 0.271000
C29 C 0.560900 0.317900 0.542800
C30 C 0.647600 0.388300 0.469200
C31 C 0.532800 0.412100 0.354700
C32 C 0.595400 0.475600 0.281200
C33 C 0.457300 0.499400 0.159700
C34 C 0.851400 0.590200 0.243200
C35 C 0.905100 0.554500 0.149000
C36 C 0.984300 0.727000 0.116600
N37 N 0.954000 0.732800 0.708700
N38 N 0.954000 0.767200 0.208700
N39 N 0.964100 0.624400 0.082700
N40 N 0.899100 0.447600 0.120200
N41 N 0.783600 0.519800 0.314100
N42 N 0.100900 -0.052400 0.379800
N43 N 0.783600 0.980200 0.814100
N44 N 0.899100 1.052400 0.620200
N45 N 0.964100 0.875600 0.582700
N46 N 0.216400 0.019800 0.185900
N47 N 0.035900 0.124400 0.417300
N48 N 0.216400 0.480200 0.685900
N49 N 0.100900 0.552400 0.879800
N50 N 0.035900 0.375600 0.917300
N51 N 0.046000 0.232800 0.791300
N52 N 0.046000 0.267200 0.291300
O53 O 0.822700 0.423000 0.514400
O54 O 0.822700 1.077000 1.014400
O55 O 0.177300 0.577000 0.485600
O56 O 0.177300 -0.077000 -0.014400

#END
