./ABABEL_from_POSCAR.cif_generated_by_CrystalShift
_symmetry_cell_setting triclinic
_symmetry_space_group_name_H-M 'P 1'
loop_
_symmetry_equiv_pos_site_id
_symmetry_equiv_pos_as_xyz
1 x,y,z
_cell_length_a 11.136600
_cell_length_b 6.987200
_cell_length_c 15.386900
_cell_angle_alpha 90.000000
_cell_angle_beta 93.796000
_cell_angle_gamma 90.000000
_cell_volume 1194.684085
loop_
_atom_site_label
_atom_site_type_symbol
_atom_site_fract_x
_atom_site_fract_y
_atom_site_fract_z
H1 H 0.585100 0.640700 0.004500
H2 H 0.390800 0.750900 0.011400
H3 H 0.345300 0.965300 0.116900
H4 H 1.039500 0.641900 0.542000
H5 H 0.495300 1.077200 0.214500
H6 H 0.690800 0.973500 0.205800
H7 H 1.201400 0.645100 0.071200
H8 H 1.266100 0.351900 0.125400
H9 H 1.132000 0.143500 0.183100
H10 H 0.934500 1.274900 0.689900
H11 H 0.934500 0.225100 0.189900
H12 H 1.132000 1.356500 0.683100
H13 H 1.039500 0.858100 0.042000
H14 H 1.266100 1.148100 0.625400
H15 H 0.414900 0.140700 0.495500
H16 H 1.201400 0.854900 0.571200
H17 H 0.609200 0.250900 0.488600
H18 H 0.654700 0.465300 0.383100
H19 H 0.504700 0.577200 0.285500
H20 H 0.690800 0.526500 0.705800
H21 H 0.309200 0.473500 0.294200
H22 H 0.495300 0.422800 0.714500
H23 H -0.201400 0.145100 0.428800
H24 H 0.345300 0.534700 0.616900
H25 H -0.266100 -0.148100 0.374600
H26 H 0.390800 0.749100 0.511400
H27 H -0.132000 -0.356500 0.316900
H28 H 0.585100 0.859300 0.504500
H29 H 0.065500 -0.274900 0.310100
H30 H -0.039500 0.358100 0.458000
H31 H 0.414900 0.359300 0.995500
H32 H -0.039500 0.141900 0.958000
H33 H 0.609200 0.249100 0.988600
H34 H 0.654700 0.034700 0.883100
H35 H 0.504700 -0.077200 0.785500
H36 H 0.309200 0.026500 0.794200
H37 H -0.201400 0.354900 0.928800
H38 H 0.065500 0.774900 0.810100
H39 H -0.266100 0.648100 0.874600
H40 H -0.132000 0.856500 0.816900
C41 C -0.185700 0.613600 0.872990
C42 C -0.105200 0.738200 0.838040
C43 C -0.147300 0.438700 0.905310
C44 C 0.012600 0.689900 0.834150
C45 C -0.026720 0.388500 0.902530
C46 C 0.341450 0.205400 0.895720
C47 C 0.369500 0.073300 0.833200
C48 C 0.055280 0.511200 0.866480
C49 C 0.486500 0.010400 0.828200
C50 C 0.177500 0.445900 0.866200
C51 C 0.575900 0.077100 0.886400
C52 C 0.215260 0.275300 0.898780
C53 C 0.549000 0.205200 0.948800
C54 C 0.128700 0.151700 0.939160
C55 C 0.432200 0.270300 0.953100
C56 C 0.451000 0.794800 0.051200
C57 C 0.424100 0.922900 0.113600
C58 C 0.871300 0.651700 0.560840
C59 C 0.513500 0.989600 0.171800
C60 C 0.784740 0.775300 0.601220
C61 C 0.128700 0.348300 0.439160
C62 C 0.215260 0.224700 0.398780
C63 C 0.177500 0.054100 0.366200
C64 C 0.055280 -0.011200 0.366480
C65 C 0.012600 -0.189900 0.334150
C66 C 0.630500 0.926700 0.166800
C67 C -0.105200 -0.238200 0.338040
C68 C 0.567800 0.770300 0.546900
C69 C -0.185700 -0.113600 0.372990
C70 C 0.451000 0.705200 0.551200
C71 C -0.147300 0.061300 0.405310
C72 C 0.424100 0.577100 0.613600
C73 C -0.026720 0.111500 0.402530
C74 C 0.341450 0.294600 0.395720
C75 C 0.369500 0.426700 0.333200
C76 C 0.513500 0.510400 0.671800
C77 C 0.486500 0.489600 0.328200
C78 C 0.630500 0.573300 0.666800
C79 C 0.575900 0.422900 0.386400
C80 C 0.658550 0.705400 0.604280
C81 C 0.549000 0.294800 0.448800
C82 C 1.026720 0.888500 0.597470
C83 C 0.432200 0.229700 0.453100
C84 C 1.147300 0.938700 0.594690
C85 C 0.658550 0.794600 0.104280
C86 C 1.026720 0.611500 0.097470
C87 C 0.822500 0.945900 0.633800
C88 C 1.185700 1.113600 0.627010
C89 C 0.871300 0.848300 0.060840
C90 C 0.784740 0.724700 0.101220
C91 C 0.822500 0.554100 0.133800
C92 C 0.944720 0.488800 0.133520
C93 C 0.987400 0.310100 0.165850
C94 C 1.105200 1.238200 0.661960
C95 C 1.105200 0.261800 0.161960
C96 C 0.987400 1.189900 0.665850
C97 C 1.185700 0.386400 0.127010
C98 C 0.944720 1.011200 0.633520
C99 C 1.147300 0.561300 0.094690
C100 C 0.567800 0.729700 0.046900
N101 N 0.013060 0.215400 0.936650
N102 N 0.986940 0.715400 0.563350
N103 N 0.986940 0.784600 0.063350
N104 N 0.013060 0.284600 0.436650
O105 O 0.157000 0.503100 0.474230
O106 O 0.843000 0.496900 0.525770
O107 O 0.843000 1.003100 0.025770
O108 O 0.157000 -0.003100 0.974230
Cl109 Cl 0.720830 0.405820 0.180320
Cl110 Cl 0.279170 -0.094180 0.319680
Cl111 Cl 0.279170 0.594180 0.819680
Cl112 Cl 0.720830 1.094180 0.680320

#END
