
#######################################################################
#
#                 Cambridge Crystallographic Data Centre
#                                CCDC 
#
#######################################################################
#
# If this CIF has been generated from an entry in the Cambridge 
# Structural Database, then it will include bibliographic, chemical, 
# crystal, experimental, refinement or atomic coordinate data resulting 
# from the CCDC's data processing and validation procedures.
#
#######################################################################

data_ABACIR
_symmetry_cell_setting           monoclinic
_symmetry_space_group_name_H-M   'P 21/c'
_symmetry_Int_Tables_number      14
_space_group_name_Hall           '-P 2ybc'
loop_
_symmetry_equiv_pos_site_id
_symmetry_equiv_pos_as_xyz
1 x,y,z
2 -x,1/2+y,1/2-z
3 -x,-y,-z
4 x,1/2-y,1/2+z
_cell_length_a                   7.4201(2)
_cell_length_b                   27.8329(7)
_cell_length_c                   10.1790(3)
_cell_angle_alpha                90
_cell_angle_beta                 118.440(3)
_cell_angle_gamma                90
_cell_volume                     1848.5
loop_
_atom_site_label
_atom_site_type_symbol
_atom_site_fract_x
_atom_site_fract_y
_atom_site_fract_z
S1 S 0.64317(10) 0.25100(2) 0.68116(8)
S2 S 1.04835(11) 0.23017(3) 0.69685(8)
O1 O 0.5598(3) 0.24711(8) 0.7824(2)
O2 O 0.6657(3) 0.29724(7) 0.6291(2)
O3 O 1.8016(4) 0.10467(11) 1.0716(4)
O4 O 1.8590(14) 0.0450(3) 0.9436(13)
N1 N 0.5021(4) 0.21961(8) 0.5357(3)
H1 H 0.4457 0.2332 0.4469
N2 N 1.4249(4) 0.11205(9) 1.0276(3)
H2 H 1.538(5) 0.1238(12) 1.068(4)
N3 N 1.7563(6) 0.06859(12) 0.9914(5)
C1 C 0.4659(5) 0.16781(10) 0.5495(3)
H3 H 0.4967 0.1617 0.6550
C2 C 0.6072(5) 0.13607(11) 0.5162(3)
H4 H 0.7519 0.1438 0.5867
H5 H 0.5836 0.1425 0.4135
C3 C 0.5664(6) 0.08302(12) 0.5313(4)
H6 H 0.6533 0.0629 0.5038
H7 H 0.6039 0.0760 0.6366
C4 C 0.3433(7) 0.07034(13) 0.4319(4)
H8 H 0.3201 0.0364 0.4491
H9 H 0.3102 0.0737 0.3259
C5 C 0.2024(6) 0.10240(14) 0.4624(4)
H10 H 0.2234 0.0960 0.5645
H11 H 0.0581 0.0947 0.3908
C6 C 0.2424(5) 0.15573(12) 0.4483(4)
H12 H 0.2062 0.1630 0.3434
H13 H 0.1551 0.1757 0.4757
C7 C 0.8839(4) 0.22402(10) 0.7707(3)
C8 C 1.2109(4) 0.18895(11) 0.8212(3)
H14 H 1.3358 0.1792 0.8246
C9 C 1.1434(4) 0.17152(10) 0.9146(3)
C10 C 0.9518(4) 0.19163(10) 0.8847(3)
H15 H 0.8796 0.1835 0.9376
C11 C 1.2639(4) 0.13708(11) 1.0413(3)
H16 H 1.3255 0.1552 1.1365
H17 H 1.1685 0.1131 1.0459
C12 C 1.3906(5) 0.07546(11) 0.9310(4)
C13 C 1.1906(8) 0.05721(14) 0.8436(5)
H18 H 1.0794 0.0724 0.8485
C14 C 1.1522(8) 0.01803(13) 0.7514(5)
H19 H 1.0160 0.0064 0.6951
C15 C 1.3109(8) -0.00463(14) 0.7402(5)
H20 H 1.2833 -0.0319 0.6774
C16 C 1.5047(8) 0.01209(13) 0.8186(5)
H21 H 1.6129 -0.0034 0.8103
C17 C 1.5473(6) 0.05249(12) 0.9128(5)
S1 S 0.35683(10) 0.75100(2) 0.81884(8)
S2 S -0.04835(11) 0.73017(3) 0.80315(8)
O1 O 0.4402(3) 0.74711(8) 0.7176(2)
O2 O 0.3343(3) 0.79724(7) 0.8709(2)
O3 O -0.8016(4) 0.60467(11) 0.4284(4)
O4 O -0.8590(14) 0.5450(3) 0.5564(13)
N1 N 0.4979(4) 0.71961(8) 0.9643(3)
H1 H 0.5543 0.7332 1.0531
N2 N -0.4249(4) 0.61205(9) 0.4724(3)
H2 H -0.538(5) 0.6238(12) 0.432(4)
N3 N -0.7563(6) 0.56859(12) 0.5086(5)
C1 C 0.5341(5) 0.66781(10) 0.9505(3)
H3 H 0.5033 0.6617 0.8450
C2 C 0.3928(5) 0.63607(11) 0.9838(3)
H4 H 0.2481 0.6438 0.9133
H5 H 0.4164 0.6425 1.0865
C3 C 0.4336(6) 0.58302(12) 0.9687(4)
H6 H 0.3467 0.5629 0.9962
H7 H 0.3961 0.5760 0.8634
C4 C 0.6567(7) 0.57034(13) 1.0681(4)
H8 H 0.6799 0.5364 1.0509
H9 H 0.6898 0.5737 1.1741
C5 C 0.7976(6) 0.60240(14) 1.0376(4)
H10 H 0.7766 0.5960 0.9355
H11 H 0.9419 0.5947 1.1092
C6 C 0.7576(5) 0.65573(12) 1.0517(4)
H12 H 0.7938 0.6630 1.1566
H13 H 0.8449 0.6757 1.0243
C7 C 0.1161(4) 0.72402(10) 0.7293(3)
C8 C -0.2109(4) 0.68895(11) 0.6788(3)
H14 H -0.3358 0.6792 0.6754
C9 C -0.1434(4) 0.67152(10) 0.5854(3)
C10 C 0.0482(4) 0.69163(10) 0.6153(3)
H15 H 0.1204 0.6835 0.5624
C11 C -0.2639(4) 0.63708(11) 0.4587(3)
H16 H -0.3255 0.6552 0.3635
H17 H -0.1685 0.6131 0.4541
C12 C -0.3906(5) 0.57546(11) 0.5690(4)
C13 C -0.1906(8) 0.55721(14) 0.6564(5)
H18 H -0.0794 0.5724 0.6515
C14 C -0.1522(8) 0.51803(13) 0.7486(5)
H19 H -0.0160 0.5064 0.8049
C15 C -0.3109(8) 0.49537(14) 0.7598(5)
H20 H -0.2833 0.4681 0.8226
C16 C -0.5047(8) 0.51209(13) 0.6814(5)
H21 H -0.6129 0.4966 0.6897
C17 C -0.5473(6) 0.55249(12) 0.5872(5)
S1 S 0.35683(10) 0.74900(2) 0.31884(8)
S2 S -0.04835(11) 0.76983(3) 0.30315(8)
O1 O 0.4402(3) 0.75289(8) 0.2176(2)
O2 O 0.3343(3) 0.70276(7) 0.3709(2)
O3 O -0.8016(4) 0.89533(11) -0.0716(4)
O4 O -0.8590(14) 0.9550(3) 0.0564(13)
N1 N 0.4979(4) 0.78039(8) 0.4643(3)
H1 H 0.5543 0.7668 0.5531
N2 N -0.4249(4) 0.88795(9) -0.0276(3)
H2 H -0.538(5) 0.8762(12) -0.068(4)
N3 N -0.7563(6) 0.93141(12) 0.0086(5)
C1 C 0.5341(5) 0.83219(10) 0.4505(3)
H3 H 0.5033 0.8383 0.3450
C2 C 0.3928(5) 0.86393(11) 0.4838(3)
H4 H 0.2481 0.8562 0.4133
H5 H 0.4164 0.8575 0.5865
C3 C 0.4336(6) 0.91698(12) 0.4687(4)
H6 H 0.3467 0.9371 0.4962
H7 H 0.3961 0.9240 0.3634
C4 C 0.6567(7) 0.92966(13) 0.5681(4)
H8 H 0.6799 0.9636 0.5509
H9 H 0.6898 0.9263 0.6741
C5 C 0.7976(6) 0.89760(14) 0.5376(4)
H10 H 0.7766 0.9040 0.4355
H11 H 0.9419 0.9053 0.6092
C6 C 0.7576(5) 0.84427(12) 0.5517(4)
H12 H 0.7938 0.8370 0.6566
H13 H 0.8449 0.8243 0.5243
C7 C 0.1161(4) 0.77598(10) 0.2293(3)
C8 C -0.2109(4) 0.81105(11) 0.1788(3)
H14 H -0.3358 0.8208 0.1754
C9 C -0.1434(4) 0.82848(10) 0.0854(3)
C10 C 0.0482(4) 0.80837(10) 0.1153(3)
H15 H 0.1204 0.8165 0.0624
C11 C -0.2639(4) 0.86292(11) -0.0413(3)
H16 H -0.3255 0.8448 -0.1365
H17 H -0.1685 0.8869 -0.0459
C12 C -0.3906(5) 0.92454(11) 0.0690(4)
C13 C -0.1906(8) 0.94279(14) 0.1564(5)
H18 H -0.0794 0.9276 0.1515
C14 C -0.1522(8) 0.98197(13) 0.2486(5)
H19 H -0.0160 0.9936 0.3049
C15 C -0.3109(8) 1.00463(14) 0.2598(5)
H20 H -0.2833 1.0319 0.3226
C16 C -0.5047(8) 0.98791(13) 0.1814(5)
H21 H -0.6129 1.0034 0.1897
C17 C -0.5473(6) 0.94751(12) 0.0872(5)
S1 S 0.64317(10) 0.24900(2) 0.18116(8)
S2 S 1.04835(11) 0.26983(3) 0.19685(8)
O1 O 0.5598(3) 0.25289(8) 0.2824(2)
O2 O 0.6657(3) 0.20276(7) 0.1291(2)
O3 O 1.8016(4) 0.39533(11) 0.5716(4)
O4 O 1.8590(14) 0.4550(3) 0.4436(13)
N1 N 0.5021(4) 0.28039(8) 0.0357(3)
H1 H 0.4457 0.2668 -0.0531
N2 N 1.4249(4) 0.38795(9) 0.5276(3)
H2 H 1.538(5) 0.3762(12) 0.568(4)
N3 N 1.7563(6) 0.43141(12) 0.4914(5)
C1 C 0.4659(5) 0.33219(10) 0.0495(3)
H3 H 0.4967 0.3383 0.1550
C2 C 0.6072(5) 0.36393(11) 0.0162(3)
H4 H 0.7519 0.3562 0.0867
H5 H 0.5836 0.3575 -0.0865
C3 C 0.5664(6) 0.41698(12) 0.0313(4)
H6 H 0.6533 0.4371 0.0038
H7 H 0.6039 0.4240 0.1366
C4 C 0.3433(7) 0.42966(13) -0.0681(4)
H8 H 0.3201 0.4636 -0.0509
H9 H 0.3102 0.4263 -0.1741
C5 C 0.2024(6) 0.39760(14) -0.0376(4)
H10 H 0.2234 0.4040 0.0645
H11 H 0.0581 0.4053 -0.1092
C6 C 0.2424(5) 0.34427(12) -0.0517(4)
H12 H 0.2062 0.3370 -0.1566
H13 H 0.1551 0.3243 -0.0243
C7 C 0.8839(4) 0.27598(10) 0.2707(3)
C8 C 1.2109(4) 0.31105(11) 0.3212(3)
H14 H 1.3358 0.3208 0.3246
C9 C 1.1434(4) 0.32848(10) 0.4146(3)
C10 C 0.9518(4) 0.30837(10) 0.3847(3)
H15 H 0.8796 0.3165 0.4376
C11 C 1.2639(4) 0.36292(11) 0.5413(3)
H16 H 1.3255 0.3448 0.6365
H17 H 1.1685 0.3869 0.5459
C12 C 1.3906(5) 0.42454(11) 0.4310(4)
C13 C 1.1906(8) 0.44279(14) 0.3436(5)
H18 H 1.0794 0.4276 0.3485
C14 C 1.1522(8) 0.48197(13) 0.2514(5)
H19 H 1.0160 0.4936 0.1951
C15 C 1.3109(8) 0.50463(14) 0.2402(5)
H20 H 1.2833 0.5319 0.1774
C16 C 1.5047(8) 0.48791(13) 0.3186(5)
H21 H 1.6129 0.5034 0.3103
C17 C 1.5473(6) 0.44751(12) 0.4128(5)
O5? O 0.9294(19) 0.0474(5) 0.0238(16)
O5? O 0.0706(19) 0.5474(5) 0.4762(16)
O5? O 0.0706(19) 0.9526(5) 0.9762(16)
O5? O 0.9294(19) 0.4526(5) 0.5238(16)

#END
