./ABACUF_from_POSCAR.cif_generated_by_CrystalShift
_symmetry_cell_setting triclinic
_symmetry_space_group_name_H-M 'P 1'
loop_
_symmetry_equiv_pos_site_id
_symmetry_equiv_pos_as_xyz
1 x,y,z
_cell_length_a 8.750000
_cell_length_b 7.160000
_cell_length_c 6.880000
_cell_angle_alpha 99.050000
_cell_angle_beta 109.350000
_cell_angle_gamma 82.330000
_cell_volume 400.087727
loop_
_atom_site_label
_atom_site_type_symbol
_atom_site_fract_x
_atom_site_fract_y
_atom_site_fract_z
C1 C -0.386000 0.949000 0.910000
C2 C 1.248000 0.716000 0.360000
C3 C 0.386000 0.051000 0.090000
C4 C -0.100000 0.144000 0.124000
C5 C 0.248000 0.716000 0.360000
C6 C 0.900000 0.144000 0.124000
C7 C 1.386000 0.051000 0.090000
C8 C 0.614000 0.949000 0.910000
C9 C 0.752000 0.284000 0.640000
C10 C 1.100000 0.856000 0.876000
C11 C -0.248000 0.284000 0.640000
C12 C 0.100000 0.856000 0.876000
O13 O 0.500000 0.492000 0.704000
O14 O -0.177000 0.700000 0.378000
O15 O -0.014000 0.728000 0.748000
O16 O 0.244000 0.819000 0.966000
O17 O 0.168000 0.626000 0.450000
O18 O -0.328000 0.144000 0.550000
O19 O -0.168000 0.374000 0.550000
O20 O 0.177000 0.300000 0.622000
O21 O 0.464000 0.970000 0.828000
O22 O 0.328000 0.856000 0.450000
O23 O -0.308000 0.809000 1.024000
O24 O -0.536000 0.970000 0.828000
O25 O -0.500000 0.508000 0.296000
O26 O 0.672000 0.144000 0.550000
O27 O 0.832000 0.374000 0.550000
O28 O 0.692000 0.809000 1.024000
O29 O -0.672000 0.856000 0.450000
O30 O -0.244000 0.181000 0.034000
O31 O 0.014000 0.272000 0.252000
O32 O 0.536000 0.030000 0.172000
O33 O 0.308000 0.191000 -0.024000
O34 O 0.500000 0.508000 0.296000
O35 O 1.308000 0.191000 -0.024000
O36 O 1.536000 0.030000 0.172000
O37 O 1.014000 0.272000 0.252000
O38 O 0.756000 0.181000 0.034000
O39 O 1.328000 0.856000 0.450000
O40 O 1.168000 0.626000 0.450000
O41 O 0.823000 0.700000 0.378000
O42 O 1.500000 0.492000 0.704000
O43 O 1.672000 0.144000 0.550000
O44 O 0.986000 0.728000 0.748000
O45 O 1.244000 0.819000 0.966000
O46 O 1.177000 0.300000 0.622000
Cu47 Cu 0.000000 0.500000 0.500000
Cu48 Cu 1.000000 0.500000 0.500000
Ba49 Ba -0.650000 0.233000 0.400000
Ba50 Ba -0.350000 0.767000 0.600000
Ba51 Ba 0.350000 0.233000 0.400000
Ba52 Ba 0.650000 0.767000 0.600000
Ba53 Ba 1.350000 0.233000 0.400000
Ba54 Ba 1.650000 0.767000 0.600000

#END
