./ABACEM_from_POSCAR.cif_generated_by_CrystalShift
_symmetry_cell_setting triclinic
_symmetry_space_group_name_H-M 'P 1'
loop_
_symmetry_equiv_pos_site_id
_symmetry_equiv_pos_as_xyz
1 x,y,z
_cell_length_a 13.669500
_cell_length_b 14.610700
_cell_length_c 22.721200
_cell_angle_alpha 90.000000
_cell_angle_beta 90.000000
_cell_angle_gamma 90.000000
_cell_volume 4537.899959
loop_
_atom_site_label
_atom_site_type_symbol
_atom_site_fract_x
_atom_site_fract_y
_atom_site_fract_z
H1 H 0.513400 0.171000 0.387700
H2 H 0.158900 0.050100 0.030200
H3 H 0.113400 0.809800 0.390800
H4 H -0.016000 0.812100 0.456100
H5 H 0.700400 0.462100 0.569700
H6 H 0.695800 0.354800 0.577600
H7 H 0.012000 0.841900 0.554300
H8 H 0.543400 0.360700 0.607800
H9 H 0.556900 0.467300 0.613300
H10 H 0.048800 0.896400 0.645200
H11 H 0.434500 0.388300 0.539300
H12 H 0.465300 0.492300 0.535700
H13 H 0.061600 0.975500 0.768100
H14 H 0.036000 0.870300 0.772000
H15 H 0.457000 0.411500 0.412800
H16 H 0.153300 0.846200 0.837900
H17 H 0.162300 0.953200 0.843600
H18 H 0.301600 0.847000 0.802800
H19 H 0.422500 0.349800 0.323600
H20 H 0.300400 0.954400 0.795500
H21 H 0.398900 0.317100 0.225900
H22 H 0.383700 0.858900 0.504100
H23 H 0.530300 0.300000 0.163600
H24 H 0.841100 0.550100 0.469800
H25 H 0.687500 0.318700 0.199300
H26 H 0.883700 0.641100 0.495900
H27 H 0.769700 0.662100 0.576900
H28 H 0.797000 0.336000 0.282700
H29 H 0.763000 0.433300 0.303100
H30 H 0.613400 0.690200 0.609200
H31 H 0.484000 0.687900 0.543900
H32 H 0.116300 0.141100 0.004100
H33 H 0.512000 0.658100 0.445700
H34 H 0.548800 0.603600 0.354800
H35 H 0.799600 0.537900 1.069700
H36 H 0.804200 0.645200 1.077600
H37 H 0.561600 0.524500 0.231900
H38 H 0.956600 0.639300 1.107800
H39 H 0.943100 0.532700 1.113300
H40 H 0.536000 0.629700 0.228000
H41 H 1.065500 0.611700 1.039300
H42 H 1.034700 0.507700 1.035700
H43 H 0.653300 0.653800 0.162100
H44 H 0.662300 0.546800 0.156400
H45 H 1.043000 0.588500 0.912800
H46 H 0.801600 0.653000 0.197200
H47 H 0.800400 0.545600 0.204500
H48 H 0.341100 0.949900 0.530200
H49 H 1.077500 0.650200 0.823600
H50 H 0.658900 0.449900 0.969800
H51 H 1.101100 0.682900 0.725900
H52 H 0.616300 0.358900 0.995900
H53 H 0.969700 0.700000 0.663600
H54 H 0.730300 0.337900 1.076900
H55 H 0.812500 0.681300 0.699300
H56 H 0.886600 0.309800 1.109200
H57 H 1.016000 0.312100 1.043900
H58 H 0.703000 0.664000 0.782700
H59 H 0.737000 0.566700 0.803100
H60 H 0.988000 0.341900 0.945700
H61 H 0.438400 0.024500 0.268100
H62 H 0.951200 0.396400 0.854800
H63 H 0.938400 0.475500 0.731900
H64 H 0.964000 0.370300 0.728000
H65 H 0.299600 0.962100 -0.069700
H66 H 0.304200 0.854800 -0.077600
H67 H 0.846700 0.346200 0.662100
H68 H 0.456600 0.860700 -0.107800
H69 H 0.443100 0.967300 -0.113300
H70 H 0.837700 0.453200 0.656400
H71 H 0.565500 0.888300 -0.039300
H72 H 0.534700 0.992300 -0.035700
H73 H 0.698400 0.347000 0.697200
H74 H 0.699600 0.454400 0.704500
H75 H 0.543000 0.911500 0.087200
H76 H 0.612500 0.093500 0.220000
H77 H 0.664300 0.009900 0.190000
H78 H 0.721500 0.120100 0.302900
H79 H 0.577500 0.849800 0.176400
H80 H 0.873800 0.160000 0.338000
H81 H 0.601100 0.817100 0.274100
H82 H 1.004200 0.169900 0.273900
H83 H 0.469700 0.800000 0.336400
H84 H 0.983000 0.141900 0.175500
H85 H 0.312500 0.818700 0.300700
H86 H 0.953900 0.085100 0.082700
H87 H 0.965100 0.136300 -0.042900
H88 H 0.203000 0.836000 0.217300
H89 H 0.237000 0.933300 0.196900
H90 H 0.955000 0.028700 -0.042500
H91 H 0.464000 0.129700 0.272000
H92 H 0.847200 0.036600 -0.113900
H93 H 0.858600 0.143700 -0.115100
H94 H 0.702600 0.051200 -0.074900
H95 H 0.200400 0.037900 0.430300
H96 H 0.195800 0.145200 0.422400
H97 H 0.714500 0.158600 -0.075400
H98 H 0.043400 0.139300 0.392200
H99 H 0.056900 0.032700 0.386700
H100 H 0.451200 0.103600 0.145200
H101 H -0.065500 0.111700 0.460700
H102 H -0.034700 0.007700 0.464300
H103 H 0.488000 0.158100 0.054300
H104 H 0.887500 0.906500 0.720000
H105 H -0.043000 0.088500 0.587200
H106 H 0.835700 0.990100 0.690000
H107 H 0.778500 0.879900 0.802900
H108 H 0.626200 0.840000 0.838000
H109 H -0.077500 0.150200 0.676400
H110 H 0.495800 0.830100 0.773900
H111 H -0.101100 0.182900 0.774100
H112 H 0.517000 0.858100 0.675500
H113 H 0.030300 0.200000 0.836400
H114 H 0.546100 0.914900 0.582700
H115 H 0.187500 0.181300 0.800700
H116 H 0.534900 0.863700 0.457100
H117 H 0.545000 0.971300 0.457500
H118 H 0.297000 0.164000 0.717300
H119 H 0.263000 0.066700 0.696900
H120 H 0.652800 0.963400 0.386100
H121 H 0.641400 0.856300 0.384900
H122 H 0.230300 0.162100 -0.076900
H123 H 0.797400 0.948800 0.425100
H124 H 0.785500 0.841400 0.424600
H125 H 0.201500 0.314000 0.198100
H126 H 0.214600 0.421100 0.203600
H127 H 0.387500 0.593500 0.280000
H128 H 0.054400 0.330000 0.162000
H129 H 0.075400 0.435600 0.157100
H130 H 0.335700 0.509900 0.310000
H131 H -0.023500 0.465700 0.231700
H132 H -0.058000 0.362600 0.228700
H133 H 0.278500 0.620100 0.197100
H134 H 0.126200 0.660000 0.162000
H135 H -0.042100 0.392900 0.355400
H136 H -0.004200 0.669900 0.226100
H137 H 0.017000 0.641900 0.324500
H138 H 0.046100 0.585100 0.417300
H139 H -0.083200 0.351200 0.447600
H140 H 0.034900 0.636300 0.542900
H141 H -0.113300 0.339800 0.546600
H142 H 0.045000 0.528700 0.542500
H143 H 0.013400 0.329000 0.612300
H144 H 0.152800 0.536600 0.613900
H145 H 0.172800 0.332300 0.579100
H146 H 0.141400 0.643700 0.615100
H147 H 0.297400 0.551200 0.574900
H148 H 0.265400 0.413400 0.473800
H149 H 0.285100 0.314000 0.496600
H150 H 0.285500 0.658600 0.575400
H151 H 0.346700 0.153800 0.337900
H152 H 0.516000 0.187900 -0.043900
H153 H 0.112500 0.406500 0.780000
H154 H 0.164300 0.490100 0.810000
H155 H 0.298500 0.686000 0.698100
H156 H 0.285400 0.578900 0.703600
H157 H 0.221500 0.379900 0.697100
H158 H 0.445600 0.670000 0.662000
H159 H 0.424600 0.564400 0.657100
H160 H 0.373800 0.340000 0.662000
H161 H 0.523500 0.534300 0.731700
H162 H 0.558000 0.637400 0.728700
H163 H 0.504200 0.330100 0.726100
H164 H 0.483000 0.358100 0.824500
H165 H 0.542100 0.607100 0.855400
H166 H 0.453900 0.414900 0.917300
H167 H 0.465100 0.363700 1.042900
H168 H 0.455000 0.471300 1.042500
H169 H 0.583200 0.648800 0.947600
H170 H 0.347200 0.463400 1.113900
H171 H 0.613300 0.660200 1.046600
H172 H 0.358600 0.356300 1.115100
H173 H 0.486600 0.671000 1.112300
H174 H 0.202600 0.448800 1.074900
H175 H 0.327200 0.667700 1.079100
H176 H 0.214500 0.341400 1.075400
H177 H 0.199600 0.045600 0.295500
H178 H 0.234600 0.586600 0.973800
H179 H 0.214900 0.686000 0.996600
H180 H 0.198400 0.153000 0.302800
H181 H 0.337700 0.046800 0.343600
H182 H 0.386600 0.190200 -0.109200
H183 H 0.785100 0.186000 0.503400
H184 H 0.765400 0.086600 0.526200
H185 H 0.798500 0.814000 0.301900
H186 H 0.785400 0.921100 0.296400
H187 H 0.672800 0.167700 0.420900
H188 H 0.945600 0.830000 0.338000
H189 H 0.924600 0.935600 0.342900
H190 H 0.386700 0.160200 0.453400
H191 H 1.023500 0.965700 0.268300
H192 H 1.058000 0.862600 0.271300
H193 H 0.416800 0.148800 0.552400
H194 H 0.457900 0.107100 0.644600
H195 H 1.042100 0.892900 0.144600
H196 H 0.269700 0.837900 0.423100
H197 H 0.442000 0.137400 0.771300
H198 H 0.476500 0.034300 0.768300
H199 H 1.083200 0.851200 0.052400
H200 H 0.575400 0.064400 0.842900
H201 H 1.113300 0.839800 -0.046600
H202 H 0.554400 0.170000 0.838000
H203 H 0.986600 0.829000 -0.112300
H204 H 0.714600 0.078900 0.796400
H205 H 0.827200 0.832300 -0.079100
H206 H 0.701500 0.186000 0.801900
H207 H 0.714900 0.814000 0.003400
H208 H 0.734600 0.913400 0.026200
C209 C 0.756410 0.850400 0.028960
C210 C 0.813990 0.843910 0.127760
C211 C 0.334500 0.097800 0.316250
C212 C 0.375400 0.177800 -0.069640
C213 C 0.650170 0.135490 0.723680
C214 C 0.671400 0.129900 0.787920
C215 C 0.859130 0.844610 0.007200
C216 C 0.878560 0.836450 -0.052410
C217 C 0.573000 0.115900 0.815940
C218 C 0.973700 0.834500 -0.072220
C219 C 1.049100 0.840700 -0.033010
C220 C 0.498400 0.097500 0.767360
C221 C 1.031090 0.848100 0.026190
C222 C 0.935400 0.851010 0.047500
C223 C 0.910830 0.860000 0.109620
C224 C 0.522830 0.119460 0.654000
C225 C 0.977170 0.880540 0.154000
C226 C 0.589170 0.140000 0.609620
C227 C 0.564600 0.148990 0.547500
C228 C 0.468910 0.151900 0.526190
C229 C 0.947140 0.882650 0.211770
C230 C 0.450900 0.159300 0.466990
C231 C 1.001600 0.902500 0.267360
C232 C 0.526300 0.165500 0.427780
C233 C 0.219230 0.131200 0.128570
C234 C 0.621440 0.163550 0.447590
C235 C 0.927000 0.884100 0.315940
C236 C 0.640870 0.155390 0.507200
C237 C 0.743590 0.149600 0.528960
C238 C 0.828600 0.870100 0.287920
C239 C 0.849830 0.864510 0.223680
C240 C 0.686010 0.156090 0.627760
C241 C 0.313990 0.656090 0.872240
C242 C 0.256410 0.649600 0.971040
C243 C 0.261860 0.399500 0.998480
C244 C 0.244700 0.398500 1.063290
C245 C 0.359130 0.655390 0.992800
C246 C 0.378560 0.663550 1.052410
C247 C 0.344500 0.408400 1.090080
C248 C 0.473700 0.665500 1.072220
C249 C 0.549100 0.659300 1.033010
C250 C 0.419090 0.414100 1.040680
C251 C 0.531090 0.651900 0.973810
C252 C 0.435400 0.648990 0.952500
C253 C 0.360270 0.408610 0.985920
C254 C 0.388290 0.408700 0.927430
C255 C 0.410830 0.640000 0.890380
C256 C 0.317690 0.399480 0.883890
C257 C 0.338260 0.386110 0.821270
C258 C 0.429920 0.362500 0.799120
C259 C 0.477170 0.619460 0.846000
C260 C 0.442500 0.345800 0.740260
C261 C 0.447140 0.617350 0.788230
C262 C 0.364900 0.351900 0.701840
C263 C 0.501600 0.597500 0.732640
C264 C 0.274100 0.375700 0.722900
C265 C 0.427000 0.615900 0.684060
C266 C 0.260480 0.393390 0.782100
C267 C 0.164500 0.423900 0.806770
C268 C 0.328600 0.629900 0.712080
C269 C 0.349830 0.635490 0.776320
C270 C 0.219810 0.394500 0.903220
C271 C 0.282200 0.160800 -0.050480
C272 C 0.235800 0.101500 0.288070
C273 C 0.238140 0.600500 0.498480
C274 C 0.255300 0.601500 0.563290
C275 C 0.186010 0.343910 0.372240
C276 C 0.243590 0.350400 0.471040
C277 C 0.155500 0.591600 0.590080
C278 C 0.140870 0.344610 0.492800
C279 C 0.121440 0.336450 0.552410
C280 C 0.080910 0.585900 0.540680
C281 C 0.026300 0.334500 0.572220
C282 C -0.049100 0.340700 0.533010
C283 C 0.139730 0.591390 0.485920
C284 C 0.111710 0.591300 0.427430
C285 C -0.031090 0.348100 0.473810
C286 C 0.182310 0.600520 0.383890
C287 C 0.161740 0.613890 0.321270
C288 C 0.070080 0.637500 0.299120
C289 C 0.064600 0.351010 0.452500
C290 C 0.057500 0.654200 0.240260
C291 C 0.089170 0.360000 0.390380
C292 C 0.135100 0.648100 0.201840
C293 C 0.022830 0.380540 0.346000
C294 C 0.225900 0.624300 0.222900
C295 C 0.052860 0.382650 0.288230
C296 C 0.239520 0.606610 0.282100
C297 C 0.335500 0.576100 0.306770
C298 C -0.001600 0.402500 0.232640
C299 C 0.073000 0.384100 0.184060
C300 C 0.280190 0.605500 0.403220
C301 C 0.452800 0.176600 -0.030630
C302 C 0.256700 0.112200 0.223940
C303 C 0.738140 0.899500 0.501520
C304 C 0.755300 0.898500 0.436710
C305 C 0.171400 0.370100 0.212080
C306 C 0.150170 0.364510 0.276320
C307 C 0.655500 0.908400 0.409920
C308 C 0.411260 0.085800 0.267580
C309 C 0.187500 0.130880 0.596840
C310 C 0.580910 0.914100 0.459320
C311 C 0.249370 0.131600 0.693520
C312 C 0.148710 0.150200 0.717590
C313 C 0.639730 0.908610 0.514080
C314 C 0.611710 0.908700 0.572570
C315 C 0.134200 0.173600 0.775830
C316 C 0.682310 0.899480 0.616110
C317 C 0.661740 0.886110 0.678730
C318 C 0.570080 0.862500 0.700880
C319 C 0.040400 0.185400 0.797000
C320 C 0.557500 0.845800 0.759740
C321 C -0.037900 0.175500 0.759660
C322 C 0.635100 0.851900 0.798160
C323 C -0.023940 0.154900 0.701450
C324 C 0.725900 0.875700 0.777100
C325 C 0.070400 0.141120 0.679630
C326 C 0.739520 0.893390 0.717900
C327 C 0.835500 0.923900 0.693230
C328 C 0.091740 0.120280 0.617770
C329 C 0.021690 0.097980 0.575960
C330 C 0.780190 0.894500 0.596780
C331 C 0.048340 0.089920 0.517850
C332 C -0.010450 0.070100 0.463830
C333 C 0.761860 0.100500 0.001520
C334 C 0.744700 0.101500 -0.063290
C335 C 0.060200 0.084100 0.413690
C336 C 0.162240 0.092400 0.438550
C337 C 0.844500 0.091600 -0.090080
C338 C 0.145570 0.103220 0.503440
C339 C 0.265200 0.141600 0.008240
C340 C 0.919090 0.085900 -0.040680
C341 C 0.312500 0.869120 0.096840
C342 C 0.250630 0.868400 0.193520
C343 C 0.860270 0.091390 0.014080
C344 C 0.888290 0.091300 0.072570
C345 C 0.351290 0.849800 0.217590
C346 C 0.817690 0.100520 0.116110
C347 C 0.838260 0.113890 0.178730
C348 C 0.929920 0.137500 0.200880
C349 C 0.365800 0.826400 0.275830
C350 C 0.942500 0.154200 0.259740
C351 C 0.459600 0.814600 0.297000
C352 C 0.864900 0.148100 0.298160
C353 C 0.537900 0.824500 0.259660
C354 C 0.774100 0.124300 0.277100
C355 C 0.523940 0.845100 0.201450
C356 C 0.760480 0.106610 0.217900
C357 C 0.664500 0.076100 0.193230
C358 C 0.429600 0.858880 0.179630
C359 C 0.408260 0.879720 0.117770
C360 C 0.719810 0.105500 0.096780
C361 C 0.435910 0.158600 0.027930
C362 C 0.280770 0.868800 0.628570
C363 C 0.756700 0.387800 0.776060
C364 C 0.735800 0.398500 0.711930
C365 C 0.478310 0.902020 0.075960
C366 C 0.451660 0.910080 0.017850
C367 C 0.834500 0.402200 0.683750
C368 C 0.510450 0.929900 -0.036170
C369 C 0.439800 0.915900 -0.086310
C370 C 0.911260 0.414200 0.732420
C371 C 0.337760 0.907600 -0.061450
C372 C 0.354430 0.896780 0.003440
C373 C 0.855150 0.397280 0.788200
C374 C 0.885180 0.390480 0.845600
C375 C 0.165300 0.116200 0.030530
C376 C 0.817650 0.374830 0.890070
C377 C 0.841560 0.358880 0.951870
C378 C 0.935910 0.341400 0.972070
C379 C 0.812500 0.630880 0.903160
C380 C 0.952800 0.323400 1.030630
C381 C 0.750630 0.631600 0.806480
C382 C 0.875400 0.322200 1.069640
C383 C 0.851290 0.650200 0.782410
C384 C 0.782200 0.339200 1.050480
C385 C 0.865800 0.673600 0.724170
C386 C 0.765200 0.358400 0.991760
C387 C 0.665300 0.383800 0.969470
C388 C 0.959600 0.685400 0.703000
C389 C 1.037900 0.675500 0.740340
C390 C 0.719230 0.368800 0.871430
C391 C 0.341560 0.141120 0.048130
C392 C 1.023940 0.654900 0.798550
C393 C 0.743300 0.612200 0.276060
C394 C 0.764200 0.601500 0.211930
C395 C 0.929600 0.641120 0.820370
C396 C 0.908260 0.620280 0.882230
C397 C 0.665500 0.597800 0.183750
C398 C 0.978310 0.597980 0.924040
C399 C 0.951660 0.589920 0.982150
C400 C 0.588740 0.585800 0.232420
C401 C 1.010450 0.570100 1.036170
C402 C 0.939800 0.584100 1.086310
C403 C 0.644850 0.602720 0.288200
C404 C 0.614820 0.609520 0.345600
C405 C 0.837760 0.592400 1.061450
C406 C 0.682350 0.625170 0.390070
C407 C 0.658440 0.641120 0.451870
C408 C 0.564090 0.658600 0.472070
C409 C 0.854430 0.603220 0.996560
C410 C 0.547200 0.676600 0.530630
C411 C 0.355150 0.102720 0.211800
C412 C 0.624600 0.677800 0.569640
C413 C 0.687500 0.369120 0.403160
C414 C 0.717800 0.660800 0.550480
C415 C 0.749370 0.368400 0.306480
C416 C 0.734800 0.641600 0.491760
C417 C 0.834700 0.616200 0.469470
C418 C 0.648710 0.349800 0.282410
C419 C 0.634200 0.326400 0.224170
C420 C 0.780770 0.631200 0.371430
C421 C 0.317650 0.125170 0.109930
C422 C 0.540400 0.314600 0.203000
C423 C 0.243300 0.887800 0.723940
C424 C 0.264200 0.898500 0.788070
C425 C 0.462100 0.324500 0.240340
C426 C 0.476060 0.345100 0.298550
C427 C 0.165500 0.902200 0.816250
C428 C 0.570400 0.358880 0.320370
C429 C 0.591740 0.379720 0.382230
C430 C 0.088740 0.914200 0.767580
C431 C 0.521690 0.402020 0.424040
C432 C 0.548340 0.410080 0.482150
C433 C 0.144850 0.897280 0.711800
C434 C 0.114820 0.890480 0.654400
C435 C 0.489550 0.429900 0.536170
C436 C 0.182350 0.874830 0.609930
C437 C 0.158440 0.858880 0.548130
C438 C 0.064090 0.841400 0.527930
C439 C 0.560200 0.415900 0.586310
C440 C 0.047200 0.823400 0.469370
C441 C 0.662240 0.407600 0.561450
C442 C 0.124600 0.822200 0.430360
C443 C 0.645570 0.396780 0.496560
C444 C 0.217800 0.839200 0.449520
C445 C 0.552860 0.117350 0.711770
C446 C 0.234800 0.858400 0.508240
C447 C 0.334700 0.883800 0.530530
C448 C 0.385180 0.109520 0.154400
N449 N 0.812370 0.625620 0.317130
N450 N 0.687630 0.374380 0.817130
N451 N 0.691340 0.107830 0.041730
N452 N 0.187630 0.125620 0.182870
N453 N 0.808660 0.892170 0.541730
N454 N 0.308660 0.607830 0.458270
N455 N 0.191340 0.392170 0.958270
N456 N 0.715840 0.377510 0.458210
N457 N 0.717460 0.154460 0.682620
N458 N 0.782540 0.845540 0.182620
N459 N 0.282540 0.654460 0.817380
N460 N 0.217460 0.345540 0.317380
N461 N 0.215840 0.122490 0.541790
N462 N 0.284160 0.877510 0.041790
N463 N 0.784160 0.622490 0.958210
N464 N 0.312370 0.874380 0.682870
O465 O 0.147140 0.148990 0.088510
O466 O 0.352860 0.851010 0.588510
O467 O 0.852860 0.648990 0.411490
O468 O 0.647140 0.351010 0.911490
O469 O 0.645790 0.115210 0.136570
O470 O 0.854210 0.884790 0.636570
O471 O 0.354210 0.615210 0.363430
O472 O 0.756140 0.180380 0.588420
O473 O 0.743860 0.819620 0.088420
O474 O 0.243860 0.680380 0.911580
O475 O 0.256140 0.319620 0.411580
O476 O 0.260820 0.158360 0.633980
O477 O 0.239180 0.841640 0.133980
O478 O 0.739180 0.658360 0.866020
O479 O 0.760820 0.341640 0.366020
O480 O 0.145790 0.384790 0.863430

#END
