./ABACAI_from_POSCAR.cif_generated_by_CrystalShift
_symmetry_cell_setting triclinic
_symmetry_space_group_name_H-M 'P 1'
loop_
_symmetry_equiv_pos_site_id
_symmetry_equiv_pos_as_xyz
1 x,y,z
_cell_length_a 10.803000
_cell_length_b 11.090000
_cell_length_c 11.723000
_cell_angle_alpha 76.480000
_cell_angle_beta 79.630000
_cell_angle_gamma 62.650000
_cell_volume 1208.617079
loop_
_atom_site_label
_atom_site_type_symbol
_atom_site_fract_x
_atom_site_fract_y
_atom_site_fract_z
H1 H 0.672700 0.744500 0.210800
H2 H 0.939400 1.026100 0.592100
H3 H 0.623600 0.544000 0.533500
H4 H 0.704800 0.344600 0.458000
H5 H 0.576000 0.237300 0.394600
H6 H 0.682400 1.200500 0.730300
H7 H 0.822500 1.133800 0.793100
H8 H 0.707000 0.147100 0.468600
H9 H 0.584000 1.163000 0.911700
H10 H 0.727900 1.050500 0.958800
H11 H 0.672000 -0.035600 0.462900
H12 H 0.649200 0.897900 0.948000
H13 H 0.537700 1.005600 0.859700
H14 H 0.565200 0.049600 0.366100
H15 H 0.847200 -0.122200 0.328600
H16 H 0.732400 -0.065700 0.238500
H17 H 0.944600 -0.023500 0.102200
H18 H 0.524200 0.820600 0.845800
H19 H 0.986400 0.399800 0.103800
H20 H 0.425900 0.669800 0.904000
H21 H 0.068600 0.600200 1.011400
H22 H 0.548800 0.444600 0.869200
H23 H 0.013600 0.600200 0.896200
H24 H 0.772900 0.374000 0.777400
H25 H 0.194800 0.383700 0.945200
H26 H 0.294000 0.448000 0.956100
H27 H 0.948200 0.430300 0.654800
H28 H 0.994100 0.487400 0.742100
H29 H 0.327300 0.255500 0.789200
H30 H 1.023200 0.602500 0.554400
H31 H 0.870200 0.641100 0.529300
H32 H 0.399400 0.253400 0.592600
H33 H 0.376400 0.456000 0.466500
H34 H 0.805200 0.616300 0.054800
H35 H 0.060600 -0.026100 0.407900
H36 H 0.931400 0.399800 -0.011400
H37 H 0.295200 0.655400 0.542000
H38 H 0.424000 0.762700 0.605400
H39 H 0.317600 -0.200500 0.269700
H40 H 0.177500 -0.133800 0.206900
H41 H 0.293000 0.852900 0.531400
H42 H 0.416000 -0.163000 0.088300
H43 H 0.272100 -0.050500 0.041200
H44 H 0.328000 1.035600 0.537100
H45 H 0.350800 0.102100 0.052000
H46 H 0.462300 -0.005600 0.140300
H47 H 0.434800 0.950400 0.633900
H48 H 0.152800 1.122200 0.671400
H49 H 0.267600 1.065700 0.761500
H50 H 0.055400 1.023500 0.897800
H51 H 0.475800 0.179400 0.154200
H52 H 0.706000 0.552000 0.043900
H53 H 0.574100 0.330200 0.096000
H54 H 0.129800 0.358900 0.470700
H55 H 0.451200 0.555400 0.130800
H56 H -0.023200 0.397500 0.445600
H57 H 0.227100 0.626000 0.222600
H58 H 0.005900 0.512600 0.257900
H59 H 0.051800 0.569700 0.345200
H60 H 0.600600 0.746600 0.407400
C61 C 0.216800 0.444300 0.248100
C62 C 0.071800 0.372700 0.410200
C63 C 0.277500 0.535400 0.210100
C64 C 0.411200 0.494100 0.154200
C65 C 0.124300 0.241400 0.362700
C66 C 0.066100 0.147700 0.418900
C67 C 0.484400 0.359300 0.133800
C68 C 0.780600 0.540500 0.086900
C69 C 0.425600 0.269200 0.168800
C70 C 0.184800 0.930700 0.766000
C71 C 0.230100 1.040500 0.706500
C72 C 0.291100 0.310000 0.226200
C73 C 0.225900 0.212700 0.270700
C74 C 0.343100 0.973400 0.612100
C75 C 0.265300 0.089000 0.224700
C76 C 0.366100 0.031700 0.122000
C77 C 0.332700 0.841100 0.603400
C78 C 0.331100 -0.082800 0.105600
C79 C 0.254700 -0.118900 0.220900
C80 C 0.237300 0.821500 0.710300
C81 C 0.206200 0.706700 0.762400
C82 C 0.261300 0.579000 0.710800
C83 C 0.301700 0.574800 0.592600
C84 C 0.203700 0.005700 0.276400
C85 C 0.351300 0.455400 0.546700
C86 C 0.933900 0.852300 0.581100
C87 C 0.363000 0.335300 0.621700
C88 C 0.875700 0.758600 0.637300
C89 C 0.320900 0.336600 0.739600
C90 C 0.928200 0.627300 0.589800
C91 C 0.269100 0.456900 0.785800
C92 C 0.219400 0.459500 0.913100
C93 C 0.925100 0.511300 0.687800
C94 C 0.783200 0.555700 0.751900
C95 C 0.092800 0.595300 0.928300
C96 C 0.722500 0.464600 0.789900
C97 C 0.588800 0.505900 0.845800
C98 C 0.123700 0.713600 0.866800
C99 C 0.065000 0.832900 0.923100
C100 C 0.515600 0.640700 0.866200
C101 C 0.730900 0.543100 0.214200
C102 C 0.574400 0.730800 0.831200
C103 C 0.815200 0.069300 0.234000
C104 C 0.769900 -0.040500 0.293500
C105 C 0.708900 0.690000 0.773800
C106 C 0.774100 0.787300 0.729300
C107 C 0.656900 0.026600 0.387900
C108 C 0.734700 0.911000 0.775300
C109 C 0.633900 0.968300 0.878000
C110 C 0.667300 0.158900 0.396600
C111 C 0.668900 1.082800 0.894400
C112 C 0.745300 1.118900 0.779100
C113 C 0.762700 0.178500 0.289700
C114 C 0.793800 0.293300 0.237600
C115 C 0.738700 0.421000 0.289200
C116 C 0.698300 0.425200 0.407400
C117 C 0.796300 0.994300 0.723600
C118 C 0.648700 0.544600 0.453300
C119 C 0.876300 0.286400 0.133200
C120 C 0.637000 0.664700 0.378300
C121 C 0.074900 0.488700 0.312200
C122 C 0.679100 0.663400 0.260400
C123 C 0.935000 0.167100 0.076900
C124 C 0.907200 0.404700 0.071700
N125 N 0.889800 0.968700 0.629300
N126 N 0.110200 0.031300 0.370700
N127 N 0.101600 0.936300 0.867600
N128 N 0.898400 0.063700 0.132400
O129 O -0.017400 0.162700 0.510300
O130 O 1.017400 0.837300 0.489700
O131 O -0.011000 0.843500 1.018100
O132 O 1.011000 0.156500 -0.018100

#END
