
#######################################################################
#
#                 Cambridge Crystallographic Data Centre
#                                CCDC 
#
#######################################################################
#
# If this CIF has been generated from an entry in the Cambridge 
# Structural Database, then it will include bibliographic, chemical, 
# crystal, experimental, refinement or atomic coordinate data resulting 
# from the CCDC's data processing and validation procedures.
#
#######################################################################

data_ABAJIZ
_symmetry_cell_setting           monoclinic
_symmetry_space_group_name_H-M   'P 21/c'
_symmetry_Int_Tables_number      14
_space_group_name_Hall           '-P 2ybc'
loop_
_symmetry_equiv_pos_site_id
_symmetry_equiv_pos_as_xyz
1 x,y,z
2 -x,1/2+y,1/2-z
3 -x,-y,-z
4 x,1/2-y,1/2+z
_cell_length_a                   16.6996(5)
_cell_length_b                   8.9443(2)
_cell_length_c                   25.9060(8)
_cell_angle_alpha                90
_cell_angle_beta                 119.151(2)
_cell_angle_gamma                90
_cell_volume                     3379.37
loop_
_atom_site_label
_atom_site_type_symbol
_atom_site_fract_x
_atom_site_fract_y
_atom_site_fract_z
C1 C 0.7656(6) 0.9763(9) 0.3832(4)
C2 C 0.7306(7) 1.1958(11) 0.4090(5)
H1 H 0.7340 1.2803 0.4322
C3 C 0.6677(7) 1.1716(11) 0.3522(4)
H2 H 0.6175 1.2344 0.3277
C4 C 0.8686(7) 1.0557(12) 0.4865(4)
H3 H 0.8806 0.9490 0.4957
H4 H 0.8554 1.1035 0.5155
H5 H 0.9227 1.1026 0.4879
C5 C 0.6368(7) 0.9677(11) 0.2783(4)
H6 H 0.6622 0.8680 0.2779
H7 H 0.6401 1.0304 0.2479
C6 C 0.5398(7) 0.9525(12) 0.2644(4)
H8 H 0.5259 0.8893 0.2884
C7 C 0.4724(7) 1.0234(13) 0.2199(5)
H9 H 0.4850 1.0870 0.1954
H10 H 0.4111 1.0109 0.2123
C8 C 0.8357(6) 0.4602(9) 0.3560(4)
H11 H 0.7722 0.4743 0.3294
C9 C 0.8740(7) 0.3199(11) 0.3584(5)
H12 H 0.8378 0.2401 0.3340
C10 C 0.9668(7) 0.3007(11) 0.3976(5)
H13 H 0.9950 0.2063 0.4008
C11 C 1.0177(7) 0.4187(11) 0.4318(5)
H14 H 1.0813 0.4079 0.4588
C12 C 0.9728(6) 0.5562(10) 0.4255(4)
H15 H 1.0076 0.6393 0.4482
N1 N 0.7901(5) 1.0735(8) 0.4274(3)
N2 N 0.6909(5) 1.0367(8) 0.3367(3)
N3 N 0.8837(5) 0.5742(8) 0.3891(3)
I1 I 0.91150(5) 0.89839(7) 0.33591(4)
I2 I 0.72770(4) 0.66588(7) 0.42965(3)
Pt1 Pt 0.82294(2) 0.78168(4) 0.38505(2)
C1 C 0.2344(6) 0.4763(9) 0.1168(4)
C2 C 0.2694(7) 0.6958(11) 0.0910(5)
H1 H 0.2660 0.7803 0.0678
C3 C 0.3323(7) 0.6716(11) 0.1478(4)
H2 H 0.3825 0.7344 0.1723
C4 C 0.1314(7) 0.5557(12) 0.0135(4)
H3 H 0.1194 0.4490 0.0043
H4 H 0.1446 0.6035 -0.0155
H5 H 0.0773 0.6026 0.0121
C5 C 0.3632(7) 0.4677(11) 0.2217(4)
H6 H 0.3378 0.3680 0.2221
H7 H 0.3599 0.5304 0.2521
C6 C 0.4602(7) 0.4525(12) 0.2356(4)
H8 H 0.4741 0.3893 0.2116
C7 C 0.5276(7) 0.5234(13) 0.2801(5)
H9 H 0.5150 0.5870 0.3046
H10 H 0.5889 0.5109 0.2877
C8 C 0.1643(6) -0.0398(9) 0.1440(4)
H11 H 0.2278 -0.0257 0.1706
C9 C 0.1260(7) -0.1801(11) 0.1416(5)
H12 H 0.1622 -0.2599 0.1660
C10 C 0.0332(7) -0.1993(11) 0.1024(5)
H13 H 0.0050 -0.2937 0.0992
C11 C -0.0177(7) -0.0813(11) 0.0682(5)
H14 H -0.0813 -0.0921 0.0412
C12 C 0.0272(6) 0.0562(10) 0.0745(4)
H15 H -0.0076 0.1393 0.0518
N1 N 0.2099(5) 0.5735(8) 0.0726(3)
N2 N 0.3091(5) 0.5367(8) 0.1633(3)
N3 N 0.1163(5) 0.0742(8) 0.1109(3)
I1 I 0.08850(5) 0.39839(7) 0.16409(4)
I2 I 0.27230(4) 0.16588(7) 0.07035(3)
Pt1 Pt 0.17706(2) 0.28168(4) 0.11495(2)
C1 C 0.2344(6) 0.0237(9) 0.6168(4)
C2 C 0.2694(7) -0.1958(11) 0.5910(5)
H1 H 0.2660 -0.2803 0.5678
C3 C 0.3323(7) -0.1716(11) 0.6478(4)
H2 H 0.3825 -0.2344 0.6723
C4 C 0.1314(7) -0.0557(12) 0.5135(4)
H3 H 0.1194 0.0510 0.5043
H4 H 0.1446 -0.1035 0.4845
H5 H 0.0773 -0.1026 0.5121
C5 C 0.3632(7) 0.0323(11) 0.7217(4)
H6 H 0.3378 0.1320 0.7221
H7 H 0.3599 -0.0304 0.7521
C6 C 0.4602(7) 0.0475(12) 0.7356(4)
H8 H 0.4741 0.1107 0.7116
C7 C 0.5276(7) -0.0234(13) 0.7801(5)
H9 H 0.5150 -0.0870 0.8046
H10 H 0.5889 -0.0109 0.7877
C8 C 0.1643(6) 0.5398(9) 0.6440(4)
H11 H 0.2278 0.5257 0.6706
C9 C 0.1260(7) 0.6801(11) 0.6416(5)
H12 H 0.1622 0.7599 0.6660
C10 C 0.0332(7) 0.6993(11) 0.6024(5)
H13 H 0.0050 0.7937 0.5992
C11 C -0.0177(7) 0.5813(11) 0.5682(5)
H14 H -0.0813 0.5921 0.5412
C12 C 0.0272(6) 0.4438(10) 0.5745(4)
H15 H -0.0076 0.3607 0.5518
N1 N 0.2099(5) -0.0735(8) 0.5726(3)
N2 N 0.3091(5) -0.0367(8) 0.6633(3)
N3 N 0.1163(5) 0.4258(8) 0.6109(3)
I1 I 0.08850(5) 0.10161(7) 0.66409(4)
I2 I 0.27230(4) 0.33412(7) 0.57035(3)
Pt1 Pt 0.17706(2) 0.21832(4) 0.61495(2)
C1 C 0.7656(6) 0.5237(9) 0.8832(4)
C2 C 0.7306(7) 0.3042(11) 0.9090(5)
H1 H 0.7340 0.2197 0.9322
C3 C 0.6677(7) 0.3284(11) 0.8522(4)
H2 H 0.6175 0.2656 0.8277
C4 C 0.8686(7) 0.4443(12) 0.9865(4)
H3 H 0.8806 0.5510 0.9957
H4 H 0.8554 0.3965 1.0155
H5 H 0.9227 0.3974 0.9879
C5 C 0.6368(7) 0.5323(11) 0.7783(4)
H6 H 0.6622 0.6320 0.7779
H7 H 0.6401 0.4696 0.7479
C6 C 0.5398(7) 0.5475(12) 0.7644(4)
H8 H 0.5259 0.6107 0.7884
C7 C 0.4724(7) 0.4766(13) 0.7199(5)
H9 H 0.4850 0.4130 0.6954
H10 H 0.4111 0.4891 0.7123
C8 C 0.8357(6) 1.0398(9) 0.8560(4)
H11 H 0.7722 1.0257 0.8294
C9 C 0.8740(7) 1.1801(11) 0.8584(5)
H12 H 0.8378 1.2599 0.8340
C10 C 0.9668(7) 1.1993(11) 0.8976(5)
H13 H 0.9950 1.2937 0.9008
C11 C 1.0177(7) 1.0813(11) 0.9318(5)
H14 H 1.0813 1.0921 0.9588
C12 C 0.9728(6) 0.9438(10) 0.9255(4)
H15 H 1.0076 0.8607 0.9482
N1 N 0.7901(5) 0.4265(8) 0.9274(3)
N2 N 0.6909(5) 0.4633(8) 0.8367(3)
N3 N 0.8837(5) 0.9258(8) 0.8891(3)
I1 I 0.91150(5) 0.60161(7) 0.83591(4)
I2 I 0.72770(4) 0.83412(7) 0.92965(3)
Pt1 Pt 0.82294(2) 0.71832(4) 0.88505(2)
C13 C 0.7495(6) 0.4326(10) 0.1153(4)
C14 C 0.7796(7) 0.6469(11) 0.0868(4)
H16 H 0.7732 0.7330 0.0636
C15 C 0.8514(7) 0.6152(11) 0.1394(5)
H17 H 0.9055 0.6732 0.1605
C16 C 0.6303(7) 0.5241(13) 0.0172(5)
H18 H 0.6057 0.4227 0.0131
H19 H 0.6401 0.5462 -0.0164
H20 H 0.5867 0.5961 0.0180
C17 C 0.8953(7) 0.4016(10) 0.2114(4)
H21 H 0.9426 0.3509 0.2052
H22 H 0.8615 0.3239 0.2203
C18 C 0.9405(8) 0.5043(12) 0.2624(4)
H23 H 0.9038 0.5668 0.2720
C19 C 1.0286(9) 0.5113(14) 0.2940(5)
H24 H 1.0662 0.4494 0.2848
H25 H 1.0559 0.5783 0.3265
C20 C 0.6839(7) -0.0782(10) 0.1521(5)
H26 H 0.7485 -0.0647 0.1734
C21 C 0.6486(8) -0.2161(12) 0.1555(5)
H27 H 0.6880 -0.2948 0.1786
C22 C 0.5567(8) -0.2357(12) 0.1253(5)
H28 H 0.5307 -0.3287 0.1272
C23 C 0.5020(8) -0.1226(14) 0.0924(6)
H29 H 0.4375 -0.1364 0.0705
C24 C 0.5408(7) 0.0164(12) 0.0906(5)
H30 H 0.5020 0.0961 0.0679
N4 N 0.7174(6) 0.5350(9) 0.0721(4)
N5 N 0.8313(5) 0.4807(8) 0.1570(3)
N6 N 0.6314(5) 0.0370(8) 0.1203(3)
I3 I 0.75104(5) 0.11604(7) 0.05254(3)
I4 I 0.63479(6) 0.35871(7) 0.18532(4)
Pt2 Pt 0.69095(2) 0.23982(4) 0.11738(2)
C13 C 0.2505(6) 0.9326(10) 0.3847(4)
C14 C 0.2204(7) 1.1469(11) 0.4132(4)
H16 H 0.2268 1.2330 0.4364
C15 C 0.1486(7) 1.1152(11) 0.3606(5)
H17 H 0.0945 1.1732 0.3395
C16 C 0.3697(7) 1.0241(13) 0.4828(5)
H18 H 0.3943 0.9227 0.4869
H19 H 0.3599 1.0462 0.5164
H20 H 0.4133 1.0961 0.4820
C17 C 0.1047(7) 0.9016(10) 0.2886(4)
H21 H 0.0574 0.8509 0.2948
H22 H 0.1385 0.8239 0.2797
C18 C 0.0595(8) 1.0043(12) 0.2376(4)
H23 H 0.0962 1.0668 0.2280
C19 C -0.0286(9) 1.0113(14) 0.2060(5)
H24 H -0.0662 0.9494 0.2152
H25 H -0.0559 1.0783 0.1735
C20 C 0.3161(7) 0.4218(10) 0.3479(5)
H26 H 0.2515 0.4353 0.3266
C21 C 0.3514(8) 0.2839(12) 0.3445(5)
H27 H 0.3120 0.2052 0.3214
C22 C 0.4433(8) 0.2643(12) 0.3747(5)
H28 H 0.4693 0.1713 0.3728
C23 C 0.4980(8) 0.3774(14) 0.4076(6)
H29 H 0.5625 0.3636 0.4295
C24 C 0.4592(7) 0.5164(12) 0.4094(5)
H30 H 0.4980 0.5961 0.4321
N4 N 0.2826(6) 1.0350(9) 0.4279(4)
N5 N 0.1687(5) 0.9807(8) 0.3430(3)
N6 N 0.3686(5) 0.5370(8) 0.3797(3)
I3 I 0.24896(5) 0.61604(7) 0.44746(3)
I4 I 0.36521(6) 0.85871(7) 0.31468(4)
Pt2 Pt 0.30905(2) 0.73982(4) 0.38262(2)
C13 C 0.2505(6) 0.5674(10) 0.8847(4)
C14 C 0.2204(7) 0.3531(11) 0.9132(4)
H16 H 0.2268 0.2670 0.9364
C15 C 0.1486(7) 0.3848(11) 0.8606(5)
H17 H 0.0945 0.3268 0.8395
C16 C 0.3697(7) 0.4759(13) 0.9828(5)
H18 H 0.3943 0.5773 0.9869
H19 H 0.3599 0.4538 1.0164
H20 H 0.4133 0.4039 0.9820
C17 C 0.1047(7) 0.5984(10) 0.7886(4)
H21 H 0.0574 0.6491 0.7948
H22 H 0.1385 0.6761 0.7797
C18 C 0.0595(8) 0.4957(12) 0.7376(4)
H23 H 0.0962 0.4332 0.7280
C19 C -0.0286(9) 0.4887(14) 0.7060(5)
H24 H -0.0662 0.5506 0.7152
H25 H -0.0559 0.4217 0.6735
C20 C 0.3161(7) 1.0782(10) 0.8479(5)
H26 H 0.2515 1.0647 0.8266
C21 C 0.3514(8) 1.2161(12) 0.8445(5)
H27 H 0.3120 1.2948 0.8214
C22 C 0.4433(8) 1.2357(12) 0.8747(5)
H28 H 0.4693 1.3287 0.8728
C23 C 0.4980(8) 1.1226(14) 0.9076(6)
H29 H 0.5625 1.1364 0.9295
C24 C 0.4592(7) 0.9836(12) 0.9094(5)
H30 H 0.4980 0.9039 0.9321
N4 N 0.2826(6) 0.4650(9) 0.9279(4)
N5 N 0.1687(5) 0.5193(8) 0.8430(3)
N6 N 0.3686(5) 0.9630(8) 0.8797(3)
I3 I 0.24896(5) 0.88396(7) 0.94746(3)
I4 I 0.36521(6) 0.64129(7) 0.81468(4)
Pt2 Pt 0.30905(2) 0.76018(4) 0.88262(2)
C13 C 0.7495(6) 0.0674(10) 0.6153(4)
C14 C 0.7796(7) -0.1469(11) 0.5868(4)
H16 H 0.7732 -0.2330 0.5636
C15 C 0.8514(7) -0.1152(11) 0.6394(5)
H17 H 0.9055 -0.1732 0.6605
C16 C 0.6303(7) -0.0241(13) 0.5172(5)
H18 H 0.6057 0.0773 0.5131
H19 H 0.6401 -0.0462 0.4836
H20 H 0.5867 -0.0961 0.5180
C17 C 0.8953(7) 0.0984(10) 0.7114(4)
H21 H 0.9426 0.1491 0.7052
H22 H 0.8615 0.1761 0.7203
C18 C 0.9405(8) -0.0043(12) 0.7624(4)
H23 H 0.9038 -0.0668 0.7720
C19 C 1.0286(9) -0.0113(14) 0.7940(5)
H24 H 1.0662 0.0506 0.7848
H25 H 1.0559 -0.0783 0.8265
C20 C 0.6839(7) 0.5782(10) 0.6521(5)
H26 H 0.7485 0.5647 0.6734
C21 C 0.6486(8) 0.7161(12) 0.6555(5)
H27 H 0.6880 0.7948 0.6786
C22 C 0.5567(8) 0.7357(12) 0.6253(5)
H28 H 0.5307 0.8287 0.6272
C23 C 0.5020(8) 0.6226(14) 0.5924(6)
H29 H 0.4375 0.6364 0.5705
C24 C 0.5408(7) 0.4836(12) 0.5906(5)
H30 H 0.5020 0.4039 0.5679
N4 N 0.7174(6) -0.0350(9) 0.5721(4)
N5 N 0.8313(5) 0.0193(8) 0.6570(3)
N6 N 0.6314(5) 0.4630(8) 0.6203(3)
I3 I 0.75104(5) 0.38396(7) 0.55254(3)
I4 I 0.63479(6) 0.14129(7) 0.68532(4)
Pt2 Pt 0.69095(2) 0.26018(4) 0.61738(2)

#END
