
#######################################################################
#
#                 Cambridge Crystallographic Data Centre
#                                CCDC 
#
#######################################################################
#
# If this CIF has been generated from an entry in the Cambridge 
# Structural Database, then it will include bibliographic, chemical, 
# crystal, experimental, refinement or atomic coordinate data resulting 
# from the CCDC's data processing and validation procedures.
#
#######################################################################

data_ABAJEU
_symmetry_cell_setting           monoclinic
_symmetry_space_group_name_H-M   'P 21/c'
_symmetry_Int_Tables_number      14
_space_group_name_Hall           '-P 2ybc'
loop_
_symmetry_equiv_pos_site_id
_symmetry_equiv_pos_as_xyz
1 x,y,z
2 -x,1/2+y,1/2-z
3 -x,-y,-z
4 x,1/2-y,1/2+z
_cell_length_a                   10.0657(7)
_cell_length_b                   10.2174(7)
_cell_length_c                   11.3598(7)
_cell_angle_alpha                90
_cell_angle_beta                 97.649(2)
_cell_angle_gamma                90
_cell_volume                     1157.91
loop_
_atom_site_label
_atom_site_type_symbol
_atom_site_fract_x
_atom_site_fract_y
_atom_site_fract_z
Br1 Br 0.83211(3) 0.03430(3) 0.63091(2)
Cl1 Cl 0.43126(7) 0.24881(8) 1.00168(6)
O1 O 0.91325(15) 0.14097(17) 1.01998(13)
C1 C 0.4117(2) 0.1427(2) 0.8812(2)
C2 C 0.5234(2) 0.0869(2) 0.84130(19)
C3 C 0.6602(2) 0.1162(2) 0.89910(19)
H1 H 0.6767 0.1091 0.9814
C4 C 0.7621(2) 0.1522(2) 0.84211(18)
C5 C 0.8961(2) 0.1833(2) 0.90868(18)
O2 O 0.98111(17) 0.2408(2) 0.86463(16)
C6 C 0.7514(2) 0.1773(2) 0.71290(19)
H2 H 0.7964 0.2589 0.6994
H3 H 0.6578 0.1863 0.6804
C7 C 0.4999(3) 0.0026(2) 0.7449(2)
H4 H 0.5724 -0.0379 0.7171
C8 C 0.2834(2) 0.1184(3) 0.8258(2)
H5 H 0.2102 0.1580 0.8533
C9 C 0.2648(3) 0.0354(3) 0.7298(3)
H6 H 0.1786 0.0187 0.6922
C10 C 1.0420(2) 0.1709(3) 1.0877(2)
H7 H 1.1113 0.1245 1.0547
H8 H 1.0416 0.1447 1.1688
H9 H 1.0583 0.2633 1.0845
C11 C 0.3727(3) -0.0228(3) 0.6893(3)
H10 H 0.3599 -0.0792 0.6246
Br1 Br 0.16789(3) 0.53430(3) 0.86909(2)
Cl1 Cl 0.56874(7) 0.74881(8) 0.49832(6)
O1 O 0.08675(15) 0.64097(17) 0.48002(13)
C1 C 0.5883(2) 0.6427(2) 0.6188(2)
C2 C 0.4766(2) 0.5869(2) 0.65870(19)
C3 C 0.3398(2) 0.6162(2) 0.60090(19)
H1 H 0.3233 0.6091 0.5186
C4 C 0.2379(2) 0.6522(2) 0.65789(18)
C5 C 0.1039(2) 0.6833(2) 0.59132(18)
O2 O 0.01889(17) 0.7408(2) 0.63537(16)
C6 C 0.2486(2) 0.6773(2) 0.78710(19)
H2 H 0.2036 0.7589 0.8006
H3 H 0.3422 0.6863 0.8196
C7 C 0.5001(3) 0.5026(2) 0.7551(2)
H4 H 0.4276 0.4621 0.7829
C8 C 0.7166(2) 0.6184(3) 0.6742(2)
H5 H 0.7898 0.6580 0.6467
C9 C 0.7352(3) 0.5354(3) 0.7702(3)
H6 H 0.8214 0.5187 0.8078
C10 C -0.0420(2) 0.6709(3) 0.4123(2)
H7 H -0.1113 0.6245 0.4453
H8 H -0.0416 0.6447 0.3312
H9 H -0.0583 0.7633 0.4155
C11 C 0.6273(3) 0.4772(3) 0.8107(3)
H10 H 0.6401 0.4208 0.8754
Br1 Br 0.16789(3) 0.96570(3) 0.36909(2)
Cl1 Cl 0.56874(7) 0.75119(8) -0.00168(6)
O1 O 0.08675(15) 0.85903(17) -0.01998(13)
C1 C 0.5883(2) 0.8573(2) 0.1188(2)
C2 C 0.4766(2) 0.9131(2) 0.15870(19)
C3 C 0.3398(2) 0.8838(2) 0.10090(19)
H1 H 0.3233 0.8909 0.0186
C4 C 0.2379(2) 0.8478(2) 0.15789(18)
C5 C 0.1039(2) 0.8167(2) 0.09132(18)
O2 O 0.01889(17) 0.7592(2) 0.13537(16)
C6 C 0.2486(2) 0.8227(2) 0.28710(19)
H2 H 0.2036 0.7411 0.3006
H3 H 0.3422 0.8137 0.3196
C7 C 0.5001(3) 0.9974(2) 0.2551(2)
H4 H 0.4276 1.0379 0.2829
C8 C 0.7166(2) 0.8816(3) 0.1742(2)
H5 H 0.7898 0.8420 0.1467
C9 C 0.7352(3) 0.9646(3) 0.2702(3)
H6 H 0.8214 0.9813 0.3078
C10 C -0.0420(2) 0.8291(3) -0.0877(2)
H7 H -0.1113 0.8755 -0.0547
H8 H -0.0416 0.8553 -0.1688
H9 H -0.0583 0.7367 -0.0845
C11 C 0.6273(3) 1.0228(3) 0.3107(3)
H10 H 0.6401 1.0792 0.3754
Br1 Br 0.83211(3) 0.46570(3) 0.13091(2)
Cl1 Cl 0.43126(7) 0.25119(8) 0.50168(6)
O1 O 0.91325(15) 0.35903(17) 0.51998(13)
C1 C 0.4117(2) 0.3573(2) 0.3812(2)
C2 C 0.5234(2) 0.4131(2) 0.34130(19)
C3 C 0.6602(2) 0.3838(2) 0.39910(19)
H1 H 0.6767 0.3909 0.4814
C4 C 0.7621(2) 0.3478(2) 0.34211(18)
C5 C 0.8961(2) 0.3167(2) 0.40868(18)
O2 O 0.98111(17) 0.2592(2) 0.36463(16)
C6 C 0.7514(2) 0.3227(2) 0.21290(19)
H2 H 0.7964 0.2411 0.1994
H3 H 0.6578 0.3137 0.1804
C7 C 0.4999(3) 0.4974(2) 0.2449(2)
H4 H 0.5724 0.5379 0.2171
C8 C 0.2834(2) 0.3816(3) 0.3258(2)
H5 H 0.2102 0.3420 0.3533
C9 C 0.2648(3) 0.4646(3) 0.2298(3)
H6 H 0.1786 0.4813 0.1922
C10 C 1.0420(2) 0.3291(3) 0.5877(2)
H7 H 1.1113 0.3755 0.5547
H8 H 1.0416 0.3553 0.6688
H9 H 1.0583 0.2367 0.5845
C11 C 0.3727(3) 0.5228(3) 0.1893(3)
H10 H 0.3599 0.5792 0.1246

#END
