./ABAKOF_from_POSCAR.cif_generated_by_CrystalShift
_symmetry_cell_setting triclinic
_symmetry_space_group_name_H-M 'P 1'
loop_
_symmetry_equiv_pos_site_id
_symmetry_equiv_pos_as_xyz
1 x,y,z
_cell_length_a 3.854500
_cell_length_b 17.689000
_cell_length_c 20.752000
_cell_angle_alpha 86.754000
_cell_angle_beta 86.585000
_cell_angle_gamma 84.169000
_cell_volume 1403.274473
loop_
_atom_site_label
_atom_site_type_symbol
_atom_site_fract_x
_atom_site_fract_y
_atom_site_fract_z
H1 H 0.118000 0.535800 0.537300
H2 H 0.707400 0.602500 0.146500
H3 H 0.807700 0.283300 0.325300
H4 H 0.310000 0.474100 0.275600
H5 H 0.494700 0.315300 0.590900
H6 H 0.674400 0.039900 0.967900
H7 H 0.774900 0.063500 1.071700
H8 H 0.968100 0.179900 1.093100
H9 H 0.763900 0.507500 0.043600
H10 H 1.067400 0.265700 1.009700
H11 H 0.666400 0.383900 0.021400
H12 H 0.690000 0.434700 0.567300
H13 H 0.420200 0.306300 0.099700
H14 H 0.858500 0.231300 0.824700
H15 H 0.296300 0.343400 0.203600
H16 H 0.882000 0.464200 0.462700
H17 H 0.268700 0.639600 0.282300
H18 H 0.642100 0.657500 0.255600
H19 H 0.600800 0.596600 0.312700
H20 H 0.310000 0.565300 0.432700
H21 H 0.292600 0.397500 0.853500
H22 H 0.192300 0.716700 0.674700
H23 H 0.690000 0.525900 0.724400
H24 H 0.325600 0.960100 0.032100
H25 H 0.225100 0.936500 -0.071700
H26 H 0.031900 0.820100 -0.093100
H27 H -0.067400 0.734300 -0.009700
H28 H 0.236100 0.492500 0.956400
H29 H 0.141500 0.768700 0.175300
H30 H 0.333600 0.616100 0.978600
H31 H 0.097500 1.149600 0.254700
H32 H 0.579800 0.693700 0.900300
H33 H 0.240300 1.104500 0.194200
H34 H 0.703700 0.656600 0.796400
H35 H 0.474900 1.158800 0.224700
H36 H 0.731300 0.360400 0.717700
H37 H 0.357900 0.342500 0.744400
H38 H 0.399200 0.403400 0.687300
H39 H 0.505300 0.684700 0.409100
H40 H 0.492900 -0.105900 0.642300
H41 H 0.743800 0.836100 0.289000
H42 H 0.522100 0.028500 0.776000
H43 H 0.950700 0.795200 0.388000
H44 H 0.977000 0.875700 0.468200
H45 H 0.785600 1.004300 0.454500
H46 H 0.477900 0.971500 0.224000
H47 H 0.214400 -0.004300 0.545500
H48 H 0.507100 1.105900 0.357700
H49 H 0.023000 0.124300 0.531800
H50 H 0.510000 0.767300 0.489000
H51 H 0.049300 0.204800 0.612000
H52 H 0.902500 -0.149600 0.745300
H53 H 0.256200 0.163900 0.711000
H54 H 0.759700 -0.104500 0.805800
H55 H 0.525100 -0.158800 0.775300
H56 H 0.490000 0.232700 0.511000
C57 C 0.248200 0.130200 0.678400
C58 C 0.125800 0.153600 0.619400
C59 C 0.110600 0.105300 0.570900
C60 C 0.432000 0.719800 0.499300
C61 C 0.221600 0.029000 0.578400
C62 C 0.443100 1.059900 0.277100
C63 C 0.642000 0.945000 0.313100
C64 C 0.653400 0.995000 0.360800
C65 C 0.778400 0.971000 0.421600
C66 C 0.346600 0.005000 0.639200
C67 C 0.889400 0.894700 0.429100
C68 C 0.358000 0.055000 0.686900
C69 C 0.874200 0.846400 0.380600
C70 C 0.556900 -0.059900 0.722900
C71 C 0.751800 0.869800 0.321600
C72 C 0.429000 0.670600 0.451000
C73 C 0.301500 1.123800 0.233900
C74 C 0.495400 0.381800 0.726600
C75 C 0.614200 0.623800 0.828300
C76 C 0.534800 0.645400 0.889800
C77 C 0.325700 0.702600 0.562000
C78 C 0.202800 0.630800 0.576900
C79 C 0.359500 0.764600 0.607000
C80 C 0.389500 0.598300 0.937600
C81 C 0.060600 0.599600 0.640500
C82 C 0.278100 0.889200 0.139000
C83 C -0.001400 0.728200 0.108800
C84 C 0.193400 0.862700 0.075500
C85 C 0.077800 0.792100 0.061700
C86 C 0.016400 0.779900 -0.000900
C87 C 0.327300 0.525500 0.924800
C88 C 0.071600 0.831300 -0.051000
C89 C 0.407900 0.504700 0.862700
C90 C 0.187700 0.900200 -0.038400
C91 C 0.554400 0.550400 0.816100
C92 C 0.246000 0.913800 0.023900
C93 C 0.492000 0.441700 0.773700
C94 C 0.312800 0.600000 0.464600
C95 C 0.504600 0.618200 0.273400
C96 C 0.799500 0.417000 0.472300
C97 C 0.385800 0.376200 0.171700
C98 C 0.465200 0.354600 0.110200
C99 C 0.721900 0.110800 0.861000
C100 C 1.001400 0.271800 0.891200
C101 C 0.806600 0.137300 0.924500
C102 C 0.922200 0.207900 0.938300
C103 C 0.983600 0.220100 1.000900
C104 C 0.610500 0.401700 0.062400
C105 C 0.928400 0.168700 1.051000
C106 C 0.672700 0.474500 0.075200
C107 C 0.812300 0.099800 1.038400
C108 C 0.592100 0.495300 0.137300
C109 C 0.754000 0.086200 0.976100
C110 C 0.445600 0.449600 0.183900
C111 C 0.687200 0.400000 0.535400
C112 C 0.508000 0.558300 0.226300
C113 C 0.571000 0.329400 0.549000
C114 C 0.200500 0.583000 0.527700
C115 C 0.698500 -0.123800 0.766100
C116 C 0.939400 0.400400 0.359500
C117 C 0.640500 0.235400 0.393000
C118 C 0.797200 0.369200 0.423100
C119 C 0.674300 0.297400 0.438000
C120 C 0.568000 0.280200 0.500700
N121 N 0.624300 0.563300 0.165700
N122 N 0.375700 0.436700 0.834300
N123 N 0.602400 0.509700 0.761100
N124 N 0.472100 -0.064900 0.663100
N125 N 0.489300 0.011700 0.739000
N126 N 0.527900 1.064900 0.336900
N127 N 0.510700 0.988300 0.261000
N128 N 0.397600 0.490300 0.238900
O129 O 0.055400 0.637500 0.690790
O130 O 0.268100 0.758100 0.666650
O131 O 0.640300 0.045500 0.857750
O132 O -0.049300 0.537000 0.643880
O133 O -0.122400 0.672100 0.089300
O134 O 0.057300 0.729200 0.168670
O135 O 0.270100 0.846100 0.189610
O136 O 0.359700 0.954500 0.142250
O137 O 0.729900 0.153900 0.810390
O138 O 0.942700 0.270800 0.831330
O139 O 1.122400 0.327900 0.910700
O140 O 1.049300 0.463000 0.356120
O141 O 0.944600 0.362500 0.309210
O142 O 0.731900 0.241900 0.333350
O143 O 0.478400 0.823200 0.584700
O144 O 0.521600 0.176800 0.415300

#END
