
#######################################################################
#
#                 Cambridge Crystallographic Data Centre
#                                CCDC 
#
#######################################################################
#
# If this CIF has been generated from an entry in the Cambridge 
# Structural Database, then it will include bibliographic, chemical, 
# crystal, experimental, refinement or atomic coordinate data resulting 
# from the CCDC's data processing and validation procedures.
#
#######################################################################

data_ABAKEV
_symmetry_cell_setting           monoclinic
_symmetry_space_group_name_H-M   'P 21/n'
_symmetry_Int_Tables_number      14
_space_group_name_Hall           '-P 2yn'
loop_
_symmetry_equiv_pos_site_id
_symmetry_equiv_pos_as_xyz
1 x,y,z
2 1/2-x,1/2+y,1/2-z
3 -x,-y,-z
4 1/2+x,1/2-y,1/2+z
_cell_length_a                   7.0639(7)
_cell_length_b                   21.564(2)
_cell_length_c                   10.6980(10)
_cell_angle_alpha                90
_cell_angle_beta                 107.884(2)
_cell_angle_gamma                90
_cell_volume                     1550.84
loop_
_atom_site_label
_atom_site_type_symbol
_atom_site_fract_x
_atom_site_fract_y
_atom_site_fract_z
O1 O 0.2759(2) 0.51665(7) 0.83374(13)
N1 N 0.25666(19) 0.46418(6) 0.52163(13)
C1 C 0.2419(2) 0.48240(7) 0.39656(16)
C2 C 0.2385(2) 0.43602(8) 0.30235(18)
H1 H 0.2458 0.3935 0.3265
C3 C 0.2247(3) 0.45245(10) 0.17677(19)
H2 H 0.2207 0.4211 0.1137
C4 C 0.2162(3) 0.51490(10) 0.13944(18)
H3 H 0.2089 0.5254 0.0518
C5 C 0.2184(2) 0.56090(9) 0.22770(17)
H4 H 0.2126 0.6031 0.2013
C6 C 0.2292(2) 0.54573(7) 0.35861(16)
C7 C 0.2265(2) 0.59065(8) 0.45389(16)
H5 H 0.2169 0.6335 0.4319
C8 C 0.2379(2) 0.57216(7) 0.57762(17)
H6 H 0.2340 0.6017 0.6427
C9 C 0.2557(2) 0.50841(8) 0.60734(16)
C10 C 0.2734(3) 0.48493(9) 0.74045(18)
H7 H 0.2836 0.4413 0.7534
O1 O 0.2241(2) 0.01665(7) -0.33374(13)
N1 N 0.24334(19) -0.03582(6) -0.02163(13)
C1 C 0.2581(2) -0.01760(7) 0.10344(16)
C2 C 0.2615(2) -0.06398(8) 0.19765(18)
H1 H 0.2542 -0.1065 0.1735
C3 C 0.2753(3) -0.04755(10) 0.32323(19)
H2 H 0.2793 -0.0789 0.3863
C4 C 0.2838(3) 0.01490(10) 0.36056(18)
H3 H 0.2911 0.0254 0.4482
C5 C 0.2816(2) 0.06090(9) 0.27230(17)
H4 H 0.2874 0.1031 0.2987
C6 C 0.2708(2) 0.04573(7) 0.14139(16)
C7 C 0.2735(2) 0.09065(8) 0.04611(16)
H5 H 0.2831 0.1335 0.0681
C8 C 0.2621(2) 0.07216(7) -0.07762(17)
H6 H 0.2660 0.1017 -0.1427
C9 C 0.2443(2) 0.00841(8) -0.10734(16)
C10 C 0.2266(3) -0.01507(9) -0.24045(18)
H7 H 0.2164 -0.0587 -0.2534
O1 O 0.7241(2) 0.48335(7) 0.16626(13)
N1 N 0.74334(19) 0.53582(6) 0.47837(13)
C1 C 0.7581(2) 0.51760(7) 0.60344(16)
C2 C 0.7615(2) 0.56398(8) 0.69765(18)
H1 H 0.7542 0.6065 0.6735
C3 C 0.7753(3) 0.54755(10) 0.82323(19)
H2 H 0.7793 0.5789 0.8863
C4 C 0.7838(3) 0.48510(10) 0.86056(18)
H3 H 0.7911 0.4746 0.9482
C5 C 0.7816(2) 0.43910(9) 0.77230(17)
H4 H 0.7874 0.3969 0.7987
C6 C 0.7708(2) 0.45427(7) 0.64139(16)
C7 C 0.7735(2) 0.40935(8) 0.54611(16)
H5 H 0.7831 0.3665 0.5681
C8 C 0.7621(2) 0.42784(7) 0.42238(17)
H6 H 0.7660 0.3983 0.3573
C9 C 0.7443(2) 0.49159(8) 0.39266(16)
C10 C 0.7266(3) 0.51507(9) 0.25955(18)
H7 H 0.7164 0.5587 0.2466
O1 O 0.7759(2) 0.98335(7) 1.33374(13)
N1 N 0.75666(19) 1.03582(6) 1.02163(13)
C1 C 0.7419(2) 1.01760(7) 0.89656(16)
C2 C 0.7385(2) 1.06398(8) 0.80235(18)
H1 H 0.7458 1.1065 0.8265
C3 C 0.7247(3) 1.04755(10) 0.67677(19)
H2 H 0.7207 1.0789 0.6137
C4 C 0.7162(3) 0.98510(10) 0.63944(18)
H3 H 0.7089 0.9746 0.5518
C5 C 0.7184(2) 0.93910(9) 0.72770(17)
H4 H 0.7126 0.8969 0.7013
C6 C 0.7292(2) 0.95427(7) 0.85861(16)
C7 C 0.7265(2) 0.90935(8) 0.95389(16)
H5 H 0.7169 0.8665 0.9319
C8 C 0.7379(2) 0.92784(7) 1.07762(17)
H6 H 0.7340 0.8983 1.1427
C9 C 0.7557(2) 0.99159(8) 1.10734(16)
C10 C 0.7734(3) 1.01507(9) 1.24045(18)
H7 H 0.7836 1.0587 1.2534
O2 O -0.60926(19) 0.21792(6) 0.27526(14)
N2 N -0.1295(2) 0.27109(6) 0.43627(14)
C11 C 0.0608(2) 0.25250(7) 0.50026(16)
C12 C 0.2086(3) 0.29846(8) 0.54640(18)
H8 H 0.1752 0.3411 0.5320
C13 C 0.4002(3) 0.28133(9) 0.61193(18)
H9 H 0.4990 0.3123 0.6430
C14 C 0.4520(3) 0.21879(9) 0.63369(18)
H10 H 0.5860 0.2078 0.6786
C15 C 0.3129(2) 0.17325(9) 0.59128(17)
H11 H 0.3501 0.1310 0.6076
C16 C 0.1131(2) 0.18895(8) 0.52288(16)
C17 C -0.0391(2) 0.14417(8) 0.47742(17)
H12 H -0.0098 0.1013 0.4913
C18 C -0.2280(2) 0.16321(8) 0.41355(17)
H13 H -0.3323 0.1339 0.3821
C19 C -0.2653(2) 0.22733(8) 0.39511(16)
C20 C -0.4680(3) 0.25053(9) 0.32446(18)
H14 H -0.4873 0.2941 0.3177
O2 O 1.10926(19) 0.71792(6) 0.22474(14)
N2 N 0.6295(2) 0.77109(6) 0.06373(14)
C11 C 0.4392(2) 0.75250(7) -0.00026(16)
C12 C 0.2914(3) 0.79846(8) -0.04640(18)
H8 H 0.3248 0.8411 -0.0320
C13 C 0.0998(3) 0.78133(9) -0.11193(18)
H9 H 0.0010 0.8123 -0.1430
C14 C 0.0480(3) 0.71879(9) -0.13369(18)
H10 H -0.0860 0.7078 -0.1786
C15 C 0.1871(2) 0.67325(9) -0.09128(17)
H11 H 0.1499 0.6310 -0.1076
C16 C 0.3869(2) 0.68895(8) -0.02288(16)
C17 C 0.5391(2) 0.64417(8) 0.02258(17)
H12 H 0.5098 0.6013 0.0087
C18 C 0.7280(2) 0.66321(8) 0.08645(17)
H13 H 0.8323 0.6339 0.1179
C19 C 0.7653(2) 0.72733(8) 0.10489(16)
C20 C 0.9680(3) 0.75053(9) 0.17554(18)
H14 H 0.9873 0.7941 0.1823
O2 O 1.60926(19) 0.78208(6) 0.72474(14)
N2 N 1.1295(2) 0.72891(6) 0.56373(14)
C11 C 0.9392(2) 0.74750(7) 0.49974(16)
C12 C 0.7914(3) 0.70154(8) 0.45360(18)
H8 H 0.8248 0.6589 0.4680
C13 C 0.5998(3) 0.71867(9) 0.38807(18)
H9 H 0.5010 0.6877 0.3570
C14 C 0.5480(3) 0.78121(9) 0.36631(18)
H10 H 0.4140 0.7922 0.3214
C15 C 0.6871(2) 0.82675(9) 0.40872(17)
H11 H 0.6499 0.8690 0.3924
C16 C 0.8869(2) 0.81105(8) 0.47712(16)
C17 C 1.0391(2) 0.85583(8) 0.52258(17)
H12 H 1.0098 0.8987 0.5087
C18 C 1.2280(2) 0.83679(8) 0.58645(17)
H13 H 1.3323 0.8661 0.6179
C19 C 1.2653(2) 0.77267(8) 0.60489(16)
C20 C 1.4680(3) 0.74947(9) 0.67554(18)
H14 H 1.4873 0.7059 0.6823
O2 O -0.10926(19) 0.28208(6) 0.77526(14)
N2 N 0.3705(2) 0.22891(6) 0.93627(14)
C11 C 0.5608(2) 0.24750(7) 1.00026(16)
C12 C 0.7086(3) 0.20154(8) 1.04640(18)
H8 H 0.6752 0.1589 1.0320
C13 C 0.9002(3) 0.21867(9) 1.11193(18)
H9 H 0.9990 0.1877 1.1430
C14 C 0.9520(3) 0.28121(9) 1.13369(18)
H10 H 1.0860 0.2922 1.1786
C15 C 0.8129(2) 0.32675(9) 1.09128(17)
H11 H 0.8501 0.3690 1.1076
C16 C 0.6131(2) 0.31105(8) 1.02288(16)
C17 C 0.4609(2) 0.35583(8) 0.97742(17)
H12 H 0.4902 0.3987 0.9913
C18 C 0.2720(2) 0.33679(8) 0.91355(17)
H13 H 0.1677 0.3661 0.8821
C19 C 0.2347(2) 0.27267(8) 0.89511(16)
C20 C 0.0320(3) 0.24947(9) 0.82446(18)
H14 H 0.0127 0.2059 0.8177

#END
