
#######################################################################
#
#                 Cambridge Crystallographic Data Centre
#                                CCDC 
#
#######################################################################
#
# If this CIF has been generated from an entry in the Cambridge 
# Structural Database, then it will include bibliographic, chemical, 
# crystal, experimental, refinement or atomic coordinate data resulting 
# from the CCDC's data processing and validation procedures.
#
#######################################################################

data_ABAKOF
_symmetry_cell_setting           triclinic
_symmetry_space_group_name_H-M   'P -1'
_symmetry_Int_Tables_number      2
_space_group_name_Hall           '-P 1'
loop_
_symmetry_equiv_pos_site_id
_symmetry_equiv_pos_as_xyz
1 x,y,z
2 -x,-y,-z
_cell_length_a                   3.8545(16)
_cell_length_b                   17.689(7)
_cell_length_c                   20.752(9)
_cell_angle_alpha                86.754(8)
_cell_angle_beta                 86.585(7)
_cell_angle_gamma                84.169(7)
_cell_volume                     1403.27
loop_
_atom_site_label
_atom_site_type_symbol
_atom_site_fract_x
_atom_site_fract_y
_atom_site_fract_z
N1 N 0.6243(11) 0.5633(2) 0.1657(2)
H1 H 0.7074 0.6025 0.1465
N2 N 0.3976(11) 0.4903(2) 0.2389(2)
H2 H 0.3100 0.4741 0.2756
C1 C 0.5080(14) 0.5583(3) 0.2263(3)
C2 C 0.4456(15) 0.4496(3) 0.1839(3)
C3 C 0.5921(14) 0.4953(3) 0.1373(3)
C4 C 0.6727(14) 0.4745(3) 0.0752(3)
H7 H 0.7639 0.5075 0.0436
C5 C 0.6105(17) 0.4017(4) 0.0624(3)
H8 H 0.6664 0.3839 0.0214
C6 C 0.4652(16) 0.3546(3) 0.1102(3)
H9 H 0.4202 0.3063 0.0997
C7 C 0.3858(14) 0.3762(3) 0.1717(3)
H10 H 0.2963 0.3434 0.2036
C8 C 0.5046(17) 0.6182(3) 0.2734(3)
H11 H 0.2687 0.6396 0.2823
H12 H 0.6421 0.6575 0.2556
H13 H 0.6008 0.5966 0.3127
N1 N 0.3757(11) 0.4367(2) 0.8343(2)
H1 H 0.2926 0.3975 0.8535
N2 N 0.6024(11) 0.5097(2) 0.7611(2)
H2 H 0.6900 0.5259 0.7244
C1 C 0.4920(14) 0.4417(3) 0.7737(3)
C2 C 0.5544(15) 0.5504(3) 0.8161(3)
C3 C 0.4079(14) 0.5047(3) 0.8627(3)
C4 C 0.3273(14) 0.5255(3) 0.9248(3)
H7 H 0.2361 0.4925 0.9564
C5 C 0.3895(17) 0.5983(4) 0.9376(3)
H8 H 0.3336 0.6161 0.9786
C6 C 0.5348(16) 0.6454(3) 0.8898(3)
H9 H 0.5798 0.6937 0.9003
C7 C 0.6142(14) 0.6238(3) 0.8283(3)
H10 H 0.7037 0.6566 0.7964
C8 C 0.4954(17) 0.3818(3) 0.7266(3)
H11 H 0.7313 0.3604 0.7177
H12 H 0.3579 0.3425 0.7444
H13 H 0.3992 0.4034 0.6873
N3 N 0.4721(12) -0.0649(2) 0.6631(2)
H3 H 0.4929 -0.1059 0.6423
N4 N 0.4893(12) 0.0117(3) 0.7390(2)
H4 H 0.5221 0.0285 0.7760
C9 C 0.5569(14) -0.0599(3) 0.7229(3)
C10 C 0.3580(15) 0.0550(3) 0.6869(3)
C11 C 0.3466(14) 0.0050(3) 0.6392(3)
C12 C 0.2216(16) 0.0290(4) 0.5784(3)
H14 H 0.2144 -0.0043 0.5455
C13 C 0.1106(17) 0.1053(4) 0.5709(3)
H15 H 0.0230 0.1243 0.5318
C14 C 0.1258(16) 0.1536(4) 0.6194(4)
H16 H 0.0493 0.2048 0.6120
C15 C 0.2482(17) 0.1302(3) 0.6784(3)
H17 H 0.2562 0.1639 0.7110
C16 C 0.6985(15) -0.1238(3) 0.7661(3)
H18 H 0.5251 -0.1588 0.7753
H19 H 0.7597 -0.1045 0.8058
H20 H 0.9025 -0.1496 0.7453
N3 N 0.5279(12) 1.0649(2) 0.3369(2)
H3 H 0.5071 1.1059 0.3577
N4 N 0.5107(12) 0.9883(3) 0.2610(2)
H4 H 0.4779 0.9715 0.2240
C9 C 0.4431(14) 1.0599(3) 0.2771(3)
C10 C 0.6420(15) 0.9450(3) 0.3131(3)
C11 C 0.6534(14) 0.9950(3) 0.3608(3)
C12 C 0.7784(16) 0.9710(4) 0.4216(3)
H14 H 0.7856 1.0043 0.4545
C13 C 0.8894(17) 0.8947(4) 0.4291(3)
H15 H 0.9770 0.8757 0.4682
C14 C 0.8742(16) 0.8464(4) 0.3806(4)
H16 H 0.9507 0.7952 0.3880
C15 C 0.7518(17) 0.8698(3) 0.3216(3)
H17 H 0.7438 0.8361 0.2890
C16 C 0.3015(15) 1.1238(3) 0.2339(3)
H18 H 0.4749 1.1588 0.2247
H19 H 0.2403 1.1045 0.1942
H20 H 0.0975 1.1496 0.2547
O1 O 0.3597(12) 0.9545(2) 0.14225(18)
O2 O 0.2701(12) 0.8461(2) 0.18961(19)
O3 O 0.0573(12) 0.7292(2) 0.16867(19)
H5 H 0.1415 0.7687 0.1753
O4 O -0.1224(12) 0.6721(2) 0.0893(2)
C17 C 0.2781(16) 0.8892(4) 0.1390(3)
C18 C -0.0014(16) 0.7282(3) 0.1088(3)
C19 C 0.1934(14) 0.8627(3) 0.0755(3)
C20 C 0.0778(14) 0.7921(3) 0.0617(3)
C21 C 0.0164(15) 0.7799(3) -0.0009(3)
H21 H -0.0674 0.7343 -0.0097
C22 C 0.0716(16) 0.8313(3) -0.0510(3)
H22 H 0.0319 0.8201 -0.0931
C23 C 0.1877(16) 0.9002(3) -0.0384(3)
H23 H 0.2251 0.9365 -0.0717
C24 C 0.2460(15) 0.9138(3) 0.0239(3)
H24 H 0.3256 0.9601 0.0321
O1 O 0.6403(12) 0.0455(2) 0.85775(18)
O2 O 0.7299(12) 0.1539(2) 0.81039(19)
O3 O 0.9427(12) 0.2708(2) 0.83133(19)
H5 H 0.8585 0.2313 0.8247
O4 O 1.1224(12) 0.3279(2) 0.9107(2)
C17 C 0.7219(16) 0.1108(4) 0.8610(3)
C18 C 1.0014(16) 0.2718(3) 0.8912(3)
C19 C 0.8066(14) 0.1373(3) 0.9245(3)
C20 C 0.9222(14) 0.2079(3) 0.9383(3)
C21 C 0.9836(15) 0.2201(3) 1.0009(3)
H21 H 1.0674 0.2657 1.0097
C22 C 0.9284(16) 0.1687(3) 1.0510(3)
H22 H 0.9681 0.1799 1.0931
C23 C 0.8123(16) 0.0998(3) 1.0384(3)
H23 H 0.7749 0.0635 1.0717
C24 C 0.7540(15) 0.0862(3) 0.9761(3)
H24 H 0.6744 0.0399 0.9679
O5 O 1.0493(11) 0.4630(2) 0.35612(17)
O6 O 0.9446(12) 0.3625(2) 0.30921(19)
O7 O 0.7319(12) 0.2419(2) 0.33335(19)
H6 H 0.8077 0.2833 0.3253
O8 O 0.5216(13) 0.1768(2) 0.4153(2)
C25 C 0.9394(15) 0.4004(3) 0.3595(3)
C26 C 0.6405(16) 0.2354(3) 0.3930(3)
C27 C 0.7972(13) 0.3692(3) 0.4231(2)
C28 C 0.6743(13) 0.2974(3) 0.4380(2)
C29 C 0.5680(13) 0.2802(3) 0.5007(3)
H25 H 0.4900 0.2327 0.5110
C30 C 0.5710(15) 0.3294(3) 0.5490(3)
H26 H 0.4947 0.3153 0.5909
C31 C 0.6872(15) 0.4000(3) 0.5354(3)
H27 H 0.6900 0.4347 0.5673
C32 C 0.7995(14) 0.4170(3) 0.4723(3)
H28 H 0.8820 0.4642 0.4627
O5 O -0.0493(11) 0.5370(2) 0.64388(17)
O6 O 0.0554(12) 0.6375(2) 0.69079(19)
O7 O 0.2681(12) 0.7581(2) 0.66665(19)
H6 H 0.1923 0.7167 0.6747
O8 O 0.4784(13) 0.8232(2) 0.5847(2)
C25 C 0.0606(15) 0.5996(3) 0.6405(3)
C26 C 0.3595(16) 0.7646(3) 0.6070(3)
C27 C 0.2028(13) 0.6308(3) 0.5769(2)
C28 C 0.3257(13) 0.7026(3) 0.5620(2)
C29 C 0.4320(13) 0.7198(3) 0.4993(3)
H25 H 0.5100 0.7673 0.4890
C30 C 0.4290(15) 0.6706(3) 0.4510(3)
H26 H 0.5053 0.6847 0.4091
C31 C 0.3128(15) 0.6000(3) 0.4646(3)
H27 H 0.3100 0.5653 0.4327
C32 C 0.2005(14) 0.5830(3) 0.5277(3)
H28 H 0.1180 0.5358 0.5373

#END
