./ABALAT_from_POSCAR.cif_generated_by_CrystalShift
_symmetry_cell_setting triclinic
_symmetry_space_group_name_H-M 'P 1'
loop_
_symmetry_equiv_pos_site_id
_symmetry_equiv_pos_as_xyz
1 x,y,z
_cell_length_a 9.325000
_cell_length_b 5.256700
_cell_length_c 14.973000
_cell_angle_alpha 90.000000
_cell_angle_beta 104.200000
_cell_angle_gamma 90.000000
_cell_volume 711.531595
loop_
_atom_site_label
_atom_site_type_symbol
_atom_site_fract_x
_atom_site_fract_y
_atom_site_fract_z
H1 H 0.460700 -0.170200 0.818100
H2 H 0.239600 0.042200 0.392000
H3 H 0.996300 0.300000 0.839000
H4 H 0.965800 0.072000 0.899000
H5 H 0.936600 0.351000 0.926500
H6 H 0.388800 -0.264800 0.481500
H7 H 0.770500 0.655400 0.239100
H8 H 0.835000 0.083000 0.703300
H9 H 0.309600 0.752400 0.068000
H10 H 0.666600 0.040000 0.698200
H11 H 0.880500 0.792200 0.385600
H12 H 0.786000 -0.134000 0.761400
H13 H 0.788000 0.117800 0.250000
H14 H 0.813000 0.275000 0.165900
H15 H 0.924200 0.301000 0.263000
H16 H 0.402100 -0.282500 0.638000
H17 H 0.286000 0.461000 -0.038900
H18 H 0.437400 0.343000 0.013300
H19 H 0.296000 0.170000 -0.015400
H20 H 0.745200 0.389100 0.791900
H21 H 0.254800 0.889100 0.208100
H22 H 0.704000 -0.330000 1.015400
H23 H 0.597900 0.217500 0.362000
H24 H 0.562600 -0.157000 0.986700
H25 H 0.214000 0.366000 0.238600
H26 H 0.333400 0.540000 0.301800
H27 H 0.165000 0.583000 0.296700
H28 H 0.714000 -0.039000 1.038900
H29 H 0.611200 0.235200 0.518500
H30 H 0.075800 -0.199000 0.737000
H31 H 0.063400 0.851000 0.073500
H32 H 0.034200 0.572000 0.101000
H33 H 0.003700 0.800000 0.161000
H34 H 0.187000 -0.225000 0.834100
H35 H 0.760400 0.542200 0.608000
H36 H 0.212000 -0.382200 0.750000
H37 H 0.902800 0.807000 0.541000
H38 H 0.539300 0.329800 0.181900
H39 H 0.119500 0.292200 0.614400
H40 H 0.690400 0.252400 0.932000
H41 H 0.229500 0.155400 0.760900
H42 H 0.097200 0.307000 0.459000
C43 C 0.509600 0.182700 0.825300
C44 C 0.271100 -0.004500 0.744800
C45 C 0.161400 0.190600 0.495000
C46 C 0.670400 0.140900 0.877900
C47 C 0.244300 0.029400 0.454600
C48 C 0.173700 0.179300 0.587800
C49 C 0.735200 0.503900 0.357000
C50 C 0.177600 -0.223300 0.768800
C51 C 0.838600 0.690600 0.505000
C52 C 0.755700 0.529400 0.545400
C53 C 0.067000 0.737300 0.124000
C54 C 0.667800 -0.163500 0.994400
C55 C 0.665500 0.348400 0.492000
C56 C 0.235400 0.535100 0.262300
C57 C 0.657700 0.339300 0.398000
C58 C 0.775100 0.220200 0.817500
C59 C 0.224900 0.720200 0.182500
C60 C 0.342300 -0.160700 0.602000
C61 C 0.332200 0.336500 0.005600
C62 C 0.764600 0.035100 0.737700
C63 C 0.822400 0.276700 0.231200
C64 C 0.826300 0.679300 0.412200
C65 C 0.329600 0.640900 0.122100
C66 C 0.334500 -0.151600 0.508000
C67 C 0.728900 0.495500 0.255200
C68 C 0.933000 0.237300 0.876000
C69 C 0.490400 0.682700 0.174700
C70 C 0.264800 0.003900 0.643000
N71 N 0.424600 -0.022600 0.800700
N72 N 0.575400 0.477400 0.199300
O73 O 0.463100 0.400800 0.807700
O74 O 0.536900 0.900800 0.192300
O75 O 0.701700 -0.111900 0.909400
O76 O 0.298300 0.388100 0.090600

#END
