
#######################################################################
#
#                 Cambridge Crystallographic Data Centre
#                                CCDC 
#
#######################################################################
#
# If this CIF has been generated from an entry in the Cambridge 
# Structural Database, then it will include bibliographic, chemical, 
# crystal, experimental, refinement or atomic coordinate data resulting 
# from the CCDC's data processing and validation procedures.
#
#######################################################################

data_ABALAT
_symmetry_cell_setting           monoclinic
_symmetry_space_group_name_H-M   'P 21'
_symmetry_Int_Tables_number      4
_space_group_name_Hall           'P 2yb'
loop_
_symmetry_equiv_pos_site_id
_symmetry_equiv_pos_as_xyz
1 x,y,z
2 -x,1/2+y,-z
_cell_length_a                   9.325(3)
_cell_length_b                   5.2567(7)
_cell_length_c                   14.973(4)
_cell_angle_alpha                90
_cell_angle_beta                 104.20(3)
_cell_angle_gamma                90
_cell_volume                     711.532
loop_
_atom_site_label
_atom_site_type_symbol
_atom_site_fract_x
_atom_site_fract_y
_atom_site_fract_z
O1 O 0.2983(4) 0.3881(6) 0.0906(2)
N1 N 0.5754(4) 0.4774(7) 0.1993(3)
O2 O 0.5369(4) 0.9008(5) 0.1923(3)
C1 C 0.7352(6) 0.5039(10) 0.3570(4)
C2 C 0.4904(6) 0.6827(10) 0.1747(4)
C3 C 0.7289(5) 0.4955(9) 0.2552(4)
H1 H 0.7705(5) 0.6554(9) 0.2391(4)
C4 C 0.3296(5) 0.6409(8) 0.1221(4)
H2 H 0.3096(5) 0.7524(8) 0.0680(4)
C5 C 0.8263(7) 0.6793(11) 0.4122(5)
H3 H 0.8805(7) 0.7922(11) 0.3856(5)
C6 C 0.8224(6) 0.2767(9) 0.2312(4)
H4 H 0.788(3) 0.1178(11) 0.250(2)
H5 H 0.813(3) 0.275(4) 0.1659(5)
H6 H 0.9242(8) 0.301(4) 0.263(2)
C7 C 0.3322(7) 0.3365(10) 0.0056(3)
H7 H 0.286(4) 0.461(4) -0.0389(8)
H8 H 0.4374(7) 0.343(7) 0.0133(7)
H9 H 0.296(4) 0.170(3) -0.0154(14)
C8 C 0.2249(6) 0.7202(10) 0.1825(4)
H10 H 0.2548(6) 0.8891(10) 0.2081(4)
C9 C 0.6577(7) 0.3393(11) 0.3980(5)
H11 H 0.5979(7) 0.2175(11) 0.3620(5)
C10 C 0.2354(6) 0.5351(11) 0.2623(4)
H12 H 0.214(4) 0.3660(15) 0.2386(4)
H13 H 0.3334(14) 0.540(6) 0.3018(15)
H14 H 0.165(3) 0.583(5) 0.2967(17)
C11 C 0.6655(8) 0.3484(13) 0.4920(5)
H15 H 0.6112(8) 0.2352(13) 0.5185(5)
C12 C 0.0670(7) 0.7373(12) 0.1240(5)
H16 H 0.0634(12) 0.851(7) 0.0735(19)
H17 H 0.0342(19) 0.572(2) 0.101(3)
H18 H 0.0037(11) 0.800(9) 0.1610(10)
C13 C 0.7557(10) 0.5294(14) 0.5454(5)
H19 H 0.7604(10) 0.5422(14) 0.6080(5)
C14 C 0.8386(9) 0.6906(13) 0.5050(6)
H20 H 0.9028(9) 0.8070(13) 0.5410(6)
H21 H 0.5393(4) 0.3298(7) 0.1819(3)
O1 O 0.7017(4) -0.1119(6) 0.9094(2)
N1 N 0.4246(4) -0.0226(7) 0.8007(3)
O2 O 0.4631(4) 0.4008(5) 0.8077(3)
C1 C 0.2648(6) 0.0039(10) 0.6430(4)
C2 C 0.5096(6) 0.1827(10) 0.8253(4)
C3 C 0.2711(5) -0.0045(9) 0.7448(4)
H1 H 0.2295(5) 0.1554(9) 0.7609(4)
C4 C 0.6704(5) 0.1409(8) 0.8779(4)
H2 H 0.6904(5) 0.2524(8) 0.9320(4)
C5 C 0.1737(7) 0.1793(11) 0.5878(5)
H3 H 0.1195(7) 0.2922(11) 0.6144(5)
C6 C 0.1776(6) -0.2233(9) 0.7688(4)
H4 H 0.212(3) -0.3822(11) 0.750(2)
H5 H 0.187(3) -0.225(4) 0.8341(5)
H6 H 0.0758(8) -0.199(4) 0.737(2)
C7 C 0.6678(7) -0.1635(10) 0.9944(3)
H7 H 0.714(4) -0.039(4) 1.0389(8)
H8 H 0.5626(7) -0.157(7) 0.9867(7)
H9 H 0.704(4) -0.330(3) 1.0154(14)
C8 C 0.7751(6) 0.2202(10) 0.8175(4)
H10 H 0.7452(6) 0.3891(10) 0.7919(4)
C9 C 0.3423(7) -0.1607(11) 0.6020(5)
H11 H 0.4021(7) -0.2825(11) 0.6380(5)
C10 C 0.7646(6) 0.0351(11) 0.7377(4)
H12 H 0.786(4) -0.1340(15) 0.7614(4)
H13 H 0.6666(14) 0.040(6) 0.6982(15)
H14 H 0.835(3) 0.083(5) 0.7033(17)
C11 C 0.3345(8) -0.1516(13) 0.5080(5)
H15 H 0.3888(8) -0.2648(13) 0.4815(5)
C12 C 0.9330(7) 0.2373(12) 0.8760(5)
H16 H 0.9366(12) 0.351(7) 0.9265(19)
H17 H 0.9658(19) 0.072(2) 0.899(3)
H18 H 0.9963(11) 0.300(9) 0.8390(10)
C13 C 0.2443(10) 0.0294(14) 0.4546(5)
H19 H 0.2396(10) 0.0422(14) 0.3920(5)
C14 C 0.1614(9) 0.1906(13) 0.4950(6)
H20 H 0.0972(9) 0.3070(13) 0.4590(6)
H21 H 0.4607(4) -0.1702(7) 0.8181(3)

#END
