./ABALUL_from_POSCAR.cif_generated_by_CrystalShift
_symmetry_cell_setting triclinic
_symmetry_space_group_name_H-M 'P 1'
loop_
_symmetry_equiv_pos_site_id
_symmetry_equiv_pos_as_xyz
1 x,y,z
_cell_length_a 15.092000
_cell_length_b 15.092000
_cell_length_c 13.016000
_cell_angle_alpha 90.000000
_cell_angle_beta 90.000000
_cell_angle_gamma 90.000000
_cell_volume 2964.634327
loop_
_atom_site_label
_atom_site_type_symbol
_atom_site_fract_x
_atom_site_fract_y
_atom_site_fract_z
H1 H 0.373700 0.751000 1.157600
H2 H 0.817100 0.881800 0.624300
H3 H 0.795500 0.987500 0.497600
H4 H 0.886000 1.089000 0.467000
H5 H 1.024700 1.027500 0.721300
H6 H -0.204500 0.987500 0.497600
H7 H 0.631800 0.932900 0.374300
H8 H -0.001000 0.623700 0.407600
H9 H 0.737500 0.954500 0.247600
H10 H -0.204500 0.487500 0.502400
H11 H 0.839000 0.864000 0.217000
H12 H -0.182900 0.381800 0.375700
H13 H 0.777500 0.725300 0.471300
H14 H 0.873700 0.751000 0.342400
H15 H 0.024700 0.527500 0.278700
H16 H -0.114000 0.589000 0.533000
H17 H 0.182900 0.618200 0.624300
H18 H -0.114000 1.089000 0.467000
H19 H 0.204500 0.512500 0.497600
H20 H 0.999000 1.123700 0.592400
H21 H 0.114000 0.411000 0.467000
H22 H 0.368200 0.567100 0.374300
H23 H 0.262500 0.545500 0.247600
H24 H 0.161000 0.636000 0.217000
H25 H 0.222500 0.774700 0.471300
H26 H -0.024700 0.472500 0.721300
H27 H 0.126300 0.749000 0.342400
H28 H 0.001000 -0.123700 0.407600
H29 H 0.024700 1.027500 0.721300
H30 H -0.024700 -0.027500 0.278700
H31 H 0.114000 -0.089000 0.533000
H32 H 0.204500 0.012500 0.502400
H33 H 0.182900 0.118200 0.375700
H34 H 0.626300 0.749000 1.157600
H35 H 0.682900 0.618200 0.875700
H36 H 0.704500 0.512500 1.002400
H37 H 0.614000 0.411000 1.033000
H38 H 0.475300 0.472500 0.778700
H39 H 0.001000 0.376300 0.592400
H40 H 0.501000 0.376300 0.907600
H41 H -0.373700 0.249000 -0.157600
H42 H 0.762500 0.545500 1.252400
H43 H -0.277500 0.274700 -0.028700
H44 H -0.339000 0.136000 -0.283000
H45 H -0.237500 0.045500 -0.252400
H46 H -0.131800 0.067100 -0.125700
H47 H -0.373700 0.749000 1.157600
H48 H 0.868200 0.567100 1.125700
H49 H -0.237500 0.545500 1.252400
H50 H 0.386000 1.089000 1.033000
H51 H 0.524700 1.027500 0.778700
H52 H 0.317100 0.881800 0.875700
H53 H 0.373700 0.251000 -0.157600
H54 H 0.295500 0.987500 1.002400
H55 H 0.277500 0.225300 -0.028700
H56 H 0.339000 0.364000 -0.283000
H57 H 0.237500 0.454500 -0.252400
H58 H 0.131800 0.432900 -0.125700
H59 H 0.499000 1.123700 0.907600
H60 H 1.182900 0.618200 0.624300
H61 H 0.722500 0.774700 1.028700
H62 H 1.204500 0.512500 0.497600
H63 H 1.114000 0.411000 0.467000
H64 H 0.975300 0.472500 0.721300
H65 H 0.661000 0.636000 1.283000
H66 H -0.131800 0.567100 1.125700
H67 H 0.317100 0.381800 0.124300
H68 H 0.999000 0.623700 0.407600
H69 H 0.295500 0.487500 -0.002400
H70 H 0.795500 0.487500 0.502400
H71 H 0.386000 0.589000 -0.033000
H72 H 0.817100 0.381800 0.375700
H73 H 0.524700 0.527500 0.221300
H74 H 0.499000 0.623700 0.092400
H75 H 1.024700 0.527500 0.278700
H76 H 0.886000 0.589000 0.533000
H77 H -0.277500 0.774700 1.028700
H78 H 1.001000 0.376300 0.592400
H79 H -0.339000 0.636000 1.283000
H80 H 0.682900 0.118200 0.124300
H81 H 0.131800 0.932900 1.125700
H82 H 0.237500 0.954500 1.252400
H83 H 0.704500 0.012500 -0.002400
H84 H 0.614000 -0.089000 -0.033000
H85 H 0.475300 -0.027500 0.221300
H86 H 0.339000 0.864000 1.283000
H87 H 0.501000 -0.123700 0.092400
H88 H 1.001000 -0.123700 0.407600
H89 H 0.631800 0.432900 0.625700
H90 H 0.975300 -0.027500 0.278700
H91 H 1.114000 -0.089000 0.533000
H92 H 1.204500 0.012500 0.502400
H93 H 1.182900 0.118200 0.375700
H94 H 0.737500 0.454500 0.752400
H95 H 0.839000 0.364000 0.783000
H96 H 0.777500 0.225300 0.528700
H97 H 0.873700 0.251000 0.657600
H98 H -0.001000 1.123700 0.592400
H99 H 0.277500 0.725300 1.028700
H100 H 0.161000 0.136000 0.783000
H101 H 0.626300 0.249000 -0.157600
H102 H 0.222500 0.274700 0.528700
H103 H 0.722500 0.274700 -0.028700
H104 H 0.661000 0.136000 -0.283000
H105 H 0.762500 0.045500 -0.252400
H106 H 0.868200 0.067100 -0.125700
H107 H 0.368200 0.067100 0.625700
H108 H 0.262500 0.045500 0.752400
H109 H 0.126300 0.249000 0.657600
H110 H 1.373700 0.751000 1.157600
H111 H 1.277500 0.725300 1.028700
H112 H 1.339000 0.864000 1.283000
H113 H 1.373700 0.251000 -0.157600
H114 H -0.182900 0.881800 0.624300
H115 H 1.277500 0.225300 -0.028700
H116 H 1.339000 0.364000 -0.283000
H117 H 1.237500 0.454500 -0.252400
H118 H 1.131800 0.432900 -0.125700
H119 H 1.131800 0.932900 1.125700
H120 H 1.237500 0.954500 1.252400
C121 C 1.267300 0.272000 -0.073800
C122 C 1.324500 0.287600 -0.150000
C123 C 0.267300 0.772000 1.073800
C124 C 1.267300 0.772000 1.073800
C125 C 1.243700 0.407700 -0.206500
C126 C 0.324500 0.787600 1.150000
C127 C 0.175500 0.212400 0.650000
C128 C 1.180500 0.395500 -0.130500
C129 C 0.256300 0.092300 0.706500
C130 C 1.191800 0.325200 -0.061100
C131 C 0.319500 0.104500 0.630500
C132 C 1.075200 0.558200 0.688900
C133 C 0.308200 0.174800 0.561100
C134 C 0.232700 0.228000 0.573800
C135 C 0.732700 0.228000 -0.073800
C136 C 0.675500 0.212400 -0.150000
C137 C 0.243700 0.907700 1.206500
C138 C 1.324500 0.787600 1.150000
C139 C 0.180500 0.895500 1.130500
C140 C 0.191800 0.825200 1.061100
C141 C -0.037600 1.074500 0.600000
C142 C 1.243700 0.907700 1.206500
C143 C 0.691800 0.325200 0.561100
C144 C 0.680500 0.395500 0.630500
C145 C -0.075200 0.941800 0.688900
C146 C 0.756300 0.092300 -0.206500
C147 C 0.824500 0.287600 0.650000
C148 C 0.819500 0.104500 -0.130500
C149 C 0.767300 0.272000 0.573800
C150 C 0.808200 0.174800 -0.061100
C151 C 1.145500 0.569500 0.619500
C152 C 1.157700 0.506300 0.543500
C153 C 1.022000 -0.017300 0.323800
C154 C 1.180500 0.895500 1.130500
C155 C 1.191800 0.825200 1.061100
C156 C 0.575200 0.058200 0.188900
C157 C 0.645500 0.069500 0.119500
C158 C 0.657700 0.006300 0.043500
C159 C -0.022000 1.017300 0.676200
C160 C 0.537600 -0.074500 0.100000
C161 C 1.037600 -0.074500 0.400000
C162 C 0.522000 -0.017300 0.176200
C163 C 1.157700 0.006300 0.456500
C164 C 1.145500 0.069500 0.380500
C165 C 1.075200 0.058200 0.311100
C166 C 1.037600 0.425500 0.600000
C167 C -0.157700 0.993700 0.543500
C168 C 0.424800 0.441800 0.188900
C169 C 0.354500 0.430500 0.119500
C170 C 0.342300 0.493700 0.043500
C171 C 0.075200 0.558200 0.688900
C172 C 0.462400 0.574500 0.100000
C173 C 0.978000 0.517300 0.323800
C174 C 0.478000 0.517300 0.176200
C175 C 0.924800 0.441800 0.311100
C176 C 0.854500 0.430500 0.380500
C177 C 0.842300 0.493700 0.456500
C178 C 0.962400 0.574500 0.400000
C179 C -0.267300 0.728000 1.073800
C180 C -0.191800 0.674800 1.061100
C181 C 0.145500 0.569500 0.619500
C182 C 1.022000 0.482700 0.676200
C183 C 0.157700 0.506300 0.543500
C184 C 0.732700 0.728000 1.073800
C185 C 0.808200 0.674800 1.061100
C186 C -0.180500 0.604500 1.130500
C187 C 0.462400 1.074500 0.900000
C188 C 0.924800 0.941800 0.688900
C189 C 0.342300 0.993700 0.956500
C190 C 0.267300 0.272000 -0.073800
C191 C 0.354500 0.930500 0.880500
C192 C 0.324500 0.287600 -0.150000
C193 C 0.424800 0.941800 0.811100
C194 C 0.478000 1.017300 0.823800
C195 C 0.037600 0.425500 0.600000
C196 C 0.243700 0.407700 -0.206500
C197 C 0.180500 0.395500 -0.130500
C198 C 0.191800 0.325200 -0.061100
C199 C -0.243700 0.592300 1.206500
C200 C 0.819500 0.604500 1.130500
C201 C 0.854500 0.930500 0.619500
C202 C -0.267300 0.228000 -0.073800
C203 C 0.575200 0.558200 0.811100
C204 C 0.645500 0.569500 0.880500
C205 C 0.657700 0.506300 0.956500
C206 C -0.324500 0.712400 1.150000
C207 C 0.537600 0.425500 0.900000
C208 C -0.324500 0.212400 -0.150000
C209 C 0.522000 0.482700 0.823800
C210 C -0.243700 0.092300 -0.206500
C211 C -0.180500 0.104500 -0.130500
C212 C -0.191800 0.174800 -0.061100
C213 C 0.842300 0.993700 0.543500
C214 C 0.756300 0.592300 1.206500
C215 C 0.022000 0.482700 0.676200
C216 C 0.308200 0.674800 0.438900
C217 C 0.319500 0.604500 0.369500
C218 C 0.256300 0.592300 0.293500
C219 C 0.022000 -0.017300 0.323800
C220 C 0.175500 0.712400 0.350000
C221 C 0.037600 -0.074500 0.400000
C222 C 0.232700 0.728000 0.426200
C223 C 0.157700 0.006300 0.456500
C224 C 0.145500 0.069500 0.380500
C225 C 0.075200 0.058200 0.311100
C226 C 0.962400 1.074500 0.600000
C227 C 0.675500 0.712400 1.150000
C228 C 0.691800 0.825200 0.438900
C229 C 0.680500 0.895500 0.369500
C230 C 0.743700 0.907700 0.293500
C231 C 0.978000 1.017300 0.676200
C232 C 0.824500 0.787600 0.350000
C233 C -0.022000 0.517300 0.323800
C234 C 0.767300 0.772000 0.426200
C235 C -0.075200 0.441800 0.311100
C236 C -0.145500 0.430500 0.380500
C237 C -0.157700 0.493700 0.456500
C238 C -0.037600 0.574500 0.400000
C239 C -0.145500 0.930500 0.619500
C240 C 0.743700 0.407700 0.706500
N241 N -0.104400 0.562400 0.465000
N242 N 0.895600 1.062400 0.535000
N243 N 0.687600 0.645600 1.215000
N244 N 0.812400 0.854400 0.285000
N245 N 0.187600 0.645600 0.285000
N246 N -0.312400 0.645600 1.215000
N247 N 0.604400 0.437600 0.965000
N248 N -0.312400 0.145600 -0.215000
N249 N 0.312400 0.354400 -0.215000
N250 N 0.104400 0.437600 0.535000
N251 N 0.395600 1.062400 0.965000
N252 N 0.895600 0.562400 0.465000
N253 N -0.104400 1.062400 0.535000
N254 N 1.104400 0.437600 0.535000
N255 N 0.395600 0.562400 0.035000
N256 N 1.104400 -0.062400 0.465000
N257 N 0.687600 0.145600 -0.215000
N258 N 0.604400 -0.062400 0.035000
N259 N 1.312400 0.354400 -0.215000
N260 N 0.812400 0.354400 0.715000
N261 N 0.187600 0.145600 0.715000
N262 N 0.104400 -0.062400 0.465000
N263 N 1.312400 0.854400 1.215000
N264 N 0.312400 0.854400 1.215000
S265 S 0.617800 0.303920 0.461460
S266 S 0.553920 0.132200 0.288540
S267 S -0.053920 0.867800 0.788540
S268 S 0.382200 0.196080 0.461460
S269 S 0.053920 0.632200 0.788540
S270 S 0.117800 0.803920 0.961460
S271 S 0.946080 0.867800 0.788540
S272 S 1.053920 0.632200 0.788540
S273 S 1.117800 0.303920 0.038540
S274 S 1.117800 0.803920 0.961460
S275 S 0.882200 0.196080 0.038540
S276 S 1.053920 0.132200 0.211460
S277 S 0.446080 0.867800 0.711460
S278 S 0.946080 0.367800 0.211460
S279 S 0.553920 0.632200 0.711460
S280 S 0.382200 0.696080 0.538540
S281 S 0.617800 0.803920 0.538540
S282 S 0.882200 0.696080 0.961460
S283 S 0.446080 0.367800 0.288540
S284 S 0.117800 0.303920 0.038540
S285 S -0.117800 0.196080 0.038540
S286 S 0.053920 0.132200 0.211460
S287 S -0.117800 0.696080 0.961460
S288 S -0.053920 0.367800 0.211460
Cl289 Cl -0.098870 0.441490 0.928530
Cl290 Cl 1.000000 0.750000 0.535700
Cl291 Cl 0.098870 1.058510 0.928530
Cl292 Cl 0.000000 0.250000 0.464300
Cl293 Cl 0.098870 0.558510 0.071470
Cl294 Cl 0.308510 0.151130 0.178530
Cl295 Cl -0.308510 0.348870 0.178530
Cl296 Cl -0.308510 0.848870 0.821470
Cl297 Cl 0.000000 0.750000 1.214300
Cl298 Cl 0.000000 0.250000 -0.214300
Cl299 Cl 0.000000 0.750000 0.535700
Cl300 Cl 0.308510 0.651130 0.821470
Cl301 Cl 0.401130 0.441490 0.571470
Cl302 Cl 0.901130 0.441490 0.928530
Cl303 Cl 1.000000 0.750000 1.214300
Cl304 Cl 0.691490 0.848870 0.821470
Cl305 Cl -0.098870 -0.058510 0.071470
Cl306 Cl 0.500000 0.750000 0.285700
Cl307 Cl 0.191490 0.848870 0.678530
Cl308 Cl 1.000000 0.250000 0.464300
Cl309 Cl 0.808510 0.651130 0.678530
Cl310 Cl 1.098870 0.558510 0.071470
Cl311 Cl 1.308510 0.151130 0.178530
Cl312 Cl 0.691490 0.348870 0.178530
Cl313 Cl 1.098870 1.058510 0.928530
Cl314 Cl 0.598870 1.058510 0.571470
Cl315 Cl 0.500000 0.750000 0.964300
Cl316 Cl 1.000000 0.250000 -0.214300
Cl317 Cl 0.808510 0.151130 0.321470
Cl318 Cl 0.901130 -0.058510 0.071470
Cl319 Cl 0.500000 0.250000 0.035700
Cl320 Cl 0.500000 0.250000 0.714300
Cl321 Cl 0.401130 -0.058510 0.428530
Cl322 Cl 0.191490 0.348870 0.321470
Cl323 Cl 1.308510 0.651130 0.821470
Cl324 Cl 0.598870 0.558510 0.428530
Cu325 Cu 0.462180 0.077030 0.410280
Cu326 Cu 0.500000 0.250000 0.206390
Cu327 Cu 0.672970 0.212180 0.339720
Cu328 Cu 0.327030 0.287820 0.339720
Cu329 Cu 1.037820 0.922970 0.910280
Cu330 Cu 1.000000 0.750000 0.706390
Cu331 Cu 0.500000 0.250000 0.543610
Cu332 Cu 1.172970 0.712180 0.839720
Cu333 Cu 0.500000 0.750000 0.793610
Cu334 Cu 0.537820 0.922970 0.589720
Cu335 Cu 0.962180 0.577030 0.910280
Cu336 Cu 0.462180 0.577030 0.589720
Cu337 Cu 0.827030 0.287820 0.160280
Cu338 Cu 0.500000 0.750000 0.456390
Cu339 Cu 1.172970 0.212180 0.160280
Cu340 Cu 1.000000 0.250000 -0.043610
Cu341 Cu 0.962180 0.077030 0.089720
Cu342 Cu 1.037820 0.422970 0.089720
Cu343 Cu 0.672970 0.712180 0.660280
Cu344 Cu 0.327030 0.787820 0.660280
Cu345 Cu 1.000000 0.250000 0.293610
Cu346 Cu 0.827030 0.787820 0.839720
Cu347 Cu 1.000000 0.750000 1.043610
Cu348 Cu 0.000000 0.750000 1.043610
Cu349 Cu -0.172970 0.787820 0.839720
Cu350 Cu -0.172970 0.287820 0.160280
Cu351 Cu 0.172970 0.712180 0.839720
Cu352 Cu 0.172970 0.212180 0.160280
Cu353 Cu 0.000000 0.250000 -0.043610
Cu354 Cu -0.037820 0.077030 0.089720
Cu355 Cu 0.037820 0.422970 0.089720
Cu356 Cu 0.000000 0.750000 0.706390
Cu357 Cu 0.037820 0.922970 0.910280
Cu358 Cu 0.000000 0.250000 0.293610
Cu359 Cu -0.037820 0.577030 0.910280
Cu360 Cu 0.537820 0.422970 0.410280

#END
