
#######################################################################
#
#                 Cambridge Crystallographic Data Centre
#                                CCDC 
#
#######################################################################
#
# If this CIF has been generated from an entry in the Cambridge 
# Structural Database, then it will include bibliographic, chemical, 
# crystal, experimental, refinement or atomic coordinate data resulting 
# from the CCDC's data processing and validation procedures.
#
#######################################################################

data_ABALIA01
_symmetry_cell_setting           monoclinic
_symmetry_space_group_name_H-M   'P 21/n'
_symmetry_Int_Tables_number      14
_space_group_name_Hall           '-P 2yn'
loop_
_symmetry_equiv_pos_site_id
_symmetry_equiv_pos_as_xyz
1 x,y,z
2 1/2-x,1/2+y,1/2-z
3 -x,-y,-z
4 1/2+x,1/2-y,1/2+z
_cell_length_a                   10.811(3)
_cell_length_b                   9.522(2)
_cell_length_c                   13.612(3)
_cell_angle_alpha                90
_cell_angle_beta                 100.786(4)
_cell_angle_gamma                90
_cell_volume                     1376.5
loop_
_atom_site_label
_atom_site_type_symbol
_atom_site_fract_x
_atom_site_fract_y
_atom_site_fract_z
N1 N 0.17481(16) 0.46272(18) 0.45903(13)
H1 H 0.1582 0.4846 0.3966
N2 N 0.26383(16) 0.53703(18) 0.52578(13)
O1 O -0.24605(15) 0.02596(15) 0.24731(11)
H2 H -0.2647 0.0558 0.1899
O2 O 0.14389(13) 0.32152(16) 0.58386(10)
O3 O 0.53951(14) 0.83242(17) 0.80557(10)
H3 H 0.4738 0.8121 0.8241
O4 O 0.70207(15) 0.95447(17) 0.72107(12)
C1 C -0.0450(2) 0.1711(2) 0.46326(16)
H4 H -0.0273 0.1543 0.5318
C2 C -0.1322(2) 0.0892(2) 0.40354(16)
H5 H -0.1726 0.0175 0.4317
C3 C -0.16060(19) 0.1124(2) 0.30189(15)
C4 C -0.1026(2) 0.2222(2) 0.26206(16)
H6 H -0.1233 0.2414 0.1940
C5 C -0.0144(2) 0.3030(2) 0.32250(16)
H7 H 0.0245 0.3758 0.2944
C6 C 0.01787(18) 0.2785(2) 0.42443(14)
C7 C 0.11528(19) 0.3556(2) 0.49464(15)
C8 C 0.3308(2) 0.6224(2) 0.48703(17)
H8 H 0.3185 0.6294 0.4177
C9 C 0.4268(2) 0.7105(2) 0.54774(16)
C10 C 0.5142(2) 0.7782(3) 0.50283(18)
H9 H 0.5095 0.7692 0.4342
C11 C 0.6087(2) 0.8591(3) 0.55754(19)
H10 H 0.6680 0.9022 0.5261
C12 C 0.6147(2) 0.8758(2) 0.65844(16)
C13 C 0.52538(19) 0.8109(2) 0.70471(15)
C14 C 0.43325(18) 0.7276(2) 0.65016(15)
H11 H 0.3751 0.6826 0.6818
C15 C 0.7960(3) 1.0248(3) 0.6785(2)
H12 H 0.8426 0.9572 0.6478
H13 H 0.8522 1.0740 0.7300
H14 H 0.7564 1.0905 0.6290
N1 N 0.32519(16) -0.03728(18) 1.04097(13)
H1 H 0.3418 -0.0154 1.1034
N2 N 0.23617(16) 0.03703(18) 0.97422(13)
O1 O 0.74605(15) -0.47404(15) 1.25269(11)
H2 H 0.7647 -0.4442 1.3101
O2 O 0.35611(13) -0.17848(16) 0.91614(10)
O3 O -0.03951(14) 0.33242(17) 0.69443(10)
H3 H 0.0262 0.3121 0.6759
O4 O -0.20207(15) 0.45447(17) 0.77893(12)
C1 C 0.5450(2) -0.3289(2) 1.03674(16)
H4 H 0.5273 -0.3457 0.9682
C2 C 0.6322(2) -0.4108(2) 1.09646(16)
H5 H 0.6726 -0.4825 1.0683
C3 C 0.66060(19) -0.3876(2) 1.19811(15)
C4 C 0.6026(2) -0.2778(2) 1.23794(16)
H6 H 0.6233 -0.2586 1.3060
C5 C 0.5144(2) -0.1970(2) 1.17750(16)
H7 H 0.4755 -0.1242 1.2056
C6 C 0.48213(18) -0.2215(2) 1.07557(14)
C7 C 0.38472(19) -0.1444(2) 1.00536(15)
C8 C 0.1692(2) 0.1224(2) 1.01297(17)
H8 H 0.1815 0.1294 1.0823
C9 C 0.0732(2) 0.2105(2) 0.95226(16)
C10 C -0.0142(2) 0.2782(3) 0.99717(18)
H9 H -0.0095 0.2692 1.0658
C11 C -0.1087(2) 0.3591(3) 0.94246(19)
H10 H -0.1680 0.4022 0.9739
C12 C -0.1147(2) 0.3758(2) 0.84156(16)
C13 C -0.02538(19) 0.3109(2) 0.79529(15)
C14 C 0.06675(18) 0.2276(2) 0.84984(15)
H11 H 0.1249 0.1826 0.8182
C15 C -0.2960(3) 0.5248(3) 0.8215(2)
H12 H -0.3426 0.4572 0.8522
H13 H -0.3522 0.5740 0.7700
H14 H -0.2564 0.5905 0.8710
N1 N 0.82519(16) 0.53728(18) 0.54097(13)
H1 H 0.8418 0.5154 0.6034
N2 N 0.73617(16) 0.46297(18) 0.47422(13)
O1 O 1.24605(15) 0.97404(15) 0.75269(11)
H2 H 1.2647 0.9442 0.8101
O2 O 0.85611(13) 0.67848(16) 0.41614(10)
O3 O 0.46049(14) 0.16758(17) 0.19443(10)
H3 H 0.5262 0.1879 0.1759
O4 O 0.29793(15) 0.04553(17) 0.27893(12)
C1 C 1.0450(2) 0.8289(2) 0.53674(16)
H4 H 1.0273 0.8457 0.4682
C2 C 1.1322(2) 0.9108(2) 0.59646(16)
H5 H 1.1726 0.9825 0.5683
C3 C 1.16060(19) 0.8876(2) 0.69811(15)
C4 C 1.1026(2) 0.7778(2) 0.73794(16)
H6 H 1.1233 0.7586 0.8060
C5 C 1.0144(2) 0.6970(2) 0.67750(16)
H7 H 0.9755 0.6242 0.7056
C6 C 0.98213(18) 0.7215(2) 0.57557(14)
C7 C 0.88472(19) 0.6444(2) 0.50536(15)
C8 C 0.6692(2) 0.3776(2) 0.51297(17)
H8 H 0.6815 0.3706 0.5823
C9 C 0.5732(2) 0.2895(2) 0.45226(16)
C10 C 0.4858(2) 0.2218(3) 0.49717(18)
H9 H 0.4905 0.2308 0.5658
C11 C 0.3913(2) 0.1409(3) 0.44246(19)
H10 H 0.3320 0.0978 0.4739
C12 C 0.3853(2) 0.1242(2) 0.34156(16)
C13 C 0.47462(19) 0.1891(2) 0.29529(15)
C14 C 0.56675(18) 0.2724(2) 0.34984(15)
H11 H 0.6249 0.3174 0.3182
C15 C 0.2040(3) -0.0248(3) 0.3215(2)
H12 H 0.1574 0.0428 0.3522
H13 H 0.1478 -0.0740 0.2700
H14 H 0.2436 -0.0905 0.3710
N1 N 0.67481(16) 1.03728(18) -0.04097(13)
H1 H 0.6582 1.0154 -0.1034
N2 N 0.76383(16) 0.96297(18) 0.02578(13)
O1 O 0.25395(15) 1.47404(15) -0.25269(11)
H2 H 0.2353 1.4442 -0.3101
O2 O 0.64389(13) 1.17848(16) 0.08386(10)
O3 O 1.03951(14) 0.66758(17) 0.30557(10)
H3 H 0.9738 0.6879 0.3241
O4 O 1.20207(15) 0.54553(17) 0.22107(12)
C1 C 0.4550(2) 1.3289(2) -0.03674(16)
H4 H 0.4727 1.3457 0.0318
C2 C 0.3678(2) 1.4108(2) -0.09646(16)
H5 H 0.3274 1.4825 -0.0683
C3 C 0.33940(19) 1.3876(2) -0.19811(15)
C4 C 0.3974(2) 1.2778(2) -0.23794(16)
H6 H 0.3767 1.2586 -0.3060
C5 C 0.4856(2) 1.1970(2) -0.17750(16)
H7 H 0.5245 1.1242 -0.2056
C6 C 0.51787(18) 1.2215(2) -0.07557(14)
C7 C 0.61528(19) 1.1444(2) -0.00536(15)
C8 C 0.8308(2) 0.8776(2) -0.01297(17)
H8 H 0.8185 0.8706 -0.0823
C9 C 0.9268(2) 0.7895(2) 0.04774(16)
C10 C 1.0142(2) 0.7218(3) 0.00283(18)
H9 H 1.0095 0.7308 -0.0658
C11 C 1.1087(2) 0.6409(3) 0.05754(19)
H10 H 1.1680 0.5978 0.0261
C12 C 1.1147(2) 0.6242(2) 0.15844(16)
C13 C 1.02538(19) 0.6891(2) 0.20471(15)
C14 C 0.93325(18) 0.7724(2) 0.15016(15)
H11 H 0.8751 0.8174 0.1818
C15 C 1.2960(3) 0.4752(3) 0.1785(2)
H12 H 1.3426 0.5428 0.1478
H13 H 1.3522 0.4260 0.2300
H14 H 1.2564 0.4095 0.1290

#END
