
#######################################################################
#
#                 Cambridge Crystallographic Data Centre
#                                CCDC 
#
#######################################################################
#
# If this CIF has been generated from an entry in the Cambridge 
# Structural Database, then it will include bibliographic, chemical, 
# crystal, experimental, refinement or atomic coordinate data resulting 
# from the CCDC's data processing and validation procedures.
#
#######################################################################

data_ABANOI
_symmetry_cell_setting           monoclinic
_symmetry_space_group_name_H-M   'P 21/n'
_symmetry_Int_Tables_number      14
_space_group_name_Hall           '-P 2yn'
loop_
_symmetry_equiv_pos_site_id
_symmetry_equiv_pos_as_xyz
1 x,y,z
2 1/2-x,1/2+y,1/2-z
3 -x,-y,-z
4 1/2+x,1/2-y,1/2+z
_cell_length_a                   13.493(3)
_cell_length_b                   5.6288(11)
_cell_length_c                   26.309(5)
_cell_angle_alpha                90
_cell_angle_beta                 100.87(3)
_cell_angle_gamma                90
_cell_volume                     1962.3
loop_
_atom_site_label
_atom_site_type_symbol
_atom_site_fract_x
_atom_site_fract_y
_atom_site_fract_z
N1 N 0.6081(3) 0.2494(7) 0.30782(15)
C1 C 0.5052(4) 0.2507(9) 0.31608(19)
H1 H 0.4873 0.0847 0.3245
N2 N 0.6784(3) 0.1200(7) 0.34051(15)
C2 C 0.7672(4) 0.1933(8) 0.33129(19)
C3 C 0.7529(4) 0.3725(8) 0.29212(19)
H2 H 0.8037 0.4530 0.2782
C4 C 0.6523(4) 0.4033(9) 0.27902(19)
H3 H 0.6184 0.5127 0.2542
N3 N 0.4994(3) 0.4008(7) 0.36107(14)
N4 N 0.4236(3) 0.3584(6) 0.38778(15)
C5 C 0.4318(4) 0.5389(8) 0.42204(18)
C6 C 0.5103(4) 0.6909(8) 0.4161(2)
H4 H 0.5308 0.8302 0.4356
C7 C 0.5517(4) 0.6011(9) 0.37699(19)
H5 H 0.6064 0.6659 0.3635
C8 C 0.4313(4) 0.3296(8) 0.26841(19)
C9 C 0.4107(4) 0.1733(8) 0.22619(19)
H6 H 0.4464 0.0273 0.2272
C10 C 0.3402(4) 0.2291(9) 0.1838(2)
O1 O 0.3195(3) 0.0753(6) 0.14321(13)
H7 H 0.2640 0.1116 0.1245
C11 C 0.2880(4) 0.4488(8) 0.18097(19)
O2 O 0.2181(3) 0.4800(6) 0.13669(13)
H8 H 0.1816 0.5976 0.1402
C12 C 0.3102(4) 0.6034(8) 0.22209(18)
H9 H 0.2768 0.7525 0.2206
C13 C 0.3800(4) 0.5442(8) 0.26527(19)
H10 H 0.3935 0.6523 0.2935
C14 C 0.8626(4) 0.0957(8) 0.36075(19)
C15 C 0.9534(4) 0.2161(8) 0.3623(2)
H11 H 0.9540 0.3577 0.3427
C16 C 1.0414(4) 0.1348(9) 0.3913(2)
H12 H 1.1021 0.2212 0.3919
C17 C 1.0433(4) -0.0750(10) 0.4203(2)
H13 H 1.1042 -0.1318 0.4409
C18 C 0.9530(5) -0.1962(9) 0.4177(2)
H14 H 0.9531 -0.3406 0.4364
C19 C 0.8634(4) -0.1155(9) 0.38900(19)
H15 H 0.8027 -0.2021 0.3884
C20 C 0.3634(4) 0.5541(8) 0.45945(19)
C21 C 0.3673(4) 0.7591(9) 0.4918(2)
H16 H 0.4139 0.8830 0.4891
C22 C 0.3040(4) 0.7773(9) 0.5268(2)
H17 H 0.3078 0.9133 0.5485
C23 C 0.2345(4) 0.6001(9) 0.53102(19)
H18 H 0.1905 0.6154 0.5551
C24 C 0.2296(4) 0.4007(9) 0.49981(19)
H19 H 0.1820 0.2790 0.5023
C25 C 0.2950(4) 0.3786(8) 0.46467(19)
H20 H 0.2922 0.2396 0.4440
N1 N 0.8919(3) 0.7494(7) 0.19218(15)
C1 C 0.9948(4) 0.7507(9) 0.18392(19)
H1 H 1.0127 0.5847 0.1755
N2 N 0.8216(3) 0.6200(7) 0.15949(15)
C2 C 0.7328(4) 0.6933(8) 0.16871(19)
C3 C 0.7471(4) 0.8725(8) 0.20788(19)
H2 H 0.6963 0.9530 0.2218
C4 C 0.8477(4) 0.9033(9) 0.22098(19)
H3 H 0.8816 1.0127 0.2458
N3 N 1.0006(3) 0.9008(7) 0.13893(14)
N4 N 1.0764(3) 0.8584(6) 0.11222(15)
C5 C 1.0682(4) 1.0389(8) 0.07796(18)
C6 C 0.9897(4) 1.1909(8) 0.0839(2)
H4 H 0.9692 1.3302 0.0644
C7 C 0.9483(4) 1.1011(9) 0.12301(19)
H5 H 0.8936 1.1659 0.1365
C8 C 1.0687(4) 0.8296(8) 0.23159(19)
C9 C 1.0893(4) 0.6733(8) 0.27381(19)
H6 H 1.0536 0.5273 0.2728
C10 C 1.1598(4) 0.7291(9) 0.3162(2)
O1 O 1.1805(3) 0.5753(6) 0.35679(13)
H7 H 1.2360 0.6116 0.3755
C11 C 1.2120(4) 0.9488(8) 0.31903(19)
O2 O 1.2819(3) 0.9800(6) 0.36331(13)
H8 H 1.3184 1.0976 0.3598
C12 C 1.1898(4) 1.1034(8) 0.27791(18)
H9 H 1.2232 1.2525 0.2794
C13 C 1.1200(4) 1.0442(8) 0.23473(19)
H10 H 1.1065 1.1523 0.2065
C14 C 0.6374(4) 0.5957(8) 0.13925(19)
C15 C 0.5466(4) 0.7161(8) 0.1377(2)
H11 H 0.5460 0.8577 0.1573
C16 C 0.4586(4) 0.6348(9) 0.1087(2)
H12 H 0.3979 0.7212 0.1081
C17 C 0.4567(4) 0.4250(10) 0.0797(2)
H13 H 0.3958 0.3682 0.0591
C18 C 0.5470(5) 0.3038(9) 0.0823(2)
H14 H 0.5469 0.1594 0.0636
C19 C 0.6366(4) 0.3845(9) 0.11100(19)
H15 H 0.6973 0.2979 0.1116
C20 C 1.1366(4) 1.0541(8) 0.04055(19)
C21 C 1.1327(4) 1.2591(9) 0.0082(2)
H16 H 1.0861 1.3830 0.0109
C22 C 1.1960(4) 1.2773(9) -0.0268(2)
H17 H 1.1922 1.4133 -0.0485
C23 C 1.2655(4) 1.1001(9) -0.03102(19)
H18 H 1.3095 1.1154 -0.0551
C24 C 1.2704(4) 0.9007(9) 0.00019(19)
H19 H 1.3180 0.7790 -0.0023
C25 C 1.2050(4) 0.8786(8) 0.03533(19)
H20 H 1.2078 0.7396 0.0560
N1 N 0.3919(3) 0.7506(7) 0.69218(15)
C1 C 0.4948(4) 0.7493(9) 0.68392(19)
H1 H 0.5127 0.9153 0.6755
N2 N 0.3216(3) 0.8800(7) 0.65949(15)
C2 C 0.2328(4) 0.8067(8) 0.66871(19)
C3 C 0.2471(4) 0.6275(8) 0.70788(19)
H2 H 0.1963 0.5470 0.7218
C4 C 0.3477(4) 0.5967(9) 0.72098(19)
H3 H 0.3816 0.4873 0.7458
N3 N 0.5006(3) 0.5992(7) 0.63893(14)
N4 N 0.5764(3) 0.6416(6) 0.61222(15)
C5 C 0.5682(4) 0.4611(8) 0.57796(18)
C6 C 0.4897(4) 0.3091(8) 0.5839(2)
H4 H 0.4692 0.1698 0.5644
C7 C 0.4483(4) 0.3989(9) 0.62301(19)
H5 H 0.3936 0.3341 0.6365
C8 C 0.5687(4) 0.6704(8) 0.73159(19)
C9 C 0.5893(4) 0.8267(8) 0.77381(19)
H6 H 0.5536 0.9727 0.7728
C10 C 0.6598(4) 0.7709(9) 0.8162(2)
O1 O 0.6805(3) 0.9247(6) 0.85679(13)
H7 H 0.7360 0.8884 0.8755
C11 C 0.7120(4) 0.5512(8) 0.81903(19)
O2 O 0.7819(3) 0.5200(6) 0.86331(13)
H8 H 0.8184 0.4024 0.8598
C12 C 0.6898(4) 0.3966(8) 0.77791(18)
H9 H 0.7232 0.2475 0.7794
C13 C 0.6200(4) 0.4558(8) 0.73473(19)
H10 H 0.6065 0.3477 0.7065
C14 C 0.1374(4) 0.9043(8) 0.63925(19)
C15 C 0.0466(4) 0.7839(8) 0.6377(2)
H11 H 0.0460 0.6423 0.6573
C16 C -0.0414(4) 0.8652(9) 0.6087(2)
H12 H -0.1021 0.7788 0.6081
C17 C -0.0433(4) 1.0750(10) 0.5797(2)
H13 H -0.1042 1.1318 0.5591
C18 C 0.0470(5) 1.1962(9) 0.5823(2)
H14 H 0.0469 1.3406 0.5636
C19 C 0.1366(4) 1.1155(9) 0.61100(19)
H15 H 0.1973 1.2021 0.6116
C20 C 0.6366(4) 0.4459(8) 0.54055(19)
C21 C 0.6327(4) 0.2409(9) 0.5082(2)
H16 H 0.5861 0.1170 0.5109
C22 C 0.6960(4) 0.2227(9) 0.4732(2)
H17 H 0.6922 0.0867 0.4515
C23 C 0.7655(4) 0.3999(9) 0.46898(19)
H18 H 0.8095 0.3846 0.4449
C24 C 0.7704(4) 0.5993(9) 0.50019(19)
H19 H 0.8180 0.7210 0.4977
C25 C 0.7050(4) 0.6214(8) 0.53533(19)
H20 H 0.7078 0.7604 0.5560
N1 N 0.1081(3) 0.2506(7) 0.80782(15)
C1 C 0.0052(4) 0.2493(9) 0.81608(19)
H1 H -0.0127 0.4153 0.8245
N2 N 0.1784(3) 0.3800(7) 0.84051(15)
C2 C 0.2672(4) 0.3067(8) 0.83129(19)
C3 C 0.2529(4) 0.1275(8) 0.79212(19)
H2 H 0.3037 0.0470 0.7782
C4 C 0.1523(4) 0.0967(9) 0.77902(19)
H3 H 0.1184 -0.0127 0.7542
N3 N -0.0006(3) 0.0992(7) 0.86107(14)
N4 N -0.0764(3) 0.1416(6) 0.88778(15)
C5 C -0.0682(4) -0.0389(8) 0.92204(18)
C6 C 0.0103(4) -0.1909(8) 0.9161(2)
H4 H 0.0308 -0.3302 0.9356
C7 C 0.0517(4) -0.1011(9) 0.87699(19)
H5 H 0.1064 -0.1659 0.8635
C8 C -0.0687(4) 0.1704(8) 0.76841(19)
C9 C -0.0893(4) 0.3267(8) 0.72619(19)
H6 H -0.0536 0.4727 0.7272
C10 C -0.1598(4) 0.2709(9) 0.6838(2)
O1 O -0.1805(3) 0.4247(6) 0.64321(13)
H7 H -0.2360 0.3884 0.6245
C11 C -0.2120(4) 0.0512(8) 0.68097(19)
O2 O -0.2819(3) 0.0200(6) 0.63669(13)
H8 H -0.3184 -0.0976 0.6402
C12 C -0.1898(4) -0.1034(8) 0.72209(18)
H9 H -0.2232 -0.2525 0.7206
C13 C -0.1200(4) -0.0442(8) 0.76527(19)
H10 H -0.1065 -0.1523 0.7935
C14 C 0.3626(4) 0.4043(8) 0.86075(19)
C15 C 0.4534(4) 0.2839(8) 0.8623(2)
H11 H 0.4540 0.1423 0.8427
C16 C 0.5414(4) 0.3652(9) 0.8913(2)
H12 H 0.6021 0.2788 0.8919
C17 C 0.5433(4) 0.5750(10) 0.9203(2)
H13 H 0.6042 0.6318 0.9409
C18 C 0.4530(5) 0.6962(9) 0.9177(2)
H14 H 0.4531 0.8406 0.9364
C19 C 0.3634(4) 0.6155(9) 0.88900(19)
H15 H 0.3027 0.7021 0.8884
C20 C -0.1366(4) -0.0541(8) 0.95945(19)
C21 C -0.1327(4) -0.2591(9) 0.9918(2)
H16 H -0.0861 -0.3830 0.9891
C22 C -0.1960(4) -0.2773(9) 1.0268(2)
H17 H -0.1922 -0.4133 1.0485
C23 C -0.2655(4) -0.1001(9) 1.03102(19)
H18 H -0.3095 -0.1154 1.0551
C24 C -0.2704(4) 0.0993(9) 0.99981(19)
H19 H -0.3180 0.2210 1.0023
C25 C -0.2050(4) 0.1214(8) 0.96467(19)
H20 H -0.2078 0.2604 0.9440

#END
