
#######################################################################
#
#                 Cambridge Crystallographic Data Centre
#                                CCDC 
#
#######################################################################
#
# If this CIF has been generated from an entry in the Cambridge 
# Structural Database, then it will include bibliographic, chemical, 
# crystal, experimental, refinement or atomic coordinate data resulting 
# from the CCDC's data processing and validation procedures.
#
#######################################################################

data_ABCLCH
_symmetry_cell_setting           monoclinic
_symmetry_space_group_name_H-M   'P 21'
_symmetry_Int_Tables_number      4
_space_group_name_Hall           'P 2yb'
loop_
_symmetry_equiv_pos_site_id
_symmetry_equiv_pos_as_xyz
1 x,y,z
2 -x,1/2+y,-z
_cell_length_a                   20.990
_cell_length_b                   7.740
_cell_length_c                   11.440
_cell_angle_alpha                90
_cell_angle_beta                 136.77
_cell_angle_gamma                90
_cell_volume                     1272.99
loop_
_atom_site_label
_atom_site_type_symbol
_atom_site_fract_x
_atom_site_fract_y
_atom_site_fract_z
Cl1 Cl 1.10000 0.00000 0.25500
Cl2 Cl 1.14800 0.38000 0.20600
C1 C 0.97300 0.16800 0.21900
C2 C 0.91100 0.32500 0.16500
C3 C 0.81700 0.13600 0.18200
C4 C 0.77800 0.12100 0.25800
C5 C 0.71400 0.28100 0.20400
C6 C 0.77800 0.44200 0.27000
C7 C 0.72000 0.58900 0.24600
C8 C 0.67100 0.50000 0.28800
C9 C 0.69200 0.30500 0.30600
C10 C 0.62800 0.28200 0.01400
C11 C 0.83300 0.34200 -0.03200
C12 C 1.02900 0.19100 0.18000
C13 C 0.61100 0.19800 0.25200
C14 C 0.62700 -0.00200 0.26100
C15 C 0.60200 0.23900 0.37200
C16 C 0.50600 0.20500 0.29300
C17 C 0.50000 0.24200 0.41600
C18 C 0.40400 0.21300 0.34200
C19 C 0.40900 0.23300 0.48000
C20 C 0.33100 0.33000 0.19300
C21 C 1.09000 0.36000 0.26300
C22 C 1.02800 0.51000 0.20500
C23 C 0.97500 0.49000 0.25300
C24 C 0.92000 0.65100 0.21000
C25 C 0.87300 0.63200 0.26800
C26 C 0.81500 0.47100 0.19700
C27 C 0.87300 0.30600 0.24100
H1 H 1.02100 0.13900 0.35600
H2 H 0.86100 0.02300 0.22500
H3 H 0.83600 0.11200 0.39600
H4 H 0.83800 0.42300 0.40600
H5 H 0.77000 0.68500 0.34400
H6 H 0.70200 0.54300 0.41200
H7 H 0.75300 0.28000 0.43300
H8 H 0.58400 0.17200 -0.02400
H9 H 0.78900 0.22600 -0.08800
H10 H 0.98000 0.19900 0.04700
H11 H 0.54600 0.23100 0.12200
H12 H 0.69100 -0.03700 0.38800
H13 H 0.62000 0.37400 0.41100
H14 H 0.45400 0.27700 0.17900
H15 H 0.52200 0.37400 0.46100
H16 H 0.38400 0.08200 0.29700
H17 H 0.43000 0.36300 0.53200
H18 H 0.35000 0.46400 0.23800
H19 H 1.14100 0.35000 0.40200
H20 H 1.06800 0.62600 0.25900
H21 H 1.02700 0.47100 0.38900
H22 H 0.96900 0.75900 0.27900
H23 H 0.92300 0.63600 0.40100
H24 H 0.75700 0.48300 0.06200
H25 H 0.93100 0.29800 0.37700
Cl1 Cl -0.10000 0.50000 0.74500
Cl2 Cl -0.14800 0.88000 0.79400
C1 C 0.02700 0.66800 0.78100
C2 C 0.08900 0.82500 0.83500
C3 C 0.18300 0.63600 0.81800
C4 C 0.22200 0.62100 0.74200
C5 C 0.28600 0.78100 0.79600
C6 C 0.22200 0.94200 0.73000
C7 C 0.28000 1.08900 0.75400
C8 C 0.32900 1.00000 0.71200
C9 C 0.30800 0.80500 0.69400
C10 C 0.37200 0.78200 0.98600
C11 C 0.16700 0.84200 1.03200
C12 C -0.02900 0.69100 0.82000
C13 C 0.38900 0.69800 0.74800
C14 C 0.37300 0.49800 0.73900
C15 C 0.39800 0.73900 0.62800
C16 C 0.49400 0.70500 0.70700
C17 C 0.50000 0.74200 0.58400
C18 C 0.59600 0.71300 0.65800
C19 C 0.59100 0.73300 0.52000
C20 C 0.66900 0.83000 0.80700
C21 C -0.09000 0.86000 0.73700
C22 C -0.02800 1.01000 0.79500
C23 C 0.02500 0.99000 0.74700
C24 C 0.08000 1.15100 0.79000
C25 C 0.12700 1.13200 0.73200
C26 C 0.18500 0.97100 0.80300
C27 C 0.12700 0.80600 0.75900
H1 H -0.02100 0.63900 0.64400
H2 H 0.13900 0.52300 0.77500
H3 H 0.16400 0.61200 0.60400
H4 H 0.16200 0.92300 0.59400
H5 H 0.23000 1.18500 0.65600
H6 H 0.29800 1.04300 0.58800
H7 H 0.24700 0.78000 0.56700
H8 H 0.41600 0.67200 1.02400
H9 H 0.21100 0.72600 1.08800
H10 H 0.02000 0.69900 0.95300
H11 H 0.45400 0.73100 0.87800
H12 H 0.30900 0.46300 0.61200
H13 H 0.38000 0.87400 0.58900
H14 H 0.54600 0.77700 0.82100
H15 H 0.47800 0.87400 0.53900
H16 H 0.61600 0.58200 0.70300
H17 H 0.57000 0.86300 0.46800
H18 H 0.65000 0.96400 0.76200
H19 H -0.14100 0.85000 0.59800
H20 H -0.06800 1.12600 0.74100
H21 H -0.02700 0.97100 0.61100
H22 H 0.03100 1.25900 0.72100
H23 H 0.07700 1.13600 0.59900
H24 H 0.24300 0.98300 0.93800
H25 H 0.06900 0.79800 0.62300

#END
