./ABEFUJ01_from_POSCAR.cif_generated_by_CrystalShift
_symmetry_cell_setting triclinic
_symmetry_space_group_name_H-M 'P 1'
loop_
_symmetry_equiv_pos_site_id
_symmetry_equiv_pos_as_xyz
1 x,y,z
_cell_length_a 15.277000
_cell_length_b 11.810000
_cell_length_c 8.636000
_cell_angle_alpha 90.000000
_cell_angle_beta 121.790000
_cell_angle_gamma 90.000000
_cell_volume 1324.377193
loop_
_atom_site_label
_atom_site_type_symbol
_atom_site_fract_x
_atom_site_fract_y
_atom_site_fract_z
H1 H 0.955000 0.331300 -0.338400
H2 H 1.003600 0.179800 -0.448500
H3 H 0.946000 0.000700 -0.444500
H4 H 0.836600 -0.029100 -0.342200
H5 H 0.238500 -0.022900 0.356300
H6 H 0.788600 0.121600 -0.228900
H7 H 0.504500 0.032200 0.837300
H8 H 1.046700 0.326600 0.070100
H9 H 0.609600 0.026800 1.152200
H10 H 0.984700 0.229200 0.088900
H11 H 0.728700 0.168800 1.308200
H12 H 1.136600 0.173900 0.336500
H13 H 0.742900 0.316100 1.148900
H14 H 1.242900 0.183900 0.648900
H15 H 0.636600 0.326100 0.836500
H16 H 1.228700 0.331200 0.808200
H17 H 1.109600 0.473200 0.652200
H18 H 0.484700 0.270800 0.588900
H19 H 0.546700 0.173400 0.570100
H20 H 1.004500 0.467800 0.337300
H21 H 0.738500 0.522900 -0.143700
H22 H 0.955000 0.668700 0.161600
H23 H 1.003600 0.820200 0.051500
H24 H 0.288600 0.378400 0.271100
H25 H 0.946000 0.999300 0.055500
H26 H 0.336600 0.529100 0.157800
H27 H 0.836600 1.029100 0.157800
H28 H 0.446000 0.499300 0.055500
H29 H 0.788600 0.878400 0.271100
H30 H 0.503600 0.320200 0.051500
H31 H 1.046700 0.673400 0.570100
H32 H 0.455000 0.168700 0.161600
H33 H 0.984700 0.770800 0.588900
H34 H 1.136600 0.826100 0.836500
H35 H 1.242900 0.816100 1.148900
H36 H 1.228700 0.668800 1.308200
H37 H 0.238500 1.022900 -0.143700
H38 H 1.109600 0.526800 1.152200
H39 H 0.504500 0.967800 0.337300
H40 H 1.004500 0.532200 0.837300
H41 H 0.609600 0.973200 0.652200
H42 H 0.738500 0.477100 0.356300
H43 H 0.728700 0.831200 0.808200
H44 H 0.455000 0.831300 -0.338400
H45 H 0.742900 0.683900 0.648900
H46 H 0.503600 0.679800 -0.448500
H47 H 0.636600 0.673900 0.336500
H48 H 0.446000 0.500700 -0.444500
H49 H 0.336600 0.470900 -0.342200
H50 H 0.484700 0.729200 0.088900
H51 H 0.546700 0.826600 0.070100
H52 H 0.288600 0.621600 -0.228900
C53 C 0.263000 0.898900 -0.261800
C54 C 0.370900 0.739300 -0.266900
C55 C 0.332700 0.633100 -0.271000
C56 C 0.411000 0.865000 -0.002400
C57 C 0.361300 0.543300 -0.339200
C58 C 0.500600 0.809200 0.112400
C59 C 0.425800 0.561500 -0.402000
C60 C 0.560200 0.820700 0.304400
C61 C 0.461000 0.668100 -0.403100
C62 C 0.631500 0.735000 0.399300
C63 C 0.432600 0.758400 -0.336300
C64 C 0.694500 0.740600 0.586700
C65 C 0.961000 0.168100 -0.403100
C66 C 0.925800 0.061500 -0.402000
C67 C 0.861300 0.043300 -0.339200
C68 C 0.552000 0.089800 0.899200
C69 C 0.686600 0.828500 0.681900
C70 C 1.052000 0.589800 0.899200
C71 C 0.615300 0.913300 0.588100
C72 C 1.115300 0.586700 1.088100
C73 C 0.552000 0.910200 0.399200
C74 C 1.186600 0.671500 1.181900
C75 C 0.832700 0.133100 -0.271000
C76 C 1.194500 0.759400 1.086700
C77 C 0.870900 0.239300 -0.266900
C78 C 1.131500 0.765000 0.899300
C79 C 0.763000 0.398900 -0.261800
C80 C 1.060200 0.679300 0.804400
C81 C 1.000600 0.690800 0.612400
C82 C 0.911000 0.365000 -0.002400
C83 C 0.432600 0.241600 0.163700
C84 C 0.911000 0.635000 0.497600
C85 C 0.763000 0.601100 0.238200
C86 C 0.870900 0.760700 0.233100
C87 C 0.832700 0.866900 0.229000
C88 C 0.461000 0.331900 0.096900
C89 C 0.861300 0.956700 0.160800
C90 C 0.425800 0.438500 0.098000
C91 C 0.925800 0.938500 0.098000
C92 C 0.361300 0.456700 0.160800
C93 C 0.961000 0.831900 0.096900
C94 C 0.332700 0.366900 0.229000
C95 C 0.932600 0.741600 0.163700
C96 C 0.370900 0.260700 0.233100
C97 C 0.615300 0.086700 1.088100
C98 C 0.686600 0.171500 1.181900
C99 C 1.000600 0.309200 0.112400
C100 C 1.060200 0.320700 0.304400
C101 C 0.263000 0.101100 0.238200
C102 C 1.052000 0.410200 0.399200
C103 C 0.411000 0.135000 0.497600
C104 C 1.115300 0.413300 0.588100
C105 C 0.500600 0.190800 0.612400
C106 C 1.186600 0.328500 0.681900
C107 C 0.560200 0.179300 0.804400
C108 C 1.194500 0.240600 0.586700
C109 C 0.631500 0.265000 0.899300
C110 C 1.131500 0.235000 0.399300
C111 C 0.694500 0.259400 1.086700
C112 C 0.932600 0.258400 -0.336300
N113 N 0.871100 0.449600 0.034600
N114 N 0.849620 0.331100 -0.182500
N115 N 0.349620 0.168900 0.317500
N116 N 0.371100 0.050400 0.534600
N117 N 0.349620 0.831100 -0.182500
N118 N 0.371100 0.949600 0.034600
N119 N 0.280320 0.969400 -0.129200
N120 N 0.780320 0.530600 0.370800
N121 N 0.871100 0.550400 0.534600
N122 N 0.280320 0.030600 0.370800
N123 N 0.849620 0.668900 0.317500
N124 N 0.780320 0.469400 -0.129200
S125 S 0.657900 0.388650 -0.473770
S126 S 0.657900 0.611350 0.026230
S127 S 0.157900 0.888650 -0.473770
S128 S 0.157900 0.111350 0.026230

#END
