
#######################################################################
#
#                 Cambridge Crystallographic Data Centre
#                                CCDC 
#
#######################################################################
#
# If this CIF has been generated from an entry in the Cambridge 
# Structural Database, then it will include bibliographic, chemical, 
# crystal, experimental, refinement or atomic coordinate data resulting 
# from the CCDC's data processing and validation procedures.
#
#######################################################################

data_ABEFUJ01
_symmetry_cell_setting           monoclinic
_symmetry_space_group_name_H-M   'C c'
_symmetry_Int_Tables_number      9
_space_group_name_Hall           'C -2yc'
loop_
_symmetry_equiv_pos_site_id
_symmetry_equiv_pos_as_xyz
1 x,y,z
2 x,-y,1/2+z
3 1/2+x,1/2+y,z
4 1/2+x,1/2-y,1/2+z
_cell_length_a                   15.277(3)
_cell_length_b                   11.810(2)
_cell_length_c                   8.6360(17)
_cell_angle_alpha                90
_cell_angle_beta                 121.79(3)
_cell_angle_gamma                90
_cell_volume                     1324.38
loop_
_atom_site_label
_atom_site_type_symbol
_atom_site_fract_x
_atom_site_fract_y
_atom_site_fract_z
S1 S 0.15790(5) 0.11135(7) 0.02623(7)
N1 N 0.34962(19) 0.1689(2) 0.3175(3)
N2 N 0.3711(2) 0.0504(2) 0.5346(3)
N3 N 0.28032(19) 0.0306(2) 0.3708(3)
H1 H 0.2385 -0.0229 0.3563
C1 C 0.5520(3) 0.0898(3) 0.8992(4)
H2 H 0.5045 0.0322 0.8373
C2 C 0.6153(3) 0.0867(3) 1.0881(5)
H3 H 0.6096 0.0268 1.1522
C3 C 0.6866(3) 0.1715(3) 1.1819(4)
H4 H 0.7287 0.1688 1.3082
C4 C 0.6945(3) 0.2594(3) 1.0867(5)
H5 H 0.7429 0.3161 1.1489
C5 C 0.6315(3) 0.2650(3) 0.8993(4)
H6 H 0.6366 0.3261 0.8365
C6 C 0.5602(2) 0.1793(2) 0.8044(4)
C7 C 0.5006(2) 0.1908(2) 0.6124(3)
H7 H 0.4847 0.2708 0.5889
H8 H 0.5467 0.1734 0.5701
C8 C 0.4110(2) 0.1350(2) 0.4976(4)
C9 C 0.2630(2) 0.1011(2) 0.2382(4)
C10 C 0.3709(2) 0.2607(2) 0.2331(3)
C11 C 0.3327(3) 0.3669(3) 0.2290(5)
H9 H 0.2886 0.3784 0.2711
C12 C 0.3613(4) 0.4567(3) 0.1608(6)
H10 H 0.3366 0.5291 0.1578
C13 C 0.4258(3) 0.4385(3) 0.0980(5)
H11 H 0.4460 0.4993 0.0555
C14 C 0.4610(3) 0.3319(3) 0.0969(5)
H12 H 0.5036 0.3202 0.0515
C15 C 0.4326(3) 0.2416(3) 0.1637(5)
H13 H 0.4550 0.1687 0.1616
S1 S 0.15790(5) 0.88865(7) -0.47377(7)
N1 N 0.34962(19) 0.8311(2) -0.1825(3)
N2 N 0.3711(2) 0.9496(2) 0.0346(3)
N3 N 0.28032(19) 0.9694(2) -0.1292(3)
H1 H 0.2385 1.0229 -0.1437
C1 C 0.5520(3) 0.9102(3) 0.3992(4)
H2 H 0.5045 0.9678 0.3373
C2 C 0.6153(3) 0.9133(3) 0.5881(5)
H3 H 0.6096 0.9732 0.6522
C3 C 0.6866(3) 0.8285(3) 0.6819(4)
H4 H 0.7287 0.8312 0.8082
C4 C 0.6945(3) 0.7406(3) 0.5867(5)
H5 H 0.7429 0.6839 0.6489
C5 C 0.6315(3) 0.7350(3) 0.3993(4)
H6 H 0.6366 0.6739 0.3365
C6 C 0.5602(2) 0.8207(2) 0.3044(4)
C7 C 0.5006(2) 0.8092(2) 0.1124(3)
H7 H 0.4847 0.7292 0.0889
H8 H 0.5467 0.8266 0.0701
C8 C 0.4110(2) 0.8650(2) -0.0024(4)
C9 C 0.2630(2) 0.8989(2) -0.2618(4)
C10 C 0.3709(2) 0.7393(2) -0.2669(3)
C11 C 0.3327(3) 0.6331(3) -0.2710(5)
H9 H 0.2886 0.6216 -0.2289
C12 C 0.3613(4) 0.5433(3) -0.3392(6)
H10 H 0.3366 0.4709 -0.3422
C13 C 0.4258(3) 0.5615(3) -0.4020(5)
H11 H 0.4460 0.5007 -0.4445
C14 C 0.4610(3) 0.6681(3) -0.4031(5)
H12 H 0.5036 0.6798 -0.4485
C15 C 0.4326(3) 0.7584(3) -0.3363(5)
H13 H 0.4550 0.8313 -0.3384
S1 S 0.65790(5) 0.61135(7) 0.02623(7)
N1 N 0.84962(19) 0.6689(2) 0.3175(3)
N2 N 0.8711(2) 0.5504(2) 0.5346(3)
N3 N 0.78032(19) 0.5306(2) 0.3708(3)
H1 H 0.7385 0.4771 0.3563
C1 C 1.0520(3) 0.5898(3) 0.8992(4)
H2 H 1.0045 0.5322 0.8373
C2 C 1.1153(3) 0.5867(3) 1.0881(5)
H3 H 1.1096 0.5268 1.1522
C3 C 1.1866(3) 0.6715(3) 1.1819(4)
H4 H 1.2287 0.6688 1.3082
C4 C 1.1945(3) 0.7594(3) 1.0867(5)
H5 H 1.2429 0.8161 1.1489
C5 C 1.1315(3) 0.7650(3) 0.8993(4)
H6 H 1.1366 0.8261 0.8365
C6 C 1.0602(2) 0.6793(2) 0.8044(4)
C7 C 1.0006(2) 0.6908(2) 0.6124(3)
H7 H 0.9847 0.7708 0.5889
H8 H 1.0467 0.6734 0.5701
C8 C 0.9110(2) 0.6350(2) 0.4976(4)
C9 C 0.7630(2) 0.6011(2) 0.2382(4)
C10 C 0.8709(2) 0.7607(2) 0.2331(3)
C11 C 0.8327(3) 0.8669(3) 0.2290(5)
H9 H 0.7886 0.8784 0.2711
C12 C 0.8613(4) 0.9567(3) 0.1608(6)
H10 H 0.8366 1.0291 0.1578
C13 C 0.9258(3) 0.9385(3) 0.0980(5)
H11 H 0.9460 0.9993 0.0555
C14 C 0.9610(3) 0.8319(3) 0.0969(5)
H12 H 1.0036 0.8202 0.0515
C15 C 0.9326(3) 0.7416(3) 0.1637(5)
H13 H 0.9550 0.6687 0.1616
S1 S 0.65790(5) 0.38865(7) -0.47377(7)
N1 N 0.84962(19) 0.3311(2) -0.1825(3)
N2 N 0.8711(2) 0.4496(2) 0.0346(3)
N3 N 0.78032(19) 0.4694(2) -0.1292(3)
H1 H 0.7385 0.5229 -0.1437
C1 C 1.0520(3) 0.4102(3) 0.3992(4)
H2 H 1.0045 0.4678 0.3373
C2 C 1.1153(3) 0.4133(3) 0.5881(5)
H3 H 1.1096 0.4732 0.6522
C3 C 1.1866(3) 0.3285(3) 0.6819(4)
H4 H 1.2287 0.3312 0.8082
C4 C 1.1945(3) 0.2406(3) 0.5867(5)
H5 H 1.2429 0.1839 0.6489
C5 C 1.1315(3) 0.2350(3) 0.3993(4)
H6 H 1.1366 0.1739 0.3365
C6 C 1.0602(2) 0.3207(2) 0.3044(4)
C7 C 1.0006(2) 0.3092(2) 0.1124(3)
H7 H 0.9847 0.2292 0.0889
H8 H 1.0467 0.3266 0.0701
C8 C 0.9110(2) 0.3650(2) -0.0024(4)
C9 C 0.7630(2) 0.3989(2) -0.2618(4)
C10 C 0.8709(2) 0.2393(2) -0.2669(3)
C11 C 0.8327(3) 0.1331(3) -0.2710(5)
H9 H 0.7886 0.1216 -0.2289
C12 C 0.8613(4) 0.0433(3) -0.3392(6)
H10 H 0.8366 -0.0291 -0.3422
C13 C 0.9258(3) 0.0615(3) -0.4020(5)
H11 H 0.9460 0.0007 -0.4445
C14 C 0.9610(3) 0.1681(3) -0.4031(5)
H12 H 1.0036 0.1798 -0.4485
C15 C 0.9326(3) 0.2584(3) -0.3363(5)
H13 H 0.9550 0.3313 -0.3384

#END
