./KACTAM_from_xyz.cif_generated_by_CrystalShift
_symmetry_cell_setting triclinic
_symmetry_space_group_name_H-M 'P 1'
loop_
_symmetry_equiv_pos_site_id
_symmetry_equiv_pos_as_xyz
1 x,y,z
_cell_length_a 8.575200
_cell_length_b 21.046000
_cell_length_c 8.294100
_cell_angle_alpha 90.000000
_cell_angle_beta 101.131000
_cell_angle_gamma 90.000000
_cell_volume 1468.707994
loop_
_atom_site_label
_atom_site_type_symbol
_atom_site_fract_x
_atom_site_fract_y
_atom_site_fract_z
S1 S 0.680160 1.009835 0.150300
N2 N 0.674580 0.879690 0.153240
H3 H 0.691000 0.847700 0.094000
O4 O 0.698000 1.140230 0.104890
C5 C 0.709150 0.934240 0.080250
O6 O 0.782030 0.823130 -0.089550
C7 C 0.775200 0.936050 -0.063100
O8 O 0.893850 0.883260 -0.259850
C9 C 0.798120 0.999780 -0.116020
C10 C 0.753700 1.044530 -0.011820
C11 C 0.603120 0.868040 0.289540
C12 C 0.564230 0.914230 0.395940
H13 H 0.586000 0.957800 0.379500
C14 C 0.493300 0.896130 0.526380
H15 H 0.468600 0.927600 0.599500
C16 C 0.458050 0.832850 0.551700
H17 H 0.407800 0.821200 0.639900
C18 C 0.497500 0.786980 0.445810
H19 H 0.473600 0.743600 0.461200
C20 C 0.571300 0.804210 0.318120
H21 H 0.600800 0.772300 0.248800
C22 C 0.814450 0.875950 -0.137200
C23 C 0.931750 0.825180 -0.340600
H24 H 0.833600 0.801100 -0.384700
H25 H 1.003200 0.797800 -0.261800
C26 C 1.012500 0.845620 -0.477950
H27 H 0.941100 0.873300 -0.553700
H28 H 1.038700 0.808100 -0.537300
H29 H 1.110100 0.868800 -0.432300
C30 C 0.858380 1.015210 -0.270210
H31 H 0.835000 1.059700 -0.300000
H32 H 0.805900 0.987700 -0.359700
H33 H 0.973500 1.008300 -0.251400
C34 C 0.754750 1.114290 -0.004080
C35 C 0.825300 1.154320 -0.122860
H36 H 0.757500 1.151800 -0.232200
H37 H 0.931800 1.138500 -0.128000
H38 H 0.832600 1.198600 -0.085500
S39 S 0.319840 0.509835 0.349700
N40 N 0.325420 0.379690 0.346760
H41 H 0.309000 0.347700 0.406000
O42 O 0.302000 0.640230 0.395110
C43 C 0.290850 0.434240 0.419750
O44 O 0.217970 0.323130 0.589550
C45 C 0.224800 0.436050 0.563100
O46 O 0.106150 0.383260 0.759850
C47 C 0.201880 0.499780 0.616020
C48 C 0.246300 0.544530 0.511820
C49 C 0.396880 0.368040 0.210460
C50 C 0.435770 0.414230 0.104060
H51 H 0.414000 0.457800 0.120500
C52 C 0.506700 0.396130 -0.026380
H53 H 0.531400 0.427600 -0.099500
C54 C 0.541950 0.332850 -0.051700
H55 H 0.592200 0.321200 -0.139900
C56 C 0.502500 0.286980 0.054190
H57 H 0.526400 0.243600 0.038800
C58 C 0.428700 0.304210 0.181880
H59 H 0.399200 0.272300 0.251200
C60 C 0.185550 0.375950 0.637200
C61 C 0.068250 0.325180 0.840600
H62 H 0.166400 0.301100 0.884700
H63 H -0.003200 0.297800 0.761800
C64 C -0.012500 0.345620 0.977950
H65 H 0.058900 0.373300 1.053700
H66 H -0.038700 0.308100 1.037300
H67 H -0.110100 0.368800 0.932300
C68 C 0.141620 0.515210 0.770210
H69 H 0.165000 0.559700 0.800000
H70 H 0.194100 0.487700 0.859700
H71 H 0.026500 0.508300 0.751400
C72 C 0.245250 0.614290 0.504080
C73 C 0.174700 0.654320 0.622860
H74 H 0.242500 0.651800 0.732200
H75 H 0.068200 0.638500 0.628000
H76 H 0.167400 0.698600 0.585500
S77 S 0.319840 -0.009835 0.849700
N78 N 0.325420 0.120310 0.846760
H79 H 0.309000 0.152300 0.906000
O80 O 0.302000 -0.140230 0.895110
C81 C 0.290850 0.065760 0.919750
O82 O 0.217970 0.176870 1.089550
C83 C 0.224800 0.063950 1.063100
O84 O 0.106150 0.116740 1.259850
C85 C 0.201880 0.000220 1.116020
C86 C 0.246300 -0.044530 1.011820
C87 C 0.396880 0.131960 0.710460
C88 C 0.435770 0.085770 0.604060
H89 H 0.414000 0.042200 0.620500
C90 C 0.506700 0.103870 0.473620
H91 H 0.531400 0.072400 0.400500
C92 C 0.541950 0.167150 0.448300
H93 H 0.592200 0.178800 0.360100
C94 C 0.502500 0.213020 0.554190
H95 H 0.526400 0.256400 0.538800
C96 C 0.428700 0.195790 0.681880
H97 H 0.399200 0.227700 0.751200
C98 C 0.185550 0.124050 1.137200
C99 C 0.068250 0.174820 1.340600
H100 H 0.166400 0.198900 1.384700
H101 H -0.003200 0.202200 1.261800
C102 C -0.012500 0.154380 1.477950
H103 H 0.058900 0.126700 1.553700
H104 H -0.038700 0.191900 1.537300
H105 H -0.110100 0.131200 1.432300
C106 C 0.141620 -0.015210 1.270210
H107 H 0.165000 -0.059700 1.300000
H108 H 0.194100 0.012300 1.359700
H109 H 0.026500 -0.008300 1.251400
C110 C 0.245250 -0.114290 1.004080
C111 C 0.174700 -0.154320 1.122860
H112 H 0.242500 -0.151800 1.232200
H113 H 0.068200 -0.138500 1.128000
H114 H 0.167400 -0.198600 1.085500
S115 S 0.680160 0.490165 0.650300
N116 N 0.674580 0.620310 0.653240
H117 H 0.691000 0.652300 0.594000
O118 O 0.698000 0.359770 0.604890
C119 C 0.709150 0.565760 0.580250
O120 O 0.782030 0.676870 0.410450
C121 C 0.775200 0.563950 0.436900
O122 O 0.893850 0.616740 0.240150
C123 C 0.798120 0.500220 0.383980
C124 C 0.753700 0.455470 0.488180
C125 C 0.603120 0.631960 0.789540
C126 C 0.564230 0.585770 0.895940
H127 H 0.586000 0.542200 0.879500
C128 C 0.493300 0.603870 1.026380
H129 H 0.468600 0.572400 1.099500
C130 C 0.458050 0.667150 1.051700
H131 H 0.407800 0.678800 1.139900
C132 C 0.497500 0.713020 0.945810
H133 H 0.473600 0.756400 0.961200
C134 C 0.571300 0.695790 0.818120
H135 H 0.600800 0.727700 0.748800
C136 C 0.814450 0.624050 0.362800
C137 C 0.931750 0.674820 0.159400
H138 H 0.833600 0.698900 0.115300
H139 H 1.003200 0.702200 0.238200
C140 C 1.012500 0.654380 0.022050
H141 H 0.941100 0.626700 -0.053700
H142 H 1.038700 0.691900 -0.037300
H143 H 1.110100 0.631200 0.067700
C144 C 0.858380 0.484790 0.229790
H145 H 0.835000 0.440300 0.200000
H146 H 0.805900 0.512300 0.140300
H147 H 0.973500 0.491700 0.248600
C148 C 0.754750 0.385710 0.495920
C149 C 0.825300 0.345680 0.377140
H150 H 0.757500 0.348200 0.267800
H151 H 0.931800 0.361500 0.372000
H152 H 0.832600 0.301400 0.414500

#END
