./KACTOY_from_xyz.cif_generated_by_CrystalShift
_symmetry_cell_setting triclinic
_symmetry_space_group_name_H-M 'P 1'
loop_
_symmetry_equiv_pos_site_id
_symmetry_equiv_pos_as_xyz
1 x,y,z
_cell_length_a 7.948800
_cell_length_b 6.402300
_cell_length_c 8.084400
_cell_angle_alpha 90.000000
_cell_angle_beta 112.987000
_cell_angle_gamma 90.000000
_cell_volume 378.750559
loop_
_atom_site_label
_atom_site_type_symbol
_atom_site_fract_x
_atom_site_fract_y
_atom_site_fract_z
Cl1 Cl 0.904460 0.750000 0.679350
Cl2 Cl 0.095540 0.250000 0.320650
N3 N 0.931620 0.250000 0.774770
N4 N 0.552100 0.250000 0.152500
C5 C 1.132700 0.250000 0.872900
H6 H 1.179300 0.128000 0.842700
H7 H 1.162300 0.250000 1.005200
C8 C 0.863900 0.250000 0.594600
H9 H 0.936000 0.250000 0.545300
C10 C 0.677300 0.250000 0.499900
C11 C 0.558900 0.250000 0.589000
H12 H 0.442700 0.250000 0.532800
C13 C 0.634700 0.250000 0.775500
H14 H 0.568400 0.250000 0.843500
C15 C 0.822000 0.250000 0.866100
H16 H 0.885900 0.250000 0.996600
C17 C 0.608100 0.250000 0.306200
H18 H 1.179300 0.372000 0.842700
N19 N 0.068380 0.750000 0.225230
N20 N 0.447900 0.750000 0.847500
C21 C -0.132700 0.750000 0.127100
H22 H -0.179300 0.872000 0.157300
H23 H -0.162300 0.750000 -0.005200
C24 C 0.136100 0.750000 0.405400
H25 H 0.064000 0.750000 0.454700
C26 C 0.322700 0.750000 0.500100
C27 C 0.441100 0.750000 0.411000
H28 H 0.557300 0.750000 0.467200
C29 C 0.365300 0.750000 0.224500
H30 H 0.431600 0.750000 0.156500
C31 C 0.178000 0.750000 0.133900
H32 H 0.114100 0.750000 0.003400
C33 C 0.391900 0.750000 0.693800
H34 H -0.179300 0.628000 0.157300

#END
