
#######################################################################
#
#                 Cambridge Crystallographic Data Centre
#                                CCDC 
#
#######################################################################
#
# If this CIF has been generated from an entry in the Cambridge 
# Structural Database, then it will include bibliographic, chemical, 
# crystal, experimental, refinement or atomic coordinate data resulting 
# from the CCDC's data processing and validation procedures.
#
#######################################################################

data_KACTAM
_symmetry_cell_setting           monoclinic
_symmetry_space_group_name_H-M   'P 21/c'
_symmetry_Int_Tables_number      14
_space_group_name_Hall           '-P 2ybc'
loop_
_symmetry_equiv_pos_site_id
_symmetry_equiv_pos_as_xyz
1 x,y,z
2 -x,1/2+y,1/2-z
3 -x,-y,-z
4 x,1/2-y,1/2+z
_cell_length_a                   8.5752(16)
_cell_length_b                   21.046(4)
_cell_length_c                   8.2941(12)
_cell_angle_alpha                90
_cell_angle_beta                 101.131(6)
_cell_angle_gamma                90
_cell_volume                     1468.71
loop_
_atom_site_label
_atom_site_type_symbol
_atom_site_fract_x
_atom_site_fract_y
_atom_site_fract_z
S1 S 0.68016(4) 1.009835(17) 0.15030(4)
N1 N 0.67458(15) 0.87969(6) 0.15324(15)
H1 H 0.691(2) 0.8477(9) 0.094(2)
O1 O 0.69800(14) 1.14023(5) 0.10489(14)
C1 C 0.70915(16) 0.93424(7) 0.08025(17)
O2 O 0.78203(13) 0.82313(5) -0.08955(13)
C2 C 0.77520(16) 0.93605(7) -0.06310(17)
O3 O 0.89385(12) 0.88326(5) -0.25985(12)
C3 C 0.79812(16) 0.99978(7) -0.11602(17)
C4 C 0.75370(16) 1.04453(7) -0.01182(17)
C5 C 0.60312(16) 0.86804(7) 0.28954(16)
C6 C 0.56423(19) 0.91423(7) 0.39594(18)
H2 H 0.5860 0.9578 0.3795
C7 C 0.4933(2) 0.89613(8) 0.52638(18)
H3 H 0.4686 0.9276 0.5995
C8 C 0.45805(18) 0.83285(7) 0.55170(18)
H4 H 0.4078 0.8212 0.6399
C9 C 0.49750(18) 0.78698(7) 0.44581(18)
H5 H 0.4736 0.7436 0.4612
C10 C 0.57130(17) 0.80421(7) 0.31812(17)
H6 H 0.6008 0.7723 0.2488
C11 C 0.81445(16) 0.87595(7) -0.13720(16)
C12 C 0.93175(19) 0.82518(7) -0.34060(19)
H7 H 0.8336 0.8011 -0.3847
H8 H 1.0032 0.7978 -0.2618
C13 C 1.0125(2) 0.84562(8) -0.47795(19)
H9 H 0.9411 0.8733 -0.5537
H10 H 1.0387 0.8081 -0.5373
H11 H 1.1101 0.8688 -0.4323
C14 C 0.85838(19) 1.01521(7) -0.27021(18)
H12 H 0.8350 1.0597 -0.3000
H13 H 0.8059 0.9877 -0.3597
H14 H 0.9735 1.0083 -0.2514
C15 C 0.75475(17) 1.11429(7) -0.00408(17)
C16 C 0.8253(2) 1.15432(7) -0.12286(19)
H15 H 0.7575 1.1518 -0.2322
H16 H 0.9318 1.1385 -0.1280
H17 H 0.8326 1.1986 -0.0855
S1 S 0.31984(4) 0.509835(17) 0.34970(4)
N1 N 0.32542(15) 0.37969(6) 0.34676(15)
H1 H 0.309(2) 0.3477(9) 0.406(2)
O1 O 0.30200(14) 0.64023(5) 0.39511(14)
C1 C 0.29085(16) 0.43424(7) 0.41975(17)
O2 O 0.21797(13) 0.32313(5) 0.58955(13)
C2 C 0.22480(16) 0.43605(7) 0.56310(17)
O3 O 0.10615(12) 0.38326(5) 0.75985(12)
C3 C 0.20188(16) 0.49978(7) 0.61602(17)
C4 C 0.24630(16) 0.54453(7) 0.51182(17)
C5 C 0.39688(16) 0.36804(7) 0.21046(16)
C6 C 0.43577(19) 0.41423(7) 0.10406(18)
H2 H 0.4140 0.4578 0.1205
C7 C 0.5067(2) 0.39613(8) -0.02638(18)
H3 H 0.5314 0.4276 -0.0995
C8 C 0.54195(18) 0.33285(7) -0.05170(18)
H4 H 0.5922 0.3212 -0.1399
C9 C 0.50250(18) 0.28698(7) 0.05419(18)
H5 H 0.5264 0.2436 0.0388
C10 C 0.42870(17) 0.30421(7) 0.18188(17)
H6 H 0.3992 0.2723 0.2512
C11 C 0.18555(16) 0.37595(7) 0.63720(16)
C12 C 0.06825(19) 0.32518(7) 0.84060(19)
H7 H 0.1664 0.3011 0.8847
H8 H -0.0032 0.2978 0.7618
C13 C -0.0125(2) 0.34562(8) 0.97795(19)
H9 H 0.0589 0.3733 1.0537
H10 H -0.0387 0.3081 1.0373
H11 H -0.1101 0.3688 0.9323
C14 C 0.14162(19) 0.51521(7) 0.77021(18)
H12 H 0.1650 0.5597 0.8000
H13 H 0.1941 0.4877 0.8597
H14 H 0.0265 0.5083 0.7514
C15 C 0.24525(17) 0.61429(7) 0.50408(17)
C16 C 0.1747(2) 0.65432(7) 0.62286(19)
H15 H 0.2425 0.6518 0.7322
H16 H 0.0682 0.6385 0.6280
H17 H 0.1674 0.6986 0.5855
S1 S 0.31984(4) -0.009835(17) 0.84970(4)
N1 N 0.32542(15) 0.12031(6) 0.84676(15)
H1 H 0.309(2) 0.1523(9) 0.906(2)
O1 O 0.30200(14) -0.14023(5) 0.89511(14)
C1 C 0.29085(16) 0.06576(7) 0.91975(17)
O2 O 0.21797(13) 0.17687(5) 1.08955(13)
C2 C 0.22480(16) 0.06395(7) 1.06310(17)
O3 O 0.10615(12) 0.11674(5) 1.25985(12)
C3 C 0.20188(16) 0.00022(7) 1.11602(17)
C4 C 0.24630(16) -0.04453(7) 1.01182(17)
C5 C 0.39688(16) 0.13196(7) 0.71046(16)
C6 C 0.43577(19) 0.08577(7) 0.60406(18)
H2 H 0.4140 0.0422 0.6205
C7 C 0.5067(2) 0.10387(8) 0.47362(18)
H3 H 0.5314 0.0724 0.4005
C8 C 0.54195(18) 0.16715(7) 0.44830(18)
H4 H 0.5922 0.1788 0.3601
C9 C 0.50250(18) 0.21302(7) 0.55419(18)
H5 H 0.5264 0.2564 0.5388
C10 C 0.42870(17) 0.19579(7) 0.68188(17)
H6 H 0.3992 0.2277 0.7512
C11 C 0.18555(16) 0.12405(7) 1.13720(16)
C12 C 0.06825(19) 0.17482(7) 1.34060(19)
H7 H 0.1664 0.1989 1.3847
H8 H -0.0032 0.2022 1.2618
C13 C -0.0125(2) 0.15438(8) 1.47795(19)
H9 H 0.0589 0.1267 1.5537
H10 H -0.0387 0.1919 1.5373
H11 H -0.1101 0.1312 1.4323
C14 C 0.14162(19) -0.01521(7) 1.27021(18)
H12 H 0.1650 -0.0597 1.3000
H13 H 0.1941 0.0123 1.3597
H14 H 0.0265 -0.0083 1.2514
C15 C 0.24525(17) -0.11429(7) 1.00408(17)
C16 C 0.1747(2) -0.15432(7) 1.12286(19)
H15 H 0.2425 -0.1518 1.2322
H16 H 0.0682 -0.1385 1.1280
H17 H 0.1674 -0.1986 1.0855
S1 S 0.68016(4) 0.490165(17) 0.65030(4)
N1 N 0.67458(15) 0.62031(6) 0.65324(15)
H1 H 0.691(2) 0.6523(9) 0.594(2)
O1 O 0.69800(14) 0.35977(5) 0.60489(14)
C1 C 0.70915(16) 0.56576(7) 0.58025(17)
O2 O 0.78203(13) 0.67687(5) 0.41045(13)
C2 C 0.77520(16) 0.56395(7) 0.43690(17)
O3 O 0.89385(12) 0.61674(5) 0.24015(12)
C3 C 0.79812(16) 0.50022(7) 0.38398(17)
C4 C 0.75370(16) 0.45547(7) 0.48818(17)
C5 C 0.60312(16) 0.63196(7) 0.78954(16)
C6 C 0.56423(19) 0.58577(7) 0.89594(18)
H2 H 0.5860 0.5422 0.8795
C7 C 0.4933(2) 0.60387(8) 1.02638(18)
H3 H 0.4686 0.5724 1.0995
C8 C 0.45805(18) 0.66715(7) 1.05170(18)
H4 H 0.4078 0.6788 1.1399
C9 C 0.49750(18) 0.71302(7) 0.94581(18)
H5 H 0.4736 0.7564 0.9612
C10 C 0.57130(17) 0.69579(7) 0.81812(17)
H6 H 0.6008 0.7277 0.7488
C11 C 0.81445(16) 0.62405(7) 0.36280(16)
C12 C 0.93175(19) 0.67482(7) 0.15940(19)
H7 H 0.8336 0.6989 0.1153
H8 H 1.0032 0.7022 0.2382
C13 C 1.0125(2) 0.65438(8) 0.02205(19)
H9 H 0.9411 0.6267 -0.0537
H10 H 1.0387 0.6919 -0.0373
H11 H 1.1101 0.6312 0.0677
C14 C 0.85838(19) 0.48479(7) 0.22979(18)
H12 H 0.8350 0.4403 0.2000
H13 H 0.8059 0.5123 0.1403
H14 H 0.9735 0.4917 0.2486
C15 C 0.75475(17) 0.38571(7) 0.49592(17)
C16 C 0.8253(2) 0.34568(7) 0.37714(19)
H15 H 0.7575 0.3482 0.2678
H16 H 0.9318 0.3615 0.3720
H17 H 0.8326 0.3014 0.4145

#END
