./KACVUI_from_xyz.cif_generated_by_CrystalShift
_symmetry_cell_setting triclinic
_symmetry_space_group_name_H-M 'P 1'
loop_
_symmetry_equiv_pos_site_id
_symmetry_equiv_pos_as_xyz
1 x,y,z
_cell_length_a 33.795000
_cell_length_b 8.871000
_cell_length_c 10.039000
_cell_angle_alpha 90.000000
_cell_angle_beta 98.337000
_cell_angle_gamma 90.000000
_cell_volume 2977.841473
loop_
_atom_site_label
_atom_site_type_symbol
_atom_site_fract_x
_atom_site_fract_y
_atom_site_fract_z
Br1 Br 0.807776 1.314850 1.123780
C2 C 0.803000 1.436600 0.567300
H3 H 0.813100 1.345800 0.540400
C4 C 0.806930 1.566300 0.495000
H5 H 0.820200 1.562600 0.420000
C6 C 0.791780 1.700100 0.531300
H7 H 0.794000 1.786500 0.480400
C8 C 0.773170 1.705500 0.644700
H9 H 0.763500 1.797100 0.671400
C10 C 0.768640 1.579200 0.718300
H11 H 0.755400 1.584800 0.793200
C12 C 0.783740 1.442200 0.681300
C13 C 0.777310 1.302900 0.757500
C14 C 0.785340 1.091600 0.863900
C15 C 0.826580 0.993800 1.102100
C16 C 0.827100 1.121800 1.171200
C17 C 0.844930 1.094400 1.312400
C18 C 0.846650 0.872300 1.194300
H19 H 0.828400 0.787600 1.200100
C20 C 0.892350 0.667800 1.176600
H21 H 0.869200 0.602800 1.148900
C22 C 0.906350 0.644100 1.325400
H23 H 0.928800 0.710100 1.354400
H24 H 0.884900 0.670600 1.375800
C25 C 0.918690 0.482800 1.355700
H26 H 0.895400 0.418600 1.326800
C27 C 0.951230 0.440500 1.271000
H28 H 0.975000 0.500400 1.299500
H29 H 0.958300 0.335200 1.285800
C30 C 0.937280 0.466700 1.122300
H31 H 0.914900 0.400500 1.092400
H32 H 0.958800 0.441200 1.071800
C33 C 0.924600 0.629800 1.092600
H34 H 0.947700 0.692900 1.125800
C35 C 0.913030 0.667000 0.941300
H36 H 0.907100 0.775200 0.936600
C37 C 0.875380 0.588400 0.875200
H38 H 0.868700 0.623500 0.784300
H39 H 0.853800 0.610300 0.924600
H40 H 0.879900 0.481500 0.874900
C41 C 0.947900 0.643400 0.862300
H42 H 0.955800 0.539400 0.867500
H43 H 0.970000 0.705300 0.899800
H44 H 0.939700 0.670700 0.769800
C45 C 0.932000 0.454400 1.504300
H46 H 0.953800 0.520200 1.536400
H47 H 0.940400 0.351400 1.517400
H48 H 0.910100 0.473500 1.553100
C49 C 0.859850 1.096100 0.724800
H50 H 0.842500 1.027100 0.677400
C51 C 0.903010 1.081300 0.725100
C52 C 0.929410 1.157800 0.812000
H53 H 0.920400 1.222500 0.874100
C54 C 0.970420 1.140800 0.809800
H55 H 0.988500 1.199900 0.865800
C56 C 0.984070 1.039500 0.727200
C57 C 0.957500 0.965100 0.639100
H58 H 0.966700 0.900500 0.577300
C59 C 0.916650 0.982100 0.637700
H60 H 0.898700 0.926500 0.578000
Cl61 Cl 1.034520 1.006600 0.735700
N62 N 0.743330 1.269200 0.799700
N63 N 0.748370 1.134100 0.867200
N64 N 0.804440 1.195000 0.792200
N65 N 0.846100 1.201700 0.788500
O66 O 0.849160 1.177200 1.405900
O67 O 0.856010 0.945800 1.322800
O68 O 0.880730 0.824700 1.146800
S69 S 0.808310 0.931700 0.940970
Br70 Br 0.192224 1.314850 -0.123780
C71 C 0.197000 1.436600 0.432700
H72 H 0.186900 1.345800 0.459600
C73 C 0.193070 1.566300 0.505000
H74 H 0.179800 1.562600 0.580000
C75 C 0.208220 1.700100 0.468700
H76 H 0.206000 1.786500 0.519600
C77 C 0.226830 1.705500 0.355300
H78 H 0.236500 1.797100 0.328600
C79 C 0.231360 1.579200 0.281700
H80 H 0.244600 1.584800 0.206800
C81 C 0.216260 1.442200 0.318700
C82 C 0.222690 1.302900 0.242500
C83 C 0.214660 1.091600 0.136100
C84 C 0.173420 0.993800 -0.102100
C85 C 0.172900 1.121800 -0.171200
C86 C 0.155070 1.094400 -0.312400
C87 C 0.153350 0.872300 -0.194300
H88 H 0.171600 0.787600 -0.200100
C89 C 0.107650 0.667800 -0.176600
H90 H 0.130800 0.602800 -0.148900
C91 C 0.093650 0.644100 -0.325400
H92 H 0.071200 0.710100 -0.354400
H93 H 0.115100 0.670600 -0.375800
C94 C 0.081310 0.482800 -0.355700
H95 H 0.104600 0.418600 -0.326800
C96 C 0.048770 0.440500 -0.271000
H97 H 0.025000 0.500400 -0.299500
H98 H 0.041700 0.335200 -0.285800
C99 C 0.062720 0.466700 -0.122300
H100 H 0.085100 0.400500 -0.092400
H101 H 0.041200 0.441200 -0.071800
C102 C 0.075400 0.629800 -0.092600
H103 H 0.052300 0.692900 -0.125800
C104 C 0.086970 0.667000 0.058700
H105 H 0.092900 0.775200 0.063400
C106 C 0.124620 0.588400 0.124800
H107 H 0.131300 0.623500 0.215700
H108 H 0.146200 0.610300 0.075400
H109 H 0.120100 0.481500 0.125100
C110 C 0.052100 0.643400 0.137700
H111 H 0.044200 0.539400 0.132500
H112 H 0.030000 0.705300 0.100200
H113 H 0.060300 0.670700 0.230200
C114 C 0.068000 0.454400 -0.504300
H115 H 0.046200 0.520200 -0.536400
H116 H 0.059600 0.351400 -0.517400
H117 H 0.089900 0.473500 -0.553100
C118 C 0.140150 1.096100 0.275200
H119 H 0.157500 1.027100 0.322600
C120 C 0.096990 1.081300 0.274900
C121 C 0.070590 1.157800 0.188000
H122 H 0.079600 1.222500 0.125900
C123 C 0.029580 1.140800 0.190200
H124 H 0.011500 1.199900 0.134200
C125 C 0.015930 1.039500 0.272800
C126 C 0.042500 0.965100 0.360900
H127 H 0.033300 0.900500 0.422700
C128 C 0.083350 0.982100 0.362300
H129 H 0.101300 0.926500 0.422000
Cl130 Cl -0.034520 1.006600 0.264300
N131 N 0.256670 1.269200 0.200300
N132 N 0.251630 1.134100 0.132800
N133 N 0.195560 1.195000 0.207800
N134 N 0.153900 1.201700 0.211500
O135 O 0.150840 1.177200 -0.405900
O136 O 0.143990 0.945800 -0.322800
O137 O 0.119270 0.824700 -0.146800
S138 S 0.191690 0.931700 0.059030
Br139 Br 0.307776 0.814850 1.123780
C140 C 0.303000 0.936600 0.567300
H141 H 0.313100 0.845800 0.540400
C142 C 0.306930 1.066300 0.495000
H143 H 0.320200 1.062600 0.420000
C144 C 0.291780 1.200100 0.531300
H145 H 0.294000 1.286500 0.480400
C146 C 0.273170 1.205500 0.644700
H147 H 0.263500 1.297100 0.671400
C148 C 0.268640 1.079200 0.718300
H149 H 0.255400 1.084800 0.793200
C150 C 0.283740 0.942200 0.681300
C151 C 0.277310 0.802900 0.757500
C152 C 0.285340 0.591600 0.863900
C153 C 0.326580 0.493800 1.102100
C154 C 0.327100 0.621800 1.171200
C155 C 0.344930 0.594400 1.312400
C156 C 0.346650 0.372300 1.194300
H157 H 0.328400 0.287600 1.200100
C158 C 0.392350 0.167800 1.176600
H159 H 0.369200 0.102800 1.148900
C160 C 0.406350 0.144100 1.325400
H161 H 0.428800 0.210100 1.354400
H162 H 0.384900 0.170600 1.375800
C163 C 0.418690 -0.017200 1.355700
H164 H 0.395400 -0.081400 1.326800
C165 C 0.451230 -0.059500 1.271000
H166 H 0.475000 0.000400 1.299500
H167 H 0.458300 -0.164800 1.285800
C168 C 0.437280 -0.033300 1.122300
H169 H 0.414900 -0.099500 1.092400
H170 H 0.458800 -0.058800 1.071800
C171 C 0.424600 0.129800 1.092600
H172 H 0.447700 0.192900 1.125800
C173 C 0.413030 0.167000 0.941300
H174 H 0.407100 0.275200 0.936600
C175 C 0.375380 0.088400 0.875200
H176 H 0.368700 0.123500 0.784300
H177 H 0.353800 0.110300 0.924600
H178 H 0.379900 -0.018500 0.874900
C179 C 0.447900 0.143400 0.862300
H180 H 0.455800 0.039400 0.867500
H181 H 0.470000 0.205300 0.899800
H182 H 0.439700 0.170700 0.769800
C183 C 0.432000 -0.045600 1.504300
H184 H 0.453800 0.020200 1.536400
H185 H 0.440400 -0.148600 1.517400
H186 H 0.410100 -0.026500 1.553100
C187 C 0.359850 0.596100 0.724800
H188 H 0.342500 0.527100 0.677400
C189 C 0.403010 0.581300 0.725100
C190 C 0.429410 0.657800 0.812000
H191 H 0.420400 0.722500 0.874100
C192 C 0.470420 0.640800 0.809800
H193 H 0.488500 0.699900 0.865800
C194 C 0.484070 0.539500 0.727200
C195 C 0.457500 0.465100 0.639100
H196 H 0.466700 0.400500 0.577300
C197 C 0.416650 0.482100 0.637700
H198 H 0.398700 0.426500 0.578000
Cl199 Cl 0.534520 0.506600 0.735700
N200 N 0.243330 0.769200 0.799700
N201 N 0.248370 0.634100 0.867200
N202 N 0.304440 0.695000 0.792200
N203 N 0.346100 0.701700 0.788500
O204 O 0.349160 0.677200 1.405900
O205 O 0.356010 0.445800 1.322800
O206 O 0.380730 0.324700 1.146800
S207 S 0.308310 0.431700 0.940970
Br208 Br 0.692224 0.814850 -0.123780
C209 C 0.697000 0.936600 0.432700
H210 H 0.686900 0.845800 0.459600
C211 C 0.693070 1.066300 0.505000
H212 H 0.679800 1.062600 0.580000
C213 C 0.708220 1.200100 0.468700
H214 H 0.706000 1.286500 0.519600
C215 C 0.726830 1.205500 0.355300
H216 H 0.736500 1.297100 0.328600
C217 C 0.731360 1.079200 0.281700
H218 H 0.744600 1.084800 0.206800
C219 C 0.716260 0.942200 0.318700
C220 C 0.722690 0.802900 0.242500
C221 C 0.714660 0.591600 0.136100
C222 C 0.673420 0.493800 -0.102100
C223 C 0.672900 0.621800 -0.171200
C224 C 0.655070 0.594400 -0.312400
C225 C 0.653350 0.372300 -0.194300
H226 H 0.671600 0.287600 -0.200100
C227 C 0.607650 0.167800 -0.176600
H228 H 0.630800 0.102800 -0.148900
C229 C 0.593650 0.144100 -0.325400
H230 H 0.571200 0.210100 -0.354400
H231 H 0.615100 0.170600 -0.375800
C232 C 0.581310 -0.017200 -0.355700
H233 H 0.604600 -0.081400 -0.326800
C234 C 0.548770 -0.059500 -0.271000
H235 H 0.525000 0.000400 -0.299500
H236 H 0.541700 -0.164800 -0.285800
C237 C 0.562720 -0.033300 -0.122300
H238 H 0.585100 -0.099500 -0.092400
H239 H 0.541200 -0.058800 -0.071800
C240 C 0.575400 0.129800 -0.092600
H241 H 0.552300 0.192900 -0.125800
C242 C 0.586970 0.167000 0.058700
H243 H 0.592900 0.275200 0.063400
C244 C 0.624620 0.088400 0.124800
H245 H 0.631300 0.123500 0.215700
H246 H 0.646200 0.110300 0.075400
H247 H 0.620100 -0.018500 0.125100
C248 C 0.552100 0.143400 0.137700
H249 H 0.544200 0.039400 0.132500
H250 H 0.530000 0.205300 0.100200
H251 H 0.560300 0.170700 0.230200
C252 C 0.568000 -0.045600 -0.504300
H253 H 0.546200 0.020200 -0.536400
H254 H 0.559600 -0.148600 -0.517400
H255 H 0.589900 -0.026500 -0.553100
C256 C 0.640150 0.596100 0.275200
H257 H 0.657500 0.527100 0.322600
C258 C 0.596990 0.581300 0.274900
C259 C 0.570590 0.657800 0.188000
H260 H 0.579600 0.722500 0.125900
C261 C 0.529580 0.640800 0.190200
H262 H 0.511500 0.699900 0.134200
C263 C 0.515930 0.539500 0.272800
C264 C 0.542500 0.465100 0.360900
H265 H 0.533300 0.400500 0.422700
C266 C 0.583350 0.482100 0.362300
H267 H 0.601300 0.426500 0.422000
Cl268 Cl 0.465480 0.506600 0.264300
N269 N 0.756670 0.769200 0.200300
N270 N 0.751630 0.634100 0.132800
N271 N 0.695560 0.695000 0.207800
N272 N 0.653900 0.701700 0.211500
O273 O 0.650840 0.677200 -0.405900
O274 O 0.643990 0.445800 -0.322800
O275 O 0.619270 0.324700 -0.146800
S276 S 0.691690 0.431700 0.059030

#END
