
#######################################################################
#
#                 Cambridge Crystallographic Data Centre
#                                CCDC 
#
#######################################################################
#
# If this CIF has been generated from an entry in the Cambridge 
# Structural Database, then it will include bibliographic, chemical, 
# crystal, experimental, refinement or atomic coordinate data resulting 
# from the CCDC's data processing and validation procedures.
#
#######################################################################

data_KACVEQ
_symmetry_cell_setting           triclinic
_symmetry_space_group_name_H-M   'P -1'
_symmetry_Int_Tables_number      2
_space_group_name_Hall           '-P 1'
loop_
_symmetry_equiv_pos_site_id
_symmetry_equiv_pos_as_xyz
1 x,y,z
2 -x,-y,-z
_cell_length_a                   9.1151(11)
_cell_length_b                   9.1761(11)
_cell_length_c                   11.3748(14)
_cell_angle_alpha                69.683(2)
_cell_angle_beta                 78.016(2)
_cell_angle_gamma                84.341(2)
_cell_volume                     872.4
loop_
_atom_site_label
_atom_site_type_symbol
_atom_site_fract_x
_atom_site_fract_y
_atom_site_fract_z
C1 C 0.29292(15) 0.01687(15) 0.38994(13)
C2 C 0.24710(15) 0.17605(15) 0.31235(13)
C3 C 0.27332(16) 0.17424(16) 0.17748(13)
H1 H 0.2172 0.2567 0.1183
C4 C 0.44500(17) 0.16678(18) 0.13131(14)
H2 H 0.4952 0.2462 0.1484
H3 H 0.4698 0.1825 0.0389
C5 C 0.49173(17) 0.00047(18) 0.21083(14)
H4 H 0.5368 -0.0606 0.1550
H5 H 0.5643 0.0035 0.2636
C6 C 0.34213(16) -0.06841(16) 0.29509(14)
H6 H 0.3414 -0.1844 0.3324
C7 C 0.23260(18) 0.00632(17) 0.20225(15)
H7 H 0.2572 -0.0231 0.1244
H8 H 0.1264 -0.0152 0.2433
C8 C 0.28120(15) -0.03504(16) 0.51664(13)
H9 H 0.2468 0.0388 0.5584
C9 C 0.31512(15) -0.19246(16) 0.59891(13)
C10 C 0.43731(15) -0.28613(16) 0.57141(13)
F1 F 0.53898(9) -0.23312(10) 0.46464(8)
C11 C 0.46163(16) -0.43471(16) 0.65219(14)
F2 F 0.58060(10) -0.52021(10) 0.62010(9)
C12 C 0.36346(18) -0.49444(16) 0.76563(14)
F3 F 0.38414(13) -0.63939(10) 0.84261(9)
C13 C 0.24306(17) -0.40447(17) 0.79858(13)
F4 F 0.14569(11) -0.46294(12) 0.90767(8)
C14 C 0.22116(15) -0.25643(17) 0.71657(13)
F5 F 0.10152(10) -0.17345(11) 0.75140(8)
C15 C 0.18666(15) 0.28790(16) 0.35878(13)
H10 H 0.1801 0.2655 0.4477
C16 C 0.12909(15) 0.44180(15) 0.28793(13)
C17 C 0.20074(15) 0.54235(16) 0.17189(13)
F6 F 0.33573(9) 0.50335(10) 0.11586(8)
C18 C 0.14064(16) 0.68686(16) 0.11146(13)
F7 F 0.21394(10) 0.77914(10) 0.00000(8)
C19 C 0.00547(16) 0.73684(16) 0.16691(14)
F8 F -0.05455(11) 0.87519(10) 0.10915(9)
C20 C -0.06686(15) 0.64302(16) 0.28371(13)
F9 F -0.19745(10) 0.69155(11) 0.33906(9)
C21 C -0.00578(15) 0.49943(16) 0.34116(12)
F10 F -0.08192(10) 0.41034(10) 0.45399(8)
C1 C 0.70708(15) 0.98313(15) 0.61006(13)
C2 C 0.75290(15) 0.82395(15) 0.68765(13)
C3 C 0.72668(16) 0.82576(16) 0.82252(13)
H1 H 0.7828 0.7433 0.8817
C4 C 0.55500(17) 0.83322(18) 0.86869(14)
H2 H 0.5048 0.7538 0.8516
H3 H 0.5302 0.8175 0.9611
C5 C 0.50827(17) 0.99953(18) 0.78917(14)
H4 H 0.4632 1.0606 0.8450
H5 H 0.4357 0.9965 0.7364
C6 C 0.65787(16) 1.06841(16) 0.70491(14)
H6 H 0.6586 1.1844 0.6676
C7 C 0.76740(18) 0.99368(17) 0.79775(15)
H7 H 0.7428 1.0231 0.8756
H8 H 0.8736 1.0152 0.7567
C8 C 0.71880(15) 1.03504(16) 0.48336(13)
H9 H 0.7532 0.9612 0.4416
C9 C 0.68488(15) 1.19246(16) 0.40109(13)
C10 C 0.56269(15) 1.28613(16) 0.42859(13)
F1 F 0.46102(9) 1.23312(10) 0.53536(8)
C11 C 0.53837(16) 1.43471(16) 0.34781(14)
F2 F 0.41940(10) 1.52021(10) 0.37990(9)
C12 C 0.63654(18) 1.49444(16) 0.23437(14)
F3 F 0.61586(13) 1.63939(10) 0.15739(9)
C13 C 0.75694(17) 1.40447(17) 0.20142(13)
F4 F 0.85431(11) 1.46294(12) 0.09233(8)
C14 C 0.77884(15) 1.25643(17) 0.28343(13)
F5 F 0.89848(10) 1.17345(11) 0.24860(8)
C15 C 0.81334(15) 0.71210(16) 0.64122(13)
H10 H 0.8199 0.7345 0.5523
C16 C 0.87091(15) 0.55820(15) 0.71207(13)
C17 C 0.79926(15) 0.45765(16) 0.82811(13)
F6 F 0.66427(9) 0.49665(10) 0.88414(8)
C18 C 0.85936(16) 0.31314(16) 0.88854(13)
F7 F 0.78606(10) 0.22086(10) 1.00000(8)
C19 C 0.99453(16) 0.26316(16) 0.83309(14)
F8 F 1.05455(11) 0.12481(10) 0.89085(9)
C20 C 1.06686(15) 0.35698(16) 0.71629(13)
F9 F 1.19745(10) 0.30845(11) 0.66094(9)
C21 C 1.00578(15) 0.50057(16) 0.65884(12)
F10 F 1.08192(10) 0.58966(10) 0.54601(8)

#END
