./KACVES_from_xyz.cif_generated_by_CrystalShift
_symmetry_cell_setting triclinic
_symmetry_space_group_name_H-M 'P 1'
loop_
_symmetry_equiv_pos_site_id
_symmetry_equiv_pos_as_xyz
1 x,y,z
_cell_length_a 6.326000
_cell_length_b 15.991700
_cell_length_c 11.765300
_cell_angle_alpha 90.000000
_cell_angle_beta 117.576000
_cell_angle_gamma 90.000000
_cell_volume 1055.007070
loop_
_atom_site_label
_atom_site_type_symbol
_atom_site_fract_x
_atom_site_fract_y
_atom_site_fract_z
C1 C 0.078410 0.753700 0.803880
C2 C 0.014340 0.716300 0.671450
H3 H -0.159700 0.716100 0.620600
C4 C 0.103270 0.626640 0.681660
H5 H 0.064900 0.606500 0.596500
H6 H 0.019800 0.591600 0.715200
C7 C 0.372930 0.617990 0.768220
C8 C 0.438350 0.656770 0.899890
H9 H 0.371400 0.622700 0.943500
H10 H 0.610400 0.656500 0.951300
C11 C 0.347160 0.746450 0.889730
H12 H 0.385300 0.766600 0.974800
H13 H 0.429000 0.781900 0.855800
C14 C -0.008500 0.843410 0.792610
H15 H 0.075200 0.877900 0.759900
H16 H -0.176500 0.845600 0.735200
H17 H 0.020800 0.863400 0.875600
C18 C 0.449300 0.524960 0.779480
H19 H 0.347400 0.493300 0.806400
C20 C 0.409700 0.489120 0.650610
H21 H 0.247500 0.498600 0.587500
H22 H 0.515200 0.516200 0.624200
H23 H 0.441600 0.430100 0.659200
C24 C 0.707400 0.509870 0.879650
H25 H 0.732500 0.532300 0.960600
H26 H 0.739100 0.450900 0.888200
H27 H 0.812800 0.536900 0.853100
O28 O -0.047140 0.701630 0.853030
H29 H -0.008000 0.714900 0.927400
O30 O 0.111790 0.768340 0.607170
H31 H 0.249000 0.751100 0.630800
O32 O 0.483380 0.665720 0.705210
H33 H 0.623000 0.674000 0.754000
C34 C 0.921590 0.253700 0.696120
C35 C 0.985660 0.216300 0.828550
H36 H 1.159700 0.216100 0.879400
C37 C 0.896730 0.126640 0.818340
H38 H 0.935100 0.106500 0.903500
H39 H 0.980200 0.091600 0.784800
C40 C 0.627070 0.117990 0.731780
C41 C 0.561650 0.156770 0.600110
H42 H 0.628600 0.122700 0.556500
H43 H 0.389600 0.156500 0.548700
C44 C 0.652840 0.246450 0.610270
H45 H 0.614700 0.266600 0.525200
H46 H 0.571000 0.281900 0.644200
C47 C 1.008500 0.343410 0.707390
H48 H 0.924800 0.377900 0.740100
H49 H 1.176500 0.345600 0.764800
H50 H 0.979200 0.363400 0.624400
C51 C 0.550700 0.024960 0.720520
H52 H 0.652600 -0.006700 0.693600
C53 C 0.590300 -0.010880 0.849390
H54 H 0.752500 -0.001400 0.912500
H55 H 0.484800 0.016200 0.875800
H56 H 0.558400 -0.069900 0.840800
C57 C 0.292600 0.009870 0.620350
H58 H 0.267500 0.032300 0.539400
H59 H 0.260900 -0.049100 0.611800
H60 H 0.187200 0.036900 0.646900
O61 O 1.047140 0.201630 0.646970
H62 H 1.008000 0.214900 0.572600
O63 O 0.888210 0.268340 0.892830
H64 H 0.751000 0.251100 0.869200
O65 O 0.516620 0.165720 0.794790
H66 H 0.377000 0.174000 0.746000
C67 C 0.921590 0.246300 0.196120
C68 C 0.985660 0.283700 0.328550
H69 H 1.159700 0.283900 0.379400
C70 C 0.896730 0.373360 0.318340
H71 H 0.935100 0.393500 0.403500
H72 H 0.980200 0.408400 0.284800
C73 C 0.627070 0.382010 0.231780
C74 C 0.561650 0.343230 0.100110
H75 H 0.628600 0.377300 0.056500
H76 H 0.389600 0.343500 0.048700
C77 C 0.652840 0.253550 0.110270
H78 H 0.614700 0.233400 0.025200
H79 H 0.571000 0.218100 0.144200
C80 C 1.008500 0.156590 0.207390
H81 H 0.924800 0.122100 0.240100
H82 H 1.176500 0.154400 0.264800
H83 H 0.979200 0.136600 0.124400
C84 C 0.550700 0.475040 0.220520
H85 H 0.652600 0.506700 0.193600
C86 C 0.590300 0.510880 0.349390
H87 H 0.752500 0.501400 0.412500
H88 H 0.484800 0.483800 0.375800
H89 H 0.558400 0.569900 0.340800
C90 C 0.292600 0.490130 0.120350
H91 H 0.267500 0.467700 0.039400
H92 H 0.260900 0.549100 0.111800
H93 H 0.187200 0.463100 0.146900
O94 O 1.047140 0.298370 0.146970
H95 H 1.008000 0.285100 0.072600
O96 O 0.888210 0.231660 0.392830
H97 H 0.751000 0.248900 0.369200
O98 O 0.516620 0.334280 0.294790
H99 H 0.377000 0.326000 0.246000
C100 C 0.078410 0.746300 0.303880
C101 C 0.014340 0.783700 0.171450
H102 H -0.159700 0.783900 0.120600
C103 C 0.103270 0.873360 0.181660
H104 H 0.064900 0.893500 0.096500
H105 H 0.019800 0.908400 0.215200
C106 C 0.372930 0.882010 0.268220
C107 C 0.438350 0.843230 0.399890
H108 H 0.371400 0.877300 0.443500
H109 H 0.610400 0.843500 0.451300
C110 C 0.347160 0.753550 0.389730
H111 H 0.385300 0.733400 0.474800
H112 H 0.429000 0.718100 0.355800
C113 C -0.008500 0.656590 0.292610
H114 H 0.075200 0.622100 0.259900
H115 H -0.176500 0.654400 0.235200
H116 H 0.020800 0.636600 0.375600
C117 C 0.449300 0.975040 0.279480
H118 H 0.347400 1.006700 0.306400
C119 C 0.409700 1.010880 0.150610
H120 H 0.247500 1.001400 0.087500
H121 H 0.515200 0.983800 0.124200
H122 H 0.441600 1.069900 0.159200
C123 C 0.707400 0.990130 0.379650
H124 H 0.732500 0.967700 0.460600
H125 H 0.739100 1.049100 0.388200
H126 H 0.812800 0.963100 0.353100
O127 O -0.047140 0.798370 0.353030
H128 H -0.008000 0.785100 0.427400
O129 O 0.111790 0.731660 0.107170
H130 H 0.249000 0.748900 0.130800
O131 O 0.483380 0.834280 0.205210
H132 H 0.623000 0.826000 0.254000

#END
