
#######################################################################
#
#                 Cambridge Crystallographic Data Centre
#                                CCDC 
#
#######################################################################
#
# If this CIF has been generated from an entry in the Cambridge 
# Structural Database, then it will include bibliographic, chemical, 
# crystal, experimental, refinement or atomic coordinate data resulting 
# from the CCDC's data processing and validation procedures.
#
#######################################################################

data_KACWAO
_symmetry_cell_setting           monoclinic
_symmetry_space_group_name_H-M   'P 21/n'
_symmetry_Int_Tables_number      14
_space_group_name_Hall           '-P 2yn'
loop_
_symmetry_equiv_pos_site_id
_symmetry_equiv_pos_as_xyz
1 x,y,z
2 1/2-x,1/2+y,1/2-z
3 -x,-y,-z
4 1/2+x,1/2-y,1/2+z
_cell_length_a                   9.4780(10)
_cell_length_b                   38.683(4)
_cell_length_c                   9.8990(10)
_cell_angle_alpha                90
_cell_angle_beta                 101.680(10)
_cell_angle_gamma                90
_cell_volume                     3554.19
loop_
_atom_site_label
_atom_site_type_symbol
_atom_site_fract_x
_atom_site_fract_y
_atom_site_fract_z
Tc1 Tc 0.60476(8) 0.155789(18) 0.97211(6)
O1 O 0.7226(5) 0.18415(14) 0.9053(4)
O2 O 0.5021(8) 0.13446(18) 0.8404(5)
O3 O 0.7026(7) 0.12795(15) 1.0834(5)
O4 O 0.4998(6) 0.17849(16) 1.0561(5)
Ge1 Ge 0.73328(9) 0.21175(2) 0.75465(7)
C1 C 0.6325(8) 0.25269(19) 0.7853(6)
C2 C 0.6387(9) 0.2647(2) 0.9206(6)
H1 H 0.6857 0.2517 0.9954
C3 C 0.5751(10) 0.2956(2) 0.9421(8)
H2 H 0.5789 0.3034 1.0317
C4 C 0.5063(10) 0.3151(2) 0.8329(8)
H3 H 0.4633 0.3359 0.8488
C5 C 0.5006(9) 0.3040(2) 0.6996(8)
H4 H 0.4563 0.3177 0.6258
C6 C 0.5597(9) 0.2731(2) 0.6758(7)
H5 H 0.5518 0.2654 0.5856
C7 C 0.6469(9) 0.1842(2) 0.5970(6)
C8 C 0.5001(9) 0.1856(2) 0.5444(7)
H6 H 0.4419 0.1998 0.5856
C9 C 0.4396(9) 0.1658(2) 0.4305(7)
H7 H 0.3412 0.1671 0.3944
C10 C 0.5254(12) 0.1445(2) 0.3711(8)
H8 H 0.4846 0.1314 0.2942
C11 C 0.6709(11) 0.1421(2) 0.4237(8)
H9 H 0.7279 0.1273 0.3839
C12 C 0.7321(10) 0.1623(2) 0.5374(7)
H10 H 0.8305 0.1610 0.5732
C13 C 0.9379(8) 0.2188(2) 0.7816(6)
C14 C 1.0345(9) 0.1921(2) 0.8294(6)
H11 H 0.9991 0.1703 0.8435
C15 C 1.1807(10) 0.1975(3) 0.8558(7)
H12 H 1.2437 0.1794 0.8861
C16 C 1.2336(9) 0.2303(3) 0.8371(7)
H13 H 1.3324 0.2342 0.8561
C17 C 1.1401(10) 0.2571(2) 0.7903(7)
H14 H 1.1760 0.2789 0.7769
C18 C 0.9937(9) 0.2515(2) 0.7636(6)
H15 H 0.9312 0.2697 0.7332
Tc1 Tc 0.89524(8) 0.655789(18) 0.52789(6)
O1 O 0.7774(5) 0.68415(14) 0.5947(4)
O2 O 0.9979(8) 0.63446(18) 0.6596(5)
O3 O 0.7974(7) 0.62795(15) 0.4166(5)
O4 O 1.0002(6) 0.67849(16) 0.4439(5)
Ge1 Ge 0.76672(9) 0.71175(2) 0.74535(7)
C1 C 0.8675(8) 0.75269(19) 0.7147(6)
C2 C 0.8613(9) 0.7647(2) 0.5794(6)
H1 H 0.8143 0.7517 0.5046
C3 C 0.9249(10) 0.7956(2) 0.5579(8)
H2 H 0.9211 0.8034 0.4683
C4 C 0.9937(10) 0.8151(2) 0.6671(8)
H3 H 1.0367 0.8359 0.6512
C5 C 0.9994(9) 0.8040(2) 0.8004(8)
H4 H 1.0437 0.8177 0.8742
C6 C 0.9403(9) 0.7731(2) 0.8242(7)
H5 H 0.9482 0.7654 0.9144
C7 C 0.8531(9) 0.6842(2) 0.9030(6)
C8 C 0.9999(9) 0.6856(2) 0.9556(7)
H6 H 1.0581 0.6998 0.9144
C9 C 1.0604(9) 0.6658(2) 1.0695(7)
H7 H 1.1588 0.6671 1.1056
C10 C 0.9746(12) 0.6445(2) 1.1289(8)
H8 H 1.0154 0.6314 1.2058
C11 C 0.8291(11) 0.6421(2) 1.0763(8)
H9 H 0.7721 0.6273 1.1161
C12 C 0.7679(10) 0.6623(2) 0.9626(7)
H10 H 0.6695 0.6610 0.9268
C13 C 0.5621(8) 0.7188(2) 0.7184(6)
C14 C 0.4655(9) 0.6921(2) 0.6706(6)
H11 H 0.5009 0.6703 0.6565
C15 C 0.3193(10) 0.6975(3) 0.6442(7)
H12 H 0.2563 0.6794 0.6139
C16 C 0.2664(9) 0.7303(3) 0.6629(7)
H13 H 0.1676 0.7342 0.6439
C17 C 0.3599(10) 0.7571(2) 0.7097(7)
H14 H 0.3240 0.7789 0.7231
C18 C 0.5063(9) 0.7515(2) 0.7364(6)
H15 H 0.5688 0.7697 0.7668
Tc1 Tc 0.39524(8) 0.844211(18) 0.02789(6)
O1 O 0.2774(5) 0.81585(14) 0.0947(4)
O2 O 0.4979(8) 0.86554(18) 0.1596(5)
O3 O 0.2974(7) 0.87205(15) -0.0834(5)
O4 O 0.5002(6) 0.82151(16) -0.0561(5)
Ge1 Ge 0.26672(9) 0.78825(2) 0.24535(7)
C1 C 0.3675(8) 0.74731(19) 0.2147(6)
C2 C 0.3613(9) 0.7353(2) 0.0794(6)
H1 H 0.3143 0.7483 0.0046
C3 C 0.4249(10) 0.7044(2) 0.0579(8)
H2 H 0.4211 0.6966 -0.0317
C4 C 0.4937(10) 0.6849(2) 0.1671(8)
H3 H 0.5367 0.6641 0.1512
C5 C 0.4994(9) 0.6960(2) 0.3004(8)
H4 H 0.5437 0.6823 0.3742
C6 C 0.4403(9) 0.7269(2) 0.3242(7)
H5 H 0.4482 0.7346 0.4144
C7 C 0.3531(9) 0.8158(2) 0.4030(6)
C8 C 0.4999(9) 0.8144(2) 0.4556(7)
H6 H 0.5581 0.8002 0.4144
C9 C 0.5604(9) 0.8342(2) 0.5695(7)
H7 H 0.6588 0.8329 0.6056
C10 C 0.4746(12) 0.8555(2) 0.6289(8)
H8 H 0.5154 0.8686 0.7058
C11 C 0.3291(11) 0.8579(2) 0.5763(8)
H9 H 0.2721 0.8727 0.6161
C12 C 0.2679(10) 0.8377(2) 0.4626(7)
H10 H 0.1695 0.8390 0.4268
C13 C 0.0621(8) 0.7812(2) 0.2184(6)
C14 C -0.0345(9) 0.8079(2) 0.1706(6)
H11 H 0.0009 0.8297 0.1565
C15 C -0.1807(10) 0.8025(3) 0.1442(7)
H12 H -0.2437 0.8206 0.1139
C16 C -0.2336(9) 0.7697(3) 0.1629(7)
H13 H -0.3324 0.7658 0.1439
C17 C -0.1401(10) 0.7429(2) 0.2097(7)
H14 H -0.1760 0.7211 0.2231
C18 C 0.0063(9) 0.7485(2) 0.2364(6)
H15 H 0.0688 0.7303 0.2668
Tc1 Tc 0.10476(8) 0.344211(18) 0.47211(6)
O1 O 0.2226(5) 0.31585(14) 0.4053(4)
O2 O 0.0021(8) 0.36554(18) 0.3404(5)
O3 O 0.2026(7) 0.37205(15) 0.5834(5)
O4 O -0.0002(6) 0.32151(16) 0.5561(5)
Ge1 Ge 0.23328(9) 0.28825(2) 0.25465(7)
C1 C 0.1325(8) 0.24731(19) 0.2853(6)
C2 C 0.1387(9) 0.2353(2) 0.4206(6)
H1 H 0.1857 0.2483 0.4954
C3 C 0.0751(10) 0.2044(2) 0.4421(8)
H2 H 0.0789 0.1966 0.5317
C4 C 0.0063(10) 0.1849(2) 0.3329(8)
H3 H -0.0367 0.1641 0.3488
C5 C 0.0006(9) 0.1960(2) 0.1996(8)
H4 H -0.0437 0.1823 0.1258
C6 C 0.0597(9) 0.2269(2) 0.1758(7)
H5 H 0.0518 0.2346 0.0856
C7 C 0.1469(9) 0.3158(2) 0.0970(6)
C8 C 0.0001(9) 0.3144(2) 0.0444(7)
H6 H -0.0581 0.3002 0.0856
C9 C -0.0604(9) 0.3342(2) -0.0695(7)
H7 H -0.1588 0.3329 -0.1056
C10 C 0.0254(12) 0.3555(2) -0.1289(8)
H8 H -0.0154 0.3686 -0.2058
C11 C 0.1709(11) 0.3579(2) -0.0763(8)
H9 H 0.2279 0.3727 -0.1161
C12 C 0.2321(10) 0.3377(2) 0.0374(7)
H10 H 0.3305 0.3390 0.0732
C13 C 0.4379(8) 0.2812(2) 0.2816(6)
C14 C 0.5345(9) 0.3079(2) 0.3294(6)
H11 H 0.4991 0.3297 0.3435
C15 C 0.6807(10) 0.3025(3) 0.3558(7)
H12 H 0.7437 0.3206 0.3861
C16 C 0.7336(9) 0.2697(3) 0.3371(7)
H13 H 0.8324 0.2658 0.3561
C17 C 0.6401(10) 0.2429(2) 0.2903(7)
H14 H 0.6760 0.2211 0.2769
C18 C 0.4937(9) 0.2485(2) 0.2636(6)
H15 H 0.4312 0.2303 0.2332
Tc2 Tc 0.14497(9) 0.096289(19) 0.06805(6)
O5 O 0.0935(6) 0.05479(14) 0.1251(4)
O6 O 0.2913(9) 0.0924(2) 0.0044(8)
O7 O 0.1748(10) 0.12376(16) 0.1992(6)
O8 O 0.0149(8) 0.11198(17) -0.0583(5)
Ge2 Ge 0.05458(9) 0.03193(2) 0.27696(7)
C19 C 0.1807(9) -0.00719(19) 0.2926(7)
C20 C 0.2780(9) -0.0145(2) 0.4144(7)
H16 H 0.2859 0.0004 0.4893
C21 C 0.3625(10) -0.0435(3) 0.4248(9)
H17 H 0.4268 -0.0481 0.5070
C22 C 0.3537(10) -0.0660(2) 0.3149(10)
H18 H 0.4089 -0.0861 0.3242
C23 C 0.2621(11) -0.0584(3) 0.1908(9)
H19 H 0.2600 -0.0727 0.1148
C24 C 0.1741(9) -0.0298(2) 0.1798(7)
H20 H 0.1100 -0.0253 0.0974
C25 C 0.0977(9) 0.06430(19) 0.4272(6)
C26 C -0.0096(9) 0.0740(2) 0.4980(7)
H21 H -0.1024 0.0653 0.4702
C27 C 0.0208(10) 0.0965(2) 0.6090(7)
H22 H -0.0502 0.1023 0.6575
C28 C 0.1580(11) 0.1103(2) 0.6470(7)
H23 H 0.1784 0.1258 0.7203
C29 C 0.2638(9) 0.1014(2) 0.5778(7)
H24 H 0.3554 0.1109 0.6043
C30 C 0.2351(10) 0.0782(2) 0.4680(7)
H25 H 0.3078 0.0720 0.4221
C31 C -0.1462(9) 0.0208(2) 0.2255(6)
C32 C -0.2459(11) 0.0481(2) 0.1935(7)
H26 H -0.2120 0.0706 0.1908
C33 C -0.3942(11) 0.0422(3) 0.1658(8)
H27 H -0.4589 0.0604 0.1455
C34 C -0.4429(11) 0.0086(3) 0.1692(7)
H28 H -0.5415 0.0043 0.1529
C35 C -0.3465(11) -0.0189(2) 0.1968(7)
H29 H -0.3805 -0.0414 0.1957
C36 C -0.1999(10) -0.0124(2) 0.2257(7)
H30 H -0.1361 -0.0309 0.2458
Tc2 Tc 0.35503(9) 0.596289(19) 0.43195(6)
O5 O 0.4065(6) 0.55479(14) 0.3749(4)
O6 O 0.2087(9) 0.5924(2) 0.4956(8)
O7 O 0.3252(10) 0.62376(16) 0.3008(6)
O8 O 0.4851(8) 0.61198(17) 0.5583(5)
Ge2 Ge 0.44542(9) 0.53193(2) 0.22304(7)
C19 C 0.3193(9) 0.49281(19) 0.2074(7)
C20 C 0.2220(9) 0.4855(2) 0.0856(7)
H16 H 0.2141 0.5004 0.0107
C21 C 0.1375(10) 0.4565(3) 0.0752(9)
H17 H 0.0732 0.4519 -0.0070
C22 C 0.1463(10) 0.4340(2) 0.1851(10)
H18 H 0.0911 0.4139 0.1758
C23 C 0.2379(11) 0.4416(3) 0.3092(9)
H19 H 0.2400 0.4273 0.3852
C24 C 0.3259(9) 0.4702(2) 0.3202(7)
H20 H 0.3900 0.4747 0.4026
C25 C 0.4023(9) 0.56430(19) 0.0728(6)
C26 C 0.5096(9) 0.5740(2) 0.0020(7)
H21 H 0.6024 0.5653 0.0298
C27 C 0.4792(10) 0.5965(2) -0.1090(7)
H22 H 0.5502 0.6023 -0.1575
C28 C 0.3420(11) 0.6103(2) -0.1470(7)
H23 H 0.3216 0.6258 -0.2203
C29 C 0.2362(9) 0.6014(2) -0.0778(7)
H24 H 0.1446 0.6109 -0.1043
C30 C 0.2649(10) 0.5782(2) 0.0320(7)
H25 H 0.1922 0.5720 0.0779
C31 C 0.6462(9) 0.5208(2) 0.2745(6)
C32 C 0.7459(11) 0.5481(2) 0.3065(7)
H26 H 0.7120 0.5706 0.3092
C33 C 0.8942(11) 0.5422(3) 0.3342(8)
H27 H 0.9589 0.5604 0.3545
C34 C 0.9429(11) 0.5086(3) 0.3308(7)
H28 H 1.0415 0.5043 0.3471
C35 C 0.8465(11) 0.4811(2) 0.3032(7)
H29 H 0.8805 0.4586 0.3043
C36 C 0.6999(10) 0.4876(2) 0.2743(7)
H30 H 0.6361 0.4691 0.2542
Tc2 Tc 0.85503(9) 0.903711(19) 0.93195(6)
O5 O 0.9065(6) 0.94521(14) 0.8749(4)
O6 O 0.7087(9) 0.9076(2) 0.9956(8)
O7 O 0.8252(10) 0.87624(16) 0.8008(6)
O8 O 0.9851(8) 0.88802(17) 1.0583(5)
Ge2 Ge 0.94542(9) 0.96807(2) 0.72304(7)
C19 C 0.8193(9) 1.00719(19) 0.7074(7)
C20 C 0.7220(9) 1.0145(2) 0.5856(7)
H16 H 0.7141 0.9996 0.5107
C21 C 0.6375(10) 1.0435(3) 0.5752(9)
H17 H 0.5732 1.0481 0.4930
C22 C 0.6463(10) 1.0660(2) 0.6851(10)
H18 H 0.5911 1.0861 0.6758
C23 C 0.7379(11) 1.0584(3) 0.8092(9)
H19 H 0.7400 1.0727 0.8852
C24 C 0.8259(9) 1.0298(2) 0.8202(7)
H20 H 0.8900 1.0253 0.9026
C25 C 0.9023(9) 0.93570(19) 0.5728(6)
C26 C 1.0096(9) 0.9260(2) 0.5020(7)
H21 H 1.1024 0.9347 0.5298
C27 C 0.9792(10) 0.9035(2) 0.3910(7)
H22 H 1.0502 0.8977 0.3425
C28 C 0.8420(11) 0.8897(2) 0.3530(7)
H23 H 0.8216 0.8742 0.2797
C29 C 0.7362(9) 0.8986(2) 0.4222(7)
H24 H 0.6446 0.8891 0.3957
C30 C 0.7649(10) 0.9218(2) 0.5320(7)
H25 H 0.6922 0.9280 0.5779
C31 C 1.1462(9) 0.9792(2) 0.7745(6)
C32 C 1.2459(11) 0.9519(2) 0.8065(7)
H26 H 1.2120 0.9294 0.8092
C33 C 1.3942(11) 0.9578(3) 0.8342(8)
H27 H 1.4589 0.9396 0.8545
C34 C 1.4429(11) 0.9914(3) 0.8308(7)
H28 H 1.5415 0.9957 0.8471
C35 C 1.3465(11) 1.0189(2) 0.8032(7)
H29 H 1.3805 1.0414 0.8043
C36 C 1.1999(10) 1.0124(2) 0.7743(7)
H30 H 1.1361 1.0309 0.7542
Tc2 Tc 0.64497(9) 0.403711(19) 0.56805(6)
O5 O 0.5935(6) 0.44521(14) 0.6251(4)
O6 O 0.7913(9) 0.4076(2) 0.5044(8)
O7 O 0.6748(10) 0.37624(16) 0.6992(6)
O8 O 0.5149(8) 0.38802(17) 0.4417(5)
Ge2 Ge 0.55458(9) 0.46807(2) 0.77696(7)
C19 C 0.6807(9) 0.50719(19) 0.7926(7)
C20 C 0.7780(9) 0.5145(2) 0.9144(7)
H16 H 0.7859 0.4996 0.9893
C21 C 0.8625(10) 0.5435(3) 0.9248(9)
H17 H 0.9268 0.5481 1.0070
C22 C 0.8537(10) 0.5660(2) 0.8149(10)
H18 H 0.9089 0.5861 0.8242
C23 C 0.7621(11) 0.5584(3) 0.6908(9)
H19 H 0.7600 0.5727 0.6148
C24 C 0.6741(9) 0.5298(2) 0.6798(7)
H20 H 0.6100 0.5253 0.5974
C25 C 0.5977(9) 0.43570(19) 0.9272(6)
C26 C 0.4904(9) 0.4260(2) 0.9980(7)
H21 H 0.3976 0.4347 0.9702
C27 C 0.5208(10) 0.4035(2) 1.1090(7)
H22 H 0.4498 0.3977 1.1575
C28 C 0.6580(11) 0.3897(2) 1.1470(7)
H23 H 0.6784 0.3742 1.2203
C29 C 0.7638(9) 0.3986(2) 1.0778(7)
H24 H 0.8554 0.3891 1.1043
C30 C 0.7351(10) 0.4218(2) 0.9680(7)
H25 H 0.8078 0.4280 0.9221
C31 C 0.3538(9) 0.4792(2) 0.7255(6)
C32 C 0.2541(11) 0.4519(2) 0.6935(7)
H26 H 0.2880 0.4294 0.6908
C33 C 0.1058(11) 0.4578(3) 0.6658(8)
H27 H 0.0411 0.4396 0.6455
C34 C 0.0571(11) 0.4914(3) 0.6692(7)
H28 H -0.0415 0.4957 0.6529
C35 C 0.1535(11) 0.5189(2) 0.6968(7)
H29 H 0.1195 0.5414 0.6957
C36 C 0.3001(10) 0.5124(2) 0.7257(7)
H30 H 0.3639 0.5309 0.7458

#END
