
#######################################################################
#
#                 Cambridge Crystallographic Data Centre
#                                CCDC 
#
#######################################################################
#
# If this CIF has been generated from an entry in the Cambridge 
# Structural Database, then it will include bibliographic, chemical, 
# crystal, experimental, refinement or atomic coordinate data resulting 
# from the CCDC's data processing and validation procedures.
#
#######################################################################

data_KACXOC01
_symmetry_cell_setting           monoclinic
_symmetry_space_group_name_H-M   'P 21/n'
_symmetry_Int_Tables_number      14
_space_group_name_Hall           '-P 2yn'
loop_
_symmetry_equiv_pos_site_id
_symmetry_equiv_pos_as_xyz
1 x,y,z
2 1/2-x,1/2+y,1/2-z
3 -x,-y,-z
4 1/2+x,1/2-y,1/2+z
_cell_length_a                   12.0031(8)
_cell_length_b                   17.5742(12)
_cell_length_c                   19.6302(13)
_cell_angle_alpha                90
_cell_angle_beta                 100.8930(10)
_cell_angle_gamma                90
_cell_volume                     4066.28
loop_
_atom_site_label
_atom_site_type_symbol
_atom_site_fract_x
_atom_site_fract_y
_atom_site_fract_z
C1 C -0.01712(14) 0.15616(10) 0.25022(9)
H1 H 0.0070(4) 0.1092(7) 0.2336(2)
H2 H -0.0696(8) 0.1450(2) 0.2797(4)
C2 C -0.07618(15) 0.20337(10) 0.18899(9)
H3 H -0.1332(9) 0.2356(5) 0.2029(2)
H4 H -0.1128(6) 0.1705(5) 0.1520(5)
C3 C -0.03527(16) 0.33438(10) 0.10173(9)
C4 C -0.10902(19) 0.38479(13) 0.12431(12)
H5 H -0.1255(5) 0.37992(18) 0.1698(12)
C5 C -0.1590(2) 0.44249(14) 0.08065(14)
H6 H -0.2095(15) 0.4766(10) 0.0959(5)
C6 C -0.1350(2) 0.44984(14) 0.01565(14)
H7 H -0.1695(10) 0.4908(12) -0.0145(9)
C7 C -0.0634(2) 0.40033(14) -0.00701(12)
H8 H -0.0489(5) 0.4053(2) -0.0499(13)
C8 C -0.0121(2) 0.34179(12) 0.03551(10)
H9 H 0.0398(13) 0.3063(9) 0.0188(4)
C9 C 0.10867(16) 0.20022(9) 0.11149(8)
C10 C 0.05239(19) 0.14909(10) 0.06264(9)
H10 H -0.0334(19) 0.14495(14) 0.0544(2)
C11 C 0.1138(2) 0.10398(11) 0.02536(10)
H11 H 0.0746(10) 0.0684(9) -0.0087(9)
C12 C 0.2290(2) 0.10932(13) 0.03620(11)
H12 H 0.2671(12) 0.0812(9) 0.0116(8)
C13 C 0.2862(2) 0.15814(15) 0.08523(12)
H13 H 0.367(2) 0.16046(16) 0.0934(3)
C14 C 0.22578(18) 0.20404(12) 0.12277(11)
H14 H 0.2643(10) 0.2377(9) 0.1558(9)
C15 C 0.22406(13) 0.14053(9) 0.30630(8)
C16 C 0.32805(15) 0.16760(12) 0.29578(10)
H15 H 0.3383(3) 0.2208(13) 0.2883(2)
C17 C 0.41700(17) 0.11721(15) 0.29616(12)
H16 H 0.488(2) 0.1354(5) 0.2897(2)
C18 C 0.40207(18) 0.04110(15) 0.30596(12)
H17 H 0.4623(17) 0.0070(10) 0.30486(12)
C19 C 0.29981(17) 0.01402(12) 0.31741(12)
H18 H 0.2909(3) -0.0368(14) 0.3248(2)
C20 C 0.21053(16) 0.06340(10) 0.31783(10)
H19 H 0.1405(16) 0.0448(4) 0.3259(2)
C21 C 0.08270(13) 0.22361(9) 0.38727(8)
C22 C 0.13653(18) 0.18223(12) 0.44342(10)
H20 H 0.1864(13) 0.1440(10) 0.43741(18)
C23 C 0.1157(2) 0.19814(14) 0.50907(11)
H21 H 0.1500(11) 0.1711(9) 0.5453(11)
C24 C 0.0427(2) 0.25507(14) 0.51833(11)
H22 H 0.0288(4) 0.2664(3) 0.5651(13)
C25 C -0.0111(2) 0.29647(14) 0.46267(11)
H23 H -0.0592(15) 0.3331(11) 0.4687(2)
C26 C 0.00944(18) 0.28133(12) 0.39712(10)
H24 H -0.0265(10) 0.3103(8) 0.3592(10)
P1 P 0.03126(4) 0.26101(2) 0.15972(2)
P2 P 0.12666(4) 0.31102(2) 0.25037(2)
P3 P 0.10663(3) 0.20593(2) 0.30068(2)
C1 C 0.51712(14) 0.65616(10) 0.24978(9)
H1 H 0.4930(4) 0.6092(7) 0.2664(2)
H2 H 0.5696(8) 0.6450(2) 0.2203(4)
C2 C 0.57618(15) 0.70337(10) 0.31101(9)
H3 H 0.6332(9) 0.7356(5) 0.2971(2)
H4 H 0.6128(6) 0.6705(5) 0.3480(5)
C3 C 0.53527(16) 0.83438(10) 0.39827(9)
C4 C 0.60902(19) 0.88479(13) 0.37569(12)
H5 H 0.6255(5) 0.87992(18) 0.3302(12)
C5 C 0.6590(2) 0.94249(14) 0.41935(14)
H6 H 0.7095(15) 0.9766(10) 0.4041(5)
C6 C 0.6350(2) 0.94984(14) 0.48435(14)
H7 H 0.6695(10) 0.9908(12) 0.5145(9)
C7 C 0.5634(2) 0.90033(14) 0.50701(12)
H8 H 0.5489(5) 0.9053(2) 0.5499(13)
C8 C 0.5121(2) 0.84179(12) 0.46449(10)
H9 H 0.4602(13) 0.8063(9) 0.4812(4)
C9 C 0.39133(16) 0.70022(9) 0.38851(8)
C10 C 0.44761(19) 0.64909(10) 0.43736(9)
H10 H 0.5334(19) 0.64495(14) 0.4456(2)
C11 C 0.3862(2) 0.60398(11) 0.47464(10)
H11 H 0.4254(10) 0.5684(9) 0.5087(9)
C12 C 0.2710(2) 0.60932(13) 0.46380(11)
H12 H 0.2329(12) 0.5812(9) 0.4884(8)
C13 C 0.2138(2) 0.65814(15) 0.41477(12)
H13 H 0.133(2) 0.66046(16) 0.4066(3)
C14 C 0.27422(18) 0.70404(12) 0.37723(11)
H14 H 0.2357(10) 0.7377(9) 0.3442(9)
C15 C 0.27594(13) 0.64053(9) 0.19370(8)
C16 C 0.17195(15) 0.66760(12) 0.20422(10)
H15 H 0.1617(3) 0.7208(13) 0.2117(2)
C17 C 0.08300(17) 0.61721(15) 0.20384(12)
H16 H 0.012(2) 0.6354(5) 0.2103(2)
C18 C 0.09793(18) 0.54110(15) 0.19404(12)
H17 H 0.0377(17) 0.5070(10) 0.19514(12)
C19 C 0.20019(17) 0.51402(12) 0.18259(12)
H18 H 0.2091(3) 0.4632(14) 0.1752(2)
C20 C 0.28947(16) 0.56340(10) 0.18217(10)
H19 H 0.3595(16) 0.5448(4) 0.1741(2)
C21 C 0.41730(13) 0.72361(9) 0.11273(8)
C22 C 0.36347(18) 0.68223(12) 0.05658(10)
H20 H 0.3136(13) 0.6440(10) 0.06259(18)
C23 C 0.3843(2) 0.69814(14) -0.00907(11)
H21 H 0.3500(11) 0.6711(9) -0.0453(11)
C24 C 0.4573(2) 0.75507(14) -0.01833(11)
H22 H 0.4712(4) 0.7664(3) -0.0651(13)
C25 C 0.5111(2) 0.79647(14) 0.03733(11)
H23 H 0.5592(15) 0.8331(11) 0.0313(2)
C26 C 0.49056(18) 0.78133(12) 0.10288(10)
H24 H 0.5265(10) 0.8103(8) 0.1408(10)
P1 P 0.46874(4) 0.76101(2) 0.34028(2)
P2 P 0.37334(4) 0.81102(2) 0.24963(2)
P3 P 0.39337(3) 0.70593(2) 0.19932(2)
C1 C 1.01712(14) 0.84384(10) 0.74978(9)
H1 H 0.9930(4) 0.8908(7) 0.7664(2)
H2 H 1.0696(8) 0.8550(2) 0.7203(4)
C2 C 1.07618(15) 0.79663(10) 0.81101(9)
H3 H 1.1332(9) 0.7644(5) 0.7971(2)
H4 H 1.1128(6) 0.8295(5) 0.8480(5)
C3 C 1.03527(16) 0.66562(10) 0.89827(9)
C4 C 1.10902(19) 0.61521(13) 0.87569(12)
H5 H 1.1255(5) 0.62008(18) 0.8302(12)
C5 C 1.1590(2) 0.55751(14) 0.91935(14)
H6 H 1.2095(15) 0.5234(10) 0.9041(5)
C6 C 1.1350(2) 0.55016(14) 0.98435(14)
H7 H 1.1695(10) 0.5092(12) 1.0145(9)
C7 C 1.0634(2) 0.59967(14) 1.00701(12)
H8 H 1.0489(5) 0.5947(2) 1.0499(13)
C8 C 1.0121(2) 0.65821(12) 0.96449(10)
H9 H 0.9602(13) 0.6937(9) 0.9812(4)
C9 C 0.89133(16) 0.79978(9) 0.88851(8)
C10 C 0.94761(19) 0.85091(10) 0.93736(9)
H10 H 1.0334(19) 0.85505(14) 0.9456(2)
C11 C 0.8862(2) 0.89602(11) 0.97464(10)
H11 H 0.9254(10) 0.9316(9) 1.0087(9)
C12 C 0.7710(2) 0.89068(13) 0.96380(11)
H12 H 0.7329(12) 0.9188(9) 0.9884(8)
C13 C 0.7138(2) 0.84186(15) 0.91477(12)
H13 H 0.633(2) 0.83954(16) 0.9066(3)
C14 C 0.77422(18) 0.79596(12) 0.87723(11)
H14 H 0.7357(10) 0.7623(9) 0.8442(9)
C15 C 0.77594(13) 0.85947(9) 0.69370(8)
C16 C 0.67195(15) 0.83240(12) 0.70422(10)
H15 H 0.6617(3) 0.7792(13) 0.7117(2)
C17 C 0.58300(17) 0.88279(15) 0.70384(12)
H16 H 0.512(2) 0.8646(5) 0.7103(2)
C18 C 0.59793(18) 0.95890(15) 0.69404(12)
H17 H 0.5377(17) 0.9930(10) 0.69514(12)
C19 C 0.70019(17) 0.98598(12) 0.68259(12)
H18 H 0.7091(3) 1.0368(14) 0.6752(2)
C20 C 0.78947(16) 0.93660(10) 0.68217(10)
H19 H 0.8595(16) 0.9552(4) 0.6741(2)
C21 C 0.91730(13) 0.77639(9) 0.61273(8)
C22 C 0.86347(18) 0.81777(12) 0.55658(10)
H20 H 0.8136(13) 0.8560(10) 0.56259(18)
C23 C 0.8843(2) 0.80186(14) 0.49093(11)
H21 H 0.8500(11) 0.8289(9) 0.4547(11)
C24 C 0.9573(2) 0.74493(14) 0.48167(11)
H22 H 0.9712(4) 0.7336(3) 0.4349(13)
C25 C 1.0111(2) 0.70353(14) 0.53733(11)
H23 H 1.0592(15) 0.6669(11) 0.5313(2)
C26 C 0.99056(18) 0.71867(12) 0.60288(10)
H24 H 1.0265(10) 0.6897(8) 0.6408(10)
P1 P 0.96874(4) 0.73899(2) 0.84028(2)
P2 P 0.87334(4) 0.68898(2) 0.74963(2)
P3 P 0.89337(3) 0.79407(2) 0.69932(2)
C1 C 0.48288(14) 0.34384(10) 0.75022(9)
H1 H 0.5070(4) 0.3908(7) 0.7336(2)
H2 H 0.4304(8) 0.3550(2) 0.7797(4)
C2 C 0.42382(15) 0.29663(10) 0.68899(9)
H3 H 0.3668(9) 0.2644(5) 0.7029(2)
H4 H 0.3872(6) 0.3295(5) 0.6520(5)
C3 C 0.46473(16) 0.16562(10) 0.60173(9)
C4 C 0.39098(19) 0.11521(13) 0.62431(12)
H5 H 0.3745(5) 0.12008(18) 0.6698(12)
C5 C 0.3410(2) 0.05751(14) 0.58065(14)
H6 H 0.2905(15) 0.0234(10) 0.5959(5)
C6 C 0.3650(2) 0.05016(14) 0.51565(14)
H7 H 0.3305(10) 0.0092(12) 0.4855(9)
C7 C 0.4366(2) 0.09967(14) 0.49299(12)
H8 H 0.4511(5) 0.0947(2) 0.4501(13)
C8 C 0.4879(2) 0.15821(12) 0.53551(10)
H9 H 0.5398(13) 0.1937(9) 0.5188(4)
C9 C 0.60867(16) 0.29978(9) 0.61149(8)
C10 C 0.55239(19) 0.35091(10) 0.56264(9)
H10 H 0.4666(19) 0.35505(14) 0.5544(2)
C11 C 0.6138(2) 0.39602(11) 0.52536(10)
H11 H 0.5746(10) 0.4316(9) 0.4913(9)
C12 C 0.7290(2) 0.39068(13) 0.53620(11)
H12 H 0.7671(12) 0.4188(9) 0.5116(8)
C13 C 0.7862(2) 0.34186(15) 0.58523(12)
H13 H 0.867(2) 0.33954(16) 0.5934(3)
C14 C 0.72578(18) 0.29596(12) 0.62277(11)
H14 H 0.7643(10) 0.2623(9) 0.6558(9)
C15 C 0.72406(13) 0.35947(9) 0.80630(8)
C16 C 0.82805(15) 0.33240(12) 0.79578(10)
H15 H 0.8383(3) 0.2792(13) 0.7883(2)
C17 C 0.91700(17) 0.38279(15) 0.79616(12)
H16 H 0.988(2) 0.3646(5) 0.7897(2)
C18 C 0.90207(18) 0.45890(15) 0.80596(12)
H17 H 0.9623(17) 0.4930(10) 0.80486(12)
C19 C 0.79981(17) 0.48598(12) 0.81741(12)
H18 H 0.7909(3) 0.5368(14) 0.8248(2)
C20 C 0.71053(16) 0.43660(10) 0.81783(10)
H19 H 0.6405(16) 0.4552(4) 0.8259(2)
C21 C 0.58270(13) 0.27639(9) 0.88727(8)
C22 C 0.63653(18) 0.31777(12) 0.94342(10)
H20 H 0.6864(13) 0.3560(10) 0.93741(18)
C23 C 0.6157(2) 0.30186(14) 1.00907(11)
H21 H 0.6500(11) 0.3289(9) 1.0453(11)
C24 C 0.5427(2) 0.24493(14) 1.01833(11)
H22 H 0.5288(4) 0.2336(3) 1.0651(13)
C25 C 0.4889(2) 0.20353(14) 0.96267(11)
H23 H 0.4408(15) 0.1669(11) 0.9687(2)
C26 C 0.50944(18) 0.21867(12) 0.89712(10)
H24 H 0.4735(10) 0.1897(8) 0.8592(10)
P1 P 0.53126(4) 0.23899(2) 0.65972(2)
P2 P 0.62666(4) 0.18898(2) 0.75037(2)
P3 P 0.60663(3) 0.29407(2) 0.80068(2)
C27 C 0.53730(15) 0.40746(9) 0.21709(8)
C28 C 0.44093(18) 0.37327(12) 0.17745(10)
H25 H 0.4022(9) 0.3333(10) 0.1989(5)
C29 C 0.3980(2) 0.39329(14) 0.10957(10)
H26 H 0.3334(18) 0.3673(7) 0.0842(7)
C30 C 0.44822(19) 0.45072(14) 0.07834(10)
H27 H 0.4181(8) 0.4653(4) 0.0308(13)
C31 C 0.54168(18) 0.48707(13) 0.11552(10)
H28 H 0.5763(9) 0.5275(10) 0.0949(5)
C32 C 0.58558(16) 0.46472(10) 0.18327(9)
H29 H 0.6486(15) 0.4886(6) 0.2065(6)
C33 C 0.68664(14) 0.43805(9) 0.33451(8)
C34 C 0.79690(16) 0.42887(11) 0.32268(11)
H30 H 0.8106(4) 0.3896(10) 0.2923(8)
C35 C 0.88712(19) 0.47380(12) 0.35285(14)
H31 H 0.961(2) 0.4654(3) 0.3428(3)
C36 C 0.8694(2) 0.53111(12) 0.39780(12)
H32 H 0.9269(18) 0.5595(9) 0.4185(6)
C37 C 0.7625(2) 0.54381(11) 0.41008(10)
H33 H 0.7498(4) 0.5834(10) 0.4399(8)
C38 C 0.67278(18) 0.49837(9) 0.37871(8)
H34 H 0.6002(17) 0.5085(3) 0.3875(2)
C39 C 0.63703(15) 0.29434(9) 0.30070(10)
C40 C 0.63572(19) 0.24748(11) 0.24397(14)
H35 H 0.6051(9) 0.2656(5) 0.1993(12)
C41 C 0.6802(2) 0.17191(14) 0.25213(19)
H36 H 0.6794(2) 0.1446(10) 0.2175(13)
C42 C 0.7238(2) 0.14459(14) 0.3166(2)
H37 H 0.7540(9) 0.0873(17) 0.3227(3)
C43 C 0.7291(2) 0.18959(13) 0.37274(19)
H38 H 0.7696(10) 0.1661(6) 0.4293(14)
C44 C 0.68751(19) 0.26301(11) 0.36455(14)
H39 H 0.6933(3) 0.2929(9) 0.4032(11)
C45 C 0.47498(14) 0.38397(9) 0.33717(8)
C46 C 0.44411(16) 0.32720(11) 0.37952(9)
H40 H 0.4880(11) 0.2840(10) 0.3874(2)
C47 C 0.34921(19) 0.33356(15) 0.41041(10)
H41 H 0.3317(5) 0.2945(11) 0.4381(8)
C48 C 0.28160(19) 0.39665(16) 0.40038(11)
H42 H 0.2164(18) 0.4009(2) 0.4222(6)
C49 C 0.30825(19) 0.45370(14) 0.35872(12)
H43 H 0.2593(12) 0.5005(12) 0.3504(2)
C50 C 0.40230(17) 0.44700(11) 0.32810(10)
H44 H 0.4183(4) 0.4865(9) 0.2999(7)
B1 B 0.58408(16) 0.38093(10) 0.29730(9)
C27 C 0.96270(15) 0.90746(9) 0.28291(8)
C28 C 1.05907(18) 0.87327(12) 0.32255(10)
H25 H 1.0978(9) 0.8333(10) 0.3011(5)
C29 C 1.1020(2) 0.89329(14) 0.39043(10)
H26 H 1.1666(18) 0.8673(7) 0.4158(7)
C30 C 1.05178(19) 0.95072(14) 0.42166(10)
H27 H 1.0819(8) 0.9653(4) 0.4692(13)
C31 C 0.95832(18) 0.98707(13) 0.38448(10)
H28 H 0.9237(9) 1.0275(10) 0.4051(5)
C32 C 0.91442(16) 0.96472(10) 0.31673(9)
H29 H 0.8514(15) 0.9886(6) 0.2935(6)
C33 C 0.81336(14) 0.93805(9) 0.16549(8)
C34 C 0.70310(16) 0.92887(11) 0.17732(11)
H30 H 0.6894(4) 0.8896(10) 0.2077(8)
C35 C 0.61288(19) 0.97380(12) 0.14715(14)
H31 H 0.539(2) 0.9654(3) 0.1572(3)
C36 C 0.6306(2) 1.03111(12) 0.10220(12)
H32 H 0.5731(18) 1.0595(9) 0.0815(6)
C37 C 0.7375(2) 1.04381(11) 0.08992(10)
H33 H 0.7502(4) 1.0834(10) 0.0601(8)
C38 C 0.82722(18) 0.99837(9) 0.12129(8)
H34 H 0.8998(17) 1.0085(3) 0.1125(2)
C39 C 0.86297(15) 0.79434(9) 0.19930(10)
C40 C 0.86428(19) 0.74748(11) 0.25603(14)
H35 H 0.8949(9) 0.7656(5) 0.3007(12)
C41 C 0.8198(2) 0.67191(14) 0.24787(19)
H36 H 0.8206(2) 0.6446(10) 0.2825(13)
C42 C 0.7762(2) 0.64459(14) 0.1834(2)
H37 H 0.7460(9) 0.5873(17) 0.1773(3)
C43 C 0.7709(2) 0.68959(13) 0.12726(19)
H38 H 0.7304(10) 0.6661(6) 0.0707(14)
C44 C 0.81249(19) 0.76301(11) 0.13545(14)
H39 H 0.8067(3) 0.7929(9) 0.0968(11)
C45 C 1.02502(14) 0.88397(9) 0.16283(8)
C46 C 1.05589(16) 0.82720(11) 0.12048(9)
H40 H 1.0120(11) 0.7840(10) 0.1126(2)
C47 C 1.15079(19) 0.83356(15) 0.08959(10)
H41 H 1.1683(5) 0.7945(11) 0.0619(8)
C48 C 1.21840(19) 0.89665(16) 0.09962(11)
H42 H 1.2836(18) 0.9009(2) 0.0778(6)
C49 C 1.19175(19) 0.95370(14) 0.14128(12)
H43 H 1.2407(12) 1.0005(12) 0.1496(2)
C50 C 1.09770(17) 0.94700(11) 0.17190(10)
H44 H 1.0817(4) 0.9865(9) 0.2001(7)
B1 B 0.91592(16) 0.88093(10) 0.20270(9)
C27 C 0.46270(15) 0.59254(9) 0.78291(8)
C28 C 0.55907(18) 0.62673(12) 0.82255(10)
H25 H 0.5978(9) 0.6667(10) 0.8011(5)
C29 C 0.6020(2) 0.60671(14) 0.89043(10)
H26 H 0.6666(18) 0.6327(7) 0.9158(7)
C30 C 0.55178(19) 0.54928(14) 0.92166(10)
H27 H 0.5819(8) 0.5347(4) 0.9692(13)
C31 C 0.45832(18) 0.51293(13) 0.88448(10)
H28 H 0.4237(9) 0.4725(10) 0.9051(5)
C32 C 0.41442(16) 0.53528(10) 0.81673(9)
H29 H 0.3514(15) 0.5114(6) 0.7935(6)
C33 C 0.31336(14) 0.56195(9) 0.66549(8)
C34 C 0.20310(16) 0.57113(11) 0.67732(11)
H30 H 0.1894(4) 0.6104(10) 0.7077(8)
C35 C 0.11288(19) 0.52620(12) 0.64715(14)
H31 H 0.039(2) 0.5346(3) 0.6572(3)
C36 C 0.1306(2) 0.46889(12) 0.60220(12)
H32 H 0.0731(18) 0.4405(9) 0.5815(6)
C37 C 0.2375(2) 0.45619(11) 0.58992(10)
H33 H 0.2502(4) 0.4166(10) 0.5601(8)
C38 C 0.32722(18) 0.50163(9) 0.62129(8)
H34 H 0.3998(17) 0.4915(3) 0.6125(2)
C39 C 0.36297(15) 0.70566(9) 0.69930(10)
C40 C 0.36428(19) 0.75252(11) 0.75603(14)
H35 H 0.3949(9) 0.7344(5) 0.8007(12)
C41 C 0.3198(2) 0.82809(14) 0.74787(19)
H36 H 0.3206(2) 0.8554(10) 0.7825(13)
C42 C 0.2762(2) 0.85541(14) 0.6834(2)
H37 H 0.2460(9) 0.9127(17) 0.6773(3)
C43 C 0.2709(2) 0.81041(13) 0.62726(19)
H38 H 0.2304(10) 0.8339(6) 0.5707(14)
C44 C 0.31249(19) 0.73699(11) 0.63545(14)
H39 H 0.3067(3) 0.7071(9) 0.5968(11)
C45 C 0.52502(14) 0.61603(9) 0.66283(8)
C46 C 0.55589(16) 0.67280(11) 0.62048(9)
H40 H 0.5120(11) 0.7160(10) 0.6126(2)
C47 C 0.65079(19) 0.66644(15) 0.58959(10)
H41 H 0.6683(5) 0.7055(11) 0.5619(8)
C48 C 0.71840(19) 0.60335(16) 0.59962(11)
H42 H 0.7836(18) 0.5991(2) 0.5778(6)
C49 C 0.69175(19) 0.54630(14) 0.64128(12)
H43 H 0.7407(12) 0.4995(12) 0.6496(2)
C50 C 0.59770(17) 0.55300(11) 0.67190(10)
H44 H 0.5817(4) 0.5135(9) 0.7001(7)
B1 B 0.41592(16) 0.61907(10) 0.70270(9)
C27 C 0.03730(15) 0.09254(9) 0.71709(8)
C28 C -0.05907(18) 0.12673(12) 0.67745(10)
H25 H -0.0978(9) 0.1667(10) 0.6989(5)
C29 C -0.1020(2) 0.10671(14) 0.60957(10)
H26 H -0.1666(18) 0.1327(7) 0.5842(7)
C30 C -0.05178(19) 0.04928(14) 0.57834(10)
H27 H -0.0819(8) 0.0347(4) 0.5308(13)
C31 C 0.04168(18) 0.01293(13) 0.61552(10)
H28 H 0.0763(9) -0.0275(10) 0.5949(5)
C32 C 0.08558(16) 0.03528(10) 0.68327(9)
H29 H 0.1486(15) 0.0114(6) 0.7065(6)
C33 C 0.18664(14) 0.06195(9) 0.83451(8)
C34 C 0.29690(16) 0.07113(11) 0.82268(11)
H30 H 0.3106(4) 0.1104(10) 0.7923(8)
C35 C 0.38712(19) 0.02620(12) 0.85285(14)
H31 H 0.461(2) 0.0346(3) 0.8428(3)
C36 C 0.3694(2) -0.03111(12) 0.89780(12)
H32 H 0.4269(18) -0.0595(9) 0.9185(6)
C37 C 0.2625(2) -0.04381(11) 0.91008(10)
H33 H 0.2498(4) -0.0834(10) 0.9399(8)
C38 C 0.17278(18) 0.00163(9) 0.87871(8)
H34 H 0.1002(17) -0.0085(3) 0.8875(2)
C39 C 0.13703(15) 0.20566(9) 0.80070(10)
C40 C 0.13572(19) 0.25252(11) 0.74397(14)
H35 H 0.1051(9) 0.2344(5) 0.6993(12)
C41 C 0.1802(2) 0.32809(14) 0.75213(19)
H36 H 0.1794(2) 0.3554(10) 0.7175(13)
C42 C 0.2238(2) 0.35541(14) 0.8166(2)
H37 H 0.2540(9) 0.4127(17) 0.8227(3)
C43 C 0.2291(2) 0.31041(13) 0.87274(19)
H38 H 0.2696(10) 0.3339(6) 0.9293(14)
C44 C 0.18751(19) 0.23699(11) 0.86455(14)
H39 H 0.1933(3) 0.2071(9) 0.9032(11)
C45 C -0.02502(14) 0.11603(9) 0.83717(8)
C46 C -0.05589(16) 0.17280(11) 0.87952(9)
H40 H -0.0120(11) 0.2160(10) 0.8874(2)
C47 C -0.15079(19) 0.16644(15) 0.91041(10)
H41 H -0.1683(5) 0.2055(11) 0.9381(8)
C48 C -0.21840(19) 0.10335(16) 0.90038(11)
H42 H -0.2836(18) 0.0991(2) 0.9222(6)
C49 C -0.19175(19) 0.04630(14) 0.85872(12)
H43 H -0.2407(12) -0.0005(12) 0.8504(2)
C50 C -0.09770(17) 0.05300(11) 0.82810(10)
H44 H -0.0817(4) 0.0135(9) 0.7999(7)
B1 B 0.08408(16) 0.11907(10) 0.79730(9)

#END
