./KACXOC01_from_xyz.cif_generated_by_CrystalShift
_symmetry_cell_setting triclinic
_symmetry_space_group_name_H-M 'P 1'
loop_
_symmetry_equiv_pos_site_id
_symmetry_equiv_pos_as_xyz
1 x,y,z
_cell_length_a 12.003100
_cell_length_b 17.574200
_cell_length_c 19.630200
_cell_angle_alpha 90.000000
_cell_angle_beta 100.893000
_cell_angle_gamma 90.000000
_cell_volume 4066.278769
loop_
_atom_site_label
_atom_site_type_symbol
_atom_site_fract_x
_atom_site_fract_y
_atom_site_fract_z
C1 C -0.017120 0.156160 0.250220
H2 H 0.007000 0.109200 0.233600
H3 H -0.069600 0.145000 0.279700
C4 C -0.076180 0.203370 0.188990
H5 H -0.133200 0.235600 0.202900
H6 H -0.112800 0.170500 0.152000
C7 C -0.035270 0.334380 0.101730
C8 C -0.109020 0.384790 0.124310
H9 H -0.125500 0.379920 0.169800
C10 C -0.159000 0.442490 0.080650
H11 H -0.209500 0.476600 0.095900
C12 C -0.135000 0.449840 0.015650
H13 H -0.169500 0.490800 -0.014500
C14 C -0.063400 0.400330 -0.007010
H15 H -0.048900 0.405300 -0.049900
C16 C -0.012100 0.341790 0.035510
H17 H 0.039800 0.306300 0.018800
C18 C 0.108670 0.200220 0.111490
C19 C 0.052390 0.149090 0.062640
H20 H -0.033400 0.144950 0.054400
C21 C 0.113800 0.103980 0.025360
H22 H 0.074600 0.068400 -0.008700
C23 C 0.229000 0.109320 0.036200
H24 H 0.267100 0.081200 0.011600
C25 C 0.286200 0.158140 0.085230
H26 H 0.367000 0.160460 0.093400
C27 C 0.225780 0.204040 0.122770
H28 H 0.264300 0.237700 0.155800
C29 C 0.224060 0.140530 0.306300
C30 C 0.328050 0.167600 0.295780
H31 H 0.338300 0.220800 0.288300
C32 C 0.417000 0.117210 0.296160
H33 H 0.488000 0.135400 0.289700
C34 C 0.402070 0.041100 0.305960
H35 H 0.462300 0.007000 0.304860
C36 C 0.299810 0.014020 0.317410
H37 H 0.290900 -0.036800 0.324800
C38 C 0.210530 0.063400 0.317830
H39 H 0.140500 0.044800 0.325900
C40 C 0.082700 0.223610 0.387270
C41 C 0.136530 0.182230 0.443420
H42 H 0.186400 0.144000 0.437410
C43 C 0.115700 0.198140 0.509070
H44 H 0.150000 0.171100 0.545300
C45 C 0.042700 0.255070 0.518330
H46 H 0.028800 0.266400 0.565100
C47 C -0.011100 0.296470 0.462670
H48 H -0.059200 0.333100 0.468700
C49 C 0.009440 0.281330 0.397120
H50 H -0.026500 0.310300 0.359200
P51 P 0.031260 0.261010 0.159720
P52 P 0.126660 0.311020 0.250370
P53 P 0.106630 0.205930 0.300680
C54 C 0.517120 0.656160 0.249780
H55 H 0.493000 0.609200 0.266400
H56 H 0.569600 0.645000 0.220300
C57 C 0.576180 0.703370 0.311010
H58 H 0.633200 0.735600 0.297100
H59 H 0.612800 0.670500 0.348000
C60 C 0.535270 0.834380 0.398270
C61 C 0.609020 0.884790 0.375690
H62 H 0.625500 0.879920 0.330200
C63 C 0.659000 0.942490 0.419350
H64 H 0.709500 0.976600 0.404100
C65 C 0.635000 0.949840 0.484350
H66 H 0.669500 0.990800 0.514500
C67 C 0.563400 0.900330 0.507010
H68 H 0.548900 0.905300 0.549900
C69 C 0.512100 0.841790 0.464490
H70 H 0.460200 0.806300 0.481200
C71 C 0.391330 0.700220 0.388510
C72 C 0.447610 0.649090 0.437360
H73 H 0.533400 0.644950 0.445600
C74 C 0.386200 0.603980 0.474640
H75 H 0.425400 0.568400 0.508700
C76 C 0.271000 0.609320 0.463800
H77 H 0.232900 0.581200 0.488400
C78 C 0.213800 0.658140 0.414770
H79 H 0.133000 0.660460 0.406600
C80 C 0.274220 0.704040 0.377230
H81 H 0.235700 0.737700 0.344200
C82 C 0.275940 0.640530 0.193700
C83 C 0.171950 0.667600 0.204220
H84 H 0.161700 0.720800 0.211700
C85 C 0.083000 0.617210 0.203840
H86 H 0.012000 0.635400 0.210300
C87 C 0.097930 0.541100 0.194040
H88 H 0.037700 0.507000 0.195140
C89 C 0.200190 0.514020 0.182590
H90 H 0.209100 0.463200 0.175200
C91 C 0.289470 0.563400 0.182170
H92 H 0.359500 0.544800 0.174100
C93 C 0.417300 0.723610 0.112730
C94 C 0.363470 0.682230 0.056580
H95 H 0.313600 0.644000 0.062590
C96 C 0.384300 0.698140 -0.009070
H97 H 0.350000 0.671100 -0.045300
C98 C 0.457300 0.755070 -0.018330
H99 H 0.471200 0.766400 -0.065100
C100 C 0.511100 0.796470 0.037330
H101 H 0.559200 0.833100 0.031300
C102 C 0.490560 0.781330 0.102880
H103 H 0.526500 0.810300 0.140800
P104 P 0.468740 0.761010 0.340280
P105 P 0.373340 0.811020 0.249630
P106 P 0.393370 0.705930 0.199320
C107 C 1.017120 0.843840 0.749780
H108 H 0.993000 0.890800 0.766400
H109 H 1.069600 0.855000 0.720300
C110 C 1.076180 0.796630 0.811010
H111 H 1.133200 0.764400 0.797100
H112 H 1.112800 0.829500 0.848000
C113 C 1.035270 0.665620 0.898270
C114 C 1.109020 0.615210 0.875690
H115 H 1.125500 0.620080 0.830200
C116 C 1.159000 0.557510 0.919350
H117 H 1.209500 0.523400 0.904100
C118 C 1.135000 0.550160 0.984350
H119 H 1.169500 0.509200 1.014500
C120 C 1.063400 0.599670 1.007010
H121 H 1.048900 0.594700 1.049900
C122 C 1.012100 0.658210 0.964490
H123 H 0.960200 0.693700 0.981200
C124 C 0.891330 0.799780 0.888510
C125 C 0.947610 0.850910 0.937360
H126 H 1.033400 0.855050 0.945600
C127 C 0.886200 0.896020 0.974640
H128 H 0.925400 0.931600 1.008700
C129 C 0.771000 0.890680 0.963800
H130 H 0.732900 0.918800 0.988400
C131 C 0.713800 0.841860 0.914770
H132 H 0.633000 0.839540 0.906600
C133 C 0.774220 0.795960 0.877230
H134 H 0.735700 0.762300 0.844200
C135 C 0.775940 0.859470 0.693700
C136 C 0.671950 0.832400 0.704220
H137 H 0.661700 0.779200 0.711700
C138 C 0.583000 0.882790 0.703840
H139 H 0.512000 0.864600 0.710300
C140 C 0.597930 0.958900 0.694040
H141 H 0.537700 0.993000 0.695140
C142 C 0.700190 0.985980 0.682590
H143 H 0.709100 1.036800 0.675200
C144 C 0.789470 0.936600 0.682170
H145 H 0.859500 0.955200 0.674100
C146 C 0.917300 0.776390 0.612730
C147 C 0.863470 0.817770 0.556580
H148 H 0.813600 0.856000 0.562590
C149 C 0.884300 0.801860 0.490930
H150 H 0.850000 0.828900 0.454700
C151 C 0.957300 0.744930 0.481670
H152 H 0.971200 0.733600 0.434900
C153 C 1.011100 0.703530 0.537330
H154 H 1.059200 0.666900 0.531300
C155 C 0.990560 0.718670 0.602880
H156 H 1.026500 0.689700 0.640800
P157 P 0.968740 0.738990 0.840280
P158 P 0.873340 0.688980 0.749630
P159 P 0.893370 0.794070 0.699320
C160 C 0.482880 0.343840 0.750220
H161 H 0.507000 0.390800 0.733600
H162 H 0.430400 0.355000 0.779700
C163 C 0.423820 0.296630 0.688990
H164 H 0.366800 0.264400 0.702900
H165 H 0.387200 0.329500 0.652000
C166 C 0.464730 0.165620 0.601730
C167 C 0.390980 0.115210 0.624310
H168 H 0.374500 0.120080 0.669800
C169 C 0.341000 0.057510 0.580650
H170 H 0.290500 0.023400 0.595900
C171 C 0.365000 0.050160 0.515650
H172 H 0.330500 0.009200 0.485500
C173 C 0.436600 0.099670 0.492990
H174 H 0.451100 0.094700 0.450100
C175 C 0.487900 0.158210 0.535510
H176 H 0.539800 0.193700 0.518800
C177 C 0.608670 0.299780 0.611490
C178 C 0.552390 0.350910 0.562640
H179 H 0.466600 0.355050 0.554400
C180 C 0.613800 0.396020 0.525360
H181 H 0.574600 0.431600 0.491300
C182 C 0.729000 0.390680 0.536200
H183 H 0.767100 0.418800 0.511600
C184 C 0.786200 0.341860 0.585230
H185 H 0.867000 0.339540 0.593400
C186 C 0.725780 0.295960 0.622770
H187 H 0.764300 0.262300 0.655800
C188 C 0.724060 0.359470 0.806300
C189 C 0.828050 0.332400 0.795780
H190 H 0.838300 0.279200 0.788300
C191 C 0.917000 0.382790 0.796160
H192 H 0.988000 0.364600 0.789700
C193 C 0.902070 0.458900 0.805960
H194 H 0.962300 0.493000 0.804860
C195 C 0.799810 0.485980 0.817410
H196 H 0.790900 0.536800 0.824800
C197 C 0.710530 0.436600 0.817830
H198 H 0.640500 0.455200 0.825900
C199 C 0.582700 0.276390 0.887270
C200 C 0.636530 0.317770 0.943420
H201 H 0.686400 0.356000 0.937410
C202 C 0.615700 0.301860 1.009070
H203 H 0.650000 0.328900 1.045300
C204 C 0.542700 0.244930 1.018330
H205 H 0.528800 0.233600 1.065100
C206 C 0.488900 0.203530 0.962670
H207 H 0.440800 0.166900 0.968700
C208 C 0.509440 0.218670 0.897120
H209 H 0.473500 0.189700 0.859200
P210 P 0.531260 0.238990 0.659720
P211 P 0.626660 0.188980 0.750370
P212 P 0.606630 0.294070 0.800680
C213 C 0.537300 0.407460 0.217090
C214 C 0.440930 0.373270 0.177450
H215 H 0.402200 0.333300 0.198900
C216 C 0.398000 0.393290 0.109570
H217 H 0.333400 0.367300 0.084200
C218 C 0.448220 0.450720 0.078340
H219 H 0.418100 0.465300 0.030800
C220 C 0.541680 0.487070 0.115520
H221 H 0.576300 0.527500 0.094900
C222 C 0.585580 0.464720 0.183270
H223 H 0.648600 0.488600 0.206500
C224 C 0.686640 0.438050 0.334510
C225 C 0.796900 0.428870 0.322680
H226 H 0.810600 0.389600 0.292300
C227 C 0.887120 0.473800 0.352850
H228 H 0.961000 0.465400 0.342800
C229 C 0.869400 0.531110 0.397800
H230 H 0.926900 0.559500 0.418500
C231 C 0.762500 0.543810 0.410080
H232 H 0.749800 0.583400 0.439900
C233 C 0.672780 0.498370 0.378710
H234 H 0.600200 0.508500 0.387500
C235 C 0.637030 0.294340 0.300700
C236 C 0.635720 0.247480 0.243970
H237 H 0.605100 0.265600 0.199300
C238 C 0.680200 0.171910 0.252130
H239 H 0.679400 0.144600 0.217500
C240 C 0.723800 0.144590 0.316600
H241 H 0.754000 0.087300 0.322700
C242 C 0.729100 0.189590 0.372740
H243 H 0.769600 0.166100 0.429300
C244 C 0.687510 0.263010 0.364550
H245 H 0.693300 0.292900 0.403200
C246 C 0.474980 0.383970 0.337170
C247 C 0.444110 0.327200 0.379520
H248 H 0.488000 0.284000 0.387400
C249 C 0.349210 0.333560 0.410410
H250 H 0.331700 0.294500 0.438100
C251 C 0.281600 0.396650 0.400380
H252 H 0.216400 0.400900 0.422200
C253 C 0.308250 0.453700 0.358720
H254 H 0.259300 0.500500 0.350400
C255 C 0.402300 0.447000 0.328100
H256 H 0.418300 0.486500 0.299900
B257 B 0.584080 0.380930 0.297300
C258 C 0.962700 0.907460 0.282910
C259 C 1.059070 0.873270 0.322550
H260 H 1.097800 0.833300 0.301100
C261 C 1.102000 0.893290 0.390430
H262 H 1.166600 0.867300 0.415800
C263 C 1.051780 0.950720 0.421660
H264 H 1.081900 0.965300 0.469200
C265 C 0.958320 0.987070 0.384480
H266 H 0.923700 1.027500 0.405100
C267 C 0.914420 0.964720 0.316730
H268 H 0.851400 0.988600 0.293500
C269 C 0.813360 0.938050 0.165490
C270 C 0.703100 0.928870 0.177320
H271 H 0.689400 0.889600 0.207700
C272 C 0.612880 0.973800 0.147150
H273 H 0.539000 0.965400 0.157200
C274 C 0.630600 1.031110 0.102200
H275 H 0.573100 1.059500 0.081500
C276 C 0.737500 1.043810 0.089920
H277 H 0.750200 1.083400 0.060100
C278 C 0.827220 0.998370 0.121290
H279 H 0.899800 1.008500 0.112500
C280 C 0.862970 0.794340 0.199300
C281 C 0.864280 0.747480 0.256030
H282 H 0.894900 0.765600 0.300700
C283 C 0.819800 0.671910 0.247870
H284 H 0.820600 0.644600 0.282500
C285 C 0.776200 0.644590 0.183400
H286 H 0.746000 0.587300 0.177300
C287 C 0.770900 0.689590 0.127260
H288 H 0.730400 0.666100 0.070700
C289 C 0.812490 0.763010 0.135450
H290 H 0.806700 0.792900 0.096800
C291 C 1.025020 0.883970 0.162830
C292 C 1.055890 0.827200 0.120480
H293 H 1.012000 0.784000 0.112600
C294 C 1.150790 0.833560 0.089590
H295 H 1.168300 0.794500 0.061900
C296 C 1.218400 0.896650 0.099620
H297 H 1.283600 0.900900 0.077800
C298 C 1.191750 0.953700 0.141280
H299 H 1.240700 1.000500 0.149600
C300 C 1.097700 0.947000 0.171900
H301 H 1.081700 0.986500 0.200100
B302 B 0.915920 0.880930 0.202700
C303 C 0.462700 0.592540 0.782910
C304 C 0.559070 0.626730 0.822550
H305 H 0.597800 0.666700 0.801100
C306 C 0.602000 0.606710 0.890430
H307 H 0.666600 0.632700 0.915800
C308 C 0.551780 0.549280 0.921660
H309 H 0.581900 0.534700 0.969200
C310 C 0.458320 0.512930 0.884480
H311 H 0.423700 0.472500 0.905100
C312 C 0.414420 0.535280 0.816730
H313 H 0.351400 0.511400 0.793500
C314 C 0.313360 0.561950 0.665490
C315 C 0.203100 0.571130 0.677320
H316 H 0.189400 0.610400 0.707700
C317 C 0.112880 0.526200 0.647150
H318 H 0.039000 0.534600 0.657200
C319 C 0.130600 0.468890 0.602200
H320 H 0.073100 0.440500 0.581500
C321 C 0.237500 0.456190 0.589920
H322 H 0.250200 0.416600 0.560100
C323 C 0.327220 0.501630 0.621290
H324 H 0.399800 0.491500 0.612500
C325 C 0.362970 0.705660 0.699300
C326 C 0.364280 0.752520 0.756030
H327 H 0.394900 0.734400 0.800700
C328 C 0.319800 0.828090 0.747870
H329 H 0.320600 0.855400 0.782500
C330 C 0.276200 0.855410 0.683400
H331 H 0.246000 0.912700 0.677300
C332 C 0.270900 0.810410 0.627260
H333 H 0.230400 0.833900 0.570700
C334 C 0.312490 0.736990 0.635450
H335 H 0.306700 0.707100 0.596800
C336 C 0.525020 0.616030 0.662830
C337 C 0.555890 0.672800 0.620480
H338 H 0.512000 0.716000 0.612600
C339 C 0.650790 0.666440 0.589590
H340 H 0.668300 0.705500 0.561900
C341 C 0.718400 0.603350 0.599620
H342 H 0.783600 0.599100 0.577800
C343 C 0.691750 0.546300 0.641280
H344 H 0.740700 0.499500 0.649600
C345 C 0.597700 0.553000 0.671900
H346 H 0.581700 0.513500 0.700100
B347 B 0.415920 0.619070 0.702700
C348 C 0.037300 0.092540 0.717090
C349 C -0.059070 0.126730 0.677450
H350 H -0.097800 0.166700 0.698900
C351 C -0.102000 0.106710 0.609570
H352 H -0.166600 0.132700 0.584200
C353 C -0.051780 0.049280 0.578340
H354 H -0.081900 0.034700 0.530800
C355 C 0.041680 0.012930 0.615520
H356 H 0.076300 -0.027500 0.594900
C357 C 0.085580 0.035280 0.683270
H358 H 0.148600 0.011400 0.706500
C359 C 0.186640 0.061950 0.834510
C360 C 0.296900 0.071130 0.822680
H361 H 0.310600 0.110400 0.792300
C362 C 0.387120 0.026200 0.852850
H363 H 0.461000 0.034600 0.842800
C364 C 0.369400 -0.031110 0.897800
H365 H 0.426900 -0.059500 0.918500
C366 C 0.262500 -0.043810 0.910080
H367 H 0.249800 -0.083400 0.939900
C368 C 0.172780 0.001630 0.878710
H369 H 0.100200 -0.008500 0.887500
C370 C 0.137030 0.205660 0.800700
C371 C 0.135720 0.252520 0.743970
H372 H 0.105100 0.234400 0.699300
C373 C 0.180200 0.328090 0.752130
H374 H 0.179400 0.355400 0.717500
C375 C 0.223800 0.355410 0.816600
H376 H 0.254000 0.412700 0.822700
C377 C 0.229100 0.310410 0.872740
H378 H 0.269600 0.333900 0.929300
C379 C 0.187510 0.236990 0.864550
H380 H 0.193300 0.207100 0.903200
C381 C -0.025020 0.116030 0.837170
C382 C -0.055890 0.172800 0.879520
H383 H -0.012000 0.216000 0.887400
C384 C -0.150790 0.166440 0.910410
H385 H -0.168300 0.205500 0.938100
C386 C -0.218400 0.103350 0.900380
H387 H -0.283600 0.099100 0.922200
C388 C -0.191750 0.046300 0.858720
H389 H -0.240700 -0.000500 0.850400
C390 C -0.097700 0.053000 0.828100
H391 H -0.081700 0.013500 0.799900
B392 B 0.084080 0.119070 0.797300

#END
