./KADPOU01_from_xyz.cif_generated_by_CrystalShift
_symmetry_cell_setting triclinic
_symmetry_space_group_name_H-M 'P 1'
loop_
_symmetry_equiv_pos_site_id
_symmetry_equiv_pos_as_xyz
1 x,y,z
_cell_length_a 9.969000
_cell_length_b 10.001000
_cell_length_c 13.079000
_cell_angle_alpha 111.080000
_cell_angle_beta 96.970000
_cell_angle_gamma 90.510000
_cell_volume 1205.775723
loop_
_atom_site_label
_atom_site_type_symbol
_atom_site_fract_x
_atom_site_fract_y
_atom_site_fract_z
O1 O 0.687400 0.059400 0.233010
O2 O 0.860700 0.369700 0.263440
O3 O 0.563700 0.529500 0.244640
O4 O 0.394900 0.236300 0.260230
C5 C 0.450500 -0.011700 0.232400
C6 C 0.451900 -0.156400 0.136200
H7 H 0.360400 -0.184400 0.096000
H8 H 0.482800 -0.230000 0.165400
H9 H 0.513400 -0.146900 0.085800
C10 C 0.359000 -0.029500 0.314100
H11 H 0.267000 -0.060300 0.275800
H12 H 0.357500 0.062400 0.375400
H13 H 0.394400 -0.101900 0.343000
C14 C 0.590400 0.034600 0.292200
C15 C 0.648200 0.060800 0.396700
H16 H 0.604500 0.052300 0.454900
C17 C 0.786300 0.103400 0.404000
H18 H 0.851900 0.128600 0.467900
C19 C 0.807100 0.101600 0.303600
C20 C 0.928700 0.131300 0.256000
C21 C 0.969700 -0.008600 0.170900
H22 H 0.994200 -0.076600 0.207500
H23 H 1.047400 0.012100 0.138700
H24 H 0.893500 -0.050400 0.112400
C25 C 1.045900 0.191000 0.349700
H26 H 1.065600 0.120800 0.385100
H27 H 1.021000 0.280400 0.404400
H28 H 1.126300 0.209900 0.319600
C29 C 0.898900 0.236100 0.199000
C30 C 0.902800 0.231700 0.095800
H31 H 0.926600 0.152600 0.035600
C32 C 0.864500 0.367900 0.092900
H33 H 0.857100 0.396100 0.030500
C34 C 0.840900 0.448500 0.195800
C35 C 0.801100 0.600100 0.248800
C36 C 0.767300 0.663400 0.158500
H37 H 0.845300 0.657600 0.118400
H38 H 0.745900 0.764000 0.192500
H39 H 0.689100 0.608900 0.106900
C40 C 0.919900 0.690400 0.331900
H41 H 0.997200 0.692900 0.292900
H42 H 0.945500 0.647600 0.387600
H43 H 0.892600 0.788400 0.368300
C44 C 0.681200 0.602600 0.308000
C45 C 0.659300 0.661500 0.414300
H46 H 0.723300 0.717900 0.474900
C47 C 0.523400 0.623900 0.419600
H48 H 0.479700 0.649800 0.484100
C49 C 0.467800 0.544100 0.315100
C50 C 0.330100 0.474600 0.263400
C51 C 0.266600 0.541900 0.181000
H52 H 0.258400 0.644800 0.220100
H53 H 0.176700 0.495600 0.147700
H54 H 0.324400 0.528000 0.122900
C55 C 0.240100 0.499100 0.355000
H56 H 0.234600 0.602400 0.394300
H57 H 0.279100 0.455200 0.407000
H58 H 0.149200 0.455400 0.322100
C59 C 0.340300 0.317000 0.200100
C60 C 0.308600 0.232300 0.093800
H61 H 0.269100 0.261000 0.035600
C62 C 0.345400 0.090100 0.084000
H63 H 0.335900 0.007200 0.018200
C64 C 0.396100 0.097200 0.186000
O65 O 0.312600 0.940600 0.766990
O66 O 0.139300 0.630300 0.736560
O67 O 0.436300 0.470500 0.755360
O68 O 0.605100 0.763700 0.739770
C69 C 0.549500 1.011700 0.767600
C70 C 0.548100 1.156400 0.863800
H71 H 0.639600 1.184400 0.904000
H72 H 0.517200 1.230000 0.834600
H73 H 0.486600 1.146900 0.914200
C74 C 0.641000 1.029500 0.685900
H75 H 0.733000 1.060300 0.724200
H76 H 0.642500 0.937600 0.624600
H77 H 0.605600 1.101900 0.657000
C78 C 0.409600 0.965400 0.707800
C79 C 0.351800 0.939200 0.603300
H80 H 0.395500 0.947700 0.545100
C81 C 0.213700 0.896600 0.596000
H82 H 0.148100 0.871400 0.532100
C83 C 0.192900 0.898400 0.696400
C84 C 0.071300 0.868700 0.744000
C85 C 0.030300 1.008600 0.829100
H86 H 0.005800 1.076600 0.792500
H87 H -0.047400 0.987900 0.861300
H88 H 0.106500 1.050400 0.887600
C89 C -0.045900 0.809000 0.650300
H90 H -0.065600 0.879200 0.614900
H91 H -0.021000 0.719600 0.595600
H92 H -0.126300 0.790100 0.680400
C93 C 0.101100 0.763900 0.801000
C94 C 0.097200 0.768300 0.904200
H95 H 0.073400 0.847400 0.964400
C96 C 0.135500 0.632100 0.907100
H97 H 0.142900 0.603900 0.969500
C98 C 0.159100 0.551500 0.804200
C99 C 0.198900 0.399900 0.751200
C100 C 0.232700 0.336600 0.841500
H101 H 0.154700 0.342400 0.881600
H102 H 0.254100 0.236000 0.807500
H103 H 0.310900 0.391100 0.893100
C104 C 0.080100 0.309600 0.668100
H105 H 0.002800 0.307100 0.707100
H106 H 0.054500 0.352400 0.612400
H107 H 0.107400 0.211600 0.631700
C108 C 0.318800 0.397400 0.692000
C109 C 0.340700 0.338500 0.585700
H110 H 0.276700 0.282100 0.525100
C111 C 0.476600 0.376100 0.580400
H112 H 0.520300 0.350200 0.515900
C113 C 0.532200 0.455900 0.684900
C114 C 0.669900 0.525400 0.736600
C115 C 0.733400 0.458100 0.819000
H116 H 0.741600 0.355200 0.779900
H117 H 0.823300 0.504400 0.852300
H118 H 0.675600 0.472000 0.877100
C119 C 0.759900 0.500900 0.645000
H120 H 0.765400 0.397600 0.605700
H121 H 0.720900 0.544800 0.593000
H122 H 0.850800 0.544600 0.677900
C123 C 0.659700 0.683000 0.799900
C124 C 0.691400 0.767700 0.906200
H125 H 0.730900 0.739000 0.964400
C126 C 0.654600 0.909900 0.916000
H127 H 0.664100 0.992800 0.981800
C128 C 0.603900 0.902800 0.814000

#END
