./KADWAQ_from_xyz.cif_generated_by_CrystalShift
_symmetry_cell_setting triclinic
_symmetry_space_group_name_H-M 'P 1'
loop_
_symmetry_equiv_pos_site_id
_symmetry_equiv_pos_as_xyz
1 x,y,z
_cell_length_a 6.682100
_cell_length_b 9.196000
_cell_length_c 15.886500
_cell_angle_alpha 96.246000
_cell_angle_beta 100.362000
_cell_angle_gamma 110.893000
_cell_volume 881.113343
loop_
_atom_site_label
_atom_site_type_symbol
_atom_site_fract_x
_atom_site_fract_y
_atom_site_fract_z
O1 O 0.592700 -0.015100 0.402400
O2 O 0.298200 -0.462400 0.190300
O3 O 0.232400 0.054100 0.243500
O4 O 0.691000 -0.152700 0.072900
O5 O 0.777000 0.105900 0.081600
O6 O 1.057200 0.811800 0.456200
N7 N 0.440400 -0.217900 0.281100
N8 N 0.589200 0.120900 0.218700
C9 C 0.514800 -0.157200 0.371000
C10 C 0.476100 -0.295100 0.413100
C11 C 0.515100 -0.305900 0.499800
H12 H 0.572200 -0.213800 0.544200
C13 C 0.467800 -0.456600 0.520400
H14 H 0.493000 -0.466800 0.579900
C15 C 0.383800 -0.593600 0.455200
H16 H 0.355000 -0.694500 0.471100
C17 C 0.342300 -0.582700 0.367200
H18 H 0.283600 -0.673900 0.322200
C19 C 0.391100 -0.433000 0.349400
C20 C 0.366200 -0.382700 0.263400
C21 C 0.392200 0.030400 0.230000
C22 C 0.440200 -0.122700 0.213500
H23 H 0.349000 -0.190700 0.156000
C24 C 0.670100 -0.005900 0.204000
H25 H 0.795400 0.002800 0.252100
C26 C 0.714800 -0.028400 0.115900
C27 C 0.850200 0.253100 0.144000
H28 H 0.903100 0.343500 0.114000
H29 H 0.975900 0.259200 0.190000
C30 C 0.671200 0.268600 0.186100
H31 H 0.550900 0.276000 0.141400
C32 C 0.767900 0.415900 0.258000
C33 C 0.812800 0.403800 0.346200
H34 H 0.778600 0.302800 0.362400
C35 C 0.906900 0.539600 0.409200
H36 H 0.933900 0.530700 0.468800
C37 C 0.962500 0.687400 0.388100
C38 C 0.921600 0.701300 0.301100
H39 H 0.961000 0.802600 0.285100
C40 C 0.821900 0.564100 0.238000
H41 H 0.789900 0.573500 0.178600
C42 C 1.111800 0.968900 0.439800
H43 H 1.209100 0.986800 0.399200
H44 H 1.187300 1.044900 0.494600
H45 H 0.976800 0.983100 0.414100
O46 O 1.072900 1.301000 0.922500
O47 O 0.731600 0.857200 0.709500
O48 O 0.442900 0.786500 0.867900
O49 O 1.249800 0.990000 1.039700
O50 O 1.068800 0.731400 1.030900
O51 O 0.338200 0.027100 0.655100
N52 N 0.888500 1.056300 0.831000
N53 N 0.753700 0.719000 0.893500
C54 C 1.000100 1.222900 0.849000
C55 C 1.001400 1.272200 0.763700
C56 C 1.086500 1.421400 0.744500
H57 H 1.159900 1.513200 0.788900
C58 C 1.058800 1.430300 0.656100
H59 H 1.115300 1.530800 0.639700
C60 C 0.950300 1.295000 0.591600
H61 H 0.931100 1.305500 0.532100
C62 C 0.869000 1.144500 0.612100
H63 H 0.799800 1.051700 0.568200
C64 C 0.894100 1.137000 0.699500
C65 C 0.826300 0.998400 0.742300
C66 C 0.637900 0.812700 0.882200
C67 C 0.852500 0.961800 0.897400
H68 H 0.879300 1.030500 0.954800
C69 C 0.971600 0.846000 0.907500
H70 H 1.048000 0.836000 0.859800
C71 C 1.113100 0.866700 0.998000
C72 C 0.943000 0.582600 0.970100
H73 H 0.927400 0.493600 1.001700
H74 H 1.024800 0.571900 0.925200
C75 C 0.714900 0.571500 0.925600
H76 H 0.622800 0.564800 0.969300
C77 C 0.605600 0.424600 0.853800
C78 C 0.594000 0.434000 0.766100
H79 H 0.650800 0.534900 0.750200
C80 C 0.501400 0.299400 0.701900
H81 H 0.492700 0.308000 0.642500
C82 C 0.421700 0.152300 0.724500
C83 C 0.433100 0.138000 0.811400
H84 H 0.380200 0.036500 0.827000
C85 C 0.523600 0.275400 0.875300
H86 H 0.529400 0.266800 0.934600
C87 C 0.234800 -0.130700 0.671200
H88 H 0.343400 -0.157200 0.709700
H89 H 0.177300 -0.206500 0.615800
H90 H 0.113400 -0.135700 0.698900

#END
