
#######################################################################
#
#                 Cambridge Crystallographic Data Centre
#                                CCDC 
#
#######################################################################
#
# If this CIF has been generated from an entry in the Cambridge 
# Structural Database, then it will include bibliographic, chemical, 
# crystal, experimental, refinement or atomic coordinate data resulting 
# from the CCDC's data processing and validation procedures.
#
#######################################################################

data_KAFBOJ
_symmetry_cell_setting           monoclinic
_symmetry_space_group_name_H-M   'P 21/n'
_symmetry_Int_Tables_number      14
_space_group_name_Hall           '-P 2yn'
loop_
_symmetry_equiv_pos_site_id
_symmetry_equiv_pos_as_xyz
1 x,y,z
2 1/2+x,1/2-y,1/2+z
3 -x,-y,-z
4 1/2-x,1/2+y,1/2-z
_cell_length_a                   5.5629(9)
_cell_length_b                   23.988(4)
_cell_length_c                   7.3325(13)
_cell_angle_alpha                90
_cell_angle_beta                 110.761(3)
_cell_angle_gamma                90
_cell_volume                     914.935
loop_
_atom_site_label
_atom_site_type_symbol
_atom_site_fract_x
_atom_site_fract_y
_atom_site_fract_z
I1 I 0.45177(6) 0.114196(13) 0.00055(4)
O1 O 1.2750(8) -0.00971(15) 0.2727(6)
O2 O 1.2647(7) 0.04641(15) 0.5094(5)
C1 C 0.7811(10) 0.1423(2) 0.5187(7)
C2 C 0.8624(11) 0.1825(2) 0.6622(7)
C3 C 1.0511(9) 0.2188(2) 0.6653(7)
C4 C 1.1643(9) 0.21478(19) 0.5275(8)
C5 C 1.0876(9) 0.17381(19) 0.3861(7)
C6 C 0.8924(8) 0.13712(17) 0.3808(6)
C7 C 0.8026(8) 0.09462(18) 0.2238(6)
C8 C 0.9183(9) 0.04761(19) 0.2023(7)
C9 C 1.1689(9) 0.02792(17) 0.3401(6)
H1 H 0.644(7) 0.1186(17) 0.499(8)
H2 H 0.797(13) 0.180(2) 0.761(7)
H3 H 1.094(11) 0.247(2) 0.765(8)
H4 H 1.299(7) 0.2386(18) 0.541(8)
H5 H 1.168(9) 0.1720(19) 0.295(6)
H6 H 0.849(11) 0.022(2) 0.095(9)
H7 H 1.404(12) 0.029(4) 0.566(16)
I1 I -0.04823(6) 0.385804(13) 0.50055(4)
O1 O 0.7750(8) 0.50971(15) 0.7727(6)
O2 O 0.7647(7) 0.45359(15) 1.0094(5)
C1 C 0.2811(10) 0.3577(2) 1.0187(7)
C2 C 0.3624(11) 0.3175(2) 1.1622(7)
C3 C 0.5511(9) 0.2812(2) 1.1653(7)
C4 C 0.6643(9) 0.28522(19) 1.0275(8)
C5 C 0.5876(9) 0.32619(19) 0.8861(7)
C6 C 0.3924(8) 0.36288(17) 0.8808(6)
C7 C 0.3026(8) 0.40538(18) 0.7238(6)
C8 C 0.4183(9) 0.45239(19) 0.7023(7)
C9 C 0.6689(9) 0.47208(17) 0.8401(6)
H1 H 0.144(7) 0.3814(17) 0.999(8)
H2 H 0.297(13) 0.320(2) 1.261(7)
H3 H 0.594(11) 0.253(2) 1.265(8)
H4 H 0.799(7) 0.2614(18) 1.041(8)
H5 H 0.668(9) 0.3280(19) 0.795(6)
H6 H 0.349(11) 0.478(2) 0.595(9)
H7 H 0.904(12) 0.471(4) 1.066(16)
I1 I 0.54823(6) 0.885804(13) 0.99945(4)
O1 O -0.2750(8) 1.00971(15) 0.7273(6)
O2 O -0.2647(7) 0.95359(15) 0.4906(5)
C1 C 0.2189(10) 0.8577(2) 0.4813(7)
C2 C 0.1376(11) 0.8175(2) 0.3378(7)
C3 C -0.0511(9) 0.7812(2) 0.3347(7)
C4 C -0.1643(9) 0.78522(19) 0.4725(8)
C5 C -0.0876(9) 0.82619(19) 0.6139(7)
C6 C 0.1076(8) 0.86288(17) 0.6192(6)
C7 C 0.1974(8) 0.90538(18) 0.7762(6)
C8 C 0.0817(9) 0.95239(19) 0.7977(7)
C9 C -0.1689(9) 0.97208(17) 0.6599(6)
H1 H 0.356(7) 0.8814(17) 0.501(8)
H2 H 0.203(13) 0.820(2) 0.239(7)
H3 H -0.094(11) 0.753(2) 0.235(8)
H4 H -0.299(7) 0.7614(18) 0.459(8)
H5 H -0.168(9) 0.8280(19) 0.705(6)
H6 H 0.151(11) 0.978(2) 0.905(9)
H7 H -0.404(12) 0.971(4) 0.434(16)
I1 I 1.04823(6) 0.614196(13) 0.49945(4)
O1 O 0.2250(8) 0.49029(15) 0.2273(6)
O2 O 0.2353(7) 0.54641(15) -0.0094(5)
C1 C 0.7189(10) 0.6423(2) -0.0187(7)
C2 C 0.6376(11) 0.6825(2) -0.1622(7)
C3 C 0.4489(9) 0.7188(2) -0.1653(7)
C4 C 0.3357(9) 0.71478(19) -0.0275(8)
C5 C 0.4124(9) 0.67381(19) 0.1139(7)
C6 C 0.6076(8) 0.63712(17) 0.1192(6)
C7 C 0.6974(8) 0.59462(18) 0.2762(6)
C8 C 0.5817(9) 0.54761(19) 0.2977(7)
C9 C 0.3311(9) 0.52792(17) 0.1599(6)
H1 H 0.856(7) 0.6186(17) 0.001(8)
H2 H 0.703(13) 0.680(2) -0.261(7)
H3 H 0.406(11) 0.747(2) -0.265(8)
H4 H 0.201(7) 0.7386(18) -0.041(8)
H5 H 0.332(9) 0.6720(19) 0.205(6)
H6 H 0.651(11) 0.522(2) 0.405(9)
H7 H 0.096(12) 0.529(4) -0.066(16)

#END
