
#######################################################################
#
#                 Cambridge Crystallographic Data Centre
#                                CCDC 
#
#######################################################################
#
# If this CIF has been generated from an entry in the Cambridge 
# Structural Database, then it will include bibliographic, chemical, 
# crystal, experimental, refinement or atomic coordinate data resulting 
# from the CCDC's data processing and validation procedures.
#
#######################################################################

data_KAFDIE01
_symmetry_cell_setting           triclinic
_symmetry_space_group_name_H-M   'P -1'
_symmetry_Int_Tables_number      2
_space_group_name_Hall           '-P 1'
loop_
_symmetry_equiv_pos_site_id
_symmetry_equiv_pos_as_xyz
1 x,y,z
2 -x,-y,-z
_cell_length_a                   8.3810(13)
_cell_length_b                   9.3142(15)
_cell_length_c                   15.510(3)
_cell_angle_alpha                73.259(2)
_cell_angle_beta                 79.626(2)
_cell_angle_gamma                82.543(3)
_cell_volume                     1136.57
loop_
_atom_site_label
_atom_site_type_symbol
_atom_site_fract_x
_atom_site_fract_y
_atom_site_fract_z
S1 S -0.08015(9) 0.68854(7) 0.39725(4)
N5 N 0.5005(3) 0.2846(3) -0.14590(16)
N6 N 0.1448(3) 0.5333(2) 0.19365(14)
N7 N 0.0452(3) 0.6194(2) 0.24453(14)
H9 H -0.0181 0.6935 0.2187
N8 N 0.1504(3) 0.4739(3) 0.37036(15)
H10 H 0.2125 0.4243 0.3365
H11 H 0.1547 0.4504 0.4278
C11 C 0.4099(3) 0.3511(3) -0.08360(18)
C12 C 0.2915(3) 0.4712(3) -0.10864(18)
H18 H 0.2724 0.5040 -0.1687
C13 C 0.2037(3) 0.5407(3) -0.04585(18)
H19 H 0.1271 0.6202 -0.0646
C14 C 0.2266(3) 0.4951(3) 0.04516(17)
C15 C 0.3433(3) 0.3757(3) 0.07069(17)
H20 H 0.3615 0.3437 0.1309
C16 C 0.4316(3) 0.3044(3) 0.00908(18)
H21 H 0.5070 0.2242 0.0286
C17 C 0.1312(3) 0.5718(3) 0.10884(17)
H22 H 0.0572 0.6521 0.0874
C18 C 0.0479(3) 0.5867(3) 0.33402(17)
C19 C 0.4840(4) 0.3402(4) -0.2415(2)
H23 H 0.4079 0.4276 -0.2505
H24 H 0.4454 0.2635 -0.2608
H25 H 0.5879 0.3662 -0.2767
C20 C 0.6103(4) 0.1522(3) -0.1181(2)
H26 H 0.6096 0.1277 -0.0535
H27 H 0.7184 0.1716 -0.1491
H28 H 0.5755 0.0693 -0.1332
S1 S 1.08015(9) 0.31146(7) 0.60275(4)
N5 N 0.4995(3) 0.7154(3) 1.14590(16)
N6 N 0.8552(3) 0.4667(2) 0.80635(14)
N7 N 0.9548(3) 0.3806(2) 0.75547(14)
H9 H 1.0181 0.3065 0.7813
N8 N 0.8496(3) 0.5261(3) 0.62964(15)
H10 H 0.7875 0.5757 0.6635
H11 H 0.8453 0.5496 0.5722
C11 C 0.5901(3) 0.6489(3) 1.08360(18)
C12 C 0.7085(3) 0.5288(3) 1.10864(18)
H18 H 0.7276 0.4960 1.1687
C13 C 0.7963(3) 0.4593(3) 1.04585(18)
H19 H 0.8729 0.3798 1.0646
C14 C 0.7734(3) 0.5049(3) 0.95484(17)
C15 C 0.6567(3) 0.6243(3) 0.92931(17)
H20 H 0.6385 0.6563 0.8691
C16 C 0.5684(3) 0.6956(3) 0.99092(18)
H21 H 0.4930 0.7758 0.9714
C17 C 0.8688(3) 0.4282(3) 0.89116(17)
H22 H 0.9428 0.3479 0.9126
C18 C 0.9521(3) 0.4133(3) 0.66598(17)
C19 C 0.5160(4) 0.6598(4) 1.2415(2)
H23 H 0.5921 0.5724 1.2505
H24 H 0.5546 0.7365 1.2608
H25 H 0.4121 0.6338 1.2767
C20 C 0.3897(4) 0.8478(3) 1.1181(2)
H26 H 0.3904 0.8723 1.0535
H27 H 0.2816 0.8284 1.1491
H28 H 0.4245 0.9307 1.1332
S2 S 1.17081(8) 1.06775(8) 0.87086(4)
C1 C 0.4640(3) 0.7939(3) 0.58624(19)
N1 N 0.3426(3) 0.7407(3) 0.55897(18)
C2 C 0.4493(3) 0.8128(3) 0.67461(19)
H1 H 0.3550 0.7880 0.7157
N2 N 0.8655(3) 0.9360(2) 0.75189(14)
C3 C 0.5723(3) 0.8672(3) 0.70083(18)
H2 H 0.5589 0.8797 0.7591
N3 N 0.9991(3) 0.9932(2) 0.76659(14)
H3 H 1.0670 1.0383 0.7214
C4 C 0.7171(3) 0.9043(3) 0.64177(17)
N4 N 0.9254(3) 0.8895(2) 0.91863(15)
H4 H 0.8526 0.8456 0.9054
H5 H 0.9357 0.8763 0.9746
C5 C 0.7290(3) 0.8896(3) 0.55371(18)
H6 H 0.8219 0.9179 0.5121
C6 C 0.6074(3) 0.8346(3) 0.52663(19)
H7 H 0.6207 0.8242 0.4678
C7 C 0.8521(3) 0.9548(3) 0.66858(17)
H8 H 0.9319 1.0027 0.6235
C8 C 1.0215(3) 0.9772(3) 0.85286(17)
C9 C 0.3696(4) 0.7044(4) 0.4721(2)
H12 H 0.4713 0.7393 0.4380
H13 H 0.2828 0.7524 0.4384
H14 H 0.3728 0.5974 0.4826
C10 C 0.1949(4) 0.6998(4) 0.6195(3)
H15 H 0.1918 0.7309 0.6737
H16 H 0.1907 0.5927 0.6353
H17 H 0.1032 0.7484 0.5900
S2 S -0.17081(8) -0.06775(8) 0.12914(4)
C1 C 0.5360(3) 0.2061(3) 0.41376(19)
N1 N 0.6574(3) 0.2593(3) 0.44103(18)
C2 C 0.5507(3) 0.1872(3) 0.32539(19)
H1 H 0.6450 0.2120 0.2843
N2 N 0.1345(3) 0.0640(2) 0.24811(14)
C3 C 0.4277(3) 0.1328(3) 0.29917(18)
H2 H 0.4411 0.1203 0.2409
N3 N 0.0009(3) 0.0068(2) 0.23341(14)
H3 H -0.0670 -0.0383 0.2786
C4 C 0.2829(3) 0.0957(3) 0.35823(17)
N4 N 0.0746(3) 0.1105(2) 0.08137(15)
H4 H 0.1474 0.1544 0.0946
H5 H 0.0643 0.1237 0.0254
C5 C 0.2710(3) 0.1104(3) 0.44629(18)
H6 H 0.1781 0.0821 0.4879
C6 C 0.3926(3) 0.1654(3) 0.47337(19)
H7 H 0.3793 0.1758 0.5322
C7 C 0.1479(3) 0.0452(3) 0.33142(17)
H8 H 0.0681 -0.0027 0.3765
C8 C -0.0215(3) 0.0228(3) 0.14714(17)
C9 C 0.6304(4) 0.2956(4) 0.5279(2)
H12 H 0.5287 0.2607 0.5620
H13 H 0.7172 0.2476 0.5616
H14 H 0.6272 0.4026 0.5174
C10 C 0.8051(4) 0.3002(4) 0.3805(3)
H15 H 0.8082 0.2691 0.3263
H16 H 0.8093 0.4073 0.3647
H17 H 0.8968 0.2516 0.4100

#END
