./KAFDIE_from_xyz.cif_generated_by_CrystalShift
_symmetry_cell_setting triclinic
_symmetry_space_group_name_H-M 'P 1'
loop_
_symmetry_equiv_pos_site_id
_symmetry_equiv_pos_as_xyz
1 x,y,z
_cell_length_a 8.532000
_cell_length_b 9.391000
_cell_length_c 15.592000
_cell_angle_alpha 73.810000
_cell_angle_beta 79.590000
_cell_angle_gamma 82.850000
_cell_volume 1176.366191
loop_
_atom_site_label
_atom_site_type_symbol
_atom_site_fract_x
_atom_site_fract_y
_atom_site_fract_z
S1 S 1.079200 -0.188800 0.102700
N2 N 0.856800 0.025500 0.129600
N3 N 0.957300 -0.118000 0.254500
N4 N 0.858800 -0.032300 0.305600
N5 N 0.503200 0.215700 0.642800
C6 C 0.774800 0.005100 0.453700
C7 C 0.793600 -0.039000 0.544300
C8 C 0.706300 0.029900 0.606300
C9 C 0.593000 0.147900 0.581300
C10 C 0.574600 0.193300 0.489100
C11 C 0.662100 0.122900 0.428400
C12 C 0.956200 -0.087100 0.165600
C13 C 0.869700 -0.070800 0.389800
C14 C 0.395900 0.344700 0.615800
C15 C 0.515500 0.162900 0.737800
H16 H 0.864000 -0.119000 0.564000
H17 H 0.732000 0.002000 0.662000
H18 H 0.495000 0.271000 0.470000
H19 H 0.643000 0.150000 0.367000
H20 H 0.943000 -0.156000 0.415000
H21 H 0.318000 0.327000 0.589000
H22 H 0.452000 0.438000 0.576000
H23 H 0.343000 0.374000 0.663000
H24 H 0.621000 0.168000 0.752000
H25 H 0.441000 0.212000 0.771000
H26 H 0.503000 0.058000 0.764000
H27 H 0.799000 0.080000 0.160000
H28 H 0.872000 0.054000 0.068000
H29 H 1.020000 -0.196000 0.281000
S30 S -0.079200 1.188800 0.897300
N31 N 0.143200 0.974500 0.870400
N32 N 0.042700 1.118000 0.745500
N33 N 0.141200 1.032300 0.694400
N34 N 0.496800 0.784300 0.357200
C35 C 0.225200 0.994900 0.546300
C36 C 0.206400 1.039000 0.455700
C37 C 0.293700 0.970100 0.393700
C38 C 0.407000 0.852100 0.418700
C39 C 0.425400 0.806700 0.510900
C40 C 0.337900 0.877100 0.571600
C41 C 0.043800 1.087100 0.834400
C42 C 0.130300 1.070800 0.610200
C43 C 0.604100 0.655300 0.384200
C44 C 0.484500 0.837100 0.262200
H45 H 0.136000 1.119000 0.436000
H46 H 0.268000 0.998000 0.338000
H47 H 0.505000 0.729000 0.530000
H48 H 0.357000 0.850000 0.633000
H49 H 0.057000 1.156000 0.585000
H50 H 0.682000 0.673000 0.411000
H51 H 0.548000 0.562000 0.424000
H52 H 0.657000 0.626000 0.337000
H53 H 0.379000 0.832000 0.248000
H54 H 0.559000 0.788000 0.229000
H55 H 0.497000 0.942000 0.236000
H56 H 0.201000 0.920000 0.840000
H57 H 0.128000 0.946000 0.932000
H58 H -0.020000 1.196000 0.719000
S59 S -0.164500 0.431800 0.630300
N60 N 0.074300 0.608200 0.582600
N61 N 0.007300 0.504400 0.733100
N62 N 0.139400 0.560900 0.747700
N63 N 0.653800 0.760600 0.937400
C64 C 0.286100 0.595000 0.856400
C65 C 0.274700 0.612600 0.943400
C66 C 0.394100 0.666300 0.969800
C67 C 0.534400 0.705700 0.911100
C68 C 0.548800 0.683300 0.824800
C69 C 0.428000 0.629600 0.798000
C70 C -0.018500 0.520200 0.647900
C71 C 0.153100 0.544100 0.830500
C72 C 0.801000 0.793300 0.878800
C73 C 0.630100 0.798600 1.022900
H74 H 0.175000 0.586000 0.985000
H75 H 0.380000 0.675000 1.028000
H76 H 0.636000 0.702000 0.781000
H77 H 0.446000 0.616000 0.734000
H78 H 0.073000 0.492000 0.878000
H79 H 0.875000 0.808000 0.917000
H80 H 0.838000 0.723000 0.846000
H81 H 0.792000 0.876000 0.834000
H82 H 0.706000 0.842000 1.032000
H83 H 0.603000 0.717000 1.077000
H84 H 0.521000 0.867000 1.034000
H85 H 0.147000 0.645000 0.596000
H86 H 0.077000 0.607000 0.525000
H87 H -0.042000 0.437000 0.776000
S88 S 1.164500 0.568200 0.369700
N89 N 0.925700 0.391800 0.417400
N90 N 0.992700 0.495600 0.266900
N91 N 0.860600 0.439100 0.252300
N92 N 0.346200 0.239400 0.062600
C93 C 0.713900 0.405000 0.143600
C94 C 0.725300 0.387400 0.056600
C95 C 0.605900 0.333700 0.030200
C96 C 0.465600 0.294300 0.088900
C97 C 0.451200 0.316700 0.175200
C98 C 0.572000 0.370400 0.202000
C99 C 1.018500 0.479800 0.352100
C100 C 0.846900 0.455900 0.169500
C101 C 0.199000 0.206700 0.121200
C102 C 0.369900 0.201400 -0.022900
H103 H 0.825000 0.414000 0.015000
H104 H 0.620000 0.325000 -0.028000
H105 H 0.364000 0.298000 0.219000
H106 H 0.554000 0.384000 0.266000
H107 H 0.927000 0.508000 0.122000
H108 H 0.125000 0.192000 0.083000
H109 H 0.162000 0.277000 0.154000
H110 H 0.208000 0.124000 0.166000
H111 H 0.294000 0.158000 -0.032000
H112 H 0.397000 0.283000 -0.077000
H113 H 0.479000 0.133000 -0.034000
H114 H 0.853000 0.355000 0.404000
H115 H 0.923000 0.393000 0.475000
H116 H 1.042000 0.563000 0.224000

#END
