./KAFDIE01_from_xyz.cif_generated_by_CrystalShift
_symmetry_cell_setting triclinic
_symmetry_space_group_name_H-M 'P 1'
loop_
_symmetry_equiv_pos_site_id
_symmetry_equiv_pos_as_xyz
1 x,y,z
_cell_length_a 8.381000
_cell_length_b 9.314200
_cell_length_c 15.510000
_cell_angle_alpha 73.259000
_cell_angle_beta 79.626000
_cell_angle_gamma 82.543000
_cell_volume 1136.570115
loop_
_atom_site_label
_atom_site_type_symbol
_atom_site_fract_x
_atom_site_fract_y
_atom_site_fract_z
S1 S -0.080150 0.688540 0.397250
N2 N 0.500500 0.284600 -0.145900
N3 N 0.144800 0.533300 0.193650
N4 N 0.045200 0.619400 0.244530
H5 H -0.018100 0.693500 0.218700
N6 N 0.150400 0.473900 0.370360
H7 H 0.212500 0.424300 0.336500
H8 H 0.154700 0.450400 0.427800
C9 C 0.409900 0.351100 -0.083600
C10 C 0.291500 0.471200 -0.108640
H11 H 0.272400 0.504000 -0.168700
C12 C 0.203700 0.540700 -0.045850
H13 H 0.127100 0.620200 -0.064600
C14 C 0.226600 0.495100 0.045160
C15 C 0.343300 0.375700 0.070690
H16 H 0.361500 0.343700 0.130900
C17 C 0.431600 0.304400 0.009080
H18 H 0.507000 0.224200 0.028600
C19 C 0.131200 0.571800 0.108840
H20 H 0.057200 0.652100 0.087400
C21 C 0.047900 0.586700 0.334020
C22 C 0.484000 0.340200 -0.241500
H23 H 0.407900 0.427600 -0.250500
H24 H 0.445400 0.263500 -0.260800
H25 H 0.587900 0.366200 -0.276700
C26 C 0.610300 0.152200 -0.118100
H27 H 0.609600 0.127700 -0.053500
H28 H 0.718400 0.171600 -0.149100
H29 H 0.575500 0.069300 -0.133200
S30 S 1.080150 0.311460 0.602750
N31 N 0.499500 0.715400 1.145900
N32 N 0.855200 0.466700 0.806350
N33 N 0.954800 0.380600 0.755470
H34 H 1.018100 0.306500 0.781300
N35 N 0.849600 0.526100 0.629640
H36 H 0.787500 0.575700 0.663500
H37 H 0.845300 0.549600 0.572200
C38 C 0.590100 0.648900 1.083600
C39 C 0.708500 0.528800 1.108640
H40 H 0.727600 0.496000 1.168700
C41 C 0.796300 0.459300 1.045850
H42 H 0.872900 0.379800 1.064600
C43 C 0.773400 0.504900 0.954840
C44 C 0.656700 0.624300 0.929310
H45 H 0.638500 0.656300 0.869100
C46 C 0.568400 0.695600 0.990920
H47 H 0.493000 0.775800 0.971400
C48 C 0.868800 0.428200 0.891160
H49 H 0.942800 0.347900 0.912600
C50 C 0.952100 0.413300 0.665980
C51 C 0.516000 0.659800 1.241500
H52 H 0.592100 0.572400 1.250500
H53 H 0.554600 0.736500 1.260800
H54 H 0.412100 0.633800 1.276700
C55 C 0.389700 0.847800 1.118100
H56 H 0.390400 0.872300 1.053500
H57 H 0.281600 0.828400 1.149100
H58 H 0.424500 0.930700 1.133200
S59 S 1.170810 1.067750 0.870860
C60 C 0.464000 0.793900 0.586240
N61 N 0.342600 0.740700 0.558970
C62 C 0.449300 0.812800 0.674610
H63 H 0.355000 0.788000 0.715700
N64 N 0.865500 0.936000 0.751890
C65 C 0.572300 0.867200 0.700830
H66 H 0.558900 0.879700 0.759100
N67 N 0.999100 0.993200 0.766590
H68 H 1.067000 1.038300 0.721400
C69 C 0.717100 0.904300 0.641770
N70 N 0.925400 0.889500 0.918630
H71 H 0.852600 0.845600 0.905400
H72 H 0.935700 0.876300 0.974600
C73 C 0.729000 0.889600 0.553710
H74 H 0.821900 0.917900 0.512100
C75 C 0.607400 0.834600 0.526630
H76 H 0.620700 0.824200 0.467800
C77 C 0.852100 0.954800 0.668580
H78 H 0.931900 1.002700 0.623500
C79 C 1.021500 0.977200 0.852860
C80 C 0.369600 0.704400 0.472100
H81 H 0.471300 0.739300 0.438000
H82 H 0.282800 0.752400 0.438400
H83 H 0.372800 0.597400 0.482600
C84 C 0.194900 0.699800 0.619500
H85 H 0.191800 0.730900 0.673700
H86 H 0.190700 0.592700 0.635300
H87 H 0.103200 0.748400 0.590000
S88 S -0.170810 -0.067750 0.129140
C89 C 0.536000 0.206100 0.413760
N90 N 0.657400 0.259300 0.441030
C91 C 0.550700 0.187200 0.325390
H92 H 0.645000 0.212000 0.284300
N93 N 0.134500 0.064000 0.248110
C94 C 0.427700 0.132800 0.299170
H95 H 0.441100 0.120300 0.240900
N96 N 0.000900 0.006800 0.233410
H97 H -0.067000 -0.038300 0.278600
C98 C 0.282900 0.095700 0.358230
N99 N 0.074600 0.110500 0.081370
H100 H 0.147400 0.154400 0.094600
H101 H 0.064300 0.123700 0.025400
C102 C 0.271000 0.110400 0.446290
H103 H 0.178100 0.082100 0.487900
C104 C 0.392600 0.165400 0.473370
H105 H 0.379300 0.175800 0.532200
C106 C 0.147900 0.045200 0.331420
H107 H 0.068100 -0.002700 0.376500
C108 C -0.021500 0.022800 0.147140
C109 C 0.630400 0.295600 0.527900
H110 H 0.528700 0.260700 0.562000
H111 H 0.717200 0.247600 0.561600
H112 H 0.627200 0.402600 0.517400
C113 C 0.805100 0.300200 0.380500
H114 H 0.808200 0.269100 0.326300
H115 H 0.809300 0.407300 0.364700
H116 H 0.896800 0.251600 0.410000

#END
