
#######################################################################
#
#                 Cambridge Crystallographic Data Centre
#                                CCDC 
#
#######################################################################
#
# If this CIF has been generated from an entry in the Cambridge 
# Structural Database, then it will include bibliographic, chemical, 
# crystal, experimental, refinement or atomic coordinate data resulting 
# from the CCDC's data processing and validation procedures.
#
#######################################################################

data_KAFLEI
_symmetry_cell_setting           monoclinic
_symmetry_space_group_name_H-M   'P 21/c'
_symmetry_Int_Tables_number      14
_space_group_name_Hall           '-P 2ybc'
loop_
_symmetry_equiv_pos_site_id
_symmetry_equiv_pos_as_xyz
1 x,y,z
2 -x,1/2+y,1/2-z
3 -x,-y,-z
4 x,1/2-y,1/2+z
_cell_length_a                   9.258(4)
_cell_length_b                   10.994(6)
_cell_length_c                   16.768(7)
_cell_angle_alpha                90
_cell_angle_beta                 92.74(3)
_cell_angle_gamma                90
_cell_volume                     1704.74
loop_
_atom_site_label
_atom_site_type_symbol
_atom_site_fract_x
_atom_site_fract_y
_atom_site_fract_z
C1 C 0.7322(13) 0.4967(10) 0.0368(6)
C2 C 0.8035(13) 0.5318(11) -0.0292(7)
C3 C 0.7855(14) 0.4711(11) -0.1009(7)
C4 C 0.6892(12) 0.3727(10) -0.1077(6)
C5 C 0.6111(12) 0.3339(10) -0.0418(6)
N1 N 0.5201(10) 0.2384(7) -0.0555(5)
C6 C 0.4537(11) 0.1970(9) 0.0061(6)
C7 C 0.3513(10) 0.0917(9) -0.0078(6)
C8 C 0.4674(12) 0.2499(9) 0.0852(6)
N2 N 0.3396(9) 0.0514(7) -0.0819(5)
C9 C 0.2491(12) -0.0464(9) -0.0927(6)
C10 C 0.2286(12) -0.0891(9) -0.1705(6)
C11 C 0.1375(13) -0.1810(10) -0.1931(6)
C12 C 0.0598(12) -0.2350(10) -0.1325(7)
C13 C 0.0720(12) -0.1965(10) -0.0543(7)
C14 C 0.1661(10) -0.1027(9) -0.0366(5)
C15 C 0.1785(11) -0.0559(9) 0.0430(6)
C16 C 0.1045(13) -0.0915(9) 0.1110(7)
C17 C 0.1300(13) -0.0320(10) 0.1822(6)
N3 N 0.2215(10) 0.0603(7) 0.1957(5)
C18 C 0.2962(12) 0.0995(10) 0.1342(6)
C19 C 0.3945(12) 0.2048(10) 0.1508(7)
C20 C 0.2767(12) 0.0419(10) 0.0589(5)
N4 N 0.4082(10) 0.2498(8) 0.2231(5)
C21 C 0.4971(12) 0.3467(10) 0.2340(7)
C22 C 0.5697(13) 0.3983(10) 0.1741(7)
C23 C 0.5583(12) 0.3525(9) 0.0950(6)
C24 C 0.6345(11) 0.3976(9) 0.0298(6)
H1 H 0.7466 0.5415 0.0900
H2 H 0.8735 0.6036 -0.0237
H3 H 0.8432 0.4987 -0.1478
H4 H 0.6754 0.3290 -0.1613
H5 H 0.2875 -0.0489 -0.2138
H6 H 0.1261 -0.2096 -0.2513
H7 H -0.0090 -0.3048 -0.1479
H8 H 0.0126 -0.2372 -0.0120
H9 H 0.0359 -0.1624 0.1078
H10 H 0.0703 -0.0601 0.2284
H11 H 0.5087 0.3832 0.2901
H12 H 0.6350 0.4712 0.1870
C1 C 0.2678(13) 0.9967(10) 0.4632(6)
C2 C 0.1965(13) 1.0318(11) 0.5292(7)
C3 C 0.2145(14) 0.9711(11) 0.6009(7)
C4 C 0.3108(12) 0.8727(10) 0.6077(6)
C5 C 0.3889(12) 0.8339(10) 0.5418(6)
N1 N 0.4799(10) 0.7384(7) 0.5555(5)
C6 C 0.5463(11) 0.6970(9) 0.4939(6)
C7 C 0.6487(10) 0.5917(9) 0.5078(6)
C8 C 0.5326(12) 0.7499(9) 0.4148(6)
N2 N 0.6604(9) 0.5514(7) 0.5819(5)
C9 C 0.7509(12) 0.4536(9) 0.5927(6)
C10 C 0.7714(12) 0.4109(9) 0.6705(6)
C11 C 0.8625(13) 0.3190(10) 0.6931(6)
C12 C 0.9402(12) 0.2650(10) 0.6325(7)
C13 C 0.9280(12) 0.3035(10) 0.5543(7)
C14 C 0.8339(10) 0.3973(9) 0.5366(5)
C15 C 0.8215(11) 0.4441(9) 0.4570(6)
C16 C 0.8955(13) 0.4085(9) 0.3890(7)
C17 C 0.8700(13) 0.4680(10) 0.3178(6)
N3 N 0.7785(10) 0.5603(7) 0.3043(5)
C18 C 0.7038(12) 0.5995(10) 0.3658(6)
C19 C 0.6055(12) 0.7048(10) 0.3492(7)
C20 C 0.7233(12) 0.5419(10) 0.4411(5)
N4 N 0.5918(10) 0.7498(8) 0.2769(5)
C21 C 0.5029(12) 0.8467(10) 0.2660(7)
C22 C 0.4303(13) 0.8983(10) 0.3259(7)
C23 C 0.4417(12) 0.8525(9) 0.4050(6)
C24 C 0.3655(11) 0.8976(9) 0.4702(6)
H1 H 0.2534 1.0415 0.4100
H2 H 0.1265 1.1036 0.5237
H3 H 0.1568 0.9987 0.6478
H4 H 0.3246 0.8290 0.6613
H5 H 0.7125 0.4511 0.7138
H6 H 0.8739 0.2904 0.7513
H7 H 1.0090 0.1952 0.6479
H8 H 0.9874 0.2628 0.5120
H9 H 0.9641 0.3376 0.3922
H10 H 0.9297 0.4399 0.2716
H11 H 0.4913 0.8832 0.2099
H12 H 0.3650 0.9712 0.3130
C1 C 0.2678(13) 0.5033(10) 0.9632(6)
C2 C 0.1965(13) 0.4682(11) 1.0292(7)
C3 C 0.2145(14) 0.5289(11) 1.1009(7)
C4 C 0.3108(12) 0.6273(10) 1.1077(6)
C5 C 0.3889(12) 0.6661(10) 1.0418(6)
N1 N 0.4799(10) 0.7616(7) 1.0555(5)
C6 C 0.5463(11) 0.8030(9) 0.9939(6)
C7 C 0.6487(10) 0.9083(9) 1.0078(6)
C8 C 0.5326(12) 0.7501(9) 0.9148(6)
N2 N 0.6604(9) 0.9486(7) 1.0819(5)
C9 C 0.7509(12) 1.0464(9) 1.0927(6)
C10 C 0.7714(12) 1.0891(9) 1.1705(6)
C11 C 0.8625(13) 1.1810(10) 1.1931(6)
C12 C 0.9402(12) 1.2350(10) 1.1325(7)
C13 C 0.9280(12) 1.1965(10) 1.0543(7)
C14 C 0.8339(10) 1.1027(9) 1.0366(5)
C15 C 0.8215(11) 1.0559(9) 0.9570(6)
C16 C 0.8955(13) 1.0915(9) 0.8890(7)
C17 C 0.8700(13) 1.0320(10) 0.8178(6)
N3 N 0.7785(10) 0.9397(7) 0.8043(5)
C18 C 0.7038(12) 0.9005(10) 0.8658(6)
C19 C 0.6055(12) 0.7952(10) 0.8492(7)
C20 C 0.7233(12) 0.9581(10) 0.9411(5)
N4 N 0.5918(10) 0.7502(8) 0.7769(5)
C21 C 0.5029(12) 0.6533(10) 0.7660(7)
C22 C 0.4303(13) 0.6017(10) 0.8259(7)
C23 C 0.4417(12) 0.6475(9) 0.9050(6)
C24 C 0.3655(11) 0.6024(9) 0.9702(6)
H1 H 0.2534 0.4585 0.9100
H2 H 0.1265 0.3964 1.0237
H3 H 0.1568 0.5013 1.1478
H4 H 0.3246 0.6710 1.1613
H5 H 0.7125 1.0489 1.2138
H6 H 0.8739 1.2096 1.2513
H7 H 1.0090 1.3048 1.1479
H8 H 0.9874 1.2372 1.0120
H9 H 0.9641 1.1624 0.8922
H10 H 0.9297 1.0601 0.7716
H11 H 0.4913 0.6168 0.7099
H12 H 0.3650 0.5288 0.8130
C1 C 0.7322(13) 0.0033(10) 0.5368(6)
C2 C 0.8035(13) -0.0318(11) 0.4708(7)
C3 C 0.7855(14) 0.0289(11) 0.3991(7)
C4 C 0.6892(12) 0.1273(10) 0.3923(6)
C5 C 0.6111(12) 0.1661(10) 0.4582(6)
N1 N 0.5201(10) 0.2616(7) 0.4445(5)
C6 C 0.4537(11) 0.3030(9) 0.5061(6)
C7 C 0.3513(10) 0.4083(9) 0.4922(6)
C8 C 0.4674(12) 0.2501(9) 0.5852(6)
N2 N 0.3396(9) 0.4486(7) 0.4181(5)
C9 C 0.2491(12) 0.5464(9) 0.4073(6)
C10 C 0.2286(12) 0.5891(9) 0.3295(6)
C11 C 0.1375(13) 0.6810(10) 0.3069(6)
C12 C 0.0598(12) 0.7350(10) 0.3675(7)
C13 C 0.0720(12) 0.6965(10) 0.4457(7)
C14 C 0.1661(10) 0.6027(9) 0.4634(5)
C15 C 0.1785(11) 0.5559(9) 0.5430(6)
C16 C 0.1045(13) 0.5915(9) 0.6110(7)
C17 C 0.1300(13) 0.5320(10) 0.6822(6)
N3 N 0.2215(10) 0.4397(7) 0.6957(5)
C18 C 0.2962(12) 0.4005(10) 0.6342(6)
C19 C 0.3945(12) 0.2952(10) 0.6508(7)
C20 C 0.2767(12) 0.4581(10) 0.5589(5)
N4 N 0.4082(10) 0.2502(8) 0.7231(5)
C21 C 0.4971(12) 0.1533(10) 0.7340(7)
C22 C 0.5697(13) 0.1017(10) 0.6741(7)
C23 C 0.5583(12) 0.1475(9) 0.5950(6)
C24 C 0.6345(11) 0.1024(9) 0.5298(6)
H1 H 0.7466 -0.0415 0.5900
H2 H 0.8735 -0.1036 0.4763
H3 H 0.8432 0.0013 0.3522
H4 H 0.6754 0.1710 0.3387
H5 H 0.2875 0.5489 0.2862
H6 H 0.1261 0.7096 0.2487
H7 H -0.0090 0.8048 0.3521
H8 H 0.0126 0.7372 0.4880
H9 H 0.0359 0.6624 0.6078
H10 H 0.0703 0.5601 0.7284
H11 H 0.5087 0.1168 0.7901
H12 H 0.6350 0.0288 0.6870
O1 O 0.1653(9) 0.2343(7) 0.3367(4)
H13 H 0.1355 0.1700 0.3012
H14 H 0.2548 0.2447 0.2768
O1 O 0.8347(9) 0.7343(7) 0.1633(4)
H13 H 0.8645 0.6700 0.1988
H14 H 0.7452 0.7447 0.2232
O1 O 0.8347(9) 0.7657(7) 0.6633(4)
H13 H 0.8645 0.8300 0.6988
H14 H 0.7452 0.7553 0.7232
O1 O 0.1653(9) 0.2657(7) 0.8367(4)
H13 H 0.1355 0.3300 0.8012
H14 H 0.2548 0.2553 0.7768

#END
