./KAFLEI01_from_xyz.cif_generated_by_CrystalShift
_symmetry_cell_setting triclinic
_symmetry_space_group_name_H-M 'P 1'
loop_
_symmetry_equiv_pos_site_id
_symmetry_equiv_pos_as_xyz
1 x,y,z
_cell_length_a 9.330200
_cell_length_b 10.922400
_cell_length_c 16.549100
_cell_angle_alpha 90.000000
_cell_angle_beta 93.641000
_cell_angle_gamma 90.000000
_cell_volume 1683.084463
loop_
_atom_site_label
_atom_site_type_symbol
_atom_site_fract_x
_atom_site_fract_y
_atom_site_fract_z
N1 N 1.024290 0.235620 -0.055930
C2 C 1.116600 0.334210 -0.044280
C3 C 1.195400 0.367710 -0.110430
H4 H 1.182400 0.324400 -0.160100
C5 C 1.291400 0.463100 -0.103210
H6 H 1.345500 0.484900 -0.147800
C7 C 1.309700 0.528300 -0.030540
H8 H 1.375600 0.594600 -0.026400
C9 C 1.233800 0.497870 0.034860
H10 H 1.246900 0.543400 0.083700
C11 C 1.136100 0.398680 0.029740
C12 C 1.057600 0.357110 0.097020
C13 C 1.067200 0.409290 0.174550
H14 H 1.124100 0.480300 0.185200
C15 C 0.993600 0.356810 0.235130
H16 H 1.005200 0.391300 0.287800
N17 N 0.905430 0.258750 0.223980
C18 C 0.891500 0.210560 0.149960
C19 C 0.966500 0.254810 0.084500
C20 C 0.953020 0.198780 0.005410
C21 C 0.853870 0.093190 -0.007650
C22 C 0.776890 0.049800 0.059380
C23 C 0.792200 0.106070 0.136580
N24 N 0.717070 0.070300 0.198590
C25 C 0.626000 -0.024880 0.185520
H26 H 0.572800 -0.051100 0.229500
C27 C 0.604700 -0.086550 0.113550
H28 H 0.539500 -0.153400 0.108600
C29 C 0.681100 -0.048920 0.047200
C30 C 0.664200 -0.102000 -0.032650
C31 C 0.569200 -0.199160 -0.053160
H32 H 0.514900 -0.235100 -0.012700
C33 C 0.554600 -0.242090 -0.131220
H34 H 0.489300 -0.306800 -0.144400
C35 C 0.635100 -0.191490 -0.191700
H36 H 0.624100 -0.221900 -0.245500
C37 C 0.730000 -0.097720 -0.173100
H38 H 0.785300 -0.064000 -0.213900
C39 C 0.745300 -0.051740 -0.093590
N40 N 0.839450 0.045820 -0.080440
N41 N -0.024290 0.735620 0.555930
C42 C -0.116600 0.834210 0.544280
C43 C -0.195400 0.867710 0.610430
H44 H -0.182400 0.824400 0.660100
C45 C -0.291400 0.963100 0.603210
H46 H -0.345500 0.984900 0.647800
C47 C -0.309700 1.028300 0.530540
H48 H -0.375600 1.094600 0.526400
C49 C -0.233800 0.997870 0.465140
H50 H -0.246900 1.043400 0.416300
C51 C -0.136100 0.898680 0.470260
C52 C -0.057600 0.857110 0.402980
C53 C -0.067200 0.909290 0.325450
H54 H -0.124100 0.980300 0.314800
C55 C 0.006400 0.856810 0.264870
H56 H -0.005200 0.891300 0.212200
N57 N 0.094570 0.758750 0.276020
C58 C 0.108500 0.710560 0.350040
C59 C 0.033500 0.754810 0.415500
C60 C 0.046980 0.698780 0.494590
C61 C 0.146130 0.593190 0.507650
C62 C 0.223110 0.549800 0.440620
C63 C 0.207800 0.606070 0.363420
N64 N 0.282930 0.570300 0.301410
C65 C 0.374000 0.475120 0.314480
H66 H 0.427200 0.448900 0.270500
C67 C 0.395300 0.413450 0.386450
H68 H 0.460500 0.346600 0.391400
C69 C 0.318900 0.451080 0.452800
C70 C 0.335800 0.398000 0.532650
C71 C 0.430800 0.300840 0.553160
H72 H 0.485100 0.264900 0.512700
C73 C 0.445400 0.257910 0.631220
H74 H 0.510700 0.193200 0.644400
C75 C 0.364900 0.308510 0.691700
H76 H 0.375900 0.278100 0.745500
C77 C 0.270000 0.402280 0.673100
H78 H 0.214700 0.436000 0.713900
C79 C 0.254700 0.448260 0.593590
N80 N 0.160550 0.545820 0.580440
N81 N -0.024290 0.764380 1.055930
C82 C -0.116600 0.665790 1.044280
C83 C -0.195400 0.632290 1.110430
H84 H -0.182400 0.675600 1.160100
C85 C -0.291400 0.536900 1.103210
H86 H -0.345500 0.515100 1.147800
C87 C -0.309700 0.471700 1.030540
H88 H -0.375600 0.405400 1.026400
C89 C -0.233800 0.502130 0.965140
H90 H -0.246900 0.456600 0.916300
C91 C -0.136100 0.601320 0.970260
C92 C -0.057600 0.642890 0.902980
C93 C -0.067200 0.590710 0.825450
H94 H -0.124100 0.519700 0.814800
C95 C 0.006400 0.643190 0.764870
H96 H -0.005200 0.608700 0.712200
N97 N 0.094570 0.741250 0.776020
C98 C 0.108500 0.789440 0.850040
C99 C 0.033500 0.745190 0.915500
C100 C 0.046980 0.801220 0.994590
C101 C 0.146130 0.906810 1.007650
C102 C 0.223110 0.950200 0.940620
C103 C 0.207800 0.893930 0.863420
N104 N 0.282930 0.929700 0.801410
C105 C 0.374000 1.024880 0.814480
H106 H 0.427200 1.051100 0.770500
C107 C 0.395300 1.086550 0.886450
H108 H 0.460500 1.153400 0.891400
C109 C 0.318900 1.048920 0.952800
C110 C 0.335800 1.102000 1.032650
C111 C 0.430800 1.199160 1.053160
H112 H 0.485100 1.235100 1.012700
C113 C 0.445400 1.242090 1.131220
H114 H 0.510700 1.306800 1.144400
C115 C 0.364900 1.191490 1.191700
H116 H 0.375900 1.221900 1.245500
C117 C 0.270000 1.097720 1.173100
H118 H 0.214700 1.064000 1.213900
C119 C 0.254700 1.051740 1.093590
N120 N 0.160550 0.954180 1.080440
N121 N 1.024290 0.264380 0.444070
C122 C 1.116600 0.165790 0.455720
C123 C 1.195400 0.132290 0.389570
H124 H 1.182400 0.175600 0.339900
C125 C 1.291400 0.036900 0.396790
H126 H 1.345500 0.015100 0.352200
C127 C 1.309700 -0.028300 0.469460
H128 H 1.375600 -0.094600 0.473600
C129 C 1.233800 0.002130 0.534860
H130 H 1.246900 -0.043400 0.583700
C131 C 1.136100 0.101320 0.529740
C132 C 1.057600 0.142890 0.597020
C133 C 1.067200 0.090710 0.674550
H134 H 1.124100 0.019700 0.685200
C135 C 0.993600 0.143190 0.735130
H136 H 1.005200 0.108700 0.787800
N137 N 0.905430 0.241250 0.723980
C138 C 0.891500 0.289440 0.649960
C139 C 0.966500 0.245190 0.584500
C140 C 0.953020 0.301220 0.505410
C141 C 0.853870 0.406810 0.492350
C142 C 0.776890 0.450200 0.559380
C143 C 0.792200 0.393930 0.636580
N144 N 0.717070 0.429700 0.698590
C145 C 0.626000 0.524880 0.685520
H146 H 0.572800 0.551100 0.729500
C147 C 0.604700 0.586550 0.613550
H148 H 0.539500 0.653400 0.608600
C149 C 0.681100 0.548920 0.547200
C150 C 0.664200 0.602000 0.467350
C151 C 0.569200 0.699160 0.446840
H152 H 0.514900 0.735100 0.487300
C153 C 0.554600 0.742090 0.368780
H154 H 0.489300 0.806800 0.355600
C155 C 0.635100 0.691490 0.308300
H156 H 0.624100 0.721900 0.254500
C157 C 0.730000 0.597720 0.326900
H158 H 0.785300 0.564000 0.286100
C159 C 0.745300 0.551740 0.406410
N160 N 0.839450 0.454180 0.419560
O161 O 0.661650 0.264340 0.837620
H162 H 0.693000 0.304200 0.790800
H163 H 0.737200 0.196900 0.849800
O164 O 0.338350 0.764340 0.662380
H165 H 0.307000 0.804200 0.709200
H166 H 0.262800 0.696900 0.650200
O167 O 0.338350 0.735660 0.162380
H168 H 0.307000 0.695800 0.209200
H169 H 0.262800 0.803100 0.150200
O170 O 0.661650 0.235660 0.337620
H171 H 0.693000 0.195800 0.290800
H172 H 0.737200 0.303100 0.349800

#END
