./KAFXIY_from_xyz.cif_generated_by_CrystalShift
_symmetry_cell_setting triclinic
_symmetry_space_group_name_H-M 'P 1'
loop_
_symmetry_equiv_pos_site_id
_symmetry_equiv_pos_as_xyz
1 x,y,z
_cell_length_a 7.183000
_cell_length_b 7.230000
_cell_length_c 11.534000
_cell_angle_alpha 91.680000
_cell_angle_beta 102.720000
_cell_angle_gamma 117.690000
_cell_volume 511.335293
loop_
_atom_site_label
_atom_site_type_symbol
_atom_site_fract_x
_atom_site_fract_y
_atom_site_fract_z
Cl1 Cl 0.351800 0.342600 0.363500
Cl2 Cl 0.180300 0.080500 0.132000
O3 O 0.256800 -0.156800 0.373900
C4 C 0.728200 -0.077300 0.336200
C5 C 0.586300 -0.164100 0.211100
C6 C 0.573700 0.004200 0.284800
C7 C 0.376400 -0.032300 0.323300
C8 C 0.385500 0.167000 0.271600
C9 C 0.622300 0.229300 0.258900
C10 C 0.659500 0.276600 0.137100
C11 C 0.761200 0.497000 0.107000
C12 C 0.883700 0.374900 0.116600
C13 C 0.795400 0.394500 0.363900
H14 H 0.879000 0.025000 0.348000
H15 H 0.697000 -0.160000 0.391000
H16 H 0.650000 -0.120000 0.144000
H17 H 0.463000 -0.297000 0.191000
H18 H 0.552000 0.181000 0.076000
H19 H 0.703000 0.517000 0.035000
H20 H 0.814000 0.606000 0.173000
H21 H 0.892000 0.318000 0.042000
H22 H 0.999000 0.416000 0.184000
H23 H 0.766000 0.355000 0.442000
H24 H 0.922000 0.404000 0.363000
H25 H 0.807000 0.535000 0.359000
Cl26 Cl 0.648200 0.657400 0.636500
Cl27 Cl 0.819700 0.919500 0.868000
O28 O 0.743200 1.156800 0.626100
C29 C 0.271800 1.077300 0.663800
C30 C 0.413700 1.164100 0.788900
C31 C 0.426300 0.995800 0.715200
C32 C 0.623600 1.032300 0.676700
C33 C 0.614500 0.833000 0.728400
C34 C 0.377700 0.770700 0.741100
C35 C 0.340500 0.723400 0.862900
C36 C 0.238800 0.503000 0.893000
C37 C 0.116300 0.625100 0.883400
C38 C 0.204600 0.605500 0.636100
H39 H 0.121000 0.975000 0.652000
H40 H 0.303000 1.160000 0.609000
H41 H 0.350000 1.120000 0.856000
H42 H 0.537000 1.297000 0.809000
H43 H 0.448000 0.819000 0.924000
H44 H 0.297000 0.483000 0.965000
H45 H 0.186000 0.394000 0.827000
H46 H 0.108000 0.682000 0.958000
H47 H 0.001000 0.584000 0.816000
H48 H 0.234000 0.645000 0.558000
H49 H 0.078000 0.596000 0.637000
H50 H 0.193000 0.465000 0.641000

#END
