
#######################################################################
#
#                 Cambridge Crystallographic Data Centre
#                                CCDC 
#
#######################################################################
#
# If this CIF has been generated from an entry in the Cambridge 
# Structural Database, then it will include bibliographic, chemical, 
# crystal, experimental, refinement or atomic coordinate data resulting 
# from the CCDC's data processing and validation procedures.
#
#######################################################################

data_KAFYEW
_symmetry_cell_setting           orthorhombic
_symmetry_space_group_name_H-M   'P c a 21'
_symmetry_Int_Tables_number      29
_space_group_name_Hall           'P 2c -2ac'
loop_
_symmetry_equiv_pos_site_id
_symmetry_equiv_pos_as_xyz
1 x,y,z
2 -x,-y,1/2+z
3 1/2-x,y,1/2+z
4 1/2+x,-y,z
_cell_length_a                   10.7745(4)
_cell_length_b                   8.1745(2)
_cell_length_c                   10.6625(3)
_cell_angle_alpha                90
_cell_angle_beta                 90
_cell_angle_gamma                90
_cell_volume                     939.112
loop_
_atom_site_label
_atom_site_type_symbol
_atom_site_fract_x
_atom_site_fract_y
_atom_site_fract_z
N1 N 0.60326(18) 0.3787(2) 0.65335(19)
N2 N 0.67762(19) 0.2356(3) 0.64912(17)
H1 H 0.740(2) 0.256(3) 0.597(2)
C1 C 0.7310(2) 0.2079(3) 0.7741(2)
H2 H 0.7881 0.1118 0.7680
N3 N 0.8033(2) 0.3464(3) 0.8192(2)
H3 H 0.8772(19) 0.349(3) 0.783(2)
N4 N 0.7412(2) 0.4981(2) 0.79346(19)
C2 C 0.6350(2) 0.5086(3) 0.7251(2)
C3 C 0.4845(2) 0.3651(3) 0.5897(2)
H4 H 0.4379 0.4671 0.6002
H5 H 0.4372 0.2742 0.6258
H6 H 0.4984 0.3448 0.5002
C4 C 0.7780(3) 0.6274(3) 0.8784(2)
H7 H 0.7601 0.5943 0.9648
H8 H 0.7316 0.7272 0.8585
H9 H 0.8671 0.6482 0.8693
O1 O 0.57030(16) 0.6362(2) 0.72784(16)
N5 N 0.5094(2) 0.1778(3) 1.0230(2)
H10 H 0.476(3) 0.219(3) 1.089(2)
N6 N 0.60462(19) 0.2558(3) 0.96420(19)
C5 C 0.6279(2) 0.1632(3) 0.8643(2)
C6 C 0.5494(3) 0.0276(3) 0.8596(3)
H11 H 0.5481 -0.0567 0.7982
C7 C 0.4746(3) 0.0427(3) 0.9627(2)
H12 H 0.4099 -0.0297 0.9867
N1 N 0.39674(18) 0.6213(2) 0.15335(19)
N2 N 0.32238(19) 0.7644(3) 0.14912(17)
H1 H 0.260(2) 0.744(3) 0.097(2)
C1 C 0.2690(2) 0.7921(3) 0.2741(2)
H2 H 0.2119 0.8882 0.2680
N3 N 0.1967(2) 0.6536(3) 0.3192(2)
H3 H 0.1228(19) 0.651(3) 0.283(2)
N4 N 0.2588(2) 0.5019(2) 0.29346(19)
C2 C 0.3650(2) 0.4914(3) 0.2251(2)
C3 C 0.5155(2) 0.6349(3) 0.0897(2)
H4 H 0.5621 0.5329 0.1002
H5 H 0.5628 0.7258 0.1258
H6 H 0.5016 0.6552 0.0002
C4 C 0.2220(3) 0.3726(3) 0.3784(2)
H7 H 0.2399 0.4057 0.4648
H8 H 0.2684 0.2728 0.3585
H9 H 0.1329 0.3518 0.3693
O1 O 0.42970(16) 0.3638(2) 0.22784(16)
N5 N 0.4906(2) 0.8222(3) 0.5230(2)
H10 H 0.524(3) 0.781(3) 0.589(2)
N6 N 0.39538(19) 0.7442(3) 0.46420(19)
C5 C 0.3721(2) 0.8368(3) 0.3643(2)
C6 C 0.4506(3) 0.9724(3) 0.3596(3)
H11 H 0.4519 1.0567 0.2982
C7 C 0.5254(3) 0.9573(3) 0.4627(2)
H12 H 0.5901 1.0297 0.4867
N1 N 0.89674(18) 0.3787(2) 0.15335(19)
N2 N 0.82238(19) 0.2356(3) 0.14912(17)
H1 H 0.760(2) 0.256(3) 0.097(2)
C1 C 0.7690(2) 0.2079(3) 0.2741(2)
H2 H 0.7119 0.1118 0.2680
N3 N 0.6967(2) 0.3464(3) 0.3192(2)
H3 H 0.6228(19) 0.349(3) 0.283(2)
N4 N 0.7588(2) 0.4981(2) 0.29346(19)
C2 C 0.8650(2) 0.5086(3) 0.2251(2)
C3 C 1.0155(2) 0.3651(3) 0.0897(2)
H4 H 1.0621 0.4671 0.1002
H5 H 1.0628 0.2742 0.1258
H6 H 1.0016 0.3448 0.0002
C4 C 0.7220(3) 0.6274(3) 0.3784(2)
H7 H 0.7399 0.5943 0.4648
H8 H 0.7684 0.7272 0.3585
H9 H 0.6329 0.6482 0.3693
O1 O 0.92970(16) 0.6362(2) 0.22784(16)
N5 N 0.9906(2) 0.1778(3) 0.5230(2)
H10 H 1.024(3) 0.219(3) 0.589(2)
N6 N 0.89538(19) 0.2558(3) 0.46420(19)
C5 C 0.8721(2) 0.1632(3) 0.3643(2)
C6 C 0.9506(3) 0.0276(3) 0.3596(3)
H11 H 0.9519 -0.0567 0.2982
C7 C 1.0254(3) 0.0427(3) 0.4627(2)
H12 H 1.0901 -0.0297 0.4867
N1 N 0.10326(18) 0.6213(2) 0.65335(19)
N2 N 0.17762(19) 0.7644(3) 0.64912(17)
H1 H 0.240(2) 0.744(3) 0.597(2)
C1 C 0.2310(2) 0.7921(3) 0.7741(2)
H2 H 0.2881 0.8882 0.7680
N3 N 0.3033(2) 0.6536(3) 0.8192(2)
H3 H 0.3772(19) 0.651(3) 0.783(2)
N4 N 0.2412(2) 0.5019(2) 0.79346(19)
C2 C 0.1350(2) 0.4914(3) 0.7251(2)
C3 C -0.0155(2) 0.6349(3) 0.5897(2)
H4 H -0.0621 0.5329 0.6002
H5 H -0.0628 0.7258 0.6258
H6 H -0.0016 0.6552 0.5002
C4 C 0.2780(3) 0.3726(3) 0.8784(2)
H7 H 0.2601 0.4057 0.9648
H8 H 0.2316 0.2728 0.8585
H9 H 0.3671 0.3518 0.8693
O1 O 0.07030(16) 0.3638(2) 0.72784(16)
N5 N 0.0094(2) 0.8222(3) 1.0230(2)
H10 H -0.024(3) 0.781(3) 1.089(2)
N6 N 0.10462(19) 0.7442(3) 0.96420(19)
C5 C 0.1279(2) 0.8368(3) 0.8643(2)
C6 C 0.0494(3) 0.9724(3) 0.8596(3)
H11 H 0.0481 1.0567 0.7982
C7 C -0.0254(3) 0.9573(3) 0.9627(2)
H12 H -0.0901 1.0297 0.9867

#END
