
#######################################################################
#
#                 Cambridge Crystallographic Data Centre
#                                CCDC 
#
#######################################################################
#
# If this CIF has been generated from an entry in the Cambridge 
# Structural Database, then it will include bibliographic, chemical, 
# crystal, experimental, refinement or atomic coordinate data resulting 
# from the CCDC's data processing and validation procedures.
#
#######################################################################

data_KAFZID
_symmetry_cell_setting           monoclinic
_symmetry_space_group_name_H-M   'P 21/c'
_symmetry_Int_Tables_number      14
_space_group_name_Hall           '-P 2ybc'
loop_
_symmetry_equiv_pos_site_id
_symmetry_equiv_pos_as_xyz
1 x,y,z
2 -x,1/2+y,1/2-z
3 -x,-y,-z
4 x,1/2-y,1/2+z
_cell_length_a                   12.9340(8)
_cell_length_b                   9.3801(5)
_cell_length_c                   26.1470(15)
_cell_angle_alpha                90
_cell_angle_beta                 97.1867(8)
_cell_angle_gamma                90
_cell_volume                     3147.29
loop_
_atom_site_label
_atom_site_type_symbol
_atom_site_fract_x
_atom_site_fract_y
_atom_site_fract_z
S1 S -0.04717(3) 0.36257(4) 0.10015(2)
N1 N 0.11633(9) 0.09217(12) -0.03942(4)
N2 N 0.14996(9) 0.09455(12) 0.04612(4)
C1 C 0.20101(10) 0.00321(14) -0.02325(5)
C2 C 0.03490(10) 0.24952(15) 0.07369(5)
O1 O 0.19482(9) 0.10127(13) 0.25174(4)
C3 C 0.12167(10) 0.14834(15) 0.09611(5)
C4 C 0.31763(11) -0.19300(15) -0.04786(5)
H1 H 0.3351 -0.2167 -0.0125
C5 C -0.06698(10) 0.33605(15) 0.00084(5)
H2 H -0.0901 0.3465 -0.0349
C6 C 0.24490(10) 0.20170(15) 0.17533(5)
C7 C 0.01536(10) 0.24504(15) 0.02105(5)
C8 C -0.10940(11) 0.40727(15) 0.03893(6)
C9 C 0.22789(10) -0.04511(15) -0.11400(5)
H3 H 0.1834 0.0331 -0.1242
C10 C 0.18395(11) 0.10053(16) 0.20449(5)
C11 C 0.26941(11) -0.12456(16) -0.15098(5)
H4 H 0.2531 -0.1005 -0.1864
C12 C 0.30914(10) -0.05759(14) 0.06589(5)
C13 C 0.10897(10) 0.00058(15) 0.17470(5)
C14 C 0.22355(10) 0.00399(14) 0.02981(5)
C15 C 0.33466(11) -0.23912(16) -0.13699(6)
H5 H 0.3623 -0.2942 -0.1626
C16 C 0.07948(10) 0.02790(14) 0.12497(5)
H6 H 0.0287 -0.0326 0.1067
C17 C 0.25058(10) -0.07851(15) -0.06157(5)
C18 C 0.08947(10) 0.14480(15) 0.00344(5)
C19 C 0.21308(10) 0.22311(15) 0.12529(5)
H7 H 0.2505 0.2894 0.1072
C20 C 0.34067(11) 0.27651(16) 0.20393(5)
C21 C 0.35901(11) -0.27235(16) -0.08517(6)
H8 H 0.4043 -0.3499 -0.0752
C22 C 0.41061(11) -0.00827(15) 0.06518(5)
H9 H 0.4239 0.064 0.0414
C23 C 0.49231(11) -0.06335(16) 0.09873(6)
H10 H 0.5611 -0.0289 0.0978
C24 C 0.06736(11) -0.12778(16) 0.20226(5)
C25 C 0.47353(12) -0.16856(17) 0.13356(6)
H11 H 0.5295 -0.2066 0.1565
C26 C -0.19872(11) 0.50561(15) 0.03436(6)
C27 C 0.39893(12) 0.36119(18) 0.16642(6)
H12 H 0.4598 0.4076 0.1855
H13 H 0.3525 0.4337 0.1491
H14 H 0.4218 0.2964 0.1407
C28 C 0.29106(11) -0.16351(16) 0.10120(5)
H15 H 0.2224 -0.1984 0.1022
C29 C 0.01069(12) -0.23283(16) 0.16356(6)
H16 H -0.0476 -0.1843 0.1431
H17 H -0.0159 -0.3129 0.1822
H18 H 0.0593 -0.2685 0.1406
C30 C 0.30739(12) 0.38148(17) 0.24416(6)
H19 H 0.2741 0.3288 0.27
H20 H 0.2581 0.4509 0.227
H21 H 0.3689 0.4315 0.261
C31 C 0.41629(12) 0.16427(18) 0.23033(6)
H22 H 0.3828 0.1138 0.2567
H23 H 0.4796 0.2116 0.2466
H24 H 0.4346 0.096 0.2046
C32 C 0.37307(12) -0.21820(17) 0.13491(6)
H25 H 0.3602 -0.2899 0.159
C33 C -0.30940(13) 0.67371(17) 0.07193(7)
H26 H -0.323 0.7304 0.1004
C34 C -0.22055(12) 0.58969(17) 0.07556(7)
H27 H -0.1739 0.5895 0.1066
C35 C -0.00953(13) -0.07822(19) 0.23881(6)
H28 H -0.0674 -0.027 0.2191
H29 H 0.0263 -0.0147 0.265
H30 H -0.0366 -0.1613 0.2556
C36 C 0.15806(13) -0.20874(18) 0.23293(6)
H31 H 0.1317 -0.296 0.2473
H32 H 0.1906 -0.1483 0.261
H33 H 0.2097 -0.2336 0.21
C37 C -0.26774(12) 0.51031(19) -0.01116(6)
H34 H -0.2537 0.4555 -0.0401
C38 C -0.37812(13) 0.67528(18) 0.02701(7)
H35 H -0.4396 0.7315 0.0247
C39 C -0.35653(14) 0.5943(2) -0.01456(7)
H36 H -0.403 0.5962 -0.0457
S1 S 1.04717(3) 0.86257(4) 0.39985(2)
N1 N 0.88367(9) 0.59217(12) 0.53942(4)
N2 N 0.85004(9) 0.59455(12) 0.45388(4)
C1 C 0.79899(10) 0.50321(14) 0.52325(5)
C2 C 0.96510(10) 0.74952(15) 0.42631(5)
O1 O 0.80518(9) 0.60127(13) 0.24826(4)
C3 C 0.87833(10) 0.64834(15) 0.40389(5)
C4 C 0.68237(11) 0.30700(15) 0.54786(5)
H1 H 0.6649 0.2833 0.5125
C5 C 1.06698(10) 0.83605(15) 0.49916(5)
H2 H 1.0901 0.8465 0.5349
C6 C 0.75510(10) 0.70170(15) 0.32467(5)
C7 C 0.98464(10) 0.74504(15) 0.47895(5)
C8 C 1.10940(11) 0.90727(15) 0.46107(6)
C9 C 0.77211(10) 0.45489(15) 0.61400(5)
H3 H 0.8166 0.5331 0.6242
C10 C 0.81605(11) 0.60053(16) 0.29551(5)
C11 C 0.73059(11) 0.37544(16) 0.65098(5)
H4 H 0.7469 0.3995 0.6864
C12 C 0.69086(10) 0.44241(14) 0.43411(5)
C13 C 0.89103(10) 0.50058(15) 0.32530(5)
C14 C 0.77645(10) 0.50399(14) 0.47019(5)
C15 C 0.66534(11) 0.26088(16) 0.63699(6)
H5 H 0.6377 0.2058 0.6626
C16 C 0.92052(10) 0.52790(14) 0.37503(5)
H6 H 0.9713 0.4674 0.3933
C17 C 0.74942(10) 0.42149(15) 0.56157(5)
C18 C 0.91053(10) 0.64480(15) 0.49656(5)
C19 C 0.78692(10) 0.72311(15) 0.37471(5)
H7 H 0.7495 0.7894 0.3928
C20 C 0.65933(11) 0.77651(16) 0.29607(5)
C21 C 0.64099(11) 0.22765(16) 0.58517(6)
H8 H 0.5957 0.1501 0.5752
C22 C 0.58939(11) 0.49173(15) 0.43482(5)
H9 H 0.5761 0.564 0.4586
C23 C 0.50769(11) 0.43665(16) 0.40127(6)
H10 H 0.4389 0.4711 0.4022
C24 C 0.93264(11) 0.37222(16) 0.29774(5)
C25 C 0.52647(12) 0.33144(17) 0.36644(6)
H11 H 0.4705 0.2934 0.3435
C26 C 1.19872(11) 1.00561(15) 0.46564(6)
C27 C 0.60107(12) 0.86119(18) 0.33358(6)
H12 H 0.5402 0.9076 0.3145
H13 H 0.6475 0.9337 0.3509
H14 H 0.5782 0.7964 0.3593
C28 C 0.70894(11) 0.33649(16) 0.39880(5)
H15 H 0.7776 0.3016 0.3978
C29 C 0.98931(12) 0.26717(16) 0.33644(6)
H16 H 1.0476 0.3157 0.3569
H17 H 1.0159 0.1871 0.3178
H18 H 0.9407 0.2315 0.3594
C30 C 0.69261(12) 0.88148(17) 0.25584(6)
H19 H 0.7259 0.8288 0.23
H20 H 0.7419 0.9509 0.273
H21 H 0.6311 0.9315 0.239
C31 C 0.58371(12) 0.66427(18) 0.26967(6)
H22 H 0.6172 0.6138 0.2433
H23 H 0.5204 0.7116 0.2534
H24 H 0.5654 0.596 0.2954
C32 C 0.62693(12) 0.28180(17) 0.36509(6)
H25 H 0.6398 0.2101 0.341
C33 C 1.30940(13) 1.17371(17) 0.42807(7)
H26 H 1.323 1.2304 0.3996
C34 C 1.22055(12) 1.08969(17) 0.42444(7)
H27 H 1.1739 1.0895 0.3934
C35 C 1.00953(13) 0.42178(19) 0.26119(6)
H28 H 1.0674 0.473 0.2809
H29 H 0.9737 0.4853 0.235
H30 H 1.0366 0.3387 0.2444
C36 C 0.84194(13) 0.29126(18) 0.26707(6)
H31 H 0.8683 0.204 0.2527
H32 H 0.8094 0.3517 0.239
H33 H 0.7903 0.2664 0.29
C37 C 1.26774(12) 1.01031(19) 0.51116(6)
H34 H 1.2537 0.9555 0.5401
C38 C 1.37812(13) 1.17528(18) 0.47299(7)
H35 H 1.4396 1.2315 0.4753
C39 C 1.35653(14) 1.0943(2) 0.51456(7)
H36 H 1.403 1.0962 0.5457
S1 S 1.04717(3) 0.63743(4) 0.89985(2)
N1 N 0.88367(9) 0.90783(12) 1.03942(4)
N2 N 0.85004(9) 0.90545(12) 0.95388(4)
C1 C 0.79899(10) 0.99679(14) 1.02325(5)
C2 C 0.96510(10) 0.75048(15) 0.92631(5)
O1 O 0.80518(9) 0.89873(13) 0.74826(4)
C3 C 0.87833(10) 0.85166(15) 0.90389(5)
C4 C 0.68237(11) 1.19300(15) 1.04786(5)
H1 H 0.6649 1.2167 1.0125
C5 C 1.06698(10) 0.66395(15) 0.99916(5)
H2 H 1.0901 0.6535 1.0349
C6 C 0.75510(10) 0.79830(15) 0.82467(5)
C7 C 0.98464(10) 0.75496(15) 0.97895(5)
C8 C 1.10940(11) 0.59273(15) 0.96107(6)
C9 C 0.77211(10) 1.04511(15) 1.11400(5)
H3 H 0.8166 0.9669 1.1242
C10 C 0.81605(11) 0.89947(16) 0.79551(5)
C11 C 0.73059(11) 1.12456(16) 1.15098(5)
H4 H 0.7469 1.1005 1.1864
C12 C 0.69086(10) 1.05759(14) 0.93411(5)
C13 C 0.89103(10) 0.99942(15) 0.82530(5)
C14 C 0.77645(10) 0.99601(14) 0.97019(5)
C15 C 0.66534(11) 1.23912(16) 1.13699(6)
H5 H 0.6377 1.2942 1.1626
C16 C 0.92052(10) 0.97210(14) 0.87503(5)
H6 H 0.9713 1.0326 0.8933
C17 C 0.74942(10) 1.07851(15) 1.06157(5)
C18 C 0.91053(10) 0.85520(15) 0.99656(5)
C19 C 0.78692(10) 0.77689(15) 0.87471(5)
H7 H 0.7495 0.7106 0.8928
C20 C 0.65933(11) 0.72349(16) 0.79607(5)
C21 C 0.64099(11) 1.27235(16) 1.08517(6)
H8 H 0.5957 1.3499 1.0752
C22 C 0.58939(11) 1.00827(15) 0.93482(5)
H9 H 0.5761 0.936 0.9586
C23 C 0.50769(11) 1.06335(16) 0.90127(6)
H10 H 0.4389 1.0289 0.9022
C24 C 0.93264(11) 1.12778(16) 0.79774(5)
C25 C 0.52647(12) 1.16856(17) 0.86644(6)
H11 H 0.4705 1.2066 0.8435
C26 C 1.19872(11) 0.49439(15) 0.96564(6)
C27 C 0.60107(12) 0.63881(18) 0.83358(6)
H12 H 0.5402 0.5924 0.8145
H13 H 0.6475 0.5663 0.8509
H14 H 0.5782 0.7036 0.8593
C28 C 0.70894(11) 1.16351(16) 0.89880(5)
H15 H 0.7776 1.1984 0.8978
C29 C 0.98931(12) 1.23283(16) 0.83644(6)
H16 H 1.0476 1.1843 0.8569
H17 H 1.0159 1.3129 0.8178
H18 H 0.9407 1.2685 0.8594
C30 C 0.69261(12) 0.61852(17) 0.75584(6)
H19 H 0.7259 0.6712 0.73
H20 H 0.7419 0.5491 0.773
H21 H 0.6311 0.5685 0.739
C31 C 0.58371(12) 0.83573(18) 0.76967(6)
H22 H 0.6172 0.8862 0.7433
H23 H 0.5204 0.7884 0.7534
H24 H 0.5654 0.904 0.7954
C32 C 0.62693(12) 1.21820(17) 0.86509(6)
H25 H 0.6398 1.2899 0.841
C33 C 1.30940(13) 0.32629(17) 0.92807(7)
H26 H 1.323 0.2696 0.8996
C34 C 1.22055(12) 0.41031(17) 0.92444(7)
H27 H 1.1739 0.4105 0.8934
C35 C 1.00953(13) 1.07822(19) 0.76119(6)
H28 H 1.0674 1.027 0.7809
H29 H 0.9737 1.0147 0.735
H30 H 1.0366 1.1613 0.7444
C36 C 0.84194(13) 1.20874(18) 0.76707(6)
H31 H 0.8683 1.296 0.7527
H32 H 0.8094 1.1483 0.739
H33 H 0.7903 1.2336 0.79
C37 C 1.26774(12) 0.48969(19) 1.01116(6)
H34 H 1.2537 0.5445 1.0401
C38 C 1.37812(13) 0.32472(18) 0.97299(7)
H35 H 1.4396 0.2685 0.9753
C39 C 1.35653(14) 0.4057(2) 1.01456(7)
H36 H 1.403 0.4038 1.0457
S1 S -0.04717(3) 0.13743(4) 0.60015(2)
N1 N 0.11633(9) 0.40783(12) 0.46058(4)
N2 N 0.14996(9) 0.40545(12) 0.54612(4)
C1 C 0.20101(10) 0.49679(14) 0.47675(5)
C2 C 0.03490(10) 0.25048(15) 0.57369(5)
O1 O 0.19482(9) 0.39873(13) 0.75174(4)
C3 C 0.12167(10) 0.35166(15) 0.59611(5)
C4 C 0.31763(11) 0.69300(15) 0.45214(5)
H1 H 0.3351 0.7167 0.4875
C5 C -0.06698(10) 0.16395(15) 0.50084(5)
H2 H -0.0901 0.1535 0.4651
C6 C 0.24490(10) 0.29830(15) 0.67533(5)
C7 C 0.01536(10) 0.25496(15) 0.52105(5)
C8 C -0.10940(11) 0.09273(15) 0.53893(6)
C9 C 0.22789(10) 0.54511(15) 0.38600(5)
H3 H 0.1834 0.4669 0.3758
C10 C 0.18395(11) 0.39947(16) 0.70449(5)
C11 C 0.26941(11) 0.62456(16) 0.34902(5)
H4 H 0.2531 0.6005 0.3136
C12 C 0.30914(10) 0.55759(14) 0.56589(5)
C13 C 0.10897(10) 0.49942(15) 0.67470(5)
C14 C 0.22355(10) 0.49601(14) 0.52981(5)
C15 C 0.33466(11) 0.73912(16) 0.36301(6)
H5 H 0.3623 0.7942 0.3374
C16 C 0.07948(10) 0.47210(14) 0.62497(5)
H6 H 0.0287 0.5326 0.6067
C17 C 0.25058(10) 0.57851(15) 0.43843(5)
C18 C 0.08947(10) 0.35520(15) 0.50344(5)
C19 C 0.21308(10) 0.27689(15) 0.62529(5)
H7 H 0.2505 0.2106 0.6072
C20 C 0.34067(11) 0.22349(16) 0.70393(5)
C21 C 0.35901(11) 0.77235(16) 0.41483(6)
H8 H 0.4043 0.8499 0.4248
C22 C 0.41061(11) 0.50827(15) 0.56518(5)
H9 H 0.4239 0.436 0.5414
C23 C 0.49231(11) 0.56335(16) 0.59873(6)
H10 H 0.5611 0.5289 0.5978
C24 C 0.06736(11) 0.62778(16) 0.70226(5)
C25 C 0.47353(12) 0.66856(17) 0.63356(6)
H11 H 0.5295 0.7066 0.6565
C26 C -0.19872(11) -0.00561(15) 0.53436(6)
C27 C 0.39893(12) 0.13881(18) 0.66642(6)
H12 H 0.4598 0.0924 0.6855
H13 H 0.3525 0.0663 0.6491
H14 H 0.4218 0.2036 0.6407
C28 C 0.29106(11) 0.66351(16) 0.60120(5)
H15 H 0.2224 0.6984 0.6022
C29 C 0.01069(12) 0.73283(16) 0.66356(6)
H16 H -0.0476 0.6843 0.6431
H17 H -0.0159 0.8129 0.6822
H18 H 0.0593 0.7685 0.6406
C30 C 0.30739(12) 0.11852(17) 0.74416(6)
H19 H 0.2741 0.1712 0.77
H20 H 0.2581 0.0491 0.727
H21 H 0.3689 0.0685 0.761
C31 C 0.41629(12) 0.33573(18) 0.73033(6)
H22 H 0.3828 0.3862 0.7567
H23 H 0.4796 0.2884 0.7466
H24 H 0.4346 0.404 0.7046
C32 C 0.37307(12) 0.71820(17) 0.63491(6)
H25 H 0.3602 0.7899 0.659
C33 C -0.30940(13) -0.17371(17) 0.57193(7)
H26 H -0.323 -0.2304 0.6004
C34 C -0.22055(12) -0.08969(17) 0.57556(7)
H27 H -0.1739 -0.0895 0.6066
C35 C -0.00953(13) 0.57822(19) 0.73881(6)
H28 H -0.0674 0.527 0.7191
H29 H 0.0263 0.5147 0.765
H30 H -0.0366 0.6613 0.7556
C36 C 0.15806(13) 0.70874(18) 0.73293(6)
H31 H 0.1317 0.796 0.7473
H32 H 0.1906 0.6483 0.761
H33 H 0.2097 0.7336 0.71
C37 C -0.26774(12) -0.01031(19) 0.48884(6)
H34 H -0.2537 0.0445 0.4599
C38 C -0.37812(13) -0.17528(18) 0.52701(7)
H35 H -0.4396 -0.2315 0.5247
C39 C -0.35653(14) -0.0943(2) 0.48544(7)
H36 H -0.403 -0.0962 0.4543

#END
