
#######################################################################
#
#                 Cambridge Crystallographic Data Centre
#                                CCDC 
#
#######################################################################
#
# If this CIF has been generated from an entry in the Cambridge 
# Structural Database, then it will include bibliographic, chemical, 
# crystal, experimental, refinement or atomic coordinate data resulting 
# from the CCDC's data processing and validation procedures.
#
#######################################################################

data_KAGBEC
_symmetry_cell_setting           triclinic
_symmetry_space_group_name_H-M   'P -1'
_symmetry_Int_Tables_number      2
_space_group_name_Hall           '-P 1'
loop_
_symmetry_equiv_pos_site_id
_symmetry_equiv_pos_as_xyz
1 x,y,z
2 -x,-y,-z
_cell_length_a                   7.5879(4)
_cell_length_b                   8.5361(6)
_cell_length_c                   14.0970(8)
_cell_angle_alpha                99.510(3)
_cell_angle_beta                 97.673(3)
_cell_angle_gamma                101.956(3)
_cell_volume                     867.578
loop_
_atom_site_label
_atom_site_type_symbol
_atom_site_fract_x
_atom_site_fract_y
_atom_site_fract_z
C1 C 0.2982(4) 0.1132(4) 0.6105(2)
C2 C 0.4114(4) 0.0812(4) 0.6841(2)
H1 H 0.4737 -0.0019 0.6772
C3 C 0.4219(4) 0.1897(4) 0.7720(2)
H2 H 0.4943 0.1863 0.8299
C4 C 0.3170(4) 0.3012(3) 0.76546(19)
C5 C 0.3029(4) 0.4239(4) 0.84553(19)
H3 H 0.3787 0.4288 0.9040
C6 C 0.1973(4) 0.5323(3) 0.84900(19)
C7 C 0.2176(4) 0.6463(4) 0.9441(2)
C8 C 0.1294(6) 0.7885(5) 0.9442(3)
H4 H 0.1660 0.8438 0.8927
H5 H -0.0022 0.7469 0.9287
C9 C 0.1747(4) 0.9109(4) 1.0380(2)
C10 C 0.0910(5) 0.8834(4) 1.1161(3)
H6 H 0.0046 0.7861 1.1105
C11 C 0.1308(6) 0.9941(6) 1.2013(3)
H7 H 0.0704 0.9724 1.2526
C12 C 0.2550(6) 1.1327(6) 1.2122(3)
H8 H 0.2831 1.2062 1.2717
C13 C 0.3413(5) 1.1690(5) 1.1382(4)
H9 H 0.4260 1.2680 1.1461
C14 C 0.3023(5) 1.0560(5) 1.0490(3)
H10 H 0.3624 1.0792 0.9978
C15 C 0.0666(4) 0.5442(3) 0.76278(18)
C16 C 0.1236(4) 0.6394(4) 0.6970(2)
H11 H 0.2433 0.7016 0.7084
C17 C 0.0051(5) 0.6430(5) 0.6150(2)
H12 H 0.0446 0.7085 0.5718
C18 C -0.1706(5) 0.5505(5) 0.5968(2)
H13 H -0.2493 0.5506 0.5402
C19 C -0.2302(4) 0.4582(4) 0.6615(2)
H14 H -0.3504 0.3971 0.6497
C20 C -0.1119(4) 0.4551(4) 0.7449(2)
H15 H -0.1535 0.3925 0.7891
O1 O 0.3037(4) 0.6264(4) 1.01810(17)
S1 S 0.20165(10) 0.27183(10) 0.64654(5)
Br1 Br 0.24497(5) 0.00369(5) 0.48059(2)
C1 C 0.7018(4) 0.8868(4) 0.3895(2)
C2 C 0.5886(4) 0.9188(4) 0.3159(2)
H1 H 0.5263 1.0019 0.3228
C3 C 0.5781(4) 0.8103(4) 0.2280(2)
H2 H 0.5057 0.8137 0.1701
C4 C 0.6830(4) 0.6988(3) 0.23454(19)
C5 C 0.6971(4) 0.5761(4) 0.15447(19)
H3 H 0.6213 0.5712 0.0960
C6 C 0.8027(4) 0.4677(3) 0.15100(19)
C7 C 0.7824(4) 0.3537(4) 0.0559(2)
C8 C 0.8706(6) 0.2115(5) 0.0558(3)
H4 H 0.8340 0.1562 0.1073
H5 H 1.0022 0.2531 0.0713
C9 C 0.8253(4) 0.0891(4) -0.0380(2)
C10 C 0.9090(5) 0.1166(4) -0.1161(3)
H6 H 0.9954 0.2139 -0.1105
C11 C 0.8692(6) 0.0059(6) -0.2013(3)
H7 H 0.9296 0.0276 -0.2526
C12 C 0.7450(6) -0.1327(6) -0.2122(3)
H8 H 0.7169 -0.2062 -0.2717
C13 C 0.6587(5) -0.1690(5) -0.1382(4)
H9 H 0.5740 -0.2680 -0.1461
C14 C 0.6977(5) -0.0560(5) -0.0490(3)
H10 H 0.6376 -0.0792 0.0022
C15 C 0.9334(4) 0.4558(3) 0.23722(18)
C16 C 0.8764(4) 0.3606(4) 0.3030(2)
H11 H 0.7567 0.2984 0.2916
C17 C 0.9949(5) 0.3570(5) 0.3850(2)
H12 H 0.9554 0.2915 0.4282
C18 C 1.1706(5) 0.4495(5) 0.4032(2)
H13 H 1.2493 0.4494 0.4598
C19 C 1.2302(4) 0.5418(4) 0.3385(2)
H14 H 1.3504 0.6029 0.3503
C20 C 1.1119(4) 0.5449(4) 0.2551(2)
H15 H 1.1535 0.6075 0.2109
O1 O 0.6963(4) 0.3736(4) -0.01810(17)
S1 S 0.79835(10) 0.72817(10) 0.35346(5)
Br1 Br 0.75503(5) 0.99631(5) 0.51941(2)

#END
