./KAGBEC_from_xyz.cif_generated_by_CrystalShift
_symmetry_cell_setting triclinic
_symmetry_space_group_name_H-M 'P 1'
loop_
_symmetry_equiv_pos_site_id
_symmetry_equiv_pos_as_xyz
1 x,y,z
_cell_length_a 7.587900
_cell_length_b 8.536100
_cell_length_c 14.097000
_cell_angle_alpha 99.510000
_cell_angle_beta 97.673000
_cell_angle_gamma 101.956000
_cell_volume 867.577499
loop_
_atom_site_label
_atom_site_type_symbol
_atom_site_fract_x
_atom_site_fract_y
_atom_site_fract_z
C1 C 0.298200 0.113200 0.610500
C2 C 0.411400 0.081200 0.684100
H3 H 0.473700 -0.001900 0.677200
C4 C 0.421900 0.189700 0.772000
H5 H 0.494300 0.186300 0.829900
C6 C 0.317000 0.301200 0.765460
C7 C 0.302900 0.423900 0.845530
H8 H 0.378700 0.428800 0.904000
C9 C 0.197300 0.532300 0.849000
C10 C 0.217600 0.646300 0.944100
C11 C 0.129400 0.788500 0.944200
H12 H 0.166000 0.843800 0.892700
H13 H -0.002200 0.746900 0.928700
C14 C 0.174700 0.910900 1.038000
C15 C 0.091000 0.883400 1.116100
H16 H 0.004600 0.786100 1.110500
C17 C 0.130800 0.994100 1.201300
H18 H 0.070400 0.972400 1.252600
C19 C 0.255000 1.132700 1.212200
H20 H 0.283100 1.206200 1.271700
C21 C 0.341300 1.169000 1.138200
H22 H 0.426000 1.268000 1.146100
C23 C 0.302300 1.056000 1.049000
H24 H 0.362400 1.079200 0.997800
C25 C 0.066600 0.544200 0.762780
C26 C 0.123600 0.639400 0.697000
H27 H 0.243300 0.701600 0.708400
C28 C 0.005100 0.643000 0.615000
H29 H 0.044600 0.708500 0.571800
C30 C -0.170600 0.550500 0.596800
H31 H -0.249300 0.550600 0.540200
C32 C -0.230200 0.458200 0.661500
H33 H -0.350400 0.397100 0.649700
C34 C -0.111900 0.455100 0.744900
H35 H -0.153500 0.392500 0.789100
O36 O 0.303700 0.626400 1.018100
S37 S 0.201650 0.271830 0.646540
Br38 Br 0.244970 0.003690 0.480590
C39 C 0.701800 0.886800 0.389500
C40 C 0.588600 0.918800 0.315900
H41 H 0.526300 1.001900 0.322800
C42 C 0.578100 0.810300 0.228000
H43 H 0.505700 0.813700 0.170100
C44 C 0.683000 0.698800 0.234540
C45 C 0.697100 0.576100 0.154470
H46 H 0.621300 0.571200 0.096000
C47 C 0.802700 0.467700 0.151000
C48 C 0.782400 0.353700 0.055900
C49 C 0.870600 0.211500 0.055800
H50 H 0.834000 0.156200 0.107300
H51 H 1.002200 0.253100 0.071300
C52 C 0.825300 0.089100 -0.038000
C53 C 0.909000 0.116600 -0.116100
H54 H 0.995400 0.213900 -0.110500
C55 C 0.869200 0.005900 -0.201300
H56 H 0.929600 0.027600 -0.252600
C57 C 0.745000 -0.132700 -0.212200
H58 H 0.716900 -0.206200 -0.271700
C59 C 0.658700 -0.169000 -0.138200
H60 H 0.574000 -0.268000 -0.146100
C61 C 0.697700 -0.056000 -0.049000
H62 H 0.637600 -0.079200 0.002200
C63 C 0.933400 0.455800 0.237220
C64 C 0.876400 0.360600 0.303000
H65 H 0.756700 0.298400 0.291600
C66 C 0.994900 0.357000 0.385000
H67 H 0.955400 0.291500 0.428200
C68 C 1.170600 0.449500 0.403200
H69 H 1.249300 0.449400 0.459800
C70 C 1.230200 0.541800 0.338500
H71 H 1.350400 0.602900 0.350300
C72 C 1.111900 0.544900 0.255100
H73 H 1.153500 0.607500 0.210900
O74 O 0.696300 0.373600 -0.018100
S75 S 0.798350 0.728170 0.353460
Br76 Br 0.755030 0.996310 0.519410

#END
