./KAGPUD_from_xyz.cif_generated_by_CrystalShift
_symmetry_cell_setting triclinic
_symmetry_space_group_name_H-M 'P 1'
loop_
_symmetry_equiv_pos_site_id
_symmetry_equiv_pos_as_xyz
1 x,y,z
_cell_length_a 8.784000
_cell_length_b 10.188000
_cell_length_c 13.147000
_cell_angle_alpha 90.170000
_cell_angle_beta 97.500000
_cell_angle_gamma 105.540000
_cell_volume 1122.949027
loop_
_atom_site_label
_atom_site_type_symbol
_atom_site_fract_x
_atom_site_fract_y
_atom_site_fract_z
C1 C 0.122100 0.369800 0.803500
C2 C -0.027100 0.252000 0.773000
C3 C -0.067300 0.335000 0.672700
C4 C 0.082900 0.450800 0.709200
C5 C 0.239100 0.412500 0.725500
C6 C 0.288700 0.323600 0.651000
C7 C 0.323200 0.202800 0.676300
C8 C 0.373500 0.128100 0.603500
C9 C 0.392200 0.178200 0.507600
C10 C 0.364400 0.302000 0.482500
C11 C 0.312300 0.374000 0.554300
C12 C 0.379700 0.529200 0.767600
C13 C 0.634400 0.610700 0.873700
C14 C 0.651100 0.740400 0.838800
C15 C 0.532400 0.765100 0.768400
C16 C 0.398400 0.660000 0.732100
C17 C 0.499500 0.505300 0.838800
C18 C -0.154500 0.240200 0.845200
C19 C -0.134800 0.324400 0.931600
C20 C -0.255900 0.306600 0.993500
C21 C -0.395700 0.205400 0.970600
C22 C -0.416500 0.120600 0.884900
C23 C -0.296800 0.139000 0.823500
C24 C 0.003700 0.112500 0.771500
C25 C 0.087900 0.079500 0.861200
C26 C 0.122600 -0.043800 0.871600
C27 C 0.075200 -0.140100 0.791000
C28 C -0.011300 -0.111600 0.702600
C29 C -0.049100 0.012800 0.692600
C30 C -0.080300 0.272300 0.564300
C31 C -0.211300 0.391300 0.676500
H32 H 0.162600 0.405400 0.875300
H33 H 0.080300 0.550800 0.707600
H34 H 0.310300 0.163500 0.744900
H35 H 0.390000 0.037100 0.623800
H36 H 0.431400 0.128700 0.456700
H37 H 0.382500 0.343300 0.410400
H38 H 0.295800 0.467500 0.535100
H39 H 0.714300 0.585400 0.930000
H40 H 0.739800 0.815200 0.860700
H41 H 0.540400 0.862200 0.739600
H42 H 0.308000 0.680600 0.679100
H43 H 0.488100 0.402800 0.865500
H44 H -0.036500 0.398100 0.948200
H45 H -0.228600 0.369400 1.058800
H46 H -0.478900 0.190400 1.016600
H47 H -0.514800 0.043700 0.867100
H48 H -0.307200 0.077600 0.761200
H49 H 0.124500 0.146700 0.918600
H50 H 0.189200 -0.065000 0.942500
H51 H 0.104900 -0.232900 0.800400
H52 H -0.051800 -0.181900 0.646500
H53 H -0.108500 0.033300 0.629100
H54 H 0.009500 0.222700 0.560200
H55 H -0.068800 0.356400 0.511900
H56 H -0.190300 0.205300 0.549300
H57 H -0.211600 0.462300 0.620700
H58 H -0.206400 0.444600 0.744300
H59 H -0.315800 0.316400 0.669800
C60 C 0.877900 0.630200 0.196500
C61 C 1.027100 0.748000 0.227000
C62 C 1.067300 0.665000 0.327300
C63 C 0.917100 0.549200 0.290800
C64 C 0.760900 0.587500 0.274500
C65 C 0.711300 0.676400 0.349000
C66 C 0.676800 0.797200 0.323700
C67 C 0.626500 0.871900 0.396500
C68 C 0.607800 0.821800 0.492400
C69 C 0.635600 0.698000 0.517500
C70 C 0.687700 0.626000 0.445700
C71 C 0.620300 0.470800 0.232400
C72 C 0.365600 0.389300 0.126300
C73 C 0.348900 0.259600 0.161200
C74 C 0.467600 0.234900 0.231600
C75 C 0.601600 0.340000 0.267900
C76 C 0.500500 0.494700 0.161200
C77 C 1.154500 0.759800 0.154800
C78 C 1.134800 0.675600 0.068400
C79 C 1.255900 0.693400 0.006500
C80 C 1.395700 0.794600 0.029400
C81 C 1.416500 0.879400 0.115100
C82 C 1.296800 0.861000 0.176500
C83 C 0.996300 0.887500 0.228500
C84 C 0.912100 0.920500 0.138800
C85 C 0.877400 1.043800 0.128400
C86 C 0.924800 1.140100 0.209000
C87 C 1.011300 1.111600 0.297400
C88 C 1.049100 0.987200 0.307400
C89 C 1.080300 0.727700 0.435700
C90 C 1.211300 0.608700 0.323500
H91 H 0.837400 0.594600 0.124700
H92 H 0.919700 0.449200 0.292400
H93 H 0.689700 0.836500 0.255100
H94 H 0.610000 0.962900 0.376200
H95 H 0.568600 0.871300 0.543300
H96 H 0.617500 0.656700 0.589600
H97 H 0.704200 0.532500 0.464900
H98 H 0.285700 0.414600 0.070000
H99 H 0.260200 0.184800 0.139300
H100 H 0.459600 0.137800 0.260400
H101 H 0.692000 0.319400 0.320900
H102 H 0.511900 0.597200 0.134500
H103 H 1.036500 0.601900 0.051800
H104 H 1.228600 0.630600 -0.058800
H105 H 1.478900 0.809600 -0.016600
H106 H 1.514800 0.956300 0.132900
H107 H 1.307200 0.922400 0.238800
H108 H 0.875500 0.853300 0.081400
H109 H 0.810800 1.065000 0.057500
H110 H 0.895100 1.232900 0.199600
H111 H 1.051800 1.181900 0.353500
H112 H 1.108500 0.966700 0.370900
H113 H 0.990500 0.777300 0.439800
H114 H 1.068800 0.643600 0.488100
H115 H 1.190300 0.794700 0.450700
H116 H 1.211600 0.537700 0.379300
H117 H 1.206400 0.555400 0.255700
H118 H 1.315800 0.683600 0.330200

#END
