
#######################################################################
#
#                 Cambridge Crystallographic Data Centre
#                                CCDC 
#
#######################################################################
#
# If this CIF has been generated from an entry in the Cambridge 
# Structural Database, then it will include bibliographic, chemical, 
# crystal, experimental, refinement or atomic coordinate data resulting 
# from the CCDC's data processing and validation procedures.
#
#######################################################################

data_KAGPUD
_symmetry_cell_setting           triclinic
_symmetry_space_group_name_H-M   'P -1'
_symmetry_Int_Tables_number      2
_space_group_name_Hall           '-P 1'
loop_
_symmetry_equiv_pos_site_id
_symmetry_equiv_pos_as_xyz
1 x,y,z
2 -x,-y,-z
_cell_length_a                   8.784(2)
_cell_length_b                   10.188(2)
_cell_length_c                   13.147(3)
_cell_angle_alpha                90.17(2)
_cell_angle_beta                 97.50(2)
_cell_angle_gamma                105.54(2)
_cell_volume                     1122.95
loop_
_atom_site_label
_atom_site_type_symbol
_atom_site_fract_x
_atom_site_fract_y
_atom_site_fract_z
C1 C 0.1221(3) 0.3698(3) 0.8035(2)
C2 C -0.0271(3) 0.2520(2) 0.7730(2)
C3 C -0.0673(3) 0.3350(3) 0.6727(2)
C4 C 0.0829(3) 0.4508(3) 0.7092(2)
C5 C 0.2391(3) 0.4125(3) 0.7255(2)
C6 C 0.2887(3) 0.3236(3) 0.6510(2)
C7 C 0.3232(3) 0.2028(3) 0.6763(2)
C8 C 0.3735(3) 0.1281(3) 0.6035(2)
C9 C 0.3922(4) 0.1782(4) 0.5076(2)
C10 C 0.3644(4) 0.3020(4) 0.4825(2)
C11 C 0.3123(3) 0.3740(3) 0.5543(2)
C12 C 0.3797(3) 0.5292(3) 0.7676(2)
C13 C 0.6344(4) 0.6107(4) 0.8737(3)
C14 C 0.6511(4) 0.7404(4) 0.8388(3)
C15 C 0.5324(4) 0.7651(3) 0.7684(2)
C16 C 0.3984(4) 0.6600(3) 0.7321(2)
C17 C 0.4995(3) 0.5053(3) 0.8388(2)
C18 C -0.1545(3) 0.2402(3) 0.8452(2)
C19 C -0.1348(3) 0.3244(3) 0.9316(2)
C20 C -0.2559(4) 0.3066(3) 0.9935(2)
C21 C -0.3957(4) 0.2054(3) 0.9706(2)
C22 C -0.4165(3) 0.1206(3) 0.8849(2)
C23 C -0.2968(3) 0.1390(3) 0.8235(2)
C24 C 0.0037(3) 0.1125(3) 0.7715(2)
C25 C 0.0879(3) 0.0795(3) 0.8612(2)
C26 C 0.1226(4) -0.0438(3) 0.8716(2)
C27 C 0.0752(4) -0.1401(3) 0.7910(3)
C28 C -0.0113(4) -0.1116(3) 0.7026(3)
C29 C -0.0491(3) 0.0128(3) 0.6926(2)
C30 C -0.0803(4) 0.2723(4) 0.5643(2)
C31 C -0.2113(4) 0.3913(4) 0.6765(2)
H1 H 0.1626(26) 0.4054(23) 0.8753(17)
H2 H 0.0803(35) 0.5508(32) 0.7076(21)
H3 H 0.3103(29) 0.1635(25) 0.7449(18)
H4 H 0.3900(29) 0.0371(26) 0.6238(18)
H5 H 0.4314(31) 0.1287(28) 0.4567(20)
H6 H 0.3825(32) 0.3433(27) 0.4104(21)
H7 H 0.2958(35) 0.4675(30) 0.5351(20)
H8 H 0.7143(39) 0.5854(32) 0.9300(22)
H9 H 0.7398(32) 0.8152(29) 0.8607(19)
H10 H 0.5404(39) 0.8622(34) 0.7396(21)
H11 H 0.3080(31) 0.6806(27) 0.6791(19)
H12 H 0.4881(35) 0.4028(33) 0.8655(21)
H13 H -0.0365(27) 0.3981(24) 0.9482(16)
H14 H -0.2286(32) 0.3694(28) 1.0588(20)
H15 H -0.4789(31) 0.1904(25) 1.0166(18)
H16 H -0.5148(32) 0.0437(28) 0.8671(19)
H17 H -0.3072(26) 0.0776(23) 0.7612(17)
H18 H 0.1245(27) 0.1467(24) 0.9186(17)
H19 H 0.1892(32) -0.0650(27) 0.9425(19)
H20 H 0.1049(32) -0.2329(30) 0.8004(19)
H21 H -0.0518(34) -0.1819(30) 0.6465(22)
H22 H -0.1085(30) 0.0333(26) 0.6291(19)
H23 H 0.0095(35) 0.2227(29) 0.5602(20)
H24 H -0.0688(40) 0.3564(36) 0.5119(25)
H25 H -0.1903(33) 0.2053(27) 0.5493(17)
H26 H -0.2116(36) 0.4623(32) 0.6207(22)
H27 H -0.2064(32) 0.4446(27) 0.7443(21)
H28 H -0.3158(46) 0.3164(39) 0.6698(25)
C1 C 0.8779(3) 0.6302(3) 0.1965(2)
C2 C 1.0271(3) 0.7480(2) 0.2270(2)
C3 C 1.0673(3) 0.6650(3) 0.3273(2)
C4 C 0.9171(3) 0.5492(3) 0.2908(2)
C5 C 0.7609(3) 0.5875(3) 0.2745(2)
C6 C 0.7113(3) 0.6764(3) 0.3490(2)
C7 C 0.6768(3) 0.7972(3) 0.3237(2)
C8 C 0.6265(3) 0.8719(3) 0.3965(2)
C9 C 0.6078(4) 0.8218(4) 0.4924(2)
C10 C 0.6356(4) 0.6980(4) 0.5175(2)
C11 C 0.6877(3) 0.6260(3) 0.4457(2)
C12 C 0.6203(3) 0.4708(3) 0.2324(2)
C13 C 0.3656(4) 0.3893(4) 0.1263(3)
C14 C 0.3489(4) 0.2596(4) 0.1612(3)
C15 C 0.4676(4) 0.2349(3) 0.2316(2)
C16 C 0.6016(4) 0.3400(3) 0.2679(2)
C17 C 0.5005(3) 0.4947(3) 0.1612(2)
C18 C 1.1545(3) 0.7598(3) 0.1548(2)
C19 C 1.1348(3) 0.6756(3) 0.0684(2)
C20 C 1.2559(4) 0.6934(3) 0.0065(2)
C21 C 1.3957(4) 0.7946(3) 0.0294(2)
C22 C 1.4165(3) 0.8794(3) 0.1151(2)
C23 C 1.2968(3) 0.8610(3) 0.1765(2)
C24 C 0.9963(3) 0.8875(3) 0.2285(2)
C25 C 0.9121(3) 0.9205(3) 0.1388(2)
C26 C 0.8774(4) 1.0438(3) 0.1284(2)
C27 C 0.9248(4) 1.1401(3) 0.2090(3)
C28 C 1.0113(4) 1.1116(3) 0.2974(3)
C29 C 1.0491(3) 0.9872(3) 0.3074(2)
C30 C 1.0803(4) 0.7277(4) 0.4357(2)
C31 C 1.2113(4) 0.6087(4) 0.3235(2)
H1 H 0.8374(26) 0.5946(23) 0.1247(17)
H2 H 0.9197(35) 0.4492(32) 0.2924(21)
H3 H 0.6897(29) 0.8365(25) 0.2551(18)
H4 H 0.6100(29) 0.9629(26) 0.3762(18)
H5 H 0.5686(31) 0.8713(28) 0.5433(20)
H6 H 0.6175(32) 0.6567(27) 0.5896(21)
H7 H 0.7042(35) 0.5325(30) 0.4649(20)
H8 H 0.2857(39) 0.4146(32) 0.0700(22)
H9 H 0.2602(32) 0.1848(29) 0.1393(19)
H10 H 0.4596(39) 0.1378(34) 0.2604(21)
H11 H 0.6920(31) 0.3194(27) 0.3209(19)
H12 H 0.5119(35) 0.5972(33) 0.1345(21)
H13 H 1.0365(27) 0.6019(24) 0.0518(16)
H14 H 1.2286(32) 0.6306(28) -0.0588(20)
H15 H 1.4789(31) 0.8096(25) -0.0166(18)
H16 H 1.5148(32) 0.9563(28) 0.1329(19)
H17 H 1.3072(26) 0.9224(23) 0.2388(17)
H18 H 0.8755(27) 0.8533(24) 0.0814(17)
H19 H 0.8108(32) 1.0650(27) 0.0575(19)
H20 H 0.8951(32) 1.2329(30) 0.1996(19)
H21 H 1.0518(34) 1.1819(30) 0.3535(22)
H22 H 1.1085(30) 0.9667(26) 0.3709(19)
H23 H 0.9905(35) 0.7773(29) 0.4398(20)
H24 H 1.0688(40) 0.6436(36) 0.4881(25)
H25 H 1.1903(33) 0.7947(27) 0.4507(17)
H26 H 1.2116(36) 0.5377(32) 0.3793(22)
H27 H 1.2064(32) 0.5554(27) 0.2557(21)
H28 H 1.3158(46) 0.6836(39) 0.3302(25)

#END
