./KAGQOB_from_xyz.cif_generated_by_CrystalShift
_symmetry_cell_setting triclinic
_symmetry_space_group_name_H-M 'P 1'
loop_
_symmetry_equiv_pos_site_id
_symmetry_equiv_pos_as_xyz
1 x,y,z
_cell_length_a 9.946100
_cell_length_b 6.982500
_cell_length_c 15.204900
_cell_angle_alpha 90.000000
_cell_angle_beta 92.314000
_cell_angle_gamma 90.000000
_cell_volume 1055.098582
loop_
_atom_site_label
_atom_site_type_symbol
_atom_site_fract_x
_atom_site_fract_y
_atom_site_fract_z
I1 I 0.329898 0.265020 0.025896
C2 C 0.034800 0.731200 0.098000
H3 H 0.010900 0.723700 0.159800
H4 H -0.044100 0.699900 0.060000
H5 H 0.065300 0.861300 0.084900
O6 O 0.141070 0.597400 0.082280
C7 C 0.257200 0.617300 0.132250
C8 C 0.280300 0.758400 0.195490
H9 H 0.213700 0.853600 0.203700
C10 C 0.398300 0.762600 0.246690
H11 H 0.412700 0.861300 0.289000
C12 C 0.496400 0.622300 0.236400
C13 C 0.475800 0.483200 0.172130
H14 H 0.542900 0.388800 0.163700
C15 C 0.358500 0.481000 0.120340
N16 N 0.614730 0.619800 0.292030
C17 C 0.628200 0.698500 0.375270
H18 H 0.560500 0.766600 0.404600
C19 C 0.754900 0.661800 0.408110
H20 H 0.791600 0.700100 0.464000
C21 C 0.822000 0.556100 0.343560
H22 H 0.911900 0.510200 0.348500
C23 C 0.734100 0.532200 0.272950
H24 H 0.752200 0.466600 0.220000
I25 I 0.170102 -0.234980 0.474104
C26 C 0.465200 0.231200 0.402000
H27 H 0.489100 0.223700 0.340200
H28 H 0.544100 0.199900 0.440000
H29 H 0.434700 0.361300 0.415100
O30 O 0.358930 0.097400 0.417720
C31 C 0.242800 0.117300 0.367750
C32 C 0.219700 0.258400 0.304510
H33 H 0.286300 0.353600 0.296300
C34 C 0.101700 0.262600 0.253310
H35 H 0.087300 0.361300 0.211000
C36 C 0.003600 0.122300 0.263600
C37 C 0.024200 -0.016800 0.327870
H38 H -0.042900 -0.111200 0.336300
C39 C 0.141500 -0.019000 0.379660
N40 N -0.114730 0.119800 0.207970
C41 C -0.128200 0.198500 0.124730
H42 H -0.060500 0.266600 0.095400
C43 C -0.254900 0.161800 0.091890
H44 H -0.291600 0.200100 0.036000
C45 C -0.322000 0.056100 0.156440
H46 H -0.411900 0.010200 0.151500
C47 C -0.234100 0.032200 0.227050
H48 H -0.252200 -0.033400 0.280000
I49 I 0.670102 0.734980 0.974104
C50 C 0.965200 0.268800 0.902000
H51 H 0.989100 0.276300 0.840200
H52 H 1.044100 0.300100 0.940000
H53 H 0.934700 0.138700 0.915100
O54 O 0.858930 0.402600 0.917720
C55 C 0.742800 0.382700 0.867750
C56 C 0.719700 0.241600 0.804510
H57 H 0.786300 0.146400 0.796300
C58 C 0.601700 0.237400 0.753310
H59 H 0.587300 0.138700 0.711000
C60 C 0.503600 0.377700 0.763600
C61 C 0.524200 0.516800 0.827870
H62 H 0.457100 0.611200 0.836300
C63 C 0.641500 0.519000 0.879660
N64 N 0.385270 0.380200 0.707970
C65 C 0.371800 0.301500 0.624730
H66 H 0.439500 0.233400 0.595400
C67 C 0.245100 0.338200 0.591890
H68 H 0.208400 0.299900 0.536000
C69 C 0.178000 0.443900 0.656440
H70 H 0.088100 0.489800 0.651500
C71 C 0.265900 0.467800 0.727050
H72 H 0.247800 0.533400 0.780000
I73 I 0.829898 1.234980 0.525896
C74 C 0.534800 0.768800 0.598000
H75 H 0.510900 0.776300 0.659800
H76 H 0.455900 0.800100 0.560000
H77 H 0.565300 0.638700 0.584900
O78 O 0.641070 0.902600 0.582280
C79 C 0.757200 0.882700 0.632250
C80 C 0.780300 0.741600 0.695490
H81 H 0.713700 0.646400 0.703700
C82 C 0.898300 0.737400 0.746690
H83 H 0.912700 0.638700 0.789000
C84 C 0.996400 0.877700 0.736400
C85 C 0.975800 1.016800 0.672130
H86 H 1.042900 1.111200 0.663700
C87 C 0.858500 1.019000 0.620340
N88 N 1.114730 0.880200 0.792030
C89 C 1.128200 0.801500 0.875270
H90 H 1.060500 0.733400 0.904600
C91 C 1.254900 0.838200 0.908110
H92 H 1.291600 0.799900 0.964000
C93 C 1.322000 0.943900 0.843560
H94 H 1.411900 0.989800 0.848500
C95 C 1.234100 0.967800 0.772950
H96 H 1.252200 1.033400 0.720000

#END
