
#######################################################################
#
#                 Cambridge Crystallographic Data Centre
#                                CCDC 
#
#######################################################################
#
# If this CIF has been generated from an entry in the Cambridge 
# Structural Database, then it will include bibliographic, chemical, 
# crystal, experimental, refinement or atomic coordinate data resulting 
# from the CCDC's data processing and validation procedures.
#
#######################################################################

data_KAGQER
_symmetry_cell_setting           monoclinic
_symmetry_space_group_name_H-M   'P 21/n'
_symmetry_Int_Tables_number      14
_space_group_name_Hall           '-P 2yn'
loop_
_symmetry_equiv_pos_site_id
_symmetry_equiv_pos_as_xyz
1 x,y,z
2 1/2-x,1/2+y,1/2-z
3 -x,-y,-z
4 1/2+x,1/2-y,1/2+z
_cell_length_a                   9.7442(7)
_cell_length_b                   13.1654(12)
_cell_length_c                   17.8252(17)
_cell_angle_alpha                90
_cell_angle_beta                 93.934(4)
_cell_angle_gamma                90
_cell_volume                     2281.34
loop_
_atom_site_label
_atom_site_type_symbol
_atom_site_fract_x
_atom_site_fract_y
_atom_site_fract_z
Br1 Br 0.93055(9) 0.93329(6) 0.12345(5)
C1 C 0.8929(7) 0.7919(5) 0.1320(4)
C2 C 1.0001(7) 0.7256(6) 0.1511(4)
H1 H 1.0913 0.7504 0.1601
C3 C 0.9731(7) 0.6233(6) 0.1570(4)
H2 H 1.0458 0.5772 0.1701
C4 C 0.8398(6) 0.5875(5) 0.1440(3)
C5 C 0.7324(7) 0.6556(6) 0.1256(4)
H3 H 0.6411 0.6311 0.1165
C6 C 0.7587(8) 0.7583(6) 0.1207(4)
H4 H 0.6859 0.8051 0.1098
N1 N 0.8102(6) 0.4828(5) 0.1502(3)
C7 C 0.6971(7) 0.4436(6) 0.1854(4)
H5 H 0.6338 0.4828 0.2114
C8 C 0.6920(8) 0.3422(6) 0.1766(4)
H6 H 0.6254 0.298 0.1955
C9 C 0.8036(7) 0.3127(6) 0.1342(4)
C10 C 0.8483(9) 0.2187(6) 0.1045(5)
H7 H 0.8002 0.1577 0.1137
C11 C 0.9595(8) 0.2170(6) 0.0632(5)
H8 H 0.9899 0.1543 0.0438
C12 C 1.0305(8) 0.3066(6) 0.0484(4)
H9 H 1.1083 0.3035 0.0192
C13 C 0.9897(7) 0.3997(6) 0.0757(4)
H10 H 1.0373 0.4605 0.0651
C14 C 0.8767(7) 0.4008(5) 0.1189(3)
Br1 Br 0.56945(9) 1.43329(6) 0.37655(5)
C1 C 0.6071(7) 1.2919(5) 0.3680(4)
C2 C 0.4999(7) 1.2256(6) 0.3489(4)
H1 H 0.4087 1.2504 0.3399
C3 C 0.5269(7) 1.1233(6) 0.3430(4)
H2 H 0.4542 1.0772 0.3299
C4 C 0.6602(6) 1.0875(5) 0.3560(3)
C5 C 0.7676(7) 1.1556(6) 0.3744(4)
H3 H 0.8589 1.1311 0.3835
C6 C 0.7413(8) 1.2583(6) 0.3793(4)
H4 H 0.8141 1.3051 0.3902
N1 N 0.6898(6) 0.9828(5) 0.3498(3)
C7 C 0.8029(7) 0.9436(6) 0.3146(4)
H5 H 0.8662 0.9828 0.2886
C8 C 0.8080(8) 0.8422(6) 0.3234(4)
H6 H 0.8746 0.798 0.3045
C9 C 0.6964(7) 0.8127(6) 0.3658(4)
C10 C 0.6517(9) 0.7187(6) 0.3955(5)
H7 H 0.6998 0.6577 0.3863
C11 C 0.5405(8) 0.7170(6) 0.4368(5)
H8 H 0.5101 0.6543 0.4562
C12 C 0.4695(8) 0.8066(6) 0.4516(4)
H9 H 0.3917 0.8035 0.4808
C13 C 0.5103(7) 0.8997(6) 0.4243(4)
H10 H 0.4627 0.9605 0.4349
C14 C 0.6233(7) 0.9008(5) 0.3811(3)
Br1 Br 0.06945(9) 0.06671(6) 0.87655(5)
C1 C 0.1071(7) 0.2081(5) 0.8680(4)
C2 C -0.0001(7) 0.2744(6) 0.8489(4)
H1 H -0.0913 0.2496 0.8399
C3 C 0.0269(7) 0.3767(6) 0.8430(4)
H2 H -0.0458 0.4228 0.8299
C4 C 0.1602(6) 0.4125(5) 0.8560(3)
C5 C 0.2676(7) 0.3444(6) 0.8744(4)
H3 H 0.3589 0.3689 0.8835
C6 C 0.2413(8) 0.2417(6) 0.8793(4)
H4 H 0.3141 0.1949 0.8902
N1 N 0.1898(6) 0.5172(5) 0.8498(3)
C7 C 0.3029(7) 0.5564(6) 0.8146(4)
H5 H 0.3662 0.5172 0.7886
C8 C 0.3080(8) 0.6578(6) 0.8234(4)
H6 H 0.3746 0.702 0.8045
C9 C 0.1964(7) 0.6873(6) 0.8658(4)
C10 C 0.1517(9) 0.7813(6) 0.8955(5)
H7 H 0.1998 0.8423 0.8863
C11 C 0.0405(8) 0.7830(6) 0.9368(5)
H8 H 0.0101 0.8457 0.9562
C12 C -0.0305(8) 0.6934(6) 0.9516(4)
H9 H -0.1083 0.6965 0.9808
C13 C 0.0103(7) 0.6003(6) 0.9243(4)
H10 H -0.0373 0.5395 0.9349
C14 C 0.1233(7) 0.5992(5) 0.8811(3)
Br1 Br 0.43055(9) -0.43329(6) 0.62345(5)
C1 C 0.3929(7) -0.2919(5) 0.6320(4)
C2 C 0.5001(7) -0.2256(6) 0.6511(4)
H1 H 0.5913 -0.2504 0.6601
C3 C 0.4731(7) -0.1233(6) 0.6570(4)
H2 H 0.5458 -0.0772 0.6701
C4 C 0.3398(6) -0.0875(5) 0.6440(3)
C5 C 0.2324(7) -0.1556(6) 0.6256(4)
H3 H 0.1411 -0.1311 0.6165
C6 C 0.2587(8) -0.2583(6) 0.6207(4)
H4 H 0.1859 -0.3051 0.6098
N1 N 0.3102(6) 0.0172(5) 0.6502(3)
C7 C 0.1971(7) 0.0564(6) 0.6854(4)
H5 H 0.1338 0.0172 0.7114
C8 C 0.1920(8) 0.1578(6) 0.6766(4)
H6 H 0.1254 0.202 0.6955
C9 C 0.3036(7) 0.1873(6) 0.6342(4)
C10 C 0.3483(9) 0.2813(6) 0.6045(5)
H7 H 0.3002 0.3423 0.6137
C11 C 0.4595(8) 0.2830(6) 0.5632(5)
H8 H 0.4899 0.3457 0.5438
C12 C 0.5305(8) 0.1934(6) 0.5484(4)
H9 H 0.6083 0.1965 0.5192
C13 C 0.4897(7) 0.1003(6) 0.5757(4)
H10 H 0.5373 0.0395 0.5651
C14 C 0.3767(7) 0.0992(5) 0.6189(3)
Br2 Br 0.06772(10) 0.67962(6) 0.43636(6)
C15 C 0.0841(7) 0.5436(5) 0.4017(4)
C16 C 0.1791(7) 0.4811(5) 0.4395(4)
H11 H 0.2326 0.5047 0.4826
C17 C 0.1945(8) 0.3832(6) 0.4130(4)
H12 H 0.2596 0.3387 0.4379
C18 C 0.1144(7) 0.3497(5) 0.3497(4)
C19 C 0.0180(7) 0.4134(6) 0.3148(4)
H13 H -0.0386 0.3898 0.2729
C20 C 0.0032(7) 0.5109(6) 0.3405(4)
H14 H -0.0625 0.5553 0.316
N2 N 0.1307(6) 0.2511(4) 0.3197(3)
C21 C 0.1336(8) 0.2275(7) 0.2431(4)
H15 H 0.1245 0.2757 0.2034
C22 C 0.1510(8) 0.1275(7) 0.2337(5)
H16 H 0.1589 0.0931 0.1873
C23 C 0.1554(7) 0.0824(6) 0.3065(5)
C24 C 0.1667(8) -0.0203(6) 0.3325(6)
H17 H 0.1759 -0.0749 0.2984
C25 C 0.1637(9) -0.0372(7) 0.4082(6)
H18 H 0.17 -0.1049 0.4266
C26 C 0.1513(8) 0.0449(6) 0.4606(5)
H19 H 0.1496 0.0301 0.5127
C27 C 0.1419(8) 0.1434(6) 0.4373(5)
H20 H 0.1339 0.198 0.4717
C28 C 0.1448(6) 0.1597(5) 0.3586(4)
Br2 Br 0.43228(10) 1.17962(6) 0.06364(6)
C15 C 0.4159(7) 1.0436(5) 0.0983(4)
C16 C 0.3209(7) 0.9811(5) 0.0605(4)
H11 H 0.2674 1.0047 0.0174
C17 C 0.3055(8) 0.8832(6) 0.0870(4)
H12 H 0.2404 0.8387 0.0621
C18 C 0.3856(7) 0.8497(5) 0.1503(4)
C19 C 0.4820(7) 0.9134(6) 0.1852(4)
H13 H 0.5386 0.8898 0.2271
C20 C 0.4968(7) 1.0109(6) 0.1595(4)
H14 H 0.5625 1.0553 0.184
N2 N 0.3693(6) 0.7511(4) 0.1803(3)
C21 C 0.3664(8) 0.7275(7) 0.2569(4)
H15 H 0.3755 0.7757 0.2966
C22 C 0.3490(8) 0.6275(7) 0.2663(5)
H16 H 0.3411 0.5931 0.3127
C23 C 0.3446(7) 0.5824(6) 0.1935(5)
C24 C 0.3333(8) 0.4797(6) 0.1675(6)
H17 H 0.3241 0.4251 0.2016
C25 C 0.3363(9) 0.4628(7) 0.0918(6)
H18 H 0.33 0.3951 0.0734
C26 C 0.3487(8) 0.5449(6) 0.0394(5)
H19 H 0.3504 0.5301 -0.0127
C27 C 0.3581(8) 0.6434(6) 0.0627(5)
H20 H 0.3661 0.698 0.0283
C28 C 0.3552(6) 0.6597(5) 0.1414(4)
Br2 Br 0.93228(10) 0.32038(6) 0.56364(6)
C15 C 0.9159(7) 0.4564(5) 0.5983(4)
C16 C 0.8209(7) 0.5189(5) 0.5605(4)
H11 H 0.7674 0.4953 0.5174
C17 C 0.8055(8) 0.6168(6) 0.5870(4)
H12 H 0.7404 0.6613 0.5621
C18 C 0.8856(7) 0.6503(5) 0.6503(4)
C19 C 0.9820(7) 0.5866(6) 0.6852(4)
H13 H 1.0386 0.6102 0.7271
C20 C 0.9968(7) 0.4891(6) 0.6595(4)
H14 H 1.0625 0.4447 0.684
N2 N 0.8693(6) 0.7489(4) 0.6803(3)
C21 C 0.8664(8) 0.7725(7) 0.7569(4)
H15 H 0.8755 0.7243 0.7966
C22 C 0.8490(8) 0.8725(7) 0.7663(5)
H16 H 0.8411 0.9069 0.8127
C23 C 0.8446(7) 0.9176(6) 0.6935(5)
C24 C 0.8333(8) 1.0203(6) 0.6675(6)
H17 H 0.8241 1.0749 0.7016
C25 C 0.8363(9) 1.0372(7) 0.5918(6)
H18 H 0.83 1.1049 0.5734
C26 C 0.8487(8) 0.9551(6) 0.5394(5)
H19 H 0.8504 0.9699 0.4873
C27 C 0.8581(8) 0.8566(6) 0.5627(5)
H20 H 0.8661 0.802 0.5283
C28 C 0.8552(6) 0.8403(5) 0.6414(4)
Br2 Br 0.56772(10) -0.17962(6) 0.93636(6)
C15 C 0.5841(7) -0.0436(5) 0.9017(4)
C16 C 0.6791(7) 0.0189(5) 0.9395(4)
H11 H 0.7326 -0.0047 0.9826
C17 C 0.6945(8) 0.1168(6) 0.9130(4)
H12 H 0.7596 0.1613 0.9379
C18 C 0.6144(7) 0.1503(5) 0.8497(4)
C19 C 0.5180(7) 0.0866(6) 0.8148(4)
H13 H 0.4614 0.1102 0.7729
C20 C 0.5032(7) -0.0109(6) 0.8405(4)
H14 H 0.4375 -0.0553 0.816
N2 N 0.6307(6) 0.2489(4) 0.8197(3)
C21 C 0.6336(8) 0.2725(7) 0.7431(4)
H15 H 0.6245 0.2243 0.7034
C22 C 0.6510(8) 0.3725(7) 0.7337(5)
H16 H 0.6589 0.4069 0.6873
C23 C 0.6554(7) 0.4176(6) 0.8065(5)
C24 C 0.6667(8) 0.5203(6) 0.8325(6)
H17 H 0.6759 0.5749 0.7984
C25 C 0.6637(9) 0.5372(7) 0.9082(6)
H18 H 0.67 0.6049 0.9266
C26 C 0.6513(8) 0.4551(6) 0.9606(5)
H19 H 0.6496 0.4699 1.0127
C27 C 0.6419(8) 0.3566(6) 0.9373(5)
H20 H 0.6339 0.302 0.9717
C28 C 0.6448(6) 0.3403(5) 0.8586(4)

#END
