
#######################################################################
#
#                 Cambridge Crystallographic Data Centre
#                                CCDC 
#
#######################################################################
#
# If this CIF has been generated from an entry in the Cambridge 
# Structural Database, then it will include bibliographic, chemical, 
# crystal, experimental, refinement or atomic coordinate data resulting 
# from the CCDC's data processing and validation procedures.
#
#######################################################################

data_KABBAS
_symmetry_cell_setting           orthorhombic
_symmetry_space_group_name_H-M   'P b c a'
_symmetry_Int_Tables_number      61
_space_group_name_Hall           '-P 2ac 2ab'
loop_
_symmetry_equiv_pos_site_id
_symmetry_equiv_pos_as_xyz
1 x,y,z
2 1/2-x,-y,1/2+z
3 -x,1/2+y,1/2-z
4 1/2+x,1/2-y,-z
5 -x,-y,-z
6 1/2+x,y,1/2-z
7 x,1/2-y,1/2+z
8 1/2-x,1/2+y,z
_cell_length_a                   11.513(2)
_cell_length_b                   7.898(2)
_cell_length_c                   30.359(3)
_cell_angle_alpha                90
_cell_angle_beta                 90
_cell_angle_gamma                90
_cell_volume                     2760.53
loop_
_atom_site_label
_atom_site_type_symbol
_atom_site_fract_x
_atom_site_fract_y
_atom_site_fract_z
N1 N 0.7015(2) 0.4212(3) 0.79621(8)
N2 N 0.74617(19) 0.2877(3) 0.66360(7)
N3 N 0.7654(2) 0.2199(3) 0.62206(7)
N4 N 0.8832(2) 0.0665(3) 0.41884(7)
O1 O 0.89752(16) 0.4234(2) 0.60695(5)
C1 C 0.6436(2) 0.2668(4) 0.73145(8)
C2 C 0.5449(3) 0.2126(4) 0.75284(10)
H1 H 0.4923 0.1416 0.7387
C3 C 0.5253(3) 0.2652(4) 0.79551(10)
H2 H 0.4595 0.2296 0.8107
C4 C 0.6033(3) 0.3691(4) 0.81491(10)
H3 H 0.5871 0.4069 0.8433
C5 C 0.7181(3) 0.3692(4) 0.75487(9)
H4 H 0.7854 0.4050 0.7407
C6 C 0.6688(2) 0.2116(4) 0.68628(9)
H5 H 0.6283 0.1210 0.6742
C7 C 0.8431(2) 0.2965(4) 0.59507(9)
C8 C 0.8553(2) 0.2255(3) 0.55060(8)
C9 C 0.7769(2) 0.1128(3) 0.53203(8)
H6 H 0.7157 0.0732 0.5491
C10 C 0.7866(2) 0.0575(3) 0.48906(8)
H7 H 0.7325 -0.0185 0.4778
C11 C 0.8776(2) 0.1154(3) 0.46229(9)
C12 C 0.9577(2) 0.2268(4) 0.48112(9)
H8 H 1.0198 0.2656 0.4643
C13 C 0.9464(2) 0.2797(3) 0.52384(9)
H9 H 1.0012 0.3540 0.5354
C14 C 0.8071(3) -0.0613(4) 0.40150(9)
H10 H 0.8202 -0.1660 0.4168
H11 H 0.8225 -0.0765 0.3707
H12 H 0.7279 -0.0266 0.4055
C15 C 0.9728(3) 0.1326(4) 0.38994(9)
H13 H 0.9755 0.2537 0.3924
H14 H 0.9556 0.1018 0.3601
H15 H 1.0467 0.0859 0.3982
H16 H 0.728(2) 0.124(2) 0.6156(9)
N1 N 0.7985(2) 0.5788(3) 0.29621(8)
N2 N 0.75383(19) 0.7123(3) 0.16360(7)
N3 N 0.7346(2) 0.7801(3) 0.12206(7)
N4 N 0.6168(2) 0.9335(3) -0.08116(7)
O1 O 0.60248(16) 0.5766(2) 0.10695(5)
C1 C 0.8564(2) 0.7332(4) 0.23145(8)
C2 C 0.9551(3) 0.7874(4) 0.25284(10)
H1 H 1.0077 0.8584 0.2387
C3 C 0.9747(3) 0.7348(4) 0.29551(10)
H2 H 1.0405 0.7704 0.3107
C4 C 0.8967(3) 0.6309(4) 0.31491(10)
H3 H 0.9129 0.5931 0.3433
C5 C 0.7819(3) 0.6308(4) 0.25487(9)
H4 H 0.7146 0.5950 0.2407
C6 C 0.8312(2) 0.7884(4) 0.18628(9)
H5 H 0.8717 0.8790 0.1742
C7 C 0.6569(2) 0.7035(4) 0.09507(9)
C8 C 0.6447(2) 0.7745(3) 0.05060(8)
C9 C 0.7231(2) 0.8872(3) 0.03203(8)
H6 H 0.7843 0.9268 0.0491
C10 C 0.7134(2) 0.9425(3) -0.01094(8)
H7 H 0.7675 1.0185 -0.0222
C11 C 0.6224(2) 0.8846(3) -0.03771(9)
C12 C 0.5423(2) 0.7732(4) -0.01888(9)
H8 H 0.4802 0.7344 -0.0357
C13 C 0.5536(2) 0.7203(3) 0.02384(9)
H9 H 0.4988 0.6460 0.0354
C14 C 0.6929(3) 1.0613(4) -0.09850(9)
H10 H 0.6798 1.1660 -0.0832
H11 H 0.6775 1.0765 -0.1293
H12 H 0.7721 1.0266 -0.0945
C15 C 0.5272(3) 0.8674(4) -0.11006(9)
H13 H 0.5245 0.7463 -0.1076
H14 H 0.5444 0.8982 -0.1399
H15 H 0.4533 0.9141 -0.1018
H16 H 0.772(2) 0.876(2) 0.1156(9)
N1 N 0.2985(2) 0.9212(3) 0.70379(8)
N2 N 0.25383(19) 0.7877(3) 0.83640(7)
N3 N 0.2346(2) 0.7199(3) 0.87794(7)
N4 N 0.1168(2) 0.5665(3) 1.08116(7)
O1 O 0.10248(16) 0.9234(2) 0.89305(5)
C1 C 0.3564(2) 0.7668(4) 0.76855(8)
C2 C 0.4551(3) 0.7126(4) 0.74716(10)
H1 H 0.5077 0.6416 0.7613
C3 C 0.4747(3) 0.7652(4) 0.70449(10)
H2 H 0.5405 0.7296 0.6893
C4 C 0.3967(3) 0.8691(4) 0.68509(10)
H3 H 0.4129 0.9069 0.6567
C5 C 0.2819(3) 0.8692(4) 0.74513(9)
H4 H 0.2146 0.9050 0.7593
C6 C 0.3312(2) 0.7116(4) 0.81372(9)
H5 H 0.3717 0.6210 0.8258
C7 C 0.1569(2) 0.7965(4) 0.90493(9)
C8 C 0.1447(2) 0.7255(3) 0.94940(8)
C9 C 0.2231(2) 0.6128(3) 0.96797(8)
H6 H 0.2843 0.5732 0.9509
C10 C 0.2134(2) 0.5575(3) 1.01094(8)
H7 H 0.2675 0.4815 1.0222
C11 C 0.1224(2) 0.6154(3) 1.03771(9)
C12 C 0.0423(2) 0.7268(4) 1.01888(9)
H8 H -0.0198 0.7656 1.0357
C13 C 0.0536(2) 0.7797(3) 0.97616(9)
H9 H -0.0012 0.8540 0.9646
C14 C 0.1929(3) 0.4387(4) 1.09850(9)
H10 H 0.1798 0.3340 1.0832
H11 H 0.1775 0.4235 1.1293
H12 H 0.2721 0.4734 1.0945
C15 C 0.0272(3) 0.6326(4) 1.11006(9)
H13 H 0.0245 0.7537 1.1076
H14 H 0.0444 0.6018 1.1399
H15 H -0.0467 0.5859 1.1018
H16 H 0.272(2) 0.624(2) 0.8844(9)
N1 N 0.2015(2) 0.0788(3) 0.20379(8)
N2 N 0.24617(19) 0.2123(3) 0.33640(7)
N3 N 0.2654(2) 0.2801(3) 0.37794(7)
N4 N 0.3832(2) 0.4335(3) 0.58116(7)
O1 O 0.39752(16) 0.0766(2) 0.39305(5)
C1 C 0.1436(2) 0.2332(4) 0.26855(8)
C2 C 0.0449(3) 0.2874(4) 0.24716(10)
H1 H -0.0077 0.3584 0.2613
C3 C 0.0253(3) 0.2348(4) 0.20449(10)
H2 H -0.0405 0.2704 0.1893
C4 C 0.1033(3) 0.1309(4) 0.18509(10)
H3 H 0.0871 0.0931 0.1567
C5 C 0.2181(3) 0.1308(4) 0.24513(9)
H4 H 0.2854 0.0950 0.2593
C6 C 0.1688(2) 0.2884(4) 0.31372(9)
H5 H 0.1283 0.3790 0.3258
C7 C 0.3431(2) 0.2035(4) 0.40493(9)
C8 C 0.3553(2) 0.2745(3) 0.44940(8)
C9 C 0.2769(2) 0.3872(3) 0.46797(8)
H6 H 0.2157 0.4268 0.4509
C10 C 0.2866(2) 0.4425(3) 0.51094(8)
H7 H 0.2325 0.5185 0.5222
C11 C 0.3776(2) 0.3846(3) 0.53771(9)
C12 C 0.4577(2) 0.2732(4) 0.51888(9)
H8 H 0.5198 0.2344 0.5357
C13 C 0.4464(2) 0.2203(3) 0.47616(9)
H9 H 0.5012 0.1460 0.4646
C14 C 0.3071(3) 0.5613(4) 0.59850(9)
H10 H 0.3202 0.6660 0.5832
H11 H 0.3225 0.5765 0.6293
H12 H 0.2279 0.5266 0.5945
C15 C 0.4728(3) 0.3674(4) 0.61006(9)
H13 H 0.4755 0.2463 0.6076
H14 H 0.4556 0.3982 0.6399
H15 H 0.5467 0.4141 0.6018
H16 H 0.228(2) 0.376(2) 0.3844(9)
N1 N 0.2985(2) 0.5788(3) 0.20379(8)
N2 N 0.25383(19) 0.7123(3) 0.33640(7)
N3 N 0.2346(2) 0.7801(3) 0.37794(7)
N4 N 0.1168(2) 0.9335(3) 0.58116(7)
O1 O 0.10248(16) 0.5766(2) 0.39305(5)
C1 C 0.3564(2) 0.7332(4) 0.26855(8)
C2 C 0.4551(3) 0.7874(4) 0.24716(10)
H1 H 0.5077 0.8584 0.2613
C3 C 0.4747(3) 0.7348(4) 0.20449(10)
H2 H 0.5405 0.7704 0.1893
C4 C 0.3967(3) 0.6309(4) 0.18509(10)
H3 H 0.4129 0.5931 0.1567
C5 C 0.2819(3) 0.6308(4) 0.24513(9)
H4 H 0.2146 0.5950 0.2593
C6 C 0.3312(2) 0.7884(4) 0.31372(9)
H5 H 0.3717 0.8790 0.3258
C7 C 0.1569(2) 0.7035(4) 0.40493(9)
C8 C 0.1447(2) 0.7745(3) 0.44940(8)
C9 C 0.2231(2) 0.8872(3) 0.46797(8)
H6 H 0.2843 0.9268 0.4509
C10 C 0.2134(2) 0.9425(3) 0.51094(8)
H7 H 0.2675 1.0185 0.5222
C11 C 0.1224(2) 0.8846(3) 0.53771(9)
C12 C 0.0423(2) 0.7732(4) 0.51888(9)
H8 H -0.0198 0.7344 0.5357
C13 C 0.0536(2) 0.7203(3) 0.47616(9)
H9 H -0.0012 0.6460 0.4646
C14 C 0.1929(3) 1.0613(4) 0.59850(9)
H10 H 0.1798 1.1660 0.5832
H11 H 0.1775 1.0765 0.6293
H12 H 0.2721 1.0266 0.5945
C15 C 0.0272(3) 0.8674(4) 0.61006(9)
H13 H 0.0245 0.7463 0.6076
H14 H 0.0444 0.8982 0.6399
H15 H -0.0467 0.9141 0.6018
H16 H 0.272(2) 0.876(2) 0.3844(9)
N1 N 0.2015(2) 0.4212(3) 0.70379(8)
N2 N 0.24617(19) 0.2877(3) 0.83640(7)
N3 N 0.2654(2) 0.2199(3) 0.87794(7)
N4 N 0.3832(2) 0.0665(3) 1.08116(7)
O1 O 0.39752(16) 0.4234(2) 0.89305(5)
C1 C 0.1436(2) 0.2668(4) 0.76855(8)
C2 C 0.0449(3) 0.2126(4) 0.74716(10)
H1 H -0.0077 0.1416 0.7613
C3 C 0.0253(3) 0.2652(4) 0.70449(10)
H2 H -0.0405 0.2296 0.6893
C4 C 0.1033(3) 0.3691(4) 0.68509(10)
H3 H 0.0871 0.4069 0.6567
C5 C 0.2181(3) 0.3692(4) 0.74513(9)
H4 H 0.2854 0.4050 0.7593
C6 C 0.1688(2) 0.2116(4) 0.81372(9)
H5 H 0.1283 0.1210 0.8258
C7 C 0.3431(2) 0.2965(4) 0.90493(9)
C8 C 0.3553(2) 0.2255(3) 0.94940(8)
C9 C 0.2769(2) 0.1128(3) 0.96797(8)
H6 H 0.2157 0.0732 0.9509
C10 C 0.2866(2) 0.0575(3) 1.01094(8)
H7 H 0.2325 -0.0185 1.0222
C11 C 0.3776(2) 0.1154(3) 1.03771(9)
C12 C 0.4577(2) 0.2268(4) 1.01888(9)
H8 H 0.5198 0.2656 1.0357
C13 C 0.4464(2) 0.2797(3) 0.97616(9)
H9 H 0.5012 0.3540 0.9646
C14 C 0.3071(3) -0.0613(4) 1.09850(9)
H10 H 0.3202 -0.1660 1.0832
H11 H 0.3225 -0.0765 1.1293
H12 H 0.2279 -0.0266 1.0945
C15 C 0.4728(3) 0.1326(4) 1.11006(9)
H13 H 0.4755 0.2537 1.1076
H14 H 0.4556 0.1018 1.1399
H15 H 0.5467 0.0859 1.1018
H16 H 0.228(2) 0.124(2) 0.8844(9)
N1 N 0.7015(2) 0.0788(3) 0.29621(8)
N2 N 0.74617(19) 0.2123(3) 0.16360(7)
N3 N 0.7654(2) 0.2801(3) 0.12206(7)
N4 N 0.8832(2) 0.4335(3) -0.08116(7)
O1 O 0.89752(16) 0.0766(2) 0.10695(5)
C1 C 0.6436(2) 0.2332(4) 0.23145(8)
C2 C 0.5449(3) 0.2874(4) 0.25284(10)
H1 H 0.4923 0.3584 0.2387
C3 C 0.5253(3) 0.2348(4) 0.29551(10)
H2 H 0.4595 0.2704 0.3107
C4 C 0.6033(3) 0.1309(4) 0.31491(10)
H3 H 0.5871 0.0931 0.3433
C5 C 0.7181(3) 0.1308(4) 0.25487(9)
H4 H 0.7854 0.0950 0.2407
C6 C 0.6688(2) 0.2884(4) 0.18628(9)
H5 H 0.6283 0.3790 0.1742
C7 C 0.8431(2) 0.2035(4) 0.09507(9)
C8 C 0.8553(2) 0.2745(3) 0.05060(8)
C9 C 0.7769(2) 0.3872(3) 0.03203(8)
H6 H 0.7157 0.4268 0.0491
C10 C 0.7866(2) 0.4425(3) -0.01094(8)
H7 H 0.7325 0.5185 -0.0222
C11 C 0.8776(2) 0.3846(3) -0.03771(9)
C12 C 0.9577(2) 0.2732(4) -0.01888(9)
H8 H 1.0198 0.2344 -0.0357
C13 C 0.9464(2) 0.2203(3) 0.02384(9)
H9 H 1.0012 0.1460 0.0354
C14 C 0.8071(3) 0.5613(4) -0.09850(9)
H10 H 0.8202 0.6660 -0.0832
H11 H 0.8225 0.5765 -0.1293
H12 H 0.7279 0.5266 -0.0945
C15 C 0.9728(3) 0.3674(4) -0.11006(9)
H13 H 0.9755 0.2463 -0.1076
H14 H 0.9556 0.3982 -0.1399
H15 H 1.0467 0.4141 -0.1018
H16 H 0.728(2) 0.376(2) 0.1156(9)
N1 N 0.7985(2) 0.9212(3) 0.79621(8)
N2 N 0.75383(19) 0.7877(3) 0.66360(7)
N3 N 0.7346(2) 0.7199(3) 0.62206(7)
N4 N 0.6168(2) 0.5665(3) 0.41884(7)
O1 O 0.60248(16) 0.9234(2) 0.60695(5)
C1 C 0.8564(2) 0.7668(4) 0.73145(8)
C2 C 0.9551(3) 0.7126(4) 0.75284(10)
H1 H 1.0077 0.6416 0.7387
C3 C 0.9747(3) 0.7652(4) 0.79551(10)
H2 H 1.0405 0.7296 0.8107
C4 C 0.8967(3) 0.8691(4) 0.81491(10)
H3 H 0.9129 0.9069 0.8433
C5 C 0.7819(3) 0.8692(4) 0.75487(9)
H4 H 0.7146 0.9050 0.7407
C6 C 0.8312(2) 0.7116(4) 0.68628(9)
H5 H 0.8717 0.6210 0.6742
C7 C 0.6569(2) 0.7965(4) 0.59507(9)
C8 C 0.6447(2) 0.7255(3) 0.55060(8)
C9 C 0.7231(2) 0.6128(3) 0.53203(8)
H6 H 0.7843 0.5732 0.5491
C10 C 0.7134(2) 0.5575(3) 0.48906(8)
H7 H 0.7675 0.4815 0.4778
C11 C 0.6224(2) 0.6154(3) 0.46229(9)
C12 C 0.5423(2) 0.7268(4) 0.48112(9)
H8 H 0.4802 0.7656 0.4643
C13 C 0.5536(2) 0.7797(3) 0.52384(9)
H9 H 0.4988 0.8540 0.5354
C14 C 0.6929(3) 0.4387(4) 0.40150(9)
H10 H 0.6798 0.3340 0.4168
H11 H 0.6775 0.4235 0.3707
H12 H 0.7721 0.4734 0.4055
C15 C 0.5272(3) 0.6326(4) 0.38994(9)
H13 H 0.5245 0.7537 0.3924
H14 H 0.5444 0.6018 0.3601
H15 H 0.4533 0.5859 0.3982
H16 H 0.772(2) 0.624(2) 0.6156(9)

#END
