./KABBAS_from_POSCAR.cif_generated_by_CrystalShift
_symmetry_cell_setting triclinic
_symmetry_space_group_name_H-M 'P 1'
loop_
_symmetry_equiv_pos_site_id
_symmetry_equiv_pos_as_xyz
1 x,y,z
_cell_length_a 11.513000
_cell_length_b 7.898000
_cell_length_c 30.359000
_cell_angle_alpha 90.000000
_cell_angle_beta 90.000000
_cell_angle_gamma 90.000000
_cell_volume 2760.533973
loop_
_atom_site_label
_atom_site_type_symbol
_atom_site_fract_x
_atom_site_fract_y
_atom_site_fract_z
H1 H 0.772000 0.624000 0.615600
H2 H 0.480200 0.765600 0.464300
H3 H 0.767500 0.481500 0.477800
H4 H 0.784300 0.573200 0.549100
H5 H 0.453300 0.585900 0.398200
H6 H 0.871700 0.621000 0.674200
H7 H 0.714600 0.905000 0.740700
H8 H 0.492300 0.141600 0.738700
H9 H 0.912900 0.906900 0.843300
H10 H 0.459500 0.229600 0.810700
H11 H 1.040500 0.729600 0.810700
H12 H 0.587100 0.406900 0.843300
H13 H 1.007700 0.641600 0.738700
H14 H 0.785400 0.405000 0.740700
H15 H 0.728000 0.376000 0.115600
H16 H 0.628300 0.121000 0.674200
H17 H 1.046700 0.414100 -0.101800
H18 H 0.955600 0.398200 -0.139900
H19 H 0.975500 0.246300 -0.107600
H20 H 0.715700 0.073200 0.549100
H21 H 0.727900 0.526600 -0.094500
H22 H 0.732500 -0.018500 0.477800
H23 H 0.822500 0.576500 -0.129300
H24 H 0.820200 0.666000 -0.083200
H25 H 1.019800 0.265600 0.464300
H26 H 1.001200 0.146000 0.035400
H27 H 1.001200 0.354000 0.535400
H28 H 1.019800 0.234400 -0.035700
H29 H 0.820200 -0.166000 0.416800
H30 H 0.822500 -0.076500 0.370700
H31 H 0.727900 -0.026600 0.405500
H32 H 0.732500 0.518500 -0.022200
H33 H 0.975500 0.253700 0.392400
H34 H 0.955600 0.101800 0.360100
H35 H 1.046700 0.085900 0.398200
H36 H 0.728000 0.124000 0.615600
H37 H 0.715700 0.426800 0.049100
H38 H 0.628300 0.379000 0.174200
H39 H 0.785400 0.095000 0.240700
H40 H 0.587100 0.093100 0.343300
H41 H 0.544400 0.601800 0.360100
H42 H 0.459500 0.270400 0.310700
H43 H 0.492300 0.358400 0.238700
H44 H 1.007700 0.858400 0.238700
H45 H 0.679800 0.334000 0.416800
H46 H 1.040500 0.770400 0.310700
H47 H 0.228000 0.124000 0.884400
H48 H 0.912900 0.593100 0.343300
H49 H 0.546700 0.085900 1.101800
H50 H 0.714600 0.595000 0.240700
H51 H 0.455600 0.101800 1.139900
H52 H 0.871700 0.879000 0.174200
H53 H 0.475500 0.253700 1.107600
H54 H 0.227900 -0.026600 1.094500
H55 H 0.322500 -0.076500 1.129300
H56 H 0.784300 0.926800 0.049100
H57 H 0.320200 -0.166000 1.083200
H58 H 0.767500 1.018500 -0.022200
H59 H 0.501200 0.354000 0.964600
H60 H 0.519800 0.265600 1.035700
H61 H 0.480200 0.734400 -0.035700
H62 H 0.232500 -0.018500 1.022200
H63 H 0.498800 0.646000 0.035400
H64 H 0.215700 0.073200 0.950900
H65 H 0.679800 1.166000 -0.083200
H66 H 0.677500 1.076500 -0.129300
H67 H 0.772100 1.026600 -0.094500
H68 H 0.128300 0.121000 0.825800
H69 H 0.524500 0.746300 -0.107600
H70 H 0.544400 0.898200 -0.139900
H71 H 0.453300 0.914100 -0.101800
H72 H 0.772000 0.876000 0.115600
H73 H 0.285400 0.405000 0.759300
H74 H 0.087100 0.406900 0.656700
H75 H -0.040500 0.229600 0.689300
H76 H -0.007700 0.141600 0.761300
H77 H 0.524500 0.753700 0.392400
H78 H 0.677500 0.423500 0.370700
H79 H 0.272000 0.876000 0.384400
H80 H 0.507700 0.641600 0.761300
H81 H -0.046700 0.914100 0.601800
H82 H 0.540500 0.729600 0.689300
H83 H 0.044400 0.898200 0.639900
H84 H 0.412900 0.906900 0.656700
H85 H 0.024500 0.746300 0.607600
H86 H 0.214600 0.905000 0.759300
H87 H 0.272100 1.026600 0.594500
H88 H 0.371700 0.621000 0.825800
H89 H 0.177500 1.076500 0.629300
H90 H 0.179800 1.166000 0.583200
H91 H -0.001200 0.646000 0.464600
H92 H 0.284300 0.573200 0.950900
H93 H -0.019800 0.734400 0.535700
H94 H 0.267500 0.481500 1.022200
H95 H 0.267500 1.018500 0.522200
H96 H 0.284300 0.926800 0.450900
H97 H -0.019800 0.765600 1.035700
H98 H 0.371700 0.879000 0.325800
H99 H -0.001200 0.854000 0.964600
H100 H 0.214600 0.595000 0.259300
H101 H 0.179800 0.334000 1.083200
H102 H 0.177500 0.423500 1.129300
H103 H 0.272100 0.473400 1.094500
H104 H 0.412900 0.593100 0.156700
H105 H 0.024500 0.753700 1.107600
H106 H 0.044400 0.601800 1.139900
H107 H -0.046700 0.585900 1.101800
H108 H 0.272000 0.624000 0.884400
H109 H 0.540500 0.770400 0.189300
H110 H 0.507700 0.858400 0.261300
H111 H 0.772100 0.473400 0.405500
H112 H 0.228000 0.376000 0.384400
H113 H 0.546700 0.414100 0.601800
H114 H 0.455600 0.398200 0.639900
H115 H 0.475500 0.246300 0.607600
H116 H -0.007700 0.358400 0.261300
H117 H 0.498800 0.854000 0.535400
H118 H -0.040500 0.270400 0.189300
H119 H 0.227900 0.526600 0.594500
H120 H 0.087100 0.093100 0.156700
H121 H 0.322500 0.576500 0.629300
H122 H 0.285400 0.095000 0.259300
H123 H 0.320200 0.666000 0.583200
H124 H 0.128300 0.379000 0.325800
H125 H 0.501200 0.146000 0.464600
H126 H 0.519800 0.234400 0.535700
H127 H 0.232500 0.518500 0.522200
H128 H 0.215700 0.426800 0.450900
C129 C 0.286600 0.442500 0.510940
C130 C 0.276900 0.387200 0.467970
C131 C 0.377600 0.384600 0.537710
C132 C 0.457700 0.273200 0.518880
C133 C 0.355300 0.274500 0.449400
C134 C 0.446400 0.220300 0.476160
C135 C 0.343100 0.203500 0.404930
C136 C 0.307100 0.561300 0.598500
C137 C 0.168800 0.288400 0.313720
C138 C 0.218100 0.130800 0.245130
C139 C 0.103300 0.130900 0.185090
C140 C 0.025300 0.234800 0.204490
C141 C 0.044900 0.287400 0.247160
C142 C 0.143600 0.233200 0.268550
C143 C 0.527200 0.632600 0.389940
C144 C 0.553600 0.779700 0.523840
C145 C 0.542300 0.726800 0.481120
C146 C 0.622400 0.615400 0.462290
C147 C 0.713400 0.557500 0.489060
C148 C 0.723100 0.612800 0.532030
C149 C 0.644700 0.725500 0.550600
C150 C 0.356400 0.733200 0.268550
C151 C 0.455100 0.787400 0.247160
C152 C 0.656900 0.796500 0.595070
C153 C 0.474700 0.734800 0.204490
C154 C 0.643600 0.266800 0.731450
C155 C 0.396700 0.630900 0.185090
C156 C 0.027200 0.632600 1.110060
C157 C 0.281900 0.630800 0.245130
C158 C 0.192900 0.438700 1.098500
C159 C 0.331200 0.788400 0.313720
C160 C 0.053600 0.779700 0.976160
C161 C 0.156900 0.703500 0.404930
C162 C 0.144700 0.774500 0.449400
C163 C 0.223100 0.887200 0.467970
C164 C 0.042300 0.726800 1.018880
C165 C 0.213400 0.942500 0.510940
C166 C 0.122400 0.615400 1.037710
C167 C 0.122400 0.884600 0.537710
C168 C 0.042300 0.773200 0.518880
C169 C 0.213400 0.557500 1.010940
C170 C 0.053600 0.720300 0.476160
C171 C 0.223100 0.612800 0.967970
C172 C 0.192900 1.061300 0.598500
C173 C 0.144700 0.725500 0.949400
C174 C 0.156900 0.796500 0.904930
C175 C 0.331200 0.711600 0.813720
C176 C 0.027200 0.867400 0.610060
C177 C 0.281900 0.869200 0.745130
C178 C 0.396700 0.869100 0.685090
C179 C 0.474700 0.765200 0.704490
C180 C 0.455100 0.712600 0.747160
C181 C 0.831200 0.711600 0.686280
C182 C 0.544900 0.212600 0.752840
C183 C 0.781900 0.869200 0.754870
C184 C 0.525300 0.265200 0.795510
C185 C 0.356400 0.766800 0.768550
C186 C 0.143600 0.266800 0.768550
C187 C 0.044900 0.212600 0.747160
C188 C 0.896700 0.869100 0.814910
C189 C 0.025300 0.265200 0.704490
C190 C 0.603300 0.369100 0.814910
C191 C 0.103300 0.369100 0.685090
C192 C 0.974700 0.765200 0.795510
C193 C 0.218100 0.369200 0.745130
C194 C 0.718100 0.369200 0.754870
C195 C 0.168800 0.211600 0.813720
C196 C 0.527200 0.867400 -0.110060
C197 C 0.343100 0.296500 0.904930
C198 C 0.355300 0.225500 0.949400
C199 C 0.276900 0.112800 0.967970
C200 C 0.692900 1.061300 -0.098500
C201 C 0.286600 0.057500 1.010940
C202 C 0.553600 0.720300 0.023840
C203 C 0.377600 0.115400 1.037710
C204 C 0.457700 0.226800 1.018880
C205 C 0.542300 0.773200 -0.018880
C206 C 0.446400 0.279700 0.976160
C207 C 0.622400 0.884600 -0.037710
C208 C 0.307100 -0.061300 1.098500
C209 C 0.713400 0.942500 -0.010940
C210 C 0.723100 0.887200 0.032030
C211 C 0.644700 0.774500 0.050600
C212 C 0.472800 0.132600 1.110060
C213 C 0.656900 0.703500 0.095070
C214 C 0.831200 0.788400 0.186280
C215 C 0.781900 0.630800 0.254870
C216 C 0.896700 0.630900 0.314910
C217 C 0.955100 0.712600 0.752840
C218 C 0.856400 0.766800 0.731450
C219 C 0.692900 0.438700 0.401500
C220 C 0.668800 0.211600 0.686280
C221 C 0.974700 0.734800 0.295510
C222 C 0.643600 0.233200 0.231450
C223 C 0.544900 0.287400 0.252840
C224 C 0.955100 0.787400 0.252840
C225 C 0.525300 0.234800 0.295510
C226 C 0.856400 0.733200 0.231450
C227 C 0.603300 0.130900 0.314910
C228 C 0.843100 0.296500 0.595070
C229 C 0.718100 0.130800 0.254870
C230 C 0.855300 0.225500 0.550600
C231 C 0.668800 0.288400 0.186280
C232 C 0.776900 0.112800 0.532030
C233 C 0.843100 0.203500 0.095070
C234 C 0.855300 0.274500 0.050600
C235 C 0.776900 0.387200 0.032030
C236 C 0.972800 0.367400 -0.110060
C237 C 0.786600 0.442500 -0.010940
C238 C 0.972800 0.132600 0.389940
C239 C 0.877600 0.384600 -0.037710
C240 C 0.957700 0.273200 -0.018880
C241 C 0.807100 -0.061300 0.401500
C242 C 0.946400 0.220300 0.023840
C243 C 0.946400 0.279700 0.523840
C244 C 0.807100 0.561300 -0.098500
C245 C 0.957700 0.226800 0.481120
C246 C 0.877600 0.115400 0.462290
C247 C 0.786600 0.057500 0.489060
C248 C 0.472800 0.367400 0.610060
N249 N 0.753830 0.712300 0.163600
N250 N 0.734600 0.780100 0.122060
N251 N 0.616800 0.933500 -0.081160
N252 N 0.883200 0.433500 -0.081160
N253 N 0.798500 0.921200 0.796210
N254 N 0.753830 0.787700 0.663600
N255 N 0.734600 0.719900 0.622060
N256 N 0.616800 0.566500 0.418840
N257 N 0.765400 0.280100 0.122060
N258 N 0.746170 0.212300 0.163600
N259 N 0.701500 0.078800 0.296210
N260 N 0.298500 0.921200 0.703790
N261 N 0.253830 0.787700 0.836400
N262 N 0.234600 0.719900 0.877940
N263 N 0.116800 0.566500 1.081160
N264 N 0.383200 0.066500 1.081160
N265 N 0.265400 0.219900 0.877940
N266 N 0.246170 0.287700 0.836400
N267 N 0.201500 0.421200 0.703790
N268 N 0.201500 0.078800 0.203790
N269 N 0.246170 0.212300 0.336400
N270 N 0.265400 0.280100 0.377940
N271 N 0.116800 0.933500 0.581160
N272 N 0.883200 0.066500 0.418840
N273 N 0.234600 0.780100 0.377940
N274 N 0.765400 0.219900 0.622060
N275 N 0.253830 0.712300 0.336400
N276 N 0.298500 0.578800 0.203790
N277 N 0.746170 0.287700 0.663600
N278 N 0.383200 0.433500 0.581160
N279 N 0.798500 0.578800 0.296210
N280 N 0.701500 0.421200 0.796210
O281 O 0.897520 0.076600 0.106950
O282 O 0.397520 0.423400 0.893050
O283 O 0.102480 0.576600 0.393050
O284 O 0.397520 0.076600 0.393050
O285 O 0.102480 0.923400 0.893050
O286 O 0.602480 0.576600 0.106950
O287 O 0.897520 0.423400 0.606950
O288 O 0.602480 0.923400 0.606950

#END
