
#######################################################################
#
#                 Cambridge Crystallographic Data Centre
#                                CCDC 
#
#######################################################################
#
# If this CIF has been generated from an entry in the Cambridge 
# Structural Database, then it will include bibliographic, chemical, 
# crystal, experimental, refinement or atomic coordinate data resulting 
# from the CCDC's data processing and validation procedures.
#
#######################################################################

data_KABBIB
_symmetry_cell_setting           monoclinic
_symmetry_space_group_name_H-M   'P 21/n'
_symmetry_Int_Tables_number      14
_space_group_name_Hall           '-P 2yn'
loop_
_symmetry_equiv_pos_site_id
_symmetry_equiv_pos_as_xyz
1 x,y,z
2 1/2-x,1/2+y,1/2-z
3 -x,-y,-z
4 1/2+x,1/2-y,1/2+z
_cell_length_a                   6.7697(4)
_cell_length_b                   18.4108(9)
_cell_length_c                   13.0431(10)
_cell_angle_alpha                90
_cell_angle_beta                 99.042(7)
_cell_angle_gamma                90
_cell_volume                     1605.43
loop_
_atom_site_label
_atom_site_type_symbol
_atom_site_fract_x
_atom_site_fract_y
_atom_site_fract_z
Se1 Se 0.64528(9) 0.75942(3) 0.49767(5)
O1 O 0.1673(5) 0.5111(2) 0.8056(2)
C1 C 0.2440(6) 0.5228(3) 0.7303(3)
O2 O 0.2172(4) 0.54692(18) 0.4656(2)
N1 N 0.1550(5) 0.5150(2) 0.6291(3)
H1 H 0.040(4) 0.497(3) 0.610(3)
N2 N 0.4506(5) 0.56016(19) 0.6146(2)
C2 C 0.2728(6) 0.5418(2) 0.5593(3)
C3 C 0.5868(6) 0.6197(2) 0.5940(3)
H2 H 0.6925 0.6009 0.5578
C4 C 0.7462(8) 0.5548(4) 0.9227(4)
H3 H 0.7778 0.5526 0.9978
H4 H 0.8696 0.5632 0.8954
C5 C 0.6553(8) 0.4827(3) 0.8815(3)
H5 H 0.7496 0.4437 0.902
H6 H 0.5352 0.4731 0.9112
C6 C 0.5246(7) 0.6202(3) 0.7742(3)
H7 H 0.4102 0.6535 0.7628
C7 C 0.9183(7) 0.6892(3) 0.3816(4)
H8 H 1.0034 0.6876 0.4449
C8 C 0.9807(9) 0.6624(3) 0.2933(5)
H9 H 1.1089 0.6433 0.2974
C9 C 0.8591(11) 0.6635(4) 0.2014(5)
H10 H 0.903 0.6445 0.1429
C10 C 0.6730(11) 0.6922(4) 0.1934(4)
H11 H 0.5897 0.6931 0.1295
C11 C 0.6079(8) 0.7199(4) 0.2801(5)
H12 H 0.4806 0.7399 0.2748
C12 C 0.7320(7) 0.7180(3) 0.3758(4)
C13 C 0.4736(7) 0.6806(3) 0.5315(3)
H13 H 0.3754 0.7003 0.5707
H14 H 0.4019 0.6606 0.4675
C14 C 0.4580(6) 0.5468(2) 0.7256(3)
C15 C 0.6042(7) 0.4851(3) 0.7640(3)
H15 H 0.5452 0.4391 0.7392
H16 H 0.7262 0.4915 0.7348
C16 C 0.6023(7) 0.6171(3) 0.8912(3)
H17 H 0.6692 0.6625 0.9124
H18 H 0.4892 0.6124 0.9281
C17 C 0.6759(7) 0.6443(3) 0.7050(3)
H19 H 0.8048 0.6215 0.7271
H20 H 0.693 0.6966 0.7077
Se1 Se 0.85472(9) 0.25942(3) 1.00233(5)
O1 O 1.3327(5) 0.0111(2) 0.6944(2)
C1 C 1.2560(6) 0.0228(3) 0.7697(3)
O2 O 1.2828(4) 0.04692(18) 1.0344(2)
N1 N 1.3450(5) 0.0150(2) 0.8709(3)
H1 H 1.460(4) -0.003(3) 0.890(3)
N2 N 1.0494(5) 0.06016(19) 0.8854(2)
C2 C 1.2272(6) 0.0418(2) 0.9407(3)
C3 C 0.9132(6) 0.1197(2) 0.9060(3)
H2 H 0.8075 0.1009 0.9422
C4 C 0.7538(8) 0.0548(4) 0.5773(4)
H3 H 0.7222 0.0526 0.5022
H4 H 0.6304 0.0632 0.6046
C5 C 0.8447(8) -0.0173(3) 0.6185(3)
H5 H 0.7504 -0.0563 0.598
H6 H 0.9648 -0.0269 0.5888
C6 C 0.9754(7) 0.1202(3) 0.7258(3)
H7 H 1.0898 0.1535 0.7372
C7 C 0.5817(7) 0.1892(3) 1.1184(4)
H8 H 0.4966 0.1876 1.0551
C8 C 0.5193(9) 0.1624(3) 1.2067(5)
H9 H 0.3911 0.1433 1.2026
C9 C 0.6409(11) 0.1635(4) 1.2986(5)
H10 H 0.597 0.1445 1.3571
C10 C 0.8270(11) 0.1922(4) 1.3066(4)
H11 H 0.9103 0.1931 1.3705
C11 C 0.8921(8) 0.2199(4) 1.2199(5)
H12 H 1.0194 0.2399 1.2252
C12 C 0.7680(7) 0.2180(3) 1.1242(4)
C13 C 1.0264(7) 0.1806(3) 0.9685(3)
H13 H 1.1246 0.2003 0.9293
H14 H 1.0981 0.1606 1.0325
C14 C 1.0420(6) 0.0468(2) 0.7744(3)
C15 C 0.8958(7) -0.0149(3) 0.7360(3)
H15 H 0.9548 -0.0609 0.7608
H16 H 0.7738 -0.0085 0.7652
C16 C 0.8977(7) 0.1171(3) 0.6088(3)
H17 H 0.8308 0.1625 0.5876
H18 H 1.0108 0.1124 0.5719
C17 C 0.8241(7) 0.1443(3) 0.7950(3)
H19 H 0.6952 0.1215 0.7729
H20 H 0.807 0.1966 0.7923
Se1 Se 0.35472(9) 0.24058(3) 0.50233(5)
O1 O 0.8327(5) 0.4889(2) 0.1944(2)
C1 C 0.7560(6) 0.4772(3) 0.2697(3)
O2 O 0.7828(4) 0.45308(18) 0.5344(2)
N1 N 0.8450(5) 0.4850(2) 0.3709(3)
H1 H 0.960(4) 0.503(3) 0.390(3)
N2 N 0.5494(5) 0.43984(19) 0.3854(2)
C2 C 0.7272(6) 0.4582(2) 0.4407(3)
C3 C 0.4132(6) 0.3803(2) 0.4060(3)
H2 H 0.3075 0.3991 0.4422
C4 C 0.2538(8) 0.4452(4) 0.0773(4)
H3 H 0.2222 0.4474 0.0022
H4 H 0.1304 0.4368 0.1046
C5 C 0.3447(8) 0.5173(3) 0.1185(3)
H5 H 0.2504 0.5563 0.098
H6 H 0.4648 0.5269 0.0888
C6 C 0.4754(7) 0.3798(3) 0.2258(3)
H7 H 0.5898 0.3465 0.2372
C7 C 0.0817(7) 0.3108(3) 0.6184(4)
H8 H -0.0034 0.3124 0.5551
C8 C 0.0193(9) 0.3376(3) 0.7067(5)
H9 H -0.1089 0.3567 0.7026
C9 C 0.1409(11) 0.3365(4) 0.7986(5)
H10 H 0.097 0.3555 0.8571
C10 C 0.3270(11) 0.3078(4) 0.8066(4)
H11 H 0.4103 0.3069 0.8705
C11 C 0.3921(8) 0.2801(4) 0.7199(5)
H12 H 0.5194 0.2601 0.7252
C12 C 0.2680(7) 0.2820(3) 0.6242(4)
C13 C 0.5264(7) 0.3194(3) 0.4685(3)
H13 H 0.6246 0.2997 0.4293
H14 H 0.5981 0.3394 0.5325
C14 C 0.5420(6) 0.4532(2) 0.2744(3)
C15 C 0.3958(7) 0.5149(3) 0.2360(3)
H15 H 0.4548 0.5609 0.2608
H16 H 0.2738 0.5085 0.2652
C16 C 0.3977(7) 0.3829(3) 0.1088(3)
H17 H 0.3308 0.3375 0.0876
H18 H 0.5108 0.3876 0.0719
C17 C 0.3241(7) 0.3557(3) 0.2950(3)
H19 H 0.1952 0.3785 0.2729
H20 H 0.307 0.3034 0.2923
Se1 Se 0.14528(9) 0.74058(3) -0.00233(5)
O1 O -0.3327(5) 0.9889(2) 0.3056(2)
C1 C -0.2560(6) 0.9772(3) 0.2303(3)
O2 O -0.2828(4) 0.95308(18) -0.0344(2)
N1 N -0.3450(5) 0.9850(2) 0.1291(3)
H1 H -0.460(4) 1.003(3) 0.110(3)
N2 N -0.0494(5) 0.93984(19) 0.1146(2)
C2 C -0.2272(6) 0.9582(2) 0.0593(3)
C3 C 0.0868(6) 0.8803(2) 0.0940(3)
H2 H 0.1925 0.8991 0.0578
C4 C 0.2462(8) 0.9452(4) 0.4227(4)
H3 H 0.2778 0.9474 0.4978
H4 H 0.3696 0.9368 0.3954
C5 C 0.1553(8) 1.0173(3) 0.3815(3)
H5 H 0.2496 1.0563 0.402
H6 H 0.0352 1.0269 0.4112
C6 C 0.0246(7) 0.8798(3) 0.2742(3)
H7 H -0.0898 0.8465 0.2628
C7 C 0.4183(7) 0.8108(3) -0.1184(4)
H8 H 0.5034 0.8124 -0.0551
C8 C 0.4807(9) 0.8376(3) -0.2067(5)
H9 H 0.6089 0.8567 -0.2026
C9 C 0.3591(11) 0.8365(4) -0.2986(5)
H10 H 0.403 0.8555 -0.3571
C10 C 0.1730(11) 0.8078(4) -0.3066(4)
H11 H 0.0897 0.8069 -0.3705
C11 C 0.1079(8) 0.7801(4) -0.2199(5)
H12 H -0.0194 0.7601 -0.2252
C12 C 0.2320(7) 0.7820(3) -0.1242(4)
C13 C -0.0264(7) 0.8194(3) 0.0315(3)
H13 H -0.1246 0.7997 0.0707
H14 H -0.0981 0.8394 -0.0325
C14 C -0.0420(6) 0.9532(2) 0.2256(3)
C15 C 0.1042(7) 1.0149(3) 0.2640(3)
H15 H 0.0452 1.0609 0.2392
H16 H 0.2262 1.0085 0.2348
C16 C 0.1023(7) 0.8829(3) 0.3912(3)
H17 H 0.1692 0.8375 0.4124
H18 H -0.0108 0.8876 0.4281
C17 C 0.1759(7) 0.8557(3) 0.2050(3)
H19 H 0.3048 0.8785 0.2271
H20 H 0.193 0.8034 0.2077

#END
