
#######################################################################
#
#                 Cambridge Crystallographic Data Centre
#                                CCDC 
#
#######################################################################
#
# If this CIF has been generated from an entry in the Cambridge 
# Structural Database, then it will include bibliographic, chemical, 
# crystal, experimental, refinement or atomic coordinate data resulting 
# from the CCDC's data processing and validation procedures.
#
#######################################################################

data_KABBEX
_symmetry_cell_setting           monoclinic
_symmetry_space_group_name_H-M   'I 2/a'
_symmetry_Int_Tables_number      15
_space_group_name_Hall           '-I 2ya'
loop_
_symmetry_equiv_pos_site_id
_symmetry_equiv_pos_as_xyz
1 x,y,z
2 1/2-x,y,-z
3 1/2+x,1/2+y,1/2+z
4 -x,1/2+y,1/2-z
5 -x,-y,-z
6 1/2+x,-y,z
7 1/2-x,1/2-y,1/2-z
8 x,1/2-y,1/2+z
_cell_length_a                   12.7811(4)
_cell_length_b                   6.2674(2)
_cell_length_c                   33.3511(9)
_cell_angle_alpha                90
_cell_angle_beta                 93.650(3)
_cell_angle_gamma                90
_cell_volume                     2666.15
loop_
_atom_site_label
_atom_site_type_symbol
_atom_site_fract_x
_atom_site_fract_y
_atom_site_fract_z
O1 O 0.62160(11) 0.3090(2) 0.47745(4)
O2 O 0.76572(11) -0.24030(19) 0.41088(4)
N1 N 0.73393(11) 0.3041(2) 0.42606(4)
H1 H 0.7444(15) 0.440(3) 0.4229(6)
N2 N 0.68282(11) -0.0015(2) 0.45043(4)
H2 H 0.6554(16) -0.084(3) 0.4671(6)
C1 C 0.67518(13) 0.2194(3) 0.45339(5)
C2 C 0.74739(13) -0.0599(3) 0.42162(5)
C3 C 0.79205(12) 0.1439(2) 0.40455(5)
C4 C 0.77059(13) 0.1535(3) 0.35863(5)
H3 H 0.8059 0.0306 0.3473
C5 C 0.82031(18) 0.3535(3) 0.34213(6)
H4 H 0.8095 0.3542 0.3131
H5 H 0.7859 0.4784 0.3523
C6 C 0.93683(18) 0.3658(4) 0.35371(8)
H6 H 0.9724 0.2498 0.3409
H7 H 0.9644 0.499 0.344
C7 C 0.95926(16) 0.3523(4) 0.39882(7)
H8 H 0.9315 0.478 0.4114
H9 H 1.0345 0.3493 0.405
C8 C 0.91009(14) 0.1537(3) 0.41576(6)
H10 H 0.9218 0.1534 0.4448
H11 H 0.9436 0.028 0.4055
C9 C 0.65427(15) 0.1349(4) 0.34563(6)
H12 H 0.6245 0.0175 0.36
H13 H 0.619 0.2646 0.3531
C10 C 0.63338(17) 0.0989(4) 0.30111(6)
C11 C 0.5809(3) 0.2375(6) 0.27817(9)
H14 H 0.5704 0.2127 0.2507
H15 H 0.5543 0.3604 0.2894
C12 C 0.6759(3) -0.0954(6) 0.28416(10)
H16 H 0.6442 -0.1179 0.2576
H17 H 0.661 -0.2149 0.3009
H18 H 0.7504 -0.081 0.2829
O1 O 0.87840(11) 0.3090(2) 0.52255(4)
O2 O 0.73428(11) -0.24030(19) 0.58912(4)
N1 N 0.76607(11) 0.3041(2) 0.57394(4)
H1 H 0.7556(15) 0.440(3) 0.5771(6)
N2 N 0.81718(11) -0.0015(2) 0.54957(4)
H2 H 0.8446(16) -0.084(3) 0.5329(6)
C1 C 0.82482(13) 0.2194(3) 0.54661(5)
C2 C 0.75261(13) -0.0599(3) 0.57838(5)
C3 C 0.70795(12) 0.1439(2) 0.59545(5)
C4 C 0.72941(13) 0.1535(3) 0.64137(5)
H3 H 0.6941 0.0306 0.6527
C5 C 0.67969(18) 0.3535(3) 0.65787(6)
H4 H 0.6905 0.3542 0.6869
H5 H 0.7141 0.4784 0.6477
C6 C 0.56317(18) 0.3658(4) 0.64629(8)
H6 H 0.5276 0.2498 0.6591
H7 H 0.5356 0.499 0.656
C7 C 0.54074(16) 0.3523(4) 0.60118(7)
H8 H 0.5685 0.478 0.5886
H9 H 0.4655 0.3493 0.595
C8 C 0.58991(14) 0.1537(3) 0.58424(6)
H10 H 0.5782 0.1534 0.5552
H11 H 0.5564 0.028 0.5945
C9 C 0.84573(15) 0.1349(4) 0.65437(6)
H12 H 0.8755 0.0175 0.64
H13 H 0.881 0.2646 0.6469
C10 C 0.86662(17) 0.0989(4) 0.69889(6)
C11 C 0.9191(3) 0.2375(6) 0.72183(9)
H14 H 0.9296 0.2127 0.7493
H15 H 0.9457 0.3604 0.7106
C12 C 0.8241(3) -0.0954(6) 0.71584(10)
H16 H 0.8558 -0.1179 0.7424
H17 H 0.839 -0.2149 0.6991
H18 H 0.7496 -0.081 0.7171
O1 O 0.12160(11) 0.8090(2) 0.97745(4)
O2 O 0.26572(11) 0.25970(19) 0.91088(4)
N1 N 0.23393(11) 0.8041(2) 0.92606(4)
H1 H 0.2444(15) 0.940(3) 0.9229(6)
N2 N 0.18282(11) 0.4985(2) 0.95043(4)
H2 H 0.1554(16) 0.416(3) 0.9671(6)
C1 C 0.17518(13) 0.7194(3) 0.95339(5)
C2 C 0.24739(13) 0.4401(3) 0.92162(5)
C3 C 0.29205(12) 0.6439(2) 0.90455(5)
C4 C 0.27059(13) 0.6535(3) 0.85863(5)
H3 H 0.3059 0.5306 0.8473
C5 C 0.32031(18) 0.8535(3) 0.84213(6)
H4 H 0.3095 0.8542 0.8131
H5 H 0.2859 0.9784 0.8523
C6 C 0.43683(18) 0.8658(4) 0.85371(8)
H6 H 0.4724 0.7498 0.8409
H7 H 0.4644 0.999 0.844
C7 C 0.45926(16) 0.8523(4) 0.89882(7)
H8 H 0.4315 0.978 0.9114
H9 H 0.5345 0.8493 0.905
C8 C 0.41009(14) 0.6537(3) 0.91576(6)
H10 H 0.4218 0.6534 0.9448
H11 H 0.4436 0.528 0.9055
C9 C 0.15427(15) 0.6349(4) 0.84563(6)
H12 H 0.1245 0.5175 0.86
H13 H 0.119 0.7646 0.8531
C10 C 0.13338(17) 0.5989(4) 0.80111(6)
C11 C 0.0809(3) 0.7375(6) 0.77817(9)
H14 H 0.0704 0.7127 0.7507
H15 H 0.0543 0.8604 0.7894
C12 C 0.1759(3) 0.4046(6) 0.78416(10)
H16 H 0.1442 0.3821 0.7576
H17 H 0.161 0.2851 0.8009
H18 H 0.2504 0.419 0.7829
O1 O 0.37840(11) 0.8090(2) 0.02255(4)
O2 O 0.23428(11) 0.25970(19) 0.08912(4)
N1 N 0.26607(11) 0.8041(2) 0.07394(4)
H1 H 0.2556(15) 0.940(3) 0.0771(6)
N2 N 0.31718(11) 0.4985(2) 0.04957(4)
H2 H 0.3446(16) 0.416(3) 0.0329(6)
C1 C 0.32482(13) 0.7194(3) 0.04661(5)
C2 C 0.25261(13) 0.4401(3) 0.07838(5)
C3 C 0.20795(12) 0.6439(2) 0.09545(5)
C4 C 0.22941(13) 0.6535(3) 0.14137(5)
H3 H 0.1941 0.5306 0.1527
C5 C 0.17969(18) 0.8535(3) 0.15787(6)
H4 H 0.1905 0.8542 0.1869
H5 H 0.2141 0.9784 0.1477
C6 C 0.06317(18) 0.8658(4) 0.14629(8)
H6 H 0.0276 0.7498 0.1591
H7 H 0.0356 0.999 0.156
C7 C 0.04074(16) 0.8523(4) 0.10118(7)
H8 H 0.0685 0.978 0.0886
H9 H -0.0345 0.8493 0.095
C8 C 0.08991(14) 0.6537(3) 0.08424(6)
H10 H 0.0782 0.6534 0.0552
H11 H 0.0564 0.528 0.0945
C9 C 0.34573(15) 0.6349(4) 0.15437(6)
H12 H 0.3755 0.5175 0.14
H13 H 0.381 0.7646 0.1469
C10 C 0.36662(17) 0.5989(4) 0.19889(6)
C11 C 0.4191(3) 0.7375(6) 0.22183(9)
H14 H 0.4296 0.7127 0.2493
H15 H 0.4457 0.8604 0.2106
C12 C 0.3241(3) 0.4046(6) 0.21584(10)
H16 H 0.3558 0.3821 0.2424
H17 H 0.339 0.2851 0.1991
H18 H 0.2496 0.419 0.2171
O1 O 0.37840(11) 0.6910(2) 0.52255(4)
O2 O 0.23428(11) 1.24030(19) 0.58912(4)
N1 N 0.26607(11) 0.6959(2) 0.57394(4)
H1 H 0.2556(15) 0.560(3) 0.5771(6)
N2 N 0.31718(11) 1.0015(2) 0.54957(4)
H2 H 0.3446(16) 1.084(3) 0.5329(6)
C1 C 0.32482(13) 0.7806(3) 0.54661(5)
C2 C 0.25261(13) 1.0599(3) 0.57838(5)
C3 C 0.20795(12) 0.8561(2) 0.59545(5)
C4 C 0.22941(13) 0.8465(3) 0.64137(5)
H3 H 0.1941 0.9694 0.6527
C5 C 0.17969(18) 0.6465(3) 0.65787(6)
H4 H 0.1905 0.6458 0.6869
H5 H 0.2141 0.5216 0.6477
C6 C 0.06317(18) 0.6342(4) 0.64629(8)
H6 H 0.0276 0.7502 0.6591
H7 H 0.0356 0.501 0.656
C7 C 0.04074(16) 0.6477(4) 0.60118(7)
H8 H 0.0685 0.522 0.5886
H9 H -0.0345 0.6507 0.595
C8 C 0.08991(14) 0.8463(3) 0.58424(6)
H10 H 0.0782 0.8466 0.5552
H11 H 0.0564 0.972 0.5945
C9 C 0.34573(15) 0.8651(4) 0.65437(6)
H12 H 0.3755 0.9825 0.64
H13 H 0.381 0.7354 0.6469
C10 C 0.36662(17) 0.9011(4) 0.69889(6)
C11 C 0.4191(3) 0.7625(6) 0.72183(9)
H14 H 0.4296 0.7873 0.7493
H15 H 0.4457 0.6396 0.7106
C12 C 0.3241(3) 1.0954(6) 0.71584(10)
H16 H 0.3558 1.1179 0.7424
H17 H 0.339 1.2149 0.6991
H18 H 0.2496 1.081 0.7171
O1 O 0.12160(11) 0.6910(2) 0.47745(4)
O2 O 0.26572(11) 1.24030(19) 0.41088(4)
N1 N 0.23393(11) 0.6959(2) 0.42606(4)
H1 H 0.2444(15) 0.560(3) 0.4229(6)
N2 N 0.18282(11) 1.0015(2) 0.45043(4)
H2 H 0.1554(16) 1.084(3) 0.4671(6)
C1 C 0.17518(13) 0.7806(3) 0.45339(5)
C2 C 0.24739(13) 1.0599(3) 0.42162(5)
C3 C 0.29205(12) 0.8561(2) 0.40455(5)
C4 C 0.27059(13) 0.8465(3) 0.35863(5)
H3 H 0.3059 0.9694 0.3473
C5 C 0.32031(18) 0.6465(3) 0.34213(6)
H4 H 0.3095 0.6458 0.3131
H5 H 0.2859 0.5216 0.3523
C6 C 0.43683(18) 0.6342(4) 0.35371(8)
H6 H 0.4724 0.7502 0.3409
H7 H 0.4644 0.501 0.344
C7 C 0.45926(16) 0.6477(4) 0.39882(7)
H8 H 0.4315 0.522 0.4114
H9 H 0.5345 0.6507 0.405
C8 C 0.41009(14) 0.8463(3) 0.41576(6)
H10 H 0.4218 0.8466 0.4448
H11 H 0.4436 0.972 0.4055
C9 C 0.15427(15) 0.8651(4) 0.34563(6)
H12 H 0.1245 0.9825 0.36
H13 H 0.119 0.7354 0.3531
C10 C 0.13338(17) 0.9011(4) 0.30111(6)
C11 C 0.0809(3) 0.7625(6) 0.27817(9)
H14 H 0.0704 0.7873 0.2507
H15 H 0.0543 0.6396 0.2894
C12 C 0.1759(3) 1.0954(6) 0.28416(10)
H16 H 0.1442 1.1179 0.2576
H17 H 0.161 1.2149 0.3009
H18 H 0.2504 1.081 0.2829
O1 O 0.87840(11) 0.1910(2) 0.02255(4)
O2 O 0.73428(11) 0.74030(19) 0.08912(4)
N1 N 0.76607(11) 0.1959(2) 0.07394(4)
H1 H 0.7556(15) 0.060(3) 0.0771(6)
N2 N 0.81718(11) 0.5015(2) 0.04957(4)
H2 H 0.8446(16) 0.584(3) 0.0329(6)
C1 C 0.82482(13) 0.2806(3) 0.04661(5)
C2 C 0.75261(13) 0.5599(3) 0.07838(5)
C3 C 0.70795(12) 0.3561(2) 0.09545(5)
C4 C 0.72941(13) 0.3465(3) 0.14137(5)
H3 H 0.6941 0.4694 0.1527
C5 C 0.67969(18) 0.1465(3) 0.15787(6)
H4 H 0.6905 0.1458 0.1869
H5 H 0.7141 0.0216 0.1477
C6 C 0.56317(18) 0.1342(4) 0.14629(8)
H6 H 0.5276 0.2502 0.1591
H7 H 0.5356 0.001 0.156
C7 C 0.54074(16) 0.1477(4) 0.10118(7)
H8 H 0.5685 0.022 0.0886
H9 H 0.4655 0.1507 0.095
C8 C 0.58991(14) 0.3463(3) 0.08424(6)
H10 H 0.5782 0.3466 0.0552
H11 H 0.5564 0.472 0.0945
C9 C 0.84573(15) 0.3651(4) 0.15437(6)
H12 H 0.8755 0.4825 0.14
H13 H 0.881 0.2354 0.1469
C10 C 0.86662(17) 0.4011(4) 0.19889(6)
C11 C 0.9191(3) 0.2625(6) 0.22183(9)
H14 H 0.9296 0.2873 0.2493
H15 H 0.9457 0.1396 0.2106
C12 C 0.8241(3) 0.5954(6) 0.21584(10)
H16 H 0.8558 0.6179 0.2424
H17 H 0.839 0.7149 0.1991
H18 H 0.7496 0.581 0.2171
O1 O 0.62160(11) 0.1910(2) 0.97745(4)
O2 O 0.76572(11) 0.74030(19) 0.91088(4)
N1 N 0.73393(11) 0.1959(2) 0.92606(4)
H1 H 0.7444(15) 0.060(3) 0.9229(6)
N2 N 0.68282(11) 0.5015(2) 0.95043(4)
H2 H 0.6554(16) 0.584(3) 0.9671(6)
C1 C 0.67518(13) 0.2806(3) 0.95339(5)
C2 C 0.74739(13) 0.5599(3) 0.92162(5)
C3 C 0.79205(12) 0.3561(2) 0.90455(5)
C4 C 0.77059(13) 0.3465(3) 0.85863(5)
H3 H 0.8059 0.4694 0.8473
C5 C 0.82031(18) 0.1465(3) 0.84213(6)
H4 H 0.8095 0.1458 0.8131
H5 H 0.7859 0.0216 0.8523
C6 C 0.93683(18) 0.1342(4) 0.85371(8)
H6 H 0.9724 0.2502 0.8409
H7 H 0.9644 0.001 0.844
C7 C 0.95926(16) 0.1477(4) 0.89882(7)
H8 H 0.9315 0.022 0.9114
H9 H 1.0345 0.1507 0.905
C8 C 0.91009(14) 0.3463(3) 0.91576(6)
H10 H 0.9218 0.3466 0.9448
H11 H 0.9436 0.472 0.9055
C9 C 0.65427(15) 0.3651(4) 0.84563(6)
H12 H 0.6245 0.4825 0.86
H13 H 0.619 0.2354 0.8531
C10 C 0.63338(17) 0.4011(4) 0.80111(6)
C11 C 0.5809(3) 0.2625(6) 0.77817(9)
H14 H 0.5704 0.2873 0.7507
H15 H 0.5543 0.1396 0.7894
C12 C 0.6759(3) 0.5954(6) 0.78416(10)
H16 H 0.6442 0.6179 0.7576
H17 H 0.661 0.7149 0.8009
H18 H 0.7504 0.581 0.7829
O3 O 0.40632(13) 0.2712(2) 0.49696(5)
H19 H 0.4675(15) 0.271(5) 0.4908(9)
H20 H 0.395(2) 0.393(3) 0.5047(9)
O3 O 0.09368(13) 0.2712(2) 0.50304(5)
H19 H 0.0325(15) 0.271(5) 0.5092(9)
H20 H 0.105(2) 0.393(3) 0.4953(9)
O3 O 0.90632(13) 0.7712(2) 0.99696(5)
H19 H 0.9675(15) 0.771(5) 0.9908(9)
H20 H 0.895(2) 0.893(3) 1.0047(9)
O3 O 0.59368(13) 0.7712(2) 0.00304(5)
H19 H 0.5325(15) 0.771(5) 0.0092(9)
H20 H 0.605(2) 0.893(3) -0.0047(9)
O3 O 0.59368(13) 0.7288(2) 0.50304(5)
H19 H 0.5325(15) 0.729(5) 0.5092(9)
H20 H 0.605(2) 0.607(3) 0.4953(9)
O3 O 0.90632(13) 0.7288(2) 0.49696(5)
H19 H 0.9675(15) 0.729(5) 0.4908(9)
H20 H 0.895(2) 0.607(3) 0.5047(9)
O3 O 0.09368(13) 0.2288(2) 0.00304(5)
H19 H 0.0325(15) 0.229(5) 0.0092(9)
H20 H 0.105(2) 0.107(3) -0.0047(9)
O3 O 0.40632(13) 0.2288(2) 0.99696(5)
H19 H 0.4675(15) 0.229(5) 0.9908(9)
H20 H 0.395(2) 0.107(3) 1.0047(9)

#END
