./KABCAU_from_POSCAR.cif_generated_by_CrystalShift
_symmetry_cell_setting triclinic
_symmetry_space_group_name_H-M 'P 1'
loop_
_symmetry_equiv_pos_site_id
_symmetry_equiv_pos_as_xyz
1 x,y,z
_cell_length_a 20.558000
_cell_length_b 8.209500
_cell_length_c 20.947000
_cell_angle_alpha 90.000000
_cell_angle_beta 113.220000
_cell_angle_gamma 90.000000
_cell_volume 3248.881416
loop_
_atom_site_label
_atom_site_type_symbol
_atom_site_fract_x
_atom_site_fract_y
_atom_site_fract_z
H1 H 0.152000 0.090100 0.446800
H2 H 0.232000 0.154100 0.480400
H3 H 0.015400 0.721400 0.776600
H4 H 0.268000 0.654100 1.019600
H5 H 0.911500 0.103900 0.165600
H6 H 0.515400 0.778600 0.276600
H7 H 0.693000 0.401000 0.059000
H8 H 0.768000 0.845900 0.519600
H9 H 0.628600 0.394400 0.127100
H10 H 0.984600 0.278600 0.223400
H11 H 0.732000 0.345900 -0.019600
H12 H 0.751000 0.040000 0.240000
H13 H 0.725200 0.641500 1.005700
H14 H 0.816400 0.045000 0.172700
H15 H 0.719000 0.913200 1.028600
H16 H 0.619100 1.063700 0.969300
H17 H 0.527000 0.941100 0.877000
H18 H 0.532600 0.673700 0.852800
H19 H 0.541700 0.388900 0.970900
H20 H 0.780900 0.398400 -0.123000
H21 H 0.437300 0.283900 0.969300
H22 H 0.877900 0.351900 -0.149600
H23 H 0.356000 0.161900 0.867400
H24 H 0.976800 0.203400 -0.068100
H25 H 0.380300 0.148700 0.771900
H26 H 0.973500 0.118000 0.034200
H27 H 0.570800 0.174700 0.684800
H28 H 0.637500 0.210100 0.623400
H29 H 1.000700 -0.111600 0.220100
H30 H 0.735600 0.589700 0.740300
H31 H 1.014200 -0.390500 0.220300
H32 H 0.665400 0.563700 0.800400
H33 H 0.943000 -0.542200 0.127700
H34 H 0.652000 0.409900 0.946800
H35 H 0.862800 -0.409500 0.030600
H36 H 0.774800 1.141500 0.494300
H37 H 0.850500 -0.130900 0.030900
H38 H 0.781000 1.413200 0.471400
H39 H 0.880900 1.563700 0.530700
H40 H 0.973000 1.441100 0.623000
H41 H 0.967400 1.173700 0.647200
H42 H 0.588500 0.603900 0.334400
H43 H 0.958300 0.888900 0.529100
H44 H 0.807000 0.901000 0.441000
H45 H 1.062700 0.783900 0.530700
H46 H 0.871400 0.894400 0.372900
H47 H 1.144000 0.661900 0.632600
H48 H 1.119700 0.648700 0.728100
H49 H 0.749000 0.540000 0.260000
H50 H 0.929200 0.674700 0.815200
H51 H 0.683600 0.545000 0.327300
H52 H 0.862500 0.710100 0.876600
H53 H 0.764400 1.089700 0.759700
H54 H 0.834600 1.063700 0.699600
H55 H 0.848000 0.909900 0.553200
H56 H 0.274800 0.358500 -0.005700
H57 H 0.719100 0.898400 0.623000
H58 H 0.281000 0.086800 -0.028600
H59 H 0.622100 0.851900 0.649600
H60 H 0.380900 -0.063700 0.030700
H61 H 0.523200 0.703400 0.568100
H62 H 0.473000 0.058900 0.123000
H63 H 0.526500 0.618000 0.465800
H64 H 0.467400 0.326300 0.147200
H65 H 0.458300 0.611100 0.029100
H66 H 0.499300 0.388400 0.279900
H67 H 0.562700 0.716100 0.030700
H68 H 0.485800 0.109500 0.279700
H69 H 0.644000 0.838100 0.132600
H70 H 0.557000 -0.042200 0.372300
H71 H 0.619700 0.851300 0.228100
H72 H 0.637200 0.090500 0.469400
H73 H 0.429200 0.825300 0.315200
H74 H 0.649500 0.369100 0.469100
H75 H 0.362500 0.789900 0.376600
H76 H 0.264400 0.410300 0.259700
H77 H 0.334600 0.436300 0.199600
H78 H 0.348000 0.590100 0.053200
H79 H 0.088500 0.896100 0.834400
H80 H 0.225200 -0.141500 0.505700
H81 H 0.307000 0.599000 0.941000
H82 H 0.219000 -0.413200 0.528600
H83 H 0.371400 0.605600 0.872900
H84 H 0.119100 -0.563700 0.469300
H85 H 0.027000 -0.441100 0.377000
H86 H 0.249000 0.960000 0.760000
H87 H 0.032600 -0.173700 0.352800
H88 H 0.183600 0.955000 0.827300
H89 H 0.041700 0.111100 0.470900
H90 H -0.062700 0.216100 0.469300
H91 H -0.144000 0.338100 0.367400
H92 H -0.119700 0.351300 0.271900
H93 H 0.070800 0.325300 0.184800
H94 H 0.219100 0.601600 1.123000
H95 H 0.137500 0.289900 0.123400
H96 H 0.122100 0.648100 1.149600
H97 H 0.235600 -0.089700 0.240300
H98 H 0.023200 0.796600 1.068100
H99 H 0.165400 -0.063700 0.300400
H100 H 0.026500 0.882000 0.965800
H101 H 0.484600 0.221400 0.723400
H102 H 0.350500 0.630900 0.530900
H103 H -0.000700 1.111600 0.779900
H104 H 0.362800 0.909500 0.530600
H105 H -0.014200 1.390500 0.779700
H106 H 0.443000 1.042200 0.627700
H107 H 0.057000 1.542200 0.872300
H108 H 0.514200 0.890500 0.720300
H109 H 0.137200 1.409500 0.969400
H110 H 0.500700 0.611600 0.720100
H111 H 0.149500 1.130900 0.969100
H112 H 0.473500 0.382000 0.534200
H113 H 0.476800 0.296600 0.431900
H114 H 0.377900 0.148100 0.350400
H115 H 0.280900 0.101600 0.377000
H116 H 0.411500 0.396100 0.665600
H117 H 0.316400 0.455000 0.672700
H118 H 0.193000 0.099000 0.559000
H119 H 0.251000 0.460000 0.740000
H120 H 0.128600 0.105600 0.627100
C121 C 0.185400 0.276700 0.692500
C122 C 0.239800 0.385200 0.703900
C123 C 0.167100 0.175100 0.637100
C124 C 0.278200 0.384800 0.662500
C125 C 0.205000 0.173700 0.595300
C126 C 0.260100 0.280500 0.606000
C127 C 0.300200 0.275100 0.562300
C128 C 0.364700 0.340800 0.573100
C129 C 0.319100 0.210500 0.469800
C130 C 0.319800 0.157400 0.408200
C131 C 0.705000 0.326300 0.095300
C132 C 0.377200 0.185300 0.392000
C133 C 0.667100 0.324900 0.137100
C134 C 0.437300 0.275200 0.441800
C135 C 0.685400 0.223300 0.192500
C136 C 0.435100 0.326600 0.502000
C137 C 0.739800 0.114800 0.203900
C138 C 0.423000 0.593800 0.626800
C139 C 0.471900 0.671800 0.681700
C140 C 0.117000 1.183000 0.930200
C141 C 0.480100 0.839700 0.682000
C142 C 0.109500 1.349900 0.930400
C143 C 0.439000 0.929400 0.627100
C144 C 0.061000 1.429400 0.872900
C145 C 0.390500 0.849900 0.569600
C146 C 0.019900 1.339700 0.818000
C147 C 0.383000 0.683000 0.569800
C148 C 0.028100 1.171800 0.818300
C149 C 0.778200 0.115200 0.162500
C150 C 0.685400 0.702400 0.979600
C151 C 0.760100 0.219500 0.106000
C152 C 0.680800 0.863900 0.993600
C153 C 0.077000 1.093800 0.873200
C154 C 0.160600 0.011500 0.265700
C155 C 0.064900 0.826600 0.998000
C156 C 0.202100 -0.006800 0.229200
C157 C 0.062700 0.775200 1.058200
C158 C 0.193700 0.099700 0.175300
C159 C 0.143800 0.220200 0.160400
C160 C 0.122800 0.685300 1.108000
C161 C 0.104000 0.241500 0.196600
C162 C 0.180200 0.657400 1.091800
C163 C 0.111700 0.135600 0.254100
C164 C 0.066900 0.161100 0.292200
C165 C 0.081200 0.116300 0.359000
C166 C -0.024500 0.242800 0.312100
C167 C -0.087200 0.303700 0.312100
C168 C 0.180900 0.710500 1.030200
C169 C -0.101700 0.295600 0.368200
C170 C 0.135300 0.840800 0.926900
C171 C -0.052700 0.221700 0.429800
C172 C 0.199800 0.775100 0.937700
C173 C 0.009100 0.159000 0.430700
C174 C 0.239900 0.780500 0.894000
C175 C 0.129700 -0.132700 0.425900
C176 C 0.070400 -0.222500 0.388500
C177 C 0.221800 0.884800 0.837500
C178 C 0.066800 -0.380700 0.403300
C179 C 0.260200 0.885200 0.796100
C180 C 0.122100 -0.455400 0.457800
C181 C 0.314600 0.776700 0.807500
C182 C 0.180800 -0.363900 0.493600
C183 C 0.332900 0.675100 0.862900
C184 C 0.185400 -0.202400 0.479600
C185 C 0.295000 0.673700 0.904700
C186 C 0.800200 0.224900 0.062300
C187 C 0.622100 0.955400 0.957800
C188 C 0.864700 0.159200 0.073100
C189 C 0.566800 0.880700 0.903300
C190 C 0.819100 0.289500 -0.030200
C191 C 0.339400 0.511500 0.234300
C192 C 0.570400 0.722500 0.888500
C193 C 0.297900 0.493200 0.270800
C194 C 0.629700 0.632700 0.925900
C195 C 0.306300 0.599700 0.324700
C196 C 0.356200 0.720200 0.339600
C197 C 0.819800 0.342600 -0.091800
C198 C 0.396000 0.741500 0.303400
C199 C 0.617000 0.317000 0.430200
C200 C 0.388300 0.635600 0.245900
C201 C 0.433100 0.661100 0.207800
C202 C 0.418800 0.616300 0.141000
C203 C 0.524500 0.742800 0.187900
C204 C 0.587200 0.803700 0.187900
C205 C 0.609500 0.150100 0.430400
C206 C 0.601700 0.795600 0.131800
C207 C 0.561000 0.070600 0.372900
C208 C 0.552700 0.721700 0.070200
C209 C 0.519900 0.160300 0.318000
C210 C 0.490900 0.659000 0.069300
C211 C 0.528100 0.328200 0.318300
C212 C 0.370300 0.367300 0.074100
C213 C 0.429600 0.277500 0.111500
C214 C 0.577000 0.406200 0.373200
C215 C 0.433200 0.119300 0.096700
C216 C 0.564900 0.673400 0.498000
C217 C 0.377900 0.044600 0.042200
C218 C 0.562700 0.724800 0.558200
C219 C 0.319200 0.136100 0.006400
C220 C 0.622800 0.814700 0.608000
C221 C 0.314600 0.297600 0.020400
C222 C 0.680200 0.842600 0.591800
C223 C 0.509100 0.341000 0.930700
C224 C 0.877200 0.314700 -0.108000
C225 C 0.447300 0.278300 0.929800
C226 C 0.937300 0.224800 -0.058200
C227 C 0.680900 0.789500 0.530200
C228 C 0.839400 0.988500 0.734300
C229 C 0.635300 0.659200 0.426900
C230 C 0.797900 1.006800 0.770800
C231 C 0.699800 0.724900 0.437700
C232 C 0.806300 0.900300 0.824700
C233 C 0.856200 0.779800 0.839600
C234 C 0.739900 0.719500 0.394000
C235 C 0.896000 0.758500 0.803400
C236 C 0.721800 0.615200 0.337500
C237 C 0.888300 0.864400 0.745900
C238 C 0.933100 0.838900 0.707800
C239 C 0.918800 0.883700 0.641000
C240 C 1.024500 0.757200 0.687900
C241 C 1.087200 0.696300 0.687900
C242 C 0.760200 0.614800 0.296100
C243 C 1.101700 0.704400 0.631800
C244 C 0.814600 0.723300 0.307500
C245 C 1.052700 0.778300 0.570200
C246 C 0.832900 0.824900 0.362900
C247 C 0.990900 0.841000 0.569300
C248 C 0.795000 0.826300 0.404700
C249 C 0.870300 1.132700 0.574100
C250 C 0.929600 1.222500 0.611500
C251 C 0.398300 0.204400 0.868200
C252 C 0.933200 1.380700 0.596700
C253 C 0.935100 0.173400 0.002000
C254 C 0.877900 1.455400 0.542200
C255 C 0.412800 0.196300 0.812100
C256 C 0.819200 1.363900 0.506400
C257 C 0.475500 0.257200 0.812100
C258 C 0.814600 1.202400 0.520400
C259 C 0.883000 -0.183000 0.069800
C260 C 0.581200 0.383700 0.859000
C261 C 0.566900 0.338900 0.792200
C262 C 0.611700 0.364400 0.754100
C263 C 0.923000 -0.093800 0.126800
C264 C 0.890500 -0.349900 0.069600
C265 C 0.660600 0.488500 0.765700
C266 C 0.939000 -0.429400 0.127100
C267 C 0.702100 0.506800 0.729200
C268 C 0.980100 -0.339700 0.182000
C269 C 0.693700 0.400300 0.675300
C270 C 0.643800 0.279800 0.660400
C271 C 0.971900 -0.171800 0.181700
C272 C 0.604000 0.258500 0.696600
N273 N 0.636500 0.467100 0.909400
N274 N 0.503500 0.261300 0.764600
N275 N 0.522700 0.332800 0.872300
N276 N 0.877800 0.202100 0.015400
N277 N 0.772800 0.299800 -0.001500
N278 N 0.622200 0.702100 0.484600
N279 N 0.727200 0.799800 0.501500
N280 N 0.584800 0.575600 0.372400
N281 N 0.863500 0.967100 0.590600
N282 N 0.996500 0.761300 0.735400
N283 N 0.977300 0.832800 0.627700
N284 N 0.915200 0.075600 0.127600
N285 N 0.415200 0.424400 0.627600
N286 N 0.122200 0.797900 0.984600
N287 N 0.227200 0.700200 1.001500
N288 N 0.084800 0.924400 0.872400
N289 N 0.363500 0.532900 0.090600
N290 N 0.496500 0.738700 0.235400
N291 N 0.477300 0.667200 0.127700
N292 N 0.272800 0.200200 0.498500
N293 N 0.136500 0.032900 0.409400
N294 N 0.003500 0.238700 0.264600
N295 N 0.022700 0.167200 0.372300
N296 N 0.377800 0.297900 0.515400
Cl297 Cl 0.248180 0.079900 0.130170
Cl298 Cl 0.251820 0.579900 0.369830
Cl299 Cl 0.361620 0.773900 0.755110
Cl300 Cl 0.751820 0.920100 0.869830
Cl301 Cl 0.861620 0.726100 0.255110
Cl302 Cl 0.748180 0.420100 0.630170
Cl303 Cl 0.638380 0.226100 0.244890
Cl304 Cl 0.138380 0.273900 0.744890

#END
