./KABCIC_from_POSCAR.cif_generated_by_CrystalShift
_symmetry_cell_setting triclinic
_symmetry_space_group_name_H-M 'P 1'
loop_
_symmetry_equiv_pos_site_id
_symmetry_equiv_pos_as_xyz
1 x,y,z
_cell_length_a 9.601730
_cell_length_b 12.947400
_cell_length_c 13.203200
_cell_angle_alpha 90.000000
_cell_angle_beta 97.478000
_cell_angle_gamma 90.000000
_cell_volume 1627.427853
loop_
_atom_site_label
_atom_site_type_symbol
_atom_site_fract_x
_atom_site_fract_y
_atom_site_fract_z
H1 H 0.878000 0.943400 1.170500
H2 H 0.910800 0.920300 1.056900
H3 H 0.552700 0.550800 1.202500
H4 H 0.698200 0.589300 1.168700
H5 H 0.598700 0.513200 1.096300
H6 H 0.127600 0.632100 1.080200
H7 H 0.024800 0.727200 1.093900
H8 H 0.196700 0.846300 1.058700
H9 H 0.265900 0.771600 1.148200
H10 H 0.077400 0.513500 0.244600
H11 H -0.052500 0.579500 0.274000
H12 H 0.043700 0.515500 0.360200
H13 H 0.360900 0.708300 0.861200
H14 H 0.260200 0.805400 0.871000
H15 H 0.118700 0.668200 0.805600
H16 H 0.185700 0.593200 0.895600
H17 H 0.163500 0.915000 0.419300
H18 H 0.103900 0.825900 0.341400
H19 H 0.190500 0.920300 0.302300
H20 H -0.309500 0.579700 0.802300
H21 H -0.396100 0.674100 0.841400
H22 H 0.685700 0.906800 0.395600
H23 H 0.618700 0.831800 0.305600
H24 H -0.336500 0.585000 0.919300
H25 H 0.760200 0.694600 0.371000
H26 H 0.860900 0.791700 0.361200
H27 H -0.456300 0.984500 0.860200
H28 H -0.552500 0.920500 0.774000
H29 H 0.765900 0.728400 0.648200
H30 H 0.696700 0.653700 0.558700
H31 H -0.422600 0.986500 0.744600
H32 H 0.524800 0.772800 0.593900
H33 H 0.627600 0.867900 0.580200
H34 H -0.378000 0.443400 0.329500
H35 H -0.335400 0.525900 0.418400
H36 H 1.098700 0.986800 0.596300
H37 H 1.198200 0.910700 0.668700
H38 H 1.052700 0.949200 0.702500
H39 H -0.410800 0.420300 0.443100
H40 H -0.052700 0.050800 0.297500
H41 H -0.198200 0.089300 0.331300
H42 H 1.410800 0.579700 0.556900
H43 H 1.335400 0.474100 0.581600
H44 H 1.378000 0.556600 0.670500
H45 H -0.098700 0.013200 0.403700
H46 H 0.372400 0.132100 0.419800
H47 H 0.475200 0.227200 0.406100
H48 H 0.303300 0.346300 0.441300
H49 H 0.234100 0.271600 0.351800
H50 H 0.139100 0.208300 0.638800
H51 H 0.239800 0.305400 0.629000
H52 H 0.381300 0.168200 0.694400
H53 H 0.314300 0.093200 0.604400
H54 H 1.422600 0.013500 0.255400
H55 H 1.552500 0.079500 0.226000
H56 H 1.456300 0.015500 0.139800
H57 H 0.809500 0.079700 0.697700
H58 H 0.896100 0.174100 0.658600
H59 H 0.836500 0.085000 0.580700
H60 H 0.956300 0.484500 0.639800
H61 H 1.336500 0.415000 0.080700
H62 H 1.396100 0.325900 0.158600
H63 H 1.309500 0.420300 0.197700
H64 H 1.052500 0.420500 0.726000
H65 H 0.922600 0.486500 0.755400
H66 H 0.814300 0.406800 0.104400
H67 H 0.881300 0.331800 0.194400
H68 H 0.122000 0.056600 -0.170500
H69 H 0.739800 0.194600 0.129000
H70 H 0.639100 0.291700 0.138800
H71 H 0.164600 -0.025900 -0.081600
H72 H 0.089200 0.079700 -0.056900
H73 H 0.734100 0.228400 -0.148200
H74 H 0.803300 0.153700 -0.058700
H75 H 0.447300 0.449200 -0.202500
H76 H 0.975200 0.272800 -0.093900
H77 H 0.872400 0.367900 -0.080200
H78 H 0.301800 0.410700 -0.168700
H79 H 0.401300 0.486800 -0.096300
H80 H 0.835400 1.025900 1.081600
C81 C 0.471640 0.339200 -0.092510
C82 C 0.899800 0.297660 -0.055540
C83 C 0.435060 0.241440 -0.079160
C84 C 0.298160 0.194190 -0.107920
C85 C 0.155930 0.047890 -0.097750
C86 C 0.773220 0.225580 -0.075040
C87 C 0.661090 0.256430 -0.010210
C88 C 0.714590 0.264330 0.101870
C89 C 0.844070 0.952110 1.097750
C90 C 0.701840 0.805810 1.107920
C91 C 0.564940 0.758560 1.079160
C92 C 0.600550 0.570990 1.144360
C93 C 0.528360 0.660800 1.092510
C94 C 0.100200 0.702340 1.055540
C95 C 0.043360 0.556210 0.297590
C96 C 0.226780 0.774420 1.075040
C97 C 0.956640 0.443790 0.702410
C98 C 0.842610 0.334620 0.121200
C99 C 0.953960 0.301770 0.057070
C100 C 1.318240 0.374070 0.140040
C101 C 0.729540 0.376250 0.655560
C102 C 0.650000 0.283610 0.623330
C103 C 0.686350 0.184610 0.614570
C104 C 0.818240 0.125930 0.640040
C105 C 1.186350 0.315390 0.114570
C106 C 1.150000 0.216390 0.123330
C107 C 1.229540 0.123750 0.155560
C108 C 0.453960 0.198230 0.557070
C109 C 0.342610 0.165380 0.621200
C110 C 1.456640 0.056210 0.202410
C111 C 0.338910 0.743570 1.010210
C112 C 0.214590 0.235670 0.601870
C113 C 0.270460 0.623750 0.344440
C114 C 0.350000 0.716390 0.376670
C115 C 0.161090 0.243570 0.489790
C116 C 0.273220 0.274420 0.424960
C117 C 0.285410 0.735670 0.898130
C118 C 0.313650 0.815390 0.385430
C119 C 0.399800 0.202340 0.444460
C120 C 0.181760 0.874070 0.359960
C121 C 0.157390 0.665380 0.878800
C122 C -0.028360 0.160800 0.407490
C123 C -0.100550 0.070990 0.355640
C124 C 0.046040 0.698230 0.942930
C125 C 1.344070 0.547890 0.597750
C126 C 1.201840 0.694190 0.607920
C127 C -0.064940 0.258560 0.420840
C128 C -0.201840 0.305810 0.392080
C129 C -0.344070 0.452110 0.402250
C130 C 1.064940 0.741440 0.579160
C131 C 1.100550 0.929010 0.644360
C132 C 1.028360 0.839200 0.592510
C133 C 0.546040 0.801770 0.442930
C134 C 0.657390 0.834620 0.378800
C135 C 0.785410 0.764330 0.398130
C136 C -0.318240 0.625930 0.859960
C137 C -0.186350 0.684610 0.885430
C138 C -0.150000 0.783610 0.876670
C139 C -0.229540 0.876250 0.844440
C140 C 0.838910 0.756430 0.510210
C141 C -0.456640 0.943790 0.797590
C142 C 0.600200 0.797660 0.555540
C143 C 0.726780 0.725580 0.575040
C144 C 0.399450 0.429010 -0.144360
O145 O 0.799630 0.761560 1.156560
O146 O 0.456420 0.813240 1.024250
O147 O 0.395070 0.643240 1.045960
O148 O -0.008180 0.798170 0.909340
O149 O -0.072020 0.627750 0.924680
O150 O -0.178020 0.961140 0.842710
O151 O -0.366080 0.855310 0.818130
O152 O 1.366080 0.144690 0.181870
O153 O 1.178020 0.038860 0.157290
O154 O 1.072020 0.372250 0.075320
O155 O 1.008180 0.201830 0.090660
O156 O 0.604930 0.356760 -0.045960
O157 O 0.543580 0.186760 -0.024250
O158 O 0.200370 0.238440 -0.156560
O159 O 0.292300 0.097190 -0.074370
O160 O -0.207700 0.402810 0.425630
O161 O -0.299630 0.261560 0.343440
O162 O 1.207700 0.597190 0.574370
O163 O 0.043580 0.313240 0.475750
O164 O 1.299630 0.738440 0.656560
O165 O 0.956420 0.686760 0.524250
O166 O 0.104930 0.143240 0.454040
O167 O 0.508180 0.298170 0.590660
O168 O 0.895070 0.856760 0.545960
O169 O 0.491820 0.701830 0.409340
O170 O 0.427980 0.872250 0.424680
O171 O 0.572020 0.127750 0.575320
O172 O 0.678020 0.461140 0.657290
O173 O 0.866080 0.355310 0.681870
O174 O 0.321980 0.538860 0.342710
O175 O 0.707700 0.902810 1.074370
O176 O 0.133920 0.644690 0.318130

#END
