./KABCEY_from_POSCAR.cif_generated_by_CrystalShift
_symmetry_cell_setting triclinic
_symmetry_space_group_name_H-M 'P 1'
loop_
_symmetry_equiv_pos_site_id
_symmetry_equiv_pos_as_xyz
1 x,y,z
_cell_length_a 18.568500
_cell_length_b 6.676670
_cell_length_c 13.820000
_cell_angle_alpha 90.000000
_cell_angle_beta 108.928000
_cell_angle_gamma 90.000000
_cell_volume 1620.699042
loop_
_atom_site_label
_atom_site_type_symbol
_atom_site_fract_x
_atom_site_fract_y
_atom_site_fract_z
H1 H 1.083200 0.399700 1.115500
H2 H 1.004400 0.767100 1.058000
H3 H 1.092500 0.738200 1.084400
H4 H 1.161800 1.021200 0.813900
H5 H 1.108700 1.136100 0.863100
H6 H 0.806200 0.287300 0.424500
H7 H 0.792100 0.152000 0.327400
H8 H 0.839300 0.069400 0.435600
H9 H 1.074400 1.039100 0.754500
H10 H 1.339300 0.430600 0.935600
H11 H 1.292100 0.348000 0.827400
H12 H 1.306200 0.212700 0.924500
H13 H 0.916800 0.600300 0.884500
H14 H 0.574400 -0.539100 0.254500
H15 H 0.608700 -0.636100 0.363100
H16 H 0.661800 -0.521200 0.313900
H17 H 0.959000 0.484100 0.820000
H18 H 0.592500 -0.238200 0.584400
H19 H 0.504400 -0.267100 0.558000
H20 H 0.995600 0.232900 0.942000
H21 H 0.541000 -0.015900 0.680000
H22 H 0.583200 0.100300 0.615500
H23 H 0.907500 0.261800 0.915600
H24 H 0.838200 -0.021200 1.186100
H25 H 0.891300 -0.136100 1.136900
H26 H 0.925600 -0.039100 1.245500
H27 H 0.660700 0.569400 1.064400
H28 H 0.193800 -0.287300 0.575500
H29 H 0.207900 -0.152000 0.672600
H30 H 0.160700 -0.069400 0.564400
H31 H 0.707900 0.652000 1.172600
H32 H 0.693800 0.787300 1.075500
H33 H 1.083200 0.399700 0.115500
H34 H 1.041000 0.515900 0.180000
H35 H 1.004400 0.767100 0.058000
H36 H 0.425600 0.539100 0.745500
H37 H 0.391300 0.636100 0.636900
H38 H 0.338200 0.521200 0.686100
H39 H 1.092500 0.738200 0.084400
H40 H 0.407500 0.238200 0.415600
H41 H 0.495600 0.267100 0.442000
H42 H 1.161800 1.021200 -0.186100
H43 H 0.459000 0.015900 0.320000
H44 H 0.416800 -0.100300 0.384500
H45 H 1.108700 1.136100 -0.136900
H46 H 1.074400 1.039100 -0.245500
H47 H 1.339300 0.430600 -0.064400
H48 H 1.292100 0.348000 -0.172600
H49 H 1.306200 0.212700 -0.075500
H50 H 0.806200 1.287300 0.424500
H51 H 0.792100 1.152000 0.327400
H52 H 0.839300 1.069400 0.435600
H53 H 0.916800 0.600300 -0.115500
H54 H 0.959000 0.484100 -0.180000
H55 H 0.995600 0.232900 -0.058000
H56 H 0.907500 0.261800 -0.084400
H57 H 0.838200 -0.021200 0.186100
H58 H 0.574400 0.460900 0.254500
H59 H 0.608700 0.363900 0.363100
H60 H 0.661800 0.478800 0.313900
H61 H 0.891300 -0.136100 0.136900
H62 H 0.592500 0.761800 0.584400
H63 H 0.504400 0.732900 0.558000
H64 H 0.925600 -0.039100 0.245500
H65 H 0.541000 0.984100 0.680000
H66 H 0.583200 1.100300 0.615500
H67 H 0.660700 0.569400 0.064400
H68 H 0.707900 0.652000 0.172600
H69 H 0.693800 0.787300 0.075500
H70 H 0.083200 0.399700 1.115500
H71 H 0.041000 0.515900 1.180000
H72 H 0.193800 0.712700 0.575500
H73 H 0.207900 0.848000 0.672600
H74 H 0.160700 0.930600 0.564400
H75 H 0.004400 0.767100 1.058000
H76 H 0.092500 0.738200 1.084400
H77 H 0.161800 1.021200 0.813900
H78 H 0.108700 1.136100 0.863100
H79 H 0.074400 1.039100 0.754500
H80 H 0.425600 1.539100 0.745500
H81 H 0.391300 1.636100 0.636900
H82 H 0.338200 1.521200 0.686100
H83 H 0.339300 0.430600 0.935600
H84 H 0.407500 1.238200 0.415600
H85 H 0.495600 1.267100 0.442000
H86 H 0.292100 0.348000 0.827400
H87 H 0.459000 1.015900 0.320000
H88 H 0.416800 0.899700 0.384500
H89 H 0.306200 0.212700 0.924500
H90 H -0.083200 0.600300 0.884500
H91 H -0.041000 0.484100 0.820000
H92 H -0.004400 0.232900 0.942000
H93 H -0.092500 0.261800 0.915600
H94 H 0.193800 0.287300 0.075500
H95 H 0.207900 0.152000 0.172600
H96 H 0.160700 0.069400 0.064400
H97 H -0.161800 -0.021200 1.186100
H98 H -0.108700 -0.136100 1.136900
H99 H -0.074400 -0.039100 1.245500
H100 H -0.339300 0.569400 1.064400
H101 H -0.292100 0.652000 1.172600
H102 H 0.425600 -0.539100 0.245500
H103 H 0.391300 -0.636100 0.136900
H104 H 0.338200 -0.521200 0.186100
H105 H -0.306200 0.787300 1.075500
H106 H 0.407500 -0.238200 -0.084400
H107 H 0.495600 -0.267100 -0.058000
H108 H 0.083200 0.399700 0.115500
H109 H 0.459000 -0.015900 -0.180000
H110 H 0.416800 0.100300 -0.115500
H111 H 0.041000 0.515900 0.180000
H112 H 0.004400 0.767100 0.058000
H113 H 0.092500 0.738200 0.084400
H114 H 0.161800 1.021200 -0.186100
H115 H 0.108700 1.136100 -0.136900
H116 H 0.806200 -0.287300 -0.075500
H117 H 0.792100 -0.152000 -0.172600
H118 H 0.839300 -0.069400 -0.064400
H119 H 0.074400 1.039100 -0.245500
H120 H 0.339300 0.430600 -0.064400
H121 H 0.292100 0.348000 -0.172600
H122 H 0.306200 0.212700 -0.075500
H123 H -0.083200 0.600300 -0.115500
H124 H 0.574400 0.539100 -0.245500
H125 H 0.608700 0.636100 -0.136900
H126 H 0.661800 0.521200 -0.186100
H127 H -0.041000 0.484100 -0.180000
H128 H 0.592500 0.238200 0.084400
H129 H 0.504400 0.267100 0.058000
H130 H -0.004400 0.232900 -0.058000
H131 H 0.541000 0.015900 0.180000
H132 H 0.583200 -0.100300 0.115500
H133 H -0.092500 0.261800 -0.084400
H134 H -0.161800 -0.021200 0.186100
H135 H -0.108700 -0.136100 0.136900
H136 H -0.074400 -0.039100 0.245500
H137 H -0.339300 0.569400 0.064400
H138 H 0.193800 0.287300 1.075500
H139 H 0.207900 0.152000 1.172600
H140 H 0.160700 0.069400 1.064400
H141 H -0.292100 0.652000 0.172600
H142 H -0.306200 0.787300 0.075500
H143 H 0.916800 0.399700 0.384500
H144 H 0.959000 0.515900 0.320000
H145 H 0.995600 0.767100 0.442000
H146 H 0.425600 -0.539100 1.245500
H147 H 0.391300 -0.636100 1.136900
H148 H 0.338200 -0.521200 1.186100
H149 H 0.907500 0.738200 0.415600
H150 H 0.407500 -0.238200 0.915600
H151 H 0.495600 -0.267100 0.942000
H152 H 0.838200 1.021200 0.686100
H153 H 0.459000 -0.015900 0.820000
H154 H 0.416800 0.100300 0.884500
H155 H 0.891300 1.136100 0.636900
H156 H 0.925600 1.039100 0.745500
H157 H 0.660700 0.430600 0.564400
H158 H 0.707900 0.348000 0.672600
H159 H 0.693800 0.212700 0.575500
H160 H 0.806200 -0.287300 0.924500
H161 H 0.792100 -0.152000 0.827400
H162 H 0.839300 -0.069400 0.935600
H163 H 1.083200 0.600300 0.615500
H164 H 1.041000 0.484100 0.680000
H165 H 1.004400 0.232900 0.558000
H166 H 1.092500 0.261800 0.584400
H167 H 1.161800 -0.021200 0.313900
H168 H 0.574400 0.539100 0.754500
H169 H 0.608700 0.636100 0.863100
H170 H 0.661800 0.521200 0.813900
H171 H 1.108700 -0.136100 0.363100
H172 H 0.592500 0.238200 1.084400
H173 H 0.504400 0.267100 1.058000
H174 H 1.074400 -0.039100 0.254500
H175 H 0.541000 0.015900 1.180000
H176 H 0.583200 -0.100300 1.115500
H177 H 1.339300 0.569400 0.435600
H178 H 1.292100 0.652000 0.327400
H179 H 1.306200 0.787300 0.424500
H180 H -0.083200 0.399700 0.384500
H181 H -0.041000 0.515900 0.320000
H182 H 0.193800 1.287300 0.075500
H183 H 0.207900 1.152000 0.172600
H184 H 0.160700 1.069400 0.064400
H185 H -0.004400 0.767100 0.442000
H186 H -0.092500 0.738200 0.415600
H187 H -0.161800 1.021200 0.686100
H188 H -0.108700 1.136100 0.636900
H189 H -0.074400 1.039100 0.745500
H190 H 0.425600 0.460900 0.245500
H191 H 0.391300 0.363900 0.136900
H192 H 0.338200 0.478800 0.186100
H193 H -0.339300 0.430600 0.564400
H194 H 0.407500 0.761800 -0.084400
H195 H 0.495600 0.732900 -0.058000
H196 H -0.292100 0.348000 0.672600
H197 H 0.459000 0.984100 -0.180000
H198 H 0.416800 1.100300 -0.115500
H199 H -0.306200 0.212700 0.575500
H200 H 0.083200 0.600300 0.615500
H201 H 0.041000 0.484100 0.680000
H202 H 0.004400 0.232900 0.558000
H203 H 0.092500 0.261800 0.584400
H204 H 0.806200 0.712700 -0.075500
H205 H 0.792100 0.848000 -0.172600
H206 H 0.839300 0.930600 -0.064400
H207 H 0.161800 -0.021200 0.313900
H208 H 0.108700 -0.136100 0.363100
H209 H 0.074400 -0.039100 0.254500
H210 H 0.339300 0.569400 0.435600
H211 H 0.292100 0.652000 0.327400
H212 H 0.574400 1.539100 -0.245500
H213 H 0.608700 1.636100 -0.136900
H214 H 0.661800 1.521200 -0.186100
H215 H 0.306200 0.787300 0.424500
H216 H 0.592500 1.238200 0.084400
H217 H 0.504400 1.267100 0.058000
H218 H 0.583200 0.899700 1.115500
H219 H 0.541000 1.015900 0.180000
H220 H 0.583200 0.899700 0.115500
H221 H 0.541000 1.015900 1.180000
H222 H 0.504400 1.267100 1.058000
H223 H 0.592500 1.238200 1.084400
H224 H 0.661800 1.521200 0.813900
H225 H 0.608700 1.636100 0.863100
H226 H 0.193800 1.287300 1.075500
H227 H 0.207900 1.152000 1.172600
H228 H 0.160700 1.069400 1.064400
H229 H 0.574400 1.539100 0.754500
H230 H 0.839300 0.930600 0.935600
H231 H 0.792100 0.848000 0.827400
H232 H 0.806200 0.712700 0.924500
H233 H 0.416800 1.100300 0.884500
H234 H 0.425600 0.460900 1.245500
H235 H 0.391300 0.363900 1.136900
H236 H 0.338200 0.478800 1.186100
H237 H 0.459000 0.984100 0.820000
H238 H 0.407500 0.761800 0.915600
H239 H 0.495600 0.732900 0.942000
H240 H 1.041000 0.515900 1.180000
C241 C 0.456580 0.825000 0.946890
C242 C 0.388020 0.475300 1.179200
C243 C 1.039350 0.482700 1.110950
C244 C 1.043420 0.675000 1.053110
C245 C 0.797230 0.152800 0.398830
C246 C 0.710430 -0.112000 0.384620
C247 C 0.797230 0.847200 0.898830
C248 C 0.467630 0.867000 1.058580
C249 C 0.401700 0.663810 1.131490
C250 C 0.362560 0.833200 1.105040
C251 C 0.710430 1.112000 0.884620
C252 C 0.637440 1.166800 0.894960
C253 C 0.598300 1.336190 0.868510
C254 C 0.532370 1.133000 0.941420
C255 C 0.611980 1.524700 0.820800
C256 C 0.289570 0.888000 1.115380
C257 C 0.202770 1.152800 1.101170
C258 C 1.111980 1.024700 0.820800
C259 C 0.543420 1.175000 1.053110
C260 C 1.032370 0.633000 0.941420
C261 C 1.098300 0.836190 0.868510
C262 C 0.539350 0.982700 1.110950
C263 C 1.137440 0.666800 0.894960
C264 C 0.539350 0.982700 0.110950
C265 C 1.210430 0.612000 0.884620
C266 C 0.637440 -0.166800 0.394960
C267 C 0.598300 -0.336190 0.368510
C268 C 0.532370 -0.133000 0.441420
C269 C 0.297230 0.652800 0.398830
C270 C 0.543420 1.175000 0.053110
C271 C 0.611980 1.524700 -0.179200
C272 C 0.532370 1.133000 -0.058580
C273 C 0.210430 0.388000 0.384620
C274 C 0.137440 0.333200 0.394960
C275 C 0.098300 0.163810 0.368510
C276 C 0.032370 0.367000 0.441420
C277 C 0.111980 -0.024700 0.320800
C278 C 0.598300 1.336190 -0.131490
C279 C 0.637440 1.166800 -0.105040
C280 C 0.710430 1.112000 -0.115380
C281 C 0.043420 0.325000 0.553110
C282 C 0.797230 0.847200 -0.101170
C283 C 1.297230 0.347200 0.898830
C284 C 0.039350 0.517300 0.610950
C285 C 0.611980 -0.524700 0.320800
C286 C 0.543420 -0.175000 0.553110
C287 C 0.960650 0.517300 0.889050
C288 C 0.539350 0.017300 0.610950
C289 C 0.956580 0.325000 0.946890
C290 C 0.888020 -0.024700 1.179200
C291 C -0.297230 0.347200 0.601170
C292 C 0.967630 0.367000 1.058580
C293 C 0.460650 1.017300 -0.110950
C294 C 0.456580 0.825000 -0.053110
C295 C -0.210430 0.612000 0.615380
C296 C -0.137440 0.666800 0.605040
C297 C -0.098300 0.836190 0.631490
C298 C -0.032370 0.633000 0.558580
C299 C -0.111980 1.024700 0.679200
C300 C 0.388020 0.475300 0.179200
C301 C 0.467630 0.867000 0.058580
C302 C 0.401700 0.663810 0.131490
C303 C -0.043420 0.675000 0.446890
C304 C 0.362560 0.833200 0.105040
C305 C 0.289570 0.888000 0.115380
C306 C -0.039350 0.482700 0.389050
C307 C 0.202770 1.152800 0.101170
C308 C 0.901700 0.163810 1.131490
C309 C 0.862560 0.333200 1.105040
C310 C 0.789570 0.388000 1.115380
C311 C 0.202770 -0.152800 0.601170
C312 C 0.289570 0.112000 0.615380
C313 C 1.297230 0.652800 0.398830
C314 C 0.362560 0.166800 0.605040
C315 C 0.702770 0.652800 1.101170
C316 C 0.401700 0.336190 0.631490
C317 C 1.210430 0.388000 0.384620
C318 C 1.137440 0.333200 0.394960
C319 C 1.098300 0.163810 0.368510
C320 C 1.032370 0.367000 0.441420
C321 C 1.111980 -0.024700 0.320800
C322 C 0.539350 -0.017300 1.110950
C323 C 0.543420 0.175000 1.053110
C324 C 0.611980 0.524700 0.820800
C325 C 1.043420 0.325000 0.553110
C326 C 0.532370 0.133000 0.941420
C327 C 0.598300 0.336190 0.868510
C328 C 1.039350 0.517300 0.610950
C329 C 0.637440 0.166800 0.894960
C330 C 0.710430 0.112000 0.884620
C331 C 0.467630 0.133000 0.558580
C332 C 1.039350 0.482700 0.110950
C333 C 0.388020 0.524700 0.679200
C334 C 0.456580 0.175000 0.446890
C335 C 0.702770 0.347200 0.601170
C336 C 0.797230 -0.152800 0.898830
C337 C 1.043420 0.675000 0.053110
C338 C 0.460650 -0.017300 0.389050
C339 C 0.789570 0.612000 0.615380
C340 C 0.862560 0.666800 0.605040
C341 C 0.901700 0.836190 0.631490
C342 C 0.967630 0.633000 0.558580
C343 C 0.888020 1.024700 0.679200
C344 C 1.111980 1.024700 -0.179200
C345 C 1.032370 0.633000 -0.058580
C346 C 0.460650 0.017300 0.889050
C347 C 0.956580 0.675000 0.446890
C348 C 0.456580 -0.175000 0.946890
C349 C 0.388020 -0.524700 1.179200
C350 C 0.960650 0.482700 0.389050
C351 C 0.467630 -0.133000 1.058580
C352 C 0.401700 -0.336190 1.131490
C353 C 1.098300 0.836190 -0.131490
C354 C 1.137440 0.666800 -0.105040
C355 C 1.210430 0.612000 -0.115380
C356 C 0.797230 1.152800 0.398830
C357 C -0.297230 0.652800 0.101170
C358 C 0.362560 -0.166800 1.105040
C359 C 0.289570 -0.112000 1.115380
C360 C 0.202770 0.152800 1.101170
C361 C -0.210430 0.388000 0.115380
C362 C -0.137440 0.333200 0.105040
C363 C -0.098300 0.163810 0.131490
C364 C -0.032370 0.367000 0.058580
C365 C -0.111980 -0.024700 0.179200
C366 C 1.297230 0.347200 -0.101170
C367 C 0.710430 0.888000 0.384620
C368 C 0.637440 0.833200 0.394960
C369 C -0.043420 0.325000 -0.053110
C370 C 0.960650 0.517300 -0.110950
C371 C 0.539350 -0.017300 0.110950
C372 C -0.039350 0.517300 -0.110950
C373 C 0.543420 0.175000 0.053110
C374 C 0.611980 0.524700 -0.179200
C375 C 0.598300 0.663810 0.368510
C376 C 0.532370 0.867000 0.441420
C377 C 0.956580 0.325000 -0.053110
C378 C 0.611980 0.475300 0.320800
C379 C 0.297230 0.347200 -0.101170
C380 C 0.532370 0.133000 -0.058580
C381 C 0.598300 0.336190 -0.131490
C382 C 0.637440 0.166800 -0.105040
C383 C 0.210430 0.612000 -0.115380
C384 C 0.137440 0.666800 -0.105040
C385 C 0.098300 0.836190 -0.131490
C386 C 0.032370 0.633000 -0.058580
C387 C 0.111980 1.024700 -0.179200
C388 C 0.710430 0.112000 -0.115380
C389 C 0.797230 -0.152800 -0.101170
C390 C 0.543420 0.825000 0.553110
C391 C 0.043420 0.675000 0.053110
C392 C 0.539350 1.017300 0.610950
C393 C 0.888020 -0.024700 0.179200
C394 C 0.039350 0.482700 0.110950
C395 C 0.967630 0.367000 0.058580
C396 C 0.460650 0.017300 -0.110950
C397 C 0.901700 0.163810 0.131490
C398 C 0.862560 0.333200 0.105040
C399 C 0.789570 0.388000 0.115380
C400 C 0.702770 0.652800 0.101170
C401 C -0.297230 0.652800 1.101170
C402 C 0.456580 -0.175000 -0.053110
C403 C 0.388020 -0.524700 0.179200
C404 C 0.467630 -0.133000 0.058580
C405 C -0.210430 0.388000 1.115380
C406 C -0.137440 0.333200 1.105040
C407 C -0.098300 0.163810 1.131490
C408 C -0.032370 0.367000 1.058580
C409 C -0.111980 -0.024700 1.179200
C410 C 0.401700 -0.336190 0.131490
C411 C 0.362560 -0.166800 0.105040
C412 C 0.289570 -0.112000 0.115380
C413 C -0.043420 0.325000 0.946890
C414 C 0.202770 0.152800 0.101170
C415 C 0.202770 0.847200 0.601170
C416 C -0.039350 0.517300 0.889050
C417 C 0.039350 0.482700 1.110950
C418 C 0.289570 1.112000 0.615380
C419 C 0.362560 1.166800 0.605040
C420 C 0.043420 0.675000 1.053110
C421 C 0.401700 1.336190 0.631490
C422 C 0.467630 1.133000 0.558580
C423 C 0.297230 0.347200 0.898830
C424 C 0.388020 1.524700 0.679200
C425 C 0.460650 0.982700 0.389050
C426 C 0.456580 1.175000 0.446890
C427 C 0.210430 0.612000 0.884620
C428 C 0.137440 0.666800 0.894960
C429 C 0.098300 0.836190 0.868510
C430 C 0.032370 0.633000 0.941420
C431 C 0.111980 1.024700 0.820800
C432 C 0.460650 1.017300 0.889050
O433 O 0.096880 0.527200 0.931680
O434 O 0.030700 0.821940 0.888350
O435 O 0.249850 0.723940 0.855000
O436 O 0.228370 0.422650 0.912210
O437 O 0.250150 -0.223940 0.145000
O438 O 0.469300 -0.321940 0.111650
O439 O 0.403120 -0.027200 0.068320
O440 O 0.403120 1.027200 0.568320
O441 O 0.771630 0.577350 0.087790
O442 O 0.750150 0.276060 0.145000
O443 O 0.969300 0.178060 0.111650
O444 O 0.903120 0.472800 0.068320
O445 O -0.096880 0.472800 1.068320
O446 O 0.469300 1.321940 0.611650
O447 O 0.250150 1.223940 0.645000
O448 O 0.271630 0.922650 0.587790
O449 O -0.030700 0.178060 1.111650
O450 O -0.249850 0.276060 1.145000
O451 O -0.228370 0.577350 1.087790
O452 O 0.728370 -0.077350 -0.087790
O453 O 0.749850 0.223940 -0.145000
O454 O 0.530700 0.321940 -0.111650
O455 O 0.596880 0.027200 -0.068320
O456 O 0.096880 0.527200 -0.068320
O457 O 0.030700 0.821940 -0.111650
O458 O 0.249850 0.723940 -0.145000
O459 O 0.228370 0.422650 -0.087790
O460 O 0.271630 0.077350 1.087790
O461 O 0.250150 -0.223940 1.145000
O462 O 0.469300 -0.321940 1.111650
O463 O 1.228370 0.422650 -0.087790
O464 O 1.249850 0.723940 -0.145000
O465 O 1.030700 0.821940 -0.111650
O466 O 1.096880 0.527200 -0.068320
O467 O 0.403120 -0.027200 1.068320
O468 O -0.096880 0.472800 0.068320
O469 O 0.596880 0.972800 0.431680
O470 O 0.530700 0.678060 0.388350
O471 O -0.030700 0.178060 0.111650
O472 O -0.249850 0.276060 0.145000
O473 O -0.228370 0.577350 0.087790
O474 O 0.728370 -0.077350 0.912210
O475 O 0.749850 0.223940 0.855000
O476 O 0.749850 0.776060 0.355000
O477 O 0.728370 1.077350 0.412210
O478 O 0.530700 0.321940 0.888350
O479 O 0.596880 0.027200 0.931680
O480 O 0.903120 0.527200 0.568320
O481 O 0.969300 0.821940 0.611650
O482 O 0.750150 0.723940 0.645000
O483 O 0.771630 0.422650 0.587790
O484 O 0.271630 1.077350 0.087790
O485 O 0.771630 0.577350 1.087790
O486 O 0.750150 0.276060 1.145000
O487 O 0.969300 0.178060 1.111650
O488 O 0.903120 0.472800 1.068320
O489 O 0.250150 0.776060 0.145000
O490 O 0.469300 0.678060 0.111650
O491 O 1.096880 0.472800 0.431680
O492 O 1.030700 0.178060 0.388350
O493 O 1.249850 0.276060 0.355000
O494 O 1.228370 0.577350 0.412210
O495 O 0.403120 0.972800 0.068320
O496 O 0.728370 0.922650 -0.087790
O497 O -0.096880 0.527200 0.568320
O498 O 0.403120 0.027200 0.568320
O499 O 0.469300 0.321940 0.611650
O500 O 0.250150 0.223940 0.645000
O501 O -0.030700 0.821940 0.611650
O502 O 0.271630 -0.077350 0.587790
O503 O -0.249850 0.723940 0.645000
O504 O -0.228370 0.422650 0.587790
O505 O 0.749850 1.223940 -0.145000
O506 O 0.530700 1.321940 -0.111650
O507 O 1.228370 0.422650 0.912210
O508 O 1.249850 0.723940 0.855000
O509 O 1.030700 0.821940 0.888350
O510 O 1.096880 0.527200 0.931680
O511 O 0.596880 1.027200 -0.068320
O512 O 0.096880 0.472800 0.431680
O513 O 0.030700 0.178060 0.388350
O514 O 0.249850 0.276060 0.355000
O515 O 0.228370 0.577350 0.412210
O516 O 0.271630 1.077350 1.087790
O517 O 0.250150 0.776060 1.145000
O518 O 0.469300 0.678060 1.111650
O519 O 0.403120 0.972800 1.068320
O520 O 0.596880 1.027200 0.931680
O521 O 0.530700 1.321940 0.888350
O522 O 0.596880 -0.027200 0.431680
O523 O 0.749850 1.223940 0.855000
O524 O 0.530700 -0.321940 0.388350
O525 O 0.749850 -0.223940 0.355000
O526 O 0.728370 0.922650 0.912210
O527 O 0.271630 0.077350 0.087790
O528 O 0.728370 0.077350 0.412210

#END
