
#######################################################################
#
#                 Cambridge Crystallographic Data Centre
#                                CCDC 
#
#######################################################################
#
# If this CIF has been generated from an entry in the Cambridge 
# Structural Database, then it will include bibliographic, chemical, 
# crystal, experimental, refinement or atomic coordinate data resulting 
# from the CCDC's data processing and validation procedures.
#
#######################################################################

data_KABCEW
_symmetry_cell_setting           monoclinic
_symmetry_space_group_name_H-M   'P 21/a'
_symmetry_Int_Tables_number      14
_space_group_name_Hall           '-P 2yab'
loop_
_symmetry_equiv_pos_site_id
_symmetry_equiv_pos_as_xyz
1 x,y,z
2 1/2-x,1/2+y,-z
3 -x,-y,-z
4 1/2+x,1/2-y,z
_cell_length_a                   15.92(2)
_cell_length_b                   17.51(3)
_cell_length_c                   16.80(2)
_cell_angle_alpha                90
_cell_angle_beta                 95.16(13)
_cell_angle_gamma                90
_cell_volume                     4664.18
loop_
_atom_site_label
_atom_site_type_symbol
_atom_site_fract_x
_atom_site_fract_y
_atom_site_fract_z
Y1 Y 0.23541(11) -0.01984(11) 0.74591(11)
Si1 Si 0.2742(5) -0.2022(5) 0.6600(5)
H1 H 0.2872 -0.2174 0.7172
C1 C 0.214(2) -0.2834(19) 0.604(2)
H2 H 0.1627 -0.2949 0.6299
H3 H 0.2497 -0.3290 0.6046
H4 H 0.1984 -0.2678 0.5485
C2 C 0.3692(16) -0.2001(16) 0.6126(17)
H5 H 0.3567 -0.1874 0.5559
H6 H 0.3964 -0.2503 0.6173
H7 H 0.4072 -0.1615 0.6382
Si2 Si 0.1704(4) -0.0792(4) 0.5741(4)
H8 H 0.1490 -0.0288 0.5917
O1 O 0.1049(7) -0.0026(6) 0.7690(7)
O2 O 0.3735(8) -0.0156(7) 0.7669(7)
O3 O 0.2424(8) -0.0980(8) 0.8610(7)
C3 C 0.2873(15) -0.0770(13) 0.9360(14)
H9 H 0.2591 -0.0337 0.9606
H10 H 0.3460 -0.0622 0.9284
C4 C 0.2855(15) -0.1481(13) 0.9881(14)
H11 H 0.3430 -0.1691 0.9995
H12 H 0.2623 -0.1359 1.0393
C5 C 0.2310(14) -0.2030(13) 0.9419(14)
H13 H 0.1883 -0.2241 0.9751
H14 H 0.2648 -0.2456 0.9230
C6 C 0.1892(16) -0.1594(14) 0.8724(15)
H15 H 0.1827 -0.1919 0.8241
H16 H 0.1329 -0.1412 0.8844
N1 N 0.2285(9) 0.0932(8) 0.8403(8)
N2 N 0.2797(10) 0.0866(8) 0.6698(9)
N3 N 0.2235(11) -0.1176(10) 0.6565(10)
C7 C 0.0562(11) 0.0232(11) 0.8199(11)
C8 C -0.0311(12) 0.0018(10) 0.8190(11)
C9 C -0.0782(12) 0.0250(13) 0.8747(15)
H17 H -0.1355 0.0093 0.8722
C10 C -0.0450(16) 0.0741(12) 0.9402(14)
H18 H -0.0785 0.0895 0.9814
C11 C 0.0368(13) 0.0968(10) 0.9391(11)
C12 C 0.0883(11) 0.0757(10) 0.8834(11)
C13 C 0.0628(14) 0.1502(12) 1.0111(12)
H19 H 0.1145 0.1309 1.0402
H20 H 0.0175 0.1517 1.0469
H21 H 0.0727 0.2019 0.9915
C14 C -0.0679(11) -0.0479(11) 0.7477(11)
C15 C -0.0592(12) -0.0112(13) 0.6678(14)
H22 H -0.0903 0.0371 0.6644
H23 H -0.0821 -0.0454 0.6251
H24 H 0.0006 -0.0014 0.6619
C16 C -0.1617(13) -0.0642(14) 0.7548(17)
H25 H -0.1920 -0.0159 0.7589
H26 H -0.1677 -0.0950 0.8026
H27 H -0.1852 -0.0922 0.7074
C17 C -0.0234(13) -0.1267(12) 0.7506(14)
H28 H -0.0525 -0.1608 0.7109
H29 H -0.0249 -0.1489 0.8040
H30 H 0.0354 -0.1203 0.7388
C18 C 0.1675(11) 0.1075(10) 0.8828(11)
H31 H 0.1788 0.1472 0.9208
C19 C 0.2995(10) 0.1439(10) 0.8451(11)
C20 C 0.3643(12) 0.1344(11) 0.9109(12)
H32 H 0.3591 0.0988 0.9528
C21 C 0.4340(14) 0.1807(13) 0.9081(14)
H33 H 0.4778 0.1758 0.9500
C22 C 0.4444(12) 0.2300(13) 0.8531(17)
H34 H 0.4953 0.2585 0.8546
C23 C 0.3813(14) 0.2420(11) 0.7911(13)
C24 C 0.3074(11) 0.1987(11) 0.7881(11)
C25 C 0.3921(13) 0.3015(13) 0.7270(14)
H35 H 0.3373 0.3245 0.7100
H36 H 0.4150 0.2771 0.6811
H37 H 0.4311 0.3412 0.7486
C26 C 0.2347(12) 0.2070(11) 0.7240(11)
C27 C 0.1791(15) 0.2664(13) 0.7266(10)
C28 C 0.1159(14) 0.2718(14) 0.6611(14)
H38 H 0.0778 0.3135 0.6593
C29 C 0.1079(15) 0.2181(13) 0.5994(13)
H39 H 0.0664 0.2236 0.5554
C30 C 0.1602(15) 0.1594(12) 0.6046(14)
H40 H 0.1525 0.1197 0.5661
C31 C 0.2273(10) 0.1537(10) 0.6655(11)
C32 C 0.1835(13) 0.3265(12) 0.7899(13)
H41 H 0.1881 0.3022 0.8426
H42 H 0.1324 0.3579 0.7836
H43 H 0.2330 0.3588 0.7848
C33 C 0.3520(12) 0.0930(10) 0.6412(9)
H44 H 0.3570 0.1348 0.6060
C34 C 0.4278(13) 0.0452(11) 0.6550(12)
C35 C 0.4947(14) 0.0547(12) 0.6071(13)
C36 C 0.5693(14) 0.0152(14) 0.6330(16)
H45 H 0.6158 0.0186 0.6015
C37 C 0.5783(15) -0.0282(13) 0.7022(14)
H46 H 0.6301 -0.0537 0.7167
C38 C 0.5187(14) -0.0342(13) 0.7456(14)
C39 C 0.4362(12) -0.0036(10) 0.7229(12)
C40 C 0.4835(14) 0.1010(12) 0.5337(12)
H47 H 0.4425 0.0762 0.4950
H48 H 0.5376 0.1059 0.5107
H49 H 0.4628 0.1519 0.5466
C41 C 0.5348(14) -0.0797(13) 0.8214(14)
C42 C 0.5204(12) -0.0303(11) 0.8980(13)
H50 H 0.4667 -0.0029 0.8892
H51 H 0.5665 0.0065 0.9077
H52 H 0.5190 -0.0640 0.9444
C43 C 0.6289(14) -0.1133(15) 0.841(2)
H53 H 0.6693 -0.0710 0.8470
H54 H 0.6430 -0.1460 0.7963
H55 H 0.6316 -0.1433 0.8899
C44 C 0.4802(15) -0.1519(14) 0.8285(15)
H56 H 0.4990 -0.1792 0.8778
H57 H 0.4861 -0.1852 0.7825
H58 H 0.4210 -0.1370 0.8296
C45 C 0.0744(15) -0.1324(15) 0.5295(14)
H59 H 0.0372 -0.1437 0.5714
H60 H 0.0920 -0.1803 0.5058
H61 H 0.0441 -0.1009 0.4881
C46 C 0.2372(14) -0.0572(14) 0.4933(12)
H62 H 0.2910 -0.0361 0.5161
H63 H 0.2085 -0.0198 0.4569
H64 H 0.2475 -0.1041 0.4638
Y1 Y 0.26459(11) 0.48016(11) 0.25409(11)
Si1 Si 0.2258(5) 0.2978(5) 0.3400(5)
H1 H 0.2128 0.2826 0.2828
C1 C 0.286(2) 0.2166(19) 0.396(2)
H2 H 0.3373 0.2051 0.3701
H3 H 0.2503 0.1710 0.3954
H4 H 0.3016 0.2322 0.4515
C2 C 0.1308(16) 0.2999(16) 0.3874(17)
H5 H 0.1433 0.3126 0.4441
H6 H 0.1036 0.2497 0.3827
H7 H 0.0928 0.3385 0.3618
Si2 Si 0.3296(4) 0.4208(4) 0.4259(4)
H8 H 0.3510 0.4712 0.4083
O1 O 0.3951(7) 0.4974(6) 0.2310(7)
O2 O 0.1265(8) 0.4844(7) 0.2331(7)
O3 O 0.2576(8) 0.4020(8) 0.1390(7)
C3 C 0.2127(15) 0.4230(13) 0.0640(14)
H9 H 0.2409 0.4663 0.0394
H10 H 0.1540 0.4378 0.0716
C4 C 0.2145(15) 0.3519(13) 0.0119(14)
H11 H 0.1570 0.3309 0.0005
H12 H 0.2377 0.3641 -0.0393
C5 C 0.2690(14) 0.2970(13) 0.0581(14)
H13 H 0.3117 0.2759 0.0249
H14 H 0.2352 0.2544 0.0770
C6 C 0.3108(16) 0.3406(14) 0.1276(15)
H15 H 0.3173 0.3081 0.1759
H16 H 0.3671 0.3588 0.1156
N1 N 0.2715(9) 0.5932(8) 0.1597(8)
N2 N 0.2203(10) 0.5866(8) 0.3302(9)
N3 N 0.2765(11) 0.3824(10) 0.3435(10)
C7 C 0.4438(11) 0.5232(11) 0.1801(11)
C8 C 0.5311(12) 0.5018(10) 0.1810(11)
C9 C 0.5782(12) 0.5250(13) 0.1253(15)
H17 H 0.6355 0.5093 0.1278
C10 C 0.5450(16) 0.5741(12) 0.0598(14)
H18 H 0.5785 0.5895 0.0186
C11 C 0.4632(13) 0.5968(10) 0.0609(11)
C12 C 0.4117(11) 0.5757(10) 0.1166(11)
C13 C 0.4372(14) 0.6502(12) -0.0111(12)
H19 H 0.3855 0.6309 -0.0402
H20 H 0.4825 0.6517 -0.0469
H21 H 0.4273 0.7019 0.0085
C14 C 0.5679(11) 0.4521(11) 0.2523(11)
C15 C 0.5592(12) 0.4888(13) 0.3322(14)
H22 H 0.5903 0.5371 0.3356
H23 H 0.5821 0.4546 0.3749
H24 H 0.4994 0.4986 0.3381
C16 C 0.6617(13) 0.4358(14) 0.2452(17)
H25 H 0.6920 0.4841 0.2411
H26 H 0.6677 0.4050 0.1974
H27 H 0.6852 0.4078 0.2926
C17 C 0.5234(13) 0.3733(12) 0.2494(14)
H28 H 0.5525 0.3392 0.2891
H29 H 0.5249 0.3511 0.1960
H30 H 0.4646 0.3797 0.2612
C18 C 0.3325(11) 0.6075(10) 0.1172(11)
H31 H 0.3212 0.6472 0.0792
C19 C 0.2005(10) 0.6439(10) 0.1549(11)
C20 C 0.1357(12) 0.6344(11) 0.0891(12)
H32 H 0.1409 0.5988 0.0472
C21 C 0.0660(14) 0.6807(13) 0.0919(14)
H33 H 0.0222 0.6758 0.0500
C22 C 0.0556(12) 0.7300(13) 0.1469(17)
H34 H 0.0047 0.7585 0.1454
C23 C 0.1187(14) 0.7420(11) 0.2089(13)
C24 C 0.1926(11) 0.6987(11) 0.2119(11)
C25 C 0.1079(13) 0.8015(13) 0.2730(14)
H35 H 0.1627 0.8245 0.2900
H36 H 0.0850 0.7771 0.3189
H37 H 0.0689 0.8412 0.2514
C26 C 0.2653(12) 0.7070(11) 0.2760(11)
C27 C 0.3209(15) 0.7664(13) 0.2734(10)
C28 C 0.3841(14) 0.7718(14) 0.3389(14)
H38 H 0.4222 0.8135 0.3407
C29 C 0.3921(15) 0.7181(13) 0.4006(13)
H39 H 0.4336 0.7236 0.4446
C30 C 0.3398(15) 0.6594(12) 0.3954(14)
H40 H 0.3475 0.6197 0.4339
C31 C 0.2727(10) 0.6537(10) 0.3345(11)
C32 C 0.3165(13) 0.8265(12) 0.2101(13)
H41 H 0.3119 0.8022 0.1574
H42 H 0.3676 0.8579 0.2164
H43 H 0.2670 0.8588 0.2152
C33 C 0.1480(12) 0.5930(10) 0.3588(9)
H44 H 0.1430 0.6348 0.3940
C34 C 0.0722(13) 0.5452(11) 0.3450(12)
C35 C 0.0053(14) 0.5547(12) 0.3929(13)
C36 C -0.0693(14) 0.5152(14) 0.3670(16)
H45 H -0.1158 0.5186 0.3985
C37 C -0.0783(15) 0.4718(13) 0.2978(14)
H46 H -0.1301 0.4463 0.2833
C38 C -0.0187(14) 0.4658(13) 0.2544(14)
C39 C 0.0638(12) 0.4964(10) 0.2771(12)
C40 C 0.0165(14) 0.6010(12) 0.4663(12)
H47 H 0.0575 0.5762 0.5050
H48 H -0.0376 0.6059 0.4893
H49 H 0.0372 0.6519 0.4534
C41 C -0.0348(14) 0.4203(13) 0.1786(14)
C42 C -0.0204(12) 0.4697(11) 0.1020(13)
H50 H 0.0333 0.4971 0.1108
H51 H -0.0665 0.5065 0.0923
H52 H -0.0190 0.4360 0.0556
C43 C -0.1289(14) 0.3867(15) 0.159(2)
H53 H -0.1693 0.4290 0.1530
H54 H -0.1430 0.3540 0.2037
H55 H -0.1316 0.3567 0.1101
C44 C 0.0198(15) 0.3481(14) 0.1715(15)
H56 H 0.0010 0.3208 0.1222
H57 H 0.0139 0.3148 0.2175
H58 H 0.0790 0.3630 0.1704
C45 C 0.4256(15) 0.3676(15) 0.4705(14)
H59 H 0.4628 0.3563 0.4286
H60 H 0.4080 0.3197 0.4942
H61 H 0.4559 0.3991 0.5119
C46 C 0.2628(14) 0.4428(14) 0.5067(12)
H62 H 0.2090 0.4639 0.4839
H63 H 0.2915 0.4802 0.5431
H64 H 0.2525 0.3959 0.5362
Y1 Y 0.76459(11) 1.01984(11) 0.25409(11)
Si1 Si 0.7258(5) 1.2022(5) 0.3400(5)
H1 H 0.7128 1.2174 0.2828
C1 C 0.786(2) 1.2834(19) 0.396(2)
H2 H 0.8373 1.2949 0.3701
H3 H 0.7503 1.3290 0.3954
H4 H 0.8016 1.2678 0.4515
C2 C 0.6308(16) 1.2001(16) 0.3874(17)
H5 H 0.6433 1.1874 0.4441
H6 H 0.6036 1.2503 0.3827
H7 H 0.5928 1.1615 0.3618
Si2 Si 0.8296(4) 1.0792(4) 0.4259(4)
H8 H 0.8510 1.0288 0.4083
O1 O 0.8951(7) 1.0026(6) 0.2310(7)
O2 O 0.6265(8) 1.0156(7) 0.2331(7)
O3 O 0.7576(8) 1.0980(8) 0.1390(7)
C3 C 0.7127(15) 1.0770(13) 0.0640(14)
H9 H 0.7409 1.0337 0.0394
H10 H 0.6540 1.0622 0.0716
C4 C 0.7145(15) 1.1481(13) 0.0119(14)
H11 H 0.6570 1.1691 0.0005
H12 H 0.7377 1.1359 -0.0393
C5 C 0.7690(14) 1.2030(13) 0.0581(14)
H13 H 0.8117 1.2241 0.0249
H14 H 0.7352 1.2456 0.0770
C6 C 0.8108(16) 1.1594(14) 0.1276(15)
H15 H 0.8173 1.1919 0.1759
H16 H 0.8671 1.1412 0.1156
N1 N 0.7715(9) 0.9068(8) 0.1597(8)
N2 N 0.7203(10) 0.9134(8) 0.3302(9)
N3 N 0.7765(11) 1.1176(10) 0.3435(10)
C7 C 0.9438(11) 0.9768(11) 0.1801(11)
C8 C 1.0311(12) 0.9982(10) 0.1810(11)
C9 C 1.0782(12) 0.9750(13) 0.1253(15)
H17 H 1.1355 0.9907 0.1278
C10 C 1.0450(16) 0.9259(12) 0.0598(14)
H18 H 1.0785 0.9105 0.0186
C11 C 0.9632(13) 0.9032(10) 0.0609(11)
C12 C 0.9117(11) 0.9243(10) 0.1166(11)
C13 C 0.9372(14) 0.8498(12) -0.0111(12)
H19 H 0.8855 0.8691 -0.0402
H20 H 0.9825 0.8483 -0.0469
H21 H 0.9273 0.7981 0.0085
C14 C 1.0679(11) 1.0479(11) 0.2523(11)
C15 C 1.0592(12) 1.0112(13) 0.3322(14)
H22 H 1.0903 0.9629 0.3356
H23 H 1.0821 1.0454 0.3749
H24 H 0.9994 1.0014 0.3381
C16 C 1.1617(13) 1.0642(14) 0.2452(17)
H25 H 1.1920 1.0159 0.2411
H26 H 1.1677 1.0950 0.1974
H27 H 1.1852 1.0922 0.2926
C17 C 1.0234(13) 1.1267(12) 0.2494(14)
H28 H 1.0525 1.1608 0.2891
H29 H 1.0249 1.1489 0.1960
H30 H 0.9646 1.1203 0.2612
C18 C 0.8325(11) 0.8925(10) 0.1172(11)
H31 H 0.8212 0.8528 0.0792
C19 C 0.7005(10) 0.8561(10) 0.1549(11)
C20 C 0.6357(12) 0.8656(11) 0.0891(12)
H32 H 0.6409 0.9012 0.0472
C21 C 0.5660(14) 0.8193(13) 0.0919(14)
H33 H 0.5222 0.8242 0.0500
C22 C 0.5556(12) 0.7700(13) 0.1469(17)
H34 H 0.5047 0.7415 0.1454
C23 C 0.6187(14) 0.7580(11) 0.2089(13)
C24 C 0.6926(11) 0.8013(11) 0.2119(11)
C25 C 0.6079(13) 0.6985(13) 0.2730(14)
H35 H 0.6627 0.6755 0.2900
H36 H 0.5850 0.7229 0.3189
H37 H 0.5689 0.6588 0.2514
C26 C 0.7653(12) 0.7930(11) 0.2760(11)
C27 C 0.8209(15) 0.7336(13) 0.2734(10)
C28 C 0.8841(14) 0.7282(14) 0.3389(14)
H38 H 0.9222 0.6865 0.3407
C29 C 0.8921(15) 0.7819(13) 0.4006(13)
H39 H 0.9336 0.7764 0.4446
C30 C 0.8398(15) 0.8406(12) 0.3954(14)
H40 H 0.8475 0.8803 0.4339
C31 C 0.7727(10) 0.8463(10) 0.3345(11)
C32 C 0.8165(13) 0.6735(12) 0.2101(13)
H41 H 0.8119 0.6978 0.1574
H42 H 0.8676 0.6421 0.2164
H43 H 0.7670 0.6412 0.2152
C33 C 0.6480(12) 0.9070(10) 0.3588(9)
H44 H 0.6430 0.8652 0.3940
C34 C 0.5722(13) 0.9548(11) 0.3450(12)
C35 C 0.5053(14) 0.9453(12) 0.3929(13)
C36 C 0.4307(14) 0.9848(14) 0.3670(16)
H45 H 0.3842 0.9814 0.3985
C37 C 0.4217(15) 1.0282(13) 0.2978(14)
H46 H 0.3699 1.0537 0.2833
C38 C 0.4813(14) 1.0342(13) 0.2544(14)
C39 C 0.5638(12) 1.0036(10) 0.2771(12)
C40 C 0.5165(14) 0.8990(12) 0.4663(12)
H47 H 0.5575 0.9238 0.5050
H48 H 0.4624 0.8941 0.4893
H49 H 0.5372 0.8481 0.4534
C41 C 0.4652(14) 1.0797(13) 0.1786(14)
C42 C 0.4796(12) 1.0303(11) 0.1020(13)
H50 H 0.5333 1.0029 0.1108
H51 H 0.4335 0.9935 0.0923
H52 H 0.4810 1.0640 0.0556
C43 C 0.3711(14) 1.1133(15) 0.159(2)
H53 H 0.3307 1.0710 0.1530
H54 H 0.3570 1.1460 0.2037
H55 H 0.3684 1.1433 0.1101
C44 C 0.5198(15) 1.1519(14) 0.1715(15)
H56 H 0.5010 1.1792 0.1222
H57 H 0.5139 1.1852 0.2175
H58 H 0.5790 1.1370 0.1704
C45 C 0.9256(15) 1.1324(15) 0.4705(14)
H59 H 0.9628 1.1437 0.4286
H60 H 0.9080 1.1803 0.4942
H61 H 0.9559 1.1009 0.5119
C46 C 0.7628(14) 1.0572(14) 0.5067(12)
H62 H 0.7090 1.0361 0.4839
H63 H 0.7915 1.0198 0.5431
H64 H 0.7525 1.1041 0.5362
Y1 Y 0.73541(11) 0.51984(11) 0.74591(11)
Si1 Si 0.7742(5) 0.7022(5) 0.6600(5)
H1 H 0.7872 0.7174 0.7172
C1 C 0.714(2) 0.7834(19) 0.604(2)
H2 H 0.6627 0.7949 0.6299
H3 H 0.7497 0.8290 0.6046
H4 H 0.6984 0.7678 0.5485
C2 C 0.8692(16) 0.7001(16) 0.6126(17)
H5 H 0.8567 0.6874 0.5559
H6 H 0.8964 0.7503 0.6173
H7 H 0.9072 0.6615 0.6382
Si2 Si 0.6704(4) 0.5792(4) 0.5741(4)
H8 H 0.6490 0.5288 0.5917
O1 O 0.6049(7) 0.5026(6) 0.7690(7)
O2 O 0.8735(8) 0.5156(7) 0.7669(7)
O3 O 0.7424(8) 0.5980(8) 0.8610(7)
C3 C 0.7873(15) 0.5770(13) 0.9360(14)
H9 H 0.7591 0.5337 0.9606
H10 H 0.8460 0.5622 0.9284
C4 C 0.7855(15) 0.6481(13) 0.9881(14)
H11 H 0.8430 0.6691 0.9995
H12 H 0.7623 0.6359 1.0393
C5 C 0.7310(14) 0.7030(13) 0.9419(14)
H13 H 0.6883 0.7241 0.9751
H14 H 0.7648 0.7456 0.9230
C6 C 0.6892(16) 0.6594(14) 0.8724(15)
H15 H 0.6827 0.6919 0.8241
H16 H 0.6329 0.6412 0.8844
N1 N 0.7285(9) 0.4068(8) 0.8403(8)
N2 N 0.7797(10) 0.4134(8) 0.6698(9)
N3 N 0.7235(11) 0.6176(10) 0.6565(10)
C7 C 0.5562(11) 0.4768(11) 0.8199(11)
C8 C 0.4689(12) 0.4982(10) 0.8190(11)
C9 C 0.4218(12) 0.4750(13) 0.8747(15)
H17 H 0.3645 0.4907 0.8722
C10 C 0.4550(16) 0.4259(12) 0.9402(14)
H18 H 0.4215 0.4105 0.9814
C11 C 0.5368(13) 0.4032(10) 0.9391(11)
C12 C 0.5883(11) 0.4243(10) 0.8834(11)
C13 C 0.5628(14) 0.3498(12) 1.0111(12)
H19 H 0.6145 0.3691 1.0402
H20 H 0.5175 0.3483 1.0469
H21 H 0.5727 0.2981 0.9915
C14 C 0.4321(11) 0.5479(11) 0.7477(11)
C15 C 0.4408(12) 0.5112(13) 0.6678(14)
H22 H 0.4097 0.4629 0.6644
H23 H 0.4179 0.5454 0.6251
H24 H 0.5006 0.5014 0.6619
C16 C 0.3383(13) 0.5642(14) 0.7548(17)
H25 H 0.3080 0.5159 0.7589
H26 H 0.3323 0.5950 0.8026
H27 H 0.3148 0.5922 0.7074
C17 C 0.4766(13) 0.6267(12) 0.7506(14)
H28 H 0.4475 0.6608 0.7109
H29 H 0.4751 0.6489 0.8040
H30 H 0.5354 0.6203 0.7388
C18 C 0.6675(11) 0.3925(10) 0.8828(11)
H31 H 0.6788 0.3528 0.9208
C19 C 0.7995(10) 0.3561(10) 0.8451(11)
C20 C 0.8643(12) 0.3656(11) 0.9109(12)
H32 H 0.8591 0.4012 0.9528
C21 C 0.9340(14) 0.3193(13) 0.9081(14)
H33 H 0.9778 0.3242 0.9500
C22 C 0.9444(12) 0.2700(13) 0.8531(17)
H34 H 0.9953 0.2415 0.8546
C23 C 0.8813(14) 0.2580(11) 0.7911(13)
C24 C 0.8074(11) 0.3013(11) 0.7881(11)
C25 C 0.8921(13) 0.1985(13) 0.7270(14)
H35 H 0.8373 0.1755 0.7100
H36 H 0.9150 0.2229 0.6811
H37 H 0.9311 0.1588 0.7486
C26 C 0.7347(12) 0.2930(11) 0.7240(11)
C27 C 0.6791(15) 0.2336(13) 0.7266(10)
C28 C 0.6159(14) 0.2282(14) 0.6611(14)
H38 H 0.5778 0.1865 0.6593
C29 C 0.6079(15) 0.2819(13) 0.5994(13)
H39 H 0.5664 0.2764 0.5554
C30 C 0.6602(15) 0.3406(12) 0.6046(14)
H40 H 0.6525 0.3803 0.5661
C31 C 0.7273(10) 0.3463(10) 0.6655(11)
C32 C 0.6835(13) 0.1735(12) 0.7899(13)
H41 H 0.6881 0.1978 0.8426
H42 H 0.6324 0.1421 0.7836
H43 H 0.7330 0.1412 0.7848
C33 C 0.8520(12) 0.4070(10) 0.6412(9)
H44 H 0.8570 0.3652 0.6060
C34 C 0.9278(13) 0.4548(11) 0.6550(12)
C35 C 0.9947(14) 0.4453(12) 0.6071(13)
C36 C 1.0693(14) 0.4848(14) 0.6330(16)
H45 H 1.1158 0.4814 0.6015
C37 C 1.0783(15) 0.5282(13) 0.7022(14)
H46 H 1.1301 0.5537 0.7167
C38 C 1.0187(14) 0.5342(13) 0.7456(14)
C39 C 0.9362(12) 0.5036(10) 0.7229(12)
C40 C 0.9835(14) 0.3990(12) 0.5337(12)
H47 H 0.9425 0.4238 0.4950
H48 H 1.0376 0.3941 0.5107
H49 H 0.9628 0.3481 0.5466
C41 C 1.0348(14) 0.5797(13) 0.8214(14)
C42 C 1.0204(12) 0.5303(11) 0.8980(13)
H50 H 0.9667 0.5029 0.8892
H51 H 1.0665 0.4935 0.9077
H52 H 1.0190 0.5640 0.9444
C43 C 1.1289(14) 0.6133(15) 0.841(2)
H53 H 1.1693 0.5710 0.8470
H54 H 1.1430 0.6460 0.7963
H55 H 1.1316 0.6433 0.8899
C44 C 0.9802(15) 0.6519(14) 0.8285(15)
H56 H 0.9990 0.6792 0.8778
H57 H 0.9861 0.6852 0.7825
H58 H 0.9210 0.6370 0.8296
C45 C 0.5744(15) 0.6324(15) 0.5295(14)
H59 H 0.5372 0.6437 0.5714
H60 H 0.5920 0.6803 0.5058
H61 H 0.5441 0.6009 0.4881
C46 C 0.7372(14) 0.5572(14) 0.4933(12)
H62 H 0.7910 0.5361 0.5161
H63 H 0.7085 0.5198 0.4569
H64 H 0.7475 0.6041 0.4638

#END
