./KABCUO_from_POSCAR.cif_generated_by_CrystalShift
_symmetry_cell_setting triclinic
_symmetry_space_group_name_H-M 'P 1'
loop_
_symmetry_equiv_pos_site_id
_symmetry_equiv_pos_as_xyz
1 x,y,z
_cell_length_a 11.559600
_cell_length_b 12.652100
_cell_length_c 12.652500
_cell_angle_alpha 62.966000
_cell_angle_beta 86.332000
_cell_angle_gamma 76.969000
_cell_volume 1604.252895
loop_
_atom_site_label
_atom_site_type_symbol
_atom_site_fract_x
_atom_site_fract_y
_atom_site_fract_z
H1 H 0.599600 0.005700 0.554800
H2 H -0.259200 0.251300 0.518600
H3 H 0.711000 0.064000 0.496300
H4 H 0.376500 0.547400 0.447500
H5 H 0.369400 0.481200 0.588900
H6 H -0.111300 0.116100 0.636200
H7 H 0.279000 0.468000 0.507300
H8 H -0.223600 0.239200 0.715800
H9 H -0.147400 0.340700 0.650100
H10 H 0.148200 0.387400 0.177200
H11 H -0.057000 0.101600 0.838000
H12 H -0.079600 0.224800 0.850700
H13 H 0.101600 0.530200 0.095000
H14 H 0.145700 0.481400 0.229800
H15 H 0.316600 0.418400 -0.188400
H16 H 0.060800 0.179000 0.978300
H17 H 0.409800 0.497500 -0.195700
H18 H 0.292200 0.559800 -0.280900
H19 H 0.101300 0.556000 -0.195300
H20 H 0.413600 -0.077100 0.963200
H21 H 0.079400 0.561300 -0.071400
H22 H 0.126600 0.433000 -0.073100
H23 H 0.301900 -0.037800 0.754300
H24 H 0.393400 0.045300 0.739900
H25 H 0.409300 0.454800 0.002500
H26 H 0.253100 0.127900 0.570100
H27 H 0.258100 0.222000 0.621300
H28 H 0.257200 0.288600 0.093200
H29 H 0.094900 0.067600 0.706300
H30 H 0.346300 0.290700 -0.009900
H31 H 0.427700 0.148900 0.191600
H32 H -0.015600 0.162700 0.426000
H33 H 0.063700 0.053800 0.537700
H34 H 0.122100 0.159100 0.439900
H35 H 0.511200 0.237700 0.110600
H36 H 0.104700 0.354400 0.457700
H37 H -0.020500 0.400200 0.502100
H38 H -0.016200 0.370400 0.391600
H39 H 0.559700 0.130400 0.354100
H40 H 0.075000 0.351000 0.787200
H41 H 0.019700 0.389000 0.658800
H42 H 0.160500 0.344300 0.684800
H43 H 0.321500 0.497500 0.314500
H44 H 0.071300 0.220400 1.132100
H45 H 0.067100 0.127800 1.269600
H46 H 0.009100 0.108100 1.170200
H47 H 0.269100 0.637600 0.137200
H48 H 0.436100 -0.239900 1.164200
H49 H 0.503900 -0.233700 1.267000
H50 H 0.532800 -0.158200 1.131000
H51 H 0.382400 0.615200 0.064300
H52 H 1.259200 0.748700 0.481400
H53 H 0.140900 0.699700 -0.028300
H54 H 0.237400 0.782100 -0.065800
H55 H 0.348700 0.670200 -0.156500
H56 H 1.111300 0.883900 0.363800
H57 H 0.208500 0.734100 -0.299400
H58 H 1.223600 0.760800 0.284200
H59 H 1.147400 0.659300 0.349900
H60 H 0.400400 0.994300 0.445200
H61 H 1.057000 0.898400 0.162000
H62 H 1.079600 0.775200 0.149300
H63 H 0.305800 0.986000 0.363800
H64 H 0.289000 0.936000 0.503700
H65 H 0.623500 0.452600 0.552500
H66 H 0.939200 0.821000 0.021700
H67 H 0.630600 0.518800 0.411100
H68 H 0.721000 0.532000 0.492700
H69 H 0.851800 0.612600 0.822800
H70 H 0.586400 1.077100 0.036800
H71 H 0.898400 0.469800 0.905000
H72 H 0.854300 0.518600 0.770200
H73 H 0.698100 1.037800 0.245700
H74 H 0.606600 0.954700 0.260100
H75 H 0.683400 0.581600 1.188400
H76 H 0.746900 0.872100 0.429900
H77 H 0.741900 0.778000 0.378700
H78 H 0.590200 0.502500 1.195700
H79 H 0.905100 0.932400 0.293700
H80 H 0.707800 0.440200 1.280900
H81 H 0.898700 0.444000 1.195300
H82 H 1.015600 0.837300 0.574000
H83 H 0.936300 0.946200 0.462300
H84 H 0.877900 0.840900 0.560100
H85 H 0.920600 0.438700 1.071400
H86 H 0.895300 0.645600 0.542300
H87 H 1.020500 0.599800 0.497900
H88 H 1.016200 0.629600 0.608400
H89 H 0.873400 0.567000 1.073100
H90 H 0.925000 0.649000 0.212800
H91 H 0.980300 0.611000 0.341200
H92 H 0.839500 0.655700 0.315200
H93 H 0.590700 0.545200 0.997500
H94 H 0.928700 0.779600 -0.132100
H95 H 0.932900 0.872200 -0.269600
H96 H 0.990900 0.891900 -0.170200
H97 H 0.742800 0.711400 0.906800
H98 H 0.563900 1.239900 -0.164200
H99 H 0.496100 1.233700 -0.267000
H100 H 0.467200 1.158200 -0.131000
H101 H 0.653700 0.709300 1.009900
H102 H 0.791500 0.265900 1.299400
H103 H 0.572300 0.851100 0.808400
H104 H 0.488800 0.762300 0.889400
H105 H 0.440300 0.869600 0.645900
H106 H 0.651300 0.329800 1.156500
H107 H 0.678500 0.502500 0.685500
H108 H 0.762600 0.217900 1.065800
H109 H 0.859100 0.300300 1.028300
H110 H 0.730900 0.362400 0.862800
H111 H 0.617600 0.384800 0.935700
H112 H 0.694200 0.014000 0.636200
C113 C 0.713620 0.520850 0.881490
C114 C 0.631150 0.608300 0.771610
C115 C 0.630060 0.577330 0.677760
C116 C 0.773590 0.301250 1.041070
C117 C 0.560610 0.652760 0.575090
C118 C 0.485880 0.762110 0.564240
C119 C 0.489140 0.794880 0.653880
C120 C 0.735480 0.337420 1.139510
C121 C 0.563250 0.720070 0.757250
C122 C 0.565090 0.765230 0.848990
C123 C 0.652740 0.054680 0.557960
C124 C -0.108580 0.204180 0.597630
C125 C 0.667070 0.690380 0.941720
C126 C -0.143510 0.252110 0.688290
C127 C 0.529840 1.187410 -0.185340
C128 C 0.674790 0.554710 0.984240
C129 C 0.925520 0.864780 -0.189050
C130 C 0.741520 0.469310 1.107200
C131 C 0.870170 0.480790 1.112200
C132 C 0.917000 0.666610 0.281130
C133 C 0.978220 0.653180 0.531460
C134 C 0.950150 0.859110 0.517130
C135 C 0.674690 0.501310 1.201630
C136 C 0.982500 0.785490 0.446620
C137 C 0.896350 0.846130 0.335060
C138 C 0.763820 0.855640 0.360400
C139 C 0.841160 0.531440 0.841210
C140 C 0.691370 0.958950 0.251060
C141 C 0.732570 0.953180 0.137350
C142 C 0.658200 1.024580 0.033820
C143 C 0.639610 0.525260 0.484250
C144 C 0.687130 1.020000 -0.071870
C145 C 0.793000 0.940590 -0.075170
C146 C 0.867270 0.873070 0.025150
C147 C 0.347260 0.945320 0.442040
C148 C 0.839620 0.879030 0.132730
C149 C 0.926790 0.799060 0.240390
C150 C 1.054990 0.811040 0.204590
C151 C 0.360390 0.474740 0.515750
C152 C 1.143510 0.747890 0.311710
C153 C -0.054990 0.188960 0.795410
C154 C 0.073210 0.200940 0.759610
C155 C 0.264520 0.662580 -0.139510
C156 C 1.108580 0.795820 0.402370
C157 C 0.226410 0.698750 -0.041070
C158 C 0.160380 0.120970 0.867270
C159 C 0.158840 0.468560 0.158790
C160 C 0.297650 0.611430 0.075510
C161 C 0.132730 0.126930 0.974850
C162 C 0.470160 -0.187410 1.185340
C163 C 0.286380 0.479150 0.118510
C164 C 0.368850 0.391700 0.228390
C165 C 0.369940 0.422670 0.322240
C166 C 0.074480 0.135220 1.189050
C167 C 0.439390 0.347240 0.424910
C168 C 0.514120 0.237890 0.435760
C169 C 0.510860 0.205120 0.346120
C170 C 0.083000 0.333390 0.718870
C171 C 0.436750 0.279930 0.242750
C172 C 0.434910 0.234770 0.151010
C173 C 0.021780 0.346820 0.468540
C174 C 0.049850 0.140890 0.482870
C175 C 0.332930 0.309620 0.058280
C176 C 0.017500 0.214510 0.553380
C177 C 0.103650 0.153870 0.664940
C178 C 0.325210 0.445290 0.015760
C179 C 0.236180 0.144360 0.639600
C180 C 0.258480 0.530690 -0.107200
C181 C 0.129830 0.519210 -0.112200
C182 C 0.308630 0.041050 0.748940
C183 C 0.267430 0.046820 0.862650
C184 C 0.341800 -0.024580 0.966180
C185 C 0.325310 0.498690 -0.201630
C186 C 0.312870 -0.020000 1.071870
C187 C 0.207000 0.059410 1.075170
C188 C 0.702350 0.388570 0.924490
O189 O 0.814940 0.938400 -0.182030
O190 O 0.620720 1.085950 -0.176460
O191 O 0.584630 0.172000 0.538330
O192 O 0.442210 0.369350 0.520930
O193 O 0.191360 0.751360 -0.242740
O194 O 0.808640 0.248640 1.242740
O195 O 0.557790 0.630650 0.479070
O196 O 0.379280 -0.085950 1.176460
O197 O 0.415370 0.828000 0.461670
O198 O 0.185060 0.061600 1.182030
O199 O 1.192250 0.733170 0.503260
O200 O -0.192250 0.266830 0.496740

#END
