
#######################################################################
#
#                 Cambridge Crystallographic Data Centre
#                                CCDC 
#
#######################################################################
#
# If this CIF has been generated from an entry in the Cambridge 
# Structural Database, then it will include bibliographic, chemical, 
# crystal, experimental, refinement or atomic coordinate data resulting 
# from the CCDC's data processing and validation procedures.
#
#######################################################################

data_KABCIC
_symmetry_cell_setting           monoclinic
_symmetry_space_group_name_H-M   'P 21/n'
_symmetry_Int_Tables_number      14
_space_group_name_Hall           '-P 2yn'
loop_
_symmetry_equiv_pos_site_id
_symmetry_equiv_pos_as_xyz
1 x,y,z
2 1/2-x,1/2+y,1/2-z
3 -x,-y,-z
4 1/2+x,1/2-y,1/2+z
_cell_length_a                   9.60173(18)
_cell_length_b                   12.9474(2)
_cell_length_c                   13.2032(3)
_cell_angle_alpha                90
_cell_angle_beta                 97.478(2)
_cell_angle_gamma                90
_cell_volume                     1627.43
loop_
_atom_site_label
_atom_site_type_symbol
_atom_site_fract_x
_atom_site_fract_y
_atom_site_fract_z
O1 O 0.13392(9) 0.64469(7) 0.31813(8)
O2 O 0.32198(10) 0.53886(7) 0.34271(8)
O3 O 0.42798(10) 0.87225(7) 0.42468(9)
O4 O 0.49182(9) 0.70183(7) 0.40934(9)
O5 O 0.89507(10) 0.85676(7) 0.54596(9)
O6 O 0.95642(10) 0.68676(7) 0.52425(9)
O7 O 1.29963(10) 0.73844(9) 0.65656(8)
O8 O 1.20770(11) 0.59719(7) 0.57437(8)
C1 C 0.04336(15) 0.55621(13) 0.29759(14)
H1 H 0.0774 0.5135 0.2446
H2 H -0.0525 0.5795 0.2740
H3 H 0.0437 0.5155 0.3602
C2 C 0.27046(13) 0.62375(9) 0.34444(9)
C3 C 0.35000(12) 0.71639(9) 0.37667(9)
C4 C 0.31365(12) 0.81539(9) 0.38543(9)
C5 C 0.18176(14) 0.87407(10) 0.35996(11)
H4 H 0.1635 0.9150 0.4193
H5 H 0.1039 0.8259 0.3414
H6 H 0.1905 0.9203 0.3023
C6 C 0.54604(13) 0.80177(10) 0.44293(11)
C7 C 0.65739(14) 0.83462(11) 0.37880(10)
H7 H 0.6857 0.9068 0.3956
H8 H 0.6187 0.8318 0.3056
C8 C 0.78541(14) 0.76433(11) 0.39813(11)
H9 H 0.7602 0.6946 0.3710
H10 H 0.8609 0.7917 0.3612
C9 C 0.83891(14) 0.75643(10) 0.51021(11)
C10 C 0.72678(15) 0.72558(11) 0.57504(10)
H11 H 0.7659 0.7284 0.6482
H12 H 0.6967 0.6537 0.5587
C11 C 0.60020(15) 0.79766(11) 0.55554(11)
H13 H 0.5248 0.7728 0.5939
H14 H 0.6276 0.8679 0.5802
C12 C 1.02836(13) 0.83920(10) 0.59251(9)
C13 C 1.10055(16) 0.92901(12) 0.64436(13)
H15 H 1.0987 0.9868 0.5963
H16 H 1.1982 0.9107 0.6687
H17 H 1.0527 0.9492 0.7025
C14 C 1.06494(13) 0.74144(10) 0.57916(9)
C15 C 1.20184(13) 0.69419(10) 0.60792(9)
C16 C 1.34407(17) 0.54789(13) 0.59775(13)
H18 H 1.4108 0.5797 0.5569
H19 H 1.3354 0.4741 0.5816
H20 H 1.3780 0.5566 0.6705
O1 O 1.36608(9) 0.14469(7) 0.18187(8)
O2 O 1.17802(10) 0.03886(7) 0.15729(8)
O3 O 1.07202(10) 0.37225(7) 0.07532(9)
O4 O 1.00818(9) 0.20183(7) 0.09066(9)
O5 O 0.60493(10) 0.35676(7) -0.04596(9)
O6 O 0.54358(10) 0.18676(7) -0.02425(9)
O7 O 0.20037(10) 0.23844(9) -0.15656(8)
O8 O 0.29230(11) 0.09719(7) -0.07437(8)
C1 C 1.45664(15) 0.05621(13) 0.20241(14)
H1 H 1.4226 0.0135 0.2554
H2 H 1.5525 0.0795 0.2260
H3 H 1.4563 0.0155 0.1398
C2 C 1.22954(13) 0.12375(9) 0.15556(9)
C3 C 1.15000(12) 0.21639(9) 0.12333(9)
C4 C 1.18635(12) 0.31539(9) 0.11457(9)
C5 C 1.31824(14) 0.37407(10) 0.14004(11)
H4 H 1.3365 0.4150 0.0807
H5 H 1.3961 0.3259 0.1586
H6 H 1.3095 0.4203 0.1977
C6 C 0.95396(13) 0.30177(10) 0.05707(11)
C7 C 0.84261(14) 0.33462(11) 0.12120(10)
H7 H 0.8143 0.4068 0.1044
H8 H 0.8813 0.3318 0.1944
C8 C 0.71459(14) 0.26433(11) 0.10187(11)
H9 H 0.7398 0.1946 0.1290
H10 H 0.6391 0.2917 0.1388
C9 C 0.66109(14) 0.25643(10) -0.01021(11)
C10 C 0.77322(15) 0.22558(11) -0.07504(10)
H11 H 0.7341 0.2284 -0.1482
H12 H 0.8033 0.1537 -0.0587
C11 C 0.89980(15) 0.29766(11) -0.05554(11)
H13 H 0.9752 0.2728 -0.0939
H14 H 0.8724 0.3679 -0.0802
C12 C 0.47164(13) 0.33920(10) -0.09251(9)
C13 C 0.39945(16) 0.42901(12) -0.14436(13)
H15 H 0.4013 0.4868 -0.0963
H16 H 0.3018 0.4107 -0.1687
H17 H 0.4473 0.4492 -0.2025
C14 C 0.43506(13) 0.24144(10) -0.07916(9)
C15 C 0.29816(13) 0.19419(10) -0.10792(9)
C16 C 0.15593(17) 0.04789(13) -0.09775(13)
H18 H 0.0892 0.0797 -0.0569
H19 H 0.1646 -0.0259 -0.0816
H20 H 0.1220 0.0566 -0.1705
O1 O 0.86608(9) 0.35531(7) 0.68187(8)
O2 O 0.67802(10) 0.46114(7) 0.65729(8)
O3 O 0.57202(10) 0.12775(7) 0.57532(9)
O4 O 0.50818(9) 0.29817(7) 0.59066(9)
O5 O 0.10493(10) 0.14324(7) 0.45404(9)
O6 O 0.04358(10) 0.31324(7) 0.47575(9)
O7 O -0.29963(10) 0.26156(9) 0.34344(8)
O8 O -0.20770(11) 0.40281(7) 0.42563(8)
C1 C 0.95664(15) 0.44379(13) 0.70241(14)
H1 H 0.9226 0.4865 0.7554
H2 H 1.0525 0.4205 0.7260
H3 H 0.9563 0.4845 0.6398
C2 C 0.72954(13) 0.37625(9) 0.65556(9)
C3 C 0.65000(12) 0.28361(9) 0.62333(9)
C4 C 0.68635(12) 0.18461(9) 0.61457(9)
C5 C 0.81824(14) 0.12593(10) 0.64004(11)
H4 H 0.8365 0.0850 0.5807
H5 H 0.8961 0.1741 0.6586
H6 H 0.8095 0.0797 0.6977
C6 C 0.45396(13) 0.19823(10) 0.55707(11)
C7 C 0.34261(14) 0.16538(11) 0.62120(10)
H7 H 0.3143 0.0932 0.6044
H8 H 0.3813 0.1682 0.6944
C8 C 0.21459(14) 0.23567(11) 0.60187(11)
H9 H 0.2398 0.3054 0.6290
H10 H 0.1391 0.2083 0.6388
C9 C 0.16109(14) 0.24357(10) 0.48979(11)
C10 C 0.27322(15) 0.27442(11) 0.42496(10)
H11 H 0.2341 0.2716 0.3518
H12 H 0.3033 0.3463 0.4413
C11 C 0.39980(15) 0.20234(11) 0.44446(11)
H13 H 0.4752 0.2272 0.4061
H14 H 0.3724 0.1321 0.4198
C12 C -0.02836(13) 0.16080(10) 0.40749(9)
C13 C -0.10055(16) 0.07099(12) 0.35564(13)
H15 H -0.0987 0.0132 0.4037
H16 H -0.1982 0.0893 0.3313
H17 H -0.0527 0.0508 0.2975
C14 C -0.06494(13) 0.25856(10) 0.42084(9)
C15 C -0.20184(13) 0.30581(10) 0.39208(9)
C16 C -0.34407(17) 0.45211(13) 0.40225(13)
H18 H -0.4108 0.4203 0.4431
H19 H -0.3354 0.5259 0.4184
H20 H -0.3780 0.4434 0.3295
O1 O -0.36608(9) 0.85531(7) 0.81813(8)
O2 O -0.17802(10) 0.96114(7) 0.84271(8)
O3 O -0.07202(10) 0.62775(7) 0.92468(9)
O4 O -0.00818(9) 0.79817(7) 0.90934(9)
O5 O 0.39507(10) 0.64324(7) 1.04596(9)
O6 O 0.45642(10) 0.81324(7) 1.02425(9)
O7 O 0.79963(10) 0.76156(9) 1.15656(8)
O8 O 0.70770(11) 0.90281(7) 1.07437(8)
C1 C -0.45664(15) 0.94379(13) 0.79759(14)
H1 H -0.4226 0.9865 0.7446
H2 H -0.5525 0.9205 0.7740
H3 H -0.4563 0.9845 0.8602
C2 C -0.22954(13) 0.87625(9) 0.84444(9)
C3 C -0.15000(12) 0.78361(9) 0.87667(9)
C4 C -0.18635(12) 0.68461(9) 0.88543(9)
C5 C -0.31824(14) 0.62593(10) 0.85996(11)
H4 H -0.3365 0.5850 0.9193
H5 H -0.3961 0.6741 0.8414
H6 H -0.3095 0.5797 0.8023
C6 C 0.04604(13) 0.69823(10) 0.94293(11)
C7 C 0.15739(14) 0.66538(11) 0.87880(10)
H7 H 0.1857 0.5932 0.8956
H8 H 0.1187 0.6682 0.8056
C8 C 0.28541(14) 0.73567(11) 0.89813(11)
H9 H 0.2602 0.8054 0.8710
H10 H 0.3609 0.7083 0.8612
C9 C 0.33891(14) 0.74357(10) 1.01021(11)
C10 C 0.22678(15) 0.77442(11) 1.07504(10)
H11 H 0.2659 0.7716 1.1482
H12 H 0.1967 0.8463 1.0587
C11 C 0.10020(15) 0.70234(11) 1.05554(11)
H13 H 0.0248 0.7272 1.0939
H14 H 0.1276 0.6321 1.0802
C12 C 0.52836(13) 0.66080(10) 1.09251(9)
C13 C 0.60055(16) 0.57099(12) 1.14436(13)
H15 H 0.5987 0.5132 1.0963
H16 H 0.6982 0.5893 1.1687
H17 H 0.5527 0.5508 1.2025
C14 C 0.56494(13) 0.75856(10) 1.07916(9)
C15 C 0.70184(13) 0.80581(10) 1.10792(9)
C16 C 0.84407(17) 0.95211(13) 1.09775(13)
H18 H 0.9108 0.9203 1.0569
H19 H 0.8354 1.0259 1.0816
H20 H 0.8780 0.9434 1.1705

#END
