./KABGAX_from_POSCAR.cif_generated_by_CrystalShift
_symmetry_cell_setting triclinic
_symmetry_space_group_name_H-M 'P 1'
loop_
_symmetry_equiv_pos_site_id
_symmetry_equiv_pos_as_xyz
1 x,y,z
_cell_length_a 23.435600
_cell_length_b 7.841150
_cell_length_c 26.743800
_cell_angle_alpha 90.000000
_cell_angle_beta 111.786000
_cell_angle_gamma 90.000000
_cell_volume 4563.485369
loop_
_atom_site_label
_atom_site_type_symbol
_atom_site_fract_x
_atom_site_fract_y
_atom_site_fract_z
H1 H 0.784200 1.169500 0.723200
H2 H 0.831900 1.135300 0.783100
H3 H 0.441200 0.823700 0.484100
H4 H 0.458000 0.633400 0.506300
H5 H 0.469700 0.693000 0.453700
H6 H 0.614200 0.559700 0.597200
H7 H 0.524000 0.273800 -0.041700
H8 H 0.662400 0.297200 0.601600
H9 H 0.447400 0.398800 -0.113500
H10 H 0.756800 0.284200 0.592000
H11 H 0.804000 0.531100 0.579000
H12 H 0.340300 0.508000 -0.156100
H13 H 0.755700 0.794900 0.573300
H14 H 0.244300 0.544300 -0.154000
H15 H 0.706600 0.999600 0.674100
H16 H 0.652100 1.095100 0.798500
H17 H 0.295900 0.311800 -0.008600
H18 H 0.553100 1.019100 0.747200
H19 H 0.476000 0.915200 0.659300
H20 H 0.452600 0.819400 0.572700
H21 H 0.715800 0.669500 0.776800
H22 H 0.399900 0.144600 0.151600
H23 H 0.701700 0.478500 0.754600
H24 H 0.401600 0.340100 0.217600
H25 H 0.668100 0.635300 0.716900
H26 H 0.403300 0.630700 0.201500
H27 H 1.058800 0.323700 1.015900
H28 H 0.403600 0.729400 0.119500
H29 H 1.042000 0.133400 0.993700
H30 H 0.404100 0.533800 0.053800
H31 H 1.030300 0.193000 1.046300
H32 H 0.602800 0.109100 0.087700
H33 H 0.591500 0.275600 0.050700
H34 H 0.579700 0.090400 0.023600
H35 H 0.885800 0.059700 0.902800
H36 H 0.144100 0.444600 -0.047600
H37 H 0.214700 0.454700 -0.008200
H38 H 0.187200 0.280100 -0.038600
H39 H 0.837600 -0.202800 0.898400
H40 H 0.743200 -0.215800 0.908000
H41 H 0.696000 0.031100 0.921000
H42 H 0.744300 0.294900 0.926700
H43 H 0.793400 0.499600 0.825900
H44 H 0.847900 0.595100 0.701500
H45 H -0.024000 0.773800 0.541700
H46 H 0.946900 0.519100 0.752800
H47 H 0.052600 0.898800 0.613500
H48 H 1.024000 0.415200 0.840700
H49 H 1.047400 0.319400 0.927300
H50 H 0.159700 1.008000 0.656100
H51 H 0.215800 -0.169500 0.276800
H52 H 0.255700 1.044300 0.654000
H53 H 0.201700 0.021500 0.254600
H54 H 0.168100 -0.135300 0.216900
H55 H 0.204100 0.811800 0.508600
H56 H 0.558800 0.176300 0.515900
H57 H 0.542000 0.366600 0.493700
H58 H 0.530300 0.307000 0.546300
H59 H 0.385800 0.440300 0.402800
H60 H 0.100100 0.644600 0.348400
H61 H 0.337600 0.702800 0.398400
H62 H 0.098400 0.840100 0.282400
H63 H 0.243200 0.715800 0.408000
H64 H 0.096700 1.130700 0.298500
H65 H 0.196000 0.468900 0.421000
H66 H 0.096400 1.229400 0.380500
H67 H 0.244300 0.205100 0.426700
H68 H 0.095900 1.033800 0.446200
H69 H 0.293400 0.000400 0.325900
H70 H -0.102800 0.609100 0.412300
H71 H -0.091500 0.775600 0.449300
H72 H -0.079700 0.590400 0.476400
H73 H 0.347900 -0.095100 0.201500
H74 H 0.355900 0.944600 0.547600
H75 H 0.285300 0.954700 0.508200
H76 H 0.312800 0.780100 0.538600
H77 H 0.446900 -0.019100 0.252800
H78 H 0.524000 0.084800 0.340700
H79 H 0.547400 0.180600 0.427300
H80 H 0.284200 0.330500 0.223200
H81 H 0.298300 0.521500 0.245400
H82 H 0.331900 0.364700 0.283100
H83 H 0.476000 0.726200 1.041700
H84 H -0.058800 0.676300 -0.015900
H85 H 0.552600 0.601200 1.113500
H86 H -0.042000 0.866600 0.006300
H87 H -0.030300 0.807000 -0.046300
H88 H 0.659700 0.492000 1.156100
H89 H 0.114200 0.940300 0.097200
H90 H 0.755700 0.455700 1.154000
H91 H 0.162400 1.202800 0.101600
H92 H 0.256800 1.215800 0.092000
H93 H 0.704100 0.688200 1.008600
H94 H 0.304000 0.968900 0.079000
H95 H 0.255700 0.705100 0.073300
H96 H 0.206600 0.500400 0.174100
H97 H 0.152100 0.404900 0.298500
H98 H 0.600100 0.855400 0.848400
H99 H 0.053100 0.480900 0.247200
H100 H 0.598400 0.659900 0.782400
H101 H -0.024000 0.584800 0.159300
H102 H 0.596700 0.369300 0.798500
H103 H -0.047400 0.680600 0.072700
H104 H 0.596400 0.270600 0.880500
H105 H 0.454200 0.443900 0.321800
H106 H 0.595900 0.466200 0.946200
H107 H 0.461900 0.631400 0.301500
H108 H 0.397200 0.890900 0.912300
H109 H 0.408500 0.724400 0.949300
H110 H 0.420300 0.909600 0.976400
H111 H 0.417600 0.600600 0.334000
H112 H 0.855900 0.555400 1.047600
H113 H 0.785300 0.545300 1.008200
H114 H 0.812800 0.719900 1.038600
H115 H 0.816400 0.280200 0.298100
H116 H 0.805800 0.462000 0.268800
H117 H 0.791100 0.290700 0.233800
H118 H 0.631000 0.120300 0.318100
H119 H 0.598000 -0.162700 0.303300
H120 H 0.537900 -0.253900 0.216800
H121 H 1.024000 0.226200 0.458300
H122 H 0.510800 -0.064800 0.145100
H123 H 0.947400 0.101200 0.386500
H124 H 0.541600 0.218300 0.159000
H125 H 0.545800 0.471500 0.306900
H126 H 0.840300 -0.008000 0.343900
H127 H 0.601000 0.674900 0.456700
H128 H 0.744300 -0.044300 0.346000
H129 H 0.701700 0.658000 0.465100
H130 H 0.780900 0.580100 0.427100
H131 H 0.795900 0.188200 0.491400
H132 H 0.806500 0.468500 0.358500
H133 H 1.045800 0.943900 0.178200
H134 H 1.038100 1.131400 0.198500
H135 H 1.082400 1.100600 0.166000
H136 H 0.899900 0.355400 0.651600
H137 H 0.683600 0.780200 0.201900
H138 H 0.901600 0.159900 0.717600
H139 H 0.694200 0.962000 0.231200
H140 H 0.903300 -0.130700 0.701500
H141 H 0.708900 0.790700 0.266200
H142 H 0.903600 -0.229400 0.619500
H143 H 0.869000 0.620300 0.181900
H144 H 0.904100 -0.033800 0.553800
H145 H 0.902000 0.337300 0.196700
H146 H 1.102800 0.390900 0.587700
H147 H 1.091500 0.224400 0.550700
H148 H 1.079700 0.409600 0.523600
H149 H 0.962100 0.246100 0.283200
H150 H 0.644100 0.055400 0.452400
H151 H 0.714700 0.045300 0.491800
H152 H 0.687200 0.219900 0.461400
H153 H 0.989200 0.435200 0.354900
H154 H 0.958400 0.718300 0.341000
H155 H 0.954200 0.971500 0.193100
H156 H 0.899000 1.174900 0.043300
H157 H 0.798300 1.158000 0.034900
H158 H 0.719100 1.080100 0.072900
H159 H 0.306500 0.031500 0.858500
H160 H 0.693500 0.968500 0.141500
H161 H 0.280900 -0.080100 0.927100
H162 H 0.545800 0.556100 0.678200
H163 H 0.538100 0.368600 0.698500
H164 H 0.201700 -0.158000 0.965100
H165 H 0.582400 0.399400 0.666000
H166 H 0.101000 -0.174900 0.956700
H167 H 0.183600 0.719800 0.701900
H168 H 0.194200 0.538000 0.731200
H169 H 0.045800 0.028500 0.806900
H170 H 0.208900 0.709300 0.766200
H171 H 0.369000 0.879700 0.681900
H172 H 0.402000 1.162700 0.696700
H173 H 0.462100 1.253900 0.783200
H174 H 0.041600 0.281700 0.659000
H175 H 0.489200 1.064800 0.854900
H176 H 0.010800 0.564800 0.645100
H177 H 0.458400 0.781700 0.841000
H178 H 0.037900 0.753900 0.716800
H179 H 0.454200 0.528500 0.693100
H180 H 0.098000 0.662700 0.803300
H181 H 0.399000 0.325100 0.543300
H182 H 0.131000 0.379700 0.818100
H183 H 0.298300 0.342000 0.534900
H184 H 0.291100 0.209300 0.733800
H185 H 0.305800 0.038000 0.768800
H186 H 0.316400 0.219800 0.798100
H187 H 0.219100 0.419900 0.572900
H188 H -0.082400 -0.100600 0.834000
H189 H -0.038100 -0.131400 0.801500
H190 H -0.045800 0.056100 0.821800
H191 H 0.193500 0.531500 0.641500
H192 H 0.798300 0.978500 0.745400
C193 C 0.793620 1.096800 0.755050
C194 C 0.342990 0.569240 0.698900
C195 C 0.282060 0.581700 0.692600
C196 C 0.235390 0.524400 0.645240
C197 C 0.414050 0.255210 0.006060
C198 C 0.250800 0.458600 0.604840
C199 C -0.043940 -0.065700 0.830440
C200 C 0.312560 0.446200 0.608940
C201 C 0.329540 0.380100 0.567220
C202 C 0.290310 0.155100 0.766540
C203 C 0.388910 0.369400 0.572000
C204 C 0.106300 0.416920 0.782870
C205 C 0.435900 0.424500 0.620020
C206 C 0.422140 0.490570 0.661300
C207 C 0.086860 0.584600 0.774080
C208 C 0.359960 0.502970 0.656950
C209 C 0.390630 0.622840 0.752020
C210 C 0.410380 0.802930 0.759990
C211 C 0.446570 0.859100 0.811570
C212 C 0.051230 0.638600 0.722720
C213 C 0.465030 1.026400 0.819720
C214 C 0.034970 0.526400 0.680280
C215 C 0.448770 1.138600 0.777280
C216 C 0.053430 0.359100 0.688430
C217 C 0.413140 1.084600 0.725920
C218 C 0.089620 0.302930 0.740010
C219 C 0.393700 0.916920 0.717130
C220 C 0.109370 0.122840 0.747980
C221 C 0.209690 0.655100 0.733460
C222 C 0.140040 0.002970 0.843050
C223 C 0.077860 -0.009430 0.838700
C224 C 0.064100 -0.075500 0.879980
C225 C 0.543940 0.434300 0.669560
C226 C 0.111090 -0.130600 0.928000
C227 C 0.170460 -0.119900 0.932780
C228 C 0.187440 -0.053800 0.891060
C229 C 0.471900 0.237240 0.004670
C230 C 0.470130 0.729200 0.488900
C231 C 0.484290 0.289500 -0.040720
C232 C 0.842990 0.930760 0.198900
C233 C 0.782060 0.918300 0.192600
C234 C 0.735390 0.975600 0.145240
C235 C 0.249200 -0.041400 0.895160
C236 C 0.750800 1.041400 0.104840
C237 C 0.264610 0.024400 0.854760
C238 C 0.812560 1.053800 0.108940
C239 C 0.829540 1.119900 0.067220
C240 C 0.217940 0.081700 0.807400
C241 C 0.888910 1.130600 0.072000
C242 C 0.157010 0.069240 0.801100
C243 C 0.935900 1.075500 0.120020
C244 C 0.922140 1.009430 0.161300
C245 C 0.652670 0.554450 0.593100
C246 C 0.859960 0.997030 0.156950
C247 C 0.890630 0.877160 0.252020
C248 C 0.910380 0.697070 0.259990
C249 C 0.946570 0.640900 0.311570
C250 C 0.438770 0.362900 -0.083150
C251 C 0.965030 0.473600 0.319720
C252 C 0.681280 0.398700 0.595870
C253 C 0.948770 0.361400 0.277280
C254 C 0.685760 0.095300 0.458420
C255 C 0.913140 0.415400 0.225920
C256 C 1.077070 0.340200 0.553180
C257 C 0.893700 0.583080 0.217130
C258 C 0.903280 0.005940 0.587070
C259 C 0.709690 0.844900 0.233460
C260 C 0.903280 -0.110400 0.626050
C261 C 0.902880 -0.051600 0.674440
C262 C 0.901840 0.120800 0.683990
C263 C 1.043940 1.065700 0.169560
C264 C 0.901090 0.236700 0.645070
C265 C 0.902150 0.179970 0.596170
C266 C 0.903450 0.307380 0.555190
C267 C 0.379120 0.387010 -0.083150
C268 C 0.737240 0.391200 0.590310
C269 C 0.331970 0.467800 -0.126000
C270 C 0.657010 0.430760 0.301100
C271 C 0.717940 0.418300 0.307400
C272 C 0.764610 0.475600 0.354760
C273 C 0.866310 0.170170 0.462220
C274 C 0.749200 0.541400 0.395160
C275 C 0.805640 0.148700 0.461890
C276 C 0.687440 0.553800 0.391060
C277 C 0.670460 0.619900 0.432780
C278 C 0.761560 0.071300 0.419100
C279 C 0.611090 0.630600 0.428000
C280 C 0.775230 0.011300 0.375110
C281 C 0.564100 0.575500 0.379980
C282 C 0.577860 0.509430 0.338700
C283 C 0.831970 0.032200 0.374000
C284 C 0.640040 0.497030 0.343050
C285 C 0.609370 0.377160 0.247980
C286 C 0.589620 0.197070 0.240010
C287 C 0.553430 0.140900 0.188430
C288 C 0.879120 0.112990 0.416850
C289 C 0.534970 -0.026400 0.180280
C290 C 0.938770 0.137100 0.416850
C291 C 0.551230 -0.138600 0.222720
C292 C 0.984290 0.210500 0.459280
C293 C 0.586860 -0.084600 0.274080
C294 C 0.971900 0.262760 0.504670
C295 C 0.606300 0.083080 0.282870
C296 C 0.914050 0.244790 0.506060
C297 C 0.790310 0.344900 0.266540
C298 C 0.765070 0.537500 0.582300
C299 C 0.275230 0.488700 -0.124890
C300 C 0.736510 0.694100 0.579070
C301 C 0.456060 0.565700 0.330440
C302 C 0.814240 0.595300 1.041580
C303 C 0.422930 0.840200 0.946820
C304 C 0.596720 0.505940 0.912930
C305 C 0.679690 0.703390 0.584340
C306 C 0.649900 0.871550 0.581300
C307 C 0.614540 0.951250 0.656160
C308 C 0.099470 0.611550 0.102990
C309 C 0.040070 0.659110 0.072530
C310 C -0.006460 0.648300 0.093950
C311 C 0.596720 0.389600 0.873950
C312 C 0.007610 0.591300 0.145200
C313 C 0.597120 0.448400 0.825560
C314 C 0.067620 0.541530 0.177870
C315 C 0.083830 0.485900 0.231980
C316 C 0.598160 0.620800 0.816010
C317 C 0.142180 0.439900 0.262280
C318 C 0.598910 0.736700 0.854930
C319 C 0.188240 0.443960 0.240150
C320 C 0.175150 0.497500 0.188470
C321 C 0.597850 0.679970 0.903830
C322 C 0.114540 0.548750 0.156160
C323 C 0.149900 0.628450 0.081300
C324 C 0.179690 0.796610 0.084340
C325 C 0.236510 0.805900 0.079070
C326 C 0.596550 0.807380 0.944810
C327 C 0.265070 0.962500 0.082300
C328 C 0.633690 0.670170 1.037780
C329 C 0.237240 1.108800 0.090310
C330 C 0.694360 0.648700 1.038110
C331 C 0.181280 1.101300 0.095870
C332 C 0.738440 0.571300 1.080900
C333 C 0.152670 0.945550 0.093100
C334 C 0.724770 0.511300 1.124890
C335 C -0.029870 0.770800 -0.011100
C336 C 0.668030 0.532200 1.126000
C337 C 0.620880 0.612990 1.083150
C338 C 0.561230 0.637100 1.083150
C339 C 0.293620 0.403200 0.255050
C340 C 0.515710 0.710500 1.040720
C341 C 0.528100 0.762760 0.995330
C342 C 0.585950 0.744790 0.993940
C343 C 0.261560 0.428700 -0.080900
C344 C 0.675150 1.002500 0.688470
C345 C 0.688240 1.056040 0.740150
C346 C 0.400530 0.111550 0.397010
C347 C 0.459930 0.159110 0.427470
C348 C 0.506460 0.148300 0.406050
C349 C 0.305640 0.351300 -0.038110
C350 C 0.492390 0.091300 0.354800
C351 C 0.642180 1.060100 0.762280
C352 C 0.432380 0.041530 0.322130
C353 C 0.416170 -0.014100 0.268020
C354 C 0.366310 0.329830 -0.037780
C355 C 0.357820 -0.060100 0.237720
C356 C 0.314240 0.904700 0.541580
C357 C 0.311760 -0.056040 0.259850
C358 C 0.324850 -0.002500 0.311530
C359 C -0.077070 0.659800 0.446820
C360 C 0.385460 0.048750 0.343840
C361 C 0.350100 0.128450 0.418700
C362 C 0.320310 0.296610 0.415660
C363 C 0.263490 0.305900 0.420930
C364 C 0.096720 0.994060 0.412930
C365 C 0.234930 0.462500 0.417700
C366 C 0.096720 1.110400 0.373950
C367 C 0.262760 0.608800 0.409690
C368 C 0.097120 1.051600 0.325560
C369 C 0.318720 0.601300 0.404130
C370 C 0.098160 0.879200 0.316010
C371 C 0.347330 0.445550 0.406900
C372 C 0.098910 0.763300 0.354930
C373 C 0.529870 0.270800 0.511100
C374 C 0.097850 0.820030 0.403830
C375 C 0.096550 0.692620 0.444810
C376 C 0.133690 0.829830 0.537780
C377 C 0.206380 -0.096800 0.244950
C378 C 0.194360 0.851300 0.538110
C379 C 0.238440 0.928700 0.580900
C380 C 0.224770 0.988700 0.624890
C381 C 0.583830 1.014100 0.731980
C382 C 0.567620 0.958470 0.677870
C383 C 0.403450 0.192620 0.055190
C384 C 0.900530 0.388450 0.897010
C385 C 0.959930 0.340890 0.927470
C386 C 1.006460 0.351700 0.906050
C387 C 0.168030 0.967800 0.626000
C388 C 0.992390 0.408700 0.854800
C389 C 0.120880 0.887010 0.583150
C390 C 0.932380 0.458470 0.822130
C391 C 0.916170 0.514100 0.768020
C392 C 0.061230 0.862900 0.583150
C393 C 0.857820 0.560100 0.737720
C394 C 0.015710 0.789500 0.540720
C395 C 0.811760 0.556040 0.759850
C396 C 0.824850 0.502500 0.811530
C397 C 0.028100 0.737240 0.495330
C398 C 0.885460 0.451250 0.843840
C399 C 0.850100 0.371550 0.918700
C400 C 0.820310 0.203390 0.915660
C401 C 0.763490 0.194100 0.920930
C402 C 0.085950 0.755210 0.493940
C403 C 0.734930 0.037500 0.917700
C404 C 0.507610 0.908700 0.645200
C405 C 0.762760 -0.108800 0.909690
C406 C 0.402150 0.320030 0.096170
C407 C 0.818720 -0.101300 0.904130
C408 C 0.493540 0.851700 0.593950
C409 C 0.847330 0.054450 0.906900
C410 C 0.185760 0.404700 -0.041580
C411 C 1.029870 0.229200 1.011100
C412 C 0.577070 0.159800 0.053180
C413 C 0.403280 0.494060 0.087070
C414 C 0.403280 0.610400 0.126050
C415 C 0.706380 0.596800 0.744950
C416 C 0.402880 0.551600 0.174440
C417 C 0.401840 0.379200 0.183990
C418 C 0.401090 0.263300 0.145070
C419 C 0.540070 0.840890 0.572530
C420 C 0.599470 0.888450 0.602990
O421 O 0.667720 0.996960 0.564490
O422 O 0.744980 1.106960 0.774480
O423 O 0.530650 0.783990 0.521830
O424 O -0.014860 0.666110 0.450430
O425 O 0.297800 0.955150 0.585650
O426 O 0.103100 0.540690 0.438750
O427 O 0.832280 0.496960 0.935510
O428 O 0.755020 0.606960 0.725520
O429 O 0.969350 0.283990 0.978170
O430 O 0.485140 0.833890 0.950430
O431 O 0.797800 0.544850 1.085650
O432 O 0.603100 0.959310 0.938750
O433 O 0.332280 0.003040 0.435510
O434 O 0.255020 -0.106960 0.225520
O435 O 0.469350 0.216010 0.478170
O436 O 0.167720 0.503040 0.064490
O437 O 0.244980 0.393040 0.274480
O438 O 0.030650 0.716010 0.021830
O439 O 1.014860 0.333890 0.549570
O440 O 0.702200 0.044850 0.414350
O441 O 0.896900 0.459310 0.561250
O442 O 0.588630 0.482050 0.212230
O443 O 0.505790 0.596570 0.379510
O444 O 0.728700 0.347780 0.264950
O445 O 0.228700 0.152220 0.764950
O446 O 0.005790 -0.096570 0.879510
O447 O 0.088630 0.017950 0.712230
O448 O 0.911370 0.982050 0.287770
O449 O 0.994210 1.096570 0.120490
O450 O 0.771300 0.847780 0.235050
O451 O 0.271300 0.652220 0.735050
O452 O 0.396900 0.040690 0.061250
O453 O 0.411370 0.517950 0.787770
O454 O 0.202200 0.455150 -0.085650
O455 O 0.494210 0.403430 0.620490
O456 O 0.514860 0.166110 0.049570

#END
