./KABGUS_from_POSCAR.cif_generated_by_CrystalShift
_symmetry_cell_setting triclinic
_symmetry_space_group_name_H-M 'P 1'
loop_
_symmetry_equiv_pos_site_id
_symmetry_equiv_pos_as_xyz
1 x,y,z
_cell_length_a 7.155500
_cell_length_b 10.232500
_cell_length_c 16.111100
_cell_angle_alpha 90.000000
_cell_angle_beta 90.000000
_cell_angle_gamma 90.000000
_cell_volume 1179.633052
loop_
_atom_site_label
_atom_site_type_symbol
_atom_site_fract_x
_atom_site_fract_y
_atom_site_fract_z
H1 H 0.749700 0.256700 0.375800
H2 H 0.428700 0.160000 0.707500
H3 H 0.532600 0.127100 0.624400
H4 H 0.070300 0.160000 0.707300
H5 H -0.032900 0.373200 0.124100
H6 H 0.072800 0.483200 0.172900
H7 H 0.070300 0.340000 0.207300
H8 H 0.072800 0.016800 0.672900
H9 H 0.532600 0.372900 0.124400
H10 H 0.428700 0.340000 0.207500
H11 H 0.426700 0.483200 0.172900
H12 H -0.032900 0.126800 0.624100
H13 H 0.249800 0.479800 0.645100
H14 H 0.249800 0.020200 0.145100
H15 H 0.750300 1.233000 1.011800
H16 H 0.250900 -0.151300 -0.154100
H17 H 0.250300 0.743300 0.624200
H18 H 0.249700 0.090700 -0.148100
H19 H 0.250000 0.665100 0.711000
H20 H 0.750000 1.165100 0.789000
H21 H 0.250300 -0.243300 0.124200
H22 H 0.250000 -0.165100 0.211000
H23 H 0.749700 1.243300 0.875800
H24 H 0.249700 0.733000 0.488200
H25 H 0.750300 0.909300 1.148100
H26 H 0.749100 1.151300 1.154100
H27 H 0.750200 0.979800 0.854900
H28 H 0.249700 -0.233000 -0.011800
H29 H 0.573300 0.516800 0.827100
H30 H 0.249700 0.409300 0.351900
H31 H 0.571300 0.660000 0.792500
H32 H 0.467400 0.627100 0.875600
H33 H 0.929700 0.660000 0.792700
H34 H 1.032900 0.873200 0.375900
H35 H 0.927200 0.983200 0.327100
H36 H 0.929700 0.840000 0.292700
H37 H 0.927200 0.516800 0.827100
H38 H 0.467400 0.872900 0.375600
H39 H 0.571300 0.840000 0.292500
H40 H 0.573300 0.983200 0.327100
H41 H 1.032900 0.626800 0.875900
H42 H 0.250900 0.651300 0.345900
H43 H 0.750200 0.520200 0.354900
H44 H 0.750300 0.267000 0.511800
H45 H 0.749100 0.348700 0.654100
H46 H 0.750000 0.334900 0.289000
H47 H 0.750300 0.590700 0.648100
H48 H 0.426700 0.016800 0.672900
C49 C 0.749900 0.335200 0.346700
C50 C 0.749900 0.834500 0.621390
C51 C 0.750000 0.534600 0.602670
C52 C 0.750000 0.571900 0.521100
C53 C 0.250200 0.297100 0.509970
C54 C 0.749800 0.702900 0.490030
C55 C 0.250000 0.428100 0.478900
C56 C 0.750100 0.354600 0.527190
C57 C 0.749600 0.399400 0.606230
C58 C 0.749700 0.923800 0.475500
C59 C 0.750100 0.443900 0.386240
C60 C 0.749800 0.637600 0.889960
C61 C 0.250400 0.600600 0.393770
C62 C 0.925900 0.607600 0.842040
C63 C 0.749900 0.818000 0.534110
C64 C 0.574600 0.892300 0.341960
C65 C 0.925900 0.892400 0.342040
C66 C 0.574600 0.607700 0.841960
C67 C 0.250000 0.465400 0.397330
C68 C 0.749800 0.862400 0.389960
C69 C 0.250300 0.423800 0.024500
C70 C 0.749900 0.682000 1.034110
C71 C 0.750100 1.056100 0.886240
C72 C 0.249900 -0.145400 -0.027190
C73 C 0.749600 1.100600 1.106230
C74 C 0.249900 0.645400 0.472810
C75 C 0.750000 0.965400 1.102670
C76 C 0.250200 0.202900 0.009970
C77 C 0.749900 0.665500 1.121390
C78 C 0.749900 1.164800 0.846700
C79 C 0.250000 0.071900 -0.021100
C80 C 0.250100 -0.164800 0.153300
C81 C 0.750000 0.928100 1.021100
C82 C 0.250100 0.334500 -0.121390
C83 C 0.749800 0.797100 0.990030
C84 C 0.250000 0.034600 -0.102670
C85 C 0.750100 1.145400 1.027190
C86 C 0.250400 -0.100600 -0.106230
C87 C 0.749700 0.576200 0.975500
C88 C 0.249900 -0.056100 0.113760
C89 C 0.250200 0.137600 0.610040
C90 C 0.249900 0.556100 0.613760
C91 C 0.074100 0.107600 0.657960
C92 C 0.250100 0.318000 -0.034110
C93 C 0.425400 0.392300 0.158040
C94 C 0.074100 0.392400 0.157960
C95 C 0.425400 0.107700 0.658040
C96 C 0.250100 0.165500 0.378610
C97 C 0.250200 0.362400 0.110040
C98 C 0.250300 0.076200 0.524500
C99 C 0.250100 0.182000 0.465890
C100 C 0.250100 0.664800 0.653300
N101 N 0.750200 0.648000 1.191350
N102 N 0.750000 1.042730 0.973700
N103 N 0.750200 0.852000 0.691350
N104 N 0.750000 0.457270 0.473700
N105 N 0.249800 0.352000 -0.191350
N106 N 0.250000 0.542730 0.526300
N107 N 0.249800 0.148000 0.308650
N108 N 0.250000 -0.042730 0.026300
O109 O 0.750300 0.778420 0.908200
O110 O 0.750200 1.041930 0.488320
O111 O 0.249700 0.278420 0.591800
O112 O 0.750300 0.721580 0.408200
O113 O 0.249800 -0.041930 0.511680
O114 O 0.249800 0.541930 0.011680
O115 O 0.249700 0.221580 0.091800
O116 O 0.750200 0.458070 0.988320

#END
