
#######################################################################
#
#                 Cambridge Crystallographic Data Centre
#                                CCDC 
#
#######################################################################
#
# If this CIF has been generated from an entry in the Cambridge 
# Structural Database, then it will include bibliographic, chemical, 
# crystal, experimental, refinement or atomic coordinate data resulting 
# from the CCDC's data processing and validation procedures.
#
#######################################################################

data_KABGOM
_symmetry_cell_setting           monoclinic
_symmetry_space_group_name_H-M   'P 21/n'
_symmetry_Int_Tables_number      14
_space_group_name_Hall           '-P 2yn'
loop_
_symmetry_equiv_pos_site_id
_symmetry_equiv_pos_as_xyz
1 x,y,z
2 1/2-x,1/2+y,1/2-z
3 -x,-y,-z
4 1/2+x,1/2-y,1/2+z
_cell_length_a                   11.2449(7)
_cell_length_b                   11.6294(7)
_cell_length_c                   13.4932(8)
_cell_angle_alpha                90
_cell_angle_beta                 92.534(2)
_cell_angle_gamma                90
_cell_volume                     1762.8
loop_
_atom_site_label
_atom_site_type_symbol
_atom_site_fract_x
_atom_site_fract_y
_atom_site_fract_z
O1 O 0.03585(7) 0.27317(7) 0.78320(6)
O2 O 0.13871(8) 0.08162(7) 0.97206(6)
N1 N 0.02791(8) 0.51742(8) 0.75225(7)
C1 C -0.13574(12) 0.48424(12) 0.63555(11)
H1 H -0.1799 0.5392 0.6679
H2 H -0.1689 0.4460 0.5805
C2 C -0.08292(11) 0.10974(10) 0.82758(9)
H3 H -0.1265 0.1630 0.8665
H4 H -0.0812 0.0359 0.8594
H5 H -0.1210 0.1030 0.7628
C3 C 0.04331(10) 0.15301(9) 0.81825(8)
C4 C 0.08149(9) 0.34368(9) 0.85384(8)
C5 C 0.07677(10) 0.46463(9) 0.83740(8)
C6 C 0.03187(9) 0.63463(9) 0.76636(8)
C7 C -0.01038(10) 0.71851(9) 0.69045(8)
C8 C 0.04510(10) 0.72901(11) 0.60042(9)
H6 H 0.1083 0.6809 0.5865
C9 C 0.00619(11) 0.81107(11) 0.53155(9)
H7 H 0.0435 0.8178 0.4717
C10 C -0.08819(11) 0.88299(11) 0.55174(9)
H8 H -0.1137 0.9381 0.5056
C11 C 0.12753(10) 0.28472(9) 0.93617(8)
C12 C 0.10944(10) 0.16304(9) 0.91937(8)
C13 C 0.18365(10) 0.33067(10) 1.02349(8)
N2 N 0.23016(10) 0.36406(9) 1.09547(8)
C14 C -0.02674(11) 0.46058(10) 0.66760(8)
H9 H 0.0164 0.4054 0.6345
C15 C 0.08361(10) 0.65765(9) 0.86008(8)
C16 C 0.11131(10) 0.55144(10) 0.90383(8)
H10 H 0.1468 0.5405 0.9667
C17 C 0.11048(11) 0.77420(10) 0.90341(9)
H11 H 0.1083 0.7695 0.9751
H12 H 0.0488 0.8274 0.8805
C18 C 0.23091(11) 0.82152(10) 0.87616(11)
H13 H 0.2927 0.7701 0.8997
H14 H 0.2430 0.8957 0.9062
H15 H 0.2330 0.8287 0.8054
C19 C -0.10558(11) 0.79082(10) 0.71008(9)
H16 H -0.1432 0.7843 0.7698
C20 C -0.14440(11) 0.87267(10) 0.64059(9)
H17 H -0.2081 0.9204 0.6539
C21 C 0.11303(12) 0.08364(10) 0.74548(9)
H18 H 0.0745 0.0884 0.6807
H19 H 0.1165 0.0048 0.7664
H20 H 0.1923 0.1138 0.7433
O1 O 0.46415(7) -0.22683(7) 0.71680(6)
O2 O 0.36129(8) -0.41838(7) 0.52794(6)
N1 N 0.47209(8) 0.01742(8) 0.74775(7)
C1 C 0.63574(12) -0.01576(12) 0.86445(11)
H1 H 0.6799 0.0392 0.8321
H2 H 0.6689 -0.0540 0.9195
C2 C 0.58292(11) -0.39026(10) 0.67242(9)
H3 H 0.6265 -0.3370 0.6335
H4 H 0.5812 -0.4641 0.6406
H5 H 0.6210 -0.3970 0.7372
C3 C 0.45669(10) -0.34699(9) 0.68175(8)
C4 C 0.41851(9) -0.15632(9) 0.64616(8)
C5 C 0.42323(10) -0.03537(9) 0.66260(8)
C6 C 0.46813(9) 0.13463(9) 0.73364(8)
C7 C 0.51038(10) 0.21851(9) 0.80955(8)
C8 C 0.45490(10) 0.22901(11) 0.89958(9)
H6 H 0.3917 0.1809 0.9135
C9 C 0.49381(11) 0.31107(11) 0.96845(9)
H7 H 0.4565 0.3178 1.0283
C10 C 0.58819(11) 0.38299(11) 0.94826(9)
H8 H 0.6137 0.4381 0.9944
C11 C 0.37247(10) -0.21528(9) 0.56383(8)
C12 C 0.39056(10) -0.33696(9) 0.58063(8)
C13 C 0.31635(10) -0.16933(10) 0.47651(8)
N2 N 0.26984(10) -0.13594(9) 0.40453(8)
C14 C 0.52674(11) -0.03942(10) 0.83240(8)
H9 H 0.4836 -0.0946 0.8655
C15 C 0.41639(10) 0.15765(9) 0.63992(8)
C16 C 0.38869(10) 0.05144(10) 0.59617(8)
H10 H 0.3532 0.0405 0.5333
C17 C 0.38952(11) 0.27420(10) 0.59659(9)
H11 H 0.3917 0.2695 0.5249
H12 H 0.4512 0.3274 0.6195
C18 C 0.26909(11) 0.32152(10) 0.62384(11)
H13 H 0.2073 0.2701 0.6003
H14 H 0.2570 0.3957 0.5938
H15 H 0.2670 0.3287 0.6946
C19 C 0.60558(11) 0.29082(10) 0.78992(9)
H16 H 0.6432 0.2843 0.7302
C20 C 0.64440(11) 0.37267(10) 0.85941(9)
H17 H 0.7081 0.4204 0.8461
C21 C 0.38697(12) -0.41636(10) 0.75452(9)
H18 H 0.4255 -0.4116 0.8193
H19 H 0.3835 -0.4952 0.7336
H20 H 0.3077 -0.3862 0.7567
O1 O 0.96415(7) 0.72683(7) 0.21680(6)
O2 O 0.86129(8) 0.91838(7) 0.02794(6)
N1 N 0.97209(8) 0.48258(8) 0.24775(7)
C1 C 1.13574(12) 0.51576(12) 0.36445(11)
H1 H 1.1799 0.4608 0.3321
H2 H 1.1689 0.5540 0.4195
C2 C 1.08292(11) 0.89026(10) 0.17242(9)
H3 H 1.1265 0.8370 0.1335
H4 H 1.0812 0.9641 0.1406
H5 H 1.1210 0.8970 0.2372
C3 C 0.95669(10) 0.84699(9) 0.18175(8)
C4 C 0.91851(9) 0.65632(9) 0.14616(8)
C5 C 0.92323(10) 0.53537(9) 0.16260(8)
C6 C 0.96813(9) 0.36537(9) 0.23364(8)
C7 C 1.01038(10) 0.28149(9) 0.30955(8)
C8 C 0.95490(10) 0.27099(11) 0.39958(9)
H6 H 0.8917 0.3191 0.4135
C9 C 0.99381(11) 0.18893(11) 0.46845(9)
H7 H 0.9565 0.1822 0.5283
C10 C 1.08819(11) 0.11701(11) 0.44826(9)
H8 H 1.1137 0.0619 0.4944
C11 C 0.87247(10) 0.71528(9) 0.06383(8)
C12 C 0.89056(10) 0.83696(9) 0.08063(8)
C13 C 0.81635(10) 0.66933(10) -0.02349(8)
N2 N 0.76984(10) 0.63594(9) -0.09547(8)
C14 C 1.02674(11) 0.53942(10) 0.33240(8)
H9 H 0.9836 0.5946 0.3655
C15 C 0.91639(10) 0.34235(9) 0.13992(8)
C16 C 0.88869(10) 0.44856(10) 0.09617(8)
H10 H 0.8532 0.4595 0.0333
C17 C 0.88952(11) 0.22580(10) 0.09659(9)
H11 H 0.8917 0.2305 0.0249
H12 H 0.9512 0.1726 0.1195
C18 C 0.76909(11) 0.17848(10) 0.12384(11)
H13 H 0.7073 0.2299 0.1003
H14 H 0.7570 0.1043 0.0938
H15 H 0.7670 0.1713 0.1946
C19 C 1.10558(11) 0.20918(10) 0.28992(9)
H16 H 1.1432 0.2157 0.2302
C20 C 1.14440(11) 0.12733(10) 0.35941(9)
H17 H 1.2081 0.0796 0.3461
C21 C 0.88697(12) 0.91636(10) 0.25452(9)
H18 H 0.9255 0.9116 0.3193
H19 H 0.8835 0.9952 0.2336
H20 H 0.8077 0.8862 0.2567
O1 O 0.53585(7) 1.22683(7) 0.28320(6)
O2 O 0.63871(8) 1.41838(7) 0.47206(6)
N1 N 0.52791(8) 0.98258(8) 0.25225(7)
C1 C 0.36426(12) 1.01576(12) 0.13555(11)
H1 H 0.3201 0.9608 0.1679
H2 H 0.3311 1.0540 0.0805
C2 C 0.41708(11) 1.39026(10) 0.32758(9)
H3 H 0.3735 1.3370 0.3665
H4 H 0.4188 1.4641 0.3594
H5 H 0.3790 1.3970 0.2628
C3 C 0.54331(10) 1.34699(9) 0.31825(8)
C4 C 0.58149(9) 1.15632(9) 0.35384(8)
C5 C 0.57677(10) 1.03537(9) 0.33740(8)
C6 C 0.53187(9) 0.86537(9) 0.26636(8)
C7 C 0.48962(10) 0.78149(9) 0.19045(8)
C8 C 0.54510(10) 0.77099(11) 0.10042(9)
H6 H 0.6083 0.8191 0.0865
C9 C 0.50619(11) 0.68893(11) 0.03155(9)
H7 H 0.5435 0.6822 -0.0283
C10 C 0.41181(11) 0.61701(11) 0.05174(9)
H8 H 0.3863 0.5619 0.0056
C11 C 0.62753(10) 1.21528(9) 0.43617(8)
C12 C 0.60944(10) 1.33696(9) 0.41937(8)
C13 C 0.68365(10) 1.16933(10) 0.52349(8)
N2 N 0.73016(10) 1.13594(9) 0.59547(8)
C14 C 0.47326(11) 1.03942(10) 0.16760(8)
H9 H 0.5164 1.0946 0.1345
C15 C 0.58361(10) 0.84235(9) 0.36008(8)
C16 C 0.61131(10) 0.94856(10) 0.40383(8)
H10 H 0.6468 0.9595 0.4667
C17 C 0.61048(11) 0.72580(10) 0.40341(9)
H11 H 0.6083 0.7305 0.4751
H12 H 0.5488 0.6726 0.3805
C18 C 0.73091(11) 0.67848(10) 0.37616(11)
H13 H 0.7927 0.7299 0.3997
H14 H 0.7430 0.6043 0.4062
H15 H 0.7330 0.6713 0.3054
C19 C 0.39442(11) 0.70918(10) 0.21008(9)
H16 H 0.3568 0.7157 0.2698
C20 C 0.35560(11) 0.62733(10) 0.14059(9)
H17 H 0.2919 0.5796 0.1539
C21 C 0.61303(12) 1.41636(10) 0.24548(9)
H18 H 0.5745 1.4116 0.1807
H19 H 0.6165 1.4952 0.2664
H20 H 0.6923 1.3862 0.2433

#END
