./KABHUS_from_POSCAR.cif_generated_by_CrystalShift
_symmetry_cell_setting triclinic
_symmetry_space_group_name_H-M 'P 1'
loop_
_symmetry_equiv_pos_site_id
_symmetry_equiv_pos_as_xyz
1 x,y,z
_cell_length_a 5.444200
_cell_length_b 10.766500
_cell_length_c 32.216000
_cell_angle_alpha 90.000000
_cell_angle_beta 90.000000
_cell_angle_gamma 90.000000
_cell_volume 1888.340173
loop_
_atom_site_label
_atom_site_type_symbol
_atom_site_fract_x
_atom_site_fract_y
_atom_site_fract_z
H1 H 1.381000 0.639700 0.152800
H2 H 1.449100 0.778200 0.162600
H3 H 1.097300 0.789600 0.206300
H4 H 1.291900 0.693200 0.222900
H5 H 0.466500 -0.205700 0.728800
H6 H 0.880400 0.101200 0.122600
H7 H 0.180500 -0.150800 0.679100
H8 H 0.707200 -0.088700 0.111400
H9 H -0.109300 0.001300 0.692500
H10 H 0.358300 -0.108700 0.069400
H11 H -0.101900 0.104800 0.755400
H12 H 0.201000 0.059400 0.035900
H13 H 0.213100 0.285300 0.020700
H14 H 0.221300 0.511500 0.005700
H15 H 0.569800 0.108400 0.822900
H16 H 0.395100 0.700600 0.015100
H17 H 0.611400 0.184300 0.885800
H18 H 0.738600 0.724300 0.058100
H19 H 0.895700 0.558500 0.093300
H20 H 1.111400 0.315700 0.114200
H21 H 0.395700 -0.058500 0.906700
H22 H 1.069800 0.391600 0.177100
H23 H 0.238600 -0.224300 0.941900
H24 H 0.398100 0.395200 0.244600
H25 H -0.104900 -0.200600 0.984900
H26 H 0.390700 0.498700 0.307500
H27 H -0.278700 -0.011500 0.994300
H28 H 0.680500 0.650800 0.320900
H29 H 0.966500 0.705700 0.271200
H30 H -0.286900 0.214700 0.979300
H31 H 0.119000 0.360300 0.652800
H32 H 0.293400 0.252700 0.638400
H33 H -0.299000 0.440600 0.964100
H34 H 0.050900 0.221800 0.662600
H35 H -0.141700 0.608700 0.930600
H36 H 0.402700 0.210400 0.706300
H37 H 0.207200 0.588700 0.888600
H38 H 0.208100 0.306800 0.722900
H39 H 0.380400 0.398800 0.877400
H40 H 0.619600 0.898800 0.622600
H41 H 0.792800 1.088700 0.611400
H42 H 0.791900 -0.193200 0.777100
H43 H 0.597300 -0.289600 0.793700
H44 H 1.141700 1.108700 0.569400
H45 H 0.949100 -0.278200 0.837400
H46 H 0.706600 -0.247300 0.861600
H47 H 0.881000 -0.139700 0.847200
H48 H 1.299000 0.940600 0.535900
H49 H 1.286900 0.714700 0.520700
H50 H 1.278700 0.488500 0.505700
H51 H 1.104900 0.299400 0.515100
H52 H 0.033500 1.205700 0.228800
H53 H 0.761400 0.275700 0.558100
H54 H 0.319500 1.150800 0.179100
H55 H 0.604300 0.441500 0.593300
H56 H 0.609300 0.998700 0.192500
H57 H 0.388600 0.684300 0.614200
H58 H 0.601900 0.895200 0.255400
H59 H 0.430200 0.608400 0.677100
H60 H 1.101900 0.604800 0.744600
H61 H 1.109300 0.501300 0.807500
H62 H -0.069800 0.891600 0.322900
H63 H 0.819500 0.349200 0.820900
H64 H -0.111400 0.815700 0.385800
H65 H 0.533500 0.294300 0.771200
H66 H -0.381000 1.139700 0.347200
H67 H -0.206600 1.247300 0.361600
H68 H 0.104300 1.058500 0.406700
H69 H -0.449100 1.278200 0.337400
H70 H 0.261400 1.224300 0.441900
H71 H -0.097300 1.289600 0.293700
H72 H 0.604900 1.200600 0.484900
H73 H -0.291900 1.193200 0.277100
H74 H 0.778700 1.011500 0.494300
H75 H 0.119600 0.601200 0.377400
H76 H 0.292800 0.411300 0.388600
H77 H 0.786900 0.785300 0.479300
H78 H 0.641700 0.391300 0.430600
H79 H 0.799000 0.559400 0.464100
H80 H 1.206600 0.747300 0.138400
C81 C 0.568700 0.468700 0.427210
C82 C 0.557400 0.689800 0.441960
C83 C 0.359200 0.481200 0.401340
C84 C 0.651800 0.794100 0.461890
C85 C 0.254400 0.594440 0.394960
C86 C 0.548800 0.911500 0.456400
C87 C 0.348500 0.703120 0.414890
C88 C -0.179900 1.211800 0.299720
C89 C 0.643500 1.019200 0.476890
C90 C 0.539900 1.131800 0.471340
C91 C -0.316400 1.220000 0.340100
C92 C 0.332800 1.146400 0.445010
C93 C 0.238100 1.047310 0.424230
C94 C 0.341800 0.925970 0.429080
C95 C 1.316400 0.720000 0.159900
C96 C 0.355500 -0.082240 0.772490
C97 C 0.644500 0.417760 0.727510
C98 C 0.647000 0.356700 0.765710
C99 C 0.248900 0.822030 0.407730
C100 C 0.819400 0.389500 0.795410
C101 C 0.045900 0.837590 0.377260
C102 C 0.991600 0.481300 0.787630
C103 C 0.071300 0.880360 0.338720
C104 C 0.986500 0.543160 0.749900
C105 C 0.311300 0.911230 0.319490
C106 C 0.811600 0.514770 0.719750
C107 C 0.811300 0.588770 0.680510
C108 C 0.571300 0.619640 0.661280
C109 C 0.311600 0.985230 0.280250
C110 C 0.545900 0.662410 0.622740
C111 C 0.486500 0.956840 0.250100
C112 C 0.748900 0.677970 0.592270
C113 C 0.841800 0.574030 0.570920
C114 C 0.738100 0.452690 0.575770
C115 C 0.491600 1.018700 0.212370
C116 C 0.832800 0.353600 0.554990
C117 C 0.319400 1.110500 0.204590
C118 C 1.039900 0.368200 0.528660
C119 C 0.147000 1.143300 0.234290
C120 C 1.143500 0.480800 0.523110
C121 C 0.144500 1.082240 0.272490
C122 C 1.048800 0.588500 0.543600
C123 C 1.151800 0.705900 0.538110
C124 C 0.353000 -0.143300 0.734290
C125 C 1.057400 0.810200 0.558040
C126 C 1.162900 0.930800 0.553050
C127 C 1.179900 0.711800 0.200280
C128 C 1.068700 1.031300 0.572790
C129 C 0.816400 -0.220000 0.840100
C130 C 0.859200 1.018800 0.598660
C131 C 0.679900 -0.211800 0.799720
C132 C 0.754400 0.905560 0.605040
C133 C 0.151500 0.296880 0.914890
C134 C 0.848500 0.796880 0.585110
C135 C 0.320100 0.288200 0.700280
C136 C 0.245600 0.405560 0.894960
C137 C 0.140800 0.518800 0.901340
C138 C 0.183600 0.280000 0.659900
C139 C -0.068700 0.531300 0.927210
C140 C -0.162900 0.430800 0.946950
C141 C -0.057400 0.310200 0.941960
C142 C 0.651500 0.203120 0.085110
C143 C 0.180600 -0.110500 0.704590
C144 C 0.855500 0.582240 0.227510
C145 C 0.853000 0.643300 0.265710
C146 C -0.151800 0.205900 0.961890
C147 C 0.680600 0.610500 0.295410
C148 C -0.048800 0.088500 0.956400
C149 C 0.508400 0.518700 0.287630
C150 C -0.143500 -0.019200 0.976890
C151 C 0.513500 0.456840 0.249900
C152 C -0.039900 -0.131800 0.971340
C153 C 0.688400 0.485230 0.219750
C154 C 0.688700 0.411230 0.180510
C155 C 0.928700 0.380360 0.161280
C156 C 0.167200 -0.146400 0.945010
C157 C 0.954100 0.337590 0.122740
C158 C 0.261900 -0.047310 0.924230
C159 C 0.751100 0.322030 0.092270
C160 C 0.658200 0.425970 0.070920
C161 C 0.761900 0.547310 0.075770
C162 C 0.158200 0.074030 0.929080
C163 C 0.667200 0.646400 0.054990
C164 C 0.251100 0.177970 0.907730
C165 C 0.460100 0.631800 0.028660
C166 C 0.454100 0.162410 0.877260
C167 C 0.356500 0.519200 0.023110
C168 C 0.428700 0.119640 0.838720
C169 C 0.451200 0.411500 0.043600
C170 C 0.348200 0.294100 0.038110
C171 C 0.188700 0.088770 0.819490
C172 C 0.442600 0.189800 0.058040
C173 C 0.337100 0.069200 0.053050
C174 C 0.188400 0.014770 0.780250
C175 C 0.431300 -0.031300 0.072790
C176 C 0.013500 0.043160 0.750100
C177 C 0.640800 -0.018800 0.098660
C178 C 0.008400 -0.018700 0.712370
C179 C 0.745600 0.094440 0.105040
C180 C 0.662900 0.569200 0.446950
O181 O 0.504400 0.871040 0.333250
O182 O -0.003900 1.113260 0.304750
O183 O 0.496100 0.386740 0.695250
O184 O 1.004400 0.628960 0.666750
O185 O 0.503900 -0.113260 0.804750
O186 O 0.495600 0.371040 0.166750
O187 O 1.003900 0.613260 0.195250
O188 O -0.004400 0.128960 0.833250

#END
