./KABHEC_from_POSCAR.cif_generated_by_CrystalShift
_symmetry_cell_setting triclinic
_symmetry_space_group_name_H-M 'P 1'
loop_
_symmetry_equiv_pos_site_id
_symmetry_equiv_pos_as_xyz
1 x,y,z
_cell_length_a 5.386500
_cell_length_b 8.460900
_cell_length_c 11.330100
_cell_angle_alpha 77.499000
_cell_angle_beta 76.516000
_cell_angle_gamma 89.101000
_cell_volume 489.898100
loop_
_atom_site_label
_atom_site_type_symbol
_atom_site_fract_x
_atom_site_fract_y
_atom_site_fract_z
H1 H 0.428100 0.844100 0.790400
H2 H 1.328500 0.508300 0.630400
H3 H 0.500000 0.268600 -0.157900
H4 H 0.575300 0.142900 -0.242400
H5 H 0.739000 0.304100 -0.270700
H6 H 1.198700 0.458000 0.844000
H7 H 0.842500 0.580500 0.936300
H8 H 0.831900 0.101400 0.047400
H9 H 0.168100 0.898600 0.952600
H10 H 0.157500 0.419500 0.063700
H11 H 0.647300 0.940700 0.417700
H12 H -0.198700 0.542000 0.156000
H13 H 0.934900 0.916500 0.420900
H14 H -0.328500 0.491700 0.369600
H15 H 0.261000 0.695900 1.270700
H16 H -0.104800 0.319700 0.491500
H17 H 0.424700 0.857100 1.242400
H18 H 0.500000 0.731400 1.157900
H19 H 0.352700 0.059300 0.582300
H20 H 0.065100 0.083500 0.579100
H21 H 0.240800 0.232600 0.572500
H22 H 1.104800 0.680300 0.508500
H23 H 0.759200 0.767400 0.427500
H24 H 0.571900 0.155900 0.209600
C25 C 0.805900 0.138900 -0.123030
C26 C 0.194100 0.861100 1.123030
C27 C 0.468000 0.213300 0.161510
C28 C 0.359900 0.779000 1.206000
C29 C 0.234800 0.131100 0.548300
C30 C 0.162600 0.263400 0.350600
C31 C -0.051400 0.338800 0.405300
C32 C -0.185200 0.442300 0.332100
C33 C -0.108400 0.472400 0.204900
C34 C 0.104800 0.398200 0.150000
C35 C 0.895200 0.601800 0.850000
C36 C 0.757300 0.707600 0.779150
C37 C 1.108400 0.527600 0.795100
C38 C 0.532000 0.786700 0.838490
C39 C 1.185200 0.557700 0.667900
C40 C 0.640100 0.221000 -0.206000
C41 C 1.051400 0.661200 0.594700
C42 C 0.242700 0.292400 0.220850
C43 C 0.837400 0.736600 0.649400
C44 C 0.765200 0.868900 0.451700
N45 N 0.478800 0.776800 0.955300
N46 N 0.521200 0.223200 0.044700
N47 N 0.738300 0.145900 -0.001760
N48 N 0.261700 0.854100 1.001760
O49 O 0.998200 0.067900 -0.161410
O50 O 0.697000 0.842400 0.584470
O51 O 0.303000 0.157600 0.415530
O52 O 0.001800 0.932100 1.161410

#END
