./KABJEE_from_POSCAR.cif_generated_by_CrystalShift
_symmetry_cell_setting triclinic
_symmetry_space_group_name_H-M 'P 1'
loop_
_symmetry_equiv_pos_site_id
_symmetry_equiv_pos_as_xyz
1 x,y,z
_cell_length_a 22.884000
_cell_length_b 3.940200
_cell_length_c 13.569600
_cell_angle_alpha 90.000000
_cell_angle_beta 90.000000
_cell_angle_gamma 90.000000
_cell_volume 1223.537407
loop_
_atom_site_label
_atom_site_type_symbol
_atom_site_fract_x
_atom_site_fract_y
_atom_site_fract_z
H1 H 0.726710 1.087490 0.059020
H2 H 0.853280 0.850790 0.442310
H3 H 0.762610 1.062290 0.390430
H4 H 0.886440 0.499490 0.167630
H5 H 0.941140 0.551850 0.417340
H6 H 0.999570 0.189220 0.479610
H7 H 1.084890 -0.041760 0.536240
H8 H 1.161400 -0.148310 0.430000
H9 H 1.151120 -0.028800 0.264870
H10 H 0.991000 0.360000 0.166000
H11 H 0.273290 -0.087490 0.559020
H12 H 0.303800 0.255890 0.588410
H13 H 0.146720 0.149210 0.942310
H14 H 0.237390 -0.062290 0.890430
H15 H 0.113560 0.500510 0.667630
H16 H 0.058860 0.448150 0.917340
H17 H 0.000430 0.810780 0.979610
H18 H -0.084890 1.041760 1.036240
H19 H -0.161400 1.148310 0.930000
H20 H -0.151120 1.028800 0.764870
H21 H 0.491000 0.140000 0.166000
H22 H 0.651120 0.528800 0.264870
H23 H 0.661400 0.648310 0.430000
H24 H 0.584890 0.541760 0.536240
H25 H 0.499570 0.310780 0.479610
H26 H 0.441140 -0.051850 0.417340
H27 H 0.386440 0.000510 0.167630
H28 H 0.262610 -0.562290 0.390430
H29 H 0.353280 -0.350790 0.442310
H30 H 0.196200 -0.244110 0.088410
H31 H 0.226710 -0.587490 0.059020
H32 H 0.009000 0.640000 0.666000
H33 H 0.773290 1.587490 0.559020
H34 H 0.803800 1.244110 0.588410
H35 H 0.646720 1.350790 0.942310
H36 H 0.737390 1.562290 0.890430
H37 H 0.613560 0.999490 0.667630
H38 H 0.558860 1.051850 0.917340
H39 H 0.500430 0.689220 0.979610
H40 H 0.415110 0.458240 1.036240
H41 H 0.338600 0.351690 0.930000
H42 H 0.348880 0.471200 0.764870
H43 H 0.509000 0.860000 0.666000
H44 H 0.696200 0.744110 0.088410
C45 C 0.621070 1.156500 0.812200
C46 C 0.637700 1.111100 0.712200
C47 C 0.690190 1.237200 0.684800
C48 C 0.726880 1.407500 0.750100
C49 C 0.712470 1.452100 0.846800
C50 C 0.658170 1.323400 0.877000
C51 C 0.771800 1.396200 0.603900
C52 C 0.476340 0.737000 0.836300
C53 C 0.469810 0.650600 0.936000
C54 C 0.418900 0.510200 0.969700
C55 C 0.373200 0.444900 0.906400
C56 C 0.379410 0.519100 0.807900
C57 C 0.430260 0.663900 0.771400
C58 C 0.432300 0.735800 0.662300
C59 C 0.567700 0.264200 0.162300
C60 C 0.569740 0.336100 0.271400
C61 C 0.620590 0.480900 0.307900
C62 C 0.626800 0.555100 0.406400
C63 C 0.581100 0.489800 0.469700
C64 C 0.728200 0.896200 0.103900
C65 C 0.841830 0.823400 0.377000
C66 C 0.787530 0.952100 0.346800
C67 C 0.773120 0.907500 0.250100
C68 C -0.067700 0.764200 0.662300
C69 C -0.069740 0.836100 0.771400
C70 C -0.120590 0.980900 0.807900
C71 C -0.126800 1.055100 0.906400
C72 C -0.081100 0.989800 0.969700
C73 C -0.030190 0.849400 0.936000
C74 C -0.023660 0.763000 0.836300
C75 C 0.066520 0.473700 0.850500
C76 C 0.121070 0.343500 0.812200
C77 C 0.137700 0.388900 0.712200
C78 C 0.190190 0.262800 0.684800
C79 C 0.226880 0.092500 0.750100
C80 C 0.212470 0.047900 0.846800
C81 C 0.158170 0.176600 0.877000
C82 C 0.271800 0.103800 0.603900
C83 C 0.809810 0.737200 0.184800
C84 C 0.228200 -0.396200 0.103900
C85 C 0.341830 -0.323400 0.377000
C86 C 0.287530 -0.452100 0.346800
C87 C 0.273120 -0.407500 0.250100
C88 C 0.309810 -0.237200 0.184800
C89 C 0.362300 -0.111100 0.212200
C90 C 0.378930 -0.156500 0.312200
C91 C 0.433480 -0.026300 0.350500
C92 C 0.523660 0.263000 0.336300
C93 C 0.530190 0.349400 0.436000
C94 C 0.862300 0.611100 0.212200
C95 C 0.878930 0.656500 0.312200
C96 C 0.933480 0.526300 0.350500
C97 C 1.023660 0.237000 0.336300
C98 C 1.030190 0.150600 0.436000
C99 C 1.067700 0.235800 0.162300
C100 C 1.069740 0.163900 0.271400
C101 C 1.120590 0.019100 0.307900
C102 C 1.126800 -0.055100 0.406400
C103 C 1.081100 0.010200 0.469700
C104 C 0.566520 1.026300 0.850500
N105 N 0.471830 0.122500 0.296800
N106 N 0.528170 0.877500 0.796800
N107 N 0.971830 0.377500 0.296800
N108 N 0.028170 0.622500 0.796800
O109 O 0.481070 0.866700 0.627000
O110 O 1.018930 0.366700 0.127000
O111 O 0.276500 -0.011000 0.703100
O112 O 0.217060 0.277900 0.593900
O113 O -0.108470 0.830900 0.608200
O114 O 1.108470 0.169100 0.108200
O115 O 0.391530 0.669100 0.608200
O116 O 0.717060 1.222100 0.593900
O117 O 0.776500 1.511000 0.703100
O118 O 0.782940 0.722100 0.093900
O119 O 0.723500 1.011000 0.203100
O120 O 0.223500 -0.511000 0.203100
O121 O 0.282940 -0.222100 0.093900
O122 O 0.608470 0.330900 0.108200
O123 O -0.018930 0.633300 0.627000
O124 O 0.518930 0.133300 0.127000

#END
