
#######################################################################
#
#                 Cambridge Crystallographic Data Centre
#                                CCDC 
#
#######################################################################
#
# If this CIF has been generated from an entry in the Cambridge 
# Structural Database, then it will include bibliographic, chemical, 
# crystal, experimental, refinement or atomic coordinate data resulting 
# from the CCDC's data processing and validation procedures.
#
#######################################################################

data_KABKOP
_symmetry_cell_setting           monoclinic
_symmetry_space_group_name_H-M   'P 21/c'
_symmetry_Int_Tables_number      14
_space_group_name_Hall           '-P 2ybc'
loop_
_symmetry_equiv_pos_site_id
_symmetry_equiv_pos_as_xyz
1 x,y,z
2 -x,1/2+y,1/2-z
3 -x,-y,-z
4 x,1/2-y,1/2+z
_cell_length_a                   5.7347(7)
_cell_length_b                   14.3237(16)
_cell_length_c                   13.7727(16)
_cell_angle_alpha                90
_cell_angle_beta                 101.1100(10)
_cell_angle_gamma                90
_cell_volume                     1110.12
loop_
_atom_site_label
_atom_site_type_symbol
_atom_site_fract_x
_atom_site_fract_y
_atom_site_fract_z
N1 N 0.33241(18) 0.70351(7) 0.16270(7)
C1 C 0.4174(2) 0.69212(8) 0.24446(8)
C2 C 0.52163(19) 0.67936(8) 0.34783(8)
C3 C 0.74719(19) 0.71664(8) 0.38553(8)
H1 H 0.8322 0.7469 0.3438
C4 C 0.84213(19) 0.70792(8) 0.48552(8)
H2 H 0.9911 0.7325 0.5117
C5 C 0.7118(2) 0.66212(8) 0.54586(8)
C6 C 0.4902(2) 0.62391(8) 0.50998(8)
H3 H 0.4072 0.5931 0.5521
C7 C 0.3944(2) 0.63258(8) 0.40994(8)
H4 H 0.2459 0.6073 0.3843
O1 O 0.79952(14) 0.65945(6) 0.64836(6)
C8 C 0.97513(19) 0.59643(8) 0.68019(8)
O2 O 1.04663(14) 0.53999(6) 0.62887(6)
O3 O 1.04148(14) 0.61088(6) 0.77662(5)
C9 C 1.22277(19) 0.54939(8) 0.83729(8)
C10 C 1.2463(2) 0.59433(9) 0.93865(8)
H5 H 1.3021 0.6573 0.9359
H6 H 1.3575 0.5594 0.9860
H7 H 1.0943 0.5947 0.9581
C11 C 1.1255(2) 0.45053(8) 0.83660(9)
H8 H 0.9751 0.4516 0.8574
H9 H 1.2350 0.4123 0.8811
H10 H 1.1050 0.4254 0.7709
C12 C 1.45548(19) 0.55369(8) 0.79966(8)
H11 H 1.4385 0.5204 0.7382
H12 H 1.5798 0.5257 0.8475
H13 H 1.4948 0.6177 0.7896
N1 N 0.66759(18) 0.20351(7) 1.33730(7)
C1 C 0.5826(2) 0.19212(8) 1.25554(8)
C2 C 0.47837(19) 0.17936(8) 1.15217(8)
C3 C 0.25281(19) 0.21664(8) 1.11447(8)
H1 H 0.1678 0.2469 1.1562
C4 C 0.15787(19) 0.20792(8) 1.01448(8)
H2 H 0.0089 0.2325 0.9883
C5 C 0.2882(2) 0.16212(8) 0.95414(8)
C6 C 0.5098(2) 0.12391(8) 0.99002(8)
H3 H 0.5928 0.0931 0.9479
C7 C 0.6056(2) 0.13258(8) 1.09006(8)
H4 H 0.7541 0.1073 1.1157
O1 O 0.20048(14) 0.15945(6) 0.85164(6)
C8 C 0.02487(19) 0.09643(8) 0.81981(8)
O2 O -0.04663(14) 0.03999(6) 0.87113(6)
O3 O -0.04148(14) 0.11088(6) 0.72338(5)
C9 C -0.22277(19) 0.04939(8) 0.66271(8)
C10 C -0.2463(2) 0.09433(9) 0.56135(8)
H5 H -0.3021 0.1573 0.5641
H6 H -0.3575 0.0594 0.5140
H7 H -0.0943 0.0947 0.5419
C11 C -0.1255(2) -0.04947(8) 0.66340(9)
H8 H 0.0249 -0.0484 0.6426
H9 H -0.2350 -0.0877 0.6189
H10 H -0.1050 -0.0746 0.7291
C12 C -0.45548(19) 0.05369(8) 0.70034(8)
H11 H -0.4385 0.0204 0.7618
H12 H -0.5798 0.0257 0.6525
H13 H -0.4948 0.1177 0.7104
N1 N 0.66759(18) 0.29649(7) 0.83730(7)
C1 C 0.5826(2) 0.30788(8) 0.75554(8)
C2 C 0.47837(19) 0.32064(8) 0.65217(8)
C3 C 0.25281(19) 0.28336(8) 0.61447(8)
H1 H 0.1678 0.2531 0.6562
C4 C 0.15787(19) 0.29208(8) 0.51448(8)
H2 H 0.0089 0.2675 0.4883
C5 C 0.2882(2) 0.33788(8) 0.45414(8)
C6 C 0.5098(2) 0.37609(8) 0.49002(8)
H3 H 0.5928 0.4069 0.4479
C7 C 0.6056(2) 0.36742(8) 0.59006(8)
H4 H 0.7541 0.3927 0.6157
O1 O 0.20048(14) 0.34055(6) 0.35164(6)
C8 C 0.02487(19) 0.40357(8) 0.31981(8)
O2 O -0.04663(14) 0.46001(6) 0.37113(6)
O3 O -0.04148(14) 0.38912(6) 0.22338(5)
C9 C -0.22277(19) 0.45061(8) 0.16271(8)
C10 C -0.2463(2) 0.40567(9) 0.06135(8)
H5 H -0.3021 0.3427 0.0641
H6 H -0.3575 0.4406 0.0140
H7 H -0.0943 0.4053 0.0419
C11 C -0.1255(2) 0.54947(8) 0.16340(9)
H8 H 0.0249 0.5484 0.1426
H9 H -0.2350 0.5877 0.1189
H10 H -0.1050 0.5746 0.2291
C12 C -0.45548(19) 0.44631(8) 0.20034(8)
H11 H -0.4385 0.4796 0.2618
H12 H -0.5798 0.4743 0.1525
H13 H -0.4948 0.3823 0.2104
N1 N 0.33241(18) 0.79649(7) -0.33730(7)
C1 C 0.4174(2) 0.80788(8) -0.25554(8)
C2 C 0.52163(19) 0.82064(8) -0.15217(8)
C3 C 0.74719(19) 0.78336(8) -0.11447(8)
H1 H 0.8322 0.7531 -0.1562
C4 C 0.84213(19) 0.79208(8) -0.01448(8)
H2 H 0.9911 0.7675 0.0117
C5 C 0.7118(2) 0.83788(8) 0.04586(8)
C6 C 0.4902(2) 0.87609(8) 0.00998(8)
H3 H 0.4072 0.9069 0.0521
C7 C 0.3944(2) 0.86742(8) -0.09006(8)
H4 H 0.2459 0.8927 -0.1157
O1 O 0.79952(14) 0.84055(6) 0.14836(6)
C8 C 0.97513(19) 0.90357(8) 0.18019(8)
O2 O 1.04663(14) 0.96001(6) 0.12887(6)
O3 O 1.04148(14) 0.88912(6) 0.27662(5)
C9 C 1.22277(19) 0.95061(8) 0.33729(8)
C10 C 1.2463(2) 0.90567(9) 0.43865(8)
H5 H 1.3021 0.8427 0.4359
H6 H 1.3575 0.9406 0.4860
H7 H 1.0943 0.9053 0.4581
C11 C 1.1255(2) 1.04947(8) 0.33660(9)
H8 H 0.9751 1.0484 0.3574
H9 H 1.2350 1.0877 0.3811
H10 H 1.1050 1.0746 0.2709
C12 C 1.45548(19) 0.94631(8) 0.29966(8)
H11 H 1.4385 0.9796 0.2382
H12 H 1.5798 0.9743 0.3475
H13 H 1.4948 0.8823 0.2896

#END
