
#######################################################################
#
#                 Cambridge Crystallographic Data Centre
#                                CCDC 
#
#######################################################################
#
# If this CIF has been generated from an entry in the Cambridge 
# Structural Database, then it will include bibliographic, chemical, 
# crystal, experimental, refinement or atomic coordinate data resulting 
# from the CCDC's data processing and validation procedures.
#
#######################################################################

data_KABLAC
_symmetry_cell_setting           monoclinic
_symmetry_space_group_name_H-M   'C 2/c'
_symmetry_Int_Tables_number      15
_space_group_name_Hall           '-C 2yn'
loop_
_symmetry_equiv_pos_site_id
_symmetry_equiv_pos_as_xyz
1 x,y,z
2 -x,y,1/2-z
3 1/2+x,1/2+y,z
4 1/2-x,1/2+y,1/2-z
5 -x,-y,-z
6 x,-y,1/2+z
7 1/2-x,1/2-y,-z
8 1/2+x,1/2-y,1/2+z
_cell_length_a                   13.804(5)
_cell_length_b                   5.829(2)
_cell_length_c                   22.164(8)
_cell_angle_alpha                90
_cell_angle_beta                 97.989(7)
_cell_angle_gamma                90
_cell_volume                     1766.09
loop_
_atom_site_label
_atom_site_type_symbol
_atom_site_fract_x
_atom_site_fract_y
_atom_site_fract_z
I1 I 0.33988(2) 0.75767(5) 0.089898(12)
F1 F 0.4107(2) 0.9003(5) -0.03751(12)
F2 F 0.5292(2) 0.6993(5) -0.10663(12)
C1 C 0.4356(3) 0.6036(8) 0.0360(2)
C2 C 0.4540(3) 0.6999(7) -0.0181(2)
C3 C 0.5168(3) 0.5980(8) -0.0534(2)
I1D I 0.66012(2) 0.24233(5) -0.089898(12)
F1D F 0.5893(2) 0.0997(5) 0.03751(12)
F2D F 0.4708(2) 0.3007(5) 0.10663(12)
C1D C 0.5644(3) 0.3964(8) -0.0360(2)
C2D C 0.5460(3) 0.3001(7) 0.0181(2)
C3D C 0.4832(3) 0.4020(8) 0.0534(2)
I1 I 0.33988(2) 0.75767(5) 1.089898(12)
F1 F 0.4107(2) 0.9003(5) 0.96249(12)
F2 F 0.5292(2) 0.6993(5) 0.89337(12)
C1 C 0.4356(3) 0.6036(8) 1.0360(2)
C2 C 0.4540(3) 0.6999(7) 0.9819(2)
C3 C 0.5168(3) 0.5980(8) 0.9466(2)
I1D I 0.66012(2) 0.24233(5) 0.910102(12)
F1D F 0.5893(2) 0.0997(5) 1.03751(12)
F2D F 0.4708(2) 0.3007(5) 1.10663(12)
C1D C 0.5644(3) 0.3964(8) 0.9640(2)
C2D C 0.5460(3) 0.3001(7) 1.0181(2)
C3D C 0.4832(3) 0.4020(8) 1.0534(2)
I1 I 0.66012(2) 0.75767(5) 0.410102(12)
F1 F 0.5893(2) 0.9003(5) 0.53751(12)
F2 F 0.4708(2) 0.6993(5) 0.60663(12)
C1 C 0.5644(3) 0.6036(8) 0.4640(2)
C2 C 0.5460(3) 0.6999(7) 0.5181(2)
C3 C 0.4832(3) 0.5980(8) 0.5534(2)
I1D I 0.33988(2) 0.24233(5) 0.589898(12)
F1D F 0.4107(2) 0.0997(5) 0.46249(12)
F2D F 0.5292(2) 0.3007(5) 0.39337(12)
C1D C 0.4356(3) 0.3964(8) 0.5360(2)
C2D C 0.4540(3) 0.3001(7) 0.4819(2)
C3D C 0.5168(3) 0.4020(8) 0.4466(2)
I1 I -0.16012(2) 0.25767(5) 0.089898(12)
F1 F -0.0893(2) 0.4003(5) -0.03751(12)
F2 F 0.0292(2) 0.1993(5) -0.10663(12)
C1 C -0.0644(3) 0.1036(8) 0.0360(2)
C2 C -0.0460(3) 0.1999(7) -0.0181(2)
C3 C 0.0168(3) 0.0980(8) -0.0534(2)
I1D I 0.16012(2) -0.25767(5) -0.089898(12)
F1D F 0.0893(2) -0.4003(5) 0.03751(12)
F2D F -0.0292(2) -0.1993(5) 0.10663(12)
C1D C 0.0644(3) -0.1036(8) -0.0360(2)
C2D C 0.0460(3) -0.1999(7) 0.0181(2)
C3D C -0.0168(3) -0.0980(8) 0.0534(2)
I1 I -0.16012(2) 0.25767(5) 1.089898(12)
F1 F -0.0893(2) 0.4003(5) 0.96249(12)
F2 F 0.0292(2) 0.1993(5) 0.89337(12)
C1 C -0.0644(3) 0.1036(8) 1.0360(2)
C2 C -0.0460(3) 0.1999(7) 0.9819(2)
C3 C 0.0168(3) 0.0980(8) 0.9466(2)
I1D I 0.16012(2) -0.25767(5) 0.910102(12)
F1D F 0.0893(2) -0.4003(5) 1.03751(12)
F2D F -0.0292(2) -0.1993(5) 1.10663(12)
C1D C 0.0644(3) -0.1036(8) 0.9640(2)
C2D C 0.0460(3) -0.1999(7) 1.0181(2)
C3D C -0.0168(3) -0.0980(8) 1.0534(2)
I1 I -0.16012(2) 1.25767(5) 0.089898(12)
F1 F -0.0893(2) 1.4003(5) -0.03751(12)
F2 F 0.0292(2) 1.1993(5) -0.10663(12)
C1 C -0.0644(3) 1.1036(8) 0.0360(2)
C2 C -0.0460(3) 1.1999(7) -0.0181(2)
C3 C 0.0168(3) 1.0980(8) -0.0534(2)
I1D I 0.16012(2) 0.74233(5) -0.089898(12)
F1D F 0.0893(2) 0.5997(5) 0.03751(12)
F2D F -0.0292(2) 0.8007(5) 0.10663(12)
C1D C 0.0644(3) 0.8964(8) -0.0360(2)
C2D C 0.0460(3) 0.8001(7) 0.0181(2)
C3D C -0.0168(3) 0.9020(8) 0.0534(2)
I1 I -0.16012(2) 1.25767(5) 1.089898(12)
F1 F -0.0893(2) 1.4003(5) 0.96249(12)
F2 F 0.0292(2) 1.1993(5) 0.89337(12)
C1 C -0.0644(3) 1.1036(8) 1.0360(2)
C2 C -0.0460(3) 1.1999(7) 0.9819(2)
C3 C 0.0168(3) 1.0980(8) 0.9466(2)
I1D I 0.16012(2) 0.74233(5) 0.910102(12)
F1D F 0.0893(2) 0.5997(5) 1.03751(12)
F2D F -0.0292(2) 0.8007(5) 1.10663(12)
C1D C 0.0644(3) 0.8964(8) 0.9640(2)
C2D C 0.0460(3) 0.8001(7) 1.0181(2)
C3D C -0.0168(3) 0.9020(8) 1.0534(2)
I1 I 0.83988(2) 0.25767(5) 0.089898(12)
F1 F 0.9107(2) 0.4003(5) -0.03751(12)
F2 F 1.0292(2) 0.1993(5) -0.10663(12)
C1 C 0.9356(3) 0.1036(8) 0.0360(2)
C2 C 0.9540(3) 0.1999(7) -0.0181(2)
C3 C 1.0168(3) 0.0980(8) -0.0534(2)
I1D I 1.16012(2) -0.25767(5) -0.089898(12)
F1D F 1.0893(2) -0.4003(5) 0.03751(12)
F2D F 0.9708(2) -0.1993(5) 0.10663(12)
C1D C 1.0644(3) -0.1036(8) -0.0360(2)
C2D C 1.0460(3) -0.1999(7) 0.0181(2)
C3D C 0.9832(3) -0.0980(8) 0.0534(2)
I1 I 0.83988(2) 0.25767(5) 1.089898(12)
F1 F 0.9107(2) 0.4003(5) 0.96249(12)
F2 F 1.0292(2) 0.1993(5) 0.89337(12)
C1 C 0.9356(3) 0.1036(8) 1.0360(2)
C2 C 0.9540(3) 0.1999(7) 0.9819(2)
C3 C 1.0168(3) 0.0980(8) 0.9466(2)
I1D I 1.16012(2) -0.25767(5) 0.910102(12)
F1D F 1.0893(2) -0.4003(5) 1.03751(12)
F2D F 0.9708(2) -0.1993(5) 1.10663(12)
C1D C 1.0644(3) -0.1036(8) 0.9640(2)
C2D C 1.0460(3) -0.1999(7) 1.0181(2)
C3D C 0.9832(3) -0.0980(8) 1.0534(2)
I1 I 0.83988(2) 1.25767(5) 0.089898(12)
F1 F 0.9107(2) 1.4003(5) -0.03751(12)
F2 F 1.0292(2) 1.1993(5) -0.10663(12)
C1 C 0.9356(3) 1.1036(8) 0.0360(2)
C2 C 0.9540(3) 1.1999(7) -0.0181(2)
C3 C 1.0168(3) 1.0980(8) -0.0534(2)
I1D I 1.16012(2) 0.74233(5) -0.089898(12)
F1D F 1.0893(2) 0.5997(5) 0.03751(12)
F2D F 0.9708(2) 0.8007(5) 0.10663(12)
C1D C 1.0644(3) 0.8964(8) -0.0360(2)
C2D C 1.0460(3) 0.8001(7) 0.0181(2)
C3D C 0.9832(3) 0.9020(8) 0.0534(2)
I1 I 0.83988(2) 1.25767(5) 1.089898(12)
F1 F 0.9107(2) 1.4003(5) 0.96249(12)
F2 F 1.0292(2) 1.1993(5) 0.89337(12)
C1 C 0.9356(3) 1.1036(8) 1.0360(2)
C2 C 0.9540(3) 1.1999(7) 0.9819(2)
C3 C 1.0168(3) 1.0980(8) 0.9466(2)
I1D I 1.16012(2) 0.74233(5) 0.910102(12)
F1D F 1.0893(2) 0.5997(5) 1.03751(12)
F2D F 0.9708(2) 0.8007(5) 1.10663(12)
C1D C 1.0644(3) 0.8964(8) 0.9640(2)
C2D C 1.0460(3) 0.8001(7) 1.0181(2)
C3D C 0.9832(3) 0.9020(8) 1.0534(2)
I1 I 0.16012(2) 0.25767(5) 0.410102(12)
F1 F 0.0893(2) 0.4003(5) 0.53751(12)
F2 F -0.0292(2) 0.1993(5) 0.60663(12)
C1 C 0.0644(3) 0.1036(8) 0.4640(2)
C2 C 0.0460(3) 0.1999(7) 0.5181(2)
C3 C -0.0168(3) 0.0980(8) 0.5534(2)
I1D I -0.16012(2) -0.25767(5) 0.589898(12)
F1D F -0.0893(2) -0.4003(5) 0.46249(12)
F2D F 0.0292(2) -0.1993(5) 0.39337(12)
C1D C -0.0644(3) -0.1036(8) 0.5360(2)
C2D C -0.0460(3) -0.1999(7) 0.4819(2)
C3D C 0.0168(3) -0.0980(8) 0.4466(2)
I1 I 0.16012(2) 1.25767(5) 0.410102(12)
F1 F 0.0893(2) 1.4003(5) 0.53751(12)
F2 F -0.0292(2) 1.1993(5) 0.60663(12)
C1 C 0.0644(3) 1.1036(8) 0.4640(2)
C2 C 0.0460(3) 1.1999(7) 0.5181(2)
C3 C -0.0168(3) 1.0980(8) 0.5534(2)
I1D I -0.16012(2) 0.74233(5) 0.589898(12)
F1D F -0.0893(2) 0.5997(5) 0.46249(12)
F2D F 0.0292(2) 0.8007(5) 0.39337(12)
C1D C -0.0644(3) 0.8964(8) 0.5360(2)
C2D C -0.0460(3) 0.8001(7) 0.4819(2)
C3D C 0.0168(3) 0.9020(8) 0.4466(2)
I1 I 1.16012(2) 0.25767(5) 0.410102(12)
F1 F 1.0893(2) 0.4003(5) 0.53751(12)
F2 F 0.9708(2) 0.1993(5) 0.60663(12)
C1 C 1.0644(3) 0.1036(8) 0.4640(2)
C2 C 1.0460(3) 0.1999(7) 0.5181(2)
C3 C 0.9832(3) 0.0980(8) 0.5534(2)
I1D I 0.83988(2) -0.25767(5) 0.589898(12)
F1D F 0.9107(2) -0.4003(5) 0.46249(12)
F2D F 1.0292(2) -0.1993(5) 0.39337(12)
C1D C 0.9356(3) -0.1036(8) 0.5360(2)
C2D C 0.9540(3) -0.1999(7) 0.4819(2)
C3D C 1.0168(3) -0.0980(8) 0.4466(2)
I1 I 1.16012(2) 1.25767(5) 0.410102(12)
F1 F 1.0893(2) 1.4003(5) 0.53751(12)
F2 F 0.9708(2) 1.1993(5) 0.60663(12)
C1 C 1.0644(3) 1.1036(8) 0.4640(2)
C2 C 1.0460(3) 1.1999(7) 0.5181(2)
C3 C 0.9832(3) 1.0980(8) 0.5534(2)
I1D I 0.83988(2) 0.74233(5) 0.589898(12)
F1D F 0.9107(2) 0.5997(5) 0.46249(12)
F2D F 1.0292(2) 0.8007(5) 0.39337(12)
C1D C 0.9356(3) 0.8964(8) 0.5360(2)
C2D C 0.9540(3) 0.8001(7) 0.4819(2)
C3D C 1.0168(3) 0.9020(8) 0.4466(2)
S1 S 0.0000 0.4266(3) 0.2500
N1 N 0.2103(3) -0.0202(7) 0.15987(18)
C4 C 0.1787(3) 0.1842(9) 0.1379(2)
H1 H 0.2032 0.2404 0.1028
C5 C 0.1121(3) 0.3192(8) 0.1635(2)
H2 H 0.0905 0.4616 0.1455
C6 C 0.0779(3) 0.2417(8) 0.2158(2)
C7 C 0.1112(3) 0.0326(8) 0.2401(2)
H3 H 0.0900 -0.0242 0.2763
C8 C 0.1762(3) -0.0926(8) 0.2104(2)
H4 H 0.1977 -0.2373 0.2268
N1A N -0.2103(3) -0.0202(7) 0.34013(18)
C4A C -0.1787(3) 0.1842(9) 0.3621(2)
H1A H -0.2032 0.2404 0.3972
C5A C -0.1121(3) 0.3192(8) 0.3365(2)
H2A H -0.0905 0.4616 0.3545
C6A C -0.0779(3) 0.2417(8) 0.2842(2)
C7A C -0.1112(3) 0.0326(8) 0.2599(2)
H3A H -0.0900 -0.0242 0.2237
C8A C -0.1762(3) -0.0926(8) 0.2896(2)
H4A H -0.1977 -0.2373 0.2732
S1 S 1.0000 0.4266(3) 0.2500
N1 N 1.2103(3) -0.0202(7) 0.15987(18)
C4 C 1.1787(3) 0.1842(9) 0.1379(2)
H1 H 1.2032 0.2404 0.1028
C5 C 1.1121(3) 0.3192(8) 0.1635(2)
H2 H 1.0905 0.4616 0.1455
C6 C 1.0779(3) 0.2417(8) 0.2158(2)
C7 C 1.1112(3) 0.0326(8) 0.2401(2)
H3 H 1.0900 -0.0242 0.2763
C8 C 1.1762(3) -0.0926(8) 0.2104(2)
H4 H 1.1977 -0.2373 0.2268
N1A N 0.7897(3) -0.0202(7) 0.34013(18)
C4A C 0.8213(3) 0.1842(9) 0.3621(2)
H1A H 0.7968 0.2404 0.3972
C5A C 0.8879(3) 0.3192(8) 0.3365(2)
H2A H 0.9095 0.4616 0.3545
C6A C 0.9221(3) 0.2417(8) 0.2842(2)
C7A C 0.8888(3) 0.0326(8) 0.2599(2)
H3A H 0.9100 -0.0242 0.2237
C8A C 0.8238(3) -0.0926(8) 0.2896(2)
H4A H 0.8023 -0.2373 0.2732
S1 S 0.5000 0.9266(3) 0.2500
N1 N 0.7103(3) 0.4798(7) 0.15987(18)
C4 C 0.6787(3) 0.6842(9) 0.1379(2)
H1 H 0.7032 0.7404 0.1028
C5 C 0.6121(3) 0.8192(8) 0.1635(2)
H2 H 0.5905 0.9616 0.1455
C6 C 0.5779(3) 0.7417(8) 0.2158(2)
C7 C 0.6112(3) 0.5326(8) 0.2401(2)
H3 H 0.5900 0.4758 0.2763
C8 C 0.6762(3) 0.4074(8) 0.2104(2)
H4 H 0.6977 0.2627 0.2268
N1A N 0.2897(3) 0.4798(7) 0.34013(18)
C4A C 0.3213(3) 0.6842(9) 0.3621(2)
H1A H 0.2968 0.7404 0.3972
C5A C 0.3879(3) 0.8192(8) 0.3365(2)
H2A H 0.4095 0.9616 0.3545
C6A C 0.4221(3) 0.7417(8) 0.2842(2)
C7A C 0.3888(3) 0.5326(8) 0.2599(2)
H3A H 0.4100 0.4758 0.2237
C8A C 0.3238(3) 0.4074(8) 0.2896(2)
H4A H 0.3023 0.2627 0.2732
S1 S 0.0000 0.5734(3) 0.7500
N1 N -0.2103(3) 1.0202(7) 0.84013(18)
C4 C -0.1787(3) 0.8158(9) 0.8621(2)
H1 H -0.2032 0.7596 0.8972
C5 C -0.1121(3) 0.6808(8) 0.8365(2)
H2 H -0.0905 0.5384 0.8545
C6 C -0.0779(3) 0.7583(8) 0.7842(2)
C7 C -0.1112(3) 0.9674(8) 0.7599(2)
H3 H -0.0900 1.0242 0.7237
C8 C -0.1762(3) 1.0926(8) 0.7896(2)
H4 H -0.1977 1.2373 0.7732
N1A N 0.2103(3) 1.0202(7) 0.65987(18)
C4A C 0.1787(3) 0.8158(9) 0.6379(2)
H1A H 0.2032 0.7596 0.6028
C5A C 0.1121(3) 0.6808(8) 0.6635(2)
H2A H 0.0905 0.5384 0.6455
C6A C 0.0779(3) 0.7583(8) 0.7158(2)
C7A C 0.1112(3) 0.9674(8) 0.7401(2)
H3A H 0.0900 1.0242 0.7763
C8A C 0.1762(3) 1.0926(8) 0.7104(2)
H4A H 0.1977 1.2373 0.7268
S1 S 1.0000 0.5734(3) 0.7500
N1 N 0.7897(3) 1.0202(7) 0.84013(18)
C4 C 0.8213(3) 0.8158(9) 0.8621(2)
H1 H 0.7968 0.7596 0.8972
C5 C 0.8879(3) 0.6808(8) 0.8365(2)
H2 H 0.9095 0.5384 0.8545
C6 C 0.9221(3) 0.7583(8) 0.7842(2)
C7 C 0.8888(3) 0.9674(8) 0.7599(2)
H3 H 0.9100 1.0242 0.7237
C8 C 0.8238(3) 1.0926(8) 0.7896(2)
H4 H 0.8023 1.2373 0.7732
N1A N 1.2103(3) 1.0202(7) 0.65987(18)
C4A C 1.1787(3) 0.8158(9) 0.6379(2)
H1A H 1.2032 0.7596 0.6028
C5A C 1.1121(3) 0.6808(8) 0.6635(2)
H2A H 1.0905 0.5384 0.6455
C6A C 1.0779(3) 0.7583(8) 0.7158(2)
C7A C 1.1112(3) 0.9674(8) 0.7401(2)
H3A H 1.0900 1.0242 0.7763
C8A C 1.1762(3) 1.0926(8) 0.7104(2)
H4A H 1.1977 1.2373 0.7268
S1 S 0.5000 0.0734(3) 0.7500
N1 N 0.2897(3) 0.5202(7) 0.84013(18)
C4 C 0.3213(3) 0.3158(9) 0.8621(2)
H1 H 0.2968 0.2596 0.8972
C5 C 0.3879(3) 0.1808(8) 0.8365(2)
H2 H 0.4095 0.0384 0.8545
C6 C 0.4221(3) 0.2583(8) 0.7842(2)
C7 C 0.3888(3) 0.4674(8) 0.7599(2)
H3 H 0.4100 0.5242 0.7237
C8 C 0.3238(3) 0.5926(8) 0.7896(2)
H4 H 0.3023 0.7373 0.7732
N1A N 0.7103(3) 0.5202(7) 0.65987(18)
C4A C 0.6787(3) 0.3158(9) 0.6379(2)
H1A H 0.7032 0.2596 0.6028
C5A C 0.6121(3) 0.1808(8) 0.6635(2)
H2A H 0.5905 0.0384 0.6455
C6A C 0.5779(3) 0.2583(8) 0.7158(2)
C7A C 0.6112(3) 0.4674(8) 0.7401(2)
H3A H 0.5900 0.5242 0.7763
C8A C 0.6762(3) 0.5926(8) 0.7104(2)
H4A H 0.6977 0.7373 0.7268

#END
