./KABLAA_from_POSCAR.cif_generated_by_CrystalShift
_symmetry_cell_setting triclinic
_symmetry_space_group_name_H-M 'P 1'
loop_
_symmetry_equiv_pos_site_id
_symmetry_equiv_pos_as_xyz
1 x,y,z
_cell_length_a 16.806000
_cell_length_b 16.880000
_cell_length_c 7.421000
_cell_angle_alpha 90.000000
_cell_angle_beta 90.000000
_cell_angle_gamma 90.000000
_cell_volume 2105.228463
loop_
_atom_site_label
_atom_site_type_symbol
_atom_site_fract_x
_atom_site_fract_y
_atom_site_fract_z
H1 H 1.116800 1.043100 0.743100
H2 H 0.731700 1.224800 0.839100
H3 H 0.465500 1.161700 0.683300
H4 H 0.400900 1.044400 0.591100
H5 H 0.616800 0.456900 0.256900
H6 H 0.685300 0.522300 0.210200
H7 H 0.705400 0.448600 0.345200
H8 H 0.605000 0.513600 0.548500
H9 H 0.673600 0.577900 0.495200
H10 H 0.532900 0.754400 0.456100
H11 H 1.185300 0.977700 0.789800
H12 H 0.623000 0.732100 0.521100
H13 H 0.609400 0.786700 0.342000
H14 H 0.566400 0.680400 0.177600
H15 H 0.655200 0.664700 0.259700
H16 H 0.234000 0.830500 0.237600
H17 H 0.222400 0.809800 0.024300
H18 H 1.205400 1.051400 0.654800
H19 H 0.181400 0.753600 0.177500
H20 H 1.105000 0.986400 0.451500
H21 H 0.241600 0.645800 0.227000
H22 H 1.173600 0.922100 0.504800
H23 H 0.453000 0.685600 0.260000
H24 H 0.501300 0.461700 0.469800
H25 H 0.365800 0.430100 0.449800
H26 H 0.115000 0.572500 0.434700
H27 H -0.025000 0.572200 0.479100
H28 H -0.099100 0.455600 0.408900
H29 H 1.032900 0.745600 0.543900
H30 H -0.034500 0.338300 0.316700
H31 H 1.123000 0.767900 0.478900
H32 H 0.695600 -0.110400 0.282200
H33 H 0.768300 -0.224800 0.339100
H34 H 1.034500 -0.161700 0.183300
H35 H 1.099100 -0.044400 0.091100
H36 H 1.025000 0.072200 0.020900
H37 H 0.885000 0.072500 0.065300
H38 H 0.634200 -0.069900 0.050200
H39 H 0.498700 -0.038300 0.030200
H40 H 0.547000 0.185600 0.240000
H41 H 0.758400 0.145800 0.273000
H42 H 0.818600 0.253600 0.322500
H43 H 0.777600 0.309800 0.475700
H44 H 0.766000 0.330500 0.262400
H45 H 0.344800 0.164700 0.240300
H46 H 0.433600 0.180400 0.322400
H47 H 0.390600 0.286700 0.158000
H48 H 0.377000 0.232100 -0.021100
H49 H 0.467100 0.254400 0.043900
H50 H 0.326400 0.077900 0.004800
H51 H 0.395000 0.013600 -0.048500
H52 H 0.294600 -0.051400 0.154800
H53 H 0.314700 0.022300 0.289800
H54 H 0.383200 -0.043100 0.243100
H55 H 0.231700 0.275200 0.160900
H56 H 0.304400 0.389600 0.217800
H57 H 0.475000 0.927800 0.520900
H58 H 0.615000 0.927500 0.565300
H59 H 0.865800 1.069900 0.550200
H60 H 1.001300 1.038300 0.530200
H61 H 0.953000 0.814400 0.740000
H62 H 0.741600 0.854200 0.773000
H63 H -0.116800 0.543100 0.756900
H64 H -0.185300 0.477700 0.710200
H65 H 1.109400 0.713300 0.658000
H66 H -0.205400 0.551400 0.845200
H67 H -0.105000 0.486400 1.048500
H68 H -0.173600 0.422100 0.995200
H69 H -0.032900 0.245600 0.956100
H70 H -0.123000 0.267900 1.021100
H71 H -0.109400 0.213300 0.842000
H72 H 1.066400 0.819600 0.822400
H73 H -0.066400 0.319600 0.677600
H74 H 1.155200 0.835300 0.740300
H75 H -0.155200 0.335300 0.759700
H76 H 0.734000 0.669500 0.762400
H77 H 0.266000 0.169500 0.737600
H78 H 0.277600 0.190200 0.524300
H79 H 0.318600 0.246400 0.677500
H80 H 0.258400 0.354200 0.727000
H81 H 0.047000 0.314400 0.760000
H82 H -0.001300 0.538300 0.969800
H83 H 0.722400 0.690200 0.975700
H84 H 0.134200 0.569900 0.949800
H85 H 0.681400 0.746400 0.822500
H86 H 0.195600 0.610400 0.717800
H87 H 0.268300 0.724800 0.660900
H88 H 0.534500 0.661700 0.816700
H89 H 0.599100 0.544400 0.908900
H90 H 0.525000 0.427800 0.979100
H91 H 0.385000 0.427500 0.934700
H92 H 0.804400 1.110400 0.782200
C93 C 0.484000 0.786600 0.845700
C94 C 0.408300 0.763500 0.776600
C95 C -0.163400 0.513200 0.805900
C96 C -0.129400 0.455600 0.947500
C97 C -0.088000 0.258500 0.914300
C98 C -0.097500 0.329600 0.790200
C99 C 0.271100 0.213300 0.647500
C100 C 0.195400 0.253100 0.699000
C101 C 0.145500 0.385200 0.796600
C102 C 0.065400 0.367700 0.801000
C103 C 0.009600 0.422900 0.861500
C104 C 0.037400 0.498800 0.920400
C105 C 0.116200 0.516300 0.909700
C106 C 0.173400 0.462700 0.845700
C107 C 0.376100 0.545200 0.852500
C108 C 0.416200 0.476800 0.909800
C109 C 0.210200 0.457900 0.319200
C110 C 0.246400 0.388500 0.247600
C111 C 0.205000 0.320700 0.222800
C112 C 0.123400 0.312100 0.274600
C113 C 0.080800 0.384200 0.325200
C114 C -0.002500 0.386700 0.344300
C115 C -0.039900 0.455600 0.396800
C116 C 0.002500 0.523500 0.434700
C117 C 0.083800 0.523200 0.409800
C118 C 0.123900 0.454800 0.352500
C119 C 0.497500 0.476500 0.934700
C120 C 0.326600 0.537300 0.345700
C121 C 0.383800 0.483700 0.409700
C122 C 0.462600 0.501200 0.420400
C123 C 0.490400 0.577100 0.361500
C124 C 0.434600 0.632300 0.301000
C125 C 0.354500 0.614800 0.296600
C126 C 0.539900 0.544400 0.896800
C127 C 0.304600 0.746900 0.199000
C128 C 0.502500 0.613300 0.844300
C129 C 0.228900 0.786700 0.147500
C130 C 0.419200 0.615800 0.825200
C131 C 0.597500 0.670400 0.290200
C132 C 0.588000 0.741500 0.414300
C133 C 0.629400 0.544400 0.447500
C134 C 0.663400 0.486800 0.305900
C135 C 0.091700 0.236500 0.276600
C136 C 0.016000 0.213400 0.345700
C137 C 0.376600 0.687900 0.774600
C138 C 0.139500 0.170300 0.225600
C139 C 0.295000 0.679300 0.722800
C140 C 0.253600 0.611500 0.747600
C141 C 0.289800 0.542100 0.819200
C142 C 0.860500 -0.329700 0.274400
C143 C 0.984000 -0.286600 0.154300
C144 C 0.908300 -0.263500 0.223400
C145 C 0.336600 -0.013200 0.194100
C146 C 0.370600 0.044400 0.052500
C147 C 0.412000 0.241500 0.085700
C148 C 0.402500 0.170400 0.209800
C149 C 0.771100 0.286700 0.352500
C150 C 0.695400 0.246900 0.301000
C151 C 0.645500 0.114800 0.203400
C152 C 0.565400 0.132300 0.199000
C153 C 0.509600 0.077100 0.138500
C154 C 0.537400 0.001200 0.079600
C155 C 0.616200 -0.016300 0.090300
C156 C 0.673400 0.037300 0.154300
C157 C 0.876100 -0.045200 0.147500
C158 C 0.916200 0.023200 0.090200
C159 C 0.997500 0.023500 0.065300
C160 C 1.039900 -0.044400 0.103200
C161 C 1.002500 -0.113300 0.155700
C162 C 0.919200 -0.115800 0.174800
C163 C 0.710200 1.042100 0.680800
C164 C 0.746400 1.111500 0.752400
C165 C 0.705000 1.179300 0.777200
C166 C 0.623400 1.187900 0.725400
C167 C 0.580800 1.115800 0.674800
C168 C 0.497500 1.113300 0.655700
C169 C 0.460100 1.044400 0.603200
C170 C 0.502500 0.976500 0.565300
C171 C 0.583800 0.976800 0.590200
C172 C 0.623900 1.045200 0.647500
C173 C 0.876600 -0.187900 0.225400
C174 C 0.826600 0.962700 0.654300
C175 C 0.883800 1.016300 0.590300
C176 C 0.962600 0.998800 0.579600
C177 C 0.990400 0.922900 0.638500
C178 C 0.934600 0.867700 0.699000
C179 C 0.854500 0.885200 0.703400
C180 C 0.795000 -0.179300 0.277200
C181 C 0.804600 0.753100 0.801000
C182 C 0.753600 -0.111500 0.252400
C183 C 0.728900 0.713300 0.852500
C184 C 0.360500 0.829700 0.725600
C185 C 1.097500 0.829600 0.709800
C186 C 1.088000 0.758500 0.585700
C187 C 1.129400 0.955600 0.552500
C188 C 1.163400 1.013200 0.694100
C189 C 0.591700 1.263500 0.723400
C190 C 0.516000 1.286600 0.654300
C191 C 0.639500 1.329700 0.774400
C192 C 0.789800 -0.042100 0.180800
N193 N 0.677700 1.381600 0.813400
N194 N 1.068800 0.903600 0.632400
N195 N 0.753800 0.026800 0.159500
N196 N 0.796500 0.832000 0.759700
N197 N 0.746200 0.973200 0.659500
N198 N 0.177700 0.118400 0.186600
N199 N -0.043300 0.190700 0.397800
N200 N 0.568800 0.596400 0.367600
N201 N 0.703500 0.168000 0.259700
N202 N 0.296500 0.668000 0.240300
N203 N 0.246200 0.526800 0.340500
N204 N 0.322300 0.881600 0.686600
N205 N 0.543300 0.809300 0.897800
N206 N -0.068800 0.403600 0.867600
N207 N 0.431200 0.096400 0.132400
N208 N 0.203500 0.332000 0.740300
N209 N 0.253800 0.473200 0.840500
N210 N 0.822300 -0.381600 0.313400
N211 N 1.043300 -0.309300 0.102200
N212 N 0.456700 1.309300 0.602200
O213 O 0.366900 0.781900 0.205000
O214 O 0.866900 0.718100 0.795000
O215 O 0.633100 0.281900 0.295000
O216 O 0.133100 0.218100 0.705000

#END
