./KABMOR_from_POSCAR.cif_generated_by_CrystalShift
_symmetry_cell_setting triclinic
_symmetry_space_group_name_H-M 'P 1'
loop_
_symmetry_equiv_pos_site_id
_symmetry_equiv_pos_as_xyz
1 x,y,z
_cell_length_a 9.774400
_cell_length_b 7.316300
_cell_length_c 28.276100
_cell_angle_alpha 90.000000
_cell_angle_beta 90.796000
_cell_angle_gamma 90.000000
_cell_volume 2021.897842
loop_
_atom_site_label
_atom_site_type_symbol
_atom_site_fract_x
_atom_site_fract_y
_atom_site_fract_z
H1 H 0.390300 0.562900 0.852900
H2 H 0.393500 0.348700 0.854300
H3 H -0.063900 0.402400 0.876100
H4 H 0.868100 0.333000 0.532000
H5 H -0.249400 0.489000 0.830600
H6 H 0.560700 0.230500 0.491800
H7 H -0.220300 0.657400 0.762600
H8 H 0.634700 0.135000 0.407500
H9 H 0.594800 -0.021000 0.436000
H10 H -0.002000 0.715300 0.736500
H11 H 0.182400 0.626400 0.781700
H12 H 0.123900 0.121800 1.044800
H13 H 0.119700 0.313100 1.058400
H14 H 0.449600 0.439300 0.576700
H15 H 0.080200 0.384000 0.984900
H16 H 0.263100 0.494400 0.624100
H17 H 0.364200 0.358700 0.925400
H18 H 0.292600 0.532600 0.704500
H19 H 0.609700 1.062900 0.647100
H20 H 0.509300 0.504900 0.738100
H21 H 0.663200 0.950200 0.690700
H22 H 0.696300 0.457100 0.689700
H23 H 0.606500 0.848700 0.645700
H24 H 0.904300 0.339300 0.619800
H25 H 0.851700 0.523000 0.641600
H26 H 0.901500 0.517800 0.589100
H27 H 1.063900 0.902400 0.623900
H28 H 1.249400 0.989000 0.669400
H29 H 1.220300 1.157400 0.737400
H30 H 0.131900 0.833000 0.968000
H31 H 1.002000 1.215300 0.763500
H32 H 0.439300 0.730500 1.008200
H33 H 0.817600 1.126400 0.718300
H34 H 0.365300 0.635000 1.092500
H35 H 0.405200 0.479000 1.064000
H36 H 0.876100 0.621800 0.455200
H37 H 0.880300 0.813100 0.441600
H38 H 0.919800 0.884000 0.515100
H39 H 0.635800 0.858700 0.574600
H40 H 0.550400 0.939300 0.923300
H41 H 0.609700 0.437100 0.147100
H42 H 0.736900 0.994400 0.875900
H43 H 0.663200 0.549800 0.190700
H44 H 0.707400 1.032600 0.795500
H45 H 0.606500 0.651300 0.145700
H46 H 0.490700 1.004900 0.761900
H47 H 1.063900 0.597600 0.123900
H48 H 0.303700 0.957100 0.810300
H49 H 1.249400 0.511000 0.169400
H50 H 0.095700 0.839300 0.880200
H51 H 0.148300 1.023000 0.858400
H52 H 0.098500 1.017800 0.910900
H53 H 1.220300 0.342600 0.237400
H54 H 1.002000 0.284700 0.263500
H55 H 0.817600 0.373600 0.218300
H56 H 0.131900 0.667000 0.468000
H57 H 0.876100 0.878200 -0.044800
H58 H 0.439300 0.769500 0.508200
H59 H 0.880300 0.686900 -0.058400
H60 H 0.365300 0.865000 0.592500
H61 H 0.405200 1.021000 0.564000
H62 H 0.919800 0.616000 0.015100
H63 H 0.635800 0.641300 0.074600
H64 H 0.390300 -0.062900 0.352900
H65 H 0.336800 0.049800 0.309300
H66 H 0.550400 0.560700 0.423300
H67 H 0.393500 0.151300 0.354300
H68 H 0.736900 0.505600 0.375900
H69 H -0.063900 0.097600 0.376100
H70 H 0.707400 0.467400 0.295500
H71 H -0.249400 0.011000 0.330600
H72 H 0.490700 0.495100 0.261900
H73 H -0.220300 -0.157400 0.262600
H74 H 0.303700 0.542900 0.310300
H75 H -0.002000 -0.215300 0.236500
H76 H 0.095700 0.660700 0.380200
H77 H 0.148300 0.477000 0.358400
H78 H 0.098500 0.482200 0.410900
H79 H 0.182400 -0.126400 0.281700
H80 H 0.123900 0.378200 0.544800
H81 H 0.119700 0.186900 0.558400
H82 H 0.868100 0.167000 0.032000
H83 H 0.080200 0.116000 0.484900
H84 H 0.560700 0.269500 -0.008200
H85 H 0.364200 0.141300 0.425400
H86 H 0.634700 0.365000 -0.092500
H87 H 0.594800 0.521000 -0.064000
H88 H 0.901500 -0.017800 0.089100
H89 H 0.851700 -0.023000 0.141600
H90 H 0.904300 0.160700 0.119800
H91 H 0.696300 0.042900 0.189700
H92 H 0.449600 0.060700 0.076700
H93 H 0.509300 -0.004900 0.238100
H94 H 0.263100 0.005600 0.124100
H95 H 0.292600 -0.032600 0.204500
H96 H 0.336800 0.450200 0.809300
C97 C 0.496800 0.006000 0.205500
C98 C 0.350200 0.013200 0.137600
C99 C 0.609100 0.037200 0.176160
C100 C 0.462600 0.046700 0.109130
C101 C 0.855400 0.049500 0.113300
C102 C 0.594300 0.059400 0.128390
C103 C 0.711100 0.094600 0.096620
C104 C 0.753900 0.275800 -0.016760
C105 C 0.343400 0.453500 0.843180
C106 C -0.050500 0.465500 0.848020
C107 C -0.161600 0.519200 0.820970
C108 C -0.144600 0.616800 0.779950
C109 C 0.753900 0.224200 0.483240
C110 C -0.015400 0.653700 0.764860
C111 C 0.711100 0.405400 0.596620
C112 C 0.095100 0.598400 0.792120
C113 C 0.083300 0.505200 0.833450
C114 C 0.255700 0.201400 0.480270
C115 C 0.202300 0.048200 0.363610
C116 C 0.083300 -0.005200 0.333450
C117 C 0.095100 -0.098400 0.292120
C118 C 0.202300 0.451800 0.863610
C119 C -0.015400 -0.153700 0.264860
C120 C 0.144600 0.549500 0.386700
C121 C -0.144600 -0.116800 0.279950
C122 C 0.390900 0.537200 0.323840
C123 C -0.161600 -0.019200 0.320970
C124 C 0.503200 0.506000 0.294500
C125 C -0.050500 0.034500 0.348020
C126 C 0.632400 0.491600 0.314500
C127 C 0.343400 0.046500 0.343180
C128 C 0.649800 0.513200 0.362400
C129 C 0.537400 0.546700 0.390870
C130 C 0.405700 0.559400 0.371610
C131 C 0.255700 0.298600 0.980270
C132 C 0.594300 0.440600 0.628390
C133 C 0.462600 0.453300 0.609130
C134 C 0.288900 0.594600 0.403380
C135 C 0.350200 0.486800 0.637600
C136 C 0.246100 0.775800 0.516760
C137 C 0.367600 0.508400 0.685500
C138 C 0.496800 0.494000 0.705500
C139 C 0.609100 0.462800 0.676160
C140 C 0.744300 0.701400 0.019730
C141 C 0.797700 0.548200 0.136390
C142 C 0.916700 0.494800 0.166550
C143 C 0.904900 0.401600 0.207880
C144 C 0.855400 0.450500 0.613300
C145 C 1.015400 0.346300 0.235140
C146 C 0.656600 0.953500 0.656820
C147 C 1.144600 0.383200 0.220050
C148 C 1.050500 0.965500 0.651980
C149 C 1.161600 0.480800 0.179030
C150 C 0.144600 0.950500 0.886700
C151 C 1.050500 0.534500 0.151980
C152 C 0.390900 0.962800 0.823840
C153 C 0.656600 0.546500 0.156820
C154 C 0.503200 0.994000 0.794500
C155 C 0.632400 1.008400 0.814500
C156 C 0.649800 0.986800 0.862400
C157 C 1.161600 1.019200 0.679030
C158 C 1.144600 1.116800 0.720050
C159 C 1.015400 1.153700 0.735140
C160 C 0.537400 0.953300 0.890870
C161 C 0.904900 1.098400 0.707880
C162 C 0.405700 0.940600 0.871610
C163 C 0.916700 1.005200 0.666550
C164 C 0.288900 0.905400 0.903380
C165 C 0.246100 0.724200 1.016760
C166 C 0.744300 0.798600 0.519730
C167 C 0.797700 0.951800 0.636390
C168 C 0.367600 -0.008400 0.185500
N169 N 0.877500 0.777200 0.508860
N170 N 0.416900 0.598400 1.068560
N171 N 0.718500 0.854500 0.564610
N172 N 0.377400 0.692600 1.027180
N173 N 0.824300 0.903700 0.593670
N174 N 0.215000 0.804200 0.974990
N175 N 0.681400 0.338600 0.556160
N176 N 0.318600 0.838600 0.943840
N177 N 0.785000 0.304200 0.525010
N178 N 0.175700 0.096300 0.406330
N179 N 0.318600 0.661400 0.443840
N180 N 0.215000 0.695800 0.474990
N181 N 0.377400 0.807400 0.527180
N182 N 0.416900 0.901600 0.568560
N183 N 0.622600 0.192600 0.472820
N184 N 0.175700 0.403700 0.906330
N185 N 0.281500 0.354500 0.935390
N186 N 0.912900 0.769800 -0.038200
N187 N 0.122500 0.277200 0.991140
N188 N 0.877500 0.722800 0.008860
N189 N 0.087100 0.230200 1.038200
N190 N 0.718500 0.645500 0.064610
N191 N 0.824300 0.596300 0.093670
N192 N 0.281500 0.145500 0.435390
N193 N 0.583100 0.098400 0.431440
N194 N 0.681400 0.161400 0.056160
N195 N 0.785000 0.195800 0.025010
N196 N 0.087100 0.269800 0.538200
N197 N 0.622600 0.307400 -0.027180
N198 N 0.122500 0.222800 0.491140
N199 N 0.583100 0.401600 -0.068560
N200 N 0.912900 0.730200 0.461800
O201 O 0.348900 0.261600 1.008840
O202 O 0.152800 0.681300 1.045030
O203 O 0.152800 0.818700 0.545030
O204 O 0.348900 0.238400 0.508840
O205 O 0.651100 0.761600 0.491160
O206 O 0.651100 0.738400 -0.008840
O207 O 0.847200 0.318700 -0.045030
O208 O 0.847200 0.181300 0.454970

#END
