./KABMIM_from_POSCAR.cif_generated_by_CrystalShift
_symmetry_cell_setting triclinic
_symmetry_space_group_name_H-M 'P 1'
loop_
_symmetry_equiv_pos_site_id
_symmetry_equiv_pos_as_xyz
1 x,y,z
_cell_length_a 7.458000
_cell_length_b 7.768000
_cell_length_c 11.222000
_cell_angle_alpha 85.394000
_cell_angle_beta 79.969000
_cell_angle_gamma 70.829000
_cell_volume 604.504289
loop_
_atom_site_label
_atom_site_type_symbol
_atom_site_fract_x
_atom_site_fract_y
_atom_site_fract_z
H1 H 0.663200 0.123300 0.325000
H2 H 0.139300 0.894700 0.129300
H3 H 0.864900 -0.324600 0.526200
H4 H 0.558500 0.561900 0.612300
H5 H 0.141300 0.682900 -0.006800
H6 H 0.148000 0.489100 0.047900
H7 H 0.336400 0.522300 -0.020200
H8 H 0.610800 0.631000 0.794600
H9 H 0.389200 0.369000 0.205400
H10 H 0.663600 0.477700 1.020200
H11 H 0.441500 0.438100 0.387700
H12 H 0.852000 0.510900 0.952100
H13 H 0.858700 0.317100 1.006800
H14 H 0.860700 0.105300 0.870700
H15 H 0.765400 -0.368600 0.193600
H16 H 0.865500 -0.501500 0.371700
H17 H 0.135100 1.324600 0.473800
H18 H 0.336800 0.876700 0.675000
H19 H 0.134500 1.501500 0.628300
H20 H 0.234600 1.368600 0.806400
C21 C 0.234800 1.296800 0.743900
C22 C 0.294200 1.110800 0.756500
C23 C 0.296100 1.002800 0.664630
C24 C 0.175600 1.375200 0.637900
C25 C 0.176300 1.269300 0.545200
C26 C 0.703900 -0.002800 0.335370
C27 C 0.705800 -0.110800 0.243500
C28 C 0.238000 1.081000 0.557480
C29 C 0.765200 -0.296800 0.256100
C30 C 0.801100 0.197900 0.818910
C31 C 0.183900 1.008400 0.347350
C32 C 0.743700 0.374700 0.851500
C33 C 0.783000 0.424600 0.968100
C34 C 0.247400 0.962000 0.459860
C35 C 0.315400 0.710900 0.369640
C36 C 0.379000 0.530000 0.336600
C37 C 0.652000 0.509800 0.772200
C38 C 0.348000 0.490200 0.227800
C39 C 0.621000 0.470000 0.663400
C40 C 0.217000 0.575400 0.031900
C41 C 0.684600 0.289100 0.630360
C42 C 0.752600 0.038000 0.540140
C43 C 0.816100 -0.008400 0.652650
C44 C 0.762000 -0.081000 0.442520
C45 C 0.823700 -0.269300 0.454800
C46 C 0.256300 0.625300 0.148500
C47 C 0.824400 -0.375200 0.362100
C48 C 0.198900 0.802100 0.181090
N49 N 0.326300 0.782400 0.472560
N50 N 0.229400 0.842900 0.290560
N51 N 0.096900 1.176500 0.305180
N52 N 0.673700 0.217600 0.527440
N53 N 0.903100 -0.176500 0.694820
N54 N 0.770600 0.157100 0.709440
O55 O 0.951000 -0.189100 0.797310
O56 O 0.049000 1.189100 0.202690
Cl57 Cl 0.632650 -0.010840 0.109360
Cl58 Cl 0.367350 1.010840 0.890640

#END
