
#######################################################################
#
#                 Cambridge Crystallographic Data Centre
#                                CCDC 
#
#######################################################################
#
# If this CIF has been generated from an entry in the Cambridge 
# Structural Database, then it will include bibliographic, chemical, 
# crystal, experimental, refinement or atomic coordinate data resulting 
# from the CCDC's data processing and validation procedures.
#
#######################################################################

data_KABNOS
_symmetry_cell_setting           orthorhombic
_symmetry_space_group_name_H-M   'P b c a'
_symmetry_Int_Tables_number      61
_space_group_name_Hall           '-P 2ac 2ab'
loop_
_symmetry_equiv_pos_site_id
_symmetry_equiv_pos_as_xyz
1 x,y,z
2 1/2-x,-y,1/2+z
3 1/2+x,1/2-y,-z
4 -x,1/2+y,1/2-z
5 -x,-y,-z
6 1/2+x,y,1/2-z
7 1/2-x,1/2+y,z
8 x,1/2-y,1/2+z
_cell_length_a                   10.866(2)
_cell_length_b                   7.9654(16)
_cell_length_c                   30.620(6)
_cell_angle_alpha                90
_cell_angle_beta                 90
_cell_angle_gamma                90
_cell_volume                     2650.22
loop_
_atom_site_label
_atom_site_type_symbol
_atom_site_fract_x
_atom_site_fract_y
_atom_site_fract_z
N1 N 0.2524(2) 0.2706(3) 0.07906(7)
H1 H 0.2085 0.3518 0.0691
N2 N 0.2357(2) 0.2125(3) 0.12126(7)
C1 C 0.2087(3) 0.1579(4) 0.25849(9)
H2 H 0.2642 0.0921 0.2740
O1 O 0.39675(19) 0.0722(3) 0.06431(6)
C2 C 0.1388(2) 0.2646(4) 0.18944(8)
C3 C 0.1164(3) 0.2436(4) 0.28088(9)
O2 O 0.3004(2) 0.4211(3) 0.00187(6)
C4 C 0.0460(3) 0.3471(4) 0.21190(9)
H3 H -0.0101 0.4112 0.1962
C5 C 0.0337(3) 0.3379(4) 0.25639(9)
H4 H -0.0300 0.3949 0.2702
C6 C 0.3391(3) 0.1974(4) 0.05371(9)
N3 N 0.1068(3) 0.2355(4) 0.32592(8)
C7 C 0.1552(3) 0.2950(4) 0.14317(9)
H5 H 0.1070 0.3751 0.1292
C8 C 0.1968(7) 0.1475(9) 0.35123(15)
C9 C 0.2191(3) 0.1689(4) 0.21414(9)
H6 H 0.2819 0.1105 0.2002
C10 C 0.3436(4) 0.4699(6) -0.03795(11)
H7 H 0.3175 0.5649 -0.0529
C11 C 0.3625(3) 0.2785(4) 0.01224(9)
C12 C 0.4275(4) 0.3640(5) -0.05229(11)
H8 H 0.4701 0.3704 -0.0786
C13 C 0.0192(5) 0.3396(9) 0.34859(14)
C14 C 0.4401(3) 0.2390(4) -0.01997(10)
H9 H 0.4925 0.1467 -0.0209
H10 H 0.025(4) 0.306(5) 0.3795(14)
H11 H -0.057(5) 0.330(7) 0.3362(15)
H12 H 0.202(4) 0.030(7) 0.3405(13)
H13 H 0.038(6) 0.456(8) 0.3456(16)
H14 H 0.168(4) 0.141(6) 0.3805(17)
H15 H 0.273(7) 0.198(11) 0.352(2)
N1 N 0.2476(2) 0.7294(3) 0.57906(7)
H1 H 0.2915 0.6482 0.5691
N2 N 0.2643(2) 0.7875(3) 0.62126(7)
C1 C 0.2913(3) 0.8421(4) 0.75849(9)
H2 H 0.2358 0.9079 0.7740
O1 O 0.10325(19) 0.9278(3) 0.56431(6)
C2 C 0.3612(2) 0.7354(4) 0.68944(8)
C3 C 0.3836(3) 0.7564(4) 0.78088(9)
O2 O 0.1996(2) 0.5789(3) 0.50187(6)
C4 C 0.4540(3) 0.6529(4) 0.71190(9)
H3 H 0.5101 0.5888 0.6962
C5 C 0.4663(3) 0.6621(4) 0.75639(9)
H4 H 0.5300 0.6051 0.7702
C6 C 0.1609(3) 0.8026(4) 0.55371(9)
N3 N 0.3932(3) 0.7645(4) 0.82592(8)
C7 C 0.3448(3) 0.7050(4) 0.64317(9)
H5 H 0.3930 0.6249 0.6292
C8 C 0.3032(7) 0.8525(9) 0.85123(15)
C9 C 0.2809(3) 0.8311(4) 0.71414(9)
H6 H 0.2181 0.8895 0.7002
C10 C 0.1564(4) 0.5301(6) 0.46205(11)
H7 H 0.1825 0.4351 0.4471
C11 C 0.1375(3) 0.7215(4) 0.51224(9)
C12 C 0.0725(4) 0.6360(5) 0.44771(11)
H8 H 0.0299 0.6296 0.4214
C13 C 0.4808(5) 0.6604(9) 0.84859(14)
C14 C 0.0599(3) 0.7610(4) 0.48003(10)
H9 H 0.0075 0.8533 0.4791
H10 H 0.475(4) 0.694(5) 0.8795(14)
H11 H 0.557(5) 0.670(7) 0.8362(15)
H12 H 0.298(4) 0.970(7) 0.8405(13)
H13 H 0.462(6) 0.544(8) 0.8456(16)
H14 H 0.332(4) 0.859(6) 0.8805(17)
H15 H 0.227(7) 0.802(11) 0.852(2)
N1 N 0.7524(2) 0.2294(3) 0.92094(7)
H1 H 0.7085 0.1482 0.9309
N2 N 0.7357(2) 0.2875(3) 0.87874(7)
C1 C 0.7087(3) 0.3421(4) 0.74151(9)
H2 H 0.7642 0.4079 0.7260
O1 O 0.89675(19) 0.4278(3) 0.93569(6)
C2 C 0.6388(2) 0.2354(4) 0.81056(8)
C3 C 0.6164(3) 0.2564(4) 0.71912(9)
O2 O 0.8004(2) 0.0789(3) 0.99813(6)
C4 C 0.5460(3) 0.1529(4) 0.78810(9)
H3 H 0.4899 0.0888 0.8038
C5 C 0.5337(3) 0.1621(4) 0.74361(9)
H4 H 0.4700 0.1051 0.7298
C6 C 0.8391(3) 0.3026(4) 0.94629(9)
N3 N 0.6068(3) 0.2645(4) 0.67408(8)
C7 C 0.6552(3) 0.2050(4) 0.85683(9)
H5 H 0.6070 0.1249 0.8708
C8 C 0.6968(7) 0.3525(9) 0.64877(15)
C9 C 0.7191(3) 0.3311(4) 0.78586(9)
H6 H 0.7819 0.3895 0.7998
C10 C 0.8436(4) 0.0301(6) 1.03795(11)
H7 H 0.8175 -0.0649 1.0529
C11 C 0.8625(3) 0.2215(4) 0.98776(9)
C12 C 0.9275(4) 0.1360(5) 1.05229(11)
H8 H 0.9701 0.1296 1.0786
C13 C 0.5192(5) 0.1604(9) 0.65141(14)
C14 C 0.9401(3) 0.2610(4) 1.01997(10)
H9 H 0.9925 0.3533 1.0209
H10 H 0.525(4) 0.194(5) 0.6205(14)
H11 H 0.443(5) 0.170(7) 0.6638(15)
H12 H 0.702(4) 0.470(7) 0.6595(13)
H13 H 0.538(6) 0.044(8) 0.6544(16)
H14 H 0.668(4) 0.359(6) 0.6195(17)
H15 H 0.773(7) 0.302(11) 0.648(2)
N1 N 0.7476(2) 0.7706(3) 0.42094(7)
H1 H 0.7915 0.8518 0.4309
N2 N 0.7643(2) 0.7125(3) 0.37874(7)
C1 C 0.7913(3) 0.6579(4) 0.24151(9)
H2 H 0.7358 0.5921 0.2260
O1 O 0.60325(19) 0.5722(3) 0.43569(6)
C2 C 0.8612(2) 0.7646(4) 0.31056(8)
C3 C 0.8836(3) 0.7436(4) 0.21912(9)
O2 O 0.6996(2) 0.9211(3) 0.49813(6)
C4 C 0.9540(3) 0.8471(4) 0.28810(9)
H3 H 1.0101 0.9112 0.3038
C5 C 0.9663(3) 0.8379(4) 0.24361(9)
H4 H 1.0300 0.8949 0.2298
C6 C 0.6609(3) 0.6974(4) 0.44629(9)
N3 N 0.8932(3) 0.7355(4) 0.17408(8)
C7 C 0.8448(3) 0.7950(4) 0.35683(9)
H5 H 0.8930 0.8751 0.3708
C8 C 0.8032(7) 0.6475(9) 0.14877(15)
C9 C 0.7809(3) 0.6689(4) 0.28586(9)
H6 H 0.7181 0.6105 0.2998
C10 C 0.6564(4) 0.9699(6) 0.53795(11)
H7 H 0.6825 1.0649 0.5529
C11 C 0.6375(3) 0.7785(4) 0.48776(9)
C12 C 0.5725(4) 0.8640(5) 0.55229(11)
H8 H 0.5299 0.8704 0.5786
C13 C 0.9808(5) 0.8396(9) 0.15141(14)
C14 C 0.5599(3) 0.7390(4) 0.51997(10)
H9 H 0.5075 0.6467 0.5209
H10 H 0.975(4) 0.806(5) 0.1205(14)
H11 H 1.057(5) 0.830(7) 0.1638(15)
H12 H 0.798(4) 0.530(7) 0.1595(13)
H13 H 0.962(6) 0.956(8) 0.1544(16)
H14 H 0.832(4) 0.641(6) 0.1195(17)
H15 H 0.727(7) 0.698(11) 0.148(2)
N1 N 0.7476(2) 0.7294(3) 0.92094(7)
H1 H 0.7915 0.6482 0.9309
N2 N 0.7643(2) 0.7875(3) 0.87874(7)
C1 C 0.7913(3) 0.8421(4) 0.74151(9)
H2 H 0.7358 0.9079 0.7260
O1 O 0.60325(19) 0.9278(3) 0.93569(6)
C2 C 0.8612(2) 0.7354(4) 0.81056(8)
C3 C 0.8836(3) 0.7564(4) 0.71912(9)
O2 O 0.6996(2) 0.5789(3) 0.99813(6)
C4 C 0.9540(3) 0.6529(4) 0.78810(9)
H3 H 1.0101 0.5888 0.8038
C5 C 0.9663(3) 0.6621(4) 0.74361(9)
H4 H 1.0300 0.6051 0.7298
C6 C 0.6609(3) 0.8026(4) 0.94629(9)
N3 N 0.8932(3) 0.7645(4) 0.67408(8)
C7 C 0.8448(3) 0.7050(4) 0.85683(9)
H5 H 0.8930 0.6249 0.8708
C8 C 0.8032(7) 0.8525(9) 0.64877(15)
C9 C 0.7809(3) 0.8311(4) 0.78586(9)
H6 H 0.7181 0.8895 0.7998
C10 C 0.6564(4) 0.5301(6) 1.03795(11)
H7 H 0.6825 0.4351 1.0529
C11 C 0.6375(3) 0.7215(4) 0.98776(9)
C12 C 0.5725(4) 0.6360(5) 1.05229(11)
H8 H 0.5299 0.6296 1.0786
C13 C 0.9808(5) 0.6604(9) 0.65141(14)
C14 C 0.5599(3) 0.7610(4) 1.01997(10)
H9 H 0.5075 0.8533 1.0209
H10 H 0.975(4) 0.694(5) 0.6205(14)
H11 H 1.057(5) 0.670(7) 0.6638(15)
H12 H 0.798(4) 0.970(7) 0.6595(13)
H13 H 0.962(6) 0.544(8) 0.6544(16)
H14 H 0.832(4) 0.859(6) 0.6195(17)
H15 H 0.727(7) 0.802(11) 0.648(2)
N1 N 0.7524(2) 0.2706(3) 0.42094(7)
H1 H 0.7085 0.3518 0.4309
N2 N 0.7357(2) 0.2125(3) 0.37874(7)
C1 C 0.7087(3) 0.1579(4) 0.24151(9)
H2 H 0.7642 0.0921 0.2260
O1 O 0.89675(19) 0.0722(3) 0.43569(6)
C2 C 0.6388(2) 0.2646(4) 0.31056(8)
C3 C 0.6164(3) 0.2436(4) 0.21912(9)
O2 O 0.8004(2) 0.4211(3) 0.49813(6)
C4 C 0.5460(3) 0.3471(4) 0.28810(9)
H3 H 0.4899 0.4112 0.3038
C5 C 0.5337(3) 0.3379(4) 0.24361(9)
H4 H 0.4700 0.3949 0.2298
C6 C 0.8391(3) 0.1974(4) 0.44629(9)
N3 N 0.6068(3) 0.2355(4) 0.17408(8)
C7 C 0.6552(3) 0.2950(4) 0.35683(9)
H5 H 0.6070 0.3751 0.3708
C8 C 0.6968(7) 0.1475(9) 0.14877(15)
C9 C 0.7191(3) 0.1689(4) 0.28586(9)
H6 H 0.7819 0.1105 0.2998
C10 C 0.8436(4) 0.4699(6) 0.53795(11)
H7 H 0.8175 0.5649 0.5529
C11 C 0.8625(3) 0.2785(4) 0.48776(9)
C12 C 0.9275(4) 0.3640(5) 0.55229(11)
H8 H 0.9701 0.3704 0.5786
C13 C 0.5192(5) 0.3396(9) 0.15141(14)
C14 C 0.9401(3) 0.2390(4) 0.51997(10)
H9 H 0.9925 0.1467 0.5209
H10 H 0.525(4) 0.306(5) 0.1205(14)
H11 H 0.443(5) 0.330(7) 0.1638(15)
H12 H 0.702(4) 0.030(7) 0.1595(13)
H13 H 0.538(6) 0.456(8) 0.1544(16)
H14 H 0.668(4) 0.141(6) 0.1195(17)
H15 H 0.773(7) 0.198(11) 0.148(2)
N1 N 0.2476(2) 0.7706(3) 0.07906(7)
H1 H 0.2915 0.8518 0.0691
N2 N 0.2643(2) 0.7125(3) 0.12126(7)
C1 C 0.2913(3) 0.6579(4) 0.25849(9)
H2 H 0.2358 0.5921 0.2740
O1 O 0.10325(19) 0.5722(3) 0.06431(6)
C2 C 0.3612(2) 0.7646(4) 0.18944(8)
C3 C 0.3836(3) 0.7436(4) 0.28088(9)
O2 O 0.1996(2) 0.9211(3) 0.00187(6)
C4 C 0.4540(3) 0.8471(4) 0.21190(9)
H3 H 0.5101 0.9112 0.1962
C5 C 0.4663(3) 0.8379(4) 0.25639(9)
H4 H 0.5300 0.8949 0.2702
C6 C 0.1609(3) 0.6974(4) 0.05371(9)
N3 N 0.3932(3) 0.7355(4) 0.32592(8)
C7 C 0.3448(3) 0.7950(4) 0.14317(9)
H5 H 0.3930 0.8751 0.1292
C8 C 0.3032(7) 0.6475(9) 0.35123(15)
C9 C 0.2809(3) 0.6689(4) 0.21414(9)
H6 H 0.2181 0.6105 0.2002
C10 C 0.1564(4) 0.9699(6) -0.03795(11)
H7 H 0.1825 1.0649 -0.0529
C11 C 0.1375(3) 0.7785(4) 0.01224(9)
C12 C 0.0725(4) 0.8640(5) -0.05229(11)
H8 H 0.0299 0.8704 -0.0786
C13 C 0.4808(5) 0.8396(9) 0.34859(14)
C14 C 0.0599(3) 0.7390(4) -0.01997(10)
H9 H 0.0075 0.6467 -0.0209
H10 H 0.475(4) 0.806(5) 0.3795(14)
H11 H 0.557(5) 0.830(7) 0.3362(15)
H12 H 0.298(4) 0.530(7) 0.3405(13)
H13 H 0.462(6) 0.956(8) 0.3456(16)
H14 H 0.332(4) 0.641(6) 0.3805(17)
H15 H 0.227(7) 0.698(11) 0.352(2)
N1 N 0.2524(2) 0.2294(3) 0.57906(7)
H1 H 0.2085 0.1482 0.5691
N2 N 0.2357(2) 0.2875(3) 0.62126(7)
C1 C 0.2087(3) 0.3421(4) 0.75849(9)
H2 H 0.2642 0.4079 0.7740
O1 O 0.39675(19) 0.4278(3) 0.56431(6)
C2 C 0.1388(2) 0.2354(4) 0.68944(8)
C3 C 0.1164(3) 0.2564(4) 0.78088(9)
O2 O 0.3004(2) 0.0789(3) 0.50187(6)
C4 C 0.0460(3) 0.1529(4) 0.71190(9)
H3 H -0.0101 0.0888 0.6962
C5 C 0.0337(3) 0.1621(4) 0.75639(9)
H4 H -0.0300 0.1051 0.7702
C6 C 0.3391(3) 0.3026(4) 0.55371(9)
N3 N 0.1068(3) 0.2645(4) 0.82592(8)
C7 C 0.1552(3) 0.2050(4) 0.64317(9)
H5 H 0.1070 0.1249 0.6292
C8 C 0.1968(7) 0.3525(9) 0.85123(15)
C9 C 0.2191(3) 0.3311(4) 0.71414(9)
H6 H 0.2819 0.3895 0.7002
C10 C 0.3436(4) 0.0301(6) 0.46205(11)
H7 H 0.3175 -0.0649 0.4471
C11 C 0.3625(3) 0.2215(4) 0.51224(9)
C12 C 0.4275(4) 0.1360(5) 0.44771(11)
H8 H 0.4701 0.1296 0.4214
C13 C 0.0192(5) 0.1604(9) 0.84859(14)
C14 C 0.4401(3) 0.2610(4) 0.48003(10)
H9 H 0.4925 0.3533 0.4791
H10 H 0.025(4) 0.194(5) 0.8795(14)
H11 H -0.057(5) 0.170(7) 0.8362(15)
H12 H 0.202(4) 0.470(7) 0.8405(13)
H13 H 0.038(6) 0.044(8) 0.8456(16)
H14 H 0.168(4) 0.359(6) 0.8805(17)
H15 H 0.273(7) 0.302(11) 0.852(2)

#END
