./KABPUA_from_POSCAR.cif_generated_by_CrystalShift
_symmetry_cell_setting triclinic
_symmetry_space_group_name_H-M 'P 1'
loop_
_symmetry_equiv_pos_site_id
_symmetry_equiv_pos_as_xyz
1 x,y,z
_cell_length_a 10.865000
_cell_length_b 14.001000
_cell_length_c 14.302100
_cell_angle_alpha 90.000000
_cell_angle_beta 94.697000
_cell_angle_gamma 90.000000
_cell_volume 2168.341292
loop_
_atom_site_label
_atom_site_type_symbol
_atom_site_fract_x
_atom_site_fract_y
_atom_site_fract_z
H1 H 0.562400 0.710900 0.050100
H2 H 0.582900 1.087300 0.691800
H3 H 0.624100 0.830500 -0.047100
H4 H 0.282100 0.717300 0.180000
H5 H 0.092500 0.765800 0.221400
H6 H 0.898800 0.359300 -0.005200
H7 H 0.318000 1.046800 0.782500
H8 H 0.409900 1.119800 0.758200
H9 H 0.017700 0.710500 0.357300
H10 H 0.137800 0.613900 0.455900
H11 H 0.331400 0.568100 0.417000
H12 H 0.331400 0.931900 0.917000
H13 H 0.409900 0.380200 0.258200
H14 H 0.137800 0.886100 0.955900
H15 H 0.318000 0.453200 0.282500
H16 H 0.017700 0.789500 0.857300
H17 H 0.805500 0.910400 -0.010900
H18 H 0.092500 0.734200 0.721400
H19 H 0.582900 0.412700 0.191800
H20 H 0.282100 0.782700 0.680000
H21 H 0.924400 0.873500 0.123300
H22 H 0.101200 -0.140700 0.505200
H23 H -0.074400 0.002000 0.292200
H24 H 0.725000 0.858900 0.766500
H25 H 0.109100 0.068900 0.258600
H26 H 0.394200 0.051400 0.392200
H27 H 0.562400 0.789100 0.550100
H28 H 0.137600 0.256900 0.277600
H29 H 0.624100 0.669500 0.452900
H30 H 0.075600 0.373500 0.376700
H31 H 0.805500 0.589600 0.489100
H32 H 0.194500 0.410400 0.510900
H33 H 0.924400 0.626500 0.623300
H34 H 0.375900 0.330500 0.547100
H35 H 0.862400 0.743100 0.722400
H36 H 0.437600 0.210900 0.449900
H37 H 0.605800 0.948600 0.607800
H38 H 0.275000 0.141100 0.233500
H39 H 0.717900 0.217300 0.320000
H40 H 0.890900 0.931100 0.741400
H41 H 0.907500 0.265800 0.278600
H42 H 1.074400 0.998000 0.707800
H43 H 0.982300 0.210500 0.142700
H44 H 0.862200 0.113900 0.044100
H45 H 0.898800 1.140700 0.494800
H46 H 0.668600 0.068100 0.083000
H47 H 0.590100 -0.119800 0.241800
H48 H 1.074400 0.502000 0.207800
H49 H 0.682000 -0.046800 0.217500
H50 H 0.417100 0.587300 0.808200
H51 H 0.862400 0.756900 0.222400
H52 H 0.417100 -0.087300 0.308200
H53 H 0.605800 0.551400 0.107800
H54 H 0.890900 0.568900 0.241400
H55 H 0.682000 0.546800 0.717500
H56 H 0.590100 0.619800 0.741800
H57 H 0.101200 0.640700 1.005200
H58 H -0.074400 0.498000 0.792200
H59 H 0.109100 0.431100 0.758600
H60 H 0.668600 0.431900 0.583000
H61 H 0.394200 0.448600 0.892200
H62 H 0.862200 0.386100 0.544100
H63 H 0.137600 0.243100 0.777600
H64 H 0.982300 0.289500 0.642700
H65 H 0.075600 0.126500 0.876700
H66 H 0.907500 0.234200 0.778600
H67 H 0.194500 0.089600 1.010900
H68 H 0.717900 0.282700 0.820000
H69 H 0.375900 0.169500 1.047100
H70 H 0.437600 0.289100 0.949900
H71 H 0.275000 0.358900 0.733500
H72 H 0.725000 0.641100 0.266500
C73 C 0.294200 0.279230 0.852710
C74 C 0.364400 0.256300 0.934030
C75 C 0.891400 0.526280 0.191600
C76 C 0.327100 0.184900 0.992700
C77 C 0.458900 0.327580 0.750150
C78 C 0.219600 0.137100 0.971100
C79 C 0.746200 0.304220 0.764200
C80 C 0.149300 0.159000 0.891600
C81 C 0.860000 0.275500 0.739700
C82 C 0.186400 0.229270 0.832400
C83 C 0.904000 0.307500 0.658000
C84 C 0.341500 0.454670 0.833590
C85 C 0.833200 0.365200 0.600000
C86 C 0.218800 0.494080 0.859310
C87 C 0.108600 0.473720 0.808400
C88 C 0.717400 0.393200 0.623800
C89 C -0.001900 0.513630 0.828000
C90 C 0.673600 0.364410 0.707080
C91 C -0.003900 0.576530 0.900800
C92 C 0.102800 0.598520 0.955080
C93 C 0.551400 0.396890 0.735120
C94 C 0.212100 0.556820 0.933700
C95 C 0.781200 0.505920 0.140690
C96 C 0.529100 0.492800 0.746290
C97 C 0.404500 -0.028030 0.272300
C98 C 1.001900 0.486370 0.172000
C99 C 0.324900 -0.048960 0.186800
C100 C 0.658500 0.545330 0.166410
C101 C 0.529100 0.007200 0.246290
C102 C 0.324900 0.548960 0.686800
C103 C 0.404500 0.528030 0.772300
C104 C 1.003900 0.423470 0.099200
C105 C 0.551400 0.103110 0.235120
C106 C 0.673600 0.135590 0.207080
C107 C 0.717400 0.106800 0.123800
C108 C 0.787900 1.056820 0.566300
C109 C 0.833200 0.134800 0.100000
C110 C 0.897200 1.098520 0.544920
C111 C 0.904000 0.192500 0.158000
C112 C 1.003900 1.076530 0.599200
C113 C 0.860000 0.224500 0.239700
C114 C 1.001900 1.013630 0.672000
C115 C 0.746200 0.195780 0.264200
C116 C 0.891400 0.973720 0.691600
C117 C 0.458900 0.172420 0.250150
C118 C 0.813600 0.770730 0.167600
C119 C 0.336500 0.144310 0.287410
C120 C 0.781200 0.994080 0.640690
C121 C 0.294200 0.220770 0.352710
C122 C 0.364400 0.243700 0.434030
C123 C 0.658500 0.954670 0.666410
C124 C 0.327100 0.315100 0.492700
C125 C 0.813600 0.729270 0.667600
C126 C 0.219600 0.362900 0.471100
C127 C 0.850700 0.659000 0.608400
C128 C 0.149300 0.341000 0.391600
C129 C 0.780400 0.637100 0.528900
C130 C 0.186400 0.270730 0.332400
C131 C 0.672900 0.684900 0.507300
C132 C 0.341500 0.045330 0.333590
C133 C 0.635600 0.756300 0.565970
C134 C 0.218800 0.005920 0.359310
C135 C 0.108600 0.026280 0.308400
C136 C 0.705800 0.779230 0.647290
C137 C -0.001900 -0.013630 0.328000
C138 C 0.663500 0.855690 0.712590
C139 C -0.003900 -0.076530 0.400800
C140 C 0.102800 -0.098520 0.455080
C141 C 0.897200 0.401480 0.044920
C142 C 0.212100 -0.056820 0.433700
C143 C 0.541100 0.827580 0.749850
C144 C 0.850700 0.841000 0.108400
C145 C 0.595500 0.471970 0.227700
C146 C 0.253800 0.804220 0.735800
C147 C 0.675100 0.451040 0.313200
C148 C 0.140000 0.775500 0.760300
C149 C 0.470900 0.507200 0.253710
C150 C 0.780400 0.862900 0.028900
C151 C 0.096000 0.807500 0.842000
C152 C 0.166800 0.865200 0.900000
C153 C 0.448600 0.603110 0.264880
C154 C 0.326400 0.635590 0.292920
C155 C 0.282600 0.606800 0.376200
C156 C 0.282600 0.893200 0.876200
C157 C 0.166800 0.634800 0.400000
C158 C 0.326400 0.864410 0.792920
C159 C 0.096000 0.692500 0.342000
C160 C 0.448600 0.896890 0.764880
C161 C 0.140000 0.724500 0.260300
C162 C 0.470900 0.992800 0.753710
C163 C 0.253800 0.695780 0.235800
C164 C 0.787900 0.443180 0.066300
C165 C 0.541100 0.672420 0.249850
C166 C 0.675100 1.048960 0.813200
C167 C 0.663500 0.644310 0.212590
C168 C 0.336500 0.355690 0.787410
C169 C 0.705800 0.720770 0.147290
C170 C 0.635600 0.743700 0.065970
C171 C 0.595500 1.028030 0.727700
C172 C 0.672900 0.815100 0.007300
N173 N 0.609700 -0.061060 0.233740
N174 N 0.390300 0.438940 0.266260
N175 N 0.739000 0.436900 0.378300
N176 N 0.739000 1.063100 0.878300
N177 N 0.390300 1.061060 0.766260
N178 N 0.261000 0.563100 0.621700
N179 N 0.609700 0.561060 0.733740
N180 N 0.261000 -0.063100 0.121700
O181 O 0.474520 0.257600 0.231020
O182 O 0.474520 0.242400 0.731020
O183 O 0.525480 0.757600 0.268980
O184 O 0.525480 0.742400 0.768980
Cl185 Cl 0.656480 1.087290 0.496200
Cl186 Cl 1.140750 1.131270 0.574870
Cl187 Cl 0.343520 0.587290 1.003800
Cl188 Cl -0.140750 -0.131270 0.425130
Cl189 Cl 0.343520 -0.087290 0.503800
Cl190 Cl 1.140750 0.368730 0.074870
Cl191 Cl 0.656480 0.412710 -0.003800
Cl192 Cl -0.140750 0.631270 0.925130

#END
