
#######################################################################
#
#                 Cambridge Crystallographic Data Centre
#                                CCDC 
#
#######################################################################
#
# If this CIF has been generated from an entry in the Cambridge 
# Structural Database, then it will include bibliographic, chemical, 
# crystal, experimental, refinement or atomic coordinate data resulting 
# from the CCDC's data processing and validation procedures.
#
#######################################################################

data_KABQUC
_symmetry_cell_setting           monoclinic
_symmetry_space_group_name_H-M   'P 21/n'
_symmetry_Int_Tables_number      14
_space_group_name_Hall           '-P 2yn'
loop_
_symmetry_equiv_pos_site_id
_symmetry_equiv_pos_as_xyz
1 x,y,z
2 1/2-x,1/2+y,1/2-z
3 -x,-y,-z
4 1/2+x,1/2-y,1/2+z
_cell_length_a                   12.5847(16)
_cell_length_b                   5.4991(7)
_cell_length_c                   20.513(3)
_cell_angle_alpha                90
_cell_angle_beta                 90.881(3)
_cell_angle_gamma                90
_cell_volume                     1419.42
loop_
_atom_site_label
_atom_site_type_symbol
_atom_site_fract_x
_atom_site_fract_y
_atom_site_fract_z
Br1 Br 0.981258(18) 0.76856(4) 0.189865(11)
N1 N 0.81287(14) 0.2986(3) 0.47539(8)
C1 C 0.89713(17) -0.1358(4) 0.56435(10)
H1 H 0.9364 -0.1341 0.5252
C2 C 0.91786(18) -0.3084(4) 0.61199(11)
H2 H 0.9711 -0.4277 0.6052
C3 C 0.86104(18) -0.3086(4) 0.67003(11)
H3 H 0.8771 -0.4263 0.7026
C4 C 0.78167(17) -0.1393(4) 0.68057(11)
H4 H 0.7431 -0.1407 0.7200
C5 C 0.75912(16) 0.0336(4) 0.63241(10)
C6 C 0.81776(16) 0.0353(4) 0.57492(10)
C7 C 0.67506(17) 0.2294(4) 0.63073(10)
H5 H 0.6029 0.1588 0.6334
H6 H 0.6857 0.3471 0.6668
C8 C 0.77691(17) 0.2340(3) 0.53367(10)
C9 C 0.69218(17) 0.3476(4) 0.56541(10)
C10 C 0.64051(17) 0.5369(4) 0.53392(10)
H7 H 0.5818 0.6155 0.5535
C11 C 0.67601(17) 0.6106(4) 0.47296(10)
C12 C 0.76315(17) 0.4880(4) 0.44615(10)
C13 C 0.61992(18) 0.8140(4) 0.43667(11)
H8 H 0.5521 0.8491 0.4576
H9 H 0.6067 0.7647 0.3914
H10 H 0.6646 0.9600 0.4376
C14 C 0.80909(16) 0.5630(4) 0.38255(10)
C15 C 0.86357(18) 0.7827(4) 0.37684(11)
H11 H 0.8652 0.8932 0.4124
C16 C 0.91525(18) 0.8416(4) 0.31985(10)
H12 H 0.9542 0.9890 0.3167
C17 C 0.90937(17) 0.6825(4) 0.26755(10)
C18 C 0.85448(17) 0.4650(4) 0.27060(10)
H13 H 0.8504 0.3589 0.2341
C19 C 0.80524(17) 0.4066(4) 0.32917(10)
H14 H 0.7683 0.2566 0.3326
Br1 Br 0.518742(18) 1.26856(4) 0.310135(11)
N1 N 0.68713(14) 0.7986(3) 0.02461(8)
C1 C 0.60287(17) 0.3642(4) -0.06435(10)
H1 H 0.5636 0.3659 -0.0252
C2 C 0.58214(18) 0.1916(4) -0.11199(11)
H2 H 0.5289 0.0723 -0.1052
C3 C 0.63896(18) 0.1914(4) -0.17003(11)
H3 H 0.6229 0.0737 -0.2026
C4 C 0.71833(17) 0.3607(4) -0.18057(11)
H4 H 0.7569 0.3593 -0.2200
C5 C 0.74088(16) 0.5336(4) -0.13241(10)
C6 C 0.68224(16) 0.5353(4) -0.07492(10)
C7 C 0.82494(17) 0.7294(4) -0.13073(10)
H5 H 0.8971 0.6588 -0.1334
H6 H 0.8143 0.8471 -0.1668
C8 C 0.72309(17) 0.7340(3) -0.03367(10)
C9 C 0.80782(17) 0.8476(4) -0.06541(10)
C10 C 0.85949(17) 1.0369(4) -0.03392(10)
H7 H 0.9182 1.1155 -0.0535
C11 C 0.82399(17) 1.1106(4) 0.02704(10)
C12 C 0.73685(17) 0.9880(4) 0.05385(10)
C13 C 0.88008(18) 1.3140(4) 0.06333(11)
H8 H 0.9479 1.3491 0.0424
H9 H 0.8933 1.2647 0.1086
H10 H 0.8354 1.4600 0.0624
C14 C 0.69091(16) 1.0630(4) 0.11745(10)
C15 C 0.63643(18) 1.2827(4) 0.12316(11)
H11 H 0.6348 1.3932 0.0876
C16 C 0.58475(18) 1.3416(4) 0.18015(10)
H12 H 0.5458 1.4890 0.1833
C17 C 0.59063(17) 1.1825(4) 0.23245(10)
C18 C 0.64552(17) 0.9650(4) 0.22940(10)
H13 H 0.6496 0.8589 0.2659
C19 C 0.69476(17) 0.9066(4) 0.17083(10)
H14 H 0.7317 0.7566 0.1674
Br1 Br 0.018742(18) 0.23144(4) 0.810135(11)
N1 N 0.18713(14) 0.7014(3) 0.52461(8)
C1 C 0.10287(17) 1.1358(4) 0.43565(10)
H1 H 0.0636 1.1341 0.4748
C2 C 0.08214(18) 1.3084(4) 0.38801(11)
H2 H 0.0289 1.4277 0.3948
C3 C 0.13896(18) 1.3086(4) 0.32997(11)
H3 H 0.1229 1.4263 0.2974
C4 C 0.21833(17) 1.1393(4) 0.31943(11)
H4 H 0.2569 1.1407 0.2800
C5 C 0.24088(16) 0.9664(4) 0.36759(10)
C6 C 0.18224(16) 0.9647(4) 0.42508(10)
C7 C 0.32494(17) 0.7706(4) 0.36927(10)
H5 H 0.3971 0.8412 0.3666
H6 H 0.3143 0.6529 0.3332
C8 C 0.22309(17) 0.7660(3) 0.46633(10)
C9 C 0.30782(17) 0.6524(4) 0.43459(10)
C10 C 0.35949(17) 0.4631(4) 0.46608(10)
H7 H 0.4182 0.3845 0.4465
C11 C 0.32399(17) 0.3894(4) 0.52704(10)
C12 C 0.23685(17) 0.5120(4) 0.55385(10)
C13 C 0.38008(18) 0.1860(4) 0.56333(11)
H8 H 0.4479 0.1509 0.5424
H9 H 0.3933 0.2353 0.6086
H10 H 0.3354 0.0400 0.5624
C14 C 0.19091(16) 0.4370(4) 0.61745(10)
C15 C 0.13643(18) 0.2173(4) 0.62316(11)
H11 H 0.1348 0.1068 0.5876
C16 C 0.08475(18) 0.1584(4) 0.68015(10)
H12 H 0.0458 0.0110 0.6833
C17 C 0.09063(17) 0.3175(4) 0.73245(10)
C18 C 0.14552(17) 0.5350(4) 0.72940(10)
H13 H 0.1496 0.6411 0.7659
C19 C 0.19476(17) 0.5934(4) 0.67083(10)
H14 H 0.2317 0.7434 0.6674
Br1 Br 0.481258(18) -0.26856(4) 0.689865(11)
N1 N 0.31287(14) 0.2014(3) 0.97539(8)
C1 C 0.39713(17) 0.6358(4) 1.06435(10)
H1 H 0.4364 0.6341 1.0252
C2 C 0.41786(18) 0.8084(4) 1.11199(11)
H2 H 0.4711 0.9277 1.1052
C3 C 0.36104(18) 0.8086(4) 1.17003(11)
H3 H 0.3771 0.9263 1.2026
C4 C 0.28167(17) 0.6393(4) 1.18057(11)
H4 H 0.2431 0.6407 1.2200
C5 C 0.25912(16) 0.4664(4) 1.13241(10)
C6 C 0.31776(16) 0.4647(4) 1.07492(10)
C7 C 0.17506(17) 0.2706(4) 1.13073(10)
H5 H 0.1029 0.3412 1.1334
H6 H 0.1857 0.1529 1.1668
C8 C 0.27691(17) 0.2660(3) 1.03367(10)
C9 C 0.19218(17) 0.1524(4) 1.06541(10)
C10 C 0.14051(17) -0.0369(4) 1.03392(10)
H7 H 0.0818 -0.1155 1.0535
C11 C 0.17601(17) -0.1106(4) 0.97296(10)
C12 C 0.26315(17) 0.0120(4) 0.94615(10)
C13 C 0.11992(18) -0.3140(4) 0.93667(11)
H8 H 0.0521 -0.3491 0.9576
H9 H 0.1067 -0.2647 0.8914
H10 H 0.1646 -0.4600 0.9376
C14 C 0.30909(16) -0.0630(4) 0.88255(10)
C15 C 0.36357(18) -0.2827(4) 0.87684(11)
H11 H 0.3652 -0.3932 0.9124
C16 C 0.41525(18) -0.3416(4) 0.81985(10)
H12 H 0.4542 -0.4890 0.8167
C17 C 0.40937(17) -0.1825(4) 0.76755(10)
C18 C 0.35448(17) 0.0350(4) 0.77060(10)
H13 H 0.3504 0.1411 0.7341
C19 C 0.30524(17) 0.0934(4) 0.82917(10)
H14 H 0.2683 0.2434 0.8326

#END
