
#######################################################################
#
#                 Cambridge Crystallographic Data Centre
#                                CCDC 
#
#######################################################################
#
# If this CIF has been generated from an entry in the Cambridge 
# Structural Database, then it will include bibliographic, chemical, 
# crystal, experimental, refinement or atomic coordinate data resulting 
# from the CCDC's data processing and validation procedures.
#
#######################################################################

data_KABVAK
_symmetry_cell_setting           monoclinic
_symmetry_space_group_name_H-M   'P 21/a'
_symmetry_Int_Tables_number      14
_space_group_name_Hall           '-P 2yab'
loop_
_symmetry_equiv_pos_site_id
_symmetry_equiv_pos_as_xyz
1 x,y,z
2 1/2-x,1/2+y,-z
3 -x,-y,-z
4 1/2+x,1/2-y,z
_cell_length_a                   12.928(3)
_cell_length_b                   5.928(1)
_cell_length_c                   10.091(2)
_cell_angle_alpha                90
_cell_angle_beta                 112.83(1)
_cell_angle_gamma                90
_cell_volume                     712.762
loop_
_atom_site_label
_atom_site_type_symbol
_atom_site_fract_x
_atom_site_fract_y
_atom_site_fract_z
O1 O 1.1117(2) 0.0026(5) 0.3313(3)
O2 O 0.8851(2) -0.1046(5) 0.1083(3)
N1 N 0.8334(2) 0.0776(5) 0.2846(3)
N2 N 0.8438(2) 0.4094(5) 0.4161(3)
N3 N 1.0022(2) 0.2508(5) 0.3968(3)
C1 C 0.7165(3) 0.0197(8) 0.2484(5)
C2 C 0.8894(3) 0.2524(7) 0.3669(4)
C3 C 1.0204(3) 0.0649(7) 0.3320(4)
C4 C 0.9117(3) -0.0661(6) 0.2530(4)
C5 C 0.8760(4) 0.0934(9) 0.0255(5)
H1 H 0.771(3) 0.411(6) 0.396(4)
H2 H 0.898(3) 0.516(7) 0.485(4)
H3 H 0.680(5) 0.02(1) 0.129(7)
H4 H 0.705(4) -0.14(1) 0.249(5)
H5 H 0.691(4) 0.089(8) 0.296(5)
H6 H 0.865(3) 0.057(7) -0.079(4)
H7 H 0.828(4) 0.194(9) 0.035(6)
H8 H 0.942(5) 0.19(1) 0.035(6)
H9 H 0.912(3) -0.219(6) 0.292(4)
O1 O 0.3883(2) 0.5026(5) 0.6687(3)
O2 O 0.6149(2) 0.3954(5) 0.8917(3)
N1 N 0.6666(2) 0.5776(5) 0.7154(3)
N2 N 0.6562(2) 0.9094(5) 0.5839(3)
N3 N 0.4978(2) 0.7508(5) 0.6032(3)
C1 C 0.7835(3) 0.5197(8) 0.7516(5)
C2 C 0.6106(3) 0.7524(7) 0.6331(4)
C3 C 0.4796(3) 0.5649(7) 0.6680(4)
C4 C 0.5883(3) 0.4339(6) 0.7470(4)
C5 C 0.6240(4) 0.5934(9) 0.9745(5)
H1 H 0.729(3) 0.911(6) 0.604(4)
H2 H 0.602(3) 1.016(7) 0.515(4)
H3 H 0.820(5) 0.52(1) 0.871(7)
H4 H 0.795(4) 0.36(1) 0.751(5)
H5 H 0.809(4) 0.589(8) 0.704(5)
H6 H 0.635(3) 0.557(7) 1.079(4)
H7 H 0.672(4) 0.694(9) 0.965(6)
H8 H 0.558(5) 0.69(1) 0.965(6)
H9 H 0.588(3) 0.281(6) 0.708(4)
O1 O -0.1117(2) 0.9974(5) 0.6687(3)
O2 O 0.1149(2) 1.1046(5) 0.8917(3)
N1 N 0.1666(2) 0.9224(5) 0.7154(3)
N2 N 0.1562(2) 0.5906(5) 0.5839(3)
N3 N -0.0022(2) 0.7492(5) 0.6032(3)
C1 C 0.2835(3) 0.9803(8) 0.7516(5)
C2 C 0.1106(3) 0.7476(7) 0.6331(4)
C3 C -0.0204(3) 0.9351(7) 0.6680(4)
C4 C 0.0883(3) 1.0661(6) 0.7470(4)
C5 C 0.1240(4) 0.9066(9) 0.9745(5)
H1 H 0.229(3) 0.589(6) 0.604(4)
H2 H 0.102(3) 0.484(7) 0.515(4)
H3 H 0.320(5) 0.98(1) 0.871(7)
H4 H 0.295(4) 1.14(1) 0.751(5)
H5 H 0.309(4) 0.911(8) 0.704(5)
H6 H 0.135(3) 0.943(7) 1.079(4)
H7 H 0.172(4) 0.806(9) 0.965(6)
H8 H 0.058(5) 0.81(1) 0.965(6)
H9 H 0.088(3) 1.219(6) 0.708(4)
O1 O 0.6117(2) 0.4974(5) 0.3313(3)
O2 O 0.3851(2) 0.6046(5) 0.1083(3)
N1 N 0.3334(2) 0.4224(5) 0.2846(3)
N2 N 0.3438(2) 0.0906(5) 0.4161(3)
N3 N 0.5022(2) 0.2492(5) 0.3968(3)
C1 C 0.2165(3) 0.4803(8) 0.2484(5)
C2 C 0.3894(3) 0.2476(7) 0.3669(4)
C3 C 0.5204(3) 0.4351(7) 0.3320(4)
C4 C 0.4117(3) 0.5661(6) 0.2530(4)
C5 C 0.3760(4) 0.4066(9) 0.0255(5)
H1 H 0.271(3) 0.089(6) 0.396(4)
H2 H 0.398(3) -0.016(7) 0.485(4)
H3 H 0.180(5) 0.48(1) 0.129(7)
H4 H 0.205(4) 0.64(1) 0.249(5)
H5 H 0.191(4) 0.411(8) 0.296(5)
H6 H 0.365(3) 0.443(7) -0.079(4)
H7 H 0.328(4) 0.306(9) 0.035(6)
H8 H 0.442(5) 0.31(1) 0.035(6)
H9 H 0.412(3) 0.719(6) 0.292(4)

#END
