
#######################################################################
#
#                 Cambridge Crystallographic Data Centre
#                                CCDC 
#
#######################################################################
#
# If this CIF has been generated from an entry in the Cambridge 
# Structural Database, then it will include bibliographic, chemical, 
# crystal, experimental, refinement or atomic coordinate data resulting 
# from the CCDC's data processing and validation procedures.
#
#######################################################################

data_AACANI10
_symmetry_cell_setting           monoclinic
_symmetry_space_group_name_H-M   'P 21/c'
_symmetry_Int_Tables_number      14
_space_group_name_Hall           '-P 2ybc'
loop_
_symmetry_equiv_pos_site_id
_symmetry_equiv_pos_as_xyz
1 x,y,z
2 -x,1/2+y,1/2-z
3 -x,-y,-z
4 x,1/2-y,1/2+z
_cell_length_a                   14.412(5)
_cell_length_b                   7.316(5)
_cell_length_c                   14.431(5)
_cell_angle_alpha                90
_cell_angle_beta                 112.90(4)
_cell_angle_gamma                90
_cell_volume                     1401.66
loop_
_atom_site_label
_atom_site_type_symbol
_atom_site_fract_x
_atom_site_fract_y
_atom_site_fract_z
C1 C 0.86910 0.89810 0.26460
C2 C 0.59720 0.91530 0.34090
C3 C 0.78040 1.02630 0.21600
C4 C 0.71020 1.05440 0.27270
C5 C 0.60770 0.78000 0.18760
C6 C 0.66000 0.60540 0.17640
C7 C 0.76980 0.62680 0.18110
C8 C 0.93230 0.59870 0.32250
C9 C 0.91280 0.43800 0.38040
C10 C 0.58790 0.74090 0.39670
H1 H 0.91800 0.86300 0.23000
H2 H 0.62400 1.03200 0.39300
H3 H 0.82800 1.15500 0.21800
H4 H 0.75200 1.21500 0.30700
H5 H 0.60300 0.88400 0.13100
H6 H 0.65900 0.52000 0.21600
H7 H 0.79200 0.49400 0.19100
H8 H 0.98900 0.65400 0.37700
H9 H 0.91200 0.94100 0.33600
H10 H 0.52100 0.89000 0.28000
H11 H 0.72700 0.97400 0.13200
H12 H 0.64300 1.16400 0.23600
H13 H 0.52600 0.77900 0.15300
H14 H 0.61700 0.54900 0.08700
H15 H 0.76400 0.69500 0.12100
H16 H 0.94900 0.52900 0.26800
Ni1 Ni 0.76636 0.68790 0.37302
N1 N 0.83700 0.71000 0.27660
N2 N 0.66490 0.87380 0.28680
O1 O 0.84380 0.45480 0.41320
O2 O 0.65750 0.62320 0.41880
O3 O 0.96830 0.30330 0.39460
O4 O 0.51390 0.73000 0.41860
O5 O 0.85790 0.84160 0.48760
C1 C 0.13090 0.39810 0.23540
C2 C 0.40280 0.41530 0.15910
C3 C 0.21960 0.52630 0.28400
C4 C 0.28980 0.55440 0.22730
C5 C 0.39230 0.28000 0.31240
C6 C 0.34000 0.10540 0.32360
C7 C 0.23020 0.12680 0.31890
C8 C 0.06770 0.09870 0.17750
C9 C 0.08720 -0.06200 0.11960
C10 C 0.41210 0.24090 0.10330
H1 H 0.08200 0.36300 0.27000
H2 H 0.37600 0.53200 0.10700
H3 H 0.17200 0.65500 0.28200
H4 H 0.24800 0.71500 0.19300
H5 H 0.39700 0.38400 0.36900
H6 H 0.34100 0.02000 0.28400
H7 H 0.20800 -0.00600 0.30900
H8 H 0.01100 0.15400 0.12300
H9 H 0.08800 0.44100 0.16400
H10 H 0.47900 0.39000 0.22000
H11 H 0.27300 0.47400 0.36800
H12 H 0.35700 0.66400 0.26400
H13 H 0.47400 0.27900 0.34700
H14 H 0.38300 0.04900 0.41300
H15 H 0.23600 0.19500 0.37900
H16 H 0.05100 0.02900 0.23200
Ni1 Ni 0.23364 0.18790 0.12698
N1 N 0.16300 0.21000 0.22340
N2 N 0.33510 0.37380 0.21320
O1 O 0.15620 -0.04520 0.08680
O2 O 0.34250 0.12320 0.08120
O3 O 0.03170 -0.19670 0.10540
O4 O 0.48610 0.23000 0.08140
O5 O 0.14210 0.34160 0.01240
C1 C 0.13090 0.10190 0.73540
C2 C 0.40280 0.08470 0.65910
C3 C 0.21960 -0.02630 0.78400
C4 C 0.28980 -0.05440 0.72730
C5 C 0.39230 0.22000 0.81240
C6 C 0.34000 0.39460 0.82360
C7 C 0.23020 0.37320 0.81890
C8 C 0.06770 0.40130 0.67750
C9 C 0.08720 0.56200 0.61960
C10 C 0.41210 0.25910 0.60330
H1 H 0.08200 0.13700 0.77000
H2 H 0.37600 -0.03200 0.60700
H3 H 0.17200 -0.15500 0.78200
H4 H 0.24800 -0.21500 0.69300
H5 H 0.39700 0.11600 0.86900
H6 H 0.34100 0.48000 0.78400
H7 H 0.20800 0.50600 0.80900
H8 H 0.01100 0.34600 0.62300
H9 H 0.08800 0.05900 0.66400
H10 H 0.47900 0.11000 0.72000
H11 H 0.27300 0.02600 0.86800
H12 H 0.35700 -0.16400 0.76400
H13 H 0.47400 0.22100 0.84700
H14 H 0.38300 0.45100 0.91300
H15 H 0.23600 0.30500 0.87900
H16 H 0.05100 0.47100 0.73200
Ni1 Ni 0.23364 0.31210 0.62698
N1 N 0.16300 0.29000 0.72340
N2 N 0.33510 0.12620 0.71320
O1 O 0.15620 0.54520 0.58680
O2 O 0.34250 0.37680 0.58120
O3 O 0.03170 0.69670 0.60540
O4 O 0.48610 0.27000 0.58140
O5 O 0.14210 0.15840 0.51240
C1 C 0.86910 0.60190 0.76460
C2 C 0.59720 0.58470 0.84090
C3 C 0.78040 0.47370 0.71600
C4 C 0.71020 0.44560 0.77270
C5 C 0.60770 0.72000 0.68760
C6 C 0.66000 0.89460 0.67640
C7 C 0.76980 0.87320 0.68110
C8 C 0.93230 0.90130 0.82250
C9 C 0.91280 1.06200 0.88040
C10 C 0.58790 0.75910 0.89670
H1 H 0.91800 0.63700 0.73000
H2 H 0.62400 0.46800 0.89300
H3 H 0.82800 0.34500 0.71800
H4 H 0.75200 0.28500 0.80700
H5 H 0.60300 0.61600 0.63100
H6 H 0.65900 0.98000 0.71600
H7 H 0.79200 1.00600 0.69100
H8 H 0.98900 0.84600 0.87700
H9 H 0.91200 0.55900 0.83600
H10 H 0.52100 0.61000 0.78000
H11 H 0.72700 0.52600 0.63200
H12 H 0.64300 0.33600 0.73600
H13 H 0.52600 0.72100 0.65300
H14 H 0.61700 0.95100 0.58700
H15 H 0.76400 0.80500 0.62100
H16 H 0.94900 0.97100 0.76800
Ni1 Ni 0.76636 0.81210 0.87302
N1 N 0.83700 0.79000 0.77660
N2 N 0.66490 0.62620 0.78680
O1 O 0.84380 1.04520 0.91320
O2 O 0.65750 0.87680 0.91880
O3 O 0.96830 1.19670 0.89460
O4 O 0.51390 0.77000 0.91860
O5 O 0.85790 0.65840 0.98760
O6 O 0.62690 0.28590 0.49270
O6 O 0.37310 0.78590 0.00730
O6 O 0.37310 0.71410 0.50730
O6 O 0.62690 0.21410 0.99270
O7 O 0.82590 0.17970 0.53560
O7 O 0.17410 0.67970 0.96440
O7 O 0.17410 0.82030 0.46440
O7 O 0.82590 0.32030 0.03560

#END
