
#######################################################################
#
#                 Cambridge Crystallographic Data Centre
#                                CCDC 
#
#######################################################################
#
# If this CIF has been generated from an entry in the Cambridge 
# Structural Database, then it will include bibliographic, chemical, 
# crystal, experimental, refinement or atomic coordinate data resulting 
# from the CCDC's data processing and validation procedures.
#
#######################################################################

data_ABACUF
_symmetry_cell_setting           triclinic
_symmetry_space_group_name_H-M   'P -1'
_symmetry_Int_Tables_number      2
_space_group_name_Hall           '-P 1'
loop_
_symmetry_equiv_pos_site_id
_symmetry_equiv_pos_as_xyz
1 x,y,z
2 -x,-y,-z
_cell_length_a                   8.75(5)
_cell_length_b                   7.16(4)
_cell_length_c                   6.88(4)
_cell_angle_alpha                99.05(25)
_cell_angle_beta                 109.35(8)
_cell_angle_gamma                82.33(25)
_cell_volume                     400.088
loop_
_atom_site_label
_atom_site_type_symbol
_atom_site_fract_x
_atom_site_fract_y
_atom_site_fract_z
Cu1 Cu 0.00000 0.50000 0.50000
Ba1 Ba 0.35000 0.23300 0.40000
C1 C 0.38600 0.05100 0.09000
C2 C -0.10000 0.14400 0.12400
C3 C 0.24800 0.71600 0.36000
O1 O 0.30800 0.19100 -0.02400
O2 O 0.53600 0.03000 0.17200
O3 O 0.01400 0.27200 0.25200
O4 O -0.24400 0.18100 0.03400
O5 O 0.32800 0.85600 0.45000
O6 O 0.16800 0.62600 0.45000
O7 O -0.17700 0.70000 0.37800
O8 O 0.50000 0.49200 0.70400
C2A C 0.10000 0.85600 0.87600
O3A O -0.01400 0.72800 0.74800
O4A O 0.24400 0.81900 0.96600
C3A C -0.24800 0.28400 0.64000
O5A O -0.32800 0.14400 0.55000
O6A O -0.16800 0.37400 0.55000
O7A O 0.17700 0.30000 0.62200
Ba1A Ba -0.35000 0.76700 0.60000
C1A C -0.38600 0.94900 0.91000
O1A O -0.30800 0.80900 1.02400
O2A O -0.53600 0.97000 0.82800
O8A O -0.50000 0.50800 0.29600
O5A O 0.67200 0.14400 0.55000
Ba1A Ba 0.65000 0.76700 0.60000
Ba1 Ba -0.65000 0.23300 0.40000
O5 O -0.67200 0.85600 0.45000
Cu1 Cu 1.00000 0.50000 0.50000
Ba1 Ba 1.35000 0.23300 0.40000
C1 C 1.38600 0.05100 0.09000
C2 C 0.90000 0.14400 0.12400
C3 C 1.24800 0.71600 0.36000
O1 O 1.30800 0.19100 -0.02400
O2 O 1.53600 0.03000 0.17200
O3 O 1.01400 0.27200 0.25200
O4 O 0.75600 0.18100 0.03400
O5 O 1.32800 0.85600 0.45000
O6 O 1.16800 0.62600 0.45000
O7 O 0.82300 0.70000 0.37800
O8 O 1.50000 0.49200 0.70400
C2A C 1.10000 0.85600 0.87600
O3A O 0.98600 0.72800 0.74800
O4A O 1.24400 0.81900 0.96600
C3A C 0.75200 0.28400 0.64000
O6A O 0.83200 0.37400 0.55000
O7A O 1.17700 0.30000 0.62200
C1A C 0.61400 0.94900 0.91000
O1A O 0.69200 0.80900 1.02400
O2A O 0.46400 0.97000 0.82800
O8A O 0.50000 0.50800 0.29600
O5A O 1.67200 0.14400 0.55000
Ba1A Ba 1.65000 0.76700 0.60000

#END
