
#######################################################################
#
#                 Cambridge Crystallographic Data Centre
#                                CCDC 
#
#######################################################################
#
# If this CIF has been generated from an entry in the Cambridge 
# Structural Database, then it will include bibliographic, chemical, 
# crystal, experimental, refinement or atomic coordinate data resulting 
# from the CCDC's data processing and validation procedures.
#
#######################################################################

data_ABAJIY
_symmetry_cell_setting           monoclinic
_symmetry_space_group_name_H-M   'P 21/c'
_symmetry_Int_Tables_number      14
_space_group_name_Hall           '-P 2ybc'
loop_
_symmetry_equiv_pos_site_id
_symmetry_equiv_pos_as_xyz
1 x,y,z
2 -x,1/2+y,1/2-z
3 -x,-y,-z
4 x,1/2-y,1/2+z
_cell_length_a                   10.5238(4)
_cell_length_b                   12.2289(4)
_cell_length_c                   15.0504(5)
_cell_angle_alpha                90
_cell_angle_beta                 111.340(2)
_cell_angle_gamma                90
_cell_volume                     1804.1
loop_
_atom_site_label
_atom_site_type_symbol
_atom_site_fract_x
_atom_site_fract_y
_atom_site_fract_z
O1 O 0.37023(10) 0.11774(8) 0.92101(7)
O2 O 0.12893(10) 0.13899(8) 0.66767(6)
O3 O 0.68551(11) 0.43082(10) 1.02164(8)
C1 C 0.30975(12) 0.22890(10) 0.78444(9)
C2 C 0.23219(13) 0.21417(11) 0.68881(9)
C3 C 0.26304(15) 0.27038(12) 0.61732(10)
H1 H 0.2094 0.2590 0.5519
C4 C 0.37039(16) 0.34113(12) 0.64283(10)
H2 H 0.3916 0.3780 0.5944
C5 C 0.45068(14) 0.36101(11) 0.73909(10)
C6 C 0.55965(15) 0.43751(12) 0.76592(12)
H3 H 0.5804 0.4755 0.7178
C7 C 0.63442(15) 0.45735(13) 0.85870(13)
H4 H 0.7077 0.5081 0.8752
C8 C 0.60373(14) 0.40273(12) 0.93107(11)
C9 C 0.50014(13) 0.32777(11) 0.90886(9)
H5 H 0.4809 0.2915 0.9584
C10 C 0.42134(12) 0.30417(10) 0.81193(9)
C11 C 0.27808(13) 0.16488(10) 0.85879(8)
C12 C 0.13503(13) 0.15946(10) 0.85716(8)
C13 C 0.05612(13) 0.25478(10) 0.84617(9)
C14 C -0.07551(14) 0.24589(11) 0.84654(9)
H6 H -0.1292 0.3102 0.8389
C15 C -0.13086(14) 0.14637(12) 0.85775(10)
C16 C -0.05042(14) 0.05397(11) 0.87003(10)
H7 H -0.0867 -0.0146 0.8788
C17 C 0.08180(14) 0.05783(10) 0.86999(9)
C18 C 0.02367(17) 0.14400(14) 0.57628(12)
H8 H -0.0067 0.2199 0.5618
H9 H -0.0533 0.0986 0.5759
H10 H 0.0583 0.1170 0.5281
C19 C 0.66243(19) 0.37810(16) 1.09841(13)
H11 H 0.6729 0.2989 1.0937
H12 H 0.5698 0.3944 1.0955
H13 H 0.7287 0.4046 1.1590
C20 C 0.11031(16) 0.36753(11) 0.83889(12)
H14 H 0.1250 0.3741 0.7784
H15 H 0.1969 0.3789 0.8921
H16 H 0.0441 0.4227 0.8414
C21 C -0.27449(16) 0.14021(15) 0.85686(14)
H17 H -0.2992 0.0636 0.8606
H18 H -0.3376 0.1726 0.7977
H19 H -0.2800 0.1805 0.9117
C22 C 0.16095(16) -0.04745(12) 0.87986(13)
H20 H 0.2396 -0.0467 0.9401
H21 H 0.1927 -0.0544 0.8265
H22 H 0.1018 -0.1095 0.8795
O1 O 0.62977(10) 0.61774(8) 0.57899(7)
O2 O 0.87107(10) 0.63899(8) 0.83233(6)
O3 O 0.31449(11) 0.93082(10) 0.47836(8)
C1 C 0.69025(12) 0.72890(10) 0.71556(9)
C2 C 0.76781(13) 0.71417(11) 0.81119(9)
C3 C 0.73696(15) 0.77038(12) 0.88268(10)
H1 H 0.7906 0.7590 0.9481
C4 C 0.62961(16) 0.84113(12) 0.85717(10)
H2 H 0.6084 0.8780 0.9056
C5 C 0.54932(14) 0.86101(11) 0.76091(10)
C6 C 0.44035(15) 0.93751(12) 0.73408(12)
H3 H 0.4196 0.9755 0.7822
C7 C 0.36558(15) 0.95735(13) 0.64130(13)
H4 H 0.2923 1.0081 0.6248
C8 C 0.39627(14) 0.90273(12) 0.56893(11)
C9 C 0.49986(13) 0.82777(11) 0.59114(9)
H5 H 0.5191 0.7915 0.5416
C10 C 0.57866(12) 0.80417(10) 0.68807(9)
C11 C 0.72192(13) 0.66488(10) 0.64121(8)
C12 C 0.86497(13) 0.65946(10) 0.64284(8)
C13 C 0.94388(13) 0.75478(10) 0.65383(9)
C14 C 1.07551(14) 0.74589(11) 0.65346(9)
H6 H 1.1292 0.8102 0.6611
C15 C 1.13086(14) 0.64637(12) 0.64225(10)
C16 C 1.05042(14) 0.55397(11) 0.62997(10)
H7 H 1.0867 0.4854 0.6212
C17 C 0.91820(14) 0.55783(10) 0.63001(9)
C18 C 0.97633(17) 0.64400(14) 0.92372(12)
H8 H 1.0067 0.7199 0.9382
H9 H 1.0533 0.5986 0.9241
H10 H 0.9417 0.6170 0.9719
C19 C 0.33757(19) 0.87810(16) 0.40159(13)
H11 H 0.3271 0.7989 0.4063
H12 H 0.4302 0.8944 0.4045
H13 H 0.2713 0.9046 0.3410
C20 C 0.88969(16) 0.86753(11) 0.66111(12)
H14 H 0.8750 0.8741 0.7216
H15 H 0.8031 0.8789 0.6079
H16 H 0.9559 0.9227 0.6586
C21 C 1.27449(16) 0.64021(15) 0.64314(14)
H17 H 1.2992 0.5636 0.6394
H18 H 1.3376 0.6726 0.7023
H19 H 1.2800 0.6805 0.5883
C22 C 0.83905(16) 0.45255(12) 0.62014(13)
H20 H 0.7604 0.4533 0.5599
H21 H 0.8073 0.4456 0.6735
H22 H 0.8982 0.3905 0.6205
O1 O 0.62977(10) 0.88226(8) 0.07899(7)
O2 O 0.87107(10) 0.86101(8) 0.33233(6)
O3 O 0.31449(11) 0.56918(10) -0.02164(8)
C1 C 0.69025(12) 0.77110(10) 0.21556(9)
C2 C 0.76781(13) 0.78583(11) 0.31119(9)
C3 C 0.73696(15) 0.72962(12) 0.38268(10)
H1 H 0.7906 0.7410 0.4481
C4 C 0.62961(16) 0.65887(12) 0.35717(10)
H2 H 0.6084 0.6220 0.4056
C5 C 0.54932(14) 0.63899(11) 0.26091(10)
C6 C 0.44035(15) 0.56249(12) 0.23408(12)
H3 H 0.4196 0.5245 0.2822
C7 C 0.36558(15) 0.54265(13) 0.14130(13)
H4 H 0.2923 0.4919 0.1248
C8 C 0.39627(14) 0.59727(12) 0.06893(11)
C9 C 0.49986(13) 0.67223(11) 0.09114(9)
H5 H 0.5191 0.7085 0.0416
C10 C 0.57866(12) 0.69583(10) 0.18807(9)
C11 C 0.72192(13) 0.83512(10) 0.14121(8)
C12 C 0.86497(13) 0.84054(10) 0.14284(8)
C13 C 0.94388(13) 0.74522(10) 0.15383(9)
C14 C 1.07551(14) 0.75411(11) 0.15346(9)
H6 H 1.1292 0.6898 0.1611
C15 C 1.13086(14) 0.85363(12) 0.14225(10)
C16 C 1.05042(14) 0.94603(11) 0.12997(10)
H7 H 1.0867 1.0146 0.1212
C17 C 0.91820(14) 0.94217(10) 0.13001(9)
C18 C 0.97633(17) 0.85600(14) 0.42372(12)
H8 H 1.0067 0.7801 0.4382
H9 H 1.0533 0.9014 0.4241
H10 H 0.9417 0.8830 0.4719
C19 C 0.33757(19) 0.62190(16) -0.09841(13)
H11 H 0.3271 0.7011 -0.0937
H12 H 0.4302 0.6056 -0.0955
H13 H 0.2713 0.5954 -0.1590
C20 C 0.88969(16) 0.63247(11) 0.16111(12)
H14 H 0.8750 0.6259 0.2216
H15 H 0.8031 0.6211 0.1079
H16 H 0.9559 0.5773 0.1586
C21 C 1.27449(16) 0.85979(15) 0.14314(14)
H17 H 1.2992 0.9364 0.1394
H18 H 1.3376 0.8274 0.2023
H19 H 1.2800 0.8195 0.0883
C22 C 0.83905(16) 1.04745(12) 0.12014(13)
H20 H 0.7604 1.0467 0.0599
H21 H 0.8073 1.0544 0.1735
H22 H 0.8982 1.1095 0.1205
O1 O 0.37023(10) 0.38226(8) 0.42101(7)
O2 O 0.12893(10) 0.36101(8) 0.16767(6)
O3 O 0.68551(11) 0.06918(10) 0.52164(8)
C1 C 0.30975(12) 0.27110(10) 0.28444(9)
C2 C 0.23219(13) 0.28583(11) 0.18881(9)
C3 C 0.26304(15) 0.22962(12) 0.11732(10)
H1 H 0.2094 0.2410 0.0519
C4 C 0.37039(16) 0.15887(12) 0.14283(10)
H2 H 0.3916 0.1220 0.0944
C5 C 0.45068(14) 0.13899(11) 0.23909(10)
C6 C 0.55965(15) 0.06249(12) 0.26592(12)
H3 H 0.5804 0.0245 0.2178
C7 C 0.63442(15) 0.04265(13) 0.35870(13)
H4 H 0.7077 -0.0081 0.3752
C8 C 0.60373(14) 0.09727(12) 0.43107(11)
C9 C 0.50014(13) 0.17223(11) 0.40886(9)
H5 H 0.4809 0.2085 0.4584
C10 C 0.42134(12) 0.19583(10) 0.31193(9)
C11 C 0.27808(13) 0.33512(10) 0.35879(8)
C12 C 0.13503(13) 0.34054(10) 0.35716(8)
C13 C 0.05612(13) 0.24522(10) 0.34617(9)
C14 C -0.07551(14) 0.25411(11) 0.34654(9)
H6 H -0.1292 0.1898 0.3389
C15 C -0.13086(14) 0.35363(12) 0.35775(10)
C16 C -0.05042(14) 0.44603(11) 0.37003(10)
H7 H -0.0867 0.5146 0.3788
C17 C 0.08180(14) 0.44217(10) 0.36999(9)
C18 C 0.02367(17) 0.35600(14) 0.07628(12)
H8 H -0.0067 0.2801 0.0618
H9 H -0.0533 0.4014 0.0759
H10 H 0.0583 0.3830 0.0281
C19 C 0.66243(19) 0.12190(16) 0.59841(13)
H11 H 0.6729 0.2011 0.5937
H12 H 0.5698 0.1056 0.5955
H13 H 0.7287 0.0954 0.6590
C20 C 0.11031(16) 0.13247(11) 0.33889(12)
H14 H 0.1250 0.1259 0.2784
H15 H 0.1969 0.1211 0.3921
H16 H 0.0441 0.0773 0.3414
C21 C -0.27449(16) 0.35979(15) 0.35686(14)
H17 H -0.2992 0.4364 0.3606
H18 H -0.3376 0.3274 0.2977
H19 H -0.2800 0.3195 0.4117
C22 C 0.16095(16) 0.54745(12) 0.37986(13)
H20 H 0.2396 0.5467 0.4401
H21 H 0.1927 0.5544 0.3265
H22 H 0.1018 0.6095 0.3795

#END
