
#######################################################################
#
#                 Cambridge Crystallographic Data Centre
#                                CCDC 
#
#######################################################################
#
# If this CIF has been generated from an entry in the Cambridge 
# Structural Database, then it will include bibliographic, chemical, 
# crystal, experimental, refinement or atomic coordinate data resulting 
# from the CCDC's data processing and validation procedures.
#
#######################################################################

data_ABAKEV01
_symmetry_cell_setting           orthorhombic
_symmetry_space_group_name_H-M   'P 21 21 21'
_symmetry_Int_Tables_number      19
_space_group_name_Hall           'P 2ac 2ab'
loop_
_symmetry_equiv_pos_site_id
_symmetry_equiv_pos_as_xyz
1 x,y,z
2 1/2-x,-y,1/2+z
3 1/2+x,1/2-y,-z
4 -x,1/2+y,1/2-z
_cell_length_a                   3.9500(11)
_cell_length_b                   8.915(3)
_cell_length_c                   22.569(6)
_cell_angle_alpha                90
_cell_angle_beta                 90
_cell_angle_gamma                90
_cell_volume                     794.75
loop_
_atom_site_label
_atom_site_type_symbol
_atom_site_fract_x
_atom_site_fract_y
_atom_site_fract_z
N1 N 0.5079(12) 0.7680(5) 0.09857(19)
O1 O 0.0744(14) 1.0284(5) 0.1845(2)
C1 C 0.2429(18) 0.9688(7) 0.1467(3)
H1 H 0.3159 1.0277 0.1152
C2 C 0.3417(15) 0.8099(7) 0.1468(3)
C3 C 0.2658(15) 0.7141(8) 0.1939(2)
H2 H 0.1527 0.7496 0.2272
C4 C 0.3599(16) 0.5686(7) 0.1900(3)
H3 H 0.3109 0.5029 0.2209
C5 C 0.5315(15) 0.5167(7) 0.1397(3)
C6 C 0.5952(14) 0.6216(7) 0.0946(3)
C7 C 0.7664(14) 0.5711(8) 0.0434(3)
H4 H 0.8148 0.6381 0.0129
C8 C 0.8609(15) 0.4244(9) 0.0383(3)
H5 H 0.9712 0.3924 0.0042
C9 C 0.7952(17) 0.3213(7) 0.0835(4)
H6 H 0.8628 0.2220 0.0794
C10 C 0.6333(16) 0.3663(7) 0.1332(3)
H7 H 0.5888 0.2976 0.1632
N1 N 0.9921(12) 0.2320(5) 0.59857(19)
O1 O 1.4256(14) -0.0284(5) 0.6845(2)
C1 C 1.2571(18) 0.0312(7) 0.6467(3)
H1 H 1.1841 -0.0277 0.6152
C2 C 1.1583(15) 0.1901(7) 0.6468(3)
C3 C 1.2342(15) 0.2859(8) 0.6939(2)
H2 H 1.3473 0.2504 0.7272
C4 C 1.1401(16) 0.4314(7) 0.6900(3)
H3 H 1.1891 0.4971 0.7209
C5 C 0.9685(15) 0.4833(7) 0.6397(3)
C6 C 0.9048(14) 0.3784(7) 0.5946(3)
C7 C 0.7336(14) 0.4289(8) 0.5434(3)
H4 H 0.6852 0.3619 0.5129
C8 C 0.6391(15) 0.5756(9) 0.5383(3)
H5 H 0.5288 0.6076 0.5042
C9 C 0.7048(17) 0.6787(7) 0.5835(4)
H6 H 0.6372 0.7780 0.5794
C10 C 0.8667(16) 0.6337(7) 0.6332(3)
H7 H 0.9112 0.7024 0.6632
N1 N 0.0079(12) 0.7320(5) 0.90143(19)
O1 O -0.4256(14) 0.4716(5) 0.8155(2)
C1 C -0.2571(18) 0.5312(7) 0.8533(3)
H1 H -0.1841 0.4723 0.8848
C2 C -0.1583(15) 0.6901(7) 0.8532(3)
C3 C -0.2342(15) 0.7859(8) 0.8061(2)
H2 H -0.3473 0.7504 0.7728
C4 C -0.1401(16) 0.9314(7) 0.8100(3)
H3 H -0.1891 0.9971 0.7791
C5 C 0.0315(15) 0.9833(7) 0.8603(3)
C6 C 0.0952(14) 0.8784(7) 0.9054(3)
C7 C 0.2664(14) 0.9289(8) 0.9566(3)
H4 H 0.3148 0.8619 0.9871
C8 C 0.3609(15) 1.0756(9) 0.9617(3)
H5 H 0.4712 1.1076 0.9958
C9 C 0.2952(17) 1.1787(7) 0.9165(4)
H6 H 0.3628 1.2780 0.9206
C10 C 0.1333(16) 1.1337(7) 0.8668(3)
H7 H 0.0888 1.2024 0.8368
N1 N 0.4921(12) 0.2680(5) 0.40143(19)
O1 O 0.9256(14) 0.5284(5) 0.3155(2)
C1 C 0.7571(18) 0.4688(7) 0.3533(3)
H1 H 0.6841 0.5277 0.3848
C2 C 0.6583(15) 0.3099(7) 0.3532(3)
C3 C 0.7342(15) 0.2141(8) 0.3061(2)
H2 H 0.8473 0.2496 0.2728
C4 C 0.6401(16) 0.0686(7) 0.3100(3)
H3 H 0.6891 0.0029 0.2791
C5 C 0.4685(15) 0.0167(7) 0.3603(3)
C6 C 0.4048(14) 0.1216(7) 0.4054(3)
C7 C 0.2336(14) 0.0711(8) 0.4566(3)
H4 H 0.1852 0.1381 0.4871
C8 C 0.1391(15) -0.0756(9) 0.4617(3)
H5 H 0.0288 -0.1076 0.4958
C9 C 0.2048(17) -0.1787(7) 0.4165(4)
H6 H 0.1372 -0.2780 0.4206
C10 C 0.3667(16) -0.1337(7) 0.3668(3)
H7 H 0.4112 -0.2024 0.3368

#END
