
#######################################################################
#
#                 Cambridge Crystallographic Data Centre
#                                CCDC 
#
#######################################################################
#
# If this CIF has been generated from an entry in the Cambridge 
# Structural Database, then it will include bibliographic, chemical, 
# crystal, experimental, refinement or atomic coordinate data resulting 
# from the CCDC's data processing and validation procedures.
#
#######################################################################

data_ABAPCU
_symmetry_cell_setting           triclinic
_symmetry_space_group_name_H-M   'P -1'
_symmetry_Int_Tables_number      2
_space_group_name_Hall           '-P 1'
loop_
_symmetry_equiv_pos_site_id
_symmetry_equiv_pos_as_xyz
1 x,y,z
2 -x,-y,-z
_cell_length_a                   11.046(16)
_cell_length_b                   9.807(15)
_cell_length_c                   8.503(19)
_cell_angle_alpha                106.8(2)
_cell_angle_beta                 74.2(3)
_cell_angle_gamma                97.3(2)
_cell_volume                     847.314
loop_
_atom_site_label
_atom_site_type_symbol
_atom_site_fract_x
_atom_site_fract_y
_atom_site_fract_z
Br1 Br 0.39500 0.30800 -0.29900
Cu1 Cu 0.00000 0.00000 0.00000
C1 C 0.41600 0.27100 0.00300
C2 C 0.46600 0.17000 -0.12200
C3 C 0.44500 0.04000 -0.23500
C4 C 0.09600 0.01000 -0.34900
C5 C 0.15200 -0.01100 -0.52700
C6 C 0.23100 -0.11500 -0.57500
C7 C 0.25600 -0.20300 -0.47600
C8 C 0.17900 -0.16500 -0.28600
C9 C 0.04800 0.31300 0.01700
C10 C 0.21200 0.44000 0.10400
C11 C 0.28800 0.31500 0.12300
C12 C 0.18700 0.17100 0.09200
C13 C 0.30600 0.33800 0.33100
C14 C 0.16100 0.38800 0.46400
C15 C 0.08000 0.34500 0.50600
N1 N 0.09300 0.19900 0.03400
N2 N 0.10700 -0.05200 -0.23300
N3 N 0.11900 0.44100 0.04200
O1 O -0.04200 0.31900 -0.03600
O2 O 0.29800 0.55700 0.13300
O3 O 0.21200 0.06800 0.12300
N1A N -0.09300 -0.19900 -0.03400
N2A N -0.10700 0.05200 0.23300
C9A C -0.04800 -0.31300 -0.01700
C12A C -0.18700 -0.17100 -0.09200
C4A C -0.09600 -0.01000 0.34900
C8A C -0.17900 0.16500 0.28600
N3A N -0.11900 -0.44100 -0.04200
O1A O 0.04200 -0.31900 0.03600
C11A C -0.28800 -0.31500 -0.12300
O3A O -0.21200 -0.06800 -0.12300
C5A C -0.15200 0.01100 0.52700
C7A C -0.25600 0.20300 0.47600
C10A C -0.21200 -0.44000 -0.10400
C1A C -0.41600 -0.27100 -0.00300
C13A C -0.30600 -0.33800 -0.33100
C6A C -0.23100 0.11500 0.57500
O2A O -0.29800 -0.55700 -0.13300
C2A C -0.46600 -0.17000 0.12200
C14A C -0.16100 -0.38800 -0.46400
Br1A Br -0.39500 -0.30800 0.29900
C3A C -0.44500 -0.04000 0.23500
C15A C -0.08000 -0.34500 -0.50600
Br1 Br 0.39500 0.30800 0.70100
Cu1 Cu 0.00000 0.00000 1.00000
C1 C 0.41600 0.27100 1.00300
C2 C 0.46600 0.17000 0.87800
C3 C 0.44500 0.04000 0.76500
C4 C 0.09600 0.01000 0.65100
C5 C 0.15200 -0.01100 0.47300
C6 C 0.23100 -0.11500 0.42500
C7 C 0.25600 -0.20300 0.52400
C8 C 0.17900 -0.16500 0.71400
C9 C 0.04800 0.31300 1.01700
C10 C 0.21200 0.44000 1.10400
C11 C 0.28800 0.31500 1.12300
C12 C 0.18700 0.17100 1.09200
C13 C 0.30600 0.33800 1.33100
C14 C 0.16100 0.38800 1.46400
C15 C 0.08000 0.34500 1.50600
N1 N 0.09300 0.19900 1.03400
N2 N 0.10700 -0.05200 0.76700
N3 N 0.11900 0.44100 1.04200
O1 O -0.04200 0.31900 0.96400
O2 O 0.29800 0.55700 1.13300
O3 O 0.21200 0.06800 1.12300
N1A N -0.09300 -0.19900 0.96600
N2A N -0.10700 0.05200 1.23300
C9A C -0.04800 -0.31300 0.98300
C12A C -0.18700 -0.17100 0.90800
C4A C -0.09600 -0.01000 1.34900
C8A C -0.17900 0.16500 1.28600
N3A N -0.11900 -0.44100 0.95800
O1A O 0.04200 -0.31900 1.03600
C11A C -0.28800 -0.31500 0.87700
O3A O -0.21200 -0.06800 0.87700
C5A C -0.15200 0.01100 1.52700
C7A C -0.25600 0.20300 1.47600
C10A C -0.21200 -0.44000 0.89600
C1A C -0.41600 -0.27100 0.99700
C13A C -0.30600 -0.33800 0.66900
C6A C -0.23100 0.11500 1.57500
O2A O -0.29800 -0.55700 0.86700
C2A C -0.46600 -0.17000 1.12200
C14A C -0.16100 -0.38800 0.53600
Br1A Br -0.39500 -0.30800 1.29900
C3A C -0.44500 -0.04000 1.23500
C15A C -0.08000 -0.34500 0.49400
Br1 Br 0.39500 1.30800 -0.29900
Cu1 Cu 0.00000 1.00000 0.00000
C1 C 0.41600 1.27100 0.00300
C2 C 0.46600 1.17000 -0.12200
C3 C 0.44500 1.04000 -0.23500
C4 C 0.09600 1.01000 -0.34900
C5 C 0.15200 0.98900 -0.52700
C6 C 0.23100 0.88500 -0.57500
C7 C 0.25600 0.79700 -0.47600
C8 C 0.17900 0.83500 -0.28600
C9 C 0.04800 1.31300 0.01700
C10 C 0.21200 1.44000 0.10400
C11 C 0.28800 1.31500 0.12300
C12 C 0.18700 1.17100 0.09200
C13 C 0.30600 1.33800 0.33100
C14 C 0.16100 1.38800 0.46400
C15 C 0.08000 1.34500 0.50600
N1 N 0.09300 1.19900 0.03400
N2 N 0.10700 0.94800 -0.23300
N3 N 0.11900 1.44100 0.04200
O1 O -0.04200 1.31900 -0.03600
O2 O 0.29800 1.55700 0.13300
O3 O 0.21200 1.06800 0.12300
N1A N -0.09300 0.80100 -0.03400
N2A N -0.10700 1.05200 0.23300
C9A C -0.04800 0.68700 -0.01700
C12A C -0.18700 0.82900 -0.09200
C4A C -0.09600 0.99000 0.34900
C8A C -0.17900 1.16500 0.28600
N3A N -0.11900 0.55900 -0.04200
O1A O 0.04200 0.68100 0.03600
C11A C -0.28800 0.68500 -0.12300
O3A O -0.21200 0.93200 -0.12300
C5A C -0.15200 1.01100 0.52700
C7A C -0.25600 1.20300 0.47600
C10A C -0.21200 0.56000 -0.10400
C1A C -0.41600 0.72900 -0.00300
C13A C -0.30600 0.66200 -0.33100
C6A C -0.23100 1.11500 0.57500
O2A O -0.29800 0.44300 -0.13300
C2A C -0.46600 0.83000 0.12200
C14A C -0.16100 0.61200 -0.46400
Br1A Br -0.39500 0.69200 0.29900
C3A C -0.44500 0.96000 0.23500
C15A C -0.08000 0.65500 -0.50600
Br1 Br 0.39500 1.30800 0.70100
Cu1 Cu 0.00000 1.00000 1.00000
C1 C 0.41600 1.27100 1.00300
C2 C 0.46600 1.17000 0.87800
C3 C 0.44500 1.04000 0.76500
C4 C 0.09600 1.01000 0.65100
C5 C 0.15200 0.98900 0.47300
C6 C 0.23100 0.88500 0.42500
C7 C 0.25600 0.79700 0.52400
C8 C 0.17900 0.83500 0.71400
C9 C 0.04800 1.31300 1.01700
C10 C 0.21200 1.44000 1.10400
C11 C 0.28800 1.31500 1.12300
C12 C 0.18700 1.17100 1.09200
C13 C 0.30600 1.33800 1.33100
C14 C 0.16100 1.38800 1.46400
C15 C 0.08000 1.34500 1.50600
N1 N 0.09300 1.19900 1.03400
N2 N 0.10700 0.94800 0.76700
N3 N 0.11900 1.44100 1.04200
O1 O -0.04200 1.31900 0.96400
O2 O 0.29800 1.55700 1.13300
O3 O 0.21200 1.06800 1.12300
N1A N -0.09300 0.80100 0.96600
N2A N -0.10700 1.05200 1.23300
C9A C -0.04800 0.68700 0.98300
C12A C -0.18700 0.82900 0.90800
C4A C -0.09600 0.99000 1.34900
C8A C -0.17900 1.16500 1.28600
N3A N -0.11900 0.55900 0.95800
O1A O 0.04200 0.68100 1.03600
C11A C -0.28800 0.68500 0.87700
O3A O -0.21200 0.93200 0.87700
C5A C -0.15200 1.01100 1.52700
C7A C -0.25600 1.20300 1.47600
C10A C -0.21200 0.56000 0.89600
C1A C -0.41600 0.72900 0.99700
C13A C -0.30600 0.66200 0.66900
C6A C -0.23100 1.11500 1.57500
O2A O -0.29800 0.44300 0.86700
C2A C -0.46600 0.83000 1.12200
C14A C -0.16100 0.61200 0.53600
Br1A Br -0.39500 0.69200 1.29900
C3A C -0.44500 0.96000 1.23500
C15A C -0.08000 0.65500 0.49400
Br1 Br 1.39500 0.30800 -0.29900
Cu1 Cu 1.00000 0.00000 0.00000
C1 C 1.41600 0.27100 0.00300
C2 C 1.46600 0.17000 -0.12200
C3 C 1.44500 0.04000 -0.23500
C4 C 1.09600 0.01000 -0.34900
C5 C 1.15200 -0.01100 -0.52700
C6 C 1.23100 -0.11500 -0.57500
C7 C 1.25600 -0.20300 -0.47600
C8 C 1.17900 -0.16500 -0.28600
C9 C 1.04800 0.31300 0.01700
C10 C 1.21200 0.44000 0.10400
C11 C 1.28800 0.31500 0.12300
C12 C 1.18700 0.17100 0.09200
C13 C 1.30600 0.33800 0.33100
C14 C 1.16100 0.38800 0.46400
C15 C 1.08000 0.34500 0.50600
N1 N 1.09300 0.19900 0.03400
N2 N 1.10700 -0.05200 -0.23300
N3 N 1.11900 0.44100 0.04200
O1 O 0.95800 0.31900 -0.03600
O2 O 1.29800 0.55700 0.13300
O3 O 1.21200 0.06800 0.12300
N1A N 0.90700 -0.19900 -0.03400
N2A N 0.89300 0.05200 0.23300
C9A C 0.95200 -0.31300 -0.01700
C12A C 0.81300 -0.17100 -0.09200
C4A C 0.90400 -0.01000 0.34900
C8A C 0.82100 0.16500 0.28600
N3A N 0.88100 -0.44100 -0.04200
O1A O 1.04200 -0.31900 0.03600
C11A C 0.71200 -0.31500 -0.12300
O3A O 0.78800 -0.06800 -0.12300
C5A C 0.84800 0.01100 0.52700
C7A C 0.74400 0.20300 0.47600
C10A C 0.78800 -0.44000 -0.10400
C1A C 0.58400 -0.27100 -0.00300
C13A C 0.69400 -0.33800 -0.33100
C6A C 0.76900 0.11500 0.57500
O2A O 0.70200 -0.55700 -0.13300
C2A C 0.53400 -0.17000 0.12200
C14A C 0.83900 -0.38800 -0.46400
Br1A Br 0.60500 -0.30800 0.29900
C3A C 0.55500 -0.04000 0.23500
C15A C 0.92000 -0.34500 -0.50600
Br1 Br 1.39500 0.30800 0.70100
Cu1 Cu 1.00000 0.00000 1.00000
C1 C 1.41600 0.27100 1.00300
C2 C 1.46600 0.17000 0.87800
C3 C 1.44500 0.04000 0.76500
C4 C 1.09600 0.01000 0.65100
C5 C 1.15200 -0.01100 0.47300
C6 C 1.23100 -0.11500 0.42500
C7 C 1.25600 -0.20300 0.52400
C8 C 1.17900 -0.16500 0.71400
C9 C 1.04800 0.31300 1.01700
C10 C 1.21200 0.44000 1.10400
C11 C 1.28800 0.31500 1.12300
C12 C 1.18700 0.17100 1.09200
C13 C 1.30600 0.33800 1.33100
C14 C 1.16100 0.38800 1.46400
C15 C 1.08000 0.34500 1.50600
N1 N 1.09300 0.19900 1.03400
N2 N 1.10700 -0.05200 0.76700
N3 N 1.11900 0.44100 1.04200
O1 O 0.95800 0.31900 0.96400
O2 O 1.29800 0.55700 1.13300
O3 O 1.21200 0.06800 1.12300
N1A N 0.90700 -0.19900 0.96600
N2A N 0.89300 0.05200 1.23300
C9A C 0.95200 -0.31300 0.98300
C12A C 0.81300 -0.17100 0.90800
C4A C 0.90400 -0.01000 1.34900
C8A C 0.82100 0.16500 1.28600
N3A N 0.88100 -0.44100 0.95800
O1A O 1.04200 -0.31900 1.03600
C11A C 0.71200 -0.31500 0.87700
O3A O 0.78800 -0.06800 0.87700
C5A C 0.84800 0.01100 1.52700
C7A C 0.74400 0.20300 1.47600
C10A C 0.78800 -0.44000 0.89600
C1A C 0.58400 -0.27100 0.99700
C13A C 0.69400 -0.33800 0.66900
C6A C 0.76900 0.11500 1.57500
O2A O 0.70200 -0.55700 0.86700
C2A C 0.53400 -0.17000 1.12200
C14A C 0.83900 -0.38800 0.53600
Br1A Br 0.60500 -0.30800 1.29900
C3A C 0.55500 -0.04000 1.23500
C15A C 0.92000 -0.34500 0.49400
Br1 Br 1.39500 1.30800 -0.29900
Cu1 Cu 1.00000 1.00000 0.00000
C1 C 1.41600 1.27100 0.00300
C2 C 1.46600 1.17000 -0.12200
C3 C 1.44500 1.04000 -0.23500
C4 C 1.09600 1.01000 -0.34900
C5 C 1.15200 0.98900 -0.52700
C6 C 1.23100 0.88500 -0.57500
C7 C 1.25600 0.79700 -0.47600
C8 C 1.17900 0.83500 -0.28600
C9 C 1.04800 1.31300 0.01700
C10 C 1.21200 1.44000 0.10400
C11 C 1.28800 1.31500 0.12300
C12 C 1.18700 1.17100 0.09200
C13 C 1.30600 1.33800 0.33100
C14 C 1.16100 1.38800 0.46400
C15 C 1.08000 1.34500 0.50600
N1 N 1.09300 1.19900 0.03400
N2 N 1.10700 0.94800 -0.23300
N3 N 1.11900 1.44100 0.04200
O1 O 0.95800 1.31900 -0.03600
O2 O 1.29800 1.55700 0.13300
O3 O 1.21200 1.06800 0.12300
N1A N 0.90700 0.80100 -0.03400
N2A N 0.89300 1.05200 0.23300
C9A C 0.95200 0.68700 -0.01700
C12A C 0.81300 0.82900 -0.09200
C4A C 0.90400 0.99000 0.34900
C8A C 0.82100 1.16500 0.28600
N3A N 0.88100 0.55900 -0.04200
O1A O 1.04200 0.68100 0.03600
C11A C 0.71200 0.68500 -0.12300
O3A O 0.78800 0.93200 -0.12300
C5A C 0.84800 1.01100 0.52700
C7A C 0.74400 1.20300 0.47600
C10A C 0.78800 0.56000 -0.10400
C1A C 0.58400 0.72900 -0.00300
C13A C 0.69400 0.66200 -0.33100
C6A C 0.76900 1.11500 0.57500
O2A O 0.70200 0.44300 -0.13300
C2A C 0.53400 0.83000 0.12200
C14A C 0.83900 0.61200 -0.46400
Br1A Br 0.60500 0.69200 0.29900
C3A C 0.55500 0.96000 0.23500
C15A C 0.92000 0.65500 -0.50600
Br1 Br 1.39500 1.30800 0.70100
Cu1 Cu 1.00000 1.00000 1.00000
C1 C 1.41600 1.27100 1.00300
C2 C 1.46600 1.17000 0.87800
C3 C 1.44500 1.04000 0.76500
C4 C 1.09600 1.01000 0.65100
C5 C 1.15200 0.98900 0.47300
C6 C 1.23100 0.88500 0.42500
C7 C 1.25600 0.79700 0.52400
C8 C 1.17900 0.83500 0.71400
C9 C 1.04800 1.31300 1.01700
C10 C 1.21200 1.44000 1.10400
C11 C 1.28800 1.31500 1.12300
C12 C 1.18700 1.17100 1.09200
C13 C 1.30600 1.33800 1.33100
C14 C 1.16100 1.38800 1.46400
C15 C 1.08000 1.34500 1.50600
N1 N 1.09300 1.19900 1.03400
N2 N 1.10700 0.94800 0.76700
N3 N 1.11900 1.44100 1.04200
O1 O 0.95800 1.31900 0.96400
O2 O 1.29800 1.55700 1.13300
O3 O 1.21200 1.06800 1.12300
N1A N 0.90700 0.80100 0.96600
N2A N 0.89300 1.05200 1.23300
C9A C 0.95200 0.68700 0.98300
C12A C 0.81300 0.82900 0.90800
C4A C 0.90400 0.99000 1.34900
C8A C 0.82100 1.16500 1.28600
N3A N 0.88100 0.55900 0.95800
O1A O 1.04200 0.68100 1.03600
C11A C 0.71200 0.68500 0.87700
O3A O 0.78800 0.93200 0.87700
C5A C 0.84800 1.01100 1.52700
C7A C 0.74400 1.20300 1.47600
C10A C 0.78800 0.56000 0.89600
C1A C 0.58400 0.72900 0.99700
C13A C 0.69400 0.66200 0.66900
C6A C 0.76900 1.11500 1.57500
O2A O 0.70200 0.44300 0.86700
C2A C 0.53400 0.83000 1.12200
C14A C 0.83900 0.61200 0.53600
Br1A Br 0.60500 0.69200 1.29900
C3A C 0.55500 0.96000 1.23500
C15A C 0.92000 0.65500 0.49400

#END
