
#######################################################################
#
#                 Cambridge Crystallographic Data Centre
#                                CCDC 
#
#######################################################################
#
# If this CIF has been generated from an entry in the Cambridge 
# Structural Database, then it will include bibliographic, chemical, 
# crystal, experimental, refinement or atomic coordinate data resulting 
# from the CCDC's data processing and validation procedures.
#
#######################################################################

data_ABAWIL
_symmetry_cell_setting           monoclinic
_symmetry_space_group_name_H-M   'P 21/c'
_symmetry_Int_Tables_number      14
_space_group_name_Hall           '-P 2ybc'
loop_
_symmetry_equiv_pos_site_id
_symmetry_equiv_pos_as_xyz
1 x,y,z
2 -x,1/2+y,1/2-z
3 -x,-y,-z
4 x,1/2-y,1/2+z
_cell_length_a                   13.2519(4)
_cell_length_b                   3.96160(10)
_cell_length_c                   14.4954(5)
_cell_angle_alpha                90
_cell_angle_beta                 91.832(2)
_cell_angle_gamma                90
_cell_volume                     760.601
loop_
_atom_site_label
_atom_site_type_symbol
_atom_site_fract_x
_atom_site_fract_y
_atom_site_fract_z
C1 C 0.7807(2) 0.5169(8) 0.5588(2)
O1 O 0.85164(17) 0.4753(7) 0.49493(16)
H1 H 0.9067(19) 0.554(12) 0.515(3)
N1 N 0.9743(2) 0.7654(8) 0.6124(2)
C2 C 0.8019(3) 0.6752(8) 0.6437(2)
O2 O 1.0654(2) 0.9034(8) 0.64601(18)
H2 H 1.103(3) 0.842(13) 0.604(3)
C3 C 0.7246(3) 0.7108(9) 0.7060(2)
H3 H 0.7378 0.8162 0.7624
C4 C 0.6288(3) 0.5914(11) 0.6848(3)
H4 H 0.5780 0.6166 0.7270
C5 C 0.6081(3) 0.4347(10) 0.6012(3)
H5 H 0.5435 0.3540 0.5870
Br1 Br 0.65673(3) 0.19672(10) 0.42270(2)
C6 C 0.6837(2) 0.3992(9) 0.5392(2)
C7 C 0.9018(3) 0.8077(9) 0.6676(2)
H6 H 0.9130 0.9227 0.7229
C1 C 0.2193(2) 0.0169(8) 0.9412(2)
O1 O 0.14836(17) -0.0247(7) 1.00507(16)
H1 H 0.0933(19) 0.054(12) 0.985(3)
N1 N 0.0257(2) 0.2654(8) 0.8876(2)
C2 C 0.1981(3) 0.1752(8) 0.8563(2)
O2 O -0.0654(2) 0.4034(8) 0.85399(18)
H2 H -0.103(3) 0.342(13) 0.896(3)
C3 C 0.2754(3) 0.2108(9) 0.7940(2)
H3 H 0.2622 0.3162 0.7376
C4 C 0.3712(3) 0.0914(11) 0.8152(3)
H4 H 0.4220 0.1166 0.7730
C5 C 0.3919(3) -0.0653(10) 0.8988(3)
H5 H 0.4565 -0.1460 0.9130
Br1 Br 0.34327(3) -0.30328(10) 1.07730(2)
C6 C 0.3163(2) -0.1008(9) 0.9608(2)
C7 C 0.0982(3) 0.3077(9) 0.8324(2)
H6 H 0.0870 0.4227 0.7771
C1 C 0.2193(2) 0.4831(8) 0.4412(2)
O1 O 0.14836(17) 0.5247(7) 0.50507(16)
H1 H 0.0933(19) 0.446(12) 0.485(3)
N1 N 0.0257(2) 0.2346(8) 0.3876(2)
C2 C 0.1981(3) 0.3248(8) 0.3563(2)
O2 O -0.0654(2) 0.0966(8) 0.35399(18)
H2 H -0.103(3) 0.158(13) 0.396(3)
C3 C 0.2754(3) 0.2892(9) 0.2940(2)
H3 H 0.2622 0.1838 0.2376
C4 C 0.3712(3) 0.4086(11) 0.3152(3)
H4 H 0.4220 0.3834 0.2730
C5 C 0.3919(3) 0.5653(10) 0.3988(3)
H5 H 0.4565 0.6460 0.4130
Br1 Br 0.34327(3) 0.80328(10) 0.57730(2)
C6 C 0.3163(2) 0.6008(9) 0.4608(2)
C7 C 0.0982(3) 0.1923(9) 0.3324(2)
H6 H 0.0870 0.0773 0.2771
C1 C 0.7807(2) 0.9831(8) 0.0588(2)
O1 O 0.85164(17) 1.0247(7) -0.00507(16)
H1 H 0.9067(19) 0.946(12) 0.015(3)
N1 N 0.9743(2) 0.7346(8) 0.1124(2)
C2 C 0.8019(3) 0.8248(8) 0.1437(2)
O2 O 1.0654(2) 0.5966(8) 0.14601(18)
H2 H 1.103(3) 0.658(13) 0.104(3)
C3 C 0.7246(3) 0.7892(9) 0.2060(2)
H3 H 0.7378 0.6838 0.2624
C4 C 0.6288(3) 0.9086(11) 0.1848(3)
H4 H 0.5780 0.8834 0.2270
C5 C 0.6081(3) 1.0653(10) 0.1012(3)
H5 H 0.5435 1.1460 0.0870
Br1 Br 0.65673(3) 1.30328(10) -0.07730(2)
C6 C 0.6837(2) 1.1008(9) 0.0392(2)
C7 C 0.9018(3) 0.6923(9) 0.1676(2)
H6 H 0.9130 0.5773 0.2229

#END
