
#######################################################################
#
#                 Cambridge Crystallographic Data Centre
#                                CCDC 
#
#######################################################################
#
# If this CIF has been generated from an entry in the Cambridge 
# Structural Database, then it will include bibliographic, chemical, 
# crystal, experimental, refinement or atomic coordinate data resulting 
# from the CCDC's data processing and validation procedures.
#
#######################################################################

data_ABAYUX
_symmetry_cell_setting           triclinic
_symmetry_space_group_name_H-M   'P -1'
_symmetry_Int_Tables_number      2
_space_group_name_Hall           '-P 1'
loop_
_symmetry_equiv_pos_site_id
_symmetry_equiv_pos_as_xyz
1 x,y,z
2 -x,-y,-z
_cell_length_a                   10.264(2)
_cell_length_b                   11.013(2)
_cell_length_c                   12.600(3)
_cell_angle_alpha                109.93(3)
_cell_angle_beta                 108.35(3)
_cell_angle_gamma                96.60(3)
_cell_volume                     1230.83
loop_
_atom_site_label
_atom_site_type_symbol
_atom_site_fract_x
_atom_site_fract_y
_atom_site_fract_z
Na1 Na 0.4635(1) 0.5384(1) 0.3634(1)
O1 O 0.6351(3) 0.4083(2) 0.3688(2)
O2 O 0.2743(3) 0.5901(3) 0.4275(2)
O4 O 0.3335(3) 0.4020(2) 0.4543(2)
O6 O 0.3187(3) 0.4411(3) 0.1562(2)
O7 O 0.5509(3) 0.7231(2) 0.3303(2)
C1 C 0.6823(4) 0.3682(4) 0.2752(3)
C2 C 0.6424(4) 0.2350(5) 0.1982(4)
C3 C 0.6797(5) 0.1909(6) 0.0983(4)
C4 C 0.7625(6) 0.2810(7) 0.0779(4)
C5 C 0.8058(5) 0.4131(6) 0.1551(4)
C6 C 0.7646(4) 0.4580(4) 0.2552(4)
C7 C 0.2032(4) 0.6856(3) 0.4237(3)
C8 C 0.1109(4) 0.7108(4) 0.4838(3)
C9 C 0.0300(5) 0.7995(5) 0.4662(4)
C10 C 0.0397(5) 0.8620(5) 0.3913(4)
C11 C 0.1335(4) 0.8391(4) 0.3333(3)
C12 C 0.2146(4) 0.7511(4) 0.3496(3)
C13 C 0.2639(4) 0.2847(3) 0.3534(3)
C14 C 0.1124(5) 0.2474(4) 0.2954(4)
C15 C 0.0478(4) 0.1228(4) 0.1937(3)
C16 C 0.1327(4) 0.0479(4) 0.1542(3)
C17 C 0.2763(4) 0.0894(4) 0.2142(3)
C18 C 0.3407(4) 0.2038(4) 0.3120(4)
C19 C 0.3494(7) 0.3822(8) 0.0523(6)
C21 C 0.2096(6) 0.2695(5) -0.0379(5)
C22 C 0.0958(5) 0.3200(5) 0.0056(4)
C23 C 0.1758(4) 0.4469(4) 0.1136(3)
C24 C 0.6115(5) 0.8557(4) 0.4211(4)
C25 C 0.5861(6) 0.9454(5) 0.3560(4)
C26 C 0.5924(7) 0.8663(5) 0.2371(5)
C27 C 0.5455(7) 0.7249(4) 0.2179(4)
B1 B 0.7362(4) 0.4912(4) 0.5002(3)
H1 H 0.5874(4) 0.1719(5) 0.2143(4)
H2 H 0.6493(5) 0.0984(6) 0.0437(4)
H3 H 0.7893(6) 0.2506(7) 0.0087(4)
H4 H 0.8640(5) 0.4743(6) 0.1395(4)
H5 H 0.7949(4) 0.5506(4) 0.3095(4)
H6 H 0.1024(4) 0.6665(4) 0.5359(3)
H7 H -0.0337(5) 0.8177(5) 0.5082(4)
H8 H -0.0186(5) 0.9220(5) 0.3793(4)
H9 H 0.1418(4) 0.8840(4) 0.2816(3)
H10 H 0.2797(4) 0.7346(4) 0.3089(3)
H11 H 0.0567(5) 0.3051(4) 0.3245(4)
H12 H -0.0534(4) 0.0925(4) 0.1535(3)
H13 H 0.0910(4) -0.0352(4) 0.0842(3)
H14 H 0.3335(4) 0.0342(4) 0.1842(3)
H15 H 0.4419(4) 0.2287(4) 0.3532(4)
H16 H 0.4294(7) 0.3446(8) 0.0699(6)
H17 H 0.3672(7) 0.4454(8) 0.0184(6)
H20 H 0.1947(6) 0.1997(5) -0.1146(5)
H21 H 0.0497(5) 0.2573(5) 0.0279(4)
H22 H 0.0261(5) 0.3354(5) -0.0566(4)
H23 H 0.1684(4) 0.5216(4) 0.0912(3)
H24 H 0.1386(4) 0.4567(4) 0.1763(3)
H25 H 0.7115(5) 0.8687(4) 0.4618(4)
H26 H 0.5687(5) 0.8727(4) 0.4807(4)
H27 H 0.6569(6) 1.0286(5) 0.3987(4)
H28 H 0.4942(6) 0.9625(5) 0.3450(4)
H29 H 0.6879(7) 0.8847(5) 0.2412(5)
H30 H 0.5325(7) 0.8862(5) 0.1727(5)
H31 H 0.4500(7) 0.6880(4) 0.1591(4)
H32 H 0.6049(7) 0.6726(4) 0.1880(4)
H33 H 0.8569(4) 0.5395(4) 0.5184(3)
O2A O 0.7257(3) 0.4099(3) 0.5725(2)
Na1A Na 0.5365(1) 0.4616(1) 0.6366(1)
O1A O 0.3649(3) 0.5917(2) 0.6312(2)
C1A C 0.3177(4) 0.6318(4) 0.7248(3)
C2A C 0.3576(4) 0.7650(5) 0.8018(4)
C3A C 0.3203(5) 0.8091(6) 0.9017(4)
C4A C 0.2375(6) 0.7190(7) 0.9221(4)
C5A C 0.1942(5) 0.5869(6) 0.8449(4)
C6A C 0.2354(4) 0.5420(4) 0.7448(4)
H5A H 0.2051(4) 0.4494(4) 0.6905(4)
H4A H 0.1360(5) 0.5257(6) 0.8605(4)
H3A H 0.2107(6) 0.7494(7) 0.9913(4)
H2A H 0.3507(5) 0.9016(6) 0.9563(4)
H1A H 0.4126(4) 0.8281(5) 0.7857(4)
B1A B 0.2638(4) 0.5088(4) 0.4998(3)
O4A O 0.6665(3) 0.5980(2) 0.5457(2)
C13A C 0.7361(4) 0.7153(3) 0.6466(3)
C14A C 0.8876(5) 0.7526(4) 0.7046(4)
C15A C 0.9522(4) 0.8772(4) 0.8063(3)
C16A C 0.8673(4) 0.9521(4) 0.8458(3)
C17A C 0.7237(4) 0.9106(4) 0.7858(3)
C18A C 0.6593(4) 0.7962(4) 0.6880(4)
H15A H 0.5581(4) 0.7713(4) 0.6468(4)
H14A H 0.6665(4) 0.9658(4) 0.8158(3)
H13A H 0.9090(4) 1.0352(4) 0.9158(3)
H12A H 1.0534(4) 0.9075(4) 0.8465(3)
H11A H 0.9433(5) 0.6949(4) 0.6755(4)
O6A O 0.6813(3) 0.5589(3) 0.8438(2)
C19A C 0.6506(7) 0.6178(8) 0.9477(6)
C21A C 0.7904(6) 0.7305(5) 1.0379(5)
C22A C 0.9042(5) 0.6800(5) 0.9944(4)
C23A C 0.8242(4) 0.5531(4) 0.8864(3)
H23A H 0.8316(4) 0.4784(4) 0.9088(3)
H24A H 0.8614(4) 0.5433(4) 0.8237(3)
H21A H 0.9503(5) 0.7427(5) 0.9721(4)
H22A H 0.9739(5) 0.6646(5) 1.0566(4)
H20A H 0.8053(6) 0.8003(5) 1.1146(5)
H16A H 0.5706(7) 0.6554(8) 0.9301(6)
H17A H 0.6328(7) 0.5546(8) 0.9816(6)
O7A O 0.4491(3) 0.2769(2) 0.6697(2)
C24A C 0.3885(5) 0.1443(4) 0.5789(4)
C25A C 0.4139(6) 0.0546(5) 0.6440(4)
C26A C 0.4076(7) 0.1337(5) 0.7629(5)
C27A C 0.4545(7) 0.2751(4) 0.7821(4)
H31A H 0.5500(7) 0.3120(4) 0.8409(4)
H32A H 0.3951(7) 0.3274(4) 0.8120(4)
H29A H 0.3121(7) 0.1153(5) 0.7588(5)
H30A H 0.4675(7) 0.1138(5) 0.8273(5)
H27A H 0.3431(6) -0.0286(5) 0.6013(4)
H28A H 0.5058(6) 0.0375(5) 0.6550(4)
H25A H 0.2885(5) 0.1313(4) 0.5382(4)
H26A H 0.4313(5) 0.1273(4) 0.5193(4)
H33A H 0.1431(4) 0.4605(4) 0.4816(3)
C7A C 0.7968(4) 0.3144(3) 0.5763(3)
C8A C 0.8891(4) 0.2892(4) 0.5162(3)
C9A C 0.9700(5) 0.2005(5) 0.5338(4)
C10A C 0.9603(5) 0.1380(5) 0.6087(4)
C11A C 0.8665(4) 0.1609(4) 0.6667(3)
C12A C 0.7854(4) 0.2489(4) 0.6504(3)
H10A H 0.7203(4) 0.2654(4) 0.6911(3)
H9A H 0.8582(4) 0.1160(4) 0.7184(3)
H8A H 1.0186(5) 0.0780(5) 0.6207(4)
H7A H 1.0337(5) 0.1823(5) 0.4918(4)
H6A H 0.8976(4) 0.3335(4) 0.4641(3)
O3? O 0.3477(4) 0.6574(4) 0.4749(3)
O5? O 0.4320(4) 0.3372(4) 0.4101(3)
C20? C 0.3325(9) 0.3284(10) 0.0593(8)
B2? B 0.5652(4) 0.3027(4) 0.4000(3)
H18? H 0.3635(9) 0.2641(10) 0.0907(8)
H19? H 0.4031(9) 0.3604(10) 0.0336(8)
O3? O 0.6523(4) 0.3426(4) 0.5251(3)
O5? O 0.5680(4) 0.6628(4) 0.5899(3)
C20? C 0.6675(9) 0.6716(10) 0.9407(8)
B2? B 0.4348(4) 0.6973(4) 0.6000(3)
H18? H 0.6365(9) 0.7359(10) 0.9093(8)
H19? H 0.5969(9) 0.6396(10) 0.9664(8)

#END
