
#######################################################################
#
#                 Cambridge Crystallographic Data Centre
#                                CCDC 
#
#######################################################################
#
# If this CIF has been generated from an entry in the Cambridge 
# Structural Database, then it will include bibliographic, chemical, 
# crystal, experimental, refinement or atomic coordinate data resulting 
# from the CCDC's data processing and validation procedures.
#
#######################################################################

data_ABCOCX
_symmetry_cell_setting           monoclinic
_symmetry_space_group_name_H-M   'P 21'
_symmetry_Int_Tables_number      4
_space_group_name_Hall           'P 2yb'
loop_
_symmetry_equiv_pos_site_id
_symmetry_equiv_pos_as_xyz
1 x,y,z
2 -x,1/2+y,-z
_cell_length_a                   12.590(13)
_cell_length_b                   6.477(8)
_cell_length_c                   5.810(7)
_cell_angle_alpha                90
_cell_angle_beta                 100.68(31)
_cell_angle_gamma                90
_cell_volume                     465.572
loop_
_atom_site_label
_atom_site_type_symbol
_atom_site_fract_x
_atom_site_fract_y
_atom_site_fract_z
C1 C 0.28530 0.95650 0.80820
C2 C 0.18360 0.88650 0.63460
C3 C 0.21040 0.70950 0.48150
C4 C 0.29140 0.55060 0.60600
C5 C 0.38480 0.65060 0.77470
C6 C 0.44180 0.82080 0.65790
C7 C 0.37710 1.02100 0.67610
C8 C 0.33690 0.77230 0.95320
C9 C 0.13180 1.07020 0.48510
N1 N 0.10000 0.81530 0.77480
O1 O 0.06700 1.18050 0.57260
O2 O 0.15760 1.09950 0.29210
H1 H 0.08100 0.92500 0.87700
H2 H 0.12600 0.69100 0.87700
H3 H 0.03300 0.76600 0.66500
H4 H 0.26400 1.07700 0.91800
H5 H 0.13600 0.62700 0.40900
H6 H 0.24300 0.77400 0.33700
H7 H 0.25100 0.44400 0.70400
H8 H 0.32500 0.46200 0.47600
H9 H 0.44200 0.53300 0.85700
H10 H 0.52400 0.83600 0.75200
H11 H 0.44200 0.78300 0.47900
H12 H 0.42900 1.13600 0.77900
H13 H 0.34600 1.08200 0.50700
H14 H 0.39800 0.82000 1.09700
H15 H 0.27600 0.68000 1.02000
C1 C 0.71470 0.45650 0.19180
C2 C 0.81640 0.38650 0.36540
C3 C 0.78960 0.20950 0.51850
C4 C 0.70860 0.05060 0.39400
C5 C 0.61520 0.15060 0.22530
C6 C 0.55820 0.32080 0.34210
C7 C 0.62290 0.52100 0.32390
C8 C 0.66310 0.27230 0.04680
C9 C 0.86820 0.57020 0.51490
N1 N 0.90000 0.31530 0.22520
O1 O 0.93300 0.68050 0.42740
O2 O 0.84240 0.59950 0.70790
H1 H 0.91900 0.42500 0.12300
H2 H 0.87400 0.19100 0.12300
H3 H 0.96700 0.26600 0.33500
H4 H 0.73600 0.57700 0.08200
H5 H 0.86400 0.12700 0.59100
H6 H 0.75700 0.27400 0.66300
H7 H 0.74900 -0.05600 0.29600
H8 H 0.67500 -0.03800 0.52400
H9 H 0.55800 0.03300 0.14300
H10 H 0.47600 0.33600 0.24800
H11 H 0.55800 0.28300 0.52100
H12 H 0.57100 0.63600 0.22100
H13 H 0.65400 0.58200 0.49300
H14 H 0.60200 0.32000 -0.09700
H15 H 0.72400 0.18000 -0.02000
O3 O 0.09430 0.41880 0.98200
H16 H 0.08500 0.38800 0.83200
H17 H 0.11700 0.30000 1.09300
O3 O 0.90570 0.91880 0.01800
H16 H 0.91500 0.88800 0.16800
H17 H 0.88300 0.80000 -0.09300

#END
