
#######################################################################
#
#                 Cambridge Crystallographic Data Centre
#                                CCDC 
#
#######################################################################
#
# If this CIF has been generated from an entry in the Cambridge 
# Structural Database, then it will include bibliographic, chemical, 
# crystal, experimental, refinement or atomic coordinate data resulting 
# from the CCDC's data processing and validation procedures.
#
#######################################################################

data_LADBEZ
_symmetry_cell_setting           monoclinic
_symmetry_space_group_name_H-M   'P n'
_symmetry_Int_Tables_number      7
_space_group_name_Hall           'P -2yac'
loop_
_symmetry_equiv_pos_site_id
_symmetry_equiv_pos_as_xyz
1 x,y,z
2 1/2+x,-y,1/2+z
_cell_length_a                   6.6153(14)
_cell_length_b                   7.9832(17)
_cell_length_c                   11.143(3)
_cell_angle_alpha                90
_cell_angle_beta                 99.763(5)
_cell_angle_gamma                90
_cell_volume                     579.953
loop_
_atom_site_label
_atom_site_type_symbol
_atom_site_fract_x
_atom_site_fract_y
_atom_site_fract_z
Cl1 Cl 1.31206(5) -0.07140(4) 0.70170(4)
C1 C 0.71072(18) 0.20955(15) 0.61766(11)
C2 C 0.50914(19) 0.30194(16) 0.58519(12)
O1 O 0.42670(13) 0.36028(13) 0.67133(8)
O2 O 0.43622(15) 0.31383(15) 0.47398(9)
C3 C 0.82948(19) 0.18274(16) 0.52680(12)
H1 H 0.7818 0.2221 0.4465
C4 C 1.0168(2) 0.09907(18) 0.55255(13)
H2 H 1.0986 0.0832 0.4911
C5 C 1.08162(19) 0.03923(17) 0.67032(13)
C6 C 0.9662(2) 0.06238(16) 0.76223(12)
H3 H 1.0122 0.0196 0.8417
C7 C 0.78107(18) 0.14978(17) 0.73546(11)
H4 H 0.7021 0.1689 0.7978
Cl1 Cl 0.81206(5) 1.07140(4) 0.20170(4)
C1 C 0.21072(18) 0.79045(15) 0.11766(11)
C2 C 0.00914(19) 0.69806(16) 0.08519(12)
O1 O -0.07330(13) 0.63972(13) 0.17133(8)
O2 O -0.06378(15) 0.68617(15) -0.02602(9)
C3 C 0.32948(19) 0.81726(16) 0.02680(12)
H1 H 0.2818 0.7779 -0.0535
C4 C 0.5168(2) 0.90093(18) 0.05255(13)
H2 H 0.5986 0.9168 -0.0089
C5 C 0.58162(19) 0.96077(17) 0.17032(13)
C6 C 0.4662(2) 0.93762(16) 0.26223(12)
H3 H 0.5122 0.9804 0.3417
C7 C 0.28107(18) 0.85022(17) 0.23546(11)
H4 H 0.2021 0.8311 0.2978
N1 N 1.07154(17) 0.53677(14) 0.61005(10)
H5 H 1.195(3) 0.475(2) 0.6264(17)
C8 C 1.0012(2) 0.57710(15) 0.49133(11)
N2 N 1.10432(19) 0.52373(17) 0.40639(10)
H6 H 1.215(4) 0.454(2) 0.4275(19)
H7 H 1.050(4) 0.555(2) 0.332(2)
C9 C 0.8191(2) 0.67453(17) 0.46475(12)
H8 H 0.7670 0.7062 0.3832
C10 C 0.7194(2) 0.72237(17) 0.55703(13)
H9 H 0.5963 0.7856 0.5390
C11 C 0.7979(2) 0.67856(16) 0.67958(12)
H10 H 0.7298 0.7125 0.7440
C12 C 0.9735(2) 0.58656(16) 0.70216(11)
H11 H 1.0288 0.5565 0.7836
N1 N 0.57154(17) 0.46323(14) 0.11005(10)
H5 H 0.695(3) 0.525(2) 0.1264(17)
C8 C 0.5012(2) 0.42290(15) -0.00867(11)
N2 N 0.60432(19) 0.47627(17) -0.09361(10)
H6 H 0.715(4) 0.546(2) -0.0725(19)
H7 H 0.550(4) 0.445(2) -0.168(2)
C9 C 0.3191(2) 0.32547(17) -0.03525(12)
H8 H 0.2670 0.2938 -0.1168
C10 C 0.2194(2) 0.27763(17) 0.05703(13)
H9 H 0.0963 0.2144 0.0390
C11 C 0.2979(2) 0.32144(16) 0.17958(12)
H10 H 0.2298 0.2875 0.2440
C12 C 0.4735(2) 0.41344(16) 0.20216(11)
H11 H 0.5288 0.4435 0.2836

#END
