
#######################################################################
#
#                 Cambridge Crystallographic Data Centre
#                                CCDC 
#
#######################################################################
#
# If this CIF has been generated from an entry in the Cambridge 
# Structural Database, then it will include bibliographic, chemical, 
# crystal, experimental, refinement or atomic coordinate data resulting 
# from the CCDC's data processing and validation procedures.
#
#######################################################################

data_LADBEZ01
_symmetry_cell_setting           monoclinic
_symmetry_space_group_name_H-M   'P n'
_symmetry_Int_Tables_number      7
_space_group_name_Hall           'P -2yac'
loop_
_symmetry_equiv_pos_site_id
_symmetry_equiv_pos_as_xyz
1 x,y,z
2 1/2+x,-y,1/2+z
_cell_length_a                   6.6045(2)
_cell_length_b                   7.9601(3)
_cell_length_c                   11.1004(4)
_cell_angle_alpha                90
_cell_angle_beta                 99.625(2)
_cell_angle_gamma                90
_cell_volume                     575.361
loop_
_atom_site_label
_atom_site_type_symbol
_atom_site_fract_x
_atom_site_fract_y
_atom_site_fract_z
C1 C 0.8340(3) 0.7099(3) 0.51992(19)
C2 C 0.7627(3) 0.6505(3) 0.40294(18)
H1 H 0.8415 0.6695 0.3400
C3 C 0.5786(3) 0.5640(3) 0.3764(2)
H2 H 0.5323 0.5220 0.2964
C4 C 0.4630(3) 0.5398(3) 0.4681(2)
C5 C 0.5282(3) 0.5991(3) 0.5852(2)
H3 H 0.4464 0.5828 0.6470
C6 C 0.7152(3) 0.6831(3) 0.6115(2)
H4 H 0.7626 0.7225 0.6920
C7 C 1.0344(3) 0.8025(3) 0.5524(2)
O1 O 1.1171(2) 0.8604(2) 0.46639(12)
O2 O 1.1075(2) 0.8149(2) 0.66360(14)
Cl1 Cl 0.23298(8) 0.42930(7) 0.43669(6)
C1 C 0.3340(3) 0.2901(3) 0.01992(19)
C2 C 0.2627(3) 0.3495(3) -0.09706(18)
H1 H 0.3415 0.3305 -0.1600
C3 C 0.0786(3) 0.4360(3) -0.1236(2)
H2 H 0.0323 0.4780 -0.2036
C4 C -0.0370(3) 0.4602(3) -0.0319(2)
C5 C 0.0282(3) 0.4009(3) 0.0852(2)
H3 H -0.0536 0.4172 0.1470
C6 C 0.2152(3) 0.3169(3) 0.1115(2)
H4 H 0.2626 0.2775 0.1920
C7 C 0.5344(3) 0.1975(3) 0.0524(2)
O1 O 0.6171(2) 0.1396(2) -0.03361(12)
O2 O 0.6075(2) 0.1851(2) 0.16360(14)
Cl1 Cl -0.26702(8) 0.57070(7) -0.06331(6)
C8 C 0.5430(3) 0.0775(3) 0.6460(2)
C9 C 0.7241(3) 0.1745(3) 0.6721(2)
H5 H 0.7760 0.2064 0.7539
C10 C 0.8236(3) 0.2220(3) 0.5804(2)
H6 H 0.9473 0.2849 0.5984
C11 C 0.7449(4) 0.1788(3) 0.4586(2)
H7 H 0.8129 0.2134 0.3938
C12 C 0.5698(3) 0.0865(3) 0.4355(2)
H8 H 0.5149 0.0565 0.3537
N1 N 0.4723(3) 0.0367(2) 0.52769(16)
N2 N 0.4393(3) 0.0237(3) 0.73116(17)
H9 H 0.342(4) -0.026(3) 0.510(2)
H10 H 0.313(5) -0.044(3) 0.706(2)
H11 H 0.494(5) 0.053(4) 0.812(3)
C8 C 0.0430(3) 0.9225(3) 0.1460(2)
C9 C 0.2241(3) 0.8255(3) 0.1721(2)
H5 H 0.2760 0.7936 0.2539
C10 C 0.3236(3) 0.7780(3) 0.0804(2)
H6 H 0.4473 0.7151 0.0984
C11 C 0.2449(4) 0.8212(3) -0.0414(2)
H7 H 0.3129 0.7866 -0.1062
C12 C 0.0698(3) 0.9135(3) -0.0645(2)
H8 H 0.0149 0.9435 -0.1463
N1 N -0.0277(3) 0.9633(2) 0.02769(16)
N2 N -0.0607(3) 0.9763(3) 0.23116(17)
H9 H -0.158(4) 1.026(3) 0.010(2)
H10 H -0.187(5) 1.044(3) 0.206(2)
H11 H -0.006(5) 0.947(4) 0.312(3)

#END
