
#######################################################################
#
#                 Cambridge Crystallographic Data Centre
#                                CCDC 
#
#######################################################################
#
# If this CIF has been generated from an entry in the Cambridge 
# Structural Database, then it will include bibliographic, chemical, 
# crystal, experimental, refinement or atomic coordinate data resulting 
# from the CCDC's data processing and validation procedures.
#
#######################################################################

data_LADBOJ
_symmetry_cell_setting           orthorhombic
_symmetry_space_group_name_H-M   'P c a 21'
_symmetry_Int_Tables_number      29
_space_group_name_Hall           'P 2c -2ac'
loop_
_symmetry_equiv_pos_site_id
_symmetry_equiv_pos_as_xyz
1 x,y,z
2 -x,-y,1/2+z
3 1/2+x,-y,z
4 1/2-x,y,1/2+z
_cell_length_a                   12.3903(8)
_cell_length_b                   5.6871(3)
_cell_length_c                   18.0290(11)
_cell_angle_alpha                90
_cell_angle_beta                 90
_cell_angle_gamma                90
_cell_volume                     1270.41
loop_
_atom_site_label
_atom_site_type_symbol
_atom_site_fract_x
_atom_site_fract_y
_atom_site_fract_z
Br1 Br 0.271620(13) 1.14065(3) 0.830808(16)
N1 N 0.17877(16) 0.5996(4) 0.69488(12)
H1 H 0.2130(19) 0.497(5) 0.6705(15)
C1 C 0.07213(16) 0.6331(3) 0.68198(13)
N2 N 0.02009(13) 0.4839(3) 0.63764(11)
H2 H 0.049(3) 0.385(4) 0.6239(17)
H3 H -0.052(2) 0.503(5) 0.6278(14)
C2 C 0.02128(17) 0.8256(4) 0.71664(13)
H4 H -0.0536 0.8520 0.7089
C3 C 0.07799(15) 0.9736(4) 0.76099(11)
H5 H 0.0433 1.1035 0.7840
C4 C 0.18883(16) 0.9324(4) 0.77258(10)
C5 C 0.23691(15) 0.7439(4) 0.73962(12)
H6 H 0.3113 0.7134 0.7480
Br1 Br 0.728380(13) -0.14065(3) 0.330808(16)
N1 N 0.82123(16) 0.4004(4) 0.19488(12)
H1 H 0.7870(19) 0.503(5) 0.1705(15)
C1 C 0.92787(16) 0.3669(3) 0.18198(13)
N2 N 0.97991(13) 0.5161(3) 0.13764(11)
H2 H 0.951(3) 0.615(4) 0.1239(17)
H3 H 1.052(2) 0.497(5) 0.1278(14)
C2 C 0.97872(17) 0.1744(4) 0.21664(13)
H4 H 1.0536 0.1480 0.2089
C3 C 0.92201(15) 0.0264(4) 0.26099(11)
H5 H 0.9567 -0.1035 0.2840
C4 C 0.81117(16) 0.0676(4) 0.27258(10)
C5 C 0.76309(15) 0.2561(4) 0.23962(12)
H6 H 0.6887 0.2866 0.2480
Br1 Br 0.771620(13) -0.14065(3) 0.830808(16)
N1 N 0.67877(16) 0.4004(4) 0.69488(12)
H1 H 0.7130(19) 0.503(5) 0.6705(15)
C1 C 0.57213(16) 0.3669(3) 0.68198(13)
N2 N 0.52009(13) 0.5161(3) 0.63764(11)
H2 H 0.549(3) 0.615(4) 0.6239(17)
H3 H 0.448(2) 0.497(5) 0.6278(14)
C2 C 0.52128(17) 0.1744(4) 0.71664(13)
H4 H 0.4464 0.1480 0.7089
C3 C 0.57799(15) 0.0264(4) 0.76099(11)
H5 H 0.5433 -0.1035 0.7840
C4 C 0.68883(16) 0.0676(4) 0.77258(10)
C5 C 0.73691(15) 0.2561(4) 0.73962(12)
H6 H 0.8113 0.2866 0.7480
Br1 Br 0.228380(13) 1.14065(3) 0.330808(16)
N1 N 0.32123(16) 0.5996(4) 0.19488(12)
H1 H 0.2870(19) 0.497(5) 0.1705(15)
C1 C 0.42787(16) 0.6331(3) 0.18198(13)
N2 N 0.47991(13) 0.4839(3) 0.13764(11)
H2 H 0.451(3) 0.385(4) 0.1239(17)
H3 H 0.552(2) 0.503(5) 0.1278(14)
C2 C 0.47872(17) 0.8256(4) 0.21664(13)
H4 H 0.5536 0.8520 0.2089
C3 C 0.42201(15) 0.9736(4) 0.26099(11)
H5 H 0.4567 1.1035 0.2840
C4 C 0.31117(16) 0.9324(4) 0.27258(10)
C5 C 0.26309(15) 0.7439(4) 0.23962(12)
H6 H 0.1887 0.7134 0.2480
C6 C 0.31705(15) 0.9832(3) 0.53787(10)
C7 C 0.2517(3) 1.1439(3) 0.58823(17)
O1 O 0.30350(11) 1.3040(3) 0.62286(8)
O2 O 0.15347(12) 1.1109(3) 0.59107(9)
C8 C 0.26970(16) 0.7791(4) 0.50985(12)
H7 H 0.1975 0.7413 0.5230
C9 C 0.3267(2) 0.6308(4) 0.46309(17)
H8 H 0.2944 0.4913 0.4445
C10 C 0.43270(17) 0.6898(4) 0.44359(12)
C11 C 0.48054(18) 0.8937(4) 0.46989(12)
H9 H 0.5518 0.9344 0.4553
C12 C 0.42295(15) 1.0383(4) 0.51801(12)
H10 H 0.4560 1.1757 0.5375
C13 C 0.49396(18) 0.5363(3) 0.39559(12)
N3 N 0.54524(17) 0.4185(3) 0.35774(12)
C6 C 0.68295(15) 0.0168(3) 1.03787(10)
C7 C 0.7483(3) -0.1439(3) 1.08823(17)
O1 O 0.69650(11) -0.3040(3) 1.12286(8)
O2 O 0.84653(12) -0.1109(3) 1.09107(9)
C8 C 0.73030(16) 0.2209(4) 1.00985(12)
H7 H 0.8025 0.2587 1.0230
C9 C 0.6733(2) 0.3692(4) 0.96309(17)
H8 H 0.7056 0.5087 0.9445
C10 C 0.56730(17) 0.3102(4) 0.94359(12)
C11 C 0.51946(18) 0.1063(4) 0.96989(12)
H9 H 0.4482 0.0656 0.9553
C12 C 0.57705(15) -0.0383(4) 1.01801(12)
H10 H 0.5440 -0.1757 1.0375
C13 C 0.50604(18) 0.4637(3) 0.89559(12)
N3 N 0.45476(17) 0.5815(3) 0.85774(12)
C6 C 0.81705(15) 0.0168(3) 0.53787(10)
C7 C 0.7517(3) -0.1439(3) 0.58823(17)
O1 O 0.80350(11) -0.3040(3) 0.62286(8)
O2 O 0.65347(12) -0.1109(3) 0.59107(9)
C8 C 0.76970(16) 0.2209(4) 0.50985(12)
H7 H 0.6975 0.2587 0.5230
C9 C 0.8267(2) 0.3692(4) 0.46309(17)
H8 H 0.7944 0.5087 0.4445
C10 C 0.93270(17) 0.3102(4) 0.44359(12)
C11 C 0.98054(18) 0.1063(4) 0.46989(12)
H9 H 1.0518 0.0656 0.4553
C12 C 0.92295(15) -0.0383(4) 0.51801(12)
H10 H 0.9560 -0.1757 0.5375
C13 C 0.99396(18) 0.4637(3) 0.39559(12)
N3 N 1.04524(17) 0.5815(3) 0.35774(12)
C6 C 0.18295(15) 0.9832(3) 1.03787(10)
C7 C 0.2483(3) 1.1439(3) 1.08823(17)
O1 O 0.19650(11) 1.3040(3) 1.12286(8)
O2 O 0.34653(12) 1.1109(3) 1.09107(9)
C8 C 0.23030(16) 0.7791(4) 1.00985(12)
H7 H 0.3025 0.7413 1.0230
C9 C 0.1733(2) 0.6308(4) 0.96309(17)
H8 H 0.2056 0.4913 0.9445
C10 C 0.06730(17) 0.6898(4) 0.94359(12)
C11 C 0.01946(18) 0.8937(4) 0.96989(12)
H9 H -0.0518 0.9344 0.9553
C12 C 0.07705(15) 1.0383(4) 1.01801(12)
H10 H 0.0440 1.1757 1.0375
C13 C 0.00604(18) 0.5363(3) 0.89559(12)
N3 N -0.04524(17) 0.4185(3) 0.85774(12)

#END
