
#######################################################################
#
#                 Cambridge Crystallographic Data Centre
#                                CCDC 
#
#######################################################################
#
# If this CIF has been generated from an entry in the Cambridge 
# Structural Database, then it will include bibliographic, chemical, 
# crystal, experimental, refinement or atomic coordinate data resulting 
# from the CCDC's data processing and validation procedures.
#
#######################################################################

data_LADBID
_symmetry_cell_setting           monoclinic
_symmetry_space_group_name_H-M   'P 21/n'
_symmetry_Int_Tables_number      14
_space_group_name_Hall           '-P 2yn'
loop_
_symmetry_equiv_pos_site_id
_symmetry_equiv_pos_as_xyz
1 x,y,z
2 1/2-x,1/2+y,1/2-z
3 -x,-y,-z
4 1/2+x,1/2-y,1/2+z
_cell_length_a                   8.2382(6)
_cell_length_b                   7.3603(5)
_cell_length_c                   17.7902(11)
_cell_angle_alpha                90
_cell_angle_beta                 102.979(3)
_cell_angle_gamma                90
_cell_volume                     1051.16
loop_
_atom_site_label
_atom_site_type_symbol
_atom_site_fract_x
_atom_site_fract_y
_atom_site_fract_z
N1 N 0.51614(9) 0.92064(9) 0.15436(4)
H1 H 0.4781(14) 1.0339(16) 0.1236(6)
C1 C 0.47027(10) 0.88778(11) 0.22143(4)
N2 N 0.38003(10) 1.01187(11) 0.24821(4)
H2 H 0.3459(16) 1.1148(18) 0.2202(7)
H3 H 0.3319(16) 0.9780(17) 0.2867(7)
C2 C 0.52001(11) 0.72205(12) 0.26048(5)
H4 H 0.4902 0.6961 0.3079
C3 C 0.61116(11) 0.60006(13) 0.22934(5)
H5 H 0.6438 0.4884 0.2551
C4 C 0.65714(12) 0.63806(13) 0.15945(5)
H6 H 0.7218 0.5543 0.1379
C5 C 0.60623(11) 0.79883(12) 0.12352(5)
H7 H 0.6346 0.8259 0.0758
N1 N 0.98386(9) 0.42064(9) 0.34564(4)
H1 H 1.0219(14) 0.5339(16) 0.3764(6)
C1 C 1.02973(10) 0.38778(11) 0.27857(4)
N2 N 1.11997(10) 0.51187(11) 0.25179(4)
H2 H 1.1541(16) 0.6148(18) 0.2798(7)
H3 H 1.1681(16) 0.4780(17) 0.2133(7)
C2 C 0.97999(11) 0.22205(12) 0.23952(5)
H4 H 1.0098 0.1961 0.1921
C3 C 0.88884(11) 0.10006(13) 0.27066(5)
H5 H 0.8562 -0.0116 0.2449
C4 C 0.84286(12) 0.13806(13) 0.34055(5)
H6 H 0.7782 0.0543 0.3621
C5 C 0.89377(11) 0.29883(12) 0.37648(5)
H7 H 0.8654 0.3259 0.4242
N1 N 0.48386(9) 0.07936(9) 0.84564(4)
H1 H 0.5219(14) -0.0339(16) 0.8764(6)
C1 C 0.52973(10) 0.11222(11) 0.77857(4)
N2 N 0.61997(10) -0.01187(11) 0.75179(4)
H2 H 0.6541(16) -0.1148(18) 0.7798(7)
H3 H 0.6681(16) 0.0220(17) 0.7133(7)
C2 C 0.47999(11) 0.27795(12) 0.73952(5)
H4 H 0.5098 0.3039 0.6921
C3 C 0.38884(11) 0.39994(13) 0.77066(5)
H5 H 0.3562 0.5116 0.7449
C4 C 0.34286(12) 0.36194(13) 0.84055(5)
H6 H 0.2782 0.4457 0.8621
C5 C 0.39377(11) 0.20117(12) 0.87648(5)
H7 H 0.3654 0.1741 0.9242
N1 N 0.01614(9) 0.57936(9) 0.65436(4)
H1 H -0.0219(14) 0.4661(16) 0.6236(6)
C1 C -0.02973(10) 0.61222(11) 0.72143(4)
N2 N -0.11997(10) 0.48813(11) 0.74821(4)
H2 H -0.1541(16) 0.3852(18) 0.7202(7)
H3 H -0.1681(16) 0.5220(17) 0.7867(7)
C2 C 0.02001(11) 0.77795(12) 0.76048(5)
H4 H -0.0098 0.8039 0.8079
C3 C 0.11116(11) 0.89994(13) 0.72934(5)
H5 H 0.1438 1.0116 0.7551
C4 C 0.15714(12) 0.86194(13) 0.65945(5)
H6 H 0.2218 0.9457 0.6379
C5 C 0.10623(11) 0.70117(12) 0.62352(5)
H7 H 0.1346 0.6741 0.5758
C6 C 0.33195(10) -0.67957(11) 0.08966(4)
O1 O 0.42415(9) -0.79871(9) 0.06861(4)
O2 O 0.28338(9) -0.68525(8) 0.15118(3)
C7 C 0.27704(10) -0.52397(11) 0.03385(4)
H8 H 0.2064 -0.5739 -0.0142
H9 H 0.3772 -0.4706 0.0204
C8 C 0.18138(10) -0.37282(10) 0.06281(4)
H10 H 0.2516 -0.3203 0.1104
H11 H 0.0804 -0.4244 0.0761
C9 C 0.13022(11) -0.22256(11) 0.00329(5)
H12 H 0.2315 -0.1700 -0.0093
H13 H 0.0619 -0.2759 -0.0446
C10 C 0.03165(11) -0.07134(11) 0.03081(5)
H14 H 0.1033 -0.0114 0.0762
H15 H -0.0646 -0.1252 0.0475
C6B C -0.33195(10) 0.67957(11) -0.08966(4)
O1B O -0.42415(9) 0.79871(9) -0.06861(4)
O2B O -0.28338(9) 0.68525(8) -0.15118(3)
C7B C -0.27704(10) 0.52397(11) -0.03385(4)
H8B H -0.2064 0.5739 0.0142
H9B H -0.3772 0.4706 -0.0204
C8B C -0.18138(10) 0.37282(10) -0.06281(4)
H10B H -0.2516 0.3203 -0.1104
H11B H -0.0804 0.4244 -0.0761
C9B C -0.13022(11) 0.22256(11) -0.00329(5)
H12B H -0.2315 0.1700 0.0093
H13B H -0.0619 0.2759 0.0446
C10B C -0.03165(11) 0.07134(11) -0.03081(5)
H14B H -0.1033 0.0114 -0.0762
H15B H 0.0646 0.1252 -0.0475
C6 C 0.33195(10) -0.67957(11) 1.08966(4)
O1 O 0.42415(9) -0.79871(9) 1.06861(4)
O2 O 0.28338(9) -0.68525(8) 1.15118(3)
C7 C 0.27704(10) -0.52397(11) 1.03385(4)
H8 H 0.2064 -0.5739 0.9858
H9 H 0.3772 -0.4706 1.0204
C8 C 0.18138(10) -0.37282(10) 1.06281(4)
H10 H 0.2516 -0.3203 1.1104
H11 H 0.0804 -0.4244 1.0761
C9 C 0.13022(11) -0.22256(11) 1.00329(5)
H12 H 0.2315 -0.1700 0.9907
H13 H 0.0619 -0.2759 0.9554
C10 C 0.03165(11) -0.07134(11) 1.03081(5)
H14 H 0.1033 -0.0114 1.0762
H15 H -0.0646 -0.1252 1.0475
C6B C -0.33195(10) 0.67957(11) 0.91034(4)
O1B O -0.42415(9) 0.79871(9) 0.93139(4)
O2B O -0.28338(9) 0.68525(8) 0.84882(3)
C7B C -0.27704(10) 0.52397(11) 0.96615(4)
H8B H -0.2064 0.5739 1.0142
H9B H -0.3772 0.4706 0.9796
C8B C -0.18138(10) 0.37282(10) 0.93719(4)
H10B H -0.2516 0.3203 0.8896
H11B H -0.0804 0.4244 0.9239
C9B C -0.13022(11) 0.22256(11) 0.99671(5)
H12B H -0.2315 0.1700 1.0093
H13B H -0.0619 0.2759 1.0446
C10B C -0.03165(11) 0.07134(11) 0.96919(5)
H14B H -0.1033 0.0114 0.9238
H15B H 0.0646 0.1252 0.9525
C6 C 0.33195(10) 0.32043(11) 0.08966(4)
O1 O 0.42415(9) 0.20129(9) 0.06861(4)
O2 O 0.28338(9) 0.31475(8) 0.15118(3)
C7 C 0.27704(10) 0.47603(11) 0.03385(4)
H8 H 0.2064 0.4261 -0.0142
H9 H 0.3772 0.5294 0.0204
C8 C 0.18138(10) 0.62718(10) 0.06281(4)
H10 H 0.2516 0.6797 0.1104
H11 H 0.0804 0.5756 0.0761
C9 C 0.13022(11) 0.77744(11) 0.00329(5)
H12 H 0.2315 0.8300 -0.0093
H13 H 0.0619 0.7241 -0.0446
C10 C 0.03165(11) 0.92866(11) 0.03081(5)
H14 H 0.1033 0.9886 0.0762
H15 H -0.0646 0.8748 0.0475
C6B C -0.33195(10) 1.67957(11) -0.08966(4)
O1B O -0.42415(9) 1.79871(9) -0.06861(4)
O2B O -0.28338(9) 1.68525(8) -0.15118(3)
C7B C -0.27704(10) 1.52397(11) -0.03385(4)
H8B H -0.2064 1.5739 0.0142
H9B H -0.3772 1.4706 -0.0204
C8B C -0.18138(10) 1.37282(10) -0.06281(4)
H10B H -0.2516 1.3203 -0.1104
H11B H -0.0804 1.4244 -0.0761
C9B C -0.13022(11) 1.22256(11) -0.00329(5)
H12B H -0.2315 1.1700 0.0093
H13B H -0.0619 1.2759 0.0446
C10B C -0.03165(11) 1.07134(11) -0.03081(5)
H14B H -0.1033 1.0114 -0.0762
H15B H 0.0646 1.1252 -0.0475
C6 C 0.33195(10) 0.32043(11) 1.08966(4)
O1 O 0.42415(9) 0.20129(9) 1.06861(4)
O2 O 0.28338(9) 0.31475(8) 1.15118(3)
C7 C 0.27704(10) 0.47603(11) 1.03385(4)
H8 H 0.2064 0.4261 0.9858
H9 H 0.3772 0.5294 1.0204
C8 C 0.18138(10) 0.62718(10) 1.06281(4)
H10 H 0.2516 0.6797 1.1104
H11 H 0.0804 0.5756 1.0761
C9 C 0.13022(11) 0.77744(11) 1.00329(5)
H12 H 0.2315 0.8300 0.9907
H13 H 0.0619 0.7241 0.9554
C10 C 0.03165(11) 0.92866(11) 1.03081(5)
H14 H 0.1033 0.9886 1.0762
H15 H -0.0646 0.8748 1.0475
C6B C -0.33195(10) 1.67957(11) 0.91034(4)
O1B O -0.42415(9) 1.79871(9) 0.93139(4)
O2B O -0.28338(9) 1.68525(8) 0.84882(3)
C7B C -0.27704(10) 1.52397(11) 0.96615(4)
H8B H -0.2064 1.5739 1.0142
H9B H -0.3772 1.4706 0.9796
C8B C -0.18138(10) 1.37282(10) 0.93719(4)
H10B H -0.2516 1.3203 0.8896
H11B H -0.0804 1.4244 0.9239
C9B C -0.13022(11) 1.22256(11) 0.99671(5)
H12B H -0.2315 1.1700 1.0093
H13B H -0.0619 1.2759 1.0446
C10B C -0.03165(11) 1.07134(11) 0.96919(5)
H14B H -0.1033 1.0114 0.9238
H15B H 0.0646 1.1252 0.9525
C6 C 1.33195(10) -0.67957(11) 0.08966(4)
O1 O 1.42415(9) -0.79871(9) 0.06861(4)
O2 O 1.28338(9) -0.68525(8) 0.15118(3)
C7 C 1.27704(10) -0.52397(11) 0.03385(4)
H8 H 1.2064 -0.5739 -0.0142
H9 H 1.3772 -0.4706 0.0204
C8 C 1.18138(10) -0.37282(10) 0.06281(4)
H10 H 1.2516 -0.3203 0.1104
H11 H 1.0804 -0.4244 0.0761
C9 C 1.13022(11) -0.22256(11) 0.00329(5)
H12 H 1.2315 -0.1700 -0.0093
H13 H 1.0619 -0.2759 -0.0446
C10 C 1.03165(11) -0.07134(11) 0.03081(5)
H14 H 1.1033 -0.0114 0.0762
H15 H 0.9354 -0.1252 0.0475
C6B C 0.66805(10) 0.67957(11) -0.08966(4)
O1B O 0.57585(9) 0.79871(9) -0.06861(4)
O2B O 0.71662(9) 0.68525(8) -0.15118(3)
C7B C 0.72296(10) 0.52397(11) -0.03385(4)
H8B H 0.7936 0.5739 0.0142
H9B H 0.6228 0.4706 -0.0204
C8B C 0.81862(10) 0.37282(10) -0.06281(4)
H10B H 0.7484 0.3203 -0.1104
H11B H 0.9196 0.4244 -0.0761
C9B C 0.86978(11) 0.22256(11) -0.00329(5)
H12B H 0.7685 0.1700 0.0093
H13B H 0.9381 0.2759 0.0446
C10B C 0.96835(11) 0.07134(11) -0.03081(5)
H14B H 0.8967 0.0114 -0.0762
H15B H 1.0646 0.1252 -0.0475
C6 C 1.33195(10) -0.67957(11) 1.08966(4)
O1 O 1.42415(9) -0.79871(9) 1.06861(4)
O2 O 1.28338(9) -0.68525(8) 1.15118(3)
C7 C 1.27704(10) -0.52397(11) 1.03385(4)
H8 H 1.2064 -0.5739 0.9858
H9 H 1.3772 -0.4706 1.0204
C8 C 1.18138(10) -0.37282(10) 1.06281(4)
H10 H 1.2516 -0.3203 1.1104
H11 H 1.0804 -0.4244 1.0761
C9 C 1.13022(11) -0.22256(11) 1.00329(5)
H12 H 1.2315 -0.1700 0.9907
H13 H 1.0619 -0.2759 0.9554
C10 C 1.03165(11) -0.07134(11) 1.03081(5)
H14 H 1.1033 -0.0114 1.0762
H15 H 0.9354 -0.1252 1.0475
C6B C 0.66805(10) 0.67957(11) 0.91034(4)
O1B O 0.57585(9) 0.79871(9) 0.93139(4)
O2B O 0.71662(9) 0.68525(8) 0.84882(3)
C7B C 0.72296(10) 0.52397(11) 0.96615(4)
H8B H 0.7936 0.5739 1.0142
H9B H 0.6228 0.4706 0.9796
C8B C 0.81862(10) 0.37282(10) 0.93719(4)
H10B H 0.7484 0.3203 0.8896
H11B H 0.9196 0.4244 0.9239
C9B C 0.86978(11) 0.22256(11) 0.99671(5)
H12B H 0.7685 0.1700 1.0093
H13B H 0.9381 0.2759 1.0446
C10B C 0.96835(11) 0.07134(11) 0.96919(5)
H14B H 0.8967 0.0114 0.9238
H15B H 1.0646 0.1252 0.9525
C6 C 1.33195(10) 0.32043(11) 0.08966(4)
O1 O 1.42415(9) 0.20129(9) 0.06861(4)
O2 O 1.28338(9) 0.31475(8) 0.15118(3)
C7 C 1.27704(10) 0.47603(11) 0.03385(4)
H8 H 1.2064 0.4261 -0.0142
H9 H 1.3772 0.5294 0.0204
C8 C 1.18138(10) 0.62718(10) 0.06281(4)
H10 H 1.2516 0.6797 0.1104
H11 H 1.0804 0.5756 0.0761
C9 C 1.13022(11) 0.77744(11) 0.00329(5)
H12 H 1.2315 0.8300 -0.0093
H13 H 1.0619 0.7241 -0.0446
C10 C 1.03165(11) 0.92866(11) 0.03081(5)
H14 H 1.1033 0.9886 0.0762
H15 H 0.9354 0.8748 0.0475
C6B C 0.66805(10) 1.67957(11) -0.08966(4)
O1B O 0.57585(9) 1.79871(9) -0.06861(4)
O2B O 0.71662(9) 1.68525(8) -0.15118(3)
C7B C 0.72296(10) 1.52397(11) -0.03385(4)
H8B H 0.7936 1.5739 0.0142
H9B H 0.6228 1.4706 -0.0204
C8B C 0.81862(10) 1.37282(10) -0.06281(4)
H10B H 0.7484 1.3203 -0.1104
H11B H 0.9196 1.4244 -0.0761
C9B C 0.86978(11) 1.22256(11) -0.00329(5)
H12B H 0.7685 1.1700 0.0093
H13B H 0.9381 1.2759 0.0446
C10B C 0.96835(11) 1.07134(11) -0.03081(5)
H14B H 0.8967 1.0114 -0.0762
H15B H 1.0646 1.1252 -0.0475
C6 C 1.33195(10) 0.32043(11) 1.08966(4)
O1 O 1.42415(9) 0.20129(9) 1.06861(4)
O2 O 1.28338(9) 0.31475(8) 1.15118(3)
C7 C 1.27704(10) 0.47603(11) 1.03385(4)
H8 H 1.2064 0.4261 0.9858
H9 H 1.3772 0.5294 1.0204
C8 C 1.18138(10) 0.62718(10) 1.06281(4)
H10 H 1.2516 0.6797 1.1104
H11 H 1.0804 0.5756 1.0761
C9 C 1.13022(11) 0.77744(11) 1.00329(5)
H12 H 1.2315 0.8300 0.9907
H13 H 1.0619 0.7241 0.9554
C10 C 1.03165(11) 0.92866(11) 1.03081(5)
H14 H 1.1033 0.9886 1.0762
H15 H 0.9354 0.8748 1.0475
C6B C 0.66805(10) 1.67957(11) 0.91034(4)
O1B O 0.57585(9) 1.79871(9) 0.93139(4)
O2B O 0.71662(9) 1.68525(8) 0.84882(3)
C7B C 0.72296(10) 1.52397(11) 0.96615(4)
H8B H 0.7936 1.5739 1.0142
H9B H 0.6228 1.4706 0.9796
C8B C 0.81862(10) 1.37282(10) 0.93719(4)
H10B H 0.7484 1.3203 0.8896
H11B H 0.9196 1.4244 0.9239
C9B C 0.86978(11) 1.22256(11) 0.99671(5)
H12B H 0.7685 1.1700 1.0093
H13B H 0.9381 1.2759 1.0446
C10B C 0.96835(11) 1.07134(11) 0.96919(5)
H14B H 0.8967 1.0114 0.9238
H15B H 1.0646 1.1252 0.9525
C6 C 0.16805(10) -0.17957(11) 0.41034(4)
O1 O 0.07585(9) -0.29871(9) 0.43139(4)
O2 O 0.21662(9) -0.18525(8) 0.34882(3)
C7 C 0.22296(10) -0.02397(11) 0.46615(4)
H8 H 0.2936 -0.0739 0.5142
H9 H 0.1228 0.0294 0.4796
C8 C 0.31862(10) 0.12718(10) 0.43719(4)
H10 H 0.2484 0.1797 0.3896
H11 H 0.4196 0.0756 0.4239
C9 C 0.36978(11) 0.27744(11) 0.49671(5)
H12 H 0.2685 0.3300 0.5093
H13 H 0.4381 0.2241 0.5446
C10 C 0.46835(11) 0.42866(11) 0.46919(5)
H14 H 0.3967 0.4886 0.4238
H15 H 0.5646 0.3748 0.4525
C6B C 0.83195(10) 1.17957(11) 0.58966(4)
O1B O 0.92415(9) 1.29871(9) 0.56861(4)
O2B O 0.78338(9) 1.18525(8) 0.65118(3)
C7B C 0.77704(10) 1.02397(11) 0.53385(4)
H8B H 0.7064 1.0739 0.4858
H9B H 0.8772 0.9706 0.5204
C8B C 0.68138(10) 0.87282(10) 0.56281(4)
H10B H 0.7516 0.8203 0.6104
H11B H 0.5804 0.9244 0.5761
C9B C 0.63022(11) 0.72256(11) 0.50329(5)
H12B H 0.7315 0.6700 0.4907
H13B H 0.5619 0.7759 0.4554
C10B C 0.53165(11) 0.57134(11) 0.53081(5)
H14B H 0.6033 0.5114 0.5762
H15B H 0.4354 0.6252 0.5475

#END
