
#######################################################################
#
#                 Cambridge Crystallographic Data Centre
#                                CCDC 
#
#######################################################################
#
# If this CIF has been generated from an entry in the Cambridge 
# Structural Database, then it will include bibliographic, chemical, 
# crystal, experimental, refinement or atomic coordinate data resulting 
# from the CCDC's data processing and validation procedures.
#
#######################################################################

data_LADBEX
_symmetry_cell_setting           triclinic
_symmetry_space_group_name_H-M   'P -1'
_symmetry_Int_Tables_number      2
_space_group_name_Hall           '-P 1'
loop_
_symmetry_equiv_pos_site_id
_symmetry_equiv_pos_as_xyz
1 x,y,z
2 -x,-y,-z
_cell_length_a                   9.9067(3)
_cell_length_b                   13.3779(6)
_cell_length_c                   9.8906(4)
_cell_angle_alpha                102.151(3)
_cell_angle_beta                 94.192(3)
_cell_angle_gamma                87.025(3)
_cell_volume                     1277.12
loop_
_atom_site_label
_atom_site_type_symbol
_atom_site_fract_x
_atom_site_fract_y
_atom_site_fract_z
Br1 Br 0.64981(6) 0.06684(5) 0.40687(6)
N1 N 0.3410(5) 0.0629(3) 0.1187(5)
N2 N 0.3708(5) -0.0386(3) 0.1006(5)
C1 C 0.4734(5) -0.0546(4) 0.1920(5)
C2 C 0.5099(5) 0.0409(4) 0.2674(5)
C3 C 0.4235(5) 0.1134(4) 0.2204(5)
C4 C 0.5203(5) -0.1602(4) 0.1949(5)
C5 C 0.5739(6) -0.1888(5) 0.3168(7)
C6 C 0.6085(8) -0.2906(6) 0.3175(9)
C7 C 0.5922(8) -0.3635(6) 0.1985(9)
C8 C 0.5404(9) -0.3375(5) 0.0782(9)
C9 C 0.5053(7) -0.2358(5) 0.0758(7)
C10 C 0.4062(5) 0.2263(4) 0.2622(5)
C11 C 0.5147(6) 0.2880(5) 0.3086(6)
C12 C 0.4928(7) 0.3944(5) 0.3410(7)
C13 C 0.3670(7) 0.4374(5) 0.3281(8)
C14 C 0.2596(7) 0.3762(5) 0.2813(8)
C15 C 0.2779(6) 0.2710(5) 0.2492(7)
H1 H 0.267 0.072 0.099
H2 H 0.585(7) -0.141(5) 0.396(8)
H3 H 0.652(10) -0.297(8) 0.395(11)
H4 H 0.609(9) -0.422(7) 0.201(9)
H5 H 0.528(9) -0.381(7) 0.008(9)
H6 H 0.474(8) -0.223(6) 0.000(9)
H7 H 0.607(7) 0.265(5) 0.323(6)
H8 H 0.568(9) 0.434(7) 0.371(9)
H9 H 0.355(8) 0.517(6) 0.365(8)
H10 H 0.173(9) 0.395(6) 0.273(8)
H11 H 0.210(8) 0.237(6) 0.218(7)
Br1 Br 0.35019(6) 0.93316(5) 0.59313(6)
N1 N 0.6590(5) 0.9371(3) 0.8813(5)
N2 N 0.6292(5) 1.0386(3) 0.8994(5)
C1 C 0.5266(5) 1.0546(4) 0.8080(5)
C2 C 0.4901(5) 0.9591(4) 0.7326(5)
C3 C 0.5765(5) 0.8866(4) 0.7796(5)
C4 C 0.4797(5) 1.1602(4) 0.8051(5)
C5 C 0.4261(6) 1.1888(5) 0.6832(7)
C6 C 0.3915(8) 1.2906(6) 0.6825(9)
C7 C 0.4078(8) 1.3635(6) 0.8015(9)
C8 C 0.4596(9) 1.3375(5) 0.9218(9)
C9 C 0.4947(7) 1.2358(5) 0.9242(7)
C10 C 0.5938(5) 0.7737(4) 0.7378(5)
C11 C 0.4853(6) 0.7120(5) 0.6914(6)
C12 C 0.5072(7) 0.6056(5) 0.6590(7)
C13 C 0.6330(7) 0.5626(5) 0.6719(8)
C14 C 0.7404(7) 0.6238(5) 0.7187(8)
C15 C 0.7221(6) 0.7290(5) 0.7508(7)
H1 H 0.733 0.928 0.901
H2 H 0.415(7) 1.141(5) 0.604(8)
H3 H 0.348(10) 1.297(8) 0.605(11)
H4 H 0.391(9) 1.422(7) 0.799(9)
H5 H 0.472(9) 1.381(7) 0.992(9)
H6 H 0.526(8) 1.223(6) 1.000(9)
H7 H 0.393(7) 0.735(5) 0.677(6)
H8 H 0.432(9) 0.566(7) 0.629(9)
H9 H 0.645(8) 0.483(6) 0.635(8)
H10 H 0.827(9) 0.605(6) 0.727(8)
H11 H 0.790(8) 0.763(6) 0.782(7)
Br2 Br -0.12103(6) 0.91649(5) 0.57367(6)
N3 N 0.1592(4) 0.9227(3) 0.8906(4)
N4 N 0.1313(4) 1.0246(3) 0.9040(4)
C16 C 0.0366(5) 1.0403(4) 0.8061(5)
C17 C 0.0834(5) 0.8723(4) 0.7827(5)
C18 C 0.0030(5) 0.9442(4) 0.7274(5)
C19 C -0.0112(5) 1.1448(4) 0.7981(5)
C20 C -0.1422(6) 1.1681(5) 0.7550(6)
C21 C -0.1845(7) 1.2690(5) 0.7552(7)
C22 C -0.0956(9) 1.3461(6) 0.7994(8)
C23 C 0.0354(8) 1.3246(5) 0.8402(9)
C24 C 0.0796(6) 1.2245(4) 0.8409(7)
C25 C 0.0980(5) 0.7591(4) 0.7429(5)
C26 C 0.0921(6) 0.7089(4) 0.6057(6)
C27 C 0.1118(6) 0.6033(5) 0.5712(7)
C28 C 0.1383(7) 0.5480(5) 0.6730(7)
C29 C 0.1469(7) 0.5978(5) 0.8104(8)
C30 C 0.1270(6) 0.7033(4) 0.8458(6)
H12 H 0.249 0.923 0.908
H13 H -0.211(7) 1.120(5) 0.730(7)
H14 H -0.274(8) 1.281(6) 0.735(8)
H15 H -0.123(11) 1.401(9) 0.805(11)
H16 H 0.101(10) 1.371(8) 0.875(9)
H17 H 0.174(8) 1.211(5) 0.865(7)
H18 H 0.078(6) 0.743(5) 0.542(7)
H19 H 0.102(7) 0.569(5) 0.480(8)
H20 H 0.149(7) 0.466(6) 0.648(7)
H21 H 0.163(10) 0.557(8) 0.884(11)
H22 H 0.129(7) 0.733(5) 0.939(8)
Br2 Br 1.12103(6) 0.08351(5) 0.42633(6)
N3 N 0.8408(4) 0.0773(3) 0.1094(4)
N4 N 0.8687(4) -0.0246(3) 0.0960(4)
C16 C 0.9634(5) -0.0403(4) 0.1939(5)
C17 C 0.9166(5) 0.1277(4) 0.2173(5)
C18 C 0.9970(5) 0.0558(4) 0.2726(5)
C19 C 1.0112(5) -0.1448(4) 0.2019(5)
C20 C 1.1422(6) -0.1681(5) 0.2450(6)
C21 C 1.1845(7) -0.2690(5) 0.2448(7)
C22 C 1.0956(9) -0.3461(6) 0.2006(8)
C23 C 0.9646(8) -0.3246(5) 0.1598(9)
C24 C 0.9204(6) -0.2245(4) 0.1591(7)
C25 C 0.9020(5) 0.2409(4) 0.2571(5)
C26 C 0.9079(6) 0.2911(4) 0.3943(6)
C27 C 0.8882(6) 0.3967(5) 0.4288(7)
C28 C 0.8617(7) 0.4520(5) 0.3270(7)
C29 C 0.8531(7) 0.4022(5) 0.1896(8)
C30 C 0.8730(6) 0.2967(4) 0.1542(6)
H12 H 0.751 0.077 0.092
H13 H 1.211(7) -0.120(5) 0.270(7)
H14 H 1.274(8) -0.281(6) 0.265(8)
H15 H 1.123(11) -0.401(9) 0.195(11)
H16 H 0.899(10) -0.371(8) 0.125(9)
H17 H 0.826(8) -0.211(5) 0.135(7)
H18 H 0.922(6) 0.257(5) 0.458(7)
H19 H 0.898(7) 0.431(5) 0.520(8)
H20 H 0.851(7) 0.534(6) 0.352(7)
H21 H 0.837(10) 0.443(8) 0.116(11)
H22 H 0.871(7) 0.267(5) 0.061(8)
H23? H 0.304 0.928 0.054
H24? H 0.178 1.065 -0.034
H23? H 0.696 0.072 0.946
H24? H 0.822 -0.065 1.034

#END
