./LADBID_from_POSCAR.cif_generated_by_CrystalShift
_symmetry_cell_setting triclinic
_symmetry_space_group_name_H-M 'P 1'
loop_
_symmetry_equiv_pos_site_id
_symmetry_equiv_pos_as_xyz
1 x,y,z
_cell_length_a 8.238200
_cell_length_b 7.360300
_cell_length_c 17.790200
_cell_angle_alpha 90.000000
_cell_angle_beta 102.979000
_cell_angle_gamma 90.000000
_cell_volume 1051.161217
loop_
_atom_site_label
_atom_site_type_symbol
_atom_site_fract_x
_atom_site_fract_y
_atom_site_fract_z
H1 H 0.435400 0.625200 0.547500
H2 H 0.478100 1.033900 0.123600
H3 H 0.748400 1.320300 0.889600
H4 H 0.622800 1.470600 0.979600
H5 H 0.345900 1.114800 0.220200
H6 H 0.331900 0.978000 0.286700
H7 H 0.793600 1.573900 1.014200
H8 H 0.490200 0.696100 0.307900
H9 H 0.768500 1.170000 1.009300
H10 H 0.643800 0.488400 0.255100
H11 H 0.935400 0.874800 1.047500
H12 H 0.721800 0.554300 0.137900
H13 H 1.103300 0.988600 1.076200
H14 H 0.634600 0.825900 0.075800
H15 H 1.061900 0.724100 0.955400
H16 H 1.021900 0.533900 0.376400
H17 H 1.231500 0.830000 0.990700
H18 H 1.080400 0.575600 1.076100
H19 H 1.154100 0.614800 0.279800
H20 H 1.168100 0.478000 0.213300
H21 H 1.251600 0.679700 1.110400
H22 H 1.009800 0.196100 0.192100
H23 H 1.377200 0.529400 1.020400
H24 H 0.856200 -0.011600 0.244900
H25 H 1.206400 0.426100 0.985800
H26 H 0.778200 0.054300 0.362100
H27 H 0.938100 1.275900 1.044600
H28 H 0.865400 0.325900 0.424200
H29 H 1.064600 1.125200 -0.047500
H30 H 0.521900 -0.033900 0.876400
H31 H 0.896700 1.011400 -0.076200
H32 H 0.938100 1.275900 0.044600
H33 H 0.654100 -0.114800 0.779800
H34 H 0.668100 0.022000 0.713300
H35 H 0.768500 1.170000 0.009300
H36 H 0.509800 0.303900 0.692100
H37 H 0.919600 1.424400 -0.076100
H38 H 0.356200 0.511600 0.744900
H39 H 0.748400 1.320300 -0.110400
H40 H 0.278200 0.445700 0.862100
H41 H 0.622800 1.470600 -0.020400
H42 H 0.365400 0.174100 0.924200
H43 H 0.793600 1.573900 0.014200
H44 H -0.021900 0.466100 0.623600
H45 H 0.896700 1.011400 0.923800
H46 H 1.064600 1.125200 0.952500
H47 H -0.154100 0.385200 0.720200
H48 H -0.168100 0.522000 0.786700
H49 H 0.935400 0.874800 0.047500
H50 H -0.009800 0.803900 0.807900
H51 H 1.103300 0.988600 0.076200
H52 H 0.143800 1.011600 0.755100
H53 H 1.061900 0.724100 -0.044600
H54 H 0.221800 0.945700 0.637900
H55 H 1.231500 0.830000 -0.009300
H56 H 0.134600 0.674100 0.575800
H57 H 1.080400 0.575600 0.076100
H58 H 0.603300 0.511400 0.576200
H59 H 1.251600 0.679700 0.110400
H60 H 1.377200 0.529400 0.020400
H61 H 0.206400 -0.573900 -0.014200
H62 H 0.377200 -0.470600 0.020400
H63 H 1.206400 0.426100 -0.014200
H64 H 0.251600 -0.320300 0.110400
H65 H 0.080400 -0.424400 0.076100
H66 H 1.064600 0.125200 0.952500
H67 H 0.231500 -0.170000 -0.009300
H68 H 0.061900 -0.275900 -0.044600
H69 H 0.896700 0.011400 0.923800
H70 H 0.103300 -0.011400 0.076200
H71 H -0.064600 -0.125200 0.047500
H72 H 0.938100 0.275900 1.044600
H73 H 0.561900 0.775900 0.455400
H74 H 0.731500 0.670000 0.490700
H75 H 0.768500 0.170000 1.009300
H76 H -0.206400 0.573900 0.014200
H77 H -0.377200 0.470600 -0.020400
H78 H 0.919600 0.424400 0.923900
H79 H -0.251600 0.320300 -0.110400
H80 H -0.080400 0.424400 -0.076100
H81 H 0.748400 0.320300 0.889600
H82 H -0.231500 0.170000 0.009300
H83 H -0.061900 0.275900 0.044600
H84 H 0.622800 0.470600 0.979600
H85 H -0.103300 0.011400 -0.076200
H86 H 0.064600 0.125200 -0.047500
H87 H 0.793600 0.573900 1.014200
H88 H 0.293600 -0.073900 0.514200
H89 H 0.580400 0.924400 0.576100
H90 H 0.122800 0.029400 0.479600
H91 H 0.206400 -0.573900 0.985800
H92 H 0.377200 -0.470600 1.020400
H93 H 0.935400 -0.125200 1.047500
H94 H 0.251600 -0.320300 1.110400
H95 H 0.080400 -0.424400 1.076100
H96 H 1.103300 -0.011400 1.076200
H97 H 0.231500 -0.170000 0.990700
H98 H 0.061900 -0.275900 0.955400
H99 H 1.061900 -0.275900 0.955400
H100 H 0.103300 -0.011400 1.076200
H101 H -0.064600 -0.125200 1.047500
H102 H 1.231500 -0.170000 0.990700
H103 H 0.751600 0.820300 0.610400
H104 H 1.080400 -0.424400 1.076100
H105 H 1.251600 -0.320300 1.110400
H106 H -0.206400 0.573900 1.014200
H107 H -0.377200 0.470600 0.979600
H108 H 1.377200 -0.470600 1.020400
H109 H -0.251600 0.320300 0.889600
H110 H -0.080400 0.424400 0.923900
H111 H 1.206400 -0.573900 0.985800
H112 H -0.231500 0.170000 1.009300
H113 H -0.061900 0.275900 1.044600
H114 H 0.248400 0.179700 0.389600
H115 H -0.103300 0.011400 0.923800
H116 H 0.064600 0.125200 0.952500
H117 H 1.064600 0.125200 -0.047500
H118 H 0.877200 0.970600 0.520400
H119 H 0.706400 1.073900 0.485800
H120 H 0.896700 0.011400 -0.076200
H121 H 0.206400 0.426100 -0.014200
H122 H 0.377200 0.529400 0.020400
H123 H 0.938100 0.275900 0.044600
H124 H 0.251600 0.679700 0.110400
H125 H 0.080400 0.575600 0.076100
H126 H 0.768500 0.170000 0.009300
H127 H 0.231500 0.830000 -0.009300
H128 H 0.061900 0.724100 -0.044600
H129 H 0.919600 0.424400 -0.076100
H130 H 0.103300 0.988600 0.076200
H131 H -0.064600 0.874800 0.047500
H132 H 0.748400 0.320300 -0.110400
H133 H 0.622800 0.470600 -0.020400
H134 H 0.793600 0.573900 0.014200
H135 H 0.419600 0.075600 0.423900
H136 H -0.206400 1.573900 0.014200
H137 H -0.377200 1.470600 -0.020400
H138 H 0.935400 -0.125200 0.047500
H139 H -0.251600 1.320300 -0.110400
H140 H -0.080400 1.424400 -0.076100
H141 H 1.103300 -0.011400 0.076200
H142 H -0.231500 1.170000 0.009300
H143 H -0.061900 1.275900 0.044600
H144 H 1.061900 -0.275900 -0.044600
H145 H -0.103300 1.011400 -0.076200
H146 H 0.064600 1.125200 -0.047500
H147 H 1.231500 -0.170000 -0.009300
H148 H 0.564600 0.374800 0.452500
H149 H 0.396700 0.488600 0.423800
H150 H 1.080400 -0.424400 0.076100
H151 H 0.206400 0.426100 0.985800
H152 H 0.377200 0.529400 1.020400
H153 H 1.251600 -0.320300 0.110400
H154 H 0.251600 0.679700 1.110400
H155 H 0.080400 0.575600 1.076100
H156 H 1.377200 -0.470600 0.020400
H157 H 0.231500 0.830000 0.990700
H158 H 0.061900 0.724100 0.955400
H159 H 1.206400 -0.573900 -0.014200
H160 H 0.103300 0.988600 1.076200
H161 H -0.064600 0.874800 1.047500
H162 H 0.268500 0.330000 0.509300
H163 H 0.438100 0.224100 0.544600
H164 H 0.064600 1.125200 0.952500
H165 H -0.103300 1.011400 0.923800
H166 H -0.206400 1.573900 1.014200
H167 H -0.377200 1.470600 0.979600
H168 H -0.061900 1.275900 1.044600
H169 H -0.251600 1.320300 0.889600
H170 H -0.080400 1.424400 0.923900
H171 H -0.231500 1.170000 1.009300
H172 H 0.919600 1.424400 0.923900
C173 C -0.181380 1.372820 0.937190
C174 C -0.031650 1.071340 0.969190
C175 C -0.277040 1.523970 0.966150
C176 C 0.470270 0.887780 0.221430
C177 C 1.331950 -0.679570 0.089660
C178 C 0.468350 0.428660 0.469190
C179 C -0.331950 1.679570 0.910340
C180 C 1.277040 -0.523970 0.033850
C181 C 0.031650 0.928660 1.030810
C182 C 0.130220 0.777440 1.003290
C183 C 1.181380 -0.372820 0.062810
C184 C 0.181380 0.627180 1.062810
C185 C 0.277040 0.476030 1.033850
C186 C 1.130220 -0.222560 0.003290
C187 C 0.331950 0.320430 1.089660
C188 C -0.031650 1.071340 -0.030810
C189 C 1.031650 -0.071340 0.030810
C190 C -0.130220 1.222560 -0.003290
C191 C -0.181380 1.372820 -0.062810
C192 C 0.668050 0.679570 -0.089660
C193 C 0.369780 0.277440 0.496710
C194 C -0.277040 1.523970 -0.033850
C195 C 0.722960 0.523970 -0.033850
C196 C 0.831950 1.179570 0.589660
C197 C 0.777040 1.023970 0.533850
C198 C 0.818620 0.372820 -0.062810
C199 C -0.331950 1.679570 -0.089660
C200 C 0.031650 0.928660 0.030810
C201 C 0.869780 0.222560 -0.003290
C202 C 0.130220 0.777440 0.003290
C203 C 0.181380 0.627180 0.062810
C204 C 0.968350 0.071340 -0.030810
C205 C 0.277040 0.476030 0.033850
C206 C 0.331950 0.320430 0.089660
C207 C 1.331950 -0.679570 1.089660
C208 C -0.031650 0.071340 0.969190
C209 C 0.318620 0.127180 0.437190
C210 C 1.277040 -0.523970 1.033850
C211 C -0.130220 0.222560 0.996710
C212 C -0.181380 0.372820 0.937190
C213 C 1.181380 -0.372820 1.062810
C214 C -0.277040 0.523970 0.966150
C215 C 0.681380 0.872820 0.562810
C216 C 1.130220 -0.222560 1.003290
C217 C -0.331950 0.679570 0.910340
C218 C 0.031650 -0.071340 1.030810
C219 C 1.031650 -0.071340 1.030810
C220 C 0.130220 -0.222560 1.003290
C221 C 0.181380 -0.372820 1.062810
C222 C 0.668050 0.679570 0.910340
C223 C 0.277040 -0.523970 1.033850
C224 C 0.630220 0.722560 0.503290
C225 C 0.722960 0.523970 0.966150
C226 C 0.331950 -0.679570 1.089660
C227 C -0.031650 0.071340 -0.030810
C228 C 0.818620 0.372820 0.937190
C229 C -0.130220 0.222560 -0.003290
C230 C -0.181380 0.372820 -0.062810
C231 C 0.869780 0.222560 0.996710
C232 C -0.277040 0.523970 -0.033850
C233 C -0.331950 0.679570 -0.089660
C234 C 0.968350 0.071340 0.969190
C235 C 0.031650 -0.071340 0.030810
C236 C 0.130220 -0.222560 0.003290
C237 C 1.331950 0.320430 0.089660
C238 C 0.222960 -0.023970 0.466150
C239 C 0.168050 -0.179570 0.410340
C240 C 1.277040 0.476030 0.033850
C241 C 0.181380 -0.372820 0.062810
C242 C 0.277040 -0.523970 0.033850
C243 C 1.181380 0.627180 0.062810
C244 C 0.531650 0.571340 0.530810
C245 C 0.331950 -0.679570 0.089660
C246 C 1.130220 0.777440 0.003290
C247 C 0.106230 0.701170 0.623520
C248 C 0.157140 0.861940 0.659450
C249 C 1.031650 0.928660 0.030810
C250 C 0.111160 0.899940 0.729340
C251 C 0.020010 0.777950 0.760480
C252 C 0.668050 1.679570 -0.089660
C253 C 0.818620 1.372820 0.937190
C254 C -0.029730 0.612220 0.721430
C255 C 0.722960 1.523970 -0.033850
C256 C 0.520010 0.722050 0.260480
C257 C 0.393770 0.201170 0.876480
C258 C 0.818620 1.372820 -0.062810
C259 C 0.342860 0.361940 0.840550
C260 C 0.388840 0.399940 0.770660
C261 C 0.869780 1.222560 -0.003290
C262 C 0.479990 0.277950 0.739520
C263 C 0.722960 1.523970 0.966150
C264 C 0.968350 1.071340 -0.030810
C265 C 0.529730 0.112220 0.778570
C266 C 0.869780 1.222560 0.996710
C267 C 1.331950 0.320430 1.089660
C268 C 0.968350 1.071340 0.969190
C269 C 0.893770 0.298830 0.376480
C270 C 1.277040 0.476030 1.033850
C271 C 0.842860 0.138060 0.340550
C272 C 0.888840 0.100060 0.270660
C273 C 1.181380 0.627180 1.062810
C274 C 0.979990 0.222050 0.239520
C275 C 0.611160 0.600060 0.229340
C276 C 1.130220 0.777440 1.003290
C277 C 1.029730 0.387780 0.278570
C278 C 0.668050 1.679570 0.910340
C279 C 1.031650 0.928660 1.030810
C280 C 0.606230 0.798830 0.123520
C281 C 0.657140 0.638060 0.159450
C282 C -0.130220 1.222560 0.996710
N283 N 1.119970 0.511870 0.251790
N284 N 0.483860 0.079360 0.845640
N285 N 0.619970 -0.011870 0.751790
N286 N 0.016140 0.579360 0.654360
N287 N 0.380030 1.011870 0.248210
N288 N -0.119970 0.488130 0.748210
N289 N 0.516140 0.920640 0.154360
N290 N 0.983860 0.420640 0.345640
O291 O 0.716620 1.685250 0.848820
O292 O 0.575850 1.798710 0.931390
O293 O 1.283380 0.314750 1.151180
O294 O 1.424150 0.201290 1.068610
O295 O 0.716620 1.685250 -0.151180
O296 O 0.575850 1.798710 -0.068610
O297 O 1.283380 0.314750 0.151180
O298 O 0.075850 -0.298710 0.431390
O299 O 0.216620 -0.185250 0.348820
O300 O 1.424150 0.201290 0.068610
O301 O 0.716620 0.685250 0.848820
O302 O 0.575850 0.798710 0.931390
O303 O 1.283380 -0.685250 1.151180
O304 O 1.424150 -0.798710 1.068610
O305 O 0.716620 0.685250 -0.151180
O306 O 0.575850 0.798710 -0.068610
O307 O 1.283380 -0.685250 0.151180
O308 O 1.424150 -0.798710 0.068610
O309 O -0.424150 1.798710 0.931390
O310 O 0.283380 0.314750 1.151180
O311 O 0.424150 0.201290 1.068610
O312 O -0.283380 1.685250 -0.151180
O313 O 0.924150 1.298710 0.568610
O314 O 0.783380 1.185250 0.651180
O315 O -0.424150 1.798710 -0.068610
O316 O 0.283380 0.314750 0.151180
O317 O 0.424150 0.201290 0.068610
O318 O -0.283380 0.685250 0.848820
O319 O -0.424150 0.798710 0.931390
O320 O 0.283380 -0.685250 1.151180
O321 O 0.424150 -0.798710 1.068610
O322 O -0.283380 0.685250 -0.151180
O323 O -0.424150 0.798710 -0.068610
O324 O 0.283380 -0.685250 0.151180
O325 O 0.424150 -0.798710 0.068610
O326 O -0.283380 1.685250 0.848820

#END
