./LADCEB_from_POSCAR.cif_generated_by_CrystalShift
_symmetry_cell_setting triclinic
_symmetry_space_group_name_H-M 'P 1'
loop_
_symmetry_equiv_pos_site_id
_symmetry_equiv_pos_as_xyz
1 x,y,z
_cell_length_a 5.440800
_cell_length_b 12.092400
_cell_length_c 13.163500
_cell_angle_alpha 90.000000
_cell_angle_beta 90.000000
_cell_angle_gamma 90.000000
_cell_volume 866.057335
loop_
_atom_site_label
_atom_site_type_symbol
_atom_site_fract_x
_atom_site_fract_y
_atom_site_fract_z
H1 H 0.186100 0.629900 0.265600
H2 H 0.375300 0.573900 0.339200
H3 H 0.480600 0.364000 0.262800
H4 H 0.519400 0.864000 0.237200
H5 H 0.313900 0.370100 0.765600
H6 H 1.150400 0.991400 0.330500
H7 H 0.124700 0.426100 0.839200
H8 H 0.419600 0.571000 0.221600
H9 H 0.080400 0.429000 0.721600
H10 H 0.023900 0.638200 0.583600
H11 H 0.780000 0.711700 0.325800
H12 H 0.476100 0.361800 0.083600
H13 H 1.024900 0.831300 0.036000
H14 H 0.228400 0.697200 0.517500
H15 H 0.740800 1.020100 0.422700
H16 H 0.949400 0.960100 0.485800
H17 H 0.449400 0.539900 0.514200
H18 H 0.240800 0.479900 0.577300
H19 H 0.728400 0.802800 0.482500
H20 H 0.523900 0.861800 0.416400
H21 H 0.524900 0.668700 0.964000
H22 H 0.580400 1.071000 0.278400
H23 H 0.624700 1.073900 0.160800
H24 H 0.813900 1.129900 0.234400
H25 H 0.220000 0.211700 0.174200
H26 H 0.271600 0.302800 0.017500
H27 H 0.280000 0.788300 0.674200
H28 H 0.980600 0.136000 0.737200
H29 H -0.024900 0.331300 0.464000
H30 H 0.349600 0.008600 0.830500
H31 H 0.650400 0.508600 0.669500
H32 H 0.019400 0.636000 0.762800
H33 H 0.259200 0.520100 0.077300
H34 H 0.686100 -0.129900 0.734400
H35 H 0.720000 0.288300 0.825800
H36 H 0.050600 0.460100 0.014200
H37 H 0.475100 0.168700 0.536000
H38 H 0.875300 -0.073900 0.660800
H39 H 0.759200 -0.020100 0.922700
H40 H 0.550600 0.039900 0.985800
H41 H 0.919600 -0.071000 0.778400
H42 H 0.976100 0.138200 0.916400
H43 H 0.771600 0.197200 0.982500
H44 H -0.150400 0.491400 0.169500
C45 C 0.797100 -0.068900 0.726000
C46 C 0.731700 0.206100 0.635500
C47 C 0.652600 0.044100 0.925500
C48 C 0.699400 0.207800 0.826900
C49 C 0.345400 0.539280 0.767160
C50 C 0.231700 0.293900 0.364500
C51 C 0.196900 0.648630 0.767610
C52 C 0.301300 0.347500 0.077500
C53 C 0.502300 0.554700 0.670400
C54 C 0.488100 0.051300 0.641170
C55 C 0.511900 0.551300 0.858830
C56 C 0.152600 0.455900 0.074500
C57 C 0.497700 0.054700 0.829600
C58 C 0.300600 0.707800 0.673100
C59 C 0.803100 0.148630 0.732390
C60 C 0.654600 0.039280 0.732840
C61 C 0.702900 1.068900 0.226000
C62 C 0.347400 0.544100 0.574500
C63 C 0.698700 0.847500 0.422500
C64 C 0.768300 0.793900 0.135500
C65 C 0.268300 0.706100 0.864500
C66 C 0.198700 0.652500 0.577500
C67 C 0.847400 0.955900 0.425500
C68 C 0.800600 0.792200 0.326900
C69 C 0.202900 0.431100 0.774000
C70 C 0.297100 0.568900 0.274000
C71 C 1.011900 0.948700 0.141170
C72 C 1.002300 0.945300 0.329600
C73 C 0.154600 0.460720 0.267160
C74 C 0.199400 0.292200 0.173100
C75 C 0.303100 0.351370 0.267610
C76 C 0.696900 0.851370 0.232390
C77 C -0.002300 0.445300 0.170400
C78 C 0.801300 0.152500 0.922500
C79 C -0.011900 0.448700 0.358830
C80 C 0.845400 0.960720 0.232840
N81 N 0.952400 0.852420 0.090710
N82 N 0.547600 0.147580 0.590710
N83 N 0.452400 0.647580 0.909290
N84 N 0.047600 0.352420 0.409290
O85 O 0.181100 0.791380 0.898360
O86 O 0.670100 0.487990 0.886450
O87 O 0.554400 0.672010 0.674390
O88 O -0.054400 0.327990 0.174390
O89 O 0.818900 0.291380 0.601640
O90 O 0.329900 -0.012010 0.613550
O91 O 0.445600 0.172010 0.825610
O92 O 0.318900 0.208620 0.398360
O93 O 0.681100 0.708620 0.101640
O94 O 1.170100 1.012010 0.113550
O95 O 1.054400 0.827990 0.325610
O96 O -0.170100 0.512010 0.386450

#END
