./LADCAW_from_POSCAR.cif_generated_by_CrystalShift
_symmetry_cell_setting triclinic
_symmetry_space_group_name_H-M 'P 1'
loop_
_symmetry_equiv_pos_site_id
_symmetry_equiv_pos_as_xyz
1 x,y,z
_cell_length_a 3.901900
_cell_length_b 12.545400
_cell_length_c 16.926000
_cell_angle_alpha 73.128000
_cell_angle_beta 86.428000
_cell_angle_gamma 85.881000
_cell_volume 790.084432
loop_
_atom_site_label
_atom_site_type_symbol
_atom_site_fract_x
_atom_site_fract_y
_atom_site_fract_z
H1 H 0.408300 0.827700 0.767200
H2 H 0.069200 0.862300 0.533800
H3 H 0.231600 0.552000 0.504600
H4 H 1.149000 0.478200 0.310200
H5 H 0.508000 0.356500 0.240900
H6 H 0.768400 0.448000 0.495400
H7 H 0.768300 0.529000 0.047200
H8 H 0.499000 0.372300 0.625100
H9 H 0.607500 0.720400 0.004300
H10 H 0.930800 0.137700 0.466200
H11 H 0.159700 0.880100 0.882900
H12 H 0.103100 0.686900 0.225100
H13 H -0.215100 0.862800 0.856900
H14 H 0.007400 0.960600 0.799400
H15 H 0.033600 0.810700 0.741000
H16 H 0.591700 0.172300 0.232800
H17 H 0.966400 0.189300 0.259000
H18 H 0.501000 0.627700 0.374900
H19 H 0.992600 0.039400 0.200600
H20 H 1.215100 0.137200 0.143100
H21 H 0.840300 0.119900 0.117100
H22 H -0.149000 0.521800 0.689800
H23 H 0.896900 0.313100 0.774900
H24 H 0.392500 0.279600 0.995700
H25 H 0.231700 0.471000 0.952800
H26 H 0.492000 0.643500 0.759100
C27 C 0.367400 0.437180 0.917110
C28 C 0.414300 0.675120 0.407150
C29 C 0.462800 0.324470 0.942400
C30 C 0.474300 0.500720 0.837860
C31 C 0.663100 0.277600 0.888680
C32 C 0.759900 0.345140 0.811440
C33 C 0.448400 0.789650 0.377650
C34 C 0.982300 0.115840 0.163720
C35 C 0.323500 0.859700 0.425300
C36 C 0.175100 0.804790 0.788830
C37 C 0.157700 0.814920 0.501680
C38 C 0.824900 0.195210 0.211170
C39 C 0.017700 0.884160 0.836280
C40 C 0.121600 0.700020 0.531090
C41 C 0.800700 0.315640 0.158240
C42 C 0.240100 0.654860 0.188560
C43 C 0.252800 0.630330 0.484000
C44 C -0.063200 0.653870 0.612690
C45 C 0.878400 0.299980 0.468910
C46 C 0.842300 0.185080 0.498320
C47 C 0.336900 0.722400 0.111320
C48 C 0.676500 0.140300 0.574700
C49 C 0.551600 0.210350 0.622350
C50 C 0.585700 0.324880 0.592850
C51 C 0.537200 0.675530 0.057600
C52 C 0.747200 0.369670 0.516000
C53 C 0.632600 0.562820 0.082890
C54 C 1.063200 0.346130 0.387310
C55 C 0.525700 0.499280 0.162140
C56 C 0.199300 0.684360 0.841760
N57 N 0.396300 0.614580 0.804970
N58 N 0.667100 0.454460 0.786280
N59 N 0.332900 0.545540 0.213720
N60 N 0.603700 0.385420 0.195030
O61 O -0.042200 0.543950 0.639900
O62 O 0.051700 0.652120 0.909230
O63 O 1.042200 0.456050 0.360100
O64 O 1.220000 0.286130 0.349950
O65 O -0.220000 0.713870 0.650050
O66 O 0.948300 0.347880 0.090770
Cl67 Cl 0.374450 1.001860 0.390350
Cl68 Cl 0.356900 0.155480 0.718930
Cl69 Cl 0.625550 -0.001860 0.609650
Cl70 Cl 0.643100 0.844520 0.281070
Br71 Br 0.191240 0.875203 0.079408
Br72 Br 0.808760 0.124797 0.920592

#END
