
#######################################################################
#
#                 Cambridge Crystallographic Data Centre
#                                CCDC 
#
#######################################################################
#
# If this CIF has been generated from an entry in the Cambridge 
# Structural Database, then it will include bibliographic, chemical, 
# crystal, experimental, refinement or atomic coordinate data resulting 
# from the CCDC's data processing and validation procedures.
#
#######################################################################

data_LADCIF
_symmetry_cell_setting           orthorhombic
_symmetry_space_group_name_H-M   'P 21 21 21'
_symmetry_Int_Tables_number      19
_space_group_name_Hall           'P 2ac 2ab'
loop_
_symmetry_equiv_pos_site_id
_symmetry_equiv_pos_as_xyz
1 x,y,z
2 1/2-x,-y,1/2+z
3 1/2+x,1/2-y,-z
4 -x,1/2+y,1/2-z
_cell_length_a                   7.0744(2)
_cell_length_b                   15.6837(4)
_cell_length_c                   18.4250(6)
_cell_angle_alpha                90
_cell_angle_beta                 90
_cell_angle_gamma                90
_cell_volume                     2044.3
loop_
_atom_site_label
_atom_site_type_symbol
_atom_site_fract_x
_atom_site_fract_y
_atom_site_fract_z
N1 N -0.2285(4) -0.00519(15) 0.13457(13)
O1 O -0.0310(3) -0.12067(15) 0.13962(14)
O2 O 0.0917(3) 0.29483(15) 0.11482(14)
N2 N 0.2534(3) 0.21200(15) 0.19585(13)
O3 O -0.1927(3) -0.01938(14) -0.03261(12)
O4 O 0.4403(3) 0.38639(13) 0.24470(11)
O5 O 0.4768(4) 0.15674(14) 0.27256(12)
C1 C 0.4341(5) 0.20498(18) 0.22372(16)
C2 C 0.5590(5) 0.26884(18) 0.18690(15)
H1 H 0.6686 0.2426 0.1632
C3 C 0.0196(5) 0.1006(2) 0.16271(17)
H2 H -0.0260 0.1334 0.1217
H3 H 0.1218 0.0644 0.1458
C4 C 0.0943(5) 0.1612(2) 0.22091(17)
H4 H -0.0069 0.1991 0.2360
H5 H 0.1330 0.1283 0.2629
C5 C 0.6144(5) 0.34025(19) 0.23978(18)
H6 H 0.6600 0.3192 0.2867
C6 C -0.1658(4) -0.08454(18) 0.11371(17)
C7 C -0.1390(5) 0.0454(2) 0.19155(16)
H7 H -0.0892 0.0075 0.2285
H8 H -0.2335 0.0815 0.2142
C8 C -0.2924(4) -0.11758(18) 0.05319(17)
C9 C 0.2380(5) 0.27581(19) 0.14448(16)
C10 C 0.4297(4) 0.31647(18) 0.13316(15)
O6 O -0.4638(4) 0.08935(14) 0.10633(13)
C11 C -0.4444(4) -0.04679(18) 0.04308(16)
C12 C -0.3867(5) 0.02117(18) 0.09715(16)
C13 C 0.4845(5) 0.3121(2) 0.05320(17)
H9 H 0.6111 0.3330 0.0472
H10 H 0.3991 0.3464 0.0252
H11 H 0.4780 0.2540 0.0369
C14 C -0.3955(5) -0.0131(2) -0.03328(17)
H12 H -0.4418 0.0448 -0.0424
C15 C -0.4503(6) -0.0767(2) -0.09223(18)
H13 H -0.4452 -0.0510 -0.1401
H14 H -0.5758 -0.0998 -0.0840
C16 C 0.6124(5) 0.4532(2) 0.1546(2)
H15 H 0.6039 0.5128 0.1685
H16 H 0.6505 0.4493 0.1042
C17 C -0.2974(6) -0.1455(2) -0.0831(2)
H17 H -0.3523 -0.2005 -0.0713
H18 H -0.2203 -0.1509 -0.1263
C18 C -0.6513(5) -0.0695(2) 0.0550(2)
H19 H -0.6830 -0.1187 0.0264
H20 H -0.7294 -0.0224 0.0407
H21 H -0.6719 -0.0819 0.1054
C19 C 0.4273(5) 0.40657(19) 0.16817(17)
H22 H 0.3152 0.4402 0.1556
C20 C -0.1840(5) -0.10961(19) -0.01957(18)
H23 H -0.0545 -0.1317 -0.0172
C21 C -0.3566(6) -0.20738(19) 0.0720(2)
H24 H -0.4464 -0.2266 0.0365
H25 H -0.4146 -0.2074 0.1191
H26 H -0.2495 -0.2449 0.0722
C22 C 0.7477(5) 0.4039(2) 0.2042(2)
H27 H 0.8456 0.3754 0.1765
H28 H 0.8059 0.4411 0.2399
N1 N 0.7285(4) 1.00519(15) 0.63457(13)
O1 O 0.5310(3) 1.12067(15) 0.63962(14)
O2 O 0.4083(3) 0.70517(15) 0.61482(14)
N2 N 0.2466(3) 0.78800(15) 0.69585(13)
O3 O 0.6927(3) 1.01938(14) 0.46739(12)
O4 O 0.0597(3) 0.61361(13) 0.74470(11)
O5 O 0.0232(4) 0.84326(14) 0.77256(12)
C1 C 0.0659(5) 0.79502(18) 0.72372(16)
C2 C -0.0590(5) 0.73116(18) 0.68690(15)
H1 H -0.1686 0.7574 0.6632
C3 C 0.4804(5) 0.8994(2) 0.66271(17)
H2 H 0.5260 0.8666 0.6217
H3 H 0.3782 0.9356 0.6458
C4 C 0.4057(5) 0.8388(2) 0.72091(17)
H4 H 0.5069 0.8009 0.7360
H5 H 0.3670 0.8717 0.7629
C5 C -0.1144(5) 0.65975(19) 0.73978(18)
H6 H -0.1600 0.6808 0.7867
C6 C 0.6658(4) 1.08454(18) 0.61371(17)
C7 C 0.6390(5) 0.9546(2) 0.69155(16)
H7 H 0.5892 0.9925 0.7285
H8 H 0.7335 0.9185 0.7142
C8 C 0.7924(4) 1.11758(18) 0.55319(17)
C9 C 0.2620(5) 0.72419(19) 0.64448(16)
C10 C 0.0703(4) 0.68353(18) 0.63316(15)
O6 O 0.9638(4) 0.91065(14) 0.60633(13)
C11 C 0.9444(4) 1.04679(18) 0.54308(16)
C12 C 0.8867(5) 0.97883(18) 0.59715(16)
C13 C 0.0155(5) 0.6879(2) 0.55320(17)
H9 H -0.1111 0.6670 0.5472
H10 H 0.1009 0.6536 0.5252
H11 H 0.0220 0.7460 0.5369
C14 C 0.8955(5) 1.0131(2) 0.46672(17)
H12 H 0.9418 0.9552 0.4576
C15 C 0.9503(6) 1.0767(2) 0.40777(18)
H13 H 0.9452 1.0510 0.3599
H14 H 1.0758 1.0998 0.4160
C16 C -0.1124(5) 0.5468(2) 0.6546(2)
H15 H -0.1039 0.4872 0.6685
H16 H -0.1505 0.5507 0.6042
C17 C 0.7974(6) 1.1455(2) 0.4169(2)
H17 H 0.8523 1.2005 0.4287
H18 H 0.7203 1.1509 0.3737
C18 C 1.1513(5) 1.0695(2) 0.5550(2)
H19 H 1.1830 1.1187 0.5264
H20 H 1.2294 1.0224 0.5407
H21 H 1.1719 1.0819 0.6054
C19 C 0.0727(5) 0.59343(19) 0.66817(17)
H22 H 0.1848 0.5598 0.6556
C20 C 0.6840(5) 1.10961(19) 0.48043(18)
H23 H 0.5545 1.1317 0.4828
C21 C 0.8566(6) 1.20738(19) 0.5720(2)
H24 H 0.9464 1.2266 0.5365
H25 H 0.9146 1.2074 0.6191
H26 H 0.7495 1.2449 0.5722
C22 C -0.2477(5) 0.5961(2) 0.7042(2)
H27 H -0.3456 0.6246 0.6765
H28 H -0.3059 0.5589 0.7399
N1 N 0.2715(4) 0.50519(15) 0.86543(13)
O1 O 0.4690(3) 0.62067(15) 0.86038(14)
O2 O 0.5917(3) 0.20517(15) 0.88518(14)
N2 N 0.7534(3) 0.28800(15) 0.80415(13)
O3 O 0.3073(3) 0.51938(14) 1.03261(12)
O4 O 0.9403(3) 0.11361(13) 0.75530(11)
O5 O 0.9768(4) 0.34326(14) 0.72744(12)
C1 C 0.9341(5) 0.29502(18) 0.77628(16)
C2 C 1.0590(5) 0.23116(18) 0.81310(15)
H1 H 1.1686 0.2574 0.8368
C3 C 0.5196(5) 0.3994(2) 0.83729(17)
H2 H 0.4740 0.3666 0.8783
H3 H 0.6218 0.4356 0.8542
C4 C 0.5943(5) 0.3388(2) 0.77909(17)
H4 H 0.4931 0.3009 0.7640
H5 H 0.6330 0.3717 0.7371
C5 C 1.1144(5) 0.15975(19) 0.76022(18)
H6 H 1.1600 0.1808 0.7133
C6 C 0.3342(4) 0.58454(18) 0.88629(17)
C7 C 0.3610(5) 0.4546(2) 0.80845(16)
H7 H 0.4108 0.4925 0.7715
H8 H 0.2665 0.4185 0.7858
C8 C 0.2076(4) 0.61758(18) 0.94681(17)
C9 C 0.7380(5) 0.22419(19) 0.85552(16)
C10 C 0.9297(4) 0.18353(18) 0.86684(15)
O6 O 0.0362(4) 0.41065(14) 0.89367(13)
C11 C 0.0556(4) 0.54679(18) 0.95692(16)
C12 C 0.1133(5) 0.47883(18) 0.90285(16)
C13 C 0.9845(5) 0.1879(2) 0.94680(17)
H9 H 1.1111 0.1670 0.9528
H10 H 0.8991 0.1536 0.9748
H11 H 0.9780 0.2460 0.9631
C14 C 0.1045(5) 0.5131(2) 1.03328(17)
H12 H 0.0582 0.4552 1.0424
C15 C 0.0497(6) 0.5767(2) 1.09223(18)
H13 H 0.0548 0.5510 1.1401
H14 H -0.0758 0.5998 1.0840
C16 C 1.1124(5) 0.0468(2) 0.8454(2)
H15 H 1.1039 -0.0128 0.8315
H16 H 1.1505 0.0507 0.8958
C17 C 0.2026(6) 0.6455(2) 1.0831(2)
H17 H 0.1477 0.7005 1.0713
H18 H 0.2797 0.6509 1.1263
C18 C -0.1513(5) 0.5695(2) 0.9450(2)
H19 H -0.1830 0.6187 0.9736
H20 H -0.2294 0.5224 0.9593
H21 H -0.1719 0.5819 0.8946
C19 C 0.9273(5) 0.09343(19) 0.83183(17)
H22 H 0.8152 0.0598 0.8444
C20 C 0.3160(5) 0.60961(19) 1.01957(18)
H23 H 0.4455 0.6317 1.0172
C21 C 0.1434(6) 0.70738(19) 0.9280(2)
H24 H 0.0536 0.7266 0.9635
H25 H 0.0854 0.7074 0.8809
H26 H 0.2505 0.7449 0.9278
C22 C 1.2477(5) 0.0961(2) 0.7958(2)
H27 H 1.3456 0.1246 0.8235
H28 H 1.3059 0.0589 0.7601
N1 N 1.2285(4) 0.49481(15) 0.36543(13)
O1 O 1.0310(3) 0.37933(15) 0.36038(14)
O2 O 0.9083(3) 0.79483(15) 0.38518(14)
N2 N 0.7466(3) 0.71200(15) 0.30415(13)
O3 O 1.1927(3) 0.48062(14) 0.53261(12)
O4 O 0.5597(3) 0.88639(13) 0.25530(11)
O5 O 0.5232(4) 0.65674(14) 0.22744(12)
C1 C 0.5659(5) 0.70498(18) 0.27628(16)
C2 C 0.4410(5) 0.76884(18) 0.31310(15)
H1 H 0.3314 0.7426 0.3368
C3 C 0.9804(5) 0.6006(2) 0.33729(17)
H2 H 1.0260 0.6334 0.3783
H3 H 0.8782 0.5644 0.3542
C4 C 0.9057(5) 0.6612(2) 0.27909(17)
H4 H 1.0069 0.6991 0.2640
H5 H 0.8670 0.6283 0.2371
C5 C 0.3856(5) 0.84025(19) 0.26022(18)
H6 H 0.3400 0.8192 0.2133
C6 C 1.1658(4) 0.41546(18) 0.38629(17)
C7 C 1.1390(5) 0.5454(2) 0.30845(16)
H7 H 1.0892 0.5075 0.2715
H8 H 1.2335 0.5815 0.2858
C8 C 1.2924(4) 0.38242(18) 0.44681(17)
C9 C 0.7620(5) 0.77581(19) 0.35552(16)
C10 C 0.5703(4) 0.81647(18) 0.36684(15)
O6 O 1.4638(4) 0.58935(14) 0.39367(13)
C11 C 1.4444(4) 0.45321(18) 0.45692(16)
C12 C 1.3867(5) 0.52117(18) 0.40285(16)
C13 C 0.5155(5) 0.8121(2) 0.44680(17)
H9 H 0.3889 0.8330 0.4528
H10 H 0.6009 0.8464 0.4748
H11 H 0.5220 0.7540 0.4631
C14 C 1.3955(5) 0.4869(2) 0.53328(17)
H12 H 1.4418 0.5448 0.5424
C15 C 1.4503(6) 0.4233(2) 0.59223(18)
H13 H 1.4452 0.4490 0.6401
H14 H 1.5758 0.4002 0.5840
C16 C 0.3876(5) 0.9532(2) 0.3454(2)
H15 H 0.3961 1.0128 0.3315
H16 H 0.3495 0.9493 0.3958
C17 C 1.2974(6) 0.3545(2) 0.5831(2)
H17 H 1.3523 0.2995 0.5713
H18 H 1.2203 0.3491 0.6263
C18 C 1.6513(5) 0.4305(2) 0.4450(2)
H19 H 1.6830 0.3813 0.4736
H20 H 1.7294 0.4776 0.4593
H21 H 1.6719 0.4181 0.3946
C19 C 0.5727(5) 0.90657(19) 0.33183(17)
H22 H 0.6848 0.9402 0.3444
C20 C 1.1840(5) 0.39039(19) 0.51957(18)
H23 H 1.0545 0.3683 0.5172
C21 C 1.3566(6) 0.29262(19) 0.4280(2)
H24 H 1.4464 0.2734 0.4635
H25 H 1.4146 0.2926 0.3809
H26 H 1.2495 0.2551 0.4278
C22 C 0.2523(5) 0.9039(2) 0.2958(2)
H27 H 0.1544 0.8754 0.3235
H28 H 0.1941 0.9411 0.2601

#END
