
#######################################################################
#
#                 Cambridge Crystallographic Data Centre
#                                CCDC 
#
#######################################################################
#
# If this CIF has been generated from an entry in the Cambridge 
# Structural Database, then it will include bibliographic, chemical, 
# crystal, experimental, refinement or atomic coordinate data resulting 
# from the CCDC's data processing and validation procedures.
#
#######################################################################

data_LADDEB
_symmetry_cell_setting           monoclinic
_symmetry_space_group_name_H-M   'P 21/c'
_symmetry_Int_Tables_number      14
_space_group_name_Hall           '-P 2ybc'
loop_
_symmetry_equiv_pos_site_id
_symmetry_equiv_pos_as_xyz
1 x,y,z
2 -x,1/2+y,1/2-z
3 -x,-y,-z
4 x,1/2-y,1/2+z
_cell_length_a                   14.0298(10)
_cell_length_b                   3.8527(3)
_cell_length_c                   17.5918(13)
_cell_angle_alpha                90
_cell_angle_beta                 102.337(3)
_cell_angle_gamma                90
_cell_volume                     928.925
loop_
_atom_site_label
_atom_site_type_symbol
_atom_site_fract_x
_atom_site_fract_y
_atom_site_fract_z
Br1 Br -0.043775(7) 0.93494(3) 0.601847(6)
Br2 Br 0.268061(7) 0.90703(3) 0.865653(5)
N1 N 0.24018(6) 0.5842(2) 0.63863(5)
C1 C 0.27799(7) 0.6526(3) 0.71422(6)
N2 N 0.37093(7) 0.5611(3) 0.74308(5)
H1 H 0.4012(11) 0.472(4) 0.7135(9)
H2 H 0.3976(10) 0.613(4) 0.7873(9)
C2 C 0.21786(7) 0.8108(2) 0.75964(5)
C3 C 0.12293(7) 0.8961(2) 0.72703(6)
H3 H 0.0828 1.0042 0.7573
C4 C 0.08637(7) 0.8207(3) 0.64830(6)
C5 C 0.14676(7) 0.6646(3) 0.60646(6)
H4 H 0.1219 0.6117 0.5532
Br1 Br 1.043775(7) 0.43494(3) 0.898153(6)
Br2 Br 0.731939(7) 0.40703(3) 0.634347(5)
N1 N 0.75982(6) 0.0842(2) 0.86137(5)
C1 C 0.72201(7) 0.1526(3) 0.78578(6)
N2 N 0.62907(7) 0.0611(3) 0.75692(5)
H1 H 0.5988(11) -0.028(4) 0.7865(9)
H2 H 0.6024(10) 0.113(4) 0.7127(9)
C2 C 0.78214(7) 0.3108(2) 0.74036(5)
C3 C 0.87707(7) 0.3961(2) 0.77297(6)
H3 H 0.9172 0.5042 0.7427
C4 C 0.91363(7) 0.3207(3) 0.85170(6)
C5 C 0.85324(7) 0.1646(3) 0.89354(6)
H4 H 0.8781 0.1117 0.9468
Br1 Br 1.043775(7) 0.06506(3) 0.398153(6)
Br2 Br 0.731939(7) 0.09297(3) 0.134347(5)
N1 N 0.75982(6) 0.4158(2) 0.36137(5)
C1 C 0.72201(7) 0.3474(3) 0.28578(6)
N2 N 0.62907(7) 0.4389(3) 0.25692(5)
H1 H 0.5988(11) 0.528(4) 0.2865(9)
H2 H 0.6024(10) 0.387(4) 0.2127(9)
C2 C 0.78214(7) 0.1892(2) 0.24036(5)
C3 C 0.87707(7) 0.1039(2) 0.27297(6)
H3 H 0.9172 -0.0042 0.2427
C4 C 0.91363(7) 0.1793(3) 0.35170(6)
C5 C 0.85324(7) 0.3354(3) 0.39354(6)
H4 H 0.8781 0.3883 0.4468
Br1 Br -0.043775(7) 0.56506(3) 0.101847(6)
Br2 Br 0.268061(7) 0.59297(3) 0.365653(5)
N1 N 0.24018(6) 0.9158(2) 0.13863(5)
C1 C 0.27799(7) 0.8474(3) 0.21422(6)
N2 N 0.37093(7) 0.9389(3) 0.24308(5)
H1 H 0.4012(11) 1.028(4) 0.2135(9)
H2 H 0.3976(10) 0.887(4) 0.2873(9)
C2 C 0.21786(7) 0.6892(2) 0.25964(5)
C3 C 0.12293(7) 0.6039(2) 0.22703(6)
H3 H 0.0828 0.4958 0.2573
C4 C 0.08637(7) 0.6793(3) 0.14830(6)
C5 C 0.14676(7) 0.8354(3) 0.10646(6)
H4 H 0.1219 0.8883 0.0532
C6 C 0.41575(7) 0.2176(3) 0.55859(6)
O1 O 0.32880(5) 0.3494(2) 0.53462(4)
H5 H 0.3073(11) 0.421(4) 0.5728(9)
O2 O 0.45866(6) 0.2002(2) 0.62681(4)
C7 C 0.45851(7) 0.0873(2) 0.49351(6)
H6 H 0.4254 0.1307 0.4414
C6B C 0.58425(7) -0.2176(3) 0.44141(6)
O1B O 0.67120(5) -0.3494(2) 0.46538(4)
H5B H 0.6927(11) -0.421(4) 0.4272(9)
O2B O 0.54134(6) -0.2002(2) 0.37319(4)
C7B C 0.54149(7) -0.0873(2) 0.50649(6)
H6B H 0.5746 -0.1307 0.5586
C6 C 0.41575(7) 1.2176(3) 0.55859(6)
O1 O 0.32880(5) 1.3494(2) 0.53462(4)
H5 H 0.3073(11) 1.421(4) 0.5728(9)
O2 O 0.45866(6) 1.2002(2) 0.62681(4)
C7 C 0.45851(7) 1.0873(2) 0.49351(6)
H6 H 0.4254 1.1307 0.4414
C6B C 0.58425(7) 0.7824(3) 0.44141(6)
O1B O 0.67120(5) 0.6506(2) 0.46538(4)
H5B H 0.6927(11) 0.579(4) 0.4272(9)
O2B O 0.54134(6) 0.7998(2) 0.37319(4)
C7B C 0.54149(7) 0.9127(2) 0.50649(6)
H6B H 0.5746 0.8693 0.5586
C6 C 0.58425(7) 0.7176(3) -0.05859(6)
O1 O 0.67120(5) 0.8494(2) -0.03462(4)
H5 H 0.6927(11) 0.921(4) -0.0728(9)
O2 O 0.54134(6) 0.7002(2) -0.12681(4)
C7 C 0.54149(7) 0.5873(2) 0.00649(6)
H6 H 0.5746 0.6307 0.0586
C6B C 0.41575(7) 0.2824(3) 0.05859(6)
O1B O 0.32880(5) 0.1506(2) 0.03462(4)
H5B H 0.3073(11) 0.079(4) 0.0728(9)
O2B O 0.45866(6) 0.2998(2) 0.12681(4)
C7B C 0.45851(7) 0.4127(2) -0.00649(6)
H6B H 0.4254 0.3693 -0.0586
C6 C 0.58425(7) 0.7176(3) 0.94141(6)
O1 O 0.67120(5) 0.8494(2) 0.96538(4)
H5 H 0.6927(11) 0.921(4) 0.9272(9)
O2 O 0.54134(6) 0.7002(2) 0.87319(4)
C7 C 0.54149(7) 0.5873(2) 1.00649(6)
H6 H 0.5746 0.6307 1.0586
C6B C 0.41575(7) 0.2824(3) 1.05859(6)
O1B O 0.32880(5) 0.1506(2) 1.03462(4)
H5B H 0.3073(11) 0.079(4) 1.0728(9)
O2B O 0.45866(6) 0.2998(2) 1.12681(4)
C7B C 0.45851(7) 0.4127(2) 0.99351(6)
H6B H 0.4254 0.3693 0.9414

#END
