./LADDUP_from_POSCAR.cif_generated_by_CrystalShift
_symmetry_cell_setting triclinic
_symmetry_space_group_name_H-M 'P 1'
loop_
_symmetry_equiv_pos_site_id
_symmetry_equiv_pos_as_xyz
1 x,y,z
_cell_length_a 10.117000
_cell_length_b 6.827000
_cell_length_c 14.538000
_cell_angle_alpha 90.000000
_cell_angle_beta 90.770000
_cell_angle_gamma 90.000000
_cell_volume 1004.030944
loop_
_atom_site_label
_atom_site_type_symbol
_atom_site_fract_x
_atom_site_fract_y
_atom_site_fract_z
H1 H 0.138200 0.831500 0.009200
H2 H -0.097600 0.518200 0.183900
H3 H -0.245900 0.529300 0.209300
H4 H 0.627600 0.137600 0.416800
H5 H 0.547400 0.091590 0.320000
H6 H 0.390400 0.214900 0.451300
H7 H 0.493400 0.491300 0.326200
H8 H 0.437400 0.555400 0.420300
H9 H 0.230800 0.445200 0.370700
H10 H 0.290500 0.409400 0.274400
H11 H 0.276400 1.365600 0.008100
H12 H 0.301300 1.152400 -0.024300
H13 H 0.102100 1.156800 0.050900
H14 H 0.167600 1.256000 0.136100
H15 H -0.057200 0.817700 0.117300
H16 H -0.060400 1.043300 0.129900
H17 H -0.238500 0.892800 0.210400
H18 H -0.147500 1.008200 0.277900
H19 H -0.300000 0.654600 0.367700
H20 H -0.219200 0.826200 0.410100
H21 H -0.176600 0.429600 0.439600
H22 H -0.136700 0.599200 0.505200
H23 H 0.025300 0.426800 0.377200
H24 H 0.188480 0.676600 0.079300
H25 H 0.681300 0.570300 0.767800
H26 H 0.735500 0.287700 0.646700
H27 H 0.887400 0.112400 0.782000
H28 H 0.958400 0.326900 0.635400
H29 H 0.895700 0.516500 0.750800
H30 H 0.474000 0.563800 0.830200
H31 H 0.526700 0.446300 0.914400
H32 H 0.552700 0.294700 0.733600
H33 H 0.623200 0.182900 0.813200
H34 H 0.929600 0.073700 0.547300
H35 H 0.974700 -0.073200 0.622800
H36 H 1.136700 0.099200 0.494800
H37 H 1.176600 -0.070400 0.560400
H38 H 1.219200 0.326200 0.589900
H39 H 1.300000 0.154600 0.632300
H40 H 1.147500 0.508200 0.722100
H41 H 1.238500 0.392800 0.789600
H42 H 1.060400 0.543300 0.870100
H43 H 1.057200 0.317700 0.882700
H44 H 0.832400 0.756000 0.863900
H45 H 0.897900 0.656800 0.949100
H46 H 0.698700 0.652400 1.024300
H47 H 0.723600 0.865600 0.991900
H48 H 0.709500 -0.090600 0.725600
H49 H 0.769200 -0.054800 0.629300
H50 H 0.562600 0.055400 0.579700
H51 H 0.506600 -0.008700 0.673800
H52 H 0.609600 -0.285100 0.548700
H53 H 0.452600 -0.408410 0.680000
H54 H 0.372400 -0.362400 0.583200
H55 H 1.245900 0.029300 0.790700
H56 H 1.097600 0.018200 0.816100
H57 H 1.148300 -0.090800 0.729900
H58 H 0.711100 0.302400 0.975000
H59 H 0.811520 0.176600 0.920700
H60 H 0.861800 0.331500 0.990800
H61 H 0.070400 0.573700 0.452700
H62 H 0.376800 0.682900 0.186800
H63 H 0.447300 0.794700 0.266400
H64 H 0.473300 0.946300 0.085600
H65 H 0.526000 1.063800 0.169800
H66 H 0.104300 1.016500 0.249200
H67 H 0.041600 0.826900 0.364600
H68 H 0.112600 0.612400 0.218000
H69 H 0.264500 0.787700 0.353300
H70 H 0.318700 1.070300 0.232200
H71 H 0.288900 0.802400 0.025000
H72 H -0.148300 0.409200 0.270100
C73 C -0.046500 0.918700 0.163400
C74 C 0.096000 0.912600 0.204200
C75 C 0.203300 0.958300 0.131800
C76 C 0.178800 1.160700 0.087900
C77 C 0.294200 1.234000 0.028900
C78 C 0.296300 0.488400 0.328800
C79 C 0.428900 0.462000 0.369000
C80 C 0.451700 0.264600 0.404600
C81 C 0.549400 0.157000 0.381900
C82 C -0.159800 0.528000 0.233400
C83 C 0.205700 0.802300 0.055300
C84 C -0.129300 0.709400 0.293200
C85 C -0.210200 0.700000 0.380700
C86 C -0.132800 0.560000 0.445400
C87 C 0.006200 0.546700 0.404200
C88 C 0.012200 0.709600 0.332200
C89 C 0.119900 0.719100 0.259600
C90 C 0.260600 0.705900 0.299900
C91 C 0.366000 0.777100 0.233300
C92 C 0.335000 0.970500 0.186100
C93 C 0.451400 1.041200 0.129300
C94 C 0.421000 1.231500 0.081900
C95 C 0.794300 0.302300 0.944700
C96 C 1.159800 0.028000 0.766600
C97 C 0.450600 -0.343000 0.618100
C98 C 0.548300 -0.235400 0.595400
C99 C 0.571100 -0.038000 0.631000
C100 C 0.703700 -0.011600 0.671200
C101 C 0.705800 0.734000 0.971100
C102 C 0.821200 0.660700 0.912100
C103 C 0.796700 0.458300 0.868200
C104 C 0.904000 0.412600 0.795800
C105 C 1.046500 0.418700 0.836600
C106 C 1.151100 0.393900 0.762900
C107 C 1.129300 0.209400 0.706800
C108 C 1.210200 0.200000 0.619300
C109 C 1.132800 0.060000 0.554600
C110 C 0.993800 0.046700 0.595800
C111 C 0.987800 0.209600 0.667800
C112 C 0.880100 0.219100 0.740400
C113 C 0.739400 0.205900 0.700100
C114 C 0.634000 0.277100 0.766700
C115 C 0.665000 0.470500 0.813900
C116 C 0.548600 0.541200 0.870700
C117 C -0.151100 0.893900 0.237100
C118 C 0.579000 0.731500 0.918100
O119 O 0.506600 0.872500 0.911300
O120 O 0.493400 1.372500 0.088700

#END
