./LADDOM_from_POSCAR.cif_generated_by_CrystalShift
_symmetry_cell_setting triclinic
_symmetry_space_group_name_H-M 'P 1'
loop_
_symmetry_equiv_pos_site_id
_symmetry_equiv_pos_as_xyz
1 x,y,z
_cell_length_a 13.689800
_cell_length_b 15.552700
_cell_length_c 14.502100
_cell_angle_alpha 90.000000
_cell_angle_beta 117.901000
_cell_angle_gamma 90.000000
_cell_volume 2728.769725
loop_
_atom_site_label
_atom_site_type_symbol
_atom_site_fract_x
_atom_site_fract_y
_atom_site_fract_z
H1 H 0.550700 0.778000 0.528600
H2 H 0.368000 0.740500 0.871200
H3 H 0.494900 0.740300 0.905600
H4 H 0.266400 0.726300 0.209100
H5 H 0.194600 0.761400 0.095700
H6 H 0.256200 0.825600 0.188400
H7 H 0.356400 0.897900 0.112400
H8 H 0.292800 0.843800 0.010100
H9 H 0.422300 0.846400 0.066700
H10 H 0.273800 0.695600 0.603700
H11 H 0.867400 0.667700 0.643100
H12 H 0.808300 0.656400 0.711300
H13 H 0.239100 0.692700 0.692500
H14 H 0.801000 0.930400 0.485500
H15 H 0.865200 0.993200 0.448400
H16 H 0.919100 0.963000 0.565100
H17 H 0.315200 0.620500 0.685300
H18 H 0.833100 0.585600 0.482000
H19 H 0.814700 0.500700 0.417600
H20 H 0.746300 0.583400 0.363400
H21 H 0.519700 0.870700 0.930600
H22 H 0.860000 0.775200 0.524500
H23 H 0.401500 0.911800 0.882900
H24 H 0.505100 0.970200 0.911700
H25 H 0.884300 0.572300 0.315300
H26 H 0.974300 0.560800 0.432000
H27 H 0.562600 0.883200 0.709800
H28 H 0.609900 0.843200 0.821700
H29 H 0.615900 0.942800 0.808300
H30 H 0.475400 0.608600 0.278800
H31 H 0.898000 0.518500 0.646100
H32 H 0.834800 0.507700 0.711900
H33 H 0.952100 0.466500 0.750900
H34 H 0.540500 0.591600 0.215900
H35 H 0.880000 1.023200 0.057300
H36 H 0.811700 0.954300 -0.027400
H37 H 0.941200 0.949800 0.030600
H38 H 0.480900 0.515500 0.240100
H39 H 0.427900 0.694300 0.069100
H40 H 0.299800 0.688800 0.014700
H41 H 0.773700 0.903100 0.193600
H42 H 0.706400 0.920800 0.073500
H43 H 0.776600 0.994500 0.149300
H44 H 0.352700 0.783100 0.360300
H45 H 0.997300 0.885400 0.478300
H46 H 0.879700 0.855700 0.394000
H47 H 0.379700 0.644300 0.394000
H48 H 0.852700 0.716900 0.360300
H49 H 0.497300 0.614600 0.478300
H50 H 0.799800 0.811200 0.014700
H51 H 0.927900 0.805700 0.069100
H52 H 0.276600 0.505500 0.149300
H53 H 0.980900 0.984500 0.240100
H54 H 1.040500 0.908400 0.215900
H55 H 0.975400 0.891400 0.278800
H56 H 0.206400 0.579200 0.073500
H57 H 1.115900 0.557200 0.808300
H58 H 1.109900 0.656800 0.821700
H59 H 1.062600 0.616800 0.709800
H60 H 0.273700 0.596900 0.193600
H61 H 1.005100 0.529800 0.911700
H62 H 0.901500 0.588200 0.882900
H63 H 1.019700 0.629300 0.930600
H64 H 0.441200 0.550200 0.030600
H65 H 0.815200 0.879500 0.685300
H66 H 0.739100 0.807300 0.692500
H67 H 0.773800 0.804400 0.603700
H68 H 0.311700 0.545700 -0.027400
H69 H 0.922300 0.653600 0.066700
H70 H 0.792800 0.656200 0.010100
H71 H 0.856400 0.602100 0.112400
H72 H 0.380000 0.476800 0.057300
H73 H 0.756200 0.674400 0.188400
H74 H 0.694600 0.738600 0.095700
H75 H 0.766400 0.773700 0.209100
H76 H 0.452100 1.033500 0.750900
H77 H 0.994900 0.759700 0.905600
H78 H 0.868000 0.759500 0.871200
H79 H 0.927100 0.845400 0.869800
H80 H 1.050700 0.722000 0.528600
H81 H 0.334800 0.992300 0.711900
H82 H 0.398000 0.981500 0.646100
H83 H 0.474300 0.939200 0.432000
H84 H 0.384300 0.927700 0.315300
H85 H 0.360000 0.724800 0.524500
H86 H 0.246300 0.916600 0.363400
H87 H 0.314700 0.999300 0.417600
H88 H 0.333100 0.914400 0.482000
H89 H 0.419100 0.537000 0.565100
H90 H 0.365200 0.506800 0.448400
H91 H 0.632600 0.167700 0.356900
H92 H 0.691700 0.156400 0.288700
H93 H 0.301000 0.569600 0.485500
H94 H 0.699000 0.430400 0.514500
H95 H 0.634800 0.493200 0.551600
H96 H 0.580900 0.463000 0.434900
H97 H 0.308300 0.843600 0.711300
H98 H 0.666900 0.085600 0.518000
H99 H 0.685300 0.000700 0.582400
H100 H 0.753700 0.083400 0.636600
H101 H 0.367400 0.832300 0.643100
H102 H 0.640000 0.275200 0.475500
H103 H -0.050700 0.278000 0.471400
H104 H 0.072900 0.154600 0.130200
H105 H 0.615700 0.072300 0.684700
H106 H 0.525700 0.060800 0.568000
H107 H 0.132000 0.240500 0.128800
H108 H 0.005100 0.240300 0.094400
H109 H 0.233600 0.226300 0.790900
H110 H 0.305400 0.261400 0.904300
H111 H 0.602000 0.018500 0.353900
H112 H 0.665200 0.007700 0.288100
H113 H 0.547900 -0.033500 0.249100
H114 H 0.243800 0.325600 0.811600
H115 H 0.620000 0.523200 0.942700
H116 H 0.688300 0.454300 1.027400
H117 H 0.558800 0.449800 0.969400
H118 H 0.143600 0.397900 0.887600
H119 H 0.207200 0.343800 0.989900
H120 H 0.077700 0.346400 0.933300
H121 H 0.726300 0.403100 0.806400
H122 H 0.793600 0.420800 0.926500
H123 H 0.723400 0.494500 0.850700
H124 H 0.226200 0.195600 0.396300
H125 H 0.502700 0.385400 0.521700
H126 H 0.620300 0.355700 0.606000
H127 H 0.260900 0.192700 0.307500
H128 H 0.647300 0.216900 0.639700
H129 H 0.184800 0.120500 0.314700
H130 H 0.700200 0.311200 0.985300
H131 H 0.572100 0.305700 0.930900
H132 H -0.019700 0.370700 0.069400
H133 H 0.519100 0.484500 0.759900
H134 H 0.459500 0.408400 0.784100
H135 H 0.524600 0.391400 0.721200
H136 H 0.098500 0.411800 0.117100
H137 H 0.384100 0.057200 0.191700
H138 H 0.390100 0.156800 0.178300
H139 H 0.437400 0.116800 0.290200
H140 H -0.005100 0.470200 0.088300
H141 H 0.494900 0.029800 0.088300
H142 H 0.598500 0.088200 0.117100
H143 H 0.480300 0.129300 0.069400
H144 H -0.062600 0.383200 0.290200
H145 H 0.684800 0.379500 0.314700
H146 H 0.760900 0.307300 0.307500
H147 H 0.726200 0.304400 0.396300
H148 H -0.109900 0.343200 0.178300
H149 H 0.577700 0.153600 0.933300
H150 H 0.707200 0.156200 0.989900
H151 H 0.643600 0.102100 0.887600
H152 H -0.115900 0.442800 0.191700
H153 H 0.743800 0.174400 0.811600
H154 H 0.805400 0.238600 0.904300
H155 H 0.733600 0.273700 0.790900
H156 H 0.024600 0.108600 0.721200
H157 H 0.505100 0.259700 0.094400
H158 H 0.632000 0.259500 0.128800
H159 H 0.572900 0.345400 0.130200
H160 H 0.449300 0.222000 0.471400
H161 H -0.040500 0.091600 0.784100
H162 H 0.019100 0.015500 0.759900
H163 H 0.072100 0.194300 0.930900
H164 H 0.200200 0.188800 0.985300
H165 H 0.147300 0.283100 0.639700
H166 H 0.120300 0.144300 0.606000
H167 H 0.002700 0.114600 0.521700
H168 H 0.223400 0.005500 0.850700
H169 H 0.293600 0.079200 0.926500
H170 H 0.226300 0.096900 0.806400
H171 H 0.132600 0.332300 0.356900
H172 H 0.191700 0.343600 0.288700
H173 H 0.058800 0.050200 0.969400
H174 H 0.199000 0.069600 0.514500
H175 H 0.134800 0.006800 0.551600
H176 H 0.080900 0.037000 0.434900
H177 H 0.188300 0.045700 1.027400
H178 H 0.166900 0.414400 0.518000
H179 H 0.185300 0.499300 0.582400
H180 H 0.253700 0.416600 0.636600
H181 H 0.120000 -0.023200 0.942700
H182 H 0.140000 0.224800 0.475500
H183 H 0.047900 0.533500 0.249100
H184 H 0.165200 0.492300 0.288100
H185 H 0.115700 0.427700 0.684700
H186 H 0.025700 0.439200 0.568000
H187 H 0.102000 0.481500 0.353900
H188 H 0.427100 0.654600 0.869800
C189 C -0.009760 0.191910 0.353820
C190 C 0.093840 0.485180 0.284540
C191 C 0.005330 0.288490 0.655200
C192 C 0.094340 0.410270 0.613550
C193 C 0.040170 0.402470 0.224650
C194 C 0.123230 0.036160 0.962200
C195 C 0.066620 0.210770 0.467410
C196 C 0.183240 0.437660 0.585020
C197 C 0.127430 0.053910 0.505960
C198 C 0.139120 0.267840 0.857920
C199 C 0.100020 0.233530 0.253930
C200 C 0.226890 0.066190 0.864100
C201 C 0.121470 0.328990 0.285880
C202 C 0.424810 0.715560 0.858650
C203 C 0.260210 0.770530 0.160530
C204 C 0.075930 0.130520 0.532650
C205 C 0.357830 0.846330 0.076690
C206 C 0.878530 0.671010 0.714120
C207 C 0.075820 0.312420 0.603770
C208 C 0.872570 0.946090 0.494040
C209 C 0.134840 0.186630 0.917800
C210 C 0.816760 0.562340 0.414980
C211 C 0.297420 0.680610 0.675300
C212 C 0.023030 0.075580 0.776400
C213 C 0.933380 0.789230 0.532590
C214 C 0.959830 0.597530 0.775350
C215 C 0.575190 0.284440 0.141350
C216 C -0.072500 0.391920 0.220880
C217 C 0.739790 0.229470 0.839470
C218 C 0.642170 0.153670 0.923310
C219 C 0.702580 0.319390 0.324700
C220 C 0.027250 0.414950 0.114580
C221 C 0.527250 0.085050 0.114580
C222 C 0.427500 0.108080 0.220880
C223 C 0.523030 0.424420 0.776400
C224 C 0.202580 0.180610 0.324700
C225 C 0.634840 0.313370 0.917800
C226 C 0.575820 0.187580 0.603770
C227 C 0.575930 0.369480 0.532650
C228 C 0.142170 0.346330 0.923310
C229 C 0.726890 0.433810 0.864100
C230 C 0.600020 0.266470 0.253930
C231 C 0.639120 0.232160 0.857920
C232 C 0.239790 0.270530 0.839470
C233 C 0.623230 0.463840 0.962200
C234 C 0.593840 0.014820 0.284540
C235 C 0.490240 0.308090 0.353820
C236 C 0.075190 0.215560 0.141350
C237 C 0.627330 0.406880 0.877760
C238 C 0.505330 0.211510 0.655200
C239 C 0.594340 0.089730 0.613550
C240 C 0.540170 0.097530 0.224650
C241 C 0.905660 0.589730 0.386450
C242 C 0.472750 0.914950 0.885420
C243 C 0.994670 0.711510 0.344800
C244 C 0.872670 0.906880 0.122240
C245 C 1.009760 0.808090 0.646180
C246 C 0.572500 0.891920 0.779120
C247 C 0.906160 0.514820 0.715460
C248 C 0.876770 0.963840 0.037800
C249 C 0.860880 0.732160 0.142080
C250 C 0.378530 0.828990 0.714120
C251 C 0.566620 0.289230 0.467410
C252 C 0.683240 0.062340 0.585020
C253 C 0.372570 0.553910 0.494040
C254 C 0.627430 0.446090 0.505960
C255 C 0.621470 0.171010 0.285880
C256 C 0.476970 0.575580 0.223600
C257 C 0.316760 0.937660 0.414980
C258 C 0.899980 0.766470 0.746070
C259 C 0.773110 0.933810 0.135900
C260 C 0.365160 0.686630 0.082200
C261 C 0.433380 0.710770 0.532590
C262 C 0.924070 0.869480 0.467350
C263 C 0.459830 0.902470 0.775350
C264 C 0.405660 0.910270 0.386450
C265 C 0.424180 0.812420 0.396230
C266 C 0.924180 0.687580 0.396230
C267 C 0.494670 0.788490 0.344800
C268 C 0.372670 0.593120 0.122240
C269 C 0.509760 0.691910 0.646180
C270 C 0.406160 0.985180 0.715460
C271 C 0.865160 0.813370 0.082200
C272 C 0.424070 0.630520 0.467350
C273 C 0.924810 0.784440 0.858650
C274 C 0.376770 0.536160 0.037800
C275 C 0.760210 0.729470 0.160530
C276 C 0.857830 0.653670 0.076690
C277 C 0.797420 0.819390 0.675300
C278 C 0.360880 0.767840 0.142080
C279 C 0.399980 0.733530 0.746070
C280 C 0.273110 0.566190 0.135900
C281 C 0.972750 0.585050 0.885420
C282 C 1.072500 0.608080 0.779120
C283 C 0.976970 0.924420 0.223600
C284 C 0.127330 0.093120 0.877760
N285 N 0.504820 0.299060 0.268370
N286 N 0.520890 0.212390 0.493060
N287 N 0.389070 0.337160 0.323680
N288 N 0.396260 0.211940 0.601130
N289 N 0.438120 0.233420 0.763800
N290 N 0.409710 0.322980 0.184280
N291 N 0.341250 0.345170 0.218420
N292 N 0.357390 0.225620 0.670600
N293 N 0.642610 0.774380 0.329400
N294 N 0.658750 0.654830 0.781580
N295 N 0.590290 0.677020 0.815720
N296 N 0.561880 0.766580 0.236200
N297 N 0.603740 0.788060 0.398870
N298 N 0.610930 0.662840 0.676320
N299 N 0.479110 0.787610 0.506940
N300 N 0.495180 0.700940 0.731630
N301 N 0.466540 0.774590 0.243110
N302 N 0.033460 0.274590 0.756890
N303 N 0.004820 0.200940 0.268370
N304 N 0.020890 0.287610 0.493060
N305 N -0.110930 0.162840 0.323680
N306 N -0.103740 0.288060 0.601130
N307 N -0.061880 0.266580 0.763800
N308 N -0.090290 0.177020 0.184280
N309 N 1.142610 0.725620 0.329400
N310 N 1.158750 0.845170 0.781580
N311 N 1.090290 0.822980 0.815720
N312 N -0.158750 0.154830 0.218420
N313 N 1.061880 0.733420 0.236200
N314 N 1.103740 0.711940 0.398870
N315 N 1.110930 0.837160 0.676320
N316 N -0.142610 0.274380 0.670600
N317 N 0.979110 0.712390 0.506940
N318 N 0.995180 0.799060 0.731630
N319 N 0.533460 0.225410 0.756890
N320 N 0.966540 0.725410 0.243110

#END
