./LADDIF_from_POSCAR.cif_generated_by_CrystalShift
_symmetry_cell_setting triclinic
_symmetry_space_group_name_H-M 'P 1'
loop_
_symmetry_equiv_pos_site_id
_symmetry_equiv_pos_as_xyz
1 x,y,z
_cell_length_a 4.987800
_cell_length_b 9.993100
_cell_length_c 11.462500
_cell_angle_alpha 113.250000
_cell_angle_beta 92.103000
_cell_angle_gamma 93.352000
_cell_volume 522.922750
loop_
_atom_site_label
_atom_site_type_symbol
_atom_site_fract_x
_atom_site_fract_y
_atom_site_fract_z
H1 H 0.400300 0.960100 1.097700
H2 H -0.008000 0.705000 0.891000
H3 H 0.599700 1.039900 0.902300
H4 H 0.411500 1.136400 1.008700
H5 H 0.225000 0.218000 0.287000
H6 H 1.008000 1.295000 1.109000
H7 H 0.801000 0.436500 0.434000
H8 H 0.400300 0.960100 0.097700
H9 H 0.963300 0.628800 0.381500
H10 H 0.588500 0.863600 -0.008700
H11 H -0.008000 0.705000 -0.109000
H12 H 0.335100 0.531600 0.122300
H13 H 0.599700 1.039900 -0.097700
H14 H 0.411500 1.136400 0.008700
H15 H 1.008000 1.295000 0.109000
H16 H 0.262400 0.074200 0.491500
H17 H 0.344900 -0.023900 0.351400
H18 H 0.091800 0.072100 0.369700
H19 H 0.588500 0.863600 0.991300
H20 H 0.400300 -0.039900 1.097700
H21 H 0.588500 -0.136400 0.991300
H22 H -0.008000 -0.295000 0.891000
H23 H 0.775000 0.782000 0.713000
H24 H 0.599700 0.039900 0.902300
H25 H 0.199000 0.563500 0.566000
H26 H 0.411500 0.136400 1.008700
H27 H 0.036700 0.371200 0.618500
H28 H 1.008000 0.295000 1.109000
H29 H 0.400300 -0.039900 0.097700
H30 H 0.664900 0.468400 0.877700
H31 H 0.588500 -0.136400 -0.008700
H32 H -0.008000 -0.295000 -0.109000
H33 H 0.599700 0.039900 -0.097700
H34 H 0.737600 0.925800 0.508500
H35 H 0.655100 1.023900 0.648600
H36 H 0.908200 0.927900 0.630300
H37 H 0.411500 0.136400 0.008700
H38 H 1.008000 0.295000 0.109000
C39 C 0.799800 1.142100 0.079000
C40 C 0.200200 0.857900 0.921000
C41 C 0.553600 0.067200 -0.008300
C42 C 0.799800 0.142100 0.079000
C43 C 0.727700 0.931800 0.595600
C44 C 0.200200 -0.142100 -0.079000
C45 C 0.472200 0.374300 0.305200
C46 C 0.553600 1.067200 0.991700
C47 C 0.708700 0.457600 0.370000
C48 C 0.446400 -0.067200 0.008300
C49 C 0.547700 0.806200 0.595000
C50 C 0.568500 0.488300 0.814100
C51 C 0.799800 0.142100 1.079000
C52 C 0.799800 1.142100 1.079000
C53 C 0.333400 0.402000 0.754600
C54 C 0.804000 0.570400 0.338900
C55 C 0.553600 0.067200 0.991700
C56 C 0.196000 0.429600 0.661100
C57 C 0.291300 0.542400 0.630000
C58 C 0.200200 -0.142100 0.921000
C59 C 0.666600 0.598000 0.245400
C60 C 0.446400 0.932800 0.008300
C61 C 0.431500 0.511700 0.185900
C62 C 0.446400 -0.067200 1.008300
C63 C 0.527800 0.625700 0.694800
C64 C 0.200200 0.857900 -0.079000
C65 C 0.446400 0.932800 1.008300
C66 C 0.452300 0.193800 0.405000
C67 C 0.272300 0.068200 0.404400
C68 C 0.553600 1.067200 -0.008300
N69 N 0.337700 0.402200 0.215300
N70 N 0.356400 0.257300 0.327000
N71 N 0.643600 0.742700 0.673000
N72 N 0.662300 0.597800 0.784700
O73 O 0.110800 0.738900 -0.065600
O74 O 0.098500 -0.097200 0.847000
O75 O 0.098500 0.902800 -0.153000
O76 O 0.889200 1.261100 0.065600
O77 O 0.665500 0.234600 0.469100
O78 O 0.901500 0.097200 1.153000
O79 O 0.889200 0.261100 1.065600
O80 O 0.889200 1.261100 1.065600
O81 O 0.098500 -0.097200 -0.153000
O82 O 0.901500 1.097200 1.153000
O83 O 0.334500 0.765400 0.530900
O84 O 0.110800 -0.261100 0.934400
O85 O 0.110800 -0.261100 -0.065600
O86 O 0.901500 0.097200 0.153000
O87 O 0.110800 0.738900 0.934400
O88 O 0.901500 1.097200 0.153000
O89 O 0.098500 0.902800 0.847000
O90 O 0.889200 0.261100 0.065600
Br91 Br 0.788510 0.748340 0.196080
Br92 Br 0.211490 0.251660 0.803920

#END
