
#######################################################################
#
#                 Cambridge Crystallographic Data Centre
#                                CCDC 
#
#######################################################################
#
# If this CIF has been generated from an entry in the Cambridge 
# Structural Database, then it will include bibliographic, chemical, 
# crystal, experimental, refinement or atomic coordinate data resulting 
# from the CCDC's data processing and validation procedures.
#
#######################################################################

data_LADDUP
_symmetry_cell_setting           monoclinic
_symmetry_space_group_name_H-M   'P 21'
_symmetry_Int_Tables_number      4
_space_group_name_Hall           'P 2yb'
loop_
_symmetry_equiv_pos_site_id
_symmetry_equiv_pos_as_xyz
1 x,y,z
2 -x,1/2+y,-z
_cell_length_a                   10.117(1)
_cell_length_b                   6.827(1)
_cell_length_c                   14.538(1)
_cell_angle_alpha                90
_cell_angle_beta                 90.77(1)
_cell_angle_gamma                90
_cell_volume                     1004.03
loop_
_atom_site_label
_atom_site_type_symbol
_atom_site_fract_x
_atom_site_fract_y
_atom_site_fract_z
C1 C 0.5790(4) 0.7315 0.9181(3)
C2 C 0.5486(4) 0.5412(8) 0.8707(3)
C3 C 0.6650(4) 0.4705(7) 0.8139(3)
C4 C 0.6340(4) 0.2771(8) 0.7667(3)
C5 C 0.7394(4) 0.2059(7) 0.7001(3)
C6 C 0.8801(4) 0.2191(7) 0.7404(3)
C7 C 0.9878(4) 0.2096(8) 0.6678(3)
C8 C 0.9938(5) 0.0467(9) 0.5958(4)
C9 C 1.1328(5) 0.060(1) 0.5546(4)
C10 C 1.2102(5) 0.200(1) 0.6193(4)
C11 C 1.1293(4) 0.2094(8) 0.7068(3)
C12 C 1.1511(4) 0.3939(9) 0.7629(4)
C13 C 1.0465(4) 0.4187(9) 0.8366(3)
C14 C 0.9040(4) 0.4126(6) 0.7958(3)
C15 C 0.7967(4) 0.4583(7) 0.8682(3)
C16 C 0.8212(4) 0.6607(7) 0.9121(3)
C17 C 0.7058(5) 0.7340(8) 0.9711(3)
C18 C 0.7037(5) -0.0116(9) 0.6712(4)
C19 C 0.5711(6) -0.038(1) 0.6310(4)
C20 C 0.5483(5) -0.2354(9) 0.5954(3)
C21 C 0.4506(6) -0.343(1) 0.6181(4)
C22 C 1.1598(5) 0.028(1) 0.7666(4)
C23 C 0.7943(5) 0.3023(8) 0.9447(3)
O1 O 0.5066(3) 0.8725(6) 0.9113(2)
H1 H 0.6813 0.5703 0.7678
H2 H 0.7355 0.2877 0.6467
H3 H 0.8874 0.1124 0.7820
H4 H 0.9584 0.3269 0.6354
H5 H 0.8957 0.5165 0.7508
H6 H 0.4740 0.5638 0.8302
H7 H 0.5267 0.4463 0.9144
H8 H 0.5527 0.2947 0.7336
H9 H 0.6232 0.1829 0.8132
H10 H 0.9296 0.0737 0.5473
H11 H 0.9747 -0.0732 0.6228
H12 H 1.1367 0.0992 0.4948
H13 H 1.1766 -0.0704 0.5604
H14 H 1.2192 0.3262 0.5899
H15 H 1.3000 0.1546 0.6323
H16 H 1.1475 0.5082 0.7221
H17 H 1.2385 0.3928 0.7896
H18 H 1.0604 0.5433 0.8701
H19 H 1.0572 0.3177 0.8827
H20 H 0.8324 0.7560 0.8639
H21 H 0.8979 0.6568 0.9491
H22 H 0.6987 0.6524 1.0243
H23 H 0.7236 0.8656 0.9919
H24 H 0.7095 -0.0906 0.7256
H25 H 0.7692 -0.0548 0.6293
H26 H 0.5626 0.0554 0.5797
H27 H 0.5066 -0.0087 0.6738
H28 H 0.6096 -0.2851 0.5487
H29 H 0.4526 -0.40841 0.6800
H30 H 0.3724 -0.3624 0.5832
H31 H 1.2459 0.0293 0.7907
H32 H 1.0976 0.0182 0.8161
H33 H 1.1483 -0.0908 0.7299
H34 H 0.7111 0.3024 0.9750
H35 H 0.81152 0.1766 0.9207
H36 H 0.8618 0.3315 0.9908
C1 C 0.4210(4) 1.2315 0.0819(3)
C2 C 0.4514(4) 1.0412(8) 0.1293(3)
C3 C 0.3350(4) 0.9705(7) 0.1861(3)
C4 C 0.3660(4) 0.7771(8) 0.2333(3)
C5 C 0.2606(4) 0.7059(7) 0.2999(3)
C6 C 0.1199(4) 0.7191(7) 0.2596(3)
C7 C 0.0122(4) 0.7096(8) 0.3322(3)
C8 C 0.0062(5) 0.5467(9) 0.4042(4)
C9 C -0.1328(5) 0.560(1) 0.4454(4)
C10 C -0.2102(5) 0.700(1) 0.3807(4)
C11 C -0.1293(4) 0.7094(8) 0.2932(3)
C12 C -0.1511(4) 0.8939(9) 0.2371(4)
C13 C -0.0465(4) 0.9187(9) 0.1634(3)
C14 C 0.0960(4) 0.9126(6) 0.2042(3)
C15 C 0.2033(4) 0.9583(7) 0.1318(3)
C16 C 0.1788(4) 1.1607(7) 0.0879(3)
C17 C 0.2942(5) 1.2340(8) 0.0289(3)
C18 C 0.2963(5) 0.4884(9) 0.3288(4)
C19 C 0.4289(6) 0.462(1) 0.3690(4)
C20 C 0.4517(5) 0.2646(9) 0.4046(3)
C21 C 0.5494(6) 0.157(1) 0.3819(4)
C22 C -0.1598(5) 0.528(1) 0.2334(4)
C23 C 0.2057(5) 0.8023(8) 0.0553(3)
O1 O 0.4934(3) 1.3725(6) 0.0887(2)
H1 H 0.3187 1.0703 0.2322
H2 H 0.2645 0.7877 0.3533
H3 H 0.1126 0.6124 0.2180
H4 H 0.0416 0.8269 0.3646
H5 H 0.1043 1.0165 0.2492
H6 H 0.5260 1.0638 0.1698
H7 H 0.4733 0.9463 0.0856
H8 H 0.4473 0.7947 0.2664
H9 H 0.3768 0.6829 0.1868
H10 H 0.0704 0.5737 0.4527
H11 H 0.0253 0.4268 0.3772
H12 H -0.1367 0.5992 0.5052
H13 H -0.1766 0.4296 0.4396
H14 H -0.2192 0.8262 0.4101
H15 H -0.3000 0.6546 0.3677
H16 H -0.1475 1.0082 0.2779
H17 H -0.2385 0.8928 0.2104
H18 H -0.0604 1.0433 0.1299
H19 H -0.0572 0.8177 0.1173
H20 H 0.1676 1.2560 0.1361
H21 H 0.1021 1.1568 0.0509
H22 H 0.3013 1.1524 -0.0243
H23 H 0.2764 1.3656 0.0081
H24 H 0.2905 0.4094 0.2744
H25 H 0.2308 0.4452 0.3707
H26 H 0.4374 0.5554 0.4203
H27 H 0.4934 0.4913 0.3262
H28 H 0.3904 0.2149 0.4513
H29 H 0.5474 0.09159 0.3200
H30 H 0.6276 0.1376 0.4168
H31 H -0.2459 0.5293 0.2093
H32 H -0.0976 0.5182 0.1839
H33 H -0.1483 0.4092 0.2701
H34 H 0.2889 0.8024 0.0250
H35 H 0.18848 0.6766 0.0793
H36 H 0.1382 0.8315 0.0092

#END
