
#######################################################################
#
#                 Cambridge Crystallographic Data Centre
#                                CCDC 
#
#######################################################################
#
# If this CIF has been generated from an entry in the Cambridge 
# Structural Database, then it will include bibliographic, chemical, 
# crystal, experimental, refinement or atomic coordinate data resulting 
# from the CCDC's data processing and validation procedures.
#
#######################################################################

data_LADHON
_symmetry_cell_setting           monoclinic
_symmetry_space_group_name_H-M   'P 21'
_symmetry_Int_Tables_number      4
_space_group_name_Hall           'P 2yb'
loop_
_symmetry_equiv_pos_site_id
_symmetry_equiv_pos_as_xyz
1 x,y,z
2 -x,1/2+y,-z
_cell_length_a                   8.497(2)
_cell_length_b                   7.153(1)
_cell_length_c                   12.599(2)
_cell_angle_alpha                90
_cell_angle_beta                 102.13(2)
_cell_angle_gamma                90
_cell_volume                     748.658
loop_
_atom_site_label
_atom_site_type_symbol
_atom_site_fract_x
_atom_site_fract_y
_atom_site_fract_z
S1 S 0.3576(2) 0.465 0.1400(1)
S2 S 0.1426(2) 0.2278(4) -0.0760(1)
P1 P 0.2621(2) 0.2119(3) 0.07144(9)
O1 O 0.4318(5) 0.0966(6) 0.0910(3)
N1 N 0.1591(6) 0.1108(8) 0.1519(3)
C1 C 0.5656(8) 0.370(1) 0.1776(5)
C2 C 0.5728(7) 0.213(1) 0.0986(5)
C3 C 0.2181(6) 0.0824(8) 0.2672(4)
C4 C 0.1599(7) -0.1069(9) 0.2989(4)
C5 C 0.1697(5) 0.2383(8) 0.3375(4)
C6 C 0.0359(7) 0.3487(9) 0.2967(4)
C7 C -0.0161(7) 0.484(1) 0.3639(5)
C8 C 0.0636(7) 0.5084(9) 0.4679(4)
C9 C 0.2009(6) 0.3981(8) 0.5137(4)
C10 C 0.2791(7) 0.4171(8) 0.6222(4)
C11 C 0.4054(7) 0.307(1) 0.6663(4)
C12 C 0.4632(7) 0.1738(9) 0.6009(4)
C13 C 0.3899(6) 0.1515(8) 0.4953(4)
C14 C 0.2536(6) 0.2606(7) 0.4465(4)
H1 H 0.070(7) 0.066(9) 0.115(4)
H2 H 0.587 0.324 0.250
H3 H 0.642 0.464 0.171
H4 H 0.576 0.262 0.029
H5 H 0.667 0.140 0.124
H6 H 0.332 0.084 0.280
H7 H 0.198 -0.127 0.374
H8 H 0.046 -0.107 0.283
H9 H 0.198 -0.204 0.259
H10 H -0.021 0.333 0.224
H11 H -0.107 0.559 0.336
H12 H -0.027 0.601 0.511
H13 H 0.242 0.509 0.666
H14 H 0.456 0.320 0.741
H15 H 0.554 0.099 0.631
H16 H 0.430 0.060 0.453
S1 S 0.6424(2) 0.965 0.8600(1)
S2 S 0.8574(2) 0.7278(4) 1.0760(1)
P1 P 0.7379(2) 0.7119(3) 0.92856(9)
O1 O 0.5682(5) 0.5966(6) 0.9090(3)
N1 N 0.8409(6) 0.6108(8) 0.8481(3)
C1 C 0.4344(8) 0.870(1) 0.8224(5)
C2 C 0.4272(7) 0.713(1) 0.9014(5)
C3 C 0.7819(6) 0.5824(8) 0.7328(4)
C4 C 0.8401(7) 0.3931(9) 0.7011(4)
C5 C 0.8303(5) 0.7383(8) 0.6625(4)
C6 C 0.9641(7) 0.8487(9) 0.7033(4)
C7 C 1.0161(7) 0.984(1) 0.6361(5)
C8 C 0.9364(7) 1.0084(9) 0.5321(4)
C9 C 0.7991(6) 0.8981(8) 0.4863(4)
C10 C 0.7209(7) 0.9171(8) 0.3778(4)
C11 C 0.5946(7) 0.807(1) 0.3337(4)
C12 C 0.5368(7) 0.6738(9) 0.3991(4)
C13 C 0.6101(6) 0.6515(8) 0.5047(4)
C14 C 0.7464(6) 0.7606(7) 0.5535(4)
H1 H 0.930(7) 0.566(9) 0.885(4)
H2 H 0.413 0.824 0.750
H3 H 0.358 0.964 0.829
H4 H 0.424 0.762 0.971
H5 H 0.333 0.640 0.876
H6 H 0.668 0.584 0.720
H7 H 0.802 0.373 0.626
H8 H 0.954 0.393 0.717
H9 H 0.802 0.296 0.741
H10 H 1.021 0.833 0.776
H11 H 1.107 1.059 0.664
H12 H 1.027 1.101 0.489
H13 H 0.758 1.009 0.334
H14 H 0.544 0.820 0.259
H15 H 0.446 0.599 0.369
H16 H 0.570 0.560 0.547

#END
