./LADJIJ_from_POSCAR.cif_generated_by_CrystalShift
_symmetry_cell_setting triclinic
_symmetry_space_group_name_H-M 'P 1'
loop_
_symmetry_equiv_pos_site_id
_symmetry_equiv_pos_as_xyz
1 x,y,z
_cell_length_a 8.678000
_cell_length_b 16.198000
_cell_length_c 10.845000
_cell_angle_alpha 90.000000
_cell_angle_beta 90.220000
_cell_angle_gamma 90.000000
_cell_volume 1524.429678
loop_
_atom_site_label
_atom_site_type_symbol
_atom_site_fract_x
_atom_site_fract_y
_atom_site_fract_z
H1 H 0.429900 0.299700 -0.192400
H2 H 0.840100 0.417500 -0.268400
H3 H 0.719500 0.487900 -0.083600
H4 H 0.464000 0.416900 -0.038100
H5 H 0.872300 0.424000 0.472300
H6 H 0.783200 0.346800 0.422000
H7 H 0.940000 0.373000 0.362200
H8 H 0.798400 0.556100 0.215100
H9 H 0.883500 0.553700 0.342900
H10 H 0.949800 0.504200 0.230800
H11 H 0.558200 0.514200 0.316100
H12 H 0.554600 0.433400 0.395500
H13 H 0.643000 0.511400 0.444000
H14 H 0.645900 0.354700 0.224100
H15 H 0.643300 0.434800 0.147400
H16 H 1.021300 0.382100 0.193500
H17 H 1.018400 0.285400 -0.157300
H18 H 0.918000 0.181600 0.030400
H19 H 0.835500 0.182200 -0.220900
H20 H 0.731500 0.137600 -0.118200
H21 H 0.231500 0.362400 0.381800
H22 H 0.335500 0.317800 0.279100
H23 H 0.418000 0.318400 0.530400
H24 H 0.518400 0.214600 0.342700
H25 H 0.521300 0.117900 0.693500
H26 H 0.143300 0.065200 0.647400
H27 H 0.145900 0.145300 0.724100
H28 H 0.143000 -0.011400 0.944000
H29 H 0.054600 0.066600 0.895500
H30 H 0.058200 -0.014200 0.816100
H31 H 0.449800 -0.004200 0.730800
H32 H 0.383500 -0.053700 0.842900
H33 H 0.298400 -0.056100 0.715100
H34 H 0.440000 0.127000 0.862200
H35 H 0.283200 0.153200 0.922000
H36 H 0.372300 0.076000 0.972300
H37 H -0.036000 0.083100 0.461900
H38 H 0.219500 0.012100 0.416400
H39 H 0.340100 0.082500 0.231600
H40 H 0.162000 0.199900 0.164500
H41 H -0.070100 0.200300 0.307600
H42 H 1.070100 0.799700 0.692400
H43 H 0.838000 0.800100 0.835500
H44 H 0.659900 0.917500 0.768400
H45 H 0.780500 0.987900 0.583600
H46 H 1.036000 0.916900 0.538100
H47 H 0.627700 0.924000 0.027700
H48 H 0.716800 0.846800 0.078000
H49 H 0.560000 0.873000 0.137800
H50 H 0.701600 1.056100 0.284900
H51 H 0.616500 1.053700 0.157100
H52 H 0.550200 1.004200 0.269200
H53 H 0.941800 1.014200 0.183900
H54 H 0.945400 0.933400 0.104500
H55 H 0.857000 1.011400 0.056000
H56 H 0.854100 0.854700 0.275900
H57 H 0.856700 0.934800 0.352600
H58 H 0.478700 0.882100 0.306500
H59 H 0.481600 0.785400 0.657300
H60 H 0.582000 0.681600 0.469600
H61 H 0.664500 0.682200 0.720900
H62 H 0.268500 0.862400 1.118200
H63 H 0.164500 0.817800 1.220900
H64 H 0.082000 0.818400 0.969600
H65 H -0.018400 0.714600 1.157300
H66 H -0.021300 0.617900 0.806500
H67 H 0.356700 0.565200 0.852600
H68 H 0.354100 0.645300 0.775900
H69 H 0.357000 0.488600 0.556000
H70 H 0.445400 0.566600 0.604500
H71 H 0.441800 0.485800 0.683900
H72 H 0.050200 0.495800 0.769200
H73 H 0.116500 0.446300 0.657100
H74 H 0.201600 0.443900 0.784900
H75 H 0.060000 0.627000 0.637800
H76 H 0.216800 0.653200 0.578000
H77 H 0.127700 0.576000 0.527700
H78 H 0.536000 0.583100 1.038100
H79 H 0.280500 0.512100 1.083600
H80 H 0.159900 0.582500 1.268400
H81 H 0.338000 0.699900 1.335500
H82 H 0.570100 0.700300 1.192400
H83 H 0.768500 0.637600 0.618200
H84 H 0.662000 0.300100 -0.335500
C85 C 0.600600 0.711200 0.544900
C86 C 0.522700 0.783900 0.575300
C87 C 0.428300 0.831700 0.481100
C88 C 0.296600 0.316400 0.361800
C89 C 0.523800 0.861800 0.381600
C90 C 0.678900 0.861300 0.398700
C91 C 0.790600 0.898800 0.306100
C92 C 0.737500 0.947600 0.193100
C93 C 0.884000 0.980100 0.128100
C94 C 0.642800 1.022300 0.229200
C95 C 0.653000 0.892800 0.100300
C96 C 0.892500 0.745800 0.448600
C97 C 0.399400 0.288800 0.455100
C98 C 0.961500 0.899400 0.597800
C99 C 0.819600 0.939500 0.624100
C100 C 0.753800 0.901800 0.728200
C101 C 0.852400 0.835500 0.765400
C102 C 0.980500 0.834100 0.684000
C103 C 0.477300 0.216100 0.424700
C104 C 0.480500 0.665900 1.184000
C105 C 0.352400 0.664500 1.265400
C106 C 0.253800 0.598200 1.228200
C107 C 0.319600 0.560500 1.124100
C108 C 0.461500 0.600600 1.097800
C109 C 0.571700 0.168300 0.518900
C110 C 0.392500 0.754200 0.948600
C111 C 0.153000 0.607200 0.600300
C112 C 0.142800 0.477700 0.729200
C113 C 0.384000 0.519900 0.628100
C114 C 0.237500 0.552400 0.693100
C115 C 0.290600 0.601200 0.806100
C116 C 0.178900 0.638700 0.898700
C117 C 0.023800 0.638200 0.881600
C118 C 0.476200 0.138200 0.618400
C119 C -0.071700 0.668300 0.981100
C120 C 0.022700 0.716100 1.075300
C121 C 0.100600 0.788800 1.044900
C122 C 0.203400 0.816400 1.138200
C123 C 0.321100 0.138700 0.601300
C124 C 0.703400 0.683600 0.638200
C125 C 0.796600 0.183600 -0.138200
C126 C 0.899400 0.211200 -0.044900
C127 C 0.977300 0.283900 -0.075300
C128 C 1.071700 0.331700 0.018900
C129 C 0.209400 0.101200 0.693900
C130 C 0.976200 0.361800 0.118400
C131 C 0.821100 0.361300 0.101300
C132 C 0.709400 0.398800 0.193900
C133 C 0.762500 0.447600 0.306900
C134 C 0.616000 0.480100 0.371900
C135 C 0.857200 0.522300 0.270800
C136 C 0.847000 0.392800 0.399700
C137 C 0.607500 0.245800 0.051400
C138 C 0.262500 0.052400 0.806900
C139 C 0.538500 0.399400 -0.097800
C140 C 0.680400 0.439500 -0.124100
C141 C 0.746200 0.401800 -0.228200
C142 C 0.647600 0.335500 -0.265400
C143 C 0.519500 0.334100 -0.184000
C144 C 0.019500 0.165900 0.316000
C145 C 0.147600 0.164500 0.234600
C146 C 0.246200 0.098200 0.271800
C147 C 0.180400 0.060500 0.375900
C148 C 0.038500 0.100600 0.402200
C149 C 0.116000 0.019900 0.871900
C150 C 0.107500 0.254200 0.551400
C151 C 0.347000 0.107200 0.899700
C152 C 0.357200 -0.022300 0.770800
O153 O 0.030600 0.289700 0.617800
O154 O 0.530600 0.210300 0.117800
O155 O 1.209900 0.341200 0.009200
O156 O 0.290100 0.841200 0.490800
O157 O -0.209900 0.658800 0.990800
O158 O 0.709900 0.158800 0.509200
O159 O 0.469400 0.789700 0.882200
O160 O 0.969400 0.710300 0.382200
Re161 Re 0.274100 0.692700 1.065400
Re162 Re 0.725900 0.307300 -0.065400
Re163 Re 0.774100 0.807300 0.565400
Re164 Re 0.225900 0.192700 0.434600

#END
