./LADLAG_from_POSCAR.cif_generated_by_CrystalShift
_symmetry_cell_setting triclinic
_symmetry_space_group_name_H-M 'P 1'
loop_
_symmetry_equiv_pos_site_id
_symmetry_equiv_pos_as_xyz
1 x,y,z
_cell_length_a 7.910300
_cell_length_b 8.202000
_cell_length_c 10.854500
_cell_angle_alpha 79.807000
_cell_angle_beta 69.688000
_cell_angle_gamma 87.445000
_cell_volume 649.918457
loop_
_atom_site_label
_atom_site_type_symbol
_atom_site_fract_x
_atom_site_fract_y
_atom_site_fract_z
H1 H 0.414700 0.426700 0.804600
H2 H 0.044900 0.773800 0.928100
H3 H 0.274900 0.947400 0.924000
H4 H 1.226100 0.112500 0.710000
H5 H 1.123900 0.089900 0.615000
H6 H 1.016100 0.097300 0.764300
H7 H 1.301600 0.820600 0.531500
H8 H 1.198000 0.817600 0.431200
H9 H 1.388300 0.738400 0.404500
H10 H 0.710700 0.326600 0.838800
H11 H 1.366100 0.407300 0.506200
H12 H 0.585300 0.573300 0.195400
H13 H 0.881900 0.488500 0.125600
H14 H 0.955100 0.226200 0.071900
H15 H 0.725100 0.052600 0.076000
H16 H -0.226100 0.887500 0.290000
H17 H -0.123900 0.910100 0.385000
H18 H -0.016100 0.902700 0.235700
H19 H -0.301600 0.179400 0.468500
H20 H -0.198000 0.182400 0.568800
H21 H -0.366100 0.592700 0.493800
H22 H 0.289300 0.673400 0.161200
H23 H -0.388300 0.261600 0.595500
H24 H 0.118100 0.511500 0.874400
C25 C 0.790200 0.418100 0.128900
C26 C 0.833800 0.261500 0.096700
C27 C 0.697400 0.157900 0.100300
C28 C 0.522600 0.213200 0.136020
C29 C 0.471900 0.367900 0.174130
C30 C -0.120500 0.857700 0.311400
C31 C -0.275800 0.243000 0.525900
C32 C 0.137200 0.309600 0.324300
C33 C -0.187500 0.403500 0.448600
C34 C -0.249200 0.562900 0.442200
C35 C -0.109500 0.673400 0.346800
C36 C 0.035300 0.576100 0.298400
C37 C 0.222000 0.578300 0.215790
C38 C 1.187500 0.596500 0.551400
C39 C 1.249200 0.437100 0.557800
C40 C 1.109500 0.326600 0.653200
C41 C 0.964700 0.423900 0.701600
C42 C 0.778000 0.421700 0.784210
C43 C 0.713500 0.578300 0.772530
C44 C 0.862800 0.690400 0.675700
C45 C 1.275800 0.757000 0.474100
C46 C 1.120500 0.142300 0.688600
C47 C 0.528100 0.632100 0.825870
C48 C 0.477400 0.786800 0.863980
C49 C 0.302600 0.842100 0.899700
C50 C 0.166200 0.738500 0.903300
C51 C 0.209800 0.581900 0.871100
C52 C 0.385600 0.531000 0.831700
C53 C 0.286500 0.421700 0.227470
C54 C 0.614400 0.469000 0.168300
N55 N 1.012100 0.587360 0.640770
N56 N -0.012100 0.412640 0.359230
N57 N 0.388400 0.105600 0.123460
N58 N 0.611600 0.894400 0.876540
O59 O 0.595200 1.045850 0.848670
O60 O 0.404800 -0.045850 0.151330
O61 O 0.273200 0.169020 0.079990
O62 O 0.726800 0.830980 0.920010
O63 O 0.859500 0.837410 0.632800
O64 O 0.140500 0.162590 0.367200

#END
