
#######################################################################
#
#                 Cambridge Crystallographic Data Centre
#                                CCDC 
#
#######################################################################
#
# If this CIF has been generated from an entry in the Cambridge 
# Structural Database, then it will include bibliographic, chemical, 
# crystal, experimental, refinement or atomic coordinate data resulting 
# from the CCDC's data processing and validation procedures.
#
#######################################################################

data_LADLAF
_symmetry_cell_setting           triclinic
_symmetry_space_group_name_H-M   'P -1'
_symmetry_Int_Tables_number      2
_space_group_name_Hall           '-P 1'
loop_
_symmetry_equiv_pos_site_id
_symmetry_equiv_pos_as_xyz
1 x,y,z
2 -x,-y,-z
_cell_length_a                   7.873(3)
_cell_length_b                   11.745(4)
_cell_length_c                   13.899(5)
_cell_angle_alpha                81.58(3)
_cell_angle_beta                 74.33(3)
_cell_angle_gamma                69.50(3)
_cell_volume                     1157.17
loop_
_atom_site_label
_atom_site_type_symbol
_atom_site_fract_x
_atom_site_fract_y
_atom_site_fract_z
Br1 Br 0.03050(4) 0.09349(3) -0.15516(2)
O1 O 0.0470(5) -0.1330(3) 0.4123(2)
O2 O 0.5708(2) 0.2468(1) 0.1918(1)
O3 O -0.2156(5) 0.0188(3) 0.4052(2)
O4 O 0.3070(2) 0.4991(2) 0.7026(1)
O5 O 0.5075(3) 0.3083(1) 0.6776(1)
O6 O 0.1809(3) 0.5066(1) 0.2220(1)
O7 O 0.6442(3) 0.4235(1) 0.1264(1)
C1 C 0.2865(3) 0.4144(2) 0.2527(2)
C2 C 0.3754(3) 0.3347(2) 0.0765(2)
C3 C 0.1280(3) 0.1694(2) -0.0808(2)
C4 C 0.3774(3) 0.2994(2) 0.1897(2)
C5 C 0.0841(3) 0.2947(2) -0.0872(2)
C6 C 0.4622(3) 0.3067(2) 0.4930(2)
C7 C 0.3852(3) 0.4125(2) 0.6511(2)
C8 C 0.2805(3) 0.2754(2) 0.0269(2)
C9 C 0.3668(4) 0.0922(2) 0.2722(2)
C10 C 0.5857(3) 0.3045(2) 0.0245(2)
C11 C 0.2444(3) 0.0958(2) -0.0214(2)
C12 C -0.036(1) -0.0263(7) 0.3887(2)
C13 C 0.6732(3) 0.3015(2) 0.1093(2)
C14 C 0.3177(3) 0.4070(2) 0.3562(2)
C15 C 0.2171(3) 0.5094(2) 0.4135(2)
C16 C 0.5585(4) 0.3012(2) 0.7713(2)
C17 C 0.4397(3) 0.3054(2) 0.3970(2)
C18 C 0.0792(4) 0.2534(2) 0.2610(2)
C19 C 0.1610(3) 0.3456(2) -0.0322(2)
C20 C 0.2733(3) 0.2117(2) 0.2425(2)
C21 C 0.3213(3) 0.1488(2) 0.0314(2)
C22 C 0.2379(3) 0.5097(2) 0.5097(2)
C23 C -0.0218(4) 0.1763(3) 0.3085(2)
C24 C 0.3609(3) 0.4086(2) 0.5490(2)
C25 C 0.2636(5) 0.0154(2) 0.3192(2)
C26 C 0.0690(5) 0.0581(3) 0.3378(2)
C27 C -0.212(2) -0.131(1) 0.4500(4)
H1 H 0.4657 0.3222 0.8194
H2 H 0.6566 0.2292 0.7734
H3 H 0.6217 0.3482 0.7664
H4 H 0.5496 0.2394 0.5192
H5 H 0.5076 0.2323 0.3600
H6 H 0.1694 0.5816 0.5487
H7 H 0.1340 0.5831 0.3821
H8 H 0.6640 0.4372 0.1823
H9 H 0.8039 0.2492 0.1060
H10 H 0.6166 0.3644 -0.0343
H11 H 0.6376 0.2234 -0.0063
H12 H 0.3148 0.4213 0.0719
H13 H 0.0090 0.3412 0.2440
H14 H -0.1634 0.2152 0.3282
H15 H 0.3316 -0.0684 0.3426
H16 H 0.5141 0.0592 0.2652
H17 H 0.1345 0.4304 -0.0419
H18 H 0.0138 0.3420 -0.1347
H19 H 0.4119 0.0987 0.0698
H20 H 0.2618 0.0140 -0.0178
H21 H -0.2049 -0.1756 0.3967
H22 H -0.3223 -0.1273 0.5004
H23 H -0.1062 -0.1690 0.4774
Br1 Br 0.96950(4) 0.90651(3) 1.15516(2)
O1 O 0.9530(5) 1.1330(3) 0.5877(2)
O2 O 0.4292(2) 0.7532(1) 0.8082(1)
O3 O 1.2156(5) 0.9812(3) 0.5948(2)
O4 O 0.6930(2) 0.5009(2) 0.2974(1)
O5 O 0.4925(3) 0.6917(1) 0.3224(1)
O6 O 0.8191(3) 0.4934(1) 0.7780(1)
O7 O 0.3558(3) 0.5765(1) 0.8736(1)
C1 C 0.7135(3) 0.5856(2) 0.7473(2)
C2 C 0.6246(3) 0.6653(2) 0.9235(2)
C3 C 0.8720(3) 0.8306(2) 1.0808(2)
C4 C 0.6226(3) 0.7006(2) 0.8103(2)
C5 C 0.9159(3) 0.7053(2) 1.0872(2)
C6 C 0.5378(3) 0.6933(2) 0.5070(2)
C7 C 0.6148(3) 0.5875(2) 0.3489(2)
C8 C 0.7195(3) 0.7246(2) 0.9731(2)
C9 C 0.6332(4) 0.9078(2) 0.7278(2)
C10 C 0.4143(3) 0.6955(2) 0.9755(2)
C11 C 0.7556(3) 0.9042(2) 1.0214(2)
C12 C 1.036(1) 1.0263(7) 0.6113(2)
C13 C 0.3268(3) 0.6985(2) 0.8907(2)
C14 C 0.6823(3) 0.5930(2) 0.6438(2)
C15 C 0.7829(3) 0.4906(2) 0.5865(2)
C16 C 0.4415(4) 0.6988(2) 0.2287(2)
C17 C 0.5603(3) 0.6946(2) 0.6030(2)
C18 C 0.9208(4) 0.7466(2) 0.7390(2)
C19 C 0.8390(3) 0.6544(2) 1.0322(2)
C20 C 0.7267(3) 0.7883(2) 0.7575(2)
C21 C 0.6787(3) 0.8512(2) 0.9686(2)
C22 C 0.7621(3) 0.4903(2) 0.4903(2)
C23 C 1.0218(4) 0.8237(3) 0.6915(2)
C24 C 0.6391(3) 0.5914(2) 0.4510(2)
C25 C 0.7364(5) 0.9846(2) 0.6808(2)
C26 C 0.9310(5) 0.9419(3) 0.6622(2)
C27 C 1.212(2) 1.131(1) 0.5500(4)
H1 H 0.5343 0.6778 0.1806
H2 H 0.3434 0.7708 0.2266
H3 H 0.3783 0.6518 0.2336
H4 H 0.4504 0.7606 0.4808
H5 H 0.4924 0.7677 0.6400
H6 H 0.8306 0.4184 0.4513
H7 H 0.8660 0.4169 0.6179
H8 H 0.3360 0.5628 0.8177
H9 H 0.1961 0.7508 0.8940
H10 H 0.3834 0.6356 1.0343
H11 H 0.3624 0.7766 1.0063
H12 H 0.6852 0.5787 0.9281
H13 H 0.9910 0.6588 0.7560
H14 H 1.1634 0.7848 0.6718
H15 H 0.6684 1.0684 0.6574
H16 H 0.4859 0.9408 0.7348
H17 H 0.8655 0.5696 1.0419
H18 H 0.9862 0.6580 1.1347
H19 H 0.5881 0.9013 0.9302
H20 H 0.7382 0.9860 1.0178
H21 H 1.2049 1.1756 0.6033
H22 H 1.3223 1.1273 0.4996
H23 H 1.1062 1.1690 0.5226

#END
