./LADLEI_from_POSCAR.cif_generated_by_CrystalShift
_symmetry_cell_setting triclinic
_symmetry_space_group_name_H-M 'P 1'
loop_
_symmetry_equiv_pos_site_id
_symmetry_equiv_pos_as_xyz
1 x,y,z
_cell_length_a 11.891000
_cell_length_b 13.586000
_cell_length_c 16.403000
_cell_angle_alpha 90.000000
_cell_angle_beta 104.200000
_cell_angle_gamma 90.000000
_cell_volume 2568.955646
loop_
_atom_site_label
_atom_site_type_symbol
_atom_site_fract_x
_atom_site_fract_y
_atom_site_fract_z
H1 H 0.233300 0.870900 0.865500
H2 H 1.233900 0.386200 0.765900
H3 H 0.874200 0.745800 0.605400
H4 H 0.374400 0.869300 0.984200
H5 H 1.050200 0.680400 0.619800
H6 H 1.163200 0.638900 0.753800
H7 H 0.613600 0.468300 0.525800
H8 H 1.096700 0.687900 0.871600
H9 H 0.781300 0.532400 0.602200
H10 H 0.908900 0.559100 0.931500
H11 H 0.822200 0.422700 0.973400
H12 H 0.796400 0.237400 0.479600
H13 H 0.680100 0.445300 1.045200
H14 H 0.887600 0.100300 0.436900
H15 H 0.612400 0.600300 1.063100
H16 H 0.819900 -0.054700 0.454800
H17 H 0.703600 0.737400 1.020400
H18 H 0.677800 -0.077300 0.526600
H19 H 0.718700 1.032400 0.897800
H20 H 0.591100 0.059100 0.568500
H21 H 0.886400 0.968300 0.974200
H22 H 0.672500 0.923400 0.710500
H23 H 0.403300 0.187900 0.628400
H24 H 0.622200 1.019100 0.743200
H25 H 0.336800 0.138900 0.746200
H26 H 0.266100 0.886200 0.734100
H27 H 0.449800 0.180400 0.880200
H28 H -0.266700 0.629100 0.365500
H29 H 0.625800 0.245800 0.894600
H30 H -0.125600 0.630700 0.484200
H31 H 0.694200 0.290800 0.782000
H32 H 0.061700 0.603700 0.475800
H33 H -0.009300 0.651900 0.172400
H34 H 0.827500 0.423400 0.789500
H35 H 0.877800 0.519100 0.756800
H36 H -0.053800 0.541800 0.163100
H37 H 1.053800 0.458200 0.836900
H38 H 1.009300 0.348100 0.827600
H39 H 0.122200 0.480900 0.243200
H40 H 0.172500 0.576600 0.210500
H41 H 0.305800 0.709200 0.218000
H42 H 0.938300 0.396300 0.524200
H43 H 0.374200 0.754200 0.105400
H44 H 1.125600 0.369300 0.515800
H45 H 0.550200 0.819600 0.119800
H46 H 1.266700 0.370900 0.634500
H47 H 0.663200 0.861100 0.253800
H48 H 0.733900 0.113800 0.265900
H49 H 0.561700 0.896300 0.975800
H50 H 0.596700 0.812100 0.371600
H51 H 0.408900 0.940900 0.431500
H52 H 0.322200 1.077300 0.473400
H53 H 0.113600 0.031700 0.025800
H54 H 0.180100 1.054700 0.545200
H55 H 0.281300 -0.032400 0.102200
H56 H 0.112400 0.899700 0.563100
H57 H 0.203600 0.762600 0.520400
H58 H 0.296400 0.262600 -0.020400
H59 H 0.218700 0.467600 0.397800
H60 H 0.387600 0.399700 -0.063100
H61 H 0.386400 0.531700 0.474200
H62 H 0.319900 0.554700 -0.045200
H63 H 0.446200 0.958200 0.663100
H64 H 0.177800 0.577300 0.026600
H65 H 0.490700 0.848100 0.672400
H66 H 0.091100 0.440900 0.068500
H67 H -0.233900 0.613800 0.234100
H68 H 0.766700 0.129100 0.134500
H69 H -0.096700 0.312100 0.128400
H70 H 0.625600 0.130700 0.015800
H71 H -0.163200 0.361100 0.246200
H72 H 0.438300 0.103700 0.024200
H73 H -0.050200 0.319600 0.380200
H74 H 0.805800 0.790800 0.718000
H75 H 0.125800 0.254200 0.394600
H76 H 0.509300 0.151900 0.327600
H77 H 0.194200 0.209200 0.282000
H78 H 0.553800 0.041800 0.336900
H79 H 0.377800 -0.019100 0.256800
H80 H 0.327500 0.076600 0.289500
C81 C 0.381100 0.052200 0.258100
C82 C 0.509600 0.089900 0.298300
C83 C 0.353200 0.094700 0.169700
C84 C 0.122000 0.239300 0.273400
C85 C 0.079800 0.265500 0.340700
C86 C 0.470000 0.102300 0.148800
C87 C 0.497200 0.108700 0.073200
C88 C -0.023400 0.306100 0.332700
C89 C 0.608000 0.122000 0.067600
C90 C -0.092600 0.328900 0.252700
C91 C 0.690500 0.122200 0.138700
C92 C -0.050900 0.301100 0.182400
C93 C -0.172700 0.612900 0.281900
C94 C 0.057200 0.257700 0.192700
C95 C 0.444200 0.898100 0.776800
C96 C 0.151400 0.432800 0.042100
C97 C 0.201500 0.514300 0.016300
C98 C 0.336400 0.570900 0.434900
C99 C 0.287500 0.500300 -0.025100
C100 C 0.234900 0.533600 0.390700
C101 C 0.326700 0.408000 -0.037400
C102 C 0.311700 0.839700 0.470300
C103 C 0.226700 0.825900 0.510500
C104 C 0.273300 0.325900 -0.010500
C105 C 0.173300 0.908000 0.537400
C106 C 0.188300 0.339700 0.029700
C107 C 0.212500 1.000300 0.525100
C108 C 0.265100 0.033600 0.109300
C109 C 0.298500 1.014300 0.483700
C110 C 0.163600 0.070900 0.065100
C111 C 0.348600 0.932800 0.457900
C112 C 0.530000 0.897700 0.851200
C113 C 0.442800 0.757700 0.307300
C114 C 0.550900 0.801100 0.317600
C115 C 0.502800 0.891300 0.926800
C116 C 0.592600 0.828900 0.247300
C117 C 0.672700 0.112900 0.218100
C118 C 0.523400 0.806100 0.167300
C119 C 1.190500 0.377800 0.638700
C120 C 0.420200 0.765500 0.159300
C121 C 1.108000 0.378000 0.567600
C122 C 0.378000 0.739300 0.226600
C123 C 0.997200 0.391300 0.573200
C124 C 0.146800 0.594700 0.330300
C125 C 0.118900 0.552200 0.241900
C126 C 0.970000 0.397700 0.648800
C127 C 1.055800 0.398100 0.723200
C128 C -0.009600 0.589900 0.201700
C129 C 1.009600 0.410100 0.798300
C130 C 0.881100 0.447800 0.758100
C131 C -0.055800 0.601900 0.276800
C132 C 0.030000 0.602300 0.351200
C133 C 0.002800 0.608700 0.426800
C134 C 0.853200 0.405300 0.669700
C135 C -0.108000 0.622000 0.432400
C136 C 0.622000 0.260700 0.773400
C137 C -0.190500 0.622200 0.361300
C138 C 0.579800 0.234500 0.840700
C139 C 0.327300 0.887100 0.781900
C140 C 0.476600 0.193900 0.832700
C141 C 0.490400 0.910100 0.701700
C142 C 0.407400 0.171100 0.752700
C143 C 0.449100 0.198900 0.682400
C144 C 0.836400 0.929100 0.934900
C145 C 0.557200 0.242300 0.692700
C146 C 0.734900 0.966400 0.890700
C147 C 0.651400 0.067200 0.542100
C148 C 0.811700 0.660300 0.970300
C149 C 0.726700 0.674100 1.010500
C150 C 0.701500 -0.014300 0.516300
C151 C 0.673300 0.592000 1.037400
C152 C 0.787500 -0.000300 0.474900
C153 C 0.712500 0.499700 1.025100
C154 C 0.826700 0.092000 0.462600
C155 C 0.798500 0.485700 0.983700
C156 C 0.773300 0.174100 0.489500
C157 C 0.848600 0.567200 0.957900
C158 C 0.688300 0.160300 0.529700
C159 C 0.942800 0.742300 0.807300
C160 C 1.050900 0.698900 0.817600
C161 C 0.765100 0.466400 0.609300
C162 C 1.092600 0.671100 0.747300
C163 C 0.663600 0.429100 0.565100
C164 C 1.023400 0.693900 0.667300
C165 C 0.392000 0.878000 0.932400
C166 C 0.920200 0.734500 0.659300
C167 C 0.309500 0.877800 0.861300
C168 C 0.878000 0.760700 0.726600
C169 C 0.555800 0.101900 0.223200
C170 C 0.646800 0.905300 0.830300
C171 C 0.618900 0.947800 0.741900
C172 C 1.172700 0.387100 0.718100
O173 O 0.805600 0.306700 0.670600
O174 O 0.305600 0.193300 0.170600
O175 O 0.194400 0.693300 0.329400
O176 O 0.694400 0.806700 0.829400
Br177 Br -0.087450 0.210980 -0.023390
Br178 Br 0.412550 0.289020 0.476610
Br179 Br 0.587450 0.710980 0.523390
Br180 Br 1.087450 0.789020 1.023390
Sn181 Sn 0.883830 0.782480 0.916350
Sn182 Sn 0.616170 0.282480 0.583650
Sn183 Sn 0.383830 0.717520 0.416350
Sn184 Sn 0.116170 0.217520 0.083650

#END
