./LADLAF_from_POSCAR.cif_generated_by_CrystalShift
_symmetry_cell_setting triclinic
_symmetry_space_group_name_H-M 'P 1'
loop_
_symmetry_equiv_pos_site_id
_symmetry_equiv_pos_as_xyz
1 x,y,z
_cell_length_a 7.873000
_cell_length_b 11.745000
_cell_length_c 13.899000
_cell_angle_alpha 81.580000
_cell_angle_beta 74.330000
_cell_angle_gamma 69.500000
_cell_volume 1157.169375
loop_
_atom_site_label
_atom_site_type_symbol
_atom_site_fract_x
_atom_site_fract_y
_atom_site_fract_z
H1 H 1.106200 1.169000 0.522600
H2 H 1.204900 1.175600 0.603300
H3 H 0.738200 0.986000 1.017800
H4 H 0.588100 0.901300 0.930200
H5 H 0.986200 0.658000 1.134700
H6 H 0.865500 0.569600 1.041900
H7 H 0.485900 0.940800 0.734800
H8 H 0.668400 1.068400 0.657400
H9 H 1.163400 0.784800 0.671800
H10 H 0.991000 0.658800 0.756000
H11 H 0.685200 0.578700 0.928100
H12 H 0.362400 0.776600 1.006300
H13 H 0.383400 0.635600 1.034300
H14 H 0.196100 0.750800 0.894000
H15 H 0.336000 0.562800 0.817700
H16 H 0.866000 0.416900 0.617900
H17 H 0.830600 0.418400 0.451300
H18 H 0.492400 0.767700 0.640000
H19 H 0.450400 0.760600 0.480800
H20 H 0.378300 0.651800 0.233600
H21 H 0.343400 0.770800 0.226600
H22 H 0.534300 0.677800 0.180600
H23 H -0.106200 -0.169000 0.477400
H24 H -0.322300 -0.127300 0.500400
H25 H -0.204900 -0.175600 0.396700
H26 H 0.261800 0.014000 -0.017800
H27 H 0.411900 0.098700 0.069800
H28 H 0.013800 0.342000 -0.134700
H29 H 0.134500 0.430400 -0.041900
H30 H 0.514100 0.059200 0.265200
H31 H 0.331600 -0.068400 0.342600
H32 H -0.163400 0.215200 0.328200
H33 H 0.009000 0.341200 0.244000
H34 H 0.314800 0.421300 0.071900
H35 H 0.637600 0.223400 -0.006300
H36 H 0.465700 0.322200 0.819400
H37 H 0.656600 0.229200 0.773400
H38 H 0.621700 0.348200 0.766400
H39 H 0.549600 0.239400 0.519200
H40 H 0.507600 0.232300 0.360000
H41 H 0.169400 0.581600 0.548700
H42 H 0.134000 0.583100 0.382100
H43 H 0.664000 0.437200 0.182300
H44 H 0.803900 0.249200 0.106000
H45 H 0.616600 0.364400 -0.034300
H46 H 1.322300 1.127300 0.499600
C47 C 0.069000 0.058100 0.337800
C48 C 0.263600 0.015400 0.319200
C49 C 0.360900 0.408600 0.549000
C50 C -0.021800 0.176300 0.308500
C51 C 0.237900 0.509700 0.509700
C52 C 0.321300 0.148800 0.031400
C53 C 0.273300 0.211700 0.242500
C54 C 0.161000 0.345600 -0.032200
C55 C 0.079200 0.253400 0.261000
C56 C 0.439700 0.305400 0.397000
C57 C 0.558500 0.301200 0.771300
C58 C 0.217100 0.509400 0.413500
C59 C 0.286500 0.414400 0.252700
C60 C 0.375400 0.334700 0.076500
C61 C 0.128000 0.169400 -0.080800
C62 C 0.377400 0.299400 0.189700
C63 C 0.084100 0.294700 -0.087200
C64 C 0.462200 0.306700 0.493000
C65 C 0.385200 0.412500 0.651100
C66 C 0.280500 0.275400 0.026900
C67 C 0.713500 0.585600 0.747300
C68 C 0.624600 0.665300 0.923500
C69 C 0.872000 0.830600 1.080800
C70 C 0.622600 0.700600 0.810300
C71 C 0.915900 0.705300 1.087200
C72 C 0.537800 0.693300 0.507000
C73 C 0.614800 0.587500 0.348900
C74 C 0.719500 0.724600 0.973100
C75 C 0.633200 0.907800 0.727800
C76 C 0.414300 0.695500 0.975500
C77 C 0.755600 0.904200 1.021400
C78 C 1.036000 1.026300 0.611300
C79 C 0.326800 0.698500 0.890700
C80 C 0.682300 0.593000 0.643800
C81 C 0.782900 0.490600 0.586500
C82 C 0.441500 0.698800 0.228700
C83 C 0.560300 0.694600 0.603000
C84 C 0.920800 0.746600 0.739000
C85 C 0.839000 0.654400 1.032200
C86 C 0.726700 0.788300 0.757500
C87 C 0.678700 0.851200 0.968600
C88 C 0.762100 0.490300 0.490300
C89 C 1.021800 0.823700 0.691500
C90 C 0.639100 0.591400 0.451000
C91 C 0.736400 0.984600 0.680800
C92 C 0.931000 0.941900 0.662200
C93 C 1.212000 1.131000 0.550000
C94 C 0.317700 0.407000 0.356200
C95 C 0.673200 0.301500 0.109300
C96 C -0.036000 -0.026300 0.388700
C97 C 0.244400 0.095800 -0.021400
C98 C 0.585700 0.304500 0.024500
C99 C 0.366800 0.092200 0.272200
C100 C -0.212000 -0.131000 0.450000
O101 O 0.819100 0.493400 0.778000
O102 O 0.492500 0.691700 0.322400
O103 O 0.693000 0.500900 0.297400
O104 O 1.215600 0.981200 0.594800
O105 O 0.429200 0.753200 0.808200
O106 O 0.953000 1.133000 0.587700
O107 O 0.047000 -0.133000 0.412300
O108 O 0.644200 0.423500 0.126400
O109 O 0.180900 0.506600 0.222000
O110 O 0.507500 0.308300 0.677600
O111 O 0.307000 0.499100 0.702600
O112 O -0.215600 0.018800 0.405200
O113 O 0.570800 0.246800 0.191800
O114 O 0.355800 0.576500 0.873600
Br115 Br 0.969500 0.906510 1.155160
Br116 Br 0.030500 0.093490 -0.155160

#END
