
#######################################################################
#
#                 Cambridge Crystallographic Data Centre
#                                CCDC 
#
#######################################################################
#
# If this CIF has been generated from an entry in the Cambridge 
# Structural Database, then it will include bibliographic, chemical, 
# crystal, experimental, refinement or atomic coordinate data resulting 
# from the CCDC's data processing and validation procedures.
#
#######################################################################

data_LADLEI
_symmetry_cell_setting           monoclinic
_symmetry_space_group_name_H-M   'P 21/n'
_symmetry_Int_Tables_number      14
_space_group_name_Hall           '-P 2yn'
loop_
_symmetry_equiv_pos_site_id
_symmetry_equiv_pos_as_xyz
1 x,y,z
2 1/2+x,1/2-y,1/2+z
3 -x,-y,-z
4 1/2-x,1/2+y,1/2-z
_cell_length_a                   11.891(2)
_cell_length_b                   13.586(3)
_cell_length_c                   16.403(3)
_cell_angle_alpha                90
_cell_angle_beta                 104.20(3)
_cell_angle_gamma                90
_cell_volume                     2568.96
loop_
_atom_site_label
_atom_site_type_symbol
_atom_site_fract_x
_atom_site_fract_y
_atom_site_fract_z
C1 C 1.1727(9) 0.3871(10) 0.7181(8)
H1 H 1.2339 0.3862 0.7659
Sn1 Sn 0.61617(5) 0.28248(4) 0.58365(4)
O1 O 0.8056(5) 0.3067(5) 0.6706(4)
Br1 Br 0.41255(10) 0.28902(8) 0.47661(8)
C2 C 0.6636(8) 0.4291(7) 0.5651(6)
H2 H 0.6136 0.4683 0.5258
C3 C 0.7651(8) 0.4664(7) 0.6093(6)
H3 H 0.7813 0.5324 0.6022
C4 C 0.6883(7) 0.1603(7) 0.5297(5)
C5 C 0.7733(10) 0.1741(9) 0.4895(7)
H4 H 0.7964 0.2374 0.4796
C6 C 0.8267(11) 0.0920(12) 0.4626(9)
H5 H 0.8876 0.1003 0.4369
C7 C 0.7875(12) -0.0003(10) 0.4749(8)
H6 H 0.8199 -0.0547 0.4548
C8 C 0.7015(12) -0.0143(9) 0.5163(7)
H7 H 0.6778 -0.0773 0.5266
C9 C 0.6514(8) 0.0672(7) 0.5421(6)
H8 H 0.5911 0.0591 0.5685
C10 C 0.5572(7) 0.2423(7) 0.6927(6)
C11 C 0.4491(9) 0.1989(10) 0.6824(8)
H9 H 0.4033 0.1879 0.6284
C12 C 0.4074(13) 0.1711(14) 0.7527(12)
H10 H 0.3368 0.1389 0.7462
C13 C 0.4766(13) 0.1939(13) 0.8327(9)
H11 H 0.4498 0.1804 0.8802
C14 C 0.5798(12) 0.2345(11) 0.8407(8)
H12 H 0.6258 0.2458 0.8946
C15 C 0.6220(11) 0.2607(9) 0.7734(6)
H13 H 0.6942 0.2908 0.7820
C16 C 0.8532(7) 0.4053(7) 0.6697(5)
C17 C 0.8811(9) 0.4478(8) 0.7581(6)
H14 H 0.8275 0.4234 0.7895
H15 H 0.8778 0.5191 0.7568
C18 C 1.0096(9) 0.4101(11) 0.7983(6)
H16 H 1.0538 0.4582 0.8369
H17 H 1.0093 0.3481 0.8276
C19 C 1.0558(8) 0.3981(8) 0.7232(6)
C20 C 0.9700(7) 0.3977(7) 0.6488(5)
C21 C 0.9972(9) 0.3913(8) 0.5732(6)
H18 H 0.9383 0.3963 0.5242
C22 C 1.1080(10) 0.3780(10) 0.5676(8)
H19 H 1.1256 0.3693 0.5158
C23 C 1.1905(11) 0.3778(11) 0.6387(10)
H20 H 1.2667 0.3709 0.6345
C1 C 0.6727(9) 0.1129(10) 0.2181(8)
H1 H 0.7339 0.1138 0.2659
Sn1 Sn 0.11617(5) 0.21752(4) 0.08365(4)
O1 O 0.3056(5) 0.1933(5) 0.1706(4)
Br1 Br -0.08745(10) 0.21098(8) -0.02339(8)
C2 C 0.1636(8) 0.0709(7) 0.0651(6)
H2 H 0.1136 0.0317 0.0258
C3 C 0.2651(8) 0.0336(7) 0.1093(6)
H3 H 0.2813 -0.0324 0.1022
C4 C 0.1883(7) 0.3397(7) 0.0297(5)
C5 C 0.2733(10) 0.3259(9) -0.0105(7)
H4 H 0.2964 0.2626 -0.0204
C6 C 0.3267(11) 0.4080(12) -0.0374(9)
H5 H 0.3876 0.3997 -0.0631
C7 C 0.2875(12) 0.5003(10) -0.0251(8)
H6 H 0.3199 0.5547 -0.0452
C8 C 0.2015(12) 0.5143(9) 0.0163(7)
H7 H 0.1778 0.5773 0.0266
C9 C 0.1514(8) 0.4328(7) 0.0421(6)
H8 H 0.0911 0.4409 0.0685
C10 C 0.0572(7) 0.2577(7) 0.1927(6)
C11 C -0.0509(9) 0.3011(10) 0.1824(8)
H9 H -0.0967 0.3121 0.1284
C12 C -0.0926(13) 0.3289(14) 0.2527(12)
H10 H -0.1632 0.3611 0.2462
C13 C -0.0234(13) 0.3061(13) 0.3327(9)
H11 H -0.0502 0.3196 0.3802
C14 C 0.0798(12) 0.2655(11) 0.3407(8)
H12 H 0.1258 0.2542 0.3946
C15 C 0.1220(11) 0.2393(9) 0.2734(6)
H13 H 0.1942 0.2092 0.2820
C16 C 0.3532(7) 0.0947(7) 0.1697(5)
C17 C 0.3811(9) 0.0522(8) 0.2581(6)
H14 H 0.3275 0.0766 0.2895
H15 H 0.3778 -0.0191 0.2568
C18 C 0.5096(9) 0.0899(11) 0.2983(6)
H16 H 0.5538 0.0418 0.3369
H17 H 0.5093 0.1519 0.3276
C19 C 0.5558(8) 0.1019(8) 0.2232(6)
C20 C 0.4700(7) 0.1023(7) 0.1488(5)
C21 C 0.4972(9) 0.1087(8) 0.0732(6)
H18 H 0.4383 0.1037 0.0242
C22 C 0.6080(10) 0.1220(10) 0.0676(8)
H19 H 0.6256 0.1307 0.0158
C23 C 0.6905(11) 0.1222(11) 0.1387(10)
H20 H 0.7667 0.1291 0.1345
C1 C -0.1727(9) 0.6129(10) 0.2819(8)
H1 H -0.2339 0.6138 0.2341
Sn1 Sn 0.38383(5) 0.71752(4) 0.41635(4)
O1 O 0.1944(5) 0.6933(5) 0.3294(4)
Br1 Br 0.58745(10) 0.71098(8) 0.52339(8)
C2 C 0.3364(8) 0.5709(7) 0.4349(6)
H2 H 0.3864 0.5317 0.4742
C3 C 0.2349(8) 0.5336(7) 0.3907(6)
H3 H 0.2187 0.4676 0.3978
C4 C 0.3117(7) 0.8397(7) 0.4703(5)
C5 C 0.2267(10) 0.8259(9) 0.5105(7)
H4 H 0.2036 0.7626 0.5204
C6 C 0.1733(11) 0.9080(12) 0.5374(9)
H5 H 0.1124 0.8997 0.5631
C7 C 0.2125(12) 1.0003(10) 0.5251(8)
H6 H 0.1801 1.0547 0.5452
C8 C 0.2985(12) 1.0143(9) 0.4837(7)
H7 H 0.3222 1.0773 0.4734
C9 C 0.3486(8) 0.9328(7) 0.4579(6)
H8 H 0.4089 0.9409 0.4315
C10 C 0.4428(7) 0.7577(7) 0.3073(6)
C11 C 0.5509(9) 0.8011(10) 0.3176(8)
H9 H 0.5967 0.8121 0.3716
C12 C 0.5926(13) 0.8289(14) 0.2473(12)
H10 H 0.6632 0.8611 0.2538
C13 C 0.5234(13) 0.8061(13) 0.1673(9)
H11 H 0.5502 0.8196 0.1198
C14 C 0.4202(12) 0.7655(11) 0.1593(8)
H12 H 0.3742 0.7542 0.1054
C15 C 0.3780(11) 0.7393(9) 0.2266(6)
H13 H 0.3058 0.7092 0.2180
C16 C 0.1468(7) 0.5947(7) 0.3303(5)
C17 C 0.1189(9) 0.5522(8) 0.2419(6)
H14 H 0.1725 0.5766 0.2105
H15 H 0.1222 0.4809 0.2432
C18 C -0.0096(9) 0.5899(11) 0.2017(6)
H16 H -0.0538 0.5418 0.1631
H17 H -0.0093 0.6519 0.1724
C19 C -0.0558(8) 0.6019(8) 0.2768(6)
C20 C 0.0300(7) 0.6023(7) 0.3512(5)
C21 C 0.0028(9) 0.6087(8) 0.4268(6)
H18 H 0.0617 0.6037 0.4758
C22 C -0.1080(10) 0.6220(10) 0.4324(8)
H19 H -0.1256 0.6307 0.4842
C23 C -0.1905(11) 0.6222(11) 0.3613(10)
H20 H -0.2667 0.6291 0.3655
C1 C 0.3273(9) 0.8871(10) 0.7819(8)
H1 H 0.2661 0.8862 0.7341
Sn1 Sn 0.88383(5) 0.78248(4) 0.91635(4)
O1 O 0.6944(5) 0.8067(5) 0.8294(4)
Br1 Br 1.08745(10) 0.78902(8) 1.02339(8)
C2 C 0.8364(8) 0.9291(7) 0.9349(6)
H2 H 0.8864 0.9683 0.9742
C3 C 0.7349(8) 0.9664(7) 0.8907(6)
H3 H 0.7187 1.0324 0.8978
C4 C 0.8117(7) 0.6603(7) 0.9703(5)
C5 C 0.7267(10) 0.6741(9) 1.0105(7)
H4 H 0.7036 0.7374 1.0204
C6 C 0.6733(11) 0.5920(12) 1.0374(9)
H5 H 0.6124 0.6003 1.0631
C7 C 0.7125(12) 0.4997(10) 1.0251(8)
H6 H 0.6801 0.4453 1.0452
C8 C 0.7985(12) 0.4857(9) 0.9837(7)
H7 H 0.8222 0.4227 0.9734
C9 C 0.8486(8) 0.5672(7) 0.9579(6)
H8 H 0.9089 0.5591 0.9315
C10 C 0.9428(7) 0.7423(7) 0.8073(6)
C11 C 1.0509(9) 0.6989(10) 0.8176(8)
H9 H 1.0967 0.6879 0.8716
C12 C 1.0926(13) 0.6711(14) 0.7473(12)
H10 H 1.1632 0.6389 0.7538
C13 C 1.0234(13) 0.6939(13) 0.6673(9)
H11 H 1.0502 0.6804 0.6198
C14 C 0.9202(12) 0.7345(11) 0.6593(8)
H12 H 0.8742 0.7458 0.6054
C15 C 0.8780(11) 0.7607(9) 0.7266(6)
H13 H 0.8058 0.7908 0.7180
C16 C 0.6468(7) 0.9053(7) 0.8303(5)
C17 C 0.6189(9) 0.9478(8) 0.7419(6)
H14 H 0.6725 0.9234 0.7105
H15 H 0.6222 1.0191 0.7432
C18 C 0.4904(9) 0.9101(11) 0.7017(6)
H16 H 0.4462 0.9582 0.6631
H17 H 0.4907 0.8481 0.6724
C19 C 0.4442(8) 0.8981(8) 0.7768(6)
C20 C 0.5300(7) 0.8977(7) 0.8512(5)
C21 C 0.5028(9) 0.8913(8) 0.9268(6)
H18 H 0.5617 0.8963 0.9758
C22 C 0.3920(10) 0.8780(10) 0.9324(8)
H19 H 0.3744 0.8693 0.9842
C23 C 0.3095(11) 0.8778(11) 0.8613(10)
H20 H 0.2333 0.8709 0.8655

#END
