./LADMIO_from_POSCAR.cif_generated_by_CrystalShift
_symmetry_cell_setting triclinic
_symmetry_space_group_name_H-M 'P 1'
loop_
_symmetry_equiv_pos_site_id
_symmetry_equiv_pos_as_xyz
1 x,y,z
_cell_length_a 9.414400
_cell_length_b 20.569000
_cell_length_c 10.815800
_cell_angle_alpha 90.000000
_cell_angle_beta 95.006000
_cell_angle_gamma 90.000000
_cell_volume 2086.434318
loop_
_atom_site_label
_atom_site_type_symbol
_atom_site_fract_x
_atom_site_fract_y
_atom_site_fract_z
H1 H 0.520400 0.673800 1.294300
H2 H -0.346500 0.599200 0.714300
H3 H 0.656700 1.162100 0.474300
H4 H -0.217000 0.593300 0.544600
H5 H -0.145800 0.657600 0.352400
H6 H 0.903600 1.025600 0.336500
H7 H -0.087600 0.728000 0.379900
H8 H 0.121100 0.736200 0.547100
H9 H 0.351700 0.701900 0.597300
H10 H 0.424900 0.601700 0.529400
H11 H 0.267800 0.537700 0.409400
H12 H 0.435300 1.065600 0.775800
H13 H -0.064700 0.434400 0.275800
H14 H 0.403600 0.474400 -0.163500
H15 H 0.156700 0.337900 -0.025700
H16 H 0.767800 0.962300 0.909400
H17 H -0.311700 0.792700 0.715300
H18 H 0.924900 0.898300 1.029400
H19 H -0.181700 0.786900 0.544100
H20 H 0.851700 0.798100 1.097300
H21 H -0.088900 0.337500 0.190100
H22 H 0.621100 0.763800 1.047100
H23 H 0.002500 0.072400 0.622100
H24 H 0.085200 0.138600 0.632800
H25 H 0.412400 0.772000 0.879900
H26 H 0.354200 0.842400 0.852400
H27 H 0.140800 0.078900 0.713100
H28 H 0.087300 -0.104400 0.815000
H29 H 0.283000 0.906700 1.044600
H30 H 0.020400 -0.173800 0.794300
H31 H 0.153500 0.900800 1.214300
H32 H -0.033000 -0.116000 0.707700
H33 H 0.107000 0.801500 1.301500
H34 H 0.443800 -0.189400 0.349600
H35 H 0.188300 0.707300 1.215300
H36 H 0.563200 -0.167100 0.450900
H37 H 0.318300 0.713100 1.044100
H38 H 0.588900 -0.162500 0.309900
H39 H 0.411100 1.162500 0.690100
H40 H 0.436800 1.167100 0.549100
H41 H 0.556200 1.189400 0.650400
H42 H 0.681700 0.286900 -0.044100
H43 H 1.033000 1.116000 0.292300
H44 H 0.979600 1.173800 0.205700
H45 H 0.912700 1.104400 0.185000
H46 H 0.811700 0.292700 -0.215300
H47 H 0.859200 0.921100 0.286900
H48 H 0.914800 0.861400 0.367200
H49 H 0.997500 0.927600 0.377900
H50 H 0.497500 0.572400 -0.122100
H51 H 0.414800 0.638600 -0.132800
H52 H 0.359200 0.578900 -0.213100
H53 H 0.893000 0.198500 -0.301500
H54 H 0.412700 0.395600 -0.315000
H55 H 0.846500 0.099200 -0.214300
H56 H 0.717000 0.093300 -0.044600
H57 H 0.843300 0.662100 1.025700
H58 H 0.645800 0.157600 0.147600
H59 H 0.587600 0.228000 0.120100
H60 H 0.596400 0.525600 1.163500
H61 H 0.378900 0.236200 -0.047100
H62 H 0.148300 0.201900 -0.097300
H63 H 0.075100 0.101700 -0.029400
H64 H 0.232200 0.037700 0.090600
H65 H 0.564700 -0.065600 0.224200
H66 H 1.064700 0.565600 0.724200
H67 H 0.096400 -0.025600 0.663500
H68 H 0.343300 -0.162100 0.525700
H69 H -0.063200 0.332900 0.049100
H70 H 0.732200 0.462300 0.590600
H71 H 0.056200 0.310600 0.150400
H72 H 0.575100 0.398300 0.470600
H73 H 0.533000 0.384000 -0.207700
H74 H 0.648300 0.298100 0.402700
H75 H 0.479600 0.326200 -0.294300
H76 H 0.878900 0.263800 0.452900
H77 H 0.502500 0.427600 1.122100
H78 H 0.585200 0.361400 1.132800
H79 H 1.087600 0.272000 0.620100
H80 H 1.145800 0.342400 0.647600
H81 H 0.640800 0.421100 1.213100
H82 H 0.587300 0.604400 1.315000
H83 H 1.217000 0.406700 0.455400
H84 H -0.393000 0.698500 0.801500
H85 H 1.346500 0.400800 0.285700
H86 H 0.467000 0.616000 1.207700
H87 H 1.393000 0.301500 0.198500
H88 H 0.943800 0.689400 0.849600
H89 H 1.311700 0.207300 0.284700
H90 H 1.063200 0.667100 0.950900
H91 H 1.181700 0.213100 0.455900
H92 H 1.088900 0.662500 0.809900
C93 C 1.019100 0.658580 0.869100
C94 C 1.214600 0.251160 0.421700
C95 C 1.292500 0.247480 0.318900
C96 C 0.548500 0.634900 1.253800
C97 C 1.341200 0.303560 0.267800
C98 C 1.313000 0.362830 0.319800
C99 C 1.235600 0.366310 0.421500
C100 C 0.595100 0.407850 1.134300
C101 C 1.185000 0.310410 0.474400
C102 C 1.096300 0.315030 0.584800
C103 C 0.948900 0.342370 0.552000
C104 C 0.850400 0.304130 0.480700
C105 C 0.711800 0.324500 0.450400
C106 C 0.451500 0.365100 -0.253800
C107 C 0.667900 0.384100 0.491000
C108 C 0.762700 0.422440 0.562100
C109 C 0.359100 -0.073920 0.444300
C110 C 0.308400 -0.119760 0.524300
C111 C 0.903000 0.403150 0.592400
C112 C 0.205700 -0.101890 0.601500
C113 C 0.161600 -0.037620 0.607800
C114 C 1.002400 0.450630 0.661300
C115 C 0.214900 0.008260 0.531200
C116 C 0.311100 -0.008720 0.442100
C117 C 0.357900 0.037760 0.351400
C118 C 0.450500 0.010800 0.263500
C119 C 0.499500 -0.051090 0.277900
C120 C 0.999500 0.551090 0.777900
C121 C 0.502400 0.049370 0.161300
C122 C 0.403000 0.096850 0.092400
C123 C 0.262700 0.077560 0.062100
C124 C 0.950500 0.489200 0.763500
C125 C 0.167900 0.115900 -0.009000
C126 C 0.857900 0.462240 0.851400
C127 C 0.211800 0.175500 -0.049600
C128 C 0.811100 0.508720 0.942100
C129 C 0.350400 0.195870 -0.019300
C130 C 0.714900 0.491740 1.031200
C131 C 0.448900 0.157630 0.052000
C132 C 0.596300 0.184970 0.084800
C133 C 0.661600 0.537620 1.107800
C134 C 0.705700 0.601890 1.101500
C135 C 0.685000 0.189590 -0.025600
C136 C 0.735600 0.133690 -0.078500
C137 C 0.808400 0.619760 1.024300
C138 C 0.813000 0.137170 -0.180200
C139 C 0.859100 0.573920 0.944300
C140 C 0.841200 0.196440 -0.232200
C141 C 0.404900 0.592150 -0.134300
C142 C 0.792500 0.252520 -0.181100
C143 C 0.904900 0.907850 0.365700
C144 C 0.714600 0.248840 -0.078300
C145 C 0.951500 1.134900 0.246200
C146 C 0.519100 -0.158580 0.369100
C147 C 0.480900 1.158580 0.630900
C148 C 0.285400 0.751160 1.078300
C149 C 0.207500 0.747480 1.181100
C150 C 0.048500 -0.134900 0.753800
C151 C 0.158800 0.803560 1.232200
C152 C 0.187000 0.862830 1.180200
C153 C 0.264400 0.866310 1.078500
C154 C 0.095100 0.092150 0.634300
C155 C 0.315000 0.810410 1.025600
C156 C 0.403700 0.815030 0.915200
C157 C 0.551100 0.842370 0.948000
C158 C 0.649600 0.804130 1.019300
C159 C -0.019100 0.341420 0.130900
C160 C 0.788200 0.824500 1.049600
C161 C -0.214600 0.748840 0.578300
C162 C 0.832100 0.884100 1.009000
C163 C 0.140900 0.426080 0.055700
C164 C 0.191600 0.380240 -0.024300
C165 C 0.737300 0.922440 0.937900
C166 C 0.294300 0.398110 -0.101500
C167 C 0.338400 0.462380 -0.107800
C168 C 0.597000 0.903150 0.907600
C169 C 0.285100 0.508260 -0.031200
C170 C 0.188900 0.491280 0.057900
C171 C 0.142100 0.537760 0.148600
C172 C 0.049500 0.510800 0.236500
C173 C 0.000500 0.448910 0.222100
C174 C 0.497600 0.950630 0.838700
C175 C -0.002400 0.549370 0.338700
C176 C 0.097000 0.596850 0.407600
C177 C 0.237300 0.577560 0.437900
C178 C 0.500500 1.051090 0.722100
C179 C 0.332100 0.615900 0.509000
C180 C 0.549500 0.989200 0.736500
C181 C 0.288200 0.675500 0.549600
C182 C 0.642100 0.962240 0.648600
C183 C 0.149600 0.695870 0.519300
C184 C 0.688900 1.008720 0.557900
C185 C 0.051100 0.657630 0.448000
C186 C -0.096300 0.684970 0.415200
C187 C 0.785100 0.991740 0.468800
C188 C 0.838400 1.037620 0.392200
C189 C -0.185000 0.689590 0.525600
C190 C -0.235600 0.633690 0.578500
C191 C 0.794300 1.101890 0.398500
C192 C -0.313000 0.637170 0.680200
C193 C 0.691600 1.119760 0.475700
C194 C -0.341200 0.696440 0.732200
C195 C 0.640900 1.073920 0.555700
C196 C -0.292500 0.752520 0.681100
N197 N 0.039700 0.407200 0.135600
N198 N 0.960300 0.592800 0.864400
N199 N 0.539700 1.092800 0.635600
N200 N 0.460300 -0.092800 0.364400
O201 O 0.323900 0.095860 0.348200
O202 O 0.679700 0.427890 1.037300
O203 O 0.655000 0.650550 1.170500
O204 O 0.621200 0.038920 0.126800
O205 O 0.823900 0.404140 0.848200
O206 O 0.155000 -0.150550 0.670500
O207 O 0.820300 0.927890 0.462700
O208 O 0.845000 1.150550 0.329500
O209 O 0.378800 0.961080 0.873200
O210 O 0.676100 0.904140 0.651800
O211 O 1.121200 0.461080 0.626800
O212 O 0.179700 0.072110 0.537300
O213 O 0.176100 0.595860 0.151800
O214 O -0.121200 0.538920 0.373200
O215 O 0.345000 0.349450 -0.170500
O216 O 0.320300 0.572110 -0.037300

#END
