
#######################################################################
#
#                 Cambridge Crystallographic Data Centre
#                                CCDC 
#
#######################################################################
#
# If this CIF has been generated from an entry in the Cambridge 
# Structural Database, then it will include bibliographic, chemical, 
# crystal, experimental, refinement or atomic coordinate data resulting 
# from the CCDC's data processing and validation procedures.
#
#######################################################################

data_LADNOT
_symmetry_cell_setting           monoclinic
_symmetry_space_group_name_H-M   'P 21'
_symmetry_Int_Tables_number      4
_space_group_name_Hall           'P 2yb'
loop_
_symmetry_equiv_pos_site_id
_symmetry_equiv_pos_as_xyz
1 x,y,z
2 -x,1/2+y,-z
_cell_length_a                   6.387(4)
_cell_length_b                   20.59(3)
_cell_length_c                   6.619(5)
_cell_angle_alpha                90
_cell_angle_beta                 104.05(5)
_cell_angle_gamma                90
_cell_volume                     844.413
loop_
_atom_site_label
_atom_site_type_symbol
_atom_site_fract_x
_atom_site_fract_y
_atom_site_fract_z
O1 O 0.0774(3) 0.5255 1.1523(3)
O2 O 0.2107(4) 0.5311(2) 1.4961(4)
O3 O 0.3805(3) 0.4337(2) 0.8805(3)
O4 O 0.1375(4) 0.6545(2) 0.8801(4)
O5 O -0.1678(4) 0.5974(2) 0.8033(4)
O6 O 0.4088(3) 0.3057(2) 0.5232(3)
O7 O 0.3574(4) 0.2052(2) 0.3935(4)
O8 O 0.6547(4) 0.3981(2) 0.7513(4)
C1 C 0.2397(5) 0.5382(2) 1.3251(5)
C2 C 0.4428(5) 0.5588(2) 1.2647(5)
C3 C 0.6339(5) 0.5148(2) 1.3689(6)
C4 C 0.5963(6) 0.4548(2) 1.2347(6)
C5 C 0.5205(5) 0.4809(2) 1.0138(5)
C6 C 0.3939(5) 0.5442(2) 1.0293(5)
C7 C 0.1486(5) 0.5401(2) 0.9643(5)
C8 C 0.0428(5) 0.6034(2) 0.8778(5)
C9 C 0.3102(5) 0.3434(2) 0.6639(5)
C10 C 0.3050(5) 0.2472(2) 0.4994(5)
C11 C 0.1336(5) 0.2496(2) 0.6182(5)
C12 C -0.0331(5) 0.2997(2) 0.4957(6)
C13 C 0.0905(5) 0.3656(2) 0.5328(5)
C14 C 0.2571(5) 0.2901(2) 0.8102(5)
C15 C 0.4604(6) 0.2561(2) 0.9357(6)
C16 C 0.1183(6) 0.3117(2) 0.9542(6)
C17 C 0.0380(6) 0.1842(2) 0.6560(6)
C18 C 0.4720(5) 0.3949(2) 0.7656(5)
H1 H 0.4738 0.6038 1.2957
H2 H 0.6325 0.5056 1.5107
H3 H 0.7695 0.5343 1.3657
H4 H 0.4859 0.4285 1.2691
H5 H 0.7258 0.4296 1.2519
H6 H 0.6438 0.4894 0.9589
H7 H 0.4427 0.5788 0.9550
H8 H 0.1055 0.5058 0.8645
H9 H -0.1611 0.3006 0.5474
H10 H -0.0720 0.2889 0.3503
H11 H 0.1030 0.3851 0.4046
H12 H 0.0222 0.3955 0.6080
H13 H 0.5294 0.2833 1.0503
H14 H 0.4204 0.2156 0.9881
H15 H 0.5581 0.2479 0.8490
H16 H 0.2032 0.3365 1.0677
H17 H 0.0008 0.3378 0.8783
H18 H 0.0623 0.2738 1.0077
H19 H 0.1498 0.1565 0.7337
H20 H -0.0707 0.1901 0.7322
H21 H -0.0255 0.1646 0.5237
H22 H -0.2123(79) 0.6365(26) 0.7422(69)
O1 O 0.9226(3) 1.0255 -0.1523(3)
O2 O 0.7893(4) 1.0311(2) -0.4961(4)
O3 O 0.6195(3) 0.9337(2) 0.1195(3)
O4 O 0.8625(4) 1.1545(2) 0.1199(4)
O5 O 1.1678(4) 1.0974(2) 0.1967(4)
O6 O 0.5912(3) 0.8057(2) 0.4768(3)
O7 O 0.6426(4) 0.7052(2) 0.6065(4)
O8 O 0.3453(4) 0.8981(2) 0.2487(4)
C1 C 0.7603(5) 1.0382(2) -0.3251(5)
C2 C 0.5572(5) 1.0588(2) -0.2647(5)
C3 C 0.3661(5) 1.0148(2) -0.3689(6)
C4 C 0.4037(6) 0.9548(2) -0.2347(6)
C5 C 0.4795(5) 0.9809(2) -0.0138(5)
C6 C 0.6061(5) 1.0442(2) -0.0293(5)
C7 C 0.8514(5) 1.0401(2) 0.0357(5)
C8 C 0.9572(5) 1.1034(2) 0.1222(5)
C9 C 0.6898(5) 0.8434(2) 0.3361(5)
C10 C 0.6950(5) 0.7472(2) 0.5006(5)
C11 C 0.8664(5) 0.7496(2) 0.3818(5)
C12 C 1.0331(5) 0.7997(2) 0.5043(6)
C13 C 0.9095(5) 0.8656(2) 0.4672(5)
C14 C 0.7429(5) 0.7901(2) 0.1898(5)
C15 C 0.5396(6) 0.7561(2) 0.0643(6)
C16 C 0.8817(6) 0.8117(2) 0.0458(6)
C17 C 0.9620(6) 0.6842(2) 0.3440(6)
C18 C 0.5280(5) 0.8949(2) 0.2344(5)
H1 H 0.5262 1.1038 -0.2957
H2 H 0.3675 1.0056 -0.5107
H3 H 0.2305 1.0343 -0.3657
H4 H 0.5141 0.9285 -0.2691
H5 H 0.2742 0.9296 -0.2519
H6 H 0.3562 0.9894 0.0411
H7 H 0.5573 1.0788 0.0450
H8 H 0.8945 1.0058 0.1355
H9 H 1.1611 0.8006 0.4526
H10 H 1.0720 0.7889 0.6497
H11 H 0.8970 0.8851 0.5954
H12 H 0.9778 0.8955 0.3920
H13 H 0.4706 0.7833 -0.0503
H14 H 0.5796 0.7156 0.0119
H15 H 0.4419 0.7479 0.1510
H16 H 0.7968 0.8365 -0.0677
H17 H 0.9992 0.8378 0.1217
H18 H 0.9377 0.7738 -0.0077
H19 H 0.8502 0.6565 0.2663
H20 H 1.0707 0.6901 0.2678
H21 H 1.0255 0.6646 0.4763
H22 H 1.2123(79) 1.1365(26) 0.2578(69)

#END
