./LADPIP_from_POSCAR.cif_generated_by_CrystalShift
_symmetry_cell_setting triclinic
_symmetry_space_group_name_H-M 'P 1'
loop_
_symmetry_equiv_pos_site_id
_symmetry_equiv_pos_as_xyz
1 x,y,z
_cell_length_a 10.070000
_cell_length_b 12.940000
_cell_length_c 7.449000
_cell_angle_alpha 90.000000
_cell_angle_beta 92.740000
_cell_angle_gamma 90.000000
_cell_volume 969.538206
loop_
_atom_site_label
_atom_site_type_symbol
_atom_site_fract_x
_atom_site_fract_y
_atom_site_fract_z
H1 H -0.099900 0.485900 0.528000
H2 H 1.216900 0.943800 0.346400
H3 H 1.076800 0.880700 0.353500
H4 H 1.100300 1.156400 0.309900
H5 H 1.217400 1.114200 0.184300
H6 H 1.078000 1.157400 0.091300
H7 H 0.875400 0.836400 -0.228400
H8 H 1.006600 0.905600 -0.267000
H9 H 0.667400 0.931900 -0.328100
H10 H -0.216900 0.443800 0.653600
H11 H -0.076800 0.380700 0.646500
H12 H -0.100300 0.656400 0.690100
H13 H -0.217400 0.614200 0.815700
H14 H 0.606100 0.331700 0.808200
H15 H 0.427200 0.385500 0.995600
H16 H 0.631200 0.242600 1.486700
H17 H 0.707100 0.335600 1.384500
H18 H 0.771200 0.219700 1.392100
H19 H 0.747000 0.316600 1.055900
H20 H 0.737700 0.194800 0.999500
H21 H 0.382700 0.045800 0.915800
H22 H 0.376000 0.040200 0.696500
H23 H 0.246300 0.078000 0.802300
H24 H 0.379600 0.320400 0.633900
H25 H 0.374200 0.212500 0.519900
H26 H 0.244400 0.250400 0.625600
H27 H 0.766400 0.978600 -0.475500
H28 H 0.677400 1.056600 -0.357700
H29 H 0.797200 0.910700 0.167600
H30 H 0.987700 0.826500 0.045100
H31 H 0.012300 0.326500 0.954900
H32 H 0.202800 0.410700 0.832400
H33 H 0.322600 0.556600 1.357700
H34 H 0.233600 0.478600 1.475500
H35 H 0.755600 0.750400 0.374400
H36 H -0.078000 0.657400 0.908700
H37 H 0.124600 0.336400 1.228400
H38 H -0.006600 0.405600 1.267000
H39 H 0.332600 0.431900 1.328100
H40 H 0.393900 0.831700 0.191800
H41 H 0.572800 0.885500 0.004400
H42 H 0.368800 0.742600 -0.486700
H43 H 0.292900 0.835600 -0.384500
H44 H 0.228800 0.719700 -0.392100
H45 H 0.253000 0.816600 -0.055900
H46 H 0.262300 0.694800 0.000500
H47 H 0.617300 0.545800 0.084200
H48 H 0.624000 0.540200 0.303500
H49 H 0.753700 0.578000 0.197700
H50 H 0.620400 0.820400 0.366100
H51 H 0.625800 0.712500 0.480100
H52 H 1.099900 0.985900 0.472000
C53 C 0.921000 1.089200 -0.243800
C54 C 0.840500 0.995400 -0.211800
C55 C 0.729100 0.990100 -0.353800
C56 C 0.926000 0.899300 -0.192500
C57 C 0.966600 0.897900 0.003300
C58 C 0.858400 0.954100 0.095700
C59 C 1.061700 1.013900 0.202100
C60 C 1.118200 1.118500 0.198200
C61 C 1.117300 0.951000 0.356000
C62 C 0.653400 0.579500 0.198000
C63 C 0.605600 0.690500 0.204900
C64 C 0.540800 0.812400 -0.008200
C65 C 0.423400 0.781500 0.099900
C66 C 0.314700 0.756100 -0.036900
C67 C 0.312600 0.760100 -0.380600
C68 C 0.389200 0.733000 -0.209500
C69 C 0.433700 0.623900 -0.218100
C70 C 0.342900 0.248200 0.630600
C71 C 0.346600 0.079500 0.802000
C72 C 0.394400 0.190500 0.795100
C73 C 0.459200 0.312400 1.008200
C74 C 0.576600 0.281500 0.900100
C75 C 0.685300 0.256100 1.036900
C76 C 0.687400 0.260100 1.380600
C77 C 0.610800 0.233000 1.209500
C78 C 0.657100 0.748200 0.369400
C79 C 0.079000 0.589200 1.243800
C80 C 0.159500 0.495400 1.211800
C81 C 0.270900 0.490100 1.353800
C82 C 0.074000 0.399300 1.192500
C83 C 0.033400 0.397900 0.996700
C84 C 0.141600 0.454100 0.904300
C85 C -0.061700 0.513900 0.797900
C86 C -0.118200 0.618500 0.801800
C87 C -0.117300 0.451000 0.644000
C88 C 0.566300 0.123900 1.218100
N89 N 0.533000 0.041400 1.236400
N90 N 0.467000 0.541400 -0.236400
N91 N 0.022300 0.661400 1.277400
N92 N 0.977700 1.161400 -0.277400
O93 O 1.077800 0.963200 0.034800
O94 O 0.780900 1.006100 -0.040500
O95 O 0.920900 1.022300 0.213900
O96 O 0.079100 0.522300 0.786100
O97 O 0.464700 0.690000 0.192100
O98 O 0.505000 0.796900 -0.191500
O99 O -0.077800 0.463200 0.965200
O100 O 0.356200 0.243700 0.953200
O101 O 0.535300 0.190000 0.807900
O102 O 0.495000 0.296900 1.191500
O103 O 0.219100 0.506100 1.040500
O104 O 0.643800 0.743700 0.046800

#END
