
#######################################################################
#
#                 Cambridge Crystallographic Data Centre
#                                CCDC 
#
#######################################################################
#
# If this CIF has been generated from an entry in the Cambridge 
# Structural Database, then it will include bibliographic, chemical, 
# crystal, experimental, refinement or atomic coordinate data resulting 
# from the CCDC's data processing and validation procedures.
#
#######################################################################

data_LADPIP
_symmetry_cell_setting           monoclinic
_symmetry_space_group_name_H-M   'P 21'
_symmetry_Int_Tables_number      4
_space_group_name_Hall           'P 2yb'
loop_
_symmetry_equiv_pos_site_id
_symmetry_equiv_pos_as_xyz
1 x,y,z
2 -x,1/2+y,-z
_cell_length_a                   10.070(6)
_cell_length_b                   12.940(7)
_cell_length_c                   7.449(5)
_cell_angle_alpha                90
_cell_angle_beta                 92.74(5)
_cell_angle_gamma                90
_cell_volume                     969.538
loop_
_atom_site_label
_atom_site_type_symbol
_atom_site_fract_x
_atom_site_fract_y
_atom_site_fract_z
C1 C 0.5663(5) 0.1239(4) 1.2181(6)
C2 C 0.6108(4) 0.2330(4) 1.2095(7)
C3 C 0.6874(6) 0.2601(5) 1.3806(8)
C4 C 0.6853(5) 0.2561(4) 1.0369(7)
C5 C 0.5766(5) 0.2815(4) 0.9001(7)
C6 C 0.4592(4) 0.3124(4) 1.0082(7)
C7 C 0.3944(5) 0.1905(4) 0.7951(7)
C8 C 0.3466(6) 0.0795(5) 0.8020(8)
C9 C 0.3429(6) 0.2482(5) 0.6306(8)
N1 N 0.5330(5) 0.0414(4) 1.2364(7)
O1 O 0.4950(3) 0.2969(3) 1.1915(4)
O2 O 0.5353(3) 0.1900(3) 0.8079(5)
O3 O 0.3562(3) 0.2437(3) 0.9532(5)
H1 H 0.6061 0.3317 0.8082
H2 H 0.4272 0.3855 0.9956
H3 H 0.6312 0.2426 1.4867
H4 H 0.7071 0.3356 1.3845
H5 H 0.7712 0.2197 1.3921
H6 H 0.7470 0.3166 1.0559
H7 H 0.7377 0.1948 0.9995
H8 H 0.3827 0.0458 0.9158
H9 H 0.3760 0.0402 0.6965
H10 H 0.2463 0.0780 0.8023
H11 H 0.3796 0.3204 0.6339
H12 H 0.3742 0.2125 0.5199
H13 H 0.2444 0.2504 0.6256
C1 C 0.4337(5) 0.6239(4) -0.2181(6)
C2 C 0.3892(4) 0.7330(4) -0.2095(7)
C3 C 0.3126(6) 0.7601(5) -0.3806(8)
C4 C 0.3147(5) 0.7561(4) -0.0369(7)
C5 C 0.4234(5) 0.7815(4) 0.0999(7)
C6 C 0.5408(4) 0.8124(4) -0.0082(7)
C7 C 0.6056(5) 0.6905(4) 0.2049(7)
C8 C 0.6534(6) 0.5795(5) 0.1980(8)
C9 C 0.6571(6) 0.7482(5) 0.3694(8)
N1 N 0.4670(5) 0.5414(4) -0.2364(7)
O1 O 0.5050(3) 0.7969(3) -0.1915(4)
O2 O 0.4647(3) 0.6900(3) 0.1921(5)
O3 O 0.6438(3) 0.7437(3) 0.0468(5)
H1 H 0.3939 0.8317 0.1918
H2 H 0.5728 0.8855 0.0044
H3 H 0.3688 0.7426 -0.4867
H4 H 0.2929 0.8356 -0.3845
H5 H 0.2288 0.7197 -0.3921
H6 H 0.2530 0.8166 -0.0559
H7 H 0.2623 0.6948 0.0005
H8 H 0.6173 0.5458 0.0842
H9 H 0.6240 0.5402 0.3035
H10 H 0.7537 0.5780 0.1977
H11 H 0.6204 0.8204 0.3661
H12 H 0.6258 0.7125 0.4801
H13 H 0.7556 0.7504 0.3744
C10 C 0.9210(5) 1.0892(4) -0.2438(7)
C11 C 0.8405(4) 0.9954(4) -0.2118(6)
C12 C 0.7291(5) 0.9901(5) -0.3538(7)
C13 C 0.9260(6) 0.8993(4) -0.1925(7)
C14 C 0.9666(5) 0.8979(4) 0.0033(7)
C15 C 0.8584(5) 0.9541(4) 0.0957(7)
C16 C 1.0617(4) 1.0139(4) 0.2021(6)
C17 C 1.1182(7) 1.1185(5) 0.1982(9)
C18 C 1.1173(7) 0.9510(5) 0.3560(8)
N2 N 0.9777(5) 1.1614(4) -0.2774(6)
O4 O 0.7809(3) 1.0061(3) -0.0405(4)
O5 O 1.0778(3) 0.9632(3) 0.0348(4)
O6 O 0.9209(3) 1.0223(3) 0.2139(5)
H14 H 0.9877 0.8265 0.0451
H15 H 0.7972 0.9107 0.1676
H16 H 0.6774 1.0566 -0.3577
H17 H 0.7664 0.9786 -0.4755
H18 H 0.6674 0.9319 -0.3281
H19 H 1.0066 0.9056 -0.2670
H20 H 0.8754 0.8364 -0.2284
H21 H 1.0780 1.1574 0.0913
H22 H 1.2174 1.1142 0.1843
H23 H 1.1003 1.1564 0.3099
H24 H 1.0768 0.8807 0.3535
H25 H 1.2169 0.9438 0.3464
H26 H 1.0999 0.9859 0.4720
C10 C 0.0790(5) 0.5892(4) 1.2438(7)
C11 C 0.1595(4) 0.4954(4) 1.2118(6)
C12 C 0.2709(5) 0.4901(5) 1.3538(7)
C13 C 0.0740(6) 0.3993(4) 1.1925(7)
C14 C 0.0334(5) 0.3979(4) 0.9967(7)
C15 C 0.1416(5) 0.4541(4) 0.9043(7)
C16 C -0.0617(4) 0.5139(4) 0.7979(6)
C17 C -0.1182(7) 0.6185(5) 0.8018(9)
C18 C -0.1173(7) 0.4510(5) 0.6440(8)
N2 N 0.0223(5) 0.6614(4) 1.2774(6)
O4 O 0.2191(3) 0.5061(3) 1.0405(4)
O5 O -0.0778(3) 0.4632(3) 0.9652(4)
O6 O 0.0791(3) 0.5223(3) 0.7861(5)
H14 H 0.0123 0.3265 0.9549
H15 H 0.2028 0.4107 0.8324
H16 H 0.3226 0.5566 1.3577
H17 H 0.2336 0.4786 1.4755
H18 H 0.3326 0.4319 1.3281
H19 H -0.0066 0.4056 1.2670
H20 H 0.1246 0.3364 1.2284
H21 H -0.0780 0.6574 0.9087
H22 H -0.2174 0.6142 0.8157
H23 H -0.1003 0.6564 0.6901
H24 H -0.0768 0.3807 0.6465
H25 H -0.2169 0.4438 0.6536
H26 H -0.0999 0.4859 0.5280

#END
