./LADRAL_from_POSCAR.cif_generated_by_CrystalShift
_symmetry_cell_setting triclinic
_symmetry_space_group_name_H-M 'P 1'
loop_
_symmetry_equiv_pos_site_id
_symmetry_equiv_pos_as_xyz
1 x,y,z
_cell_length_a 10.115400
_cell_length_b 11.263900
_cell_length_c 11.352700
_cell_angle_alpha 69.524000
_cell_angle_beta 74.699000
_cell_angle_gamma 83.560000
_cell_volume 1168.551360
loop_
_atom_site_label
_atom_site_type_symbol
_atom_site_fract_x
_atom_site_fract_y
_atom_site_fract_z
H1 H 0.682200 -0.094300 0.146000
H2 H 0.735100 0.480300 0.513500
H3 H 0.378000 0.509000 0.884000
H4 H 0.298000 0.592000 0.814000
H5 H 0.705900 0.533600 0.372100
H6 H 0.120300 0.728900 0.431300
H7 H -0.005500 0.647900 0.535400
H8 H 0.037500 0.773400 0.550400
H9 H 0.150000 0.441800 0.608100
H10 H 0.346800 0.965000 0.962800
H11 H 0.317800 1.094300 0.854000
H12 H 0.264900 0.519700 0.486500
H13 H 0.294100 0.466400 0.627900
H14 H 0.866800 -0.183500 0.305100
H15 H 1.019800 -0.176600 0.216600
H16 H 0.893600 -0.191000 0.162400
H17 H 1.069300 0.339400 -0.021600
H18 H 1.012000 0.341000 0.123400
H19 H 0.412600 1.210500 0.635000
H20 H 0.552200 1.214500 0.527100
H21 H 0.556300 1.219600 0.665200
H22 H 0.917700 0.392900 0.022000
H23 H 0.637400 0.654100 0.788100
H24 H 0.750500 0.731700 0.664400
H25 H 0.616000 0.685200 0.645500
H26 H 0.384000 0.314800 0.354500
H27 H 0.082300 0.607100 0.978000
H28 H -0.012000 0.659000 0.876600
H29 H -0.069300 0.660600 1.021600
H30 H 0.249500 0.268300 0.335600
H31 H 0.106400 1.191000 0.837600
H32 H -0.019800 1.176600 0.783400
H33 H 0.133200 1.183500 0.694900
H34 H 0.879700 0.271100 0.568700
H35 H 1.005500 0.352100 0.464600
H36 H 0.362600 0.345900 0.211900
H37 H 0.443700 -0.219600 0.334800
H38 H 0.447800 -0.214500 0.472900
H39 H 0.587400 -0.210500 0.365000
H40 H 0.653200 0.035000 0.037200
H41 H 0.850000 0.558200 0.391900
H42 H 0.702000 0.408000 0.186000
H43 H 0.622000 0.491000 0.116000
H44 H 0.962500 0.226600 0.449600
C45 C 0.923600 -0.152900 0.216300
C46 C 0.611100 0.960900 0.621200
C47 C 0.776000 0.497700 0.420800
C48 C 0.520500 1.043600 0.670500
C49 C 0.327100 1.001100 0.876100
C50 C 0.832800 0.376900 0.398000
C51 C 0.928300 0.300100 0.477000
C52 C 0.672900 -0.001100 0.123900
C53 C 0.580400 0.837000 0.707200
C54 C 0.067300 0.800000 0.909100
C55 C 0.479500 -0.043600 0.329500
C56 C 0.388900 0.039100 0.378800
C57 C 0.419600 0.163000 0.292800
C58 C 0.932700 0.200000 0.090900
C59 C 0.996600 0.081800 0.145400
C60 C 0.909300 -0.012200 0.162800
C61 C 0.490600 -0.183900 0.379800
C62 C 0.071700 0.699900 0.523000
C63 C 0.167200 0.623100 0.602000
C64 C 0.003400 0.918200 0.854600
C65 C 0.347900 0.283100 0.299200
C66 C 0.090700 1.012200 0.837200
C67 C 0.076400 1.152900 0.783700
C68 C 0.012300 0.670600 0.949800
C69 C 0.987700 0.329400 0.050200
C70 C 0.652100 0.716900 0.700800
C71 C 0.509400 1.183900 0.620200
C72 C 0.224000 0.502300 0.579200
N73 N 0.525200 0.155900 0.194800
N74 N 0.566400 0.728900 1.076200
N75 N 0.474800 0.844100 0.805200
N76 N 0.439500 0.969900 0.781200
N77 N 0.201200 0.951300 0.878800
N78 N 0.560500 0.030100 0.218800
N79 N 0.791800 0.390100 -0.208600
N80 N 0.433600 0.271100 -0.076200
N81 N 0.798800 0.048700 0.121200
N82 N 0.811200 0.177500 0.077500
N83 N 0.188800 0.822500 0.922500
N84 N 0.208200 0.609900 1.208600
O85 O 0.339600 0.308200 -0.133300
O86 O 0.488900 0.165600 -0.060200
O87 O 0.474300 0.349500 -0.032900
O88 O 0.749200 0.292400 -0.211000
O89 O 0.872000 0.461500 -0.297600
O90 O 0.748600 0.418000 -0.101900
O91 O 0.251400 0.582000 1.101900
O92 O 0.128000 0.538500 1.297600
O93 O 0.800300 0.343100 0.320600
O94 O 0.250800 0.707600 1.211000
O95 O 0.525700 0.650500 1.032900
O96 O 0.199700 0.656900 0.679400
O97 O 0.660400 0.691800 1.133300
O98 O 0.511100 0.834400 1.060200
O99 O 0.368000 0.591600 0.846500
O100 O 0.632000 0.408400 0.153500
Cu101 Cu 0.639450 0.286460 0.042990
Cu102 Cu 0.360550 0.713540 0.957010
I103 I 0.756790 1.009840 0.461400
I104 I -0.172540 0.942310 0.808370
I105 I 1.172540 0.057690 0.191630
I106 I 0.243210 -0.009840 0.538600

#END
