./LADREQ_from_POSCAR.cif_generated_by_CrystalShift
_symmetry_cell_setting triclinic
_symmetry_space_group_name_H-M 'P 1'
loop_
_symmetry_equiv_pos_site_id
_symmetry_equiv_pos_as_xyz
1 x,y,z
_cell_length_a 11.840600
_cell_length_b 7.860800
_cell_length_c 19.158900
_cell_angle_alpha 90.000000
_cell_angle_beta 103.064000
_cell_angle_gamma 90.000000
_cell_volume 1737.091431
loop_
_atom_site_label
_atom_site_type_symbol
_atom_site_fract_x
_atom_site_fract_y
_atom_site_fract_z
H1 H 0.453000 0.753000 1.040700
H2 H 0.120700 0.916700 0.366300
H3 H 0.056000 0.737000 0.351200
H4 H 0.376000 0.896000 1.022100
H5 H 0.134600 0.483200 1.082000
H6 H 0.254300 0.246000 1.301800
H7 H 0.219100 0.643300 1.084400
H8 H 0.154500 0.318700 1.186200
H9 H 0.203900 0.896000 0.936400
H10 H 0.213100 0.627200 0.306700
H11 H -0.035900 0.593100 0.545600
H12 H 0.460000 0.844300 0.416000
H13 H 0.406400 0.657800 0.401400
H14 H 0.529200 0.524300 1.276500
H15 H 0.250500 0.533400 0.705600
H16 H 0.250500 0.966600 0.205600
H17 H 0.151500 0.741700 0.973400
H18 H -0.035900 0.906900 0.045600
H19 H 0.406400 0.842200 0.901400
H20 H 0.460000 0.655700 0.916000
H21 H 0.154500 1.181300 0.686200
H22 H 0.213100 0.872800 0.806700
H23 H 0.219100 0.856700 0.584400
H24 H 0.134600 1.016800 0.582000
H25 H 0.145600 0.469500 0.590200
H26 H -0.110900 0.717300 0.117800
H27 H 0.056000 0.763000 0.851200
H28 H 0.203900 0.604000 0.436400
H29 H 0.151500 0.758300 0.473400
H30 H 0.120700 0.583300 0.866300
H31 H 0.145600 1.030500 0.090200
H32 H 0.547000 0.253000 0.459300
H33 H -0.005000 0.649500 0.232200
H34 H 0.624000 0.396000 0.477900
H35 H 0.441600 1.152400 0.846900
H36 H 0.745700 -0.254000 0.198200
H37 H 0.429300 0.901700 0.660800
H38 H 0.470800 0.024300 0.223500
H39 H 0.312600 0.960400 0.327200
H40 H 0.367100 0.803300 0.293000
H41 H 0.632900 0.196700 0.707000
H42 H 0.687400 0.039600 0.672800
H43 H 0.570700 0.098300 0.339200
H44 H 0.529200 0.975700 0.776500
H45 H 0.558400 -0.152400 0.153100
H46 H 0.254300 1.254000 0.801800
H47 H 0.376000 0.604000 0.522100
H48 H 0.453000 0.747000 0.540700
H49 H 1.005000 0.350500 0.767800
H50 H 0.879300 0.416700 0.133700
H51 H 0.944000 0.237000 0.148800
H52 H 0.854400 -0.030500 0.909800
H53 H 0.848500 0.241700 0.526600
H54 H 0.796100 0.396000 0.563600
H55 H 0.367100 0.696700 0.793000
H56 H 1.110900 0.282700 0.882200
H57 H 0.865400 -0.016800 0.418000
H58 H 0.786900 0.127200 0.193300
H59 H 0.780900 0.143300 0.415600
H60 H 0.540000 0.344300 0.084000
H61 H 0.593600 0.157800 0.098600
H62 H 0.312600 0.539600 0.827200
H63 H 0.845500 -0.181300 0.313800
H64 H 0.749500 0.466600 0.294400
H65 H -0.005000 0.850500 0.732200
H66 H 1.035900 0.406900 0.454400
H67 H 1.035900 0.093100 0.954400
H68 H 0.749500 0.033400 0.794400
H69 H 0.845500 0.681300 -0.186200
H70 H 0.593600 0.342200 0.598600
H71 H 0.780900 0.356700 -0.084400
H72 H 0.865400 0.516800 -0.082000
H73 H 0.540000 0.155700 0.584000
H74 H 1.110900 0.217300 0.382200
H75 H 0.786900 0.372800 0.693300
H76 H 0.796100 0.104000 0.063600
H77 H 0.848500 0.258300 0.026600
H78 H 0.441600 0.347600 1.346900
H79 H 0.854400 0.530500 0.409800
H80 H 0.429300 0.598300 1.160800
H81 H 1.005000 0.149500 0.267800
H82 H 0.944000 0.263000 0.648800
H83 H 0.558400 0.652400 -0.346900
H84 H 0.879300 0.083300 0.633700
H85 H 0.570700 0.401700 -0.160800
H86 H -0.110900 0.782700 0.617800
H87 H 0.687400 0.460400 0.172800
H88 H 0.632900 0.303300 0.207000
H89 H 0.547000 0.247000 -0.040700
H90 H 0.624000 0.104000 -0.022100
H91 H 0.745700 0.754000 -0.301800
H92 H 0.470800 0.475700 -0.276500
C93 C 0.709950 0.682600 -0.273110
C94 C 0.547030 0.517500 -0.258120
C95 C 0.680200 0.305480 0.037120
C96 C 0.686970 0.494150 0.019850
C97 C 0.866980 0.207580 0.635670
C98 C 0.606370 0.473600 -0.189410
C99 C 0.598970 0.622200 -0.299940
C100 C 0.973980 0.228250 0.296070
C101 C 0.866030 0.198020 0.768090
C102 C 0.393630 0.526400 1.189410
C103 C 0.885650 0.453530 0.380940
C104 C 0.717310 -0.034400 0.337610
C105 C 0.798810 0.246890 0.693350
C106 C 0.802490 0.229510 0.062140
C107 C 0.613550 0.220190 0.596850
C108 C 1.037050 0.267800 0.364620
C109 C 0.783250 0.482120 -0.088690
C110 C 0.401030 0.377800 1.299940
C111 C 0.822940 0.085080 0.811900
C112 C 0.769280 0.639260 -0.204470
C113 C 0.993000 0.119590 0.907510
C114 C 0.321200 0.664930 0.828260
C115 C 0.993000 0.380410 0.407510
C116 C 0.769280 -0.139260 0.295530
C117 C 0.822940 0.414920 0.311900
C118 C 0.783250 0.017880 0.411310
C119 C 0.613550 0.279810 0.096850
C120 C 0.798810 0.253110 0.193350
C121 C 1.037050 0.232200 0.864620
C122 C 0.717310 0.534400 -0.162390
C123 C 0.802490 0.270490 0.562140
C124 C 0.313030 0.505850 0.980150
C125 C 0.866030 0.301980 0.268090
C126 C 0.885650 0.046470 0.880940
C127 C 0.319800 0.694520 0.962880
C128 C 0.973980 0.271750 0.796070
C129 C 0.866980 0.292420 0.135670
C130 C 0.598970 -0.122200 0.200060
C131 C 0.290050 1.182600 0.773110
C132 C 0.606370 0.026400 0.310590
C133 C 0.452970 1.017500 0.758120
C134 C 0.678800 0.164930 0.671740
C135 C 0.319800 0.805480 0.462880
C136 C 0.313030 0.994150 0.480150
C137 C 0.686970 0.005850 0.519850
C138 C 0.680200 0.194520 0.537120
C139 C 0.547030 -0.017500 0.241880
C140 C 0.321200 0.835070 0.328260
C141 C 0.709950 -0.182600 0.226890
C142 C 0.393630 0.973600 0.689410
C143 C 0.401030 1.122200 0.799940
C144 C 0.026020 0.728250 0.203930
C145 C 0.133020 0.707580 0.864330
C146 C 0.114350 0.953530 0.119060
C147 C 0.197510 0.729510 0.437860
C148 C 0.026020 0.771750 0.703930
C149 C 0.133970 0.698020 0.731910
C150 C -0.037050 0.767800 0.135380
C151 C 0.114350 0.546470 0.619060
C152 C 0.282690 0.465600 1.162390
C153 C 0.201190 0.746890 0.806650
C154 C 0.216750 0.982120 0.588690
C155 C 0.386450 0.720190 0.903150
C156 C 0.230720 1.139260 0.704470
C157 C 0.452970 0.482500 1.258120
C158 C 0.007000 0.880410 0.092490
C159 C 0.177060 0.585080 0.688100
C160 C 0.177060 0.914920 0.188100
C161 C 0.007000 0.619590 0.592490
C162 C 0.386450 0.779810 0.403150
C163 C 0.201190 0.753110 0.306650
C164 C 0.230720 0.360740 1.204470
C165 C 0.282690 1.034400 0.662390
C166 C 0.216750 0.517880 1.088690
C167 C 0.290050 0.317400 1.273110
C168 C 0.133970 0.801980 0.231910
C169 C -0.037050 0.732200 0.635380
C170 C 0.678800 0.335070 0.171740
C171 C 0.197510 0.770490 0.937860
C172 C 0.133020 0.792420 0.364330
N173 N 0.274570 0.267580 1.030040
N174 N 0.266150 0.439390 1.032100
N175 N 0.377250 0.778660 1.030570
N176 N 0.350810 0.378550 0.946490
N177 N 0.675090 -0.267350 0.521410
N178 N 0.725430 -0.232420 0.469960
N179 N 0.733850 -0.060610 0.467900
N180 N 0.622750 0.278660 0.469430
N181 N 0.649190 -0.121450 0.553510
N182 N 0.675090 0.767350 0.021410
N183 N 0.725430 0.732420 -0.030040
N184 N 0.733850 0.560610 -0.032100
N185 N 0.622750 0.221340 -0.030570
N186 N 0.649190 0.621450 0.053510
N187 N 0.324910 1.267350 0.478590
N188 N 0.274570 1.232420 0.530040
N189 N 0.266150 1.060610 0.532100
N190 N 0.377250 0.721340 0.530570
N191 N 0.350810 1.121450 0.446490
N192 N 0.324910 0.232650 0.978590

#END
