
#######################################################################
#
#                 Cambridge Crystallographic Data Centre
#                                CCDC 
#
#######################################################################
#
# If this CIF has been generated from an entry in the Cambridge 
# Structural Database, then it will include bibliographic, chemical, 
# crystal, experimental, refinement or atomic coordinate data resulting 
# from the CCDC's data processing and validation procedures.
#
#######################################################################

data_LADSER
_symmetry_cell_setting           triclinic
_symmetry_space_group_name_H-M   'P -1'
_symmetry_Int_Tables_number      2
_space_group_name_Hall           '-P 1'
loop_
_symmetry_equiv_pos_site_id
_symmetry_equiv_pos_as_xyz
1 x,y,z
2 -x,-y,-z
_cell_length_a                   7.3682(7)
_cell_length_b                   8.7579(7)
_cell_length_c                   12.4280(11)
_cell_angle_alpha                104.397(7)
_cell_angle_beta                 98.594(7)
_cell_angle_gamma                108.481(7)
_cell_volume                     713.63
loop_
_atom_site_label
_atom_site_type_symbol
_atom_site_fract_x
_atom_site_fract_y
_atom_site_fract_z
C1 C 0.5159(4) 0.3498(3) 0.2701(2)
C2 C 0.4994(4) 0.4600(4) 0.2082(2)
C3 C 0.3874(5) 0.3989(5) 0.0964(3)
C4 C 0.2958(6) 0.2286(5) 0.0438(3)
C5 C 0.3128(5) 0.1178(5) 0.1016(3)
C6 C 0.4205(5) 0.1776(4) 0.2138(3)
C7 C 0.6525(4) 0.3381(4) 0.4518(2)
C8 C 0.7747(3) 0.4220(3) 0.5673(2)
C9 C 0.8740(3) 0.6000(3) 0.6064(2)
C10 C 0.9947(4) 0.6770(3) 0.7177(2)
C11 C 1.0131(4) 0.5838(4) 0.7888(2)
C12 C 0.9119(4) 0.4100(4) 0.7517(2)
C13 C 0.7964(3) 0.3276(3) 0.6414(2)
C14 C 0.8040(6) 0.0558(5) 0.5630(4)
N1 N 0.6308(3) 0.4229(3) 0.38450(18)
O1 O 0.8556(3) 0.6954(2) 0.54113(19)
O2 O 0.6923(2) 0.1562(2) 0.60305(15)
Cl1 Cl 0.61925(11) 0.67723(10) 0.27205(7)
Cl2 Cl 1.12327(12) 0.89371(10) 0.76347(7)
Cl3 Cl 0.92702(13) 0.29658(12) 0.84657(7)
H1 H 0.596(3) 0.229(3) 0.434(2)
H2 H 1.093(4) 0.637(4) 0.860(3)
H3 H 0.424(4) 0.100(4) 0.248(3)
H4 H 0.382(5) 0.477(4) 0.067(3)
H5 H 0.713(6) -0.058(5) 0.534(3)
H6 H 0.253(5) 0.003(5) 0.064(3)
H7 H 0.214(5) 0.188(4) -0.031(3)
H8 H 0.910(6) 0.073(5) 0.623(4)
H9 H 0.783(5) 0.630(5) 0.476(3)
H10 H 0.867(6) 0.097(6) 0.507(4)
C1 C 0.4841(4) 0.6502(3) 0.7299(2)
C2 C 0.5006(4) 0.5400(4) 0.7918(2)
C3 C 0.6126(5) 0.6011(5) 0.9036(3)
C4 C 0.7042(6) 0.7714(5) 0.9562(3)
C5 C 0.6872(5) 0.8822(5) 0.8984(3)
C6 C 0.5795(5) 0.8224(4) 0.7862(3)
C7 C 0.3475(4) 0.6619(4) 0.5482(2)
C8 C 0.2253(3) 0.5780(3) 0.4327(2)
C9 C 0.1260(3) 0.4000(3) 0.3936(2)
C10 C 0.0053(4) 0.3230(3) 0.2823(2)
C11 C -0.0131(4) 0.4162(4) 0.2112(2)
C12 C 0.0881(4) 0.5900(4) 0.2483(2)
C13 C 0.2036(3) 0.6724(3) 0.3586(2)
C14 C 0.1960(6) 0.9442(5) 0.4370(4)
N1 N 0.3692(3) 0.5771(3) 0.61550(18)
O1 O 0.1444(3) 0.3046(2) 0.45887(19)
O2 O 0.3077(2) 0.8438(2) 0.39695(15)
Cl1 Cl 0.38075(11) 0.32277(10) 0.72795(7)
Cl2 Cl -0.12327(12) 0.10629(10) 0.23653(7)
Cl3 Cl 0.07298(13) 0.70342(12) 0.15343(7)
H1 H 0.404(3) 0.771(3) 0.566(2)
H2 H -0.093(4) 0.363(4) 0.140(3)
H3 H 0.576(4) 0.900(4) 0.752(3)
H4 H 0.618(5) 0.523(4) 0.933(3)
H5 H 0.287(6) 1.058(5) 0.466(3)
H6 H 0.747(5) 0.997(5) 0.936(3)
H7 H 0.786(5) 0.812(4) 1.031(3)
H8 H 0.090(6) 0.927(5) 0.377(4)
H9 H 0.217(5) 0.370(5) 0.524(3)
H10 H 0.133(6) 0.903(6) 0.493(4)

#END
