./LADTIT_from_POSCAR.cif_generated_by_CrystalShift
_symmetry_cell_setting triclinic
_symmetry_space_group_name_H-M 'P 1'
loop_
_symmetry_equiv_pos_site_id
_symmetry_equiv_pos_as_xyz
1 x,y,z
_cell_length_a 8.741000
_cell_length_b 9.504000
_cell_length_c 13.894000
_cell_angle_alpha 90.000000
_cell_angle_beta 90.000000
_cell_angle_gamma 90.000000
_cell_volume 1154.236603
loop_
_atom_site_label
_atom_site_type_symbol
_atom_site_fract_x
_atom_site_fract_y
_atom_site_fract_z
H1 H 0.692000 -0.082000 0.373000
H2 H 0.413000 0.090000 0.186000
H3 H 0.801000 0.170000 0.574000
H4 H 0.859000 0.078000 0.484000
H5 H 0.706000 0.032000 0.538000
H6 H 0.582000 0.240000 0.483000
H7 H 0.752000 0.752000 0.518000
H8 H 0.907000 0.692000 0.578000
H9 H 0.927000 0.781000 0.474000
H10 H 0.614000 0.542000 0.578000
H11 H 0.632000 0.373000 0.593000
H12 H 0.748000 0.496000 0.624000
H13 H 0.852000 0.253000 0.296000
H14 H 0.992000 0.449000 0.250000
H15 H 0.991000 0.663000 0.343000
H16 H 0.509000 0.337000 0.843000
H17 H 0.508000 0.551000 0.750000
H18 H 0.648000 0.747000 0.796000
H19 H 0.752000 0.504000 1.124000
H20 H 0.868000 0.627000 1.093000
H21 H 0.886000 0.458000 1.078000
H22 H 0.573000 0.219000 0.974000
H23 H 0.593000 0.308000 1.078000
H24 H 0.748000 0.248000 1.018000
H25 H 0.918000 0.760000 0.983000
H26 H 0.794000 0.968000 1.038000
H27 H 0.641000 0.922000 0.984000
H28 H 0.699000 0.830000 1.074000
H29 H 1.087000 0.910000 0.686000
H30 H 0.966000 1.124000 0.733000
H31 H 0.808000 1.082000 0.873000
H32 H 0.192000 0.582000 0.627000
H33 H 0.034000 0.624000 0.767000
H34 H -0.087000 0.410000 0.814000
H35 H 0.301000 0.330000 0.426000
H36 H 0.359000 0.422000 0.516000
H37 H 0.206000 0.468000 0.462000
H38 H 0.082000 0.260000 0.517000
H39 H 0.252000 -0.252000 0.482000
H40 H 0.407000 -0.192000 0.422000
H41 H 0.427000 -0.281000 0.526000
H42 H 0.114000 -0.042000 0.422000
H43 H 0.132000 0.127000 0.407000
H44 H 0.248000 0.004000 0.376000
H45 H 0.352000 0.247000 0.704000
H46 H 0.492000 0.051000 0.750000
H47 H 0.009000 1.163000 0.157000
H48 H 0.008000 0.949000 0.250000
H49 H 0.148000 0.753000 0.204000
H50 H 0.252000 0.996000 -0.124000
H51 H 0.368000 0.873000 -0.093000
H52 H 0.386000 1.042000 -0.078000
H53 H 0.073000 1.281000 0.026000
H54 H 0.093000 1.192000 -0.078000
H55 H 0.248000 1.252000 -0.018000
H56 H 0.418000 0.740000 0.017000
H57 H 0.294000 0.532000 -0.038000
H58 H 0.141000 0.578000 0.016000
H59 H 0.199000 0.670000 -0.074000
H60 H 0.587000 0.590000 0.314000
H61 H 0.466000 0.376000 0.267000
H62 H 0.308000 0.418000 0.127000
H63 H 0.491000 -0.163000 0.657000
H64 H 0.534000 -0.124000 0.233000
C65 C 0.264900 0.159500 0.581000
C66 C 0.270600 0.039800 0.522300
C67 C 0.357100 -0.077500 0.550900
C68 C 0.437900 -0.072000 0.635300
C69 C 0.438100 0.046400 0.691500
C70 C 0.350100 0.162400 0.665600
C71 C 0.188800 0.034200 0.427500
C72 C 0.360800 -0.209800 0.490400
C73 C 0.173400 0.289700 0.552000
C74 C 0.266700 0.383300 0.484200
C75 C 0.113500 0.371900 0.636200
C76 C -0.020200 0.414100 0.761800
C77 C 0.134700 0.508900 0.659700
C78 C 0.729400 0.539800 0.977700
C79 C 0.365300 0.491100 0.159700
C80 C 0.520200 0.585900 0.261800
C81 C 0.386500 0.628100 0.136200
C82 C 0.233300 0.616700 -0.015800
C83 C 0.326600 0.710300 0.052000
C84 C 0.139200 1.209800 -0.009600
C85 C 0.311200 0.965800 -0.072500
C86 C 0.149900 0.837600 0.165600
C87 C 0.061900 0.953600 0.191500
C88 C 0.062100 1.072000 0.135300
C89 C 0.142900 1.077500 0.050900
C90 C 0.229400 0.960200 0.022300
C91 C 0.235100 0.840500 0.081000
C92 C 0.642900 0.422500 0.949100
C93 C 0.735100 0.659500 0.919000
C94 C 0.562100 0.428000 0.864700
C95 C 0.561900 0.546400 0.808500
C96 C 0.764900 0.340500 0.419000
C97 C 0.770600 0.460200 0.477700
C98 C 0.857100 0.577500 0.449100
C99 C 0.937900 0.572000 0.364700
C100 C 0.938100 0.453600 0.308500
C101 C 0.850100 0.337600 0.334400
C102 C 0.688800 0.465800 0.572500
C103 C 0.860800 0.709800 0.509600
C104 C 0.673400 0.210300 0.448000
C105 C 0.766700 0.116700 0.515800
C106 C 0.613500 0.128100 0.363800
C107 C 0.479800 0.085900 0.238200
C108 C 0.634700 -0.008900 0.340300
C109 C 0.865300 1.008900 0.840300
C110 C 1.020200 0.914100 0.738200
C111 C 0.886500 0.871900 0.863800
C112 C 0.733300 0.883300 1.015800
C113 C 0.826600 0.789700 0.948000
C114 C 0.639200 0.290200 1.009600
C115 C 0.811200 0.534200 1.072500
C116 C 0.649900 0.662400 0.834400
N117 N 0.514300 0.188000 0.298300
N118 N 0.451100 0.465600 0.240400
N119 N 0.014300 0.312000 0.701700
N120 N 0.485700 0.688000 0.201700
N121 N 0.548900 -0.034400 0.259600
N122 N 0.951100 1.034400 0.759600
N123 N 0.048900 0.534400 0.740400
N124 N 0.985700 0.812000 0.798300

#END
