./LADVOE_from_POSCAR.cif_generated_by_CrystalShift
_symmetry_cell_setting triclinic
_symmetry_space_group_name_H-M 'P 1'
loop_
_symmetry_equiv_pos_site_id
_symmetry_equiv_pos_as_xyz
1 x,y,z
_cell_length_a 5.302700
_cell_length_b 8.690000
_cell_length_c 13.215300
_cell_angle_alpha 80.225000
_cell_angle_beta 85.234000
_cell_angle_gamma 85.669000
_cell_volume 596.880729
loop_
_atom_site_label
_atom_site_type_symbol
_atom_site_fract_x
_atom_site_fract_y
_atom_site_fract_z
H1 H 0.111200 0.868400 0.218000
H2 H -0.098800 1.004000 0.238500
H3 H 0.880500 0.358200 1.022900
H4 H 0.579200 0.175600 1.071700
H5 H 0.431100 1.023200 0.244100
H6 H 0.240900 0.363900 0.509400
H7 H 0.225700 1.163800 0.259700
H8 H 0.279200 0.146900 0.959300
H9 H 0.887800 0.513000 0.859800
H10 H 0.281100 0.301400 0.796900
H11 H 0.166400 0.854000 0.557700
H12 H 0.759100 0.636100 0.490600
H13 H 0.888800 0.131600 0.782000
H14 H 0.833600 0.146000 0.442300
H15 H 0.905100 -0.029000 0.861600
H16 H 0.718900 0.698600 0.203100
H17 H 1.098800 -0.004000 0.761500
H18 H 0.112200 0.487000 0.140200
H19 H 0.119500 0.641800 -0.022900
H20 H 0.720800 0.853100 0.040700
H21 H 0.420800 0.824400 -0.071700
H22 H 0.774300 -0.163800 0.740300
H23 H 0.568900 -0.023200 0.755900
H24 H 0.094900 1.029000 0.138400
C25 C 0.745200 -0.048600 0.730200
C26 C 0.241500 0.653600 0.023600
C27 C 0.596900 0.778300 0.061000
C28 C 0.924700 0.018200 0.788800
C29 C 0.236800 0.561500 0.119900
C30 C 0.595900 0.687200 0.157000
C31 C 0.685300 0.189700 0.474950
C32 C 0.075300 0.981800 0.211200
C33 C 0.758500 0.346400 0.976400
C34 C 0.580300 0.238600 1.005500
C35 C 0.254800 1.048600 0.269800
C36 C 0.545800 0.301900 0.420610
C37 C 0.618600 0.131100 0.583160
C38 C 0.403100 0.221700 0.939000
C39 C 0.454200 0.698100 0.579390
C40 C 0.390600 0.632200 0.689300
C41 C 0.758100 0.508800 0.631330
C42 C 0.584600 0.420300 0.814440
C43 C 0.381400 0.868900 0.416840
C44 C 0.314700 0.810300 0.525050
C45 C 0.415400 0.579700 0.185560
C46 C 0.404100 0.312800 0.843000
C47 C 0.241900 0.491200 0.368670
C48 C 0.763200 0.438500 0.880100
C49 C 0.609400 0.367800 0.310700
C50 C 0.419700 0.761400 -0.005500
N51 N 0.678000 0.618400 0.551870
N52 N 0.580300 0.518600 0.715640
N53 N 0.419700 0.481400 0.284360
N54 N 0.322000 0.381600 0.448130
O55 O 0.562400 0.818400 0.368300
O56 O 0.212700 0.669600 0.744800
O57 O 0.055600 0.580000 0.368560
O58 O 0.219400 0.984900 0.378620
O59 O 0.787300 0.330400 0.255200
O60 O 0.437600 0.181600 0.631700
O61 O 0.944400 0.420000 0.631440
O62 O 0.780600 0.015100 0.621380

#END
