
#######################################################################
#
#                 Cambridge Crystallographic Data Centre
#                                CCDC 
#
#######################################################################
#
# If this CIF has been generated from an entry in the Cambridge 
# Structural Database, then it will include bibliographic, chemical, 
# crystal, experimental, refinement or atomic coordinate data resulting 
# from the CCDC's data processing and validation procedures.
#
#######################################################################

data_LADVOE
_symmetry_cell_setting           triclinic
_symmetry_space_group_name_H-M   'P -1'
_symmetry_Int_Tables_number      2
_space_group_name_Hall           '-P 1'
loop_
_symmetry_equiv_pos_site_id
_symmetry_equiv_pos_as_xyz
1 x,y,z
2 -x,-y,-z
_cell_length_a                   5.3027(5)
_cell_length_b                   8.6900(9)
_cell_length_c                   13.2153(12)
_cell_angle_alpha                80.225(4)
_cell_angle_beta                 85.234(4)
_cell_angle_gamma                85.669(4)
_cell_volume                     596.881
loop_
_atom_site_label
_atom_site_type_symbol
_atom_site_fract_x
_atom_site_fract_y
_atom_site_fract_z
O1 O 0.7806(3) 0.0151(2) 0.62138(13)
O2 O 0.7873(4) 0.3304(2) 0.25520(14)
O3 O 0.0556(3) 0.5800(2) 0.36856(13)
O4 O 0.4376(4) 0.1816(2) 0.63170(14)
N1 N 0.3220(4) 0.3816(2) 0.44813(14)
H1 H 0.2409 0.3639 0.5094
N2 N 0.4197(4) 0.4814(2) 0.28436(15)
C1 C 0.5458(5) 0.3019(3) 0.42061(18)
C2 C 0.6094(5) 0.3678(3) 0.31070(18)
C3 C 0.2419(5) 0.4912(3) 0.36867(18)
C4 C 0.4154(5) 0.5797(3) 0.18556(18)
C5 C 0.6186(5) 0.1311(3) 0.58316(19)
C6 C 0.6853(5) 0.1897(3) 0.47495(18)
H2 H 0.8336 0.1460 0.4423
C7 C 0.5959(5) 0.6872(3) 0.1570(2)
H3 H 0.7189 0.6986 0.2031
C8 C 0.2368(5) 0.5615(3) 0.1199(2)
H4 H 0.1122 0.4870 0.1402
C9 C 0.5969(6) 0.7783(3) 0.0610(2)
H5 H 0.7208 0.8531 0.0407
C10 C 0.7452(5) -0.0486(3) 0.7302(2)
H6 H 0.7743 -0.1638 0.7403
H7 H 0.5689 -0.0232 0.7559
C11 C 0.4197(6) 0.7614(3) -0.0055(2)
H8 H 0.4208 0.8244 -0.0717
C12 C 0.2415(6) 0.6536(4) 0.0236(2)
H9 H 0.1195 0.6418 -0.0229
C13 C 0.9247(6) 0.0182(4) 0.7888(2)
H10 H 1.0988 -0.0040 0.7615
H11 H 0.9051 -0.0290 0.8616
H12 H 0.8888 0.1316 0.7820
O1 O 0.2194(3) 0.9849(2) 0.37862(13)
O2 O 0.2127(4) 0.6696(2) 0.74480(14)
O3 O 0.9444(3) 0.4200(2) 0.63144(13)
O4 O 0.5624(4) 0.8184(2) 0.36830(14)
N1 N 0.6780(4) 0.6184(2) 0.55187(14)
H1 H 0.7591 0.6361 0.4906
N2 N 0.5803(4) 0.5186(2) 0.71564(15)
C1 C 0.4542(5) 0.6981(3) 0.57939(18)
C2 C 0.3906(5) 0.6322(3) 0.68930(18)
C3 C 0.7581(5) 0.5088(3) 0.63133(18)
C4 C 0.5846(5) 0.4203(3) 0.81444(18)
C5 C 0.3814(5) 0.8689(3) 0.41684(19)
C6 C 0.3147(5) 0.8103(3) 0.52505(18)
H2 H 0.1664 0.8540 0.5577
C7 C 0.4041(5) 0.3128(3) 0.8430(2)
H3 H 0.2811 0.3014 0.7969
C8 C 0.7632(5) 0.4385(3) 0.8801(2)
H4 H 0.8878 0.5130 0.8598
C9 C 0.4031(6) 0.2217(3) 0.9390(2)
H5 H 0.2792 0.1469 0.9593
C10 C 0.2548(5) 1.0486(3) 0.2698(2)
H6 H 0.2257 1.1638 0.2597
H7 H 0.4311 1.0232 0.2441
C11 C 0.5803(6) 0.2386(3) 1.0055(2)
H8 H 0.5792 0.1756 1.0717
C12 C 0.7585(6) 0.3464(4) 0.9764(2)
H9 H 0.8805 0.3582 1.0229
C13 C 0.0753(6) 0.9818(4) 0.2112(2)
H10 H -0.0988 1.0040 0.2385
H11 H 0.0949 1.0290 0.1384
H12 H 0.1112 0.8684 0.2180

#END
