
#######################################################################
#
#                 Cambridge Crystallographic Data Centre
#                                CCDC 
#
#######################################################################
#
# If this CIF has been generated from an entry in the Cambridge 
# Structural Database, then it will include bibliographic, chemical, 
# crystal, experimental, refinement or atomic coordinate data resulting 
# from the CCDC's data processing and validation procedures.
#
#######################################################################

data_LADVIV10
_symmetry_cell_setting           monoclinic
_symmetry_space_group_name_H-M   'P 21/n'
_symmetry_Int_Tables_number      14
_space_group_name_Hall           '-P 2yn'
loop_
_symmetry_equiv_pos_site_id
_symmetry_equiv_pos_as_xyz
1 x,y,z
2 1/2-x,1/2+y,1/2-z
3 -x,-y,-z
4 1/2+x,1/2-y,1/2+z
_cell_length_a                   15.1850(20)
_cell_length_b                   7.5735(6)
_cell_length_c                   8.8187(12)
_cell_angle_alpha                90
_cell_angle_beta                 106.024(6)
_cell_angle_gamma                90
_cell_volume                     974.777
loop_
_atom_site_label
_atom_site_type_symbol
_atom_site_fract_x
_atom_site_fract_y
_atom_site_fract_z
C1 C 0.88971(11) 0.70342(21) 0.04609(17)
C2 C 0.86933(13) 0.51439(22) 0.09204(23)
C3 C 0.91374(15) 0.50146(24) 0.27368(23)
C4 C 0.95411(12) 0.68487(25) 0.32057(20)
C5 C 0.87857(12) 0.81391(25) 0.34269(20)
C6 C 0.89915(15) 1.00504(24) 0.31007(23)
C7 C 0.85826(13) 1.02018(21) 0.12873(21)
C8 C 0.81826(10) 0.83557(21) 0.08270(19)
C9 C 0.74030(12) 0.8276(3) -0.06789(22)
C10 C 0.78933(14) 0.8281(3) -0.19659(21)
C11 C 0.88250(13) 0.7362(3) -0.12705(19)
O1 O 0.79492(8) 0.77760(16) 0.22137(13)
C12 C 0.97715(11) 0.74204(22) 0.17186(18)
O2 O 1.04784(8) 0.80380(19) 0.15855(15)
H1 H 0.8041(16) 0.4963(23) 0.0670(24)
H2 H 0.9009(15) 0.434(3) 0.0366(25)
H3 H 0.9591(21) 0.418(4) 0.295(3)
H4 H 0.8713(16) 0.471(3) 0.330(3)
H5 H 1.0041(16) 0.677(3) 0.413(3)
H6 H 0.8635(15) 0.805(3) 0.442(3)
H7 H 0.8734(17) 1.073(3) 0.371(3)
H8 H 0.9684(15) 1.0234(24) 0.3462(23)
H9 H 0.9015(14) 1.045(3) 0.0698(23)
H10 H 0.8040(16) 1.101(3) 0.1078(24)
H11 H 0.7041(15) 0.928(3) -0.0713(24)
H12 H 0.7113(21) 0.723(4) -0.068(3)
H13 H 0.7980(20) 0.957(4) -0.229(3)
H14 H 0.7544(18) 0.776(3) -0.299(3)
H15 H 0.9341(13) 0.817(3) -0.1260(21)
H16 H 0.8811(15) 0.623(3) -0.185(3)
C1 C 0.61029(11) 0.20342(21) 0.45391(17)
C2 C 0.63067(13) 0.01439(22) 0.40796(23)
C3 C 0.58626(15) 0.00146(24) 0.22632(23)
C4 C 0.54589(12) 0.18487(25) 0.17943(20)
C5 C 0.62143(12) 0.31391(25) 0.15731(20)
C6 C 0.60085(15) 0.50504(24) 0.18993(23)
C7 C 0.64174(13) 0.52018(21) 0.37127(21)
C8 C 0.68174(10) 0.33557(21) 0.41730(19)
C9 C 0.75970(12) 0.3276(3) 0.56789(22)
C10 C 0.71067(14) 0.3281(3) 0.69659(21)
C11 C 0.61750(13) 0.2362(3) 0.62705(19)
O1 O 0.70508(8) 0.27760(16) 0.27863(13)
C12 C 0.52285(11) 0.24204(22) 0.32814(18)
O2 O 0.45216(8) 0.30380(19) 0.34145(15)
H1 H 0.6959(16) -0.0037(23) 0.4330(24)
H2 H 0.5991(15) -0.066(3) 0.4634(25)
H3 H 0.5409(21) -0.082(4) 0.205(3)
H4 H 0.6287(16) -0.029(3) 0.170(3)
H5 H 0.4959(16) 0.177(3) 0.087(3)
H6 H 0.6365(15) 0.305(3) 0.058(3)
H7 H 0.6266(17) 0.573(3) 0.129(3)
H8 H 0.5316(15) 0.5234(24) 0.1538(23)
H9 H 0.5985(14) 0.545(3) 0.4302(23)
H10 H 0.6960(16) 0.601(3) 0.3922(24)
H11 H 0.7959(15) 0.428(3) 0.5713(24)
H12 H 0.7887(21) 0.223(4) 0.568(3)
H13 H 0.7020(20) 0.457(4) 0.729(3)
H14 H 0.7456(18) 0.276(3) 0.799(3)
H15 H 0.5659(13) 0.317(3) 0.6260(21)
H16 H 0.6189(15) 0.123(3) 0.685(3)
C1 C 0.11029(11) 0.29658(21) 0.95391(17)
C2 C 0.13067(13) 0.48561(22) 0.90796(23)
C3 C 0.08626(15) 0.49854(24) 0.72632(23)
C4 C 0.04589(12) 0.31513(25) 0.67943(20)
C5 C 0.12143(12) 0.18609(25) 0.65731(20)
C6 C 0.10085(15) -0.00504(24) 0.68993(23)
C7 C 0.14174(13) -0.02018(21) 0.87127(21)
C8 C 0.18174(10) 0.16443(21) 0.91730(19)
C9 C 0.25970(12) 0.1724(3) 1.06789(22)
C10 C 0.21067(14) 0.1719(3) 1.19659(21)
C11 C 0.11750(13) 0.2638(3) 1.12705(19)
O1 O 0.20508(8) 0.22240(16) 0.77863(13)
C12 C 0.02285(11) 0.25796(22) 0.82814(18)
O2 O -0.04784(8) 0.19620(19) 0.84145(15)
H1 H 0.1959(16) 0.5037(23) 0.9330(24)
H2 H 0.0991(15) 0.566(3) 0.9634(25)
H3 H 0.0409(21) 0.582(4) 0.705(3)
H4 H 0.1287(16) 0.529(3) 0.670(3)
H5 H -0.0041(16) 0.323(3) 0.587(3)
H6 H 0.1365(15) 0.195(3) 0.558(3)
H7 H 0.1266(17) -0.073(3) 0.629(3)
H8 H 0.0316(15) -0.0234(24) 0.6538(23)
H9 H 0.0985(14) -0.045(3) 0.9302(23)
H10 H 0.1960(16) -0.101(3) 0.8922(24)
H11 H 0.2959(15) 0.072(3) 1.0713(24)
H12 H 0.2887(21) 0.277(4) 1.068(3)
H13 H 0.2020(20) 0.043(4) 1.229(3)
H14 H 0.2456(18) 0.224(3) 1.299(3)
H15 H 0.0659(13) 0.183(3) 1.1260(21)
H16 H 0.1189(15) 0.377(3) 1.185(3)
C1 C 0.38971(11) 0.79658(21) 0.54609(17)
C2 C 0.36933(13) 0.98561(22) 0.59204(23)
C3 C 0.41374(15) 0.99854(24) 0.77368(23)
C4 C 0.45411(12) 0.81513(25) 0.82057(20)
C5 C 0.37857(12) 0.68609(25) 0.84269(20)
C6 C 0.39915(15) 0.49496(24) 0.81007(23)
C7 C 0.35826(13) 0.47982(21) 0.62873(21)
C8 C 0.31826(10) 0.66443(21) 0.58270(19)
C9 C 0.24030(12) 0.6724(3) 0.43211(22)
C10 C 0.28933(14) 0.6719(3) 0.30341(21)
C11 C 0.38250(13) 0.7638(3) 0.37295(19)
O1 O 0.29492(8) 0.72240(16) 0.72137(13)
C12 C 0.47715(11) 0.75796(22) 0.67186(18)
O2 O 0.54784(8) 0.69620(19) 0.65855(15)
H1 H 0.3041(16) 1.0037(23) 0.5670(24)
H2 H 0.4009(15) 1.066(3) 0.5366(25)
H3 H 0.4591(21) 1.082(4) 0.795(3)
H4 H 0.3713(16) 1.029(3) 0.830(3)
H5 H 0.5041(16) 0.823(3) 0.913(3)
H6 H 0.3635(15) 0.695(3) 0.942(3)
H7 H 0.3734(17) 0.427(3) 0.871(3)
H8 H 0.4684(15) 0.4766(24) 0.8462(23)
H9 H 0.4015(14) 0.455(3) 0.5698(23)
H10 H 0.3040(16) 0.399(3) 0.6078(24)
H11 H 0.2041(15) 0.572(3) 0.4287(24)
H12 H 0.2113(21) 0.777(4) 0.432(3)
H13 H 0.2980(20) 0.543(4) 0.271(3)
H14 H 0.2544(18) 0.724(3) 0.201(3)
H15 H 0.4341(13) 0.683(3) 0.3740(21)
H16 H 0.3811(15) 0.877(3) 0.315(3)

#END
