
#######################################################################
#
#                 Cambridge Crystallographic Data Centre
#                                CCDC 
#
#######################################################################
#
# If this CIF has been generated from an entry in the Cambridge 
# Structural Database, then it will include bibliographic, chemical, 
# crystal, experimental, refinement or atomic coordinate data resulting 
# from the CCDC's data processing and validation procedures.
#
#######################################################################

data_LADVAN01
_symmetry_cell_setting           monoclinic
_symmetry_space_group_name_H-M   'C 2/c'
_symmetry_Int_Tables_number      15
_space_group_name_Hall           '-C 2yn'
loop_
_symmetry_equiv_pos_site_id
_symmetry_equiv_pos_as_xyz
1 x,y,z
2 1/2+x,1/2+y,z
3 -x,y,1/2-z
4 1/2-x,1/2+y,1/2-z
5 -x,-y,-z
6 1/2-x,1/2-y,-z
7 x,-y,1/2+z
8 1/2+x,1/2-y,1/2+z
_cell_length_a                   12.080(4)
_cell_length_b                   3.954(2)
_cell_length_c                   31.596(13)
_cell_angle_alpha                90
_cell_angle_beta                 92.05(2)
_cell_angle_gamma                90
_cell_volume                     1508.2
loop_
_atom_site_label
_atom_site_type_symbol
_atom_site_fract_x
_atom_site_fract_y
_atom_site_fract_z
S1 S 0.88986(5) 0.0467(2) 0.53942(2)
S2 S 0.65379(5) 0.0707(2) 0.55328(2)
N1 N 0.8502(2) -0.1103(5) 0.58531(6)
C1 C 0.7588(2) 0.1747(6) 0.51878(7)
C2 C 0.7463(2) -0.1015(6) 0.59218(7)
C3 C 0.7010(2) -0.2358(6) 0.63134(7)
C4 C 0.7736(2) -0.3726(6) 0.66215(7)
C5 C 0.7337(2) -0.4986(7) 0.69938(8)
C6 C 0.6223(2) -0.4928(7) 0.70631(8)
C7 C 0.5497(2) -0.3582(7) 0.67629(8)
C8 C 0.5886(2) -0.2288(7) 0.63899(8)
H1 H 0.853(2) -0.387(7) 0.6552(7)
H2 H 0.784(2) -0.594(7) 0.7191(8)
H3 H 0.594(2) -0.578(7) 0.7321(8)
H4 H 0.469(2) -0.350(7) 0.6817(8)
H5 H 0.540(2) -0.143(7) 0.6196(7)
C1E C 0.7412(2) 0.3253(6) 0.48122(7)
S1E S 0.61014(5) 0.4533(2) 0.46058(2)
S2E S 0.84621(5) 0.4293(2) 0.44672(2)
N1E N 0.6498(2) 0.6103(5) 0.41469(6)
C2E C 0.7537(2) 0.6015(6) 0.40782(7)
C3E C 0.7990(2) 0.7358(6) 0.36866(7)
C4E C 0.7264(2) 0.8726(6) 0.33785(7)
C8E C 0.9114(2) 0.7288(7) 0.36101(8)
C5E C 0.7663(2) 0.9986(7) 0.30062(8)
H1E H 0.647(2) 0.887(7) 0.3448(7)
C7E C 0.9503(2) 0.8582(7) 0.32371(8)
H5E H 0.960(2) 0.643(7) 0.3804(7)
C6E C 0.8777(2) 0.9928(7) 0.29369(8)
H2E H 0.716(2) 1.094(7) 0.2809(8)
H4E H 1.031(2) 0.850(7) 0.3183(8)
H3E H 0.906(2) 1.078(7) 0.2679(8)
S1 S 0.38986(5) 0.5467(2) 0.53942(2)
S2 S 0.15379(5) 0.5707(2) 0.55328(2)
N1 N 0.3502(2) 0.3897(5) 0.58531(6)
C1 C 0.2588(2) 0.6747(6) 0.51878(7)
C2 C 0.2463(2) 0.3985(6) 0.59218(7)
C3 C 0.2010(2) 0.2642(6) 0.63134(7)
C4 C 0.2736(2) 0.1274(6) 0.66215(7)
C5 C 0.2337(2) 0.0014(7) 0.69938(8)
C6 C 0.1223(2) 0.0072(7) 0.70631(8)
C7 C 0.0497(2) 0.1418(7) 0.67629(8)
C8 C 0.0886(2) 0.2712(7) 0.63899(8)
H1 H 0.353(2) 0.113(7) 0.6552(7)
H2 H 0.284(2) -0.094(7) 0.7191(8)
H3 H 0.094(2) -0.078(7) 0.7321(8)
H4 H -0.031(2) 0.150(7) 0.6817(8)
H5 H 0.040(2) 0.357(7) 0.6196(7)
C1E C 0.2412(2) 0.8253(6) 0.48122(7)
S1E S 0.11014(5) 0.9533(2) 0.46058(2)
S2E S 0.34621(5) 0.9293(2) 0.44672(2)
N1E N 0.1498(2) 1.1103(5) 0.41469(6)
C2E C 0.2537(2) 1.1015(6) 0.40782(7)
C3E C 0.2990(2) 1.2358(6) 0.36866(7)
C4E C 0.2264(2) 1.3726(6) 0.33785(7)
C8E C 0.4114(2) 1.2288(7) 0.36101(8)
C5E C 0.2663(2) 1.4986(7) 0.30062(8)
H1E H 0.147(2) 1.387(7) 0.3448(7)
C7E C 0.4503(2) 1.3582(7) 0.32371(8)
H5E H 0.460(2) 1.143(7) 0.3804(7)
C6E C 0.3777(2) 1.4928(7) 0.29369(8)
H2E H 0.216(2) 1.594(7) 0.2809(8)
H4E H 0.531(2) 1.350(7) 0.3183(8)
H3E H 0.406(2) 1.578(7) 0.2679(8)
S1 S 0.11014(5) 0.0467(2) -0.03942(2)
S2 S 0.34621(5) 0.0707(2) -0.05328(2)
N1 N 0.1498(2) -0.1103(5) -0.08531(6)
C1 C 0.2412(2) 0.1747(6) -0.01878(7)
C2 C 0.2537(2) -0.1015(6) -0.09218(7)
C3 C 0.2990(2) -0.2358(6) -0.13134(7)
C4 C 0.2264(2) -0.3726(6) -0.16215(7)
C5 C 0.2663(2) -0.4986(7) -0.19938(8)
C6 C 0.3777(2) -0.4928(7) -0.20631(8)
C7 C 0.4503(2) -0.3582(7) -0.17629(8)
C8 C 0.4114(2) -0.2288(7) -0.13899(8)
H1 H 0.147(2) -0.387(7) -0.1552(7)
H2 H 0.216(2) -0.594(7) -0.2191(8)
H3 H 0.406(2) -0.578(7) -0.2321(8)
H4 H 0.531(2) -0.350(7) -0.1817(8)
H5 H 0.460(2) -0.143(7) -0.1196(7)
C1E C 0.2588(2) 0.3253(6) 0.01878(7)
S1E S 0.38986(5) 0.4533(2) 0.03942(2)
S2E S 0.15379(5) 0.4293(2) 0.05328(2)
N1E N 0.3502(2) 0.6103(5) 0.08531(6)
C2E C 0.2463(2) 0.6015(6) 0.09218(7)
C3E C 0.2010(2) 0.7358(6) 0.13134(7)
C4E C 0.2736(2) 0.8726(6) 0.16215(7)
C8E C 0.0886(2) 0.7288(7) 0.13899(8)
C5E C 0.2337(2) 0.9986(7) 0.19938(8)
H1E H 0.353(2) 0.887(7) 0.1552(7)
C7E C 0.0497(2) 0.8582(7) 0.17629(8)
H5E H 0.040(2) 0.643(7) 0.1196(7)
C6E C 0.1223(2) 0.9928(7) 0.20631(8)
H2E H 0.284(2) 1.094(7) 0.2191(8)
H4E H -0.031(2) 0.850(7) 0.1817(8)
H3E H 0.094(2) 1.078(7) 0.2321(8)
S1 S 0.11014(5) 0.0467(2) 0.96058(2)
S2 S 0.34621(5) 0.0707(2) 0.94672(2)
N1 N 0.1498(2) -0.1103(5) 0.91469(6)
C1 C 0.2412(2) 0.1747(6) 0.98122(7)
C2 C 0.2537(2) -0.1015(6) 0.90782(7)
C3 C 0.2990(2) -0.2358(6) 0.86866(7)
C4 C 0.2264(2) -0.3726(6) 0.83785(7)
C5 C 0.2663(2) -0.4986(7) 0.80062(8)
C6 C 0.3777(2) -0.4928(7) 0.79369(8)
C7 C 0.4503(2) -0.3582(7) 0.82371(8)
C8 C 0.4114(2) -0.2288(7) 0.86101(8)
H1 H 0.147(2) -0.387(7) 0.8448(7)
H2 H 0.216(2) -0.594(7) 0.7809(8)
H3 H 0.406(2) -0.578(7) 0.7679(8)
H4 H 0.531(2) -0.350(7) 0.8183(8)
H5 H 0.460(2) -0.143(7) 0.8804(7)
C1E C 0.2588(2) 0.3253(6) 1.01878(7)
S1E S 0.38986(5) 0.4533(2) 1.03942(2)
S2E S 0.15379(5) 0.4293(2) 1.05328(2)
N1E N 0.3502(2) 0.6103(5) 1.08531(6)
C2E C 0.2463(2) 0.6015(6) 1.09218(7)
C3E C 0.2010(2) 0.7358(6) 1.13134(7)
C4E C 0.2736(2) 0.8726(6) 1.16215(7)
C8E C 0.0886(2) 0.7288(7) 1.13899(8)
C5E C 0.2337(2) 0.9986(7) 1.19938(8)
H1E H 0.353(2) 0.887(7) 1.1552(7)
C7E C 0.0497(2) 0.8582(7) 1.17629(8)
H5E H 0.040(2) 0.643(7) 1.1196(7)
C6E C 0.1223(2) 0.9928(7) 1.20631(8)
H2E H 0.284(2) 1.094(7) 1.2191(8)
H4E H -0.031(2) 0.850(7) 1.1817(8)
H3E H 0.094(2) 1.078(7) 1.2321(8)
S1 S 0.61014(5) 0.5467(2) -0.03942(2)
S2 S 0.84621(5) 0.5707(2) -0.05328(2)
N1 N 0.6498(2) 0.3897(5) -0.08531(6)
C1 C 0.7412(2) 0.6747(6) -0.01878(7)
C2 C 0.7537(2) 0.3985(6) -0.09218(7)
C3 C 0.7990(2) 0.2642(6) -0.13134(7)
C4 C 0.7264(2) 0.1274(6) -0.16215(7)
C5 C 0.7663(2) 0.0014(7) -0.19938(8)
C6 C 0.8777(2) 0.0072(7) -0.20631(8)
C7 C 0.9503(2) 0.1418(7) -0.17629(8)
C8 C 0.9114(2) 0.2712(7) -0.13899(8)
H1 H 0.647(2) 0.113(7) -0.1552(7)
H2 H 0.716(2) -0.094(7) -0.2191(8)
H3 H 0.906(2) -0.078(7) -0.2321(8)
H4 H 1.031(2) 0.150(7) -0.1817(8)
H5 H 0.960(2) 0.357(7) -0.1196(7)
C1E C 0.7588(2) 0.8253(6) 0.01878(7)
S1E S 0.88986(5) 0.9533(2) 0.03942(2)
S2E S 0.65379(5) 0.9293(2) 0.05328(2)
N1E N 0.8502(2) 1.1103(5) 0.08531(6)
C2E C 0.7463(2) 1.1015(6) 0.09218(7)
C3E C 0.7010(2) 1.2358(6) 0.13134(7)
C4E C 0.7736(2) 1.3726(6) 0.16215(7)
C8E C 0.5886(2) 1.2288(7) 0.13899(8)
C5E C 0.7337(2) 1.4986(7) 0.19938(8)
H1E H 0.853(2) 1.387(7) 0.1552(7)
C7E C 0.5497(2) 1.3582(7) 0.17629(8)
H5E H 0.540(2) 1.143(7) 0.1196(7)
C6E C 0.6223(2) 1.4928(7) 0.20631(8)
H2E H 0.784(2) 1.594(7) 0.2191(8)
H4E H 0.469(2) 1.350(7) 0.1817(8)
H3E H 0.594(2) 1.578(7) 0.2321(8)
S1 S 0.61014(5) 0.5467(2) 0.96058(2)
S2 S 0.84621(5) 0.5707(2) 0.94672(2)
N1 N 0.6498(2) 0.3897(5) 0.91469(6)
C1 C 0.7412(2) 0.6747(6) 0.98122(7)
C2 C 0.7537(2) 0.3985(6) 0.90782(7)
C3 C 0.7990(2) 0.2642(6) 0.86866(7)
C4 C 0.7264(2) 0.1274(6) 0.83785(7)
C5 C 0.7663(2) 0.0014(7) 0.80062(8)
C6 C 0.8777(2) 0.0072(7) 0.79369(8)
C7 C 0.9503(2) 0.1418(7) 0.82371(8)
C8 C 0.9114(2) 0.2712(7) 0.86101(8)
H1 H 0.647(2) 0.113(7) 0.8448(7)
H2 H 0.716(2) -0.094(7) 0.7809(8)
H3 H 0.906(2) -0.078(7) 0.7679(8)
H4 H 1.031(2) 0.150(7) 0.8183(8)
H5 H 0.960(2) 0.357(7) 0.8804(7)
C1E C 0.7588(2) 0.8253(6) 1.01878(7)
S1E S 0.88986(5) 0.9533(2) 1.03942(2)
S2E S 0.65379(5) 0.9293(2) 1.05328(2)
N1E N 0.8502(2) 1.1103(5) 1.08531(6)
C2E C 0.7463(2) 1.1015(6) 1.09218(7)
C3E C 0.7010(2) 1.2358(6) 1.13134(7)
C4E C 0.7736(2) 1.3726(6) 1.16215(7)
C8E C 0.5886(2) 1.2288(7) 1.13899(8)
C5E C 0.7337(2) 1.4986(7) 1.19938(8)
H1E H 0.853(2) 1.387(7) 1.1552(7)
C7E C 0.5497(2) 1.3582(7) 1.17629(8)
H5E H 0.540(2) 1.143(7) 1.1196(7)
C6E C 0.6223(2) 1.4928(7) 1.20631(8)
H2E H 0.784(2) 1.594(7) 1.2191(8)
H4E H 0.469(2) 1.350(7) 1.1817(8)
H3E H 0.594(2) 1.578(7) 1.2321(8)

#END
