
#######################################################################
#
#                 Cambridge Crystallographic Data Centre
#                                CCDC 
#
#######################################################################
#
# If this CIF has been generated from an entry in the Cambridge 
# Structural Database, then it will include bibliographic, chemical, 
# crystal, experimental, refinement or atomic coordinate data resulting 
# from the CCDC's data processing and validation procedures.
#
#######################################################################

data_LADXUK
_symmetry_cell_setting           monoclinic
_symmetry_space_group_name_H-M   'P 21/c'
_symmetry_Int_Tables_number      14
_space_group_name_Hall           '-P 2ybc'
loop_
_symmetry_equiv_pos_site_id
_symmetry_equiv_pos_as_xyz
1 x,y,z
2 x,1/2-y,1/2+z
3 -x,-y,-z
4 -x,1/2+y,1/2-z
_cell_length_a                   11.4503(8)
_cell_length_b                   16.0633(10)
_cell_length_c                   12.0656(8)
_cell_angle_alpha                90
_cell_angle_beta                 112.112(8)
_cell_angle_gamma                90
_cell_volume                     2056
loop_
_atom_site_label
_atom_site_type_symbol
_atom_site_fract_x
_atom_site_fract_y
_atom_site_fract_z
Mn1 Mn 0.84981(3) -0.044620(17) 0.15366(2)
N1 N 0.97551(16) 0.06618(11) 0.24524(16)
N2 N 0.72347(16) 0.01841(12) 0.24160(15)
C1 C 0.76210(18) -0.00121(12) -0.02481(17)
C2 C 0.71544(17) 0.02976(11) -0.12422(16)
C3 C 0.66565(17) 0.06639(11) -0.23565(16)
C4 C 0.62422(18) 0.09934(12) -0.33260(17)
C5 C 0.58339(17) 0.14126(12) -0.44630(16)
C6 C 0.47871(18) 0.11377(13) -0.54394(17)
H1 H 0.4322 0.0669 -0.5354
C7 C 0.4424(2) 0.15448(14) -0.65295(18)
H2 H 0.3718 0.1351 -0.7191
C8 C 0.5088(2) 0.22315(14) -0.66563(19)
H3 H 0.4834 0.2512 -0.7403
C9 C 0.6121(2) 0.25105(15) -0.5696(2)
H4 H 0.6575 0.2984 -0.5783
C10 C 0.6496(2) 0.21027(14) -0.46100(19)
H5 H 0.7212 0.2295 -0.3957
C11 C 0.8989(4) 0.1142(3) 0.2935(6)
H6 H 0.9499 0.1202 0.3799
H7 H 0.8932 0.1705 0.2585
C12 C 0.7878(4) 0.0967(2) 0.2866(5)
H8 H 0.7324 0.1411 0.2373
H9 H 0.7884 0.1034 0.3683
C13 C 1.0966(3) 0.0477(2) 0.3400(3)
H10 H 1.1381 0.0998 0.3761
H11 H 1.1500 0.0175 0.3063
H12 H 1.0832 0.0133 0.4012
C14 C 1.0025(3) 0.1143(2) 0.1556(3)
H13 H 0.9231 0.1307 0.0918
H14 H 1.0521 0.0804 0.1218
H15 H 1.0503 0.1642 0.1928
C15 C 0.7042(4) -0.0269(3) 0.3378(3)
H16 H 0.7861 -0.0431 0.3979
H17 H 0.6539 -0.0769 0.3053
H18 H 0.6598 0.0088 0.3750
C16 C 0.5993(3) 0.0359(3) 0.1502(3)
H19 H 0.5486 0.0668 0.1861
H20 H 0.5570 -0.0166 0.1170
H21 H 0.6089 0.0692 0.0862
C17 C 0.8344(2) -0.19937(13) 0.1016(2)
C18 C 0.9593(3) -0.17602(16) 0.1217(3)
H22 H 0.9976 -0.1777 0.0642
C19 C 1.0176(2) -0.14985(16) 0.2412(3)
H23 H 1.1020 -0.1307 0.2780
C20 C 0.9317(2) -0.15673(14) 0.2960(2)
H24 H 0.9465 -0.1437 0.3770
C21 C 0.8178(2) -0.18676(13) 0.20974(19)
H25 H 0.7423 -0.1968 0.2228
C22 C 0.7379(4) -0.22797(18) -0.0146(2)
H26 H 0.7327 -0.2889 -0.0149
H27 H 0.7619 -0.2095 -0.0804
H28 H 0.6557 -0.2043 -0.0245
Mn1 Mn 0.84981(3) 0.544620(17) 0.65366(2)
N1 N 0.97551(16) 0.43382(11) 0.74524(16)
N2 N 0.72347(16) 0.48159(12) 0.74160(15)
C1 C 0.76210(18) 0.50121(12) 0.47519(17)
C2 C 0.71544(17) 0.47024(11) 0.37578(16)
C3 C 0.66565(17) 0.43361(11) 0.26435(16)
C4 C 0.62422(18) 0.40066(12) 0.16740(17)
C5 C 0.58339(17) 0.35874(12) 0.05370(16)
C6 C 0.47871(18) 0.38623(13) -0.04394(17)
H1 H 0.4322 0.4331 -0.0354
C7 C 0.4424(2) 0.34552(14) -0.15295(18)
H2 H 0.3718 0.3649 -0.2191
C8 C 0.5088(2) 0.27685(14) -0.16563(19)
H3 H 0.4834 0.2488 -0.2403
C9 C 0.6121(2) 0.24895(15) -0.0696(2)
H4 H 0.6575 0.2016 -0.0783
C10 C 0.6496(2) 0.28973(14) 0.03900(19)
H5 H 0.7212 0.2705 0.1043
C11 C 0.8989(4) 0.3858(3) 0.7935(6)
H6 H 0.9499 0.3798 0.8799
H7 H 0.8932 0.3295 0.7585
C12 C 0.7878(4) 0.4033(2) 0.7866(5)
H8 H 0.7324 0.3589 0.7373
H9 H 0.7884 0.3966 0.8683
C13 C 1.0966(3) 0.4523(2) 0.8400(3)
H10 H 1.1381 0.4002 0.8761
H11 H 1.1500 0.4825 0.8063
H12 H 1.0832 0.4867 0.9012
C14 C 1.0025(3) 0.3857(2) 0.6556(3)
H13 H 0.9231 0.3693 0.5918
H14 H 1.0521 0.4196 0.6218
H15 H 1.0503 0.3358 0.6928
C15 C 0.7042(4) 0.5269(3) 0.8378(3)
H16 H 0.7861 0.5431 0.8979
H17 H 0.6539 0.5769 0.8053
H18 H 0.6598 0.4912 0.8750
C16 C 0.5993(3) 0.4641(3) 0.6502(3)
H19 H 0.5486 0.4332 0.6861
H20 H 0.5570 0.5166 0.6170
H21 H 0.6089 0.4308 0.5862
C17 C 0.8344(2) 0.69937(13) 0.6016(2)
C18 C 0.9593(3) 0.67602(16) 0.6217(3)
H22 H 0.9976 0.6777 0.5642
C19 C 1.0176(2) 0.64985(16) 0.7412(3)
H23 H 1.1020 0.6307 0.7780
C20 C 0.9317(2) 0.65673(14) 0.7960(2)
H24 H 0.9465 0.6437 0.8770
C21 C 0.8178(2) 0.68676(13) 0.70974(19)
H25 H 0.7423 0.6968 0.7228
C22 C 0.7379(4) 0.72797(18) 0.4854(2)
H26 H 0.7327 0.7889 0.4851
H27 H 0.7619 0.7095 0.4196
H28 H 0.6557 0.7043 0.4755
Mn1 Mn 0.15019(3) 1.044620(17) 0.84634(2)
N1 N 0.02449(16) 0.93382(11) 0.75476(16)
N2 N 0.27653(16) 0.98159(12) 0.75840(15)
C1 C 0.23790(18) 1.00121(12) 1.02481(17)
C2 C 0.28456(17) 0.97024(11) 1.12422(16)
C3 C 0.33435(17) 0.93361(11) 1.23565(16)
C4 C 0.37578(18) 0.90066(12) 1.33260(17)
C5 C 0.41661(17) 0.85874(12) 1.44630(16)
C6 C 0.52129(18) 0.88623(13) 1.54394(17)
H1 H 0.5678 0.9331 1.5354
C7 C 0.5576(2) 0.84552(14) 1.65295(18)
H2 H 0.6282 0.8649 1.7191
C8 C 0.4912(2) 0.77685(14) 1.66563(19)
H3 H 0.5166 0.7488 1.7403
C9 C 0.3879(2) 0.74895(15) 1.5696(2)
H4 H 0.3425 0.7016 1.5783
C10 C 0.3504(2) 0.78973(14) 1.46100(19)
H5 H 0.2788 0.7705 1.3957
C11 C 0.1011(4) 0.8858(3) 0.7065(6)
H6 H 0.0501 0.8798 0.6201
H7 H 0.1068 0.8295 0.7415
C12 C 0.2122(4) 0.9033(2) 0.7134(5)
H8 H 0.2676 0.8589 0.7627
H9 H 0.2116 0.8966 0.6317
C13 C -0.0966(3) 0.9523(2) 0.6600(3)
H10 H -0.1381 0.9002 0.6239
H11 H -0.1500 0.9825 0.6937
H12 H -0.0832 0.9867 0.5988
C14 C -0.0025(3) 0.8857(2) 0.8444(3)
H13 H 0.0769 0.8693 0.9082
H14 H -0.0521 0.9196 0.8782
H15 H -0.0503 0.8358 0.8072
C15 C 0.2958(4) 1.0269(3) 0.6622(3)
H16 H 0.2139 1.0431 0.6021
H17 H 0.3461 1.0769 0.6947
H18 H 0.3402 0.9912 0.6250
C16 C 0.4007(3) 0.9641(3) 0.8498(3)
H19 H 0.4514 0.9332 0.8139
H20 H 0.4430 1.0166 0.8830
H21 H 0.3911 0.9308 0.9138
C17 C 0.1656(2) 1.19937(13) 0.8984(2)
C18 C 0.0407(3) 1.17602(16) 0.8783(3)
H22 H 0.0024 1.1777 0.9358
C19 C -0.0176(2) 1.14985(16) 0.7588(3)
H23 H -0.1020 1.1307 0.7220
C20 C 0.0683(2) 1.15673(14) 0.7040(2)
H24 H 0.0535 1.1437 0.6230
C21 C 0.1822(2) 1.18676(13) 0.79026(19)
H25 H 0.2577 1.1968 0.7772
C22 C 0.2621(4) 1.22797(18) 1.0146(2)
H26 H 0.2673 1.2889 1.0149
H27 H 0.2381 1.2095 1.0804
H28 H 0.3443 1.2043 1.0245
Mn1 Mn 0.15019(3) 0.455380(17) 0.34634(2)
N1 N 0.02449(16) 0.56618(11) 0.25476(16)
N2 N 0.27653(16) 0.51841(12) 0.25840(15)
C1 C 0.23790(18) 0.49879(12) 0.52481(17)
C2 C 0.28456(17) 0.52976(11) 0.62422(16)
C3 C 0.33435(17) 0.56639(11) 0.73565(16)
C4 C 0.37578(18) 0.59934(12) 0.83260(17)
C5 C 0.41661(17) 0.64126(12) 0.94630(16)
C6 C 0.52129(18) 0.61377(13) 1.04394(17)
H1 H 0.5678 0.5669 1.0354
C7 C 0.5576(2) 0.65448(14) 1.15295(18)
H2 H 0.6282 0.6351 1.2191
C8 C 0.4912(2) 0.72315(14) 1.16563(19)
H3 H 0.5166 0.7512 1.2403
C9 C 0.3879(2) 0.75105(15) 1.0696(2)
H4 H 0.3425 0.7984 1.0783
C10 C 0.3504(2) 0.71027(14) 0.96100(19)
H5 H 0.2788 0.7295 0.8957
C11 C 0.1011(4) 0.6142(3) 0.2065(6)
H6 H 0.0501 0.6202 0.1201
H7 H 0.1068 0.6705 0.2415
C12 C 0.2122(4) 0.5967(2) 0.2134(5)
H8 H 0.2676 0.6411 0.2627
H9 H 0.2116 0.6034 0.1317
C13 C -0.0966(3) 0.5477(2) 0.1600(3)
H10 H -0.1381 0.5998 0.1239
H11 H -0.1500 0.5175 0.1937
H12 H -0.0832 0.5133 0.0988
C14 C -0.0025(3) 0.6143(2) 0.3444(3)
H13 H 0.0769 0.6307 0.4082
H14 H -0.0521 0.5804 0.3782
H15 H -0.0503 0.6642 0.3072
C15 C 0.2958(4) 0.4731(3) 0.1622(3)
H16 H 0.2139 0.4569 0.1021
H17 H 0.3461 0.4231 0.1947
H18 H 0.3402 0.5088 0.1250
C16 C 0.4007(3) 0.5359(3) 0.3498(3)
H19 H 0.4514 0.5668 0.3139
H20 H 0.4430 0.4834 0.3830
H21 H 0.3911 0.5692 0.4138
C17 C 0.1656(2) 0.30063(13) 0.3984(2)
C18 C 0.0407(3) 0.32398(16) 0.3783(3)
H22 H 0.0024 0.3223 0.4358
C19 C -0.0176(2) 0.35015(16) 0.2588(3)
H23 H -0.1020 0.3693 0.2220
C20 C 0.0683(2) 0.34327(14) 0.2040(2)
H24 H 0.0535 0.3563 0.1230
C21 C 0.1822(2) 0.31324(13) 0.29026(19)
H25 H 0.2577 0.3032 0.2772
C22 C 0.2621(4) 0.27203(18) 0.5146(2)
H26 H 0.2673 0.2111 0.5149
H27 H 0.2381 0.2905 0.5804
H28 H 0.3443 0.2957 0.5245

#END
