./LADXUK_from_POSCAR.cif_generated_by_CrystalShift
_symmetry_cell_setting triclinic
_symmetry_space_group_name_H-M 'P 1'
loop_
_symmetry_equiv_pos_site_id
_symmetry_equiv_pos_as_xyz
1 x,y,z
_cell_length_a 11.450300
_cell_length_b 16.063300
_cell_length_c 12.065600
_cell_angle_alpha 90.000000
_cell_angle_beta 112.112000
_cell_angle_gamma 90.000000
_cell_volume 2055.996911
loop_
_atom_site_label
_atom_site_type_symbol
_atom_site_fract_x
_atom_site_fract_y
_atom_site_fract_z
H1 H 0.344300 0.295700 0.524500
H2 H 0.267300 0.211100 0.514900
H3 H 0.257700 0.303200 0.277200
H4 H 0.053500 0.356300 0.123000
H5 H -0.102000 0.369300 0.222000
H6 H 0.002400 0.322300 0.435800
H7 H 0.391100 0.569200 0.413800
H8 H 0.443000 0.483400 0.383000
H9 H 0.451400 0.566800 0.313900
H10 H 0.432200 0.066900 -0.535400
H11 H 0.340200 0.508800 0.125000
H12 H 0.371800 0.135100 -0.719100
H13 H 0.346100 0.423100 0.194700
H14 H 0.483400 0.251200 -0.740300
H15 H 0.213900 0.456900 0.102100
H16 H 0.657500 0.298400 -0.578300
H17 H -0.050300 0.664200 0.307200
H18 H 0.721200 0.229500 -0.395700
H19 H -0.052100 0.580400 0.378200
H20 H 0.949900 0.120200 0.379900
H21 H 0.893200 0.170500 0.258500
H22 H 0.076900 0.630700 0.408200
H23 H 0.732400 0.141100 0.237300
H24 H 0.788400 0.103400 0.368300
H25 H -0.083200 0.513300 0.098800
H26 H 1.138100 0.099800 0.376100
H27 H 1.150000 0.017500 0.306300
H28 H 1.083200 0.013300 0.401200
H29 H -0.150000 0.517500 0.193700
H30 H 0.923100 0.130700 0.091800
H31 H 1.052100 0.080400 0.121800
H32 H 1.050300 0.164200 0.192800
H33 H -0.138100 0.599800 0.123900
H34 H 0.786100 -0.043100 0.397900
H35 H 0.653900 -0.076900 0.305300
H36 H 0.659800 0.008800 0.375000
H37 H 0.211600 0.603400 0.131700
H38 H 0.548600 0.066800 0.186100
H39 H 0.557000 -0.016600 0.117000
H40 H 0.608900 0.069200 0.086200
H41 H 0.267600 0.641100 0.262700
H42 H 0.106800 0.670500 0.241500
H43 H 0.997600 -0.177700 0.064200
H44 H 0.050100 0.620200 0.120100
H45 H 1.102000 -0.130700 0.278000
H46 H 0.278800 0.729500 0.895700
H47 H 0.946500 -0.143700 0.377000
H48 H 0.342500 0.798400 1.078300
H49 H 0.742300 -0.196800 0.222800
H50 H 0.516600 0.751200 1.240300
H51 H 0.732700 -0.288900 -0.014900
H52 H 0.761900 -0.209500 -0.080400
H53 H 0.655700 -0.204300 -0.024500
H54 H 0.628200 0.635100 1.219100
H55 H 0.567800 0.566900 1.035400
H56 H 0.344300 1.204300 1.024500
H57 H 0.238100 1.209500 1.080400
H58 H 0.267300 1.288900 1.014900
H59 H 0.257700 1.196800 0.777200
H60 H 0.053500 1.143700 0.623000
H61 H -0.102000 1.130700 0.722000
H62 H 0.002400 1.177700 0.935800
H63 H 0.432200 0.433100 -0.035400
H64 H 0.391100 0.930800 0.913800
H65 H 0.371800 0.364900 -0.219100
H66 H 0.443000 1.016600 0.883000
H67 H 0.483400 0.248800 -0.240300
H68 H 0.451400 0.933200 0.813900
H69 H 0.657500 0.201600 -0.078300
H70 H 0.340200 0.991200 0.625000
H71 H 0.721200 0.270500 0.104300
H72 H 0.346100 1.076900 0.694700
H73 H 0.949900 0.379800 0.879900
H74 H 0.893200 0.329500 0.758500
H75 H 0.213900 1.043100 0.602100
H76 H 0.732400 0.358900 0.737300
H77 H 0.788400 0.396600 0.868300
H78 H -0.050300 0.835800 0.807200
H79 H 1.138100 0.400200 0.876100
H80 H 1.150000 0.482500 0.806300
H81 H 1.083200 0.486700 0.901200
H82 H -0.052100 0.919600 0.878200
H83 H 0.923100 0.369300 0.591800
H84 H 1.052100 0.419600 0.621800
H85 H 1.050300 0.335800 0.692800
H86 H 0.076900 0.869300 0.908200
H87 H 0.786100 0.543100 0.897900
H88 H 0.653900 0.576900 0.805300
H89 H 0.659800 0.491200 0.875000
H90 H -0.083200 0.986700 0.598800
H91 H 0.548600 0.433200 0.686100
H92 H 0.557000 0.516600 0.617000
H93 H 0.608900 0.430800 0.586200
H94 H -0.150000 0.982500 0.693700
H95 H -0.138100 0.900200 0.623900
H96 H 0.997600 0.677700 0.564200
H97 H 0.211600 0.896600 0.631700
H98 H 1.102000 0.630700 0.778000
H99 H 0.267600 0.858900 0.762700
H100 H 0.946500 0.643700 0.877000
H101 H 0.106800 0.829500 0.741500
H102 H 0.742300 0.696800 0.722800
H103 H 0.050100 0.879800 0.620100
H104 H 0.732700 0.788900 0.485100
H105 H 0.761900 0.709500 0.419600
H106 H 0.655700 0.704300 0.475500
H107 H 0.278800 0.770500 1.395700
H108 H 0.342500 0.701600 1.578300
H109 H 0.516600 0.748800 1.740300
H110 H 0.628200 0.864900 1.719100
H111 H 0.567800 0.933100 1.535400
H112 H 0.238100 0.290500 0.580400
C113 C 0.375780 0.900660 1.332600
C114 C 0.416610 0.858740 1.446300
C115 C 0.521290 0.886230 1.543940
C116 C 0.284560 0.970240 1.124220
C117 C 0.557600 0.845520 1.652950
C118 C 0.237900 1.001210 1.024810
C119 C 0.491200 0.776850 1.665630
C120 C 0.262100 0.272030 0.514600
C121 C 0.387900 0.748950 1.569600
C122 C 0.182200 0.313240 0.290260
C123 C 0.350400 0.789730 1.461000
C124 C 0.762100 -0.001210 -0.024810
C125 C 0.101100 0.885800 0.706500
C126 C 0.737900 0.727970 0.485400
C127 C 0.817800 0.686760 0.709740
C128 C 0.212200 0.903300 0.713400
C129 C 0.931700 0.656730 0.796000
C130 C 1.017600 0.649850 0.741200
C131 C -0.096600 0.952300 0.660000
C132 C 0.959300 0.676020 0.621700
C133 C 0.834400 0.699370 0.601600
C134 C 0.599300 0.464100 0.650200
C135 C -0.002500 0.885700 0.844400
C136 C 0.704200 0.526900 0.837800
C137 C 1.002500 0.385700 0.655600
C138 C 1.096600 0.452300 0.840000
C139 C 0.295800 1.026900 0.662200
C140 C 0.787800 0.403300 0.786600
C141 C 0.898900 0.385800 0.793500
C142 C 0.649600 0.289730 0.039000
C143 C 0.400700 0.964100 0.849800
C144 C 0.612100 0.248950 -0.069600
C145 C 0.508800 0.276850 -0.165630
C146 C 0.442400 0.345520 -0.152950
C147 C 0.165600 1.199370 0.898400
C148 C 0.040700 1.176020 0.878300
C149 C 0.478710 0.386230 -0.043940
C150 C -0.017600 1.149850 0.758800
C151 C 0.583390 0.358740 0.053700
C152 C 0.068300 1.156730 0.704000
C153 C 0.624220 0.400660 0.167400
C154 C 0.182200 1.186760 0.790260
C155 C 0.665650 0.433610 0.264350
C156 C 0.262100 1.227970 1.014600
C157 C 0.715440 0.470240 0.375780
C158 C 0.762100 0.501210 0.475190
C159 C 0.068300 0.343270 0.204000
C160 C 0.715440 0.029760 -0.124220
C161 C -0.017600 0.350150 0.258800
C162 C 0.334350 0.933610 1.235650
C163 C 0.237900 0.498790 0.524810
C164 C 0.284560 0.529760 0.624220
C165 C 0.334350 0.566390 0.735650
C166 C 0.375780 0.599340 0.832600
C167 C 0.416610 0.641260 0.946300
C168 C 0.521290 0.613770 1.043940
C169 C 0.665650 0.066390 -0.235650
C170 C 0.557600 0.654480 1.152950
C171 C 0.040700 0.323980 0.378300
C172 C 0.491200 0.723150 1.165630
C173 C 0.737900 -0.227970 -0.014600
C174 C 0.387900 0.751050 1.069600
C175 C 0.817800 -0.186760 0.209740
C176 C 0.350400 0.710270 0.961000
C177 C 0.931700 -0.156730 0.296000
C178 C 0.101100 0.614200 0.206500
C179 C 1.017600 -0.149850 0.241200
C180 C 0.959300 -0.176020 0.121700
C181 C 0.212200 0.596700 0.213400
C182 C 0.834400 -0.199370 0.101600
C183 C 0.599300 0.035900 0.150200
C184 C -0.096600 0.547700 0.160000
C185 C 0.704200 -0.026900 0.337800
C186 C 1.002500 0.114300 0.155600
C187 C 1.096600 0.047700 0.340000
C188 C -0.002500 0.614300 0.344400
C189 C 0.787800 0.096700 0.286600
C190 C 0.898900 0.114200 0.293500
C191 C 0.649600 0.210270 -0.461000
C192 C 0.295800 0.473100 0.162200
C193 C 0.612100 0.251050 -0.569600
C194 C 0.508800 0.223150 -0.665630
C195 C 0.442400 0.154480 -0.652950
C196 C 0.400700 0.535900 0.349800
C197 C 0.478710 0.113770 -0.543940
C198 C 0.583390 0.141260 -0.446300
C199 C 0.624220 0.099340 -0.332600
C200 C 0.165600 0.300630 0.398400
N201 N 0.276530 0.518410 0.258400
N202 N 0.975510 0.433820 0.745240
N203 N 0.024490 0.566180 0.254760
N204 N 0.276530 0.981590 0.758400
N205 N 0.723470 0.481590 0.741600
N206 N 0.975510 0.066180 0.245240
N207 N 0.024490 0.933820 0.754760
N208 N 0.723470 0.018410 0.241600
Mn209 Mn 0.150190 1.044620 0.846340
Mn210 Mn 0.150190 0.455380 0.346340
Mn211 Mn 0.849810 0.544620 0.653660
Mn212 Mn 0.849810 -0.044620 0.153660

#END
