./LAFCAW01_from_POSCAR.cif_generated_by_CrystalShift
_symmetry_cell_setting triclinic
_symmetry_space_group_name_H-M 'P 1'
loop_
_symmetry_equiv_pos_site_id
_symmetry_equiv_pos_as_xyz
1 x,y,z
_cell_length_a 13.801000
_cell_length_b 8.066000
_cell_length_c 14.094000
_cell_angle_alpha 90.000000
_cell_angle_beta 116.010000
_cell_angle_gamma 90.000000
_cell_volume 1410.023173
loop_
_atom_site_label
_atom_site_type_symbol
_atom_site_fract_x
_atom_site_fract_y
_atom_site_fract_z
H1 H 0.811900 0.772300 0.251600
H2 H 0.887800 0.608000 0.302200
H3 H 0.991700 0.497200 0.221100
H4 H 1.019800 0.498600 0.072700
H5 H 0.964500 0.702000 -0.040300
H6 H 0.112200 0.108000 0.697800
H7 H 0.008300 -0.002800 0.778900
H8 H -0.019800 -0.001400 0.927300
H9 H 0.035500 0.202000 1.040300
H10 H 0.154500 0.385600 1.036200
H11 H 0.208100 0.390500 0.905300
H12 H 0.677100 0.869500 0.357200
H13 H 0.721800 0.539500 0.283200
H14 H 0.578200 1.200400 0.184700
H15 H 0.376300 0.989400 -0.166500
H16 H 1.286100 0.562200 0.715000
H17 H 0.978000 0.673600 0.535900
H18 H 1.018300 0.499200 0.583100
H19 H 0.994100 0.558400 0.727800
H20 H 0.970400 0.743000 0.694800
H21 H 0.743800 0.389800 0.556300
H22 H 0.855700 0.345900 0.646500
H23 H 0.844700 0.386700 0.534700
H24 H 0.812000 0.614100 0.665500
H25 H 0.524400 0.705700 0.488000
H26 H 0.626500 0.775800 0.581200
H27 H 0.614200 0.586200 0.561100
H28 H 0.210400 0.826900 0.163700
H29 H 0.305000 0.875800 0.270700
H30 H 0.758800 0.199900 0.971600
H31 H 0.670700 0.074700 0.902400
H32 H 0.555100 0.176200 0.969400
H33 H 0.660900 0.114400 1.061700
H34 H 0.722600 0.381000 1.099700
H35 H 0.619700 0.600700 1.002700
H36 H 0.527800 0.480800 0.933500
H37 H 0.726000 0.506100 0.929100
H38 H 0.603700 0.721800 0.843300
H39 H 0.649400 0.633900 0.773700
H40 H 0.473200 0.667200 0.669100
H41 H 0.517000 0.409900 0.636700
H42 H 0.480500 0.281400 0.799800
H43 H 0.523000 0.024500 0.763100
H44 H 0.546800 0.095700 0.673200
H45 H 0.383100 -0.031100 0.596200
H46 H 0.342700 0.531100 0.479100
H47 H 0.280600 0.593200 0.541200
H48 H 0.191200 0.408600 0.367800
H49 H 0.136900 0.442900 0.441700
H50 H 0.187300 0.202900 0.523600
H51 H 0.717300 0.190500 0.760900
H52 H 0.695000 0.375800 0.729300
H53 H 0.789600 0.326900 0.836300
H54 H 0.385800 0.086200 0.438900
H55 H 0.373500 0.275800 0.418800
H56 H 0.475600 0.205700 0.512000
H57 H 0.188000 0.114100 0.334500
H58 H 0.155300 -0.113300 0.465300
H59 H 0.144300 -0.154100 0.353500
H60 H 0.256200 -0.110200 0.443700
H61 H 0.029600 0.243000 0.305200
H62 H 0.005900 0.058400 0.272200
H63 H -0.018300 -0.000800 0.416900
H64 H 0.022000 0.173600 0.464100
H65 H -0.286100 0.062200 0.285000
H66 H 0.623700 0.489400 1.166500
H67 H 0.421800 0.700400 0.815300
H68 H 0.278200 0.039500 0.716800
H69 H 0.322900 0.369500 0.642800
H70 H 0.845500 0.885600 -0.036200
H71 H 0.791900 0.890500 0.094700
H72 H 0.282700 0.690500 0.239100
H73 H 0.812700 0.702900 0.476400
H74 H 0.863100 0.942900 0.558300
H75 H 0.808800 0.908600 0.632200
H76 H 0.719400 1.093200 0.458800
H77 H 0.188100 0.272300 0.748400
H78 H 0.657300 1.031100 0.520900
H79 H 0.616900 0.468900 0.403800
H80 H 0.453200 0.595700 0.326800
H81 H 0.477000 0.524500 0.236900
H82 H 0.519500 0.781400 0.200200
H83 H 0.483000 0.909900 0.363300
H84 H 0.526800 1.167200 0.330900
H85 H 0.350600 1.133900 0.226300
H86 H 0.396300 1.221800 0.156700
H87 H 0.274000 1.006100 0.070900
H88 H 0.472200 0.980800 0.066500
H89 H 0.380300 1.100700 -0.002700
H90 H 0.277400 0.881000 -0.099700
H91 H 0.339100 0.614400 -0.061700
H92 H 0.444900 0.676200 0.030600
H93 H 0.329300 0.574700 0.097600
H94 H 0.241200 0.699900 0.028400
C95 C 0.817900 0.412000 0.583800
C96 C 0.961500 0.633200 0.669800
C97 C 1.017600 0.615000 0.599200
C98 C 1.132000 0.678000 0.649300
C99 C 0.839300 0.595800 0.615000
C100 C 0.598500 0.695000 0.526900
C101 C 0.283000 0.800000 0.212600
C102 C 0.781200 0.716900 0.523500
C103 C 0.799600 0.900000 0.561500
C104 C 0.699500 0.999600 0.486600
C105 C 0.638300 0.875400 0.398800
C106 C 0.656600 0.707900 0.455100
C107 C 0.614100 0.572200 0.370500
C108 C 0.497400 0.607000 0.291100
C109 C 0.359700 0.810000 0.158400
C110 C 0.478100 0.778600 0.238900
C111 C 0.523000 0.915000 0.323300
C112 C 0.510000 1.088700 0.276200
C113 C 0.395900 1.120700 0.192200
C114 C 0.348800 0.984000 0.109100
C115 C 0.396800 0.994600 0.029500
C116 C 0.369500 0.695800 -0.007500
C117 C 0.317000 0.683000 0.067800
C118 C 0.941000 0.695000 0.013000
C119 C 0.978000 0.579000 0.085000
C120 C 0.957000 0.580000 0.169000
C121 C -0.132000 0.178000 0.350700
C122 C -0.017600 0.115000 0.400800
C123 C 0.038500 0.133200 0.330200
C124 C 0.182100 -0.088000 0.416200
C125 C 0.160700 0.095800 0.385000
C126 C 0.401500 0.195000 0.473100
C127 C 0.717000 0.300000 0.787400
C128 C 0.218800 0.216900 0.476500
C129 C 0.200400 0.400000 0.438500
C130 C 0.300500 0.499600 0.513400
C131 C 0.361700 0.375400 0.601200
C132 C 0.343400 0.207900 0.544900
C133 C 0.385900 0.072200 0.629500
C134 C 0.502600 0.107000 0.708900
C135 C 0.640300 0.310000 0.841600
C136 C 0.521900 0.278600 0.761100
C137 C 0.477000 0.415000 0.676700
C138 C 0.490000 0.588700 0.723800
C139 C 0.874000 0.807000 0.019000
C140 C 0.112000 0.194000 0.823000
C141 C 0.158000 0.310000 0.904000
C142 C 0.126000 0.307000 0.981000
C143 C 0.059000 0.195000 0.987000
C144 C 0.022000 0.079000 0.915000
C145 C 0.043000 0.080000 0.831000
C146 C 0.604100 0.620700 0.807800
C147 C 0.651200 0.484000 0.890900
C148 C 0.603200 0.494600 0.970500
C149 C 0.647300 0.363000 1.056900
C150 C 0.630500 0.195800 1.007500
C151 C 0.683000 0.183000 0.932200
C152 C 0.352700 0.863000 -0.056900
C153 C 0.842000 0.810000 0.096000
C154 C 0.888000 0.694000 0.177000
N155 N 0.139000 0.191000 0.749000
N156 N 0.861000 0.691000 0.251000
O157 O 0.677100 0.558700 0.313300
O158 O 0.586700 1.108000 0.233600
O159 O 0.409500 0.873500 -0.121600
O160 O 1.201500 0.554400 0.692500
O161 O 1.157200 0.817300 0.652100
O162 O 0.322900 0.058700 0.686700
O163 O 0.413300 0.608000 0.766400
O164 O 0.590500 0.373500 1.121600
O165 O -0.201500 0.054400 0.307500
O166 O -0.157200 0.317300 0.347900

#END
