
#######################################################################
#
#                 Cambridge Crystallographic Data Centre
#                                CCDC 
#
#######################################################################
#
# If this CIF has been generated from an entry in the Cambridge 
# Structural Database, then it will include bibliographic, chemical, 
# crystal, experimental, refinement or atomic coordinate data resulting 
# from the CCDC's data processing and validation procedures.
#
#######################################################################

data_LAFCOK
_symmetry_cell_setting           triclinic
_symmetry_space_group_name_H-M   'P -1'
_symmetry_Int_Tables_number      2
_space_group_name_Hall           '-P 1'
loop_
_symmetry_equiv_pos_site_id
_symmetry_equiv_pos_as_xyz
1 x,y,z
2 -x,-y,-z
_cell_length_a                   5.721(2)
_cell_length_b                   9.107(2)
_cell_length_c                   25.170(5)
_cell_angle_alpha                88.52(2)
_cell_angle_beta                 86.14(2)
_cell_angle_gamma                79.45(2)
_cell_volume                     1286.17
loop_
_atom_site_label
_atom_site_type_symbol
_atom_site_fract_x
_atom_site_fract_y
_atom_site_fract_z
O1 O 0.0408(5) 0.5126(3) 0.33398(10)
N1 N 0.1463(6) 0.6887(3) 0.24093(12)
C1 C 0.3788(7) 0.33664 0.36228(14)
C2 C 0.5991(8) 0.2579(4) 0.34468(17)
C3 C 0.6753(8) 0.1120(5) 0.36061(18)
C4 C 0.5309(9) 0.0401(5) 0.39334(17)
C5 C 0.3091(9) 0.1162(5) 0.41095(17)
C6 C 0.2356(8) 0.2621(4) 0.39556(16)
C7 C 0.2806(7) 0.5971(4) 0.39560(14)
C8 C 0.4830(8) 0.5864(4) 0.42394(15)
C9 C 0.4795(9) 0.6701(5) 0.46882(17)
C10 C 0.2769(10) 0.7651(5) 0.48625(17)
C11 C 0.0773(9) 0.7783(5) 0.45807(18)
C12 C 0.0789(8) 0.6941(4) 0.41326(16)
C13 C 0.2830(7) 0.4982(4) 0.34741(15)
C14 C 0.4318(7) 0.5542(4) 0.29952(14)
C15 C 0.3086(7) 0.6973(4) 0.27635(14)
C16 C 0.3476(8) 0.8362(4) 0.28856(15)
C17 C 0.2177(8) 0.9607(5) 0.26438(16)
C18 C 0.0551(8) 0.9467(5) 0.22815(16)
C19 C 0.0182(8) 0.8060(4) 0.21523(15)
C20 C -0.1386(7) 0.7631(4) 0.17743(15)
C21 C -0.2460(7) 0.8451(4) 0.13800(15)
C22 C -0.2197(7) 1.0017(4) 0.12619(15)
C23 C -0.3977(8) 1.1171(5) 0.14393(15)
C24 C -0.3742(9) 1.2623(5) 0.13490(17)
C25 C -0.1751(9) 1.2968(5) 0.10711(18)
C26 C -0.0003(8) 1.1825(5) 0.08912(17)
C27 C -0.0207(8) 1.0348(5) 0.09849(16)
C28 C -0.3964(7) 0.7786(4) 0.10251(15)
C29 C -0.4123(8) 0.8266(5) 0.04986(16)
C30 C -0.5506(9) 0.7659(5) 0.01658(17)
C31 C -0.6777(9) 0.6588(5) 0.0355(2)
C32 C -0.6651(8) 0.6119(5) 0.08756(19)
C33 C -0.5239(7) 0.6701(4) 0.12044(17)
H1 H 0.123(7) 0.595(4) 0.2328(15)
H2 H 0.034(7) 0.455(4) 0.3080(16)
H3 H 0.7027(8) 0.3068(4) 0.32032(17)
H4 H 0.8341(8) 0.0597(5) 0.34828(18)
H5 H 0.5840(9) -0.0641(5) 0.40424(17)
H6 H 0.2039(9) 0.0664(5) 0.43462(17)
H7 H 0.0773(8) 0.3145(4) 0.40826(16)
H8 H 0.6292(8) 0.5183(4) 0.41199(15)
H9 H 0.6238(9) 0.6618(5) 0.48840(17)
H10 H 0.2742(10) 0.8228(5) 0.51868(17)
H11 H -0.0669(9) 0.8487(5) 0.46964(18)
H12 H -0.0662(8) 0.7033(4) 0.39392(16)
H13 H 0.4609(7) 0.4781(4) 0.27185(14)
H14 H 0.5842(7) 0.5694(4) 0.31195(14)
H15 H 0.4638(8) 0.8475(4) 0.31434(15)
H16 H 0.24418 1.0603(5) 0.27323(16)
H17 H -0.0347(8) 1.0361(5) 0.21153(16)
H18 H -0.1696(7) 0.6609(4) 0.18134(15)
H19 H -0.5413(8) 1.0943(5) 0.16339(15)
H20 H -0.5010(9) 1.3428(5) 0.14814(17)
H21 H -0.1588(9) 1.4011(5) 0.10051(18)
H22 H 0.1419(8) 1.2058(5) 0.06921(17)
H23 H 0.1060(8) 0.9542(5) 0.08526(16)
H24 H -0.3237(8) 0.9036(5) 0.03625(16)
H25 H -0.5590(9) 0.7996(5) -0.02064(17)
H26 H -0.7765(9) 0.6161(5) 0.0119(2)
H27 H -0.7572(8) 0.5368(5) 0.10130(19)
H28 H -0.5130(7) 0.6337(4) 0.15734(17)
O1 O 0.9592(5) 0.4874(3) 0.66602(10)
N1 N 0.8537(6) 0.3113(3) 0.75907(12)
C1 C 0.6212(7) 0.66336 0.63772(14)
C2 C 0.4009(8) 0.7421(4) 0.65532(17)
C3 C 0.3247(8) 0.8880(5) 0.63939(18)
C4 C 0.4691(9) 0.9599(5) 0.60666(17)
C5 C 0.6909(9) 0.8838(5) 0.58905(17)
C6 C 0.7644(8) 0.7379(4) 0.60444(16)
C7 C 0.7194(7) 0.4029(4) 0.60440(14)
C8 C 0.5170(8) 0.4136(4) 0.57606(15)
C9 C 0.5205(9) 0.3299(5) 0.53118(17)
C10 C 0.7231(10) 0.2349(5) 0.51375(17)
C11 C 0.9227(9) 0.2217(5) 0.54193(18)
C12 C 0.9211(8) 0.3059(4) 0.58674(16)
C13 C 0.7170(7) 0.5018(4) 0.65259(15)
C14 C 0.5682(7) 0.4458(4) 0.70048(14)
C15 C 0.6914(7) 0.3027(4) 0.72365(14)
C16 C 0.6524(8) 0.1638(4) 0.71144(15)
C17 C 0.7823(8) 0.0393(5) 0.73562(16)
C18 C 0.9449(8) 0.0533(5) 0.77185(16)
C19 C 0.9818(8) 0.1940(4) 0.78477(15)
C20 C 1.1386(7) 0.2369(4) 0.82257(15)
C21 C 1.2460(7) 0.1549(4) 0.86200(15)
C22 C 1.2197(7) -0.0017(4) 0.87381(15)
C23 C 1.3977(8) -0.1171(5) 0.85607(15)
C24 C 1.3742(9) -0.2623(5) 0.86510(17)
C25 C 1.1751(9) -0.2968(5) 0.89289(18)
C26 C 1.0003(8) -0.1825(5) 0.91088(17)
C27 C 1.0207(8) -0.0348(5) 0.90151(16)
C28 C 1.3964(7) 0.2214(4) 0.89749(15)
C29 C 1.4123(8) 0.1734(5) 0.95014(16)
C30 C 1.5506(9) 0.2341(5) 0.98342(17)
C31 C 1.6777(9) 0.3412(5) 0.9645(2)
C32 C 1.6651(8) 0.3881(5) 0.91244(19)
C33 C 1.5239(7) 0.3299(4) 0.87956(17)
H1 H 0.877(7) 0.405(4) 0.7672(15)
H2 H 0.966(7) 0.545(4) 0.6920(16)
H3 H 0.2973(8) 0.6932(4) 0.67968(17)
H4 H 0.1659(8) 0.9403(5) 0.65172(18)
H5 H 0.4160(9) 1.0641(5) 0.59576(17)
H6 H 0.7961(9) 0.9336(5) 0.56538(17)
H7 H 0.9227(8) 0.6855(4) 0.59174(16)
H8 H 0.3708(8) 0.4817(4) 0.58801(15)
H9 H 0.3762(9) 0.3382(5) 0.51160(17)
H10 H 0.7258(10) 0.1772(5) 0.48132(17)
H11 H 1.0669(9) 0.1513(5) 0.53036(18)
H12 H 1.0662(8) 0.2967(4) 0.60608(16)
H13 H 0.5391(7) 0.5219(4) 0.72815(14)
H14 H 0.4158(7) 0.4306(4) 0.68805(14)
H15 H 0.5362(8) 0.1525(4) 0.68566(15)
H16 H 0.75582 -0.0603(5) 0.72677(16)
H17 H 1.0347(8) -0.0361(5) 0.78847(16)
H18 H 1.1696(7) 0.3391(4) 0.81866(15)
H19 H 1.5413(8) -0.0943(5) 0.83661(15)
H20 H 1.5010(9) -0.3428(5) 0.85186(17)
H21 H 1.1588(9) -0.4011(5) 0.89949(18)
H22 H 0.8581(8) -0.2058(5) 0.93079(17)
H23 H 0.8940(8) 0.0458(5) 0.91474(16)
H24 H 1.3237(8) 0.0964(5) 0.96375(16)
H25 H 1.5590(9) 0.2004(5) 1.02064(17)
H26 H 1.7765(9) 0.3839(5) 0.9881(2)
H27 H 1.7572(8) 0.4632(5) 0.89870(19)
H28 H 1.5130(7) 0.3663(4) 0.84266(17)

#END
