./LABBIC_from_xyz.cif_generated_by_CrystalShift
_symmetry_cell_setting triclinic
_symmetry_space_group_name_H-M 'P 1'
loop_
_symmetry_equiv_pos_site_id
_symmetry_equiv_pos_as_xyz
1 x,y,z
_cell_length_a 14.851000
_cell_length_b 6.433700
_cell_length_c 17.181000
_cell_angle_alpha 90.000000
_cell_angle_beta 108.498000
_cell_angle_gamma 90.000000
_cell_volume 1556.777685
loop_
_atom_site_label
_atom_site_type_symbol
_atom_site_fract_x
_atom_site_fract_y
_atom_site_fract_z
Cl1 Cl 0.598430 -0.086400 0.621730
O2 O 0.962200 0.741900 0.452950
O3 O 0.228400 1.305500 0.119230
C4 C 0.708000 0.725400 0.393900
H5 H 0.685400 0.800900 0.433000
H6 H 0.666900 0.605900 0.375700
C7 C 0.806100 0.649100 0.437400
C8 C 0.883400 0.719100 0.406500
C9 C 0.863000 0.740500 0.314100
C10 C 0.754300 0.761000 0.268900
H11 H 0.730500 0.617900 0.261000
C12 C 0.697800 0.868400 0.318670
C13 C 0.590900 0.870000 0.267880
H14 H 0.571900 0.723500 0.264000
C15 C 0.562400 0.945900 0.177120
C16 C 0.627000 0.832700 0.136060
H17 H 0.609600 0.686900 0.130000
H18 H 0.615900 0.889700 0.081500
C19 C 0.731100 0.850300 0.183300
H20 H 0.749600 0.995400 0.187000
H21 H 0.767400 0.777200 0.153800
C22 C 0.528800 0.975100 0.312150
H23 H 0.540200 1.123800 0.314300
H24 H 0.546100 0.923900 0.368100
C25 C 0.423200 0.933100 0.268650
H26 H 0.410700 0.785800 0.271600
H27 H 0.385800 1.007600 0.296600
C28 C 0.393100 1.000300 0.178940
H29 H 0.404900 1.149900 0.177900
C30 C 0.454300 0.890800 0.133600
C31 C 0.419700 0.968500 0.043360
H32 H 0.430000 1.117300 0.042700
H33 H 0.457200 0.902500 0.013300
C34 C 0.315800 0.923200 0.000490
H35 H 0.306900 0.773900 -0.005300
H36 H 0.297400 0.982800 -0.054200
C37 C 0.251000 1.008900 0.046000
C38 C 0.287600 0.966000 0.138740
H39 H 0.270900 0.823900 0.149600
C40 C 0.225800 1.121400 0.166500
H41 H 0.252400 1.149500 0.225400
C42 C 0.122300 1.043200 0.144500
C43 C 0.082500 1.017700 0.051100
H44 H 0.025500 0.933300 0.038100
H45 H 0.064400 1.153500 0.026600
C46 C 0.150300 0.919600 0.012700
H47 H 0.126500 0.940700 -0.046200
H48 H 0.152800 0.771000 0.022800
C49 C 0.899500 0.542000 0.285800
H50 H 0.870300 0.423500 0.301900
H51 H 0.967200 0.533700 0.310600
H52 H 0.884100 0.543800 0.227200
C53 C 0.922300 0.923200 0.300600
H54 H 0.901200 1.049200 0.319300
H55 H 0.915000 0.934900 0.243300
H56 H 0.988000 0.900000 0.330900
C57 C 0.738200 1.081500 0.350700
H58 H 0.798800 1.064500 0.392100
H59 H 0.695500 1.151100 0.373900
H60 H 0.745600 1.162700 0.306300
C61 C 0.580100 1.177500 0.171700
H62 H 0.646900 1.205200 0.194300
H63 H 0.546600 1.253000 0.202200
H64 H 0.558000 1.220500 0.115300
C65 C 0.436900 0.656000 0.130300
H66 H 0.369900 0.629500 0.114000
H67 H 0.467000 0.596900 0.183500
H68 H 0.463000 0.594300 0.091300
C69 C 0.244100 1.244700 0.044500
H70 H 0.302400 1.305800 0.040900
H71 H 0.191900 1.290400 -0.002400
C72 C 0.118300 0.841100 0.189200
H73 H 0.155000 0.855000 0.246000
H74 H 0.143900 0.730400 0.165100
H75 H 0.053600 0.810200 0.184600
C76 C 0.063900 1.204900 0.172900
H77 H 0.089200 1.220800 0.231400
H78 H -0.000900 1.159800 0.158300
H79 H 0.066900 1.335700 0.146900
C80 C 0.830200 0.501300 0.495500
H81 H 0.895200 0.478500 0.517800
C82 C 0.771500 0.369600 0.529800
C83 C 0.809900 0.185700 0.567700
H84 H 0.873000 0.156000 0.573700
C85 C 0.758900 0.045100 0.597000
H86 H 0.786900 -0.076900 0.622400
C87 C 0.666100 0.089000 0.587900
C88 C 0.625000 0.268600 0.553400
H89 H 0.562100 0.296400 0.548700
C90 C 0.677600 0.411700 0.524800
H91 H 0.649800 0.536600 0.502200
Cl92 Cl 0.401570 -0.586400 0.378270
O93 O 0.037800 0.241900 0.547050
O94 O 0.771600 0.805500 0.880770
C95 C 0.292000 0.225400 0.606100
H96 H 0.314600 0.300900 0.567000
H97 H 0.333100 0.105900 0.624300
C98 C 0.193900 0.149100 0.562600
C99 C 0.116600 0.219100 0.593500
C100 C 0.137000 0.240500 0.685900
C101 C 0.245700 0.261000 0.731100
H102 H 0.269500 0.117900 0.739000
C103 C 0.302200 0.368400 0.681330
C104 C 0.409100 0.370000 0.732120
H105 H 0.428100 0.223500 0.736000
C106 C 0.437600 0.445900 0.822880
C107 C 0.373000 0.332700 0.863940
H108 H 0.390400 0.186900 0.870000
H109 H 0.384100 0.389700 0.918500
C110 C 0.268900 0.350300 0.816700
H111 H 0.250400 0.495400 0.813000
H112 H 0.232600 0.277200 0.846200
C113 C 0.471200 0.475100 0.687850
H114 H 0.459800 0.623800 0.685700
H115 H 0.453900 0.423900 0.631900
C116 C 0.576800 0.433100 0.731350
H117 H 0.589300 0.285800 0.728400
H118 H 0.614200 0.507600 0.703400
C119 C 0.606900 0.500300 0.821060
H120 H 0.595100 0.649900 0.822100
C121 C 0.545700 0.390800 0.866400
C122 C 0.580300 0.468500 0.956640
H123 H 0.570000 0.617300 0.957300
H124 H 0.542800 0.402500 0.986700
C125 C 0.684200 0.423200 0.999510
H126 H 0.693100 0.273900 1.005300
H127 H 0.702600 0.482800 1.054200
C128 C 0.749000 0.508900 0.954000
C129 C 0.712400 0.466000 0.861260
H130 H 0.729100 0.323900 0.850400
C131 C 0.774200 0.621400 0.833500
H132 H 0.747600 0.649500 0.774600
C133 C 0.877700 0.543200 0.855500
C134 C 0.917500 0.517700 0.948900
H135 H 0.974500 0.433300 0.961900
H136 H 0.935600 0.653500 0.973400
C137 C 0.849700 0.419600 0.987300
H138 H 0.873500 0.440700 1.046200
H139 H 0.847200 0.271000 0.977200
C140 C 0.100500 0.042000 0.714200
H141 H 0.129700 -0.076500 0.698100
H142 H 0.032800 0.033700 0.689400
H143 H 0.115900 0.043800 0.772800
C144 C 0.077700 0.423200 0.699400
H145 H 0.098800 0.549200 0.680700
H146 H 0.085000 0.434900 0.756700
H147 H 0.012000 0.400000 0.669100
C148 C 0.261800 0.581500 0.649300
H149 H 0.201200 0.564500 0.607900
H150 H 0.304500 0.651100 0.626100
H151 H 0.254400 0.662700 0.693700
C152 C 0.419900 0.677500 0.828300
H153 H 0.353100 0.705200 0.805700
H154 H 0.453400 0.753000 0.797800
H155 H 0.442000 0.720500 0.884700
C156 C 0.563100 0.156000 0.869700
H157 H 0.630100 0.129500 0.886000
H158 H 0.533000 0.096900 0.816500
H159 H 0.537000 0.094300 0.908700
C160 C 0.755900 0.744700 0.955500
H161 H 0.697600 0.805800 0.959100
H162 H 0.808100 0.790400 1.002400
C163 C 0.881700 0.341100 0.810800
H164 H 0.845000 0.355000 0.754000
H165 H 0.856100 0.230400 0.834900
H166 H 0.946400 0.310200 0.815400
C167 C 0.936100 0.704900 0.827100
H168 H 0.910800 0.720800 0.768600
H169 H 1.000900 0.659800 0.841700
H170 H 0.933100 0.835700 0.853100
C171 C 0.169800 0.001300 0.504500
H172 H 0.104800 -0.021500 0.482200
C173 C 0.228500 -0.130400 0.470200
C174 C 0.190100 -0.314300 0.432300
H175 H 0.127000 -0.344000 0.426300
C176 C 0.241100 -0.454900 0.403000
H177 H 0.213100 -0.576900 0.377600
C178 C 0.333900 -0.411000 0.412100
C179 C 0.375000 -0.231400 0.446600
H180 H 0.437900 -0.203600 0.451300
C181 C 0.322400 -0.088300 0.475200
H182 H 0.350200 0.036600 0.497800

#END
