./LABBEY_from_xyz.cif_generated_by_CrystalShift
_symmetry_cell_setting triclinic
_symmetry_space_group_name_H-M 'P 1'
loop_
_symmetry_equiv_pos_site_id
_symmetry_equiv_pos_as_xyz
1 x,y,z
_cell_length_a 6.212200
_cell_length_b 10.406500
_cell_length_c 16.550000
_cell_angle_alpha 107.774000
_cell_angle_beta 92.959000
_cell_angle_gamma 100.506000
_cell_volume 995.165406
loop_
_atom_site_label
_atom_site_type_symbol
_atom_site_fract_x
_atom_site_fract_y
_atom_site_fract_z
P1 P 0.804448 0.575994 0.266064
O2 O 1.038390 0.605860 0.300710
O3 O 0.665910 0.622820 0.414770
O4 O 0.752250 1.231040 0.381230
F5 F 0.377900 0.525900 0.153570
F6 F 0.294370 0.617350 0.022370
F7 F 0.626200 0.772120 -0.029290
F8 F 1.040590 0.835400 0.051830
F9 F 1.126710 0.750640 0.183680
F10 F 0.356810 0.394870 0.292800
F11 F 0.218400 0.124990 0.228570
F12 F 0.472850 -0.034460 0.130920
F13 F 0.862470 0.084700 0.093330
F14 F 0.998410 0.360300 0.150690
C15 C 0.755470 0.633170 0.173950
C16 C 0.544570 0.603050 0.130370
C17 C 0.498390 0.649120 0.062680
C18 C 0.667380 0.727350 0.035820
C19 C 0.879050 0.759620 0.077260
C20 C 0.920550 0.713350 0.145700
C21 C 0.687480 0.390690 0.225950
C22 C 0.487500 0.324540 0.243430
C23 C 0.412550 0.182910 0.210760
C24 C 0.541060 0.101800 0.161290
C25 C 0.741230 0.163020 0.142540
C26 C 0.809860 0.305180 0.173750
C27 C 0.625580 0.660590 0.340490
H28 H 0.477800 0.623900 0.315800
C29 C 0.508790 0.660160 0.473200
H30 H 0.520700 0.755200 0.489700
H31 H 0.539000 0.632600 0.521200
H32 H 0.360000 0.615900 0.445700
C33 C 0.671670 0.814030 0.355120
C34 C 0.496210 0.872750 0.338140
H35 H 0.358800 0.820100 0.319900
C36 C 0.528160 1.012310 0.348600
H37 H 0.407000 1.050500 0.338500
C38 C 0.738160 1.096470 0.375890
C39 C 0.914120 1.040330 0.395620
H40 H 1.057000 1.098000 0.416700
C41 C 0.879630 0.899430 0.385080
H42 H 1.000300 0.860500 0.399100
C43 C 0.960470 1.323530 0.411920
H44 H 1.005000 1.332300 0.467500
H45 H 0.940000 1.412500 0.411200
H46 H 1.070000 1.295500 0.374300
P47 P 0.195552 0.424006 0.733936
O48 O -0.038390 0.394140 0.699290
O49 O 0.334090 0.377180 0.585230
O50 O 0.247750 -0.231040 0.618770
F51 F 0.622100 0.474100 0.846430
F52 F 0.705630 0.382650 0.977630
F53 F 0.373800 0.227880 1.029290
F54 F -0.040590 0.164600 0.948170
F55 F -0.126710 0.249360 0.816320
F56 F 0.643190 0.605130 0.707200
F57 F 0.781600 0.875010 0.771430
F58 F 0.527150 1.034460 0.869080
F59 F 0.137530 0.915300 0.906670
F60 F 0.001590 0.639700 0.849310
C61 C 0.244530 0.366830 0.826050
C62 C 0.455430 0.396950 0.869630
C63 C 0.501610 0.350880 0.937320
C64 C 0.332620 0.272650 0.964180
C65 C 0.120950 0.240380 0.922740
C66 C 0.079450 0.286650 0.854300
C67 C 0.312520 0.609310 0.774050
C68 C 0.512500 0.675460 0.756570
C69 C 0.587450 0.817090 0.789240
C70 C 0.458940 0.898200 0.838710
C71 C 0.258770 0.836980 0.857460
C72 C 0.190140 0.694820 0.826250
C73 C 0.374420 0.339410 0.659510
H74 H 0.522200 0.376100 0.684200
C75 C 0.491210 0.339840 0.526800
H76 H 0.479300 0.244800 0.510300
H77 H 0.461000 0.367400 0.478800
H78 H 0.640000 0.384100 0.554300
C79 C 0.328330 0.185970 0.644880
C80 C 0.503790 0.127250 0.661860
H81 H 0.641200 0.179900 0.680100
C82 C 0.471840 -0.012310 0.651400
H83 H 0.593000 -0.050500 0.661500
C84 C 0.261840 -0.096470 0.624110
C85 C 0.085880 -0.040330 0.604380
H86 H -0.057000 -0.098000 0.583300
C87 C 0.120370 0.100570 0.614920
H88 H -0.000300 0.139500 0.600900
C89 C 0.039530 -0.323530 0.588080
H90 H -0.005000 -0.332300 0.532500
H91 H 0.060000 -0.412500 0.588800
H92 H -0.070000 -0.295500 0.625700

#END
