./LABCAS_from_xyz.cif_generated_by_CrystalShift
_symmetry_cell_setting triclinic
_symmetry_space_group_name_H-M 'P 1'
loop_
_symmetry_equiv_pos_site_id
_symmetry_equiv_pos_as_xyz
1 x,y,z
_cell_length_a 8.344000
_cell_length_b 9.387000
_cell_length_c 12.527000
_cell_angle_alpha 97.270000
_cell_angle_beta 101.180000
_cell_angle_gamma 110.790000
_cell_volume 879.231133
loop_
_atom_site_label
_atom_site_type_symbol
_atom_site_fract_x
_atom_site_fract_y
_atom_site_fract_z
Fe1 Fe 1.105970 0.663100 0.336920
P2 P 0.860070 0.890870 0.303740
C3 C 0.908000 0.722900 0.258470
C4 C 1.014600 0.705000 0.185300
C5 C 1.009700 0.551200 0.172610
C6 C 0.899400 0.471800 0.236980
C7 C 0.836400 0.575500 0.290120
C8 C 1.356100 0.828100 0.406500
C9 C 1.248500 0.827300 0.481030
C10 C 1.187000 0.675700 0.504030
C11 C 1.255500 0.584000 0.443940
C12 C 1.360700 0.679400 0.383440
C13 C 0.661000 0.855600 0.193280
C14 C 0.584600 0.964900 0.196640
C15 C 0.430400 0.941500 0.118340
C16 C 0.349100 0.807100 0.036370
C17 C 0.421700 0.698200 0.032440
C18 C 0.576800 0.721300 0.109960
C19 C 1.030900 1.045700 0.263290
C20 C 1.012000 1.079900 0.157640
C21 C 1.147300 1.198200 0.133110
C22 C 1.303800 1.281200 0.212600
C23 C 1.325100 1.249100 0.317200
C24 C 1.188800 1.133900 0.343080
H25 H 1.084000 0.791000 0.153000
H26 H 1.081000 0.511000 0.131000
H27 H 0.872000 0.362000 0.244000
H28 H 0.761000 0.562000 0.344000
H29 H 1.417000 0.919000 0.375000
H30 H 1.211000 0.911000 0.509000
H31 H 1.104000 0.642000 0.552000
H32 H 1.224000 0.471000 0.443000
H33 H 1.424000 0.643000 0.333000
H34 H 0.643000 1.064000 0.254000
H35 H 0.380000 1.023000 0.123000
H36 H 0.234000 0.789000 -0.016000
H37 H 0.362000 0.601000 -0.026000
H38 H 0.626000 0.639000 0.106000
H39 H 0.896000 1.017000 0.103000
H40 H 1.128000 1.219000 0.057000
H41 H 1.398000 1.364000 0.191000
H42 H 1.439000 1.308000 0.374000
H43 H 1.198000 1.114000 0.420000
Fe44 Fe -0.105970 0.336900 0.663080
P45 P 0.139930 0.109130 0.696260
C46 C 0.092000 0.277100 0.741530
C47 C -0.014600 0.295000 0.814700
C48 C -0.009700 0.448800 0.827390
C49 C 0.100600 0.528200 0.763020
C50 C 0.163600 0.424500 0.709880
C51 C -0.356100 0.171900 0.593500
C52 C -0.248500 0.172700 0.518970
C53 C -0.187000 0.324300 0.495970
C54 C -0.255500 0.416000 0.556060
C55 C -0.360700 0.320600 0.616560
C56 C 0.339000 0.144400 0.806720
C57 C 0.415400 0.035100 0.803360
C58 C 0.569600 0.058500 0.881660
C59 C 0.650900 0.192900 0.963630
C60 C 0.578300 0.301800 0.967560
C61 C 0.423200 0.278700 0.890040
C62 C -0.030900 -0.045700 0.736710
C63 C -0.012000 -0.079900 0.842360
C64 C -0.147300 -0.198200 0.866890
C65 C -0.303800 -0.281200 0.787400
C66 C -0.325100 -0.249100 0.682800
C67 C -0.188800 -0.133900 0.656920
H68 H -0.084000 0.209000 0.847000
H69 H -0.081000 0.489000 0.869000
H70 H 0.128000 0.638000 0.756000
H71 H 0.239000 0.438000 0.656000
H72 H -0.417000 0.081000 0.625000
H73 H -0.211000 0.089000 0.491000
H74 H -0.104000 0.358000 0.448000
H75 H -0.224000 0.529000 0.557000
H76 H -0.424000 0.357000 0.667000
H77 H 0.357000 -0.064000 0.746000
H78 H 0.620000 -0.023000 0.877000
H79 H 0.766000 0.211000 1.016000
H80 H 0.638000 0.399000 1.026000
H81 H 0.374000 0.361000 0.894000
H82 H 0.104000 -0.017000 0.897000
H83 H -0.128000 -0.219000 0.943000
H84 H -0.398000 -0.364000 0.809000
H85 H -0.439000 -0.308000 0.626000
H86 H -0.198000 -0.114000 0.580000

#END
