
#######################################################################
#
#                 Cambridge Crystallographic Data Centre
#                                CCDC 
#
#######################################################################
#
# If this CIF has been generated from an entry in the Cambridge 
# Structural Database, then it will include bibliographic, chemical, 
# crystal, experimental, refinement or atomic coordinate data resulting 
# from the CCDC's data processing and validation procedures.
#
#######################################################################

data_LABDEA
_symmetry_cell_setting           monoclinic
_symmetry_space_group_name_H-M   'P 21'
_symmetry_Int_Tables_number      4
_space_group_name_Hall           'P 2yb'
loop_
_symmetry_equiv_pos_site_id
_symmetry_equiv_pos_as_xyz
1 x,y,z
2 -x,1/2+y,-z
_cell_length_a                   11.832(8)
_cell_length_b                   6.3650(19)
_cell_length_c                   15.531(4)
_cell_angle_alpha                90
_cell_angle_beta                 95.35(3)
_cell_angle_gamma                90
_cell_volume                     1164.55
loop_
_atom_site_label
_atom_site_type_symbol
_atom_site_fract_x
_atom_site_fract_y
_atom_site_fract_z
C1 C 0.42008(11) 1.1086(3) 0.57784(10)
H1 H 0.4592 1.1329 0.5243
C2 C 0.41141(14) 1.3149(3) 0.62840(12)
H2 H 0.4521 1.3020 0.6868
H3 H 0.4456 1.4319 0.5977
C3 C 0.28774(16) 1.3558(4) 0.63493(17)
H4 H 0.2711 1.3588 0.6962
H5 H 0.2651 1.4922 0.6079
C4 C 0.22586(14) 1.1798(3) 0.58810(11)
C5 C 0.08203(13) 0.9752(3) 0.53274(13)
H6 H 0.0030 0.9456 0.5260
C6 C 0.15084(13) 0.8414(3) 0.49658(11)
H7 H 0.1198 0.7252 0.4640
C7 C 0.27146(12) 0.8730(3) 0.50691(10)
C8 C 0.47938(12) 0.9322(3) 0.63266(9)
C9 C 0.67287(11) 0.7831(3) 0.66593(9)
C10 C 0.64601(12) 0.6177(3) 0.71799(9)
H8 H 0.5708 0.6030 0.7339
C11 C 0.72906(13) 0.4727(3) 0.74719(10)
H9 H 0.7091 0.3590 0.7824
C12 C 0.84003(13) 0.4896(3) 0.72632(10)
C13 C 0.86687(13) 0.6614(3) 0.67647(11)
H10 H 0.9429 0.6797 0.6629
C14 C 0.78521(12) 0.8060(3) 0.64636(10)
H11 H 0.8056 0.9215 0.6122
C15 C 0.92633(13) 0.3214(3) 0.75557(10)
H12 H 0.9414 0.2353 0.7048
H13 H 0.8926 0.2279 0.7972
C16 C 1.03874(12) 0.4043(3) 0.79756(9)
H14 H 1.0768 0.4895 0.7545
C17 C 1.12009(13) 0.2319(3) 0.83438(10)
H15 H 1.1715 0.1873 0.7911
H16 H 1.0774 0.1080 0.8523
C18 C 1.18774(12) 0.3356(3) 0.91344(10)
H17 H 1.1747 0.2602 0.9674
H18 H 1.2701 0.3355 0.9066
C19 C 1.14211(12) 0.5601(3) 0.91514(10)
H19 H 1.1856 0.6511 0.8774
C20 C 1.14347(12) 0.6600(3) 1.00428(9)
H20 H 1.0970 0.5729 1.0413
C21 C 1.26516(12) 0.6743(3) 1.04665(9)
C22 C 1.30952(13) 0.5162(3) 1.10157(10)
H21 H 1.2631 0.4008 1.1144
C23 C 1.42179(13) 0.5258(3) 1.13807(10)
H22 H 1.4518 0.4164 1.1750
C24 C 1.48891(13) 0.6946(3) 1.12025(10)
H23 H 1.5652 0.7016 1.1454
C25 C 1.44569(13) 0.8543(3) 1.06581(11)
H24 H 1.4920 0.9706 1.0538
C26 C 1.33396(13) 0.8428(3) 1.02886(10)
H25 H 1.3045 0.9512 0.9911
N1 N 0.30130(10) 1.0497(2) 0.55544(8)
N2 N 0.11611(12) 1.1517(3) 0.57871(11)
N3 N 0.59313(10) 0.9307(2) 0.62801(8)
H26 H 0.6208 1.0329 0.5981
N4 N 1.02501(10) 0.5334(2) 0.87436(8)
H27 H 0.9902 0.6641 0.8634
O1 O 0.34555(9) 0.7632(2) 0.47876(8)
O2 O 0.42603(8) 0.81590(19) 0.67589(7)
O3 O 1.09221(9) 0.86079(19) 0.99107(7)
H28 H 1.0631 0.8976 1.0360
C1 C 0.57992(11) 0.6086(3) 0.42216(10)
H1 H 0.5408 0.6329 0.4757
C2 C 0.58859(14) 0.8149(3) 0.37160(12)
H2 H 0.5479 0.8020 0.3132
H3 H 0.5544 0.9319 0.4023
C3 C 0.71226(16) 0.8558(4) 0.36507(17)
H4 H 0.7289 0.8588 0.3038
H5 H 0.7349 0.9922 0.3921
C4 C 0.77414(14) 0.6798(3) 0.41190(11)
C5 C 0.91797(13) 0.4752(3) 0.46726(13)
H6 H 0.9970 0.4456 0.4740
C6 C 0.84916(13) 0.3414(3) 0.50342(11)
H7 H 0.8802 0.2252 0.5360
C7 C 0.72854(12) 0.3730(3) 0.49309(10)
C8 C 0.52062(12) 0.4322(3) 0.36734(9)
C9 C 0.32713(11) 0.2831(3) 0.33407(9)
C10 C 0.35399(12) 0.1177(3) 0.28201(9)
H8 H 0.4292 0.1030 0.2661
C11 C 0.27094(13) -0.0273(3) 0.25281(10)
H9 H 0.2909 -0.1410 0.2176
C12 C 0.15997(13) -0.0104(3) 0.27368(10)
C13 C 0.13313(13) 0.1614(3) 0.32353(11)
H10 H 0.0571 0.1797 0.3371
C14 C 0.21479(12) 0.3060(3) 0.35364(10)
H11 H 0.1944 0.4215 0.3878
C15 C 0.07367(13) -0.1786(3) 0.24443(10)
H12 H 0.0586 -0.2647 0.2952
H13 H 0.1074 -0.2721 0.2028
C16 C -0.03874(12) -0.0957(3) 0.20244(9)
H14 H -0.0768 -0.0105 0.2455
C17 C -0.12009(13) -0.2681(3) 0.16562(10)
H15 H -0.1715 -0.3127 0.2089
H16 H -0.0774 -0.3920 0.1477
C18 C -0.18774(12) -0.1644(3) 0.08656(10)
H17 H -0.1747 -0.2398 0.0326
H18 H -0.2701 -0.1645 0.0934
C19 C -0.14211(12) 0.0601(3) 0.08486(10)
H19 H -0.1856 0.1511 0.1226
C20 C -0.14347(12) 0.1600(3) -0.00428(9)
H20 H -0.0970 0.0729 -0.0413
C21 C -0.26516(12) 0.1743(3) -0.04665(9)
C22 C -0.30952(13) 0.0162(3) -0.10157(10)
H21 H -0.2631 -0.0992 -0.1144
C23 C -0.42179(13) 0.0258(3) -0.13807(10)
H22 H -0.4518 -0.0836 -0.1750
C24 C -0.48891(13) 0.1946(3) -0.12025(10)
H23 H -0.5652 0.2016 -0.1454
C25 C -0.44569(13) 0.3543(3) -0.06581(11)
H24 H -0.4920 0.4706 -0.0538
C26 C -0.33396(13) 0.3428(3) -0.02886(10)
H25 H -0.3045 0.4512 0.0089
N1 N 0.69870(10) 0.5497(2) 0.44456(8)
N2 N 0.88389(12) 0.6517(3) 0.42129(11)
N3 N 0.40687(10) 0.4307(2) 0.37199(8)
H26 H 0.3792 0.5329 0.4019
N4 N -0.02501(10) 0.0334(2) 0.12564(8)
H27 H 0.0098 0.1641 0.1366
O1 O 0.65445(9) 0.2632(2) 0.52124(8)
O2 O 0.57397(8) 0.31590(19) 0.32411(7)
O3 O -0.09221(9) 0.36079(19) 0.00893(7)
H28 H -0.0631 0.3976 -0.0360

#END
