
#######################################################################
#
#                 Cambridge Crystallographic Data Centre
#                                CCDC 
#
#######################################################################
#
# If this CIF has been generated from an entry in the Cambridge 
# Structural Database, then it will include bibliographic, chemical, 
# crystal, experimental, refinement or atomic coordinate data resulting 
# from the CCDC's data processing and validation procedures.
#
#######################################################################

data_LABDUQ
_symmetry_cell_setting           monoclinic
_symmetry_space_group_name_H-M   'P 21/c'
_symmetry_Int_Tables_number      14
_space_group_name_Hall           '-P 2ybc'
loop_
_symmetry_equiv_pos_site_id
_symmetry_equiv_pos_as_xyz
1 x,y,z
2 -x,1/2+y,1/2-z
3 -x,-y,-z
4 x,1/2-y,1/2+z
_cell_length_a                   9.575(2)
_cell_length_b                   7.2047(11)
_cell_length_c                   16.026(3)
_cell_angle_alpha                90
_cell_angle_beta                 105.98(2)
_cell_angle_gamma                90
_cell_volume                     1062.83
loop_
_atom_site_label
_atom_site_type_symbol
_atom_site_fract_x
_atom_site_fract_y
_atom_site_fract_z
Br1 Br 0.84375(5) 0.42321(5) 0.36785(3)
Br2 Br 0.88781(5) 0.72256(7) 0.23267(3)
S1 S 0.86982(10) 0.84183(13) 0.40746(7)
O1 O 0.5710(4) 0.6794(5) 0.2173(2)
O2 O 0.8149(3) 1.0167(4) 0.3696(2)
O3 O 1.0220(3) 0.8168(4) 0.4422(2)
C1 C 0.5544(4) 0.7022(5) 0.3608(3)
C2 C 0.4029(4) 0.6747(6) 0.3333(3)
H1 H 0.3585 0.6438 0.2757
C3 C 0.3204(5) 0.6930(7) 0.3900(4)
H2 H 0.2207 0.6731 0.3709
C4 C 0.3829(5) 0.7401(6) 0.4746(4)
H3 H 0.3260 0.7543 0.5127
C5 C 0.5313(5) 0.7664(6) 0.5031(3)
H4 H 0.5739 0.7971 0.5609
C6 C 0.6176(4) 0.7480(5) 0.4471(3)
C7 C 0.7805(4) 0.7745(6) 0.4847(3)
H5 H 0.8225 0.6591 0.5114
H6 H 0.7972 0.8681 0.5300
C8 C 0.7985(4) 0.6715(5) 0.3233(3)
C9 C 0.6314(4) 0.6856(5) 0.2930(3)
Br1 Br 0.15625(5) -0.07679(5) 0.13215(3)
Br2 Br 0.11219(5) 0.22256(7) 0.26733(3)
S1 S 0.13018(10) 0.34183(13) 0.09254(7)
O1 O 0.4290(4) 0.1794(5) 0.2827(2)
O2 O 0.1851(3) 0.5167(4) 0.1304(2)
O3 O -0.0220(3) 0.3168(4) 0.0578(2)
C1 C 0.4456(4) 0.2022(5) 0.1392(3)
C2 C 0.5971(4) 0.1747(6) 0.1667(3)
H1 H 0.6415 0.1438 0.2243
C3 C 0.6796(5) 0.1930(7) 0.1100(4)
H2 H 0.7793 0.1731 0.1291
C4 C 0.6171(5) 0.2401(6) 0.0254(4)
H3 H 0.6740 0.2543 -0.0127
C5 C 0.4687(5) 0.2664(6) -0.0031(3)
H4 H 0.4261 0.2971 -0.0609
C6 C 0.3824(4) 0.2480(5) 0.0529(3)
C7 C 0.2195(4) 0.2745(6) 0.0153(3)
H5 H 0.1775 0.1591 -0.0114
H6 H 0.2028 0.3681 -0.0300
C8 C 0.2015(4) 0.1715(5) 0.1767(3)
C9 C 0.3686(4) 0.1856(5) 0.2070(3)
Br1 Br 0.15625(5) 0.57679(5) 0.63215(3)
Br2 Br 0.11219(5) 0.27744(7) 0.76733(3)
S1 S 0.13018(10) 0.15817(13) 0.59254(7)
O1 O 0.4290(4) 0.3206(5) 0.7827(2)
O2 O 0.1851(3) -0.0167(4) 0.6304(2)
O3 O -0.0220(3) 0.1832(4) 0.5578(2)
C1 C 0.4456(4) 0.2978(5) 0.6392(3)
C2 C 0.5971(4) 0.3253(6) 0.6667(3)
H1 H 0.6415 0.3562 0.7243
C3 C 0.6796(5) 0.3070(7) 0.6100(4)
H2 H 0.7793 0.3269 0.6291
C4 C 0.6171(5) 0.2599(6) 0.5254(4)
H3 H 0.6740 0.2457 0.4873
C5 C 0.4687(5) 0.2336(6) 0.4969(3)
H4 H 0.4261 0.2029 0.4391
C6 C 0.3824(4) 0.2520(5) 0.5529(3)
C7 C 0.2195(4) 0.2255(6) 0.5153(3)
H5 H 0.1775 0.3409 0.4886
H6 H 0.2028 0.1319 0.4700
C8 C 0.2015(4) 0.3285(5) 0.6767(3)
C9 C 0.3686(4) 0.3144(5) 0.7070(3)
Br1 Br 0.84375(5) 1.07679(5) 0.86785(3)
Br2 Br 0.88781(5) 0.77744(7) 0.73267(3)
S1 S 0.86982(10) 0.65817(13) 0.90746(7)
O1 O 0.5710(4) 0.8206(5) 0.7173(2)
O2 O 0.8149(3) 0.4833(4) 0.8696(2)
O3 O 1.0220(3) 0.6832(4) 0.9422(2)
C1 C 0.5544(4) 0.7978(5) 0.8608(3)
C2 C 0.4029(4) 0.8253(6) 0.8333(3)
H1 H 0.3585 0.8562 0.7757
C3 C 0.3204(5) 0.8070(7) 0.8900(4)
H2 H 0.2207 0.8269 0.8709
C4 C 0.3829(5) 0.7599(6) 0.9746(4)
H3 H 0.3260 0.7457 1.0127
C5 C 0.5313(5) 0.7336(6) 1.0031(3)
H4 H 0.5739 0.7029 1.0609
C6 C 0.6176(4) 0.7520(5) 0.9471(3)
C7 C 0.7805(4) 0.7255(6) 0.9847(3)
H5 H 0.8225 0.8409 1.0114
H6 H 0.7972 0.6319 1.0300
C8 C 0.7985(4) 0.8285(5) 0.8233(3)
C9 C 0.6314(4) 0.8144(5) 0.7930(3)

#END
