./LABHAX01_from_xyz.cif_generated_by_CrystalShift
_symmetry_cell_setting triclinic
_symmetry_space_group_name_H-M 'P 1'
loop_
_symmetry_equiv_pos_site_id
_symmetry_equiv_pos_as_xyz
1 x,y,z
_cell_length_a 10.830000
_cell_length_b 12.703000
_cell_length_c 17.490000
_cell_angle_alpha 90.000000
_cell_angle_beta 90.000000
_cell_angle_gamma 90.000000
_cell_volume 2406.160340
loop_
_atom_site_label
_atom_site_type_symbol
_atom_site_fract_x
_atom_site_fract_y
_atom_site_fract_z
C1 C 0.230900 0.548600 0.622000
C2 C 0.275200 0.662600 0.627300
C3 C 0.306800 0.696100 0.708400
C4 C 0.390100 0.615200 0.745600
C5 C 0.329800 0.505200 0.745000
C6 C 0.400300 0.428700 0.795400
C7 C 0.323800 0.327800 0.804200
C8 C 0.289700 0.278700 0.728100
C9 C 0.230700 0.358700 0.670500
C10 C 0.308600 0.463000 0.663300
C11 C 0.209100 0.294600 0.596100
C12 C 0.116800 0.201900 0.609900
C13 C 0.167300 0.124200 0.668700
C14 C 0.198400 0.188300 0.739800
C15 C 0.225300 0.102600 0.799800
C16 C 0.131700 0.014800 0.780500
C17 C 0.071300 0.045700 0.704200
C18 C 0.279200 0.062100 0.637400
C19 C 0.432300 0.443200 0.621100
C20 C 0.033900 -0.044500 0.655200
C21 C -0.044000 -0.020200 0.586400
C22 C 0.043200 0.387500 0.525700
C23 C 0.212700 0.306000 0.458600
C24 C 0.383300 0.781700 0.546800
C25 C 0.496300 0.797500 0.498400
N26 N 0.174500 0.356500 0.528700
O27 O 0.380700 0.679700 0.579100
O28 O 0.196100 0.706800 0.753000
O29 O 0.058900 -0.136900 0.669300
H30 H 0.138600 0.545500 0.645100
H31 H 0.228600 0.527900 0.562100
H32 H 0.198600 0.710200 0.608100
H33 H 0.354300 0.770800 0.705800
H34 H 0.476500 0.612100 0.714900
H35 H 0.407200 0.638200 0.804100
H36 H 0.238900 0.513400 0.769600
H37 H 0.487800 0.410000 0.769100
H38 H 0.416100 0.463600 0.850800
H39 H 0.239900 0.346700 0.834700
H40 H 0.376800 0.271500 0.836800
H41 H 0.375300 0.250700 0.703800
H42 H 0.143300 0.390100 0.689200
H43 H 0.298900 0.263000 0.582100
H44 H 0.101500 0.161000 0.556600
H45 H 0.030400 0.233600 0.630500
H46 H 0.124500 0.238400 0.759800
H47 H 0.319100 0.074600 0.794700
H48 H 0.210200 0.132100 0.857000
H49 H 0.062600 0.008800 0.824800
H50 H 0.178900 -0.059700 0.774800
H51 H -0.018100 0.082100 0.711200
H52 H 0.348700 0.116400 0.617200
H53 H 0.247900 0.013800 0.590400
H54 H 0.318200 0.012500 0.681300
H55 H 0.477200 0.379200 0.650800
H56 H 0.495300 0.508700 0.616100
H57 H 0.405000 0.417300 0.564700
H58 H -0.055800 0.063900 0.581700
H59 H -0.133400 -0.057500 0.590600
H60 H 0.003800 -0.049300 0.536500
H61 H 0.020400 0.416200 0.582100
H62 H -0.008000 0.316200 0.514400
H63 H 0.019400 0.446300 0.483600
H64 H 0.189900 0.358400 0.412100
H65 H 0.165800 0.231800 0.450600
H66 H 0.311200 0.293000 0.459700
H67 H 0.301600 0.792400 0.512200
H68 H 0.384100 0.839200 0.592300
H69 H 0.501600 0.874500 0.472700
H70 H 0.491700 0.738300 0.454200
H71 H 0.571700 0.783900 0.535500
H72 H 0.138200 0.762500 0.736300
C73 C 0.730900 -0.048600 0.378000
C74 C 0.775200 -0.162600 0.372700
C75 C 0.806800 -0.196100 0.291600
C76 C 0.890100 -0.115200 0.254400
C77 C 0.829800 -0.005200 0.255000
C78 C 0.900300 0.071300 0.204600
C79 C 0.823800 0.172200 0.195800
C80 C 0.789700 0.221300 0.271900
C81 C 0.730700 0.141300 0.329500
C82 C 0.808600 0.037000 0.336700
C83 C 0.709100 0.205400 0.403900
C84 C 0.616800 0.298100 0.390100
C85 C 0.667300 0.375800 0.331300
C86 C 0.698400 0.311700 0.260200
C87 C 0.725300 0.397400 0.200200
C88 C 0.631700 0.485200 0.219500
C89 C 0.571300 0.454300 0.295800
C90 C 0.779200 0.437900 0.362600
C91 C 0.932300 0.056800 0.378900
C92 C 0.533900 0.544500 0.344800
C93 C 0.456000 0.520200 0.413600
C94 C 0.543200 0.112500 0.474300
C95 C 0.712700 0.194000 0.541400
C96 C 0.883300 -0.281700 0.453200
C97 C 0.996300 -0.297500 0.501600
N98 N 0.674500 0.143500 0.471300
O99 O 0.880700 -0.179700 0.420900
O100 O 0.696100 -0.206800 0.247000
O101 O 0.558900 0.636900 0.330700
H102 H 0.638600 -0.045500 0.354900
H103 H 0.728600 -0.027900 0.437900
H104 H 0.698600 -0.210200 0.391900
H105 H 0.854300 -0.270800 0.294200
H106 H 0.976500 -0.112100 0.285100
H107 H 0.907200 -0.138200 0.195900
H108 H 0.738900 -0.013400 0.230400
H109 H 0.987800 0.090000 0.230900
H110 H 0.916100 0.036400 0.149200
H111 H 0.739900 0.153300 0.165300
H112 H 0.876800 0.228500 0.163200
H113 H 0.875300 0.249300 0.296200
H114 H 0.643300 0.109900 0.310800
H115 H 0.798900 0.237000 0.417900
H116 H 0.601500 0.339000 0.443400
H117 H 0.530400 0.266400 0.369500
H118 H 0.624500 0.261600 0.240200
H119 H 0.819100 0.425400 0.205300
H120 H 0.710200 0.367900 0.143000
H121 H 0.562600 0.491200 0.175200
H122 H 0.678900 0.559700 0.225200
H123 H 0.481900 0.417900 0.288800
H124 H 0.848700 0.383600 0.382800
H125 H 0.747900 0.486200 0.409600
H126 H 0.818200 0.487500 0.318700
H127 H 0.977200 0.120800 0.349200
H128 H 0.995300 -0.008700 0.383900
H129 H 0.905000 0.082700 0.435300
H130 H 0.444200 0.436100 0.418300
H131 H 0.366600 0.557500 0.409400
H132 H 0.503800 0.549300 0.463500
H133 H 0.520400 0.083800 0.417900
H134 H 0.492000 0.183800 0.485600
H135 H 0.519400 0.053700 0.516400
H136 H 0.689900 0.141600 0.587900
H137 H 0.665800 0.268200 0.549400
H138 H 0.811200 0.207000 0.540300
H139 H 0.801600 -0.292400 0.487800
H140 H 0.884100 -0.339200 0.407700
H141 H 1.001600 -0.374500 0.527300
H142 H 0.991700 -0.238300 0.545800
H143 H 1.071700 -0.283900 0.464500
H144 H 0.638200 -0.262500 0.263700
C145 C 0.769100 1.048600 0.878000
C146 C 0.724800 1.162600 0.872700
C147 C 0.693200 1.196100 0.791600
C148 C 0.609900 1.115200 0.754400
C149 C 0.670200 1.005200 0.755000
C150 C 0.599700 0.928700 0.704600
C151 C 0.676200 0.827800 0.695800
C152 C 0.710300 0.778700 0.771900
C153 C 0.769300 0.858700 0.829500
C154 C 0.691400 0.963000 0.836700
C155 C 0.790900 0.794600 0.903900
C156 C 0.883200 0.701900 0.890100
C157 C 0.832700 0.624200 0.831300
C158 C 0.801600 0.688300 0.760200
C159 C 0.774700 0.602600 0.700200
C160 C 0.868300 0.514800 0.719500
C161 C 0.928700 0.545700 0.795800
C162 C 0.720800 0.562100 0.862600
C163 C 0.567700 0.943200 0.878900
C164 C 0.966100 0.455500 0.844800
C165 C 1.044000 0.479800 0.913600
C166 C 0.956800 0.887500 0.974300
C167 C 0.787300 0.806000 1.041400
C168 C 0.616700 1.281700 0.953200
C169 C 0.503700 1.297500 1.001600
N170 N 0.825500 0.856500 0.971300
O171 O 0.619300 1.179700 0.920900
O172 O 0.803900 1.206800 0.747000
O173 O 0.941100 0.363100 0.830700
H174 H 0.861400 1.045500 0.854900
H175 H 0.771400 1.027900 0.937900
H176 H 0.801400 1.210200 0.891900
H177 H 0.645700 1.270800 0.794200
H178 H 0.523500 1.112100 0.785100
H179 H 0.592800 1.138200 0.695900
H180 H 0.761100 1.013400 0.730400
H181 H 0.512200 0.910000 0.730900
H182 H 0.583900 0.963600 0.649200
H183 H 0.760100 0.846700 0.665300
H184 H 0.623200 0.771500 0.663200
H185 H 0.624700 0.750700 0.796200
H186 H 0.856700 0.890100 0.810800
H187 H 0.701100 0.763000 0.917900
H188 H 0.898500 0.661000 0.943400
H189 H 0.969600 0.733600 0.869500
H190 H 0.875500 0.738400 0.740200
H191 H 0.680900 0.574600 0.705300
H192 H 0.789800 0.632100 0.643000
H193 H 0.937400 0.508800 0.675200
H194 H 0.821100 0.440300 0.725200
H195 H 1.018100 0.582100 0.788800
H196 H 0.651300 0.616400 0.882800
H197 H 0.752100 0.513800 0.909600
H198 H 0.681800 0.512500 0.818700
H199 H 0.522800 0.879200 0.849200
H200 H 0.504700 1.008700 0.883900
H201 H 0.595000 0.917300 0.935300
H202 H 1.055800 0.563900 0.918300
H203 H 1.133400 0.442500 0.909400
H204 H 0.996200 0.450700 0.963500
H205 H 0.979600 0.916200 0.917900
H206 H 1.008000 0.816200 0.985600
H207 H 0.980600 0.946300 1.016400
H208 H 0.810100 0.858400 1.087900
H209 H 0.834200 0.731800 1.049400
H210 H 0.688800 0.793000 1.040300
H211 H 0.698400 1.292400 0.987800
H212 H 0.615900 1.339200 0.907700
H213 H 0.498400 1.374500 1.027300
H214 H 0.508300 1.238300 1.045800
H215 H 0.428300 1.283900 0.964500
H216 H 0.861800 1.262500 0.763700
C217 C 0.269100 0.451400 0.122000
C218 C 0.224800 0.337400 0.127300
C219 C 0.193200 0.303900 0.208400
C220 C 0.109900 0.384800 0.245600
C221 C 0.170200 0.494800 0.245000
C222 C 0.099700 0.571300 0.295400
C223 C 0.176200 0.672200 0.304200
C224 C 0.210300 0.721300 0.228100
C225 C 0.269300 0.641300 0.170500
C226 C 0.191400 0.537000 0.163300
C227 C 0.290900 0.705400 0.096100
C228 C 0.383200 0.798100 0.109900
C229 C 0.332700 0.875800 0.168700
C230 C 0.301600 0.811700 0.239800
C231 C 0.274700 0.897400 0.299800
C232 C 0.368300 0.985200 0.280500
C233 C 0.428700 0.954300 0.204200
C234 C 0.220800 0.937900 0.137400
C235 C 0.067700 0.556800 0.121100
C236 C 0.466100 1.044500 0.155200
C237 C 0.544000 1.020200 0.086400
C238 C 0.456800 0.612500 0.025700
C239 C 0.287300 0.694000 -0.041400
C240 C 0.116700 0.218300 0.046800
C241 C 0.003700 0.202500 -0.001600
N242 N 0.325500 0.643500 0.028700
O243 O 0.119300 0.320300 0.079100
O244 O 0.303900 0.293200 0.253000
O245 O 0.441100 1.136900 0.169300
H246 H 0.361400 0.454500 0.145100
H247 H 0.271400 0.472100 0.062100
H248 H 0.301400 0.289800 0.108100
H249 H 0.145700 0.229200 0.205800
H250 H 0.023500 0.387900 0.214900
H251 H 0.092800 0.361800 0.304100
H252 H 0.261100 0.486600 0.269600
H253 H 0.012200 0.590000 0.269100
H254 H 0.083900 0.536400 0.350800
H255 H 0.260100 0.653300 0.334700
H256 H 0.123200 0.728500 0.336800
H257 H 0.124700 0.749300 0.203800
H258 H 0.356700 0.609900 0.189200
H259 H 0.201100 0.737000 0.082100
H260 H 0.398500 0.839000 0.056600
H261 H 0.469600 0.766400 0.130500
H262 H 0.375500 0.761600 0.259800
H263 H 0.180900 0.925400 0.294700
H264 H 0.289800 0.867900 0.357000
H265 H 0.437400 0.991200 0.324800
H266 H 0.321100 1.059700 0.274800
H267 H 0.518100 0.917900 0.211200
H268 H 0.151300 0.883600 0.117200
H269 H 0.252100 0.986200 0.090400
H270 H 0.181800 0.987500 0.181300
H271 H 0.022800 0.620800 0.150800
H272 H 0.004700 0.491300 0.116100
H273 H 0.095000 0.582700 0.064700
H274 H 0.555800 0.936100 0.081700
H275 H 0.633400 1.057500 0.090600
H276 H 0.496200 1.049300 0.036500
H277 H 0.479600 0.583800 0.082100
H278 H 0.508000 0.683800 0.014400
H279 H 0.480600 0.553700 -0.016400
H280 H 0.310100 0.641600 -0.087900
H281 H 0.334200 0.768200 -0.049400
H282 H 0.188800 0.707000 -0.040300
H283 H 0.198400 0.207600 0.012200
H284 H 0.115900 0.160800 0.092300
H285 H -0.001600 0.125500 -0.027300
H286 H 0.008300 0.261700 -0.045800
H287 H -0.071700 0.216100 0.035500
H288 H 0.361800 0.237500 0.236300

#END
