./LABJED_from_xyz.cif_generated_by_CrystalShift
_symmetry_cell_setting triclinic
_symmetry_space_group_name_H-M 'P 1'
loop_
_symmetry_equiv_pos_site_id
_symmetry_equiv_pos_as_xyz
1 x,y,z
_cell_length_a 9.808000
_cell_length_b 8.780000
_cell_length_c 17.248000
_cell_angle_alpha 90.000000
_cell_angle_beta 101.700000
_cell_angle_gamma 90.000000
_cell_volume 1454.438082
loop_
_atom_site_label
_atom_site_type_symbol
_atom_site_fract_x
_atom_site_fract_y
_atom_site_fract_z
C1 C 0.085700 0.699300 0.844400
C2 C 0.071900 0.568700 0.888000
C3 C -0.058700 0.505000 0.884800
C4 C -0.173900 0.570200 0.838800
C5 C -0.163100 0.700300 0.795100
C6 C -0.033100 0.764100 0.799000
N7 N 0.193200 0.507500 0.935500
C8 C 0.223400 0.359500 0.955200
C9 C 0.361700 0.333700 1.007300
O10 O 0.142100 0.254900 0.930400
C11 C 0.225300 0.765400 0.840400
C12 C 0.287900 0.882900 0.887800
C13 C 0.410300 0.950400 0.875300
C14 C 0.470600 0.896300 0.814700
C15 C 0.414300 0.777900 0.768200
C16 C 0.293200 0.711700 0.781700
N17 N 0.225500 0.941400 0.949600
C18 C 0.237400 0.871400 1.020300
C19 C 0.168100 0.953700 1.079000
O20 O 0.299000 0.751200 1.035800
H21 H -0.062000 0.424000 0.915000
H22 H -0.262000 0.525000 0.834000
H23 H -0.277000 0.742000 0.757000
H24 H -0.028000 0.853000 0.763000
H25 H 0.255000 0.567000 0.957000
H26 H 0.432000 0.315000 0.983000
H27 H 0.416000 0.412000 1.041000
H28 H 0.367000 0.251000 1.044000
H29 H 0.453000 1.044000 0.910000
H30 H 0.548000 0.948000 0.807000
H31 H 0.469000 0.715000 0.721000
H32 H 0.250000 0.637000 0.749000
H33 H 0.196000 1.022000 0.946000
H34 H 0.140000 1.065000 1.068000
H35 H 0.088000 0.916000 1.078000
H36 H 0.232000 0.947000 1.134000
C37 C 0.414300 0.199300 0.655600
C38 C 0.428100 0.068700 0.612000
C39 C 0.558700 0.005000 0.615200
C40 C 0.673900 0.070200 0.661200
C41 C 0.663100 0.200300 0.704900
C42 C 0.533100 0.264100 0.701000
N43 N 0.306800 0.007500 0.564500
C44 C 0.276600 -0.140500 0.544800
C45 C 0.138300 -0.166300 0.492700
O46 O 0.357900 -0.245100 0.569600
C47 C 0.274700 0.265400 0.659600
C48 C 0.212100 0.382900 0.612200
C49 C 0.089700 0.450400 0.624700
C50 C 0.029400 0.396300 0.685300
C51 C 0.085700 0.277900 0.731800
C52 C 0.206800 0.211700 0.718300
N53 N 0.274500 0.441400 0.550400
C54 C 0.262600 0.371400 0.479700
C55 C 0.331900 0.453700 0.421000
O56 O 0.201000 0.251200 0.464200
H57 H 0.562000 -0.076000 0.585000
H58 H 0.762000 0.025000 0.666000
H59 H 0.777000 0.242000 0.743000
H60 H 0.528000 0.353000 0.737000
H61 H 0.245000 0.067000 0.543000
H62 H 0.068000 -0.185000 0.517000
H63 H 0.084000 -0.088000 0.459000
H64 H 0.133000 -0.249000 0.456000
H65 H 0.047000 0.544000 0.590000
H66 H -0.048000 0.448000 0.693000
H67 H 0.031000 0.215000 0.779000
H68 H 0.250000 0.137000 0.751000
H69 H 0.304000 0.522000 0.554000
H70 H 0.360000 0.565000 0.432000
H71 H 0.412000 0.416000 0.422000
H72 H 0.268000 0.447000 0.366000
C73 C 0.914300 0.300700 0.155600
C74 C 0.928100 0.431300 0.112000
C75 C 1.058700 0.495000 0.115200
C76 C 1.173900 0.429800 0.161200
C77 C 1.163100 0.299700 0.204900
C78 C 1.033100 0.235900 0.201000
N79 N 0.806800 0.492500 0.064500
C80 C 0.776600 0.640500 0.044800
C81 C 0.638300 0.666300 -0.007300
O82 O 0.857900 0.745100 0.069600
C83 C 0.774700 0.234600 0.159600
C84 C 0.712100 0.117100 0.112200
C85 C 0.589700 0.049600 0.124700
C86 C 0.529400 0.103700 0.185300
C87 C 0.585700 0.222100 0.231800
C88 C 0.706800 0.288300 0.218300
N89 N 0.774500 0.058600 0.050400
C90 C 0.762600 0.128600 -0.020300
C91 C 0.831900 0.046300 -0.079000
O92 O 0.701000 0.248800 -0.035800
H93 H 1.062000 0.576000 0.085000
H94 H 1.262000 0.475000 0.166000
H95 H 1.277000 0.258000 0.243000
H96 H 1.028000 0.147000 0.237000
H97 H 0.745000 0.433000 0.043000
H98 H 0.568000 0.685000 0.017000
H99 H 0.584000 0.588000 -0.041000
H100 H 0.633000 0.749000 -0.044000
H101 H 0.547000 -0.044000 0.090000
H102 H 0.452000 0.052000 0.193000
H103 H 0.531000 0.285000 0.279000
H104 H 0.750000 0.363000 0.251000
H105 H 0.804000 -0.022000 0.054000
H106 H 0.860000 -0.065000 -0.068000
H107 H 0.912000 0.084000 -0.078000
H108 H 0.768000 0.053000 -0.134000
C109 C 0.585700 0.800700 0.344400
C110 C 0.571900 0.931300 0.388000
C111 C 0.441300 0.995000 0.384800
C112 C 0.326100 0.929800 0.338800
C113 C 0.336900 0.799700 0.295100
C114 C 0.466900 0.735900 0.299000
N115 N 0.693200 0.992500 0.435500
C116 C 0.723400 1.140500 0.455200
C117 C 0.861700 1.166300 0.507300
O118 O 0.642100 1.245100 0.430400
C119 C 0.725300 0.734600 0.340400
C120 C 0.787900 0.617100 0.387800
C121 C 0.910300 0.549600 0.375300
C122 C 0.970600 0.603700 0.314700
C123 C 0.914300 0.722100 0.268200
C124 C 0.793200 0.788300 0.281700
N125 N 0.725500 0.558600 0.449600
C126 C 0.737400 0.628600 0.520300
C127 C 0.668100 0.546300 0.579000
O128 O 0.799000 0.748800 0.535800
H129 H 0.438000 1.076000 0.415000
H130 H 0.238000 0.975000 0.334000
H131 H 0.223000 0.758000 0.257000
H132 H 0.472000 0.647000 0.263000
H133 H 0.755000 0.933000 0.457000
H134 H 0.932000 1.185000 0.483000
H135 H 0.916000 1.088000 0.541000
H136 H 0.867000 1.249000 0.544000
H137 H 0.953000 0.456000 0.410000
H138 H 1.048000 0.552000 0.307000
H139 H 0.969000 0.785000 0.221000
H140 H 0.750000 0.863000 0.249000
H141 H 0.696000 0.478000 0.446000
H142 H 0.640000 0.435000 0.568000
H143 H 0.588000 0.584000 0.578000
H144 H 0.732000 0.553000 0.634000

#END
