
#######################################################################
#
#                 Cambridge Crystallographic Data Centre
#                                CCDC 
#
#######################################################################
#
# If this CIF has been generated from an entry in the Cambridge 
# Structural Database, then it will include bibliographic, chemical, 
# crystal, experimental, refinement or atomic coordinate data resulting 
# from the CCDC's data processing and validation procedures.
#
#######################################################################

data_LABXOB
_symmetry_cell_setting           monoclinic
_symmetry_space_group_name_H-M   'P 21'
_symmetry_Int_Tables_number      4
_space_group_name_Hall           'P 2yb'
loop_
_symmetry_equiv_pos_site_id
_symmetry_equiv_pos_as_xyz
1 x,y,z
2 -x,1/2+y,-z
_cell_length_a                   11.2478(10)
_cell_length_b                   7.0880(6)
_cell_length_c                   14.684(2)
_cell_angle_alpha                90
_cell_angle_beta                 99.068(7)
_cell_angle_gamma                90
_cell_volume                     1156.04
loop_
_atom_site_label
_atom_site_type_symbol
_atom_site_fract_x
_atom_site_fract_y
_atom_site_fract_z
C1 C 0.5381(1) 0.2776(3) 0.9840(1)
O1 O 0.5351(1) 0.2500 1.06792(8)
O2 O 0.4540(1) 0.2338(2) 0.91986(8)
C2 C 0.6518(1) 0.3680(3) 0.9566(1)
O3 O 0.7106(1) 0.4875(2) 1.02742(8)
C3 C 0.7419(2) 0.2183(3) 0.9384(1)
C4 C 0.7199(2) 0.0255(3) 0.9446(1)
C5 C 0.8079(2) -0.1053(3) 0.9324(1)
C6 C 0.9193(2) -0.0461(3) 0.9146(1)
C7 C 0.9416(2) 0.1456(3) 0.9074(1)
C8 C 0.8538(2) 0.2764(3) 0.9193(1)
H1 H 0.622(2) 0.440(4) 0.896(1)
H2 H 0.655(2) 0.564(4) 1.043(1)
H3 H 0.636(2) -0.020(4) 0.954(1)
H4 H 0.790(2) -0.245(4) 0.945(1)
H5 H 0.986(2) -0.137(4) 0.910(1)
H6 H 1.021(2) 0.193(4) 0.893(1)
H7 H 0.865(2) 0.410(4) 0.916(1)
C1 C 0.4619(1) 0.7776(3) 0.0160(1)
O1 O 0.4649(1) 0.7500 -0.06792(8)
O2 O 0.5460(1) 0.7338(2) 0.08014(8)
C2 C 0.3482(1) 0.8680(3) 0.0434(1)
O3 O 0.2894(1) 0.9875(2) -0.02742(8)
C3 C 0.2581(2) 0.7183(3) 0.0616(1)
C4 C 0.2801(2) 0.5255(3) 0.0554(1)
C5 C 0.1921(2) 0.3947(3) 0.0676(1)
C6 C 0.0807(2) 0.4539(3) 0.0854(1)
C7 C 0.0584(2) 0.6456(3) 0.0926(1)
C8 C 0.1462(2) 0.7764(3) 0.0807(1)
H1 H 0.378(2) 0.940(4) 0.104(1)
H2 H 0.345(2) 1.064(4) -0.043(1)
H3 H 0.364(2) 0.480(4) 0.046(1)
H4 H 0.210(2) 0.255(4) 0.055(1)
H5 H 0.014(2) 0.363(4) 0.090(1)
H6 H -0.021(2) 0.693(4) 0.107(1)
H7 H 0.135(2) 0.910(4) 0.084(1)
C9 C 0.5177(1) 0.5339(3) 0.6680(1)
C10 C 0.6045(1) 0.6730(3) 0.6533(1)
C11 C 0.6299(2) 0.8369(3) 0.7092(1)
C12 C 0.7125(2) 0.9675(3) 0.6903(1)
C13 C 0.7734(2) 0.9418(3) 0.6138(1)
C14 C 0.7531(2) 0.7846(3) 0.5601(1)
C15 C 0.6694(2) 0.6459(3) 0.5787(1)
N1 N 0.6556(1) 0.4889(3) 0.5233(1)
C16 C 0.5780(2) 0.3609(3) 0.5419(1)
C17 C 0.5067(3) 0.3777(3) 0.6126(1)
C18 C 0.4380(1) 0.5595(3) 0.7417(1)
O4 O 0.3795(1) 0.3882(2) 0.75797(8)
C19 C 0.3440(1) 0.7138(3) 0.7096(1)
C20 C 0.2432(2) 0.6530(3) 0.6320(1)
C21 C 0.1265(2) 0.7523(3) 0.6458(1)
C22 C 0.1542(2) 0.9616(3) 0.6655(1)
C23 C 0.2329(2) 0.9794(3) 0.7613(1)
N2 N 0.2856(1) 0.7884(2) 0.78879(9)
C24 C 0.1866(2) 0.6614(3) 0.8102(1)
C25 C 0.0796(2) 0.6682(3) 0.7303(1)
C26 C 0.0237(2) 0.4777(4) 0.7117(2)
C27 C -0.0929(2) 0.4458(4) 0.7130(2)
H8 H 0.588(2) 0.851(4) 0.766(1)
H9 H 0.732(2) 1.073(4) 0.730(1)
H10 H 0.835(2) 1.049(4) 0.599(1)
H11 H 0.792(2) 0.764(4) 0.506(1)
H12 H 0.571(2) 0.250(4) 0.498(1)
H13 H 0.448(2) 0.280(4) 0.619(1)
H14 H 0.488(2) 0.601(4) 0.802(1)
H15 H 0.415(2) 0.345(4) 0.815(1)
H16 H 0.384(2) 0.824(4) 0.690(1)
H17 H 0.237(2) 0.510(4) 0.632(1)
H18 H 0.265(2) 0.680(4) 0.571(1)
H19 H 0.064(2) 0.737(4) 0.591(1)
H20 H 0.077(2) 1.039(4) 0.664(1)
H21 H 0.197(2) 1.010(4) 0.621(1)
H22 H 0.187(2) 1.016(4) 0.809(1)
H23 H 0.302(2) 1.066(4) 0.760(1)
H24 H 0.347(2) 0.793(4) 0.844(1)
H25 H 0.220(2) 0.537(4) 0.823(1)
H26 H 0.165(2) 0.701(4) 0.870(1)
H27 H 0.020(2) 0.765(4) 0.750(1)
H28 H 0.081(2) 0.379(4) 0.694(1)
H29 H -0.147(2) 0.317(4) 0.702(1)
H30 H -0.082(2) 0.422(4) 0.662(1)
C9 C 0.4823(1) 0.0339(3) 0.3320(1)
C10 C 0.3955(1) 0.1730(3) 0.3467(1)
C11 C 0.3701(2) 0.3369(3) 0.2908(1)
C12 C 0.2875(2) 0.4675(3) 0.3097(1)
C13 C 0.2266(2) 0.4418(3) 0.3862(1)
C14 C 0.2469(2) 0.2846(3) 0.4399(1)
C15 C 0.3306(2) 0.1459(3) 0.4213(1)
N1 N 0.3444(1) -0.0111(3) 0.4767(1)
C16 C 0.4220(2) -0.1391(3) 0.4581(1)
C17 C 0.4933(3) -0.1223(3) 0.3874(1)
C18 C 0.5620(1) 0.0595(3) 0.2583(1)
O4 O 0.6205(1) -0.1118(2) 0.24203(8)
C19 C 0.6560(1) 0.2138(3) 0.2904(1)
C20 C 0.7568(2) 0.1530(3) 0.3680(1)
C21 C 0.8735(2) 0.2523(3) 0.3542(1)
C22 C 0.8458(2) 0.4616(3) 0.3345(1)
C23 C 0.7671(2) 0.4794(3) 0.2387(1)
N2 N 0.7144(1) 0.2884(2) 0.21121(9)
C24 C 0.8134(2) 0.1614(3) 0.1898(1)
C25 C 0.9204(2) 0.1682(3) 0.2697(1)
C26 C 0.9763(2) -0.0223(4) 0.2883(2)
C27 C 1.0929(2) -0.0542(4) 0.2870(2)
H8 H 0.412(2) 0.351(4) 0.234(1)
H9 H 0.268(2) 0.573(4) 0.270(1)
H10 H 0.165(2) 0.549(4) 0.401(1)
H11 H 0.208(2) 0.264(4) 0.494(1)
H12 H 0.429(2) -0.250(4) 0.502(1)
H13 H 0.552(2) -0.220(4) 0.381(1)
H14 H 0.512(2) 0.101(4) 0.198(1)
H15 H 0.585(2) -0.155(4) 0.185(1)
H16 H 0.616(2) 0.324(4) 0.310(1)
H17 H 0.763(2) 0.010(4) 0.368(1)
H18 H 0.735(2) 0.180(4) 0.429(1)
H19 H 0.936(2) 0.237(4) 0.409(1)
H20 H 0.923(2) 0.539(4) 0.336(1)
H21 H 0.803(2) 0.510(4) 0.379(1)
H22 H 0.813(2) 0.516(4) 0.191(1)
H23 H 0.698(2) 0.566(4) 0.240(1)
H24 H 0.653(2) 0.293(4) 0.156(1)
H25 H 0.780(2) 0.037(4) 0.177(1)
H26 H 0.835(2) 0.201(4) 0.130(1)
H27 H 0.980(2) 0.265(4) 0.250(1)
H28 H 0.919(2) -0.121(4) 0.306(1)
H29 H 1.147(2) -0.183(4) 0.298(1)
H30 H 1.082(2) -0.078(4) 0.338(1)

#END
