./LABYIX_from_xyz.cif_generated_by_CrystalShift
_symmetry_cell_setting triclinic
_symmetry_space_group_name_H-M 'P 1'
loop_
_symmetry_equiv_pos_site_id
_symmetry_equiv_pos_as_xyz
1 x,y,z
_cell_length_a 14.108000
_cell_length_b 15.876000
_cell_length_c 9.978000
_cell_angle_alpha 90.000000
_cell_angle_beta 103.033000
_cell_angle_gamma 90.000000
_cell_volume 2177.289329
loop_
_atom_site_label
_atom_site_type_symbol
_atom_site_fract_x
_atom_site_fract_y
_atom_site_fract_z
N1 N 0.626300 -0.039540 0.983600
N2 N 0.653000 -0.080880 1.107600
C3 C 0.677500 -0.026600 1.205700
C4 C 0.666800 0.063400 1.154900
H5 H 0.726600 0.093900 1.184100
H6 H 0.616400 0.092100 1.187500
C7 C 0.639600 0.053600 0.997100
H8 H 0.578900 0.081500 0.960300
C9 C 0.588300 -0.084500 0.864800
C10 C 0.555100 -0.044400 0.739200
H11 H 0.559700 0.015800 0.733200
C12 C 0.515400 -0.091000 0.622800
H13 H 0.492400 -0.062500 0.536800
C14 C 0.508400 -0.177200 0.627700
H15 H 0.480500 -0.208900 0.546500
C16 C 0.542400 -0.217300 0.752800
H17 H 0.538200 -0.277600 0.757700
C18 C 0.582100 -0.172700 0.869600
H19 H 0.605700 -0.201800 0.955000
C20 C 0.711100 -0.053600 1.347200
C21 C 0.733500 -0.138500 1.378500
H22 H 0.726300 -0.178800 1.305200
C23 C 0.765700 -0.164800 1.512600
H24 H 0.780300 -0.223200 1.532000
C25 C 0.777200 -0.106800 1.620500
C26 C 0.755200 -0.021900 1.589500
H27 H 0.761500 0.018500 1.662500
C28 C 0.724800 0.003600 1.455900
H29 H 0.712600 0.062300 1.436400
C30 C 0.716300 0.085900 0.927600
C31 C 0.702300 0.157900 0.844600
H32 H 0.640300 0.185700 0.827200
C33 C 0.774300 0.190200 0.787300
H34 H 0.761400 0.240000 0.731500
C35 C 0.865900 0.152500 0.808100
C36 C 0.880500 0.079600 0.891700
H37 H 0.942400 0.051500 0.909000
C38 C 0.807800 0.048500 0.948300
H39 H 0.820400 -0.001100 1.004600
N40 N 0.937900 0.183620 0.749200
C41 C 0.925100 0.262500 0.672700
H42 H 0.860400 0.264700 0.616000
H43 H 0.970000 0.264300 0.613300
C44 C 0.941800 0.338700 0.767800
H45 H 0.895700 0.338000 0.825400
H46 H 0.933500 0.389300 0.713800
H47 H 1.006600 0.336900 0.824100
C48 C 1.031200 0.141200 0.764700
H49 H 1.051200 0.120000 0.856900
H50 H 1.079000 0.181200 0.750800
C51 C 1.027700 0.069000 0.664700
H52 H 0.978900 0.029400 0.676600
H53 H 1.089900 0.041600 0.681900
H54 H 1.012100 0.090300 0.572300
C55 C 0.811200 -0.134700 1.759700
N56 N 0.840100 -0.159300 1.870300
N57 N 0.626300 0.539540 0.483600
N58 N 0.653000 0.580880 0.607600
C59 C 0.677500 0.526600 0.705700
C60 C 0.666800 0.436600 0.654900
H61 H 0.726600 0.406100 0.684100
H62 H 0.616400 0.407900 0.687500
C63 C 0.639600 0.446400 0.497100
H64 H 0.578900 0.418500 0.460300
C65 C 0.588300 0.584500 0.364800
C66 C 0.555100 0.544400 0.239200
H67 H 0.559700 0.484200 0.233200
C68 C 0.515400 0.591000 0.122800
H69 H 0.492400 0.562500 0.036800
C70 C 0.508400 0.677200 0.127700
H71 H 0.480500 0.708900 0.046500
C72 C 0.542400 0.717300 0.252800
H73 H 0.538200 0.777600 0.257700
C74 C 0.582100 0.672700 0.369600
H75 H 0.605700 0.701800 0.455000
C76 C 0.711100 0.553600 0.847200
C77 C 0.733500 0.638500 0.878500
H78 H 0.726300 0.678800 0.805200
C79 C 0.765700 0.664800 1.012600
H80 H 0.780300 0.723200 1.032000
C81 C 0.777200 0.606800 1.120500
C82 C 0.755200 0.521900 1.089500
H83 H 0.761500 0.481500 1.162500
C84 C 0.724800 0.496400 0.955900
H85 H 0.712600 0.437700 0.936400
C86 C 0.716300 0.414100 0.427600
C87 C 0.702300 0.342100 0.344600
H88 H 0.640300 0.314300 0.327200
C89 C 0.774300 0.309800 0.287300
H90 H 0.761400 0.260000 0.231500
C91 C 0.865900 0.347500 0.308100
C92 C 0.880500 0.420400 0.391700
H93 H 0.942400 0.448500 0.409000
C94 C 0.807800 0.451500 0.448300
H95 H 0.820400 0.501100 0.504600
N96 N 0.937900 0.316380 0.249200
C97 C 0.925100 0.237500 0.172700
H98 H 0.860400 0.235300 0.116000
H99 H 0.970000 0.235700 0.113300
C100 C 0.941800 0.161300 0.267800
H101 H 0.895700 0.162000 0.325400
H102 H 0.933500 0.110700 0.213800
H103 H 1.006600 0.163100 0.324100
C104 C 1.031200 0.358800 0.264700
H105 H 1.051200 0.380000 0.356900
H106 H 1.079000 0.318800 0.250800
C107 C 1.027700 0.431000 0.164700
H108 H 0.978900 0.470600 0.176600
H109 H 1.089900 0.458400 0.181900
H110 H 1.012100 0.409700 0.072300
C111 C 0.811200 0.634700 1.259700
N112 N 0.840100 0.659300 1.370300
N113 N 0.373700 1.039540 0.016400
N114 N 0.347000 1.080880 -0.107600
C115 C 0.322500 1.026600 -0.205700
C116 C 0.333200 0.936600 -0.154900
H117 H 0.273400 0.906100 -0.184100
H118 H 0.383600 0.907900 -0.187500
C119 C 0.360400 0.946400 0.002900
H120 H 0.421100 0.918500 0.039700
C121 C 0.411700 1.084500 0.135200
C122 C 0.444900 1.044400 0.260800
H123 H 0.440300 0.984200 0.266800
C124 C 0.484600 1.091000 0.377200
H125 H 0.507600 1.062500 0.463200
C126 C 0.491600 1.177200 0.372300
H127 H 0.519500 1.208900 0.453500
C128 C 0.457600 1.217300 0.247200
H129 H 0.461800 1.277600 0.242300
C130 C 0.417900 1.172700 0.130400
H131 H 0.394300 1.201800 0.045000
C132 C 0.288900 1.053600 -0.347200
C133 C 0.266500 1.138500 -0.378500
H134 H 0.273700 1.178800 -0.305200
C135 C 0.234300 1.164800 -0.512600
H136 H 0.219700 1.223200 -0.532000
C137 C 0.222800 1.106800 -0.620500
C138 C 0.244800 1.021900 -0.589500
H139 H 0.238500 0.981500 -0.662500
C140 C 0.275200 0.996400 -0.455900
H141 H 0.287400 0.937700 -0.436400
C142 C 0.283700 0.914100 0.072400
C143 C 0.297700 0.842100 0.155400
H144 H 0.359700 0.814300 0.172800
C145 C 0.225700 0.809800 0.212700
H146 H 0.238600 0.760000 0.268500
C147 C 0.134100 0.847500 0.191900
C148 C 0.119500 0.920400 0.108300
H149 H 0.057600 0.948500 0.091000
C150 C 0.192200 0.951500 0.051700
H151 H 0.179600 1.001100 -0.004600
N152 N 0.062100 0.816380 0.250800
C153 C 0.074900 0.737500 0.327300
H154 H 0.139600 0.735300 0.384000
H155 H 0.030000 0.735700 0.386700
C156 C 0.058200 0.661300 0.232200
H157 H 0.104300 0.662000 0.174600
H158 H 0.066500 0.610700 0.286200
H159 H -0.006600 0.663100 0.175900
C160 C -0.031200 0.858800 0.235300
H161 H -0.051200 0.880000 0.143100
H162 H -0.079000 0.818800 0.249200
C163 C -0.027700 0.931000 0.335300
H164 H 0.021100 0.970600 0.323400
H165 H -0.089900 0.958400 0.318100
H166 H -0.012100 0.909700 0.427700
C167 C 0.188800 1.134700 -0.759700
N168 N 0.159900 1.159300 -0.870300
N169 N 0.373700 0.460460 0.516400
N170 N 0.347000 0.419120 0.392400
C171 C 0.322500 0.473400 0.294300
C172 C 0.333200 0.563400 0.345100
H173 H 0.273400 0.593900 0.315900
H174 H 0.383600 0.592100 0.312500
C175 C 0.360400 0.553600 0.502900
H176 H 0.421100 0.581500 0.539700
C177 C 0.411700 0.415500 0.635200
C178 C 0.444900 0.455600 0.760800
H179 H 0.440300 0.515800 0.766800
C180 C 0.484600 0.409000 0.877200
H181 H 0.507600 0.437500 0.963200
C182 C 0.491600 0.322800 0.872300
H183 H 0.519500 0.291100 0.953500
C184 C 0.457600 0.282700 0.747200
H185 H 0.461800 0.222400 0.742300
C186 C 0.417900 0.327300 0.630400
H187 H 0.394300 0.298200 0.545000
C188 C 0.288900 0.446400 0.152800
C189 C 0.266500 0.361500 0.121500
H190 H 0.273700 0.321200 0.194800
C191 C 0.234300 0.335200 -0.012600
H192 H 0.219700 0.276800 -0.032000
C193 C 0.222800 0.393200 -0.120500
C194 C 0.244800 0.478100 -0.089500
H195 H 0.238500 0.518500 -0.162500
C196 C 0.275200 0.503600 0.044100
H197 H 0.287400 0.562300 0.063600
C198 C 0.283700 0.585900 0.572400
C199 C 0.297700 0.657900 0.655400
H200 H 0.359700 0.685700 0.672800
C201 C 0.225700 0.690200 0.712700
H202 H 0.238600 0.740000 0.768500
C203 C 0.134100 0.652500 0.691900
C204 C 0.119500 0.579600 0.608300
H205 H 0.057600 0.551500 0.591000
C206 C 0.192200 0.548500 0.551700
H207 H 0.179600 0.498900 0.495400
N208 N 0.062100 0.683620 0.750800
C209 C 0.074900 0.762500 0.827300
H210 H 0.139600 0.764700 0.884000
H211 H 0.030000 0.764300 0.886700
C212 C 0.058200 0.838700 0.732200
H213 H 0.104300 0.838000 0.674600
H214 H 0.066500 0.889300 0.786200
H215 H -0.006600 0.836900 0.675900
C216 C -0.031200 0.641200 0.735300
H217 H -0.051200 0.620000 0.643100
H218 H -0.079000 0.681200 0.749200
C219 C -0.027700 0.569000 0.835300
H220 H 0.021100 0.529400 0.823400
H221 H -0.089900 0.541600 0.818100
H222 H -0.012100 0.590300 0.927700
C223 C 0.188800 0.365300 -0.259700
N224 N 0.159900 0.340700 -0.370300

#END
