./LABZET_from_xyz.cif_generated_by_CrystalShift
_symmetry_cell_setting triclinic
_symmetry_space_group_name_H-M 'P 1'
loop_
_symmetry_equiv_pos_site_id
_symmetry_equiv_pos_as_xyz
1 x,y,z
_cell_length_a 13.451000
_cell_length_b 7.007000
_cell_length_c 17.864000
_cell_angle_alpha 90.000000
_cell_angle_beta 117.260000
_cell_angle_gamma 90.000000
_cell_volume 1496.705923
loop_
_atom_site_label
_atom_site_type_symbol
_atom_site_fract_x
_atom_site_fract_y
_atom_site_fract_z
N1 N 0.748300 0.206300 0.586900
N2 N 1.032600 0.134600 0.823760
O3 O 0.563800 -0.257300 0.319020
O4 O 0.566540 0.320800 0.457070
C5 C 0.973900 0.153600 0.599300
C6 C 0.951100 0.152000 0.668900
C7 C 0.601200 -0.155400 0.382000
C8 C 1.081300 0.143700 0.610000
C9 C 0.557600 0.034200 0.381600
C10 C 1.171900 0.130900 0.691700
C11 C 0.602300 0.146300 0.449200
C12 C 0.461700 0.383800 0.388700
C13 C 1.154200 0.127800 0.760200
C14 C 1.043500 0.138800 0.752200
C15 C 0.702600 0.083200 0.526900
C16 C 0.914100 0.132400 0.890000
C17 C 0.928000 0.140100 0.815500
C18 C 0.740800 -0.112700 0.529200
C19 C 0.810400 0.136300 0.885600
C20 C 0.692900 -0.225900 0.462100
C21 C 0.714100 0.151500 0.807000
C22 C 0.722700 0.161600 0.734700
C23 C 0.830100 0.156300 0.736400
C24 C 0.843400 0.163500 0.663200
H25 H 0.917000 0.156000 0.545000
H26 H 1.094000 0.136000 0.559000
H27 H 0.495000 0.070000 0.327000
H28 H 1.243000 0.125000 0.698000
H29 H 1.215000 0.116000 0.819000
H30 H 0.984000 0.123000 0.942000
H31 H 0.801000 -0.154000 0.578000
H32 H 0.805000 0.121000 0.941000
H33 H 0.722000 -0.360000 0.465000
H34 H 0.643000 0.154000 0.804000
H35 H 0.662000 0.174000 0.680000
H36 H 0.468000 0.412000 0.336000
H37 H 0.404000 0.281000 0.378000
H38 H 0.441000 0.504000 0.409000
N39 N 0.251700 0.706300 0.913100
N40 N -0.032600 0.634600 0.676240
O41 O 0.436200 0.242700 1.180980
O42 O 0.433460 0.820800 1.042930
C43 C 0.026100 0.653600 0.900700
C44 C 0.048900 0.652000 0.831100
C45 C 0.398800 0.344600 1.118000
C46 C -0.081300 0.643700 0.890000
C47 C 0.442400 0.534200 1.118400
C48 C -0.171900 0.630900 0.808300
C49 C 0.397700 0.646300 1.050800
C50 C 0.538300 0.883800 1.111300
C51 C -0.154200 0.627800 0.739800
C52 C -0.043500 0.638800 0.747800
C53 C 0.297400 0.583200 0.973100
C54 C 0.085900 0.632400 0.610000
C55 C 0.072000 0.640100 0.684500
C56 C 0.259200 0.387300 0.970800
C57 C 0.189600 0.636300 0.614400
C58 C 0.307100 0.274100 1.037900
C59 C 0.285900 0.651500 0.693000
C60 C 0.277300 0.661600 0.765300
C61 C 0.169900 0.656300 0.763600
C62 C 0.156600 0.663500 0.836800
H63 H 0.083000 0.656000 0.955000
H64 H -0.094000 0.636000 0.941000
H65 H 0.505000 0.570000 1.173000
H66 H -0.243000 0.625000 0.802000
H67 H -0.215000 0.616000 0.681000
H68 H 0.016000 0.623000 0.558000
H69 H 0.199000 0.346000 0.922000
H70 H 0.195000 0.621000 0.559000
H71 H 0.278000 0.140000 1.035000
H72 H 0.357000 0.654000 0.696000
H73 H 0.338000 0.674000 0.820000
H74 H 0.532000 0.912000 1.164000
H75 H 0.596000 0.781000 1.122000
H76 H 0.559000 1.004000 1.091000
N77 N 0.251700 0.793700 0.413100
N78 N -0.032600 0.865400 0.176240
O79 O 0.436200 1.257300 0.680980
O80 O 0.433460 0.679200 0.542930
C81 C 0.026100 0.846400 0.400700
C82 C 0.048900 0.848000 0.331100
C83 C 0.398800 1.155400 0.618000
C84 C -0.081300 0.856300 0.390000
C85 C 0.442400 0.965800 0.618400
C86 C -0.171900 0.869100 0.308300
C87 C 0.397700 0.853700 0.550800
C88 C 0.538300 0.616200 0.611300
C89 C -0.154200 0.872200 0.239800
C90 C -0.043500 0.861200 0.247800
C91 C 0.297400 0.916800 0.473100
C92 C 0.085900 0.867600 0.110000
C93 C 0.072000 0.859900 0.184500
C94 C 0.259200 1.112700 0.470800
C95 C 0.189600 0.863700 0.114400
C96 C 0.307100 1.225900 0.537900
C97 C 0.285900 0.848500 0.193000
C98 C 0.277300 0.838400 0.265300
C99 C 0.169900 0.843700 0.263600
C100 C 0.156600 0.836500 0.336800
H101 H 0.083000 0.844000 0.455000
H102 H -0.094000 0.864000 0.441000
H103 H 0.505000 0.930000 0.673000
H104 H -0.243000 0.875000 0.302000
H105 H -0.215000 0.884000 0.181000
H106 H 0.016000 0.877000 0.058000
H107 H 0.199000 1.154000 0.422000
H108 H 0.195000 0.879000 0.059000
H109 H 0.278000 1.360000 0.535000
H110 H 0.357000 0.846000 0.196000
H111 H 0.338000 0.826000 0.320000
H112 H 0.532000 0.588000 0.664000
H113 H 0.596000 0.719000 0.622000
H114 H 0.559000 0.496000 0.591000
N115 N 0.748300 0.293700 0.086900
N116 N 1.032600 0.365400 0.323760
O117 O 0.563800 0.757300 -0.180980
O118 O 0.566540 0.179200 -0.042930
C119 C 0.973900 0.346400 0.099300
C120 C 0.951100 0.348000 0.168900
C121 C 0.601200 0.655400 -0.118000
C122 C 1.081300 0.356300 0.110000
C123 C 0.557600 0.465800 -0.118400
C124 C 1.171900 0.369100 0.191700
C125 C 0.602300 0.353700 -0.050800
C126 C 0.461700 0.116200 -0.111300
C127 C 1.154200 0.372200 0.260200
C128 C 1.043500 0.361200 0.252200
C129 C 0.702600 0.416800 0.026900
C130 C 0.914100 0.367600 0.390000
C131 C 0.928000 0.359900 0.315500
C132 C 0.740800 0.612700 0.029200
C133 C 0.810400 0.363700 0.385600
C134 C 0.692900 0.725900 -0.037900
C135 C 0.714100 0.348500 0.307000
C136 C 0.722700 0.338400 0.234700
C137 C 0.830100 0.343700 0.236400
C138 C 0.843400 0.336500 0.163200
H139 H 0.917000 0.344000 0.045000
H140 H 1.094000 0.364000 0.059000
H141 H 0.495000 0.430000 -0.173000
H142 H 1.243000 0.375000 0.198000
H143 H 1.215000 0.384000 0.319000
H144 H 0.984000 0.377000 0.442000
H145 H 0.801000 0.654000 0.078000
H146 H 0.805000 0.379000 0.441000
H147 H 0.722000 0.860000 -0.035000
H148 H 0.643000 0.346000 0.304000
H149 H 0.662000 0.326000 0.180000
H150 H 0.468000 0.088000 -0.164000
H151 H 0.404000 0.219000 -0.122000
H152 H 0.441000 -0.004000 -0.091000

#END
