./LACFEB_from_xyz.cif_generated_by_CrystalShift
_symmetry_cell_setting triclinic
_symmetry_space_group_name_H-M 'P 1'
loop_
_symmetry_equiv_pos_site_id
_symmetry_equiv_pos_as_xyz
1 x,y,z
_cell_length_a 10.930000
_cell_length_b 6.030000
_cell_length_c 28.642000
_cell_angle_alpha 90.000000
_cell_angle_beta 90.000000
_cell_angle_gamma 90.000000
_cell_volume 1887.734072
loop_
_atom_site_label
_atom_site_type_symbol
_atom_site_fract_x
_atom_site_fract_y
_atom_site_fract_z
Cl1 Cl 0.259700 0.379300 -0.008600
Cl2 Cl 0.109800 -0.068900 0.015700
S3 S 0.347000 0.366200 0.089200
O4 O 0.473000 0.393000 0.090500
O5 O 0.443000 -0.080000 0.050800
O6 O 0.451600 0.080000 -0.016300
O7 O 0.135000 -0.115000 0.168400
O8 O 0.021600 -0.164000 0.110000
O9 O 0.267100 0.560000 0.090900
N10 N 0.414000 0.061000 0.021500
N11 N 0.110000 -0.098000 0.126200
C12 C 0.298000 0.204000 0.036700
C13 C 0.198000 0.065000 0.054400
C14 C 0.197000 0.039000 0.101700
C15 C 0.292000 0.172000 0.129600
H16 H 0.237300 0.213500 0.163100
H17 H 0.365700 0.099900 0.143700
Cl18 Cl 0.240300 0.620700 0.491400
Cl19 Cl 0.390200 1.068900 0.515700
S20 S 0.153000 0.633800 0.589200
O21 O 0.027000 0.607000 0.590500
O22 O 0.057000 1.080000 0.550800
O23 O 0.048400 0.920000 0.483700
O24 O 0.365000 1.115000 0.668400
O25 O 0.478400 1.164000 0.610000
O26 O 0.232900 0.440000 0.590900
N27 N 0.086000 0.939000 0.521500
N28 N 0.390000 1.098000 0.626200
C29 C 0.202000 0.796000 0.536700
C30 C 0.302000 0.935000 0.554400
C31 C 0.303000 0.961000 0.601700
C32 C 0.208000 0.828000 0.629600
H33 H 0.262700 0.786500 0.663100
H34 H 0.134300 0.900100 0.643700
Cl35 Cl 0.759700 0.120700 1.008600
Cl36 Cl 0.609800 0.568900 0.984300
S37 S 0.847000 0.133800 0.910800
O38 O 0.973000 0.107000 0.909500
O39 O 0.943000 0.580000 0.949200
O40 O 0.951600 0.420000 1.016300
O41 O 0.635000 0.615000 0.831600
O42 O 0.521600 0.664000 0.890000
O43 O 0.767100 -0.060000 0.909100
N44 N 0.914000 0.439000 0.978500
N45 N 0.610000 0.598000 0.873800
C46 C 0.798000 0.296000 0.963300
C47 C 0.698000 0.435000 0.945600
C48 C 0.697000 0.461000 0.898300
C49 C 0.792000 0.328000 0.870400
H50 H 0.737300 0.286500 0.836900
H51 H 0.865700 0.400100 0.856300
Cl52 Cl 0.740300 0.879300 0.508600
Cl53 Cl 0.890200 0.431100 0.484300
S54 S 0.653000 0.866200 0.410800
O55 O 0.527000 0.893000 0.409500
O56 O 0.557000 0.420000 0.449200
O57 O 0.548400 0.580000 0.516300
O58 O 0.865000 0.385000 0.331600
O59 O 0.978400 0.336000 0.390000
O60 O 0.732900 1.060000 0.409100
N61 N 0.586000 0.561000 0.478500
N62 N 0.890000 0.402000 0.373800
C63 C 0.702000 0.704000 0.463300
C64 C 0.802000 0.565000 0.445600
C65 C 0.803000 0.539000 0.398300
C66 C 0.708000 0.672000 0.370400
H67 H 0.762700 0.713500 0.336900
H68 H 0.634300 0.599900 0.356300
Cl69 Cl 0.651100 1.055600 0.144300
Cl70 Cl 0.740000 0.610600 0.092200
S71 S 0.776200 0.880600 0.228800
O72 O 0.699000 0.871000 0.267600
O73 O 0.847800 1.081000 0.218200
O74 O 0.591100 0.515000 0.209100
O75 O 0.474300 0.777000 0.184700
O76 O 1.042100 0.386000 0.182000
O77 O 0.939000 0.336000 0.120700
N78 N 0.567000 0.695000 0.189700
N79 N 0.951800 0.420000 0.158200
C80 C 0.686000 0.811000 0.175600
C81 C 0.771000 0.659000 0.148800
C82 C 0.860000 0.579000 0.175400
C83 C 0.873000 0.627000 0.224100
H84 H 0.981700 0.672000 0.238000
H85 H 0.855100 0.497300 0.243000
Cl86 Cl 0.848900 -0.055600 0.644300
Cl87 Cl 0.760000 0.389400 0.592200
S88 S 0.723800 0.119400 0.728800
O89 O 0.801000 0.129000 0.767600
O90 O 0.652200 -0.081000 0.718200
O91 O 0.908900 0.485000 0.709100
O92 O 1.025700 0.223000 0.684700
O93 O 0.457900 0.614000 0.682000
O94 O 0.561000 0.664000 0.620700
N95 N 0.933000 0.305000 0.689700
N96 N 0.548200 0.580000 0.658200
C97 C 0.814000 0.189000 0.675600
C98 C 0.729000 0.341000 0.648800
C99 C 0.640000 0.421000 0.675400
C100 C 0.627000 0.373000 0.724100
H101 H 0.518300 0.328000 0.738000
H102 H 0.644900 0.502700 0.743000
Cl103 Cl 0.151100 0.444400 0.855700
Cl104 Cl 0.240000 0.889400 0.907800
S105 S 0.276200 0.619400 0.771200
O106 O 0.199000 0.629000 0.732400
O107 O 0.347800 0.419000 0.781800
O108 O 0.091100 0.985000 0.790900
O109 O -0.025700 0.723000 0.815300
O110 O 0.542100 1.114000 0.818000
O111 O 0.439000 1.164000 0.879300
N112 N 0.067000 0.805000 0.810300
N113 N 0.451800 1.080000 0.841800
C114 C 0.186000 0.689000 0.824400
C115 C 0.271000 0.841000 0.851200
C116 C 0.360000 0.921000 0.824600
C117 C 0.373000 0.873000 0.775900
H118 H 0.481700 0.828000 0.762000
H119 H 0.355100 1.002700 0.757000
Cl120 Cl 0.348900 0.555600 0.355700
Cl121 Cl 0.260000 0.110600 0.407800
S122 S 0.223800 0.380600 0.271200
O123 O 0.301000 0.371000 0.232400
O124 O 0.152200 0.581000 0.281800
O125 O 0.408900 0.015000 0.290900
O126 O 0.525700 0.277000 0.315300
O127 O -0.042100 -0.114000 0.318000
O128 O 0.061000 -0.164000 0.379300
N129 N 0.433000 0.195000 0.310300
N130 N 0.048200 -0.080000 0.341800
C131 C 0.314000 0.311000 0.324400
C132 C 0.229000 0.159000 0.351200
C133 C 0.140000 0.079000 0.324600
C134 C 0.127000 0.127000 0.275900
H135 H 0.018300 0.172000 0.262000
H136 H 0.144900 -0.002700 0.257000

#END
