
#######################################################################
#
#                 Cambridge Crystallographic Data Centre
#                                CCDC 
#
#######################################################################
#
# If this CIF has been generated from an entry in the Cambridge 
# Structural Database, then it will include bibliographic, chemical, 
# crystal, experimental, refinement or atomic coordinate data resulting 
# from the CCDC's data processing and validation procedures.
#
#######################################################################

data_LACJAD
_symmetry_cell_setting           orthorhombic
_symmetry_space_group_name_H-M   'P 21 21 21'
_symmetry_Int_Tables_number      19
_space_group_name_Hall           'P 2ac 2ab'
loop_
_symmetry_equiv_pos_site_id
_symmetry_equiv_pos_as_xyz
1 x,y,z
2 1/2-x,-y,1/2+z
3 -x,1/2+y,1/2-z
4 1/2+x,1/2-y,-z
_cell_length_a                   4.6985(4)
_cell_length_b                   16.2304(13)
_cell_length_c                   19.7042(15)
_cell_angle_alpha                90
_cell_angle_beta                 90
_cell_angle_gamma                90
_cell_volume                     1502.61
loop_
_atom_site_label
_atom_site_type_symbol
_atom_site_fract_x
_atom_site_fract_y
_atom_site_fract_z
S1 S 0.58310(13) 0.14898(3) 0.22459(3)
N1 N 0.2627(5) 0.01362(14) 0.26337(9)
H1 H 0.2170 -0.0177 0.2968
O1 O -0.0770(4) -0.05418(9) 0.20198(7)
N2 N 0.4717(4) 0.16190(11) 0.09601(8)
C1 C 0.7512(5) 0.22620(13) 0.17926(11)
C2 C 0.9493(6) 0.28406(14) 0.20142(12)
H2 H 1.0066 0.2856 0.2466
C3 C 1.0579(6) 0.33878(14) 0.15502(12)
H3 H 1.1926 0.3773 0.1688
C4 C 0.9689(6) 0.33731(15) 0.08752(13)
H4 H 1.0439 0.3753 0.0571
C5 C 0.7730(6) 0.28093(14) 0.06523(12)
H5 H 0.7139 0.2808 0.0202
C6 C 0.6633(5) 0.22357(13) 0.11134(10)
C7 C 0.4091(5) 0.11883(12) 0.14973(10)
C8 C 0.2062(5) 0.05047(13) 0.14630(10)
C9 C 0.0841(5) 0.02953(12) 0.08666(10)
H6 H 0.1326 0.0588 0.0478
C10 C -0.1177(5) -0.03623(12) 0.08150(10)
C11 C -0.2418(5) -0.06418(13) 0.01878(11)
C12 C -0.1605(6) -0.03337(14) -0.04541(11)
H7 H -0.0247 0.0082 -0.0481
C13 C -0.2786(6) -0.06382(16) -0.10376(12)
H8 H -0.2205 -0.0432 -0.1456
C14 C -0.4859(6) -0.12568(16) -0.10113(13)
H9 H -0.5665 -0.1455 -0.1410
C15 C -0.5692(6) -0.15670(15) -0.04031(13)
H10 H -0.7078 -0.1976 -0.0390
C16 C -0.4494(5) -0.12809(13) 0.02111(12)
C17 C -0.5283(5) -0.16246(14) 0.08478(13)
H11 H -0.6673 -0.2032 0.0863
C18 C -0.4052(5) -0.13709(13) 0.14331(12)
H12 H -0.4571 -0.1606 0.1845
C19 C -0.1975(5) -0.07468(13) 0.14081(11)
C20 C 0.1383(5) 0.00325(14) 0.20742(10)
S1 S -0.08310(13) 0.85102(3) 0.72459(3)
N1 N 0.2373(5) 0.98638(14) 0.76337(9)
H1 H 0.2830 1.0177 0.7968
O1 O 0.5770(4) 1.05418(9) 0.70198(7)
N2 N 0.0283(4) 0.83810(11) 0.59601(8)
C1 C -0.2512(5) 0.77380(13) 0.67926(11)
C2 C -0.4493(6) 0.71594(14) 0.70142(12)
H2 H -0.5066 0.7144 0.7466
C3 C -0.5579(6) 0.66122(14) 0.65502(12)
H3 H -0.6926 0.6227 0.6688
C4 C -0.4689(6) 0.66269(15) 0.58752(13)
H4 H -0.5439 0.6247 0.5571
C5 C -0.2730(6) 0.71907(14) 0.56523(12)
H5 H -0.2139 0.7192 0.5202
C6 C -0.1633(5) 0.77643(13) 0.61134(10)
C7 C 0.0909(5) 0.88117(12) 0.64973(10)
C8 C 0.2938(5) 0.94953(13) 0.64630(10)
C9 C 0.4159(5) 0.97047(12) 0.58666(10)
H6 H 0.3674 0.9412 0.5478
C10 C 0.6177(5) 1.03623(12) 0.58150(10)
C11 C 0.7418(5) 1.06418(13) 0.51878(11)
C12 C 0.6605(6) 1.03337(14) 0.45459(11)
H7 H 0.5247 0.9918 0.4519
C13 C 0.7786(6) 1.06382(16) 0.39624(12)
H8 H 0.7205 1.0432 0.3544
C14 C 0.9859(6) 1.12568(16) 0.39887(13)
H9 H 1.0665 1.1455 0.3590
C15 C 1.0692(6) 1.15670(15) 0.45969(13)
H10 H 1.2078 1.1976 0.4610
C16 C 0.9494(5) 1.12809(13) 0.52111(12)
C17 C 1.0283(5) 1.16246(14) 0.58478(13)
H11 H 1.1673 1.2032 0.5863
C18 C 0.9052(5) 1.13709(13) 0.64331(12)
H12 H 0.9571 1.1606 0.6845
C19 C 0.6975(5) 1.07468(13) 0.64081(11)
C20 C 0.3617(5) 0.99675(14) 0.70742(10)
S1 S 0.41690(13) 0.64898(3) 0.27541(3)
N1 N 0.7373(5) 0.51362(14) 0.23663(9)
H1 H 0.7830 0.4823 0.2032
O1 O 1.0770(4) 0.44582(9) 0.29802(7)
N2 N 0.5283(4) 0.66190(11) 0.40399(8)
C1 C 0.2488(5) 0.72620(13) 0.32074(11)
C2 C 0.0507(6) 0.78406(14) 0.29858(12)
H2 H -0.0066 0.7856 0.2534
C3 C -0.0579(6) 0.83878(14) 0.34498(12)
H3 H -0.1926 0.8773 0.3312
C4 C 0.0311(6) 0.83731(15) 0.41248(13)
H4 H -0.0439 0.8753 0.4429
C5 C 0.2270(6) 0.78093(14) 0.43477(12)
H5 H 0.2861 0.7808 0.4798
C6 C 0.3367(5) 0.72357(13) 0.38866(10)
C7 C 0.5909(5) 0.61883(12) 0.35027(10)
C8 C 0.7938(5) 0.55047(13) 0.35370(10)
C9 C 0.9159(5) 0.52953(12) 0.41334(10)
H6 H 0.8674 0.5588 0.4522
C10 C 1.1177(5) 0.46377(12) 0.41850(10)
C11 C 1.2418(5) 0.43582(13) 0.48122(11)
C12 C 1.1605(6) 0.46663(14) 0.54541(11)
H7 H 1.0247 0.5082 0.5481
C13 C 1.2786(6) 0.43618(16) 0.60376(12)
H8 H 1.2205 0.4568 0.6456
C14 C 1.4859(6) 0.37432(16) 0.60113(13)
H9 H 1.5665 0.3545 0.6410
C15 C 1.5692(6) 0.34330(15) 0.54031(13)
H10 H 1.7078 0.3024 0.5390
C16 C 1.4494(5) 0.37191(13) 0.47889(12)
C17 C 1.5283(5) 0.33754(14) 0.41522(13)
H11 H 1.6673 0.2968 0.4137
C18 C 1.4052(5) 0.36291(13) 0.35669(12)
H12 H 1.4571 0.3394 0.3155
C19 C 1.1975(5) 0.42532(13) 0.35919(11)
C20 C 0.8617(5) 0.50325(14) 0.29258(10)
S1 S 1.08310(13) 0.35102(3) 0.77541(3)
N1 N 0.7627(5) 0.48638(14) 0.73663(9)
H1 H 0.7170 0.5177 0.7032
O1 O 0.4230(4) 0.55418(9) 0.79802(7)
N2 N 0.9717(4) 0.33810(11) 0.90399(8)
C1 C 1.2512(5) 0.27380(13) 0.82074(11)
C2 C 1.4493(6) 0.21594(14) 0.79858(12)
H2 H 1.5066 0.2144 0.7534
C3 C 1.5579(6) 0.16122(14) 0.84498(12)
H3 H 1.6926 0.1227 0.8312
C4 C 1.4689(6) 0.16269(15) 0.91248(13)
H4 H 1.5439 0.1247 0.9429
C5 C 1.2730(6) 0.21907(14) 0.93477(12)
H5 H 1.2139 0.2192 0.9798
C6 C 1.1633(5) 0.27643(13) 0.88866(10)
C7 C 0.9091(5) 0.38117(12) 0.85027(10)
C8 C 0.7062(5) 0.44953(13) 0.85370(10)
C9 C 0.5841(5) 0.47047(12) 0.91334(10)
H6 H 0.6326 0.4412 0.9522
C10 C 0.3823(5) 0.53623(12) 0.91850(10)
C11 C 0.2582(5) 0.56418(13) 0.98122(11)
C12 C 0.3395(6) 0.53337(14) 1.04541(11)
H7 H 0.4753 0.4918 1.0481
C13 C 0.2214(6) 0.56382(16) 1.10376(12)
H8 H 0.2795 0.5432 1.1456
C14 C 0.0141(6) 0.62568(16) 1.10113(13)
H9 H -0.0665 0.6455 1.1410
C15 C -0.0692(6) 0.65670(15) 1.04031(13)
H10 H -0.2078 0.6976 1.0390
C16 C 0.0506(5) 0.62809(13) 0.97889(12)
C17 C -0.0283(5) 0.66246(14) 0.91522(13)
H11 H -0.1673 0.7032 0.9137
C18 C 0.0948(5) 0.63709(13) 0.85669(12)
H12 H 0.0429 0.6606 0.8155
C19 C 0.3025(5) 0.57468(13) 0.85919(11)
C20 C 0.6383(5) 0.49675(14) 0.79258(10)

#END
