
#######################################################################
#
#                 Cambridge Crystallographic Data Centre
#                                CCDC 
#
#######################################################################
#
# If this CIF has been generated from an entry in the Cambridge 
# Structural Database, then it will include bibliographic, chemical, 
# crystal, experimental, refinement or atomic coordinate data resulting 
# from the CCDC's data processing and validation procedures.
#
#######################################################################

data_LACROZ
_symmetry_cell_setting           triclinic
_symmetry_space_group_name_H-M   'P -1'
_symmetry_Int_Tables_number      2
_space_group_name_Hall           '-P 1'
loop_
_symmetry_equiv_pos_site_id
_symmetry_equiv_pos_as_xyz
1 x,y,z
2 -x,-y,-z
_cell_length_a                   15.3203(2)
_cell_length_b                   15.5925(2)
_cell_length_c                   19.8315(3)
_cell_angle_alpha                87.2838(12)
_cell_angle_beta                 81.2554(13)
_cell_angle_gamma                82.7604(12)
_cell_volume                     4643.06
loop_
_atom_site_label
_atom_site_type_symbol
_atom_site_fract_x
_atom_site_fract_y
_atom_site_fract_z
Br1 Br 0.68446(3) 0.93350(2) 0.28764(2)
Br2 Br 0.05353(2) 0.79764(2) 0.540770(19)
Br3 Br 0.86032(3) 0.02891(2) -0.06789(2)
Br4 Br 0.28501(2) -0.16682(2) 0.21857(2)
N1 N 0.40284(15) 0.68743(14) 0.35849(12)
N2 N 0.53989(16) 0.10588(15) 0.15238(13)
C1 C 0.45753(17) 0.43846(16) 0.27296(14)
C2 C 0.52027(18) 0.47303(16) 0.30456(14)
H1 H 0.5763 0.4400 0.3070
C3 C 0.50263(18) 0.55458(16) 0.33260(14)
H2 H 0.5465 0.5766 0.3537
C4 C 0.42102(17) 0.60391(16) 0.32985(14)
C5 C 0.35772(18) 0.57042(17) 0.29874(14)
H3 H 0.3016 0.6033 0.2966
C6 C 0.37640(18) 0.48877(17) 0.27070(14)
H4 H 0.3325 0.4669 0.2495
C7 C 0.47848(17) 0.35251(16) 0.24137(13)
C8 C 0.56633(18) 0.31652(17) 0.22157(14)
H5 H 0.6133 0.3486 0.2274
C9 C 0.58698(19) 0.23525(18) 0.19365(16)
H6 H 0.6474 0.2114 0.1826
C10 C 0.51925(19) 0.18833(16) 0.18173(14)
C11 C 0.43112(19) 0.22408(17) 0.19978(15)
H7 H 0.3842 0.1933 0.1916
C12 C 0.41132(18) 0.30428(17) 0.22967(15)
H8 H 0.3508 0.3270 0.2425
C13 C 0.46836(18) 0.74538(16) 0.34183(15)
C14 C 0.48997(18) 0.79591(17) 0.39238(15)
H9 H 0.4612 0.7912 0.4381
C15 C 0.55322(19) 0.85264(17) 0.37558(16)
H10 H 0.5672 0.8876 0.4095
C16 C 0.59584(19) 0.85789(18) 0.30915(17)
C17 C 0.57590(19) 0.80820(18) 0.25830(15)
H11 H 0.6058 0.8123 0.2129
C18 C 0.51117(18) 0.75237(17) 0.27531(14)
H12 H 0.4962 0.7187 0.2410
C19 C 0.32171(17) 0.71216(16) 0.39946(14)
C20 C 0.28778(19) 0.79994(17) 0.40657(15)
H13 H 0.3198 0.8430 0.3824
C21 C 0.20873(19) 0.82443(17) 0.44809(16)
H14 H 0.1867 0.8839 0.4526
C22 C 0.16152(18) 0.76197(18) 0.48326(15)
C23 C 0.19222(18) 0.67459(17) 0.47669(15)
H15 H 0.1589 0.6320 0.5002
C24 C 0.27208(18) 0.65048(16) 0.43533(14)
H16 H 0.2937 0.5908 0.4312
C25 C 0.61425(19) 0.08868(17) 0.10131(15)
C26 C 0.6648(2) 0.00753(18) 0.09939(16)
H17 H 0.6490 -0.0361 0.1325
C27 C 0.7379(2) -0.00965(19) 0.04950(17)
H18 H 0.7723 -0.0648 0.0483
C28 C 0.7603(2) 0.0539(2) 0.00161(18)
C29 C 0.7112(2) 0.13519(19) 0.00212(17)
H19 H 0.7274 0.1784 -0.0312
C30 C 0.6381(2) 0.15191(17) 0.05209(16)
H20 H 0.6038 0.2071 0.0529
C31 C 0.47938(19) 0.04333(17) 0.16851(16)
C32 C 0.4455(2) 0.02458(18) 0.23597(16)
H21 H 0.4630 0.0539 0.2717
C33 C 0.3863(2) -0.03645(19) 0.25167(17)
H22 H 0.3625 -0.0486 0.2977
C34 C 0.3627(2) -0.07951(18) 0.19850(18)
C35 C 0.3947(2) -0.06108(19) 0.13166(18)
H23 H 0.3769 -0.0905 0.0961
C36 C 0.4529(2) 0.00058(19) 0.11622(17)
H24 H 0.4749 0.0138 0.0700
Br1 Br 0.31554(3) 0.06650(2) 0.71236(2)
Br2 Br 0.94647(2) 0.20236(2) 0.459230(19)
Br3 Br 0.13968(3) 0.97109(2) 1.06789(2)
Br4 Br 0.71499(2) 1.16682(2) 0.78143(2)
N1 N 0.59716(15) 0.31257(14) 0.64151(12)
N2 N 0.46011(16) 0.89412(15) 0.84762(13)
C1 C 0.54247(17) 0.56154(16) 0.72704(14)
C2 C 0.47973(18) 0.52697(16) 0.69544(14)
H1 H 0.4237 0.5600 0.6930
C3 C 0.49737(18) 0.44542(16) 0.66740(14)
H2 H 0.4535 0.4234 0.6463
C4 C 0.57898(17) 0.39609(16) 0.67015(14)
C5 C 0.64228(18) 0.42958(17) 0.70126(14)
H3 H 0.6984 0.3967 0.7034
C6 C 0.62360(18) 0.51123(17) 0.72930(14)
H4 H 0.6675 0.5331 0.7505
C7 C 0.52152(17) 0.64749(16) 0.75863(13)
C8 C 0.43367(18) 0.68348(17) 0.77843(14)
H5 H 0.3867 0.6514 0.7726
C9 C 0.41302(19) 0.76475(18) 0.80635(16)
H6 H 0.3526 0.7886 0.8174
C10 C 0.48075(19) 0.81167(16) 0.81827(14)
C11 C 0.56888(19) 0.77592(17) 0.80022(15)
H7 H 0.6158 0.8067 0.8084
C12 C 0.58868(18) 0.69572(17) 0.77033(15)
H8 H 0.6492 0.6730 0.7575
C13 C 0.53164(18) 0.25462(16) 0.65817(15)
C14 C 0.51003(18) 0.20409(17) 0.60762(15)
H9 H 0.5388 0.2088 0.5619
C15 C 0.44678(19) 0.14736(17) 0.62442(16)
H10 H 0.4328 0.1124 0.5905
C16 C 0.40416(19) 0.14211(18) 0.69085(17)
C17 C 0.42410(19) 0.19180(18) 0.74170(15)
H11 H 0.3942 0.1877 0.7871
C18 C 0.48883(18) 0.24763(17) 0.72469(14)
H12 H 0.5038 0.2813 0.7590
C19 C 0.67829(17) 0.28784(16) 0.60054(14)
C20 C 0.71222(19) 0.20006(17) 0.59343(15)
H13 H 0.6802 0.1570 0.6176
C21 C 0.79127(19) 0.17557(17) 0.55191(16)
H14 H 0.8133 0.1161 0.5474
C22 C 0.83848(18) 0.23803(18) 0.51674(15)
C23 C 0.80778(18) 0.32541(17) 0.52331(15)
H15 H 0.8411 0.3680 0.4998
C24 C 0.72792(18) 0.34952(16) 0.56467(14)
H16 H 0.7063 0.4092 0.5688
C25 C 0.38575(19) 0.91132(17) 0.89869(15)
C26 C 0.3352(2) 0.99247(18) 0.90061(16)
H17 H 0.3510 1.0361 0.8675
C27 C 0.2621(2) 1.00965(19) 0.95050(17)
H18 H 0.2277 1.0648 0.9517
C28 C 0.2397(2) 0.9461(2) 0.99839(18)
C29 C 0.2888(2) 0.86481(19) 0.99788(17)
H19 H 0.2726 0.8216 1.0312
C30 C 0.3619(2) 0.84809(17) 0.94791(16)
H20 H 0.3962 0.7929 0.9471
C31 C 0.52062(19) 0.95667(17) 0.83149(16)
C32 C 0.5545(2) 0.97542(18) 0.76403(16)
H21 H 0.5370 0.9461 0.7283
C33 C 0.6137(2) 1.03645(19) 0.74833(17)
H22 H 0.6375 1.0486 0.7023
C34 C 0.6373(2) 1.07951(18) 0.80150(18)
C35 C 0.6053(2) 1.06108(19) 0.86834(18)
H23 H 0.6231 1.0905 0.9039
C36 C 0.5471(2) 0.99942(19) 0.88378(17)
H24 H 0.5251 0.9862 0.9300
Br5 Br -0.37988(2) 0.97529(2) 0.53991(2)
Br6 Br 0.23224(3) 1.16834(2) 0.30998(2)
Br7 Br -0.17324(3) 0.07659(3) 0.21873(2)
Br8 Br 0.44715(2) 0.18932(2) -0.045417(18)
N3 N -0.02982(16) 0.90088(15) 0.34898(13)
N4 N 0.11292(15) 0.31728(14) 0.14666(13)
C37 C 0.03451(18) 0.65805(16) 0.25382(14)
C38 C -0.0474(2) 0.7060(2) 0.2545(2)
H25 H -0.0910 0.6833 0.2335
C39 C -0.0691(2) 0.7859(2) 0.2843(2)
H26 H -0.1262 0.8171 0.2827
C40 C -0.00817(18) 0.82030(16) 0.31624(14)
C41 C 0.0748(2) 0.7744(2) 0.3158(2)
H27 H 0.1183 0.7974 0.3368
C42 C 0.0954(2) 0.6948(2) 0.2848(2)
H28 H 0.1533 0.6645 0.2849
C43 C 0.05618(18) 0.57191(16) 0.22276(14)
C44 C -0.00753(18) 0.53176(17) 0.19672(15)
H29 H -0.0655 0.5617 0.1968
C45 C 0.01164(19) 0.44930(17) 0.17076(15)
H30 H -0.0330 0.4243 0.1528
C46 C 0.09484(18) 0.40310(16) 0.17069(14)
C47 C 0.16017(18) 0.44246(18) 0.19508(15)
H31 H 0.2182 0.4125 0.1945
C48 C 0.14060(18) 0.52565(18) 0.22023(15)
H32 H 0.1862 0.5517 0.2362
C49 C -0.11052(18) 0.91751(17) 0.39363(15)
C50 C -0.15422(19) 1.00170(18) 0.40020(15)
H33 H -0.1291 1.0480 0.3747
C51 C -0.23381(19) 1.01806(18) 0.44359(16)
H34 H -0.2629 1.0755 0.4481
C52 C -0.2705(2) 0.95126(19) 0.47995(17)
C53 C -0.2288(2) 0.86696(19) 0.47401(18)
H35 H -0.2551 0.8209 0.4990
C54 C -0.1489(2) 0.85077(18) 0.43150(17)
H36 H -0.1196 0.7933 0.4280
C55 C 0.03319(19) 0.96121(17) 0.33965(15)
C56 C 0.05301(19) 1.00152(18) 0.39592(16)
H37 H 0.0252 0.9874 0.4405
C57 C 0.11313(19) 1.06214(19) 0.38710(17)
H38 H 0.1262 1.0899 0.4254
C58 C 0.1535(2) 1.08161(18) 0.32230(18)
C59 C 0.1370(2) 1.0407(2) 0.26600(18)
H39 H 0.1667 1.0535 0.2217
C60 C 0.0761(2) 0.98042(18) 0.27526(16)
H40 H 0.0639 0.9522 0.2369
C61 C 0.04689(18) 0.26021(16) 0.16423(15)
C62 C 0.02448(19) 0.21001(17) 0.11407(15)
H41 H 0.0532 0.2143 0.0683
C63 C -0.03931(19) 0.15422(17) 0.13104(16)
H42 H -0.0537 0.1194 0.0972
C64 C -0.08195(19) 0.14937(18) 0.19729(17)
C65 C -0.0607(2) 0.19859(18) 0.24812(16)
H43 H -0.0902 0.1946 0.2937
C66 C 0.00450(19) 0.25373(17) 0.23080(15)
H44 H 0.0201 0.2872 0.2650
C67 C 0.19336(18) 0.28957(16) 0.10502(14)
C68 C 0.24198(18) 0.34802(17) 0.06378(15)
H45 H 0.2218 0.4082 0.0653
C69 C 0.31899(18) 0.31908(18) 0.02096(15)
H46 H 0.3523 0.3590 -0.0062
C70 C 0.34688(19) 0.23093(18) 0.01815(15)
C71 C 0.30182(19) 0.17204(17) 0.05914(16)
H47 H 0.3227 0.1121 0.0573
C72 C 0.22587(19) 0.20119(17) 0.10294(15)
H48 H 0.1953 0.1610 0.1320
Br5 Br 1.37988(2) 0.02471(2) 0.46009(2)
Br6 Br 0.76776(3) -0.16834(2) 0.69002(2)
Br7 Br 1.17324(3) 0.92341(3) 0.78127(2)
Br8 Br 0.55285(2) 0.81068(2) 1.045417(18)
N3 N 1.02982(16) 0.09912(15) 0.65102(13)
N4 N 0.88708(15) 0.68272(14) 0.85334(13)
C37 C 0.96549(18) 0.34195(16) 0.74618(14)
C38 C 1.0474(2) 0.2940(2) 0.7455(2)
H25 H 1.0910 0.3167 0.7665
C39 C 1.0691(2) 0.2141(2) 0.7157(2)
H26 H 1.1262 0.1829 0.7173
C40 C 1.00817(18) 0.17970(16) 0.68376(14)
C41 C 0.9252(2) 0.2256(2) 0.6842(2)
H27 H 0.8817 0.2026 0.6632
C42 C 0.9046(2) 0.3052(2) 0.7152(2)
H28 H 0.8467 0.3355 0.7151
C43 C 0.94382(18) 0.42809(16) 0.77724(14)
C44 C 1.00753(18) 0.46824(17) 0.80328(15)
H29 H 1.0655 0.4383 0.8032
C45 C 0.98836(19) 0.55070(17) 0.82924(15)
H30 H 1.0330 0.5757 0.8472
C46 C 0.90516(18) 0.59690(16) 0.82931(14)
C47 C 0.83983(18) 0.55754(18) 0.80492(15)
H31 H 0.7818 0.5875 0.8055
C48 C 0.85940(18) 0.47435(18) 0.77977(15)
H32 H 0.8138 0.4483 0.7638
C49 C 1.11052(18) 0.08249(17) 0.60637(15)
C50 C 1.15422(19) -0.00170(18) 0.59980(15)
H33 H 1.1291 -0.0480 0.6253
C51 C 1.23381(19) -0.01806(18) 0.55641(16)
H34 H 1.2629 -0.0755 0.5519
C52 C 1.2705(2) 0.04874(19) 0.52005(17)
C53 C 1.2288(2) 0.13304(19) 0.52599(18)
H35 H 1.2551 0.1791 0.5010
C54 C 1.1489(2) 0.14923(18) 0.56850(17)
H36 H 1.1196 0.2067 0.5720
C55 C 0.96681(19) 0.03879(17) 0.66035(15)
C56 C 0.94699(19) -0.00152(18) 0.60408(16)
H37 H 0.9748 0.0126 0.5595
C57 C 0.88687(19) -0.06214(19) 0.61290(17)
H38 H 0.8738 -0.0899 0.5746
C58 C 0.8465(2) -0.08161(18) 0.67770(18)
C59 C 0.8630(2) -0.0407(2) 0.73400(18)
H39 H 0.8333 -0.0535 0.7783
C60 C 0.9239(2) 0.01958(18) 0.72474(16)
H40 H 0.9361 0.0478 0.7631
C61 C 0.95311(18) 0.73979(16) 0.83577(15)
C62 C 0.97552(19) 0.78999(17) 0.88593(15)
H41 H 0.9468 0.7857 0.9317
C63 C 1.03931(19) 0.84578(17) 0.86896(16)
H42 H 1.0537 0.8806 0.9028
C64 C 1.08195(19) 0.85063(18) 0.80271(17)
C65 C 1.0607(2) 0.80141(18) 0.75188(16)
H43 H 1.0902 0.8054 0.7063
C66 C 0.99550(19) 0.74627(17) 0.76920(15)
H44 H 0.9799 0.7128 0.7350
C67 C 0.80664(18) 0.71043(16) 0.89498(14)
C68 C 0.75802(18) 0.65198(17) 0.93622(15)
H45 H 0.7782 0.5918 0.9347
C69 C 0.68101(18) 0.68092(18) 0.97904(15)
H46 H 0.6477 0.6410 1.0062
C70 C 0.65312(19) 0.76907(18) 0.98185(15)
C71 C 0.69818(19) 0.82796(17) 0.94086(16)
H47 H 0.6773 0.8879 0.9427
C72 C 0.77413(19) 0.79881(17) 0.89706(15)
H48 H 0.8047 0.8390 0.8680
Br9 Br 1.02996(2) 0.56536(2) 0.627126(16)
Br10 Br 0.32319(2) 0.75693(2) 0.625370(19)
Br11 Br 1.17954(2) 0.24899(2) -0.105285(19)
Br12 Br 0.481952(19) 0.41984(2) -0.125175(15)
N5 N 0.69957(16) 0.63754(16) 0.48656(12)
N6 N 0.80121(16) 0.37104(16) 0.02857(13)
C73 C 0.74273(17) 0.52640(17) 0.29065(14)
C74 C 0.74053(19) 0.47526(18) 0.35056(15)
H49 H 0.7499 0.4141 0.3475
C75 C 0.7250(2) 0.51165(18) 0.41396(15)
H50 H 0.7241 0.4753 0.4538
C76 C 0.71061(18) 0.60066(18) 0.42010(14)
C77 C 0.71167(19) 0.65344(18) 0.36186(15)
H51 H 0.7012 0.7145 0.3655
C78 C 0.72813(19) 0.61652(18) 0.29794(15)
H52 H 0.7295 0.6532 0.2582
C79 C 0.75880(17) 0.48679(17) 0.22254(14)
C80 C 0.79610(18) 0.40076(18) 0.21430(15)
H53 H 0.8122 0.3676 0.2529
C81 C 0.81026(18) 0.36244(18) 0.15092(15)
H54 H 0.8347 0.3035 0.1468
C82 C 0.78863(18) 0.41042(18) 0.09365(15)
C83 C 0.7527(2) 0.49651(18) 0.10090(15)
H55 H 0.7387 0.5303 0.0620
C84 C 0.7371(2) 0.53347(18) 0.16451(15)
H56 H 0.7111 0.5919 0.1686
C85 C 0.77501(19) 0.62370(17) 0.52051(15)
C86 C 0.7674(2) 0.6102(2) 0.59144(16)
H57 H 0.7103 0.6121 0.6182
C87 C 0.8435(2) 0.5942(2) 0.62253(16)
H58 H 0.8382 0.5856 0.6707
C88 C 0.9266(2) 0.59076(19) 0.58387(16)
C89 C 0.93568(19) 0.60365(18) 0.51336(15)
H59 H 0.9930 0.6011 0.4868
C90 C 0.85992(19) 0.62032(17) 0.48245(14)
H60 H 0.8658 0.6297 0.4344
C91 C 0.61305(19) 0.66252(18) 0.52059(15)
C92 C 0.5968(2) 0.72894(19) 0.56776(16)
H61 H 0.6453 0.7559 0.5781
C93 C 0.5117(2) 0.75590(19) 0.59949(17)
H62 H 0.5017 0.8004 0.6318
C94 C 0.44101(19) 0.71726(19) 0.58365(16)
C95 C 0.4545(2) 0.65091(19) 0.53795(16)
H63 H 0.4056 0.6246 0.5277
C96 C 0.5406(2) 0.62314(19) 0.50711(15)
H64 H 0.5504 0.5767 0.4765
C97 C 0.88906(18) 0.34317(18) -0.00273(15)
C98 C 0.9073(2) 0.2676(2) -0.04041(18)
H65 H 0.8604 0.2345 -0.0445
C99 C 0.9930(2) 0.2406(2) -0.07177(18)
H66 H 1.0046 0.1901 -0.0982
C100 C 1.06159(19) 0.28800(18) -0.06424(16)
C101 C 1.04564(19) 0.36165(18) -0.02625(16)
H67 H 1.0931 0.3932 -0.0208
C102 C 0.95921(19) 0.38927(17) 0.00404(15)
H68 H 0.9479 0.4404 0.0297
C103 C 0.72793(18) 0.37792(17) -0.00768(15)
C104 C 0.64171(19) 0.38316(17) 0.02791(14)
H69 H 0.6330 0.3791 0.0764
C105 C 0.56844(18) 0.39429(18) -0.00646(15)
H70 H 0.5100 0.3987 0.0183
C106 C 0.58132(19) 0.39897(18) -0.07739(15)
C107 C 0.6667(2) 0.3909(2) -0.11323(16)
H71 H 0.6753 0.3918 -0.1617
C108 C 0.7399(2) 0.3814(2) -0.07872(16)
H72 H 0.7983 0.3772 -0.1037
Br9 Br -0.02996(2) 0.43464(2) 0.372874(16)
Br10 Br 0.67681(2) 0.24307(2) 0.374630(19)
Br11 Br -0.17954(2) 0.75101(2) 1.105285(19)
Br12 Br 0.518048(19) 0.58016(2) 1.125175(15)
N5 N 0.30043(16) 0.36246(16) 0.51344(12)
N6 N 0.19879(16) 0.62896(16) 0.97143(13)
C73 C 0.25727(17) 0.47360(17) 0.70935(14)
C74 C 0.25947(19) 0.52474(18) 0.64944(15)
H49 H 0.2501 0.5859 0.6525
C75 C 0.2750(2) 0.48835(18) 0.58604(15)
H50 H 0.2759 0.5247 0.5462
C76 C 0.28939(18) 0.39934(18) 0.57990(14)
C77 C 0.28833(19) 0.34656(18) 0.63814(15)
H51 H 0.2988 0.2855 0.6345
C78 C 0.27187(19) 0.38348(18) 0.70206(15)
H52 H 0.2705 0.3468 0.7418
C79 C 0.24120(17) 0.51321(17) 0.77746(14)
C80 C 0.20390(18) 0.59924(18) 0.78570(15)
H53 H 0.1878 0.6324 0.7471
C81 C 0.18974(18) 0.63756(18) 0.84908(15)
H54 H 0.1653 0.6965 0.8532
C82 C 0.21137(18) 0.58958(18) 0.90635(15)
C83 C 0.2473(2) 0.50349(18) 0.89910(15)
H55 H 0.2613 0.4697 0.9380
C84 C 0.2629(2) 0.46653(18) 0.83549(15)
H56 H 0.2889 0.4081 0.8314
C85 C 0.22499(19) 0.37630(17) 0.47949(15)
C86 C 0.2326(2) 0.3898(2) 0.40856(16)
H57 H 0.2897 0.3879 0.3818
C87 C 0.1565(2) 0.4058(2) 0.37747(16)
H58 H 0.1618 0.4144 0.3293
C88 C 0.0734(2) 0.40924(19) 0.41613(16)
C89 C 0.06432(19) 0.39635(18) 0.48664(15)
H59 H 0.0070 0.3989 0.5132
C90 C 0.14008(19) 0.37968(17) 0.51755(14)
H60 H 0.1342 0.3703 0.5656
C91 C 0.38695(19) 0.33748(18) 0.47941(15)
C92 C 0.4032(2) 0.27106(19) 0.43224(16)
H61 H 0.3547 0.2441 0.4219
C93 C 0.4883(2) 0.24410(19) 0.40051(17)
H62 H 0.4983 0.1996 0.3682
C94 C 0.55899(19) 0.28274(19) 0.41635(16)
C95 C 0.5455(2) 0.34909(19) 0.46205(16)
H63 H 0.5944 0.3754 0.4723
C96 C 0.4594(2) 0.37686(19) 0.49289(15)
H64 H 0.4496 0.4233 0.5235
C97 C 0.11094(18) 0.65683(18) 1.00273(15)
C98 C 0.0927(2) 0.7324(2) 1.04041(18)
H65 H 0.1396 0.7655 1.0445
C99 C 0.0070(2) 0.7594(2) 1.07177(18)
H66 H -0.0046 0.8099 1.0982
C100 C -0.06159(19) 0.71200(18) 1.06424(16)
C101 C -0.04564(19) 0.63835(18) 1.02625(16)
H67 H -0.0931 0.6068 1.0208
C102 C 0.04079(19) 0.61073(17) 0.99596(15)
H68 H 0.0521 0.5596 0.9703
C103 C 0.27207(18) 0.62208(17) 1.00768(15)
C104 C 0.35829(19) 0.61684(17) 0.97209(14)
H69 H 0.3670 0.6209 0.9236
C105 C 0.43156(18) 0.60571(18) 1.00646(15)
H70 H 0.4900 0.6013 0.9817
C106 C 0.41868(19) 0.60103(18) 1.07739(15)
C107 C 0.3333(2) 0.6091(2) 1.11323(16)
H71 H 0.3247 0.6082 1.1617
C108 C 0.2601(2) 0.6186(2) 1.07872(16)
H72 H 0.2017 0.6228 1.1037

#END
