
#######################################################################
#
#                 Cambridge Crystallographic Data Centre
#                                CCDC 
#
#######################################################################
#
# If this CIF has been generated from an entry in the Cambridge 
# Structural Database, then it will include bibliographic, chemical, 
# crystal, experimental, refinement or atomic coordinate data resulting 
# from the CCDC's data processing and validation procedures.
#
#######################################################################

data_LACRUC
_symmetry_cell_setting           orthorhombic
_symmetry_space_group_name_H-M   'P 21 21 21'
_symmetry_Int_Tables_number      19
_space_group_name_Hall           'P 2ac 2ab'
loop_
_symmetry_equiv_pos_site_id
_symmetry_equiv_pos_as_xyz
1 x,y,z
2 1/2+x,1/2-y,-z
3 -x,1/2+y,1/2-z
4 1/2-x,-y,1/2+z
_cell_length_a                   8.463(2)
_cell_length_b                   8.302(2)
_cell_length_c                   17.771(5)
_cell_angle_alpha                90
_cell_angle_beta                 90
_cell_angle_gamma                90
_cell_volume                     1248.59
loop_
_atom_site_label
_atom_site_type_symbol
_atom_site_fract_x
_atom_site_fract_y
_atom_site_fract_z
O1 O 0.9649(2) 0.3946(3) 0.3646(1)
C1 C 0.8324(4) 0.5018(4) 0.3678(2)
O2 O 0.8479(2) 0.6022(3) 0.3025(1)
C2 C 1.0067(3) 0.5958(4) 0.2771(2)
C3 C 1.0910(4) 0.4868(4) 0.3350(2)
C4 C 0.6819(3) 0.4074(4) 0.3680(2)
C5 C 0.6114(4) 0.3713(4) 0.4364(2)
C6 C 0.4766(4) 0.2745(4) 0.4386(2)
C7 C 0.4129(4) 0.2183(4) 0.3722(2)
C8 C 0.4823(4) 0.2547(4) 0.3039(2)
C9 C 0.6169(4) 0.3501(4) 0.3014(2)
C10 C 1.0165(4) 0.5284(4) 0.1982(2)
O3 O 0.9080(3) 0.4810(3) 0.1608(1)
O4 O 1.1674(3) 0.5288(3) 0.1769(1)
C11 C 1.2011(5) 0.4731(5) 0.1017(2)
C12 C 1.1738(4) 0.5872(4) 0.3951(2)
O5 O 1.1283(3) 0.6069(3) 0.4581(1)
O6 O 1.3044(3) 0.6506(3) 0.3655(1)
C13 C 1.3926(5) 0.7573(5) 0.4141(2)
H1 H 0.843(3) 0.566(4) 0.415(2)
H2 H 1.049(4) 0.699(4) 0.275(2)
H3 H 1.170(4) 0.415(4) 0.313(2)
H4 H 0.654(4) 0.409(4) 0.482(2)
H5 H 0.433(4) 0.247(5) 0.485(2)
H6 H 0.323(5) 0.152(5) 0.371(2)
H7 H 0.440(4) 0.218(4) 0.255(2)
H8 H 0.672(4) 0.377(4) 0.250(2)
H9 H 1.190(5) 0.371(5) 0.099(2)
H10 H 1.125(4) 0.530(5) 0.066(2)
H11 H 1.310(6) 0.504(6) 0.086(3)
H12 H 1.441(5) 0.706(5) 0.456(3)
H13 H 1.483(6) 0.804(6) 0.379(3)
H14 H 1.321(6) 0.845(6) 0.435(3)
O1 O 0.4649(2) 0.1054(3) 0.6354(1)
C1 C 0.3324(4) -0.0018(4) 0.6322(2)
O2 O 0.3479(2) -0.1022(3) 0.6975(1)
C2 C 0.5067(3) -0.0958(4) 0.7229(2)
C3 C 0.5910(4) 0.0132(4) 0.6650(2)
C4 C 0.1819(3) 0.0926(4) 0.6320(2)
C5 C 0.1114(4) 0.1287(4) 0.5636(2)
C6 C -0.0234(4) 0.2255(4) 0.5614(2)
C7 C -0.0871(4) 0.2817(4) 0.6278(2)
C8 C -0.0177(4) 0.2453(4) 0.6961(2)
C9 C 0.1169(4) 0.1499(4) 0.6986(2)
C10 C 0.5165(4) -0.0284(4) 0.8018(2)
O3 O 0.4080(3) 0.0190(3) 0.8392(1)
O4 O 0.6674(3) -0.0288(3) 0.8231(1)
C11 C 0.7011(5) 0.0269(5) 0.8983(2)
C12 C 0.6738(4) -0.0872(4) 0.6049(2)
O5 O 0.6283(3) -0.1069(3) 0.5419(1)
O6 O 0.8044(3) -0.1506(3) 0.6345(1)
C13 C 0.8926(5) -0.2573(5) 0.5859(2)
H1 H 0.343(3) -0.066(4) 0.585(2)
H2 H 0.549(4) -0.199(4) 0.725(2)
H3 H 0.670(4) 0.085(4) 0.687(2)
H4 H 0.154(4) 0.091(4) 0.518(2)
H5 H -0.067(4) 0.253(5) 0.515(2)
H6 H -0.177(5) 0.348(5) 0.629(2)
H7 H -0.060(4) 0.282(4) 0.745(2)
H8 H 0.172(4) 0.123(4) 0.750(2)
H9 H 0.690(5) 0.129(5) 0.901(2)
H10 H 0.625(4) -0.030(5) 0.934(2)
H11 H 0.810(6) -0.004(6) 0.914(3)
H12 H 0.941(5) -0.206(5) 0.544(3)
H13 H 0.983(6) -0.304(6) 0.621(3)
H14 H 0.821(6) -0.345(6) 0.565(3)
O1 O 0.0351(2) 0.8946(3) 0.1354(1)
C1 C 0.1676(4) 1.0018(4) 0.1322(2)
O2 O 0.1521(2) 1.1022(3) 0.1975(1)
C2 C -0.0067(3) 1.0958(4) 0.2229(2)
C3 C -0.0910(4) 0.9868(4) 0.1650(2)
C4 C 0.3181(3) 0.9074(4) 0.1320(2)
C5 C 0.3886(4) 0.8713(4) 0.0636(2)
C6 C 0.5234(4) 0.7745(4) 0.0614(2)
C7 C 0.5871(4) 0.7183(4) 0.1278(2)
C8 C 0.5177(4) 0.7547(4) 0.1961(2)
C9 C 0.3831(4) 0.8501(4) 0.1986(2)
C10 C -0.0165(4) 1.0284(4) 0.3018(2)
O3 O 0.0920(3) 0.9810(3) 0.3392(1)
O4 O -0.1674(3) 1.0288(3) 0.3231(1)
C11 C -0.2011(5) 0.9731(5) 0.3983(2)
C12 C -0.1738(4) 1.0872(4) 0.1049(2)
O5 O -0.1283(3) 1.1069(3) 0.0419(1)
O6 O -0.3044(3) 1.1506(3) 0.1345(1)
C13 C -0.3926(5) 1.2573(5) 0.0859(2)
H1 H 0.157(3) 1.066(4) 0.085(2)
H2 H -0.049(4) 1.199(4) 0.225(2)
H3 H -0.170(4) 0.915(4) 0.187(2)
H4 H 0.346(4) 0.909(4) 0.018(2)
H5 H 0.567(4) 0.747(5) 0.015(2)
H6 H 0.677(5) 0.652(5) 0.129(2)
H7 H 0.560(4) 0.718(4) 0.245(2)
H8 H 0.328(4) 0.877(4) 0.250(2)
H9 H -0.190(5) 0.871(5) 0.401(2)
H10 H -0.125(4) 1.030(5) 0.434(2)
H11 H -0.310(6) 1.004(6) 0.414(3)
H12 H -0.441(5) 1.206(5) 0.044(3)
H13 H -0.483(6) 1.304(6) 0.121(3)
H14 H -0.321(6) 1.345(6) 0.065(3)
O1 O 0.5351(2) 0.6054(3) 0.8646(1)
C1 C 0.6676(4) 0.4982(4) 0.8678(2)
O2 O 0.6521(2) 0.3978(3) 0.8025(1)
C2 C 0.4933(3) 0.4042(4) 0.7771(2)
C3 C 0.4090(4) 0.5132(4) 0.8350(2)
C4 C 0.8181(3) 0.5926(4) 0.8680(2)
C5 C 0.8886(4) 0.6287(4) 0.9364(2)
C6 C 1.0234(4) 0.7255(4) 0.9386(2)
C7 C 1.0871(4) 0.7817(4) 0.8722(2)
C8 C 1.0177(4) 0.7453(4) 0.8039(2)
C9 C 0.8831(4) 0.6499(4) 0.8014(2)
C10 C 0.4835(4) 0.4716(4) 0.6982(2)
O3 O 0.5920(3) 0.5190(3) 0.6608(1)
O4 O 0.3326(3) 0.4712(3) 0.6769(1)
C11 C 0.2989(5) 0.5269(5) 0.6017(2)
C12 C 0.3262(4) 0.4128(4) 0.8951(2)
O5 O 0.3717(3) 0.3931(3) 0.9581(1)
O6 O 0.1956(3) 0.3494(3) 0.8655(1)
C13 C 0.1074(5) 0.2427(5) 0.9141(2)
H1 H 0.657(3) 0.434(4) 0.915(2)
H2 H 0.451(4) 0.301(4) 0.775(2)
H3 H 0.330(4) 0.585(4) 0.813(2)
H4 H 0.846(4) 0.591(4) 0.982(2)
H5 H 1.067(4) 0.753(5) 0.985(2)
H6 H 1.177(5) 0.848(5) 0.871(2)
H7 H 1.060(4) 0.782(4) 0.755(2)
H8 H 0.828(4) 0.623(4) 0.750(2)
H9 H 0.310(5) 0.629(5) 0.599(2)
H10 H 0.375(4) 0.470(5) 0.566(2)
H11 H 0.190(6) 0.496(6) 0.586(3)
H12 H 0.059(5) 0.294(5) 0.956(3)
H13 H 0.017(6) 0.196(6) 0.879(3)
H14 H 0.179(6) 0.155(6) 0.935(3)

#END
