./LACTIS_from_xyz.cif_generated_by_CrystalShift
_symmetry_cell_setting triclinic
_symmetry_space_group_name_H-M 'P 1'
loop_
_symmetry_equiv_pos_site_id
_symmetry_equiv_pos_as_xyz
1 x,y,z
_cell_length_a 11.954000
_cell_length_b 17.880000
_cell_length_c 5.372000
_cell_angle_alpha 91.850000
_cell_angle_beta 98.260000
_cell_angle_gamma 88.210000
_cell_volume 1135.283897
loop_
_atom_site_label
_atom_site_type_symbol
_atom_site_fract_x
_atom_site_fract_y
_atom_site_fract_z
O1 O 0.718200 0.294000 0.921500
O2 O 1.066900 0.104160 1.061600
O3 O 1.002000 0.406210 0.858800
O4 O 0.635400 0.224660 0.513700
C5 C 0.799500 0.251500 0.953800
C6 C 0.900100 0.262300 1.149900
C7 C 0.990700 0.214500 1.189200
C8 C 0.989200 0.146600 1.016000
C9 C 0.889800 0.143800 0.807600
C10 C 0.910500 0.075400 0.671200
C11 C 0.831400 0.064000 0.450300
C12 C 0.740100 0.107900 0.397500
C13 C 0.721500 0.173700 0.537300
C14 C 0.801000 0.189400 0.756700
C15 C 0.550900 0.212500 0.298000
C16 C 0.874000 0.330100 1.309900
C17 C 0.890100 0.404800 1.193400
C18 C 0.997400 0.409450 1.088700
C19 C 1.101300 0.413900 1.268800
C20 C 1.208600 0.379500 1.178800
C21 C 1.202600 0.296100 1.096300
C22 C 1.197800 0.240400 1.300700
C23 C 1.083500 0.229370 1.391700
H24 H 0.966000 0.035600 0.701700
H25 H 0.832800 0.022500 0.307200
H26 H 0.676200 0.099900 0.269900
H27 H 0.484200 0.251100 0.274100
H28 H 0.577500 0.216600 0.129200
H29 H 0.510800 0.165700 0.280500
H30 H 0.795500 0.332400 1.352700
H31 H 0.920100 0.333900 1.482200
H32 H 0.828700 0.415000 1.060700
H33 H 0.884900 0.449000 1.315800
H34 H 1.116100 0.463900 1.321400
H35 H 1.096400 0.385600 1.420900
H36 H 1.230800 0.410000 1.039800
H37 H 1.278300 0.384800 1.309000
H38 H 1.132800 0.292000 0.983200
H39 H 1.262800 0.284000 0.989400
H40 H 1.235400 0.194000 1.240400
H41 H 1.263600 0.258900 1.436000
H42 H 1.082400 0.276100 1.489900
H43 H 1.105600 0.190400 1.502400
O44 O 0.281800 0.706000 0.078500
O45 O -0.066900 0.895840 -0.061600
O46 O -0.002000 0.593790 0.141200
O47 O 0.364600 0.775340 0.486300
C48 C 0.200500 0.748500 0.046200
C49 C 0.099900 0.737700 -0.149900
C50 C 0.009300 0.785500 -0.189200
C51 C 0.010800 0.853400 -0.016000
C52 C 0.110200 0.856200 0.192400
C53 C 0.089500 0.924600 0.328800
C54 C 0.168600 0.936000 0.549700
C55 C 0.259900 0.892100 0.602500
C56 C 0.278500 0.826300 0.462700
C57 C 0.199000 0.810600 0.243300
C58 C 0.449100 0.787500 0.702000
C59 C 0.126000 0.669900 -0.309900
C60 C 0.109900 0.595200 -0.193400
C61 C 0.002600 0.590550 -0.088700
C62 C -0.101300 0.586100 -0.268800
C63 C -0.208600 0.620500 -0.178800
C64 C -0.202600 0.703900 -0.096300
C65 C -0.197800 0.759600 -0.300700
C66 C -0.083500 0.770630 -0.391700
H67 H 0.034000 0.964400 0.298300
H68 H 0.167200 0.977500 0.692800
H69 H 0.323800 0.900100 0.730100
H70 H 0.515800 0.748900 0.725900
H71 H 0.422500 0.783400 0.870800
H72 H 0.489200 0.834300 0.719500
H73 H 0.204500 0.667600 -0.352700
H74 H 0.079900 0.666100 -0.482200
H75 H 0.171300 0.585000 -0.060700
H76 H 0.115100 0.551000 -0.315800
H77 H -0.116100 0.536100 -0.321400
H78 H -0.096400 0.614400 -0.420900
H79 H -0.230800 0.590000 -0.039800
H80 H -0.278300 0.615200 -0.309000
H81 H -0.132800 0.708000 0.016800
H82 H -0.262800 0.716000 0.010600
H83 H -0.235400 0.806000 -0.240400
H84 H -0.263600 0.741100 -0.436000
H85 H -0.082400 0.723900 -0.489900
H86 H -0.105600 0.809600 -0.502400
C87 C 0.461200 0.380200 0.820900
C88 C 0.484400 0.443200 0.657100
C89 C 0.577300 0.439330 0.531400
C90 C 0.401700 0.502900 0.618300
H91 H 0.395700 0.384500 0.898600
H92 H 0.461600 0.329600 0.739500
H93 H 0.525300 0.372700 0.969600
C94 C 0.598300 0.497100 0.381700
C95 C 0.422700 0.560670 0.468600
C96 C 0.515600 0.556800 0.342900
C97 C 0.538800 0.619800 0.179100
H98 H 0.604300 0.615500 0.101400
H99 H 0.538400 0.670400 0.260500
H100 H 0.474700 0.627300 0.030400
C101 C 0.353800 0.112900 -0.240600
C102 C 0.432500 0.052250 -0.116400
C103 C 0.535400 0.039700 -0.194700
C104 C 0.393100 0.015100 0.086200
H105 H 0.378300 0.162400 -0.236300
H106 H 0.326500 0.100700 -0.423500
H107 H 0.278200 0.116800 -0.173500
C108 C 0.606900 -0.015100 -0.086200
C109 C 0.464600 -0.039700 0.194700
C110 C 0.567500 -0.052250 0.116400
C111 C 0.646200 -0.112900 0.240600
H112 H 0.621700 -0.162400 0.236300
H113 H 0.673500 -0.100700 0.423500
H114 H 0.721800 -0.116800 0.173500
C115 C 0.353800 0.112900 0.759400
C116 C 0.432500 0.052250 0.883600
C117 C 0.535400 0.039700 0.805300
C118 C 0.393100 0.015100 1.086200
H119 H 0.378300 0.162400 0.763700
H120 H 0.326500 0.100700 0.576500
H121 H 0.278200 0.116800 0.826500
C122 C 0.606900 -0.015100 0.913800
C123 C 0.464600 -0.039700 1.194700
C124 C 0.567500 -0.052250 1.116400
C125 C 0.646200 -0.112900 1.240600
H126 H 0.621700 -0.162400 1.236300
H127 H 0.673500 -0.100700 1.423500
H128 H 0.721800 -0.116800 1.173500
C129 C 0.353800 1.112900 -0.240600
C130 C 0.432500 1.052250 -0.116400
C131 C 0.535400 1.039700 -0.194700
C132 C 0.393100 1.015100 0.086200
H133 H 0.378300 1.162400 -0.236300
H134 H 0.326500 1.100700 -0.423500
H135 H 0.278200 1.116800 -0.173500
C136 C 0.606900 0.984900 -0.086200
C137 C 0.464600 0.960300 0.194700
C138 C 0.567500 0.947750 0.116400
C139 C 0.646200 0.887100 0.240600
H140 H 0.621700 0.837600 0.236300
H141 H 0.673500 0.899300 0.423500
H142 H 0.721800 0.883200 0.173500
C143 C 0.353800 1.112900 0.759400
C144 C 0.432500 1.052250 0.883600
C145 C 0.535400 1.039700 0.805300
C146 C 0.393100 1.015100 1.086200
H147 H 0.378300 1.162400 0.763700
H148 H 0.326500 1.100700 0.576500
H149 H 0.278200 1.116800 0.826500
C150 C 0.606900 0.984900 0.913800
C151 C 0.464600 0.960300 1.194700
C152 C 0.567500 0.947750 1.116400
C153 C 0.646200 0.887100 1.240600
H154 H 0.621700 0.837600 1.236300
H155 H 0.673500 0.899300 1.423500
H156 H 0.721800 0.883200 1.173500

#END
