
#######################################################################
#
#                 Cambridge Crystallographic Data Centre
#                                CCDC 
#
#######################################################################
#
# If this CIF has been generated from an entry in the Cambridge 
# Structural Database, then it will include bibliographic, chemical, 
# crystal, experimental, refinement or atomic coordinate data resulting 
# from the CCDC's data processing and validation procedures.
#
#######################################################################

data_LACTUE
_symmetry_cell_setting           triclinic
_symmetry_space_group_name_H-M   'P -1'
_symmetry_Int_Tables_number      2
_space_group_name_Hall           '-P 1'
loop_
_symmetry_equiv_pos_site_id
_symmetry_equiv_pos_as_xyz
1 x,y,z
2 -x,-y,-z
_cell_length_a                   8.561(2)
_cell_length_b                   11.277(3)
_cell_length_c                   7.992(2)
_cell_angle_alpha                107.78(2)
_cell_angle_beta                 107.76(2)
_cell_angle_gamma                72.52(2)
_cell_volume                     681.186
loop_
_atom_site_label
_atom_site_type_symbol
_atom_site_fract_x
_atom_site_fract_y
_atom_site_fract_z
O1 O 0.58668(30) 0.26610(21) 0.30852(29)
O2 O 0.74297(30) 0.46034(18) -0.12094(26)
O3 O 0.77662(30) -0.02665(21) -0.38299(30)
C1 C 0.62583(37) 0.31371(27) 0.21437(40)
C2 C 0.60268(35) 0.25803(25) 0.01119(37)
C3 C 0.75573(34) 0.26213(24) -0.05270(34)
C4 C 0.75203(35) 0.40391(26) -0.01014(38)
C5 C 0.75426(35) 0.47467(25) 0.18209(36)
C6 C 0.81686(39) 0.58408(27) 0.25153(41)
C7 C 0.81887(41) 0.65058(29) 0.43081(43)
C8 C 0.76084(42) 0.60581(31) 0.53777(41)
C9 C 0.70090(38) 0.49594(30) 0.47038(40)
C10 C 0.69461(35) 0.42976(25) 0.29088(36)
C11 C 0.56547(38) 0.12637(27) -0.04172(41)
C12 C 0.54580(42) 0.06885(30) -0.24448(44)
C13 C 0.69517(40) 0.07070(29) -0.30369(39)
C14 C 0.73687(37) 0.19989(26) -0.25873(36)
C15 C 0.89337(39) 0.19040(28) -0.32307(38)
C16 C 1.05797(39) 0.12891(29) -0.20892(41)
C17 C 1.07400(37) 0.19366(28) -0.00868(39)
C18 C 0.92350(35) 0.19225(25) 0.05273(35)
H1 H 0.4946 0.3229 -0.0400
H2 H 0.8627 0.6185 0.1628
H3 H 0.8827 0.7310 0.4846
H4 H 0.7534 0.6635 0.6690
H5 H 0.6408 0.4658 0.5439
H6 H 0.6695 0.0662 0.0369
H7 H 0.4538 0.1364 -0.0009
H8 H 0.5298 -0.0149 -0.2755
H9 H 0.4450 0.1208 -0.3092
H10 H 0.6328 0.2623 -0.3356
H11 H 0.8921 0.2799 -0.3284
H12 H 0.8785 0.1386 -0.4489
H13 H 1.1475 0.1411 -0.2523
H14 H 1.0714 0.0280 -0.2195
H15 H 1.0855 0.2782 0.0145
H16 H 1.1759 0.1466 0.0606
H17 H 0.9197 0.0969 0.0383
H18 H 0.9395 0.2291 0.1841
O1 O 0.41332(30) 0.73390(21) 0.69148(29)
O2 O 0.25703(30) 0.53966(18) 1.12094(26)
O3 O 0.22338(30) 1.02665(21) 1.38299(30)
C1 C 0.37417(37) 0.68629(27) 0.78563(40)
C2 C 0.39732(35) 0.74197(25) 0.98881(37)
C3 C 0.24427(34) 0.73787(24) 1.05270(34)
C4 C 0.24797(35) 0.59609(26) 1.01014(38)
C5 C 0.24574(35) 0.52533(25) 0.81791(36)
C6 C 0.18314(39) 0.41592(27) 0.74847(41)
C7 C 0.18113(41) 0.34942(29) 0.56919(43)
C8 C 0.23916(42) 0.39419(31) 0.46223(41)
C9 C 0.29910(38) 0.50406(30) 0.52962(40)
C10 C 0.30539(35) 0.57024(25) 0.70912(36)
C11 C 0.43453(38) 0.87363(27) 1.04172(41)
C12 C 0.45420(42) 0.93115(30) 1.24448(44)
C13 C 0.30483(40) 0.92930(29) 1.30369(39)
C14 C 0.26313(37) 0.80011(26) 1.25873(36)
C15 C 0.10663(39) 0.80960(28) 1.32307(38)
C16 C -0.05797(39) 0.87109(29) 1.20892(41)
C17 C -0.07400(37) 0.80634(28) 1.00868(39)
C18 C 0.07650(35) 0.80775(25) 0.94727(35)
H1 H 0.5054 0.6771 1.0400
H2 H 0.1373 0.3815 0.8372
H3 H 0.1173 0.2690 0.5154
H4 H 0.2466 0.3365 0.3310
H5 H 0.3592 0.5342 0.4561
H6 H 0.3305 0.9338 0.9631
H7 H 0.5462 0.8636 1.0009
H8 H 0.4702 1.0149 1.2755
H9 H 0.5550 0.8792 1.3092
H10 H 0.3672 0.7377 1.3356
H11 H 0.1079 0.7201 1.3284
H12 H 0.1215 0.8614 1.4489
H13 H -0.1475 0.8589 1.2523
H14 H -0.0714 0.9720 1.2195
H15 H -0.0855 0.7218 0.9855
H16 H -0.1759 0.8534 0.9394
H17 H 0.0803 0.9031 0.9617
H18 H 0.0605 0.7709 0.8159

#END
