
#######################################################################
#
#                 Cambridge Crystallographic Data Centre
#                                CCDC 
#
#######################################################################
#
# If this CIF has been generated from an entry in the Cambridge 
# Structural Database, then it will include bibliographic, chemical, 
# crystal, experimental, refinement or atomic coordinate data resulting 
# from the CCDC's data processing and validation procedures.
#
#######################################################################

data_LACTER
_symmetry_cell_setting           orthorhombic
_symmetry_space_group_name_H-M   'P n m a'
_symmetry_Int_Tables_number      62
_space_group_name_Hall           '-P 2ac 2n'
loop_
_symmetry_equiv_pos_site_id
_symmetry_equiv_pos_as_xyz
1 x,y,z
2 1/2-x,-y,1/2+z
3 -x,1/2+y,-z
4 1/2+x,1/2-y,1/2-z
5 -x,-y,-z
6 1/2+x,y,1/2-z
7 x,1/2-y,z
8 1/2-x,1/2+y,1/2+z
_cell_length_a                   14.279(4)
_cell_length_b                   32.266(8)
_cell_length_c                   3.8329(9)
_cell_angle_alpha                90
_cell_angle_beta                 90
_cell_angle_gamma                90
_cell_volume                     1765.92
loop_
_atom_site_label
_atom_site_type_symbol
_atom_site_fract_x
_atom_site_fract_y
_atom_site_fract_z
O1 O 0.8122(2) 0.31850(7) 0.1760(9)
H1 H 0.8547 0.3021 0.1335
O2 O 0.9331(2) 0.35720(7) 0.3536(8)
O3 O 0.90174(19) 0.42893(7) 0.6320(9)
H2 H 0.9330 0.4092 0.5639
C1 C 0.7786(3) 0.38395(9) 0.4212(10)
C2 C 0.7466(3) 0.45150(9) 0.6744(10)
H3 H 0.7684 0.4760 0.7735
N1 N 0.5888(2) 0.47648(9) 0.7102(10)
H4 H 0.6082 0.4996 0.7954
H5 H 0.5299 0.4725 0.6779
C3 C 0.6836(3) 0.37935(10) 0.3695(10)
H6 H 0.6620 0.3552 0.2647
C4 C 0.8109(3) 0.42111(10) 0.5781(10)
C5 C 0.6192(3) 0.40911(10) 0.4665(10)
H7 H 0.5556 0.4049 0.4278
C6 C 0.8479(3) 0.35283(10) 0.3216(10)
C7 C 0.6514(3) 0.44625(10) 0.6265(10)
O1 O 0.6878(2) 0.68150(7) 0.6760(9)
H1 H 0.6453 0.6979 0.6335
O2 O 0.5669(2) 0.64280(7) 0.8536(8)
O3 O 0.59826(19) 0.57107(7) 1.1320(9)
H2 H 0.5670 0.5908 1.0639
C1 C 0.7214(3) 0.61605(9) 0.9212(10)
C2 C 0.7534(3) 0.54850(9) 1.1744(10)
H3 H 0.7316 0.5240 1.2735
N1 N 0.9112(2) 0.52352(9) 1.2102(10)
H4 H 0.8918 0.5004 1.2954
H5 H 0.9701 0.5275 1.1779
C3 C 0.8164(3) 0.62065(10) 0.8695(10)
H6 H 0.8380 0.6448 0.7647
C4 C 0.6891(3) 0.57889(10) 1.0781(10)
C5 C 0.8808(3) 0.59089(10) 0.9665(10)
H7 H 0.9444 0.5951 0.9278
C6 C 0.6521(3) 0.64717(10) 0.8216(10)
C7 C 0.8486(3) 0.55375(10) 1.1265(10)
O1 O 0.1878(2) 0.81850(7) 0.8240(9)
H1 H 0.1453 0.8021 0.8665
O2 O 0.0669(2) 0.85720(7) 0.6464(8)
O3 O 0.09826(19) 0.92893(7) 0.3680(9)
H2 H 0.0670 0.9092 0.4361
C1 C 0.2214(3) 0.88395(9) 0.5788(10)
C2 C 0.2534(3) 0.95150(9) 0.3256(10)
H3 H 0.2316 0.9760 0.2265
N1 N 0.4112(2) 0.97648(9) 0.2898(10)
H4 H 0.3918 0.9996 0.2046
H5 H 0.4701 0.9725 0.3221
C3 C 0.3164(3) 0.87935(10) 0.6305(10)
H6 H 0.3380 0.8552 0.7353
C4 C 0.1891(3) 0.92111(10) 0.4219(10)
C5 C 0.3808(3) 0.90911(10) 0.5335(10)
H7 H 0.4444 0.9049 0.5722
C6 C 0.1521(3) 0.85283(10) 0.6784(10)
C7 C 0.3486(3) 0.94625(10) 0.3735(10)
O1 O 0.3122(2) 0.18150(7) 0.3240(9)
H1 H 0.3547 0.1979 0.3665
O2 O 0.4331(2) 0.14280(7) 0.1464(8)
O3 O 0.40174(19) 0.07107(7) -0.1320(9)
H2 H 0.4330 0.0908 -0.0639
C1 C 0.2786(3) 0.11605(9) 0.0788(10)
C2 C 0.2466(3) 0.04850(9) -0.1744(10)
H3 H 0.2684 0.0240 -0.2735
N1 N 0.0888(2) 0.02352(9) -0.2102(10)
H4 H 0.1082 0.0004 -0.2954
H5 H 0.0299 0.0275 -0.1779
C3 C 0.1836(3) 0.12065(10) 0.1305(10)
H6 H 0.1620 0.1448 0.2353
C4 C 0.3109(3) 0.07889(10) -0.0781(10)
C5 C 0.1192(3) 0.09089(10) 0.0335(10)
H7 H 0.0556 0.0951 0.0722
C6 C 0.3479(3) 0.14717(10) 0.1784(10)
C7 C 0.1514(3) 0.05375(10) -0.1265(10)
O1 O 0.1878(2) 0.68150(7) 0.8240(9)
H1 H 0.1453 0.6979 0.8665
O2 O 0.0669(2) 0.64280(7) 0.6464(8)
O3 O 0.09826(19) 0.57107(7) 0.3680(9)
H2 H 0.0670 0.5908 0.4361
C1 C 0.2214(3) 0.61605(9) 0.5788(10)
C2 C 0.2534(3) 0.54850(9) 0.3256(10)
H3 H 0.2316 0.5240 0.2265
N1 N 0.4112(2) 0.52352(9) 0.2898(10)
H4 H 0.3918 0.5004 0.2046
H5 H 0.4701 0.5275 0.3221
C3 C 0.3164(3) 0.62065(10) 0.6305(10)
H6 H 0.3380 0.6448 0.7353
C4 C 0.1891(3) 0.57889(10) 0.4219(10)
C5 C 0.3808(3) 0.59089(10) 0.5335(10)
H7 H 0.4444 0.5951 0.5722
C6 C 0.1521(3) 0.64717(10) 0.6784(10)
C7 C 0.3486(3) 0.55375(10) 0.3735(10)
O1 O 0.3122(2) 0.31850(7) 0.3240(9)
H1 H 0.3547 0.3021 0.3665
O2 O 0.4331(2) 0.35720(7) 0.1464(8)
O3 O 0.40174(19) 0.42893(7) -0.1320(9)
H2 H 0.4330 0.4092 -0.0639
C1 C 0.2786(3) 0.38395(9) 0.0788(10)
C2 C 0.2466(3) 0.45150(9) -0.1744(10)
H3 H 0.2684 0.4760 -0.2735
N1 N 0.0888(2) 0.47648(9) -0.2102(10)
H4 H 0.1082 0.4996 -0.2954
H5 H 0.0299 0.4725 -0.1779
C3 C 0.1836(3) 0.37935(10) 0.1305(10)
H6 H 0.1620 0.3552 0.2353
C4 C 0.3109(3) 0.42111(10) -0.0781(10)
C5 C 0.1192(3) 0.40911(10) 0.0335(10)
H7 H 0.0556 0.4049 0.0722
C6 C 0.3479(3) 0.35283(10) 0.1784(10)
C7 C 0.1514(3) 0.44625(10) -0.1265(10)
O1 O 0.8122(2) 0.18150(7) 0.1760(9)
H1 H 0.8547 0.1979 0.1335
O2 O 0.9331(2) 0.14280(7) 0.3536(8)
O3 O 0.90174(19) 0.07107(7) 0.6320(9)
H2 H 0.9330 0.0908 0.5639
C1 C 0.7786(3) 0.11605(9) 0.4212(10)
C2 C 0.7466(3) 0.04850(9) 0.6744(10)
H3 H 0.7684 0.0240 0.7735
N1 N 0.5888(2) 0.02352(9) 0.7102(10)
H4 H 0.6082 0.0004 0.7954
H5 H 0.5299 0.0275 0.6779
C3 C 0.6836(3) 0.12065(10) 0.3695(10)
H6 H 0.6620 0.1448 0.2647
C4 C 0.8109(3) 0.07889(10) 0.5781(10)
C5 C 0.6192(3) 0.09089(10) 0.4665(10)
H7 H 0.5556 0.0951 0.4278
C6 C 0.8479(3) 0.14717(10) 0.3216(10)
C7 C 0.6514(3) 0.05375(10) 0.6265(10)
O1 O 0.6878(2) 0.81850(7) 0.6760(9)
H1 H 0.6453 0.8021 0.6335
O2 O 0.5669(2) 0.85720(7) 0.8536(8)
O3 O 0.59826(19) 0.92893(7) 1.1320(9)
H2 H 0.5670 0.9092 1.0639
C1 C 0.7214(3) 0.88395(9) 0.9212(10)
C2 C 0.7534(3) 0.95150(9) 1.1744(10)
H3 H 0.7316 0.9760 1.2735
N1 N 0.9112(2) 0.97648(9) 1.2102(10)
H4 H 0.8918 0.9996 1.2954
H5 H 0.9701 0.9725 1.1779
C3 C 0.8164(3) 0.87935(10) 0.8695(10)
H6 H 0.8380 0.8552 0.7647
C4 C 0.6891(3) 0.92111(10) 1.0781(10)
C5 C 0.8808(3) 0.90911(10) 0.9665(10)
H7 H 0.9444 0.9049 0.9278
C6 C 0.6521(3) 0.85283(10) 0.8216(10)
C7 C 0.8486(3) 0.94625(10) 1.1265(10)
N2 N 1.0398(2) 0.72919(8) 0.0508(9)
C8 C 0.8810(3) 0.72879(12) 0.2531(12)
H8 H 0.8284 0.7137 0.3191
C9 C 0.9622(3) 0.70945(11) 0.1512(11)
H9 H 0.9632 0.6806 0.1523
N2F N 1.0398(2) 0.77081(8) 0.0508(9)
C8F C 0.8810(3) 0.77121(12) 0.2531(12)
H8F H 0.8284 0.7863 0.3191
C9F C 0.9622(3) 0.79055(11) 0.1512(11)
H9F H 0.9632 0.8194 0.1523
N2 N 0.4602(2) 0.27081(8) 0.5508(9)
C8 C 0.6190(3) 0.27121(12) 0.7531(12)
H8 H 0.6716 0.2863 0.8191
C9 C 0.5378(3) 0.29055(11) 0.6512(11)
H9 H 0.5368 0.3194 0.6523
N2F N 0.4602(2) 0.22919(8) 0.5508(9)
C8F C 0.6190(3) 0.22879(12) 0.7531(12)
H8F H 0.6716 0.2137 0.8191
C9F C 0.5378(3) 0.20945(11) 0.6512(11)
H9F H 0.5368 0.1806 0.6523
N2 N -0.0398(2) 0.22919(8) 0.9492(9)
C8 C 0.1190(3) 0.22879(12) 0.7469(12)
H8 H 0.1716 0.2137 0.6809
C9 C 0.0378(3) 0.20945(11) 0.8488(11)
H9 H 0.0368 0.1806 0.8477
N2F N -0.0398(2) 0.27081(8) 0.9492(9)
C8F C 0.1190(3) 0.27121(12) 0.7469(12)
H8F H 0.1716 0.2863 0.6809
C9F C 0.0378(3) 0.29055(11) 0.8488(11)
H9F H 0.0368 0.3194 0.8477
N2 N 0.5398(2) 0.77081(8) 0.4492(9)
C8 C 0.3810(3) 0.77121(12) 0.2469(12)
H8 H 0.3284 0.7863 0.1809
C9 C 0.4622(3) 0.79055(11) 0.3488(11)
H9 H 0.4632 0.8194 0.3477
N2F N 0.5398(2) 0.72919(8) 0.4492(9)
C8F C 0.3810(3) 0.72879(12) 0.2469(12)
H8F H 0.3284 0.7137 0.1809
C9F C 0.4622(3) 0.70945(11) 0.3488(11)
H9F H 0.4632 0.6806 0.3477

#END
