./LACTUE_from_xyz.cif_generated_by_CrystalShift
_symmetry_cell_setting triclinic
_symmetry_space_group_name_H-M 'P 1'
loop_
_symmetry_equiv_pos_site_id
_symmetry_equiv_pos_as_xyz
1 x,y,z
_cell_length_a 8.561000
_cell_length_b 11.277000
_cell_length_c 7.992000
_cell_angle_alpha 107.780000
_cell_angle_beta 107.760000
_cell_angle_gamma 72.520000
_cell_volume 681.185763
loop_
_atom_site_label
_atom_site_type_symbol
_atom_site_fract_x
_atom_site_fract_y
_atom_site_fract_z
O1 O 0.586680 0.266100 0.308520
O2 O 0.742970 0.460340 -0.120940
O3 O 0.776620 -0.026650 -0.382990
C4 C 0.625830 0.313710 0.214370
C5 C 0.602680 0.258030 0.011190
C6 C 0.755730 0.262130 -0.052700
C7 C 0.752030 0.403910 -0.010140
C8 C 0.754260 0.474670 0.182090
C9 C 0.816860 0.584080 0.251530
C10 C 0.818870 0.650580 0.430810
C11 C 0.760840 0.605810 0.537770
C12 C 0.700900 0.495940 0.470380
C13 C 0.694610 0.429760 0.290880
C14 C 0.565470 0.126370 -0.041720
C15 C 0.545800 0.068850 -0.244480
C16 C 0.695170 0.070700 -0.303690
C17 C 0.736870 0.199890 -0.258730
C18 C 0.893370 0.190400 -0.323070
C19 C 1.057970 0.128910 -0.208920
C20 C 1.074000 0.193660 -0.008680
C21 C 0.923500 0.192250 0.052730
H22 H 0.494600 0.322900 -0.040000
H23 H 0.862700 0.618500 0.162800
H24 H 0.882700 0.731000 0.484600
H25 H 0.753400 0.663500 0.669000
H26 H 0.640800 0.465800 0.543900
H27 H 0.669500 0.066200 0.036900
H28 H 0.453800 0.136400 -0.000900
H29 H 0.529800 -0.014900 -0.275500
H30 H 0.445000 0.120800 -0.309200
H31 H 0.632800 0.262300 -0.335600
H32 H 0.892100 0.279900 -0.328400
H33 H 0.878500 0.138600 -0.448900
H34 H 1.147500 0.141100 -0.252300
H35 H 1.071400 0.028000 -0.219500
H36 H 1.085500 0.278200 0.014500
H37 H 1.175900 0.146600 0.060600
H38 H 0.919700 0.096900 0.038300
H39 H 0.939500 0.229100 0.184100
O40 O 0.413320 0.733900 0.691480
O41 O 0.257030 0.539660 1.120940
O42 O 0.223380 1.026650 1.382990
C43 C 0.374170 0.686290 0.785630
C44 C 0.397320 0.741970 0.988810
C45 C 0.244270 0.737870 1.052700
C46 C 0.247970 0.596090 1.010140
C47 C 0.245740 0.525330 0.817910
C48 C 0.183140 0.415920 0.748470
C49 C 0.181130 0.349420 0.569190
C50 C 0.239160 0.394190 0.462230
C51 C 0.299100 0.504060 0.529620
C52 C 0.305390 0.570240 0.709120
C53 C 0.434530 0.873630 1.041720
C54 C 0.454200 0.931150 1.244480
C55 C 0.304830 0.929300 1.303690
C56 C 0.263130 0.800110 1.258730
C57 C 0.106630 0.809600 1.323070
C58 C -0.057970 0.871090 1.208920
C59 C -0.074000 0.806340 1.008680
C60 C 0.076500 0.807750 0.947270
H61 H 0.505400 0.677100 1.040000
H62 H 0.137300 0.381500 0.837200
H63 H 0.117300 0.269000 0.515400
H64 H 0.246600 0.336500 0.331000
H65 H 0.359200 0.534200 0.456100
H66 H 0.330500 0.933800 0.963100
H67 H 0.546200 0.863600 1.000900
H68 H 0.470200 1.014900 1.275500
H69 H 0.555000 0.879200 1.309200
H70 H 0.367200 0.737700 1.335600
H71 H 0.107900 0.720100 1.328400
H72 H 0.121500 0.861400 1.448900
H73 H -0.147500 0.858900 1.252300
H74 H -0.071400 0.972000 1.219500
H75 H -0.085500 0.721800 0.985500
H76 H -0.175900 0.853400 0.939400
H77 H 0.080300 0.903100 0.961700
H78 H 0.060500 0.770900 0.815900

#END
