
#######################################################################
#
#                 Cambridge Crystallographic Data Centre
#                                CCDC 
#
#######################################################################
#
# If this CIF has been generated from an entry in the Cambridge 
# Structural Database, then it will include bibliographic, chemical, 
# crystal, experimental, refinement or atomic coordinate data resulting 
# from the CCDC's data processing and validation procedures.
#
#######################################################################

data_LACVIW
_symmetry_cell_setting           triclinic
_symmetry_space_group_name_H-M   'P -1'
_symmetry_Int_Tables_number      2
_space_group_name_Hall           '-P 1'
loop_
_symmetry_equiv_pos_site_id
_symmetry_equiv_pos_as_xyz
1 x,y,z
2 -x,-y,-z
_cell_length_a                   8.6257(12)
_cell_length_b                   10.5125(12)
_cell_length_c                   11.9133(16)
_cell_angle_alpha                67.565(5)
_cell_angle_beta                 73.327(5)
_cell_angle_gamma                78.041(5)
_cell_volume                     950.686
loop_
_atom_site_label
_atom_site_type_symbol
_atom_site_fract_x
_atom_site_fract_y
_atom_site_fract_z
C1 C 0.2864(8) 0.8494(7) 0.0228(6)
C2 C 0.3068(9) 0.9297(7) 0.0835(7)
H1 H 0.3550 0.8889 0.1513
C3 C 0.2572(11) 1.0702(8) 0.0463(7)
H2 H 0.2707 1.1230 0.0894
C4 C 0.1874(10) 1.1319(7) -0.0557(7)
H3 H 0.1545 1.2265 -0.0815
C5 C 0.1667(9) 1.0538(7) -0.1184(7)
H4 H 0.1187 1.0963 -0.1863
C6 C 0.2158(8) 0.9123(7) -0.0827(6)
C7 C 0.1912(9) 0.8241(8) -0.1430(6)
C8 C 0.2045(9) 0.6854(8) -0.0925(6)
H5 H 0.1799 0.6322 -0.1308
C9 C 0.3514(8) 0.6976(7) 0.0531(6)
H6 H 0.4627 0.6929 0.0022
C10 C 0.2702(8) 0.4892(7) 0.0867(6)
H7 H 0.2390 0.4202 0.0696
C11 C 0.3354(8) 0.4649(7) 0.1847(6)
C12 C 0.3566(8) 0.6030(6) 0.1893(6)
C13 C 0.2332(8) 0.6402(6) 0.2947(6)
C14 C 0.0661(9) 0.6509(7) 0.3281(6)
H8 H 0.0085 0.6340 0.2811
C15 C -0.0170(9) 0.6871(8) 0.4322(7)
H9 H -0.1302 0.6955 0.4545
C16 C 0.0705(9) 0.7108(8) 0.5028(7)
H10 H 0.0142 0.7334 0.5731
C17 C 0.2383(9) 0.7017(7) 0.4713(6)
H11 H 0.2956 0.7197 0.5179
C18 C 0.3179(8) 0.6648(6) 0.3678(6)
C19 C 0.5189(9) 0.6045(7) 0.2175(6)
C20 C 0.3698(8) 0.3328(7) 0.2777(6)
C21 C 0.3690(14) 0.0920(9) 0.3422(9)
H12 H 0.4830 0.0755 0.3414
H13 H 0.3408 0.0234 0.3187
H14 H 0.3066 0.0865 0.4245
C22 C 0.6109(10) 0.6610(9) 0.3690(7)
H15 H 0.7161 0.6426 0.3190
H16 H 0.6020 0.5973 0.4531
H17 H 0.5975 0.7541 0.3688
N1 N 0.2555(7) 0.6243(6) 0.0170(5)
N2 N 0.4857(7) 0.6445(6) 0.3183(5)
O1 O 0.4243(7) 0.3178(5) 0.3655(5)
O2 O 0.3343(8) 0.2264(5) 0.2559(5)
O3 O 0.6541(6) 0.5807(5) 0.1567(5)
Br1 Br 0.12431(14) 0.90614(10) -0.29596(8)
C1 C 0.7136(8) 0.1506(7) 0.9772(6)
C2 C 0.6932(9) 0.0703(7) 0.9165(7)
H1 H 0.6450 0.1111 0.8487
C3 C 0.7428(11) -0.0702(8) 0.9537(7)
H2 H 0.7293 -0.1230 0.9106
C4 C 0.8126(10) -0.1319(7) 1.0557(7)
H3 H 0.8455 -0.2265 1.0815
C5 C 0.8333(9) -0.0538(7) 1.1184(7)
H4 H 0.8813 -0.0963 1.1863
C6 C 0.7842(8) 0.0877(7) 1.0827(6)
C7 C 0.8088(9) 0.1759(8) 1.1430(6)
C8 C 0.7955(9) 0.3146(8) 1.0925(6)
H5 H 0.8201 0.3678 1.1308
C9 C 0.6486(8) 0.3024(7) 0.9469(6)
H6 H 0.5373 0.3071 0.9978
C10 C 0.7298(8) 0.5108(7) 0.9133(6)
H7 H 0.7610 0.5798 0.9304
C11 C 0.6646(8) 0.5351(7) 0.8153(6)
C12 C 0.6434(8) 0.3970(6) 0.8107(6)
C13 C 0.7668(8) 0.3598(6) 0.7053(6)
C14 C 0.9339(9) 0.3491(7) 0.6719(6)
H8 H 0.9915 0.3660 0.7189
C15 C 1.0170(9) 0.3129(8) 0.5678(7)
H9 H 1.1302 0.3045 0.5455
C16 C 0.9295(9) 0.2892(8) 0.4972(7)
H10 H 0.9858 0.2666 0.4269
C17 C 0.7617(9) 0.2983(7) 0.5287(6)
H11 H 0.7044 0.2803 0.4821
C18 C 0.6821(8) 0.3352(6) 0.6322(6)
C19 C 0.4811(9) 0.3955(7) 0.7825(6)
C20 C 0.6302(8) 0.6672(7) 0.7223(6)
C21 C 0.6310(14) 0.9080(9) 0.6578(9)
H12 H 0.5170 0.9245 0.6586
H13 H 0.6592 0.9766 0.6813
H14 H 0.6934 0.9135 0.5755
C22 C 0.3891(10) 0.3390(9) 0.6310(7)
H15 H 0.2839 0.3574 0.6810
H16 H 0.3980 0.4027 0.5469
H17 H 0.4025 0.2459 0.6312
N1 N 0.7445(7) 0.3757(6) 0.9830(5)
N2 N 0.5143(7) 0.3555(6) 0.6817(5)
O1 O 0.5757(7) 0.6822(5) 0.6345(5)
O2 O 0.6657(8) 0.7736(5) 0.7441(5)
O3 O 0.3459(6) 0.4193(5) 0.8433(5)
Br1 Br 0.87569(14) 0.09386(10) 1.29596(8)

#END
