
#######################################################################
#
#                 Cambridge Crystallographic Data Centre
#                                CCDC 
#
#######################################################################
#
# If this CIF has been generated from an entry in the Cambridge 
# Structural Database, then it will include bibliographic, chemical, 
# crystal, experimental, refinement or atomic coordinate data resulting 
# from the CCDC's data processing and validation procedures.
#
#######################################################################

data_LACWEU
_symmetry_cell_setting           monoclinic
_symmetry_space_group_name_H-M   'C 2/c'
_symmetry_Int_Tables_number      15
_space_group_name_Hall           '-C 2yn'
loop_
_symmetry_equiv_pos_site_id
_symmetry_equiv_pos_as_xyz
1 x,y,z
2 -x,y,1/2-z
3 1/2+x,1/2+y,z
4 1/2-x,1/2+y,1/2-z
5 -x,-y,-z
6 x,-y,1/2+z
7 1/2-x,1/2-y,-z
8 1/2+x,1/2-y,1/2+z
_cell_length_a                   11.551(3)
_cell_length_b                   8.5317(19)
_cell_length_c                   24.358(5)
_cell_angle_alpha                90
_cell_angle_beta                 92.804(4)
_cell_angle_gamma                90
_cell_volume                     2397.6
loop_
_atom_site_label
_atom_site_type_symbol
_atom_site_fract_x
_atom_site_fract_y
_atom_site_fract_z
O1 O 0.88898(12) 1.15046(15) 0.56509(5)
O2 O 0.78925(12) 1.01342(16) 0.50031(5)
H1 H 0.8196 1.0773 0.4804
O3 O 0.88719(12) 1.06027(16) 0.66617(5)
H2 H 0.9019 1.1177 0.6404
N1 N 0.63850(14) 0.63852(18) 0.70966(6)
H3 H 0.6575 0.6501 0.7440
H4 H 0.5895 0.5673 0.6993
C1 C 0.82393(16) 1.0396(2) 0.55190(7)
C2 C 0.77937(16) 0.9307(2) 0.59191(7)
C3 C 0.81216(16) 0.9468(2) 0.64826(7)
C4 C 0.76604(16) 0.8500(2) 0.68714(7)
H5 H 0.7884 0.8626 0.7241
C5 C 0.68627(16) 0.7334(2) 0.67150(7)
C6 C 0.65660(16) 0.7128(2) 0.61506(7)
H6 H 0.6058 0.6332 0.6038
C7 C 0.70207(16) 0.8091(2) 0.57682(7)
H7 H 0.6813 0.7938 0.5398
O1 O 0.11102(12) 1.15046(15) 0.93491(5)
O2 O 0.21075(12) 1.01342(16) 0.99969(5)
H1 H 0.1804 1.0773 1.0196
O3 O 0.11281(12) 1.06027(16) 0.83383(5)
H2 H 0.0981 1.1177 0.8596
N1 N 0.36150(14) 0.63852(18) 0.79034(6)
H3 H 0.3425 0.6501 0.7560
H4 H 0.4105 0.5673 0.8007
C1 C 0.17607(16) 1.0396(2) 0.94810(7)
C2 C 0.22063(16) 0.9307(2) 0.90809(7)
C3 C 0.18784(16) 0.9468(2) 0.85174(7)
C4 C 0.23396(16) 0.8500(2) 0.81286(7)
H5 H 0.2116 0.8626 0.7759
C5 C 0.31373(16) 0.7334(2) 0.82850(7)
C6 C 0.34340(16) 0.7128(2) 0.88494(7)
H6 H 0.3942 0.6332 0.8962
C7 C 0.29793(16) 0.8091(2) 0.92318(7)
H7 H 0.3187 0.7938 0.9602
O1 O 0.38898(12) 0.65046(15) 0.56509(5)
O2 O 0.28925(12) 0.51342(16) 0.50031(5)
H1 H 0.3196 0.5773 0.4804
O3 O 0.38719(12) 0.56027(16) 0.66617(5)
H2 H 0.4019 0.6177 0.6404
N1 N 0.13850(14) 0.13852(18) 0.70966(6)
H3 H 0.1575 0.1501 0.7440
H4 H 0.0895 0.0673 0.6993
C1 C 0.32393(16) 0.5396(2) 0.55190(7)
C2 C 0.27937(16) 0.4307(2) 0.59191(7)
C3 C 0.31216(16) 0.4468(2) 0.64826(7)
C4 C 0.26604(16) 0.3500(2) 0.68714(7)
H5 H 0.2884 0.3626 0.7241
C5 C 0.18627(16) 0.2334(2) 0.67150(7)
C6 C 0.15660(16) 0.2128(2) 0.61506(7)
H6 H 0.1058 0.1332 0.6038
C7 C 0.20207(16) 0.3091(2) 0.57682(7)
H7 H 0.1813 0.2938 0.5398
O1 O 0.61102(12) 0.65046(15) 0.93491(5)
O2 O 0.71075(12) 0.51342(16) 0.99969(5)
H1 H 0.6804 0.5773 1.0196
O3 O 0.61281(12) 0.56027(16) 0.83383(5)
H2 H 0.5981 0.6177 0.8596
N1 N 0.86150(14) 0.13852(18) 0.79034(6)
H3 H 0.8425 0.1501 0.7560
H4 H 0.9105 0.0673 0.8007
C1 C 0.67607(16) 0.5396(2) 0.94810(7)
C2 C 0.72063(16) 0.4307(2) 0.90809(7)
C3 C 0.68784(16) 0.4468(2) 0.85174(7)
C4 C 0.73396(16) 0.3500(2) 0.81286(7)
H5 H 0.7116 0.3626 0.7759
C5 C 0.81373(16) 0.2334(2) 0.82850(7)
C6 C 0.84340(16) 0.2128(2) 0.88494(7)
H6 H 0.8942 0.1332 0.8962
C7 C 0.79793(16) 0.3091(2) 0.92318(7)
H7 H 0.8187 0.2938 0.9602
O1 O 0.11102(12) -0.15046(15) 0.43491(5)
O2 O 0.21075(12) -0.01342(16) 0.49969(5)
H1 H 0.1804 -0.0773 0.5196
O3 O 0.11281(12) -0.06027(16) 0.33383(5)
H2 H 0.0981 -0.1177 0.3596
N1 N 0.36150(14) 0.36148(18) 0.29034(6)
H3 H 0.3425 0.3499 0.2560
H4 H 0.4105 0.4327 0.3007
C1 C 0.17607(16) -0.0396(2) 0.44810(7)
C2 C 0.22063(16) 0.0693(2) 0.40809(7)
C3 C 0.18784(16) 0.0532(2) 0.35174(7)
C4 C 0.23396(16) 0.1500(2) 0.31286(7)
H5 H 0.2116 0.1374 0.2759
C5 C 0.31373(16) 0.2666(2) 0.32850(7)
C6 C 0.34340(16) 0.2872(2) 0.38494(7)
H6 H 0.3942 0.3668 0.3962
C7 C 0.29793(16) 0.1909(2) 0.42318(7)
H7 H 0.3187 0.2062 0.4602
O1 O 0.88898(12) -0.15046(15) 0.06509(5)
O2 O 0.78925(12) -0.01342(16) 0.00031(5)
H1 H 0.8196 -0.0773 -0.0196
O3 O 0.88719(12) -0.06027(16) 0.16617(5)
H2 H 0.9019 -0.1177 0.1404
N1 N 0.63850(14) 0.36148(18) 0.20966(6)
H3 H 0.6575 0.3499 0.2440
H4 H 0.5895 0.4327 0.1993
C1 C 0.82393(16) -0.0396(2) 0.05190(7)
C2 C 0.77937(16) 0.0693(2) 0.09191(7)
C3 C 0.81216(16) 0.0532(2) 0.14826(7)
C4 C 0.76604(16) 0.1500(2) 0.18714(7)
H5 H 0.7884 0.1374 0.2241
C5 C 0.68627(16) 0.2666(2) 0.17150(7)
C6 C 0.65660(16) 0.2872(2) 0.11506(7)
H6 H 0.6058 0.3668 0.1038
C7 C 0.70207(16) 0.1909(2) 0.07682(7)
H7 H 0.6813 0.2062 0.0398
O1 O 0.61102(12) 0.34954(15) 0.43491(5)
O2 O 0.71075(12) 0.48658(16) 0.49969(5)
H1 H 0.6804 0.4227 0.5196
O3 O 0.61281(12) 0.43973(16) 0.33383(5)
H2 H 0.5981 0.3823 0.3596
N1 N 0.86150(14) 0.86148(18) 0.29034(6)
H3 H 0.8425 0.8499 0.2560
H4 H 0.9105 0.9327 0.3007
C1 C 0.67607(16) 0.4604(2) 0.44810(7)
C2 C 0.72063(16) 0.5693(2) 0.40809(7)
C3 C 0.68784(16) 0.5532(2) 0.35174(7)
C4 C 0.73396(16) 0.6500(2) 0.31286(7)
H5 H 0.7116 0.6374 0.2759
C5 C 0.81373(16) 0.7666(2) 0.32850(7)
C6 C 0.84340(16) 0.7872(2) 0.38494(7)
H6 H 0.8942 0.8668 0.3962
C7 C 0.79793(16) 0.6909(2) 0.42318(7)
H7 H 0.8187 0.7062 0.4602
O1 O 0.38898(12) 0.34954(15) 0.06509(5)
O2 O 0.28925(12) 0.48658(16) 0.00031(5)
H1 H 0.3196 0.4227 -0.0196
O3 O 0.38719(12) 0.43973(16) 0.16617(5)
H2 H 0.4019 0.3823 0.1404
N1 N 0.13850(14) 0.86148(18) 0.20966(6)
H3 H 0.1575 0.8499 0.2440
H4 H 0.0895 0.9327 0.1993
C1 C 0.32393(16) 0.4604(2) 0.05190(7)
C2 C 0.27937(16) 0.5693(2) 0.09191(7)
C3 C 0.31216(16) 0.5532(2) 0.14826(7)
C4 C 0.26604(16) 0.6500(2) 0.18714(7)
H5 H 0.2884 0.6374 0.2241
C5 C 0.18627(16) 0.7666(2) 0.17150(7)
C6 C 0.15660(16) 0.7872(2) 0.11506(7)
H6 H 0.1058 0.8668 0.1038
C7 C 0.20207(16) 0.6909(2) 0.07682(7)
H7 H 0.1813 0.7062 0.0398
N2 N 1.11520(15) 0.5935(2) 0.30111(7)
N3 N 0.88980(13) 0.20761(18) 0.43221(6)
C8 C 1.06635(17) 0.5123(2) 0.32925(8)
C9 C 1.00515(17) 0.4083(2) 0.36461(8)
C10 C 1.03309(17) 0.4053(2) 0.42087(8)
H8 H 1.0906 0.4699 0.4364
C11 C 0.97234(17) 0.3029(2) 0.45278(8)
H9 H 0.9900 0.3005 0.4904
C12 C 0.86375(17) 0.2123(2) 0.37811(8)
H10 H 0.8059 0.1462 0.3636
C13 C 0.91891(17) 0.3108(2) 0.34286(8)
H11 H 0.8986 0.3116 0.3054
N2 N -0.11520(15) 0.5935(2) 0.19889(7)
N3 N 0.11020(13) 0.20761(18) 0.06779(6)
C8 C -0.06635(17) 0.5123(2) 0.17075(8)
C9 C -0.00515(17) 0.4083(2) 0.13539(8)
C10 C -0.03309(17) 0.4053(2) 0.07913(8)
H8 H -0.0906 0.4699 0.0636
C11 C 0.02766(17) 0.3029(2) 0.04722(8)
H9 H 0.0100 0.3005 0.0096
C12 C 0.13625(17) 0.2123(2) 0.12189(8)
H10 H 0.1941 0.1462 0.1364
C13 C 0.08109(17) 0.3108(2) 0.15714(8)
H11 H 0.1014 0.3116 0.1946
N2 N 0.61520(15) 1.0935(2) 0.30111(7)
N3 N 0.38980(13) 0.70761(18) 0.43221(6)
C8 C 0.56635(17) 1.0123(2) 0.32925(8)
C9 C 0.50515(17) 0.9083(2) 0.36461(8)
C10 C 0.53309(17) 0.9053(2) 0.42087(8)
H8 H 0.5906 0.9699 0.4364
C11 C 0.47234(17) 0.8029(2) 0.45278(8)
H9 H 0.4900 0.8005 0.4904
C12 C 0.36375(17) 0.7123(2) 0.37811(8)
H10 H 0.3059 0.6462 0.3636
C13 C 0.41891(17) 0.8108(2) 0.34286(8)
H11 H 0.3986 0.8116 0.3054
N2 N 0.38480(15) 1.0935(2) 0.19889(7)
N3 N 0.61020(13) 0.70761(18) 0.06779(6)
C8 C 0.43365(17) 1.0123(2) 0.17075(8)
C9 C 0.49485(17) 0.9083(2) 0.13539(8)
C10 C 0.46691(17) 0.9053(2) 0.07913(8)
H8 H 0.4094 0.9699 0.0636
C11 C 0.52766(17) 0.8029(2) 0.04722(8)
H9 H 0.5100 0.8005 0.0096
C12 C 0.63625(17) 0.7123(2) 0.12189(8)
H10 H 0.6941 0.6462 0.1364
C13 C 0.58109(17) 0.8108(2) 0.15714(8)
H11 H 0.6014 0.8116 0.1946
N2 N -0.11520(15) 0.4065(2) 0.69889(7)
N3 N 0.11020(13) 0.79239(18) 0.56779(6)
C8 C -0.06635(17) 0.4877(2) 0.67075(8)
C9 C -0.00515(17) 0.5917(2) 0.63539(8)
C10 C -0.03309(17) 0.5947(2) 0.57913(8)
H8 H -0.0906 0.5301 0.5636
C11 C 0.02766(17) 0.6971(2) 0.54722(8)
H9 H 0.0100 0.6995 0.5096
C12 C 0.13625(17) 0.7877(2) 0.62189(8)
H10 H 0.1941 0.8538 0.6364
C13 C 0.08109(17) 0.6892(2) 0.65714(8)
H11 H 0.1014 0.6884 0.6946
N2 N 1.11520(15) 0.4065(2) 0.80111(7)
N3 N 0.88980(13) 0.79239(18) 0.93221(6)
C8 C 1.06635(17) 0.4877(2) 0.82925(8)
C9 C 1.00515(17) 0.5917(2) 0.86461(8)
C10 C 1.03309(17) 0.5947(2) 0.92087(8)
H8 H 1.0906 0.5301 0.9364
C11 C 0.97234(17) 0.6971(2) 0.95278(8)
H9 H 0.9900 0.6995 0.9904
C12 C 0.86375(17) 0.7877(2) 0.87811(8)
H10 H 0.8059 0.8538 0.8636
C13 C 0.91891(17) 0.6892(2) 0.84286(8)
H11 H 0.8986 0.6884 0.8054
N2 N 0.38480(15) -0.0935(2) 0.69889(7)
N3 N 0.61020(13) 0.29239(18) 0.56779(6)
C8 C 0.43365(17) -0.0123(2) 0.67075(8)
C9 C 0.49485(17) 0.0917(2) 0.63539(8)
C10 C 0.46691(17) 0.0947(2) 0.57913(8)
H8 H 0.4094 0.0301 0.5636
C11 C 0.52766(17) 0.1971(2) 0.54722(8)
H9 H 0.5100 0.1995 0.5096
C12 C 0.63625(17) 0.2877(2) 0.62189(8)
H10 H 0.6941 0.3538 0.6364
C13 C 0.58109(17) 0.1892(2) 0.65714(8)
H11 H 0.6014 0.1884 0.6946
N2 N 0.61520(15) -0.0935(2) 0.80111(7)
N3 N 0.38980(13) 0.29239(18) 0.93221(6)
C8 C 0.56635(17) -0.0123(2) 0.82925(8)
C9 C 0.50515(17) 0.0917(2) 0.86461(8)
C10 C 0.53309(17) 0.0947(2) 0.92087(8)
H8 H 0.5906 0.0301 0.9364
C11 C 0.47234(17) 0.1971(2) 0.95278(8)
H9 H 0.4900 0.1995 0.9904
C12 C 0.36375(17) 0.2877(2) 0.87811(8)
H10 H 0.3059 0.3538 0.8636
C13 C 0.41891(17) 0.1892(2) 0.84286(8)
H11 H 0.3986 0.1884 0.8054

#END
