./LACXUK_from_xyz.cif_generated_by_CrystalShift
_symmetry_cell_setting triclinic
_symmetry_space_group_name_H-M 'P 1'
loop_
_symmetry_equiv_pos_site_id
_symmetry_equiv_pos_as_xyz
1 x,y,z
_cell_length_a 5.990300
_cell_length_b 8.682000
_cell_length_c 27.615000
_cell_angle_alpha 90.000000
_cell_angle_beta 90.000000
_cell_angle_gamma 90.000000
_cell_volume 1436.194972
loop_
_atom_site_label
_atom_site_type_symbol
_atom_site_fract_x
_atom_site_fract_y
_atom_site_fract_z
C1 C 0.379900 0.221000 0.519700
C2 C 0.364400 0.047600 0.528630
H3 H 0.514000 0.013000 0.528600
C4 C 0.271600 0.001800 0.578320
H5 H 0.110000 0.017000 0.577900
C6 C 0.374500 0.103600 0.617890
C7 C 0.307600 0.268700 0.605490
H8 H 0.378000 0.342000 0.626300
H9 H 0.144000 0.277000 0.605400
C10 C 0.627800 0.084200 0.621450
H11 H 0.683000 0.136000 0.649500
H12 H 0.660000 -0.021000 0.622900
H13 H 0.703000 0.131000 0.594600
C14 C 0.335900 -0.129100 0.460320
H15 H 0.216000 -0.179000 0.437300
C16 C 0.300700 0.133800 0.705800
C17 C 0.231100 0.107600 0.792620
C18 C 0.088700 0.251600 0.796950
H19 H 0.165000 0.343000 0.780700
H20 H -0.059000 0.236000 0.782600
H21 H 0.067000 0.270000 0.831400
C22 C 0.471400 0.136400 0.807300
H23 H 0.564000 0.045000 0.800800
H24 H 0.529000 0.229000 0.789100
H25 H 0.473000 0.162000 0.841700
C26 C 0.131300 -0.026100 0.820790
H27 H -0.032000 -0.055000 0.810000
H28 H 0.221000 -0.124000 0.816300
H29 H 0.143000 0.000000 0.855200
O30 O 0.405700 0.274600 0.479850
O31 O 0.384600 0.315800 0.557680
O32 O 0.532300 -0.165800 0.461440
O33 O 0.320000 -0.154200 0.588740
H34 H 0.220000 -0.210000 0.570600
O35 O 0.386500 0.259800 0.709010
O36 O 0.221400 0.048500 0.742450
N37 N 0.243100 -0.027200 0.490150
H38 H 0.104000 -0.007000 0.485200
N39 N 0.263400 0.059100 0.663030
H40 H 0.228000 -0.034000 0.664600
C41 C 0.120100 0.779000 0.019700
C42 C 0.135600 0.952400 0.028630
H43 H -0.014000 0.987000 0.028600
C44 C 0.228400 0.998200 0.078320
H45 H 0.390000 0.983000 0.077900
C46 C 0.125500 0.896400 0.117890
C47 C 0.192400 0.731300 0.105490
H48 H 0.122000 0.658000 0.126300
H49 H 0.356000 0.723000 0.105400
C50 C -0.127800 0.915800 0.121450
H51 H -0.183000 0.864000 0.149500
H52 H -0.160000 1.021000 0.122900
H53 H -0.203000 0.869000 0.094600
C54 C 0.164100 1.129100 -0.039680
H55 H 0.284000 1.179000 -0.062700
C56 C 0.199300 0.866200 0.205800
C57 C 0.268900 0.892400 0.292620
C58 C 0.411300 0.748400 0.296950
H59 H 0.335000 0.657000 0.280700
H60 H 0.559000 0.764000 0.282600
H61 H 0.433000 0.730000 0.331400
C62 C 0.028600 0.863600 0.307300
H63 H -0.064000 0.955000 0.300800
H64 H -0.029000 0.771000 0.289100
H65 H 0.027000 0.838000 0.341700
C66 C 0.368700 1.026100 0.320790
H67 H 0.532000 1.055000 0.310000
H68 H 0.279000 1.124000 0.316300
H69 H 0.357000 1.000000 0.355200
O70 O 0.094300 0.725400 -0.020150
O71 O 0.115400 0.684200 0.057680
O72 O -0.032300 1.165800 -0.038560
O73 O 0.180000 1.154200 0.088740
H74 H 0.280000 1.210000 0.070600
O75 O 0.113500 0.740200 0.209010
O76 O 0.278600 0.951500 0.242450
N77 N 0.256900 1.027200 -0.009850
H78 H 0.396000 1.007000 -0.014800
N79 N 0.236600 0.940900 0.163030
H80 H 0.272000 1.034000 0.164600
C81 C 0.879900 0.279000 0.480300
C82 C 0.864400 0.452400 0.471370
H83 H 1.014000 0.487000 0.471400
C84 C 0.771600 0.498200 0.421680
H85 H 0.610000 0.483000 0.422100
C86 C 0.874500 0.396400 0.382110
C87 C 0.807600 0.231300 0.394510
H88 H 0.878000 0.158000 0.373700
H89 H 0.644000 0.223000 0.394600
C90 C 1.127800 0.415800 0.378550
H91 H 1.183000 0.364000 0.350500
H92 H 1.160000 0.521000 0.377100
H93 H 1.203000 0.369000 0.405400
C94 C 0.835900 0.629100 0.539680
H95 H 0.716000 0.679000 0.562700
C96 C 0.800700 0.366200 0.294200
C97 C 0.731100 0.392400 0.207380
C98 C 0.588700 0.248400 0.203050
H99 H 0.665000 0.157000 0.219300
H100 H 0.441000 0.264000 0.217400
H101 H 0.567000 0.230000 0.168600
C102 C 0.971400 0.363600 0.192700
H103 H 1.064000 0.455000 0.199200
H104 H 1.029000 0.271000 0.210900
H105 H 0.973000 0.338000 0.158300
C106 C 0.631300 0.526100 0.179210
H107 H 0.468000 0.555000 0.190000
H108 H 0.721000 0.624000 0.183700
H109 H 0.643000 0.500000 0.144800
O110 O 0.905700 0.225400 0.520150
O111 O 0.884600 0.184200 0.442320
O112 O 1.032300 0.665800 0.538560
O113 O 0.820000 0.654200 0.411260
H114 H 0.720000 0.710000 0.429400
O115 O 0.886500 0.240200 0.290990
O116 O 0.721400 0.451500 0.257550
N117 N 0.743100 0.527200 0.509850
H118 H 0.604000 0.507000 0.514800
N119 N 0.763400 0.440900 0.336970
H120 H 0.728000 0.534000 0.335400
C121 C 0.620100 0.721000 0.980300
C122 C 0.635600 0.547600 0.971370
H123 H 0.486000 0.513000 0.971400
C124 C 0.728400 0.501800 0.921680
H125 H 0.890000 0.517000 0.922100
C126 C 0.625500 0.603600 0.882110
C127 C 0.692400 0.768700 0.894510
H128 H 0.622000 0.842000 0.873700
H129 H 0.856000 0.777000 0.894600
C130 C 0.372200 0.584200 0.878550
H131 H 0.317000 0.636000 0.850500
H132 H 0.340000 0.479000 0.877100
H133 H 0.297000 0.631000 0.905400
C134 C 0.664100 0.370900 1.039680
H135 H 0.784000 0.321000 1.062700
C136 C 0.699300 0.633800 0.794200
C137 C 0.768900 0.607600 0.707380
C138 C 0.911300 0.751600 0.703050
H139 H 0.835000 0.843000 0.719300
H140 H 1.059000 0.736000 0.717400
H141 H 0.933000 0.770000 0.668600
C142 C 0.528600 0.636400 0.692700
H143 H 0.436000 0.545000 0.699200
H144 H 0.471000 0.729000 0.710900
H145 H 0.527000 0.662000 0.658300
C146 C 0.868700 0.473900 0.679210
H147 H 1.032000 0.445000 0.690000
H148 H 0.779000 0.376000 0.683700
H149 H 0.857000 0.500000 0.644800
O150 O 0.594300 0.774600 1.020150
O151 O 0.615400 0.815800 0.942320
O152 O 0.467700 0.334200 1.038560
O153 O 0.680000 0.345800 0.911260
H154 H 0.780000 0.290000 0.929400
O155 O 0.613500 0.759800 0.790990
O156 O 0.778600 0.548500 0.757550
N157 N 0.756900 0.472800 1.009850
H158 H 0.896000 0.493000 1.014800
N159 N 0.736600 0.559100 0.836970
H160 H 0.772000 0.466000 0.835400

#END
