./LACXOC_from_xyz.cif_generated_by_CrystalShift
_symmetry_cell_setting triclinic
_symmetry_space_group_name_H-M 'P 1'
loop_
_symmetry_equiv_pos_site_id
_symmetry_equiv_pos_as_xyz
1 x,y,z
_cell_length_a 9.412000
_cell_length_b 9.116000
_cell_length_c 21.358000
_cell_angle_alpha 90.000000
_cell_angle_beta 94.760000
_cell_angle_gamma 90.000000
_cell_volume 1826.191687
loop_
_atom_site_label
_atom_site_type_symbol
_atom_site_fract_x
_atom_site_fract_y
_atom_site_fract_z
S1 S 0.320100 0.429100 0.605300
S2 S 0.179100 0.425400 0.414000
O3 O 0.169800 0.396800 0.595300
O4 O 0.423600 0.315400 0.597000
O5 O 0.329900 0.400800 0.427800
O6 O 0.080700 0.307900 0.422600
N7 N 0.360000 0.561400 0.560300
N8 N 0.132700 0.560900 0.456500
C9 C 0.269100 0.690100 0.544200
C10 C 0.351000 0.830500 0.563300
C11 C 0.269600 0.969200 0.541900
C12 C 0.231600 0.966800 0.471300
C13 C 0.145300 0.830000 0.452200
C14 C 0.224700 0.689200 0.473100
C15 C 0.350700 0.487700 0.684900
C16 C 0.468100 0.575300 0.702800
C17 C 0.500400 0.606700 0.766200
C18 C 0.417000 0.548300 0.810900
C19 C 0.299800 0.461600 0.792700
C20 C 0.265300 0.431500 0.729400
C21 C 0.155300 0.476000 0.333400
C22 C 0.226100 0.597300 0.311800
C23 C 0.208600 0.631800 0.248000
C24 C 0.125500 0.543600 0.207000
C25 C 0.057300 0.422700 0.228900
C26 C 0.071000 0.388100 0.292400
H27 H 0.181700 0.684400 0.567700
H28 H 0.444000 0.829300 0.544800
H29 H 0.370100 0.832600 0.609600
H30 H 0.181300 0.976500 0.563900
H31 H 0.328900 1.056500 0.553100
H32 H 0.320100 0.968300 0.449300
H33 H 0.175600 1.055400 0.458800
H34 H 0.125000 0.828900 0.406000
H35 H 0.053000 0.833500 0.471300
H36 H 0.312700 0.681600 0.450000
H37 H 0.525700 0.613400 0.672100
H38 H 0.579300 0.667900 0.778900
H39 H 0.440600 0.567900 0.854200
H40 H 0.242900 0.422700 0.823500
H41 H 0.184400 0.373200 0.716700
H42 H 0.285600 0.655700 0.339900
H43 H 0.253800 0.716200 0.232700
H44 H 0.115500 0.566600 0.163400
H45 H 0.000600 0.362500 0.200400
H46 H 0.023200 0.305200 0.307600
S47 S 0.679900 -0.070900 0.894700
S48 S 0.820900 -0.074600 1.086000
O49 O 0.830200 -0.103200 0.904700
O50 O 0.576400 -0.184600 0.903000
O51 O 0.670100 -0.099200 1.072200
O52 O 0.919300 -0.192100 1.077400
N53 N 0.640000 0.061400 0.939700
N54 N 0.867300 0.060900 1.043500
C55 C 0.730900 0.190100 0.955800
C56 C 0.649000 0.330500 0.936700
C57 C 0.730400 0.469200 0.958100
C58 C 0.768400 0.466800 1.028700
C59 C 0.854700 0.330000 1.047800
C60 C 0.775300 0.189200 1.026900
C61 C 0.649300 -0.012300 0.815100
C62 C 0.531900 0.075300 0.797200
C63 C 0.499600 0.106700 0.733800
C64 C 0.583000 0.048300 0.689100
C65 C 0.700200 -0.038400 0.707300
C66 C 0.734700 -0.068500 0.770600
C67 C 0.844700 -0.024000 1.166600
C68 C 0.773900 0.097300 1.188200
C69 C 0.791400 0.131800 1.252000
C70 C 0.874500 0.043600 1.293000
C71 C 0.942700 -0.077300 1.271100
C72 C 0.929000 -0.111900 1.207600
H73 H 0.818300 0.184400 0.932300
H74 H 0.556000 0.329300 0.955200
H75 H 0.629900 0.332600 0.890400
H76 H 0.818700 0.476500 0.936100
H77 H 0.671100 0.556500 0.946900
H78 H 0.679900 0.468300 1.050700
H79 H 0.824400 0.555400 1.041200
H80 H 0.875000 0.328900 1.094000
H81 H 0.947000 0.333500 1.028700
H82 H 0.687300 0.181600 1.050000
H83 H 0.474300 0.113400 0.827900
H84 H 0.420700 0.167900 0.721100
H85 H 0.559400 0.067900 0.645800
H86 H 0.757100 -0.077300 0.676500
H87 H 0.815600 -0.126800 0.783300
H88 H 0.714400 0.155700 1.160100
H89 H 0.746200 0.216200 1.267300
H90 H 0.884500 0.066600 1.336600
H91 H 0.999400 -0.137500 1.299600
H92 H 0.976800 -0.194800 1.192400
S93 S 0.679900 0.570900 0.394700
S94 S 0.820900 0.574600 0.586000
O95 O 0.830200 0.603200 0.404700
O96 O 0.576400 0.684600 0.403000
O97 O 0.670100 0.599200 0.572200
O98 O 0.919300 0.692100 0.577400
N99 N 0.640000 0.438600 0.439700
N100 N 0.867300 0.439100 0.543500
C101 C 0.730900 0.309900 0.455800
C102 C 0.649000 0.169500 0.436700
C103 C 0.730400 0.030800 0.458100
C104 C 0.768400 0.033200 0.528700
C105 C 0.854700 0.170000 0.547800
C106 C 0.775300 0.310800 0.526900
C107 C 0.649300 0.512300 0.315100
C108 C 0.531900 0.424700 0.297200
C109 C 0.499600 0.393300 0.233800
C110 C 0.583000 0.451700 0.189100
C111 C 0.700200 0.538400 0.207300
C112 C 0.734700 0.568500 0.270600
C113 C 0.844700 0.524000 0.666600
C114 C 0.773900 0.402700 0.688200
C115 C 0.791400 0.368200 0.752000
C116 C 0.874500 0.456400 0.793000
C117 C 0.942700 0.577300 0.771100
C118 C 0.929000 0.611900 0.707600
H119 H 0.818300 0.315600 0.432300
H120 H 0.556000 0.170700 0.455200
H121 H 0.629900 0.167400 0.390400
H122 H 0.818700 0.023500 0.436100
H123 H 0.671100 -0.056500 0.446900
H124 H 0.679900 0.031700 0.550700
H125 H 0.824400 -0.055400 0.541200
H126 H 0.875000 0.171100 0.594000
H127 H 0.947000 0.166500 0.528700
H128 H 0.687300 0.318400 0.550000
H129 H 0.474300 0.386600 0.327900
H130 H 0.420700 0.332100 0.221100
H131 H 0.559400 0.432100 0.145800
H132 H 0.757100 0.577300 0.176500
H133 H 0.815600 0.626800 0.283300
H134 H 0.714400 0.344300 0.660100
H135 H 0.746200 0.283800 0.767300
H136 H 0.884500 0.433400 0.836600
H137 H 0.999400 0.637500 0.799600
H138 H 0.976800 0.694800 0.692400
S139 S 0.320100 1.070900 0.105300
S140 S 0.179100 1.074600 -0.086000
O141 O 0.169800 1.103200 0.095300
O142 O 0.423600 1.184600 0.097000
O143 O 0.329900 1.099200 -0.072200
O144 O 0.080700 1.192100 -0.077400
N145 N 0.360000 0.938600 0.060300
N146 N 0.132700 0.939100 -0.043500
C147 C 0.269100 0.809900 0.044200
C148 C 0.351000 0.669500 0.063300
C149 C 0.269600 0.530800 0.041900
C150 C 0.231600 0.533200 -0.028700
C151 C 0.145300 0.670000 -0.047800
C152 C 0.224700 0.810800 -0.026900
C153 C 0.350700 1.012300 0.184900
C154 C 0.468100 0.924700 0.202800
C155 C 0.500400 0.893300 0.266200
C156 C 0.417000 0.951700 0.310900
C157 C 0.299800 1.038400 0.292700
C158 C 0.265300 1.068500 0.229400
C159 C 0.155300 1.024000 -0.166600
C160 C 0.226100 0.902700 -0.188200
C161 C 0.208600 0.868200 -0.252000
C162 C 0.125500 0.956400 -0.293000
C163 C 0.057300 1.077300 -0.271100
C164 C 0.071000 1.111900 -0.207600
H165 H 0.181700 0.815600 0.067700
H166 H 0.444000 0.670700 0.044800
H167 H 0.370100 0.667400 0.109600
H168 H 0.181300 0.523500 0.063900
H169 H 0.328900 0.443500 0.053100
H170 H 0.320100 0.531700 -0.050700
H171 H 0.175600 0.444600 -0.041200
H172 H 0.125000 0.671100 -0.094000
H173 H 0.053000 0.666500 -0.028700
H174 H 0.312700 0.818400 -0.050000
H175 H 0.525700 0.886600 0.172100
H176 H 0.579300 0.832100 0.278900
H177 H 0.440600 0.932100 0.354200
H178 H 0.242900 1.077300 0.323500
H179 H 0.184400 1.126800 0.216700
H180 H 0.285600 0.844300 -0.160100
H181 H 0.253800 0.783800 -0.267300
H182 H 0.115500 0.933400 -0.336600
H183 H 0.000600 1.137500 -0.299600
H184 H 0.023200 1.194800 -0.192400

#END
