
#######################################################################
#
#                 Cambridge Crystallographic Data Centre
#                                CCDC 
#
#######################################################################
#
# If this CIF has been generated from an entry in the Cambridge 
# Structural Database, then it will include bibliographic, chemical, 
# crystal, experimental, refinement or atomic coordinate data resulting 
# from the CCDC's data processing and validation procedures.
#
#######################################################################

data_KACTIR
_symmetry_cell_setting           monoclinic
_symmetry_space_group_name_H-M   'P 21/a'
_symmetry_Int_Tables_number      14
_space_group_name_Hall           '-P 2yab'
loop_
_symmetry_equiv_pos_site_id
_symmetry_equiv_pos_as_xyz
1 x,y,z
2 1/2-x,1/2+y,-z
3 -x,-y,-z
4 1/2+x,1/2-y,z
_cell_length_a                   18.487(6)
_cell_length_b                   28.175(7)
_cell_length_c                   19.434(10)
_cell_angle_alpha                90
_cell_angle_beta                 91.57(3)
_cell_angle_gamma                90
_cell_volume                     10118.8
loop_
_atom_site_label
_atom_site_type_symbol
_atom_site_fract_x
_atom_site_fract_y
_atom_site_fract_z
Eu1 Eu 0.99027(2) 0.60843(1) 0.29115(2)
O1 O 0.9915(3) 0.6902(2) 0.2655(3)
O2 O 1.0040(3) 0.6203(2) 0.1700(3)
O3 O 1.1159(3) 0.6147(2) 0.2812(3)
O4 O 1.0315(3) 0.5363(2) 0.2384(3)
O5 O 0.8944(3) 0.6309(2) 0.3632(3)
O6 O 1.0372(3) 0.6456(2) 0.3943(3)
N1 N 0.8638(4) 0.6112(3) 0.2244(4)
N2 N 0.8970(3) 0.5369(2) 0.3087(3)
N3 N 1.0247(4) 0.5421(2) 0.3800(3)
C1 C 1.0112(5) 0.7169(3) 0.2173(6)
C2 C 1.0258(6) 0.7031(4) 0.1486(6)
C3 C 1.0200(5) 0.6540(4) 0.1300(5)
C4 C 1.0191(7) 0.7703(3) 0.2370(6)
C5 C 0.948(1) 0.7851(6) 0.250(2)
C6 C 1.060(1) 0.7757(6) 0.3018(9)
C7 C 1.040(1) 0.8028(5) 0.181(1)
C8 C 1.0289(7) 0.6383(5) 0.0526(5)
C9 C 1.077(1) 0.5958(6) 0.0507(8)
C10 C 1.058(1) 0.6803(7) 0.0068(9)
C11 C 0.949(1) 0.6247(8) 0.0281(7)
C12 C 1.1671(5) 0.5917(4) 0.2517(5)
C13 C 1.1581(6) 0.5462(4) 0.2196(5)
C14 C 1.0861(6) 0.5216(3) 0.2147(5)
C15 C 1.2385(5) 0.6176(5) 0.2511(6)
C16 C 1.2967(8) 0.5948(6) 0.2069(8)
C17 C 1.2646(8) 0.6226(8) 0.3268(7)
C18 C 1.2262(7) 0.6668(5) 0.224(1)
C19 C 1.0896(7) 0.4714(4) 0.1855(7)
C39 C 1.112(2) 0.4398(6) 0.247(1)
C40 C 1.1439(9) 0.4651(5) 0.1259(8)
C41 C 1.0190(8) 0.4576(5) 0.163(1)
C42 C 0.8847(5) 0.6594(3) 0.4115(5)
C43 C 0.9422(5) 0.6808(4) 0.4525(5)
C44 C 1.0141(5) 0.6720(3) 0.4408(4)
C45 C 0.8050(5) 0.6703(4) 0.4271(6)
C46 C 0.7952(7) 0.6974(5) 0.4958(7)
C47 C 0.7684(8) 0.6215(7) 0.437(1)
C48 C 0.7725(8) 0.6923(7) 0.3631(8)
C49 C 1.0719(5) 0.6952(3) 0.4900(5)
C50 C 1.0804(8) 0.6619(5) 0.5510(7)
C51 C 1.0515(8) 0.7454(4) 0.5089(7)
C52 C 1.1456(6) 0.6983(4) 0.4536(6)
C53 C 0.8497(6) 0.6504(4) 0.1873(6)
C54 C 0.7800(7) 0.6565(5) 0.1538(7)
C55 C 0.7281(7) 0.6207(5) 0.1605(8)
C56 C 0.7443(6) 0.5795(4) 0.1994(7)
C57 C 0.8133(5) 0.5781(3) 0.2311(5)
C58 C 0.8318(5) 0.5375(3) 0.2773(4)
C59 C 0.7789(6) 0.5022(4) 0.2873(6)
C60 C 0.7962(6) 0.4665(4) 0.3320(6)
C61 C 0.8651(6) 0.4640(4) 0.3653(5)
C62 C 0.9143(5) 0.5016(3) 0.3516(5)
C63 C 0.9861(5) 0.5019(3) 0.3851(5)
C64 C 1.0129(7) 0.4627(4) 0.4217(7)
C65 C 1.0807(8) 0.4656(5) 0.4564(7)
C66 C 1.1233(6) 0.5081(5) 0.4492(6)
C67 C 1.0919(5) 0.5443(4) 0.4101(5)
Eu1 Eu 0.50973(2) 0.10843(1) 0.70885(2)
O1 O 0.5085(3) 0.1902(2) 0.7345(3)
O2 O 0.4960(3) 0.1203(2) 0.8300(3)
O3 O 0.3841(3) 0.1147(2) 0.7188(3)
O4 O 0.4685(3) 0.0363(2) 0.7616(3)
O5 O 0.6056(3) 0.1309(2) 0.6368(3)
O6 O 0.4628(3) 0.1456(2) 0.6057(3)
N1 N 0.6362(4) 0.1112(3) 0.7756(4)
N2 N 0.6030(3) 0.0369(2) 0.6913(3)
N3 N 0.4753(4) 0.0421(2) 0.6200(3)
C1 C 0.4888(5) 0.2169(3) 0.7827(6)
C2 C 0.4742(6) 0.2031(4) 0.8514(6)
C3 C 0.4800(5) 0.1540(4) 0.8700(5)
C4 C 0.4809(7) 0.2703(3) 0.7630(6)
C5 C 0.552(1) 0.2851(6) 0.750(2)
C6 C 0.440(1) 0.2757(6) 0.6982(9)
C7 C 0.460(1) 0.3028(5) 0.819(1)
C8 C 0.4711(7) 0.1383(5) 0.9474(5)
C9 C 0.423(1) 0.0958(6) 0.9493(8)
C10 C 0.442(1) 0.1803(7) 0.9932(9)
C11 C 0.551(1) 0.1247(8) 0.9719(7)
C12 C 0.3329(5) 0.0917(4) 0.7483(5)
C13 C 0.3419(6) 0.0462(4) 0.7804(5)
C14 C 0.4139(6) 0.0216(3) 0.7853(5)
C15 C 0.2615(5) 0.1176(5) 0.7489(6)
C16 C 0.2033(8) 0.0948(6) 0.7931(8)
C17 C 0.2354(8) 0.1226(8) 0.6732(7)
C18 C 0.2738(7) 0.1668(5) 0.776(1)
C19 C 0.4104(7) -0.0286(4) 0.8145(7)
C39 C 0.388(2) -0.0602(6) 0.753(1)
C40 C 0.3561(9) -0.0349(5) 0.8741(8)
C41 C 0.4810(8) -0.0424(5) 0.837(1)
C42 C 0.6153(5) 0.1594(3) 0.5885(5)
C43 C 0.5578(5) 0.1808(4) 0.5475(5)
C44 C 0.4859(5) 0.1720(3) 0.5592(4)
C45 C 0.6950(5) 0.1703(4) 0.5729(6)
C46 C 0.7048(7) 0.1974(5) 0.5042(7)
C47 C 0.7316(8) 0.1215(7) 0.563(1)
C48 C 0.7275(8) 0.1923(7) 0.6369(8)
C49 C 0.4281(5) 0.1952(3) 0.5100(5)
C50 C 0.4196(8) 0.1619(5) 0.4490(7)
C51 C 0.4485(8) 0.2454(4) 0.4911(7)
C52 C 0.3544(6) 0.1983(4) 0.5464(6)
C53 C 0.6503(6) 0.1504(4) 0.8127(6)
C54 C 0.7200(7) 0.1565(5) 0.8462(7)
C55 C 0.7719(7) 0.1207(5) 0.8395(8)
C56 C 0.7557(6) 0.0795(4) 0.8006(7)
C57 C 0.6867(5) 0.0781(3) 0.7689(5)
C58 C 0.6682(5) 0.0375(3) 0.7227(4)
C59 C 0.7211(6) 0.0022(4) 0.7127(6)
C60 C 0.7038(6) -0.0335(4) 0.6680(6)
C61 C 0.6349(6) -0.0360(4) 0.6347(5)
C62 C 0.5857(5) 0.0016(3) 0.6484(5)
C63 C 0.5139(5) 0.0019(3) 0.6149(5)
C64 C 0.4871(7) -0.0373(4) 0.5783(7)
C65 C 0.4193(8) -0.0344(5) 0.5436(7)
C66 C 0.3767(6) 0.0081(5) 0.5508(6)
C67 C 0.4081(5) 0.0443(4) 0.5899(5)
Eu1 Eu 0.00973(2) 0.39157(1) 0.70885(2)
O1 O 0.0085(3) 0.3098(2) 0.7345(3)
O2 O -0.0040(3) 0.3797(2) 0.8300(3)
O3 O -0.1159(3) 0.3853(2) 0.7188(3)
O4 O -0.0315(3) 0.4637(2) 0.7616(3)
O5 O 0.1056(3) 0.3691(2) 0.6368(3)
O6 O -0.0372(3) 0.3544(2) 0.6057(3)
N1 N 0.1362(4) 0.3888(3) 0.7756(4)
N2 N 0.1030(3) 0.4631(2) 0.6913(3)
N3 N -0.0247(4) 0.4579(2) 0.6200(3)
C1 C -0.0112(5) 0.2831(3) 0.7827(6)
C2 C -0.0258(6) 0.2969(4) 0.8514(6)
C3 C -0.0200(5) 0.3460(4) 0.8700(5)
C4 C -0.0191(7) 0.2297(3) 0.7630(6)
C5 C 0.052(1) 0.2149(6) 0.750(2)
C6 C -0.060(1) 0.2243(6) 0.6982(9)
C7 C -0.040(1) 0.1972(5) 0.819(1)
C8 C -0.0289(7) 0.3617(5) 0.9474(5)
C9 C -0.077(1) 0.4042(6) 0.9493(8)
C10 C -0.058(1) 0.3197(7) 0.9932(9)
C11 C 0.051(1) 0.3753(8) 0.9719(7)
C12 C -0.1671(5) 0.4083(4) 0.7483(5)
C13 C -0.1581(6) 0.4538(4) 0.7804(5)
C14 C -0.0861(6) 0.4784(3) 0.7853(5)
C15 C -0.2385(5) 0.3824(5) 0.7489(6)
C16 C -0.2967(8) 0.4052(6) 0.7931(8)
C17 C -0.2646(8) 0.3774(8) 0.6732(7)
C18 C -0.2262(7) 0.3332(5) 0.776(1)
C19 C -0.0896(7) 0.5286(4) 0.8145(7)
C39 C -0.112(2) 0.5602(6) 0.753(1)
C40 C -0.1439(9) 0.5349(5) 0.8741(8)
C41 C -0.0190(8) 0.5424(5) 0.837(1)
C42 C 0.1153(5) 0.3406(3) 0.5885(5)
C43 C 0.0578(5) 0.3192(4) 0.5475(5)
C44 C -0.0141(5) 0.3280(3) 0.5592(4)
C45 C 0.1950(5) 0.3297(4) 0.5729(6)
C46 C 0.2048(7) 0.3026(5) 0.5042(7)
C47 C 0.2316(8) 0.3785(7) 0.563(1)
C48 C 0.2275(8) 0.3077(7) 0.6369(8)
C49 C -0.0719(5) 0.3048(3) 0.5100(5)
C50 C -0.0804(8) 0.3381(5) 0.4490(7)
C51 C -0.0515(8) 0.2546(4) 0.4911(7)
C52 C -0.1456(6) 0.3017(4) 0.5464(6)
C53 C 0.1503(6) 0.3496(4) 0.8127(6)
C54 C 0.2200(7) 0.3435(5) 0.8462(7)
C55 C 0.2719(7) 0.3793(5) 0.8395(8)
C56 C 0.2557(6) 0.4205(4) 0.8006(7)
C57 C 0.1867(5) 0.4219(3) 0.7689(5)
C58 C 0.1682(5) 0.4625(3) 0.7227(4)
C59 C 0.2211(6) 0.4978(4) 0.7127(6)
C60 C 0.2038(6) 0.5335(4) 0.6680(6)
C61 C 0.1349(6) 0.5360(4) 0.6347(5)
C62 C 0.0857(5) 0.4984(3) 0.6484(5)
C63 C 0.0139(5) 0.4981(3) 0.6149(5)
C64 C -0.0129(7) 0.5373(4) 0.5783(7)
C65 C -0.0807(8) 0.5344(5) 0.5436(7)
C66 C -0.1233(6) 0.4919(5) 0.5508(6)
C67 C -0.0919(5) 0.4557(4) 0.5899(5)
Eu1 Eu 0.49027(2) 0.89157(1) 0.29115(2)
O1 O 0.4915(3) 0.8098(2) 0.2655(3)
O2 O 0.5040(3) 0.8797(2) 0.1700(3)
O3 O 0.6159(3) 0.8853(2) 0.2812(3)
O4 O 0.5315(3) 0.9637(2) 0.2384(3)
O5 O 0.3944(3) 0.8691(2) 0.3632(3)
O6 O 0.5372(3) 0.8544(2) 0.3943(3)
N1 N 0.3638(4) 0.8888(3) 0.2244(4)
N2 N 0.3970(3) 0.9631(2) 0.3087(3)
N3 N 0.5247(4) 0.9579(2) 0.3800(3)
C1 C 0.5112(5) 0.7831(3) 0.2173(6)
C2 C 0.5258(6) 0.7969(4) 0.1486(6)
C3 C 0.5200(5) 0.8460(4) 0.1300(5)
C4 C 0.5191(7) 0.7297(3) 0.2370(6)
C5 C 0.448(1) 0.7149(6) 0.250(2)
C6 C 0.560(1) 0.7243(6) 0.3018(9)
C7 C 0.540(1) 0.6972(5) 0.181(1)
C8 C 0.5289(7) 0.8617(5) 0.0526(5)
C9 C 0.577(1) 0.9042(6) 0.0507(8)
C10 C 0.558(1) 0.8197(7) 0.0068(9)
C11 C 0.449(1) 0.8753(8) 0.0281(7)
C12 C 0.6671(5) 0.9083(4) 0.2517(5)
C13 C 0.6581(6) 0.9538(4) 0.2196(5)
C14 C 0.5861(6) 0.9784(3) 0.2147(5)
C15 C 0.7385(5) 0.8824(5) 0.2511(6)
C16 C 0.7967(8) 0.9052(6) 0.2069(8)
C17 C 0.7646(8) 0.8774(8) 0.3268(7)
C18 C 0.7262(7) 0.8332(5) 0.224(1)
C19 C 0.5896(7) 1.0286(4) 0.1855(7)
C39 C 0.612(2) 1.0602(6) 0.247(1)
C40 C 0.6439(9) 1.0349(5) 0.1259(8)
C41 C 0.5190(8) 1.0424(5) 0.163(1)
C42 C 0.3847(5) 0.8406(3) 0.4115(5)
C43 C 0.4422(5) 0.8192(4) 0.4525(5)
C44 C 0.5141(5) 0.8280(3) 0.4408(4)
C45 C 0.3050(5) 0.8297(4) 0.4271(6)
C46 C 0.2952(7) 0.8026(5) 0.4958(7)
C47 C 0.2684(8) 0.8785(7) 0.437(1)
C48 C 0.2725(8) 0.8077(7) 0.3631(8)
C49 C 0.5719(5) 0.8048(3) 0.4900(5)
C50 C 0.5804(8) 0.8381(5) 0.5510(7)
C51 C 0.5515(8) 0.7546(4) 0.5089(7)
C52 C 0.6456(6) 0.8017(4) 0.4536(6)
C53 C 0.3497(6) 0.8496(4) 0.1873(6)
C54 C 0.2800(7) 0.8435(5) 0.1538(7)
C55 C 0.2281(7) 0.8793(5) 0.1605(8)
C56 C 0.2443(6) 0.9205(4) 0.1994(7)
C57 C 0.3133(5) 0.9219(3) 0.2311(5)
C58 C 0.3318(5) 0.9625(3) 0.2773(4)
C59 C 0.2789(6) 0.9978(4) 0.2873(6)
C60 C 0.2962(6) 1.0335(4) 0.3320(6)
C61 C 0.3651(6) 1.0360(4) 0.3653(5)
C62 C 0.4143(5) 0.9984(3) 0.3516(5)
C63 C 0.4861(5) 0.9981(3) 0.3851(5)
C64 C 0.5129(7) 1.0373(4) 0.4217(7)
C65 C 0.5807(8) 1.0344(5) 0.4564(7)
C66 C 0.6233(6) 0.9919(5) 0.4492(6)
C67 C 0.5919(5) 0.9557(4) 0.4101(5)
Eu2 Eu 0.07858(2) 0.10061(1) 0.20844(2)
O7 O -0.0267(3) 0.1007(2) 0.2737(3)
O8 O -0.0219(3) 0.1313(2) 0.1390(3)
O9 O 0.0827(3) 0.1814(2) 0.2295(3)
O10 O 0.1201(3) 0.1366(2) 0.1054(3)
O11 O 0.0865(3) 0.0254(2) 0.2659(3)
O12 O 0.1233(3) 0.1109(2) 0.3262(3)
N4 N 0.0194(4) 0.0325(2) 0.1339(4)
N5 N 0.1646(4) 0.0421(2) 0.1352(3)
N6 N 0.2202(3) 0.1135(2) 0.2120(4)
C20 C -0.0908(8) 0.1168(5) 0.2737(6)
C21 C -0.1255(7) 0.1382(6) 0.2157(7)
C22 C -0.0865(7) 0.1458(4) 0.1526(7)
C23 C -0.1343(7) 0.1169(7) 0.3358(7)
C24 C -0.094(1) 0.117(1) 0.3979(7)
C25 C -0.176(2) 0.078(1) 0.334(1)
C26 C -0.183(1) 0.160(1) 0.343(1)
C27 C -0.1220(6) 0.1708(4) 0.0843(6)
C28 C -0.121(1) 0.2205(5) 0.1024(8)
C29 C -0.197(1) 0.1482(9) 0.0766(9)
C30 C -0.086(1) 0.1663(9) 0.024(1)
C31 C 0.0918(7) 0.2187(4) 0.2000(6)
C32 C 0.1175(7) 0.2217(4) 0.1280(7)
C33 C 0.1271(6) 0.1767(4) 0.0846(6)
C34 C 0.0771(8) 0.2649(3) 0.2391(7)
C35 C 0.007(1) 0.2607(8) 0.274(1)
C36 C 0.137(1) 0.2711(5) 0.288(1)
C37 C 0.069(1) 0.3047(6) 0.188(1)
C38 C 0.1590(6) 0.1852(4) 0.0138(5)
C68 C 0.151(1) 0.2346(5) -0.0144(9)
C69 C 0.121(2) 0.1590(7) -0.0371(9)
C70 C 0.233(1) 0.1690(9) 0.025(1)
C71 C 0.0805(5) 0.0128(3) 0.3284(5)
C72 C 0.0956(6) 0.0418(4) 0.3849(5)
C73 C 0.1184(5) 0.0880(4) 0.3803(4)
C74 C 0.0518(6) -0.0385(4) 0.3384(6)
C75 C 0.082(1) -0.0590(5) 0.403(1)
C76 C 0.074(1) -0.0678(5) 0.277(1)
C77 C -0.0237(9) -0.0363(6) 0.341(2)
C78 C 0.1401(7) 0.1172(5) 0.4466(5)
C79 C 0.199(1) 0.0898(8) 0.4851(7)
C80 C 0.174(1) 0.1612(7) 0.430(1)
C81 C 0.079(1) 0.1249(7) 0.4881(8)
C82 C -0.0531(6) 0.0278(4) 0.1432(6)
C83 C -0.0903(8) -0.0123(5) 0.1116(8)
C84 C -0.054(1) -0.0450(5) 0.083(1)
C85 C 0.026(1) -0.0407(5) 0.0718(8)
C86 C 0.0562(7) 0.0003(4) 0.1012(5)
C87 C 0.1334(7) 0.0085(4) 0.0963(5)
C88 C 0.179(1) -0.0192(5) 0.0496(6)
C89 C 0.2530(9) -0.0074(6) 0.0497(7)
C90 C 0.2792(7) 0.0253(5) 0.0856(6)
C91 C 0.2365(5) 0.0516(4) 0.1300(5)
C92 C 0.2645(5) 0.0902(3) 0.1728(5)
C93 C 0.3397(7) 0.1020(5) 0.1693(9)
C94 C 0.3646(8) 0.1382(6) 0.207(1)
C95 C 0.3171(6) 0.1639(4) 0.2473(8)
C96 C 0.2445(5) 0.1503(3) 0.2498(6)
Eu2 Eu 0.42142(2) 0.60061(1) 0.79156(2)
O7 O 0.5267(3) 0.6007(2) 0.7263(3)
O8 O 0.5219(3) 0.6313(2) 0.8610(3)
O9 O 0.4173(3) 0.6814(2) 0.7705(3)
O10 O 0.3799(3) 0.6366(2) 0.8946(3)
O11 O 0.4135(3) 0.5254(2) 0.7341(3)
O12 O 0.3767(3) 0.6109(2) 0.6738(3)
N4 N 0.4806(4) 0.5325(2) 0.8661(4)
N5 N 0.3354(4) 0.5421(2) 0.8648(3)
N6 N 0.2798(3) 0.6135(2) 0.7880(4)
C20 C 0.5908(8) 0.6168(5) 0.7263(6)
C21 C 0.6255(7) 0.6382(6) 0.7843(7)
C22 C 0.5865(7) 0.6458(4) 0.8474(7)
C23 C 0.6343(7) 0.6169(7) 0.6642(7)
C24 C 0.594(1) 0.617(1) 0.6021(7)
C25 C 0.676(2) 0.578(1) 0.666(1)
C26 C 0.683(1) 0.660(1) 0.657(1)
C27 C 0.6220(6) 0.6708(4) 0.9157(6)
C28 C 0.621(1) 0.7205(5) 0.8976(8)
C29 C 0.697(1) 0.6482(9) 0.9234(9)
C30 C 0.586(1) 0.6663(9) 0.976(1)
C31 C 0.4082(7) 0.7187(4) 0.8000(6)
C32 C 0.3825(7) 0.7217(4) 0.8720(7)
C33 C 0.3729(6) 0.6767(4) 0.9154(6)
C34 C 0.4229(8) 0.7649(3) 0.7609(7)
C35 C 0.493(1) 0.7607(8) 0.726(1)
C36 C 0.363(1) 0.7711(5) 0.712(1)
C37 C 0.431(1) 0.8047(6) 0.812(1)
C38 C 0.3410(6) 0.6852(4) 0.9862(5)
C68 C 0.349(1) 0.7346(5) 1.0144(9)
C69 C 0.379(2) 0.6590(7) 1.0371(9)
C70 C 0.267(1) 0.6690(9) 0.975(1)
C71 C 0.4195(5) 0.5128(3) 0.6716(5)
C72 C 0.4044(6) 0.5418(4) 0.6151(5)
C73 C 0.3816(5) 0.5880(4) 0.6197(4)
C74 C 0.4482(6) 0.4615(4) 0.6616(6)
C75 C 0.418(1) 0.4410(5) 0.597(1)
C76 C 0.426(1) 0.4322(5) 0.723(1)
C77 C 0.5237(9) 0.4637(6) 0.659(2)
C78 C 0.3599(7) 0.6172(5) 0.5534(5)
C79 C 0.301(1) 0.5898(8) 0.5149(7)
C80 C 0.326(1) 0.6612(7) 0.570(1)
C81 C 0.421(1) 0.6249(7) 0.5119(8)
C82 C 0.5531(6) 0.5278(4) 0.8568(6)
C83 C 0.5903(8) 0.4877(5) 0.8884(8)
C84 C 0.554(1) 0.4550(5) 0.917(1)
C85 C 0.474(1) 0.4593(5) 0.9282(8)
C86 C 0.4438(7) 0.5003(4) 0.8988(5)
C87 C 0.3666(7) 0.5085(4) 0.9037(5)
C88 C 0.321(1) 0.4808(5) 0.9504(6)
C89 C 0.2470(9) 0.4926(6) 0.9503(7)
C90 C 0.2208(7) 0.5253(5) 0.9144(6)
C91 C 0.2635(5) 0.5516(4) 0.8700(5)
C92 C 0.2355(5) 0.5902(3) 0.8272(5)
C93 C 0.1603(7) 0.6020(5) 0.8307(9)
C94 C 0.1354(8) 0.6382(6) 0.793(1)
C95 C 0.1829(6) 0.6639(4) 0.7527(8)
C96 C 0.2555(5) 0.6503(3) 0.7502(6)
Eu2 Eu 0.92142(2) 0.89939(1) 0.79156(2)
O7 O 1.0267(3) 0.8993(2) 0.7263(3)
O8 O 1.0219(3) 0.8687(2) 0.8610(3)
O9 O 0.9173(3) 0.8186(2) 0.7705(3)
O10 O 0.8799(3) 0.8634(2) 0.8946(3)
O11 O 0.9135(3) 0.9746(2) 0.7341(3)
O12 O 0.8767(3) 0.8891(2) 0.6738(3)
N4 N 0.9806(4) 0.9675(2) 0.8661(4)
N5 N 0.8354(4) 0.9579(2) 0.8648(3)
N6 N 0.7798(3) 0.8865(2) 0.7880(4)
C20 C 1.0908(8) 0.8832(5) 0.7263(6)
C21 C 1.1255(7) 0.8618(6) 0.7843(7)
C22 C 1.0865(7) 0.8542(4) 0.8474(7)
C23 C 1.1343(7) 0.8831(7) 0.6642(7)
C24 C 1.094(1) 0.883(1) 0.6021(7)
C25 C 1.176(2) 0.922(1) 0.666(1)
C26 C 1.183(1) 0.840(1) 0.657(1)
C27 C 1.1220(6) 0.8292(4) 0.9157(6)
C28 C 1.121(1) 0.7795(5) 0.8976(8)
C29 C 1.197(1) 0.8518(9) 0.9234(9)
C30 C 1.086(1) 0.8337(9) 0.976(1)
C31 C 0.9082(7) 0.7813(4) 0.8000(6)
C32 C 0.8825(7) 0.7783(4) 0.8720(7)
C33 C 0.8729(6) 0.8233(4) 0.9154(6)
C34 C 0.9229(8) 0.7351(3) 0.7609(7)
C35 C 0.993(1) 0.7393(8) 0.726(1)
C36 C 0.863(1) 0.7289(5) 0.712(1)
C37 C 0.931(1) 0.6953(6) 0.812(1)
C38 C 0.8410(6) 0.8148(4) 0.9862(5)
C68 C 0.849(1) 0.7654(5) 1.0144(9)
C69 C 0.879(2) 0.8410(7) 1.0371(9)
C70 C 0.767(1) 0.8310(9) 0.975(1)
C71 C 0.9195(5) 0.9872(3) 0.6716(5)
C72 C 0.9044(6) 0.9582(4) 0.6151(5)
C73 C 0.8816(5) 0.9120(4) 0.6197(4)
C74 C 0.9482(6) 1.0385(4) 0.6616(6)
C75 C 0.918(1) 1.0590(5) 0.597(1)
C76 C 0.926(1) 1.0678(5) 0.723(1)
C77 C 1.0237(9) 1.0363(6) 0.659(2)
C78 C 0.8599(7) 0.8828(5) 0.5534(5)
C79 C 0.801(1) 0.9102(8) 0.5149(7)
C80 C 0.826(1) 0.8388(7) 0.570(1)
C81 C 0.921(1) 0.8751(7) 0.5119(8)
C82 C 1.0531(6) 0.9722(4) 0.8568(6)
C83 C 1.0903(8) 1.0123(5) 0.8884(8)
C84 C 1.054(1) 1.0450(5) 0.917(1)
C85 C 0.974(1) 1.0407(5) 0.9282(8)
C86 C 0.9438(7) 0.9997(4) 0.8988(5)
C87 C 0.8666(7) 0.9915(4) 0.9037(5)
C88 C 0.821(1) 1.0192(5) 0.9504(6)
C89 C 0.7470(9) 1.0074(6) 0.9503(7)
C90 C 0.7208(7) 0.9747(5) 0.9144(6)
C91 C 0.7635(5) 0.9484(4) 0.8700(5)
C92 C 0.7355(5) 0.9098(3) 0.8272(5)
C93 C 0.6603(7) 0.8980(5) 0.8307(9)
C94 C 0.6354(8) 0.8618(6) 0.793(1)
C95 C 0.6829(6) 0.8361(4) 0.7527(8)
C96 C 0.7555(5) 0.8497(3) 0.7502(6)
Eu2 Eu 0.57858(2) 0.39939(1) 0.20844(2)
O7 O 0.4733(3) 0.3993(2) 0.2737(3)
O8 O 0.4781(3) 0.3687(2) 0.1390(3)
O9 O 0.5827(3) 0.3186(2) 0.2295(3)
O10 O 0.6201(3) 0.3634(2) 0.1054(3)
O11 O 0.5865(3) 0.4746(2) 0.2659(3)
O12 O 0.6233(3) 0.3891(2) 0.3262(3)
N4 N 0.5194(4) 0.4675(2) 0.1339(4)
N5 N 0.6646(4) 0.4579(2) 0.1352(3)
N6 N 0.7202(3) 0.3865(2) 0.2120(4)
C20 C 0.4092(8) 0.3832(5) 0.2737(6)
C21 C 0.3745(7) 0.3618(6) 0.2157(7)
C22 C 0.4135(7) 0.3542(4) 0.1526(7)
C23 C 0.3657(7) 0.3831(7) 0.3358(7)
C24 C 0.406(1) 0.383(1) 0.3979(7)
C25 C 0.324(2) 0.422(1) 0.334(1)
C26 C 0.317(1) 0.340(1) 0.343(1)
C27 C 0.3780(6) 0.3292(4) 0.0843(6)
C28 C 0.379(1) 0.2795(5) 0.1024(8)
C29 C 0.303(1) 0.3518(9) 0.0766(9)
C30 C 0.414(1) 0.3337(9) 0.024(1)
C31 C 0.5918(7) 0.2813(4) 0.2000(6)
C32 C 0.6175(7) 0.2783(4) 0.1280(7)
C33 C 0.6271(6) 0.3233(4) 0.0846(6)
C34 C 0.5771(8) 0.2351(3) 0.2391(7)
C35 C 0.507(1) 0.2393(8) 0.274(1)
C36 C 0.637(1) 0.2289(5) 0.288(1)
C37 C 0.569(1) 0.1953(6) 0.188(1)
C38 C 0.6590(6) 0.3148(4) 0.0138(5)
C68 C 0.651(1) 0.2654(5) -0.0144(9)
C69 C 0.621(2) 0.3410(7) -0.0371(9)
C70 C 0.733(1) 0.3310(9) 0.025(1)
C71 C 0.5805(5) 0.4872(3) 0.3284(5)
C72 C 0.5956(6) 0.4582(4) 0.3849(5)
C73 C 0.6184(5) 0.4120(4) 0.3803(4)
C74 C 0.5518(6) 0.5385(4) 0.3384(6)
C75 C 0.582(1) 0.5590(5) 0.403(1)
C76 C 0.574(1) 0.5678(5) 0.277(1)
C77 C 0.4763(9) 0.5363(6) 0.341(2)
C78 C 0.6401(7) 0.3828(5) 0.4466(5)
C79 C 0.699(1) 0.4102(8) 0.4851(7)
C80 C 0.674(1) 0.3388(7) 0.430(1)
C81 C 0.579(1) 0.3751(7) 0.4881(8)
C82 C 0.4469(6) 0.4722(4) 0.1432(6)
C83 C 0.4097(8) 0.5123(5) 0.1116(8)
C84 C 0.446(1) 0.5450(5) 0.083(1)
C85 C 0.526(1) 0.5407(5) 0.0718(8)
C86 C 0.5562(7) 0.4997(4) 0.1012(5)
C87 C 0.6334(7) 0.4915(4) 0.0963(5)
C88 C 0.679(1) 0.5192(5) 0.0496(6)
C89 C 0.7530(9) 0.5074(6) 0.0497(7)
C90 C 0.7792(7) 0.4747(5) 0.0856(6)
C91 C 0.7365(5) 0.4484(4) 0.1300(5)
C92 C 0.7645(5) 0.4098(3) 0.1728(5)
C93 C 0.8397(7) 0.3980(5) 0.1693(9)
C94 C 0.8646(8) 0.3618(6) 0.207(1)
C95 C 0.8171(6) 0.3361(4) 0.2473(8)
C96 C 0.7445(5) 0.3497(3) 0.2498(6)

#END
