./KACVIU_from_xyz.cif_generated_by_CrystalShift
_symmetry_cell_setting triclinic
_symmetry_space_group_name_H-M 'P 1'
loop_
_symmetry_equiv_pos_site_id
_symmetry_equiv_pos_as_xyz
1 x,y,z
_cell_length_a 6.008100
_cell_length_b 11.531600
_cell_length_c 22.082000
_cell_angle_alpha 90.000000
_cell_angle_beta 91.343000
_cell_angle_gamma 90.000000
_cell_volume 1529.487067
loop_
_atom_site_label
_atom_site_type_symbol
_atom_site_fract_x
_atom_site_fract_y
_atom_site_fract_z
C1 C 0.457120 0.467460 0.276000
C2 C 0.370320 0.588100 0.289510
H3 H 0.302900 0.630200 0.254000
C4 C 0.220570 0.579160 0.345500
H5 H 0.112900 0.514600 0.341000
H6 H 0.138100 0.652300 0.352000
C7 C 0.389900 0.555840 0.398370
H8 H 0.389000 0.619600 0.428400
H9 H 0.356800 0.481900 0.419100
C10 C 0.615880 0.549700 0.366100
H11 H 0.750500 0.559800 0.393100
C12 C 0.614850 0.441060 0.327180
C13 C 0.582200 0.643980 0.317460
H14 H 0.706200 0.647600 0.288800
H15 H 0.554400 0.721600 0.334900
C16 C 0.411600 0.400640 0.227550
H17 H 0.493900 0.330600 0.224600
C18 C 0.247900 0.424100 0.178360
C19 C 0.294000 0.389310 0.118970
H20 H 0.433400 0.354500 0.110800
C21 C 0.139000 0.405040 0.072160
H22 H 0.172600 0.380900 0.032300
C23 C -0.064900 0.455880 0.083510
H24 H -0.170900 0.466700 0.051400
C25 C -0.114000 0.490970 0.141810
H26 H -0.253300 0.526300 0.149600
C27 C 0.040200 0.474520 0.188820
H28 H 0.004300 0.497800 0.228700
C29 C 0.730900 0.343140 0.335750
H30 H 0.711700 0.284800 0.305700
C31 C 0.885000 0.315830 0.386600
C32 C 1.076100 0.250340 0.376050
H33 H 1.100800 0.221500 0.336500
C34 C 1.229900 0.226580 0.421970
H35 H 1.359900 0.183100 0.413600
C36 C 1.194700 0.266100 0.480120
H37 H 1.300400 0.250300 0.511700
C38 C 1.004700 0.328720 0.491860
H39 H 0.979300 0.355500 0.531800
C40 C 0.850400 0.352880 0.445820
H41 H 0.719400 0.395200 0.454700
C42 C -0.042880 0.032540 0.776000
C43 C -0.129680 -0.088100 0.789510
H44 H -0.197100 -0.130200 0.754000
C45 C -0.279430 -0.079160 0.845500
H46 H -0.387100 -0.014600 0.841000
H47 H -0.361900 -0.152300 0.852000
C48 C -0.110100 -0.055840 0.898370
H49 H -0.111000 -0.119600 0.928400
H50 H -0.143200 0.018100 0.919100
C51 C 0.115880 -0.049700 0.866100
H52 H 0.250500 -0.059800 0.893100
C53 C 0.114850 0.058940 0.827180
C54 C 0.082200 -0.143980 0.817460
H55 H 0.206200 -0.147600 0.788800
H56 H 0.054400 -0.221600 0.834900
C57 C -0.088400 0.099360 0.727550
H58 H -0.006100 0.169400 0.724600
C59 C -0.252100 0.075900 0.678360
C60 C -0.206000 0.110690 0.618970
H61 H -0.066600 0.145500 0.610800
C62 C -0.361000 0.094960 0.572160
H63 H -0.327400 0.119100 0.532300
C64 C -0.564900 0.044120 0.583510
H65 H -0.670900 0.033300 0.551400
C66 C -0.614000 0.009030 0.641810
H67 H -0.753300 -0.026300 0.649600
C68 C -0.459800 0.025480 0.688820
H69 H -0.495700 0.002200 0.728700
C70 C 0.230900 0.156860 0.835750
H71 H 0.211700 0.215200 0.805700
C72 C 0.385000 0.184170 0.886600
C73 C 0.576100 0.249660 0.876050
H74 H 0.600800 0.278500 0.836500
C75 C 0.729900 0.273420 0.921970
H76 H 0.859900 0.316900 0.913600
C77 C 0.694700 0.233900 0.980120
H78 H 0.800400 0.249700 1.011700
C79 C 0.504700 0.171280 0.991860
H80 H 0.479300 0.144500 1.031800
C81 C 0.350400 0.147120 0.945820
H82 H 0.219400 0.104800 0.954700
C83 C 0.542880 0.532540 0.724000
C84 C 0.629680 0.411900 0.710490
H85 H 0.697100 0.369800 0.746000
C86 C 0.779430 0.420840 0.654500
H87 H 0.887100 0.485400 0.659000
H88 H 0.861900 0.347700 0.648000
C89 C 0.610100 0.444160 0.601630
H90 H 0.611000 0.380400 0.571600
H91 H 0.643200 0.518100 0.580900
C92 C 0.384120 0.450300 0.633900
H93 H 0.249500 0.440200 0.606900
C94 C 0.385150 0.558940 0.672820
C95 C 0.417800 0.356020 0.682540
H96 H 0.293800 0.352400 0.711200
H97 H 0.445600 0.278400 0.665100
C98 C 0.588400 0.599360 0.772450
H99 H 0.506100 0.669400 0.775400
C100 C 0.752100 0.575900 0.821640
C101 C 0.706000 0.610690 0.881030
H102 H 0.566600 0.645500 0.889200
C103 C 0.861000 0.594960 0.927840
H104 H 0.827400 0.619100 0.967700
C105 C 1.064900 0.544120 0.916490
H106 H 1.170900 0.533300 0.948600
C107 C 1.114000 0.509030 0.858190
H108 H 1.253300 0.473700 0.850400
C109 C 0.959800 0.525480 0.811180
H110 H 0.995700 0.502200 0.771300
C111 C 0.269100 0.656860 0.664250
H112 H 0.288300 0.715200 0.694300
C113 C 0.115000 0.684170 0.613400
C114 C -0.076100 0.749660 0.623950
H115 H -0.100800 0.778500 0.663500
C116 C -0.229900 0.773420 0.578030
H117 H -0.359900 0.816900 0.586400
C118 C -0.194700 0.733900 0.519880
H119 H -0.300400 0.749700 0.488300
C120 C -0.004700 0.671280 0.508140
H121 H 0.020700 0.644500 0.468200
C122 C 0.149600 0.647120 0.554180
H123 H 0.280600 0.604800 0.545300
C124 C 1.042880 0.967460 0.224000
C125 C 1.129680 1.088100 0.210490
H126 H 1.197100 1.130200 0.246000
C127 C 1.279430 1.079160 0.154500
H128 H 1.387100 1.014600 0.159000
H129 H 1.361900 1.152300 0.148000
C130 C 1.110100 1.055840 0.101630
H131 H 1.111000 1.119600 0.071600
H132 H 1.143200 0.981900 0.080900
C133 C 0.884120 1.049700 0.133900
H134 H 0.749500 1.059800 0.106900
C135 C 0.885150 0.941060 0.172820
C136 C 0.917800 1.143980 0.182540
H137 H 0.793800 1.147600 0.211200
H138 H 0.945600 1.221600 0.165100
C139 C 1.088400 0.900640 0.272450
H140 H 1.006100 0.830600 0.275400
C141 C 1.252100 0.924100 0.321640
C142 C 1.206000 0.889310 0.381030
H143 H 1.066600 0.854500 0.389200
C144 C 1.361000 0.905040 0.427840
H145 H 1.327400 0.880900 0.467700
C146 C 1.564900 0.955880 0.416490
H147 H 1.670900 0.966700 0.448600
C148 C 1.614000 0.990970 0.358190
H149 H 1.753300 1.026300 0.350400
C150 C 1.459800 0.974520 0.311180
H151 H 1.495700 0.997800 0.271300
C152 C 0.769100 0.843140 0.164250
H153 H 0.788300 0.784800 0.194300
C154 C 0.615000 0.815830 0.113400
C155 C 0.423900 0.750340 0.123950
H156 H 0.399200 0.721500 0.163500
C157 C 0.270100 0.726580 0.078030
H158 H 0.140100 0.683100 0.086400
C159 C 0.305300 0.766100 0.019880
H160 H 0.199600 0.750300 -0.011700
C161 C 0.495300 0.828720 0.008140
H162 H 0.520700 0.855500 -0.031800
C163 C 0.649600 0.852880 0.054180
H164 H 0.780600 0.895200 0.045300

#END
