./KADTIS_from_xyz.cif_generated_by_CrystalShift
_symmetry_cell_setting triclinic
_symmetry_space_group_name_H-M 'P 1'
loop_
_symmetry_equiv_pos_site_id
_symmetry_equiv_pos_as_xyz
1 x,y,z
_cell_length_a 10.732000
_cell_length_b 14.838000
_cell_length_c 7.077000
_cell_angle_alpha 90.000000
_cell_angle_beta 90.000000
_cell_angle_gamma 90.000000
_cell_volume 1126.951501
loop_
_atom_site_label
_atom_site_type_symbol
_atom_site_fract_x
_atom_site_fract_y
_atom_site_fract_z
S1 S 0.125600 0.350900 0.431300
S2 S -0.097800 0.485400 0.535100
C3 C 0.235900 0.315400 0.267000
C4 C 0.324800 0.249100 0.294000
C5 C 0.404500 0.229400 0.149000
C6 C 0.397500 0.274000 -0.025000
C7 C 0.310000 0.340800 -0.050000
C8 C 0.228200 0.362800 0.094000
C9 C 0.132600 0.431900 0.102700
C10 C 0.101200 0.495600 -0.034800
C11 C 0.008400 0.556700 0.004000
C12 C -0.055600 0.557000 0.173000
C13 C -0.024300 0.494700 0.314700
C14 C 0.069600 0.433100 0.273700
C15 C -0.190200 0.583900 0.552000
H16 H 0.330500 0.217800 0.410400
H17 H 0.466100 0.184200 0.166200
H18 H 0.452600 0.258400 -0.124600
H19 H 0.305600 0.371900 -0.167200
H20 H 0.143200 0.496700 -0.153000
H21 H -0.012400 0.600400 -0.088600
H22 H -0.120600 0.599300 0.194000
H23 H -0.138200 0.635500 0.544100
H24 H -0.248900 0.584800 0.451600
H25 H -0.233000 0.584100 0.669500
S26 S 0.625600 0.149100 0.568700
S27 S 0.402200 0.014600 0.464900
C28 C 0.735900 0.184600 0.733000
C29 C 0.824800 0.250900 0.706000
C30 C 0.904500 0.270600 0.851000
C31 C 0.897500 0.226000 1.025000
C32 C 0.810000 0.159200 1.050000
C33 C 0.728200 0.137200 0.906000
C34 C 0.632600 0.068100 0.897300
C35 C 0.601200 0.004400 1.034800
C36 C 0.508400 -0.056700 0.996000
C37 C 0.444400 -0.057000 0.827000
C38 C 0.475700 0.005300 0.685300
C39 C 0.569600 0.066900 0.726300
C40 C 0.309800 -0.083900 0.448000
H41 H 0.830500 0.282200 0.589600
H42 H 0.966100 0.315800 0.833800
H43 H 0.952600 0.241600 1.124600
H44 H 0.805600 0.128100 1.167200
H45 H 0.643200 0.003300 1.153000
H46 H 0.487600 -0.100400 1.088600
H47 H 0.379400 -0.099300 0.806000
H48 H 0.361800 -0.135500 0.455900
H49 H 0.251100 -0.084800 0.548400
H50 H 0.267000 -0.084100 0.330500
S51 S 0.874400 0.850900 0.068700
S52 S 1.097800 0.985400 -0.035100
C53 C 0.764100 0.815400 0.233000
C54 C 0.675200 0.749100 0.206000
C55 C 0.595500 0.729400 0.351000
C56 C 0.602500 0.774000 0.525000
C57 C 0.690000 0.840800 0.550000
C58 C 0.771800 0.862800 0.406000
C59 C 0.867400 0.931900 0.397300
C60 C 0.898800 0.995600 0.534800
C61 C 0.991600 1.056700 0.496000
C62 C 1.055600 1.057000 0.327000
C63 C 1.024300 0.994700 0.185300
C64 C 0.930400 0.933100 0.226300
C65 C 1.190200 1.083900 -0.052000
H66 H 0.669500 0.717800 0.089600
H67 H 0.533900 0.684200 0.333800
H68 H 0.547400 0.758400 0.624600
H69 H 0.694400 0.871900 0.667200
H70 H 0.856800 0.996700 0.653000
H71 H 1.012400 1.100400 0.588600
H72 H 1.120600 1.099300 0.306000
H73 H 1.138200 1.135500 -0.044100
H74 H 1.248900 1.084800 0.048400
H75 H 1.233000 1.084100 -0.169500
S76 S 0.374400 0.649100 0.931300
S77 S 0.597800 0.514600 1.035100
C78 C 0.264100 0.684600 0.767000
C79 C 0.175200 0.750900 0.794000
C80 C 0.095500 0.770600 0.649000
C81 C 0.102500 0.726000 0.475000
C82 C 0.190000 0.659200 0.450000
C83 C 0.271800 0.637200 0.594000
C84 C 0.367400 0.568100 0.602700
C85 C 0.398800 0.504400 0.465200
C86 C 0.491600 0.443300 0.504000
C87 C 0.555600 0.443000 0.673000
C88 C 0.524300 0.505300 0.814700
C89 C 0.430400 0.566900 0.773700
C90 C 0.690200 0.416100 1.052000
H91 H 0.169500 0.782200 0.910400
H92 H 0.033900 0.815800 0.666200
H93 H 0.047400 0.741600 0.375400
H94 H 0.194400 0.628100 0.332800
H95 H 0.356800 0.503300 0.347000
H96 H 0.512400 0.399600 0.411400
H97 H 0.620600 0.400700 0.694000
H98 H 0.638200 0.364500 1.044100
H99 H 0.748900 0.415200 0.951600
H100 H 0.733000 0.415900 1.169500

#END
