./KAFHIK_from_xyz.cif_generated_by_CrystalShift
_symmetry_cell_setting triclinic
_symmetry_space_group_name_H-M 'P 1'
loop_
_symmetry_equiv_pos_site_id
_symmetry_equiv_pos_as_xyz
1 x,y,z
_cell_length_a 10.562000
_cell_length_b 10.695800
_cell_length_c 11.061000
_cell_angle_alpha 80.503000
_cell_angle_beta 84.722000
_cell_angle_gamma 73.553000
_cell_volume 1180.641743
loop_
_atom_site_label
_atom_site_type_symbol
_atom_site_fract_x
_atom_site_fract_y
_atom_site_fract_z
F1 F 0.670980 0.067680 0.248970
F2 F 0.976480 -0.290200 0.098570
F3 F 0.866660 0.568260 0.954980
F4 F 0.698860 0.644390 1.072530
F5 F 0.753510 0.770580 0.914520
O6 O 0.788610 0.559200 0.399010
O7 O 0.992180 0.592740 0.379990
O8 O 0.567800 0.347120 0.536730
O9 O 0.332170 0.713110 1.007250
O10 O 0.483620 0.817560 0.985450
N11 N 0.726530 0.407680 0.623100
N12 N 0.440700 0.727560 0.967420
C13 C 0.797280 0.008520 0.213670
C14 C 0.820770 -0.111310 0.172490
H15 H 0.751800 -0.151300 0.169100
C16 C 0.949180 -0.169890 0.136670
C17 C 1.051350 -0.113820 0.137450
H18 H 1.138800 -0.156900 0.111300
C19 C 1.021980 0.007860 0.177740
H20 H 1.090700 0.049200 0.177200
C21 C 0.894350 0.071900 0.219210
C22 C 0.867100 0.199550 0.266280
C23 C 0.923600 0.297680 0.205470
H24 H 0.977700 0.282200 0.133000
C25 C 0.902620 0.416600 0.248330
H26 H 0.939600 0.483200 0.204600
C27 C 0.826840 0.437200 0.356120
C28 C 0.769180 0.341590 0.420050
C29 C 0.788050 0.224480 0.372700
H30 H 0.746300 0.160300 0.413600
C31 C 0.877220 0.626060 0.414600
C32 C 0.812320 0.738600 0.480290
C33 C 0.886690 0.819470 0.504930
H34 H 0.976100 0.805100 0.474800
C35 C 0.830780 0.920830 0.573270
H36 H 0.882500 0.975500 0.589000
C37 C 0.700000 0.944040 0.619400
C38 C 0.625880 0.864340 0.591160
H39 H 0.535800 0.880200 0.619400
C40 C 0.680320 0.762750 0.522970
H41 H 0.627900 0.709600 0.505300
C42 C 0.639250 1.050130 0.698060
H43 H 0.621100 1.009500 0.781500
H44 H 0.556500 1.106600 0.663600
H45 H 0.700600 1.103300 0.700300
C46 C 0.677200 0.365540 0.531290
C47 C 0.653320 0.474360 0.716800
C48 C 0.722990 0.525060 0.789670
H49 H 0.816600 0.504700 0.779600
C50 C 0.658170 0.604280 0.876110
C51 C 0.520600 0.632780 0.888630
C52 C 0.452330 0.575870 0.823040
H53 H 0.359300 0.592300 0.836500
C54 C 0.517430 0.495350 0.738150
H55 H 0.470100 0.454800 0.694900
C56 C 0.742650 0.648330 0.954590
H57 H 0.810100 0.406800 0.611300
F58 F 0.329020 0.932320 0.751030
F59 F 0.023520 1.290200 0.901430
F60 F 0.133340 0.431740 0.045020
F61 F 0.301140 0.355610 -0.072530
F62 F 0.246490 0.229420 0.085480
O63 O 0.211390 0.440800 0.600990
O64 O 0.007820 0.407260 0.620010
O65 O 0.432200 0.652880 0.463270
O66 O 0.667830 0.286890 -0.007250
O67 O 0.516380 0.182440 0.014550
N68 N 0.273470 0.592320 0.376900
N69 N 0.559300 0.272440 0.032580
C70 C 0.202720 0.991480 0.786330
C71 C 0.179230 1.111310 0.827510
H72 H 0.248200 1.151300 0.830900
C73 C 0.050820 1.169890 0.863330
C74 C -0.051350 1.113820 0.862550
H75 H -0.138800 1.156900 0.888700
C76 C -0.021980 0.992140 0.822260
H77 H -0.090700 0.950800 0.822800
C78 C 0.105650 0.928100 0.780790
C79 C 0.132900 0.800450 0.733720
C80 C 0.076400 0.702320 0.794530
H81 H 0.022300 0.717800 0.867000
C82 C 0.097380 0.583400 0.751670
H83 H 0.060400 0.516800 0.795400
C84 C 0.173160 0.562800 0.643880
C85 C 0.230820 0.658410 0.579950
C86 C 0.211950 0.775520 0.627300
H87 H 0.253700 0.839700 0.586400
C88 C 0.122780 0.373940 0.585400
C89 C 0.187680 0.261400 0.519710
C90 C 0.113310 0.180530 0.495070
H91 H 0.023900 0.194900 0.525200
C92 C 0.169220 0.079170 0.426730
H93 H 0.117500 0.024500 0.411000
C94 C 0.300000 0.055960 0.380600
C95 C 0.374120 0.135660 0.408840
H96 H 0.464200 0.119800 0.380600
C97 C 0.319680 0.237250 0.477030
H98 H 0.372100 0.290400 0.494700
C99 C 0.360750 -0.050130 0.301940
H100 H 0.378900 -0.009500 0.218500
H101 H 0.443500 -0.106600 0.336400
H102 H 0.299400 -0.103300 0.299700
C103 C 0.322800 0.634460 0.468710
C104 C 0.346680 0.525640 0.283200
C105 C 0.277010 0.474940 0.210330
H106 H 0.183400 0.495300 0.220400
C107 C 0.341830 0.395720 0.123890
C108 C 0.479400 0.367220 0.111370
C109 C 0.547670 0.424130 0.176960
H110 H 0.640700 0.407700 0.163500
C111 C 0.482570 0.504650 0.261850
H112 H 0.529900 0.545200 0.305100
C113 C 0.257350 0.351670 0.045410
H114 H 0.189900 0.593200 0.388700

#END
