
#######################################################################
#
#                 Cambridge Crystallographic Data Centre
#                                CCDC 
#
#######################################################################
#
# If this CIF has been generated from an entry in the Cambridge 
# Structural Database, then it will include bibliographic, chemical, 
# crystal, experimental, refinement or atomic coordinate data resulting 
# from the CCDC's data processing and validation procedures.
#
#######################################################################

data_KAGBUP
_symmetry_cell_setting           monoclinic
_symmetry_space_group_name_H-M   'P 21/n'
_symmetry_Int_Tables_number      14
_space_group_name_Hall           '-P 2yn'
loop_
_symmetry_equiv_pos_site_id
_symmetry_equiv_pos_as_xyz
1 x,y,z
2 1/2-x,1/2+y,1/2-z
3 -x,-y,-z
4 1/2+x,1/2-y,1/2+z
_cell_length_a                   6.2411(7)
_cell_length_b                   3.973(1)
_cell_length_c                   21.467(3)
_cell_angle_alpha                90
_cell_angle_beta                 92.77(1)
_cell_angle_gamma                90
_cell_volume                     531.671
loop_
_atom_site_label
_atom_site_type_symbol
_atom_site_fract_x
_atom_site_fract_y
_atom_site_fract_z
N1 N 0.2875(3) 0.9384(5) 0.6571(1)
C1 C 0.4351(4) 1.0837(7) 0.6955(1)
C2 C 0.6452(4) 1.1326(7) 0.6814(1)
C3 C 0.7109(4) 1.0304(7) 0.6248(1)
C4 C 0.5640(4) 0.8798(6) 0.5838(1)
C5 C 0.3554(3) 0.8415(6) 0.6015(1)
C6 C 0.1985(3) 0.6899(6) 0.5587(1)
C7 C 0.0730(3) 0.5699(6) 0.5214(1)
H1 H 0.3770(36) 1.1579(65) 0.7355(11)
H2 H 0.7510(38) 1.2546(66) 0.7115(10)
H3 H 0.8615(36) 1.0680(61) 0.6134(10)
H4 H 0.6018(32) 0.8016(59) 0.5430(10)
C7B C -0.0730(3) 0.4301(6) 0.4786(1)
C6B C -0.1985(3) 0.3101(6) 0.4413(1)
C5B C -0.3554(3) 0.1585(6) 0.3985(1)
N1B N -0.2875(3) 0.0616(5) 0.3429(1)
C4B C -0.5640(4) 0.1202(6) 0.4162(1)
C1B C -0.4351(4) -0.0837(7) 0.3045(1)
C3B C -0.7109(4) -0.0304(7) 0.3752(1)
H4B H -0.6018(32) 0.1984(59) 0.4570(10)
C2B C -0.6452(4) -0.1326(7) 0.3186(1)
H1B H -0.3770(36) -0.1579(65) 0.2645(11)
H3B H -0.8615(36) -0.0680(61) 0.3866(10)
H2B H -0.7510(38) -0.2546(66) 0.2885(10)
N1 N 1.2875(3) 0.9384(5) 0.6571(1)
C1 C 1.4351(4) 1.0837(7) 0.6955(1)
C2 C 1.6452(4) 1.1326(7) 0.6814(1)
C3 C 1.7109(4) 1.0304(7) 0.6248(1)
C4 C 1.5640(4) 0.8798(6) 0.5838(1)
C5 C 1.3554(3) 0.8415(6) 0.6015(1)
C6 C 1.1985(3) 0.6899(6) 0.5587(1)
C7 C 1.0730(3) 0.5699(6) 0.5214(1)
H1 H 1.3770(36) 1.1579(65) 0.7355(11)
H2 H 1.7510(38) 1.2546(66) 0.7115(10)
H3 H 1.8615(36) 1.0680(61) 0.6134(10)
H4 H 1.6018(32) 0.8016(59) 0.5430(10)
C7B C 0.9270(3) 0.4301(6) 0.4786(1)
C6B C 0.8015(3) 0.3101(6) 0.4413(1)
C5B C 0.6446(3) 0.1585(6) 0.3985(1)
N1B N 0.7125(3) 0.0616(5) 0.3429(1)
C4B C 0.4360(4) 0.1202(6) 0.4162(1)
C1B C 0.5649(4) -0.0837(7) 0.3045(1)
C3B C 0.2891(4) -0.0304(7) 0.3752(1)
H4B H 0.3982(32) 0.1984(59) 0.4570(10)
C2B C 0.3548(4) -0.1326(7) 0.3186(1)
H1B H 0.6230(36) -0.1579(65) 0.2645(11)
H3B H 0.1385(36) -0.0680(61) 0.3866(10)
H2B H 0.2490(38) -0.2546(66) 0.2885(10)
N1 N 0.2125(3) 0.4384(5) -0.1571(1)
C1 C 0.0649(4) 0.5837(7) -0.1955(1)
C2 C -0.1452(4) 0.6326(7) -0.1814(1)
C3 C -0.2109(4) 0.5304(7) -0.1248(1)
C4 C -0.0640(4) 0.3798(6) -0.0838(1)
C5 C 0.1446(3) 0.3415(6) -0.1015(1)
C6 C 0.3015(3) 0.1899(6) -0.0587(1)
C7 C 0.4270(3) 0.0699(6) -0.0214(1)
H1 H 0.1230(36) 0.6579(65) -0.2355(11)
H2 H -0.2510(38) 0.7546(66) -0.2115(10)
H3 H -0.3615(36) 0.5680(61) -0.1134(10)
H4 H -0.1018(32) 0.3016(59) -0.0430(10)
C7B C 0.5730(3) -0.0699(6) 0.0214(1)
C6B C 0.6985(3) -0.1899(6) 0.0587(1)
C5B C 0.8554(3) -0.3415(6) 0.1015(1)
N1B N 0.7875(3) -0.4384(5) 0.1571(1)
C4B C 1.0640(4) -0.3798(6) 0.0838(1)
C1B C 0.9351(4) -0.5837(7) 0.1955(1)
C3B C 1.2109(4) -0.5304(7) 0.1248(1)
H4B H 1.1018(32) -0.3016(59) 0.0430(10)
C2B C 1.1452(4) -0.6326(7) 0.1814(1)
H1B H 0.8770(36) -0.6579(65) 0.2355(11)
H3B H 1.3615(36) -0.5680(61) 0.1134(10)
H2B H 1.2510(38) -0.7546(66) 0.2115(10)
N1 N 0.2125(3) 0.4384(5) 0.8429(1)
C1 C 0.0649(4) 0.5837(7) 0.8045(1)
C2 C -0.1452(4) 0.6326(7) 0.8186(1)
C3 C -0.2109(4) 0.5304(7) 0.8752(1)
C4 C -0.0640(4) 0.3798(6) 0.9162(1)
C5 C 0.1446(3) 0.3415(6) 0.8985(1)
C6 C 0.3015(3) 0.1899(6) 0.9413(1)
C7 C 0.4270(3) 0.0699(6) 0.9786(1)
H1 H 0.1230(36) 0.6579(65) 0.7645(11)
H2 H -0.2510(38) 0.7546(66) 0.7885(10)
H3 H -0.3615(36) 0.5680(61) 0.8866(10)
H4 H -0.1018(32) 0.3016(59) 0.9570(10)
C7B C 0.5730(3) -0.0699(6) 1.0214(1)
C6B C 0.6985(3) -0.1899(6) 1.0587(1)
C5B C 0.8554(3) -0.3415(6) 1.1015(1)
N1B N 0.7875(3) -0.4384(5) 1.1571(1)
C4B C 1.0640(4) -0.3798(6) 1.0838(1)
C1B C 0.9351(4) -0.5837(7) 1.1955(1)
C3B C 1.2109(4) -0.5304(7) 1.1248(1)
H4B H 1.1018(32) -0.3016(59) 1.0430(10)
C2B C 1.1452(4) -0.6326(7) 1.1814(1)
H1B H 0.8770(36) -0.6579(65) 1.2355(11)
H3B H 1.3615(36) -0.5680(61) 1.1134(10)
H2B H 1.2510(38) -0.7546(66) 1.2115(10)
N1 N 0.2125(3) 1.4384(5) -0.1571(1)
C1 C 0.0649(4) 1.5837(7) -0.1955(1)
C2 C -0.1452(4) 1.6326(7) -0.1814(1)
C3 C -0.2109(4) 1.5304(7) -0.1248(1)
C4 C -0.0640(4) 1.3798(6) -0.0838(1)
C5 C 0.1446(3) 1.3415(6) -0.1015(1)
C6 C 0.3015(3) 1.1899(6) -0.0587(1)
C7 C 0.4270(3) 1.0699(6) -0.0214(1)
H1 H 0.1230(36) 1.6579(65) -0.2355(11)
H2 H -0.2510(38) 1.7546(66) -0.2115(10)
H3 H -0.3615(36) 1.5680(61) -0.1134(10)
H4 H -0.1018(32) 1.3016(59) -0.0430(10)
C7B C 0.5730(3) 0.9301(6) 0.0214(1)
C6B C 0.6985(3) 0.8101(6) 0.0587(1)
C5B C 0.8554(3) 0.6585(6) 0.1015(1)
N1B N 0.7875(3) 0.5616(5) 0.1571(1)
C4B C 1.0640(4) 0.6202(6) 0.0838(1)
C1B C 0.9351(4) 0.4163(7) 0.1955(1)
C3B C 1.2109(4) 0.4696(7) 0.1248(1)
H4B H 1.1018(32) 0.6984(59) 0.0430(10)
C2B C 1.1452(4) 0.3674(7) 0.1814(1)
H1B H 0.8770(36) 0.3421(65) 0.2355(11)
H3B H 1.3615(36) 0.4320(61) 0.1134(10)
H2B H 1.2510(38) 0.2454(66) 0.2115(10)
N1 N 0.2125(3) 1.4384(5) 0.8429(1)
C1 C 0.0649(4) 1.5837(7) 0.8045(1)
C2 C -0.1452(4) 1.6326(7) 0.8186(1)
C3 C -0.2109(4) 1.5304(7) 0.8752(1)
C4 C -0.0640(4) 1.3798(6) 0.9162(1)
C5 C 0.1446(3) 1.3415(6) 0.8985(1)
C6 C 0.3015(3) 1.1899(6) 0.9413(1)
C7 C 0.4270(3) 1.0699(6) 0.9786(1)
H1 H 0.1230(36) 1.6579(65) 0.7645(11)
H2 H -0.2510(38) 1.7546(66) 0.7885(10)
H3 H -0.3615(36) 1.5680(61) 0.8866(10)
H4 H -0.1018(32) 1.3016(59) 0.9570(10)
C7B C 0.5730(3) 0.9301(6) 1.0214(1)
C6B C 0.6985(3) 0.8101(6) 1.0587(1)
C5B C 0.8554(3) 0.6585(6) 1.1015(1)
N1B N 0.7875(3) 0.5616(5) 1.1571(1)
C4B C 1.0640(4) 0.6202(6) 1.0838(1)
C1B C 0.9351(4) 0.4163(7) 1.1955(1)
C3B C 1.2109(4) 0.4696(7) 1.1248(1)
H4B H 1.1018(32) 0.6984(59) 1.0430(10)
C2B C 1.1452(4) 0.3674(7) 1.1814(1)
H1B H 0.8770(36) 0.3421(65) 1.2355(11)
H3B H 1.3615(36) 0.4320(61) 1.1134(10)
H2B H 1.2510(38) 0.2454(66) 1.2115(10)

#END
