
#######################################################################
#
#                 Cambridge Crystallographic Data Centre
#                                CCDC 
#
#######################################################################
#
# If this CIF has been generated from an entry in the Cambridge 
# Structural Database, then it will include bibliographic, chemical, 
# crystal, experimental, refinement or atomic coordinate data resulting 
# from the CCDC's data processing and validation procedures.
#
#######################################################################

data_AAPUNI
_symmetry_cell_setting           monoclinic
_symmetry_space_group_name_H-M   'P 21/a'
_symmetry_Int_Tables_number      14
_space_group_name_Hall           '-P 2yab'
loop_
_symmetry_equiv_pos_site_id
_symmetry_equiv_pos_as_xyz
1 x,y,z
2 1/2-x,1/2+y,-z
3 -x,-y,-z
4 1/2+x,1/2-y,z
_cell_length_a                   20.65(2)
_cell_length_b                   8.58(1)
_cell_length_c                   14.68(2)
_cell_angle_alpha                90
_cell_angle_beta                 97.78(5)
_cell_angle_gamma                90
_cell_volume                     2577.02
loop_
_atom_site_label
_atom_site_type_symbol
_atom_site_fract_x
_atom_site_fract_y
_atom_site_fract_z
U1 U 0.24270 0.26160 0.20560
Ni1 Ni 0.21920 0.25120 0.43390
S1 S 0.27020 0.25870 -0.02420
O1 O 0.24820 0.46080 0.17390
O2 O 0.23560 0.05730 0.23390
O3 O 0.34840 0.21010 0.22040
O4 O 0.14240 0.28630 0.12990
O5 O 0.16500 0.28130 0.32150
O6 O 0.28070 0.15150 0.36710
O7 O 0.26530 0.30540 0.06050
N1 N 0.27330 0.22860 0.54290
N2 N 0.15920 0.14780 0.49450
C1 C 0.32860 0.16680 0.56210
C2 C 0.36620 0.17930 0.66100
C3 C 0.36460 0.09960 0.49090
C4 C 0.33860 0.08710 0.39870
C5 C 0.37960 0.02500 0.33410
C6 C 0.38540 0.09840 0.24930
C7 C 0.42600 0.04730 0.18840
C8 C 0.45960 -0.08460 0.21820
C9 C 0.45840 -0.18390 0.29620
C10 C 0.41460 -0.11640 0.35660
C11 C 0.10150 0.11200 0.45590
C12 C 0.06420 0.00830 0.51410
C13 C 0.06790 0.17390 0.37410
C14 C 0.10260 0.23410 0.31260
C15 C 0.06360 0.17170 0.22680
C16 C 0.08620 0.19950 0.14240
C17 C 0.05540 0.13610 0.06030
C18 C -0.00250 0.05310 0.06670
C19 C -0.02920 0.03080 0.14960
C20 C 0.00300 0.10610 0.22500
C21 C 0.24000 0.21170 0.61930
C22 C 0.19060 0.09640 0.58640
C23 C 0.20050 0.26140 -0.10450
C24 C 0.33410 0.21570 -0.07920
U1 U 0.25730 0.76160 0.79440
Ni1 Ni 0.28080 0.75120 0.56610
S1 S 0.22980 0.75870 1.02420
O1 O 0.25180 0.96080 0.82610
O2 O 0.26440 0.55730 0.76610
O3 O 0.15160 0.71010 0.77960
O4 O 0.35760 0.78630 0.87010
O5 O 0.33500 0.78130 0.67850
O6 O 0.21930 0.65150 0.63290
O7 O 0.23470 0.80540 0.93950
N1 N 0.22670 0.72860 0.45710
N2 N 0.34080 0.64780 0.50550
C1 C 0.17140 0.66680 0.43790
C2 C 0.13380 0.67930 0.33900
C3 C 0.13540 0.59960 0.50910
C4 C 0.16140 0.58710 0.60130
C5 C 0.12040 0.52500 0.66590
C6 C 0.11460 0.59840 0.75070
C7 C 0.07400 0.54730 0.81160
C8 C 0.04040 0.41540 0.78180
C9 C 0.04160 0.31610 0.70380
C10 C 0.08540 0.38360 0.64340
C11 C 0.39850 0.61200 0.54410
C12 C 0.43580 0.50830 0.48590
C13 C 0.43210 0.67390 0.62590
C14 C 0.39740 0.73410 0.68740
C15 C 0.43640 0.67170 0.77320
C16 C 0.41380 0.69950 0.85760
C17 C 0.44460 0.63610 0.93970
C18 C 0.50250 0.55310 0.93330
C19 C 0.52920 0.53080 0.85040
C20 C 0.49700 0.60610 0.77500
C21 C 0.26000 0.71170 0.38070
C22 C 0.30940 0.59640 0.41360
C23 C 0.29950 0.76140 1.10450
C24 C 0.16590 0.71570 1.07920
U1 U 0.75730 0.73840 0.79440
Ni1 Ni 0.78080 0.74880 0.56610
S1 S 0.72980 0.74130 1.02420
O1 O 0.75180 0.53920 0.82610
O2 O 0.76440 0.94270 0.76610
O3 O 0.65160 0.78990 0.77960
O4 O 0.85760 0.71370 0.87010
O5 O 0.83500 0.71870 0.67850
O6 O 0.71930 0.84850 0.63290
O7 O 0.73470 0.69460 0.93950
N1 N 0.72670 0.77140 0.45710
N2 N 0.84080 0.85220 0.50550
C1 C 0.67140 0.83320 0.43790
C2 C 0.63380 0.82070 0.33900
C3 C 0.63540 0.90040 0.50910
C4 C 0.66140 0.91290 0.60130
C5 C 0.62040 0.97500 0.66590
C6 C 0.61460 0.90160 0.75070
C7 C 0.57400 0.95270 0.81160
C8 C 0.54040 1.08460 0.78180
C9 C 0.54160 1.18390 0.70380
C10 C 0.58540 1.11640 0.64340
C11 C 0.89850 0.88800 0.54410
C12 C 0.93580 0.99170 0.48590
C13 C 0.93210 0.82610 0.62590
C14 C 0.89740 0.76590 0.68740
C15 C 0.93640 0.82830 0.77320
C16 C 0.91380 0.80050 0.85760
C17 C 0.94460 0.86390 0.93970
C18 C 1.00250 0.94690 0.93330
C19 C 1.02920 0.96920 0.85040
C20 C 0.99700 0.89390 0.77500
C21 C 0.76000 0.78830 0.38070
C22 C 0.80940 0.90360 0.41360
C23 C 0.79950 0.73860 1.10450
C24 C 0.66590 0.78430 1.07920
U1 U 0.74270 0.23840 0.20560
Ni1 Ni 0.71920 0.24880 0.43390
S1 S 0.77020 0.24130 -0.02420
O1 O 0.74820 0.03920 0.17390
O2 O 0.73560 0.44270 0.23390
O3 O 0.84840 0.28990 0.22040
O4 O 0.64240 0.21370 0.12990
O5 O 0.66500 0.21870 0.32150
O6 O 0.78070 0.34850 0.36710
O7 O 0.76530 0.19460 0.06050
N1 N 0.77330 0.27140 0.54290
N2 N 0.65920 0.35220 0.49450
C1 C 0.82860 0.33320 0.56210
C2 C 0.86620 0.32070 0.66100
C3 C 0.86460 0.40040 0.49090
C4 C 0.83860 0.41290 0.39870
C5 C 0.87960 0.47500 0.33410
C6 C 0.88540 0.40160 0.24930
C7 C 0.92600 0.45270 0.18840
C8 C 0.95960 0.58460 0.21820
C9 C 0.95840 0.68390 0.29620
C10 C 0.91460 0.61640 0.35660
C11 C 0.60150 0.38800 0.45590
C12 C 0.56420 0.49170 0.51410
C13 C 0.56790 0.32610 0.37410
C14 C 0.60260 0.26590 0.31260
C15 C 0.56360 0.32830 0.22680
C16 C 0.58620 0.30050 0.14240
C17 C 0.55540 0.36390 0.06030
C18 C 0.49750 0.44690 0.06670
C19 C 0.47080 0.46920 0.14960
C20 C 0.50300 0.39390 0.22500
C21 C 0.74000 0.28830 0.61930
C22 C 0.69060 0.40360 0.58640
C23 C 0.70050 0.23860 -0.10450
C24 C 0.83410 0.28430 -0.07920

#END
