./ABABUB_from_xyz.cif_generated_by_CrystalShift
_symmetry_cell_setting triclinic
_symmetry_space_group_name_H-M 'P 1'
loop_
_symmetry_equiv_pos_site_id
_symmetry_equiv_pos_as_xyz
1 x,y,z
_cell_length_a 12.304700
_cell_length_b 6.368900
_cell_length_c 13.238000
_cell_angle_alpha 90.000000
_cell_angle_beta 96.223000
_cell_angle_gamma 90.000000
_cell_volume 1031.314643
loop_
_atom_site_label
_atom_site_type_symbol
_atom_site_fract_x
_atom_site_fract_y
_atom_site_fract_z
O1 O 0.406130 0.067270 0.091110
O2 O 0.535800 0.684370 0.265140
N3 N 0.565470 0.223660 0.060110
H4 H 0.573800 0.127300 0.015000
C5 C 0.644130 0.374540 0.075430
C6 C 0.740710 0.349200 0.013630
H7 H 0.786200 0.231400 0.040500
H8 H 0.713900 0.317800 -0.057200
C9 C 0.808380 0.546900 0.017940
H10 H 0.879100 0.515900 -0.006300
H11 H 0.771200 0.651700 -0.027700
C12 C 0.827420 0.637300 0.123190
H13 H 0.873200 0.763000 0.121900
H14 H 0.867000 0.534700 0.168500
C15 C 0.721840 0.694300 0.164630
H16 H 0.736100 0.714700 0.238300
H17 H 0.695100 0.827800 0.134500
C18 C 0.635100 0.531150 0.143470
C19 C 0.540540 0.524850 0.197230
C20 C 0.431310 0.712160 0.302680
H21 H 0.379900 0.773200 0.249000
H22 H 0.439100 0.810700 0.359900
C23 C 0.386030 0.508930 0.336740
H24 H 0.316400 0.534200 0.364300
H25 H 0.437000 0.446600 0.390500
C26 C 0.368740 0.360470 0.247660
H27 H 0.361500 0.216700 0.272500
H28 H 0.300900 0.397200 0.205600
C29 C 0.463300 0.371700 0.184430
C30 C 0.474220 0.212910 0.110650
O31 O 1.093870 0.567270 0.408890
O32 O 0.964200 1.184370 0.234860
N33 N 0.934530 0.723660 0.439890
H34 H 0.926200 0.627300 0.485000
C35 C 0.855870 0.874540 0.424570
C36 C 0.759290 0.849200 0.486370
H37 H 0.713800 0.731400 0.459500
H38 H 0.786100 0.817800 0.557200
C39 C 0.691620 1.046900 0.482060
H40 H 0.620900 1.015900 0.506300
H41 H 0.728800 1.151700 0.527700
C42 C 0.672580 1.137300 0.376810
H43 H 0.626800 1.263000 0.378100
H44 H 0.633000 1.034700 0.331500
C45 C 0.778160 1.194300 0.335370
H46 H 0.763900 1.214700 0.261700
H47 H 0.804900 1.327800 0.365500
C48 C 0.864900 1.031150 0.356530
C49 C 0.959460 1.024850 0.302770
C50 C 1.068690 1.212160 0.197320
H51 H 1.120100 1.273200 0.251000
H52 H 1.060900 1.310700 0.140100
C53 C 1.113970 1.008930 0.163260
H54 H 1.183600 1.034200 0.135700
H55 H 1.063000 0.946600 0.109500
C56 C 1.131260 0.860470 0.252340
H57 H 1.138500 0.716700 0.227500
H58 H 1.199100 0.897200 0.294400
C59 C 1.036700 0.871700 0.315570
C60 C 1.025780 0.712910 0.389350
O61 O 0.593870 0.932730 0.908890
O62 O 0.464200 0.315630 0.734860
N63 N 0.434530 0.776340 0.939890
H64 H 0.426200 0.872700 0.985000
C65 C 0.355870 0.625460 0.924570
C66 C 0.259290 0.650800 0.986370
H67 H 0.213800 0.768600 0.959500
H68 H 0.286100 0.682200 1.057200
C69 C 0.191620 0.453100 0.982060
H70 H 0.120900 0.484100 1.006300
H71 H 0.228800 0.348300 1.027700
C72 C 0.172580 0.362700 0.876810
H73 H 0.126800 0.237000 0.878100
H74 H 0.133000 0.465300 0.831500
C75 C 0.278160 0.305700 0.835370
H76 H 0.263900 0.285300 0.761700
H77 H 0.304900 0.172200 0.865500
C78 C 0.364900 0.468850 0.856530
C79 C 0.459460 0.475150 0.802770
C80 C 0.568690 0.287840 0.697320
H81 H 0.620100 0.226800 0.751000
H82 H 0.560900 0.189300 0.640100
C83 C 0.613970 0.491070 0.663260
H84 H 0.683600 0.465800 0.635700
H85 H 0.563000 0.553400 0.609500
C86 C 0.631260 0.639530 0.752340
H87 H 0.638500 0.783300 0.727500
H88 H 0.699100 0.602800 0.794400
C89 C 0.536700 0.628300 0.815570
C90 C 0.525780 0.787090 0.889350
O91 O -0.093870 0.432730 0.591110
O92 O 0.035800 -0.184370 0.765140
N93 N 0.065470 0.276340 0.560110
H94 H 0.073800 0.372700 0.515000
C95 C 0.144130 0.125460 0.575430
C96 C 0.240710 0.150800 0.513630
H97 H 0.286200 0.268600 0.540500
H98 H 0.213900 0.182200 0.442800
C99 C 0.308380 -0.046900 0.517940
H100 H 0.379100 -0.015900 0.493700
H101 H 0.271200 -0.151700 0.472300
C102 C 0.327420 -0.137300 0.623190
H103 H 0.373200 -0.263000 0.621900
H104 H 0.367000 -0.034700 0.668500
C105 C 0.221840 -0.194300 0.664630
H106 H 0.236100 -0.214700 0.738300
H107 H 0.195100 -0.327800 0.634500
C108 C 0.135100 -0.031150 0.643470
C109 C 0.040540 -0.024850 0.697230
C110 C -0.068690 -0.212160 0.802680
H111 H -0.120100 -0.273200 0.749000
H112 H -0.060900 -0.310700 0.859900
C113 C -0.113970 -0.008930 0.836740
H114 H -0.183600 -0.034200 0.864300
H115 H -0.063000 0.053400 0.890500
C116 C -0.131260 0.139530 0.747660
H117 H -0.138500 0.283300 0.772500
H118 H -0.199100 0.102800 0.705600
C119 C -0.036700 0.128300 0.684430
C120 C -0.025780 0.287090 0.610650
C121 C 0.740700 0.351200 0.019400
H122 H 0.719000 0.377900 -0.052900
H123 H 0.766900 0.206000 0.026200
C124 C 0.832100 0.496400 0.056100
H125 H 0.884100 0.502500 0.005000
H126 H 0.870800 0.439600 0.118800
C127 C 0.792800 0.719800 0.076500
H128 H 0.756300 0.779500 0.013500
H129 H 0.855900 0.808500 0.099000
C130 C 0.712100 0.718200 0.159500
H131 H 0.753400 0.709600 0.227000
H132 H 0.669700 0.848700 0.155900
C133 C 0.759300 -0.148800 0.480600
H134 H 0.781000 -0.122100 0.552900
H135 H 0.733100 -0.294000 0.473800
C136 C 0.667900 -0.003600 0.443900
H137 H 0.615900 0.002500 0.495000
H138 H 0.629200 -0.060400 0.381200
C139 C 0.707200 0.219800 0.423500
H140 H 0.743700 0.279500 0.486500
H141 H 0.644100 0.308500 0.401000
C142 C 0.787900 0.218200 0.340500
H143 H 0.746600 0.209600 0.273000
H144 H 0.830300 0.348700 0.344100
C145 C 0.259300 0.648800 0.980600
H146 H 0.281000 0.622100 1.052900
H147 H 0.233100 0.794000 0.973800
C148 C 0.167900 0.503600 0.943900
H149 H 0.115900 0.497500 0.995000
H150 H 0.129200 0.560400 0.881200
C151 C 0.207200 0.280200 0.923500
H152 H 0.243700 0.220500 0.986500
H153 H 0.144100 0.191500 0.901000
C154 C 0.287900 0.281800 0.840500
H155 H 0.246600 0.290400 0.773000
H156 H 0.330300 0.151300 0.844100
C157 C 0.240700 1.148800 0.519400
H158 H 0.219000 1.122100 0.447100
H159 H 0.266900 1.294000 0.526200
C160 C 0.332100 1.003600 0.556100
H161 H 0.384100 0.997500 0.505000
H162 H 0.370800 1.060400 0.618800
C163 C 0.292800 0.780200 0.576500
H164 H 0.256300 0.720500 0.513500
H165 H 0.355900 0.691500 0.599000
C166 C 0.212100 0.781800 0.659500
H167 H 0.253400 0.790400 0.727000
H168 H 0.169700 0.651300 0.655900

#END
