
#######################################################################
#
#                 Cambridge Crystallographic Data Centre
#                                CCDC 
#
#######################################################################
#
# If this CIF has been generated from an entry in the Cambridge 
# Structural Database, then it will include bibliographic, chemical, 
# crystal, experimental, refinement or atomic coordinate data resulting 
# from the CCDC's data processing and validation procedures.
#
#######################################################################

data_ABACRE
_symmetry_cell_setting           orthorhombic
_symmetry_space_group_name_H-M   'P n 21 a'
_symmetry_Int_Tables_number      33
_space_group_name_Hall           'P -2ac -2n'
loop_
_symmetry_equiv_pos_site_id
_symmetry_equiv_pos_as_xyz
1 x,y,z
2 1/2-x,1/2+y,1/2+z
3 1/2+x,y,1/2-z
4 -x,1/2+y,-z
_cell_length_a                   13.12(1)
_cell_length_b                   8.71(1)
_cell_length_c                   17.25(2)
_cell_angle_alpha                90
_cell_angle_beta                 90
_cell_angle_gamma                90
_cell_volume                     1971.25
loop_
_atom_site_label
_atom_site_type_symbol
_atom_site_fract_x
_atom_site_fract_y
_atom_site_fract_z
Br1 Br 0.83790 0.46270 0.90480
Br2 Br 0.84300 0.75440 0.76340
Br3 Br 0.83670 0.74280 1.05330
Br4 Br 0.83510 1.03760 0.90660
C1 C 1.07210 0.77680 0.91260
C3 C 1.18340 0.78450 0.91510
N1 N 0.68830 0.75070 0.90850
N2 N 0.98680 0.77110 0.91180
O1 O 0.61260 0.75450 0.90760
Re1 Re 0.82330 0.75000 0.90860
Br1 Br 0.66210 -0.03730 0.40480
Br2 Br 0.65700 0.25440 0.26340
Br3 Br 0.66330 0.24280 0.55330
Br4 Br 0.66490 0.53760 0.40660
C1 C 0.42790 0.27680 0.41260
C3 C 0.31660 0.28450 0.41510
N1 N 0.81170 0.25070 0.40850
N2 N 0.51320 0.27110 0.41180
O1 O 0.88740 0.25450 0.40760
Re1 Re 0.67670 0.25000 0.40860
Br1 Br 0.33790 0.46270 0.59520
Br2 Br 0.34300 0.75440 0.73660
Br3 Br 0.33670 0.74280 0.44670
Br4 Br 0.33510 1.03760 0.59340
C1 C 0.57210 0.77680 0.58740
C3 C 0.68340 0.78450 0.58490
N1 N 0.18830 0.75070 0.59150
N2 N 0.48680 0.77110 0.58820
O1 O 0.11260 0.75450 0.59240
Re1 Re 0.32330 0.75000 0.59140
Br1 Br 0.16210 -0.03730 0.09520
Br2 Br 0.15700 0.25440 0.23660
Br3 Br 0.16330 0.24280 -0.05330
Br4 Br 0.16490 0.53760 0.09340
C1 C -0.07210 0.27680 0.08740
C3 C -0.18340 0.28450 0.08490
N1 N 0.31170 0.25070 0.09150
N2 N 0.01320 0.27110 0.08820
O1 O 0.38740 0.25450 0.09240
Re1 Re 0.17670 0.25000 0.09140
C2 C 0.41560 0.45490 0.90180
C4 C 0.49730 0.16610 0.74880
C5 C 0.51630 0.15600 0.89660
C6 C 0.60450 0.34970 0.82190
C7 C 0.41140 0.35280 0.82730
C8 C 0.57980 0.04250 0.73990
C9 C 0.42170 0.02360 0.89510
C10 C 0.61200 0.46420 0.75700
H1 H 0.34620 0.52080 0.90650
H2 H 0.42380 0.38260 0.95230
H3 H 0.47990 0.53210 0.89820
H4 H 0.42490 0.10750 0.74900
H5 H 0.50230 0.23910 0.69830
H6 H 0.58910 0.09810 0.89550
H7 H 0.51040 0.22340 0.94900
H8 H 0.61400 0.41190 0.87560
H9 H 0.66650 0.26930 0.81500
H10 H 0.40420 0.42360 0.77620
H11 H 0.34800 0.27400 0.83030
H12 H 0.56720 -0.02050 0.68690
H13 H 0.65400 0.09640 0.73800
H14 H 0.57650 -0.03510 0.78860
H15 H 0.42860 -0.05030 0.94510
H16 H 0.34880 0.08110 0.89650
H17 H 0.42750 -0.04410 0.84300
H18 H 0.68510 0.52120 0.75960
H19 H 0.60450 0.40570 0.70220
H20 H 0.55200 0.54830 0.76280
N3 N 0.50710 0.26580 0.82340
C2 C 1.08440 0.95490 0.40180
C4 C 1.00270 0.66610 0.24880
C5 C 0.98370 0.65600 0.39660
C6 C 0.89550 0.84970 0.32190
C7 C 1.08860 0.85280 0.32730
C8 C 0.92020 0.54250 0.23990
C9 C 1.07830 0.52360 0.39510
C10 C 0.88800 0.96420 0.25700
H1 H 1.15380 1.02080 0.40650
H2 H 1.07620 0.88260 0.45230
H3 H 1.02010 1.03210 0.39820
H4 H 1.07510 0.60750 0.24900
H5 H 0.99770 0.73910 0.19830
H6 H 0.91090 0.59810 0.39550
H7 H 0.98960 0.72340 0.44900
H8 H 0.88600 0.91190 0.37560
H9 H 0.83350 0.76930 0.31500
H10 H 1.09580 0.92360 0.27620
H11 H 1.15200 0.77400 0.33030
H12 H 0.93280 0.47950 0.18690
H13 H 0.84600 0.59640 0.23800
H14 H 0.92350 0.46490 0.28860
H15 H 1.07140 0.44970 0.44510
H16 H 1.15120 0.58110 0.39650
H17 H 1.07250 0.45590 0.34300
H18 H 0.81490 1.02120 0.25960
H19 H 0.89550 0.90570 0.20220
H20 H 0.94800 1.04830 0.26280
N3 N 0.99290 0.76580 0.32340
C2 C -0.08440 0.45490 0.59820
C4 C -0.00270 0.16610 0.75120
C5 C 0.01630 0.15600 0.60340
C6 C 0.10450 0.34970 0.67810
C7 C -0.08860 0.35280 0.67270
C8 C 0.07980 0.04250 0.76010
C9 C -0.07830 0.02360 0.60490
C10 C 0.11200 0.46420 0.74300
H1 H -0.15380 0.52080 0.59350
H2 H -0.07620 0.38260 0.54770
H3 H -0.02010 0.53210 0.60180
H4 H -0.07510 0.10750 0.75100
H5 H 0.00230 0.23910 0.80170
H6 H 0.08910 0.09810 0.60450
H7 H 0.01040 0.22340 0.55100
H8 H 0.11400 0.41190 0.62440
H9 H 0.16650 0.26930 0.68500
H10 H -0.09580 0.42360 0.72380
H11 H -0.15200 0.27400 0.66970
H12 H 0.06720 -0.02050 0.81310
H13 H 0.15400 0.09640 0.76200
H14 H 0.07650 -0.03510 0.71140
H15 H -0.07140 -0.05030 0.55490
H16 H -0.15120 0.08110 0.60350
H17 H -0.07250 -0.04410 0.65700
H18 H 0.18510 0.52120 0.74040
H19 H 0.10450 0.40570 0.79780
H20 H 0.05200 0.54830 0.73720
N3 N 0.00710 0.26580 0.67660
C2 C 0.58440 0.95490 0.09820
C4 C 0.50270 0.66610 0.25120
C5 C 0.48370 0.65600 0.10340
C6 C 0.39550 0.84970 0.17810
C7 C 0.58860 0.85280 0.17270
C8 C 0.42020 0.54250 0.26010
C9 C 0.57830 0.52360 0.10490
C10 C 0.38800 0.96420 0.24300
H1 H 0.65380 1.02080 0.09350
H2 H 0.57620 0.88260 0.04770
H3 H 0.52010 1.03210 0.10180
H4 H 0.57510 0.60750 0.25100
H5 H 0.49770 0.73910 0.30170
H6 H 0.41090 0.59810 0.10450
H7 H 0.48960 0.72340 0.05100
H8 H 0.38600 0.91190 0.12440
H9 H 0.33350 0.76930 0.18500
H10 H 0.59580 0.92360 0.22380
H11 H 0.65200 0.77400 0.16970
H12 H 0.43280 0.47950 0.31310
H13 H 0.34600 0.59640 0.26200
H14 H 0.42350 0.46490 0.21140
H15 H 0.57140 0.44970 0.05490
H16 H 0.65120 0.58110 0.10350
H17 H 0.57250 0.45590 0.15700
H18 H 0.31490 1.02120 0.24040
H19 H 0.39550 0.90570 0.29780
H20 H 0.44800 1.04830 0.23720
N3 N 0.49290 0.76580 0.17660

#END
