./ABACEN_from_xyz.cif_generated_by_CrystalShift
_symmetry_cell_setting triclinic
_symmetry_space_group_name_H-M 'P 1'
loop_
_symmetry_equiv_pos_site_id
_symmetry_equiv_pos_as_xyz
1 x,y,z
_cell_length_a 6.140900
_cell_length_b 5.195200
_cell_length_c 13.184400
_cell_angle_alpha 90.000000
_cell_angle_beta 95.118000
_cell_angle_gamma 90.000000
_cell_volume 418.947607
loop_
_atom_site_label
_atom_site_type_symbol
_atom_site_fract_x
_atom_site_fract_y
_atom_site_fract_z
C1 C 0.426400 -0.086500 0.320560
C2 C 0.446400 0.180800 0.367400
H3 H 0.483900 0.306200 0.316200
C4 C 0.215400 0.232600 0.397600
H5 H 0.177400 0.415500 0.391300
C6 C 0.074200 0.068700 0.321300
H7 H -0.046000 -0.005000 0.355900
C8 C -0.020600 0.204800 0.227000
H9 H -0.102900 0.085000 0.182000
H10 H -0.118100 0.341300 0.244800
C11 C 0.110000 0.501200 0.109500
C12 C 0.307900 0.589400 0.062900
H13 H 0.329400 0.484800 0.004600
H14 H 0.432900 0.574800 0.111800
H15 H 0.289500 0.765800 0.042200
O16 O 0.215700 -0.140600 0.293140
O17 O 0.570600 -0.235500 0.309420
O18 O 0.613900 0.170900 0.448080
O19 O 0.187700 0.137700 0.497110
O20 O 0.159000 0.310300 0.177450
O21 O -0.070500 0.583700 0.091600
H22 H 0.661000 0.325000 0.455000
H23 H 0.265000 0.229000 0.540000
C24 C 0.573600 0.413500 0.679440
C25 C 0.553600 0.680800 0.632600
H26 H 0.516100 0.806200 0.683800
C27 C 0.784600 0.732600 0.602400
H28 H 0.822600 0.915500 0.608700
C29 C 0.925800 0.568700 0.678700
H30 H 1.046000 0.495000 0.644100
C31 C 1.020600 0.704800 0.773000
H32 H 1.102900 0.585000 0.818000
H33 H 1.118100 0.841300 0.755200
C34 C 0.890000 1.001200 0.890500
C35 C 0.692100 1.089400 0.937100
H36 H 0.670600 0.984800 0.995400
H37 H 0.567100 1.074800 0.888200
H38 H 0.710500 1.265800 0.957800
O39 O 0.784300 0.359400 0.706860
O40 O 0.429400 0.264500 0.690580
O41 O 0.386100 0.670900 0.551920
O42 O 0.812300 0.637700 0.502890
O43 O 0.841000 0.810300 0.822550
O44 O 1.070500 1.083700 0.908400
H45 H 0.339000 0.825000 0.545000
H46 H 0.735000 0.729000 0.460000

#END
