./ABACIR_from_xyz.cif_generated_by_CrystalShift
_symmetry_cell_setting triclinic
_symmetry_space_group_name_H-M 'P 1'
loop_
_symmetry_equiv_pos_site_id
_symmetry_equiv_pos_as_xyz
1 x,y,z
_cell_length_a 7.420100
_cell_length_b 27.832900
_cell_length_c 10.179000
_cell_angle_alpha 90.000000
_cell_angle_beta 118.440000
_cell_angle_gamma 90.000000
_cell_volume 1848.495826
loop_
_atom_site_label
_atom_site_type_symbol
_atom_site_fract_x
_atom_site_fract_y
_atom_site_fract_z
S1 S 0.643170 0.251000 0.681160
S2 S 1.048350 0.230170 0.696850
O3 O 0.559800 0.247110 0.782400
O4 O 0.665700 0.297240 0.629100
O5 O 1.801600 0.104670 1.071600
O6 O 1.859000 0.045000 0.943600
N7 N 0.502100 0.219610 0.535700
H8 H 0.445700 0.233200 0.446900
N9 N 1.424900 0.112050 1.027600
H10 H 1.538000 0.123800 1.068000
N11 N 1.756300 0.068590 0.991400
C12 C 0.465900 0.167810 0.549500
H13 H 0.496700 0.161700 0.655000
C14 C 0.607200 0.136070 0.516200
H15 H 0.751900 0.143800 0.586700
H16 H 0.583600 0.142500 0.413500
C17 C 0.566400 0.083020 0.531300
H18 H 0.653300 0.062900 0.503800
H19 H 0.603900 0.076000 0.636600
C20 C 0.343300 0.070340 0.431900
H21 H 0.320100 0.036400 0.449100
H22 H 0.310200 0.073700 0.325900
C23 C 0.202400 0.102400 0.462400
H24 H 0.223400 0.096000 0.564500
H25 H 0.058100 0.094700 0.390800
C26 C 0.242400 0.155730 0.448300
H27 H 0.206200 0.163000 0.343400
H28 H 0.155100 0.175700 0.475700
C29 C 0.883900 0.224020 0.770700
C30 C 1.210900 0.188950 0.821200
H31 H 1.335800 0.179200 0.824600
C32 C 1.143400 0.171520 0.914600
C33 C 0.951800 0.191630 0.884700
H34 H 0.879600 0.183500 0.937600
C35 C 1.263900 0.137080 1.041300
H36 H 1.325500 0.155200 1.136500
H37 H 1.168500 0.113100 1.045900
C38 C 1.390600 0.075460 0.931000
C39 C 1.190600 0.057210 0.843600
H40 H 1.079400 0.072400 0.848500
C41 C 1.152200 0.018030 0.751400
H42 H 1.016000 0.006400 0.695100
C43 C 1.310900 -0.004630 0.740200
H44 H 1.283300 -0.031900 0.677400
C45 C 1.504700 0.012090 0.818600
H46 H 1.612900 -0.003400 0.810300
C47 C 1.547300 0.052490 0.912800
S48 S 0.356830 0.751000 0.818840
S49 S -0.048350 0.730170 0.803150
O50 O 0.440200 0.747110 0.717600
O51 O 0.334300 0.797240 0.870900
O52 O -0.801600 0.604670 0.428400
O53 O -0.859000 0.545000 0.556400
N54 N 0.497900 0.719610 0.964300
H55 H 0.554300 0.733200 1.053100
N56 N -0.424900 0.612050 0.472400
H57 H -0.538000 0.623800 0.432000
N58 N -0.756300 0.568590 0.508600
C59 C 0.534100 0.667810 0.950500
H60 H 0.503300 0.661700 0.845000
C61 C 0.392800 0.636070 0.983800
H62 H 0.248100 0.643800 0.913300
H63 H 0.416400 0.642500 1.086500
C64 C 0.433600 0.583020 0.968700
H65 H 0.346700 0.562900 0.996200
H66 H 0.396100 0.576000 0.863400
C67 C 0.656700 0.570340 1.068100
H68 H 0.679900 0.536400 1.050900
H69 H 0.689800 0.573700 1.174100
C70 C 0.797600 0.602400 1.037600
H71 H 0.776600 0.596000 0.935500
H72 H 0.941900 0.594700 1.109200
C73 C 0.757600 0.655730 1.051700
H74 H 0.793800 0.663000 1.156600
H75 H 0.844900 0.675700 1.024300
C76 C 0.116100 0.724020 0.729300
C77 C -0.210900 0.688950 0.678800
H78 H -0.335800 0.679200 0.675400
C79 C -0.143400 0.671520 0.585400
C80 C 0.048200 0.691630 0.615300
H81 H 0.120400 0.683500 0.562400
C82 C -0.263900 0.637080 0.458700
H83 H -0.325500 0.655200 0.363500
H84 H -0.168500 0.613100 0.454100
C85 C -0.390600 0.575460 0.569000
C86 C -0.190600 0.557210 0.656400
H87 H -0.079400 0.572400 0.651500
C88 C -0.152200 0.518030 0.748600
H89 H -0.016000 0.506400 0.804900
C90 C -0.310900 0.495370 0.759800
H91 H -0.283300 0.468100 0.822600
C92 C -0.504700 0.512090 0.681400
H93 H -0.612900 0.496600 0.689700
C94 C -0.547300 0.552490 0.587200
S95 S 0.356830 0.749000 0.318840
S96 S -0.048350 0.769830 0.303150
O97 O 0.440200 0.752890 0.217600
O98 O 0.334300 0.702760 0.370900
O99 O -0.801600 0.895330 -0.071600
O100 O -0.859000 0.955000 0.056400
N101 N 0.497900 0.780390 0.464300
H102 H 0.554300 0.766800 0.553100
N103 N -0.424900 0.887950 -0.027600
H104 H -0.538000 0.876200 -0.068000
N105 N -0.756300 0.931410 0.008600
C106 C 0.534100 0.832190 0.450500
H107 H 0.503300 0.838300 0.345000
C108 C 0.392800 0.863930 0.483800
H109 H 0.248100 0.856200 0.413300
H110 H 0.416400 0.857500 0.586500
C111 C 0.433600 0.916980 0.468700
H112 H 0.346700 0.937100 0.496200
H113 H 0.396100 0.924000 0.363400
C114 C 0.656700 0.929660 0.568100
H115 H 0.679900 0.963600 0.550900
H116 H 0.689800 0.926300 0.674100
C117 C 0.797600 0.897600 0.537600
H118 H 0.776600 0.904000 0.435500
H119 H 0.941900 0.905300 0.609200
C120 C 0.757600 0.844270 0.551700
H121 H 0.793800 0.837000 0.656600
H122 H 0.844900 0.824300 0.524300
C123 C 0.116100 0.775980 0.229300
C124 C -0.210900 0.811050 0.178800
H125 H -0.335800 0.820800 0.175400
C126 C -0.143400 0.828480 0.085400
C127 C 0.048200 0.808370 0.115300
H128 H 0.120400 0.816500 0.062400
C129 C -0.263900 0.862920 -0.041300
H130 H -0.325500 0.844800 -0.136500
H131 H -0.168500 0.886900 -0.045900
C132 C -0.390600 0.924540 0.069000
C133 C -0.190600 0.942790 0.156400
H134 H -0.079400 0.927600 0.151500
C135 C -0.152200 0.981970 0.248600
H136 H -0.016000 0.993600 0.304900
C137 C -0.310900 1.004630 0.259800
H138 H -0.283300 1.031900 0.322600
C139 C -0.504700 0.987910 0.181400
H140 H -0.612900 1.003400 0.189700
C141 C -0.547300 0.947510 0.087200
S142 S 0.643170 0.249000 0.181160
S143 S 1.048350 0.269830 0.196850
O144 O 0.559800 0.252890 0.282400
O145 O 0.665700 0.202760 0.129100
O146 O 1.801600 0.395330 0.571600
O147 O 1.859000 0.455000 0.443600
N148 N 0.502100 0.280390 0.035700
H149 H 0.445700 0.266800 -0.053100
N150 N 1.424900 0.387950 0.527600
H151 H 1.538000 0.376200 0.568000
N152 N 1.756300 0.431410 0.491400
C153 C 0.465900 0.332190 0.049500
H154 H 0.496700 0.338300 0.155000
C155 C 0.607200 0.363930 0.016200
H156 H 0.751900 0.356200 0.086700
H157 H 0.583600 0.357500 -0.086500
C158 C 0.566400 0.416980 0.031300
H159 H 0.653300 0.437100 0.003800
H160 H 0.603900 0.424000 0.136600
C161 C 0.343300 0.429660 -0.068100
H162 H 0.320100 0.463600 -0.050900
H163 H 0.310200 0.426300 -0.174100
C164 C 0.202400 0.397600 -0.037600
H165 H 0.223400 0.404000 0.064500
H166 H 0.058100 0.405300 -0.109200
C167 C 0.242400 0.344270 -0.051700
H168 H 0.206200 0.337000 -0.156600
H169 H 0.155100 0.324300 -0.024300
C170 C 0.883900 0.275980 0.270700
C171 C 1.210900 0.311050 0.321200
H172 H 1.335800 0.320800 0.324600
C173 C 1.143400 0.328480 0.414600
C174 C 0.951800 0.308370 0.384700
H175 H 0.879600 0.316500 0.437600
C176 C 1.263900 0.362920 0.541300
H177 H 1.325500 0.344800 0.636500
H178 H 1.168500 0.386900 0.545900
C179 C 1.390600 0.424540 0.431000
C180 C 1.190600 0.442790 0.343600
H181 H 1.079400 0.427600 0.348500
C182 C 1.152200 0.481970 0.251400
H183 H 1.016000 0.493600 0.195100
C184 C 1.310900 0.504630 0.240200
H185 H 1.283300 0.531900 0.177400
C186 C 1.504700 0.487910 0.318600
H187 H 1.612900 0.503400 0.310300
C188 C 1.547300 0.447510 0.412800
O189 O 0.929400 0.047400 0.023800
O190 O 0.070600 0.547400 0.476200
O191 O 0.070600 0.952600 0.976200
O192 O 0.929400 0.452600 0.523800

#END
