
#######################################################################
#
#                 Cambridge Crystallographic Data Centre
#                                CCDC 
#
#######################################################################
#
# If this CIF has been generated from an entry in the Cambridge 
# Structural Database, then it will include bibliographic, chemical, 
# crystal, experimental, refinement or atomic coordinate data resulting 
# from the CCDC's data processing and validation procedures.
#
#######################################################################

data_ABACEN
_symmetry_cell_setting           monoclinic
_symmetry_space_group_name_H-M   'P 21'
_symmetry_Int_Tables_number      4
_space_group_name_Hall           'P 2yb'
loop_
_symmetry_equiv_pos_site_id
_symmetry_equiv_pos_as_xyz
1 x,y,z
2 -x,1/2+y,-z
_cell_length_a                   6.1409(4)
_cell_length_b                   5.1952(15)
_cell_length_c                   13.1844(18)
_cell_angle_alpha                90
_cell_angle_beta                 95.118(12)
_cell_angle_gamma                90
_cell_volume                     418.948
loop_
_atom_site_label
_atom_site_type_symbol
_atom_site_fract_x
_atom_site_fract_y
_atom_site_fract_z
C1 C 0.4264(4) -0.0865(5) 0.32056(19)
C2 C 0.4464(4) 0.1808(5) 0.3674(2)
H1 H 0.4839 0.3062 0.3162
C3 C 0.2154(4) 0.2326(5) 0.3976(2)
H2 H 0.1774 0.4155 0.3913
C4 C 0.0742(4) 0.0687(6) 0.3213(2)
H3 H -0.0460 -0.0050 0.3559
C5 C -0.0206(5) 0.2048(8) 0.2270(2)
H4 H -0.1029 0.0850 0.1820
H5 H -0.1181 0.3413 0.2448
C6 C 0.1100(5) 0.5012(7) 0.1095(2)
C7 C 0.3079(6) 0.5894(10) 0.0629(3)
H6 H 0.3294 0.4848 0.0046
H7 H 0.4329 0.5748 0.1118
H8 H 0.2895 0.7658 0.0422
O1 O 0.2157(3) -0.1406(4) 0.29314(16)
O2 O 0.5706(3) -0.2355(4) 0.30942(17)
O3 O 0.6139(3) 0.1709(5) 0.44808(17)
O4 O 0.1877(3) 0.1377(5) 0.49711(16)
O5 O 0.1590(3) 0.3103(5) 0.17745(16)
O6 O -0.0705(4) 0.5837(6) 0.0916(2)
H9 H 0.661(6) 0.325(9) 0.455(3)
H10 H 0.265(7) 0.229(12) 0.540(4)
C1 C 0.5736(4) 0.4135(5) 0.67944(19)
C2 C 0.5536(4) 0.6808(5) 0.6326(2)
H1 H 0.5161 0.8062 0.6838
C3 C 0.7846(4) 0.7326(5) 0.6024(2)
H2 H 0.8226 0.9155 0.6087
C4 C 0.9258(4) 0.5687(6) 0.6787(2)
H3 H 1.0460 0.4950 0.6441
C5 C 1.0206(5) 0.7048(8) 0.7730(2)
H4 H 1.1029 0.5850 0.8180
H5 H 1.1181 0.8413 0.7552
C6 C 0.8900(5) 1.0012(7) 0.8905(2)
C7 C 0.6921(6) 1.0894(10) 0.9371(3)
H6 H 0.6706 0.9848 0.9954
H7 H 0.5671 1.0748 0.8882
H8 H 0.7105 1.2658 0.9578
O1 O 0.7843(3) 0.3594(4) 0.70686(16)
O2 O 0.4294(3) 0.2645(4) 0.69058(17)
O3 O 0.3861(3) 0.6709(5) 0.55192(17)
O4 O 0.8123(3) 0.6377(5) 0.50289(16)
O5 O 0.8410(3) 0.8103(5) 0.82255(16)
O6 O 1.0705(4) 1.0837(6) 0.9084(2)
H9 H 0.339(6) 0.825(9) 0.545(3)
H10 H 0.735(7) 0.729(12) 0.460(4)

#END
