./ABACRE_from_xyz.cif_generated_by_CrystalShift
_symmetry_cell_setting triclinic
_symmetry_space_group_name_H-M 'P 1'
loop_
_symmetry_equiv_pos_site_id
_symmetry_equiv_pos_as_xyz
1 x,y,z
_cell_length_a 13.120000
_cell_length_b 8.710000
_cell_length_c 17.250000
_cell_angle_alpha 90.000000
_cell_angle_beta 90.000000
_cell_angle_gamma 90.000000
_cell_volume 1971.247200
loop_
_atom_site_label
_atom_site_type_symbol
_atom_site_fract_x
_atom_site_fract_y
_atom_site_fract_z
Br1 Br 0.837900 0.462700 0.904800
Br2 Br 0.843000 0.754400 0.763400
Br3 Br 0.836700 0.742800 1.053300
Br4 Br 0.835100 1.037600 0.906600
C5 C 1.072100 0.776800 0.912600
C6 C 1.183400 0.784500 0.915100
N7 N 0.688300 0.750700 0.908500
N8 N 0.986800 0.771100 0.911800
O9 O 0.612600 0.754500 0.907600
Re10 Re 0.823300 0.750000 0.908600
Br11 Br 0.662100 -0.037300 0.404800
Br12 Br 0.657000 0.254400 0.263400
Br13 Br 0.663300 0.242800 0.553300
Br14 Br 0.664900 0.537600 0.406600
C15 C 0.427900 0.276800 0.412600
C16 C 0.316600 0.284500 0.415100
N17 N 0.811700 0.250700 0.408500
N18 N 0.513200 0.271100 0.411800
O19 O 0.887400 0.254500 0.407600
Re20 Re 0.676700 0.250000 0.408600
Br21 Br 0.337900 0.462700 0.595200
Br22 Br 0.343000 0.754400 0.736600
Br23 Br 0.336700 0.742800 0.446700
Br24 Br 0.335100 1.037600 0.593400
C25 C 0.572100 0.776800 0.587400
C26 C 0.683400 0.784500 0.584900
N27 N 0.188300 0.750700 0.591500
N28 N 0.486800 0.771100 0.588200
O29 O 0.112600 0.754500 0.592400
Re30 Re 0.323300 0.750000 0.591400
Br31 Br 0.162100 -0.037300 0.095200
Br32 Br 0.157000 0.254400 0.236600
Br33 Br 0.163300 0.242800 -0.053300
Br34 Br 0.164900 0.537600 0.093400
C35 C -0.072100 0.276800 0.087400
C36 C -0.183400 0.284500 0.084900
N37 N 0.311700 0.250700 0.091500
N38 N 0.013200 0.271100 0.088200
O39 O 0.387400 0.254500 0.092400
Re40 Re 0.176700 0.250000 0.091400
C41 C 0.415600 0.454900 0.901800
C42 C 0.497300 0.166100 0.748800
C43 C 0.516300 0.156000 0.896600
C44 C 0.604500 0.349700 0.821900
C45 C 0.411400 0.352800 0.827300
C46 C 0.579800 0.042500 0.739900
C47 C 0.421700 0.023600 0.895100
C48 C 0.612000 0.464200 0.757000
H49 H 0.346200 0.520800 0.906500
H50 H 0.423800 0.382600 0.952300
H51 H 0.479900 0.532100 0.898200
H52 H 0.424900 0.107500 0.749000
H53 H 0.502300 0.239100 0.698300
H54 H 0.589100 0.098100 0.895500
H55 H 0.510400 0.223400 0.949000
H56 H 0.614000 0.411900 0.875600
H57 H 0.666500 0.269300 0.815000
H58 H 0.404200 0.423600 0.776200
H59 H 0.348000 0.274000 0.830300
H60 H 0.567200 -0.020500 0.686900
H61 H 0.654000 0.096400 0.738000
H62 H 0.576500 -0.035100 0.788600
H63 H 0.428600 -0.050300 0.945100
H64 H 0.348800 0.081100 0.896500
H65 H 0.427500 -0.044100 0.843000
H66 H 0.685100 0.521200 0.759600
H67 H 0.604500 0.405700 0.702200
H68 H 0.552000 0.548300 0.762800
N69 N 0.507100 0.265800 0.823400
C70 C 1.084400 0.954900 0.401800
C71 C 1.002700 0.666100 0.248800
C72 C 0.983700 0.656000 0.396600
C73 C 0.895500 0.849700 0.321900
C74 C 1.088600 0.852800 0.327300
C75 C 0.920200 0.542500 0.239900
C76 C 1.078300 0.523600 0.395100
C77 C 0.888000 0.964200 0.257000
H78 H 1.153800 1.020800 0.406500
H79 H 1.076200 0.882600 0.452300
H80 H 1.020100 1.032100 0.398200
H81 H 1.075100 0.607500 0.249000
H82 H 0.997700 0.739100 0.198300
H83 H 0.910900 0.598100 0.395500
H84 H 0.989600 0.723400 0.449000
H85 H 0.886000 0.911900 0.375600
H86 H 0.833500 0.769300 0.315000
H87 H 1.095800 0.923600 0.276200
H88 H 1.152000 0.774000 0.330300
H89 H 0.932800 0.479500 0.186900
H90 H 0.846000 0.596400 0.238000
H91 H 0.923500 0.464900 0.288600
H92 H 1.071400 0.449700 0.445100
H93 H 1.151200 0.581100 0.396500
H94 H 1.072500 0.455900 0.343000
H95 H 0.814900 1.021200 0.259600
H96 H 0.895500 0.905700 0.202200
H97 H 0.948000 1.048300 0.262800
N98 N 0.992900 0.765800 0.323400
C99 C -0.084400 0.454900 0.598200
C100 C -0.002700 0.166100 0.751200
C101 C 0.016300 0.156000 0.603400
C102 C 0.104500 0.349700 0.678100
C103 C -0.088600 0.352800 0.672700
C104 C 0.079800 0.042500 0.760100
C105 C -0.078300 0.023600 0.604900
C106 C 0.112000 0.464200 0.743000
H107 H -0.153800 0.520800 0.593500
H108 H -0.076200 0.382600 0.547700
H109 H -0.020100 0.532100 0.601800
H110 H -0.075100 0.107500 0.751000
H111 H 0.002300 0.239100 0.801700
H112 H 0.089100 0.098100 0.604500
H113 H 0.010400 0.223400 0.551000
H114 H 0.114000 0.411900 0.624400
H115 H 0.166500 0.269300 0.685000
H116 H -0.095800 0.423600 0.723800
H117 H -0.152000 0.274000 0.669700
H118 H 0.067200 -0.020500 0.813100
H119 H 0.154000 0.096400 0.762000
H120 H 0.076500 -0.035100 0.711400
H121 H -0.071400 -0.050300 0.554900
H122 H -0.151200 0.081100 0.603500
H123 H -0.072500 -0.044100 0.657000
H124 H 0.185100 0.521200 0.740400
H125 H 0.104500 0.405700 0.797800
H126 H 0.052000 0.548300 0.737200
N127 N 0.007100 0.265800 0.676600
C128 C 0.584400 0.954900 0.098200
C129 C 0.502700 0.666100 0.251200
C130 C 0.483700 0.656000 0.103400
C131 C 0.395500 0.849700 0.178100
C132 C 0.588600 0.852800 0.172700
C133 C 0.420200 0.542500 0.260100
C134 C 0.578300 0.523600 0.104900
C135 C 0.388000 0.964200 0.243000
H136 H 0.653800 1.020800 0.093500
H137 H 0.576200 0.882600 0.047700
H138 H 0.520100 1.032100 0.101800
H139 H 0.575100 0.607500 0.251000
H140 H 0.497700 0.739100 0.301700
H141 H 0.410900 0.598100 0.104500
H142 H 0.489600 0.723400 0.051000
H143 H 0.386000 0.911900 0.124400
H144 H 0.333500 0.769300 0.185000
H145 H 0.595800 0.923600 0.223800
H146 H 0.652000 0.774000 0.169700
H147 H 0.432800 0.479500 0.313100
H148 H 0.346000 0.596400 0.262000
H149 H 0.423500 0.464900 0.211400
H150 H 0.571400 0.449700 0.054900
H151 H 0.651200 0.581100 0.103500
H152 H 0.572500 0.455900 0.157000
H153 H 0.314900 1.021200 0.240400
H154 H 0.395500 0.905700 0.297800
H155 H 0.448000 1.048300 0.237200
N156 N 0.492900 0.765800 0.176600

#END
