
#######################################################################
#
#                 Cambridge Crystallographic Data Centre
#                                CCDC 
#
#######################################################################
#
# If this CIF has been generated from an entry in the Cambridge 
# Structural Database, then it will include bibliographic, chemical, 
# crystal, experimental, refinement or atomic coordinate data resulting 
# from the CCDC's data processing and validation procedures.
#
#######################################################################

data_ABACAJ
_symmetry_cell_setting           monoclinic
_symmetry_space_group_name_H-M   'P 21/c'
_symmetry_Int_Tables_number      14
_space_group_name_Hall           '-P 2ybc'
loop_
_symmetry_equiv_pos_site_id
_symmetry_equiv_pos_as_xyz
1 x,y,z
2 -x,1/2+y,1/2-z
3 -x,-y,-z
4 x,1/2-y,1/2+z
_cell_length_a                   11.6955(6)
_cell_length_b                   7.6889(4)
_cell_length_c                   13.7588(10)
_cell_angle_alpha                90
_cell_angle_beta                 111.978(7)
_cell_angle_gamma                90
_cell_volume                     1147.35
loop_
_atom_site_label
_atom_site_type_symbol
_atom_site_fract_x
_atom_site_fract_y
_atom_site_fract_z
N1 N 0.38340(12) 0.44242(18) 1.08551(10)
O1 O 0.09679(11) 0.29274(18) 1.04417(11)
N2 N 0.47610(13) 0.1959(2) 1.22717(13)
C1 C 0.36034(14) 0.1729(2) 1.16030(12)
C2 C 0.36242(19) 0.7124(2) 0.99038(16)
H1 H 0.4469 0.7273 1.0363
H2 H 0.3138 0.8058 1.0008
H3 H 0.3568 0.7128 0.919
N3 N 0.31423(12) 0.29247(17) 1.08476(10)
H4 H 0.504(2) 0.124(3) 1.2795(18)
H5 H 0.521(2) 0.286(3) 1.2218(18)
H6 H 0.114(2) 0.194(4) 1.086(2)
S1 S 0.27587(4) 0.00137(5) 1.17302(3)
C3 C 0.17249(13) 0.1559(2) 0.91966(12)
C4 C 0.31586(15) 0.5446(2) 1.01356(12)
C5 C 0.18692(14) 0.2977(2) 1.00036(13)
C6 C 0.18774(17) 0.4804(2) 0.95572(16)
H7 H 0.1694 0.4756 0.8809
H8 H 0.1278 0.5551 0.9683
C7 C 0.07051(15) 0.0470(2) 0.88614(13)
H9 H 0.0119 0.0557 0.9165
C8 C 0.1390(2) -0.0863(3) 0.76035(14)
H10 H 0.1277 -0.1666 0.707
C9 C 0.25740(16) 0.1420(2) 0.87171(14)
H11 H 0.3263 0.214 0.893
C10 C 0.05503(17) -0.0744(3) 0.80793(14)
H12 H -0.0128 -0.1484 0.7875
C11 C 0.2406(2) 0.0223(3) 0.79245(17)
H13 H 0.298 0.0149 0.7606
N1 N 0.61660(12) 0.94242(18) 0.41449(10)
O1 O 0.90321(11) 0.79274(18) 0.45583(11)
N2 N 0.52390(13) 0.6959(2) 0.27283(13)
C1 C 0.63966(14) 0.6729(2) 0.33970(12)
C2 C 0.63758(19) 1.2124(2) 0.50962(16)
H1 H 0.5531 1.2273 0.4637
H2 H 0.6862 1.3058 0.4992
H3 H 0.6432 1.2128 0.581
N3 N 0.68577(12) 0.79247(17) 0.41524(10)
H4 H 0.496(2) 0.624(3) 0.2205(18)
H5 H 0.479(2) 0.786(3) 0.2782(18)
H6 H 0.886(2) 0.694(4) 0.414(2)
S1 S 0.72413(4) 0.50137(5) 0.32698(3)
C3 C 0.82751(13) 0.6559(2) 0.58034(12)
C4 C 0.68414(15) 1.0446(2) 0.48644(12)
C5 C 0.81308(14) 0.7977(2) 0.49964(13)
C6 C 0.81226(17) 0.9804(2) 0.54428(16)
H7 H 0.8306 0.9756 0.6191
H8 H 0.8722 1.0551 0.5317
C7 C 0.92949(15) 0.5470(2) 0.61386(13)
H9 H 0.9881 0.5557 0.5835
C8 C 0.8610(2) 0.4137(3) 0.73965(14)
H10 H 0.8723 0.3334 0.793
C9 C 0.74260(16) 0.6420(2) 0.62829(14)
H11 H 0.6737 0.714 0.607
C10 C 0.94497(17) 0.4256(3) 0.69207(14)
H12 H 1.0128 0.3516 0.7125
C11 C 0.7594(2) 0.5223(3) 0.70755(17)
H13 H 0.702 0.5149 0.7394
N1 N 0.61660(12) 0.55758(18) -0.08551(10)
O1 O 0.90321(11) 0.70726(18) -0.04417(11)
N2 N 0.52390(13) 0.8041(2) -0.22717(13)
C1 C 0.63966(14) 0.8271(2) -0.16030(12)
C2 C 0.63758(19) 0.2876(2) 0.00962(16)
H1 H 0.5531 0.2727 -0.0363
H2 H 0.6862 0.1942 -0.0008
H3 H 0.6432 0.2872 0.081
N3 N 0.68577(12) 0.70753(17) -0.08476(10)
H4 H 0.496(2) 0.876(3) -0.2795(18)
H5 H 0.479(2) 0.714(3) -0.2218(18)
H6 H 0.886(2) 0.806(4) -0.086(2)
S1 S 0.72413(4) 0.99863(5) -0.17302(3)
C3 C 0.82751(13) 0.8441(2) 0.08034(12)
C4 C 0.68414(15) 0.4554(2) -0.01356(12)
C5 C 0.81308(14) 0.7023(2) -0.00036(13)
C6 C 0.81226(17) 0.5196(2) 0.04428(16)
H7 H 0.8306 0.5244 0.1191
H8 H 0.8722 0.4449 0.0317
C7 C 0.92949(15) 0.9530(2) 0.11386(13)
H9 H 0.9881 0.9443 0.0835
C8 C 0.8610(2) 1.0863(3) 0.23965(14)
H10 H 0.8723 1.1666 0.293
C9 C 0.74260(16) 0.8580(2) 0.12829(14)
H11 H 0.6737 0.786 0.107
C10 C 0.94497(17) 1.0744(3) 0.19207(14)
H12 H 1.0128 1.1484 0.2125
C11 C 0.7594(2) 0.9777(3) 0.20755(17)
H13 H 0.702 0.9851 0.2394
N1 N 0.38340(12) 0.05758(18) 0.58551(10)
O1 O 0.09679(11) 0.20726(18) 0.54417(11)
N2 N 0.47610(13) 0.3041(2) 0.72717(13)
C1 C 0.36034(14) 0.3271(2) 0.66030(12)
C2 C 0.36242(19) -0.2124(2) 0.49038(16)
H1 H 0.4469 -0.2273 0.5363
H2 H 0.3138 -0.3058 0.5008
H3 H 0.3568 -0.2128 0.419
N3 N 0.31423(12) 0.20753(17) 0.58476(10)
H4 H 0.504(2) 0.376(3) 0.7795(18)
H5 H 0.521(2) 0.214(3) 0.7218(18)
H6 H 0.114(2) 0.306(4) 0.586(2)
S1 S 0.27587(4) 0.49863(5) 0.67302(3)
C3 C 0.17249(13) 0.3441(2) 0.41966(12)
C4 C 0.31586(15) -0.0446(2) 0.51356(12)
C5 C 0.18692(14) 0.2023(2) 0.50036(13)
C6 C 0.18774(17) 0.0196(2) 0.45572(16)
H7 H 0.1694 0.0244 0.3809
H8 H 0.1278 -0.0551 0.4683
C7 C 0.07051(15) 0.4530(2) 0.38614(13)
H9 H 0.0119 0.4443 0.4165
C8 C 0.1390(2) 0.5863(3) 0.26035(14)
H10 H 0.1277 0.6666 0.207
C9 C 0.25740(16) 0.3580(2) 0.37171(14)
H11 H 0.3263 0.286 0.393
C10 C 0.05503(17) 0.5744(3) 0.30793(14)
H12 H -0.0128 0.6484 0.2875
C11 C 0.2406(2) 0.4777(3) 0.29245(17)
H13 H 0.298 0.4851 0.2606

#END
