./ABACIQ_from_xyz.cif_generated_by_CrystalShift
_symmetry_cell_setting triclinic
_symmetry_space_group_name_H-M 'P 1'
loop_
_symmetry_equiv_pos_site_id
_symmetry_equiv_pos_as_xyz
1 x,y,z
_cell_length_a 5.410500
_cell_length_b 9.337200
_cell_length_c 10.793100
_cell_angle_alpha 76.442000
_cell_angle_beta 87.201000
_cell_angle_gamma 82.199000
_cell_volume 525.073807
loop_
_atom_site_label
_atom_site_type_symbol
_atom_site_fract_x
_atom_site_fract_y
_atom_site_fract_z
O1 O 0.045100 0.625230 0.095810
O2 O 0.748200 0.458200 0.346240
N3 N 0.273400 0.402790 0.085710
H4 H 0.174300 0.392000 0.029600
C5 C 0.467600 0.293680 0.122990
C6 C 0.514900 0.155600 0.074530
H7 H 0.522300 0.178200 -0.017900
H8 H 0.386700 0.091700 0.104300
C9 C 0.769100 0.083100 0.131000
H10 H 0.898300 0.094200 0.065200
H11 H 0.765200 -0.022000 0.166900
C12 C 0.822500 0.161600 0.235690
H13 H 0.796200 0.100100 0.319900
H14 H 0.992100 0.185800 0.228400
C15 C 0.637500 0.299180 0.210260
C16 C 0.600500 0.426500 0.258850
C17 C 0.404000 0.538190 0.223740
C18 C 0.226400 0.529730 0.132730
C19 C 0.427900 0.648220 0.294150
C20 C 0.293000 0.782700 0.304840
H21 H 0.150300 0.821400 0.257300
C22 C 0.376100 0.857200 0.387700
H23 H 0.287600 0.947000 0.396500
C24 C 0.590900 0.800000 0.458600
H25 H 0.642700 0.853000 0.513400
C26 C 0.728200 0.667400 0.449590
H27 H 0.871400 0.629300 0.496700
C28 C 0.641600 0.594230 0.366960
O29 O 0.954900 0.374770 0.904190
O30 O 0.251800 0.541800 0.653760
N31 N 0.726600 0.597210 0.914290
H32 H 0.825700 0.608000 0.970400
C33 C 0.532400 0.706320 0.877010
C34 C 0.485100 0.844400 0.925470
H35 H 0.477700 0.821800 1.017900
H36 H 0.613300 0.908300 0.895700
C37 C 0.230900 0.916900 0.869000
H38 H 0.101700 0.905800 0.934800
H39 H 0.234800 1.022000 0.833100
C40 C 0.177500 0.838400 0.764310
H41 H 0.203800 0.899900 0.680100
H42 H 0.007900 0.814200 0.771600
C43 C 0.362500 0.700820 0.789740
C44 C 0.399500 0.573500 0.741150
C45 C 0.596000 0.461810 0.776260
C46 C 0.773600 0.470270 0.867270
C47 C 0.572100 0.351780 0.705850
C48 C 0.707000 0.217300 0.695160
H49 H 0.849700 0.178600 0.742700
C50 C 0.623900 0.142800 0.612300
H51 H 0.712400 0.053000 0.603500
C52 C 0.409100 0.200000 0.541400
H53 H 0.357300 0.147000 0.486600
C54 C 0.271800 0.332600 0.550410
H55 H 0.128600 0.370700 0.503300
C56 C 0.358400 0.405770 0.633040

#END
