
#######################################################################
#
#                 Cambridge Crystallographic Data Centre
#                                CCDC 
#
#######################################################################
#
# If this CIF has been generated from an entry in the Cambridge 
# Structural Database, then it will include bibliographic, chemical, 
# crystal, experimental, refinement or atomic coordinate data resulting 
# from the CCDC's data processing and validation procedures.
#
#######################################################################

data_ABADEO
_symmetry_cell_setting           monoclinic
_symmetry_space_group_name_H-M   'P 21'
_symmetry_Int_Tables_number      4
_space_group_name_Hall           'P 2yb'
loop_
_symmetry_equiv_pos_site_id
_symmetry_equiv_pos_as_xyz
1 x,y,z
2 -x,1/2+y,-z
_cell_length_a                   12.6048(2)
_cell_length_b                   7.3389(2)
_cell_length_c                   14.3877(3)
_cell_angle_alpha                90
_cell_angle_beta                 107.6220(10)
_cell_angle_gamma                90
_cell_volume                     1268.48
loop_
_atom_site_label
_atom_site_type_symbol
_atom_site_fract_x
_atom_site_fract_y
_atom_site_fract_z
O1 O 0.22361(12) -0.1543(2) 0.36994(11)
O2 O 0.08533(11) 0.2814(2) 0.22952(10)
N1 N 0.43019(13) -0.2449(2) 0.30112(11)
N2 N 0.24983(12) 0.3960(2) 0.11404(11)
N3 N 0.26332(13) -0.4405(2) 0.44041(11)
N4 N 0.34923(13) -0.5696(2) 0.45284(12)
N5 N 0.01135(12) 0.5670(2) 0.17718(11)
N6 N 0.02704(13) 0.7000(2) 0.11152(11)
C1 C 0.38269(15) -0.1028(3) 0.25442(13)
H1 H 0.3122 -0.0659 0.2590
C2 C 0.28998(15) 0.2528(3) 0.16189(13)
H2 H 0.2550 0.2004 0.2054
C3 C 0.43573(14) 0.0033(3) 0.19412(12)
C4 C 0.39117(14) 0.1687(3) 0.14939(12)
C5 C 0.44707(14) 0.2614(3) 0.09350(13)
H3 H 0.4179 0.3738 0.0638
C6 C 0.54326(16) 0.1942(3) 0.08029(14)
H4 H 0.5793 0.2586 0.0411
C7 C 0.58734(15) 0.0316(3) 0.12471(14)
H5 H 0.6542 -0.0152 0.1165
C8 C 0.53411(15) -0.0616(3) 0.18057(13)
H6 H 0.5650 -0.1728 0.2106
C9 C 0.19608(15) -0.4426(3) 0.50392(12)
C10 C 0.23326(16) -0.5253(3) 0.59461(13)
H7 H 0.3059 -0.5760 0.6168
C11 C 0.16325(18) -0.5334(3) 0.65265(14)
H8 H 0.1877 -0.5922 0.7143
C12 C 0.05832(18) -0.4567(3) 0.62151(15)
H9 H 0.0104 -0.4637 0.6612
C13 C 0.02366(17) -0.3697(3) 0.53213(14)
H10 H -0.0478 -0.3143 0.5112
C14 C 0.09157(15) -0.3625(3) 0.47301(14)
H11 H 0.0670 -0.3030 0.4115
C15 C -0.09471(14) 0.5517(3) 0.19288(12)
C16 C -0.19051(15) 0.6147(3) 0.12384(13)
H12 H -0.1866 0.6711 0.0655
C17 C -0.29113(15) 0.5939(3) 0.14162(15)
H13 H -0.3572 0.6365 0.0950
C18 C -0.29758(16) 0.5124(3) 0.22569(16)
H14 H -0.3677 0.4997 0.2369
C19 C -0.20286(16) 0.4491(3) 0.29363(15)
H15 H -0.2074 0.3923 0.3516
C20 C -0.10063(15) 0.4686(3) 0.27696(13)
H16 H -0.0349 0.4248 0.3235
C21 C 0.27970(16) -0.2948(3) 0.38473(13)
C22 C 0.37715(15) -0.3447(3) 0.35641(13)
C23 C 0.41402(15) -0.5094(3) 0.39719(13)
C24 C 0.51017(17) -0.6187(3) 0.38933(15)
H17 H 0.4831 -0.7214 0.3449
H18 H 0.5521 -0.6650 0.4539
H19 H 0.5587 -0.5419 0.3640
C25 C 0.31200(19) -0.7619(3) 0.44471(16)
H20 H 0.2540 -0.7801 0.3823
H21 H 0.2821 -0.7909 0.4984
H22 H 0.3753 -0.8419 0.4480
C26 C 0.08748(14) 0.4251(3) 0.18620(13)
C27 C 0.15879(14) 0.4847(3) 0.12943(12)
C28 C 0.12091(14) 0.6489(3) 0.08866(13)
C29 C 0.16732(17) 0.7650(3) 0.02611(16)
H23 H 0.1097 0.7886 -0.0358
H24 H 0.2302 0.7024 0.0135
H25 H 0.1927 0.8808 0.0593
C30 C 0.01693(18) 0.8901(3) 0.14159(16)
H26 H 0.0748 0.9148 0.2033
H27 H -0.0566 0.9082 0.1502
H28 H 0.0259 0.9734 0.0913
O1 O 0.77639(12) 0.3457(2) 0.63006(11)
O2 O 0.91467(11) 0.7814(2) 0.77048(10)
N1 N 0.56981(13) 0.2551(2) 0.69888(11)
N2 N 0.75017(12) 0.8960(2) 0.88596(11)
N3 N 0.73668(13) 0.0595(2) 0.55959(11)
N4 N 0.65077(13) -0.0696(2) 0.54716(12)
N5 N 0.98865(12) 1.0670(2) 0.82282(11)
N6 N 0.97296(13) 1.2000(2) 0.88848(11)
C1 C 0.61731(15) 0.3972(3) 0.74558(13)
H1 H 0.6878 0.4341 0.7410
C2 C 0.71002(15) 0.7528(3) 0.83811(13)
H2 H 0.7450 0.7004 0.7946
C3 C 0.56427(14) 0.5033(3) 0.80588(12)
C4 C 0.60883(14) 0.6687(3) 0.85061(12)
C5 C 0.55293(14) 0.7614(3) 0.90650(13)
H3 H 0.5821 0.8738 0.9362
C6 C 0.45674(16) 0.6942(3) 0.91971(14)
H4 H 0.4207 0.7586 0.9589
C7 C 0.41266(15) 0.5316(3) 0.87529(14)
H5 H 0.3458 0.4848 0.8835
C8 C 0.46589(15) 0.4384(3) 0.81943(13)
H6 H 0.4350 0.3272 0.7894
C9 C 0.80392(15) 0.0574(3) 0.49608(12)
C10 C 0.76674(16) -0.0253(3) 0.40539(13)
H7 H 0.6941 -0.0760 0.3832
C11 C 0.83675(18) -0.0334(3) 0.34735(14)
H8 H 0.8123 -0.0922 0.2857
C12 C 0.94168(18) 0.0433(3) 0.37849(15)
H9 H 0.9896 0.0363 0.3388
C13 C 0.97634(17) 0.1303(3) 0.46787(14)
H10 H 1.0478 0.1857 0.4888
C14 C 0.90843(15) 0.1375(3) 0.52699(14)
H11 H 0.9330 0.1970 0.5885
C15 C 1.09471(14) 1.0517(3) 0.80712(12)
C16 C 1.19051(15) 1.1147(3) 0.87616(13)
H12 H 1.1866 1.1711 0.9345
C17 C 1.29113(15) 1.0939(3) 0.85838(15)
H13 H 1.3572 1.1365 0.9050
C18 C 1.29758(16) 1.0124(3) 0.77431(16)
H14 H 1.3677 0.9997 0.7631
C19 C 1.20286(16) 0.9491(3) 0.70637(15)
H15 H 1.2074 0.8923 0.6484
C20 C 1.10063(15) 0.9686(3) 0.72304(13)
H16 H 1.0349 0.9248 0.6765
C21 C 0.72030(16) 0.2052(3) 0.61527(13)
C22 C 0.62285(15) 0.1553(3) 0.64359(13)
C23 C 0.58598(15) -0.0094(3) 0.60281(13)
C24 C 0.48983(17) -0.1187(3) 0.61067(15)
H17 H 0.5169 -0.2214 0.6551
H18 H 0.4479 -0.1650 0.5461
H19 H 0.4413 -0.0419 0.6360
C25 C 0.68800(19) -0.2619(3) 0.55529(16)
H20 H 0.7460 -0.2801 0.6177
H21 H 0.7179 -0.2909 0.5016
H22 H 0.6247 -0.3419 0.5520
C26 C 0.91252(14) 0.9251(3) 0.81380(13)
C27 C 0.84121(14) 0.9847(3) 0.87057(12)
C28 C 0.87909(14) 1.1489(3) 0.91134(13)
C29 C 0.83268(17) 1.2650(3) 0.97389(16)
H23 H 0.8903 1.2886 1.0358
H24 H 0.7698 1.2024 0.9865
H25 H 0.8073 1.3808 0.9407
C30 C 0.98307(18) 1.3901(3) 0.85841(16)
H26 H 0.9252 1.4148 0.7967
H27 H 1.0566 1.4082 0.8498
H28 H 0.9741 1.4734 0.9087

#END
