
#######################################################################
#
#                 Cambridge Crystallographic Data Centre
#                                CCDC 
#
#######################################################################
#
# If this CIF has been generated from an entry in the Cambridge 
# Structural Database, then it will include bibliographic, chemical, 
# crystal, experimental, refinement or atomic coordinate data resulting 
# from the CCDC's data processing and validation procedures.
#
#######################################################################

data_ABADIS02
_symmetry_cell_setting           monoclinic
_symmetry_space_group_name_H-M   'P 21/c'
_symmetry_Int_Tables_number      14
_space_group_name_Hall           '-P 2ybc'
loop_
_symmetry_equiv_pos_site_id
_symmetry_equiv_pos_as_xyz
1 x,y,z
2 -x,1/2+y,1/2-z
3 -x,-y,-z
4 x,1/2-y,1/2+z
_cell_length_a                   16.704(3)
_cell_length_b                   19.860(3)
_cell_length_c                   15.343(3)
_cell_angle_alpha                90
_cell_angle_beta                 102.007(3)
_cell_angle_gamma                90
_cell_volume                     4978.55
loop_
_atom_site_label
_atom_site_type_symbol
_atom_site_fract_x
_atom_site_fract_y
_atom_site_fract_z
C1 C 0.9568(2) 0.46606(18) 0.3895(2)
C2 C 0.9324(2) 0.40495(19) 0.4173(2)
H1 H 0.8848 0.4019 0.4396
C3 C 1.0746(2) 0.41250(18) 0.3554(2)
H2 H 1.1235 0.4158 0.3358
C4 C 1.0285(2) 0.46969(17) 0.3603(2)
H3 H 1.0466 0.5111 0.3436
C6 C 0.9042(2) 0.52842(17) 0.3903(2)
H4 H 0.8563 0.5167 0.4137
H5 H 0.9350 0.5620 0.4294
C7 C 0.9020(2) 0.61560(18) 0.2701(3)
H6 H 0.9355 0.6462 0.3064
C8 C 0.8267(2) 0.56961(17) 0.1573(3)
C9 C 0.8284(2) 0.52585(18) 0.2284(2)
C10 C 0.7865(2) 0.46591(18) 0.2207(3)
H7 H 0.7880 0.4375 0.2692
C11 C 0.7424(2) 0.4502(2) 0.1374(3)
H8 H 0.7135 0.4099 0.1291
C12 C 0.7397(2) 0.4925(2) 0.0656(3)
H9 H 0.7088 0.4800 0.0104
C13 C 0.7811(2) 0.5524(2) 0.0729(3)
H10 H 0.7790 0.5805 0.0240
C33 C 1.0489(2) 0.35122(19) 0.3791(2)
C43 C 1.0971(3) 0.2881(2) 0.3660(3)
C49 C 0.9794(2) 0.34748(18) 0.4120(2)
H35 H 0.9630 0.3063 0.4311
N1 N 0.87811(17) 0.55688(14) 0.30082(19)
O2 O 1.06387(15) 0.23355(12) 0.38492(16)
H45 H 1.0923 0.2014 0.3768
O3 O 1.16183(16) 0.29344(12) 0.34088(17)
N7 N 0.87382(18) 0.62591(14) 0.1846(2)
C1 C 0.0432(2) 0.96606(18) 0.1105(2)
C2 C 0.0676(2) 0.90495(19) 0.0827(2)
H1 H 0.1152 0.9019 0.0604
C3 C -0.0746(2) 0.91250(18) 0.1446(2)
H2 H -0.1235 0.9158 0.1642
C4 C -0.0285(2) 0.96969(17) 0.1397(2)
H3 H -0.0466 1.0111 0.1564
C6 C 0.0958(2) 1.02842(17) 0.1097(2)
H4 H 0.1437 1.0167 0.0863
H5 H 0.0650 1.0620 0.0706
C7 C 0.0980(2) 1.11560(18) 0.2299(3)
H6 H 0.0645 1.1462 0.1936
C8 C 0.1733(2) 1.06961(17) 0.3427(3)
C9 C 0.1716(2) 1.02585(18) 0.2716(2)
C10 C 0.2135(2) 0.96591(18) 0.2793(3)
H7 H 0.2120 0.9375 0.2308
C11 C 0.2576(2) 0.9502(2) 0.3626(3)
H8 H 0.2865 0.9099 0.3709
C12 C 0.2603(2) 0.9925(2) 0.4344(3)
H9 H 0.2912 0.9800 0.4896
C13 C 0.2189(2) 1.0524(2) 0.4271(3)
H10 H 0.2210 1.0805 0.4760
C33 C -0.0489(2) 0.85122(19) 0.1209(2)
C43 C -0.0971(3) 0.7881(2) 0.1340(3)
C49 C 0.0206(2) 0.84748(18) 0.0880(2)
H35 H 0.0370 0.8063 0.0689
N1 N 0.12189(17) 1.05688(14) 0.19918(19)
O2 O -0.06387(15) 0.73355(12) 0.11508(16)
H45 H -0.0923 0.7014 0.1232
O3 O -0.16183(16) 0.79344(12) 0.15912(17)
N7 N 0.12618(18) 1.12591(14) 0.3154(2)
C1 C 0.0432(2) 0.53394(18) 0.6105(2)
C2 C 0.0676(2) 0.59505(19) 0.5827(2)
H1 H 0.1152 0.5981 0.5604
C3 C -0.0746(2) 0.58750(18) 0.6446(2)
H2 H -0.1235 0.5842 0.6642
C4 C -0.0285(2) 0.53031(17) 0.6397(2)
H3 H -0.0466 0.4889 0.6564
C6 C 0.0958(2) 0.47158(17) 0.6097(2)
H4 H 0.1437 0.4833 0.5863
H5 H 0.0650 0.4380 0.5706
C7 C 0.0980(2) 0.38440(18) 0.7299(3)
H6 H 0.0645 0.3538 0.6936
C8 C 0.1733(2) 0.43039(17) 0.8427(3)
C9 C 0.1716(2) 0.47415(18) 0.7716(2)
C10 C 0.2135(2) 0.53409(18) 0.7793(3)
H7 H 0.2120 0.5625 0.7308
C11 C 0.2576(2) 0.5498(2) 0.8626(3)
H8 H 0.2865 0.5901 0.8709
C12 C 0.2603(2) 0.5075(2) 0.9344(3)
H9 H 0.2912 0.5200 0.9896
C13 C 0.2189(2) 0.4476(2) 0.9271(3)
H10 H 0.2210 0.4195 0.9760
C33 C -0.0489(2) 0.64878(19) 0.6209(2)
C43 C -0.0971(3) 0.7119(2) 0.6340(3)
C49 C 0.0206(2) 0.65252(18) 0.5880(2)
H35 H 0.0370 0.6937 0.5689
N1 N 0.12189(17) 0.44312(14) 0.69918(19)
O2 O -0.06387(15) 0.76645(12) 0.61508(16)
H45 H -0.0923 0.7986 0.6232
O3 O -0.16183(16) 0.70656(12) 0.65912(17)
N7 N 0.12618(18) 0.37409(14) 0.8154(2)
C1 C 0.9568(2) 0.03394(18) 0.8895(2)
C2 C 0.9324(2) 0.09505(19) 0.9173(2)
H1 H 0.8848 0.0981 0.9396
C3 C 1.0746(2) 0.08750(18) 0.8554(2)
H2 H 1.1235 0.0842 0.8358
C4 C 1.0285(2) 0.03031(17) 0.8603(2)
H3 H 1.0466 -0.0111 0.8436
C6 C 0.9042(2) -0.02842(17) 0.8903(2)
H4 H 0.8563 -0.0167 0.9137
H5 H 0.9350 -0.0620 0.9294
C7 C 0.9020(2) -0.11560(18) 0.7701(3)
H6 H 0.9355 -0.1462 0.8064
C8 C 0.8267(2) -0.06961(17) 0.6573(3)
C9 C 0.8284(2) -0.02585(18) 0.7284(2)
C10 C 0.7865(2) 0.03409(18) 0.7207(3)
H7 H 0.7880 0.0625 0.7692
C11 C 0.7424(2) 0.0498(2) 0.6374(3)
H8 H 0.7135 0.0901 0.6291
C12 C 0.7397(2) 0.0075(2) 0.5656(3)
H9 H 0.7088 0.0200 0.5104
C13 C 0.7811(2) -0.0524(2) 0.5729(3)
H10 H 0.7790 -0.0805 0.5240
C33 C 1.0489(2) 0.14878(19) 0.8791(2)
C43 C 1.0971(3) 0.2119(2) 0.8660(3)
C49 C 0.9794(2) 0.15252(18) 0.9120(2)
H35 H 0.9630 0.1937 0.9311
N1 N 0.87811(17) -0.05688(14) 0.80082(19)
O2 O 1.06387(15) 0.26645(12) 0.88492(16)
H45 H 1.0923 0.2986 0.8768
O3 O 1.16183(16) 0.20656(12) 0.84088(17)
N7 N 0.87382(18) -0.12591(14) 0.6846(2)
C5 C -0.0552(3) 0.3116(2) 0.1259(3)
C46 C 0.1005(2) 0.48270(18) 0.1286(2)
C47 C 0.1340(2) 0.41913(19) 0.1403(2)
H33 H 0.1905 0.4136 0.1494
C48 C 0.0838(2) 0.36324(18) 0.1385(2)
H34 H 0.1070 0.3206 0.1479
C50 C 0.0000(2) 0.37022(18) 0.1230(2)
C51 C -0.0337(2) 0.43360(19) 0.1095(2)
H36 H -0.0902 0.4389 0.0981
C52 C 0.0163(2) 0.48918(18) 0.1128(2)
H37 H -0.0070 0.5318 0.1043
C53 C 0.1540(2) 0.54473(17) 0.1337(2)
H38 H 0.2098 0.5311 0.1341
H39 H 0.1351 0.5723 0.0812
C54 C 0.0979(2) 0.6337(2) 0.2206(3)
H40 H 0.0572 0.6477 0.1731
C55 C 0.1745(3) 0.62597(19) 0.3504(3)
C56 C 0.2031(2) 0.57861(18) 0.2963(3)
C57 C 0.2709(2) 0.53916(17) 0.3279(3)
H41 H 0.2899 0.5078 0.2920
C58 C 0.3091(3) 0.5489(2) 0.4159(3)
H42 H 0.3547 0.5230 0.4401
C59 C 0.2811(3) 0.5962(2) 0.4693(3)
H43 H 0.3086 0.6014 0.5282
C60 C 0.2142(3) 0.6352(2) 0.4375(3)
H44 H 0.1960 0.6670 0.4735
N5 N 0.1079(2) 0.65961(15) 0.3005(3)
N6 N 0.15250(19) 0.58474(14) 0.2135(2)
O7 O -0.01721(15) 0.25792(12) 0.15838(18)
H48 H -0.0503 0.2274 0.1581
O8 O -0.12811(17) 0.31467(12) 0.0998(2)
C5 C 1.0552(3) 0.8116(2) 0.3741(3)
C46 C 0.8995(2) 0.98270(18) 0.3714(2)
C47 C 0.8660(2) 0.91913(19) 0.3597(2)
H33 H 0.8095 0.9136 0.3506
C48 C 0.9162(2) 0.86324(18) 0.3615(2)
H34 H 0.8930 0.8206 0.3521
C50 C 1.0000(2) 0.87022(18) 0.3770(2)
C51 C 1.0337(2) 0.93360(19) 0.3905(2)
H36 H 1.0902 0.9389 0.4019
C52 C 0.9837(2) 0.98918(18) 0.3872(2)
H37 H 1.0070 1.0318 0.3957
C53 C 0.8460(2) 1.04473(17) 0.3663(2)
H38 H 0.7902 1.0311 0.3659
H39 H 0.8649 1.0723 0.4188
C54 C 0.9021(2) 1.1337(2) 0.2794(3)
H40 H 0.9428 1.1477 0.3269
C55 C 0.8255(3) 1.12597(19) 0.1496(3)
C56 C 0.7969(2) 1.07861(18) 0.2037(3)
C57 C 0.7291(2) 1.03916(17) 0.1721(3)
H41 H 0.7101 1.0078 0.2080
C58 C 0.6909(3) 1.0489(2) 0.0841(3)
H42 H 0.6453 1.0230 0.0599
C59 C 0.7189(3) 1.0962(2) 0.0307(3)
H43 H 0.6914 1.1014 -0.0282
C60 C 0.7858(3) 1.1352(2) 0.0625(3)
H44 H 0.8040 1.1670 0.0265
N5 N 0.8921(2) 1.15961(15) 0.1995(3)
N6 N 0.84750(19) 1.08474(14) 0.2865(2)
O7 O 1.01721(15) 0.75792(12) 0.34162(18)
H48 H 1.0503 0.7274 0.3419
O8 O 1.12811(17) 0.81467(12) 0.4002(2)
C5 C 1.0552(3) 0.6884(2) 0.8741(3)
C46 C 0.8995(2) 0.51730(18) 0.8714(2)
C47 C 0.8660(2) 0.58087(19) 0.8597(2)
H33 H 0.8095 0.5864 0.8506
C48 C 0.9162(2) 0.63676(18) 0.8615(2)
H34 H 0.8930 0.6794 0.8521
C50 C 1.0000(2) 0.62978(18) 0.8770(2)
C51 C 1.0337(2) 0.56640(19) 0.8905(2)
H36 H 1.0902 0.5611 0.9019
C52 C 0.9837(2) 0.51082(18) 0.8872(2)
H37 H 1.0070 0.4682 0.8957
C53 C 0.8460(2) 0.45527(17) 0.8663(2)
H38 H 0.7902 0.4689 0.8659
H39 H 0.8649 0.4277 0.9188
C54 C 0.9021(2) 0.3663(2) 0.7794(3)
H40 H 0.9428 0.3523 0.8269
C55 C 0.8255(3) 0.37403(19) 0.6496(3)
C56 C 0.7969(2) 0.42139(18) 0.7037(3)
C57 C 0.7291(2) 0.46084(17) 0.6721(3)
H41 H 0.7101 0.4922 0.7080
C58 C 0.6909(3) 0.4511(2) 0.5841(3)
H42 H 0.6453 0.4770 0.5599
C59 C 0.7189(3) 0.4038(2) 0.5307(3)
H43 H 0.6914 0.3986 0.4718
C60 C 0.7858(3) 0.3648(2) 0.5625(3)
H44 H 0.8040 0.3330 0.5265
N5 N 0.8921(2) 0.34039(15) 0.6995(3)
N6 N 0.84750(19) 0.41526(14) 0.7865(2)
O7 O 1.01721(15) 0.74208(12) 0.84162(18)
H48 H 1.0503 0.7726 0.8419
O8 O 1.12811(17) 0.68533(12) 0.9002(2)
C5 C -0.0552(3) 0.1884(2) 0.6259(3)
C46 C 0.1005(2) 0.01730(18) 0.6286(2)
C47 C 0.1340(2) 0.08087(19) 0.6403(2)
H33 H 0.1905 0.0864 0.6494
C48 C 0.0838(2) 0.13676(18) 0.6385(2)
H34 H 0.1070 0.1794 0.6479
C50 C 0.0000(2) 0.12978(18) 0.6230(2)
C51 C -0.0337(2) 0.06640(19) 0.6095(2)
H36 H -0.0902 0.0611 0.5981
C52 C 0.0163(2) 0.01082(18) 0.6128(2)
H37 H -0.0070 -0.0318 0.6043
C53 C 0.1540(2) -0.04473(17) 0.6337(2)
H38 H 0.2098 -0.0311 0.6341
H39 H 0.1351 -0.0723 0.5812
C54 C 0.0979(2) -0.1337(2) 0.7206(3)
H40 H 0.0572 -0.1477 0.6731
C55 C 0.1745(3) -0.12597(19) 0.8504(3)
C56 C 0.2031(2) -0.07861(18) 0.7963(3)
C57 C 0.2709(2) -0.03916(17) 0.8279(3)
H41 H 0.2899 -0.0078 0.7920
C58 C 0.3091(3) -0.0489(2) 0.9159(3)
H42 H 0.3547 -0.0230 0.9401
C59 C 0.2811(3) -0.0962(2) 0.9693(3)
H43 H 0.3086 -0.1014 1.0282
C60 C 0.2142(3) -0.1352(2) 0.9375(3)
H44 H 0.1960 -0.1670 0.9735
N5 N 0.1079(2) -0.15961(15) 0.8005(3)
N6 N 0.15250(19) -0.08474(14) 0.7135(2)
O7 O -0.01721(15) 0.24208(12) 0.65838(18)
H48 H -0.0503 0.2726 0.6581
O8 O -0.12811(17) 0.18533(12) 0.5998(2)
O1 O 0.51053(18) 0.49299(14) 0.3762(2)
C14 C 0.4889(2) 0.37571(19) 0.3588(2)
C28 C 0.5307(3) 0.4410(2) 0.3419(3)
C31 C 0.4000(2) 0.25955(19) 0.3761(2)
C32 C 0.4767(2) 0.25568(18) 0.3581(2)
H22 H 0.4997 0.2136 0.3528
C34 C 0.5214(2) 0.31367(18) 0.3476(2)
H23 H 0.5726 0.3102 0.3331
C35 C 0.3681(2) 0.32189(19) 0.3862(3)
H24 H 0.3162 0.3259 0.3986
C36 C 0.4133(2) 0.3784(2) 0.3777(3)
H25 H 0.3910 0.4203 0.3853
C37 C 0.3496(2) 0.19836(16) 0.3877(2)
H26 H 0.3733 0.1764 0.4435
H27 H 0.2946 0.2124 0.3904
C38 C 0.3843(2) 0.09039(18) 0.3172(3)
H28 H 0.4159 0.0726 0.3692
C39 C 0.3235(2) 0.10285(19) 0.1824(3)
C40 C 0.3053(2) 0.16015(17) 0.2266(2)
C41 C 0.2551(2) 0.21126(17) 0.1862(3)
H29 H 0.2429 0.2486 0.2175
C42 C 0.2244(2) 0.2034(2) 0.0968(3)
H30 H 0.1906 0.2366 0.0661
C44 C 0.2424(2) 0.1469(2) 0.0504(3)
H31 H 0.2201 0.1435 -0.0102
C45 C 0.2920(2) 0.09597(19) 0.0917(3)
H32 H 0.3040 0.0586 0.0602
N3 N 0.37330(18) 0.05956(14) 0.2408(2)
N4 N 0.34581(17) 0.15062(14) 0.31470(19)
O6 O 0.58857(17) 0.43358(13) 0.30521(17)
H47 H 0.6093 0.4703 0.2995
O1 O 0.48947(18) 0.99299(14) 0.1238(2)
C14 C 0.5111(2) 0.87571(19) 0.1412(2)
C28 C 0.4693(3) 0.9410(2) 0.1581(3)
C31 C 0.6000(2) 0.75955(19) 0.1239(2)
C32 C 0.5233(2) 0.75568(18) 0.1419(2)
H22 H 0.5003 0.7136 0.1472
C34 C 0.4786(2) 0.81367(18) 0.1524(2)
H23 H 0.4274 0.8102 0.1669
C35 C 0.6319(2) 0.82189(19) 0.1138(3)
H24 H 0.6838 0.8259 0.1014
C36 C 0.5867(2) 0.8784(2) 0.1223(3)
H25 H 0.6090 0.9203 0.1147
C37 C 0.6504(2) 0.69836(16) 0.1123(2)
H26 H 0.6267 0.6764 0.0565
H27 H 0.7054 0.7124 0.1096
C38 C 0.6157(2) 0.59039(18) 0.1828(3)
H28 H 0.5841 0.5726 0.1308
C39 C 0.6765(2) 0.60285(19) 0.3176(3)
C40 C 0.6947(2) 0.66015(17) 0.2734(2)
C41 C 0.7449(2) 0.71126(17) 0.3138(3)
H29 H 0.7571 0.7486 0.2825
C42 C 0.7756(2) 0.7034(2) 0.4032(3)
H30 H 0.8094 0.7366 0.4339
C44 C 0.7576(2) 0.6469(2) 0.4496(3)
H31 H 0.7799 0.6435 0.5102
C45 C 0.7080(2) 0.59597(19) 0.4083(3)
H32 H 0.6960 0.5586 0.4398
N3 N 0.62670(18) 0.55956(14) 0.2592(2)
N4 N 0.65419(17) 0.65062(14) 0.18530(19)
O6 O 0.41143(17) 0.93358(13) 0.19479(17)
H47 H 0.3907 0.9703 0.2005
O1 O 0.48947(18) 0.50701(14) 0.6238(2)
C14 C 0.5111(2) 0.62429(19) 0.6412(2)
C28 C 0.4693(3) 0.5590(2) 0.6581(3)
C31 C 0.6000(2) 0.74045(19) 0.6239(2)
C32 C 0.5233(2) 0.74432(18) 0.6419(2)
H22 H 0.5003 0.7864 0.6472
C34 C 0.4786(2) 0.68633(18) 0.6524(2)
H23 H 0.4274 0.6898 0.6669
C35 C 0.6319(2) 0.67811(19) 0.6138(3)
H24 H 0.6838 0.6741 0.6014
C36 C 0.5867(2) 0.6216(2) 0.6223(3)
H25 H 0.6090 0.5797 0.6147
C37 C 0.6504(2) 0.80164(16) 0.6123(2)
H26 H 0.6267 0.8236 0.5565
H27 H 0.7054 0.7876 0.6096
C38 C 0.6157(2) 0.90961(18) 0.6828(3)
H28 H 0.5841 0.9274 0.6308
C39 C 0.6765(2) 0.89715(19) 0.8176(3)
C40 C 0.6947(2) 0.83985(17) 0.7734(2)
C41 C 0.7449(2) 0.78874(17) 0.8138(3)
H29 H 0.7571 0.7514 0.7825
C42 C 0.7756(2) 0.7966(2) 0.9032(3)
H30 H 0.8094 0.7634 0.9339
C44 C 0.7576(2) 0.8531(2) 0.9496(3)
H31 H 0.7799 0.8565 1.0102
C45 C 0.7080(2) 0.90403(19) 0.9083(3)
H32 H 0.6960 0.9414 0.9398
N3 N 0.62670(18) 0.94044(14) 0.7592(2)
N4 N 0.65419(17) 0.84938(14) 0.68530(19)
O6 O 0.41143(17) 0.56642(13) 0.69479(17)
H47 H 0.3907 0.5297 0.7005
O1 O 0.51053(18) 0.00701(14) 0.8762(2)
C14 C 0.4889(2) 0.12429(19) 0.8588(2)
C28 C 0.5307(3) 0.0590(2) 0.8419(3)
C31 C 0.4000(2) 0.24045(19) 0.8761(2)
C32 C 0.4767(2) 0.24432(18) 0.8581(2)
H22 H 0.4997 0.2864 0.8528
C34 C 0.5214(2) 0.18633(18) 0.8476(2)
H23 H 0.5726 0.1898 0.8331
C35 C 0.3681(2) 0.17811(19) 0.8862(3)
H24 H 0.3162 0.1741 0.8986
C36 C 0.4133(2) 0.1216(2) 0.8777(3)
H25 H 0.3910 0.0797 0.8853
C37 C 0.3496(2) 0.30164(16) 0.8877(2)
H26 H 0.3733 0.3236 0.9435
H27 H 0.2946 0.2876 0.8904
C38 C 0.3843(2) 0.40961(18) 0.8172(3)
H28 H 0.4159 0.4274 0.8692
C39 C 0.3235(2) 0.39715(19) 0.6824(3)
C40 C 0.3053(2) 0.33985(17) 0.7266(2)
C41 C 0.2551(2) 0.28874(17) 0.6862(3)
H29 H 0.2429 0.2514 0.7175
C42 C 0.2244(2) 0.2966(2) 0.5968(3)
H30 H 0.1906 0.2634 0.5661
C44 C 0.2424(2) 0.3531(2) 0.5504(3)
H31 H 0.2201 0.3565 0.4898
C45 C 0.2920(2) 0.40403(19) 0.5917(3)
H32 H 0.3040 0.4414 0.5602
N3 N 0.37330(18) 0.44044(14) 0.7408(2)
N4 N 0.34581(17) 0.34938(14) 0.81470(19)
O6 O 0.58857(17) 0.06642(13) 0.80521(17)
H47 H 0.6093 0.0297 0.7995
C15 C 0.5169(2) 0.27039(18) 0.0915(2)
C16 C 0.4449(2) 0.27237(17) 0.1208(2)
H11 H 0.4212 0.2323 0.1343
C17 C 0.4066(2) 0.33315(18) 0.1309(2)
H12 H 0.3576 0.3336 0.1507
C18 C 0.4415(2) 0.39316(17) 0.1113(2)
C19 C 0.5120(2) 0.39092(17) 0.0790(2)
H13 H 0.5350 0.4308 0.0641
C20 C 0.5495(2) 0.33045(18) 0.0683(2)
H14 H 0.5968 0.3299 0.0453
C21 C 0.5616(2) 0.20400(16) 0.0874(2)
H15 H 0.5246 0.1716 0.0530
H16 H 0.6070 0.2109 0.0579
C22 C 0.5606(2) 0.12699(17) 0.2176(3)
H17 H 0.5162 0.1014 0.1890
C23 C 0.6593(2) 0.16490(17) 0.3164(3)
C24 C 0.6573(2) 0.20312(17) 0.2401(2)
C25 C 0.7133(2) 0.25315(18) 0.2350(3)
H18 H 0.7117 0.2779 0.1832
C26 C 0.7718(3) 0.2642(2) 0.3114(3)
H19 H 0.8107 0.2976 0.3111
C27 C 0.7745(3) 0.2275(2) 0.3880(3)
H20 H 0.8152 0.2366 0.4380
C29 C 0.7184(3) 0.1775(2) 0.3922(3)
H21 H 0.7202 0.1530 0.4443
C30 C 0.4015(2) 0.45681(18) 0.1305(2)
N2 N 0.59238(18) 0.17763(14) 0.17721(19)
O4 O 0.44324(13) 0.51106(11) 0.11685(14)
H46 H 0.4191 0.5448 0.1283
O5 O 0.33852(16) 0.45866(11) 0.15714(17)
N8 N 0.5975(2) 0.11677(14) 0.3007(2)
C15 C 0.4831(2) 0.77039(18) 0.4085(2)
C16 C 0.5551(2) 0.77237(17) 0.3792(2)
H11 H 0.5788 0.7323 0.3657
C17 C 0.5934(2) 0.83315(18) 0.3691(2)
H12 H 0.6424 0.8336 0.3493
C18 C 0.5585(2) 0.89316(17) 0.3887(2)
C19 C 0.4880(2) 0.89092(17) 0.4210(2)
H13 H 0.4650 0.9308 0.4359
C20 C 0.4505(2) 0.83045(18) 0.4317(2)
H14 H 0.4032 0.8299 0.4547
C21 C 0.4384(2) 0.70400(16) 0.4126(2)
H15 H 0.4754 0.6716 0.4470
H16 H 0.3930 0.7109 0.4421
C22 C 0.4394(2) 0.62699(17) 0.2824(3)
H17 H 0.4838 0.6014 0.3110
C23 C 0.3407(2) 0.66490(17) 0.1836(3)
C24 C 0.3427(2) 0.70312(17) 0.2599(2)
C25 C 0.2867(2) 0.75315(18) 0.2650(3)
H18 H 0.2883 0.7779 0.3168
C26 C 0.2282(3) 0.7642(2) 0.1886(3)
H19 H 0.1893 0.7976 0.1889
C27 C 0.2255(3) 0.7275(2) 0.1120(3)
H20 H 0.1848 0.7366 0.0620
C29 C 0.2816(3) 0.6775(2) 0.1078(3)
H21 H 0.2798 0.6530 0.0557
C30 C 0.5985(2) 0.95681(18) 0.3695(2)
N2 N 0.40762(18) 0.67763(14) 0.32279(19)
O4 O 0.55676(13) 1.01106(11) 0.38315(14)
H46 H 0.5809 1.0448 0.3717
O5 O 0.66148(16) 0.95866(11) 0.34286(17)
N8 N 0.4025(2) 0.61677(14) 0.1993(2)
C15 C 0.4831(2) 0.72961(18) 0.9085(2)
C16 C 0.5551(2) 0.72763(17) 0.8792(2)
H11 H 0.5788 0.7677 0.8657
C17 C 0.5934(2) 0.66685(18) 0.8691(2)
H12 H 0.6424 0.6664 0.8493
C18 C 0.5585(2) 0.60684(17) 0.8887(2)
C19 C 0.4880(2) 0.60908(17) 0.9210(2)
H13 H 0.4650 0.5692 0.9359
C20 C 0.4505(2) 0.66955(18) 0.9317(2)
H14 H 0.4032 0.6701 0.9547
C21 C 0.4384(2) 0.79600(16) 0.9126(2)
H15 H 0.4754 0.8284 0.9470
H16 H 0.3930 0.7891 0.9421
C22 C 0.4394(2) 0.87301(17) 0.7824(3)
H17 H 0.4838 0.8986 0.8110
C23 C 0.3407(2) 0.83510(17) 0.6836(3)
C24 C 0.3427(2) 0.79688(17) 0.7599(2)
C25 C 0.2867(2) 0.74685(18) 0.7650(3)
H18 H 0.2883 0.7221 0.8168
C26 C 0.2282(3) 0.7358(2) 0.6886(3)
H19 H 0.1893 0.7024 0.6889
C27 C 0.2255(3) 0.7725(2) 0.6120(3)
H20 H 0.1848 0.7634 0.5620
C29 C 0.2816(3) 0.8225(2) 0.6078(3)
H21 H 0.2798 0.8470 0.5557
C30 C 0.5985(2) 0.54319(18) 0.8695(2)
N2 N 0.40762(18) 0.82237(14) 0.82279(19)
O4 O 0.55676(13) 0.48894(11) 0.88315(14)
H46 H 0.5809 0.4552 0.8717
O5 O 0.66148(16) 0.54134(11) 0.84286(17)
N8 N 0.4025(2) 0.88323(14) 0.6993(2)
C15 C 0.5169(2) 0.22961(18) 0.5915(2)
C16 C 0.4449(2) 0.22763(17) 0.6208(2)
H11 H 0.4212 0.2677 0.6343
C17 C 0.4066(2) 0.16685(18) 0.6309(2)
H12 H 0.3576 0.1664 0.6507
C18 C 0.4415(2) 0.10684(17) 0.6113(2)
C19 C 0.5120(2) 0.10908(17) 0.5790(2)
H13 H 0.5350 0.0692 0.5641
C20 C 0.5495(2) 0.16955(18) 0.5683(2)
H14 H 0.5968 0.1701 0.5453
C21 C 0.5616(2) 0.29600(16) 0.5874(2)
H15 H 0.5246 0.3284 0.5530
H16 H 0.6070 0.2891 0.5579
C22 C 0.5606(2) 0.37301(17) 0.7176(3)
H17 H 0.5162 0.3986 0.6890
C23 C 0.6593(2) 0.33510(17) 0.8164(3)
C24 C 0.6573(2) 0.29688(17) 0.7401(2)
C25 C 0.7133(2) 0.24685(18) 0.7350(3)
H18 H 0.7117 0.2221 0.6832
C26 C 0.7718(3) 0.2358(2) 0.8114(3)
H19 H 0.8107 0.2024 0.8111
C27 C 0.7745(3) 0.2725(2) 0.8880(3)
H20 H 0.8152 0.2634 0.9380
C29 C 0.7184(3) 0.3225(2) 0.8922(3)
H21 H 0.7202 0.3470 0.9443
C30 C 0.4015(2) 0.04319(18) 0.6305(2)
N2 N 0.59238(18) 0.32237(14) 0.67721(19)
O4 O 0.44324(13) -0.01106(11) 0.61685(14)
H46 H 0.4191 -0.0448 0.6283
O5 O 0.33852(16) 0.04134(11) 0.65714(17)
N8 N 0.5975(2) 0.38323(14) 0.8007(2)

#END
