
#######################################################################
#
#                 Cambridge Crystallographic Data Centre
#                                CCDC 
#
#######################################################################
#
# If this CIF has been generated from an entry in the Cambridge 
# Structural Database, then it will include bibliographic, chemical, 
# crystal, experimental, refinement or atomic coordinate data resulting 
# from the CCDC's data processing and validation procedures.
#
#######################################################################

data_ABAFIT
_symmetry_cell_setting           monoclinic
_symmetry_space_group_name_H-M   'P 21/c'
_symmetry_Int_Tables_number      14
_space_group_name_Hall           '-P 2ybc'
loop_
_symmetry_equiv_pos_site_id
_symmetry_equiv_pos_as_xyz
1 x,y,z
2 x,1/2-y,1/2+z
3 -x,-y,-z
4 -x,1/2+y,1/2-z
_cell_length_a                   12.4536(9)
_cell_length_b                   16.1001(11)
_cell_length_c                   24.7739(17)
_cell_angle_alpha                90
_cell_angle_beta                 102.7980(10)
_cell_angle_gamma                90
_cell_volume                     4843.87
loop_
_atom_site_label
_atom_site_type_symbol
_atom_site_fract_x
_atom_site_fract_y
_atom_site_fract_z
Ru1 Ru 0.88470(3) 0.23350(2) 0.712306(14)
Ru2 Ru 0.71304(3) 0.18781(2) 0.803793(15)
H1 H 0.641(3) 0.227(2) 0.7564(14)
Cl1 Cl 0.73661(10) 0.21357(7) 0.63517(5)
Cl2 Cl 0.89655(10) 0.37353(6) 0.67945(5)
Cl3 Cl 1.05887(8) 0.25956(7) 0.77109(5)
N1 N 0.9591(3) 0.0635(2) 0.68869(15)
N2 N 0.8399(3) 0.05366(19) 0.74004(14)
N3 N 0.7501(3) 0.3233(2) 0.89315(14)
N4 N 0.6234(3) 0.3588(2) 0.82194(15)
C1 C 0.8985(3) 0.1078(2) 0.71600(16)
C2 C 0.9455(4) -0.0272(2) 0.69338(19)
H2 H 1.0160 -0.0540 0.7113
H3 H 0.9176 -0.0527 0.6566
C3 C 0.8621(4) -0.0345(2) 0.72908(18)
H4 H 0.7945 -0.0631 0.7092
H5 H 0.8930 -0.0647 0.7639
C4 C 1.0388(5) 0.0929(3) 0.6593(2)
C5 C 1.0075(8) 0.1003(4) 0.6020(3)
C6 C 1.0933(10) 0.1261(5) 0.5756(4)
H6 H 1.0769 0.1368 0.5369
C7 C 1.2002(13) 0.1354(6) 0.6062(7)
C8 C 1.2236(7) 0.1252(4) 0.6594(5)
H7 H 1.2974 0.1345 0.6789
C9 C 1.1472(6) 0.1016(3) 0.6895(4)
C10 C 0.8955(8) 0.0827(4) 0.5699(3)
H8 H 0.8888 0.0234 0.5609
H9 H 0.8812 0.1152 0.5356
H10 H 0.8418 0.0977 0.5919
C11 C 1.2919(11) 0.1624(4) 0.5757(6)
H11 H 1.3294 0.2120 0.5936
H12 H 1.2584 0.1749 0.5369
H13 H 1.3453 0.1172 0.5774
C12 C 1.1786(5) 0.0832(3) 0.7496(3)
H14 H 1.2576 0.0931 0.7632
H15 H 1.1618 0.0250 0.7559
H16 H 1.1370 0.1194 0.7694
C13 C 0.7764(4) 0.0686(2) 0.77965(18)
C14 C 0.6605(4) 0.0677(2) 0.76240(18)
C15 C 0.5988(4) 0.0772(2) 0.80384(19)
H17 H 0.5207 0.0767 0.7933
C16 C 0.6496(4) 0.0872(2) 0.85955(19)
C17 C 0.7663(4) 0.0889(2) 0.87485(18)
H18 H 0.8010 0.0986 0.9125
C18 C 0.8318(3) 0.0769(2) 0.83648(17)
C19 C 0.6040(4) 0.0542(3) 0.70318(18)
H19 H 0.6460 0.0815 0.6791
H20 H 0.5297 0.0778 0.6964
H21 H 0.5993 -0.0054 0.6952
C20 C 0.5817(4) 0.0895(3) 0.9029(2)
H22 H 0.5116 0.1174 0.8878
H23 H 0.6219 0.1198 0.9354
H24 H 0.5676 0.0326 0.9136
C21 C 0.9538(3) 0.0739(2) 0.85240(17)
H25 H 0.9785 0.0879 0.8917
H26 H 0.9846 0.1138 0.8301
H27 H 0.9790 0.0178 0.8460
C22 C 0.8059(3) 0.2296(2) 0.76010(16)
C23 C 0.6927(3) 0.2975(2) 0.84341(18)
C24 C 0.7289(4) 0.4117(3) 0.9048(2)
H28 H 0.7927 0.4473 0.9027
H29 H 0.7114 0.4182 0.9417
C25 C 0.6299(4) 0.4315(3) 0.85856(19)
H30 H 0.5622 0.4373 0.8730
H31 H 0.6417 0.4833 0.8390
C26 C 0.8193(4) 0.2733(3) 0.93452(17)
C27 C 0.7739(4) 0.2402(3) 0.97687(18)
C28 C 0.8395(4) 0.1866(3) 1.01494(18)
H32 H 0.8107 0.1637 1.0441
C29 C 0.9455(4) 0.1663(3) 1.01100(18)
C30 C 0.9898(4) 0.2058(3) 0.97144(18)
H33 H 1.0641 0.1948 0.9701
C31 C 0.9289(4) 0.2613(3) 0.93332(17)
C32 C 0.6613(4) 0.2634(3) 0.98404(19)
H34 H 0.6343 0.2205 1.0057
H35 H 0.6112 0.2683 0.9476
H36 H 0.6650 0.3167 1.0035
C33 C 1.0096(4) 0.1024(3) 1.04912(19)
H37 H 1.0846 0.0992 1.0431
H38 H 0.9737 0.0482 1.0415
H39 H 1.0122 0.1181 1.0876
C34 C 0.9802(4) 0.3053(3) 0.89187(19)
H40 H 0.9425 0.2889 0.8544
H41 H 1.0583 0.2903 0.8981
H42 H 0.9734 0.3655 0.8961
C35 C 0.5311(3) 0.3526(2) 0.77560(19)
C36 C 0.4318(4) 0.3213(3) 0.7844(2)
C37 C 0.3419(4) 0.3203(3) 0.7402(2)
H43 H 0.2741 0.2987 0.7456
C38 C 0.3472(4) 0.3497(3) 0.6884(2)
C39 C 0.4458(4) 0.3788(3) 0.6812(2)
H44 H 0.4507 0.3978 0.6456
C40 C 0.5392(4) 0.3817(2) 0.7237(2)
C41 C 0.4222(4) 0.2881(3) 0.8390(2)
H45 H 0.3487 0.2643 0.8360
H46 H 0.4337 0.3331 0.8663
H47 H 0.4780 0.2449 0.8508
C42 C 0.2457(4) 0.3525(3) 0.6422(2)
H48 H 0.2132 0.4082 0.6402
H49 H 0.1922 0.3116 0.6492
H50 H 0.2658 0.3396 0.6070
C43 C 0.6462(4) 0.4128(3) 0.7126(2)
H51 H 0.6844 0.3670 0.6987
H52 H 0.6925 0.4343 0.7470
H53 H 0.6314 0.4572 0.6849
Ru1 Ru 0.88470(3) 0.26650(2) 0.212306(14)
Ru2 Ru 0.71304(3) 0.31219(2) 0.303793(15)
H1 H 0.641(3) 0.273(2) 0.2564(14)
Cl1 Cl 0.73661(10) 0.28643(7) 0.13517(5)
Cl2 Cl 0.89655(10) 0.12647(6) 0.17945(5)
Cl3 Cl 1.05887(8) 0.24044(7) 0.27109(5)
N1 N 0.9591(3) 0.4365(2) 0.18869(15)
N2 N 0.8399(3) 0.44634(19) 0.24004(14)
N3 N 0.7501(3) 0.1767(2) 0.39315(14)
N4 N 0.6234(3) 0.1412(2) 0.32194(15)
C1 C 0.8985(3) 0.3922(2) 0.21600(16)
C2 C 0.9455(4) 0.5272(2) 0.19338(19)
H2 H 1.0160 0.5540 0.2113
H3 H 0.9176 0.5527 0.1566
C3 C 0.8621(4) 0.5345(2) 0.22908(18)
H4 H 0.7945 0.5631 0.2092
H5 H 0.8930 0.5647 0.2639
C4 C 1.0388(5) 0.4071(3) 0.1593(2)
C5 C 1.0075(8) 0.3997(4) 0.1020(3)
C6 C 1.0933(10) 0.3739(5) 0.0756(4)
H6 H 1.0769 0.3632 0.0369
C7 C 1.2002(13) 0.3646(6) 0.1062(7)
C8 C 1.2236(7) 0.3748(4) 0.1594(5)
H7 H 1.2974 0.3655 0.1789
C9 C 1.1472(6) 0.3984(3) 0.1895(4)
C10 C 0.8955(8) 0.4173(4) 0.0699(3)
H8 H 0.8888 0.4766 0.0609
H9 H 0.8812 0.3848 0.0356
H10 H 0.8418 0.4023 0.0919
C11 C 1.2919(11) 0.3376(4) 0.0757(6)
H11 H 1.3294 0.2880 0.0936
H12 H 1.2584 0.3251 0.0369
H13 H 1.3453 0.3828 0.0774
C12 C 1.1786(5) 0.4168(3) 0.2496(3)
H14 H 1.2576 0.4069 0.2632
H15 H 1.1618 0.4750 0.2559
H16 H 1.1370 0.3806 0.2694
C13 C 0.7764(4) 0.4314(2) 0.27965(18)
C14 C 0.6605(4) 0.4323(2) 0.26240(18)
C15 C 0.5988(4) 0.4228(2) 0.30384(19)
H17 H 0.5207 0.4233 0.2933
C16 C 0.6496(4) 0.4128(2) 0.35955(19)
C17 C 0.7663(4) 0.4111(2) 0.37485(18)
H18 H 0.8010 0.4014 0.4125
C18 C 0.8318(3) 0.4231(2) 0.33648(17)
C19 C 0.6040(4) 0.4458(3) 0.20318(18)
H19 H 0.6460 0.4185 0.1791
H20 H 0.5297 0.4222 0.1964
H21 H 0.5993 0.5054 0.1952
C20 C 0.5817(4) 0.4105(3) 0.4029(2)
H22 H 0.5116 0.3826 0.3878
H23 H 0.6219 0.3802 0.4354
H24 H 0.5676 0.4674 0.4136
C21 C 0.9538(3) 0.4261(2) 0.35240(17)
H25 H 0.9785 0.4121 0.3917
H26 H 0.9846 0.3862 0.3301
H27 H 0.9790 0.4822 0.3460
C22 C 0.8059(3) 0.2704(2) 0.26010(16)
C23 C 0.6927(3) 0.2025(2) 0.34341(18)
C24 C 0.7289(4) 0.0883(3) 0.4048(2)
H28 H 0.7927 0.0527 0.4027
H29 H 0.7114 0.0818 0.4417
C25 C 0.6299(4) 0.0685(3) 0.35856(19)
H30 H 0.5622 0.0627 0.3730
H31 H 0.6417 0.0167 0.3390
C26 C 0.8193(4) 0.2267(3) 0.43452(17)
C27 C 0.7739(4) 0.2598(3) 0.47687(18)
C28 C 0.8395(4) 0.3134(3) 0.51494(18)
H32 H 0.8107 0.3363 0.5441
C29 C 0.9455(4) 0.3337(3) 0.51100(18)
C30 C 0.9898(4) 0.2942(3) 0.47144(18)
H33 H 1.0641 0.3052 0.4701
C31 C 0.9289(4) 0.2387(3) 0.43332(17)
C32 C 0.6613(4) 0.2366(3) 0.48404(19)
H34 H 0.6343 0.2795 0.5057
H35 H 0.6112 0.2317 0.4476
H36 H 0.6650 0.1833 0.5035
C33 C 1.0096(4) 0.3976(3) 0.54912(19)
H37 H 1.0846 0.4008 0.5431
H38 H 0.9737 0.4518 0.5415
H39 H 1.0122 0.3819 0.5876
C34 C 0.9802(4) 0.1947(3) 0.39187(19)
H40 H 0.9425 0.2111 0.3544
H41 H 1.0583 0.2097 0.3981
H42 H 0.9734 0.1345 0.3961
C35 C 0.5311(3) 0.1474(2) 0.27560(19)
C36 C 0.4318(4) 0.1787(3) 0.2844(2)
C37 C 0.3419(4) 0.1797(3) 0.2402(2)
H43 H 0.2741 0.2013 0.2456
C38 C 0.3472(4) 0.1503(3) 0.1884(2)
C39 C 0.4458(4) 0.1212(3) 0.1812(2)
H44 H 0.4507 0.1022 0.1456
C40 C 0.5392(4) 0.1183(2) 0.2237(2)
C41 C 0.4222(4) 0.2119(3) 0.3390(2)
H45 H 0.3487 0.2357 0.3360
H46 H 0.4337 0.1669 0.3663
H47 H 0.4780 0.2551 0.3508
C42 C 0.2457(4) 0.1475(3) 0.1422(2)
H48 H 0.2132 0.0918 0.1402
H49 H 0.1922 0.1884 0.1492
H50 H 0.2658 0.1604 0.1070
C43 C 0.6462(4) 0.0872(3) 0.2126(2)
H51 H 0.6844 0.1330 0.1987
H52 H 0.6925 0.0657 0.2470
H53 H 0.6314 0.0428 0.1849
Ru1 Ru 0.11530(3) 0.76650(2) 0.287694(14)
Ru2 Ru 0.28696(3) 0.81219(2) 0.196207(15)
H1 H 0.359(3) 0.773(2) 0.2436(14)
Cl1 Cl 0.26339(10) 0.78643(7) 0.36483(5)
Cl2 Cl 0.10345(10) 0.62647(6) 0.32055(5)
Cl3 Cl -0.05887(8) 0.74044(7) 0.22891(5)
N1 N 0.0409(3) 0.9365(2) 0.31131(15)
N2 N 0.1601(3) 0.94634(19) 0.25996(14)
N3 N 0.2499(3) 0.6767(2) 0.10685(14)
N4 N 0.3766(3) 0.6412(2) 0.17806(15)
C1 C 0.1015(3) 0.8922(2) 0.28400(16)
C2 C 0.0545(4) 1.0272(2) 0.30662(19)
H2 H -0.0160 1.0540 0.2887
H3 H 0.0824 1.0527 0.3434
C3 C 0.1379(4) 1.0345(2) 0.27092(18)
H4 H 0.2055 1.0631 0.2908
H5 H 0.1070 1.0647 0.2361
C4 C -0.0388(5) 0.9071(3) 0.3407(2)
C5 C -0.0075(8) 0.8997(4) 0.3980(3)
C6 C -0.0933(10) 0.8739(5) 0.4244(4)
H6 H -0.0769 0.8632 0.4631
C7 C -0.2002(13) 0.8646(6) 0.3938(7)
C8 C -0.2236(7) 0.8748(4) 0.3406(5)
H7 H -0.2974 0.8655 0.3211
C9 C -0.1472(6) 0.8984(3) 0.3105(4)
C10 C 0.1045(8) 0.9173(4) 0.4301(3)
H8 H 0.1112 0.9766 0.4391
H9 H 0.1188 0.8848 0.4644
H10 H 0.1582 0.9023 0.4081
C11 C -0.2919(11) 0.8376(4) 0.4243(6)
H11 H -0.3294 0.7880 0.4064
H12 H -0.2584 0.8251 0.4631
H13 H -0.3453 0.8828 0.4226
C12 C -0.1786(5) 0.9168(3) 0.2504(3)
H14 H -0.2576 0.9069 0.2368
H15 H -0.1618 0.9750 0.2441
H16 H -0.1370 0.8806 0.2306
C13 C 0.2236(4) 0.9314(2) 0.22035(18)
C14 C 0.3395(4) 0.9323(2) 0.23760(18)
C15 C 0.4012(4) 0.9228(2) 0.19616(19)
H17 H 0.4793 0.9233 0.2067
C16 C 0.3504(4) 0.9128(2) 0.14045(19)
C17 C 0.2337(4) 0.9111(2) 0.12515(18)
H18 H 0.1990 0.9014 0.0875
C18 C 0.1682(3) 0.9231(2) 0.16352(17)
C19 C 0.3960(4) 0.9458(3) 0.29682(18)
H19 H 0.3540 0.9185 0.3209
H20 H 0.4703 0.9222 0.3036
H21 H 0.4007 1.0054 0.3048
C20 C 0.4183(4) 0.9105(3) 0.0971(2)
H22 H 0.4884 0.8826 0.1122
H23 H 0.3781 0.8802 0.0646
H24 H 0.4324 0.9674 0.0864
C21 C 0.0462(3) 0.9261(2) 0.14760(17)
H25 H 0.0215 0.9121 0.1083
H26 H 0.0154 0.8862 0.1699
H27 H 0.0210 0.9822 0.1540
C22 C 0.1941(3) 0.7704(2) 0.23990(16)
C23 C 0.3073(3) 0.7025(2) 0.15659(18)
C24 C 0.2711(4) 0.5883(3) 0.0952(2)
H28 H 0.2073 0.5527 0.0973
H29 H 0.2886 0.5818 0.0583
C25 C 0.3701(4) 0.5685(3) 0.14144(19)
H30 H 0.4378 0.5627 0.1270
H31 H 0.3583 0.5167 0.1610
C26 C 0.1807(4) 0.7267(3) 0.06548(17)
C27 C 0.2261(4) 0.7598(3) 0.02313(18)
C28 C 0.1605(4) 0.8134(3) -0.01494(18)
H32 H 0.1893 0.8363 -0.0441
C29 C 0.0545(4) 0.8337(3) -0.01100(18)
C30 C 0.0102(4) 0.7942(3) 0.02856(18)
H33 H -0.0641 0.8052 0.0299
C31 C 0.0711(4) 0.7387(3) 0.06668(17)
C32 C 0.3387(4) 0.7366(3) 0.01596(19)
H34 H 0.3657 0.7795 -0.0057
H35 H 0.3888 0.7317 0.0524
H36 H 0.3350 0.6833 -0.0035
C33 C -0.0096(4) 0.8976(3) -0.04912(19)
H37 H -0.0846 0.9008 -0.0431
H38 H 0.0263 0.9518 -0.0415
H39 H -0.0122 0.8819 -0.0876
C34 C 0.0198(4) 0.6947(3) 0.10813(19)
H40 H 0.0575 0.7111 0.1456
H41 H -0.0583 0.7097 0.1019
H42 H 0.0266 0.6345 0.1039
C35 C 0.4689(3) 0.6474(2) 0.22440(19)
C36 C 0.5682(4) 0.6787(3) 0.2156(2)
C37 C 0.6581(4) 0.6797(3) 0.2598(2)
H43 H 0.7259 0.7013 0.2544
C38 C 0.6528(4) 0.6503(3) 0.3116(2)
C39 C 0.5542(4) 0.6212(3) 0.3188(2)
H44 H 0.5493 0.6022 0.3544
C40 C 0.4608(4) 0.6183(2) 0.2763(2)
C41 C 0.5778(4) 0.7119(3) 0.1610(2)
H45 H 0.6513 0.7357 0.1640
H46 H 0.5663 0.6669 0.1337
H47 H 0.5220 0.7551 0.1492
C42 C 0.7543(4) 0.6475(3) 0.3578(2)
H48 H 0.7868 0.5918 0.3598
H49 H 0.8078 0.6884 0.3508
H50 H 0.7342 0.6604 0.3930
C43 C 0.3538(4) 0.5872(3) 0.2874(2)
H51 H 0.3156 0.6330 0.3013
H52 H 0.3075 0.5657 0.2530
H53 H 0.3686 0.5428 0.3151
Ru1 Ru 0.11530(3) 0.73350(2) 0.787694(14)
Ru2 Ru 0.28696(3) 0.68781(2) 0.696207(15)
H1 H 0.359(3) 0.727(2) 0.7436(14)
Cl1 Cl 0.26339(10) 0.71357(7) 0.86483(5)
Cl2 Cl 0.10345(10) 0.87353(6) 0.82055(5)
Cl3 Cl -0.05887(8) 0.75956(7) 0.72891(5)
N1 N 0.0409(3) 0.5635(2) 0.81131(15)
N2 N 0.1601(3) 0.55366(19) 0.75996(14)
N3 N 0.2499(3) 0.8233(2) 0.60685(14)
N4 N 0.3766(3) 0.8588(2) 0.67806(15)
C1 C 0.1015(3) 0.6078(2) 0.78400(16)
C2 C 0.0545(4) 0.4728(2) 0.80662(19)
H2 H -0.0160 0.4460 0.7887
H3 H 0.0824 0.4473 0.8434
C3 C 0.1379(4) 0.4655(2) 0.77092(18)
H4 H 0.2055 0.4369 0.7908
H5 H 0.1070 0.4353 0.7361
C4 C -0.0388(5) 0.5929(3) 0.8407(2)
C5 C -0.0075(8) 0.6003(4) 0.8980(3)
C6 C -0.0933(10) 0.6261(5) 0.9244(4)
H6 H -0.0769 0.6368 0.9631
C7 C -0.2002(13) 0.6354(6) 0.8938(7)
C8 C -0.2236(7) 0.6252(4) 0.8406(5)
H7 H -0.2974 0.6345 0.8211
C9 C -0.1472(6) 0.6016(3) 0.8105(4)
C10 C 0.1045(8) 0.5827(4) 0.9301(3)
H8 H 0.1112 0.5234 0.9391
H9 H 0.1188 0.6152 0.9644
H10 H 0.1582 0.5977 0.9081
C11 C -0.2919(11) 0.6624(4) 0.9243(6)
H11 H -0.3294 0.7120 0.9064
H12 H -0.2584 0.6749 0.9631
H13 H -0.3453 0.6172 0.9226
C12 C -0.1786(5) 0.5832(3) 0.7504(3)
H14 H -0.2576 0.5931 0.7368
H15 H -0.1618 0.5250 0.7441
H16 H -0.1370 0.6194 0.7306
C13 C 0.2236(4) 0.5686(2) 0.72035(18)
C14 C 0.3395(4) 0.5677(2) 0.73760(18)
C15 C 0.4012(4) 0.5772(2) 0.69616(19)
H17 H 0.4793 0.5767 0.7067
C16 C 0.3504(4) 0.5872(2) 0.64045(19)
C17 C 0.2337(4) 0.5889(2) 0.62515(18)
H18 H 0.1990 0.5986 0.5875
C18 C 0.1682(3) 0.5769(2) 0.66352(17)
C19 C 0.3960(4) 0.5542(3) 0.79682(18)
H19 H 0.3540 0.5815 0.8209
H20 H 0.4703 0.5778 0.8036
H21 H 0.4007 0.4946 0.8048
C20 C 0.4183(4) 0.5895(3) 0.5971(2)
H22 H 0.4884 0.6174 0.6122
H23 H 0.3781 0.6198 0.5646
H24 H 0.4324 0.5326 0.5864
C21 C 0.0462(3) 0.5739(2) 0.64760(17)
H25 H 0.0215 0.5879 0.6083
H26 H 0.0154 0.6138 0.6699
H27 H 0.0210 0.5178 0.6540
C22 C 0.1941(3) 0.7296(2) 0.73990(16)
C23 C 0.3073(3) 0.7975(2) 0.65659(18)
C24 C 0.2711(4) 0.9117(3) 0.5952(2)
H28 H 0.2073 0.9473 0.5973
H29 H 0.2886 0.9182 0.5583
C25 C 0.3701(4) 0.9315(3) 0.64144(19)
H30 H 0.4378 0.9373 0.6270
H31 H 0.3583 0.9833 0.6610
C26 C 0.1807(4) 0.7733(3) 0.56548(17)
C27 C 0.2261(4) 0.7402(3) 0.52313(18)
C28 C 0.1605(4) 0.6866(3) 0.48506(18)
H32 H 0.1893 0.6637 0.4559
C29 C 0.0545(4) 0.6663(3) 0.48900(18)
C30 C 0.0102(4) 0.7058(3) 0.52856(18)
H33 H -0.0641 0.6948 0.5299
C31 C 0.0711(4) 0.7613(3) 0.56668(17)
C32 C 0.3387(4) 0.7634(3) 0.51596(19)
H34 H 0.3657 0.7205 0.4943
H35 H 0.3888 0.7683 0.5524
H36 H 0.3350 0.8167 0.4965
C33 C -0.0096(4) 0.6024(3) 0.45088(19)
H37 H -0.0846 0.5992 0.4569
H38 H 0.0263 0.5482 0.4585
H39 H -0.0122 0.6181 0.4124
C34 C 0.0198(4) 0.8053(3) 0.60813(19)
H40 H 0.0575 0.7889 0.6456
H41 H -0.0583 0.7903 0.6019
H42 H 0.0266 0.8655 0.6039
C35 C 0.4689(3) 0.8526(2) 0.72440(19)
C36 C 0.5682(4) 0.8213(3) 0.7156(2)
C37 C 0.6581(4) 0.8203(3) 0.7598(2)
H43 H 0.7259 0.7987 0.7544
C38 C 0.6528(4) 0.8497(3) 0.8116(2)
C39 C 0.5542(4) 0.8788(3) 0.8188(2)
H44 H 0.5493 0.8978 0.8544
C40 C 0.4608(4) 0.8817(2) 0.7763(2)
C41 C 0.5778(4) 0.7881(3) 0.6610(2)
H45 H 0.6513 0.7643 0.6640
H46 H 0.5663 0.8331 0.6337
H47 H 0.5220 0.7449 0.6492
C42 C 0.7543(4) 0.8525(3) 0.8578(2)
H48 H 0.7868 0.9082 0.8598
H49 H 0.8078 0.8116 0.8508
H50 H 0.7342 0.8396 0.8930
C43 C 0.3538(4) 0.9128(3) 0.7874(2)
H51 H 0.3156 0.8670 0.8013
H52 H 0.3075 0.9343 0.7530
H53 H 0.3686 0.9572 0.8151
C44 C 0.3888(5) 0.0861(4) 0.9939(3)
H54 H 0.4418 0.0657 1.0247
C45 C 0.3294(5) 0.0309(4) 0.9557(3)
H55 H 0.3404 -0.0272 0.9609
C46 C 0.2542(4) 0.0603(4) 0.9101(3)
H56 H 0.2130 0.0229 0.8837
C47 C 0.2400(4) 0.1455(4) 0.9034(2)
H57 H 0.1900 0.1670 0.8718
C48 C 0.2972(4) 0.1979(4) 0.9418(2)
H58 H 0.2860 0.2561 0.9373
C49 C 0.3719(5) 0.1682(4) 0.9876(3)
H59 H 0.4111 0.2058 1.0144
C44 C 0.3888(5) 0.4139(4) 0.4939(3)
H54 H 0.4418 0.4343 0.5247
C45 C 0.3294(5) 0.4691(4) 0.4557(3)
H55 H 0.3404 0.5272 0.4609
C46 C 0.2542(4) 0.4397(4) 0.4101(3)
H56 H 0.2130 0.4771 0.3837
C47 C 0.2400(4) 0.3545(4) 0.4034(2)
H57 H 0.1900 0.3330 0.3718
C48 C 0.2972(4) 0.3021(4) 0.4418(2)
H58 H 0.2860 0.2439 0.4373
C49 C 0.3719(5) 0.3318(4) 0.4876(3)
H59 H 0.4111 0.2942 0.5144
C44 C 0.6112(5) 0.9139(4) 0.0061(3)
H54 H 0.5582 0.9343 -0.0247
C45 C 0.6706(5) 0.9691(4) 0.0443(3)
H55 H 0.6596 1.0272 0.0391
C46 C 0.7458(4) 0.9397(4) 0.0899(3)
H56 H 0.7870 0.9771 0.1163
C47 C 0.7600(4) 0.8545(4) 0.0966(2)
H57 H 0.8100 0.8330 0.1282
C48 C 0.7028(4) 0.8021(4) 0.0582(2)
H58 H 0.7140 0.7439 0.0627
C49 C 0.6281(5) 0.8318(4) 0.0124(3)
H59 H 0.5889 0.7942 -0.0144
C44 C 0.6112(5) 0.5861(4) 0.5061(3)
H54 H 0.5582 0.5657 0.4753
C45 C 0.6706(5) 0.5309(4) 0.5443(3)
H55 H 0.6596 0.4728 0.5391
C46 C 0.7458(4) 0.5603(4) 0.5899(3)
H56 H 0.7870 0.5229 0.6163
C47 C 0.7600(4) 0.6455(4) 0.5966(2)
H57 H 0.8100 0.6670 0.6282
C48 C 0.7028(4) 0.6979(4) 0.5582(2)
H58 H 0.7140 0.7561 0.5627
C49 C 0.6281(5) 0.6682(4) 0.5124(3)
H59 H 0.5889 0.7058 0.4856
C50 C 0.4649(7) 0.4204(4) -0.0047(4)
H60 H 0.4404 0.3643 -0.0086
C51 C 0.5441(7) 0.4419(4) 0.0389(3)
H61 H 0.5743 0.4018 0.0662
C52 C 0.4182(5) 0.4776(6) -0.0439(3)
H62 H 0.3606 0.4618 -0.0742
C52B C 0.5818(5) 0.5224(6) 0.0439(3)
C50B C 0.5351(7) 0.5796(4) 0.0047(4)
H60B H 0.5596 0.6357 0.0086
C51B C 0.4559(7) 0.5581(4) -0.0389(3)
H61B H 0.4257 0.5982 -0.0662
H62B H 0.6394 0.5382 0.0742
C50 C 0.4649(7) 0.4204(4) 0.9953(4)
H60 H 0.4404 0.3643 0.9914
C51 C 0.5441(7) 0.4419(4) 1.0389(3)
H61 H 0.5743 0.4018 1.0662
C52 C 0.4182(5) 0.4776(6) 0.9561(3)
H62 H 0.3606 0.4618 0.9258
C52B C 0.5818(5) 0.5224(6) 1.0439(3)
C50B C 0.5351(7) 0.5796(4) 1.0047(4)
H60B H 0.5596 0.6357 1.0086
C51B C 0.4559(7) 0.5581(4) 0.9611(3)
H61B H 0.4257 0.5982 0.9338
H62B H 0.6394 0.5382 1.0742
C50 C 0.4649(7) 0.0796(4) 0.4953(4)
H60 H 0.4404 0.1357 0.4914
C51 C 0.5441(7) 0.0581(4) 0.5389(3)
H61 H 0.5743 0.0982 0.5662
C52 C 0.4182(5) 0.0224(6) 0.4561(3)
H62 H 0.3606 0.0382 0.4258
C52B C 0.5818(5) -0.0224(6) 0.5439(3)
C50B C 0.5351(7) -0.0796(4) 0.5047(4)
H60B H 0.5596 -0.1357 0.5086
C51B C 0.4559(7) -0.0581(4) 0.4611(3)
H61B H 0.4257 -0.0982 0.4338
H62B H 0.6394 -0.0382 0.5742
C50 C 0.4649(7) 1.0796(4) 0.4953(4)
H60 H 0.4404 1.1357 0.4914
C51 C 0.5441(7) 1.0581(4) 0.5389(3)
H61 H 0.5743 1.0982 0.5662
C52 C 0.4182(5) 1.0224(6) 0.4561(3)
H62 H 0.3606 1.0382 0.4258
C52B C 0.5818(5) 0.9776(6) 0.5439(3)
C50B C 0.5351(7) 0.9204(4) 0.5047(4)
H60B H 0.5596 0.8643 0.5086
C51B C 0.4559(7) 0.9419(4) 0.4611(3)
H61B H 0.4257 0.9018 0.4338
H62B H 0.6394 0.9618 0.5742

#END
