
#######################################################################
#
#                 Cambridge Crystallographic Data Centre
#                                CCDC 
#
#######################################################################
#
# If this CIF has been generated from an entry in the Cambridge 
# Structural Database, then it will include bibliographic, chemical, 
# crystal, experimental, refinement or atomic coordinate data resulting 
# from the CCDC's data processing and validation procedures.
#
#######################################################################

data_ABAFIU
_symmetry_cell_setting           triclinic
_symmetry_space_group_name_H-M   'P -1'
_symmetry_Int_Tables_number      2
_space_group_name_Hall           '-P 1'
loop_
_symmetry_equiv_pos_site_id
_symmetry_equiv_pos_as_xyz
1 x,y,z
2 -x,-y,-z
_cell_length_a                   10.6514(5)
_cell_length_b                   11.5984(5)
_cell_length_c                   13.5681(6)
_cell_angle_alpha                103.738(3)
_cell_angle_beta                 97.201(2)
_cell_angle_gamma                107.584(2)
_cell_volume                     1516.59
loop_
_atom_site_label
_atom_site_type_symbol
_atom_site_fract_x
_atom_site_fract_y
_atom_site_fract_z
S1 S 0.70329(9) 0.92657(8) 0.36570(7)
P1 P 0.79120(10) 0.92027(9) 0.17273(7)
O1 O 0.9263(3) 0.9142(2) 0.20889(19)
O2 O 0.8350(2) 0.9315(2) 0.41750(19)
O3 O 0.6634(3) 1.0300(2) 0.4178(2)
N1 N 0.6862(3) 0.9065(3) 0.2483(2)
N2 N 0.7991(3) 1.0530(3) 0.1422(2)
N3 N 0.7199(3) 0.8094(3) 0.0606(2)
C1 C 0.5849(4) 0.7865(3) 0.3761(3)
C2 C 0.5958(4) 0.6703(4) 0.3313(3)
H1 H 0.6642 0.6656 0.2934
C3 C 0.5076(5) 0.5618(4) 0.3417(3)
H2 H 0.5165 0.4828 0.3111
C4 C 0.4056(4) 0.5647(4) 0.3959(3)
C5 C 0.3963(4) 0.6819(4) 0.4392(3)
H3 H 0.3271 0.6866 0.4762
C6 C 0.4843(4) 0.7921(4) 0.4303(3)
H4 H 0.4759 0.8713 0.4612
C7 C 0.3111(5) 0.4448(5) 0.4076(4)
H5 H 0.2376 0.4627 0.4376
H6 H 0.3604 0.4119 0.4534
H7 H 0.2738 0.3819 0.3393
C8 C 0.8916(4) 1.0830(4) 0.0727(3)
H8 H 0.8660 1.1381 0.0356
H9 H 0.8867 1.0046 0.0225
H10 H 0.9840 1.1263 0.1137
C9 C 0.7912(4) 1.1622(3) 0.2199(3)
H11 H 0.7191 1.1282 0.2566
C10 C 0.7481(4) 1.2506(4) 0.1686(3)
H12 H 0.6627 1.2024 0.1168
H13 H 0.8175 1.2868 0.1316
C11 C 0.7284(5) 1.3574(4) 0.2483(4)
H14 H 0.6547 1.3218 0.2820
H15 H 0.7025 1.4149 0.2130
C12 C 0.8583(5) 1.4315(4) 0.3306(4)
H16 H 0.9299 1.4733 0.2977
H17 H 0.8430 1.4979 0.3836
C13 C 0.9034(5) 1.3434(4) 0.3824(4)
H18 H 0.8356 1.3084 0.4210
H19 H 0.9899 1.3921 0.4329
C14 C 0.9211(4) 1.2349(4) 0.3028(3)
H20 H 0.9450 1.1768 0.3384
H21 H 0.9958 1.2691 0.2694
C15 C 0.5777(4) 0.7821(4) 0.0194(3)
H22 H 0.5591 0.7524 -0.0566
H23 H 0.5555 0.8590 0.0415
H24 H 0.5228 0.7164 0.0457
C16 C 0.7784(4) 0.7114(3) 0.0248(3)
H25 H 0.8779 0.7504 0.0531
C17 C 0.7285(7) 0.5975(5) 0.0641(5)
H26 H 0.6301 0.5556 0.0371
H27 H 0.7453 0.6253 0.1409
C18 C 0.7997(9) 0.5038(6) 0.0296(5)
H28 H 0.8963 0.5427 0.0640
H29 H 0.7609 0.4279 0.0521
C19 C 0.7873(6) 0.4648(4) -0.0850(5)
H30 H 0.6922 0.4137 -0.1192
H31 H 0.8429 0.4113 -0.1027
C20 C 0.8317(5) 0.5767(4) -0.1252(4)
H32 H 0.8147 0.5476 -0.2019
H33 H 0.9299 0.6211 -0.0987
C21 C 0.7576(5) 0.6686(4) -0.0922(3)
H34 H 0.7916 0.7429 -0.1178
H35 H 0.6601 0.6267 -0.1233
S1 S 0.29671(9) 0.07343(8) 0.63430(7)
P1 P 0.20880(10) 0.07973(9) 0.82727(7)
O1 O 0.0737(3) 0.0858(2) 0.79111(19)
O2 O 0.1650(2) 0.0685(2) 0.58250(19)
O3 O 0.3366(3) -0.0300(2) 0.5822(2)
N1 N 0.3138(3) 0.0935(3) 0.7517(2)
N2 N 0.2009(3) -0.0530(3) 0.8578(2)
N3 N 0.2801(3) 0.1906(3) 0.9394(2)
C1 C 0.4151(4) 0.2135(3) 0.6239(3)
C2 C 0.4042(4) 0.3297(4) 0.6687(3)
H1 H 0.3358 0.3344 0.7066
C3 C 0.4924(5) 0.4382(4) 0.6583(3)
H2 H 0.4835 0.5172 0.6889
C4 C 0.5944(4) 0.4353(4) 0.6041(3)
C5 C 0.6037(4) 0.3181(4) 0.5608(3)
H3 H 0.6729 0.3134 0.5238
C6 C 0.5157(4) 0.2079(4) 0.5697(3)
H4 H 0.5241 0.1287 0.5388
C7 C 0.6889(5) 0.5552(5) 0.5924(4)
H5 H 0.7624 0.5373 0.5624
H6 H 0.6396 0.5881 0.5466
H7 H 0.7262 0.6181 0.6607
C8 C 0.1084(4) -0.0830(4) 0.9273(3)
H8 H 0.1340 -0.1381 0.9644
H9 H 0.1133 -0.0046 0.9775
H10 H 0.0160 -0.1263 0.8863
C9 C 0.2088(4) -0.1622(3) 0.7801(3)
H11 H 0.2809 -0.1282 0.7434
C10 C 0.2519(4) -0.2506(4) 0.8314(3)
H12 H 0.3373 -0.2024 0.8832
H13 H 0.1825 -0.2868 0.8684
C11 C 0.2716(5) -0.3574(4) 0.7517(4)
H14 H 0.3453 -0.3218 0.7180
H15 H 0.2975 -0.4149 0.7870
C12 C 0.1417(5) -0.4315(4) 0.6694(4)
H16 H 0.0701 -0.4733 0.7023
H17 H 0.1570 -0.4979 0.6164
C13 C 0.0966(5) -0.3434(4) 0.6176(4)
H18 H 0.1644 -0.3084 0.5790
H19 H 0.0101 -0.3921 0.5671
C14 C 0.0789(4) -0.2349(4) 0.6972(3)
H20 H 0.0550 -0.1768 0.6616
H21 H 0.0042 -0.2691 0.7306
C15 C 0.4223(4) 0.2179(4) 0.9806(3)
H22 H 0.4409 0.2476 1.0566
H23 H 0.4445 0.1410 0.9585
H24 H 0.4772 0.2836 0.9543
C16 C 0.2216(4) 0.2886(3) 0.9752(3)
H25 H 0.1221 0.2496 0.9469
C17 C 0.2715(7) 0.4025(5) 0.9359(5)
H26 H 0.3699 0.4444 0.9629
H27 H 0.2547 0.3747 0.8591
C18 C 0.2003(9) 0.4962(6) 0.9704(5)
H28 H 0.1037 0.4573 0.9360
H29 H 0.2391 0.5721 0.9479
C19 C 0.2127(6) 0.5352(4) 1.0850(5)
H30 H 0.3078 0.5863 1.1192
H31 H 0.1571 0.5887 1.1027
C20 C 0.1683(5) 0.4233(4) 1.1252(4)
H32 H 0.1853 0.4524 1.2019
H33 H 0.0701 0.3789 1.0987
C21 C 0.2424(5) 0.3314(4) 1.0922(3)
H34 H 0.2084 0.2571 1.1178
H35 H 0.3399 0.3733 1.1233
N4 N 0.9037(3) 0.0830(3) 0.6297(2)
H36 H 0.9713 0.0780 0.6760
H37 H 0.8916 0.0232 0.5677
C22 C 0.7756(4) 0.0497(3) 0.6696(3)
H38 H 0.7016 0.0541 0.6190
C23 C 0.7914(4) 0.1430(4) 0.7748(3)
H39 H 0.8685 0.1440 0.8245
H40 H 0.8105 0.2291 0.7674
C24 C 0.6636(4) 0.1058(4) 0.8168(3)
H41 H 0.6785 0.1633 0.8873
H42 H 0.5894 0.1158 0.7717
C25 C 0.6227(5) -0.0297(4) 0.8216(3)
H43 H 0.5353 -0.0524 0.8433
H44 H 0.6909 -0.0372 0.8740
C26 C 0.6099(4) -0.1213(4) 0.7162(3)
H45 H 0.5894 -0.2079 0.7226
H46 H 0.5344 -0.1212 0.6656
C27 C 0.7398(4) -0.0843(4) 0.6762(3)
H47 H 0.8140 -0.0911 0.7236
H48 H 0.7278 -0.1428 0.6067
C28 C 0.9490(4) 0.2093(4) 0.6132(3)
H49 H 0.8743 0.2203 0.5710
H50 H 1.0240 0.2167 0.5771
H51 H 0.9790 0.2745 0.6805
N4 N 0.0963(3) 0.9170(3) 0.3703(2)
H36 H 0.0287 0.9220 0.3240
H37 H 0.1084 0.9768 0.4323
C22 C 0.2244(4) 0.9503(3) 0.3304(3)
H38 H 0.2984 0.9459 0.3810
C23 C 0.2086(4) 0.8570(4) 0.2252(3)
H39 H 0.1315 0.8560 0.1755
H40 H 0.1895 0.7709 0.2326
C24 C 0.3364(4) 0.8942(4) 0.1832(3)
H41 H 0.3215 0.8367 0.1127
H42 H 0.4106 0.8842 0.2283
C25 C 0.3773(5) 1.0297(4) 0.1784(3)
H43 H 0.4647 1.0524 0.1567
H44 H 0.3091 1.0372 0.1260
C26 C 0.3901(4) 1.1213(4) 0.2838(3)
H45 H 0.4106 1.2079 0.2774
H46 H 0.4656 1.1212 0.3344
C27 C 0.2602(4) 1.0843(4) 0.3238(3)
H47 H 0.1860 1.0911 0.2764
H48 H 0.2722 1.1428 0.3933
C28 C 0.0510(4) 0.7907(4) 0.3868(3)
H49 H 0.1257 0.7797 0.4290
H50 H -0.0240 0.7833 0.4229
H51 H 0.0210 0.7255 0.3195

#END
