./ABAFIU_from_xyz.cif_generated_by_CrystalShift
_symmetry_cell_setting triclinic
_symmetry_space_group_name_H-M 'P 1'
loop_
_symmetry_equiv_pos_site_id
_symmetry_equiv_pos_as_xyz
1 x,y,z
_cell_length_a 10.651400
_cell_length_b 11.598400
_cell_length_c 13.568100
_cell_angle_alpha 103.738000
_cell_angle_beta 97.201000
_cell_angle_gamma 107.584000
_cell_volume 1516.593971
loop_
_atom_site_label
_atom_site_type_symbol
_atom_site_fract_x
_atom_site_fract_y
_atom_site_fract_z
S1 S 0.703290 0.926570 0.365700
P2 P 0.791200 0.920270 0.172730
O3 O 0.926300 0.914200 0.208890
O4 O 0.835000 0.931500 0.417500
O5 O 0.663400 1.030000 0.417800
N6 N 0.686200 0.906500 0.248300
N7 N 0.799100 1.053000 0.142200
N8 N 0.719900 0.809400 0.060600
C9 C 0.584900 0.786500 0.376100
C10 C 0.595800 0.670300 0.331300
H11 H 0.664200 0.665600 0.293400
C12 C 0.507600 0.561800 0.341700
H13 H 0.516500 0.482800 0.311100
C14 C 0.405600 0.564700 0.395900
C15 C 0.396300 0.681900 0.439200
H16 H 0.327100 0.686600 0.476200
C17 C 0.484300 0.792100 0.430300
H18 H 0.475900 0.871300 0.461200
C19 C 0.311100 0.444800 0.407600
H20 H 0.237600 0.462700 0.437600
H21 H 0.360400 0.411900 0.453400
H22 H 0.273800 0.381900 0.339300
C23 C 0.891600 1.083000 0.072700
H24 H 0.866000 1.138100 0.035600
H25 H 0.886700 1.004600 0.022500
H26 H 0.984000 1.126300 0.113700
C27 C 0.791200 1.162200 0.219900
H28 H 0.719100 1.128200 0.256600
C29 C 0.748100 1.250600 0.168600
H30 H 0.662700 1.202400 0.116800
H31 H 0.817500 1.286800 0.131600
C32 C 0.728400 1.357400 0.248300
H33 H 0.654700 1.321800 0.282000
H34 H 0.702500 1.414900 0.213000
C35 C 0.858300 1.431500 0.330600
H36 H 0.929900 1.473300 0.297700
H37 H 0.843000 1.497900 0.383600
C38 C 0.903400 1.343400 0.382400
H39 H 0.835600 1.308400 0.421000
H40 H 0.989900 1.392100 0.432900
C41 C 0.921100 1.234900 0.302800
H42 H 0.945000 1.176800 0.338400
H43 H 0.995800 1.269100 0.269400
C44 C 0.577700 0.782100 0.019400
H45 H 0.559100 0.752400 -0.056600
H46 H 0.555500 0.859000 0.041500
H47 H 0.522800 0.716400 0.045700
C48 C 0.778400 0.711400 0.024800
H49 H 0.877900 0.750400 0.053100
C50 C 0.728500 0.597500 0.064100
H51 H 0.630100 0.555600 0.037100
H52 H 0.745300 0.625300 0.140900
C53 C 0.799700 0.503800 0.029600
H54 H 0.896300 0.542700 0.064000
H55 H 0.760900 0.427900 0.052100
C56 C 0.787300 0.464800 -0.085000
H57 H 0.692200 0.413700 -0.119200
H58 H 0.842900 0.411300 -0.102700
C59 C 0.831700 0.576700 -0.125200
H60 H 0.814700 0.547600 -0.201900
H61 H 0.929900 0.621100 -0.098700
C62 C 0.757600 0.668600 -0.092200
H63 H 0.791600 0.742900 -0.117800
H64 H 0.660100 0.626700 -0.123300
S65 S 0.296710 0.073430 0.634300
P66 P 0.208800 0.079730 0.827270
O67 O 0.073700 0.085800 0.791110
O68 O 0.165000 0.068500 0.582500
O69 O 0.336600 -0.030000 0.582200
N70 N 0.313800 0.093500 0.751700
N71 N 0.200900 -0.053000 0.857800
N72 N 0.280100 0.190600 0.939400
C73 C 0.415100 0.213500 0.623900
C74 C 0.404200 0.329700 0.668700
H75 H 0.335800 0.334400 0.706600
C76 C 0.492400 0.438200 0.658300
H77 H 0.483500 0.517200 0.688900
C78 C 0.594400 0.435300 0.604100
C79 C 0.603700 0.318100 0.560800
H80 H 0.672900 0.313400 0.523800
C81 C 0.515700 0.207900 0.569700
H82 H 0.524100 0.128700 0.538800
C83 C 0.688900 0.555200 0.592400
H84 H 0.762400 0.537300 0.562400
H85 H 0.639600 0.588100 0.546600
H86 H 0.726200 0.618100 0.660700
C87 C 0.108400 -0.083000 0.927300
H88 H 0.134000 -0.138100 0.964400
H89 H 0.113300 -0.004600 0.977500
H90 H 0.016000 -0.126300 0.886300
C91 C 0.208800 -0.162200 0.780100
H92 H 0.280900 -0.128200 0.743400
C93 C 0.251900 -0.250600 0.831400
H94 H 0.337300 -0.202400 0.883200
H95 H 0.182500 -0.286800 0.868400
C96 C 0.271600 -0.357400 0.751700
H97 H 0.345300 -0.321800 0.718000
H98 H 0.297500 -0.414900 0.787000
C99 C 0.141700 -0.431500 0.669400
H100 H 0.070100 -0.473300 0.702300
H101 H 0.157000 -0.497900 0.616400
C102 C 0.096600 -0.343400 0.617600
H103 H 0.164400 -0.308400 0.579000
H104 H 0.010100 -0.392100 0.567100
C105 C 0.078900 -0.234900 0.697200
H106 H 0.055000 -0.176800 0.661600
H107 H 0.004200 -0.269100 0.730600
C108 C 0.422300 0.217900 0.980600
H109 H 0.440900 0.247600 1.056600
H110 H 0.444500 0.141000 0.958500
H111 H 0.477200 0.283600 0.954300
C112 C 0.221600 0.288600 0.975200
H113 H 0.122100 0.249600 0.946900
C114 C 0.271500 0.402500 0.935900
H115 H 0.369900 0.444400 0.962900
H116 H 0.254700 0.374700 0.859100
C117 C 0.200300 0.496200 0.970400
H118 H 0.103700 0.457300 0.936000
H119 H 0.239100 0.572100 0.947900
C120 C 0.212700 0.535200 1.085000
H121 H 0.307800 0.586300 1.119200
H122 H 0.157100 0.588700 1.102700
C123 C 0.168300 0.423300 1.125200
H124 H 0.185300 0.452400 1.201900
H125 H 0.070100 0.378900 1.098700
C126 C 0.242400 0.331400 1.092200
H127 H 0.208400 0.257100 1.117800
H128 H 0.339900 0.373300 1.123300
N129 N 0.903700 0.083000 0.629700
H130 H 0.971300 0.078000 0.676000
H131 H 0.891600 0.023200 0.567700
C132 C 0.775600 0.049700 0.669600
H133 H 0.701600 0.054100 0.619000
C134 C 0.791400 0.143000 0.774800
H135 H 0.868500 0.144000 0.824500
H136 H 0.810500 0.229100 0.767400
C137 C 0.663600 0.105800 0.816800
H138 H 0.678500 0.163300 0.887300
H139 H 0.589400 0.115800 0.771700
C140 C 0.622700 -0.029700 0.821600
H141 H 0.535300 -0.052400 0.843300
H142 H 0.690900 -0.037200 0.874000
C143 C 0.609900 -0.121300 0.716200
H144 H 0.589400 -0.207900 0.722600
H145 H 0.534400 -0.121200 0.665600
C146 C 0.739800 -0.084300 0.676200
H147 H 0.814000 -0.091100 0.723600
H148 H 0.727800 -0.142800 0.606700
C149 C 0.949000 0.209300 0.613200
H150 H 0.874300 0.220300 0.571000
H151 H 1.024000 0.216700 0.577100
H152 H 0.979000 0.274500 0.680500
N153 N 0.096300 0.917000 0.370300
H154 H 0.028700 0.922000 0.324000
H155 H 0.108400 0.976800 0.432300
C156 C 0.224400 0.950300 0.330400
H157 H 0.298400 0.945900 0.381000
C158 C 0.208600 0.857000 0.225200
H159 H 0.131500 0.856000 0.175500
H160 H 0.189500 0.770900 0.232600
C161 C 0.336400 0.894200 0.183200
H162 H 0.321500 0.836700 0.112700
H163 H 0.410600 0.884200 0.228300
C164 C 0.377300 1.029700 0.178400
H165 H 0.464700 1.052400 0.156700
H166 H 0.309100 1.037200 0.126000
C167 C 0.390100 1.121300 0.283800
H168 H 0.410600 1.207900 0.277400
H169 H 0.465600 1.121200 0.334400
C170 C 0.260200 1.084300 0.323800
H171 H 0.186000 1.091100 0.276400
H172 H 0.272200 1.142800 0.393300
C173 C 0.051000 0.790700 0.386800
H174 H 0.125700 0.779700 0.429000
H175 H -0.024000 0.783300 0.422900
H176 H 0.021000 0.725500 0.319500

#END
