./ABAFUG_from_xyz.cif_generated_by_CrystalShift
_symmetry_cell_setting triclinic
_symmetry_space_group_name_H-M 'P 1'
loop_
_symmetry_equiv_pos_site_id
_symmetry_equiv_pos_as_xyz
1 x,y,z
_cell_length_a 6.369900
_cell_length_b 10.608400
_cell_length_c 10.813900
_cell_angle_alpha 70.059000
_cell_angle_beta 79.455000
_cell_angle_gamma 78.869000
_cell_volume 668.548669
loop_
_atom_site_label
_atom_site_type_symbol
_atom_site_fract_x
_atom_site_fract_y
_atom_site_fract_z
O1 O 1.046020 0.501440 0.168220
N2 N 0.488000 0.224130 0.230130
N3 N 0.158000 0.135700 0.674360
C4 C 0.619900 0.293640 0.266110
C5 C 0.780500 0.368870 0.188020
H6 H 0.817300 0.377900 0.096500
C7 C 0.884500 0.429980 0.249160
C8 C 0.827800 0.419700 0.383500
H9 H 0.900800 0.463400 0.422800
C10 C 0.665200 0.345760 0.458780
H11 H 0.626100 0.339200 0.549600
C12 C 0.559000 0.281040 0.401160
C13 C 0.383600 0.201160 0.444660
C14 C 0.345300 0.166980 0.339860
C15 C 0.185300 0.082980 0.336210
H16 H 0.212000 0.065700 0.250800
H17 H 0.039200 0.131400 0.347200
H18 H 0.199600 -0.003300 0.408200
C19 C 1.175900 0.555220 0.228290
H20 H 1.086200 0.625400 0.262200
H21 H 1.292500 0.594700 0.162000
H22 H 1.237700 0.482300 0.301600
C23 C 0.260100 0.163960 0.572170
C24 C 0.511400 0.205220 0.102100
C25 C 0.343900 0.257400 0.024780
H26 H 0.217100 0.308800 0.053900
C27 C 0.364300 0.233460 -0.095570
H28 H 0.248800 0.265500 -0.148000
C29 C 0.553000 0.162870 -0.139110
H30 H 0.566600 0.147200 -0.221800
C31 C 0.721800 0.114960 -0.063580
H32 H 0.852200 0.068400 -0.095200
C33 C 0.700100 0.135190 0.058890
H34 H 0.814200 0.101100 0.112300
O35 O -0.046020 0.498560 0.831780
N36 N 0.512000 0.775870 0.769870
N37 N 0.842000 0.864300 0.325640
C38 C 0.380100 0.706360 0.733890
C39 C 0.219500 0.631130 0.811980
H40 H 0.182700 0.622100 0.903500
C41 C 0.115500 0.570020 0.750840
C42 C 0.172200 0.580300 0.616500
H43 H 0.099200 0.536600 0.577200
C44 C 0.334800 0.654240 0.541220
H45 H 0.373900 0.660800 0.450400
C46 C 0.441000 0.718960 0.598840
C47 C 0.616400 0.798840 0.555340
C48 C 0.654700 0.833020 0.660140
C49 C 0.814700 0.917020 0.663790
H50 H 0.788000 0.934300 0.749200
H51 H 0.960800 0.868600 0.652800
H52 H 0.800400 1.003300 0.591800
C53 C -0.175900 0.444780 0.771710
H54 H -0.086200 0.374600 0.737800
H55 H -0.292500 0.405300 0.838000
H56 H -0.237700 0.517700 0.698400
C57 C 0.739900 0.836040 0.427830
C58 C 0.488600 0.794780 0.897900
C59 C 0.656100 0.742600 0.975220
H60 H 0.782900 0.691200 0.946100
C61 C 0.635700 0.766540 1.095570
H62 H 0.751200 0.734500 1.148000
C63 C 0.447000 0.837130 1.139110
H64 H 0.433400 0.852800 1.221800
C65 C 0.278200 0.885040 1.063580
H66 H 0.147800 0.931600 1.095200
C67 C 0.299900 0.864810 0.941110
H68 H 0.185800 0.898900 0.887700

#END
