./ABAHER_from_xyz.cif_generated_by_CrystalShift
_symmetry_cell_setting triclinic
_symmetry_space_group_name_H-M 'P 1'
loop_
_symmetry_equiv_pos_site_id
_symmetry_equiv_pos_as_xyz
1 x,y,z
_cell_length_a 10.397000
_cell_length_b 10.691700
_cell_length_c 13.886200
_cell_angle_alpha 81.785000
_cell_angle_beta 78.731000
_cell_angle_gamma 88.759000
_cell_volume 1498.287196
loop_
_atom_site_label
_atom_site_type_symbol
_atom_site_fract_x
_atom_site_fract_y
_atom_site_fract_z
O1 O -0.053800 0.778900 0.261980
N2 N 0.193700 1.110100 0.158300
H3 H 0.197900 1.186400 0.170300
C4 C 0.325000 0.804300 0.137300
H5 H 0.297300 0.728300 0.122500
C6 C 0.447300 0.815500 0.158000
H7 H 0.503000 0.746200 0.157500
C8 C 0.489400 0.929100 0.179900
H9 H 0.573500 0.934800 0.192500
C10 C 0.410500 1.031200 0.183300
H11 H 0.438900 1.106000 0.199500
C12 C 0.289600 1.022300 0.162800
C13 C 0.242500 0.909000 0.138600
C14 C 0.115000 0.936700 0.117600
C15 C 0.089600 1.057400 0.131500
H16 H 0.012100 1.099300 0.123900
C17 C 0.019400 0.852600 0.089500
H18 H -0.045400 0.909700 0.064500
C19 C 0.073700 0.775200 0.004300
H20 H 0.126200 0.706500 0.031200
C21 C -0.041200 0.714600 -0.025300
H22 H -0.087300 0.779400 -0.061400
H23 H -0.007700 0.653900 -0.069600
C24 C -0.135200 0.649700 0.061100
H25 H -0.193500 0.591500 0.049400
C26 C -0.141000 0.669600 0.153800
C27 C -0.057900 0.765800 0.175700
C28 C 0.161800 0.850600 -0.081900
C29 C 0.282300 0.811500 -0.115600
H30 H 0.309200 0.845900 -0.184300
H31 H 0.283000 0.720900 -0.109000
C32 C 0.111400 0.971600 -0.129200
H33 H 0.176900 1.008200 -0.184200
H34 H 0.091900 1.029300 -0.081400
H35 H 0.033200 0.954800 -0.152400
C36 C -0.235400 0.599100 0.239900
H37 H -0.289000 0.543400 0.215600
H38 H -0.290300 0.658300 0.274500
H39 H -0.187100 0.550500 0.284400
O40 O 0.249500 1.069100 0.552200
N41 N 0.135800 0.787400 0.409300
H42 H 0.123100 0.785500 0.350200
C43 C 0.036500 0.740400 0.670900
H44 H 0.073700 0.752600 0.724600
C45 C -0.088600 0.692500 0.685400
H46 H -0.135800 0.671400 0.749700
C47 C -0.145100 0.675100 0.607000
H48 H -0.230300 0.643500 0.619600
C49 C -0.080200 0.702800 0.510500
H50 H -0.119100 0.690300 0.457700
C51 C 0.046300 0.750400 0.495300
C52 C 0.106400 0.770400 0.573900
C53 C 0.234700 0.818700 0.532800
C54 C 0.247200 0.827400 0.432900
H55 H 0.321800 0.856700 0.387000
C56 C 0.329200 0.862500 0.590900
H57 H 0.296500 0.826900 0.660200
C58 C 0.470000 0.813900 0.564400
H59 H 0.504700 0.849300 0.495400
C60 C 0.557000 0.862200 0.627500
H61 H 0.544400 0.808300 0.691000
H62 H 0.647900 0.854800 0.595200
C63 C 0.532500 0.995200 0.645200
H64 H 0.595200 1.034100 0.670500
C65 C 0.430300 1.062300 0.628500
C66 C 0.330000 1.005400 0.588500
C67 C 0.477400 0.672400 0.570400
C68 C 0.541900 0.618300 0.495900
H69 H 0.556300 0.678600 0.436600
H70 H 0.624900 0.588700 0.510400
C71 C 0.409100 0.593700 0.663900
H72 H 0.423600 0.505800 0.658400
H73 H 0.316700 0.610500 0.674000
H74 H 0.443300 0.614400 0.719100
C75 C 0.410000 1.198600 0.646500
H76 H 0.488300 1.230300 0.661700
H77 H 0.338300 1.203100 0.701100
H78 H 0.390600 1.248700 0.588000
O79 O 0.807600 0.040200 0.992100
N80 N 0.922000 0.332200 1.146500
H81 H 0.946500 0.341700 1.200700
C82 C 0.976200 0.353300 0.885000
H83 H 0.930400 0.333400 0.838000
C84 C 1.099700 0.404300 0.856200
H85 H 1.136500 0.420200 0.789000
C86 C 1.171500 0.432700 0.924500
H87 H 1.255900 0.465500 0.902400
C88 C 1.120200 0.413400 1.023500
H89 H 1.167600 0.433700 1.069500
C90 C 0.994300 0.362400 1.053500
C91 C 0.919800 0.331700 0.985300
C92 C 0.796800 0.281200 1.044200
C93 C 0.804100 0.284200 1.139400
H94 H 0.737600 0.257100 1.193200
C95 C 0.683300 0.228200 1.010100
H96 H 0.614700 0.210700 1.069800
C97 C 0.619400 0.315200 0.935800
H98 H 0.682400 0.326500 0.872700
C99 C 0.498400 0.250800 0.918200
H100 H 0.428600 0.251600 0.975700
H101 H 0.469100 0.298500 0.861700
C102 C 0.523400 0.116500 0.899200
H103 H 0.464100 0.079000 0.869800
C104 C 0.623000 0.048400 0.921400
C105 C 0.714100 0.101000 0.974500
C106 C 0.586000 0.444800 0.963200
C107 C 0.623000 0.546100 0.899100
H108 H 0.567800 0.615700 0.916900
H109 H 0.712400 0.566200 0.899600
C110 C 0.506700 0.455200 1.062000
H111 H 0.477800 0.540800 1.064400
H112 H 0.558800 0.431600 1.111600
H113 H 0.431900 0.400000 1.074500
C114 C 0.645400 -0.083900 0.899600
H115 H 0.583400 -0.104900 0.861400
H116 H 0.634200 -0.140800 0.960800
H117 H 0.732900 -0.091200 0.862800
O118 O 1.124300 0.356300 0.275200
N119 N 0.900300 0.020600 0.368200
H120 H 0.916300 -0.054700 0.354100
C121 C 0.691200 0.279900 0.409000
H122 H 0.699400 0.360100 0.425700
C123 C 0.572200 0.238600 0.394700
H124 H 0.500500 0.292300 0.402000
C125 C 0.556500 0.119900 0.369900
H126 H 0.475000 0.094300 0.361400
C127 C 0.662100 0.039800 0.358000
H128 H 0.653000 -0.039800 0.340400
C129 C 0.783700 0.079700 0.372600
C130 C 0.797000 0.200800 0.398100
C131 C 0.931400 0.210300 0.408400
C132 C 0.988100 0.099000 0.389500
H133 H 1.075300 0.079200 0.391000
C134 C 0.995200 0.319400 0.439200
H135 H 0.930700 0.387600 0.443300
C136 C 1.028200 0.286500 0.542100
H137 H 1.093200 0.218700 0.538100
C138 C 1.093900 0.400600 0.569400
H139 H 1.027800 0.463600 0.586100
H140 H 1.131400 0.373500 0.627700
C141 C 1.197600 0.458100 0.488300
H142 H 1.258900 0.509200 0.504800
C143 C 1.211100 0.443300 0.393500
C144 C 1.112400 0.369600 0.362400
C145 C 0.912000 0.236700 0.620100
C146 C 0.916600 0.114500 0.666400
H147 H 0.847300 0.101100 0.723700
H148 H 0.999600 0.100300 0.686400
H149 H 0.906200 0.056900 0.621300
C150 C 0.804200 0.313200 0.645200
H151 H 0.772200 0.346600 0.586400
H152 H 0.829700 0.381600 0.675500
C153 C 1.319700 0.503500 0.313900
H154 H 1.365300 0.563900 0.340100
H155 H 1.283600 0.545400 0.259400
H156 H 1.379800 0.439600 0.291200
H157 H 0.341600 0.839600 -0.078100
H158 H 0.491700 0.548300 0.486600
H159 H 0.615800 0.530600 0.833900
H160 H 0.736300 0.264200 0.690900

#END
