./ABAHIW_from_xyz.cif_generated_by_CrystalShift
_symmetry_cell_setting triclinic
_symmetry_space_group_name_H-M 'P 1'
loop_
_symmetry_equiv_pos_site_id
_symmetry_equiv_pos_as_xyz
1 x,y,z
_cell_length_a 6.729000
_cell_length_b 7.192000
_cell_length_c 10.388000
_cell_angle_alpha 94.751000
_cell_angle_beta 92.503000
_cell_angle_gamma 95.901000
_cell_volume 497.653721
loop_
_atom_site_label
_atom_site_type_symbol
_atom_site_fract_x
_atom_site_fract_y
_atom_site_fract_z
O1 O 0.245040 0.352300 0.128800
O2 O 0.301600 0.129960 0.262130
O3 O 0.202300 0.790140 0.771750
O4 O 0.238200 1.009390 0.642830
N5 N 0.227800 0.844400 0.664340
C6 C 0.253500 0.384500 0.477500
H7 H 0.254000 0.255900 0.492200
C8 C 0.242100 0.517600 0.580750
H9 H 0.232500 0.481800 0.666500
C10 C 0.245000 0.703200 0.555690
C11 C 0.258600 0.762700 0.432410
H12 H 0.261800 0.891900 0.418600
C13 C 0.267200 0.627500 0.329760
H14 H 0.275200 0.663800 0.244100
C15 C 0.264200 0.439300 0.351980
C16 C 0.273200 0.289000 0.244320
C17 C 0.239100 0.216700 0.013850
H18 H 0.202700 0.087000 0.039200
C19 C 0.443200 0.229300 -0.040280
H20 H 0.476600 0.355100 -0.068200
H21 H 0.443500 0.135800 -0.114500
H22 H 0.542400 0.205200 0.026500
C23 C 0.076900 0.268900 -0.076520
H24 H -0.049700 0.263800 -0.033100
H25 H 0.062400 0.180600 -0.154300
H26 H 0.112500 0.396300 -0.101000
O27 O 0.754960 0.647700 0.871200
O28 O 0.698400 0.870040 0.737870
O29 O 0.797700 0.209860 0.228250
O30 O 0.761800 -0.009390 0.357170
N31 N 0.772200 0.155600 0.335660
C32 C 0.746500 0.615500 0.522500
H33 H 0.746000 0.744100 0.507800
C34 C 0.757900 0.482400 0.419250
H35 H 0.767500 0.518200 0.333500
C36 C 0.755000 0.296800 0.444310
C37 C 0.741400 0.237300 0.567590
H38 H 0.738200 0.108100 0.581400
C39 C 0.732800 0.372500 0.670240
H40 H 0.724800 0.336200 0.755900
C41 C 0.735800 0.560700 0.648020
C42 C 0.726800 0.711000 0.755680
C43 C 0.760900 0.783300 0.986150
H44 H 0.797300 0.913000 0.960800
C45 C 0.556800 0.770700 1.040280
H46 H 0.523400 0.644900 1.068200
H47 H 0.556500 0.864200 1.114500
H48 H 0.457600 0.794800 0.973500
C49 C 0.923100 0.731100 1.076520
H50 H 1.049700 0.736200 1.033100
H51 H 0.937600 0.819400 1.154300
H52 H 0.887500 0.603700 1.101000

#END
