
#######################################################################
#
#                 Cambridge Crystallographic Data Centre
#                                CCDC 
#
#######################################################################
#
# If this CIF has been generated from an entry in the Cambridge 
# Structural Database, then it will include bibliographic, chemical, 
# crystal, experimental, refinement or atomic coordinate data resulting 
# from the CCDC's data processing and validation procedures.
#
#######################################################################

data_ABAJEV
_symmetry_cell_setting           monoclinic
_symmetry_space_group_name_H-M   'P 21/n'
_symmetry_Int_Tables_number      14
_space_group_name_Hall           '-P 2yn'
loop_
_symmetry_equiv_pos_site_id
_symmetry_equiv_pos_as_xyz
1 x,y,z
2 1/2-x,1/2+y,1/2-z
3 -x,-y,-z
4 1/2+x,1/2-y,1/2+z
_cell_length_a                   15.524(2)
_cell_length_b                   8.8113(11)
_cell_length_c                   15.794(2)
_cell_angle_alpha                90
_cell_angle_beta                 109.072(12)
_cell_angle_gamma                90
_cell_volume                     2041.82
loop_
_atom_site_label
_atom_site_type_symbol
_atom_site_fract_x
_atom_site_fract_y
_atom_site_fract_z
Cl1 Cl 0.71298(3) 0.59876(4) 0.80725(3)
Cl1 Cl 0.78702(3) 0.09876(4) 0.69275(3)
Cl1 Cl 0.28702(3) 0.40124(4) 0.19275(3)
Cl1 Cl 0.21298(3) 0.90124(4) 0.30725(3)
N1 N 0.49295(8) 1.00506(14) 0.71449(7)
C1 C 0.41662(10) 1.06112(17) 0.72777(9)
C2 C 0.41323(11) 1.21618(18) 0.74549(10)
H1 H 0.3618 1.2564 0.7551
N2 N 0.34777(9) 0.96967(16) 0.72386(10)
H2 H 0.3458(10) 0.8731(17) 0.7204(10)
H3 H 0.2999(11) 1.0077(19) 0.7303(10)
C3 C 0.48369(13) 1.3079(2) 0.74884(11)
H4 H 0.4813 1.4103 0.7622
C4 C 0.56048(13) 1.2495(2) 0.73230(12)
H5 H 0.6088 1.3125 0.7329
C5 C 0.56274(10) 1.1004(2) 0.71553(10)
H6 H 0.6134 1.0608 0.7043
C6 C 0.50206(9) 0.84365(17) 0.69702(10)
H7 H 0.4721 0.7848 0.7312
H8 H 0.5662 0.8170 0.7182
C7 C 0.46263(10) 0.8004(2) 0.60020(11)
C8 C 0.42565(11) 0.8991(2) 0.53636(12)
H9 H 0.4019 0.8669 0.4772
H10 H 0.4232 1.0012 0.5503
C9 C 0.46965(13) 0.6340(2) 0.58410(12)
H11 H 0.4431 0.6131 0.5213
H12 H 0.4378 0.5780 0.6167
H13 H 0.5326 0.6044 0.6040
N1 N 0.00705(8) 0.50506(14) 0.78551(7)
C1 C 0.08338(10) 0.56112(17) 0.77223(9)
C2 C 0.08677(11) 0.71618(18) 0.75451(10)
H1 H 0.1382 0.7564 0.7449
N2 N 0.15223(9) 0.46967(16) 0.77614(10)
H2 H 0.1542(10) 0.3731(17) 0.7796(10)
H3 H 0.2001(11) 0.5077(19) 0.7697(10)
C3 C 0.01631(13) 0.8079(2) 0.75116(11)
H4 H 0.0187 0.9103 0.7378
C4 C -0.06048(13) 0.7495(2) 0.76770(12)
H5 H -0.1088 0.8125 0.7671
C5 C -0.06274(10) 0.6004(2) 0.78447(10)
H6 H -0.1134 0.5608 0.7957
C6 C -0.00206(9) 0.34365(17) 0.80298(10)
H7 H 0.0279 0.2848 0.7688
H8 H -0.0662 0.3170 0.7818
C7 C 0.03737(10) 0.3004(2) 0.89980(11)
C8 C 0.07435(11) 0.3991(2) 0.96364(12)
H9 H 0.0981 0.3669 1.0228
H10 H 0.0768 0.5012 0.9497
C9 C 0.03035(13) 0.1340(2) 0.91590(12)
H11 H 0.0569 0.1131 0.9787
H12 H 0.0622 0.0780 0.8833
H13 H -0.0326 0.1044 0.8960
N1 N 0.50705(8) -0.00506(14) 0.28551(7)
C1 C 0.58338(10) -0.06112(17) 0.27223(9)
C2 C 0.58677(11) -0.21618(18) 0.25451(10)
H1 H 0.6382 -0.2564 0.2449
N2 N 0.65223(9) 0.03033(16) 0.27614(10)
H2 H 0.6542(10) 0.1269(17) 0.2796(10)
H3 H 0.7001(11) -0.0077(19) 0.2697(10)
C3 C 0.51631(13) -0.3079(2) 0.25116(11)
H4 H 0.5187 -0.4103 0.2378
C4 C 0.43952(13) -0.2495(2) 0.26770(12)
H5 H 0.3912 -0.3125 0.2671
C5 C 0.43726(10) -0.1004(2) 0.28447(10)
H6 H 0.3866 -0.0608 0.2957
C6 C 0.49794(9) 0.15635(17) 0.30298(10)
H7 H 0.5279 0.2152 0.2688
H8 H 0.4338 0.1830 0.2818
C7 C 0.53737(10) 0.1996(2) 0.39980(11)
C8 C 0.57435(11) 0.1009(2) 0.46364(12)
H9 H 0.5981 0.1331 0.5228
H10 H 0.5768 -0.0012 0.4497
C9 C 0.53035(13) 0.3660(2) 0.41590(12)
H11 H 0.5569 0.3869 0.4787
H12 H 0.5622 0.4220 0.3833
H13 H 0.4674 0.3956 0.3960
N1 N 0.99295(8) 0.49494(14) 0.21449(7)
C1 C 0.91662(10) 0.43888(17) 0.22777(9)
C2 C 0.91323(11) 0.28382(18) 0.24549(10)
H1 H 0.8618 0.2436 0.2551
N2 N 0.84777(9) 0.53033(16) 0.22386(10)
H2 H 0.8458(10) 0.6269(17) 0.2204(10)
H3 H 0.7999(11) 0.4923(19) 0.2303(10)
C3 C 0.98369(13) 0.1921(2) 0.24884(11)
H4 H 0.9813 0.0897 0.2622
C4 C 1.06048(13) 0.2505(2) 0.23230(12)
H5 H 1.1088 0.1875 0.2329
C5 C 1.06274(10) 0.3996(2) 0.21553(10)
H6 H 1.1134 0.4392 0.2043
C6 C 1.00206(9) 0.65635(17) 0.19702(10)
H7 H 0.9721 0.7152 0.2312
H8 H 1.0662 0.6830 0.2182
C7 C 0.96263(10) 0.6996(2) 0.10020(11)
C8 C 0.92565(11) 0.6009(2) 0.03636(12)
H9 H 0.9019 0.6331 -0.0228
H10 H 0.9232 0.4988 0.0503
C9 C 0.96965(13) 0.8660(2) 0.08410(12)
H11 H 0.9431 0.8869 0.0213
H12 H 0.9378 0.9220 0.1167
H13 H 1.0326 0.8956 0.1040
Cl2 Cl 0.32920(3) 0.61560(4) 0.75247(3)
Cl2 Cl 0.17080(3) 0.11560(4) 0.74753(3)
Cl2 Cl 0.67080(3) 0.38440(4) 0.24753(3)
Cl2 Cl 0.82920(3) 0.88440(4) 0.25247(3)
N3 N 0.72553(8) 0.99539(14) 0.99511(8)
C10 C 0.74809(10) 1.04233(18) 0.92366(10)
N4 N 0.75816(10) 0.94366(16) 0.86417(9)
H14 H 0.7432(10) 0.8479(17) 0.8641(10)
H15 H 0.7713(10) 0.9830(18) 0.8205(10)
C11 C 0.76025(10) 1.19810(19) 0.91418(11)
H16 H 0.7777 1.2325 0.8665
C12 C 0.74723(11) 1.2986(2) 0.97262(12)
H17 H 0.7547 1.4018 0.9647
C13 C 0.72243(12) 1.2482(2) 1.04547(11)
H18 H 0.7125 1.3166 1.0862
C14 C 0.71335(10) 1.0988(2) 1.05493(10)
H19 H 0.6982 1.0639 1.1038
C15 C 0.70587(11) 0.83528(17) 1.00767(10)
H20 H 0.7266 0.8126 1.0713
H21 H 0.7401 0.7718 0.9798
C16 C 0.60703(12) 0.7963(2) 0.96913(11)
C17 C 0.54365(12) 0.8948(2) 0.92918(11)
H22 H 0.4831 0.8642 0.9064
H23 H 0.5592 0.9953 0.9236
C18 C 0.58628(14) 0.6341(2) 0.98004(14)
H24 H 0.5218 0.6174 0.9543
H25 H 0.6057 0.6090 1.0426
H26 H 0.6179 0.5711 0.9502
N3 N 0.77447(8) 0.49539(14) 0.50489(8)
C10 C 0.75191(10) 0.54233(18) 0.57634(10)
N4 N 0.74184(10) 0.44366(16) 0.63583(9)
H14 H 0.7568(10) 0.3479(17) 0.6359(10)
H15 H 0.7287(10) 0.4830(18) 0.6795(10)
C11 C 0.73975(10) 0.69810(19) 0.58582(11)
H16 H 0.7223 0.7325 0.6335
C12 C 0.75277(11) 0.7986(2) 0.52738(12)
H17 H 0.7453 0.9018 0.5353
C13 C 0.77757(12) 0.7482(2) 0.45453(11)
H18 H 0.7875 0.8166 0.4138
C14 C 0.78665(10) 0.5988(2) 0.44507(10)
H19 H 0.8018 0.5639 0.3962
C15 C 0.79413(11) 0.33528(17) 0.49233(10)
H20 H 0.7734 0.3126 0.4287
H21 H 0.7599 0.2718 0.5202
C16 C 0.89297(12) 0.2963(2) 0.53087(11)
C17 C 0.95635(12) 0.3948(2) 0.57082(11)
H22 H 1.0169 0.3642 0.5936
H23 H 0.9408 0.4953 0.5764
C18 C 0.91372(14) 0.1341(2) 0.51996(14)
H24 H 0.9782 0.1174 0.5457
H25 H 0.8943 0.1090 0.4574
H26 H 0.8821 0.0711 0.5498
N3 N 0.27447(8) 0.00461(14) 0.00489(8)
C10 C 0.25191(10) -0.04233(18) 0.07634(10)
N4 N 0.24184(10) 0.05634(16) 0.13583(9)
H14 H 0.2568(10) 0.1521(17) 0.1359(10)
H15 H 0.2287(10) 0.0170(18) 0.1795(10)
C11 C 0.23975(10) -0.19810(19) 0.08582(11)
H16 H 0.2223 -0.2325 0.1335
C12 C 0.25277(11) -0.2986(2) 0.02738(12)
H17 H 0.2453 -0.4018 0.0353
C13 C 0.27757(12) -0.2482(2) -0.04547(11)
H18 H 0.2875 -0.3166 -0.0862
C14 C 0.28665(10) -0.0988(2) -0.05493(10)
H19 H 0.3018 -0.0639 -0.1038
C15 C 0.29413(11) 0.16472(17) -0.00767(10)
H20 H 0.2734 0.1874 -0.0713
H21 H 0.2599 0.2282 0.0202
C16 C 0.39297(12) 0.2037(2) 0.03087(11)
C17 C 0.45635(12) 0.1052(2) 0.07082(11)
H22 H 0.5169 0.1358 0.0936
H23 H 0.4408 0.0047 0.0764
C18 C 0.41372(14) 0.3659(2) 0.01996(14)
H24 H 0.4782 0.3826 0.0457
H25 H 0.3943 0.3910 -0.0426
H26 H 0.3821 0.4289 0.0498
N3 N 0.22553(8) 0.50461(14) 0.49511(8)
C10 C 0.24809(10) 0.45767(18) 0.42366(10)
N4 N 0.25816(10) 0.55634(16) 0.36417(9)
H14 H 0.2432(10) 0.6521(17) 0.3641(10)
H15 H 0.2713(10) 0.5170(18) 0.3205(10)
C11 C 0.26025(10) 0.30190(19) 0.41418(11)
H16 H 0.2777 0.2675 0.3665
C12 C 0.24723(11) 0.2014(2) 0.47262(12)
H17 H 0.2547 0.0982 0.4647
C13 C 0.22243(12) 0.2518(2) 0.54547(11)
H18 H 0.2125 0.1834 0.5862
C14 C 0.21335(10) 0.4012(2) 0.55493(10)
H19 H 0.1982 0.4361 0.6038
C15 C 0.20587(11) 0.66472(17) 0.50767(10)
H20 H 0.2266 0.6874 0.5713
H21 H 0.2401 0.7282 0.4798
C16 C 0.10703(12) 0.7037(2) 0.46913(11)
C17 C 0.04365(12) 0.6052(2) 0.42918(11)
H22 H -0.0169 0.6358 0.4064
H23 H 0.0592 0.5047 0.4236
C18 C 0.08628(14) 0.8659(2) 0.48004(14)
H24 H 0.0218 0.8826 0.4543
H25 H 0.1057 0.8910 0.5426
H26 H 0.1179 0.9289 0.4502

#END
