./ABAKEV01_from_xyz.cif_generated_by_CrystalShift
_symmetry_cell_setting triclinic
_symmetry_space_group_name_H-M 'P 1'
loop_
_symmetry_equiv_pos_site_id
_symmetry_equiv_pos_as_xyz
1 x,y,z
_cell_length_a 3.950000
_cell_length_b 8.915000
_cell_length_c 22.569000
_cell_angle_alpha 90.000000
_cell_angle_beta 90.000000
_cell_angle_gamma 90.000000
_cell_volume 794.750408
loop_
_atom_site_label
_atom_site_type_symbol
_atom_site_fract_x
_atom_site_fract_y
_atom_site_fract_z
N1 N 0.507900 0.768000 0.098570
O2 O 0.074400 1.028400 0.184500
C3 C 0.242900 0.968800 0.146700
H4 H 0.315900 1.027700 0.115200
C5 C 0.341700 0.809900 0.146800
C6 C 0.265800 0.714100 0.193900
H7 H 0.152700 0.749600 0.227200
C8 C 0.359900 0.568600 0.190000
H9 H 0.310900 0.502900 0.220900
C10 C 0.531500 0.516700 0.139700
C11 C 0.595200 0.621600 0.094600
C12 C 0.766400 0.571100 0.043400
H13 H 0.814800 0.638100 0.012900
C14 C 0.860900 0.424400 0.038300
H15 H 0.971200 0.392400 0.004200
C16 C 0.795200 0.321300 0.083500
H17 H 0.862800 0.222000 0.079400
C18 C 0.633300 0.366300 0.133200
H19 H 0.588800 0.297600 0.163200
N20 N 0.992100 0.232000 0.598570
O21 O 1.425600 -0.028400 0.684500
C22 C 1.257100 0.031200 0.646700
H23 H 1.184100 -0.027700 0.615200
C24 C 1.158300 0.190100 0.646800
C25 C 1.234200 0.285900 0.693900
H26 H 1.347300 0.250400 0.727200
C27 C 1.140100 0.431400 0.690000
H28 H 1.189100 0.497100 0.720900
C29 C 0.968500 0.483300 0.639700
C30 C 0.904800 0.378400 0.594600
C31 C 0.733600 0.428900 0.543400
H32 H 0.685200 0.361900 0.512900
C33 C 0.639100 0.575600 0.538300
H34 H 0.528800 0.607600 0.504200
C35 C 0.704800 0.678700 0.583500
H36 H 0.637200 0.778000 0.579400
C37 C 0.866700 0.633700 0.633200
H38 H 0.911200 0.702400 0.663200
N39 N 0.007900 0.732000 0.901430
O40 O -0.425600 0.471600 0.815500
C41 C -0.257100 0.531200 0.853300
H42 H -0.184100 0.472300 0.884800
C43 C -0.158300 0.690100 0.853200
C44 C -0.234200 0.785900 0.806100
H45 H -0.347300 0.750400 0.772800
C46 C -0.140100 0.931400 0.810000
H47 H -0.189100 0.997100 0.779100
C48 C 0.031500 0.983300 0.860300
C49 C 0.095200 0.878400 0.905400
C50 C 0.266400 0.928900 0.956600
H51 H 0.314800 0.861900 0.987100
C52 C 0.360900 1.075600 0.961700
H53 H 0.471200 1.107600 0.995800
C54 C 0.295200 1.178700 0.916500
H55 H 0.362800 1.278000 0.920600
C56 C 0.133300 1.133700 0.866800
H57 H 0.088800 1.202400 0.836800
N58 N 0.492100 0.268000 0.401430
O59 O 0.925600 0.528400 0.315500
C60 C 0.757100 0.468800 0.353300
H61 H 0.684100 0.527700 0.384800
C62 C 0.658300 0.309900 0.353200
C63 C 0.734200 0.214100 0.306100
H64 H 0.847300 0.249600 0.272800
C65 C 0.640100 0.068600 0.310000
H66 H 0.689100 0.002900 0.279100
C67 C 0.468500 0.016700 0.360300
C68 C 0.404800 0.121600 0.405400
C69 C 0.233600 0.071100 0.456600
H70 H 0.185200 0.138100 0.487100
C71 C 0.139100 -0.075600 0.461700
H72 H 0.028800 -0.107600 0.495800
C73 C 0.204800 -0.178700 0.416500
H74 H 0.137200 -0.278000 0.420600
C75 C 0.366700 -0.133700 0.366800
H76 H 0.411200 -0.202400 0.336800

#END
