
#######################################################################
#
#                 Cambridge Crystallographic Data Centre
#                                CCDC 
#
#######################################################################
#
# If this CIF has been generated from an entry in the Cambridge 
# Structural Database, then it will include bibliographic, chemical, 
# crystal, experimental, refinement or atomic coordinate data resulting 
# from the CCDC's data processing and validation procedures.
#
#######################################################################

data_ABAKAS
_symmetry_cell_setting           triclinic
_symmetry_space_group_name_H-M   'P -1'
_symmetry_Int_Tables_number      2
_space_group_name_Hall           '-P 1'
loop_
_symmetry_equiv_pos_site_id
_symmetry_equiv_pos_as_xyz
1 x,y,z
2 -x,-y,-z
_cell_length_a                   7.6301(3)
_cell_length_b                   10.0432(4)
_cell_length_c                   10.1426(4)
_cell_angle_alpha                97.3860(10)
_cell_angle_beta                 91.6630(10)
_cell_angle_gamma                94.2410(10)
_cell_volume                     768.091
loop_
_atom_site_label
_atom_site_type_symbol
_atom_site_fract_x
_atom_site_fract_y
_atom_site_fract_z
C1 C 0.1113(7) 0.8801(5) 0.7011(4)
C2 C -0.1559(7) 0.9330(6) 0.6292(5)
H1 H -0.2745 0.9229 0.5960
C3 C -0.0560(7) 1.0493(5) 0.6626(5)
H2 H -0.0906 1.1375 0.6576
C4 C -0.1039(7) 0.6858(5) 0.6217(5)
H3 H -0.2256 0.6677 0.6497
H4 H -0.0257 0.6340 0.6717
C5 C -0.0945(7) 0.6414(5) 0.4774(5)
C6 C 0.2576(8) 1.1127(6) 0.7471(5)
H5 H 0.3102 1.0926 0.8309
H6 H 0.2179 1.2039 0.7596
H7 H 0.3453 1.1065 0.6783
C7 C 0.4845(7) 0.5336(5) 0.7977(5)
H8 H 0.3849 0.4920 0.7458
C8 C 0.6081(8) 0.4531(5) 0.8417(5)
H9 H 0.5919 0.3578 0.8221
C9 C 0.7550(8) 0.5135(6) 0.9144(5)
H10 H 0.8425 0.4604 0.9441
C10 C 0.7734(7) 0.6523(6) 0.9435(5)
H11 H 0.8735 0.6960 0.9933
C11 C 0.6429(7) 0.7264(5) 0.8988(5)
H12 H 0.6546 0.8216 0.9204
N1 N -0.0506(6) 0.8306(4) 0.6531(4)
N2 N 0.1076(6) 1.0157(4) 0.7060(4)
N3 N -0.0922(7) 0.6074(5) 0.3657(5)
N4 N 0.5011(6) 0.6693(4) 0.8262(4)
I1 I 0.38715(5) 0.71698(4) 0.51489(3)
I2 I 0.23385(5) 0.86105(3) 1.00710(3)
Pt1 Pt 0.30400(2) 0.781062(16) 0.760895(14)
C1 C 0.8887(7) 0.1199(5) 0.2989(4)
C2 C 1.1559(7) 0.0670(6) 0.3708(5)
H1 H 1.2745 0.0771 0.4040
C3 C 1.0560(7) -0.0493(5) 0.3374(5)
H2 H 1.0906 -0.1375 0.3424
C4 C 1.1039(7) 0.3142(5) 0.3783(5)
H3 H 1.2256 0.3323 0.3503
H4 H 1.0257 0.3660 0.3283
C5 C 1.0945(7) 0.3586(5) 0.5226(5)
C6 C 0.7424(8) -0.1127(6) 0.2529(5)
H5 H 0.6898 -0.0926 0.1691
H6 H 0.7821 -0.2039 0.2404
H7 H 0.6547 -0.1065 0.3217
C7 C 0.5155(7) 0.4664(5) 0.2023(5)
H8 H 0.6151 0.5080 0.2542
C8 C 0.3919(8) 0.5469(5) 0.1583(5)
H9 H 0.4081 0.6422 0.1779
C9 C 0.2450(8) 0.4865(6) 0.0856(5)
H10 H 0.1575 0.5396 0.0559
C10 C 0.2266(7) 0.3477(6) 0.0565(5)
H11 H 0.1265 0.3040 0.0067
C11 C 0.3571(7) 0.2736(5) 0.1012(5)
H12 H 0.3454 0.1784 0.0796
N1 N 1.0506(6) 0.1694(4) 0.3469(4)
N2 N 0.8924(6) -0.0157(4) 0.2940(4)
N3 N 1.0922(7) 0.3926(5) 0.6343(5)
N4 N 0.4989(6) 0.3307(4) 0.1738(4)
I1 I 0.61285(5) 0.28302(4) 0.48511(3)
I2 I 0.76615(5) 0.13895(3) -0.00710(3)
Pt1 Pt 0.69600(2) 0.218938(16) 0.239105(14)

#END
