./ABAKIZ_from_xyz.cif_generated_by_CrystalShift
_symmetry_cell_setting triclinic
_symmetry_space_group_name_H-M 'P 1'
loop_
_symmetry_equiv_pos_site_id
_symmetry_equiv_pos_as_xyz
1 x,y,z
_cell_length_a 7.650400
_cell_length_b 12.498900
_cell_length_c 12.778700
_cell_angle_alpha 90.000000
_cell_angle_beta 98.375000
_cell_angle_gamma 90.000000
_cell_volume 1208.888998
loop_
_atom_site_label
_atom_site_type_symbol
_atom_site_fract_x
_atom_site_fract_y
_atom_site_fract_z
C1 C 0.296620 -0.179660 0.910750
F2 F 0.176540 0.520710 0.956800
C3 C 0.494070 -0.060630 0.829060
C4 C 0.368220 0.232700 0.869460
N5 N 0.180770 -0.195530 0.955550
C6 C 0.457220 0.328200 0.857180
H7 H 0.562400 0.326400 0.828800
C8 C 0.654620 -0.048590 0.774650
H9 H 0.638400 0.012200 0.727000
H10 H 0.667700 -0.112000 0.732700
C11 C 0.210170 0.237900 0.911780
H12 H 0.147700 0.175400 0.920100
C13 C 0.821310 -0.032520 0.853310
H14 H 0.807500 0.029000 0.896400
H15 H 0.919900 -0.021700 0.815800
H16 H 0.842000 -0.094700 0.897500
C17 C 0.536560 -0.254270 0.830290
C18 C 0.447700 0.133500 0.839210
H19 H 0.543300 0.141000 0.802400
C20 C 0.443360 -0.160380 0.855280
C21 C 0.145520 0.334290 0.941400
H22 H 0.040600 0.337400 0.970000
C23 C 0.238960 0.425700 0.927880
C24 C 0.400190 0.033070 0.857830
H25 H 0.301200 0.022800 0.891200
C26 C 0.393360 0.425210 0.886080
H27 H 0.453600 0.488500 0.877400
N28 N 0.612100 -0.328510 0.810890
C29 C 0.203380 0.320340 0.589250
F30 F 0.323460 1.020710 0.543200
C31 C 0.005930 0.439370 0.670940
C32 C 0.131780 0.732700 0.630540
N33 N 0.319230 0.304470 0.544450
C34 C 0.042780 0.828200 0.642820
H35 H -0.062400 0.826400 0.671200
C36 C -0.154620 0.451410 0.725350
H37 H -0.138400 0.512200 0.773000
H38 H -0.167700 0.388000 0.767300
C39 C 0.289830 0.737900 0.588220
H40 H 0.352300 0.675400 0.579900
C41 C -0.321310 0.467480 0.646690
H42 H -0.307500 0.529000 0.603600
H43 H -0.419900 0.478300 0.684200
H44 H -0.342000 0.405300 0.602500
C45 C -0.036560 0.245730 0.669710
C46 C 0.052300 0.633500 0.660790
H47 H -0.043300 0.641000 0.697600
C48 C 0.056640 0.339620 0.644720
C49 C 0.354480 0.834290 0.558600
H50 H 0.459400 0.837400 0.530000
C51 C 0.261040 0.925700 0.572120
C52 C 0.099810 0.533070 0.642170
H53 H 0.198800 0.522800 0.608800
C54 C 0.106640 0.925210 0.613920
H55 H 0.046400 0.988500 0.622600
N56 N -0.112100 0.171490 0.689110
C57 C 0.703380 1.179660 0.089250
F58 F 0.823460 0.479290 0.043200
C59 C 0.505930 1.060630 0.170940
C60 C 0.631780 0.767300 0.130540
N61 N 0.819230 1.195530 0.044450
C62 C 0.542780 0.671800 0.142820
H63 H 0.437600 0.673600 0.171200
C64 C 0.345380 1.048590 0.225350
H65 H 0.361600 0.987800 0.273000
H66 H 0.332300 1.112000 0.267300
C67 C 0.789830 0.762100 0.088220
H68 H 0.852300 0.824600 0.079900
C69 C 0.178690 1.032520 0.146690
H70 H 0.192500 0.971000 0.103600
H71 H 0.080100 1.021700 0.184200
H72 H 0.158000 1.094700 0.102500
C73 C 0.463440 1.254270 0.169710
C74 C 0.552300 0.866500 0.160790
H75 H 0.456700 0.859000 0.197600
C76 C 0.556640 1.160380 0.144720
C77 C 0.854480 0.665710 0.058600
H78 H 0.959400 0.662600 0.030000
C79 C 0.761040 0.574300 0.072120
C80 C 0.599810 0.966930 0.142170
H81 H 0.698800 0.977200 0.108800
C82 C 0.606640 0.574790 0.113920
H83 H 0.546400 0.511500 0.122600
N84 N 0.387900 1.328510 0.189110
C85 C 0.796620 0.679660 0.410750
F86 F 0.676540 -0.020710 0.456800
C87 C 0.994070 0.560630 0.329060
C88 C 0.868220 0.267300 0.369460
N89 N 0.680770 0.695530 0.455550
C90 C 0.957220 0.171800 0.357180
H91 H 1.062400 0.173600 0.328800
C92 C 1.154620 0.548590 0.274650
H93 H 1.138400 0.487800 0.227000
H94 H 1.167700 0.612000 0.232700
C95 C 0.710170 0.262100 0.411780
H96 H 0.647700 0.324600 0.420100
C97 C 1.321310 0.532520 0.353310
H98 H 1.307500 0.471000 0.396400
H99 H 1.419900 0.521700 0.315800
H100 H 1.342000 0.594700 0.397500
C101 C 1.036560 0.754270 0.330290
C102 C 0.947700 0.366500 0.339210
H103 H 1.043300 0.359000 0.302400
C104 C 0.943360 0.660380 0.355280
C105 C 0.645520 0.165710 0.441400
H106 H 0.540600 0.162600 0.470000
C107 C 0.738960 0.074300 0.427880
C108 C 0.900190 0.466930 0.357830
H109 H 0.801200 0.477200 0.391200
C110 C 0.893360 0.074790 0.386080
H111 H 0.953600 0.011500 0.377400
N112 N 1.112100 0.828510 0.310890

#END
