./ABALIA01_from_xyz.cif_generated_by_CrystalShift
_symmetry_cell_setting triclinic
_symmetry_space_group_name_H-M 'P 1'
loop_
_symmetry_equiv_pos_site_id
_symmetry_equiv_pos_as_xyz
1 x,y,z
_cell_length_a 10.811000
_cell_length_b 9.522000
_cell_length_c 13.612000
_cell_angle_alpha 90.000000
_cell_angle_beta 100.786000
_cell_angle_gamma 90.000000
_cell_volume 1376.495276
loop_
_atom_site_label
_atom_site_type_symbol
_atom_site_fract_x
_atom_site_fract_y
_atom_site_fract_z
N1 N 0.174810 0.462720 0.459030
H2 H 0.158200 0.484600 0.396600
N3 N 0.263830 0.537030 0.525780
O4 O -0.246050 0.025960 0.247310
H5 H -0.264700 0.055800 0.189900
O6 O 0.143890 0.321520 0.583860
O7 O 0.539510 0.832420 0.805570
H8 H 0.473800 0.812100 0.824100
O9 O 0.702070 0.954470 0.721070
C10 C -0.045000 0.171100 0.463260
H11 H -0.027300 0.154300 0.531800
C12 C -0.132200 0.089200 0.403540
H13 H -0.172600 0.017500 0.431700
C14 C -0.160600 0.112400 0.301890
C15 C -0.102600 0.222200 0.262060
H16 H -0.123300 0.241400 0.194000
C17 C -0.014400 0.303000 0.322500
H18 H 0.024500 0.375800 0.294400
C19 C 0.017870 0.278500 0.424430
C20 C 0.115280 0.355600 0.494640
C21 C 0.330800 0.622400 0.487030
H22 H 0.318500 0.629400 0.417700
C23 C 0.426800 0.710500 0.547740
C24 C 0.514200 0.778200 0.502830
H25 H 0.509500 0.769200 0.434200
C26 C 0.608700 0.859100 0.557540
H27 H 0.668000 0.902200 0.526100
C28 C 0.614700 0.875800 0.658440
C29 C 0.525380 0.810900 0.704710
C30 C 0.433250 0.727600 0.650160
H31 H 0.375100 0.682600 0.681800
C32 C 0.796000 1.024800 0.678500
H33 H 0.842600 0.957200 0.647800
H34 H 0.852200 1.074000 0.730000
H35 H 0.756400 1.090500 0.629000
N36 N 0.325190 -0.037280 1.040970
H37 H 0.341800 -0.015400 1.103400
N38 N 0.236170 0.037030 0.974220
O39 O 0.746050 -0.474040 1.252690
H40 H 0.764700 -0.444200 1.310100
O41 O 0.356110 -0.178480 0.916140
O42 O -0.039510 0.332420 0.694430
H43 H 0.026200 0.312100 0.675900
O44 O -0.202070 0.454470 0.778930
C45 C 0.545000 -0.328900 1.036740
H46 H 0.527300 -0.345700 0.968200
C47 C 0.632200 -0.410800 1.096460
H48 H 0.672600 -0.482500 1.068300
C49 C 0.660600 -0.387600 1.198110
C50 C 0.602600 -0.277800 1.237940
H51 H 0.623300 -0.258600 1.306000
C52 C 0.514400 -0.197000 1.177500
H53 H 0.475500 -0.124200 1.205600
C54 C 0.482130 -0.221500 1.075570
C55 C 0.384720 -0.144400 1.005360
C56 C 0.169200 0.122400 1.012970
H57 H 0.181500 0.129400 1.082300
C58 C 0.073200 0.210500 0.952260
C59 C -0.014200 0.278200 0.997170
H60 H -0.009500 0.269200 1.065800
C61 C -0.108700 0.359100 0.942460
H62 H -0.168000 0.402200 0.973900
C63 C -0.114700 0.375800 0.841560
C64 C -0.025380 0.310900 0.795290
C65 C 0.066750 0.227600 0.849840
H66 H 0.124900 0.182600 0.818200
C67 C -0.296000 0.524800 0.821500
H68 H -0.342600 0.457200 0.852200
H69 H -0.352200 0.574000 0.770000
H70 H -0.256400 0.590500 0.871000
N71 N 0.825190 0.537280 0.540970
H72 H 0.841800 0.515400 0.603400
N73 N 0.736170 0.462970 0.474220
O74 O 1.246050 0.974040 0.752690
H75 H 1.264700 0.944200 0.810100
O76 O 0.856110 0.678480 0.416140
O77 O 0.460490 0.167580 0.194430
H78 H 0.526200 0.187900 0.175900
O79 O 0.297930 0.045530 0.278930
C80 C 1.045000 0.828900 0.536740
H81 H 1.027300 0.845700 0.468200
C82 C 1.132200 0.910800 0.596460
H83 H 1.172600 0.982500 0.568300
C84 C 1.160600 0.887600 0.698110
C85 C 1.102600 0.777800 0.737940
H86 H 1.123300 0.758600 0.806000
C87 C 1.014400 0.697000 0.677500
H88 H 0.975500 0.624200 0.705600
C89 C 0.982130 0.721500 0.575570
C90 C 0.884720 0.644400 0.505360
C91 C 0.669200 0.377600 0.512970
H92 H 0.681500 0.370600 0.582300
C93 C 0.573200 0.289500 0.452260
C94 C 0.485800 0.221800 0.497170
H95 H 0.490500 0.230800 0.565800
C96 C 0.391300 0.140900 0.442460
H97 H 0.332000 0.097800 0.473900
C98 C 0.385300 0.124200 0.341560
C99 C 0.474620 0.189100 0.295290
C100 C 0.566750 0.272400 0.349840
H101 H 0.624900 0.317400 0.318200
C102 C 0.204000 -0.024800 0.321500
H103 H 0.157400 0.042800 0.352200
H104 H 0.147800 -0.074000 0.270000
H105 H 0.243600 -0.090500 0.371000
N106 N 0.674810 1.037280 -0.040970
H107 H 0.658200 1.015400 -0.103400
N108 N 0.763830 0.962970 0.025780
O109 O 0.253950 1.474040 -0.252690
H110 H 0.235300 1.444200 -0.310100
O111 O 0.643890 1.178480 0.083860
O112 O 1.039510 0.667580 0.305570
H113 H 0.973800 0.687900 0.324100
O114 O 1.202070 0.545530 0.221070
C115 C 0.455000 1.328900 -0.036740
H116 H 0.472700 1.345700 0.031800
C117 C 0.367800 1.410800 -0.096460
H118 H 0.327400 1.482500 -0.068300
C119 C 0.339400 1.387600 -0.198110
C120 C 0.397400 1.277800 -0.237940
H121 H 0.376700 1.258600 -0.306000
C122 C 0.485600 1.197000 -0.177500
H123 H 0.524500 1.124200 -0.205600
C124 C 0.517870 1.221500 -0.075570
C125 C 0.615280 1.144400 -0.005360
C126 C 0.830800 0.877600 -0.012970
H127 H 0.818500 0.870600 -0.082300
C128 C 0.926800 0.789500 0.047740
C129 C 1.014200 0.721800 0.002830
H130 H 1.009500 0.730800 -0.065800
C131 C 1.108700 0.640900 0.057540
H132 H 1.168000 0.597800 0.026100
C133 C 1.114700 0.624200 0.158440
C134 C 1.025380 0.689100 0.204710
C135 C 0.933250 0.772400 0.150160
H136 H 0.875100 0.817400 0.181800
C137 C 1.296000 0.475200 0.178500
H138 H 1.342600 0.542800 0.147800
H139 H 1.352200 0.426000 0.230000
H140 H 1.256400 0.409500 0.129000

#END
