
#######################################################################
#
#                 Cambridge Crystallographic Data Centre
#                                CCDC 
#
#######################################################################
#
# If this CIF has been generated from an entry in the Cambridge 
# Structural Database, then it will include bibliographic, chemical, 
# crystal, experimental, refinement or atomic coordinate data resulting 
# from the CCDC's data processing and validation procedures.
#
#######################################################################

data_ABALIA
_symmetry_cell_setting           monoclinic
_symmetry_space_group_name_H-M   'P 21/c'
_symmetry_Int_Tables_number      14
_space_group_name_Hall           '-P 2ybc'
loop_
_symmetry_equiv_pos_site_id
_symmetry_equiv_pos_as_xyz
1 x,y,z
2 -x,1/2+y,1/2-z
3 -x,-y,-z
4 x,1/2-y,1/2+z
_cell_length_a                   10.7484(5)
_cell_length_b                   9.4669(4)
_cell_length_c                   15.7198(5)
_cell_angle_alpha                90
_cell_angle_beta                 122.166(2)
_cell_angle_gamma                90
_cell_volume                     1354.04
loop_
_atom_site_label
_atom_site_type_symbol
_atom_site_fract_x
_atom_site_fract_y
_atom_site_fract_z
O1 O 0.43925(8) 1.18018(8) 0.58385(5)
O2 O 0.49471(9) 1.47445(8) 0.24675(6)
H1 H 0.4792 1.4316 0.1952
O3 O 0.26685(8) 0.66939(8) 0.80751(6)
H2 H 0.3556 0.6774 0.8260
O4 O 0.01675(9) 0.54612(9) 0.72204(6)
N1 N 0.28428(10) 1.03431(9) 0.45801(6)
H3 H 0.2380 1.0104 0.3942
N2 N 0.26221(9) 0.96119(9) 0.52515(6)
C1 C 0.40755(10) 1.22076(10) 0.42422(7)
C2 C 0.50952(12) 1.33110(12) 0.46469(8)
H4 H 0.5603 1.3494 0.5348
C3 C 0.53774(12) 1.41401(12) 0.40453(8)
H5 H 0.6071 1.4888 0.4334
C4 C 0.46467(10) 1.38813(10) 0.30166(7)
C5 C 0.36654(12) 1.27532(12) 0.26061(8)
H6 H 0.3193 1.2547 0.1910
C6 C 0.33780(12) 1.19320(12) 0.32125(8)
H7 H 0.2699 1.1173 0.2925
C7 C 0.37956(10) 1.14385(10) 0.49418(7)
C8 C 0.15580(12) 0.87261(12) 0.48512(8)
H8 H 0.0982 0.8631 0.4141
C9 C 0.12146(11) 0.78585(11) 0.54692(8)
C10 C 0.21899(10) 0.77112(10) 0.65114(7)
H9 H 0.3115 0.8176 0.6838
C11 C 0.18034(10) 0.68906(10) 0.70614(7)
C12 C 0.04194(11) 0.62256(11) 0.65889(8)
C13 C -0.05414(13) 0.63664(15) 0.55581(9)
H10 H -0.1475 0.5918 0.5232
C14 C -0.01309(13) 0.71667(15) 0.50042(9)
H11 H -0.0781 0.7241 0.4297
C15 C -0.12259(13) 0.47708(14) 0.67802(10)
H12 H -0.1294 0.4289 0.7306
H13 H -0.1325 0.4077 0.6285
H14 H -0.2014 0.5473 0.6448
O1 O 0.56075(8) 0.68018(8) 0.91615(5)
O2 O 0.50529(9) 0.97445(8) 1.25325(6)
H1 H 0.5208 0.9316 1.3048
O3 O 0.73315(8) 0.16939(8) 0.69249(6)
H2 H 0.6444 0.1774 0.6740
O4 O 0.98325(9) 0.04612(9) 0.77796(6)
N1 N 0.71572(10) 0.53431(9) 1.04199(6)
H3 H 0.7620 0.5104 1.1058
N2 N 0.73779(9) 0.46119(9) 0.97485(6)
C1 C 0.59245(10) 0.72076(10) 1.07578(7)
C2 C 0.49048(12) 0.83110(12) 1.03531(8)
H4 H 0.4397 0.8494 0.9652
C3 C 0.46226(12) 0.91401(12) 1.09547(8)
H5 H 0.3929 0.9888 1.0666
C4 C 0.53533(10) 0.88813(10) 1.19834(7)
C5 C 0.63346(12) 0.77532(12) 1.23939(8)
H6 H 0.6807 0.7547 1.3090
C6 C 0.66220(12) 0.69320(12) 1.17875(8)
H7 H 0.7301 0.6173 1.2075
C7 C 0.62044(10) 0.64385(10) 1.00582(7)
C8 C 0.84420(12) 0.37261(12) 1.01488(8)
H8 H 0.9018 0.3631 1.0859
C9 C 0.87854(11) 0.28585(11) 0.95308(8)
C10 C 0.78101(10) 0.27112(10) 0.84886(7)
H9 H 0.6885 0.3176 0.8162
C11 C 0.81966(10) 0.18906(10) 0.79386(7)
C12 C 0.95806(11) 0.12256(11) 0.84111(8)
C13 C 1.05414(13) 0.13664(15) 0.94419(9)
H10 H 1.1475 0.0918 0.9768
C14 C 1.01309(13) 0.21667(15) 0.99958(9)
H11 H 1.0781 0.2241 1.0703
C15 C 1.12259(13) -0.02292(14) 0.82198(10)
H12 H 1.1294 -0.0711 0.7694
H13 H 1.1325 -0.0923 0.8715
H14 H 1.2014 0.0473 0.8552
O1 O 0.56075(8) -0.18018(8) 0.41615(5)
O2 O 0.50529(9) -0.47445(8) 0.75325(6)
H1 H 0.5208 -0.4316 0.8048
O3 O 0.73315(8) 0.33061(8) 0.19249(6)
H2 H 0.6444 0.3226 0.1740
O4 O 0.98325(9) 0.45388(9) 0.27796(6)
N1 N 0.71572(10) -0.03431(9) 0.54199(6)
H3 H 0.7620 -0.0104 0.6058
N2 N 0.73779(9) 0.03881(9) 0.47485(6)
C1 C 0.59245(10) -0.22076(10) 0.57578(7)
C2 C 0.49048(12) -0.33110(12) 0.53531(8)
H4 H 0.4397 -0.3494 0.4652
C3 C 0.46226(12) -0.41401(12) 0.59547(8)
H5 H 0.3929 -0.4888 0.5666
C4 C 0.53533(10) -0.38813(10) 0.69834(7)
C5 C 0.63346(12) -0.27532(12) 0.73939(8)
H6 H 0.6807 -0.2547 0.8090
C6 C 0.66220(12) -0.19320(12) 0.67875(8)
H7 H 0.7301 -0.1173 0.7075
C7 C 0.62044(10) -0.14385(10) 0.50582(7)
C8 C 0.84420(12) 0.12739(12) 0.51488(8)
H8 H 0.9018 0.1369 0.5859
C9 C 0.87854(11) 0.21415(11) 0.45308(8)
C10 C 0.78101(10) 0.22888(10) 0.34886(7)
H9 H 0.6885 0.1824 0.3162
C11 C 0.81966(10) 0.31094(10) 0.29386(7)
C12 C 0.95806(11) 0.37744(11) 0.34111(8)
C13 C 1.05414(13) 0.36336(15) 0.44419(9)
H10 H 1.1475 0.4082 0.4768
C14 C 1.01309(13) 0.28333(15) 0.49958(9)
H11 H 1.0781 0.2759 0.5703
C15 C 1.12259(13) 0.52292(14) 0.32198(10)
H12 H 1.1294 0.5711 0.2694
H13 H 1.1325 0.5923 0.3715
H14 H 1.2014 0.4527 0.3552
O1 O 0.43925(8) 0.31982(8) 0.08385(5)
O2 O 0.49471(9) 0.02555(8) -0.25325(6)
H1 H 0.4792 0.0684 -0.3048
O3 O 0.26685(8) 0.83061(8) 0.30751(6)
H2 H 0.3556 0.8226 0.3260
O4 O 0.01675(9) 0.95388(9) 0.22204(6)
N1 N 0.28428(10) 0.46569(9) -0.04199(6)
H3 H 0.2380 0.4896 -0.1058
N2 N 0.26221(9) 0.53881(9) 0.02515(6)
C1 C 0.40755(10) 0.27924(10) -0.07578(7)
C2 C 0.50952(12) 0.16890(12) -0.03531(8)
H4 H 0.5603 0.1506 0.0348
C3 C 0.53774(12) 0.08599(12) -0.09547(8)
H5 H 0.6071 0.0112 -0.0666
C4 C 0.46467(10) 0.11187(10) -0.19834(7)
C5 C 0.36654(12) 0.22468(12) -0.23939(8)
H6 H 0.3193 0.2453 -0.3090
C6 C 0.33780(12) 0.30680(12) -0.17875(8)
H7 H 0.2699 0.3827 -0.2075
C7 C 0.37956(10) 0.35615(10) -0.00582(7)
C8 C 0.15580(12) 0.62739(12) -0.01488(8)
H8 H 0.0982 0.6369 -0.0859
C9 C 0.12146(11) 0.71415(11) 0.04692(8)
C10 C 0.21899(10) 0.72888(10) 0.15114(7)
H9 H 0.3115 0.6824 0.1838
C11 C 0.18034(10) 0.81094(10) 0.20614(7)
C12 C 0.04194(11) 0.87744(11) 0.15889(8)
C13 C -0.05414(13) 0.86336(15) 0.05581(9)
H10 H -0.1475 0.9082 0.0232
C14 C -0.01309(13) 0.78333(15) 0.00042(9)
H11 H -0.0781 0.7759 -0.0703
C15 C -0.12259(13) 1.02292(14) 0.17802(10)
H12 H -0.1294 1.0711 0.2306
H13 H -0.1325 1.0923 0.1285
H14 H -0.2014 0.9527 0.1448

#END
