./ABANOI_from_xyz.cif_generated_by_CrystalShift
_symmetry_cell_setting triclinic
_symmetry_space_group_name_H-M 'P 1'
loop_
_symmetry_equiv_pos_site_id
_symmetry_equiv_pos_as_xyz
1 x,y,z
_cell_length_a 13.493000
_cell_length_b 5.628800
_cell_length_c 26.309000
_cell_angle_alpha 90.000000
_cell_angle_beta 100.870000
_cell_angle_gamma 90.000000
_cell_volume 1962.301037
loop_
_atom_site_label
_atom_site_type_symbol
_atom_site_fract_x
_atom_site_fract_y
_atom_site_fract_z
N1 N 0.608100 0.249400 0.307820
C2 C 0.505200 0.250700 0.316080
H3 H 0.487300 0.084700 0.324500
N4 N 0.678400 0.120000 0.340510
C5 C 0.767200 0.193300 0.331290
C6 C 0.752900 0.372500 0.292120
H7 H 0.803700 0.453000 0.278200
C8 C 0.652300 0.403300 0.279020
H9 H 0.618400 0.512700 0.254200
N10 N 0.499400 0.400800 0.361070
N11 N 0.423600 0.358400 0.387780
C12 C 0.431800 0.538900 0.422040
C13 C 0.510300 0.690900 0.416100
H14 H 0.530800 0.830200 0.435600
C15 C 0.551700 0.601100 0.376990
H16 H 0.606400 0.665900 0.363500
C17 C 0.431300 0.329600 0.268410
C18 C 0.410700 0.173300 0.226190
H19 H 0.446400 0.027300 0.227200
C20 C 0.340200 0.229100 0.183800
O21 O 0.319500 0.075300 0.143210
H22 H 0.264000 0.111600 0.124500
C23 C 0.288000 0.448800 0.180970
O24 O 0.218100 0.480000 0.136690
H25 H 0.181600 0.597600 0.140200
C26 C 0.310200 0.603400 0.222090
H27 H 0.276800 0.752500 0.220600
C28 C 0.380000 0.544200 0.265270
H29 H 0.393500 0.652300 0.293500
C30 C 0.862600 0.095700 0.360750
C31 C 0.953400 0.216100 0.362300
H32 H 0.954000 0.357700 0.342700
C33 C 1.041400 0.134800 0.391300
H34 H 1.102100 0.221200 0.391900
C35 C 1.043300 -0.075000 0.420300
H36 H 1.104200 -0.131800 0.440900
C37 C 0.953000 -0.196200 0.417700
H38 H 0.953100 -0.340600 0.436400
C39 C 0.863400 -0.115500 0.389000
H40 H 0.802700 -0.202100 0.388400
C41 C 0.363400 0.554100 0.459450
C42 C 0.367300 0.759100 0.491800
H43 H 0.413900 0.883000 0.489100
C44 C 0.304000 0.777300 0.526800
H45 H 0.307800 0.913300 0.548500
C46 C 0.234500 0.600100 0.531020
H47 H 0.190500 0.615400 0.555100
C48 C 0.229600 0.400700 0.499810
H49 H 0.182000 0.279000 0.502300
C50 C 0.295000 0.378600 0.464670
H51 H 0.292200 0.239600 0.444000
N52 N 0.891900 0.749400 0.192180
C53 C 0.994800 0.750700 0.183920
H54 H 1.012700 0.584700 0.175500
N55 N 0.821600 0.620000 0.159490
C56 C 0.732800 0.693300 0.168710
C57 C 0.747100 0.872500 0.207880
H58 H 0.696300 0.953000 0.221800
C59 C 0.847700 0.903300 0.220980
H60 H 0.881600 1.012700 0.245800
N61 N 1.000600 0.900800 0.138930
N62 N 1.076400 0.858400 0.112220
C63 C 1.068200 1.038900 0.077960
C64 C 0.989700 1.190900 0.083900
H65 H 0.969200 1.330200 0.064400
C66 C 0.948300 1.101100 0.123010
H67 H 0.893600 1.165900 0.136500
C68 C 1.068700 0.829600 0.231590
C69 C 1.089300 0.673300 0.273810
H70 H 1.053600 0.527300 0.272800
C71 C 1.159800 0.729100 0.316200
O72 O 1.180500 0.575300 0.356790
H73 H 1.236000 0.611600 0.375500
C74 C 1.212000 0.948800 0.319030
O75 O 1.281900 0.980000 0.363310
H76 H 1.318400 1.097600 0.359800
C77 C 1.189800 1.103400 0.277910
H78 H 1.223200 1.252500 0.279400
C79 C 1.120000 1.044200 0.234730
H80 H 1.106500 1.152300 0.206500
C81 C 0.637400 0.595700 0.139250
C82 C 0.546600 0.716100 0.137700
H83 H 0.546000 0.857700 0.157300
C84 C 0.458600 0.634800 0.108700
H85 H 0.397900 0.721200 0.108100
C86 C 0.456700 0.425000 0.079700
H87 H 0.395800 0.368200 0.059100
C88 C 0.547000 0.303800 0.082300
H89 H 0.546900 0.159400 0.063600
C90 C 0.636600 0.384500 0.111000
H91 H 0.697300 0.297900 0.111600
C92 C 1.136600 1.054100 0.040550
C93 C 1.132700 1.259100 0.008200
H94 H 1.086100 1.383000 0.010900
C95 C 1.196000 1.277300 -0.026800
H96 H 1.192200 1.413300 -0.048500
C97 C 1.265500 1.100100 -0.031020
H98 H 1.309500 1.115400 -0.055100
C99 C 1.270400 0.900700 0.000190
H100 H 1.318000 0.779000 -0.002300
C101 C 1.205000 0.878600 0.035330
H102 H 1.207800 0.739600 0.056000
N103 N 0.391900 0.750600 0.692180
C104 C 0.494800 0.749300 0.683920
H105 H 0.512700 0.915300 0.675500
N106 N 0.321600 0.880000 0.659490
C107 C 0.232800 0.806700 0.668710
C108 C 0.247100 0.627500 0.707880
H109 H 0.196300 0.547000 0.721800
C110 C 0.347700 0.596700 0.720980
H111 H 0.381600 0.487300 0.745800
N112 N 0.500600 0.599200 0.638930
N113 N 0.576400 0.641600 0.612220
C114 C 0.568200 0.461100 0.577960
C115 C 0.489700 0.309100 0.583900
H116 H 0.469200 0.169800 0.564400
C117 C 0.448300 0.398900 0.623010
H118 H 0.393600 0.334100 0.636500
C119 C 0.568700 0.670400 0.731590
C120 C 0.589300 0.826700 0.773810
H121 H 0.553600 0.972700 0.772800
C122 C 0.659800 0.770900 0.816200
O123 O 0.680500 0.924700 0.856790
H124 H 0.736000 0.888400 0.875500
C125 C 0.712000 0.551200 0.819030
O126 O 0.781900 0.520000 0.863310
H127 H 0.818400 0.402400 0.859800
C128 C 0.689800 0.396600 0.777910
H129 H 0.723200 0.247500 0.779400
C130 C 0.620000 0.455800 0.734730
H131 H 0.606500 0.347700 0.706500
C132 C 0.137400 0.904300 0.639250
C133 C 0.046600 0.783900 0.637700
H134 H 0.046000 0.642300 0.657300
C135 C -0.041400 0.865200 0.608700
H136 H -0.102100 0.778800 0.608100
C137 C -0.043300 1.075000 0.579700
H138 H -0.104200 1.131800 0.559100
C139 C 0.047000 1.196200 0.582300
H140 H 0.046900 1.340600 0.563600
C141 C 0.136600 1.115500 0.611000
H142 H 0.197300 1.202100 0.611600
C143 C 0.636600 0.445900 0.540550
C144 C 0.632700 0.240900 0.508200
H145 H 0.586100 0.117000 0.510900
C146 C 0.696000 0.222700 0.473200
H147 H 0.692200 0.086700 0.451500
C148 C 0.765500 0.399900 0.468980
H149 H 0.809500 0.384600 0.444900
C150 C 0.770400 0.599300 0.500190
H151 H 0.818000 0.721000 0.497700
C152 C 0.705000 0.621400 0.535330
H153 H 0.707800 0.760400 0.556000
N154 N 0.108100 0.250600 0.807820
C155 C 0.005200 0.249300 0.816080
H156 H -0.012700 0.415300 0.824500
N157 N 0.178400 0.380000 0.840510
C158 C 0.267200 0.306700 0.831290
C159 C 0.252900 0.127500 0.792120
H160 H 0.303700 0.047000 0.778200
C161 C 0.152300 0.096700 0.779020
H162 H 0.118400 -0.012700 0.754200
N163 N -0.000600 0.099200 0.861070
N164 N -0.076400 0.141600 0.887780
C165 C -0.068200 -0.038900 0.922040
C166 C 0.010300 -0.190900 0.916100
H167 H 0.030800 -0.330200 0.935600
C168 C 0.051700 -0.101100 0.876990
H169 H 0.106400 -0.165900 0.863500
C170 C -0.068700 0.170400 0.768410
C171 C -0.089300 0.326700 0.726190
H172 H -0.053600 0.472700 0.727200
C173 C -0.159800 0.270900 0.683800
O174 O -0.180500 0.424700 0.643210
H175 H -0.236000 0.388400 0.624500
C176 C -0.212000 0.051200 0.680970
O177 O -0.281900 0.020000 0.636690
H178 H -0.318400 -0.097600 0.640200
C179 C -0.189800 -0.103400 0.722090
H180 H -0.223200 -0.252500 0.720600
C181 C -0.120000 -0.044200 0.765270
H182 H -0.106500 -0.152300 0.793500
C183 C 0.362600 0.404300 0.860750
C184 C 0.453400 0.283900 0.862300
H185 H 0.454000 0.142300 0.842700
C186 C 0.541400 0.365200 0.891300
H187 H 0.602100 0.278800 0.891900
C188 C 0.543300 0.575000 0.920300
H189 H 0.604200 0.631800 0.940900
C190 C 0.453000 0.696200 0.917700
H191 H 0.453100 0.840600 0.936400
C192 C 0.363400 0.615500 0.889000
H193 H 0.302700 0.702100 0.888400
C194 C -0.136600 -0.054100 0.959450
C195 C -0.132700 -0.259100 0.991800
H196 H -0.086100 -0.383000 0.989100
C197 C -0.196000 -0.277300 1.026800
H198 H -0.192200 -0.413300 1.048500
C199 C -0.265500 -0.100100 1.031020
H200 H -0.309500 -0.115400 1.055100
C201 C -0.270400 0.099300 0.999810
H202 H -0.318000 0.221000 1.002300
C203 C -0.205000 0.121400 0.964670
H204 H -0.207800 0.260400 0.944000

#END
