./ABAVUX_from_xyz.cif_generated_by_CrystalShift
_symmetry_cell_setting triclinic
_symmetry_space_group_name_H-M 'P 1'
loop_
_symmetry_equiv_pos_site_id
_symmetry_equiv_pos_as_xyz
1 x,y,z
_cell_length_a 13.113400
_cell_length_b 13.599600
_cell_length_c 14.373800
_cell_angle_alpha 103.871000
_cell_angle_beta 97.269000
_cell_angle_gamma 112.700000
_cell_volume 2226.132890
loop_
_atom_site_label
_atom_site_type_symbol
_atom_site_fract_x
_atom_site_fract_y
_atom_site_fract_z
O1 O 0.637700 1.046740 0.332550
O2 O 0.475830 0.752900 0.026590
N3 N -0.053360 0.584480 0.117110
N4 N 0.610940 0.950480 0.749050
N5 N 0.358780 0.396920 0.049890
N6 N 0.680970 0.679190 0.205280
C7 C 0.670420 1.083660 -0.008350
H8 H 0.684800 1.100700 -0.067100
C9 C 0.611030 0.972460 -0.012750
H10 H 0.583300 0.913200 -0.073600
C11 C 0.593930 0.951360 0.074080
C12 C 0.529590 0.842770 0.090140
C13 C 0.542350 0.867980 0.199260
C14 C 0.493800 0.793770 0.245180
C15 C 0.412430 0.673650 0.187730
C16 C 0.292100 0.647080 0.169380
C17 C 0.257300 0.733400 0.171340
H18 H 0.314000 0.808100 0.186300
C19 C 0.145050 0.713760 0.152570
H20 H 0.125300 0.774000 0.152200
C21 C 0.058230 0.604630 0.133670
C22 C -0.141290 0.473520 0.106000
H23 H -0.142000 0.418700 0.047200
H24 H -0.215800 0.475300 0.098700
H25 H -0.125100 0.452000 0.164600
C26 C 0.589440 0.917770 0.664530
C27 C 0.563330 0.879360 0.558180
C28 C 0.451240 0.834470 0.503880
H29 H 0.391000 0.825000 0.536400
C30 C 0.428480 0.803720 0.401620
H31 H 0.351900 0.770400 0.363700
C32 C 0.516640 0.821270 0.354420
C33 C 0.628350 0.863210 0.409550
H34 H 0.688700 0.872900 0.377200
C35 C 0.651050 0.890600 0.510910
H36 H 0.726800 0.917200 0.548400
C37 C -0.089220 0.669550 0.103190
H38 H -0.057900 0.733500 0.164100
H39 H -0.172600 0.637800 0.087100
H40 H -0.061300 0.694700 0.049000
C41 C 0.092520 0.518200 0.134070
H42 H 0.036200 0.444100 0.122500
C43 C 0.205290 0.538740 0.150740
H44 H 0.225200 0.478400 0.149700
C45 C 0.462220 0.603340 0.161380
C46 C 0.402440 0.488160 0.100370
C47 C 0.583510 0.645140 0.185420
C48 C 0.610420 0.992500 0.245550
C49 C 0.636110 1.038090 0.163870
C50 C 0.709230 1.170630 0.080860
H51 H 0.747300 1.246100 0.081400
C52 C 0.693570 1.149400 0.168140
H53 H 0.721000 1.208700 0.229000
O54 O 0.362300 -0.046740 0.667450
O55 O 0.524170 0.247100 0.973410
N56 N 1.053360 0.415520 0.882890
N57 N 0.389060 0.049520 0.250950
N58 N 0.641220 0.603080 0.950110
N59 N 0.319030 0.320810 0.794720
C60 C 0.329580 -0.083660 1.008350
H61 H 0.315200 -0.100700 1.067100
C62 C 0.388970 0.027540 1.012750
H63 H 0.416700 0.086800 1.073600
C64 C 0.406070 0.048640 0.925920
C65 C 0.470410 0.157230 0.909860
C66 C 0.457650 0.132020 0.800740
C67 C 0.506200 0.206230 0.754820
C68 C 0.587570 0.326350 0.812270
C69 C 0.707900 0.352920 0.830620
C70 C 0.742700 0.266600 0.828660
H71 H 0.686000 0.191900 0.813700
C72 C 0.854950 0.286240 0.847430
H73 H 0.874700 0.226000 0.847800
C74 C 0.941770 0.395370 0.866330
C75 C 1.141290 0.526480 0.894000
H76 H 1.142000 0.581300 0.952800
H77 H 1.215800 0.524700 0.901300
H78 H 1.125100 0.548000 0.835400
C79 C 0.410560 0.082230 0.335470
C80 C 0.436670 0.120640 0.441820
C81 C 0.548760 0.165530 0.496120
H82 H 0.609000 0.175000 0.463600
C83 C 0.571520 0.196280 0.598380
H84 H 0.648100 0.229600 0.636300
C85 C 0.483360 0.178730 0.645580
C86 C 0.371650 0.136790 0.590450
H87 H 0.311300 0.127100 0.622800
C88 C 0.348950 0.109400 0.489090
H89 H 0.273200 0.082800 0.451600
C90 C 1.089220 0.330450 0.896810
H91 H 1.057900 0.266500 0.835900
H92 H 1.172600 0.362200 0.912900
H93 H 1.061300 0.305300 0.951000
C94 C 0.907480 0.481800 0.865930
H95 H 0.963800 0.555900 0.877500
C96 C 0.794710 0.461260 0.849260
H97 H 0.774800 0.521600 0.850300
C98 C 0.537780 0.396660 0.838620
C99 C 0.597560 0.511840 0.899630
C100 C 0.416490 0.354860 0.814580
C101 C 0.389580 0.007500 0.754450
C102 C 0.363890 -0.038090 0.836130
C103 C 0.290770 -0.170630 0.919140
H104 H 0.252700 -0.246100 0.918600
C105 C 0.306430 -0.149400 0.831860
H106 H 0.279000 -0.208700 0.771000
O107 O 0.031440 0.276170 0.144500
O108 O -0.146170 -0.010290 0.283020
N109 N -0.147960 0.384990 0.372960
N110 N 0.166160 0.646380 0.390700
C111 C 0.577100 0.353900 0.264800
H112 H 0.576300 0.300400 0.300100
H113 H 0.651600 0.386600 0.250000
H114 H 0.517400 0.315000 0.203100
N115 N 0.556280 0.442670 0.326200
C116 C 0.450100 0.423900 0.337330
C117 C 0.359740 0.314410 0.301900
H118 H 0.374000 0.252800 0.270300
C119 C 0.251960 0.295670 0.312340
H120 H 0.194200 0.220600 0.289800
C121 C 0.223450 0.382140 0.354720
C122 C 0.106670 0.359060 0.356530
C123 C 0.023990 0.239530 0.342240
C124 C 0.007970 0.208010 0.433430
C125 C -0.097040 0.180710 0.455680
H126 H -0.155600 0.187700 0.415600
C127 C -0.117490 0.143410 0.535500
H128 H -0.189200 0.126500 0.551400
C129 C -0.032430 0.130620 0.592730
C130 C -0.059170 0.080930 0.669280
N131 N -0.085850 0.037830 0.727560
C132 C 0.654500 0.548500 0.380400
H133 H 0.665000 0.600800 0.342000
H134 H 0.722700 0.535300 0.391400
H135 H 0.642000 0.580700 0.444100
C136 C 0.423270 0.510920 0.385410
H137 H 0.482200 0.585100 0.413500
C138 C 0.314790 0.490980 0.392500
H139 H 0.300000 0.552300 0.423900
C140 C 0.074480 0.161510 0.573090
H141 H 0.133400 0.155300 0.613600
C142 C 0.094710 0.201290 0.494280
H143 H 0.168300 0.224200 0.481500
C144 C -0.032410 0.164390 0.252070
C145 C -0.021170 0.186080 0.155760
C146 C -0.083590 0.076530 0.077200
C147 C -0.130370 -0.007860 0.119040
C148 C -0.190060 -0.119760 0.060290
H149 H -0.221700 -0.177900 0.088400
C150 C -0.201520 -0.143050 -0.040430
H151 H -0.240800 -0.218800 -0.082300
C152 C -0.156430 -0.057510 -0.082040
H153 H -0.167600 -0.075900 -0.151700
C154 C -0.096050 0.053140 -0.023630
H155 H -0.064200 0.111200 -0.051800
C156 C -0.108510 0.040350 0.227080
C157 C 0.062660 0.436260 0.372380
C158 C -0.054750 0.404610 0.372520
C159 C 0.123000 0.552720 0.382960
O160 O 0.968560 0.723830 0.855500
O161 O 1.146170 1.010290 0.716980
N162 N 1.147960 0.615010 0.627040
N163 N 0.833840 0.353620 0.609300
C164 C 0.422900 0.646100 0.735200
H165 H 0.423700 0.699600 0.699900
H166 H 0.348400 0.613400 0.750000
H167 H 0.482600 0.685000 0.796900
N168 N 0.443720 0.557330 0.673800
C169 C 0.549900 0.576100 0.662670
C170 C 0.640260 0.685590 0.698100
H171 H 0.626000 0.747200 0.729700
C172 C 0.748040 0.704330 0.687660
H173 H 0.805800 0.779400 0.710200
C174 C 0.776550 0.617860 0.645280
C175 C 0.893330 0.640940 0.643470
C176 C 0.976010 0.760470 0.657760
C177 C 0.992030 0.791990 0.566570
C178 C 1.097040 0.819290 0.544320
H179 H 1.155600 0.812300 0.584400
C180 C 1.117490 0.856590 0.464500
H181 H 1.189200 0.873500 0.448600
C182 C 1.032430 0.869380 0.407270
C183 C 1.059170 0.919070 0.330720
N184 N 1.085850 0.962170 0.272440
C185 C 0.345500 0.451500 0.619600
H186 H 0.335000 0.399200 0.658000
H187 H 0.277300 0.464700 0.608600
H188 H 0.358000 0.419300 0.555900
C189 C 0.576730 0.489080 0.614590
H190 H 0.517800 0.414900 0.586500
C191 C 0.685210 0.509020 0.607500
H192 H 0.700000 0.447700 0.576100
C193 C 0.925520 0.838490 0.426910
H194 H 0.866600 0.844700 0.386400
C195 C 0.905290 0.798710 0.505720
H196 H 0.831700 0.775800 0.518500
C197 C 1.032410 0.835610 0.747930
C198 C 1.021170 0.813920 0.844240
C199 C 1.083590 0.923470 0.922800
C200 C 1.130370 1.007860 0.880960
C201 C 1.190060 1.119760 0.939710
H202 H 1.221700 1.177900 0.911600
C203 C 1.201520 1.143050 1.040430
H204 H 1.240800 1.218800 1.082300
C205 C 1.156430 1.057510 1.082040
H206 H 1.167600 1.075900 1.151700
C207 C 1.096050 0.946860 1.023630
H208 H 1.064200 0.888800 1.051800
C209 C 1.108510 0.959650 0.772920
C210 C 0.937340 0.563740 0.627620
C211 C 1.054750 0.595390 0.627480
C212 C 0.877000 0.447280 0.617040

#END
