./ABAWUY_from_xyz.cif_generated_by_CrystalShift
_symmetry_cell_setting triclinic
_symmetry_space_group_name_H-M 'P 1'
loop_
_symmetry_equiv_pos_site_id
_symmetry_equiv_pos_as_xyz
1 x,y,z
_cell_length_a 18.663600
_cell_length_b 9.865500
_cell_length_c 19.524900
_cell_angle_alpha 90.000000
_cell_angle_beta 107.900000
_cell_angle_gamma 90.000000
_cell_volume 3421.016954
loop_
_atom_site_label
_atom_site_type_symbol
_atom_site_fract_x
_atom_site_fract_y
_atom_site_fract_z
C1 C 0.167790 0.067950 0.687120
H2 H 0.193600 0.149700 0.690900
C3 C 0.206150 -0.054500 0.690530
H4 H 0.257600 -0.054400 0.696800
C5 C 0.167970 -0.175100 0.684700
H6 H 0.193800 -0.256500 0.687100
C7 C 0.093090 -0.176630 0.675450
H8 H 0.067600 -0.258700 0.671400
C9 C 0.054660 -0.056490 0.672050
H10 H 0.003200 -0.058400 0.665600
C11 C 0.091300 0.067400 0.678040
C12 C 0.047820 0.196840 0.675710
H13 H -0.005500 0.178200 0.654500
H14 H 0.055600 0.228200 0.724500
C15 C 0.096430 0.430960 0.556890
C16 C 0.064980 0.307190 0.564320
C17 C 0.030620 0.197400 0.513380
H18 H 0.062200 0.118500 0.524500
H19 H 0.025400 0.226500 0.465200
H20 H -0.018100 0.175800 0.517400
C21 C 0.107950 0.497270 0.493990
C22 C 0.133400 0.629720 0.499340
H23 H 0.145500 0.676000 0.542900
C24 C 0.140400 0.691370 0.438010
C25 C 0.103610 0.494370 0.376830
C26 C 0.163040 0.835310 0.437110
C27 C 0.176280 0.917300 0.497480
H28 H 0.172100 0.881100 0.540100
C29 C 0.195540 1.051590 0.495190
H30 H 0.205000 1.104800 0.536400
C31 C 0.200860 1.107400 0.432680
H32 H 0.212500 1.198800 0.431000
C33 C 0.188980 1.027800 0.372630
H34 H 0.193300 1.065000 0.330300
C35 C 0.170680 0.892380 0.374690
H36 H 0.163400 0.839000 0.333900
N37 N 0.069540 0.303980 0.634790
N38 N 0.101450 0.418330 0.669400
N39 N 0.117390 0.495150 0.621980
N40 N 0.092550 0.426700 0.432700
N41 N 0.124910 0.623680 0.375650
N42 N 0.092460 0.423460 0.314890
H43 H 0.099100 0.462000 0.277800
H44 H 0.078700 0.340000 0.312700
C45 C 0.832210 0.067950 0.812880
H46 H 0.806400 0.149700 0.809100
C47 C 0.793850 -0.054500 0.809470
H48 H 0.742400 -0.054400 0.803200
C49 C 0.832030 -0.175100 0.815300
H50 H 0.806200 -0.256500 0.812900
C51 C 0.906910 -0.176630 0.824550
H52 H 0.932400 -0.258700 0.828600
C53 C 0.945340 -0.056490 0.827950
H54 H 0.996800 -0.058400 0.834400
C55 C 0.908700 0.067400 0.821960
C56 C 0.952180 0.196840 0.824290
H57 H 1.005500 0.178200 0.845500
H58 H 0.944400 0.228200 0.775500
C59 C 0.903570 0.430960 0.943110
C60 C 0.935020 0.307190 0.935680
C61 C 0.969380 0.197400 0.986620
H62 H 0.937800 0.118500 0.975500
H63 H 0.974600 0.226500 1.034800
H64 H 1.018100 0.175800 0.982600
C65 C 0.892050 0.497270 1.006010
C66 C 0.866600 0.629720 1.000660
H67 H 0.854500 0.676000 0.957100
C68 C 0.859600 0.691370 1.061990
C69 C 0.896390 0.494370 1.123170
C70 C 0.836960 0.835310 1.062890
C71 C 0.823720 0.917300 1.002520
H72 H 0.827900 0.881100 0.959900
C73 C 0.804460 1.051590 1.004810
H74 H 0.795000 1.104800 0.963600
C75 C 0.799140 1.107400 1.067320
H76 H 0.787500 1.198800 1.069000
C77 C 0.811020 1.027800 1.127370
H78 H 0.806700 1.065000 1.169700
C79 C 0.829320 0.892380 1.125310
H80 H 0.836600 0.839000 1.166100
N81 N 0.930460 0.303980 0.865210
N82 N 0.898550 0.418330 0.830600
N83 N 0.882610 0.495150 0.878020
N84 N 0.907450 0.426700 1.067300
N85 N 0.875090 0.623680 1.124350
N86 N 0.907540 0.423460 1.185110
H87 H 0.900900 0.462000 1.222200
H88 H 0.921300 0.340000 1.187300
C89 C 0.667790 0.567950 0.687120
H90 H 0.693600 0.649700 0.690900
C91 C 0.706150 0.445500 0.690530
H92 H 0.757600 0.445600 0.696800
C93 C 0.667970 0.324900 0.684700
H94 H 0.693800 0.243500 0.687100
C95 C 0.593090 0.323370 0.675450
H96 H 0.567600 0.241300 0.671400
C97 C 0.554660 0.443510 0.672050
H98 H 0.503200 0.441600 0.665600
C99 C 0.591300 0.567400 0.678040
C100 C 0.547820 0.696840 0.675710
H101 H 0.494500 0.678200 0.654500
H102 H 0.555600 0.728200 0.724500
C103 C 0.596430 0.930960 0.556890
C104 C 0.564980 0.807190 0.564320
C105 C 0.530620 0.697400 0.513380
H106 H 0.562200 0.618500 0.524500
H107 H 0.525400 0.726500 0.465200
H108 H 0.481900 0.675800 0.517400
C109 C 0.607950 0.997270 0.493990
C110 C 0.633400 1.129720 0.499340
H111 H 0.645500 1.176000 0.542900
C112 C 0.640400 1.191370 0.438010
C113 C 0.603610 0.994370 0.376830
C114 C 0.663040 1.335310 0.437110
C115 C 0.676280 1.417300 0.497480
H116 H 0.672100 1.381100 0.540100
C117 C 0.695540 1.551590 0.495190
H118 H 0.705000 1.604800 0.536400
C119 C 0.700860 1.607400 0.432680
H120 H 0.712500 1.698800 0.431000
C121 C 0.688980 1.527800 0.372630
H122 H 0.693300 1.565000 0.330300
C123 C 0.670680 1.392380 0.374690
H124 H 0.663400 1.339000 0.333900
N125 N 0.569540 0.803980 0.634790
N126 N 0.601450 0.918330 0.669400
N127 N 0.617390 0.995150 0.621980
N128 N 0.592550 0.926700 0.432700
N129 N 0.624910 1.123680 0.375650
N130 N 0.592460 0.923460 0.314890
H131 H 0.599100 0.962000 0.277800
H132 H 0.578700 0.840000 0.312700
C133 C 0.332210 0.567950 0.812880
H134 H 0.306400 0.649700 0.809100
C135 C 0.293850 0.445500 0.809470
H136 H 0.242400 0.445600 0.803200
C137 C 0.332030 0.324900 0.815300
H138 H 0.306200 0.243500 0.812900
C139 C 0.406910 0.323370 0.824550
H140 H 0.432400 0.241300 0.828600
C141 C 0.445340 0.443510 0.827950
H142 H 0.496800 0.441600 0.834400
C143 C 0.408700 0.567400 0.821960
C144 C 0.452180 0.696840 0.824290
H145 H 0.505500 0.678200 0.845500
H146 H 0.444400 0.728200 0.775500
C147 C 0.403570 0.930960 0.943110
C148 C 0.435020 0.807190 0.935680
C149 C 0.469380 0.697400 0.986620
H150 H 0.437800 0.618500 0.975500
H151 H 0.474600 0.726500 1.034800
H152 H 0.518100 0.675800 0.982600
C153 C 0.392050 0.997270 1.006010
C154 C 0.366600 1.129720 1.000660
H155 H 0.354500 1.176000 0.957100
C156 C 0.359600 1.191370 1.061990
C157 C 0.396390 0.994370 1.123170
C158 C 0.336960 1.335310 1.062890
C159 C 0.323720 1.417300 1.002520
H160 H 0.327900 1.381100 0.959900
C161 C 0.304460 1.551590 1.004810
H162 H 0.295000 1.604800 0.963600
C163 C 0.299140 1.607400 1.067320
H164 H 0.287500 1.698800 1.069000
C165 C 0.311020 1.527800 1.127370
H166 H 0.306700 1.565000 1.169700
C167 C 0.329320 1.392380 1.125310
H168 H 0.336600 1.339000 1.166100
N169 N 0.430460 0.803980 0.865210
N170 N 0.398550 0.918330 0.830600
N171 N 0.382610 0.995150 0.878020
N172 N 0.407450 0.926700 1.067300
N173 N 0.375090 1.123680 1.124350
N174 N 0.407540 0.923460 1.185110
H175 H 0.400900 0.962000 1.222200
H176 H 0.421300 0.840000 1.187300
C177 C 0.832210 0.932050 0.312880
H178 H 0.806400 0.850300 0.309100
C179 C 0.793850 1.054500 0.309470
H180 H 0.742400 1.054400 0.303200
C181 C 0.832030 1.175100 0.315300
H182 H 0.806200 1.256500 0.312900
C183 C 0.906910 1.176630 0.324550
H184 H 0.932400 1.258700 0.328600
C185 C 0.945340 1.056490 0.327950
H186 H 0.996800 1.058400 0.334400
C187 C 0.908700 0.932600 0.321960
C188 C 0.952180 0.803160 0.324290
H189 H 1.005500 0.821800 0.345500
H190 H 0.944400 0.771800 0.275500
C191 C 0.903570 0.569040 0.443110
C192 C 0.935020 0.692810 0.435680
C193 C 0.969380 0.802600 0.486620
H194 H 0.937800 0.881500 0.475500
H195 H 0.974600 0.773500 0.534800
H196 H 1.018100 0.824200 0.482600
C197 C 0.892050 0.502730 0.506010
C198 C 0.866600 0.370280 0.500660
H199 H 0.854500 0.324000 0.457100
C200 C 0.859600 0.308630 0.561990
C201 C 0.896390 0.505630 0.623170
C202 C 0.836960 0.164690 0.562890
C203 C 0.823720 0.082700 0.502520
H204 H 0.827900 0.118900 0.459900
C205 C 0.804460 -0.051590 0.504810
H206 H 0.795000 -0.104800 0.463600
C207 C 0.799140 -0.107400 0.567320
H208 H 0.787500 -0.198800 0.569000
C209 C 0.811020 -0.027800 0.627370
H210 H 0.806700 -0.065000 0.669700
C211 C 0.829320 0.107620 0.625310
H212 H 0.836600 0.161000 0.666100
N213 N 0.930460 0.696020 0.365210
N214 N 0.898550 0.581670 0.330600
N215 N 0.882610 0.504850 0.378020
N216 N 0.907450 0.573300 0.567300
N217 N 0.875090 0.376320 0.624350
N218 N 0.907540 0.576540 0.685110
H219 H 0.900900 0.538000 0.722200
H220 H 0.921300 0.660000 0.687300
C221 C 0.167790 0.932050 0.187120
H222 H 0.193600 0.850300 0.190900
C223 C 0.206150 1.054500 0.190530
H224 H 0.257600 1.054400 0.196800
C225 C 0.167970 1.175100 0.184700
H226 H 0.193800 1.256500 0.187100
C227 C 0.093090 1.176630 0.175450
H228 H 0.067600 1.258700 0.171400
C229 C 0.054660 1.056490 0.172050
H230 H 0.003200 1.058400 0.165600
C231 C 0.091300 0.932600 0.178040
C232 C 0.047820 0.803160 0.175710
H233 H -0.005500 0.821800 0.154500
H234 H 0.055600 0.771800 0.224500
C235 C 0.096430 0.569040 0.056890
C236 C 0.064980 0.692810 0.064320
C237 C 0.030620 0.802600 0.013380
H238 H 0.062200 0.881500 0.024500
H239 H 0.025400 0.773500 -0.034800
H240 H -0.018100 0.824200 0.017400
C241 C 0.107950 0.502730 -0.006010
C242 C 0.133400 0.370280 -0.000660
H243 H 0.145500 0.324000 0.042900
C244 C 0.140400 0.308630 -0.061990
C245 C 0.103610 0.505630 -0.123170
C246 C 0.163040 0.164690 -0.062890
C247 C 0.176280 0.082700 -0.002520
H248 H 0.172100 0.118900 0.040100
C249 C 0.195540 -0.051590 -0.004810
H250 H 0.205000 -0.104800 0.036400
C251 C 0.200860 -0.107400 -0.067320
H252 H 0.212500 -0.198800 -0.069000
C253 C 0.188980 -0.027800 -0.127370
H254 H 0.193300 -0.065000 -0.169700
C255 C 0.170680 0.107620 -0.125310
H256 H 0.163400 0.161000 -0.166100
N257 N 0.069540 0.696020 0.134790
N258 N 0.101450 0.581670 0.169400
N259 N 0.117390 0.504850 0.121980
N260 N 0.092550 0.573300 -0.067300
N261 N 0.124910 0.376320 -0.124350
N262 N 0.092460 0.576540 -0.185110
H263 H 0.099100 0.538000 -0.222200
H264 H 0.078700 0.660000 -0.187300
C265 C 0.332210 0.432050 0.312880
H266 H 0.306400 0.350300 0.309100
C267 C 0.293850 0.554500 0.309470
H268 H 0.242400 0.554400 0.303200
C269 C 0.332030 0.675100 0.315300
H270 H 0.306200 0.756500 0.312900
C271 C 0.406910 0.676630 0.324550
H272 H 0.432400 0.758700 0.328600
C273 C 0.445340 0.556490 0.327950
H274 H 0.496800 0.558400 0.334400
C275 C 0.408700 0.432600 0.321960
C276 C 0.452180 0.303160 0.324290
H277 H 0.505500 0.321800 0.345500
H278 H 0.444400 0.271800 0.275500
C279 C 0.403570 0.069040 0.443110
C280 C 0.435020 0.192810 0.435680
C281 C 0.469380 0.302600 0.486620
H282 H 0.437800 0.381500 0.475500
H283 H 0.474600 0.273500 0.534800
H284 H 0.518100 0.324200 0.482600
C285 C 0.392050 0.002730 0.506010
C286 C 0.366600 -0.129720 0.500660
H287 H 0.354500 -0.176000 0.457100
C288 C 0.359600 -0.191370 0.561990
C289 C 0.396390 0.005630 0.623170
C290 C 0.336960 -0.335310 0.562890
C291 C 0.323720 -0.417300 0.502520
H292 H 0.327900 -0.381100 0.459900
C293 C 0.304460 -0.551590 0.504810
H294 H 0.295000 -0.604800 0.463600
C295 C 0.299140 -0.607400 0.567320
H296 H 0.287500 -0.698800 0.569000
C297 C 0.311020 -0.527800 0.627370
H298 H 0.306700 -0.565000 0.669700
C299 C 0.329320 -0.392380 0.625310
H300 H 0.336600 -0.339000 0.666100
N301 N 0.430460 0.196020 0.365210
N302 N 0.398550 0.081670 0.330600
N303 N 0.382610 0.004850 0.378020
N304 N 0.407450 0.073300 0.567300
N305 N 0.375090 -0.123680 0.624350
N306 N 0.407540 0.076540 0.685110
H307 H 0.400900 0.038000 0.722200
H308 H 0.421300 0.160000 0.687300
C309 C 0.667790 0.432050 0.187120
H310 H 0.693600 0.350300 0.190900
C311 C 0.706150 0.554500 0.190530
H312 H 0.757600 0.554400 0.196800
C313 C 0.667970 0.675100 0.184700
H314 H 0.693800 0.756500 0.187100
C315 C 0.593090 0.676630 0.175450
H316 H 0.567600 0.758700 0.171400
C317 C 0.554660 0.556490 0.172050
H318 H 0.503200 0.558400 0.165600
C319 C 0.591300 0.432600 0.178040
C320 C 0.547820 0.303160 0.175710
H321 H 0.494500 0.321800 0.154500
H322 H 0.555600 0.271800 0.224500
C323 C 0.596430 0.069040 0.056890
C324 C 0.564980 0.192810 0.064320
C325 C 0.530620 0.302600 0.013380
H326 H 0.562200 0.381500 0.024500
H327 H 0.525400 0.273500 -0.034800
H328 H 0.481900 0.324200 0.017400
C329 C 0.607950 0.002730 -0.006010
C330 C 0.633400 -0.129720 -0.000660
H331 H 0.645500 -0.176000 0.042900
C332 C 0.640400 -0.191370 -0.061990
C333 C 0.603610 0.005630 -0.123170
C334 C 0.663040 -0.335310 -0.062890
C335 C 0.676280 -0.417300 -0.002520
H336 H 0.672100 -0.381100 0.040100
C337 C 0.695540 -0.551590 -0.004810
H338 H 0.705000 -0.604800 0.036400
C339 C 0.700860 -0.607400 -0.067320
H340 H 0.712500 -0.698800 -0.069000
C341 C 0.688980 -0.527800 -0.127370
H342 H 0.693300 -0.565000 -0.169700
C343 C 0.670680 -0.392380 -0.125310
H344 H 0.663400 -0.339000 -0.166100
N345 N 0.569540 0.196020 0.134790
N346 N 0.601450 0.081670 0.169400
N347 N 0.617390 0.004850 0.121980
N348 N 0.592550 0.073300 -0.067300
N349 N 0.624910 -0.123680 -0.124350
N350 N 0.592460 0.076540 -0.185110
H351 H 0.599100 0.038000 -0.222200
H352 H 0.578700 0.160000 -0.187300

#END
