
#######################################################################
#
#                 Cambridge Crystallographic Data Centre
#                                CCDC 
#
#######################################################################
#
# If this CIF has been generated from an entry in the Cambridge 
# Structural Database, then it will include bibliographic, chemical, 
# crystal, experimental, refinement or atomic coordinate data resulting 
# from the CCDC's data processing and validation procedures.
#
#######################################################################

data_ABAWIK
_symmetry_cell_setting           monoclinic
_symmetry_space_group_name_H-M   'P 21/n'
_symmetry_Int_Tables_number      14
_space_group_name_Hall           '-P 2yn'
loop_
_symmetry_equiv_pos_site_id
_symmetry_equiv_pos_as_xyz
1 x,y,z
2 1/2-x,1/2+y,1/2-z
3 -x,-y,-z
4 1/2+x,1/2-y,1/2+z
_cell_length_a                   10.800(2)
_cell_length_b                   4.806(1)
_cell_length_c                   17.078(4)
_cell_angle_alpha                90
_cell_angle_beta                 99.40(2)
_cell_angle_gamma                90
_cell_volume                     874.527
loop_
_atom_site_label
_atom_site_type_symbol
_atom_site_fract_x
_atom_site_fract_y
_atom_site_fract_z
C1 C 0.1375(2) 0.7413(5) 0.5206(1)
C2 C 0.2471(2) 0.5553(4) 0.5155(1)
O1 O 0.3346(2) 0.5294(4) 0.5711(1)
N1 N 0.2451(2) 0.4161(4) 0.4482(1)
C3 C 0.3478(2) 0.2392(4) 0.4339(1)
C4 C 0.3179(2) 0.0858(4) 0.3558(1)
C5 C 0.4305(2) -0.0713(4) 0.3355(1)
N2 N 0.5226(2) 0.1115(4) 0.3094(1)
O2 O 0.4550(2) 0.0474(4) 0.1798(1)
C6 C 0.5245(2) 0.1652(4) 0.2333(1)
C7 C 0.6175(2) 0.3783(6) 0.2168(2)
H1 H 0.1954(2) 0.4461(4) 0.4131(2)
H2 H 0.5693(2) 0.1956(5) 0.3420(1)
C1 C 0.3625(2) 1.2413(5) -0.0206(1)
C2 C 0.2529(2) 1.0553(4) -0.0155(1)
O1 O 0.1654(2) 1.0294(4) -0.0711(1)
N1 N 0.2549(2) 0.9161(4) 0.0518(1)
C3 C 0.1522(2) 0.7392(4) 0.0661(1)
C4 C 0.1821(2) 0.5858(4) 0.1442(1)
C5 C 0.0695(2) 0.4287(4) 0.1645(1)
N2 N -0.0226(2) 0.6115(4) 0.1906(1)
O2 O 0.0450(2) 0.5474(4) 0.3202(1)
C6 C -0.0245(2) 0.6652(4) 0.2667(1)
C7 C -0.1175(2) 0.8783(6) 0.2832(2)
H1 H 0.3046(2) 0.9461(4) 0.0869(2)
H2 H -0.0693(2) 0.6956(5) 0.1580(1)
C1 C 0.8625(2) 0.2587(5) 0.4794(1)
C2 C 0.7529(2) 0.4447(4) 0.4845(1)
O1 O 0.6654(2) 0.4706(4) 0.4289(1)
N1 N 0.7549(2) 0.5839(4) 0.5518(1)
C3 C 0.6522(2) 0.7608(4) 0.5661(1)
C4 C 0.6821(2) 0.9142(4) 0.6442(1)
C5 C 0.5695(2) 1.0713(4) 0.6645(1)
N2 N 0.4774(2) 0.8885(4) 0.6906(1)
O2 O 0.5450(2) 0.9526(4) 0.8202(1)
C6 C 0.4755(2) 0.8348(4) 0.7667(1)
C7 C 0.3825(2) 0.6217(6) 0.7832(2)
H1 H 0.8046(2) 0.5539(4) 0.5869(2)
H2 H 0.4307(2) 0.8044(5) 0.6580(1)
C1 C 0.6375(2) -0.2413(5) 1.0206(1)
C2 C 0.7471(2) -0.0553(4) 1.0155(1)
O1 O 0.8346(2) -0.0294(4) 1.0711(1)
N1 N 0.7451(2) 0.0839(4) 0.9482(1)
C3 C 0.8478(2) 0.2608(4) 0.9339(1)
C4 C 0.8179(2) 0.4142(4) 0.8558(1)
C5 C 0.9305(2) 0.5713(4) 0.8355(1)
N2 N 1.0226(2) 0.3885(4) 0.8094(1)
O2 O 0.9550(2) 0.4526(4) 0.6798(1)
C6 C 1.0245(2) 0.3348(4) 0.7333(1)
C7 C 1.1175(2) 0.1217(6) 0.7168(2)
H1 H 0.6954(2) 0.0539(4) 0.9131(2)
H2 H 1.0693(2) 0.3044(5) 0.8420(1)

#END
