
#######################################################################
#
#                 Cambridge Crystallographic Data Centre
#                                CCDC 
#
#######################################################################
#
# If this CIF has been generated from an entry in the Cambridge 
# Structural Database, then it will include bibliographic, chemical, 
# crystal, experimental, refinement or atomic coordinate data resulting 
# from the CCDC's data processing and validation procedures.
#
#######################################################################

data_ABBRCH10
_symmetry_cell_setting           monoclinic
_symmetry_space_group_name_H-M   'P 21'
_symmetry_Int_Tables_number      4
_space_group_name_Hall           'P 2yb'
loop_
_symmetry_equiv_pos_site_id
_symmetry_equiv_pos_as_xyz
1 x,y,z
2 -x,1/2+y,-z
_cell_length_a                   14.990
_cell_length_b                   7.750
_cell_length_c                   11.490
_cell_angle_alpha                90
_cell_angle_beta                 105.28
_cell_angle_gamma                90
_cell_volume                     1287.64
loop_
_atom_site_label
_atom_site_type_symbol
_atom_site_fract_x
_atom_site_fract_y
_atom_site_fract_z
Br1 Br 1.10380 0.00000 0.15770
Br2 Br 1.15260 0.40840 0.06030
C1 C 0.96910 0.17800 0.24590
C2 C 0.90780 0.33440 0.25870
C3 C 0.81320 0.14180 0.36620
C4 C 0.77460 0.12360 0.48040
C5 C 0.71340 0.27760 0.49140
C6 C 0.77120 0.44180 0.49380
C7 C 0.71410 0.58570 0.52950
C8 C 0.66530 0.49190 0.61720
C9 C 0.68690 0.29600 0.61220
C10 C 0.62500 0.27730 0.38660
C11 C 0.82930 0.35010 0.13650
C12 C 1.02560 0.21250 0.15540
C13 C 0.60940 0.18930 0.64220
C14 C 0.62280 -0.00580 0.63090
C15 C 0.60300 0.23050 0.77350
C16 C 0.50520 0.19710 0.78760
C17 C 0.49890 0.23220 0.91530
C18 C 0.40580 0.20100 0.93890
C19 C 0.33170 0.32460 0.86250
C20 C 0.41020 0.22120 1.07520
C21 C 1.08710 0.36800 0.17900
C22 C 1.02500 0.52520 0.18890
C23 C 0.96970 0.49930 0.28260
C24 C 0.91680 0.66010 0.29800
C25 C 0.86640 0.63380 0.39700
C26 C 0.80950 0.47190 0.38470
C27 C 0.86580 0.30950 0.36710
H1 H 1.01440 0.14580 0.33370
H2 H 0.85910 0.03220 0.36460
H3 H 0.83110 0.11460 0.56190
H4 H 0.83070 0.42410 0.57090
H5 H 0.76130 0.68310 0.57940
H6 H 0.69050 0.53950 0.70630
H7 H 0.74940 0.27190 0.68560
H8 H 0.58440 0.16090 0.39360
H9 H 0.78760 0.23390 0.12360
H10 H 0.97980 0.22520 0.06820
H11 H 0.54410 0.22430 0.57510
H12 H 0.62170 0.36620 0.79150
H13 H 0.68710 -0.04200 0.69530
H14 H 0.45490 0.28080 0.72590
H15 H 0.52090 0.36530 0.94090
H16 H 0.38340 0.06930 0.91470
H17 H 0.43260 0.35510 1.10130
H18 H 0.35310 0.45830 0.88870
H19 H 1.13680 0.35050 0.26690
H20 H 1.07020 0.64150 0.21510
H21 H 1.02040 0.47770 0.37080
H22 H 0.96320 0.77020 0.31510
H23 H 0.91580 0.64330 0.48480
H24 H 0.75210 0.48370 0.30630
H25 H 0.92630 0.06330 0.21750
H26 H 0.97830 0.55400 0.10240
H27 H 0.86660 0.68550 0.21060
H28 H 0.82030 0.75010 0.39570
H29 H 0.75770 0.13160 0.28690
H30 H 0.73580 0.00210 0.47510
H31 H 0.66450 0.63040 0.45000
H32 H 0.59140 0.50790 0.58320
H33 H 0.65250 0.15340 0.83500
H34 H 0.48420 0.06590 0.76340
H35 H 0.55140 0.15700 0.97810
H36 H 0.78720 0.46090 0.14100
H37 H 0.86120 0.36410 0.06330
H38 H 0.58560 0.38930 0.39030
H39 H 0.64450 0.27020 0.30250
H40 H 0.56650 -0.07410 0.65390
H41 H 0.62550 -0.04110 0.54180
H42 H 0.48140 0.25920 1.12140
H43 H 0.36500 0.32530 1.08640
H44 H 0.26590 0.30170 0.87920
H45 H 0.32880 0.30720 0.76930
Br1 Br -0.10380 0.50000 0.84230
Br2 Br -0.15260 0.90840 0.93970
C1 C 0.03090 0.67800 0.75410
C2 C 0.09220 0.83440 0.74130
C3 C 0.18680 0.64180 0.63380
C4 C 0.22540 0.62360 0.51960
C5 C 0.28660 0.77760 0.50860
C6 C 0.22880 0.94180 0.50620
C7 C 0.28590 1.08570 0.47050
C8 C 0.33470 0.99190 0.38280
C9 C 0.31310 0.79600 0.38780
C10 C 0.37500 0.77730 0.61340
C11 C 0.17070 0.85010 0.86350
C12 C -0.02560 0.71250 0.84460
C13 C 0.39060 0.68930 0.35780
C14 C 0.37720 0.49420 0.36910
C15 C 0.39700 0.73050 0.22650
C16 C 0.49480 0.69710 0.21240
C17 C 0.50110 0.73220 0.08470
C18 C 0.59420 0.70100 0.06110
C19 C 0.66830 0.82460 0.13750
C20 C 0.58980 0.72120 -0.07520
C21 C -0.08710 0.86800 0.82100
C22 C -0.02500 1.02520 0.81110
C23 C 0.03030 0.99930 0.71740
C24 C 0.08320 1.16010 0.70200
C25 C 0.13360 1.13380 0.60300
C26 C 0.19050 0.97190 0.61530
C27 C 0.13420 0.80950 0.63290
H1 H -0.01440 0.64580 0.66630
H2 H 0.14090 0.53220 0.63540
H3 H 0.16890 0.61460 0.43810
H4 H 0.16930 0.92410 0.42910
H5 H 0.23870 1.18310 0.42060
H6 H 0.30950 1.03950 0.29370
H7 H 0.25060 0.77190 0.31440
H8 H 0.41560 0.66090 0.60640
H9 H 0.21240 0.73390 0.87640
H10 H 0.02020 0.72520 0.93180
H11 H 0.45590 0.72430 0.42490
H12 H 0.37830 0.86620 0.20850
H13 H 0.31290 0.45800 0.30470
H14 H 0.54510 0.78080 0.27410
H15 H 0.47910 0.86530 0.05910
H16 H 0.61660 0.56930 0.08530
H17 H 0.56740 0.85510 -0.10130
H18 H 0.64690 0.95830 0.11130
H19 H -0.13680 0.85050 0.73310
H20 H -0.07020 1.14150 0.78490
H21 H -0.02040 0.97770 0.62920
H22 H 0.03680 1.27020 0.68490
H23 H 0.08420 1.14330 0.51520
H24 H 0.24790 0.98370 0.69370
H25 H 0.07370 0.56330 0.78250
H26 H 0.02170 1.05400 0.89760
H27 H 0.13340 1.18550 0.78940
H28 H 0.17970 1.25010 0.60430
H29 H 0.24230 0.63160 0.71310
H30 H 0.26420 0.50210 0.52490
H31 H 0.33550 1.13040 0.55000
H32 H 0.40860 1.00790 0.41680
H33 H 0.34750 0.65340 0.16500
H34 H 0.51580 0.56590 0.23660
H35 H 0.44860 0.65700 0.02190
H36 H 0.21280 0.96090 0.85900
H37 H 0.13880 0.86410 0.93670
H38 H 0.41440 0.88930 0.60970
H39 H 0.35550 0.77020 0.69750
H40 H 0.43350 0.42590 0.34610
H41 H 0.37450 0.45890 0.45820
H42 H 0.51860 0.75920 -0.12140
H43 H 0.63500 0.82530 -0.08640
H44 H 0.73410 0.80170 0.12080
H45 H 0.67120 0.80720 0.23070

#END
