
#######################################################################
#
#                 Cambridge Crystallographic Data Centre
#                                CCDC 
#
#######################################################################
#
# If this CIF has been generated from an entry in the Cambridge 
# Structural Database, then it will include bibliographic, chemical, 
# crystal, experimental, refinement or atomic coordinate data resulting 
# from the CCDC's data processing and validation procedures.
#
#######################################################################

data_ABCMHP
_symmetry_cell_setting           monoclinic
_symmetry_space_group_name_H-M   'P 21/c'
_symmetry_Int_Tables_number      14
_space_group_name_Hall           '-P 2ybc'
loop_
_symmetry_equiv_pos_site_id
_symmetry_equiv_pos_as_xyz
1 x,y,z
2 -x,1/2+y,1/2-z
3 -x,-y,-z
4 x,1/2-y,1/2+z
_cell_length_a                   6.060(2)
_cell_length_b                   13.193(5)
_cell_length_c                   24.688(4)
_cell_angle_alpha                90
_cell_angle_beta                 102.21(2)
_cell_angle_gamma                90
_cell_volume                     1929.15
loop_
_atom_site_label
_atom_site_type_symbol
_atom_site_fract_x
_atom_site_fract_y
_atom_site_fract_z
Br1 Br 1.15740 0.20930 0.30510
Br2 Br 0.74240 -0.03450 0.08890
Cl1 Cl 0.80200 0.15840 -0.02490
C1 C 1.15670 0.20010 0.22720
C2 C 0.91180 0.19890 0.19050
C3 C 0.80770 0.30640 0.18620
C4 C 0.61220 0.31460 0.13610
C5 C 0.69270 0.29080 0.08360
C6 C 0.79580 0.18240 0.08730
C7 C 0.94870 0.17110 0.04470
C8 C 0.61910 0.10100 0.08120
C9 C 0.79420 0.40440 0.26900
C10 C 0.33460 0.44740 0.13160
C11 C 0.50520 0.35930 -0.00370
C12 C 0.67320 0.41530 0.31420
C13 C 0.29710 0.55950 0.13810
C14 C 0.27440 0.36040 -0.04440
O1 O 0.77000 0.12760 0.20530
O2 O 0.71510 0.32550 0.23410
O3 O 0.55050 0.42110 0.13400
O4 O 0.49770 0.29470 0.03870
O5 O 0.96710 0.17560 0.13820
O6 O 0.95150 0.45370 0.25930
O7 O 0.18850 0.38280 0.12540
O8 O 0.66510 0.40830 -0.00650
Br1 Br -0.15740 0.70930 0.19490
Br2 Br 0.25760 0.46550 0.41110
Cl1 Cl 0.19800 0.65840 0.52490
C1 C -0.15670 0.70010 0.27280
C2 C 0.08820 0.69890 0.30950
C3 C 0.19230 0.80640 0.31380
C4 C 0.38780 0.81460 0.36390
C5 C 0.30730 0.79080 0.41640
C6 C 0.20420 0.68240 0.41270
C7 C 0.05130 0.67110 0.45530
C8 C 0.38090 0.60100 0.41880
C9 C 0.20580 0.90440 0.23100
C10 C 0.66540 0.94740 0.36840
C11 C 0.49480 0.85930 0.50370
C12 C 0.32680 0.91530 0.18580
C13 C 0.70290 1.05950 0.36190
C14 C 0.72560 0.86040 0.54440
O1 O 0.23000 0.62760 0.29470
O2 O 0.28490 0.82550 0.26590
O3 O 0.44950 0.92110 0.36600
O4 O 0.50230 0.79470 0.46130
O5 O 0.03290 0.67560 0.36180
O6 O 0.04850 0.95370 0.24070
O7 O 0.81150 0.88280 0.37460
O8 O 0.33490 0.90830 0.50650
Br1 Br -0.15740 0.79070 0.69490
Br2 Br 0.25760 1.03450 0.91110
Cl1 Cl 0.19800 0.84160 1.02490
C1 C -0.15670 0.79990 0.77280
C2 C 0.08820 0.80110 0.80950
C3 C 0.19230 0.69360 0.81380
C4 C 0.38780 0.68540 0.86390
C5 C 0.30730 0.70920 0.91640
C6 C 0.20420 0.81760 0.91270
C7 C 0.05130 0.82890 0.95530
C8 C 0.38090 0.89900 0.91880
C9 C 0.20580 0.59560 0.73100
C10 C 0.66540 0.55260 0.86840
C11 C 0.49480 0.64070 1.00370
C12 C 0.32680 0.58470 0.68580
C13 C 0.70290 0.44050 0.86190
C14 C 0.72560 0.63960 1.04440
O1 O 0.23000 0.87240 0.79470
O2 O 0.28490 0.67450 0.76590
O3 O 0.44950 0.57890 0.86600
O4 O 0.50230 0.70530 0.96130
O5 O 0.03290 0.82440 0.86180
O6 O 0.04850 0.54630 0.74070
O7 O 0.81150 0.61720 0.87460
O8 O 0.33490 0.59170 1.00650
Br1 Br 1.15740 0.29070 0.80510
Br2 Br 0.74240 0.53450 0.58890
Cl1 Cl 0.80200 0.34160 0.47510
C1 C 1.15670 0.29990 0.72720
C2 C 0.91180 0.30110 0.69050
C3 C 0.80770 0.19360 0.68620
C4 C 0.61220 0.18540 0.63610
C5 C 0.69270 0.20920 0.58360
C6 C 0.79580 0.31760 0.58730
C7 C 0.94870 0.32890 0.54470
C8 C 0.61910 0.39900 0.58120
C9 C 0.79420 0.09560 0.76900
C10 C 0.33460 0.05260 0.63160
C11 C 0.50520 0.14070 0.49630
C12 C 0.67320 0.08470 0.81420
C13 C 0.29710 -0.05950 0.63810
C14 C 0.27440 0.13960 0.45560
O1 O 0.77000 0.37240 0.70530
O2 O 0.71510 0.17450 0.73410
O3 O 0.55050 0.07890 0.63400
O4 O 0.49770 0.20530 0.53870
O5 O 0.96710 0.32440 0.63820
O6 O 0.95150 0.04630 0.75930
O7 O 0.18850 0.11720 0.62540
O8 O 0.66510 0.09170 0.49350

#END
