
#######################################################################
#
#                 Cambridge Crystallographic Data Centre
#                                CCDC 
#
#######################################################################
#
# If this CIF has been generated from an entry in the Cambridge 
# Structural Database, then it will include bibliographic, chemical, 
# crystal, experimental, refinement or atomic coordinate data resulting 
# from the CCDC's data processing and validation procedures.
#
#######################################################################

data_ABDECO10
_symmetry_cell_setting           triclinic
_symmetry_space_group_name_H-M   'P -1'
_symmetry_Int_Tables_number      2
_space_group_name_Hall           '-P 1'
loop_
_symmetry_equiv_pos_site_id
_symmetry_equiv_pos_as_xyz
1 x,y,z
2 -x,-y,-z
_cell_length_a                   11.68(2)
_cell_length_b                   12.91(2)
_cell_length_c                   10.43(2)
_cell_angle_alpha                114.7(1)
_cell_angle_beta                 90.2(1)
_cell_angle_gamma                118.25(1)
_cell_volume                     1218.19
loop_
_atom_site_label
_atom_site_type_symbol
_atom_site_fract_x
_atom_site_fract_y
_atom_site_fract_z
Br1 Br 0.14730 0.14570 0.48030
C1 C 0.45140 0.77220 0.49620
C2 C 0.13120 0.60870 0.70150
C3 C -0.00820 0.52720 0.74260
C4 C -0.06310 0.62070 0.82230
C5 C 0.03950 0.76330 0.96180
C6 C 0.18300 0.84160 0.92870
C7 C 0.23570 0.74260 0.84820
C8 C 0.28100 0.96980 0.79200
C9 C 0.20710 0.31970 0.49720
C10 C 0.22960 0.97450 0.66300
C11 C 0.26490 0.72430 0.97900
C12 C 0.23300 0.82270 1.11820
C13 C 0.27790 0.94300 1.08700
C14 C 0.07860 0.74930 1.08650
C15 C -0.02780 0.84980 1.02540
C18 C 0.15060 0.39620 0.59330
C20 C 0.19390 0.52340 0.60880
C21 C 0.29320 0.57280 0.52840
C22 C 0.34590 0.49590 0.43200
C23 C 0.30090 0.36660 0.41230
C24 C 0.42340 0.31820 0.21090
H1 H 0.46000 0.71700 0.39600
H2 H 0.46500 0.86500 0.52300
H3 H 0.55000 0.80000 0.56700
H4 H 0.10800 0.63800 0.62100
H5 H 0.00400 0.50000 0.81900
H6 H -0.06700 0.44200 0.64200
H7 H -0.15000 0.59200 0.86300
H8 H -0.06700 0.62500 0.71900
H9 H 0.33300 0.80000 0.83300
H10 H 0.21300 0.88300 0.56700
H11 H 0.28300 1.05000 0.65000
H12 H 0.14000 0.98500 0.69600
H13 H 0.19600 0.62900 0.96300
H14 H 0.36900 0.75200 0.97900
H15 H 0.25000 0.82500 1.21800
H16 H 0.25000 1.00900 1.14200
H17 H 0.37900 0.98300 1.08300
H18 H -0.05000 0.86300 0.93300
H19 H -0.11700 0.80000 1.05800
H20 H 0.04200 0.93800 1.10000
H21 H 0.10000 0.35800 0.66300
H22 H 0.41700 0.52500 0.36700
H23 H 0.45000 0.25800 0.15700
H24 H 0.38800 0.37500 0.17900
H25 H 0.52100 0.40000 0.25600
O1 O 0.33010 0.70020 0.54820
O2 O 0.17070 0.89580 0.83850
O3 O 0.39940 1.02180 0.84070
O4 O -0.00250 0.68600 1.14440
O5 O 0.34520 0.28160 0.31860
Br1 Br 0.85270 0.85430 0.51970
C1 C 0.54860 0.22780 0.50380
C2 C 0.86880 0.39130 0.29850
C3 C 1.00820 0.47280 0.25740
C4 C 1.06310 0.37930 0.17770
C5 C 0.96050 0.23670 0.03820
C6 C 0.81700 0.15840 0.07130
C7 C 0.76430 0.25740 0.15180
C8 C 0.71900 0.03020 0.20800
C9 C 0.79290 0.68030 0.50280
C10 C 0.77040 0.02550 0.33700
C11 C 0.73510 0.27570 0.02100
C12 C 0.76700 0.17730 -0.11820
C13 C 0.72210 0.05700 -0.08700
C14 C 0.92140 0.25070 -0.08650
C15 C 1.02780 0.15020 -0.02540
C18 C 0.84940 0.60380 0.40670
C20 C 0.80610 0.47660 0.39120
C21 C 0.70680 0.42720 0.47160
C22 C 0.65410 0.50410 0.56800
C23 C 0.69910 0.63340 0.58770
C24 C 0.57660 0.68180 0.78910
H1 H 0.54000 0.28300 0.60400
H2 H 0.53500 0.13500 0.47700
H3 H 0.45000 0.20000 0.43300
H4 H 0.89200 0.36200 0.37900
H5 H 0.99600 0.50000 0.18100
H6 H 1.06700 0.55800 0.35800
H7 H 1.15000 0.40800 0.13700
H8 H 1.06700 0.37500 0.28100
H9 H 0.66700 0.20000 0.16700
H10 H 0.78700 0.11700 0.43300
H11 H 0.71700 -0.05000 0.35000
H12 H 0.86000 0.01500 0.30400
H13 H 0.80400 0.37100 0.03700
H14 H 0.63100 0.24800 0.02100
H15 H 0.75000 0.17500 -0.21800
H16 H 0.75000 -0.00900 -0.14200
H17 H 0.62100 0.01700 -0.08300
H18 H 1.05000 0.13700 0.06700
H19 H 1.11700 0.20000 -0.05800
H20 H 0.95800 0.06200 -0.10000
H21 H 0.90000 0.64200 0.33700
H22 H 0.58300 0.47500 0.63300
H23 H 0.55000 0.74200 0.84300
H24 H 0.61200 0.62500 0.82100
H25 H 0.47900 0.60000 0.74400
O1 O 0.66990 0.29980 0.45180
O2 O 0.82930 0.10420 0.16150
O3 O 0.60060 -0.02180 0.15930
O4 O 1.00250 0.31400 -0.14440
O5 O 0.65480 0.71840 0.68140
C16 C 0.54380 0.40620 -0.07410
C17 C 0.41280 0.37790 -0.12810
C19 C 0.62620 0.52980 0.05720
C19A C 0.37380 0.47020 -0.05720
C17A C 0.58720 0.62210 0.12810
C16A C 0.45620 0.59380 0.07410
C16 C 0.54380 0.40620 0.92590
C17 C 0.41280 0.37790 0.87190
C19 C 0.62620 0.52980 1.05720
C19A C 0.37380 0.47020 0.94280
C17A C 0.58720 0.62210 1.12810
C16A C 0.45620 0.59380 1.07410

#END
