
#######################################################################
#
#                 Cambridge Crystallographic Data Centre
#                                CCDC 
#
#######################################################################
#
# If this CIF has been generated from an entry in the Cambridge 
# Structural Database, then it will include bibliographic, chemical, 
# crystal, experimental, refinement or atomic coordinate data resulting 
# from the CCDC's data processing and validation procedures.
#
#######################################################################

data_ABDZNC20
_symmetry_cell_setting           monoclinic
_symmetry_space_group_name_H-M   'B 1 1 2/b'
_symmetry_Int_Tables_number      15
_space_group_name_Hall           '-B 2n'
loop_
_symmetry_equiv_pos_site_id
_symmetry_equiv_pos_as_xyz
1 x,y,z
2 1/2+x,y,1/2+z
3 -x,1/2-y,z
4 1/2-x,1/2-y,1/2+z
5 -x,-y,-z
6 1/2-x,-y,1/2-z
7 x,1/2+y,-z
8 1/2+x,1/2+y,1/2-z
_cell_length_a                   14.25(3)
_cell_length_b                   15.30(3)
_cell_length_c                   10.65(2)
_cell_angle_alpha                90
_cell_angle_beta                 90
_cell_angle_gamma                90.0(5)
_cell_volume                     2321.97
loop_
_atom_site_label
_atom_site_type_symbol
_atom_site_fract_x
_atom_site_fract_y
_atom_site_fract_z
Cl1 Cl 0.45000 0.36300 0.48400
Cl2 Cl 0.37900 0.20400 0.74000
Zn1 Zn 0.50000 0.25000 0.61200
Cl1B Cl 0.55000 0.13700 0.48400
Cl2B Cl 0.62100 0.29600 0.74000
Cl1 Cl -0.05000 0.36300 -0.01600
Cl2 Cl -0.12100 0.20400 0.24000
Zn1 Zn 0.00000 0.25000 0.11200
Cl1B Cl 0.05000 0.13700 -0.01600
Cl2B Cl 0.12100 0.29600 0.24000
Cl1 Cl 0.95000 0.36300 -0.01600
Cl2 Cl 0.87900 0.20400 0.24000
Zn1 Zn 1.00000 0.25000 0.11200
Cl1B Cl 1.05000 0.13700 -0.01600
Cl2B Cl 1.12100 0.29600 0.24000
Cl1 Cl 0.55000 0.63700 0.51600
Cl2 Cl 0.62100 0.79600 0.26000
Zn1 Zn 0.50000 0.75000 0.38800
Cl1B Cl 0.45000 0.86300 0.51600
Cl2B Cl 0.37900 0.70400 0.26000
Cl1 Cl 0.05000 0.63700 1.01600
Cl2 Cl 0.12100 0.79600 0.76000
Zn1 Zn 0.00000 0.75000 0.88800
Cl1B Cl -0.05000 0.86300 1.01600
Cl2B Cl -0.12100 0.70400 0.76000
Cl1 Cl 1.05000 0.63700 1.01600
Cl2 Cl 1.12100 0.79600 0.76000
Zn1 Zn 1.00000 0.75000 0.88800
Cl1B Cl 0.95000 0.86300 1.01600
Cl2B Cl 0.87900 0.70400 0.76000
C1 C 0.33400 0.09500 0.24200
C2 C 0.39500 0.02300 0.27200
C3 C 0.41000 -0.03000 0.16500
C4 C 0.36800 -0.01500 0.04300
C5 C 0.30400 0.05600 0.02900
C6 C 0.28800 0.11600 0.12900
C7 C 0.34200 -0.05600 -0.18100
C8 C 0.44700 -0.15600 -0.03800
H1 H 0.42600 0.01100 0.36500
H2 H 0.45800 -0.08500 0.17500
H3 H 0.24200 0.17200 0.12100
N1 N 0.31100 0.15000 0.35200
N2 N 0.28800 0.20100 0.42800
N3 N 0.38800 -0.07300 -0.05400
C1 C 0.83400 0.09500 0.74200
C2 C 0.89500 0.02300 0.77200
C3 C 0.91000 -0.03000 0.66500
C4 C 0.86800 -0.01500 0.54300
C5 C 0.80400 0.05600 0.52900
C6 C 0.78800 0.11600 0.62900
C7 C 0.84200 -0.05600 0.31900
C8 C 0.94700 -0.15600 0.46200
H1 H 0.92600 0.01100 0.86500
H2 H 0.95800 -0.08500 0.67500
H3 H 0.74200 0.17200 0.62100
N1 N 0.81100 0.15000 0.85200
N2 N 0.78800 0.20100 0.92800
N3 N 0.88800 -0.07300 0.44600
C1 C 0.66600 0.40500 0.24200
C2 C 0.60500 0.47700 0.27200
C3 C 0.59000 0.53000 0.16500
C4 C 0.63200 0.51500 0.04300
C5 C 0.69600 0.44400 0.02900
C6 C 0.71200 0.38400 0.12900
C7 C 0.65800 0.55600 -0.18100
C8 C 0.55300 0.65600 -0.03800
H1 H 0.57400 0.48900 0.36500
H2 H 0.54200 0.58500 0.17500
H3 H 0.75800 0.32800 0.12100
N1 N 0.68900 0.35000 0.35200
N2 N 0.71200 0.29900 0.42800
N3 N 0.61200 0.57300 -0.05400
C1 C 0.16600 0.40500 0.74200
C2 C 0.10500 0.47700 0.77200
C3 C 0.09000 0.53000 0.66500
C4 C 0.13200 0.51500 0.54300
C5 C 0.19600 0.44400 0.52900
C6 C 0.21200 0.38400 0.62900
C7 C 0.15800 0.55600 0.31900
C8 C 0.05300 0.65600 0.46200
H1 H 0.07400 0.48900 0.86500
H2 H 0.04200 0.58500 0.67500
H3 H 0.25800 0.32800 0.62100
N1 N 0.18900 0.35000 0.85200
N2 N 0.21200 0.29900 0.92800
N3 N 0.11200 0.57300 0.44600
C1 C 0.66600 0.90500 0.75800
C2 C 0.60500 0.97700 0.72800
C3 C 0.59000 1.03000 0.83500
C4 C 0.63200 1.01500 0.95700
C5 C 0.69600 0.94400 0.97100
C6 C 0.71200 0.88400 0.87100
C7 C 0.65800 1.05600 1.18100
C8 C 0.55300 1.15600 1.03800
H1 H 0.57400 0.98900 0.63500
H2 H 0.54200 1.08500 0.82500
H3 H 0.75800 0.82800 0.87900
N1 N 0.68900 0.85000 0.64800
N2 N 0.71200 0.79900 0.57200
N3 N 0.61200 1.07300 1.05400
C1 C 0.16600 0.90500 0.25800
C2 C 0.10500 0.97700 0.22800
C3 C 0.09000 1.03000 0.33500
C4 C 0.13200 1.01500 0.45700
C5 C 0.19600 0.94400 0.47100
C6 C 0.21200 0.88400 0.37100
C7 C 0.15800 1.05600 0.68100
C8 C 0.05300 1.15600 0.53800
H1 H 0.07400 0.98900 0.13500
H2 H 0.04200 1.08500 0.32500
H3 H 0.25800 0.82800 0.37900
N1 N 0.18900 0.85000 0.14800
N2 N 0.21200 0.79900 0.07200
N3 N 0.11200 1.07300 0.55400
C1 C 0.33400 0.59500 0.75800
C2 C 0.39500 0.52300 0.72800
C3 C 0.41000 0.47000 0.83500
C4 C 0.36800 0.48500 0.95700
C5 C 0.30400 0.55600 0.97100
C6 C 0.28800 0.61600 0.87100
C7 C 0.34200 0.44400 1.18100
C8 C 0.44700 0.34400 1.03800
H1 H 0.42600 0.51100 0.63500
H2 H 0.45800 0.41500 0.82500
H3 H 0.24200 0.67200 0.87900
N1 N 0.31100 0.65000 0.64800
N2 N 0.28800 0.70100 0.57200
N3 N 0.38800 0.42700 1.05400
C1 C 0.83400 0.59500 0.25800
C2 C 0.89500 0.52300 0.22800
C3 C 0.91000 0.47000 0.33500
C4 C 0.86800 0.48500 0.45700
C5 C 0.80400 0.55600 0.47100
C6 C 0.78800 0.61600 0.37100
C7 C 0.84200 0.44400 0.68100
C8 C 0.94700 0.34400 0.53800
H1 H 0.92600 0.51100 0.13500
H2 H 0.95800 0.41500 0.32500
H3 H 0.74200 0.67200 0.37900
N1 N 0.81100 0.65000 0.14800
N2 N 0.78800 0.70100 0.07200
N3 N 0.88800 0.42700 0.55400

#END
