./ABEDAP_from_xyz.cif_generated_by_CrystalShift
_symmetry_cell_setting triclinic
_symmetry_space_group_name_H-M 'P 1'
loop_
_symmetry_equiv_pos_site_id
_symmetry_equiv_pos_as_xyz
1 x,y,z
_cell_length_a 9.958100
_cell_length_b 10.762500
_cell_length_c 13.615900
_cell_angle_alpha 71.809000
_cell_angle_beta 74.815000
_cell_angle_gamma 65.984000
_cell_volume 1250.935713
loop_
_atom_site_label
_atom_site_type_symbol
_atom_site_fract_x
_atom_site_fract_y
_atom_site_fract_z
Co1 Co 0.875000 0.370510 0.545960
S2 S 0.423400 0.887110 -0.041620
O3 O 0.836480 0.173210 0.561990
N4 N 0.892740 0.403740 0.376650
C5 C 0.699160 0.243470 0.566910
O6 O 0.651500 0.371430 0.566490
N7 N 0.636600 0.633300 0.193010
H8 H 0.562600 0.655100 0.241800
C9 C 0.589530 0.176490 0.576370
O10 O 0.091490 0.253080 0.553040
N11 N 0.022900 1.177450 -0.050330
H12 H -0.004600 1.175300 0.015400
C13 C 0.616170 0.035590 0.624470
H14 H 0.708400 -0.021200 0.644800
N15 N -0.161890 1.360120 -0.286010
O16 O 0.182700 0.422380 0.473370
C17 C 0.506130 -0.021240 0.642430
C18 C 0.369900 0.065390 0.609710
H19 H 0.295200 0.029100 0.621900
O20 O 0.697900 0.664100 0.017570
C21 C 0.343220 0.205830 0.558870
O22 O 0.213700 1.086100 -0.169770
C23 C 0.454270 0.260520 0.541950
H24 H 0.437800 0.353700 0.507500
C25 C 0.533600 -0.172600 0.697460
H26 H 0.632800 -0.216200 0.714200
H27 H 0.463300 -0.178300 0.760700
H28 H 0.522300 -0.219800 0.652500
C29 C 0.195220 0.300600 0.526260
C30 C 1.019500 0.358000 0.312470
H31 H 1.105200 0.299300 0.341300
C32 C 1.028200 0.394400 0.205210
H33 H 1.118000 0.358100 0.163300
C34 C 0.904100 0.484500 0.160100
H35 H 0.908700 0.510800 0.087800
C36 C 0.771700 0.535100 0.225530
C37 C 0.771400 0.487600 0.332970
H38 H 0.681400 0.515900 0.377000
C39 C 0.610100 0.697300 0.093230
C40 C 0.463700 0.811800 0.082860
C41 C 0.351300 0.871700 0.153990
H42 H 0.353900 0.844100 0.225600
C43 C 0.230400 0.979900 0.108800
H44 H 0.145200 1.031900 0.146700
C45 C 0.253400 0.999100 0.003080
C46 C 0.161300 1.092800 -0.079600
C47 C -0.287700 1.448700 -0.244020
H48 H -0.358500 1.509800 -0.286700
C49 C -0.316300 1.453000 -0.140550
H50 H -0.404700 1.516100 -0.114200
C51 C -0.212400 1.362600 -0.075840
H52 H -0.229800 1.364000 -0.005600
C53 C -0.081800 1.270000 -0.117770
C54 C -0.060200 1.272400 -0.223920
H55 H 0.027600 1.211100 -0.252500
Co56 Co -0.125000 0.370510 0.545960
Co57 Co -0.125000 1.370510 -0.454040
Co58 Co 0.125000 0.629490 0.454040
O59 O 1.091490 0.253080 0.553040
N60 N 0.838110 0.360120 0.713990
O61 O 0.817300 0.577620 0.526630
S62 S 0.576600 0.112890 1.041620
O63 O 0.163520 0.826790 0.438010
N64 N 0.107260 0.596260 0.623350
C65 C 0.300840 0.756530 0.433090
O66 O 0.348500 0.628570 0.433510
N67 N 0.363400 0.366700 0.806990
H68 H 0.437400 0.344900 0.758200
C69 C 0.410470 0.823510 0.423630
O70 O 0.908510 0.746920 0.446960
N71 N 0.977100 -0.177450 1.050330
H72 H 1.004600 -0.175300 0.984600
C73 C 0.383830 0.964410 0.375530
H74 H 0.291600 1.021200 0.355200
N75 N 1.161890 -0.360120 1.286010
C76 C 0.493870 1.021240 0.357570
C77 C 0.630100 0.934610 0.390290
H78 H 0.704800 0.970900 0.378100
O79 O 0.302100 0.335900 0.982430
C80 C 0.656780 0.794170 0.441130
O81 O 0.786300 -0.086100 1.169770
C82 C 0.545730 0.739480 0.458050
H83 H 0.562200 0.646300 0.492500
C84 C 0.466400 1.172600 0.302540
H85 H 0.367200 1.216200 0.285800
H86 H 0.536700 1.178300 0.239300
H87 H 0.477700 1.219800 0.347500
C88 C 0.804780 0.699400 0.473740
C89 C -0.019500 0.642000 0.687530
H90 H -0.105200 0.700700 0.658700
C91 C -0.028200 0.605600 0.794790
H92 H -0.118000 0.641900 0.836700
C93 C 0.095900 0.515500 0.839900
H94 H 0.091300 0.489200 0.912200
C95 C 0.228300 0.464900 0.774470
C96 C 0.228600 0.512400 0.667030
H97 H 0.318600 0.484100 0.623000
C98 C 0.389900 0.302700 0.906770
C99 C 0.536300 0.188200 0.917140
C100 C 0.648700 0.128300 0.846010
H101 H 0.646100 0.155900 0.774400
C102 C 0.769600 0.020100 0.891200
H103 H 0.854800 -0.031900 0.853300
C104 C 0.746600 0.000900 0.996920
C105 C 0.838700 -0.092800 1.079600
C106 C 1.287700 -0.448700 1.244020
H107 H 1.358500 -0.509800 1.286700
C108 C 1.316300 -0.453000 1.140550
H109 H 1.404700 -0.516100 1.114200
C110 C 1.212400 -0.362600 1.075840
H111 H 1.229800 -0.364000 1.005600
C112 C 1.081800 -0.270000 1.117770
C113 C 1.060200 -0.272400 1.223920
H114 H 0.972400 -0.211100 1.252500
Co115 Co 1.125000 0.629490 0.454040
Co116 Co 1.125000 -0.370510 1.454040
O117 O -0.091490 0.746920 0.446960
N118 N 0.161890 0.639880 0.286010
O119 O 0.935100 0.078780 0.360750
H120 H 0.907100 0.113500 0.414100
H121 H 1.012700 0.006400 0.371200
O122 O 0.064900 0.921220 0.639250
H123 H 0.092900 0.886500 0.585900
H124 H -0.012700 0.993600 0.628800
O125 O 0.858200 0.166200 0.164170
H126 H 0.861800 0.156000 0.228000
H127 H 0.805200 0.122100 0.162400
O128 O 0.141800 0.833800 0.835830
H129 H 0.138200 0.844000 0.772000
H130 H 0.194800 0.877900 0.837600

#END
