./ABEDIU_from_xyz.cif_generated_by_CrystalShift
_symmetry_cell_setting triclinic
_symmetry_space_group_name_H-M 'P 1'
loop_
_symmetry_equiv_pos_site_id
_symmetry_equiv_pos_as_xyz
1 x,y,z
_cell_length_a 4.717700
_cell_length_b 16.964300
_cell_length_c 19.449400
_cell_angle_alpha 71.100000
_cell_angle_beta 88.345000
_cell_angle_gamma 89.735000
_cell_volume 1472.028307
loop_
_atom_site_label
_atom_site_type_symbol
_atom_site_fract_x
_atom_site_fract_y
_atom_site_fract_z
S1 S 0.810300 0.097900 0.498600
S2 S 1.132000 0.121400 0.699900
O3 O 0.454000 -0.157400 0.648300
O4 O 1.718800 0.336400 0.608300
N5 N 0.710100 0.029500 0.635800
N6 N 1.214700 0.199700 0.562900
C7 C 0.568900 0.015500 0.526200
C8 C 0.542000 -0.011300 0.601300
C9 C 0.349500 -0.078600 0.648400
C10 C 0.260800 -0.222600 0.685500
C11 C 0.352000 -0.302100 0.673700
C12 C 0.549900 -0.309400 0.627900
C13 C 0.863200 0.087300 0.588300
C14 C 1.067800 0.138700 0.609300
C15 C 1.372900 0.201100 0.674200
C16 C 1.389200 0.235200 0.600500
C17 C 1.575700 0.306400 0.558300
C18 C 1.871900 0.411200 0.573100
C19 C 2.067700 0.427700 0.626000
C20 C 2.078600 0.491700 0.644600
C21 C 0.431100 -0.015500 0.473800
S22 S 0.189700 -0.097900 0.501400
C23 C 0.136800 -0.087300 0.411700
N24 N 0.289900 -0.029500 0.364200
C25 C 0.458000 0.011300 0.398700
C26 C 0.650500 0.078600 0.351600
O27 O 0.546000 0.157400 0.351700
C28 C 0.739200 0.222600 0.314500
C29 C 0.648000 0.302100 0.326300
C30 C 0.450100 0.309400 0.372100
C31 C -0.067800 -0.138700 0.390700
S32 S -0.132000 -0.121400 0.300100
C33 C -0.372900 -0.201100 0.325800
C34 C -0.389200 -0.235200 0.399500
N35 N -0.214700 -0.199700 0.437100
C36 C -0.575700 -0.306400 0.441700
O37 O -0.718800 -0.336400 0.391700
C38 C -0.871900 -0.411200 0.426900
C39 C -1.067700 -0.427700 0.374000
C40 C -1.078600 -0.491700 0.355400
S41 S 0.810300 1.097900 0.498600
S42 S 1.132000 1.121400 0.699900
O43 O 0.454000 0.842600 0.648300
O44 O 1.718800 1.336400 0.608300
N45 N 0.710100 1.029500 0.635800
N46 N 1.214700 1.199700 0.562900
C47 C 0.568900 1.015500 0.526200
C48 C 0.542000 0.988700 0.601300
C49 C 0.349500 0.921400 0.648400
C50 C 0.260800 0.777400 0.685500
C51 C 0.352000 0.697900 0.673700
C52 C 0.549900 0.690600 0.627900
C53 C 0.863200 1.087300 0.588300
C54 C 1.067800 1.138700 0.609300
C55 C 1.372900 1.201100 0.674200
C56 C 1.389200 1.235200 0.600500
C57 C 1.575700 1.306400 0.558300
C58 C 1.871900 1.411200 0.573100
C59 C 2.067700 1.427700 0.626000
C60 C 2.078600 1.491700 0.644600
C61 C 0.431100 0.984500 0.473800
S62 S 0.189700 0.902100 0.501400
C63 C 0.136800 0.912700 0.411700
N64 N 0.289900 0.970500 0.364200
C65 C 0.458000 1.011300 0.398700
C66 C 0.650500 1.078600 0.351600
O67 O 0.546000 1.157400 0.351700
C68 C 0.739200 1.222600 0.314500
C69 C 0.648000 1.302100 0.326300
C70 C 0.450100 1.309400 0.372100
C71 C -0.067800 0.861300 0.390700
S72 S -0.132000 0.878600 0.300100
C73 C -0.372900 0.798900 0.325800
C74 C -0.389200 0.764800 0.399500
N75 N -0.214700 0.800300 0.437100
C76 C -0.575700 0.693600 0.441700
O77 O -0.718800 0.663600 0.391700
C78 C -0.871900 0.588800 0.426900
C79 C -1.067700 0.572300 0.374000
C80 C -1.078600 0.508300 0.355400
S81 S -0.111100 0.271600 -0.207800
S82 S 0.188400 0.099000 -0.003000
O83 O -0.729300 0.415800 -0.118700
O84 O 0.556300 -0.058900 -0.140300
N85 N -0.216500 0.246100 -0.071300
N86 N 0.293700 0.125900 -0.139300
C87 C -0.359000 0.332500 -0.183500
C88 C -0.387300 0.310700 -0.109900
C89 C -0.578800 0.350700 -0.068500
C90 C -0.884300 0.464600 -0.084000
C91 C -1.078800 0.521200 -0.138800
C92 C -1.114100 0.598100 -0.150000
C93 C -0.062200 0.219700 -0.116600
C94 C 0.139900 0.152000 -0.093600
C95 C 0.430700 0.034300 -0.027300
C96 C 0.458600 0.059400 -0.102400
C97 C 0.650100 0.023000 -0.146900
C98 C 0.754700 -0.098300 -0.175000
C99 C 0.667100 -0.186800 -0.161100
C100 C 0.466400 -0.227100 -0.116100
C101 C 0.569300 -0.034300 0.027300
S102 S 0.811600 -0.099000 0.003000
C103 C 0.860100 -0.152000 0.093600
N104 N 0.706300 -0.125900 0.139300
C105 C 0.541400 -0.059400 0.102400
C106 C 0.349900 -0.023000 0.146900
O107 O 0.443700 0.058900 0.140300
C108 C 0.245300 0.098300 0.175000
C109 C 0.332900 0.186800 0.161100
C110 C 0.533600 0.227100 0.116100
C111 C 1.062200 -0.219700 0.116600
S112 S 1.111100 -0.271600 0.207800
C113 C 1.359000 -0.332500 0.183500
C114 C 1.387300 -0.310700 0.109900
N115 N 1.216500 -0.246100 0.071300
C116 C 1.578800 -0.350700 0.068500
O117 O 1.729300 -0.415800 0.118700
C118 C 1.884300 -0.464600 0.084000
C119 C 2.078800 -0.521200 0.138800
C120 C 2.114100 -0.598100 0.150000
S121 S -0.111100 0.271600 0.792200
S122 S 0.188400 0.099000 0.997000
O123 O -0.729300 0.415800 0.881300
O124 O 0.556300 -0.058900 0.859700
N125 N -0.216500 0.246100 0.928700
N126 N 0.293700 0.125900 0.860700
C127 C -0.359000 0.332500 0.816500
C128 C -0.387300 0.310700 0.890100
C129 C -0.578800 0.350700 0.931500
C130 C -0.884300 0.464600 0.916000
C131 C -1.078800 0.521200 0.861200
C132 C -1.114100 0.598100 0.850000
C133 C -0.062200 0.219700 0.883400
C134 C 0.139900 0.152000 0.906400
C135 C 0.430700 0.034300 0.972700
C136 C 0.458600 0.059400 0.897600
C137 C 0.650100 0.023000 0.853100
C138 C 0.754700 -0.098300 0.825000
C139 C 0.667100 -0.186800 0.838900
C140 C 0.466400 -0.227100 0.883900
C141 C 0.569300 -0.034300 1.027300
S142 S 0.811600 -0.099000 1.003000
C143 C 0.860100 -0.152000 1.093600
N144 N 0.706300 -0.125900 1.139300
C145 C 0.541400 -0.059400 1.102400
C146 C 0.349900 -0.023000 1.146900
O147 O 0.443700 0.058900 1.140300
C148 C 0.245300 0.098300 1.175000
C149 C 0.332900 0.186800 1.161100
C150 C 0.533600 0.227100 1.116100
C151 C 1.062200 -0.219700 1.116600
S152 S 1.111100 -0.271600 1.207800
C153 C 1.359000 -0.332500 1.183500
C154 C 1.387300 -0.310700 1.109900
N155 N 1.216500 -0.246100 1.071300
C156 C 1.578800 -0.350700 1.068500
O157 O 1.729300 -0.415800 1.118700
C158 C 1.884300 -0.464600 1.084000
C159 C 2.078800 -0.521200 1.138800
C160 C 2.114100 -0.598100 1.150000
S161 S -0.111100 1.271600 -0.207800
S162 S 0.188400 1.099000 -0.003000
O163 O -0.729300 1.415800 -0.118700
O164 O 0.556300 0.941100 -0.140300
N165 N -0.216500 1.246100 -0.071300
N166 N 0.293700 1.125900 -0.139300
C167 C -0.359000 1.332500 -0.183500
C168 C -0.387300 1.310700 -0.109900
C169 C -0.578800 1.350700 -0.068500
C170 C -0.884300 1.464600 -0.084000
C171 C -1.078800 1.521200 -0.138800
C172 C -1.114100 1.598100 -0.150000
C173 C -0.062200 1.219700 -0.116600
C174 C 0.139900 1.152000 -0.093600
C175 C 0.430700 1.034300 -0.027300
C176 C 0.458600 1.059400 -0.102400
C177 C 0.650100 1.023000 -0.146900
C178 C 0.754700 0.901700 -0.175000
C179 C 0.667100 0.813200 -0.161100
C180 C 0.466400 0.772900 -0.116100
C181 C 0.569300 0.965700 0.027300
S182 S 0.811600 0.901000 0.003000
C183 C 0.860100 0.848000 0.093600
N184 N 0.706300 0.874100 0.139300
C185 C 0.541400 0.940600 0.102400
C186 C 0.349900 0.977000 0.146900
O187 O 0.443700 1.058900 0.140300
C188 C 0.245300 1.098300 0.175000
C189 C 0.332900 1.186800 0.161100
C190 C 0.533600 1.227100 0.116100
C191 C 1.062200 0.780300 0.116600
S192 S 1.111100 0.728400 0.207800
C193 C 1.359000 0.667500 0.183500
C194 C 1.387300 0.689300 0.109900
N195 N 1.216500 0.753900 0.071300
C196 C 1.578800 0.649300 0.068500
O197 O 1.729300 0.584200 0.118700
C198 C 1.884300 0.535400 0.084000
C199 C 2.078800 0.478800 0.138800
C200 C 2.114100 0.401900 0.150000
S201 S -0.111100 1.271600 0.792200
S202 S 0.188400 1.099000 0.997000
O203 O -0.729300 1.415800 0.881300
O204 O 0.556300 0.941100 0.859700
N205 N -0.216500 1.246100 0.928700
N206 N 0.293700 1.125900 0.860700
C207 C -0.359000 1.332500 0.816500
C208 C -0.387300 1.310700 0.890100
C209 C -0.578800 1.350700 0.931500
C210 C -0.884300 1.464600 0.916000
C211 C -1.078800 1.521200 0.861200
C212 C -1.114100 1.598100 0.850000
C213 C -0.062200 1.219700 0.883400
C214 C 0.139900 1.152000 0.906400
C215 C 0.430700 1.034300 0.972700
C216 C 0.458600 1.059400 0.897600
C217 C 0.650100 1.023000 0.853100
C218 C 0.754700 0.901700 0.825000
C219 C 0.667100 0.813200 0.838900
C220 C 0.466400 0.772900 0.883900
C221 C 0.569300 0.965700 1.027300
S222 S 0.811600 0.901000 1.003000
C223 C 0.860100 0.848000 1.093600
N224 N 0.706300 0.874100 1.139300
C225 C 0.541400 0.940600 1.102400
C226 C 0.349900 0.977000 1.146900
O227 O 0.443700 1.058900 1.140300
C228 C 0.245300 1.098300 1.175000
C229 C 0.332900 1.186800 1.161100
C230 C 0.533600 1.227100 1.116100
C231 C 1.062200 0.780300 1.116600
S232 S 1.111100 0.728400 1.207800
C233 C 1.359000 0.667500 1.183500
C234 C 1.387300 0.689300 1.109900
N235 N 1.216500 0.753900 1.071300
C236 C 1.578800 0.649300 1.068500
O237 O 1.729300 0.584200 1.118700
C238 C 1.884300 0.535400 1.084000
C239 C 2.078800 0.478800 1.138800
C240 C 2.114100 0.401900 1.150000

#END
