./ABEFAQ_from_xyz.cif_generated_by_CrystalShift
_symmetry_cell_setting triclinic
_symmetry_space_group_name_H-M 'P 1'
loop_
_symmetry_equiv_pos_site_id
_symmetry_equiv_pos_as_xyz
1 x,y,z
_cell_length_a 8.976100
_cell_length_b 11.307600
_cell_length_c 12.297000
_cell_angle_alpha 63.788400
_cell_angle_beta 78.274200
_cell_angle_gamma 73.101900
_cell_volume 1067.348682
loop_
_atom_site_label
_atom_site_type_symbol
_atom_site_fract_x
_atom_site_fract_y
_atom_site_fract_z
O1 O -0.095210 0.457170 0.156730
O2 O 0.018810 0.615680 0.129160
O3 O 0.087900 0.408420 0.389210
C4 C 0.033580 0.497150 0.154810
C5 C 0.191710 0.397560 0.167450
H6 H 0.242800 0.420000 0.082700
C7 C 0.188090 0.246520 0.218780
H8 H 0.167900 0.213100 0.309300
C9 C 0.052630 0.231190 0.170750
H10 H 0.068800 0.269800 0.079900
C11 C -0.099670 0.314410 0.206820
H12 H -0.115600 0.279200 0.297600
C13 C 0.301490 0.416380 0.236640
H14 H 0.396500 0.340700 0.246800
C15 C 0.359140 0.548600 0.171630
H16 H 0.405000 0.558400 0.089500
H17 H 0.438200 0.546000 0.217600
H18 H 0.270900 0.625600 0.166400
C19 C 0.228430 0.399260 0.364260
C20 C 0.331120 0.370860 0.458490
C21 C 0.264730 0.399750 0.559130
H22 H 0.156400 0.440300 0.565300
C23 C 0.356100 0.369520 0.650570
H24 H 0.310400 0.389600 0.719000
C25 C 0.513200 0.310360 0.642150
H26 H 0.575300 0.289100 0.705200
C27 C 0.580370 0.282000 0.542620
H28 H 0.688800 0.241600 0.537000
C29 C 0.490580 0.312160 0.451090
H30 H 0.537700 0.292800 0.382500
C31 C 0.345920 0.164380 0.190630
C32 C 0.437840 0.069830 0.283960
H33 H 0.400500 0.055000 0.365900
C34 C 0.584230 -0.003490 0.258600
H35 H 0.646400 -0.067500 0.323100
C36 C 0.638780 0.016670 0.140560
H37 H 0.738600 -0.033500 0.123400
C38 C 0.548650 0.109820 0.046720
H39 H 0.586400 0.123400 -0.034900
C40 C 0.403220 0.183570 0.071450
H41 H 0.342100 0.247800 0.006400
C42 C 0.045900 0.084530 0.215340
C43 C 0.009590 0.006710 0.337220
H44 H -0.011300 0.045700 0.394700
C45 C 0.003430 -0.127280 0.375900
H46 H -0.022700 -0.178900 0.459400
C47 C 0.034950 -0.185950 0.293910
H48 H 0.031400 -0.277900 0.320700
C49 C 0.071730 -0.109840 0.172350
H50 H 0.093900 -0.149500 0.115300
C51 C 0.076270 0.024600 0.133620
H52 H 0.100600 0.076400 0.049800
C53 C -0.240570 0.311750 0.159500
H54 H -0.334100 0.368600 0.183800
H55 H -0.253300 0.218500 0.193500
H56 H -0.225900 0.346400 0.070500
O57 O 1.095210 0.542830 0.843270
O58 O 0.981190 0.384320 0.870840
O59 O 0.912100 0.591580 0.610790
C60 C 0.966420 0.502850 0.845190
C61 C 0.808290 0.602440 0.832550
H62 H 0.757200 0.580000 0.917300
C63 C 0.811910 0.753480 0.781220
H64 H 0.832100 0.786900 0.690700
C65 C 0.947370 0.768810 0.829250
H66 H 0.931200 0.730200 0.920100
C67 C 1.099670 0.685590 0.793180
H68 H 1.115600 0.720800 0.702400
C69 C 0.698510 0.583620 0.763360
H70 H 0.603500 0.659300 0.753200
C71 C 0.640860 0.451400 0.828370
H72 H 0.595000 0.441600 0.910500
H73 H 0.561800 0.454000 0.782400
H74 H 0.729100 0.374400 0.833600
C75 C 0.771570 0.600740 0.635740
C76 C 0.668880 0.629140 0.541510
C77 C 0.735270 0.600250 0.440870
H78 H 0.843600 0.559700 0.434700
C79 C 0.643900 0.630480 0.349430
H80 H 0.689600 0.610400 0.281000
C81 C 0.486800 0.689640 0.357850
H82 H 0.424700 0.710900 0.294800
C83 C 0.419630 0.718000 0.457380
H84 H 0.311200 0.758400 0.463000
C85 C 0.509420 0.687840 0.548910
H86 H 0.462300 0.707200 0.617500
C87 C 0.654080 0.835620 0.809370
C88 C 0.562160 0.930170 0.716040
H89 H 0.599500 0.945000 0.634100
C90 C 0.415770 1.003490 0.741400
H91 H 0.353600 1.067500 0.676900
C92 C 0.361220 0.983330 0.859440
H93 H 0.261400 1.033500 0.876600
C94 C 0.451350 0.890180 0.953280
H95 H 0.413600 0.876600 1.034900
C96 C 0.596780 0.816430 0.928550
H97 H 0.657900 0.752200 0.993600
C98 C 0.954100 0.915470 0.784660
C99 C 0.990410 0.993290 0.662780
H100 H 1.011300 0.954300 0.605300
C101 C 0.996570 1.127280 0.624100
H102 H 1.022700 1.178900 0.540600
C103 C 0.965050 1.185950 0.706090
H104 H 0.968600 1.277900 0.679300
C105 C 0.928270 1.109840 0.827650
H106 H 0.906100 1.149500 0.884700
C107 C 0.923730 0.975400 0.866380
H108 H 0.899400 0.923600 0.950200
C109 C 1.240570 0.688250 0.840500
H110 H 1.334100 0.631400 0.816200
H111 H 1.253300 0.781500 0.806500
H112 H 1.225900 0.653600 0.929500

#END
