./ABEFAP_from_xyz.cif_generated_by_CrystalShift
_symmetry_cell_setting triclinic
_symmetry_space_group_name_H-M 'P 1'
loop_
_symmetry_equiv_pos_site_id
_symmetry_equiv_pos_as_xyz
1 x,y,z
_cell_length_a 7.832000
_cell_length_b 9.151000
_cell_length_c 12.201000
_cell_angle_alpha 92.680000
_cell_angle_beta 104.560000
_cell_angle_gamma 113.450000
_cell_volume 765.781763
loop_
_atom_site_label
_atom_site_type_symbol
_atom_site_fract_x
_atom_site_fract_y
_atom_site_fract_z
S1 S 0.483840 0.408890 0.155720
O2 O 1.085480 0.821020 0.246370
O3 O 1.289400 0.934840 -0.219870
O4 O 0.816100 0.774150 0.481620
N5 N 0.804460 0.626600 0.125210
H6 H 0.738600 0.593600 0.053900
N7 N 0.823600 0.587300 0.311940
H8 H 0.938800 0.663700 0.326600
C9 C 1.007200 0.691760 -0.050470
H10 H 0.916700 0.585600 -0.058000
C11 C 1.088800 0.740350 -0.137410
H12 H 1.056200 0.666300 -0.202500
C13 C 1.220100 0.900040 -0.128250
C14 C 1.272600 1.009550 -0.030320
H15 H 1.360100 1.116400 -0.023900
C16 C 1.193600 0.958590 0.057790
H17 H 1.231100 1.031500 0.124400
C18 C 1.059100 0.800330 0.048670
C19 C 0.987200 0.752960 0.148420
C20 C 0.714600 0.546600 0.203460
C21 C 0.769500 0.517340 0.407130
C22 C 0.772300 0.618630 0.496940
C23 C 0.730000 0.556600 0.593180
H24 H 0.727800 0.622200 0.652900
C25 C 0.691400 0.397400 0.599890
H26 H 0.664600 0.356400 0.665000
C27 C 0.691600 0.298400 0.512390
H28 H 0.665600 0.191100 0.518300
C29 C 0.730700 0.358700 0.414730
H30 H 0.730700 0.292000 0.354800
C31 C 1.404200 1.098200 -0.225630
H32 H 1.326800 1.158200 -0.231000
H33 H 1.449600 1.102400 -0.292000
H34 H 1.513700 1.144400 -0.157800
C35 C 0.834300 0.885500 0.575190
H36 H 0.712800 0.850400 0.592800
H37 H 0.868000 0.990900 0.554100
H38 H 0.934400 0.889700 0.641400
S39 S 0.516160 0.591110 0.844280
O40 O -0.085480 0.178980 0.753630
O41 O -0.289400 0.065160 1.219870
O42 O 0.183900 0.225850 0.518380
N43 N 0.195540 0.373400 0.874790
H44 H 0.261400 0.406400 0.946100
N45 N 0.176400 0.412700 0.688060
H46 H 0.061200 0.336300 0.673400
C47 C -0.007200 0.308240 1.050470
H48 H 0.083300 0.414400 1.058000
C49 C -0.088800 0.259650 1.137410
H50 H -0.056200 0.333700 1.202500
C51 C -0.220100 0.099960 1.128250
C52 C -0.272600 -0.009550 1.030320
H53 H -0.360100 -0.116400 1.023900
C54 C -0.193600 0.041410 0.942210
H55 H -0.231100 -0.031500 0.875600
C56 C -0.059100 0.199670 0.951330
C57 C 0.012800 0.247040 0.851580
C58 C 0.285400 0.453400 0.796540
C59 C 0.230500 0.482660 0.592870
C60 C 0.227700 0.381370 0.503060
C61 C 0.270000 0.443400 0.406820
H62 H 0.272200 0.377800 0.347100
C63 C 0.308600 0.602600 0.400110
H64 H 0.335400 0.643600 0.335000
C65 C 0.308400 0.701600 0.487610
H66 H 0.334400 0.808900 0.481700
C67 C 0.269300 0.641300 0.585270
H68 H 0.269300 0.708000 0.645200
C69 C -0.404200 -0.098200 1.225630
H70 H -0.326800 -0.158200 1.231000
H71 H -0.449600 -0.102400 1.292000
H72 H -0.513700 -0.144400 1.157800
C73 C 0.165700 0.114500 0.424810
H74 H 0.287200 0.149600 0.407200
H75 H 0.132000 0.009100 0.445900
H76 H 0.065600 0.110300 0.358600

#END
