
#######################################################################
#
#                 Cambridge Crystallographic Data Centre
#                                CCDC 
#
#######################################################################
#
# If this CIF has been generated from an entry in the Cambridge 
# Structural Database, then it will include bibliographic, chemical, 
# crystal, experimental, refinement or atomic coordinate data resulting 
# from the CCDC's data processing and validation procedures.
#
#######################################################################

data_ABEFUJ
_symmetry_cell_setting           monoclinic
_symmetry_space_group_name_H-M   'P 21/n'
_symmetry_Int_Tables_number      14
_space_group_name_Hall           '-P 2yn'
loop_
_symmetry_equiv_pos_site_id
_symmetry_equiv_pos_as_xyz
1 x,y,z
2 1/2-x,1/2+y,1/2-z
3 -x,-y,-z
4 1/2+x,1/2-y,1/2+z
_cell_length_a                   7.0467(5)
_cell_length_b                   17.6802(13)
_cell_length_c                   11.2725(7)
_cell_angle_alpha                90
_cell_angle_beta                 104.355(5)
_cell_angle_gamma                90
_cell_volume                     1360.56
loop_
_atom_site_label
_atom_site_type_symbol
_atom_site_fract_x
_atom_site_fract_y
_atom_site_fract_z
S1 S 0.59031(6) 0.12047(2) 0.06279(4)
N1 N 0.31980(18) 0.12316(7) 0.20129(12)
N2 N 0.3003(2) 0.02542(8) 0.08932(13)
N3 N 0.1540(2) 0.01749(8) 0.14915(14)
C1 C 0.3819(2) 0.19360(9) 0.26258(14)
C2 C 0.5575(2) 0.19735(10) 0.34849(15)
C3 C 0.6167(3) 0.26540(11) 0.40688(17)
C4 C 0.4989(3) 0.32831(11) 0.37930(19)
C5 C 0.3236(3) 0.32383(11) 0.2937(2)
C6 C 0.2637(3) 0.25627(10) 0.23384(17)
C7 C 0.4051(2) 0.08890(9) 0.11751(13)
C8 C 0.1685(2) 0.07759(10) 0.21668(15)
C9 C 0.0410(3) 0.09483(12) 0.30001(17)
C10 C 0.1453(2) 0.09751(10) 0.43353(16)
C11 C 0.2409(3) 0.03485(11) 0.4927(2)
C12 C 0.3288(3) 0.03720(14) 0.6163(2)
C13 C 0.3211(3) 0.10145(15) 0.6827(2)
C14 C 0.2284(3) 0.16446(14) 0.6246(2)
C15 C 0.1426(3) 0.16243(11) 0.50140(18)
H1 H 0.63610 0.15460 0.36740
H2 H 0.73620 0.26860 0.46470
H3 H 0.53850 0.37390 0.41890
H4 H 0.24410 0.36640 0.27560
H5 H 0.14520 0.25330 0.17500
H6 H -0.06120 0.05680 0.28850
H7 H -0.02180 0.14330 0.27690
H8 H 0.24610 -0.00930 0.44880
H9 H 0.39400 -0.00530 0.65490
H10 H 0.37810 0.10240 0.76650
H11 H 0.22380 0.20850 0.66880
H12 H 0.08130 0.20560 0.46270
H13 H 0.32260 -0.00750 0.03820
S1 S -0.09031(6) 0.62047(2) 0.43721(4)
N1 N 0.18020(18) 0.62316(7) 0.29871(12)
N2 N 0.1997(2) 0.52542(8) 0.41068(13)
N3 N 0.3460(2) 0.51749(8) 0.35085(14)
C1 C 0.1181(2) 0.69360(9) 0.23742(14)
C2 C -0.0575(2) 0.69735(10) 0.15151(15)
C3 C -0.1167(3) 0.76540(11) 0.09312(17)
C4 C 0.0011(3) 0.82831(11) 0.12070(19)
C5 C 0.1764(3) 0.82383(11) 0.2063(2)
C6 C 0.2363(3) 0.75627(10) 0.26616(17)
C7 C 0.0949(2) 0.58890(9) 0.38249(13)
C8 C 0.3315(2) 0.57759(10) 0.28332(15)
C9 C 0.4590(3) 0.59483(12) 0.19999(17)
C10 C 0.3547(2) 0.59751(10) 0.06647(16)
C11 C 0.2591(3) 0.53485(11) 0.0073(2)
C12 C 0.1712(3) 0.53720(14) -0.1163(2)
C13 C 0.1789(3) 0.60145(15) -0.1827(2)
C14 C 0.2716(3) 0.66446(14) -0.1246(2)
C15 C 0.3574(3) 0.66243(11) -0.00140(18)
H1 H -0.13610 0.65460 0.13260
H2 H -0.23620 0.76860 0.03530
H3 H -0.03850 0.87390 0.08110
H4 H 0.25590 0.86640 0.22440
H5 H 0.35480 0.75330 0.32500
H6 H 0.56120 0.55680 0.21150
H7 H 0.52180 0.64330 0.22310
H8 H 0.25390 0.49070 0.05120
H9 H 0.10600 0.49470 -0.15490
H10 H 0.12190 0.60240 -0.26650
H11 H 0.27620 0.70850 -0.16880
H12 H 0.41870 0.70560 0.03730
H13 H 0.17740 0.49250 0.46180
S1 S 0.40969(6) 0.87953(2) 0.93721(4)
N1 N 0.68020(18) 0.87684(7) 0.79871(12)
N2 N 0.6997(2) 0.97458(8) 0.91068(13)
N3 N 0.8460(2) 0.98251(8) 0.85085(14)
C1 C 0.6181(2) 0.80640(9) 0.73742(14)
C2 C 0.4425(2) 0.80265(10) 0.65151(15)
C3 C 0.3833(3) 0.73460(11) 0.59312(17)
C4 C 0.5011(3) 0.67169(11) 0.62070(19)
C5 C 0.6764(3) 0.67617(11) 0.7063(2)
C6 C 0.7363(3) 0.74373(10) 0.76616(17)
C7 C 0.5949(2) 0.91110(9) 0.88249(13)
C8 C 0.8315(2) 0.92241(10) 0.78332(15)
C9 C 0.9590(3) 0.90517(12) 0.69999(17)
C10 C 0.8547(2) 0.90249(10) 0.56647(16)
C11 C 0.7591(3) 0.96515(11) 0.5073(2)
C12 C 0.6712(3) 0.96280(14) 0.3837(2)
C13 C 0.6789(3) 0.89855(15) 0.3173(2)
C14 C 0.7716(3) 0.83554(14) 0.3754(2)
C15 C 0.8574(3) 0.83757(11) 0.49860(18)
H1 H 0.36390 0.84540 0.63260
H2 H 0.26380 0.73140 0.53530
H3 H 0.46150 0.62610 0.58110
H4 H 0.75590 0.63360 0.72440
H5 H 0.85480 0.74670 0.82500
H6 H 1.06120 0.94320 0.71150
H7 H 1.02180 0.85670 0.72310
H8 H 0.75390 1.00930 0.55120
H9 H 0.60600 1.00530 0.34510
H10 H 0.62190 0.89760 0.23350
H11 H 0.77620 0.79150 0.33120
H12 H 0.91870 0.79440 0.53730
H13 H 0.67740 1.00750 0.96180
S1 S 1.09031(6) 0.37953(2) 0.56279(4)
N1 N 0.81980(18) 0.37684(7) 0.70129(12)
N2 N 0.8003(2) 0.47458(8) 0.58932(13)
N3 N 0.6540(2) 0.48251(8) 0.64915(14)
C1 C 0.8819(2) 0.30640(9) 0.76258(14)
C2 C 1.0575(2) 0.30265(10) 0.84849(15)
C3 C 1.1167(3) 0.23460(11) 0.90688(17)
C4 C 0.9989(3) 0.17169(11) 0.87930(19)
C5 C 0.8236(3) 0.17617(11) 0.7937(2)
C6 C 0.7637(3) 0.24373(10) 0.73384(17)
C7 C 0.9051(2) 0.41110(9) 0.61751(13)
C8 C 0.6685(2) 0.42241(10) 0.71668(15)
C9 C 0.5410(3) 0.40517(12) 0.80001(17)
C10 C 0.6453(2) 0.40249(10) 0.93353(16)
C11 C 0.7409(3) 0.46515(11) 0.9927(2)
C12 C 0.8288(3) 0.46280(14) 1.1163(2)
C13 C 0.8211(3) 0.39855(15) 1.1827(2)
C14 C 0.7284(3) 0.33554(14) 1.1246(2)
C15 C 0.6426(3) 0.33757(11) 1.00140(18)
H1 H 1.13610 0.34540 0.86740
H2 H 1.23620 0.23140 0.96470
H3 H 1.03850 0.12610 0.91890
H4 H 0.74410 0.13360 0.77560
H5 H 0.64520 0.24670 0.67500
H6 H 0.43880 0.44320 0.78850
H7 H 0.47820 0.35670 0.77690
H8 H 0.74610 0.50930 0.94880
H9 H 0.89400 0.50530 1.15490
H10 H 0.87810 0.39760 1.26650
H11 H 0.72380 0.29150 1.16880
H12 H 0.58130 0.29440 0.96270
H13 H 0.82260 0.50750 0.53820

#END
