./ABEFUJ_from_xyz.cif_generated_by_CrystalShift
_symmetry_cell_setting triclinic
_symmetry_space_group_name_H-M 'P 1'
loop_
_symmetry_equiv_pos_site_id
_symmetry_equiv_pos_as_xyz
1 x,y,z
_cell_length_a 7.046700
_cell_length_b 17.680200
_cell_length_c 11.272500
_cell_angle_alpha 90.000000
_cell_angle_beta 104.355000
_cell_angle_gamma 90.000000
_cell_volume 1360.559526
loop_
_atom_site_label
_atom_site_type_symbol
_atom_site_fract_x
_atom_site_fract_y
_atom_site_fract_z
S1 S 0.590310 0.120470 0.062790
N2 N 0.319800 0.123160 0.201290
N3 N 0.300300 0.025420 0.089320
N4 N 0.154000 0.017490 0.149150
C5 C 0.381900 0.193600 0.262580
C6 C 0.557500 0.197350 0.348490
C7 C 0.616700 0.265400 0.406880
C8 C 0.498900 0.328310 0.379300
C9 C 0.323600 0.323830 0.293700
C10 C 0.263700 0.256270 0.233840
C11 C 0.405100 0.088900 0.117510
C12 C 0.168500 0.077590 0.216680
C13 C 0.041000 0.094830 0.300010
C14 C 0.145300 0.097510 0.433530
C15 C 0.240900 0.034850 0.492700
C16 C 0.328800 0.037200 0.616300
C17 C 0.321100 0.101450 0.682700
C18 C 0.228400 0.164460 0.624600
C19 C 0.142600 0.162430 0.501400
H20 H 0.636100 0.154600 0.367400
H21 H 0.736200 0.268600 0.464700
H22 H 0.538500 0.373900 0.418900
H23 H 0.244100 0.366400 0.275600
H24 H 0.145200 0.253300 0.175000
H25 H -0.061200 0.056800 0.288500
H26 H -0.021800 0.143300 0.276900
H27 H 0.246100 -0.009300 0.448800
H28 H 0.394000 -0.005300 0.654900
H29 H 0.378100 0.102400 0.766500
H30 H 0.223800 0.208500 0.668800
H31 H 0.081300 0.205600 0.462700
H32 H 0.322600 -0.007500 0.038200
S33 S -0.090310 0.620470 0.437210
N34 N 0.180200 0.623160 0.298710
N35 N 0.199700 0.525420 0.410680
N36 N 0.346000 0.517490 0.350850
C37 C 0.118100 0.693600 0.237420
C38 C -0.057500 0.697350 0.151510
C39 C -0.116700 0.765400 0.093120
C40 C 0.001100 0.828310 0.120700
C41 C 0.176400 0.823830 0.206300
C42 C 0.236300 0.756270 0.266160
C43 C 0.094900 0.588900 0.382490
C44 C 0.331500 0.577590 0.283320
C45 C 0.459000 0.594830 0.199990
C46 C 0.354700 0.597510 0.066470
C47 C 0.259100 0.534850 0.007300
C48 C 0.171200 0.537200 -0.116300
C49 C 0.178900 0.601450 -0.182700
C50 C 0.271600 0.664460 -0.124600
C51 C 0.357400 0.662430 -0.001400
H52 H -0.136100 0.654600 0.132600
H53 H -0.236200 0.768600 0.035300
H54 H -0.038500 0.873900 0.081100
H55 H 0.255900 0.866400 0.224400
H56 H 0.354800 0.753300 0.325000
H57 H 0.561200 0.556800 0.211500
H58 H 0.521800 0.643300 0.223100
H59 H 0.253900 0.490700 0.051200
H60 H 0.106000 0.494700 -0.154900
H61 H 0.121900 0.602400 -0.266500
H62 H 0.276200 0.708500 -0.168800
H63 H 0.418700 0.705600 0.037300
H64 H 0.177400 0.492500 0.461800
S65 S 0.409690 0.879530 0.937210
N66 N 0.680200 0.876840 0.798710
N67 N 0.699700 0.974580 0.910680
N68 N 0.846000 0.982510 0.850850
C69 C 0.618100 0.806400 0.737420
C70 C 0.442500 0.802650 0.651510
C71 C 0.383300 0.734600 0.593120
C72 C 0.501100 0.671690 0.620700
C73 C 0.676400 0.676170 0.706300
C74 C 0.736300 0.743730 0.766160
C75 C 0.594900 0.911100 0.882490
C76 C 0.831500 0.922410 0.783320
C77 C 0.959000 0.905170 0.699990
C78 C 0.854700 0.902490 0.566470
C79 C 0.759100 0.965150 0.507300
C80 C 0.671200 0.962800 0.383700
C81 C 0.678900 0.898550 0.317300
C82 C 0.771600 0.835540 0.375400
C83 C 0.857400 0.837570 0.498600
H84 H 0.363900 0.845400 0.632600
H85 H 0.263800 0.731400 0.535300
H86 H 0.461500 0.626100 0.581100
H87 H 0.755900 0.633600 0.724400
H88 H 0.854800 0.746700 0.825000
H89 H 1.061200 0.943200 0.711500
H90 H 1.021800 0.856700 0.723100
H91 H 0.753900 1.009300 0.551200
H92 H 0.606000 1.005300 0.345100
H93 H 0.621900 0.897600 0.233500
H94 H 0.776200 0.791500 0.331200
H95 H 0.918700 0.794400 0.537300
H96 H 0.677400 1.007500 0.961800
S97 S 1.090310 0.379530 0.562790
N98 N 0.819800 0.376840 0.701290
N99 N 0.800300 0.474580 0.589320
N100 N 0.654000 0.482510 0.649150
C101 C 0.881900 0.306400 0.762580
C102 C 1.057500 0.302650 0.848490
C103 C 1.116700 0.234600 0.906880
C104 C 0.998900 0.171690 0.879300
C105 C 0.823600 0.176170 0.793700
C106 C 0.763700 0.243730 0.733840
C107 C 0.905100 0.411100 0.617510
C108 C 0.668500 0.422410 0.716680
C109 C 0.541000 0.405170 0.800010
C110 C 0.645300 0.402490 0.933530
C111 C 0.740900 0.465150 0.992700
C112 C 0.828800 0.462800 1.116300
C113 C 0.821100 0.398550 1.182700
C114 C 0.728400 0.335540 1.124600
C115 C 0.642600 0.337570 1.001400
H116 H 1.136100 0.345400 0.867400
H117 H 1.236200 0.231400 0.964700
H118 H 1.038500 0.126100 0.918900
H119 H 0.744100 0.133600 0.775600
H120 H 0.645200 0.246700 0.675000
H121 H 0.438800 0.443200 0.788500
H122 H 0.478200 0.356700 0.776900
H123 H 0.746100 0.509300 0.948800
H124 H 0.894000 0.505300 1.154900
H125 H 0.878100 0.397600 1.266500
H126 H 0.723800 0.291500 1.168800
H127 H 0.581300 0.294400 0.962700
H128 H 0.822600 0.507500 0.538200

#END
