
#######################################################################
#
#                 Cambridge Crystallographic Data Centre
#                                CCDC 
#
#######################################################################
#
# If this CIF has been generated from an entry in the Cambridge 
# Structural Database, then it will include bibliographic, chemical, 
# crystal, experimental, refinement or atomic coordinate data resulting 
# from the CCDC's data processing and validation procedures.
#
#######################################################################

data_AAPYPE
_symmetry_cell_setting           monoclinic
_symmetry_space_group_name_H-M   'P 21/c'
_symmetry_Int_Tables_number      14
_space_group_name_Hall           '-P 2ybc'
loop_
_symmetry_equiv_pos_site_id
_symmetry_equiv_pos_as_xyz
1 x,y,z
2 -x,1/2+y,1/2-z
3 -x,-y,-z
4 x,1/2-y,1/2+z
_cell_length_a                   7.024
_cell_length_b                   12.420
_cell_length_c                   12.280
_cell_angle_alpha                90
_cell_angle_beta                 108.40
_cell_angle_gamma                90
_cell_volume                     1016.52
loop_
_atom_site_label
_atom_site_type_symbol
_atom_site_fract_x
_atom_site_fract_y
_atom_site_fract_z
C1 C 0.43910 0.68210 0.45720
C2 C 0.35240 0.61170 0.53080
C3 C 0.46720 0.58790 0.64530
C4 C 0.40460 0.52440 0.71880
C5 C 0.54270 0.50060 0.84030
C6 C 0.14860 0.40980 0.75680
C7 C 0.09490 0.44550 0.85100
C8 C 0.01570 0.27300 0.88340
C9 C 0.11920 0.30270 0.72900
N1 N 0.04600 0.23280 0.79130
N2 N 0.03590 0.37560 0.91730
N3 N 0.10090 0.55240 0.87980
N4 N 0.21640 0.48020 0.68590
O1 O 0.17730 0.57700 0.48560
C1 C 0.56090 1.18210 1.04280
C2 C 0.64760 1.11170 0.96920
C3 C 0.53280 1.08790 0.85470
C4 C 0.59540 1.02440 0.78120
C5 C 0.45730 1.00060 0.65970
C6 C 0.85140 0.90980 0.74320
C7 C 0.90510 0.94550 0.64900
C8 C 0.98430 0.77300 0.61660
C9 C 0.88080 0.80270 0.77100
N1 N 0.95400 0.73280 0.70870
N2 N 0.96410 0.87560 0.58270
N3 N 0.89910 1.05240 0.62020
N4 N 0.78360 0.98020 0.81410
O1 O 0.82270 1.07700 1.01440
C1 C 0.56090 0.31790 0.54280
C2 C 0.64760 0.38830 0.46920
C3 C 0.53280 0.41210 0.35470
C4 C 0.59540 0.47560 0.28120
C5 C 0.45730 0.49940 0.15970
C6 C 0.85140 0.59020 0.24320
C7 C 0.90510 0.55450 0.14900
C8 C 0.98430 0.72700 0.11660
C9 C 0.88080 0.69730 0.27100
N1 N 0.95400 0.76720 0.20870
N2 N 0.96410 0.62440 0.08270
N3 N 0.89910 0.44760 0.12020
N4 N 0.78360 0.51980 0.31410
O1 O 0.82270 0.42300 0.51440
C1 C 0.43910 -0.18210 -0.04280
C2 C 0.35240 -0.11170 0.03080
C3 C 0.46720 -0.08790 0.14530
C4 C 0.40460 -0.02440 0.21880
C5 C 0.54270 -0.00060 0.34030
C6 C 0.14860 0.09020 0.25680
C7 C 0.09490 0.05450 0.35100
C8 C 0.01570 0.22700 0.38340
C9 C 0.11920 0.19730 0.22900
N1 N 0.04600 0.26720 0.29130
N2 N 0.03590 0.12440 0.41730
N3 N 0.10090 -0.05240 0.37980
N4 N 0.21640 0.01980 0.18590
O1 O 0.17730 -0.07700 -0.01440

#END
