
#######################################################################
#
#                 Cambridge Crystallographic Data Centre
#                                CCDC 
#
#######################################################################
#
# If this CIF has been generated from an entry in the Cambridge 
# Structural Database, then it will include bibliographic, chemical, 
# crystal, experimental, refinement or atomic coordinate data resulting 
# from the CCDC's data processing and validation procedures.
#
#######################################################################

data_ABACUD
_symmetry_cell_setting           triclinic
_symmetry_space_group_name_H-M   'P -1'
_symmetry_Int_Tables_number      2
_space_group_name_Hall           '-P 1'
loop_
_symmetry_equiv_pos_site_id
_symmetry_equiv_pos_as_xyz
1 x,y,z
2 -x,-y,-z
_cell_length_a                   7.91080(10)
_cell_length_b                   12.09430(10)
_cell_length_c                   12.9498(2)
_cell_angle_alpha                69.2530(10)
_cell_angle_beta                 76.7940(10)
_cell_angle_gamma                77.4600(10)
_cell_volume                     1115.3
loop_
_atom_site_label
_atom_site_type_symbol
_atom_site_fract_x
_atom_site_fract_y
_atom_site_fract_z
S1 S 0.68865(5) 0.88728(4) 0.30396(4)
S2 S 0.21890(5) 1.13555(4) 0.34716(4)
S3 S 0.87479(6) 0.36589(4) 0.41597(5)
O1 O 0.72380(15) 1.15330(10) 0.22602(10)
O2 O 0.79409(15) 0.90109(11) 0.37398(11)
O3 O 0.74563(16) 0.92047(11) 0.18551(11)
N1 N 0.66367(19) 1.34718(13) 0.20268(14)
N2 N 0.51049(19) 1.29548(13) 0.25770(14)
N3 N 0.66204(18) 0.74881(12) 0.34721(12)
C1 C 1.5791(2) 1.37068(16) -0.08077(16)
H1 H 1.5056 1.4454 -0.0869
C2 C 1.7532(2) 1.36806(17) -0.13241(16)
H2 H 1.7985 1.4409 -0.1724
C3 C 1.8621(2) 1.25980(18) -0.12625(18)
H3 H 1.9800 1.2582 -0.1643
C4 C 1.7966(2) 1.15442(17) -0.06408(18)
H4 H 1.8711 1.0801 -0.0579
C5 C 1.6239(2) 1.15597(16) -0.01085(16)
H5 H 1.5816 1.0827 0.0323
C6 C 1.5102(2) 1.26432(15) -0.01967(15)
C7 C 1.3224(2) 1.26503(15) 0.03247(14)
C8 C 1.2404(2) 1.16451(16) 0.05717(16)
H6 H 1.3061 1.0961 0.0392
C9 C 1.0665(2) 1.16279(16) 0.10701(16)
H7 H 1.0143 1.0934 0.1239
C10 C 0.9670(2) 1.26333(15) 0.13265(15)
C11 C 1.0453(2) 1.36463(15) 0.10693(16)
H8 H 0.9782 1.4338 0.1228
C12 C 1.2206(2) 1.36495(15) 0.05825(15)
H9 H 1.2727 1.4343 0.0421
C13 C 0.7844(2) 1.26086(15) 0.18576(15)
C14 C 0.5534(2) 1.18253(15) 0.26865(15)
C15 C 0.4398(2) 1.09154(15) 0.31380(15)
C16 C 0.4768(2) 0.97000(15) 0.32871(15)
C17 C 0.3231(2) 0.91496(16) 0.36701(16)
H10 H 0.3234 0.8322 0.3819
C18 C 0.1748(2) 0.99439(16) 0.38000(17)
H11 H 0.0600 0.9732 0.4046
C19 C 0.6485(2) 0.67707(16) 0.46603(15)
H12 H 0.5237 0.6786 0.5020
H13 H 0.7095 0.7098 0.5051
C20 C 0.7328(2) 0.55051(15) 0.47309(16)
C21 C 0.7922(2) 0.46336(18) 0.56962(18)
H14 H 0.7774 0.4762 0.6396
C22 C 0.8730(2) 0.35916(18) 0.5505(2)
H15 H 0.9222 0.2912 0.6051
C23 C 0.7665(2) 0.51108(15) 0.38342(16)
C24 C 0.7232(2) 0.58363(15) 0.26954(16)
H16 H 0.6660 0.5368 0.2420
H17 H 0.8321 0.6043 0.2163
C25 C 0.5997(2) 0.69765(15) 0.27725(16)
H18 H 0.5965 0.7564 0.2013
H19 H 0.4793 0.6791 0.3106
S1 S 0.31135(5) 0.11272(4) 0.69604(4)
S2 S 0.78110(5) -0.13555(4) 0.65284(4)
S3 S 0.12521(6) 0.63411(4) 0.58403(5)
O1 O 0.27620(15) -0.15330(10) 0.77398(10)
O2 O 0.20591(15) 0.09891(11) 0.62602(11)
O3 O 0.25437(16) 0.07953(11) 0.81449(11)
N1 N 0.33633(19) -0.34718(13) 0.79732(14)
N2 N 0.48951(19) -0.29548(13) 0.74230(14)
N3 N 0.33796(18) 0.25119(12) 0.65279(12)
C1 C -0.5791(2) -0.37068(16) 1.08077(16)
H1 H -0.5056 -0.4454 1.0869
C2 C -0.7532(2) -0.36806(17) 1.13241(16)
H2 H -0.7985 -0.4409 1.1724
C3 C -0.8621(2) -0.25980(18) 1.12625(18)
H3 H -0.9800 -0.2582 1.1643
C4 C -0.7966(2) -0.15442(17) 1.06408(18)
H4 H -0.8711 -0.0801 1.0579
C5 C -0.6239(2) -0.15597(16) 1.01085(16)
H5 H -0.5816 -0.0827 0.9677
C6 C -0.5102(2) -0.26432(15) 1.01967(15)
C7 C -0.3224(2) -0.26503(15) 0.96753(14)
C8 C -0.2404(2) -0.16451(16) 0.94283(16)
H6 H -0.3061 -0.0961 0.9608
C9 C -0.0665(2) -0.16279(16) 0.89299(16)
H7 H -0.0143 -0.0934 0.8761
C10 C 0.0330(2) -0.26333(15) 0.86735(15)
C11 C -0.0453(2) -0.36463(15) 0.89307(16)
H8 H 0.0218 -0.4338 0.8772
C12 C -0.2206(2) -0.36495(15) 0.94175(15)
H9 H -0.2727 -0.4343 0.9579
C13 C 0.2156(2) -0.26086(15) 0.81424(15)
C14 C 0.4466(2) -0.18253(15) 0.73135(15)
C15 C 0.5602(2) -0.09154(15) 0.68620(15)
C16 C 0.5232(2) 0.03000(15) 0.67129(15)
C17 C 0.6769(2) 0.08504(16) 0.63299(16)
H10 H 0.6766 0.1678 0.6181
C18 C 0.8252(2) 0.00561(16) 0.62000(17)
H11 H 0.9400 0.0268 0.5954
C19 C 0.3515(2) 0.32293(16) 0.53397(15)
H12 H 0.4763 0.3214 0.4980
H13 H 0.2905 0.2902 0.4949
C20 C 0.2672(2) 0.44949(15) 0.52691(16)
C21 C 0.2078(2) 0.53664(18) 0.43038(18)
H14 H 0.2226 0.5238 0.3604
C22 C 0.1270(2) 0.64084(18) 0.4495(2)
H15 H 0.0778 0.7088 0.3949
C23 C 0.2335(2) 0.48892(15) 0.61658(16)
C24 C 0.2768(2) 0.41637(15) 0.73046(16)
H16 H 0.3340 0.4632 0.7580
H17 H 0.1679 0.3957 0.7837
C25 C 0.4003(2) 0.30235(15) 0.72275(16)
H18 H 0.4035 0.2436 0.7987
H19 H 0.5207 0.3209 0.6894

#END
