
#######################################################################
#
#                 Cambridge Crystallographic Data Centre
#                                CCDC 
#
#######################################################################
#
# If this CIF has been generated from an entry in the Cambridge 
# Structural Database, then it will include bibliographic, chemical, 
# crystal, experimental, refinement or atomic coordinate data resulting 
# from the CCDC's data processing and validation procedures.
#
#######################################################################

data_ABAHER
_symmetry_cell_setting           triclinic
_symmetry_space_group_name_H-M   'P 1'
_symmetry_Int_Tables_number      1
_space_group_name_Hall           'P 1'
loop_
_symmetry_equiv_pos_site_id
_symmetry_equiv_pos_as_xyz
1 x,y,z
_cell_length_a                   10.3970(10)
_cell_length_b                   10.6917(10)
_cell_length_c                   13.8862(13)
_cell_angle_alpha                81.785(2)
_cell_angle_beta                 78.731(2)
_cell_angle_gamma                88.759(2)
_cell_volume                     1498.29
loop_
_atom_site_label
_atom_site_type_symbol
_atom_site_fract_x
_atom_site_fract_y
_atom_site_fract_z
O1 O -0.0538(3) 0.7789(3) 0.26198(19)
N1 N 0.1937(5) 1.1101(3) 0.1583(3)
H1 H 0.1979 1.1864 0.1703
C1 C 0.3250(4) 0.8043(4) 0.1373(3)
H2 H 0.2973 0.7283 0.1225
C2 C 0.4473(5) 0.8155(5) 0.1580(3)
H3 H 0.5030 0.7462 0.1575
C3 C 0.4894(6) 0.9291(7) 0.1799(3)
H4 H 0.5735 0.9348 0.1925
C4 C 0.4105(6) 1.0312(6) 0.1833(3)
H5 H 0.4389 1.1060 0.1995
C5 C 0.2896(5) 1.0223(4) 0.1628(3)
C6 C 0.2425(4) 0.9090(3) 0.1386(2)
C7 C 0.1150(4) 0.9367(3) 0.1176(2)
C8 C 0.0896(5) 1.0574(4) 0.1315(3)
H6 H 0.0121 1.0993 0.1239
C9 C 0.0194(3) 0.8526(3) 0.0895(2)
H7 H -0.0454 0.9097 0.0645
C10 C 0.0737(3) 0.7752(3) 0.0043(2)
H8 H 0.1262 0.7065 0.0312
C11 C -0.0412(4) 0.7146(4) -0.0253(3)
H9 H -0.0873 0.7794 -0.0614
H10 H -0.0077 0.6539 -0.0696
C12 C -0.1352(4) 0.6497(4) 0.0611(3)
H11 H -0.1935 0.5915 0.0494
C13 C -0.1410(4) 0.6696(3) 0.1538(3)
C14 C -0.0579(4) 0.7658(3) 0.1757(3)
C15 C 0.1618(4) 0.8506(4) -0.0819(3)
C16 C 0.2823(4) 0.8115(5) -0.1156(3)
H12 H 0.3092 0.8459 -0.1843
H13 H 0.2830 0.7209 -0.1090
C17 C 0.1114(5) 0.9716(5) -0.1292(3)
H15 H 0.1769 1.0082 -0.1842
H16 H 0.0919 1.0293 -0.0814
H17 H 0.0332 0.9548 -0.1524
C18 C -0.2354(4) 0.5991(4) 0.2399(3)
H18 H -0.2890 0.5434 0.2156
H19 H -0.2903 0.6583 0.2745
H20 H -0.1871 0.5505 0.2844
O2 O 0.2495(4) 1.0691(3) 0.5522(4)
N2 N 0.1358(3) 0.7874(3) 0.4093(2)
H21 H 0.1231 0.7855 0.3502
C19 C 0.0365(4) 0.7404(4) 0.6709(3)
H22 H 0.0737 0.7526 0.7246
C20 C -0.0886(4) 0.6925(4) 0.6854(3)
H23 H -0.1358 0.6714 0.7497
C21 C -0.1451(4) 0.6751(4) 0.6070(4)
H24 H -0.2303 0.6435 0.6196
C22 C -0.0802(4) 0.7028(4) 0.5105(4)
H25 H -0.1191 0.6903 0.4577
C23 C 0.0463(4) 0.7504(4) 0.4953(3)
C24 C 0.1064(3) 0.7704(3) 0.5739(3)
C25 C 0.2347(3) 0.8187(3) 0.5328(2)
C26 C 0.2472(4) 0.8274(4) 0.4329(3)
H26 H 0.3218 0.8567 0.3870
C27 C 0.3292(3) 0.8625(3) 0.5909(3)
H27 H 0.2965 0.8269 0.6602
C28 C 0.4700(3) 0.8139(3) 0.5644(3)
H28 H 0.5047 0.8493 0.4954
C29 C 0.5570(4) 0.8622(4) 0.6275(3)
H29 H 0.5444 0.8083 0.6910
H30 H 0.6479 0.8548 0.5952
C30 C 0.5325(4) 0.9952(4) 0.6452(3)
H31 H 0.5952 1.0341 0.6705
C31 C 0.4303(4) 1.0623(4) 0.6285(3)
C32 C 0.3300(4) 1.0054(4) 0.5885(3)
C33 C 0.4774(4) 0.6724(4) 0.5704(3)
C34 C 0.5419(5) 0.6183(5) 0.4959(4)
H32 H 0.5563 0.6786 0.4366
H34 H 0.6249 0.5887 0.5104
C35 C 0.4091(5) 0.5937(4) 0.6639(4)
H35 H 0.4236 0.5058 0.6584
H36 H 0.3167 0.6105 0.6740
H37 H 0.4433 0.6144 0.7191
C36 C 0.4100(5) 1.1986(4) 0.6465(3)
H38 H 0.4883 1.2303 0.6617
H39 H 0.3383 1.2031 0.7011
H40 H 0.3906 1.2487 0.5880
O3 O 0.8076(3) 0.0402(3) 0.9921(3)
N3 N 0.9220(3) 0.3322(3) 1.1465(2)
H41 H 0.9465 0.3417 1.2007
C37 C 0.9762(4) 0.3533(4) 0.8850(3)
H42 H 0.9304 0.3334 0.8380
C38 C 1.0997(4) 0.4043(4) 0.8562(3)
H43 H 1.1365 0.4202 0.7890
C39 C 1.1715(4) 0.4327(4) 0.9245(3)
H44 H 1.2559 0.4655 0.9024
C40 C 1.1202(4) 0.4134(3) 1.0235(3)
H45 H 1.1676 0.4337 1.0695
C41 C 0.9943(3) 0.3624(3) 1.0535(2)
C42 C 0.9198(3) 0.3317(3) 0.9853(2)
C43 C 0.7968(3) 0.2812(3) 1.0442(2)
C44 C 0.8041(4) 0.2842(3) 1.1394(3)
H46 H 0.7376 0.2571 1.1932
C45 C 0.6833(3) 0.2282(3) 1.0101(2)
H47 H 0.6147 0.2107 1.0698
C46 C 0.6194(3) 0.3152(3) 0.9358(2)
H48 H 0.6824 0.3265 0.8727
C47 C 0.4984(4) 0.2508(4) 0.9182(3)
H49 H 0.4286 0.2516 0.9757
H50 H 0.4691 0.2985 0.8617
C48 C 0.5234(4) 0.1165(4) 0.8992(3)
H51 H 0.4641 0.0790 0.8698
C49 C 0.6230(4) 0.0484(3) 0.9214(3)
C50 C 0.7141(4) 0.1010(3) 0.9745(3)
C51 C 0.5860(4) 0.4448(4) 0.9632(3)
C52 C 0.6230(5) 0.5461(4) 0.8991(5)
H52 H 0.5678 0.6157 0.9169
H54 H 0.7124 0.5662 0.8996
C53 C 0.5067(5) 0.4552(5) 1.0620(4)
H55 H 0.4778 0.5408 1.0644
H56 H 0.5588 0.4316 1.1116
H57 H 0.4319 0.4000 1.0745
C54 C 0.6454(5) -0.0839(4) 0.8996(3)
H58 H 0.5834 -0.1049 0.8614
H59 H 0.6342 -0.1408 0.9608
H60 H 0.7329 -0.0912 0.8628
O4 O 1.1243(3) 0.3563(3) 0.2752(2)
N4 N 0.9003(4) 0.0206(3) 0.3682(3)
H61 H 0.9163 -0.0547 0.3541
C55 C 0.6912(4) 0.2799(4) 0.4090(3)
H62 H 0.6994 0.3601 0.4257
C56 C 0.5722(5) 0.2386(6) 0.3947(3)
H63 H 0.5005 0.2923 0.4020
C57 C 0.5565(6) 0.1199(7) 0.3699(4)
H64 H 0.4750 0.0943 0.3614
C58 C 0.6621(6) 0.0398(6) 0.3580(3)
H65 H 0.6530 -0.0398 0.3404
C59 C 0.7837(5) 0.0797(4) 0.3726(3)
C60 C 0.7970(4) 0.2008(3) 0.3981(2)
C61 C 0.9314(4) 0.2103(3) 0.4084(2)
C62 C 0.9881(4) 0.0990(4) 0.3895(3)
H66 H 1.0753 0.0792 0.3910
C63 C 0.9952(3) 0.3194(3) 0.4392(2)
H67 H 0.9307 0.3876 0.4433
C64 C 1.0282(3) 0.2865(3) 0.5421(2)
H68 H 1.0932 0.2187 0.5381
C65 C 1.0939(4) 0.4006(4) 0.5694(3)
H69 H 1.0278 0.4636 0.5861
H70 H 1.1314 0.3735 0.6277
C66 C 1.1976(4) 0.4581(4) 0.4883(3)
H71 H 1.2589 0.5092 0.5048
C67 C 1.2111(4) 0.4433(4) 0.3935(3)
C68 C 1.1124(4) 0.3696(3) 0.3624(3)
C69 C 0.9120(4) 0.2367(4) 0.6201(3)
C70 C 0.9166(6) 0.1145(6) 0.6664(4)
H72 H 0.8473 0.1011 0.7237
H73 H 0.9996 0.1003 0.6864
H74 H 0.9062 0.0569 0.6213
C71 C 0.8042(5) 0.3132(5) 0.6452(3)
H76 H 0.7722 0.3466 0.5864
H77 H 0.8297 0.3816 0.6755
C72 C 1.3197(5) 0.5035(5) 0.3139(3)
H78 H 1.3653 0.5639 0.3401
H79 H 1.2836 0.5454 0.2594
H80 H 1.3798 0.4396 0.2912
H14? H 0.3416 0.8396 -0.0781
H33? H 0.4917 0.5483 0.4866
H53? H 0.6158 0.5306 0.8339
H75? H 0.7363 0.2642 0.6909

#END
