
#######################################################################
#
#                 Cambridge Crystallographic Data Centre
#                                CCDC 
#
#######################################################################
#
# If this CIF has been generated from an entry in the Cambridge 
# Structural Database, then it will include bibliographic, chemical, 
# crystal, experimental, refinement or atomic coordinate data resulting 
# from the CCDC's data processing and validation procedures.
#
#######################################################################

data_ABAKIZ
_symmetry_cell_setting           monoclinic
_symmetry_space_group_name_H-M   'P 21/n'
_symmetry_Int_Tables_number      14
_space_group_name_Hall           '-P 2yn'
loop_
_symmetry_equiv_pos_site_id
_symmetry_equiv_pos_as_xyz
1 x,y,z
2 1/2-x,1/2+y,1/2-z
3 -x,-y,-z
4 1/2+x,1/2-y,1/2+z
_cell_length_a                   7.6504(2)
_cell_length_b                   12.4989(3)
_cell_length_c                   12.7787(3)
_cell_angle_alpha                90
_cell_angle_beta                 98.375(2)
_cell_angle_gamma                90
_cell_volume                     1208.89
loop_
_atom_site_label
_atom_site_type_symbol
_atom_site_fract_x
_atom_site_fract_y
_atom_site_fract_z
C1 C 0.29662(18) -0.17966(10) 0.91075(11)
F1 F 0.17654(14) 0.52071(7) 0.95680(10)
C2 C 0.49407(15) -0.06063(10) 0.82906(9)
C3 C 0.36822(15) 0.23270(9) 0.86946(9)
N1 N 0.18077(18) -0.19553(12) 0.95555(12)
C4 C 0.45722(17) 0.32820(10) 0.85718(11)
H1 H 0.5624 0.3264 0.8288
C5 C 0.65462(17) -0.04859(10) 0.77465(10)
H2 H 0.6384 0.0122 0.7270
H3 H 0.6677 -0.1120 0.7327
C6 C 0.21017(16) 0.23790(10) 0.91178(9)
H4 H 0.1477 0.1754 0.9201
C7 C 0.82131(18) -0.03252(13) 0.85331(12)
H5 H 0.8075 0.0290 0.8964
H6 H 0.9199 -0.0217 0.8158
H7 H 0.8420 -0.0947 0.8975
C8 C 0.53656(19) -0.25427(10) 0.83029(11)
C9 C 0.44770(16) 0.13350(9) 0.83921(10)
H8 H 0.5433 0.1410 0.8024
C10 C 0.44336(16) -0.16038(9) 0.85528(10)
C11 C 0.14552(18) 0.33429(10) 0.94140(11)
H9 H 0.0406 0.3374 0.9700
C12 C 0.23896(19) 0.42570(10) 0.92788(12)
C13 C 0.40019(15) 0.03307(9) 0.85783(9)
H10 H 0.3012 0.0228 0.8912
C14 C 0.39336(19) 0.42521(10) 0.88608(12)
H11 H 0.4536 0.4885 0.8774
N2 N 0.6121(2) -0.32851(10) 0.81089(12)
C1 C 0.20338(18) 0.32034(10) 0.58925(11)
F1 F 0.32346(14) 1.02071(7) 0.54320(10)
C2 C 0.00593(15) 0.43937(10) 0.67094(9)
C3 C 0.13178(15) 0.73270(9) 0.63054(9)
N1 N 0.31923(18) 0.30447(12) 0.54445(12)
C4 C 0.04278(17) 0.82820(10) 0.64282(11)
H1 H -0.0624 0.8264 0.6712
C5 C -0.15462(17) 0.45141(10) 0.72535(10)
H2 H -0.1384 0.5122 0.7730
H3 H -0.1677 0.3880 0.7673
C6 C 0.28983(16) 0.73790(10) 0.58822(9)
H4 H 0.3523 0.6754 0.5799
C7 C -0.32131(18) 0.46748(13) 0.64669(12)
H5 H -0.3075 0.5290 0.6036
H6 H -0.4199 0.4783 0.6842
H7 H -0.3420 0.4053 0.6025
C8 C -0.03656(19) 0.24573(10) 0.66971(11)
C9 C 0.05230(16) 0.63350(9) 0.66079(10)
H8 H -0.0433 0.6410 0.6976
C10 C 0.05664(16) 0.33962(9) 0.64472(10)
C11 C 0.35448(18) 0.83429(10) 0.55860(11)
H9 H 0.4594 0.8374 0.5300
C12 C 0.26104(19) 0.92570(10) 0.57212(12)
C13 C 0.09981(15) 0.53307(9) 0.64217(9)
H10 H 0.1988 0.5228 0.6088
C14 C 0.10664(19) 0.92521(10) 0.61392(12)
H11 H 0.0464 0.9885 0.6226
N2 N -0.1121(2) 0.17149(10) 0.68911(12)
C1 C 0.70338(18) 1.17966(10) 0.08925(11)
F1 F 0.82346(14) 0.47929(7) 0.04320(10)
C2 C 0.50593(15) 1.06063(10) 0.17094(9)
C3 C 0.63178(15) 0.76730(9) 0.13054(9)
N1 N 0.81923(18) 1.19553(12) 0.04445(12)
C4 C 0.54278(17) 0.67180(10) 0.14282(11)
H1 H 0.4376 0.6736 0.1712
C5 C 0.34538(17) 1.04859(10) 0.22535(10)
H2 H 0.3616 0.9878 0.2730
H3 H 0.3323 1.1120 0.2673
C6 C 0.78983(16) 0.76210(10) 0.08822(9)
H4 H 0.8523 0.8246 0.0799
C7 C 0.17869(18) 1.03252(13) 0.14669(12)
H5 H 0.1925 0.9710 0.1036
H6 H 0.0801 1.0217 0.1842
H7 H 0.1580 1.0947 0.1025
C8 C 0.46344(19) 1.25427(10) 0.16971(11)
C9 C 0.55230(16) 0.86650(9) 0.16079(10)
H8 H 0.4567 0.8590 0.1976
C10 C 0.55664(16) 1.16038(9) 0.14472(10)
C11 C 0.85448(18) 0.66571(10) 0.05860(11)
H9 H 0.9594 0.6626 0.0300
C12 C 0.76104(19) 0.57430(10) 0.07212(12)
C13 C 0.59981(15) 0.96693(9) 0.14217(9)
H10 H 0.6988 0.9772 0.1088
C14 C 0.60664(19) 0.57479(10) 0.11392(12)
H11 H 0.5464 0.5115 0.1226
N2 N 0.3879(2) 1.32851(10) 0.18911(12)
C1 C 0.79662(18) 0.67966(10) 0.41075(11)
F1 F 0.67654(14) -0.02071(7) 0.45680(10)
C2 C 0.99407(15) 0.56063(10) 0.32906(9)
C3 C 0.86822(15) 0.26730(9) 0.36946(9)
N1 N 0.68077(18) 0.69553(12) 0.45555(12)
C4 C 0.95722(17) 0.17180(10) 0.35718(11)
H1 H 1.0624 0.1736 0.3288
C5 C 1.15462(17) 0.54859(10) 0.27465(10)
H2 H 1.1384 0.4878 0.2270
H3 H 1.1677 0.6120 0.2327
C6 C 0.71017(16) 0.26210(10) 0.41178(9)
H4 H 0.6477 0.3246 0.4201
C7 C 1.32131(18) 0.53252(13) 0.35331(12)
H5 H 1.3075 0.4710 0.3964
H6 H 1.4199 0.5217 0.3158
H7 H 1.3420 0.5947 0.3975
C8 C 1.03656(19) 0.75427(10) 0.33029(11)
C9 C 0.94770(16) 0.36650(9) 0.33921(10)
H8 H 1.0433 0.3590 0.3024
C10 C 0.94336(16) 0.66038(9) 0.35528(10)
C11 C 0.64552(18) 0.16571(10) 0.44140(11)
H9 H 0.5406 0.1626 0.4700
C12 C 0.73896(19) 0.07430(10) 0.42788(12)
C13 C 0.90019(15) 0.46693(9) 0.35783(9)
H10 H 0.8012 0.4772 0.3912
C14 C 0.89336(19) 0.07479(10) 0.38608(12)
H11 H 0.9536 0.0115 0.3774
N2 N 1.1121(2) 0.82851(10) 0.31089(12)

#END
