
#######################################################################
#
#                 Cambridge Crystallographic Data Centre
#                                CCDC 
#
#######################################################################
#
# If this CIF has been generated from an entry in the Cambridge 
# Structural Database, then it will include bibliographic, chemical, 
# crystal, experimental, refinement or atomic coordinate data resulting 
# from the CCDC's data processing and validation procedures.
#
#######################################################################

data_ABAYIN
_symmetry_cell_setting           triclinic
_symmetry_space_group_name_H-M   'P -1'
_symmetry_Int_Tables_number      2
_space_group_name_Hall           '-P 1'
loop_
_symmetry_equiv_pos_site_id
_symmetry_equiv_pos_as_xyz
1 x,y,z
2 -x,-y,-z
_cell_length_a                   6.3111(4)
_cell_length_b                   11.5719(11)
_cell_length_c                   13.4959(15)
_cell_angle_alpha                93.032(4)
_cell_angle_beta                 90.081(6)
_cell_angle_gamma                103.146(6)
_cell_volume                     958.36
loop_
_atom_site_label
_atom_site_type_symbol
_atom_site_fract_x
_atom_site_fract_y
_atom_site_fract_z
P1 P 0.77497(15) 0.31114(8) 0.35020(8)
O1 O 1.0311(3) 0.3158(2) 0.13775(18)
O2 O 1.1556(4) 0.5213(2) 0.16319(19)
O3 O 0.6021(4) 0.3796(2) 0.34549(19)
C1 C 1.0277(6) 0.3939(3) 0.3015(3)
H1 H 1.0745 0.4703 0.3407
H2 H 1.1414 0.3484 0.3087
C2 C 1.0069(6) 0.4188(3) 0.1929(3)
H3 H 0.8562 0.4294 0.1809
C3 C 1.3812(6) 0.5203(4) 0.1794(4)
H4 H 1.4137 0.4478 0.1467
H5 H 1.4119 0.5202 0.2513
C4 C 1.5183(7) 0.6270(4) 0.1378(4)
H6 H 1.6721 0.6272 0.1483
H7 H 1.4863 0.6983 0.1710
H8 H 1.4877 0.6263 0.0665
C5 C 0.9563(6) 0.3099(4) 0.0372(3)
H9 H 1.0390 0.3789 0.0025
H10 H 0.8002 0.3115 0.0353
C6 C 0.9893(7) 0.1966(4) -0.0127(3)
H11 H 0.9371 0.1903 -0.0816
H12 H 0.9079 0.1288 0.0225
H13 H 1.1445 0.1964 -0.0115
C7 C 0.8325(6) 0.2793(3) 0.4758(3)
C8 C 1.0332(6) 0.3326(3) 0.5202(3)
H14 H 1.1423 0.3808 0.4824
C9 C 1.0760(7) 0.3161(3) 0.6192(3)
H15 H 1.2133 0.3528 0.6486
C10 C 0.9192(8) 0.2470(4) 0.6735(3)
H16 H 0.9474 0.2355 0.7409
C11 C 0.7207(7) 0.1940(3) 0.6311(3)
H17 H 0.6139 0.1461 0.6702
C12 C 0.6713(6) 0.2083(3) 0.5328(3)
C13 C 0.4487(6) 0.1506(4) 0.4907(3)
H18 H 0.3546 0.1153 0.5441
H19 H 0.4610 0.0884 0.4403
H20 H 0.3857 0.2105 0.4605
C14 C 0.6952(5) 0.1744(3) 0.2741(3)
C15 C 0.5157(6) 0.1667(3) 0.2110(3)
H21 H 0.4421 0.2298 0.2129
C16 C 0.4429(6) 0.0691(3) 0.1458(3)
H22 H 0.3205 0.0651 0.1037
C17 C 0.5500(6) -0.0218(3) 0.1429(3)
H23 H 0.5025 -0.0884 0.0976
C18 C 0.7247(6) -0.0176(3) 0.2046(3)
H24 H 0.7952 -0.0820 0.2019
C19 C 0.8013(5) 0.0796(3) 0.2715(3)
C20 C 0.9938(6) 0.0793(3) 0.3370(3)
H25 H 1.1084 0.1505 0.3270
H26 H 1.0490 0.0083 0.3201
H27 H 0.9497 0.0791 0.4066
P1 P 0.22503(15) 0.68886(8) 0.64980(8)
O1 O -0.0311(3) 0.6842(2) 0.86225(18)
O2 O -0.1556(4) 0.4787(2) 0.83681(19)
O3 O 0.3979(4) 0.6204(2) 0.65451(19)
C1 C -0.0277(6) 0.6061(3) 0.6985(3)
H1 H -0.0745 0.5297 0.6593
H2 H -0.1414 0.6516 0.6913
C2 C -0.0069(6) 0.5812(3) 0.8071(3)
H3 H 0.1438 0.5706 0.8191
C3 C -0.3812(6) 0.4797(4) 0.8206(4)
H4 H -0.4137 0.5522 0.8533
H5 H -0.4119 0.4798 0.7487
C4 C -0.5183(7) 0.3730(4) 0.8622(4)
H6 H -0.6721 0.3728 0.8517
H7 H -0.4863 0.3017 0.8290
H8 H -0.4877 0.3737 0.9335
C5 C 0.0437(6) 0.6901(4) 0.9628(3)
H9 H -0.0390 0.6211 0.9975
H10 H 0.1998 0.6885 0.9647
C6 C 0.0107(7) 0.8034(4) 1.0127(3)
H11 H 0.0629 0.8097 1.0816
H12 H 0.0921 0.8712 0.9775
H13 H -0.1445 0.8036 1.0115
C7 C 0.1675(6) 0.7207(3) 0.5242(3)
C8 C -0.0332(6) 0.6674(3) 0.4798(3)
H14 H -0.1423 0.6192 0.5176
C9 C -0.0760(7) 0.6839(3) 0.3808(3)
H15 H -0.2133 0.6472 0.3514
C10 C 0.0808(8) 0.7530(4) 0.3265(3)
H16 H 0.0526 0.7645 0.2591
C11 C 0.2793(7) 0.8060(3) 0.3689(3)
H17 H 0.3861 0.8539 0.3298
C12 C 0.3287(6) 0.7917(3) 0.4672(3)
C13 C 0.5513(6) 0.8494(4) 0.5093(3)
H18 H 0.6454 0.8847 0.4559
H19 H 0.5390 0.9116 0.5597
H20 H 0.6143 0.7895 0.5395
C14 C 0.3048(5) 0.8256(3) 0.7259(3)
C15 C 0.4843(6) 0.8333(3) 0.7890(3)
H21 H 0.5579 0.7702 0.7871
C16 C 0.5571(6) 0.9309(3) 0.8542(3)
H22 H 0.6795 0.9349 0.8963
C17 C 0.4500(6) 1.0218(3) 0.8571(3)
H23 H 0.4975 1.0884 0.9024
C18 C 0.2753(6) 1.0176(3) 0.7954(3)
H24 H 0.2048 1.0820 0.7981
C19 C 0.1987(5) 0.9204(3) 0.7285(3)
C20 C 0.0062(6) 0.9207(3) 0.6630(3)
H25 H -0.1084 0.8495 0.6730
H26 H -0.0490 0.9917 0.6799
H27 H 0.0503 0.9209 0.5934
O4 O 0.5636(10) 0.4590(6) 0.5514(5)
H28 H 0.5743 0.4359 0.4919
H29 H 0.5112 0.5096 0.5839
O4 O 0.4364(10) 0.5410(6) 0.4486(5)
H28 H 0.4257 0.5641 0.5081
H29 H 0.4888 0.4904 0.4161

#END
