
#######################################################################
#
#                 Cambridge Crystallographic Data Centre
#                                CCDC 
#
#######################################################################
#
# If this CIF has been generated from an entry in the Cambridge 
# Structural Database, then it will include bibliographic, chemical, 
# crystal, experimental, refinement or atomic coordinate data resulting 
# from the CCDC's data processing and validation procedures.
#
#######################################################################

data_ABEDIU01
_symmetry_cell_setting           triclinic
_symmetry_space_group_name_H-M   'P -1'
_symmetry_Int_Tables_number      2
_space_group_name_Hall           '-P 1'
loop_
_symmetry_equiv_pos_site_id
_symmetry_equiv_pos_as_xyz
1 x,y,z
2 -x,-y,-z
_cell_length_a                   4.71770(10)
_cell_length_b                   16.96430(10)
_cell_length_c                   19.44940(10)
_cell_angle_alpha                71.1000(10)
_cell_angle_beta                 88.3450(10)
_cell_angle_gamma                89.7350(10)
_cell_volume                     1472.03
loop_
_atom_site_label
_atom_site_type_symbol
_atom_site_fract_x
_atom_site_fract_y
_atom_site_fract_z
S1 S 0.81028(13) 0.09786(3) 0.49861(3)
S2 S 1.13198(14) 0.12143(3) 0.69987(3)
O1 O 0.4540(4) -0.15738(9) 0.64829(9)
O2 O 1.7188(4) 0.33645(10) 0.60825(9)
N1 N 0.7101(4) 0.02951(11) 0.63576(10)
N2 N 1.2147(4) 0.19968(11) 0.56293(10)
C1 C 0.5689(5) 0.01554(13) 0.52622(12)
C2 C 0.5420(5) -0.01129(13) 0.60134(13)
C3 C 0.3495(6) -0.07857(15) 0.64841(14)
H1 H 0.354(6) -0.0763(14) 0.6977(15)
H2 H 0.157(6) -0.0718(15) 0.6300(15)
C4 C 0.2608(7) -0.22264(16) 0.68553(16)
H3 H 0.065(7) -0.2079(16) 0.6668(15)
H4 H 0.249(6) -0.2273(16) 0.7366(16)
C5 C 0.3520(8) -0.30213(17) 0.67373(17)
H5 H 0.241(7) -0.3488(19) 0.7023(17)
C6 C 0.5499(9) -0.3094(2) 0.6279(2)
H6 H 0.664(7) -0.2616(19) 0.6010(17)
H7 H 0.578(7) -0.366(2) 0.6204(17)
C7 C 0.8632(5) 0.08732(13) 0.58830(12)
C8 C 1.0678(5) 0.13867(13) 0.60928(12)
C9 C 1.3729(6) 0.20115(14) 0.67416(13)
H8 H 1.486(6) 0.2158(16) 0.7087(16)
C10 C 1.3892(5) 0.23520(14) 0.60052(13)
C11 C 1.5757(6) 0.30641(15) 0.55828(14)
H9 H 1.711(6) 0.2854(16) 0.5289(15)
H10 H 1.460(5) 0.3523(14) 0.5253(13)
C12 C 1.8719(7) 0.41125(17) 0.57310(16)
H11 H 1.728(7) 0.4578(18) 0.5539(16)
H12 H 1.981(7) 0.4060(18) 0.5331(18)
C13 C 2.0677(9) 0.4277(2) 0.62600(19)
H13 H 2.247(9) 0.386(2) 0.651(2)
C14 C 2.0786(10) 0.4917(2) 0.6446(2)
H14 H 1.9528 0.5366 0.6243
H15 H 2.2127 0.4954 0.6789
C1A C 0.4311(5) -0.01554(13) 0.47378(12)
S1A S 0.18972(13) -0.09786(3) 0.50139(3)
C7A C 0.1368(5) -0.08732(13) 0.41170(12)
N1A N 0.2899(4) -0.02951(11) 0.36424(10)
C2A C 0.4580(5) 0.01129(13) 0.39866(13)
C3A C 0.6505(6) 0.07857(15) 0.35159(14)
O1A O 0.5460(4) 0.15738(9) 0.35171(9)
C4A C 0.7392(7) 0.22264(16) 0.31447(16)
H3A H 0.935(7) 0.2079(16) 0.3332(15)
H4A H 0.751(6) 0.2273(16) 0.2634(16)
C5A C 0.6480(8) 0.30213(17) 0.32627(17)
H5A H 0.759(7) 0.3488(19) 0.2977(17)
C6A C 0.4501(9) 0.3094(2) 0.3721(2)
H6A H 0.336(7) 0.2616(19) 0.3990(17)
H7A H 0.422(7) 0.366(2) 0.3796(17)
H1A H 0.646(6) 0.0763(14) 0.3023(15)
H2A H 0.843(6) 0.0718(15) 0.3700(15)
C8A C -0.0678(5) -0.13867(13) 0.39072(12)
S2A S -0.13198(14) -0.12143(3) 0.30013(3)
C9A C -0.3729(6) -0.20115(14) 0.32584(13)
H8A H -0.486(6) -0.2158(16) 0.2913(16)
C10A C -0.3892(5) -0.23520(14) 0.39948(13)
N2A N -0.2147(4) -0.19968(11) 0.43707(10)
C11A C -0.5757(6) -0.30641(15) 0.44172(14)
O2A O -0.7188(4) -0.33645(10) 0.39175(9)
C12A C -0.8719(7) -0.41125(17) 0.42690(16)
H11A H -0.728(7) -0.4578(18) 0.4461(16)
H12A H -0.981(7) -0.4060(18) 0.4669(18)
C13A C -1.0677(9) -0.4277(2) 0.37400(19)
H13A H -1.247(9) -0.386(2) 0.349(2)
C14A C -1.0786(10) -0.4917(2) 0.3554(2)
H14A H -0.9528 -0.5366 0.3757
H15A H -1.2127 -0.4954 0.3211
H9A H -0.711(6) -0.2854(16) 0.4711(15)
H10A H -0.460(5) -0.3523(14) 0.4747(13)
S1 S 0.81028(13) 1.09786(3) 0.49861(3)
S2 S 1.13198(14) 1.12143(3) 0.69987(3)
O1 O 0.4540(4) 0.84262(9) 0.64829(9)
O2 O 1.7188(4) 1.33645(10) 0.60825(9)
N1 N 0.7101(4) 1.02951(11) 0.63576(10)
N2 N 1.2147(4) 1.19968(11) 0.56293(10)
C1 C 0.5689(5) 1.01554(13) 0.52622(12)
C2 C 0.5420(5) 0.98871(13) 0.60134(13)
C3 C 0.3495(6) 0.92143(15) 0.64841(14)
H1 H 0.354(6) 0.9237(14) 0.6977(15)
H2 H 0.157(6) 0.9282(15) 0.6300(15)
C4 C 0.2608(7) 0.77736(16) 0.68553(16)
H3 H 0.065(7) 0.7921(16) 0.6668(15)
H4 H 0.249(6) 0.7727(16) 0.7366(16)
C5 C 0.3520(8) 0.69787(17) 0.67373(17)
H5 H 0.241(7) 0.6512(19) 0.7023(17)
C6 C 0.5499(9) 0.6906(2) 0.6279(2)
H6 H 0.664(7) 0.7384(19) 0.6010(17)
H7 H 0.578(7) 0.634(2) 0.6204(17)
C7 C 0.8632(5) 1.08732(13) 0.58830(12)
C8 C 1.0678(5) 1.13867(13) 0.60928(12)
C9 C 1.3729(6) 1.20115(14) 0.67416(13)
H8 H 1.486(6) 1.2158(16) 0.7087(16)
C10 C 1.3892(5) 1.23520(14) 0.60052(13)
C11 C 1.5757(6) 1.30641(15) 0.55828(14)
H9 H 1.711(6) 1.2854(16) 0.5289(15)
H10 H 1.460(5) 1.3523(14) 0.5253(13)
C12 C 1.8719(7) 1.41125(17) 0.57310(16)
H11 H 1.728(7) 1.4578(18) 0.5539(16)
H12 H 1.981(7) 1.4060(18) 0.5331(18)
C13 C 2.0677(9) 1.4277(2) 0.62600(19)
H13 H 2.247(9) 1.386(2) 0.651(2)
C14 C 2.0786(10) 1.4917(2) 0.6446(2)
H14 H 1.9528 1.5366 0.6243
H15 H 2.2127 1.4954 0.6789
C1A C 0.4311(5) 0.98446(13) 0.47378(12)
S1A S 0.18972(13) 0.90214(3) 0.50139(3)
C7A C 0.1368(5) 0.91268(13) 0.41170(12)
N1A N 0.2899(4) 0.97049(11) 0.36424(10)
C2A C 0.4580(5) 1.01129(13) 0.39866(13)
C3A C 0.6505(6) 1.07857(15) 0.35159(14)
O1A O 0.5460(4) 1.15738(9) 0.35171(9)
C4A C 0.7392(7) 1.22264(16) 0.31447(16)
H3A H 0.935(7) 1.2079(16) 0.3332(15)
H4A H 0.751(6) 1.2273(16) 0.2634(16)
C5A C 0.6480(8) 1.30213(17) 0.32627(17)
H5A H 0.759(7) 1.3488(19) 0.2977(17)
C6A C 0.4501(9) 1.3094(2) 0.3721(2)
H6A H 0.336(7) 1.2616(19) 0.3990(17)
H7A H 0.422(7) 1.366(2) 0.3796(17)
H1A H 0.646(6) 1.0763(14) 0.3023(15)
H2A H 0.843(6) 1.0718(15) 0.3700(15)
C8A C -0.0678(5) 0.86133(13) 0.39072(12)
S2A S -0.13198(14) 0.87857(3) 0.30013(3)
C9A C -0.3729(6) 0.79885(14) 0.32584(13)
H8A H -0.486(6) 0.7842(16) 0.2913(16)
C10A C -0.3892(5) 0.76480(14) 0.39948(13)
N2A N -0.2147(4) 0.80032(11) 0.43707(10)
C11A C -0.5757(6) 0.69359(15) 0.44172(14)
O2A O -0.7188(4) 0.66355(10) 0.39175(9)
C12A C -0.8719(7) 0.58875(17) 0.42690(16)
H11A H -0.728(7) 0.5422(18) 0.4461(16)
H12A H -0.981(7) 0.5940(18) 0.4669(18)
C13A C -1.0677(9) 0.5723(2) 0.37400(19)
H13A H -1.247(9) 0.614(2) 0.349(2)
C14A C -1.0786(10) 0.5083(2) 0.3554(2)
H14A H -0.9528 0.4634 0.3757
H15A H -1.2127 0.5046 0.3211
H9A H -0.711(6) 0.7146(16) 0.4711(15)
H10A H -0.460(5) 0.6477(14) 0.4747(13)
S3 S -0.11110(14) 0.27158(4) -0.20780(3)
S4 S 0.18844(13) 0.09895(3) -0.00303(3)
O3 O -0.7293(4) 0.41578(11) -0.11868(11)
O4 O 0.5563(4) -0.05888(9) -0.14029(9)
N3 N -0.2165(4) 0.24606(11) -0.07134(11)
N4 N 0.2937(4) 0.12586(11) -0.13934(10)
C15 C -0.3590(6) 0.33248(15) -0.18346(14)
H16 H -0.457(6) 0.3753(16) -0.2181(15)
C16 C -0.3873(5) 0.31073(14) -0.10993(14)
C17 C -0.5788(6) 0.35073(16) -0.06854(15)
H17 H -0.711(6) 0.3086(14) -0.0390(13)
H18 H -0.462(6) 0.3762(14) -0.0381(14)
C18 C -0.8843(7) 0.46462(19) -0.08399(19)
H19 H -0.738(6) 0.4956(16) -0.0608(15)
H20 H -0.990(7) 0.4258(18) -0.0430(17)
C19 C -1.0788(7) 0.52117(18) -0.1388(2)
H21 H -1.1842 0.4965 -0.1675
C20 C -1.1141(10) 0.5981(2) -0.1500(2)
H22 H -1.0131 0.6254 -0.1226
H23 H -1.2415 0.6286 -0.1858
C21 C -0.0622(5) 0.21969(13) -0.11662(12)
C22 C 0.1399(5) 0.15196(13) -0.09361(12)
C23 C 0.4307(5) 0.03431(13) -0.02728(12)
C24 C 0.4586(5) 0.05941(13) -0.10242(12)
C25 C 0.6501(6) 0.02296(14) -0.14692(13)
H24 H 0.654(6) 0.0596(15) -0.1988(15)
H25 H 0.847(6) 0.0201(14) -0.1314(13)
C26 C 0.7547(6) -0.09831(16) -0.17504(15)
H26 H 0.948(7) -0.0966(15) -0.1556(15)
H27 H 0.763(6) -0.0676(16) -0.2266(16)
C27 C 0.6671(7) -0.18678(17) -0.16112(16)
H28 H 0.766(7) -0.2130(19) -0.1880(18)
C28 C 0.4664(7) -0.22709(18) -0.11614(17)
H29 H 0.362(6) -0.2010(16) -0.0882(16)
H30 H 0.420(6) -0.2846(16) -0.1106(14)
C23A C 0.5693(5) -0.03431(13) 0.02728(12)
S4A S 0.81156(13) -0.09895(3) 0.00303(3)
C22A C 0.8601(5) -0.15196(13) 0.09361(12)
N4A N 0.7063(4) -0.12586(11) 0.13934(10)
C24A C 0.5414(5) -0.05941(13) 0.10242(12)
C25A C 0.3499(6) -0.02296(14) 0.14692(13)
O4A O 0.4437(4) 0.05888(9) 0.14029(9)
C26A C 0.2453(6) 0.09831(16) 0.17504(15)
H26A H 0.052(7) 0.0966(15) 0.1556(15)
H27A H 0.237(6) 0.0676(16) 0.2266(16)
C27A C 0.3329(7) 0.18678(17) 0.16112(16)
H28A H 0.234(7) 0.2130(19) 0.1880(18)
C28A C 0.5336(7) 0.22709(18) 0.11614(17)
H29A H 0.638(6) 0.2010(16) 0.0882(16)
H30A H 0.580(6) 0.2846(16) 0.1106(14)
H24A H 0.346(6) -0.0596(15) 0.1988(15)
H25A H 0.153(6) -0.0201(14) 0.1314(13)
C21A C 1.0622(5) -0.21969(13) 0.11662(12)
S3A S 1.11110(14) -0.27158(4) 0.20780(3)
C15A C 1.3590(6) -0.33248(15) 0.18346(14)
H16A H 1.457(6) -0.3753(16) 0.2181(15)
C16A C 1.3873(5) -0.31073(14) 0.10993(14)
N3A N 1.2165(4) -0.24606(11) 0.07134(11)
C17A C 1.5788(6) -0.35073(16) 0.06854(15)
O3A O 1.7293(4) -0.41578(11) 0.11868(11)
C18A C 1.8843(7) -0.46462(19) 0.08399(19)
H19A H 1.738(6) -0.4956(16) 0.0608(15)
H20A H 1.990(7) -0.4258(18) 0.0430(17)
C19A C 2.0788(7) -0.52117(18) 0.1388(2)
H21A H 2.1842 -0.4965 0.1675
C20A C 2.1141(10) -0.5981(2) 0.1500(2)
H22A H 2.0131 -0.6254 0.1226
H23A H 2.2415 -0.6286 0.1858
H17A H 1.711(6) -0.3086(14) 0.0390(13)
H18A H 1.462(6) -0.3762(14) 0.0381(14)
S3 S -0.11110(14) 0.27158(4) 0.79220(3)
S4 S 0.18844(13) 0.09895(3) 0.99697(3)
O3 O -0.7293(4) 0.41578(11) 0.88132(11)
O4 O 0.5563(4) -0.05888(9) 0.85971(9)
N3 N -0.2165(4) 0.24606(11) 0.92866(11)
N4 N 0.2937(4) 0.12586(11) 0.86066(10)
C15 C -0.3590(6) 0.33248(15) 0.81654(14)
H16 H -0.457(6) 0.3753(16) 0.7819(15)
C16 C -0.3873(5) 0.31073(14) 0.89007(14)
C17 C -0.5788(6) 0.35073(16) 0.93146(15)
H17 H -0.711(6) 0.3086(14) 0.9610(13)
H18 H -0.462(6) 0.3762(14) 0.9619(14)
C18 C -0.8843(7) 0.46462(19) 0.91601(19)
H19 H -0.738(6) 0.4956(16) 0.9392(15)
H20 H -0.990(7) 0.4258(18) 0.9570(17)
C19 C -1.0788(7) 0.52117(18) 0.8612(2)
H21 H -1.1842 0.4965 0.8325
C20 C -1.1141(10) 0.5981(2) 0.8500(2)
H22 H -1.0131 0.6254 0.8774
H23 H -1.2415 0.6286 0.8142
C21 C -0.0622(5) 0.21969(13) 0.88338(12)
C22 C 0.1399(5) 0.15196(13) 0.90639(12)
C23 C 0.4307(5) 0.03431(13) 0.97272(12)
C24 C 0.4586(5) 0.05941(13) 0.89758(12)
C25 C 0.6501(6) 0.02296(14) 0.85308(13)
H24 H 0.654(6) 0.0596(15) 0.8012(15)
H25 H 0.847(6) 0.0201(14) 0.8686(13)
C26 C 0.7547(6) -0.09831(16) 0.82496(15)
H26 H 0.948(7) -0.0966(15) 0.8444(15)
H27 H 0.763(6) -0.0676(16) 0.7734(16)
C27 C 0.6671(7) -0.18678(17) 0.83888(16)
H28 H 0.766(7) -0.2130(19) 0.8120(18)
C28 C 0.4664(7) -0.22709(18) 0.88386(17)
H29 H 0.362(6) -0.2010(16) 0.9118(16)
H30 H 0.420(6) -0.2846(16) 0.8894(14)
C23A C 0.5693(5) -0.03431(13) 1.02728(12)
S4A S 0.81156(13) -0.09895(3) 1.00303(3)
C22A C 0.8601(5) -0.15196(13) 1.09361(12)
N4A N 0.7063(4) -0.12586(11) 1.13934(10)
C24A C 0.5414(5) -0.05941(13) 1.10242(12)
C25A C 0.3499(6) -0.02296(14) 1.14692(13)
O4A O 0.4437(4) 0.05888(9) 1.14029(9)
C26A C 0.2453(6) 0.09831(16) 1.17504(15)
H26A H 0.052(7) 0.0966(15) 1.1556(15)
H27A H 0.237(6) 0.0676(16) 1.2266(16)
C27A C 0.3329(7) 0.18678(17) 1.16112(16)
H28A H 0.234(7) 0.2130(19) 1.1880(18)
C28A C 0.5336(7) 0.22709(18) 1.11614(17)
H29A H 0.638(6) 0.2010(16) 1.0882(16)
H30A H 0.580(6) 0.2846(16) 1.1106(14)
H24A H 0.346(6) -0.0596(15) 1.1988(15)
H25A H 0.153(6) -0.0201(14) 1.1314(13)
C21A C 1.0622(5) -0.21969(13) 1.11662(12)
S3A S 1.11110(14) -0.27158(4) 1.20780(3)
C15A C 1.3590(6) -0.33248(15) 1.18346(14)
H16A H 1.457(6) -0.3753(16) 1.2181(15)
C16A C 1.3873(5) -0.31073(14) 1.10993(14)
N3A N 1.2165(4) -0.24606(11) 1.07134(11)
C17A C 1.5788(6) -0.35073(16) 1.06854(15)
O3A O 1.7293(4) -0.41578(11) 1.11868(11)
C18A C 1.8843(7) -0.46462(19) 1.08399(19)
H19A H 1.738(6) -0.4956(16) 1.0608(15)
H20A H 1.990(7) -0.4258(18) 1.0430(17)
C19A C 2.0788(7) -0.52117(18) 1.1388(2)
H21A H 2.1842 -0.4965 1.1675
C20A C 2.1141(10) -0.5981(2) 1.1500(2)
H22A H 2.0131 -0.6254 1.1226
H23A H 2.2415 -0.6286 1.1858
H17A H 1.711(6) -0.3086(14) 1.0390(13)
H18A H 1.462(6) -0.3762(14) 1.0381(14)
S3 S -0.11110(14) 1.27158(4) -0.20780(3)
S4 S 0.18844(13) 1.09895(3) -0.00303(3)
O3 O -0.7293(4) 1.41578(11) -0.11868(11)
O4 O 0.5563(4) 0.94112(9) -0.14029(9)
N3 N -0.2165(4) 1.24606(11) -0.07134(11)
N4 N 0.2937(4) 1.12586(11) -0.13934(10)
C15 C -0.3590(6) 1.33248(15) -0.18346(14)
H16 H -0.457(6) 1.3753(16) -0.2181(15)
C16 C -0.3873(5) 1.31073(14) -0.10993(14)
C17 C -0.5788(6) 1.35073(16) -0.06854(15)
H17 H -0.711(6) 1.3086(14) -0.0390(13)
H18 H -0.462(6) 1.3762(14) -0.0381(14)
C18 C -0.8843(7) 1.46462(19) -0.08399(19)
H19 H -0.738(6) 1.4956(16) -0.0608(15)
H20 H -0.990(7) 1.4258(18) -0.0430(17)
C19 C -1.0788(7) 1.52117(18) -0.1388(2)
H21 H -1.1842 1.4965 -0.1675
C20 C -1.1141(10) 1.5981(2) -0.1500(2)
H22 H -1.0131 1.6254 -0.1226
H23 H -1.2415 1.6286 -0.1858
C21 C -0.0622(5) 1.21969(13) -0.11662(12)
C22 C 0.1399(5) 1.15196(13) -0.09361(12)
C23 C 0.4307(5) 1.03431(13) -0.02728(12)
C24 C 0.4586(5) 1.05941(13) -0.10242(12)
C25 C 0.6501(6) 1.02296(14) -0.14692(13)
H24 H 0.654(6) 1.0596(15) -0.1988(15)
H25 H 0.847(6) 1.0201(14) -0.1314(13)
C26 C 0.7547(6) 0.90169(16) -0.17504(15)
H26 H 0.948(7) 0.9034(15) -0.1556(15)
H27 H 0.763(6) 0.9324(16) -0.2266(16)
C27 C 0.6671(7) 0.81322(17) -0.16112(16)
H28 H 0.766(7) 0.7870(19) -0.1880(18)
C28 C 0.4664(7) 0.77291(18) -0.11614(17)
H29 H 0.362(6) 0.7990(16) -0.0882(16)
H30 H 0.420(6) 0.7154(16) -0.1106(14)
C23A C 0.5693(5) 0.96569(13) 0.02728(12)
S4A S 0.81156(13) 0.90105(3) 0.00303(3)
C22A C 0.8601(5) 0.84804(13) 0.09361(12)
N4A N 0.7063(4) 0.87414(11) 0.13934(10)
C24A C 0.5414(5) 0.94059(13) 0.10242(12)
C25A C 0.3499(6) 0.97704(14) 0.14692(13)
O4A O 0.4437(4) 1.05888(9) 0.14029(9)
C26A C 0.2453(6) 1.09831(16) 0.17504(15)
H26A H 0.052(7) 1.0966(15) 0.1556(15)
H27A H 0.237(6) 1.0676(16) 0.2266(16)
C27A C 0.3329(7) 1.18678(17) 0.16112(16)
H28A H 0.234(7) 1.2130(19) 0.1880(18)
C28A C 0.5336(7) 1.22709(18) 0.11614(17)
H29A H 0.638(6) 1.2010(16) 0.0882(16)
H30A H 0.580(6) 1.2846(16) 0.1106(14)
H24A H 0.346(6) 0.9404(15) 0.1988(15)
H25A H 0.153(6) 0.9799(14) 0.1314(13)
C21A C 1.0622(5) 0.78031(13) 0.11662(12)
S3A S 1.11110(14) 0.72842(4) 0.20780(3)
C15A C 1.3590(6) 0.66752(15) 0.18346(14)
H16A H 1.457(6) 0.6247(16) 0.2181(15)
C16A C 1.3873(5) 0.68927(14) 0.10993(14)
N3A N 1.2165(4) 0.75394(11) 0.07134(11)
C17A C 1.5788(6) 0.64927(16) 0.06854(15)
O3A O 1.7293(4) 0.58422(11) 0.11868(11)
C18A C 1.8843(7) 0.53538(19) 0.08399(19)
H19A H 1.738(6) 0.5044(16) 0.0608(15)
H20A H 1.990(7) 0.5742(18) 0.0430(17)
C19A C 2.0788(7) 0.47883(18) 0.1388(2)
H21A H 2.1842 0.5035 0.1675
C20A C 2.1141(10) 0.4019(2) 0.1500(2)
H22A H 2.0131 0.3746 0.1226
H23A H 2.2415 0.3714 0.1858
H17A H 1.711(6) 0.6914(14) 0.0390(13)
H18A H 1.462(6) 0.6238(14) 0.0381(14)
S3 S -0.11110(14) 1.27158(4) 0.79220(3)
S4 S 0.18844(13) 1.09895(3) 0.99697(3)
O3 O -0.7293(4) 1.41578(11) 0.88132(11)
O4 O 0.5563(4) 0.94112(9) 0.85971(9)
N3 N -0.2165(4) 1.24606(11) 0.92866(11)
N4 N 0.2937(4) 1.12586(11) 0.86066(10)
C15 C -0.3590(6) 1.33248(15) 0.81654(14)
H16 H -0.457(6) 1.3753(16) 0.7819(15)
C16 C -0.3873(5) 1.31073(14) 0.89007(14)
C17 C -0.5788(6) 1.35073(16) 0.93146(15)
H17 H -0.711(6) 1.3086(14) 0.9610(13)
H18 H -0.462(6) 1.3762(14) 0.9619(14)
C18 C -0.8843(7) 1.46462(19) 0.91601(19)
H19 H -0.738(6) 1.4956(16) 0.9392(15)
H20 H -0.990(7) 1.4258(18) 0.9570(17)
C19 C -1.0788(7) 1.52117(18) 0.8612(2)
H21 H -1.1842 1.4965 0.8325
C20 C -1.1141(10) 1.5981(2) 0.8500(2)
H22 H -1.0131 1.6254 0.8774
H23 H -1.2415 1.6286 0.8142
C21 C -0.0622(5) 1.21969(13) 0.88338(12)
C22 C 0.1399(5) 1.15196(13) 0.90639(12)
C23 C 0.4307(5) 1.03431(13) 0.97272(12)
C24 C 0.4586(5) 1.05941(13) 0.89758(12)
C25 C 0.6501(6) 1.02296(14) 0.85308(13)
H24 H 0.654(6) 1.0596(15) 0.8012(15)
H25 H 0.847(6) 1.0201(14) 0.8686(13)
C26 C 0.7547(6) 0.90169(16) 0.82496(15)
H26 H 0.948(7) 0.9034(15) 0.8444(15)
H27 H 0.763(6) 0.9324(16) 0.7734(16)
C27 C 0.6671(7) 0.81322(17) 0.83888(16)
H28 H 0.766(7) 0.7870(19) 0.8120(18)
C28 C 0.4664(7) 0.77291(18) 0.88386(17)
H29 H 0.362(6) 0.7990(16) 0.9118(16)
H30 H 0.420(6) 0.7154(16) 0.8894(14)
C23A C 0.5693(5) 0.96569(13) 1.02728(12)
S4A S 0.81156(13) 0.90105(3) 1.00303(3)
C22A C 0.8601(5) 0.84804(13) 1.09361(12)
N4A N 0.7063(4) 0.87414(11) 1.13934(10)
C24A C 0.5414(5) 0.94059(13) 1.10242(12)
C25A C 0.3499(6) 0.97704(14) 1.14692(13)
O4A O 0.4437(4) 1.05888(9) 1.14029(9)
C26A C 0.2453(6) 1.09831(16) 1.17504(15)
H26A H 0.052(7) 1.0966(15) 1.1556(15)
H27A H 0.237(6) 1.0676(16) 1.2266(16)
C27A C 0.3329(7) 1.18678(17) 1.16112(16)
H28A H 0.234(7) 1.2130(19) 1.1880(18)
C28A C 0.5336(7) 1.22709(18) 1.11614(17)
H29A H 0.638(6) 1.2010(16) 1.0882(16)
H30A H 0.580(6) 1.2846(16) 1.1106(14)
H24A H 0.346(6) 0.9404(15) 1.1988(15)
H25A H 0.153(6) 0.9799(14) 1.1314(13)
C21A C 1.0622(5) 0.78031(13) 1.11662(12)
S3A S 1.11110(14) 0.72842(4) 1.20780(3)
C15A C 1.3590(6) 0.66752(15) 1.18346(14)
H16A H 1.457(6) 0.6247(16) 1.2181(15)
C16A C 1.3873(5) 0.68927(14) 1.10993(14)
N3A N 1.2165(4) 0.75394(11) 1.07134(11)
C17A C 1.5788(6) 0.64927(16) 1.06854(15)
O3A O 1.7293(4) 0.58422(11) 1.11868(11)
C18A C 1.8843(7) 0.53538(19) 1.08399(19)
H19A H 1.738(6) 0.5044(16) 1.0608(15)
H20A H 1.990(7) 0.5742(18) 1.0430(17)
C19A C 2.0788(7) 0.47883(18) 1.1388(2)
H21A H 2.1842 0.5035 1.1675
C20A C 2.1141(10) 0.4019(2) 1.1500(2)
H22A H 2.0131 0.3746 1.1226
H23A H 2.2415 0.3714 1.1858
H17A H 1.711(6) 0.6914(14) 1.0390(13)
H18A H 1.462(6) 0.6238(14) 1.0381(14)

#END
