./MAQCIS_from_POSCAR.cif_generated_by_CrystalShift
_symmetry_cell_setting triclinic
_symmetry_space_group_name_H-M 'P 1'
loop_
_symmetry_equiv_pos_site_id
_symmetry_equiv_pos_as_xyz
1 x,y,z
_cell_length_a 10.545200
_cell_length_b 7.388500
_cell_length_c 27.606400
_cell_angle_alpha 90.000000
_cell_angle_beta 100.074000
_cell_angle_gamma 90.000000
_cell_volume 2117.742034
loop_
_atom_site_label
_atom_site_type_symbol
_atom_site_fract_x
_atom_site_fract_y
_atom_site_fract_z
H1 H 0.244000 0.495600 0.710600
H2 H 0.691900 0.438500 0.765900
H3 H 0.169900 0.530200 0.784600
H4 H 0.969900 0.264400 0.445500
H5 H 0.931600 0.472500 0.435700
H6 H 0.481400 0.247700 0.852100
H7 H 0.946600 0.342800 0.390600
H8 H 0.726000 0.384800 0.393800
H9 H 0.762000 0.132900 0.054400
H10 H 0.764500 0.175700 0.403500
H11 H 0.398500 0.212400 0.493000
H12 H 0.398500 0.287600 -0.007000
H13 H 0.762000 0.367100 0.554400
H14 H 1.009700 0.491300 0.703000
H15 H 0.885700 0.433300 0.626100
H16 H 0.764500 0.324300 -0.096500
H17 H 0.726000 0.115200 -0.106200
H18 H 0.756000 0.995600 0.789400
H19 H 0.946600 0.157200 -0.109400
H20 H 0.931600 0.027500 -0.064300
H21 H 0.969900 0.235600 -0.054500
H22 H 0.830100 1.030200 0.715400
H23 H 0.518600 0.747700 0.647900
H24 H 0.691900 0.061500 0.265900
H25 H 0.452600 0.720800 0.723600
H26 H 0.911900 0.006500 0.273000
H27 H 0.799600 0.660200 0.989600
H28 H 1.009700 0.008700 0.203000
H29 H 0.998900 0.599200 0.965200
H30 H 0.885700 0.066700 0.126100
H31 H 1.014200 0.612900 0.882000
H32 H 0.839400 0.706600 0.823500
H33 H 0.114300 0.933300 0.873900
H34 H 0.160600 0.293400 0.176500
H35 H -0.009700 0.991300 0.797000
H36 H -0.014200 0.387100 0.118000
H37 H 0.088100 0.993500 0.727000
H38 H 0.001100 0.400800 0.034800
H39 H 0.308100 0.938500 0.734100
H40 H 0.200400 0.339800 0.010400
H41 H 0.030100 0.764400 1.054500
H42 H 0.068400 0.972500 1.064300
H43 H 0.547400 0.279200 0.276400
H44 H 0.053400 0.842800 1.109400
H45 H 0.481400 0.252300 0.352100
H46 H 0.274000 0.884800 1.106200
H47 H 0.235500 0.675700 1.096500
H48 H 0.169900 -0.030200 0.284600
H49 H 0.601500 0.712400 1.007000
H50 H 0.244000 0.004400 0.210600
H51 H 0.238000 0.867100 0.945600
H52 H 0.160600 0.206600 0.676500
H53 H 0.547400 0.220800 0.776400
H54 H -0.014200 0.112900 0.618000
H55 H 0.001100 0.099200 0.534800
H56 H 0.200400 0.160200 0.510400
H57 H 0.756000 0.504400 0.289400
H58 H 0.830100 0.469800 0.215400
H59 H 0.518600 0.752300 0.147900
H60 H 0.238000 0.632900 0.445600
H61 H 0.452600 0.779200 0.223600
H62 H 0.799600 0.839800 0.489600
H63 H 0.601500 0.787600 0.507000
H64 H 0.911900 0.493500 0.773000
H65 H 0.998900 0.900800 0.465200
H66 H 1.014200 0.887100 0.382000
H67 H 0.235500 0.824300 0.596500
H68 H 0.274000 0.615200 0.606200
H69 H 0.839400 0.793400 0.323500
H70 H 0.053400 0.657200 0.609400
H71 H 0.068400 0.527500 0.564300
H72 H 0.030100 0.735600 0.554500
H73 H 0.114300 0.566700 0.373900
H74 H -0.009700 0.508700 0.297000
H75 H 0.308100 0.561500 0.234100
H76 H 0.088100 0.506500 0.227000
C77 C 0.138000 0.531600 0.258340
C78 C 0.079800 0.532900 0.299870
C79 C 0.269600 0.567000 0.262660
C80 C 0.152800 0.569600 0.345250
C81 C 0.346700 0.610400 0.307840
C82 C 0.282600 0.610900 0.349240
C83 C 0.711000 0.760900 0.369770
C84 C 0.829700 0.802400 0.356940
C85 C 0.081100 0.650800 0.577340
C86 C 0.935200 0.857200 0.392160
C87 C 0.221300 0.700100 0.583210
C88 C 0.925900 0.868400 0.441490
C89 C 0.380300 0.722300 0.533620
C90 C 0.575000 0.745100 0.432830
C91 C 0.540200 0.754100 0.478960
C92 C 0.702600 0.781600 0.420400
C93 C 0.530600 0.717100 0.221830
C94 C 0.412900 0.713000 0.483520
C95 C 0.569200 0.702100 0.176620
C96 C 0.323800 0.662700 0.442430
C97 C 0.683600 0.612100 0.174150
C98 C 0.753200 0.535300 0.216520
C99 C 0.361800 0.656400 0.396810
C100 C 0.708100 0.556300 0.260340
C101 C 0.192000 0.168700 0.544070
C102 C 0.729900 0.600300 0.128030
C103 C 0.297400 0.218400 0.579600
C104 C 0.074100 0.131600 0.558510
C105 C 0.469400 0.282900 0.778170
C106 C 0.064800 0.142800 0.607840
C107 C 0.430800 0.297900 0.823380
C108 C 0.170300 0.197600 0.643060
C109 C 0.361800 0.843600 0.896810
C110 C 0.323800 0.837300 0.942430
C111 C 0.270100 0.100300 0.371970
C112 C 0.412900 0.787000 0.983520
C113 C 0.540200 0.745900 0.978960
C114 C 0.291900 0.056300 0.239660
C115 C 0.575000 0.754900 0.932830
C116 C 0.380300 0.777700 1.033620
C117 C 0.221300 0.799900 1.083210
C118 C 0.246800 0.035300 0.283480
C119 C 0.316400 0.112100 0.325850
C120 C 0.081100 0.849200 1.077340
C121 C 0.430800 0.202100 0.323380
C122 C 0.469400 0.217100 0.278170
C123 C 0.297400 0.281600 0.079600
C124 C 0.346700 0.889600 0.807840
C125 C 0.269600 0.933000 0.762660
C126 C 0.192000 0.331300 0.044070
C127 C 0.138000 0.968400 0.758340
C128 C 0.074100 0.368400 0.058510
C129 C 0.079800 0.967100 0.799870
C130 C 0.064800 0.357200 0.107840
C131 C 0.152800 0.930400 0.845250
C132 C 0.170300 0.302400 0.143060
C133 C 0.282600 0.889100 0.849240
C134 C 0.711000 0.739100 0.869770
C135 C 0.829700 0.697600 0.856940
C136 C 0.289000 0.260900 0.130230
C137 C 0.935200 0.642800 0.892160
C138 C 0.717400 0.110900 0.150760
C139 C 0.925900 0.631600 0.941490
C140 C 0.847200 0.069600 0.154750
C141 C 0.808000 0.668700 0.955930
C142 C 0.920200 0.032900 0.200130
C143 C 0.702600 0.718400 0.920400
C144 C 0.530600 0.782900 0.721830
C145 C 0.862000 0.031600 0.241660
C146 C 0.569200 0.797900 0.676620
C147 C 0.730400 0.067000 0.237340
C148 C 0.683600 0.887900 0.674150
C149 C 0.753200 0.964700 0.716520
C150 C 0.653300 0.110400 0.192160
C151 C 0.708100 0.943700 0.760340
C152 C 0.918900 0.150800 -0.077340
C153 C 0.729900 0.899700 0.628030
C154 C 0.289000 0.239100 0.630230
C155 C 0.717400 0.389100 0.650760
C156 C 0.778700 0.200100 -0.083210
C157 C 0.847200 0.430400 0.654750
C158 C 0.619700 0.222300 -0.033620
C159 C 0.920200 0.467100 0.700130
C160 C 0.638200 0.343600 0.603190
C161 C 0.676200 0.337300 0.557570
C162 C 0.425000 0.245100 0.067170
C163 C 0.587100 0.287000 0.516480
C164 C 0.459800 0.245900 0.521040
C165 C 0.459800 0.254100 0.021040
C166 C 0.425000 0.254900 0.567170
C167 C 0.619700 0.277700 0.466380
C168 C 0.778700 0.299900 0.416790
C169 C 0.587100 0.213000 0.016480
C170 C 0.676200 0.162700 0.057570
C171 C 0.918900 0.349200 0.422660
C172 C 0.638200 0.156400 0.103190
C173 C 0.316400 0.387900 0.825850
C174 C 0.246800 0.464700 0.783480
C175 C 0.653300 0.389600 0.692160
C176 C 0.730400 0.433000 0.737340
C177 C 0.291900 0.443700 0.739660
C178 C 0.862000 0.468400 0.741660
C179 C 0.808000 0.831300 0.455930
C180 C 0.270100 0.399700 0.871970
N181 N 0.484800 0.698700 0.393000
N182 N 0.232100 0.407000 0.908080
N183 N 0.401200 0.352400 0.736430
N184 N 0.515200 0.301300 0.607000
N185 N 0.515200 0.198700 0.107000
N186 N 0.598800 0.647600 0.263570
N187 N 0.767900 0.593000 0.091920
N188 N 0.767900 0.907000 0.591920
N189 N 0.598800 0.852400 0.763570
N190 N 0.484800 0.801300 0.893000
N191 N 0.401200 0.147600 0.236430
N192 N 0.232100 0.093000 0.408080
O193 O 0.457900 0.738000 1.069340
O194 O 0.256900 0.811300 1.034610
O195 O 0.542100 0.238000 0.430660
O196 O 0.457900 0.762000 0.569340
O197 O 0.256900 0.688700 0.534610
O198 O 0.743100 0.188700 -0.034610
O199 O 0.542100 0.262000 -0.069340
O200 O 0.743100 0.311300 0.465390
Pt201 Pt 0.461047 0.321248 0.671214
Pt202 Pt 0.538953 0.821248 0.828786
Pt203 Pt 0.538953 0.678752 0.328786
Pt204 Pt 0.461047 0.178752 0.171214

#END
