
#######################################################################
#
#                 Cambridge Crystallographic Data Centre
#                                CCDC 
#
#######################################################################
#
# If this CIF has been generated from an entry in the Cambridge 
# Structural Database, then it will include bibliographic, chemical, 
# crystal, experimental, refinement or atomic coordinate data resulting 
# from the CCDC's data processing and validation procedures.
#
#######################################################################

data_MAQLIC
_symmetry_cell_setting           monoclinic
_symmetry_space_group_name_H-M   'P 21/c'
_symmetry_Int_Tables_number      14
_space_group_name_Hall           '-P 2ybc'
loop_
_symmetry_equiv_pos_site_id
_symmetry_equiv_pos_as_xyz
1 x,y,z
2 -x,1/2+y,1/2-z
3 -x,-y,-z
4 x,1/2-y,1/2+z
_cell_length_a                   12.9173(9)
_cell_length_b                   6.4796(4)
_cell_length_c                   18.1020(13)
_cell_angle_alpha                90
_cell_angle_beta                 90.800(4)
_cell_angle_gamma                90
_cell_volume                     1514.97
loop_
_atom_site_label
_atom_site_type_symbol
_atom_site_fract_x
_atom_site_fract_y
_atom_site_fract_z
O1 O 0.26098(13) 0.1868(3) 0.66083(10)
O2 O 0.41579(19) 0.5118(4) 0.73572(15)
N1 N 0.36461(17) 0.2556(3) 0.81908(13)
C1 C 0.1753(3) -0.2805(5) 0.51506(18)
H1 H 0.1559 -0.3825 0.4815
C2 C 0.2427(2) -0.3247(5) 0.57318(18)
H2 H 0.2683 -0.4581 0.5788
C3 C 0.2722(2) -0.1739(4) 0.62281(15)
H3 H 0.3169 -0.2061 0.6618
C4 C 0.23551(19) 0.0249(4) 0.61470(14)
C5 C 0.34291(19) 0.1536(4) 0.71202(15)
H4 H 0.4006 0.0809 0.689
C6 C 0.3194(2) 0.0630(4) 0.78961(15)
H5 H 0.3629 -0.0571 0.8011
C7 C 0.2077(2) 0.0252(4) 0.80803(14)
C8 C 0.1676(2) -0.1720(4) 0.80364(16)
H6 H 0.2103 -0.2811 0.7903
C9 C 0.0641(3) -0.2094(5) 0.81889(17)
H7 H 0.0375 -0.3423 0.8147
C10 C 0.0009(2) -0.0500(6) 0.84015(19)
H8 H -0.0682 -0.0752 0.8508
C11 C 0.3802(2) 0.3452(4) 0.75297(17)
C12 C 0.1431(2) 0.1838(4) 0.82941(18)
H9 H 0.169 0.3174 0.833
C13 C 0.0401(2) 0.1461(5) 0.8456(2)
H10 H -0.0025 0.2541 0.8601
C14 C 0.3971(5) 0.3069(6) 0.8942(3)
H11 H 0.471 0.3043 0.8827
C15 C 0.3971(3) 0.5238(6) 0.9118(2)
H12 H 0.4243 0.5436 0.9609
H13 H 0.3276 0.5759 0.9088
H14 H 0.4396 0.5964 0.8773
C16 C 0.4048(6) 0.1519(7) 0.9441(3)
H15 H 0.3369 0.1004 0.9547
H16 H 0.4368 0.2026 0.9887
H17 H 0.4461 0.0426 0.9241
C17 C 0.1669(2) 0.0709(4) 0.55657(15)
H18 H 0.1412 0.2041 0.5508
C18 C 0.1378(2) -0.0823(5) 0.50802(17)
H19 H 0.0917 -0.0515 0.4696
O1 O 0.73902(13) 0.6868(3) 0.83917(10)
O2 O 0.58421(19) 1.0118(4) 0.76428(15)
N1 N 0.63539(17) 0.7556(3) 0.68092(13)
C1 C 0.8247(3) 0.2195(5) 0.98494(18)
H1 H 0.8441 0.1175 1.0185
C2 C 0.7573(2) 0.1753(5) 0.92682(18)
H2 H 0.7317 0.0419 0.9212
C3 C 0.7278(2) 0.3261(4) 0.87719(15)
H3 H 0.6831 0.2939 0.8382
C4 C 0.76449(19) 0.5249(4) 0.88530(14)
C5 C 0.65709(19) 0.6536(4) 0.78798(15)
H4 H 0.5994 0.5809 0.811
C6 C 0.6806(2) 0.5630(4) 0.71039(15)
H5 H 0.6371 0.4429 0.6989
C7 C 0.7923(2) 0.5252(4) 0.69197(14)
C8 C 0.8324(2) 0.3280(4) 0.69636(16)
H6 H 0.7897 0.2189 0.7097
C9 C 0.9359(3) 0.2906(5) 0.68111(17)
H7 H 0.9625 0.1577 0.6853
C10 C 0.9991(2) 0.4500(6) 0.65985(19)
H8 H 1.0682 0.4248 0.6492
C11 C 0.6198(2) 0.8452(4) 0.74703(17)
C12 C 0.8569(2) 0.6838(4) 0.67059(18)
H9 H 0.831 0.8174 0.667
C13 C 0.9599(2) 0.6461(5) 0.6544(2)
H10 H 1.0025 0.7541 0.6399
C14 C 0.6029(5) 0.8069(6) 0.6058(3)
H11 H 0.529 0.8043 0.6173
C15 C 0.6029(3) 1.0238(6) 0.5882(2)
H12 H 0.5757 1.0436 0.5391
H13 H 0.6724 1.0759 0.5912
H14 H 0.5604 1.0964 0.6227
C16 C 0.5952(6) 0.6519(7) 0.5559(3)
H15 H 0.6631 0.6004 0.5453
H16 H 0.5632 0.7026 0.5113
H17 H 0.5539 0.5426 0.5759
C17 C 0.8331(2) 0.5709(4) 0.94343(15)
H18 H 0.8588 0.7041 0.9492
C18 C 0.8622(2) 0.4177(5) 0.99198(17)
H19 H 0.9083 0.4485 1.0304
O1 O 0.73902(13) 0.8132(3) 0.33917(10)
O2 O 0.58421(19) 0.4882(4) 0.26428(15)
N1 N 0.63539(17) 0.7444(3) 0.18092(13)
C1 C 0.8247(3) 1.2805(5) 0.48494(18)
H1 H 0.8441 1.3825 0.5185
C2 C 0.7573(2) 1.3247(5) 0.42682(18)
H2 H 0.7317 1.4581 0.4212
C3 C 0.7278(2) 1.1739(4) 0.37719(15)
H3 H 0.6831 1.2061 0.3382
C4 C 0.76449(19) 0.9751(4) 0.38530(14)
C5 C 0.65709(19) 0.8464(4) 0.28798(15)
H4 H 0.5994 0.9191 0.311
C6 C 0.6806(2) 0.9370(4) 0.21039(15)
H5 H 0.6371 1.0571 0.1989
C7 C 0.7923(2) 0.9748(4) 0.19197(14)
C8 C 0.8324(2) 1.1720(4) 0.19636(16)
H6 H 0.7897 1.2811 0.2097
C9 C 0.9359(3) 1.2094(5) 0.18111(17)
H7 H 0.9625 1.3423 0.1853
C10 C 0.9991(2) 1.0500(6) 0.15985(19)
H8 H 1.0682 1.0752 0.1492
C11 C 0.6198(2) 0.6548(4) 0.24703(17)
C12 C 0.8569(2) 0.8162(4) 0.17059(18)
H9 H 0.831 0.6826 0.167
C13 C 0.9599(2) 0.8539(5) 0.1544(2)
H10 H 1.0025 0.7459 0.1399
C14 C 0.6029(5) 0.6931(6) 0.1058(3)
H11 H 0.529 0.6957 0.1173
C15 C 0.6029(3) 0.4762(6) 0.0882(2)
H12 H 0.5757 0.4564 0.0391
H13 H 0.6724 0.4241 0.0912
H14 H 0.5604 0.4036 0.1227
C16 C 0.5952(6) 0.8481(7) 0.0559(3)
H15 H 0.6631 0.8996 0.0453
H16 H 0.5632 0.7974 0.0113
H17 H 0.5539 0.9574 0.0759
C17 C 0.8331(2) 0.9291(4) 0.44343(15)
H18 H 0.8588 0.7959 0.4492
C18 C 0.8622(2) 1.0823(5) 0.49198(17)
H19 H 0.9083 1.0515 0.5304
O1 O 0.26098(13) 0.3132(3) 0.16083(10)
O2 O 0.41579(19) -0.0118(4) 0.23572(15)
N1 N 0.36461(17) 0.2444(3) 0.31908(13)
C1 C 0.1753(3) 0.7805(5) 0.01506(18)
H1 H 0.1559 0.8825 -0.0185
C2 C 0.2427(2) 0.8247(5) 0.07318(18)
H2 H 0.2683 0.9581 0.0788
C3 C 0.2722(2) 0.6739(4) 0.12281(15)
H3 H 0.3169 0.7061 0.1618
C4 C 0.23551(19) 0.4751(4) 0.11470(14)
C5 C 0.34291(19) 0.3464(4) 0.21202(15)
H4 H 0.4006 0.4191 0.189
C6 C 0.3194(2) 0.4370(4) 0.28961(15)
H5 H 0.3629 0.5571 0.3011
C7 C 0.2077(2) 0.4748(4) 0.30803(14)
C8 C 0.1676(2) 0.6720(4) 0.30364(16)
H6 H 0.2103 0.7811 0.2903
C9 C 0.0641(3) 0.7094(5) 0.31889(17)
H7 H 0.0375 0.8423 0.3147
C10 C 0.0009(2) 0.5500(6) 0.34015(19)
H8 H -0.0682 0.5752 0.3508
C11 C 0.3802(2) 0.1548(4) 0.25297(17)
C12 C 0.1431(2) 0.3162(4) 0.32941(18)
H9 H 0.169 0.1826 0.333
C13 C 0.0401(2) 0.3539(5) 0.3456(2)
H10 H -0.0025 0.2459 0.3601
C14 C 0.3971(5) 0.1931(6) 0.3942(3)
H11 H 0.471 0.1957 0.3827
C15 C 0.3971(3) -0.0238(6) 0.4118(2)
H12 H 0.4243 -0.0436 0.4609
H13 H 0.3276 -0.0759 0.4088
H14 H 0.4396 -0.0964 0.3773
C16 C 0.4048(6) 0.3481(7) 0.4441(3)
H15 H 0.3369 0.3996 0.4547
H16 H 0.4368 0.2974 0.4887
H17 H 0.4461 0.4574 0.4241
C17 C 0.1669(2) 0.4291(4) 0.05657(15)
H18 H 0.1412 0.2959 0.0508
C18 C 0.1378(2) 0.5823(5) 0.00802(17)
H19 H 0.0917 0.5515 -0.0304

#END
