
#######################################################################
#
#                 Cambridge Crystallographic Data Centre
#                                CCDC 
#
#######################################################################
#
# If this CIF has been generated from an entry in the Cambridge 
# Structural Database, then it will include bibliographic, chemical, 
# crystal, experimental, refinement or atomic coordinate data resulting 
# from the CCDC's data processing and validation procedures.
#
#######################################################################

data_MAQVIJ
_symmetry_cell_setting           triclinic
_symmetry_space_group_name_H-M   'P -1'
_symmetry_Int_Tables_number      2
_space_group_name_Hall           '-P 1'
loop_
_symmetry_equiv_pos_site_id
_symmetry_equiv_pos_as_xyz
1 x,y,z
2 -x,-y,-z
_cell_length_a                   8.2120(10)
_cell_length_b                   8.7810(10)
_cell_length_c                   17.1530(10)
_cell_angle_alpha                76.400(10)
_cell_angle_beta                 82.760(10)
_cell_angle_gamma                82.980(10)
_cell_volume                     1187.12
loop_
_atom_site_label
_atom_site_type_symbol
_atom_site_fract_x
_atom_site_fract_y
_atom_site_fract_z
C1 C 0.5981(2) 0.5023(2) 0.75414(12)
C2 C 0.7438(2) 0.4106(2) 0.77391(12)
H1 H 0.7820 0.3311 0.7467
C3 C 0.8345(2) 0.4332(2) 0.83287(12)
C4 C 0.7715(2) 0.5533(2) 0.87259(12)
C5 C 0.6245(2) 0.6493(2) 0.85544(11)
C6 C 0.5418(2) 0.6201(2) 0.79523(12)
H2 H 0.4447 0.6821 0.7820
C7 C 0.9955(2) 0.3273(2) 0.85367(13)
C8 C 0.9729(3) 0.2304(3) 0.94056(15)
H3 H 0.8807 0.1697 0.9468
H4 H 0.9531 0.3000 0.9771
H5 H 1.0709 0.1610 0.9522
C9 C 1.0381(3) 0.2101(3) 0.79888(17)
H6 H 0.9487 0.1460 0.8046
H7 H 1.1365 0.1441 0.8139
H8 H 1.0559 0.2666 0.7438
C10 C 1.1429(3) 0.4250(3) 0.84171(17)
H9 H 1.1544 0.4854 0.7872
H10 H 1.2415 0.3560 0.8524
H11 H 1.1249 0.4948 0.8781
O1 O 0.8590(2) 0.5779(2) 0.93159(10)
H12 H 0.851(3) 0.6705(16) 0.9369(17)
C11 C 0.5584(3) 0.7829(2) 0.89916(13)
C12 C 0.6797(4) 0.9111(3) 0.87791(19)
H13 H 0.6945 0.9490 0.8205
H14 H 0.7839 0.8674 0.8972
H15 H 0.6360 0.9966 0.9028
C13 C 0.3916(3) 0.8628(3) 0.87219(15)
H16 H 0.3124 0.7865 0.8842
H17 H 0.4036 0.9066 0.8152
H18 H 0.3544 0.9452 0.9003
C14 C 0.5315(4) 0.7211(3) 0.99075(14)
H19 H 0.4552 0.6422 1.0030
H20 H 0.4877 0.8064 1.0158
H21 H 0.6347 0.6761 1.0108
C15 C 0.5049(2) 0.4749(2) 0.69029(11)
C16 C 0.4911(2) 0.3240(2) 0.68169(12)
H22 H 0.5417 0.2385 0.7163
C17 C 0.4036(2) 0.2970(2) 0.62265(12)
C18 C 0.3264(2) 0.4240(2) 0.57097(12)
H23 H 0.2671 0.4071 0.5315
C19 C 0.3383(2) 0.5755(2) 0.57858(11)
C20 C 0.4285(2) 0.6007(2) 0.63745(12)
H24 H 0.4376 0.7031 0.6414
C21 C 0.3941(3) 0.1327(2) 0.61637(13)
O2 O 0.3273(3) 0.12520(19) 0.55140(11)
H25 H 0.318(4) 0.019(4) 0.5508(17)
O3 O 0.4423(2) 0.01762(18) 0.66435(10)
C22 C 0.2608(3) 0.7148(2) 0.52369(12)
O4 O 0.1852(2) 0.68075(18) 0.46775(10)
H26 H 0.152(3) 0.774(3) 0.4325(17)
O5 O 0.2630(2) 0.84818(17) 0.52981(10)
C1 C 0.4019(2) 0.4977(2) 0.24586(12)
C2 C 0.2562(2) 0.5894(2) 0.22609(12)
H1 H 0.2180 0.6689 0.2533
C3 C 0.1655(2) 0.5668(2) 0.16713(12)
C4 C 0.2285(2) 0.4467(2) 0.12741(12)
C5 C 0.3755(2) 0.3507(2) 0.14456(11)
C6 C 0.4582(2) 0.3799(2) 0.20477(12)
H2 H 0.5553 0.3179 0.2180
C7 C 0.0045(2) 0.6727(2) 0.14633(13)
C8 C 0.0271(3) 0.7696(3) 0.05944(15)
H3 H 0.1193 0.8303 0.0532
H4 H 0.0469 0.7000 0.0229
H5 H -0.0709 0.8390 0.0478
C9 C -0.0381(3) 0.7899(3) 0.20112(17)
H6 H 0.0513 0.8540 0.1954
H7 H -0.1365 0.8559 0.1861
H8 H -0.0559 0.7334 0.2562
C10 C -0.1429(3) 0.5750(3) 0.15829(17)
H9 H -0.1544 0.5146 0.2128
H10 H -0.2415 0.6440 0.1476
H11 H -0.1249 0.5052 0.1219
O1 O 0.1410(2) 0.4221(2) 0.06841(10)
H12 H 0.149(3) 0.3295(16) 0.0631(17)
C11 C 0.4416(3) 0.2171(2) 0.10084(13)
C12 C 0.3203(4) 0.0889(3) 0.12209(19)
H13 H 0.3055 0.0510 0.1795
H14 H 0.2161 0.1326 0.1028
H15 H 0.3640 0.0034 0.0972
C13 C 0.6084(3) 0.1372(3) 0.12781(15)
H16 H 0.6876 0.2135 0.1158
H17 H 0.5964 0.0934 0.1848
H18 H 0.6456 0.0548 0.0997
C14 C 0.4685(4) 0.2789(3) 0.00925(14)
H19 H 0.5448 0.3578 -0.0030
H20 H 0.5123 0.1936 -0.0158
H21 H 0.3653 0.3239 -0.0108
C15 C 0.4951(2) 0.5251(2) 0.30971(11)
C16 C 0.5089(2) 0.6760(2) 0.31831(12)
H22 H 0.4583 0.7615 0.2837
C17 C 0.5964(2) 0.7030(2) 0.37735(12)
C18 C 0.6736(2) 0.5760(2) 0.42903(12)
H23 H 0.7329 0.5929 0.4685
C19 C 0.6617(2) 0.4245(2) 0.42142(11)
C20 C 0.5715(2) 0.3993(2) 0.36255(12)
H24 H 0.5624 0.2969 0.3586
C21 C 0.6059(3) 0.8673(2) 0.38363(13)
O2 O 0.6727(3) 0.87480(19) 0.44860(11)
H25 H 0.682(4) 0.981(4) 0.4492(17)
O3 O 0.5577(2) 0.98238(18) 0.33565(10)
C22 C 0.7392(3) 0.2852(2) 0.47631(12)
O4 O 0.8148(2) 0.31925(18) 0.53225(10)
H26 H 0.848(3) 0.226(3) 0.5675(17)
O5 O 0.7370(2) 0.15182(17) 0.47019(10)
O6 O 0.9367(3) 1.0762(2) 0.64101(12)
C23 C 0.8404(4) 0.8442(4) 0.6258(2)
H27 H 0.7743 0.9157 0.5881
H28 H 0.7698 0.7855 0.6683
H29 H 0.9106 0.7729 0.5986
C24 C 0.9422(3) 0.9334(3) 0.66015(14)
C25 C 1.0536(4) 0.8448(3) 0.72064(16)
H30 H 1.1128 0.9172 0.7376
H31 H 1.1304 0.7726 0.6971
H32 H 0.9896 0.7874 0.7664
O6 O 0.0633(3) -0.0762(2) 0.35899(12)
C23 C 0.1596(4) 0.1558(4) 0.3742(2)
H27 H 0.2257 0.0843 0.4119
H28 H 0.2302 0.2145 0.3317
H29 H 0.0894 0.2271 0.4014
C24 C 0.0578(3) 0.0666(3) 0.33985(14)
C25 C -0.0536(4) 0.1552(3) 0.27936(16)
H30 H -0.1128 0.0828 0.2624
H31 H -0.1304 0.2274 0.3029
H32 H 0.0104 0.2126 0.2336

#END
