
#######################################################################
#
#                 Cambridge Crystallographic Data Centre
#                                CCDC 
#
#######################################################################
#
# If this CIF has been generated from an entry in the Cambridge 
# Structural Database, then it will include bibliographic, chemical, 
# crystal, experimental, refinement or atomic coordinate data resulting 
# from the CCDC's data processing and validation procedures.
#
#######################################################################

data_MARBIR
_symmetry_cell_setting           triclinic
_symmetry_space_group_name_H-M   'P -1'
_symmetry_Int_Tables_number      2
_space_group_name_Hall           '-P 1'
loop_
_symmetry_equiv_pos_site_id
_symmetry_equiv_pos_as_xyz
1 x,y,z
2 -x,-y,-z
_cell_length_a                   5.4942(2)
_cell_length_b                   6.4545(3)
_cell_length_c                   13.5225(8)
_cell_angle_alpha                96.5497(19)
_cell_angle_beta                 91.079(2)
_cell_angle_gamma                114.750(2)
_cell_volume                     431.468
loop_
_atom_site_label
_atom_site_type_symbol
_atom_site_fract_x
_atom_site_fract_y
_atom_site_fract_z
C1 C 0.2049(2) 0.14028(18) 0.35208(8)
C2 C 0.4723(2) 0.24754(19) 0.31157(8)
C3 C 0.6090(2) 0.44978(18) 0.36708(8)
C4 C 0.4415(2) 0.49303(18) 0.44614(8)
O1 O 0.01894(17) -0.04287(14) 0.32454(6)
O2 O 0.19017(15) 0.28622(13) 0.43083(6)
C5 C 0.5467(2) 0.12795(19) 0.22399(9)
C6 C 0.7932(3) 0.2818(2) 0.17396(9)
C7 C 0.8756(3) 0.1342(3) 0.09812(10)
C8 C 0.7439(4) 0.4632(3) 0.12458(11)
C9 C 0.3848(3) 0.6996(2) 0.43116(9)
H1 H 0.7977 0.5583 0.3575
H2 H 0.5835 0.0015 0.2473
H3 H 0.3902 0.0605 0.1730
H4 H 0.9427 0.3660 0.2270
H5 H 1.0368 0.2355 0.0656
H6 H 0.9201 0.0242 0.1327
H7 H 0.7240 0.0460 0.0462
H8 H 0.9094 0.5598 0.0929
H9 H 0.6992 0.5634 0.1761
H10 H 0.5909 0.3856 0.0724
H11 H 0.2731 0.7235 0.4849
H12 H 0.5584 0.8400 0.4341
H13 H 0.2856 0.6706 0.3646
C1A C 0.7951(2) 0.85972(18) 0.64792(8)
C2A C 0.5277(2) 0.75246(19) 0.68843(8)
C3A C 0.3910(2) 0.55022(18) 0.63292(8)
C4A C 0.5585(2) 0.50697(18) 0.55386(8)
O1A O 0.98106(17) 1.04287(14) 0.67546(6)
O2A O 0.80983(15) 0.71378(13) 0.56917(6)
C5A C 0.4533(2) 0.87205(19) 0.77601(9)
C6A C 0.2068(3) 0.7182(2) 0.82604(9)
C7A C 0.1244(3) 0.8658(3) 0.90188(10)
C8A C 0.2561(4) 0.5368(3) 0.87542(11)
C9A C 0.6152(3) 0.3004(2) 0.56884(9)
H1A H 0.2023 0.4417 0.6425
H2A H 0.4165 0.9985 0.7527
H3A H 0.6098 0.9395 0.8270
H4A H 0.0573 0.6340 0.7730
H5A H -0.0368 0.7645 0.9344
H6A H 0.0799 0.9758 0.8673
H7A H 0.2760 0.9540 0.9538
H8A H 0.0906 0.4402 0.9071
H9A H 0.3008 0.4366 0.8239
H10A H 0.4091 0.6144 0.9276
H11A H 0.7269 0.2765 0.5151
H12A H 0.4416 0.1600 0.5659
H13A H 0.7144 0.3294 0.6354

#END
