
#######################################################################
#
#                 Cambridge Crystallographic Data Centre
#                                CCDC 
#
#######################################################################
#
# If this CIF has been generated from an entry in the Cambridge 
# Structural Database, then it will include bibliographic, chemical, 
# crystal, experimental, refinement or atomic coordinate data resulting 
# from the CCDC's data processing and validation procedures.
#
#######################################################################

data_LADBUP
_symmetry_cell_setting           monoclinic
_symmetry_space_group_name_H-M   'P 21/c'
_symmetry_Int_Tables_number      14
_space_group_name_Hall           '-P 2ybc'
loop_
_symmetry_equiv_pos_site_id
_symmetry_equiv_pos_as_xyz
1 x,y,z
2 -x,1/2+y,1/2-z
3 -x,-y,-z
4 x,1/2-y,1/2+z
_cell_length_a                   7.9727(5)
_cell_length_b                   6.2956(4)
_cell_length_c                   24.6286(15)
_cell_angle_alpha                90
_cell_angle_beta                 90.580(4)
_cell_angle_gamma                90
_cell_volume                     1236.12
loop_
_atom_site_label
_atom_site_type_symbol
_atom_site_fract_x
_atom_site_fract_y
_atom_site_fract_z
Br1 Br 0.70193(3) 0.34661(4) 0.032679(9)
N1 N 0.4561(3) 0.1451(3) 0.16862(8)
H1 H 0.405(4) 0.232(6) 0.1995(13)
C1 C 0.4159(3) -0.0605(3) 0.16000(9)
N2 N 0.3309(3) -0.1613(3) 0.19894(9)
H2 H 0.322(5) -0.112(6) 0.2304(15)
H3 H 0.311(5) -0.308(6) 0.1982(15)
C2 C 0.4628(3) -0.1544(4) 0.11027(10)
H4 H 0.4342 -0.2981 0.1028
C3 C 0.5499(3) -0.0377(4) 0.07273(9)
H5 H 0.5824 -0.1004 0.0394
C4 C 0.5907(3) 0.1758(4) 0.08414(10)
C5 C 0.5434(3) 0.2626(4) 0.13217(9)
H6 H 0.5714 0.4059 0.1403
Br1 Br 0.29807(3) 0.84661(4) 0.467321(9)
N1 N 0.5439(3) 0.6451(3) 0.33138(8)
H1 H 0.595(4) 0.732(6) 0.3005(13)
C1 C 0.5841(3) 0.4395(3) 0.34000(9)
N2 N 0.6691(3) 0.3387(3) 0.30106(9)
H2 H 0.678(5) 0.388(6) 0.2696(15)
H3 H 0.689(5) 0.192(6) 0.3018(15)
C2 C 0.5372(3) 0.3456(4) 0.38973(10)
H4 H 0.5658 0.2019 0.3972
C3 C 0.4501(3) 0.4623(4) 0.42727(9)
H5 H 0.4176 0.3996 0.4606
C4 C 0.4093(3) 0.6758(4) 0.41586(10)
C5 C 0.4566(3) 0.7626(4) 0.36783(9)
H6 H 0.4286 0.9059 0.3597
Br1 Br 0.29807(3) 0.65339(4) 0.967321(9)
N1 N 0.5439(3) 0.8549(3) 0.83138(8)
H1 H 0.595(4) 0.768(6) 0.8005(13)
C1 C 0.5841(3) 1.0605(3) 0.84000(9)
N2 N 0.6691(3) 1.1613(3) 0.80106(9)
H2 H 0.678(5) 1.112(6) 0.7696(15)
H3 H 0.689(5) 1.308(6) 0.8018(15)
C2 C 0.5372(3) 1.1544(4) 0.88973(10)
H4 H 0.5658 1.2981 0.8972
C3 C 0.4501(3) 1.0377(4) 0.92727(9)
H5 H 0.4176 1.1004 0.9606
C4 C 0.4093(3) 0.8242(4) 0.91586(10)
C5 C 0.4566(3) 0.7374(4) 0.86783(9)
H6 H 0.4286 0.5941 0.8597
Br1 Br 0.70193(3) 0.15339(4) 0.532679(9)
N1 N 0.4561(3) 0.3549(3) 0.66862(8)
H1 H 0.405(4) 0.268(6) 0.6995(13)
C1 C 0.4159(3) 0.5605(3) 0.66000(9)
N2 N 0.3309(3) 0.6613(3) 0.69894(9)
H2 H 0.322(5) 0.612(6) 0.7304(15)
H3 H 0.311(5) 0.808(6) 0.6982(15)
C2 C 0.4628(3) 0.6544(4) 0.61027(10)
H4 H 0.4342 0.7981 0.6028
C3 C 0.5499(3) 0.5377(4) 0.57273(9)
H5 H 0.5824 0.6004 0.5394
C4 C 0.5907(3) 0.3242(4) 0.58414(10)
C5 C 0.5434(3) 0.2374(4) 0.63217(9)
H6 H 0.5714 0.0941 0.6403
C6 C 0.1349(3) 0.4069(4) 0.31893(9)
C7 C 0.2445(3) 0.2827(4) 0.28042(9)
O1 O 0.3002(3) 0.3808(3) 0.23944(7)
O2 O 0.2740(3) 0.0924(3) 0.29178(7)
C8 C 0.0883(3) 0.3177(4) 0.36841(10)
H7 H 0.1213 0.1765 0.3770
C9 C -0.0057(3) 0.4332(4) 0.40522(9)
H8 H -0.0376 0.3732 0.4390
C10 C -0.0519(3) 0.6394(4) 0.39128(10)
N3 N -0.1462(3) 0.7663(4) 0.43060(9)
O3 O -0.1772(3) 0.6881(4) 0.47494(9)
O4 O -0.1891(3) 0.9476(3) 0.41723(9)
C11 C -0.0098(3) 0.7316(4) 0.34213(10)
H9 H -0.0439 0.8724 0.3336
C12 C 0.0834(3) 0.6127(4) 0.30578(10)
H10 H 0.1124 0.6719 0.2717
C6 C 0.8651(3) -0.0931(4) 0.18107(9)
C7 C 0.7555(3) -0.2173(4) 0.21958(9)
O1 O 0.6998(3) -0.1192(3) 0.26056(7)
O2 O 0.7260(3) -0.4076(3) 0.20822(7)
C8 C 0.9117(3) -0.1823(4) 0.13159(10)
H7 H 0.8787 -0.3235 0.1230
C9 C 1.0057(3) -0.0668(4) 0.09478(9)
H8 H 1.0376 -0.1268 0.0610
C10 C 1.0519(3) 0.1394(4) 0.10872(10)
N3 N 1.1462(3) 0.2663(4) 0.06940(9)
O3 O 1.1772(3) 0.1881(4) 0.02506(9)
O4 O 1.1891(3) 0.4476(3) 0.08277(9)
C11 C 1.0098(3) 0.2316(4) 0.15787(10)
H9 H 1.0439 0.3724 0.1664
C12 C 0.9166(3) 0.1127(4) 0.19422(10)
H10 H 0.8876 0.1719 0.2283
C6 C 0.8651(3) 0.5931(4) 0.68107(9)
C7 C 0.7555(3) 0.7173(4) 0.71958(9)
O1 O 0.6998(3) 0.6192(3) 0.76056(7)
O2 O 0.7260(3) 0.9076(3) 0.70822(7)
C8 C 0.9117(3) 0.6823(4) 0.63159(10)
H7 H 0.8787 0.8235 0.6230
C9 C 1.0057(3) 0.5668(4) 0.59478(9)
H8 H 1.0376 0.6268 0.5610
C10 C 1.0519(3) 0.3606(4) 0.60872(10)
N3 N 1.1462(3) 0.2337(4) 0.56940(9)
O3 O 1.1772(3) 0.3119(4) 0.52506(9)
O4 O 1.1891(3) 0.0524(3) 0.58277(9)
C11 C 1.0098(3) 0.2684(4) 0.65787(10)
H9 H 1.0439 0.1276 0.6664
C12 C 0.9166(3) 0.3873(4) 0.69422(10)
H10 H 0.8876 0.3281 0.7283
C6 C 0.1349(3) 1.0931(4) 0.81893(9)
C7 C 0.2445(3) 1.2173(4) 0.78042(9)
O1 O 0.3002(3) 1.1192(3) 0.73944(7)
O2 O 0.2740(3) 1.4076(3) 0.79178(7)
C8 C 0.0883(3) 1.1823(4) 0.86841(10)
H7 H 0.1213 1.3235 0.8770
C9 C -0.0057(3) 1.0668(4) 0.90522(9)
H8 H -0.0376 1.1268 0.9390
C10 C -0.0519(3) 0.8606(4) 0.89128(10)
N3 N -0.1462(3) 0.7337(4) 0.93060(9)
O3 O -0.1772(3) 0.8119(4) 0.97494(9)
O4 O -0.1891(3) 0.5524(3) 0.91723(9)
C11 C -0.0098(3) 0.7684(4) 0.84213(10)
H9 H -0.0439 0.6276 0.8336
C12 C 0.0834(3) 0.8873(4) 0.80578(10)
H10 H 0.1124 0.8281 0.7717

#END
