./LADCUQ_from_POSCAR.cif_generated_by_CrystalShift
_symmetry_cell_setting triclinic
_symmetry_space_group_name_H-M 'P 1'
loop_
_symmetry_equiv_pos_site_id
_symmetry_equiv_pos_as_xyz
1 x,y,z
_cell_length_a 5.184900
_cell_length_b 11.466500
_cell_length_c 12.487000
_cell_angle_alpha 71.293000
_cell_angle_beta 81.204000
_cell_angle_gamma 88.593000
_cell_volume 694.658130
loop_
_atom_site_label
_atom_site_type_symbol
_atom_site_fract_x
_atom_site_fract_y
_atom_site_fract_z
H1 H -0.016400 0.286600 0.568400
H2 H 0.743400 0.537500 0.477900
H3 H 1.113000 0.662800 0.553700
H4 H 1.016400 0.713400 0.431600
H5 H -0.145000 0.094100 0.208900
H6 H 0.681200 0.676900 0.644500
H7 H 0.289800 -0.068600 0.074200
H8 H 0.588800 0.730200 0.521900
H9 H 0.209100 -0.275500 0.094400
H10 H 0.968900 0.856300 0.590400
H11 H 0.832800 0.910900 0.478500
H12 H -0.467200 -0.266600 0.298000
H13 H 0.537000 1.040000 0.665000
H14 H 1.176100 0.512100 0.397000
H15 H 1.256600 0.462500 0.522100
H16 H 0.040600 0.269500 0.205900
H17 H -0.003200 0.320300 0.074900
H18 H 0.887000 0.337200 0.446300
H19 H 0.321700 0.439700 0.106000
H20 H 0.446600 0.370800 0.018100
H21 H 0.490900 0.319700 0.149000
H22 H 0.983600 0.286600 0.568400
H23 H 1.318800 0.323100 0.355500
H24 H 1.411200 0.269800 0.478100
H25 H 1.031100 0.143700 0.409600
H26 H 1.145000 0.905900 0.791100
H27 H 1.167200 0.089100 0.521500
H28 H 0.710200 1.068600 0.925800
H29 H 1.463000 -0.040000 0.335000
H30 H 0.790900 1.275500 0.905600
H31 H -0.176100 0.487900 0.603000
H32 H -0.256600 0.537500 0.477900
H33 H 1.467200 1.266600 0.702000
H34 H 0.113000 0.662800 0.553700
H35 H 0.016400 0.713400 0.431600
H36 H -0.318800 0.676900 0.644500
H37 H 0.959400 0.730500 0.794100
H38 H 1.003200 0.679700 0.925100
H39 H -0.411200 0.730200 0.521900
H40 H 0.678300 0.560300 0.894000
H41 H 0.553400 0.629200 0.981900
H42 H 0.509100 0.680300 0.851000
H43 H -0.031100 0.856300 0.590400
H44 H -0.167200 0.910900 0.478500
H45 H 0.463000 -0.040000 0.335000
H46 H -0.463000 1.040000 0.665000
H47 H 0.176100 0.512100 0.397000
H48 H 0.167200 0.089100 0.521500
H49 H 0.031100 0.143700 0.409600
H50 H 0.256600 0.462500 0.522100
H51 H 0.411200 0.269800 0.478100
H52 H 0.318800 0.323100 0.355500
H53 H -0.113000 0.337200 0.446300
H54 H 0.823900 0.487900 0.603000
C55 C 0.037600 0.335110 0.486970
C56 C 0.111700 0.465640 0.478090
C57 C 0.262400 0.272770 0.436270
C58 C 0.195800 0.143060 0.440730
C59 C -0.406600 0.908890 0.625830
C60 C 0.175900 0.152990 0.115430
C61 C 0.888300 0.534360 0.521910
C62 C -0.048200 -0.051620 0.176960
C63 C -0.195800 0.856940 0.559270
C64 C -0.311400 -0.226030 0.252270
C65 C 0.406600 0.091110 0.374170
C66 C -0.262400 0.727230 0.563730
C67 C 0.633000 0.640630 0.902670
C68 C 0.877600 0.721050 0.873570
C69 C -0.037600 0.664890 0.513030
C70 C 0.962400 0.664890 0.513030
C71 C 0.824100 0.847010 0.884570
C72 C -0.111700 0.534360 0.521910
C73 C 1.311400 1.226030 0.747730
C74 C 1.140600 1.290070 0.802110
C75 C 1.406600 0.091110 0.374170
C76 C 0.135500 -0.110910 0.119850
C77 C 0.912700 1.232140 0.868520
C78 C 0.087300 -0.232140 0.131480
C79 C 1.195800 0.143060 0.440730
C80 C 0.864500 1.110910 0.880150
C81 C 0.593400 0.908890 0.625830
C82 C 1.262400 0.272770 0.436270
C83 C 1.048200 1.051620 0.823040
C84 C -0.140600 -0.290070 0.197890
C85 C 1.037600 0.335110 0.486970
C86 C 0.737600 0.727230 0.563730
C87 C 0.367000 0.359370 0.097330
C88 C 1.111700 0.465640 0.478090
C89 C 0.122400 0.278950 0.126430
C90 C 0.804200 0.856940 0.559270
N91 N -0.024800 0.070050 0.170750
N92 N -0.266200 -0.108910 0.243090
N93 N 1.024800 0.929950 0.829250
N94 N 1.266200 1.108910 0.756910
O95 O 0.392800 0.852870 0.676250
O96 O 0.646600 1.020550 0.625820
O97 O 0.374000 0.129330 0.062300
O98 O -0.353400 1.020550 0.625820
O99 O 1.607200 0.147130 0.323750
O100 O 1.353400 -0.020550 0.374180
O101 O 0.626000 0.870670 0.937700
O102 O 0.353400 -0.020550 0.374180
O103 O -0.607200 0.852870 0.676250
O104 O 0.607200 0.147130 0.323750
Br105 Br -0.222860 -0.454445 0.213776
Br106 Br 1.222860 1.454445 0.786224

#END
