
#######################################################################
#
#                 Cambridge Crystallographic Data Centre
#                                CCDC 
#
#######################################################################
#
# If this CIF has been generated from an entry in the Cambridge 
# Structural Database, then it will include bibliographic, chemical, 
# crystal, experimental, refinement or atomic coordinate data resulting 
# from the CCDC's data processing and validation procedures.
#
#######################################################################

data_LADCIE
_symmetry_cell_setting           monoclinic
_symmetry_space_group_name_H-M   'P 21/n'
_symmetry_Int_Tables_number      14
_space_group_name_Hall           '-P 2yn'
loop_
_symmetry_equiv_pos_site_id
_symmetry_equiv_pos_as_xyz
1 x,y,z
2 1/2-x,1/2+y,1/2-z
3 -x,-y,-z
4 1/2+x,1/2-y,1/2+z
_cell_length_a                   4.8333(3)
_cell_length_b                   9.5923(5)
_cell_length_c                   23.7901(12)
_cell_angle_alpha                90
_cell_angle_beta                 90.961(2)
_cell_angle_gamma                90
_cell_volume                     1102.81
loop_
_atom_site_label
_atom_site_type_symbol
_atom_site_fract_x
_atom_site_fract_y
_atom_site_fract_z
Br1 Br 0.77917(4) -0.140736(19) 0.417648(7)
N1 N 0.3156(3) 0.21417(15) 0.40596(6)
C1 C 0.4189(4) 0.09027(18) 0.42056(7)
H1 H 0.3449 0.0433 0.4521
C2 C 0.6284(4) 0.02848(17) 0.39155(7)
C3 C 0.7298(4) 0.09358(19) 0.34437(7)
H2 H 0.8695 0.0504 0.3228
C4 C 0.6262(4) 0.22124(18) 0.32915(7)
H3 H 0.6936 0.2683 0.2970
C5 C 0.4202(3) 0.28084(17) 0.36164(7)
N2 N 0.3058(3) 0.41018(16) 0.35190(6)
H4 H 0.186(4) 0.426(2) 0.3715(8)
C6 C 0.3981(4) 0.51260(18) 0.31657(7)
O1 O 0.5890(3) 0.49682(13) 0.28463(5)
C7 C 0.2365(4) 0.64551(18) 0.32132(8)
H5 H 0.2321 0.6739 0.3613
H6 H 0.0435 0.6285 0.3085
C8 C 0.3565(4) 0.76276(19) 0.28721(8)
H7 H 0.2507 0.8483 0.2937
H8 H 0.3466 0.7386 0.2472
H9 H 0.5501 0.7776 0.2986
Br1 Br -0.27917(4) 0.359264(19) 0.082352(7)
N1 N 0.1844(3) 0.71417(15) 0.09404(6)
C1 C 0.0811(4) 0.59027(18) 0.07944(7)
H1 H 0.1551 0.5433 0.0479
C2 C -0.1284(4) 0.52848(17) 0.10845(7)
C3 C -0.2298(4) 0.59358(19) 0.15563(7)
H2 H -0.3695 0.5504 0.1772
C4 C -0.1262(4) 0.72124(18) 0.17085(7)
H3 H -0.1936 0.7683 0.2030
C5 C 0.0798(3) 0.78084(17) 0.13836(7)
N2 N 0.1942(3) 0.91018(16) 0.14810(6)
H4 H 0.314(4) 0.926(2) 0.1285(8)
C6 C 0.1019(4) 1.01260(18) 0.18343(7)
O1 O -0.0890(3) 0.99682(13) 0.21537(5)
C7 C 0.2635(4) 1.14551(18) 0.17868(8)
H5 H 0.2679 1.1739 0.1387
H6 H 0.4565 1.1285 0.1915
C8 C 0.1435(4) 1.26276(19) 0.21279(8)
H7 H 0.2493 1.3483 0.2063
H8 H 0.1534 1.2386 0.2528
H9 H -0.0501 1.2776 0.2014
Br1 Br 0.22083(4) 1.140736(19) 0.582352(7)
N1 N 0.6844(3) 0.78583(15) 0.59404(6)
C1 C 0.5811(4) 0.90973(18) 0.57944(7)
H1 H 0.6551 0.9567 0.5479
C2 C 0.3716(4) 0.97152(17) 0.60845(7)
C3 C 0.2702(4) 0.90642(19) 0.65563(7)
H2 H 0.1305 0.9496 0.6772
C4 C 0.3738(4) 0.77876(18) 0.67085(7)
H3 H 0.3064 0.7317 0.7030
C5 C 0.5798(3) 0.71916(17) 0.63836(7)
N2 N 0.6942(3) 0.58982(16) 0.64810(6)
H4 H 0.814(4) 0.574(2) 0.6285(8)
C6 C 0.6019(4) 0.48740(18) 0.68343(7)
O1 O 0.4110(3) 0.50318(13) 0.71537(5)
C7 C 0.7635(4) 0.35449(18) 0.67868(8)
H5 H 0.7679 0.3261 0.6387
H6 H 0.9565 0.3715 0.6915
C8 C 0.6435(4) 0.23724(19) 0.71279(8)
H7 H 0.7493 0.1517 0.7063
H8 H 0.6534 0.2614 0.7528
H9 H 0.4499 0.2224 0.7014
Br1 Br 1.27917(4) 0.640736(19) 0.917648(7)
N1 N 0.8156(3) 0.28583(15) 0.90596(6)
C1 C 0.9189(4) 0.40973(18) 0.92056(7)
H1 H 0.8449 0.4567 0.9521
C2 C 1.1284(4) 0.47152(17) 0.89155(7)
C3 C 1.2298(4) 0.40642(19) 0.84437(7)
H2 H 1.3695 0.4496 0.8228
C4 C 1.1262(4) 0.27876(18) 0.82915(7)
H3 H 1.1936 0.2317 0.7970
C5 C 0.9202(3) 0.21916(17) 0.86164(7)
N2 N 0.8058(3) 0.08982(16) 0.85190(6)
H4 H 0.686(4) 0.074(2) 0.8715(8)
C6 C 0.8981(4) -0.01260(18) 0.81657(7)
O1 O 1.0890(3) 0.00318(13) 0.78463(5)
C7 C 0.7365(4) -0.14551(18) 0.82132(8)
H5 H 0.7321 -0.1739 0.8613
H6 H 0.5435 -0.1285 0.8085
C8 C 0.8565(4) -0.26276(19) 0.78721(8)
H7 H 0.7507 -0.3483 0.7937
H8 H 0.8466 -0.2386 0.7472
H9 H 1.0501 -0.2776 0.7986
C9 C 0.7986(3) 0.40907(18) 0.46368(7)
O2 O 0.9052(3) 0.28584(13) 0.47280(5)
H10 H 1.015(5) 0.276(2) 0.4525(9)
O3 O 0.8753(3) 0.48995(13) 0.42785(5)
C10 C 0.5706(3) 0.44166(17) 0.50215(7)
H11 H 0.5251 0.3767 0.5307
C9B C 0.2014(3) 0.59093(18) 0.53632(7)
O2B O 0.0948(3) 0.71416(13) 0.52720(5)
H10B H -0.015(5) 0.724(2) 0.5475(9)
O3B O 0.1247(3) 0.51005(13) 0.57215(5)
C10B C 0.4294(3) 0.55834(17) 0.49785(7)
H11B H 0.4749 0.6233 0.4693
C9 C -0.2986(3) -0.09093(18) 0.03632(7)
O2 O -0.4052(3) -0.21416(13) 0.02720(5)
H10 H -0.515(5) -0.224(2) 0.0475(9)
O3 O -0.3753(3) -0.01005(13) 0.07215(5)
C10 C -0.0706(3) -0.05834(17) -0.00215(7)
H11 H -0.0251 -0.1233 -0.0307
C9B C 0.2986(3) 0.09093(18) -0.03632(7)
O2B O 0.4052(3) 0.21416(13) -0.02720(5)
H10B H 0.515(5) 0.224(2) -0.0475(9)
O3B O 0.3753(3) 0.01005(13) -0.07215(5)
C10B C 0.0706(3) 0.05834(17) 0.00215(7)
H11B H 0.0251 0.1233 0.0307
C9 C -0.2986(3) -0.09093(18) 1.03632(7)
O2 O -0.4052(3) -0.21416(13) 1.02720(5)
H10 H -0.515(5) -0.224(2) 1.0475(9)
O3 O -0.3753(3) -0.01005(13) 1.07215(5)
C10 C -0.0706(3) -0.05834(17) 0.99785(7)
H11 H -0.0251 -0.1233 0.9693
C9B C 0.2986(3) 0.09093(18) 0.96368(7)
O2B O 0.4052(3) 0.21416(13) 0.97280(5)
H10B H 0.515(5) 0.224(2) 0.9525(9)
O3B O 0.3753(3) 0.01005(13) 0.92785(5)
C10B C 0.0706(3) 0.05834(17) 1.00215(7)
H11B H 0.0251 0.1233 1.0307
C9 C -0.2986(3) 0.90907(18) 0.03632(7)
O2 O -0.4052(3) 0.78584(13) 0.02720(5)
H10 H -0.515(5) 0.776(2) 0.0475(9)
O3 O -0.3753(3) 0.98995(13) 0.07215(5)
C10 C -0.0706(3) 0.94166(17) -0.00215(7)
H11 H -0.0251 0.8767 -0.0307
C9B C 0.2986(3) 1.09093(18) -0.03632(7)
O2B O 0.4052(3) 1.21416(13) -0.02720(5)
H10B H 0.515(5) 1.224(2) -0.0475(9)
O3B O 0.3753(3) 1.01005(13) -0.07215(5)
C10B C 0.0706(3) 1.05834(17) 0.00215(7)
H11B H 0.0251 1.1233 0.0307
C9 C -0.2986(3) 0.90907(18) 1.03632(7)
O2 O -0.4052(3) 0.78584(13) 1.02720(5)
H10 H -0.515(5) 0.776(2) 1.0475(9)
O3 O -0.3753(3) 0.98995(13) 1.07215(5)
C10 C -0.0706(3) 0.94166(17) 0.99785(7)
H11 H -0.0251 0.8767 0.9693
C9B C 0.2986(3) 1.09093(18) 0.96368(7)
O2B O 0.4052(3) 1.21416(13) 0.97280(5)
H10B H 0.515(5) 1.224(2) 0.9525(9)
O3B O 0.3753(3) 1.01005(13) 0.92785(5)
C10B C 0.0706(3) 1.05834(17) 1.00215(7)
H11B H 0.0251 1.1233 1.0307
C9 C 0.7014(3) -0.09093(18) 0.03632(7)
O2 O 0.5948(3) -0.21416(13) 0.02720(5)
H10 H 0.485(5) -0.224(2) 0.0475(9)
O3 O 0.6247(3) -0.01005(13) 0.07215(5)
C10 C 0.9294(3) -0.05834(17) -0.00215(7)
H11 H 0.9749 -0.1233 -0.0307
C9B C 1.2986(3) 0.09093(18) -0.03632(7)
O2B O 1.4052(3) 0.21416(13) -0.02720(5)
H10B H 1.515(5) 0.224(2) -0.0475(9)
O3B O 1.3753(3) 0.01005(13) -0.07215(5)
C10B C 1.0706(3) 0.05834(17) 0.00215(7)
H11B H 1.0251 0.1233 0.0307
C9 C 0.7014(3) -0.09093(18) 1.03632(7)
O2 O 0.5948(3) -0.21416(13) 1.02720(5)
H10 H 0.485(5) -0.224(2) 1.0475(9)
O3 O 0.6247(3) -0.01005(13) 1.07215(5)
C10 C 0.9294(3) -0.05834(17) 0.99785(7)
H11 H 0.9749 -0.1233 0.9693
C9B C 1.2986(3) 0.09093(18) 0.96368(7)
O2B O 1.4052(3) 0.21416(13) 0.97280(5)
H10B H 1.515(5) 0.224(2) 0.9525(9)
O3B O 1.3753(3) 0.01005(13) 0.92785(5)
C10B C 1.0706(3) 0.05834(17) 1.00215(7)
H11B H 1.0251 0.1233 1.0307
C9 C 0.7014(3) 0.90907(18) 0.03632(7)
O2 O 0.5948(3) 0.78584(13) 0.02720(5)
H10 H 0.485(5) 0.776(2) 0.0475(9)
O3 O 0.6247(3) 0.98995(13) 0.07215(5)
C10 C 0.9294(3) 0.94166(17) -0.00215(7)
H11 H 0.9749 0.8767 -0.0307
C9B C 1.2986(3) 1.09093(18) -0.03632(7)
O2B O 1.4052(3) 1.21416(13) -0.02720(5)
H10B H 1.515(5) 1.224(2) -0.0475(9)
O3B O 1.3753(3) 1.01005(13) -0.07215(5)
C10B C 1.0706(3) 1.05834(17) 0.00215(7)
H11B H 1.0251 1.1233 0.0307
C9 C 0.7014(3) 0.90907(18) 1.03632(7)
O2 O 0.5948(3) 0.78584(13) 1.02720(5)
H10 H 0.485(5) 0.776(2) 1.0475(9)
O3 O 0.6247(3) 0.98995(13) 1.07215(5)
C10 C 0.9294(3) 0.94166(17) 0.99785(7)
H11 H 0.9749 0.8767 0.9693
C9B C 1.2986(3) 1.09093(18) 0.96368(7)
O2B O 1.4052(3) 1.21416(13) 0.97280(5)
H10B H 1.515(5) 1.224(2) 0.9525(9)
O3B O 1.3753(3) 1.01005(13) 0.92785(5)
C10B C 1.0706(3) 1.05834(17) 1.00215(7)
H11B H 1.0251 1.1233 1.0307

#END
