
#######################################################################
#
#                 Cambridge Crystallographic Data Centre
#                                CCDC 
#
#######################################################################
#
# If this CIF has been generated from an entry in the Cambridge 
# Structural Database, then it will include bibliographic, chemical, 
# crystal, experimental, refinement or atomic coordinate data resulting 
# from the CCDC's data processing and validation procedures.
#
#######################################################################

data_LADJOR
_symmetry_cell_setting           monoclinic
_symmetry_space_group_name_H-M   'P 21/c'
_symmetry_Int_Tables_number      14
_space_group_name_Hall           '-P 2ybc'
loop_
_symmetry_equiv_pos_site_id
_symmetry_equiv_pos_as_xyz
1 x,y,z
2 -x,1/2+y,1/2-z
3 -x,-y,-z
4 x,1/2-y,1/2+z
_cell_length_a                   13.0756(3)
_cell_length_b                   16.1069(3)
_cell_length_c                   15.6853(3)
_cell_angle_alpha                90
_cell_angle_beta                 106.478(2)
_cell_angle_gamma                90
_cell_volume                     3167.76
loop_
_atom_site_label
_atom_site_type_symbol
_atom_site_fract_x
_atom_site_fract_y
_atom_site_fract_z
Hg1 Hg 0.278393(13) 0.343047(9) 0.261844(9)
Br1 Br 0.12247(4) 0.44403(2) 0.24747(3)
Br2 Br 0.41622(4) 0.36296(2) 0.41665(2)
P1 P 0.34766(8) 0.32967(6) 0.12951(6)
P2 P 0.28338(8) 0.15538(6) 0.17063(6)
Cl1 Cl -0.16272(10) 0.19410(7) 0.46082(7)
O1 O 0.0642(2) 0.21169(15) 0.12854(14)
C1 C 0.2916(3) 0.2294(2) 0.0855(2)
H1 H 0.2192 0.2383 0.0449
H2 H 0.3361 0.2053 0.0501
C2 C 0.2928(3) 0.4001(2) 0.0378(2)
C3 C 0.1848(3) 0.4180(2) 0.0180(2)
H3 H 0.1433 0.3934 0.0521
C4 C 0.1367(4) 0.4714(2) -0.0510(2)
H4 H 0.0625 0.4826 -0.0653
C5 C 0.1992(4) 0.5083(2) -0.0988(2)
H5 H 0.1675 0.5457 -0.1458
C6 C 0.3052(4) 0.4916(2) -0.0791(2)
H6 H 0.3470 0.5172 -0.1124
C7 C 0.3525(3) 0.4375(2) -0.0109(2)
H7 H 0.4267 0.4261 0.0025
C8 C 0.4908(3) 0.3239(2) 0.1516(2)
C9 C 0.5535(4) 0.3548(3) 0.2321(3)
H8 H 0.5205 0.3789 0.2729
C10 C 0.6627(4) 0.3510(3) 0.2532(3)
H9 H 0.7051 0.3731 0.3080
C11 C 0.7106(4) 0.3150(3) 0.1951(4)
H10 H 0.7862 0.3120 0.2101
C12 C 0.6498(4) 0.2832(3) 0.1146(4)
H11 H 0.6835 0.2584 0.0747
C13 C 0.5398(4) 0.2877(2) 0.0926(3)
H12 H 0.4977 0.2662 0.0374
C14 C 0.4170(3) 0.1247(2) 0.2278(2)
C15 C 0.4768(3) 0.0818(2) 0.1819(2)
H13 H 0.4466 0.0697 0.1207
C16 C 0.5788(3) 0.0567(2) 0.2239(3)
H14 H 0.6189 0.0279 0.1914
C17 C 0.6239(3) 0.0731(2) 0.3133(3)
H15 H 0.6939 0.0540 0.3425
C18 C 0.5668(3) 0.1170(3) 0.3595(2)
H16 H 0.5983 0.1295 0.4206
C19 C 0.4637(3) 0.1433(2) 0.3180(2)
H17 H 0.4249 0.1737 0.3504
C20 C 0.2123(3) 0.0666(2) 0.1137(2)
C21 C 0.2221(3) 0.0422(2) 0.0305(2)
H18 H 0.2654 0.0732 0.0026
C22 C 0.1682(4) -0.0276(2) -0.0106(2)
H19 H 0.1743 -0.0440 -0.0672
C23 C 0.1058(3) -0.0738(2) 0.0295(2)
H20 H 0.0701 -0.1220 0.0011
C24 C 0.0953(3) -0.0495(2) 0.1118(2)
H21 H 0.0520 -0.0807 0.1394
C25 C 0.1487(3) 0.0204(2) 0.1530(2)
H22 H 0.1415 0.0370 0.2092
C26 C 0.2219(3) 0.1999(2) 0.2461(2)
H23 H 0.2415 0.1701 0.3045
C27 C 0.1083(3) 0.2078(2) 0.2098(2)
C28 C 0.0404(3) 0.2085(2) 0.2727(2)
C29 C 0.0762(3) 0.2419(2) 0.3584(2)
H24 H 0.1446 0.2671 0.3773
C30 C 0.0137(3) 0.2387(2) 0.4154(2)
H25 H 0.0379 0.2624 0.4732
C31 C -0.0848(3) 0.2008(2) 0.3876(2)
C32 C -0.1213(3) 0.1669(2) 0.3037(2)
H26 H -0.1889 0.1404 0.2855
C33 C -0.0591(3) 0.1720(2) 0.2465(2)
H27 H -0.0849 0.1500 0.1881
Hg1 Hg 0.721607(13) 0.843047(9) 0.238156(9)
Br1 Br 0.87753(4) 0.94403(2) 0.25253(3)
Br2 Br 0.58378(4) 0.86296(2) 0.08335(2)
P1 P 0.65234(8) 0.82967(6) 0.37049(6)
P2 P 0.71662(8) 0.65538(6) 0.32937(6)
Cl1 Cl 1.16272(10) 0.69410(7) 0.03918(7)
O1 O 0.9358(2) 0.71169(15) 0.37146(14)
C1 C 0.7084(3) 0.7294(2) 0.4145(2)
H1 H 0.7808 0.7383 0.4551
H2 H 0.6639 0.7053 0.4499
C2 C 0.7072(3) 0.9001(2) 0.4622(2)
C3 C 0.8152(3) 0.9180(2) 0.4820(2)
H3 H 0.8567 0.8934 0.4479
C4 C 0.8633(4) 0.9714(2) 0.5510(2)
H4 H 0.9375 0.9826 0.5653
C5 C 0.8008(4) 1.0083(2) 0.5988(2)
H5 H 0.8325 1.0457 0.6458
C6 C 0.6948(4) 0.9916(2) 0.5791(2)
H6 H 0.6530 1.0172 0.6124
C7 C 0.6475(3) 0.9375(2) 0.5109(2)
H7 H 0.5733 0.9261 0.4975
C8 C 0.5092(3) 0.8239(2) 0.3484(2)
C9 C 0.4465(4) 0.8548(3) 0.2679(3)
H8 H 0.4795 0.8789 0.2271
C10 C 0.3373(4) 0.8510(3) 0.2468(3)
H9 H 0.2949 0.8731 0.1920
C11 C 0.2894(4) 0.8150(3) 0.3049(4)
H10 H 0.2138 0.8120 0.2899
C12 C 0.3502(4) 0.7832(3) 0.3854(4)
H11 H 0.3165 0.7584 0.4253
C13 C 0.4602(4) 0.7877(2) 0.4074(3)
H12 H 0.5023 0.7662 0.4626
C14 C 0.5830(3) 0.6247(2) 0.2722(2)
C15 C 0.5232(3) 0.5818(2) 0.3181(2)
H13 H 0.5534 0.5697 0.3793
C16 C 0.4212(3) 0.5567(2) 0.2761(3)
H14 H 0.3811 0.5279 0.3086
C17 C 0.3761(3) 0.5731(2) 0.1867(3)
H15 H 0.3061 0.5540 0.1575
C18 C 0.4332(3) 0.6170(3) 0.1405(2)
H16 H 0.4017 0.6295 0.0794
C19 C 0.5363(3) 0.6433(2) 0.1820(2)
H17 H 0.5751 0.6737 0.1496
C20 C 0.7877(3) 0.5666(2) 0.3863(2)
C21 C 0.7779(3) 0.5422(2) 0.4695(2)
H18 H 0.7346 0.5732 0.4974
C22 C 0.8318(4) 0.4724(2) 0.5106(2)
H19 H 0.8257 0.4560 0.5672
C23 C 0.8942(3) 0.4262(2) 0.4705(2)
H20 H 0.9299 0.3780 0.4989
C24 C 0.9047(3) 0.4505(2) 0.3882(2)
H21 H 0.9480 0.4193 0.3606
C25 C 0.8513(3) 0.5204(2) 0.3470(2)
H22 H 0.8585 0.5370 0.2908
C26 C 0.7781(3) 0.6999(2) 0.2539(2)
H23 H 0.7585 0.6701 0.1955
C27 C 0.8917(3) 0.7078(2) 0.2902(2)
C28 C 0.9596(3) 0.7085(2) 0.2273(2)
C29 C 0.9238(3) 0.7419(2) 0.1416(2)
H24 H 0.8554 0.7671 0.1227
C30 C 0.9863(3) 0.7387(2) 0.0846(2)
H25 H 0.9621 0.7624 0.0268
C31 C 1.0848(3) 0.7008(2) 0.1124(2)
C32 C 1.1213(3) 0.6669(2) 0.1963(2)
H26 H 1.1889 0.6404 0.2145
C33 C 1.0591(3) 0.6720(2) 0.2535(2)
H27 H 1.0849 0.6500 0.3119
Hg1 Hg 0.721607(13) 0.656953(9) 0.738156(9)
Br1 Br 0.87753(4) 0.55597(2) 0.75253(3)
Br2 Br 0.58378(4) 0.63704(2) 0.58335(2)
P1 P 0.65234(8) 0.67033(6) 0.87049(6)
P2 P 0.71662(8) 0.84462(6) 0.82937(6)
Cl1 Cl 1.16272(10) 0.80590(7) 0.53918(7)
O1 O 0.9358(2) 0.78831(15) 0.87146(14)
C1 C 0.7084(3) 0.7706(2) 0.9145(2)
H1 H 0.7808 0.7617 0.9551
H2 H 0.6639 0.7947 0.9499
C2 C 0.7072(3) 0.5999(2) 0.9622(2)
C3 C 0.8152(3) 0.5820(2) 0.9820(2)
H3 H 0.8567 0.6066 0.9479
C4 C 0.8633(4) 0.5286(2) 1.0510(2)
H4 H 0.9375 0.5174 1.0653
C5 C 0.8008(4) 0.4917(2) 1.0988(2)
H5 H 0.8325 0.4543 1.1458
C6 C 0.6948(4) 0.5084(2) 1.0791(2)
H6 H 0.6530 0.4828 1.1124
C7 C 0.6475(3) 0.5625(2) 1.0109(2)
H7 H 0.5733 0.5739 0.9975
C8 C 0.5092(3) 0.6761(2) 0.8484(2)
C9 C 0.4465(4) 0.6452(3) 0.7679(3)
H8 H 0.4795 0.6211 0.7271
C10 C 0.3373(4) 0.6490(3) 0.7468(3)
H9 H 0.2949 0.6269 0.6920
C11 C 0.2894(4) 0.6850(3) 0.8049(4)
H10 H 0.2138 0.6880 0.7899
C12 C 0.3502(4) 0.7168(3) 0.8854(4)
H11 H 0.3165 0.7416 0.9253
C13 C 0.4602(4) 0.7123(2) 0.9074(3)
H12 H 0.5023 0.7338 0.9626
C14 C 0.5830(3) 0.8753(2) 0.7722(2)
C15 C 0.5232(3) 0.9182(2) 0.8181(2)
H13 H 0.5534 0.9303 0.8793
C16 C 0.4212(3) 0.9433(2) 0.7761(3)
H14 H 0.3811 0.9721 0.8086
C17 C 0.3761(3) 0.9269(2) 0.6867(3)
H15 H 0.3061 0.9460 0.6575
C18 C 0.4332(3) 0.8830(3) 0.6405(2)
H16 H 0.4017 0.8705 0.5794
C19 C 0.5363(3) 0.8567(2) 0.6820(2)
H17 H 0.5751 0.8263 0.6496
C20 C 0.7877(3) 0.9334(2) 0.8863(2)
C21 C 0.7779(3) 0.9578(2) 0.9695(2)
H18 H 0.7346 0.9268 0.9974
C22 C 0.8318(4) 1.0276(2) 1.0106(2)
H19 H 0.8257 1.0440 1.0672
C23 C 0.8942(3) 1.0738(2) 0.9705(2)
H20 H 0.9299 1.1220 0.9989
C24 C 0.9047(3) 1.0495(2) 0.8882(2)
H21 H 0.9480 1.0807 0.8606
C25 C 0.8513(3) 0.9796(2) 0.8470(2)
H22 H 0.8585 0.9630 0.7908
C26 C 0.7781(3) 0.8001(2) 0.7539(2)
H23 H 0.7585 0.8299 0.6955
C27 C 0.8917(3) 0.7922(2) 0.7902(2)
C28 C 0.9596(3) 0.7915(2) 0.7273(2)
C29 C 0.9238(3) 0.7581(2) 0.6416(2)
H24 H 0.8554 0.7329 0.6227
C30 C 0.9863(3) 0.7613(2) 0.5846(2)
H25 H 0.9621 0.7376 0.5268
C31 C 1.0848(3) 0.7992(2) 0.6124(2)
C32 C 1.1213(3) 0.8331(2) 0.6963(2)
H26 H 1.1889 0.8596 0.7145
C33 C 1.0591(3) 0.8280(2) 0.7535(2)
H27 H 1.0849 0.8500 0.8119
Hg1 Hg 0.278393(13) 0.156953(9) 0.761844(9)
Br1 Br 0.12247(4) 0.05597(2) 0.74747(3)
Br2 Br 0.41622(4) 0.13704(2) 0.91665(2)
P1 P 0.34766(8) 0.17033(6) 0.62951(6)
P2 P 0.28338(8) 0.34462(6) 0.67063(6)
Cl1 Cl -0.16272(10) 0.30590(7) 0.96082(7)
O1 O 0.0642(2) 0.28831(15) 0.62854(14)
C1 C 0.2916(3) 0.2706(2) 0.5855(2)
H1 H 0.2192 0.2617 0.5449
H2 H 0.3361 0.2947 0.5501
C2 C 0.2928(3) 0.0999(2) 0.5378(2)
C3 C 0.1848(3) 0.0820(2) 0.5180(2)
H3 H 0.1433 0.1066 0.5521
C4 C 0.1367(4) 0.0286(2) 0.4490(2)
H4 H 0.0625 0.0174 0.4347
C5 C 0.1992(4) -0.0083(2) 0.4012(2)
H5 H 0.1675 -0.0457 0.3542
C6 C 0.3052(4) 0.0084(2) 0.4209(2)
H6 H 0.3470 -0.0172 0.3876
C7 C 0.3525(3) 0.0625(2) 0.4891(2)
H7 H 0.4267 0.0739 0.5025
C8 C 0.4908(3) 0.1761(2) 0.6516(2)
C9 C 0.5535(4) 0.1452(3) 0.7321(3)
H8 H 0.5205 0.1211 0.7729
C10 C 0.6627(4) 0.1490(3) 0.7532(3)
H9 H 0.7051 0.1269 0.8080
C11 C 0.7106(4) 0.1850(3) 0.6951(4)
H10 H 0.7862 0.1880 0.7101
C12 C 0.6498(4) 0.2168(3) 0.6146(4)
H11 H 0.6835 0.2416 0.5747
C13 C 0.5398(4) 0.2123(2) 0.5926(3)
H12 H 0.4977 0.2338 0.5374
C14 C 0.4170(3) 0.3753(2) 0.7278(2)
C15 C 0.4768(3) 0.4182(2) 0.6819(2)
H13 H 0.4466 0.4303 0.6207
C16 C 0.5788(3) 0.4433(2) 0.7239(3)
H14 H 0.6189 0.4721 0.6914
C17 C 0.6239(3) 0.4269(2) 0.8133(3)
H15 H 0.6939 0.4460 0.8425
C18 C 0.5668(3) 0.3830(3) 0.8595(2)
H16 H 0.5983 0.3705 0.9206
C19 C 0.4637(3) 0.3567(2) 0.8180(2)
H17 H 0.4249 0.3263 0.8504
C20 C 0.2123(3) 0.4334(2) 0.6137(2)
C21 C 0.2221(3) 0.4578(2) 0.5305(2)
H18 H 0.2654 0.4268 0.5026
C22 C 0.1682(4) 0.5276(2) 0.4894(2)
H19 H 0.1743 0.5440 0.4328
C23 C 0.1058(3) 0.5738(2) 0.5295(2)
H20 H 0.0701 0.6220 0.5011
C24 C 0.0953(3) 0.5495(2) 0.6118(2)
H21 H 0.0520 0.5807 0.6394
C25 C 0.1487(3) 0.4796(2) 0.6530(2)
H22 H 0.1415 0.4630 0.7092
C26 C 0.2219(3) 0.3001(2) 0.7461(2)
H23 H 0.2415 0.3299 0.8045
C27 C 0.1083(3) 0.2922(2) 0.7098(2)
C28 C 0.0404(3) 0.2915(2) 0.7727(2)
C29 C 0.0762(3) 0.2581(2) 0.8584(2)
H24 H 0.1446 0.2329 0.8773
C30 C 0.0137(3) 0.2613(2) 0.9154(2)
H25 H 0.0379 0.2376 0.9732
C31 C -0.0848(3) 0.2992(2) 0.8876(2)
C32 C -0.1213(3) 0.3331(2) 0.8037(2)
H26 H -0.1889 0.3596 0.7855
C33 C -0.0591(3) 0.3280(2) 0.7465(2)
H27 H -0.0849 0.3500 0.6881

#END
