
#######################################################################
#
#                 Cambridge Crystallographic Data Centre
#                                CCDC 
#
#######################################################################
#
# If this CIF has been generated from an entry in the Cambridge 
# Structural Database, then it will include bibliographic, chemical, 
# crystal, experimental, refinement or atomic coordinate data resulting 
# from the CCDC's data processing and validation procedures.
#
#######################################################################

data_LADLUX
_symmetry_cell_setting           triclinic
_symmetry_space_group_name_H-M   'P -1'
_symmetry_Int_Tables_number      2
_space_group_name_Hall           '-P 1'
loop_
_symmetry_equiv_pos_site_id
_symmetry_equiv_pos_as_xyz
1 x,y,z
2 -x,-y,-z
_cell_length_a                   7.540(3)
_cell_length_b                   10.788(7)
_cell_length_c                   16.084(4)
_cell_angle_alpha                103.09(4)
_cell_angle_beta                 90.02(4)
_cell_angle_gamma                110.46(6)
_cell_volume                     1189.37
loop_
_atom_site_label
_atom_site_type_symbol
_atom_site_fract_x
_atom_site_fract_y
_atom_site_fract_z
S1 S 0.4543(5) 0.6177(3) 0.9233(1)
N1 N 0.517(2) 0.427(1) 0.7276(5)
N2 N 0.923(2) 0.818(1) 0.7102(6)
N3 N 0.396(2) 0.846(1) 1.2354(6)
N4 N 0.137(2) 0.456(1) 1.0562(6)
C1 C 0.485(2) 0.737(1) 1.0195(5)
C2 C 0.624(2) 0.870(1) 1.0130(5)
C3 C 0.680(2) 0.990(1) 1.0787(6)
C4 C 0.799(2) 1.111(1) 1.0584(6)
C5 C 0.870(2) 1.105(1) 0.9792(6)
C6 C 0.818(2) 0.988(1) 0.9145(6)
C7 C 0.695(2) 0.867(1) 0.9351(5)
C8 C 0.626(2) 0.732(1) 0.8762(5)
C9 C 0.678(2) 0.683(1) 0.8008(5)
C10 C 0.821(2) 0.761(2) 0.7507(6)
C11 C 0.589(3) 0.540(2) 0.7573(8)
C12 C 0.385(2) 0.699(1) 1.0852(6)
C13 C 0.244(2) 0.563(1) 1.0699(7)
C14 C 0.393(2) 0.785(1) 1.1669(6)
H1 H 0.634(2) 0.991(1) 1.1371(6)
H2 H 0.836(1) 1.200(1) 1.1018(6)
H3 H 0.964(2) 1.191(1) 0.9687(6)
H4 H 0.865(2) 0.987(1) 0.8563(6)
S1 S 0.5457(5) 0.3823(3) 0.0767(1)
N1 N 0.483(2) 0.573(1) 0.2724(5)
N2 N 0.077(2) 0.182(1) 0.2898(6)
N3 N 0.604(2) 0.154(1) -0.2354(6)
N4 N 0.863(2) 0.544(1) -0.0562(6)
C1 C 0.515(2) 0.263(1) -0.0195(5)
C2 C 0.376(2) 0.130(1) -0.0130(5)
C3 C 0.320(2) 0.010(1) -0.0787(6)
C4 C 0.201(2) -0.111(1) -0.0584(6)
C5 C 0.130(2) -0.105(1) 0.0208(6)
C6 C 0.182(2) 0.012(1) 0.0855(6)
C7 C 0.305(2) 0.133(1) 0.0649(5)
C8 C 0.374(2) 0.268(1) 0.1238(5)
C9 C 0.322(2) 0.317(1) 0.1992(5)
C10 C 0.179(2) 0.239(2) 0.2493(6)
C11 C 0.411(3) 0.460(2) 0.2427(8)
C12 C 0.615(2) 0.301(1) -0.0852(6)
C13 C 0.756(2) 0.437(1) -0.0699(7)
C14 C 0.607(2) 0.215(1) -0.1669(6)
H1 H 0.366(2) 0.009(1) -0.1371(6)
H2 H 0.164(1) -0.200(1) -0.1018(6)
H3 H 0.036(2) -0.191(1) 0.0313(6)
H4 H 0.135(2) 0.013(1) 0.1437(6)
S2 S 0.1634(6) 0.6181(3) 0.4227(1)
N5 N -0.088(2) 0.426(1) 0.2287(6)
N6 N -0.101(3) 0.818(2) 0.2113(7)
N7 N 0.448(2) 0.844(1) 0.7356(6)
N8 N 0.311(3) 0.459(1) 0.5575(6)
C15 C 0.254(2) 0.738(1) 0.5212(5)
C16 C 0.248(2) 0.869(1) 0.5143(6)
C17 C 0.317(2) 0.992(1) 0.5781(6)
C18 C 0.308(3) 1.109(1) 0.5571(6)
C19 C 0.236(2) 1.109(1) 0.4779(6)
C20 C 0.169(2) 0.986(1) 0.4141(6)
C21 C 0.175(2) 0.868(1) 0.4338(5)
C22 C 0.109(2) 0.729(1) 0.3776(5)
C23 C 0.001(2) 0.685(1) 0.2978(6)
C24 C -0.049(3) 0.541(2) 0.2593(7)
C25 C -0.058(3) 0.761(1) 0.2511(7)
C26 C 0.320(2) 0.696(1) 0.5841(5)
C27 C 0.388(2) 0.786(1) 0.6674(6)
C28 C 0.317(3) 0.565(1) 0.5707(6)
H5 H 0.373(2) 0.997(1) 0.6355(6)
H6 H 0.348(3) 1.197(1) 0.6024(6)
H7 H 0.236(2) 1.196(1) 0.4658(6)
H8 H 0.117(2) 0.983(1) 0.3562(6)
S2 S 0.8366(6) 0.3819(3) 0.5773(1)
N5 N 1.088(2) 0.574(1) 0.7713(6)
N6 N 1.101(3) 0.182(2) 0.7887(7)
N7 N 0.552(2) 0.156(1) 0.2644(6)
N8 N 0.689(3) 0.541(1) 0.4425(6)
C15 C 0.746(2) 0.262(1) 0.4788(5)
C16 C 0.752(2) 0.131(1) 0.4857(6)
C17 C 0.683(2) 0.008(1) 0.4219(6)
C18 C 0.692(3) -0.109(1) 0.4429(6)
C19 C 0.764(2) -0.109(1) 0.5221(6)
C20 C 0.831(2) 0.014(1) 0.5859(6)
C21 C 0.825(2) 0.132(1) 0.5662(5)
C22 C 0.891(2) 0.271(1) 0.6224(5)
C23 C 0.999(2) 0.315(1) 0.7022(6)
C24 C 1.049(3) 0.459(2) 0.7407(7)
C25 C 1.058(3) 0.239(1) 0.7489(7)
C26 C 0.680(2) 0.304(1) 0.4159(5)
C27 C 0.612(2) 0.214(1) 0.3326(6)
C28 C 0.683(3) 0.435(1) 0.4293(6)
H5 H 0.627(2) 0.003(1) 0.3645(6)
H6 H 0.652(3) -0.197(1) 0.3976(6)
H7 H 0.764(2) -0.196(1) 0.5342(6)
H8 H 0.883(2) 0.017(1) 0.6438(6)

#END
