
#######################################################################
#
#                 Cambridge Crystallographic Data Centre
#                                CCDC 
#
#######################################################################
#
# If this CIF has been generated from an entry in the Cambridge 
# Structural Database, then it will include bibliographic, chemical, 
# crystal, experimental, refinement or atomic coordinate data resulting 
# from the CCDC's data processing and validation procedures.
#
#######################################################################

data_LADLAE
_symmetry_cell_setting           triclinic
_symmetry_space_group_name_H-M   'P -1'
_symmetry_Int_Tables_number      2
_space_group_name_Hall           '-P 1'
loop_
_symmetry_equiv_pos_site_id
_symmetry_equiv_pos_as_xyz
1 x,y,z
2 -x,-y,-z
_cell_length_a                   9.152(4)
_cell_length_b                   11.461(2)
_cell_length_c                   12.454(5)
_cell_angle_alpha                76.39(3)
_cell_angle_beta                 77.17(3)
_cell_angle_gamma                76.07(2)
_cell_volume                     1213.2
loop_
_atom_site_label
_atom_site_type_symbol
_atom_site_fract_x
_atom_site_fract_y
_atom_site_fract_z
Sn1 Sn 0.66249(5) 0.58207(4) 0.71884(4)
O1 O 0.5709(6) 0.8003(5) 0.5753(4)
C1 C 0.7735(8) 0.4056(7) 0.8009(7)
C2 C 0.8213(11) 0.3887(10) 0.9023(8)
H1 H 0.8019 0.4544 0.9388
C3 C 0.8981(15) 0.2746(14) 0.9507(12)
H2 H 0.9232 0.2644 1.0211
C4 C 0.9366(19) 0.1793(13) 0.8982(16)
H3 H 0.9994 0.1074 0.9275
C5 C 0.8795(17) 0.1879(10) 0.7941(14)
H4 H 0.8911 0.1205 0.7612
C6 C 0.8079(13) 0.3034(8) 0.7497(10)
H5 H 0.7799 0.3146 0.6800
C7 C 0.4424(8) 0.5535(7) 0.7193(6)
C8 C 0.3629(12) 0.4934(10) 0.8144(8)
H6 H 0.4081 0.4660 0.8780
C9 C 0.2224(14) 0.4719(12) 0.8203(9)
H7 H 0.1733 0.4311 0.8871
C10 C 0.1521(13) 0.5098(11) 0.7290(11)
H8 H 0.0549 0.4957 0.7330
C11 C 0.2253(15) 0.5678(11) 0.6332(10)
H9 H 0.1781 0.5942 0.5704
C12 C 0.3693(13) 0.5890(8) 0.6264(8)
H10 H 0.4186 0.6276 0.5586
C13 C 0.6611(9) 0.7087(6) 0.8210(6)
C14 C 0.5464(12) 0.7263(8) 0.9145(7)
H11 H 0.4666 0.6840 0.9328
C15 C 0.5529(14) 0.8067(11) 0.9791(8)
H12 H 0.4777 0.8172 1.0419
C16 C 0.6700(16) 0.8726(10) 0.9523(9)
H13 H 0.6728 0.9270 0.9963
C17 C 0.7806(14) 0.8558(9) 0.8605(9)
H14 H 0.8599 0.8986 0.8418
C18 C 0.7747(11) 0.7753(8) 0.7953(7)
H15 H 0.8497 0.7660 0.7322
C19 C 0.8122(10) 0.6088(7) 0.5606(7)
H16 H 0.9029 0.5512 0.5529
C20 C 0.7915(10) 0.6960(7) 0.4736(6)
H17 H 0.8667 0.6911 0.4100
C21 C 0.6593(9) 0.8043(7) 0.4643(6)
C22 C 0.7154(9) 0.9215(7) 0.4159(6)
C23 C 0.7848(11) 0.9824(9) 0.4724(10)
H18 H 0.7980 0.9518 0.5464
C24 C 0.8317(14) 1.0888(9) 0.4128(10)
H19 H 0.8744 1.1329 0.4472
C25 C 0.8148(13) 1.1298(9) 0.3009(12)
H20 H 0.8477 1.2011 0.2615
C26 C 0.7520(14) 1.0690(9) 0.2477(9)
H21 H 0.7429 1.0970 0.1727
C27 C 0.7022(11) 0.9652(8) 0.3076(7)
C28 C 0.6317(14) 0.8818(10) 0.2642(8)
H22 H 0.7086 0.8318 0.2177
H23 H 0.5529 0.9288 0.2214
C29 C 0.5628(13) 0.8023(10) 0.3741(7)
H24 H 0.5722 0.7192 0.3641
H25 H 0.4556 0.8366 0.3969
Sn1 Sn 0.33751(5) 0.41793(4) 0.28116(4)
O1 O 0.4291(6) 0.1997(5) 0.4247(4)
C1 C 0.2265(8) 0.5944(7) 0.1991(7)
C2 C 0.1787(11) 0.6113(10) 0.0977(8)
H1 H 0.1981 0.5456 0.0612
C3 C 0.1019(15) 0.7254(14) 0.0493(12)
H2 H 0.0768 0.7356 -0.0211
C4 C 0.0634(19) 0.8207(13) 0.1018(16)
H3 H 0.0006 0.8926 0.0725
C5 C 0.1205(17) 0.8121(10) 0.2059(14)
H4 H 0.1089 0.8795 0.2388
C6 C 0.1921(13) 0.6966(8) 0.2503(10)
H5 H 0.2201 0.6854 0.3200
C7 C 0.5576(8) 0.4465(7) 0.2807(6)
C8 C 0.6371(12) 0.5066(10) 0.1856(8)
H6 H 0.5919 0.5340 0.1220
C9 C 0.7776(14) 0.5281(12) 0.1797(9)
H7 H 0.8267 0.5689 0.1129
C10 C 0.8479(13) 0.4902(11) 0.2710(11)
H8 H 0.9451 0.5043 0.2670
C11 C 0.7747(15) 0.4322(11) 0.3668(10)
H9 H 0.8219 0.4058 0.4296
C12 C 0.6307(13) 0.4110(8) 0.3736(8)
H10 H 0.5814 0.3724 0.4414
C13 C 0.3389(9) 0.2913(6) 0.1790(6)
C14 C 0.4536(12) 0.2737(8) 0.0855(7)
H11 H 0.5334 0.3160 0.0672
C15 C 0.4471(14) 0.1933(11) 0.0209(8)
H12 H 0.5223 0.1828 -0.0419
C16 C 0.3300(16) 0.1274(10) 0.0477(9)
H13 H 0.3272 0.0730 0.0037
C17 C 0.2194(14) 0.1442(9) 0.1395(9)
H14 H 0.1401 0.1014 0.1582
C18 C 0.2253(11) 0.2247(8) 0.2047(7)
H15 H 0.1503 0.2340 0.2678
C19 C 0.1878(10) 0.3912(7) 0.4394(7)
H16 H 0.0971 0.4488 0.4471
C20 C 0.2085(10) 0.3040(7) 0.5264(6)
H17 H 0.1333 0.3089 0.5900
C21 C 0.3407(9) 0.1957(7) 0.5357(6)
C22 C 0.2846(9) 0.0785(7) 0.5841(6)
C23 C 0.2152(11) 0.0176(9) 0.5276(10)
H18 H 0.2020 0.0482 0.4536
C24 C 0.1683(14) -0.0888(9) 0.5872(10)
H19 H 0.1256 -0.1329 0.5528
C25 C 0.1852(13) -0.1298(9) 0.6991(12)
H20 H 0.1523 -0.2011 0.7385
C26 C 0.2480(14) -0.0690(9) 0.7523(9)
H21 H 0.2571 -0.0970 0.8273
C27 C 0.2978(11) 0.0348(8) 0.6924(7)
C28 C 0.3683(14) 0.1182(10) 0.7358(8)
H22 H 0.2914 0.1682 0.7823
H23 H 0.4471 0.0712 0.7786
C29 C 0.4372(13) 0.1977(10) 0.6259(7)
H24 H 0.4278 0.2808 0.6359
H25 H 0.5444 0.1634 0.6031

#END
