
#######################################################################
#
#                 Cambridge Crystallographic Data Centre
#                                CCDC 
#
#######################################################################
#
# If this CIF has been generated from an entry in the Cambridge 
# Structural Database, then it will include bibliographic, chemical, 
# crystal, experimental, refinement or atomic coordinate data resulting 
# from the CCDC's data processing and validation procedures.
#
#######################################################################

data_LADMIO
_symmetry_cell_setting           monoclinic
_symmetry_space_group_name_H-M   'P 21/n'
_symmetry_Int_Tables_number      14
_space_group_name_Hall           '-P 2yn'
loop_
_symmetry_equiv_pos_site_id
_symmetry_equiv_pos_as_xyz
1 x,y,z
2 1/2-x,1/2+y,1/2-z
3 -x,-y,-z
4 1/2+x,1/2-y,1/2+z
_cell_length_a                   9.4144(1)
_cell_length_b                   20.5690(4)
_cell_length_c                   10.8158(2)
_cell_angle_alpha                90
_cell_angle_beta                 95.006(2)
_cell_angle_gamma                90
_cell_volume                     2086.43
loop_
_atom_site_label
_atom_site_type_symbol
_atom_site_fract_x
_atom_site_fract_y
_atom_site_fract_z
C1 C 0.6409(3) 1.07392(15) 0.5557(2)
C2 C 0.6916(3) 1.11976(16) 0.4757(3)
H1 H 0.6567 1.1621 0.4743
C3 C 0.7943(3) 1.10189(16) 0.3985(3)
C4 C 0.8384(3) 1.03762(16) 0.3922(3)
H2 H 0.9036 1.0256 0.3365
C5 C 0.7851(3) 0.99174(15) 0.4688(3)
C6 C 0.6889(3) 1.00872(14) 0.5579(2)
C7 C 0.6421(3) 0.96224(15) 0.6486(3)
C8 C 0.5495(3) 0.98920(15) 0.7365(3)
C9 C 0.5005(3) 1.05109(15) 0.7221(3)
H3 H 0.4353 1.0656 0.7758
C10 C 0.4976(3) 0.95063(16) 0.8387(3)
C11 C 0.5970(3) 0.90315(16) 0.9076(3)
C12 C 0.7373(4) 0.92244(19) 0.9379(3)
H4 H 0.7678 0.9623 0.9094
C13 C 0.8321(4) 0.8841(2) 1.0090(3)
H5 H 0.9249 0.8983 1.0294
C14 C 0.7882(4) 0.8245(2) 1.0496(3)
H6 H 0.8517 0.7981 1.0973
C15 C 0.6496(4) 0.80413(18) 1.0193(3)
H7 H 0.6211 0.7638 1.0471
C16 C 0.5511(3) 0.84237(16) 0.9480(3)
C17 C 0.4037(3) 0.81503(17) 0.9152(3)
H8 H 0.4124 0.772 0.8799
H9 H 0.3542 0.8424 0.8524
C18 C 0.3150(3) 0.81041(16) 1.0256(3)
C19 C 0.2644(3) 0.86631(16) 1.0785(3)
H10 H 0.283 0.9067 1.0446
C20 C 0.1870(3) 0.86283(16) 1.1802(3)
H11 H 0.1535 0.9008 1.2143
C21 C 0.1588(3) 0.80356(18) 1.2322(3)
H12 H 0.107 0.8015 1.3015
C22 C 0.2075(4) 0.74748(18) 1.1811(3)
H13 H 0.1883 0.7073 1.2153
C23 C 0.2854(4) 0.75116(17) 1.0783(3)
H14 H 0.3183 0.7131 1.0441
C24 C 0.4809(4) 1.15858(17) 0.6309(3)
H15 H 0.4111 1.1625 0.6901
H16 H 0.4368 1.1671 0.5491
H17 H 0.5562 1.1894 0.6504
C25 C 0.9515(4) 1.1349(2) 0.2462(4)
H18 H 1.033 1.116 0.2923
H19 H 0.9796 1.1738 0.2057
H20 H 0.9127 1.1044 0.185
C26 C 0.9049(4) 0.90785(19) 0.3657(3)
H21 H 0.8592 0.9211 0.2869
H22 H 0.9148 0.8614 0.3672
H23 H 0.9975 0.9276 0.3779
N1 N 0.5397(2) 1.09280(12) 0.6356(2)
O1 O 0.6761(3) 0.90414(11) 0.6518(2)
O2 O 0.3788(3) 0.96108(13) 0.8732(2)
O3 O 0.8450(3) 1.15055(12) 0.3295(2)
O4 O 0.8203(2) 0.92789(11) 0.4627(2)
C1 C 0.8591(3) 0.57392(15) 0.9443(2)
C2 C 0.8084(3) 0.61976(16) 1.0243(3)
H1 H 0.8433 0.6621 1.0257
C3 C 0.7057(3) 0.60189(16) 1.1015(3)
C4 C 0.6616(3) 0.53762(16) 1.1078(3)
H2 H 0.5964 0.5256 1.1635
C5 C 0.7149(3) 0.49174(15) 1.0312(3)
C6 C 0.8111(3) 0.50872(14) 0.9421(2)
C7 C 0.8579(3) 0.46224(15) 0.8514(3)
C8 C 0.9505(3) 0.48920(15) 0.7635(3)
C9 C 0.9995(3) 0.55109(15) 0.7779(3)
H3 H 1.0647 0.5656 0.7242
C10 C 1.0024(3) 0.45063(16) 0.6613(3)
C11 C 0.9030(3) 0.40315(16) 0.5924(3)
C12 C 0.7627(4) 0.42244(19) 0.5621(3)
H4 H 0.7322 0.4623 0.5906
C13 C 0.6679(4) 0.3841(2) 0.4910(3)
H5 H 0.5751 0.3983 0.4706
C14 C 0.7118(4) 0.3245(2) 0.4504(3)
H6 H 0.6483 0.2981 0.4027
C15 C 0.8504(4) 0.30413(18) 0.4807(3)
H7 H 0.8789 0.2638 0.4529
C16 C 0.9489(3) 0.34237(16) 0.5520(3)
C17 C 1.0963(3) 0.31503(17) 0.5848(3)
H8 H 1.0876 0.272 0.6201
H9 H 1.1458 0.3424 0.6476
C18 C 1.1850(3) 0.31041(16) 0.4744(3)
C19 C 1.2356(3) 0.36631(16) 0.4215(3)
H10 H 1.217 0.4067 0.4554
C20 C 1.3130(3) 0.36283(16) 0.3198(3)
H11 H 1.3465 0.4008 0.2857
C21 C 1.3412(3) 0.30356(18) 0.2678(3)
H12 H 1.393 0.3015 0.1985
C22 C 1.2925(4) 0.24748(18) 0.3189(3)
H13 H 1.3117 0.2073 0.2847
C23 C 1.2146(4) 0.25116(17) 0.4217(3)
H14 H 1.1817 0.2131 0.4559
C24 C 1.0191(4) 0.65858(17) 0.8691(3)
H15 H 1.0889 0.6625 0.8099
H16 H 1.0632 0.6671 0.9509
H17 H 0.9438 0.6894 0.8496
C25 C 0.5485(4) 0.6349(2) 1.2538(4)
H18 H 0.467 0.616 1.2077
H19 H 0.5204 0.6738 1.2943
H20 H 0.5873 0.6044 1.315
C26 C 0.5951(4) 0.40785(19) 1.1343(3)
H21 H 0.6408 0.4211 1.2131
H22 H 0.5852 0.3614 1.1328
H23 H 0.5025 0.4276 1.1221
N1 N 0.9603(2) 0.59280(12) 0.8644(2)
O1 O 0.8239(3) 0.40414(11) 0.8482(2)
O2 O 1.1212(3) 0.46108(13) 0.6268(2)
O3 O 0.6550(3) 0.65055(12) 1.1705(2)
O4 O 0.6797(2) 0.42789(11) 1.0373(2)
C1 C 0.3591(3) -0.07392(15) 0.4443(2)
C2 C 0.3084(3) -0.11976(16) 0.5243(3)
H1 H 0.3433 -0.1621 0.5257
C3 C 0.2057(3) -0.10189(16) 0.6015(3)
C4 C 0.1616(3) -0.03762(16) 0.6078(3)
H2 H 0.0964 -0.0256 0.6635
C5 C 0.2149(3) 0.00826(15) 0.5312(3)
C6 C 0.3111(3) -0.00872(14) 0.4421(2)
C7 C 0.3579(3) 0.03776(15) 0.3514(3)
C8 C 0.4505(3) 0.01080(15) 0.2635(3)
C9 C 0.4995(3) -0.05109(15) 0.2779(3)
H3 H 0.5647 -0.0656 0.2242
C10 C 0.5024(3) 0.04937(16) 0.1613(3)
C11 C 0.4030(3) 0.09685(16) 0.0924(3)
C12 C 0.2627(4) 0.07756(19) 0.0621(3)
H4 H 0.2322 0.0377 0.0906
C13 C 0.1679(4) 0.1159(2) -0.0090(3)
H5 H 0.0751 0.1017 -0.0294
C14 C 0.2118(4) 0.1755(2) -0.0496(3)
H6 H 0.1483 0.2019 -0.0973
C15 C 0.3504(4) 0.19587(18) -0.0193(3)
H7 H 0.3789 0.2362 -0.0471
C16 C 0.4489(3) 0.15763(16) 0.0520(3)
C17 C 0.5963(3) 0.18497(17) 0.0848(3)
H8 H 0.5876 0.228 0.1201
H9 H 0.6458 0.1576 0.1476
C18 C 0.6850(3) 0.18959(16) -0.0256(3)
C19 C 0.7356(3) 0.13369(16) -0.0785(3)
H10 H 0.717 0.0933 -0.0446
C20 C 0.8130(3) 0.13717(16) -0.1802(3)
H11 H 0.8465 0.0992 -0.2143
C21 C 0.8412(3) 0.19644(18) -0.2322(3)
H12 H 0.893 0.1985 -0.3015
C22 C 0.7925(4) 0.25252(18) -0.1811(3)
H13 H 0.8117 0.2927 -0.2153
C23 C 0.7146(4) 0.24884(17) -0.0783(3)
H14 H 0.6817 0.2869 -0.0441
C24 C 0.5191(4) -0.15858(17) 0.3691(3)
H15 H 0.5889 -0.1625 0.3099
H16 H 0.5632 -0.1671 0.4509
H17 H 0.4438 -0.1894 0.3496
C25 C 0.0485(4) -0.1349(2) 0.7538(4)
H18 H -0.033 -0.116 0.7077
H19 H 0.0204 -0.1738 0.7943
H20 H 0.0873 -0.1044 0.815
C26 C 0.0951(4) 0.09215(19) 0.6343(3)
H21 H 0.1408 0.0789 0.7131
H22 H 0.0852 0.1386 0.6328
H23 H 0.0025 0.0724 0.6221
N1 N 0.4603(2) -0.09280(12) 0.3644(2)
O1 O 0.3239(3) 0.09586(11) 0.3482(2)
O2 O 0.6212(3) 0.03892(13) 0.1268(2)
O3 O 0.1550(3) -0.15055(12) 0.6705(2)
O4 O 0.1797(2) 0.07211(11) 0.5373(2)
C1 C 0.1409(3) 0.42608(15) 0.0557(2)
C2 C 0.1916(3) 0.38024(16) -0.0243(3)
H1 H 0.1567 0.3379 -0.0257
C3 C 0.2943(3) 0.39811(16) -0.1015(3)
C4 C 0.3384(3) 0.46238(16) -0.1078(3)
H2 H 0.4036 0.4744 -0.1635
C5 C 0.2851(3) 0.50826(15) -0.0312(3)
C6 C 0.1889(3) 0.49128(14) 0.0579(2)
C7 C 0.1421(3) 0.53776(15) 0.1486(3)
C8 C 0.0495(3) 0.51080(15) 0.2365(3)
C9 C 0.0005(3) 0.44891(15) 0.2221(3)
H3 H -0.0647 0.4344 0.2758
C10 C -0.0024(3) 0.54937(16) 0.3387(3)
C11 C 0.0970(3) 0.59685(16) 0.4076(3)
C12 C 0.2373(4) 0.57756(19) 0.4379(3)
H4 H 0.2678 0.5377 0.4094
C13 C 0.3321(4) 0.6159(2) 0.5090(3)
H5 H 0.4249 0.6017 0.5294
C14 C 0.2882(4) 0.6755(2) 0.5496(3)
H6 H 0.3517 0.7019 0.5973
C15 C 0.1496(4) 0.69587(18) 0.5193(3)
H7 H 0.1211 0.7362 0.5471
C16 C 0.0511(3) 0.65763(16) 0.4480(3)
C17 C -0.0963(3) 0.68497(17) 0.4152(3)
H8 H -0.0876 0.728 0.3799
H9 H -0.1458 0.6576 0.3524
C18 C -0.1850(3) 0.68959(16) 0.5256(3)
C19 C -0.2356(3) 0.63369(16) 0.5785(3)
H10 H -0.217 0.5933 0.5446
C20 C -0.3130(3) 0.63717(16) 0.6802(3)
H11 H -0.3465 0.5992 0.7143
C21 C -0.3412(3) 0.69644(18) 0.7322(3)
H12 H -0.393 0.6985 0.8015
C22 C -0.2925(4) 0.75252(18) 0.6811(3)
H13 H -0.3117 0.7927 0.7153
C23 C -0.2146(4) 0.74884(17) 0.5783(3)
H14 H -0.1817 0.7869 0.5441
C24 C -0.0191(4) 0.34142(17) 0.1309(3)
H15 H -0.0889 0.3375 0.1901
H16 H -0.0632 0.3329 0.0491
H17 H 0.0562 0.3106 0.1504
C25 C 0.4515(4) 0.3651(2) -0.2538(4)
H18 H 0.533 0.384 -0.2077
H19 H 0.4796 0.3262 -0.2943
H20 H 0.4127 0.3956 -0.315
C26 C 0.4049(4) 0.59215(19) -0.1343(3)
H21 H 0.3592 0.5789 -0.2131
H22 H 0.4148 0.6386 -0.1328
H23 H 0.4975 0.5724 -0.1221
N1 N 0.0397(2) 0.40720(12) 0.1356(2)
O1 O 0.1761(3) 0.59586(11) 0.1518(2)
O2 O -0.1212(3) 0.53892(13) 0.3732(2)
O3 O 0.3450(3) 0.34945(12) -0.1705(2)
O4 O 0.3203(2) 0.57211(11) -0.0373(2)

#END
