
#######################################################################
#
#                 Cambridge Crystallographic Data Centre
#                                CCDC 
#
#######################################################################
#
# If this CIF has been generated from an entry in the Cambridge 
# Structural Database, then it will include bibliographic, chemical, 
# crystal, experimental, refinement or atomic coordinate data resulting 
# from the CCDC's data processing and validation procedures.
#
#######################################################################

data_LADMEK
_symmetry_cell_setting           monoclinic
_symmetry_space_group_name_H-M   'P 21/n'
_symmetry_Int_Tables_number      14
_space_group_name_Hall           '-P 2yn'
loop_
_symmetry_equiv_pos_site_id
_symmetry_equiv_pos_as_xyz
1 x,y,z
2 1/2-x,1/2+y,1/2-z
3 -x,-y,-z
4 1/2+x,1/2-y,1/2+z
_cell_length_a                   7.4452(4)
_cell_length_b                   18.2686(9)
_cell_length_c                   16.1705(7)
_cell_angle_alpha                90
_cell_angle_beta                 97.746(2)
_cell_angle_gamma                90
_cell_volume                     2179.34
loop_
_atom_site_label
_atom_site_type_symbol
_atom_site_fract_x
_atom_site_fract_y
_atom_site_fract_z
C1 C 0.1276(2) 0.17571(9) 0.35496(11)
C2 C 0.2144(3) 0.24339(10) 0.36163(12)
H1 H 0.2922 0.2555 0.4112
C3 C 0.1637(2) 0.11966(9) 0.42194(10)
C4 C 0.1619(2) 0.13703(10) 0.50768(11)
C5 C 0.1883(3) 0.29330(10) 0.29645(13)
H2 H 0.2479 0.3394 0.3017
C6 C 0.1985(2) 0.08282(10) 0.56761(11)
C7 C 0.0764(3) 0.27630(11) 0.22425(13)
H3 H 0.0594 0.3105 0.1796
C8 C 0.2452(2) 0.01139(9) 0.54141(11)
C9 C 0.2995(2) -0.04753(10) 0.59633(12)
H4 H 0.3070 -0.0403 0.6549
C10 C -0.0114(3) 0.20928(11) 0.21671(12)
H5 H -0.0896 0.1976 0.1671
C11 C 0.0148(2) 0.15968(10) 0.28133(11)
H6 H -0.0451 0.1137 0.2756
C12 C 0.3410(2) -0.11441(10) 0.56641(12)
H7 H 0.3761 -0.1532 0.6043
C13 C 0.3325(2) -0.12650(10) 0.48079(12)
H8 H 0.3595 -0.1736 0.4607
C14 C 0.2855(2) -0.07098(10) 0.42596(12)
H9 H 0.2816 -0.0794 0.3678
C15 C 0.2426(2) -0.00106(9) 0.45461(11)
C16 C 0.1123(2) 0.20853(10) 0.53409(11)
C17 C 0.0750(2) 0.26624(10) 0.56274(11)
C18 C 0.0408(2) 0.33591(9) 0.59902(11)
C19 C -0.0419(3) 0.34040(10) 0.67100(12)
H10 H -0.0795 0.2970 0.6961
C20 C -0.0695(3) 0.40769(11) 0.70633(12)
H11 H -0.1282 0.4105 0.7549
C21 C -0.0117(3) 0.47098(11) 0.67078(12)
H12 H -0.0292 0.5173 0.6952
C22 C 0.0711(3) 0.46645(10) 0.60016(12)
H13 H 0.1119 0.5098 0.5762
C23 C 0.0955(3) 0.39991(10) 0.56379(12)
H14 H 0.1503 0.3977 0.5141
C24 C 0.1919(3) 0.10255(11) 0.65575(12)
H15 H 0.2474 0.1474 0.6748
C25 C 0.1177(3) 0.06447(11) 0.70911(13)
H16 H 0.0692 0.0181 0.6912
C26 C 0.1013(3) 0.08677(11) 0.79652(12)
C27 C -0.0120(3) 0.04585(11) 0.83933(13)
H17 H -0.0761 0.0057 0.8122
C28 C -0.0335(3) 0.06186(12) 0.91914(13)
H18 H -0.1147 0.0335 0.9465
C29 C 0.0601(3) 0.11845(12) 0.96127(13)
H19 H 0.0460 0.1284 1.0177
C30 C 0.1754(3) 0.16088(12) 0.92051(13)
H20 H 0.2404 0.2004 0.9486
C31 C 0.1951(3) 0.14496(11) 0.83768(12)
H21 H 0.2731 0.1741 0.8093
N1 N 0.19945(19) 0.05291(8) 0.39621(9)
C1 C 0.3724(2) 0.67571(9) 1.14504(11)
C2 C 0.2856(3) 0.74339(10) 1.13837(12)
H1 H 0.2078 0.7555 1.0888
C3 C 0.3363(2) 0.61966(9) 1.07806(10)
C4 C 0.3381(2) 0.63703(10) 0.99232(11)
C5 C 0.3117(3) 0.79330(10) 1.20355(13)
H2 H 0.2521 0.8394 1.1983
C6 C 0.3015(2) 0.58282(10) 0.93239(11)
C7 C 0.4236(3) 0.77630(11) 1.27575(13)
H3 H 0.4406 0.8105 1.3204
C8 C 0.2548(2) 0.51139(9) 0.95859(11)
C9 C 0.2005(2) 0.45247(10) 0.90367(12)
H4 H 0.1930 0.4597 0.8451
C10 C 0.5114(3) 0.70928(11) 1.28329(12)
H5 H 0.5896 0.6976 1.3329
C11 C 0.4852(2) 0.65968(10) 1.21867(11)
H6 H 0.5451 0.6137 1.2244
C12 C 0.1590(2) 0.38559(10) 0.93359(12)
H7 H 0.1239 0.3468 0.8957
C13 C 0.1675(2) 0.37350(10) 1.01921(12)
H8 H 0.1405 0.3264 1.0393
C14 C 0.2145(2) 0.42902(10) 1.07404(12)
H9 H 0.2184 0.4206 1.1322
C15 C 0.2574(2) 0.49894(9) 1.04539(11)
C16 C 0.3877(2) 0.70853(10) 0.96591(11)
C17 C 0.4250(2) 0.76624(10) 0.93726(11)
C18 C 0.4592(2) 0.83591(9) 0.90098(11)
C19 C 0.5419(3) 0.84040(10) 0.82900(12)
H10 H 0.5795 0.7970 0.8039
C20 C 0.5695(3) 0.90769(11) 0.79367(12)
H11 H 0.6282 0.9105 0.7451
C21 C 0.5117(3) 0.97098(11) 0.82922(12)
H12 H 0.5292 1.0173 0.8048
C22 C 0.4289(3) 0.96645(10) 0.89984(12)
H13 H 0.3881 1.0098 0.9238
C23 C 0.4045(3) 0.89991(10) 0.93621(12)
H14 H 0.3497 0.8977 0.9859
C24 C 0.3081(3) 0.60255(11) 0.84425(12)
H15 H 0.2526 0.6474 0.8252
C25 C 0.3823(3) 0.56447(11) 0.79089(13)
H16 H 0.4308 0.5181 0.8088
C26 C 0.3987(3) 0.58677(11) 0.70348(12)
C27 C 0.5120(3) 0.54585(11) 0.66067(13)
H17 H 0.5761 0.5057 0.6878
C28 C 0.5335(3) 0.56186(12) 0.58086(13)
H18 H 0.6147 0.5335 0.5535
C29 C 0.4399(3) 0.61845(12) 0.53873(13)
H19 H 0.4540 0.6284 0.4823
C30 C 0.3246(3) 0.66088(12) 0.57949(13)
H20 H 0.2596 0.7004 0.5514
C31 C 0.3049(3) 0.64496(11) 0.66232(12)
H21 H 0.2269 0.6741 0.6907
N1 N 0.30055(19) 0.55291(8) 1.10379(9)
C1 C 0.8724(2) 0.82429(9) 0.64504(11)
C2 C 0.7856(3) 0.75661(10) 0.63837(12)
H1 H 0.7078 0.7445 0.5888
C3 C 0.8363(2) 0.88034(9) 0.57806(10)
C4 C 0.8381(2) 0.86297(10) 0.49232(11)
C5 C 0.8117(3) 0.70670(10) 0.70355(13)
H2 H 0.7521 0.6606 0.6983
C6 C 0.8015(2) 0.91718(10) 0.43239(11)
C7 C 0.9236(3) 0.72370(11) 0.77575(13)
H3 H 0.9406 0.6895 0.8204
C8 C 0.7548(2) 0.98861(9) 0.45859(11)
C9 C 0.7005(2) 1.04753(10) 0.40367(12)
H4 H 0.6930 1.0403 0.3451
C10 C 1.0114(3) 0.79072(11) 0.78329(12)
H5 H 1.0896 0.8024 0.8329
C11 C 0.9852(2) 0.84032(10) 0.71867(11)
H6 H 1.0451 0.8863 0.7244
C12 C 0.6590(2) 1.11441(10) 0.43359(12)
H7 H 0.6239 1.1532 0.3957
C13 C 0.6675(2) 1.12650(10) 0.51921(12)
H8 H 0.6405 1.1736 0.5393
C14 C 0.7145(2) 1.07098(10) 0.57404(12)
H9 H 0.7184 1.0794 0.6322
C15 C 0.7574(2) 1.00106(9) 0.54539(11)
C16 C 0.8877(2) 0.79147(10) 0.46591(11)
C17 C 0.9250(2) 0.73376(10) 0.43726(11)
C18 C 0.9592(2) 0.66409(9) 0.40098(11)
C19 C 1.0419(3) 0.65960(10) 0.32900(12)
H10 H 1.0795 0.7030 0.3039
C20 C 1.0695(3) 0.59231(11) 0.29367(12)
H11 H 1.1282 0.5895 0.2451
C21 C 1.0117(3) 0.52902(11) 0.32922(12)
H12 H 1.0292 0.4827 0.3048
C22 C 0.9289(3) 0.53355(10) 0.39984(12)
H13 H 0.8881 0.4902 0.4238
C23 C 0.9045(3) 0.60009(10) 0.43621(12)
H14 H 0.8497 0.6023 0.4859
C24 C 0.8081(3) 0.89745(11) 0.34425(12)
H15 H 0.7526 0.8526 0.3252
C25 C 0.8823(3) 0.93553(11) 0.29089(13)
H16 H 0.9308 0.9819 0.3088
C26 C 0.8987(3) 0.91323(11) 0.20348(12)
C27 C 1.0120(3) 0.95415(11) 0.16067(13)
H17 H 1.0761 0.9943 0.1878
C28 C 1.0335(3) 0.93814(12) 0.08086(13)
H18 H 1.1147 0.9665 0.0535
C29 C 0.9399(3) 0.88155(12) 0.03873(13)
H19 H 0.9540 0.8716 -0.0177
C30 C 0.8246(3) 0.83912(12) 0.07949(13)
H20 H 0.7596 0.7996 0.0514
C31 C 0.8049(3) 0.85504(11) 0.16232(12)
H21 H 0.7269 0.8259 0.1907
N1 N 0.80055(19) 0.94709(8) 0.60379(9)
C1 C 0.6276(2) 0.32429(9) -0.14504(11)
C2 C 0.7144(3) 0.25661(10) -0.13837(12)
H1 H 0.7922 0.2445 -0.0888
C3 C 0.6637(2) 0.38034(9) -0.07806(10)
C4 C 0.6619(2) 0.36297(10) 0.00768(11)
C5 C 0.6883(3) 0.20670(10) -0.20355(13)
H2 H 0.7479 0.1606 -0.1983
C6 C 0.6985(2) 0.41718(10) 0.06761(11)
C7 C 0.5764(3) 0.22370(11) -0.27575(13)
H3 H 0.5594 0.1895 -0.3204
C8 C 0.7452(2) 0.48861(9) 0.04141(11)
C9 C 0.7995(2) 0.54753(10) 0.09633(12)
H4 H 0.8070 0.5403 0.1549
C10 C 0.4886(3) 0.29072(11) -0.28329(12)
H5 H 0.4104 0.3024 -0.3329
C11 C 0.5148(2) 0.34032(10) -0.21867(11)
H6 H 0.4549 0.3863 -0.2244
C12 C 0.8410(2) 0.61441(10) 0.06641(12)
H7 H 0.8761 0.6532 0.1043
C13 C 0.8325(2) 0.62650(10) -0.01921(12)
H8 H 0.8595 0.6736 -0.0393
C14 C 0.7855(2) 0.57098(10) -0.07404(12)
H9 H 0.7816 0.5794 -0.1322
C15 C 0.7426(2) 0.50106(9) -0.04539(11)
C16 C 0.6123(2) 0.29147(10) 0.03409(11)
C17 C 0.5750(2) 0.23376(10) 0.06274(11)
C18 C 0.5408(2) 0.16409(9) 0.09902(11)
C19 C 0.4581(3) 0.15960(10) 0.17100(12)
H10 H 0.4205 0.2030 0.1961
C20 C 0.4305(3) 0.09231(11) 0.20633(12)
H11 H 0.3718 0.0895 0.2549
C21 C 0.4883(3) 0.02902(11) 0.17078(12)
H12 H 0.4708 -0.0173 0.1952
C22 C 0.5711(3) 0.03355(10) 0.10016(12)
H13 H 0.6119 -0.0098 0.0762
C23 C 0.5955(3) 0.10009(10) 0.06379(12)
H14 H 0.6503 0.1023 0.0141
C24 C 0.6919(3) 0.39745(11) 0.15575(12)
H15 H 0.7474 0.3526 0.1748
C25 C 0.6177(3) 0.43553(11) 0.20911(13)
H16 H 0.5692 0.4819 0.1912
C26 C 0.6013(3) 0.41323(11) 0.29652(12)
C27 C 0.4880(3) 0.45415(11) 0.33933(13)
H17 H 0.4239 0.4943 0.3122
C28 C 0.4665(3) 0.43814(12) 0.41914(13)
H18 H 0.3853 0.4665 0.4465
C29 C 0.5601(3) 0.38155(12) 0.46127(13)
H19 H 0.5460 0.3716 0.5177
C30 C 0.6754(3) 0.33912(12) 0.42051(13)
H20 H 0.7404 0.2996 0.4486
C31 C 0.6951(3) 0.35504(11) 0.33768(12)
H21 H 0.7731 0.3259 0.3093
N1 N 0.69945(19) 0.44709(8) -0.10379(9)

#END
