./LADNOT_from_POSCAR.cif_generated_by_CrystalShift
_symmetry_cell_setting triclinic
_symmetry_space_group_name_H-M 'P 1'
loop_
_symmetry_equiv_pos_site_id
_symmetry_equiv_pos_as_xyz
1 x,y,z
_cell_length_a 6.387000
_cell_length_b 20.590000
_cell_length_c 6.619000
_cell_angle_alpha 90.000000
_cell_angle_beta 104.050000
_cell_angle_gamma 90.000000
_cell_volume 844.413354
loop_
_atom_site_label
_atom_site_type_symbol
_atom_site_fract_x
_atom_site_fract_y
_atom_site_fract_z
H1 H 1.212300 1.136500 0.257800
H2 H 1.070700 0.690100 0.267800
H3 H 0.850200 0.656500 0.266300
H4 H 0.937700 0.773800 -0.007700
H5 H 0.999200 0.837800 0.121700
H6 H 0.796800 0.836500 -0.067700
H7 H 0.441900 0.747900 0.151000
H8 H 0.579600 0.715600 0.011900
H9 H 0.470600 0.783300 -0.050300
H10 H 0.977800 0.895500 0.392000
H11 H 0.897000 0.885100 0.595400
H12 H 1.072000 0.788900 0.649700
H13 H 1.161100 0.800600 0.452600
H14 H 0.894500 1.005800 0.135500
H15 H 0.557300 1.078800 0.045000
H16 H 0.356200 0.989400 0.041100
H17 H 0.274200 0.929600 -0.251900
H18 H 0.514100 0.928500 -0.269100
H19 H 0.230500 1.034300 -0.365700
H20 H 0.367500 1.005600 -0.510700
H21 H 0.526200 1.103800 -0.295700
H22 H -0.212300 0.636500 0.742200
H23 H -0.025500 0.164600 0.523700
H24 H -0.070700 0.190100 0.732200
H25 H 0.149800 0.156500 0.733700
H26 H 0.062300 0.273800 1.007700
H27 H 0.473800 0.603800 1.295700
H28 H 0.632500 0.505600 1.510700
H29 H 0.769500 0.534300 1.365700
H30 H 0.485900 0.428500 1.269100
H31 H 0.725800 0.429600 1.251900
H32 H 0.643800 0.489400 0.958900
H33 H 0.442700 0.578800 0.955000
H34 H 0.105500 0.505800 0.864500
H35 H -0.161100 0.300600 0.547400
H36 H -0.072000 0.288900 0.350300
H37 H 0.103000 0.385100 0.404600
H38 H 0.022200 0.395500 0.608000
H39 H 0.529400 0.283300 1.050300
H40 H 0.420400 0.215600 0.988100
H41 H 0.558100 0.247900 0.849000
H42 H 0.203200 0.336500 1.067700
H43 H 0.000800 0.337800 0.878300
H44 H 1.025500 0.664600 0.476300
C45 C 0.038000 0.184200 0.656000
C46 C 0.118300 0.311700 0.954200
C47 C 0.460400 0.256100 0.935700
C48 C 0.257100 0.290100 0.810200
C49 C 0.239700 0.538200 1.325100
C50 C 0.442800 0.558800 1.264700
C51 C 0.633900 0.514800 1.368900
C52 C 0.596300 0.454800 1.234700
C53 C 0.520500 0.480900 1.013800
C54 C 0.393900 0.544200 1.029300
C55 C 0.148600 0.540100 0.964300
C56 C 0.042800 0.603400 0.877800
C57 C 0.760300 1.038200 -0.325100
C58 C 0.557200 1.058800 -0.264700
C59 C 0.366100 1.014800 -0.368900
C60 C 0.403700 0.954800 -0.234700
C61 C 0.479500 0.980900 -0.013800
C62 C 0.606100 1.044200 -0.029300
C63 C 0.851400 1.040100 0.035700
C64 C 0.957200 1.103400 0.122200
C65 C 0.689800 0.843400 0.336100
C66 C 0.695000 0.747200 0.500600
C67 C 0.866400 0.749600 0.381800
C68 C 1.033100 0.799700 0.504300
C69 C 0.909500 0.865600 0.467200
C70 C 0.742900 0.790100 0.189800
C71 C 0.539600 0.756100 0.064300
C72 C 0.881700 0.811700 0.045800
C73 C 0.962000 0.684200 0.344000
C74 C 0.528000 0.894900 0.234400
C75 C 0.090500 0.365600 0.532800
C76 C -0.033100 0.299700 0.495700
C77 C 0.133600 0.249600 0.618200
C78 C 0.305000 0.247200 0.499400
C79 C 0.310200 0.343400 0.663900
C80 C 0.472000 0.394900 0.765600
O81 O 0.642600 0.705200 0.606500
O82 O 0.591200 0.805700 0.476800
O83 O 1.167800 1.097400 0.196700
O84 O 0.862500 1.154500 0.119900
O85 O 0.619500 0.933700 0.119500
O86 O 0.789300 1.031100 -0.496100
O87 O 0.922600 1.025500 -0.152300
O88 O 0.654700 0.398100 0.751300
O89 O 0.357400 0.205200 0.393500
O90 O 0.408800 0.305700 0.523200
O91 O -0.167800 0.597400 0.803300
O92 O 0.137500 0.654500 0.880100
O93 O 0.380500 0.433700 0.880500
O94 O 0.210700 0.531100 1.496100
O95 O 0.345300 0.898100 0.248700
O96 O 0.077400 0.525500 1.152300

#END
