
#######################################################################
#
#                 Cambridge Crystallographic Data Centre
#                                CCDC 
#
#######################################################################
#
# If this CIF has been generated from an entry in the Cambridge 
# Structural Database, then it will include bibliographic, chemical, 
# crystal, experimental, refinement or atomic coordinate data resulting 
# from the CCDC's data processing and validation procedures.
#
#######################################################################

data_LADRAL
_symmetry_cell_setting           triclinic
_symmetry_space_group_name_H-M   'P -1'
_symmetry_Int_Tables_number      2
_space_group_name_Hall           '-P 1'
loop_
_symmetry_equiv_pos_site_id
_symmetry_equiv_pos_as_xyz
1 x,y,z
2 -x,-y,-z
_cell_length_a                   10.1154(4)
_cell_length_b                   11.2639(6)
_cell_length_c                   11.3527(6)
_cell_angle_alpha                69.524(1)
_cell_angle_beta                 74.699(1)
_cell_angle_gamma                83.560(2)
_cell_volume                     1168.55
loop_
_atom_site_label
_atom_site_type_symbol
_atom_site_fract_x
_atom_site_fract_y
_atom_site_fract_z
Cu1 Cu 0.36055(7) 0.71354(6) 0.95701(7)
O1 O 0.3680(6) 0.5916(4) 0.8465(5)
H1 H 0.378(10) 0.509(2) 0.884(8)
H2 H 0.298(5) 0.592(8) 0.814(7)
N1 N 0.1888(5) 0.8225(4) 0.9225(5)
N2 N 0.2012(5) 0.9513(4) 0.8788(5)
N3 N 0.4395(5) 0.9699(4) 0.7812(5)
N4 N 0.4748(5) 0.8441(4) 0.8052(5)
C1 C 0.3271(5) 1.0011(5) 0.8761(6)
H3 H 0.3468 0.9650 0.9628
H4 H 0.3178 1.0943 0.8540
C2 C 0.5205(6) 1.0436(5) 0.6705(6)
C3 C 0.6111(6) 0.9609(6) 0.6212(5)
C4 C 0.5804(6) 0.8370(6) 0.7072(6)
C5 C 0.0673(6) 0.8000(6) 0.9091(6)
C6 C 0.0034(5) 0.9182(5) 0.8546(5)
C7 C 0.0907(6) 1.0122(5) 0.8372(5)
C8 C 0.5094(7) 1.1839(6) 0.6202(7)
H5 H 0.4126 1.2105 0.6350
H6 H 0.5522 1.2145 0.5271
H7 H 0.5563 1.2196 0.6652
C9 C 0.6521(7) 0.7169(7) 0.7008(7)
H8 H 0.6374 0.6541 0.7881
H9 H 0.7505 0.7317 0.6644
H10 H 0.6160 0.6852 0.6455
C10 C 0.0123(7) 0.6706(6) 0.9498(7)
H11 H 0.0823 0.6071 0.9780
H12 H -0.0120 0.6590 0.8766
H13 H -0.0693 0.6606 1.0216
C11 C 0.0764(6) 1.1529(6) 0.7837(6)
H14 H 0.1064 1.1910 0.8376
H15 H -0.0198 1.1766 0.7834
H16 H 0.1332 1.1835 0.6949
I1 I -0.17254(5) 0.94231(6) 0.80837(6)
I2 I 0.75679(6) 1.00984(6) 0.46140(5)
N5 N 0.2082(6) 0.6099(6) 1.2086(6)
N6 N 0.5664(5) 0.7289(5) 1.0762(5)
O2 O 0.2514(5) 0.5820(4) 1.1019(4)
O3 O 0.1280(7) 0.5385(6) 1.2976(6)
O4 O 0.2508(6) 0.7076(5) 1.2110(5)
O5 O 0.5257(5) 0.6505(4) 1.0329(4)
O6 O 0.6604(5) 0.6918(5) 1.1333(5)
O7 O 0.5111(5) 0.8344(4) 1.0602(5)
Cu1 Cu 0.63945(7) 0.28646(6) 0.04299(7)
O1 O 0.6320(6) 0.4084(4) 0.1535(5)
H1 H 0.622(10) 0.491(2) 0.116(8)
H2 H 0.702(5) 0.408(8) 0.186(7)
N1 N 0.8112(5) 0.1775(4) 0.0775(5)
N2 N 0.7988(5) 0.0487(4) 0.1212(5)
N3 N 0.5605(5) 0.0301(4) 0.2188(5)
N4 N 0.5252(5) 0.1559(4) 0.1948(5)
C1 C 0.6729(5) -0.0011(5) 0.1239(6)
H3 H 0.6532 0.0350 0.0372
H4 H 0.6822 -0.0943 0.1460
C2 C 0.4795(6) -0.0436(5) 0.3295(6)
C3 C 0.3889(6) 0.0391(6) 0.3788(5)
C4 C 0.4196(6) 0.1630(6) 0.2928(6)
C5 C 0.9327(6) 0.2000(6) 0.0909(6)
C6 C 0.9966(5) 0.0818(5) 0.1454(5)
C7 C 0.9093(6) -0.0122(5) 0.1628(5)
C8 C 0.4906(7) -0.1839(6) 0.3798(7)
H5 H 0.5874 -0.2105 0.3650
H6 H 0.4478 -0.2145 0.4729
H7 H 0.4437 -0.2196 0.3348
C9 C 0.3479(7) 0.2831(7) 0.2992(7)
H8 H 0.3626 0.3459 0.2119
H9 H 0.2495 0.2683 0.3356
H10 H 0.3840 0.3148 0.3545
C10 C 0.9877(7) 0.3294(6) 0.0502(7)
H11 H 0.9177 0.3929 0.0220
H12 H 1.0120 0.3410 0.1234
H13 H 1.0693 0.3394 -0.0216
C11 C 0.9236(6) -0.1529(6) 0.2163(6)
H14 H 0.8936 -0.1910 0.1624
H15 H 1.0198 -0.1766 0.2166
H16 H 0.8668 -0.1835 0.3051
I1 I 1.17254(5) 0.05769(6) 0.19163(6)
I2 I 0.24321(6) -0.00984(6) 0.53860(5)
N5 N 0.7918(6) 0.3901(6) -0.2086(6)
N6 N 0.4336(5) 0.2711(5) -0.0762(5)
O2 O 0.7486(5) 0.4180(4) -0.1019(4)
O3 O 0.8720(7) 0.4615(6) -0.2976(6)
O4 O 0.7492(6) 0.2924(5) -0.2110(5)
O5 O 0.4743(5) 0.3495(4) -0.0329(4)
O6 O 0.3396(5) 0.3082(5) -0.1333(5)
O7 O 0.4889(5) 0.1656(4) -0.0602(5)
C12 C 0.2240(12) 0.5023(9) 0.5792(11)
H17 H 0.2941 0.4664 0.6279
H18 H 0.2649 0.5197 0.4865
H19 H 0.1500 0.4418 0.6081
C13 C 0.1672(8) 0.6231(7) 0.6020(7)
C14 C 0.0717(8) 0.6999(7) 0.5230(8)
H20 H 0.0375 0.7734 0.5504
H21 H -0.0055 0.6479 0.5354
H22 H 0.1203 0.7289 0.4313
O8 O 0.1997(8) 0.6569(6) 0.6794(6)
C12 C 0.7760(12) 0.4977(9) 0.4208(11)
H17 H 0.7059 0.5336 0.3721
H18 H 0.7351 0.4803 0.5135
H19 H 0.8500 0.5582 0.3919
C13 C 0.8328(8) 0.3769(7) 0.3980(7)
C14 C 0.9283(8) 0.3001(7) 0.4770(8)
H20 H 0.9625 0.2266 0.4496
H21 H 1.0055 0.3521 0.4646
H22 H 0.8797 0.2711 0.5687
O8 O 0.8003(8) 0.3431(6) 0.3206(6)

#END
