./LADSER_from_POSCAR.cif_generated_by_CrystalShift
_symmetry_cell_setting triclinic
_symmetry_space_group_name_H-M 'P 1'
loop_
_symmetry_equiv_pos_site_id
_symmetry_equiv_pos_as_xyz
1 x,y,z
_cell_length_a 7.368200
_cell_length_b 8.757900
_cell_length_c 12.428000
_cell_angle_alpha 104.397000
_cell_angle_beta 98.594000
_cell_angle_gamma 108.481000
_cell_volume 713.630334
loop_
_atom_site_label
_atom_site_type_symbol
_atom_site_fract_x
_atom_site_fract_y
_atom_site_fract_z
H1 H 0.133000 0.903000 0.493000
H2 H -0.093000 0.363000 0.140000
H3 H 0.576000 0.900000 0.752000
H4 H 0.867000 0.097000 0.507000
H5 H 0.783000 0.630000 0.476000
H6 H 0.910000 0.073000 0.623000
H7 H 0.214000 0.188000 -0.031000
H8 H 0.253000 0.003000 0.064000
H9 H 0.713000 -0.058000 0.534000
H10 H 0.382000 0.477000 0.067000
H11 H 0.424000 0.100000 0.248000
H12 H 1.093000 0.637000 0.860000
H13 H 0.596000 0.229000 0.434000
H14 H 0.618000 0.523000 0.933000
H15 H 0.217000 0.370000 0.524000
H16 H 0.090000 0.927000 0.377000
H17 H 0.786000 0.812000 1.031000
H18 H 0.747000 0.997000 0.936000
H19 H 0.287000 1.058000 0.466000
H20 H 0.404000 0.771000 0.566000
C21 C 0.796400 0.327600 0.641400
C22 C 0.911900 0.410000 0.751700
C23 C 1.013100 0.583800 0.788800
C24 C 0.994700 0.677000 0.717700
C25 C 0.874000 0.600000 0.606400
C26 C 0.774700 0.422000 0.567300
C27 C 0.652500 0.338100 0.451800
C28 C 0.420500 0.177600 0.213800
C29 C 0.312800 0.117800 0.101600
C30 C 0.295800 0.228600 0.043800
C31 C 0.484100 0.650200 0.729900
C32 C 0.500600 0.540000 0.791800
C33 C 0.612600 0.601100 0.903600
C34 C 0.704200 0.771400 0.956200
C35 C 0.687200 0.882200 0.898400
C36 C 0.579500 0.822400 0.786200
C37 C 0.347500 0.661900 0.548200
C38 C 0.225300 0.578000 0.432700
C39 C 0.126000 0.400000 0.393600
C40 C 0.005300 0.323000 0.282300
C41 C -0.013100 0.416200 0.211200
C42 C 0.088100 0.590000 0.248300
C43 C 0.203600 0.672400 0.358600
C44 C 0.196000 0.944200 0.437000
C45 C 0.387400 0.398900 0.096400
C46 C 0.499400 0.460000 0.208200
C47 C 0.804000 0.055800 0.563000
C48 C 0.515900 0.349800 0.270100
N49 N 0.630800 0.422900 0.384500
N50 N 0.369200 0.577100 0.615500
O51 O 0.144400 0.304600 0.458870
O52 O 0.855600 0.695400 0.541130
O53 O 0.692300 0.156200 0.603050
O54 O 0.307700 0.843800 0.396950
Cl55 Cl 0.619250 0.677230 0.272050
Cl56 Cl 1.123270 0.893710 0.763470
Cl57 Cl -0.123270 0.106290 0.236530
Cl58 Cl 0.072980 0.703420 0.153430
Cl59 Cl 0.927020 0.296580 0.846570
Cl60 Cl 0.380750 0.322770 0.727950

#END
