
#######################################################################
#
#                 Cambridge Crystallographic Data Centre
#                                CCDC 
#
#######################################################################
#
# If this CIF has been generated from an entry in the Cambridge 
# Structural Database, then it will include bibliographic, chemical, 
# crystal, experimental, refinement or atomic coordinate data resulting 
# from the CCDC's data processing and validation procedures.
#
#######################################################################

data_LADTIT
_symmetry_cell_setting           orthorhombic
_symmetry_space_group_name_H-M   'P 21 21 21'
_symmetry_Int_Tables_number      19
_space_group_name_Hall           'P 2ac 2ab'
loop_
_symmetry_equiv_pos_site_id
_symmetry_equiv_pos_as_xyz
1 x,y,z
2 1/2+x,1/2-y,-z
3 -x,1/2+y,1/2-z
4 1/2-x,-y,1/2+z
_cell_length_a                   8.741(2)
_cell_length_b                   9.504(3)
_cell_length_c                   13.894(4)
_cell_angle_alpha                90
_cell_angle_beta                 90
_cell_angle_gamma                90
_cell_volume                     1154.24
loop_
_atom_site_label
_atom_site_type_symbol
_atom_site_fract_x
_atom_site_fract_y
_atom_site_fract_z
N1 N 0.9857(2) 0.8120(2) 0.7983(1)
N2 N 0.9511(2) 1.0344(2) 0.7596(1)
C1 C 0.7351(2) 0.6595(2) 0.9190(2)
C2 C 0.7294(2) 0.5398(2) 0.9777(2)
C3 C 0.6429(3) 0.4225(2) 0.9491(2)
C4 C 0.5621(3) 0.4280(3) 0.8647(2)
C5 C 0.5619(3) 0.5464(4) 0.8085(2)
C6 C 0.6499(3) 0.6624(3) 0.8344(2)
C7 C 0.8112(3) 0.5342(3) 1.0725(2)
C8 C 0.6392(4) 0.2902(3) 1.0096(3)
C9 C 0.8266(2) 0.7897(2) 0.9480(1)
C10 C 0.7333(3) 0.8833(3) 1.0158(2)
C11 C 0.8865(2) 0.8719(2) 0.8638(2)
C12 C 1.0202(3) 0.9141(2) 0.7382(2)
C13 C 0.8653(3) 1.0089(2) 0.8403(2)
H1 H 0.509(3) 0.337(3) 0.843(2)
H2 H 0.508(3) 0.551(3) 0.750(2)
H3 H 0.648(3) 0.747(2) 0.796(2)
H4 H 0.752(4) 0.504(3) 1.124(2)
H5 H 0.868(3) 0.627(3) 1.093(2)
H6 H 0.886(4) 0.458(4) 1.078(3)
H7 H 0.573(4) 0.219(4) 0.974(3)
H8 H 0.593(4) 0.308(4) 1.078(3)
H9 H 0.748(4) 0.248(3) 1.018(3)
H10 H 0.918(2) 0.760(2) 0.983(2)
H11 H 0.794(3) 0.968(3) 1.038(2)
H12 H 0.641(3) 0.922(3) 0.984(2)
H13 H 0.699(3) 0.830(3) 1.074(2)
H14 H 1.087(3) 0.910(3) 0.686(2)
H15 H 0.966(3) 1.124(3) 0.733(2)
H16 H 0.808(3) 1.082(2) 0.873(1)
N1 N 0.4857(2) 0.6880(2) 0.2017(1)
N2 N 0.4511(2) 0.4656(2) 0.2404(1)
C1 C 0.2351(2) 0.8405(2) 0.0810(2)
C2 C 0.2294(2) 0.9602(2) 0.0223(2)
C3 C 0.1429(3) 1.0775(2) 0.0509(2)
C4 C 0.0621(3) 1.0720(3) 0.1353(2)
C5 C 0.0619(3) 0.9536(4) 0.1915(2)
C6 C 0.1499(3) 0.8376(3) 0.1656(2)
C7 C 0.3112(3) 0.9658(3) -0.0725(2)
C8 C 0.1392(4) 1.2098(3) -0.0096(3)
C9 C 0.3266(2) 0.7103(2) 0.0520(1)
C10 C 0.2333(3) 0.6167(3) -0.0158(2)
C11 C 0.3865(2) 0.6281(2) 0.1362(2)
C12 C 0.5202(3) 0.5859(2) 0.2618(2)
C13 C 0.3653(3) 0.4911(2) 0.1597(2)
H1 H 0.009(3) 1.163(3) 0.157(2)
H2 H 0.008(3) 0.949(3) 0.250(2)
H3 H 0.148(3) 0.753(2) 0.204(2)
H4 H 0.252(4) 0.996(3) -0.124(2)
H5 H 0.368(3) 0.873(3) -0.093(2)
H6 H 0.386(4) 1.042(4) -0.078(3)
H7 H 0.073(4) 1.281(4) 0.026(3)
H8 H 0.093(4) 1.192(4) -0.078(3)
H9 H 0.248(4) 1.252(3) -0.018(3)
H10 H 0.418(2) 0.740(2) 0.017(2)
H11 H 0.294(3) 0.532(3) -0.038(2)
H12 H 0.141(3) 0.578(3) 0.016(2)
H13 H 0.199(3) 0.670(3) -0.074(2)
H14 H 0.587(3) 0.590(3) 0.314(2)
H15 H 0.466(3) 0.376(3) 0.267(2)
H16 H 0.308(3) 0.418(2) 0.127(1)
N1 N 0.0143(2) 0.3120(2) 0.7017(1)
N2 N 0.0489(2) 0.5344(2) 0.7404(1)
C1 C 0.2649(2) 0.1595(2) 0.5810(2)
C2 C 0.2706(2) 0.0398(2) 0.5223(2)
C3 C 0.3571(3) -0.0775(2) 0.5509(2)
C4 C 0.4379(3) -0.0720(3) 0.6353(2)
C5 C 0.4381(3) 0.0464(4) 0.6915(2)
C6 C 0.3501(3) 0.1624(3) 0.6656(2)
C7 C 0.1888(3) 0.0342(3) 0.4275(2)
C8 C 0.3608(4) -0.2098(3) 0.4904(3)
C9 C 0.1734(2) 0.2897(2) 0.5520(1)
C10 C 0.2667(3) 0.3833(3) 0.4842(2)
C11 C 0.1135(2) 0.3719(2) 0.6362(2)
C12 C -0.0202(3) 0.4141(2) 0.7618(2)
C13 C 0.1347(3) 0.5089(2) 0.6597(2)
H1 H 0.491(3) -0.163(3) 0.657(2)
H2 H 0.492(3) 0.051(3) 0.750(2)
H3 H 0.352(3) 0.247(2) 0.704(2)
H4 H 0.248(4) 0.004(3) 0.376(2)
H5 H 0.132(3) 0.127(3) 0.407(2)
H6 H 0.114(4) -0.042(4) 0.422(3)
H7 H 0.427(4) -0.281(4) 0.526(3)
H8 H 0.407(4) -0.192(4) 0.422(3)
H9 H 0.252(4) -0.252(3) 0.482(3)
H10 H 0.082(2) 0.260(2) 0.517(2)
H11 H 0.206(3) 0.468(3) 0.462(2)
H12 H 0.359(3) 0.422(3) 0.516(2)
H13 H 0.301(3) 0.330(3) 0.426(2)
H14 H -0.087(3) 0.410(3) 0.814(2)
H15 H 0.034(3) 0.624(3) 0.767(2)
H16 H 0.192(3) 0.582(2) 0.627(1)
N1 N 0.5143(2) 0.1880(2) 0.2983(1)
N2 N 0.5489(2) -0.0344(2) 0.2596(1)
C1 C 0.7649(2) 0.3405(2) 0.4190(2)
C2 C 0.7706(2) 0.4602(2) 0.4777(2)
C3 C 0.8571(3) 0.5775(2) 0.4491(2)
C4 C 0.9379(3) 0.5720(3) 0.3647(2)
C5 C 0.9381(3) 0.4536(4) 0.3085(2)
C6 C 0.8501(3) 0.3376(3) 0.3344(2)
C7 C 0.6888(3) 0.4658(3) 0.5725(2)
C8 C 0.8608(4) 0.7098(3) 0.5096(3)
C9 C 0.6734(2) 0.2103(2) 0.4480(1)
C10 C 0.7667(3) 0.1167(3) 0.5158(2)
C11 C 0.6135(2) 0.1281(2) 0.3638(2)
C12 C 0.4798(3) 0.0859(2) 0.2382(2)
C13 C 0.6347(3) -0.0089(2) 0.3403(2)
H1 H 0.991(3) 0.663(3) 0.343(2)
H2 H 0.992(3) 0.449(3) 0.250(2)
H3 H 0.852(3) 0.253(2) 0.296(2)
H4 H 0.748(4) 0.496(3) 0.624(2)
H5 H 0.632(3) 0.373(3) 0.593(2)
H6 H 0.614(4) 0.542(4) 0.578(3)
H7 H 0.927(4) 0.781(4) 0.474(3)
H8 H 0.907(4) 0.692(4) 0.578(3)
H9 H 0.752(4) 0.752(3) 0.518(3)
H10 H 0.582(2) 0.240(2) 0.483(2)
H11 H 0.706(3) 0.032(3) 0.538(2)
H12 H 0.859(3) 0.078(3) 0.484(2)
H13 H 0.801(3) 0.170(3) 0.574(2)
H14 H 0.413(3) 0.090(3) 0.186(2)
H15 H 0.534(3) -0.124(3) 0.233(2)
H16 H 0.692(3) -0.082(2) 0.373(1)

#END
