./LADVIV10_from_POSCAR.cif_generated_by_CrystalShift
_symmetry_cell_setting triclinic
_symmetry_space_group_name_H-M 'P 1'
loop_
_symmetry_equiv_pos_site_id
_symmetry_equiv_pos_as_xyz
1 x,y,z
_cell_length_a 15.185000
_cell_length_b 7.573500
_cell_length_c 8.818700
_cell_angle_alpha 90.000000
_cell_angle_beta 106.024000
_cell_angle_gamma 90.000000
_cell_volume 974.777344
loop_
_atom_site_label
_atom_site_type_symbol
_atom_site_fract_x
_atom_site_fract_y
_atom_site_fract_z
H1 H 0.381100 0.877000 0.315000
H2 H 0.363500 0.695000 0.942000
H3 H 0.504100 0.823000 0.913000
H4 H 0.371300 1.029000 0.830000
H5 H 0.459100 1.082000 0.795000
H6 H 0.400900 1.066000 0.536600
H7 H 0.304100 1.003700 0.567000
H8 H 0.468400 0.476600 0.846200
H9 H 0.401500 0.455000 0.569800
H10 H 0.118900 0.377000 1.185000
H11 H 0.065900 0.183000 1.126000
H12 H 0.434100 0.683000 0.374000
H13 H 0.245600 0.224000 1.299000
H14 H 0.254400 0.724000 0.201000
H15 H 0.804100 0.496300 0.067000
H16 H 0.900900 0.434000 0.036600
H17 H 0.959100 0.418000 0.295000
H18 H 0.871300 0.471000 0.330000
H19 H 1.004100 0.677000 0.413000
H20 H 0.863500 0.805000 0.442000
H21 H 0.873400 1.073000 0.371000
H22 H 0.968400 1.023400 0.346200
H23 H 0.901500 1.045000 0.069800
H24 H 0.804000 1.101000 0.107800
H25 H 0.704100 0.928000 -0.071300
H26 H 0.711300 0.723000 -0.068000
H27 H 0.798000 0.957000 -0.229000
H28 H 0.754400 0.776000 -0.299000
H29 H 0.934100 0.817000 -0.126000
H30 H 0.881100 0.623000 -0.185000
H31 H 0.202000 0.043000 1.229000
H32 H 0.288700 0.277000 1.068000
H33 H 0.295900 0.072000 1.071300
H34 H 0.196000 -0.101000 0.892200
H35 H 0.098500 -0.045000 0.930200
H36 H 0.031600 -0.023400 0.653800
H37 H 0.126600 -0.073000 0.629000
H38 H 0.136500 0.195000 0.558000
H39 H -0.004100 0.323000 0.587000
H40 H 0.128700 0.529000 0.670000
H41 H 0.040900 0.582000 0.705000
H42 H 0.298000 0.543000 0.271000
H43 H 0.099100 0.566000 0.963400
H44 H 0.211300 0.777000 0.432000
H45 H 0.695900 -0.003700 0.433000
H46 H 0.599100 -0.066000 0.463400
H47 H 0.540900 -0.082000 0.205000
H48 H 0.628700 -0.029000 0.170000
H49 H 0.495900 0.177000 0.087000
H50 H 0.636500 0.305000 0.058000
H51 H 0.626600 0.573000 0.129000
H52 H 0.531600 0.523400 0.153800
H53 H 0.598500 0.545000 0.430200
H54 H 0.696000 0.601000 0.392200
H55 H 0.795900 0.428000 0.571300
H56 H 0.788700 0.223000 0.568000
H57 H 0.702000 0.457000 0.729000
H58 H 0.745600 0.276000 0.799000
H59 H 0.565900 0.317000 0.626000
H60 H 0.618900 0.123000 0.685000
H61 H 0.195900 0.503700 0.933000
H62 H 0.304000 0.399000 0.607800
H63 H 0.204100 0.572000 0.428700
H64 H 0.373400 0.427000 0.871000
C65 C 0.121430 0.186090 0.657310
C66 C 0.100850 -0.005040 0.689930
C67 C 0.141740 -0.020180 0.871270
C68 C 0.181740 0.164430 0.917300
C69 C 0.259700 0.172400 1.067890
C70 C 0.210670 0.171900 1.196590
C71 C 0.117500 0.263800 1.127050
C72 C 0.086260 0.498540 0.726320
C73 C 0.022850 0.257960 0.828140
C74 C 0.130670 0.485610 0.907960
C75 C 0.110290 0.296580 0.953910
C76 C 0.522850 0.242040 0.328140
C77 C 0.617500 0.236200 0.627050
C78 C 0.710670 0.328100 0.696590
C79 C 0.759700 0.327600 0.567890
C80 C 0.681740 0.335570 0.417300
C81 C 0.641740 0.520180 0.371270
C82 C 0.600850 0.505040 0.189930
C83 C 0.621430 0.313910 0.157310
C84 C 0.545890 0.184870 0.179430
C85 C 0.586260 0.001460 0.226320
C86 C 0.630670 0.014390 0.407960
C87 C 0.610290 0.203420 0.453910
C88 C 0.977150 0.742040 0.171860
C89 C 0.882500 0.736200 -0.127050
C90 C 0.789330 0.828100 -0.196590
C91 C 0.389710 0.796580 0.546090
C92 C 0.369330 0.985610 0.592040
C93 C 0.413740 0.998540 0.773680
C94 C 0.454110 0.815130 0.820570
C95 C 0.378570 0.686090 0.842690
C96 C 0.399150 0.494960 0.810070
C97 C 0.358260 0.479820 0.628730
C98 C 0.318260 0.664430 0.582700
C99 C 0.240300 0.672400 0.432110
C100 C 0.289330 0.671900 0.303410
C101 C 0.382500 0.763800 0.372950
C102 C 0.740300 0.827600 -0.067890
C103 C 0.477150 0.757960 0.671860
C104 C 0.818260 0.835570 0.082700
C105 C 0.858260 1.020180 0.128730
C106 C 0.899150 1.005040 0.310070
C107 C 0.878570 0.813910 0.342690
C108 C 0.954110 0.684870 0.320570
C109 C 0.913740 0.501460 0.273680
C110 C 0.869330 0.514390 0.092040
C111 C 0.045890 0.315130 0.679430
C112 C 0.889710 0.703420 0.046090
O113 O 0.294920 0.722400 0.721370
O114 O -0.047840 0.196200 0.841450
O115 O 0.205080 0.222400 0.778630
O116 O 0.452160 0.303800 0.341450
O117 O 0.705080 0.277600 0.278630
O118 O 1.047840 0.803800 0.158550
O119 O 0.794920 0.777600 0.221370
O120 O 0.547840 0.696200 0.658550

#END
