
#######################################################################
#
#                 Cambridge Crystallographic Data Centre
#                                CCDC 
#
#######################################################################
#
# If this CIF has been generated from an entry in the Cambridge 
# Structural Database, then it will include bibliographic, chemical, 
# crystal, experimental, refinement or atomic coordinate data resulting 
# from the CCDC's data processing and validation procedures.
#
#######################################################################

data_ABELAU
_symmetry_cell_setting           monoclinic
_symmetry_space_group_name_H-M   'P 21/n'
_symmetry_Int_Tables_number      14
_space_group_name_Hall           '-P 2yn'
loop_
_symmetry_equiv_pos_site_id
_symmetry_equiv_pos_as_xyz
1 x,y,z
2 1/2-x,1/2+y,1/2-z
3 -x,-y,-z
4 1/2+x,1/2-y,1/2+z
_cell_length_a                   11.367(1)
_cell_length_b                   9.749(1)
_cell_length_c                   14.273(1)
_cell_angle_alpha                90
_cell_angle_beta                 111.668(3)
_cell_angle_gamma                90
_cell_volume                     1469.93
loop_
_atom_site_label
_atom_site_type_symbol
_atom_site_fract_x
_atom_site_fract_y
_atom_site_fract_z
O1 O 0.5906(3) 0.1506(3) 0.9774(2)
O2 O 0.4362(3) 0.4661(3) 0.6983(2)
C1 C 0.5970(4) 0.2136(4) 0.8946(3)
C2 C 0.5078(4) 0.3087(4) 0.8382(3)
C3 C 0.5203(4) 0.3707(4) 0.7555(3)
C4 C 0.6226(4) 0.3399(5) 0.7285(3)
C5 C 0.7110(4) 0.2453(5) 0.7848(4)
C6 C 0.6996(4) 0.1818(5) 0.8678(3)
H1 H 0.5262(22) 0.1780(33) 0.9873(19)
H2 H 0.3777(23) 0.4763(35) 0.7203(22)
H3 H 0.4379(4) 0.3310(4) 0.8567(3)
H4 H 0.6319(4) 0.3834(5) 0.6721(3)
H5 H 0.7808(4) 0.2233(5) 0.7662(4)
H6 H 0.7612(4) 0.1172(5) 0.9061(3)
O1 O 0.9094(3) 0.6506(3) 0.5226(2)
O2 O 1.0638(3) 0.9661(3) 0.8017(2)
C1 C 0.9030(4) 0.7136(4) 0.6054(3)
C2 C 0.9922(4) 0.8087(4) 0.6618(3)
C3 C 0.9797(4) 0.8707(4) 0.7445(3)
C4 C 0.8774(4) 0.8399(5) 0.7715(3)
C5 C 0.7890(4) 0.7453(5) 0.7152(4)
C6 C 0.8004(4) 0.6818(5) 0.6322(3)
H1 H 0.9738(22) 0.6780(33) 0.5127(19)
H2 H 1.1223(23) 0.9763(35) 0.7797(22)
H3 H 1.0621(4) 0.8310(4) 0.6433(3)
H4 H 0.8681(4) 0.8834(5) 0.8279(3)
H5 H 0.7192(4) 0.7233(5) 0.7338(4)
H6 H 0.7388(4) 0.6172(5) 0.5939(3)
O1 O 0.4094(3) 0.8494(3) 0.0226(2)
O2 O 0.5638(3) 0.5339(3) 0.3017(2)
C1 C 0.4030(4) 0.7864(4) 0.1054(3)
C2 C 0.4922(4) 0.6913(4) 0.1618(3)
C3 C 0.4797(4) 0.6293(4) 0.2445(3)
C4 C 0.3774(4) 0.6601(5) 0.2715(3)
C5 C 0.2890(4) 0.7547(5) 0.2152(4)
C6 C 0.3004(4) 0.8182(5) 0.1322(3)
H1 H 0.4738(22) 0.8220(33) 0.0127(19)
H2 H 0.6223(23) 0.5237(35) 0.2797(22)
H3 H 0.5621(4) 0.6690(4) 0.1433(3)
H4 H 0.3681(4) 0.6166(5) 0.3279(3)
H5 H 0.2192(4) 0.7767(5) 0.2338(4)
H6 H 0.2388(4) 0.8828(5) 0.0939(3)
O1 O 0.0906(3) 0.3494(3) 0.4774(2)
O2 O -0.0638(3) 0.0339(3) 0.1983(2)
C1 C 0.0970(4) 0.2864(4) 0.3946(3)
C2 C 0.0078(4) 0.1913(4) 0.3382(3)
C3 C 0.0203(4) 0.1293(4) 0.2555(3)
C4 C 0.1226(4) 0.1601(5) 0.2285(3)
C5 C 0.2110(4) 0.2547(5) 0.2848(4)
C6 C 0.1996(4) 0.3182(5) 0.3678(3)
H1 H 0.0262(22) 0.3220(33) 0.4873(19)
H2 H -0.1223(23) 0.0237(35) 0.2203(22)
H3 H -0.0621(4) 0.1690(4) 0.3567(3)
H4 H 0.1319(4) 0.1166(5) 0.1721(3)
H5 H 0.2808(4) 0.2767(5) 0.2662(4)
H6 H 0.2612(4) 0.3828(5) 0.4061(3)
N1 N 0.3866(3) 0.2227(4) 0.0225(3)
N2 N -0.2359(3) 0.4717(4) 0.2407(3)
C7 C 0.3805(4) 0.3404(5) 0.0679(3)
C8 C 0.2693(4) 0.3958(5) 0.0688(3)
C9 C 0.1556(4) 0.3288(4) 0.0201(3)
C10 C 0.1626(4) 0.2053(4) -0.0245(3)
C11 C 0.2765(5) 0.1569(5) -0.0215(3)
C12 C 0.0295(4) 0.3910(4) 0.0066(3)
C13 C 0.0213(4) 0.4989(4) 0.0827(3)
C14 C -0.0637(4) 0.4764(4) 0.1406(3)
C15 C -0.0454(4) 0.5536(4) 0.2264(3)
C16 C -0.1322(4) 0.5488(5) 0.2720(3)
C17 C -0.2497(4) 0.3918(5) 0.1611(4)
C18 C -0.1675(4) 0.3903(5) 0.1106(3)
H7 H 0.4571(4) 0.3888(5) 0.1017(3)
H8 H 0.2707(4) 0.4799(5) 0.1028(3)
H9 H 0.0878(4) 0.1537(4) -0.0576(3)
H10 H 0.2778(5) 0.0710(5) -0.0525(3)
H11 H -0.0351(4) 0.3174(4) -0.0023(3)
H12 H 0.1082(4) 0.5246(4) 0.1298(3)
H13 H 0.0275(4) 0.6101(4) 0.2536(3)
H14 H -0.1172(4) 0.6043(5) 0.3299(3)
H15 H -0.3209(4) 0.3323(5) 0.1380(4)
H16 H -0.1821(4) 0.3300(5) 0.0551(3)
C12B C -0.0295(4) 0.6090(4) -0.0066(3)
C9B C -0.1556(4) 0.6712(4) -0.0201(3)
C8B C -0.2693(4) 0.6042(5) -0.0688(3)
C7B C -0.3805(4) 0.6596(5) -0.0679(3)
N1B N -0.3866(3) 0.7773(4) -0.0225(3)
C11B C -0.2765(5) 0.8431(5) 0.0215(3)
C10B C -0.1626(4) 0.7947(4) 0.0245(3)
H9B H -0.0878(4) 0.8463(4) 0.0576(3)
H10B H -0.2778(5) 0.9290(5) 0.0525(3)
H7B H -0.4571(4) 0.6112(5) -0.1017(3)
H8B H -0.2707(4) 0.5201(5) -0.1028(3)
C13B C -0.0213(4) 0.5011(4) -0.0827(3)
C14B C 0.0637(4) 0.5236(4) -0.1406(3)
C15B C 0.0454(4) 0.4464(4) -0.2264(3)
C16B C 0.1322(4) 0.4512(5) -0.2720(3)
N2B N 0.2359(3) 0.5283(4) -0.2407(3)
C17B C 0.2497(4) 0.6082(5) -0.1611(4)
C18B C 0.1675(4) 0.6097(5) -0.1106(3)
H16B H 0.1821(4) 0.6700(5) -0.0551(3)
H15B H 0.3209(4) 0.6677(5) -0.1380(4)
H14B H 0.1172(4) 0.3957(5) -0.3299(3)
H13B H -0.0275(4) 0.3899(4) -0.2536(3)
H12B H -0.1082(4) 0.4754(4) -0.1298(3)
H11B H 0.0351(4) 0.6826(4) 0.0023(3)
N1 N 0.3866(3) 0.2227(4) 1.0225(3)
N2 N -0.2359(3) 0.4717(4) 1.2407(3)
C7 C 0.3805(4) 0.3404(5) 1.0679(3)
C8 C 0.2693(4) 0.3958(5) 1.0688(3)
C9 C 0.1556(4) 0.3288(4) 1.0201(3)
C10 C 0.1626(4) 0.2053(4) 0.9755(3)
C11 C 0.2765(5) 0.1569(5) 0.9785(3)
C12 C 0.0295(4) 0.3910(4) 1.0066(3)
C13 C 0.0213(4) 0.4989(4) 1.0827(3)
C14 C -0.0637(4) 0.4764(4) 1.1406(3)
C15 C -0.0454(4) 0.5536(4) 1.2264(3)
C16 C -0.1322(4) 0.5488(5) 1.2720(3)
C17 C -0.2497(4) 0.3918(5) 1.1611(4)
C18 C -0.1675(4) 0.3903(5) 1.1106(3)
H7 H 0.4571(4) 0.3888(5) 1.1017(3)
H8 H 0.2707(4) 0.4799(5) 1.1028(3)
H9 H 0.0878(4) 0.1537(4) 0.9424(3)
H10 H 0.2778(5) 0.0710(5) 0.9475(3)
H11 H -0.0351(4) 0.3174(4) 0.9977(3)
H12 H 0.1082(4) 0.5246(4) 1.1298(3)
H13 H 0.0275(4) 0.6101(4) 1.2536(3)
H14 H -0.1172(4) 0.6043(5) 1.3299(3)
H15 H -0.3209(4) 0.3323(5) 1.1380(4)
H16 H -0.1821(4) 0.3300(5) 1.0551(3)
C12B C -0.0295(4) 0.6090(4) 0.9934(3)
C9B C -0.1556(4) 0.6712(4) 0.9799(3)
C8B C -0.2693(4) 0.6042(5) 0.9312(3)
C7B C -0.3805(4) 0.6596(5) 0.9321(3)
N1B N -0.3866(3) 0.7773(4) 0.9775(3)
C11B C -0.2765(5) 0.8431(5) 1.0215(3)
C10B C -0.1626(4) 0.7947(4) 1.0245(3)
H9B H -0.0878(4) 0.8463(4) 1.0576(3)
H10B H -0.2778(5) 0.9290(5) 1.0525(3)
H7B H -0.4571(4) 0.6112(5) 0.8983(3)
H8B H -0.2707(4) 0.5201(5) 0.8972(3)
C13B C -0.0213(4) 0.5011(4) 0.9173(3)
C14B C 0.0637(4) 0.5236(4) 0.8594(3)
C15B C 0.0454(4) 0.4464(4) 0.7736(3)
C16B C 0.1322(4) 0.4512(5) 0.7280(3)
N2B N 0.2359(3) 0.5283(4) 0.7593(3)
C17B C 0.2497(4) 0.6082(5) 0.8389(4)
C18B C 0.1675(4) 0.6097(5) 0.8894(3)
H16B H 0.1821(4) 0.6700(5) 0.9449(3)
H15B H 0.3209(4) 0.6677(5) 0.8620(4)
H14B H 0.1172(4) 0.3957(5) 0.6701(3)
H13B H -0.0275(4) 0.3899(4) 0.7464(3)
H12B H -0.1082(4) 0.4754(4) 0.8702(3)
H11B H 0.0351(4) 0.6826(4) 1.0023(3)
N1 N 1.3866(3) 0.2227(4) 0.0225(3)
N2 N 0.7641(3) 0.4717(4) 0.2407(3)
C7 C 1.3805(4) 0.3404(5) 0.0679(3)
C8 C 1.2693(4) 0.3958(5) 0.0688(3)
C9 C 1.1556(4) 0.3288(4) 0.0201(3)
C10 C 1.1626(4) 0.2053(4) -0.0245(3)
C11 C 1.2765(5) 0.1569(5) -0.0215(3)
C12 C 1.0295(4) 0.3910(4) 0.0066(3)
C13 C 1.0213(4) 0.4989(4) 0.0827(3)
C14 C 0.9363(4) 0.4764(4) 0.1406(3)
C15 C 0.9546(4) 0.5536(4) 0.2264(3)
C16 C 0.8678(4) 0.5488(5) 0.2720(3)
C17 C 0.7503(4) 0.3918(5) 0.1611(4)
C18 C 0.8325(4) 0.3903(5) 0.1106(3)
H7 H 1.4571(4) 0.3888(5) 0.1017(3)
H8 H 1.2707(4) 0.4799(5) 0.1028(3)
H9 H 1.0878(4) 0.1537(4) -0.0576(3)
H10 H 1.2778(5) 0.0710(5) -0.0525(3)
H11 H 0.9649(4) 0.3174(4) -0.0023(3)
H12 H 1.1082(4) 0.5246(4) 0.1298(3)
H13 H 1.0275(4) 0.6101(4) 0.2536(3)
H14 H 0.8828(4) 0.6043(5) 0.3299(3)
H15 H 0.6791(4) 0.3323(5) 0.1380(4)
H16 H 0.8179(4) 0.3300(5) 0.0551(3)
C12B C 0.9705(4) 0.6090(4) -0.0066(3)
C9B C 0.8444(4) 0.6712(4) -0.0201(3)
C8B C 0.7307(4) 0.6042(5) -0.0688(3)
C7B C 0.6195(4) 0.6596(5) -0.0679(3)
N1B N 0.6134(3) 0.7773(4) -0.0225(3)
C11B C 0.7235(5) 0.8431(5) 0.0215(3)
C10B C 0.8374(4) 0.7947(4) 0.0245(3)
H9B H 0.9122(4) 0.8463(4) 0.0576(3)
H10B H 0.7222(5) 0.9290(5) 0.0525(3)
H7B H 0.5429(4) 0.6112(5) -0.1017(3)
H8B H 0.7293(4) 0.5201(5) -0.1028(3)
C13B C 0.9787(4) 0.5011(4) -0.0827(3)
C14B C 1.0637(4) 0.5236(4) -0.1406(3)
C15B C 1.0454(4) 0.4464(4) -0.2264(3)
C16B C 1.1322(4) 0.4512(5) -0.2720(3)
N2B N 1.2359(3) 0.5283(4) -0.2407(3)
C17B C 1.2497(4) 0.6082(5) -0.1611(4)
C18B C 1.1675(4) 0.6097(5) -0.1106(3)
H16B H 1.1821(4) 0.6700(5) -0.0551(3)
H15B H 1.3209(4) 0.6677(5) -0.1380(4)
H14B H 1.1172(4) 0.3957(5) -0.3299(3)
H13B H 0.9725(4) 0.3899(4) -0.2536(3)
H12B H 0.8918(4) 0.4754(4) -0.1298(3)
H11B H 1.0351(4) 0.6826(4) 0.0023(3)
N1 N 1.3866(3) 0.2227(4) 1.0225(3)
N2 N 0.7641(3) 0.4717(4) 1.2407(3)
C7 C 1.3805(4) 0.3404(5) 1.0679(3)
C8 C 1.2693(4) 0.3958(5) 1.0688(3)
C9 C 1.1556(4) 0.3288(4) 1.0201(3)
C10 C 1.1626(4) 0.2053(4) 0.9755(3)
C11 C 1.2765(5) 0.1569(5) 0.9785(3)
C12 C 1.0295(4) 0.3910(4) 1.0066(3)
C13 C 1.0213(4) 0.4989(4) 1.0827(3)
C14 C 0.9363(4) 0.4764(4) 1.1406(3)
C15 C 0.9546(4) 0.5536(4) 1.2264(3)
C16 C 0.8678(4) 0.5488(5) 1.2720(3)
C17 C 0.7503(4) 0.3918(5) 1.1611(4)
C18 C 0.8325(4) 0.3903(5) 1.1106(3)
H7 H 1.4571(4) 0.3888(5) 1.1017(3)
H8 H 1.2707(4) 0.4799(5) 1.1028(3)
H9 H 1.0878(4) 0.1537(4) 0.9424(3)
H10 H 1.2778(5) 0.0710(5) 0.9475(3)
H11 H 0.9649(4) 0.3174(4) 0.9977(3)
H12 H 1.1082(4) 0.5246(4) 1.1298(3)
H13 H 1.0275(4) 0.6101(4) 1.2536(3)
H14 H 0.8828(4) 0.6043(5) 1.3299(3)
H15 H 0.6791(4) 0.3323(5) 1.1380(4)
H16 H 0.8179(4) 0.3300(5) 1.0551(3)
C12B C 0.9705(4) 0.6090(4) 0.9934(3)
C9B C 0.8444(4) 0.6712(4) 0.9799(3)
C8B C 0.7307(4) 0.6042(5) 0.9312(3)
C7B C 0.6195(4) 0.6596(5) 0.9321(3)
N1B N 0.6134(3) 0.7773(4) 0.9775(3)
C11B C 0.7235(5) 0.8431(5) 1.0215(3)
C10B C 0.8374(4) 0.7947(4) 1.0245(3)
H9B H 0.9122(4) 0.8463(4) 1.0576(3)
H10B H 0.7222(5) 0.9290(5) 1.0525(3)
H7B H 0.5429(4) 0.6112(5) 0.8983(3)
H8B H 0.7293(4) 0.5201(5) 0.8972(3)
C13B C 0.9787(4) 0.5011(4) 0.9173(3)
C14B C 1.0637(4) 0.5236(4) 0.8594(3)
C15B C 1.0454(4) 0.4464(4) 0.7736(3)
C16B C 1.1322(4) 0.4512(5) 0.7280(3)
N2B N 1.2359(3) 0.5283(4) 0.7593(3)
C17B C 1.2497(4) 0.6082(5) 0.8389(4)
C18B C 1.1675(4) 0.6097(5) 0.8894(3)
H16B H 1.1821(4) 0.6700(5) 0.9449(3)
H15B H 1.3209(4) 0.6677(5) 0.8620(4)
H14B H 1.1172(4) 0.3957(5) 0.6701(3)
H13B H 0.9725(4) 0.3899(4) 0.7464(3)
H12B H 0.8918(4) 0.4754(4) 0.8702(3)
H11B H 1.0351(4) 0.6826(4) 1.0023(3)
N1 N 0.1134(3) -0.2773(4) 0.4775(3)
N2 N 0.7359(3) -0.0283(4) 0.2593(3)
C7 C 0.1195(4) -0.1596(5) 0.4321(3)
C8 C 0.2307(4) -0.1042(5) 0.4312(3)
C9 C 0.3444(4) -0.1712(4) 0.4799(3)
C10 C 0.3374(4) -0.2947(4) 0.5245(3)
C11 C 0.2235(5) -0.3431(5) 0.5215(3)
C12 C 0.4705(4) -0.1090(4) 0.4934(3)
C13 C 0.4787(4) -0.0011(4) 0.4173(3)
C14 C 0.5637(4) -0.0236(4) 0.3594(3)
C15 C 0.5454(4) 0.0536(4) 0.2736(3)
C16 C 0.6322(4) 0.0488(5) 0.2280(3)
C17 C 0.7497(4) -0.1082(5) 0.3389(4)
C18 C 0.6675(4) -0.1097(5) 0.3894(3)
H7 H 0.0429(4) -0.1112(5) 0.3983(3)
H8 H 0.2293(4) -0.0201(5) 0.3972(3)
H9 H 0.4122(4) -0.3463(4) 0.5576(3)
H10 H 0.2222(5) -0.4290(5) 0.5525(3)
H11 H 0.5351(4) -0.1826(4) 0.5023(3)
H12 H 0.3918(4) 0.0246(4) 0.3702(3)
H13 H 0.4725(4) 0.1101(4) 0.2464(3)
H14 H 0.6172(4) 0.1043(5) 0.1701(3)
H15 H 0.8209(4) -0.1677(5) 0.3620(4)
H16 H 0.6821(4) -0.1700(5) 0.4449(3)
C12B C 0.5295(4) 0.1090(4) 0.5066(3)
C9B C 0.6556(4) 0.1712(4) 0.5201(3)
C8B C 0.7693(4) 0.1042(5) 0.5688(3)
C7B C 0.8805(4) 0.1596(5) 0.5679(3)
N1B N 0.8866(3) 0.2773(4) 0.5225(3)
C11B C 0.7765(5) 0.3431(5) 0.4785(3)
C10B C 0.6626(4) 0.2947(4) 0.4755(3)
H9B H 0.5878(4) 0.3463(4) 0.4424(3)
H10B H 0.7778(5) 0.4290(5) 0.4475(3)
H7B H 0.9571(4) 0.1112(5) 0.6017(3)
H8B H 0.7707(4) 0.0201(5) 0.6028(3)
C13B C 0.5213(4) 0.0011(4) 0.5827(3)
C14B C 0.4363(4) 0.0236(4) 0.6406(3)
C15B C 0.4546(4) -0.0536(4) 0.7264(3)
C16B C 0.3678(4) -0.0488(5) 0.7720(3)
N2B N 0.2641(3) 0.0283(4) 0.7407(3)
C17B C 0.2503(4) 0.1082(5) 0.6611(4)
C18B C 0.3325(4) 0.1097(5) 0.6106(3)
H16B H 0.3179(4) 0.1700(5) 0.5551(3)
H15B H 0.1791(4) 0.1677(5) 0.6380(4)
H14B H 0.3828(4) -0.1043(5) 0.8299(3)
H13B H 0.5275(4) -0.1101(4) 0.7536(3)
H12B H 0.6082(4) -0.0246(4) 0.6298(3)
H11B H 0.4649(4) 0.1826(4) 0.4977(3)
N1 N 0.1134(3) 0.7227(4) 0.4775(3)
N2 N 0.7359(3) 0.9717(4) 0.2593(3)
C7 C 0.1195(4) 0.8404(5) 0.4321(3)
C8 C 0.2307(4) 0.8958(5) 0.4312(3)
C9 C 0.3444(4) 0.8288(4) 0.4799(3)
C10 C 0.3374(4) 0.7053(4) 0.5245(3)
C11 C 0.2235(5) 0.6569(5) 0.5215(3)
C12 C 0.4705(4) 0.8910(4) 0.4934(3)
C13 C 0.4787(4) 0.9989(4) 0.4173(3)
C14 C 0.5637(4) 0.9764(4) 0.3594(3)
C15 C 0.5454(4) 1.0536(4) 0.2736(3)
C16 C 0.6322(4) 1.0488(5) 0.2280(3)
C17 C 0.7497(4) 0.8918(5) 0.3389(4)
C18 C 0.6675(4) 0.8903(5) 0.3894(3)
H7 H 0.0429(4) 0.8888(5) 0.3983(3)
H8 H 0.2293(4) 0.9799(5) 0.3972(3)
H9 H 0.4122(4) 0.6537(4) 0.5576(3)
H10 H 0.2222(5) 0.5710(5) 0.5525(3)
H11 H 0.5351(4) 0.8174(4) 0.5023(3)
H12 H 0.3918(4) 1.0246(4) 0.3702(3)
H13 H 0.4725(4) 1.1101(4) 0.2464(3)
H14 H 0.6172(4) 1.1043(5) 0.1701(3)
H15 H 0.8209(4) 0.8323(5) 0.3620(4)
H16 H 0.6821(4) 0.8300(5) 0.4449(3)
C12B C 0.5295(4) 1.1090(4) 0.5066(3)
C9B C 0.6556(4) 1.1712(4) 0.5201(3)
C8B C 0.7693(4) 1.1042(5) 0.5688(3)
C7B C 0.8805(4) 1.1596(5) 0.5679(3)
N1B N 0.8866(3) 1.2773(4) 0.5225(3)
C11B C 0.7765(5) 1.3431(5) 0.4785(3)
C10B C 0.6626(4) 1.2947(4) 0.4755(3)
H9B H 0.5878(4) 1.3463(4) 0.4424(3)
H10B H 0.7778(5) 1.4290(5) 0.4475(3)
H7B H 0.9571(4) 1.1112(5) 0.6017(3)
H8B H 0.7707(4) 1.0201(5) 0.6028(3)
C13B C 0.5213(4) 1.0011(4) 0.5827(3)
C14B C 0.4363(4) 1.0236(4) 0.6406(3)
C15B C 0.4546(4) 0.9464(4) 0.7264(3)
C16B C 0.3678(4) 0.9512(5) 0.7720(3)
N2B N 0.2641(3) 1.0283(4) 0.7407(3)
C17B C 0.2503(4) 1.1082(5) 0.6611(4)
C18B C 0.3325(4) 1.1097(5) 0.6106(3)
H16B H 0.3179(4) 1.1700(5) 0.5551(3)
H15B H 0.1791(4) 1.1677(5) 0.6380(4)
H14B H 0.3828(4) 0.8957(5) 0.8299(3)
H13B H 0.5275(4) 0.8899(4) 0.7536(3)
H12B H 0.6082(4) 0.9754(4) 0.6298(3)
H11B H 0.4649(4) 1.1826(4) 0.4977(3)

#END
