./ABELAW_from_POSCAR.cif_generated_by_CrystalShift
_symmetry_cell_setting triclinic
_symmetry_space_group_name_H-M 'P 1'
loop_
_symmetry_equiv_pos_site_id
_symmetry_equiv_pos_as_xyz
1 x,y,z
_cell_length_a 4.778400
_cell_length_b 10.846000
_cell_length_c 8.480000
_cell_angle_alpha 90.000000
_cell_angle_beta 97.832000
_cell_angle_gamma 90.000000
_cell_volume 435.389342
loop_
_atom_site_label
_atom_site_type_symbol
_atom_site_fract_x
_atom_site_fract_y
_atom_site_fract_z
H1 H 1.022100 0.238800 0.973900
H2 H 0.272400 0.985100 0.830600
H3 H 0.570700 0.936600 0.802600
H4 H 0.440100 0.895200 0.954000
H5 H 0.261200 0.080500 0.312800
H6 H 0.498200 0.067700 0.202900
H7 H 0.559900 0.395200 0.046000
H8 H 0.501800 0.567700 0.797100
H9 H 0.738800 0.580500 0.687200
H10 H 0.606700 0.451000 0.713100
H11 H 0.429300 0.436600 0.197400
H12 H -0.056500 0.779700 0.427900
H13 H -0.102900 0.638100 0.397600
H14 H 0.727600 0.485100 0.169400
H15 H 1.237100 0.228400 0.862900
H16 H 0.524600 0.813100 0.598000
H17 H 0.393300 -0.049000 0.286900
H18 H 0.475400 0.313100 0.402000
H19 H -0.022100 0.738800 0.026100
H20 H -0.237100 0.728400 0.137100
H21 H 1.056500 0.279700 0.572100
H22 H 1.102900 0.138100 0.602400
C23 C 0.860000 0.216850 0.758300
C24 C 0.601300 0.415900 0.156900
C25 C 0.140000 0.716850 0.241700
C26 C 0.035700 0.703800 0.403200
C27 C 0.568700 0.537700 0.702400
C28 C 0.737000 0.307900 0.246800
C29 C 0.651000 0.059500 0.437600
C30 C 0.431300 0.037700 0.297600
C31 C 0.349000 0.559500 0.562400
C32 C 0.263000 0.807900 0.753200
C33 C 0.398700 0.915900 0.843100
C34 C 0.964300 0.203800 0.596800
N35 N 1.063300 0.229500 0.879000
N36 N 0.263700 0.677000 0.529500
N37 N 0.736300 0.177000 0.470500
N38 N 0.620200 0.274370 0.377200
N39 N -0.063300 0.729500 0.121000
N40 N 0.379800 0.774370 0.622800
O41 O 0.242300 0.475250 0.476300
O42 O 0.391400 0.717260 0.230090
O43 O 0.066900 0.750370 0.796000
O44 O 0.933100 0.250370 0.204000
O45 O 0.757700 -0.024750 0.523700
O46 O 0.608600 0.217260 0.769910

#END
