
#######################################################################
#
#                 Cambridge Crystallographic Data Centre
#                                CCDC 
#
#######################################################################
#
# If this CIF has been generated from an entry in the Cambridge 
# Structural Database, then it will include bibliographic, chemical, 
# crystal, experimental, refinement or atomic coordinate data resulting 
# from the CCDC's data processing and validation procedures.
#
#######################################################################

data_ABEPOP
_symmetry_cell_setting           monoclinic
_symmetry_space_group_name_H-M   'P 21'
_symmetry_Int_Tables_number      4
_space_group_name_Hall           'P 2yb'
loop_
_symmetry_equiv_pos_site_id
_symmetry_equiv_pos_as_xyz
1 x,y,z
2 -x,1/2+y,-z
_cell_length_a                   12.7357(16)
_cell_length_b                   7.3809(9)
_cell_length_c                   18.679(2)
_cell_angle_alpha                90
_cell_angle_beta                 90.047(9)
_cell_angle_gamma                90
_cell_volume                     1755.84
loop_
_atom_site_label
_atom_site_type_symbol
_atom_site_fract_x
_atom_site_fract_y
_atom_site_fract_z
N1 N -0.0943(4) 0.5288(8) 0.8528(3)
H1 H -0.1251 0.6019 0.8237
N2 N 0.1560(4) 0.1033(7) 0.7975(3)
N3 N 0.2920(4) 0.2464(8) 0.7490(3)
C1 C -0.0836(5) 0.2692(10) 1.0106(4)
H2 H -0.0336 0.1986 1.0338
C2 C 0.0041(5) 0.4640(10) 0.8455(3)
H3 H 0.0486 0.4895 0.8074
C3 C 0.1311(5) 0.2639(10) 0.9149(3)
H4 H 0.1739 0.3390 0.9460
H5 H 0.1182 0.1502 0.9394
C4 C -0.0601(5) 0.3538(9) 0.9460(3)
C5 C -0.1366(5) 0.4603(9) 0.9132(3)
C6 C 0.1890(5) 0.2281(9) 0.8483(4)
C7 C 0.0283(5) 0.3571(9) 0.9014(3)
C8 C -0.2359(5) 0.4807(11) 0.9422(4)
H6 H -0.2866 0.5511 0.9195
C9 C 0.2204(5) 0.1185(9) 0.7388(4)
C10 C 0.0742(5) -0.0169(11) 0.7995(4)
H7 H 0.0305 -0.0235 0.8393
C11 C -0.1814(6) 0.2915(11) 1.0394(4)
H8 H -0.1977 0.2369 1.0828
C12 C 0.1247(6) -0.1146(11) 0.6833(4)
H9 H 0.1129 -0.1922 0.6450
C13 C 0.2056(6) 0.0051(10) 0.6802(4)
C14 C 0.3945(6) 0.4224(13) 0.9109(5)
H10 H 0.3831 0.3158 0.9363
C15 C 0.2726(5) 0.3120(9) 0.8172(4)
C16 C -0.2567(6) 0.3948(11) 1.0044(5)
H11 H -0.3233 0.4052 1.0244
C17 C 0.3414(6) 0.4501(11) 0.8478(4)
C18 C 0.0585(6) -0.1235(11) 0.7435(4)
H12 H 0.0030 -0.2054 0.7440
C19 C 0.2776(7) 0.0166(13) 0.6182(4)
H13 H 0.2979 0.1405 0.6108
H14 H 0.2427 -0.0279 0.5762
H15 H 0.3390 -0.0553 0.6274
C20 C 0.4618(8) 0.5436(18) 0.9367(7)
H16 H 0.4965 0.5223 0.9797
C21 C 0.3554(8) 0.6131(13) 0.8128(5)
H17 H 0.3170 0.6384 0.7717
C22 C 0.4787(9) 0.696(2) 0.9001(8)
H18 H 0.5285 0.7779 0.9170
C23 C 0.4248(11) 0.7363(16) 0.8383(7)
H19 H 0.4357 0.8454 0.8145
N1 N 1.0943(4) 1.0288(8) 0.1472(3)
H1 H 1.1251 1.1019 0.1763
N2 N 0.8440(4) 0.6033(7) 0.2025(3)
N3 N 0.7080(4) 0.7464(8) 0.2510(3)
C1 C 1.0836(5) 0.7692(10) -0.0106(4)
H2 H 1.0336 0.6986 -0.0338
C2 C 0.9959(5) 0.9640(10) 0.1545(3)
H3 H 0.9514 0.9895 0.1926
C3 C 0.8689(5) 0.7639(10) 0.0851(3)
H4 H 0.8261 0.8390 0.0540
H5 H 0.8818 0.6502 0.0606
C4 C 1.0601(5) 0.8538(9) 0.0540(3)
C5 C 1.1366(5) 0.9603(9) 0.0868(3)
C6 C 0.8110(5) 0.7281(9) 0.1517(4)
C7 C 0.9717(5) 0.8571(9) 0.0986(3)
C8 C 1.2359(5) 0.9807(11) 0.0578(4)
H6 H 1.2866 1.0511 0.0805
C9 C 0.7796(5) 0.6185(9) 0.2612(4)
C10 C 0.9258(5) 0.4831(11) 0.2005(4)
H7 H 0.9695 0.4765 0.1607
C11 C 1.1814(6) 0.7915(11) -0.0394(4)
H8 H 1.1977 0.7369 -0.0828
C12 C 0.8753(6) 0.3854(11) 0.3167(4)
H9 H 0.8871 0.3078 0.3550
C13 C 0.7944(6) 0.5051(10) 0.3198(4)
C14 C 0.6055(6) 0.9224(13) 0.0891(5)
H10 H 0.6169 0.8158 0.0637
C15 C 0.7274(5) 0.8120(9) 0.1828(4)
C16 C 1.2567(6) 0.8948(11) -0.0044(5)
H11 H 1.3233 0.9052 -0.0244
C17 C 0.6586(6) 0.9501(11) 0.1522(4)
C18 C 0.9415(6) 0.3765(11) 0.2565(4)
H12 H 0.9970 0.2946 0.2560
C19 C 0.7224(7) 0.5166(13) 0.3818(4)
H13 H 0.7021 0.6405 0.3892
H14 H 0.7573 0.4721 0.4238
H15 H 0.6610 0.4447 0.3726
C20 C 0.5382(8) 1.0436(18) 0.0633(7)
H16 H 0.5035 1.0223 0.0203
C21 C 0.6446(8) 1.1131(13) 0.1872(5)
H17 H 0.6830 1.1384 0.2283
C22 C 0.5213(9) 1.196(2) 0.0999(8)
H18 H 0.4715 1.2779 0.0830
C23 C 0.5752(11) 1.2363(16) 0.1617(7)
H19 H 0.5643 1.3454 0.1855
N4 N 0.7922(4) 0.7530(8) 0.7507(3)
N5 N 0.4052(4) 0.4707(8) 0.6470(3)
H20 H 0.3742 0.3986 0.6763
N6 N 0.6556(4) 0.8944(7) 0.7024(3)
C24 C 0.4396(5) 0.6463(9) 0.5541(3)
C25 C 0.5287(5) 0.6427(9) 0.5986(3)
C26 C 0.6303(5) 0.7352(10) 0.5852(3)
H21 H 0.6728 0.6605 0.5538
H22 H 0.6172 0.8491 0.5609
C27 C 0.3631(5) 0.5376(9) 0.5865(3)
C28 C 0.4160(5) 0.7304(10) 0.4900(4)
H23 H 0.4658 0.8015 0.4669
C29 C 0.5047(5) 0.5352(10) 0.6544(3)
H24 H 0.5495 0.5089 0.6924
C30 C 0.6892(5) 0.7709(9) 0.6520(4)
C31 C 0.2425(6) 0.6031(11) 0.4964(5)
H25 H 0.1758 0.5914 0.4765
C32 C 0.2644(5) 0.5191(11) 0.5587(4)
H26 H 0.2137 0.4505 0.5821
C33 C 0.6248(6) 1.1139(11) 0.8166(5)
H27 H 0.6126 1.1917 0.8549
C34 C 0.5585(6) 1.1216(11) 0.7556(5)
H28 H 0.5028 1.2031 0.7547
C35 C 0.7201(5) 0.8792(9) 0.7611(4)
C36 C 0.5745(5) 1.0157(11) 0.7003(4)
H29 H 0.5313 1.0228 0.6602
C37 C 0.7056(6) 0.9950(10) 0.8200(4)
C38 C 0.7788(7) 0.9828(13) 0.8814(4)
H30 H 0.7768 0.8625 0.9008
H31 H 0.7582 1.0682 0.9175
H32 H 0.8487 1.0098 0.8656
C39 C 0.8412(5) 0.5484(10) 0.6531(4)
C40 C 0.7726(5) 0.6883(9) 0.6831(4)
C41 C 0.3179(6) 0.7074(11) 0.4611(4)
H33 H 0.3015 0.7618 0.4176
C42 C 0.8545(9) 0.3858(13) 0.6884(5)
H34 H 0.8160 0.3590 0.7294
C43 C 0.9809(9) 0.299(2) 0.5990(8)
H35 H 1.0296 0.2163 0.5817
C44 C 0.9269(11) 0.2630(16) 0.6613(7)
H36 H 0.9391 0.1548 0.6855
C45 C 0.8949(6) 0.5769(14) 0.5893(5)
H37 H 0.8834 0.6833 0.5638
C46 C 0.9635(8) 0.4532(19) 0.5634(7)
H38 H 0.9987 0.4754 0.5206
N4 N 0.2078(4) 0.2530(8) 0.2493(3)
N5 N 0.5948(4) -0.0293(8) 0.3530(3)
H20 H 0.6258 -0.1014 0.3237
N6 N 0.3444(4) 0.3944(7) 0.2976(3)
C24 C 0.5604(5) 0.1463(9) 0.4459(3)
C25 C 0.4713(5) 0.1427(9) 0.4014(3)
C26 C 0.3697(5) 0.2352(10) 0.4148(3)
H21 H 0.3272 0.1605 0.4462
H22 H 0.3828 0.3491 0.4391
C27 C 0.6369(5) 0.0376(9) 0.4135(3)
C28 C 0.5840(5) 0.2304(10) 0.5100(4)
H23 H 0.5342 0.3015 0.5331
C29 C 0.4953(5) 0.0352(10) 0.3456(3)
H24 H 0.4505 0.0089 0.3076
C30 C 0.3108(5) 0.2709(9) 0.3480(4)
C31 C 0.7575(6) 0.1031(11) 0.5036(5)
H25 H 0.8242 0.0914 0.5235
C32 C 0.7356(5) 0.0191(11) 0.4413(4)
H26 H 0.7863 -0.0495 0.4179
C33 C 0.3752(6) 0.6139(11) 0.1834(5)
H27 H 0.3874 0.6917 0.1451
C34 C 0.4415(6) 0.6216(11) 0.2444(5)
H28 H 0.4972 0.7031 0.2453
C35 C 0.2799(5) 0.3792(9) 0.2389(4)
C36 C 0.4255(5) 0.5157(11) 0.2997(4)
H29 H 0.4687 0.5228 0.3398
C37 C 0.2944(6) 0.4950(10) 0.1800(4)
C38 C 0.2212(7) 0.4828(13) 0.1186(4)
H30 H 0.2232 0.3625 0.0992
H31 H 0.2418 0.5682 0.0825
H32 H 0.1513 0.5098 0.1344
C39 C 0.1588(5) 0.0484(10) 0.3469(4)
C40 C 0.2274(5) 0.1883(9) 0.3169(4)
C41 C 0.6821(6) 0.2074(11) 0.5389(4)
H33 H 0.6985 0.2618 0.5824
C42 C 0.1455(9) -0.1142(13) 0.3116(5)
H34 H 0.1840 -0.1410 0.2706
C43 C 0.0191(9) -0.201(2) 0.4010(8)
H35 H -0.0296 -0.2837 0.4183
C44 C 0.0731(11) -0.2370(16) 0.3387(7)
H36 H 0.0609 -0.3452 0.3145
C45 C 0.1051(6) 0.0769(14) 0.4107(5)
H37 H 0.1166 0.1833 0.4362
C46 C 0.0365(8) -0.0468(19) 0.4366(7)
H38 H 0.0013 -0.0246 0.4794

#END
