./ABESIK_from_POSCAR.cif_generated_by_CrystalShift
_symmetry_cell_setting triclinic
_symmetry_space_group_name_H-M 'P 1'
loop_
_symmetry_equiv_pos_site_id
_symmetry_equiv_pos_as_xyz
1 x,y,z
_cell_length_a 3.850100
_cell_length_b 11.448200
_cell_length_c 13.050400
_cell_angle_alpha 109.840900
_cell_angle_beta 92.989100
_cell_angle_gamma 99.200400
_cell_volume 530.593128
loop_
_atom_site_label
_atom_site_type_symbol
_atom_site_fract_x
_atom_site_fract_y
_atom_site_fract_z
H1 H 0.288800 0.269800 0.916300
H2 H 0.168600 0.097600 0.974500
H3 H 0.254200 -0.101900 0.862500
H4 H 0.464800 -0.127100 0.693000
H5 H 0.584800 0.044400 0.634100
H6 H 0.818400 0.397100 0.887400
H7 H 0.481600 0.597800 0.461700
H8 H 0.518400 0.402200 0.538300
H9 H 0.711200 0.730200 0.083700
H10 H 0.831400 0.902400 0.025500
H11 H 0.181600 0.602900 0.112600
H12 H 0.745800 1.101900 0.137500
H13 H 0.535200 1.127100 0.307000
H14 H 0.415200 0.955600 0.365900
C15 C 0.571600 1.046340 0.261710
C16 C 0.500000 0.944480 0.296790
C17 C 0.696000 1.031550 0.160990
C18 C 0.552300 0.825190 0.230630
C19 C 0.747300 0.913240 0.094690
C20 C 0.242600 0.602820 0.184100
C21 C 0.675700 0.810870 0.129390
C22 C 0.124600 0.494990 0.207690
C23 C 0.252700 0.086760 0.905310
C24 C 0.304000 -0.031550 0.839010
C25 C 0.448800 0.711780 0.262170
C26 C 0.551200 0.288220 0.737830
C27 C 0.462600 0.294200 0.634650
C28 C 0.580600 0.401230 0.609360
C29 C 0.210200 0.493210 0.311700
C30 C 0.789800 0.506790 0.688300
C31 C 0.875400 0.505010 0.792310
C32 C 0.757400 0.397180 0.815900
C33 C 0.419400 0.598770 0.390640
C34 C 0.447700 0.174810 0.769370
C35 C 0.500000 0.055520 0.703210
C36 C 0.537400 0.705800 0.365350
C37 C 0.428400 -0.046340 0.738290
C38 C 0.324300 0.189130 0.870610
Cl39 Cl -0.131830 0.364580 0.106810
Cl40 Cl 0.190340 0.168780 0.531710
Cl41 Cl 0.059510 0.361690 0.345300
Cl42 Cl 0.940490 0.638310 0.654700
Cl43 Cl 1.131830 0.635420 0.893190
Cl44 Cl 0.809660 0.831220 0.468290

#END
