./ABIGAW_from_POSCAR.cif_generated_by_CrystalShift
_symmetry_cell_setting triclinic
_symmetry_space_group_name_H-M 'P 1'
loop_
_symmetry_equiv_pos_site_id
_symmetry_equiv_pos_as_xyz
1 x,y,z
_cell_length_a 10.608000
_cell_length_b 5.962000
_cell_length_c 13.638000
_cell_angle_alpha 90.000000
_cell_angle_beta 100.120000
_cell_angle_gamma 90.000000
_cell_volume 849.114508
loop_
_atom_site_label
_atom_site_type_symbol
_atom_site_fract_x
_atom_site_fract_y
_atom_site_fract_z
H1 H 0.774900 1.209300 0.686900
H2 H 0.627600 1.178600 0.684600
H3 H 1.111500 1.211900 0.773500
H4 H -0.074000 0.408600 0.012300
H5 H -0.115200 0.171000 0.044200
H6 H 1.055700 1.226900 0.872400
H7 H -0.284200 0.531300 -0.016400
H8 H -0.277400 0.308600 -0.076400
H9 H 1.204000 1.209100 0.876700
H10 H -0.454500 0.312600 0.007200
H11 H 0.634900 0.584400 0.478700
H12 H -0.412900 0.252100 0.181200
H13 H -0.372100 0.493700 0.153700
H14 H 0.594800 0.834200 0.450800
H15 H -0.202400 0.129600 0.200300
H16 H 0.798100 0.958800 0.491000
H17 H -0.266800 0.265200 0.343200
H18 H -0.214100 0.504000 0.323700
H19 H 0.835700 0.705500 0.477400
H20 H -0.063000 0.114900 0.370500
H21 H -0.060700 0.326300 0.439100
H22 H 0.834500 0.623800 0.640400
H23 H 0.038800 0.539600 0.333100
H24 H 0.668400 0.877300 0.808500
H25 H 0.016400 0.159300 0.206200
H26 H 0.733800 0.652000 0.785000
H27 H 0.863600 1.062100 0.835800
H28 H 0.122800 0.347300 0.097100
H29 H 0.136400 0.562100 0.164200
H30 H 0.877200 0.847300 0.902900
H31 H 0.266200 0.152000 0.215000
H32 H 0.331600 0.377300 0.191500
H33 H 0.983600 0.659300 0.793800
H34 H 0.961200 1.039600 0.666900
H35 H 0.165500 0.123800 0.359600
H36 H 1.060700 0.826300 0.560900
H37 H 0.164300 0.205500 0.522600
H38 H 0.201900 0.458800 0.509000
H39 H 1.063000 0.614900 0.629500
H40 H 0.405200 0.334200 0.549200
H41 H 0.365100 0.084400 0.521300
H42 H 1.214100 1.004000 0.676300
H43 H 1.266800 0.765200 0.656800
H44 H -0.204000 0.709100 0.123300
H45 H -0.055700 0.726900 0.127600
H46 H -0.111500 0.711900 0.226500
H47 H 1.202400 0.629600 0.799700
H48 H 0.372400 0.678600 0.315400
H49 H 0.317000 0.665700 0.414500
H50 H 0.225100 0.709300 0.313100
H51 H 1.372100 0.993700 0.846300
H52 H 1.412900 0.752100 0.818800
H53 H 1.454500 0.812600 0.992800
H54 H 1.074000 0.908600 0.987700
H55 H 1.115200 0.671000 0.955800
H56 H 1.277400 0.808600 1.076400
H57 H 1.284200 1.031300 1.016400
H58 H 0.683000 1.165700 0.585500
C59 C 1.369160 0.768300 0.958410
C60 C 1.133890 0.830000 0.953780
C61 C 1.352680 0.835400 0.850610
C62 C 0.699300 1.131600 0.655400
C63 C -0.133890 0.330000 0.046220
C64 C 1.216600 0.791400 0.795070
C65 C 0.300700 0.631600 0.344600
C66 C 1.201630 0.844500 0.684890
C67 C -0.121800 0.662400 0.158550
C68 C 0.391530 0.270200 0.399740
C69 C 1.069850 0.777100 0.629550
C70 C 0.353650 0.239400 0.499930
C71 C 0.211730 0.306400 0.486670
C72 C 0.961350 0.876400 0.675610
C73 C 0.167990 0.285100 0.373820
C74 C 0.981240 0.823200 0.788420
C75 C 0.281000 0.377900 0.330060
C76 C 1.112480 0.906700 0.844210
C77 C 0.865560 0.899400 0.834570
C78 C 0.262780 0.313900 0.221040
C79 C 0.134440 0.399400 0.165430
C80 C 0.737220 0.813900 0.778960
C81 C -0.112480 0.406700 0.155790
C82 C 0.018760 0.323200 0.211580
C83 C 0.719000 0.877900 0.669940
C84 C 0.832010 0.785100 0.626180
C85 C 0.038650 0.376400 0.324390
C86 C 0.788270 0.806400 0.513330
C87 C -0.069850 0.277100 0.370450
C88 C -0.201630 0.344500 0.315110
C89 C 0.646350 0.739400 0.500070
C90 C -0.216600 0.291400 0.204930
C91 C -0.352680 0.335400 0.149390
C92 C 0.608470 0.770200 0.600260
C93 C 1.121800 1.162400 0.841450
C94 C -0.369160 0.268300 0.041590
C95 C -0.269300 0.371100 -0.009910
C96 C 1.269300 0.871100 1.009910
O97 O 0.492750 0.215500 0.378850
O98 O 0.507250 0.715500 0.621150
F99 F 1.355660 0.532200 0.964100
F100 F -0.355660 0.032200 0.035900

#END
